drugbank_target|P26661 Genome polyprotein (DB08701)
 OpenBabel12092120523D

  0  0  0     0  0            999 V3000
M  V30 BEGIN CTAB
M  V30 COUNTS 46435 47028 0 0 0
M  V30 BEGIN ATOM
M  V30 1 H -0.908 1.98254 -0.117106 0
M  V30 2 N 0 1.576 0 0
M  V30 3 C 0.933 2.03868 1.02534 0
M  V30 4 C 1.911 0.928543 1.3348 0
M  V30 5 O 3.095 1.19667 1.45644 0
M  V30 6 C 0.222 2.43627 2.35294 0
M  V30 7 C -0.732 3.65373 2.2001 0
M  V30 8 S 0.101 5.13292 1.52614 0
M  V30 9 C 1.257 5.56322 2.86805 0
M  V30 10 H 1.49 2.90518 0.631377 0
M  V30 11 H -0.977 1.52953 0.210867 0
M  V30 12 H 0.981 2.67203 3.11629 0
M  V30 13 H -0.358 1.57376 2.7183 0
M  V30 14 H -1.165 3.90944 3.18086 0
M  V30 15 H -1.563 3.418 1.51819 0
M  V30 16 H 0.729 5.58782 3.83104 0
M  V30 17 H 1.672 6.56266 2.65933 0
M  V30 18 H 2.08 4.83886 2.90714 0
M  V30 19 N 1.4781 -0.272755 1.55222 0
M  V30 20 C 2.7031 -1.02683 1.80197 0
M  V30 21 C 3.1281 -1.79142 0.573551 0
M  V30 22 O 2.4861 -1.74917 -0.476849 0
M  V30 23 C 2.5341 -1.9609 3.02624 0
M  V30 24 O 1.6381 -3.04863 2.77727 0
M  V30 25 H 0.9791 -0.293557 0.595584 0
M  V30 26 H 3.5091 -0.30159 2.02365 0
M  V30 27 H 3.5191 -2.38039 3.31363 0
M  V30 28 H 2.1941 -1.39851 3.91682 0
M  V30 29 H 0.7711 -2.67228 2.60084 0
M  V30 30 N 2.9562 -1.48159 -0.537278 0
M  V30 31 C 4.1842 -1.59454 -1.31841 0
M  V30 32 C 4.5992 -0.252065 -1.8711 0
M  V30 33 O 3.9562 0.757621 -1.66031 0
M  V30 34 C 4.0072 -2.63546 -2.47439 0
M  V30 35 O 3.7282 -3.92583 -1.94449 0
M  V30 36 C 5.2292 -2.85212 -3.39366 0
M  V30 37 H 2.4492 -0.53785 -0.401196 0
M  V30 38 H 4.9932 -1.93932 -0.648891 0
M  V30 39 H 3.1482 -2.31946 -3.1029 0
M  V30 40 H 3.5622 -4.49629 -2.70063 0
M  V30 41 H 5.0362 -3.61863 -4.16844 0
M  V30 42 H 5.5132 -1.93765 -3.94147 0
M  V30 43 H 6.1192 -3.18086 -2.82314 0
M  V30 44 N 4.4343 0.785586 -1.36625 0
M  V30 45 C 5.3823 1.91978 -1.31329 0
M  V30 46 C 6.3763 1.68162 -0.204416 0
M  V30 47 O 7.5823 1.76122 -0.371645 0
M  V30 48 H 3.9573 0.631087 -0.408942 0
M  V30 49 H 5.9283 1.93562 -2.27104 0
M  V30 50 C 4.6773 3.29055 -1.12329 0
M  V30 51 H 4.0003 3.4795 -1.96903 0
M  V30 52 H 5.4403 4.08756 -1.12671 0
M  V30 53 C 3.8993 3.36461 0.171861 0
M  V30 54 O 4.4293 3.84576 1.16035 0
M  V30 55 N 2.6353 2.89782 0.217846 0
M  V30 56 H 2.1823 2.50819 -0.587183 0
M  V30 57 H 2.1403 2.95119 1.08408 0
M  V30 58 N 5.9124 1.20967 1.01018 0
M  V30 59 C 7.3234 1.02319 1.56165 0
M  V30 60 C 7.6744 -0.418546 1.91684 0
M  V30 61 O 6.7994 -1.30096 1.72928 0
M  V30 62 C 7.3944 1.85109 2.8376 0
M  V30 63 C 5.9534 1.70809 3.35412 0
M  V30 64 C 5.1004 1.82643 2.08655 0
M  V30 65 H 8.0514 1.35065 0.833255 0
M  V30 66 H 8.0724 1.35827 3.55431 0
M  V30 67 H 7.5844 2.90035 2.57878 0
M  V30 68 H 5.6854 0.685464 3.66241 0
M  V30 69 H 5.7984 2.52467 4.07182 0
M  V30 70 H 4.1624 1.25896 2.21409 0
M  V30 71 H 4.9454 2.89066 1.85191 0
M  V30 72 N 7.3905 -1.2043 1.01659 0
M  V30 73 C 8.3375 -2.23215 0.586822 0
M  V30 74 C 9.3075 -1.61382 -0.393085 0
M  V30 75 O 10.4925 -1.88544 -0.292525 0
M  V30 76 C 7.6325 -3.45032 -0.0687464 0
M  V30 77 C 6.7455 -4.21296 0.955724 0
M  V30 78 C 5.8805 -5.30507 0.271208 0
M  V30 79 C 4.9195 -5.98515 1.28244 0
M  V30 80 N 4.0565 -6.99316 0.62459 0
M  V30 81 H 8.8965 -2.59336 1.46796 0
M  V30 82 H 6.4335 -1.27431 0.734836 0
M  V30 83 H 8.3915 -4.1459 -0.465965 0
M  V30 84 H 7.0215 -3.09604 -0.913529 0
M  V30 85 H 6.0735 -3.50803 1.4711 0
M  V30 86 H 7.3855 -4.6803 1.72479 0
M  V30 87 H 6.5395 -6.06428 -0.18151 0
M  V30 88 H 5.2785 -4.8481 -0.530163 0
M  V30 89 H 4.2835 -5.21355 1.74554 0
M  V30 90 H 5.5085 -6.46298 2.08509 0
M  V30 91 H 3.4545 -6.55812 -0.156914 0
M  V30 92 H 3.3715 -7.44178 1.33172 0
M  V30 93 H 4.6395 -7.79255 0.195462 0
M  V30 94 N 8.8686 -0.792821 -1.36206 0
M  V30 95 C 10.2796 -0.429513 -1.81692 0
M  V30 96 C 10.6306 1.04695 -1.65932 0
M  V30 97 O 9.7556 1.81256 -1.18218 0
M  V30 98 C 10.3506 -0.772831 -3.29868 0
M  V30 99 C 8.9096 -0.462307 -3.7355 0
M  V30 100 C 8.0566 -1.00569 -2.5842 0
M  V30 101 H 11.0076 -0.985672 -1.24379 0
M  V30 102 H 11.0286 -0.0651928 -3.80444 0
M  V30 103 H 10.5406 -1.84747 -3.41307 0
M  V30 104 H 8.6416 0.604158 -3.67669 0
M  V30 105 H 8.7546 -0.985299 -4.68859 0
M  V30 106 H 7.1186 -0.428734 -2.51066 0
M  V30 107 H 7.9016 -2.08616 -2.72643 0
M  V30 108 N 10.3467 1.47872 -0.545128 0
M  V30 109 C 11.2787 2.27869 0.246621 0
M  V30 110 C 12.2917 1.36282 0.890561 0
M  V30 111 O 13.4807 1.61207 0.766449 0
M  V30 112 C 10.5807 3.10159 1.36582 0
M  V30 113 C 9.7537 4.29627 0.820954 0
M  V30 114 C 8.8127 4.93607 1.82314 0
M  V30 115 O 7.8387 5.52366 1.37406 0
M  V30 116 N 9.0407 4.87211 3.15603 0
M  V30 117 H 11.8057 2.96459 -0.439539 0
M  V30 118 H 9.3667 1.57367 -0.380421 0
M  V30 119 H 11.3587 3.49829 2.03474 0
M  V30 120 H 9.9287 2.43891 1.9554 0
M  V30 121 H 9.1487 3.94192 -0.0244032 0
M  V30 122 H 10.4367 5.06928 0.436063 0
M  V30 123 H 9.8347 4.40651 3.54744 0
M  V30 124 H 8.3917 5.30937 3.78087 0
M  V30 125 N 11.8248 0.280983 1.55075 0
M  V30 126 C 13.2408 -0.0729964 1.59433 0
M  V30 127 C 13.4408 -1.5411 1.29817 0
M  V30 128 O 12.4968 -2.29086 1.06187 0
M  V30 129 C 13.8098 0.306921 2.9913 0
M  V30 130 C 15.3578 0.254023 3.11968 0
M  V30 131 C 15.8328 0.608467 4.5394 0
M  V30 132 N 17.3238 0.560241 4.59799 0
M  V30 133 C 18.0588 0.80722 5.6769 0
M  V30 134 N 17.5548 1.11912 6.83701 0
M  V30 135 N 19.3478 0.735623 5.57266 0
M  V30 136 H 11.4988 1.238 1.7259 0
M  V30 137 H 13.7618 0.500547 0.805082 0
M  V30 138 H 13.4678 1.32816 3.25657 0
M  V30 139 H 13.3418 -0.349363 3.75579 0
M  V30 140 H 15.7288 -0.75794 2.852 0
M  V30 141 H 15.8098 0.944649 2.37718 0
M  V30 142 H 15.4538 1.61814 4.81434 0
M  V30 143 H 15.3838 -0.104013 5.26497 0
M  V30 144 H 17.8748 0.329288 3.76463 0
M  V30 145 H 18.1878 1.29409 7.61888 0
M  V30 146 H 16.5328 1.15695 6.85303 0
M  V30 147 H 19.7238 0.491752 4.6551 0
M  V30 148 H 19.8968 0.931482 6.4127 0
M  V30 149 N 13.3029 -1.57598 0.00835791 0
M  V30 150 C 14.2499 -2.08945 -0.980346 0
M  V30 151 C 15.2199 -0.986738 -1.33614 0
M  V30 152 O 16.4049 -1.25968 -1.43306 0
M  V30 153 C 13.5449 -2.60425 -2.26435 0
M  V30 154 C 12.6579 -3.84628 -1.96685 0
M  V30 155 C 11.7929 -4.24579 -3.19228 0
M  V30 156 C 10.8319 -5.41596 -2.85202 0
M  V30 157 N 9.9689 -5.768 -4.00307 0
M  V30 158 H 14.8089 -2.93148 -0.535551 0
M  V30 159 H 12.3459 -1.44912 -0.252776 0
M  V30 160 H 14.3039 -2.88354 -3.01509 0
M  V30 161 H 12.9339 -1.79083 -2.68568 0
M  V30 162 H 11.9859 -3.63556 -1.11942 0
M  V30 163 H 13.2979 -4.69796 -1.67611 0
M  V30 164 H 12.4519 -4.53834 -4.02641 0
M  V30 165 H 11.1909 -3.38137 -3.51447 0
M  V30 166 H 10.1959 -5.12056 -2.00198 0
M  V30 167 H 11.4209 -6.29721 -2.54222 0
M  V30 168 H 9.3669 -4.93316 -4.32407 0
M  V30 169 H 9.2839 -6.5656 -3.74786 0
M  V30 170 H 10.5519 -6.10652 -4.84484 0
M  V30 171 N 14.781 0.264519 -1.55364 0
M  V30 172 C 16.009 1.013 -1.80405 0
M  V30 173 C 16.424 1.79618 -0.581622 0
M  V30 174 O 15.781 1.76879 0.449468 0
M  V30 175 C 15.832 1.96487 -3.03439 0
M  V30 176 O 15.553 1.21341 -4.20961 0
M  V30 177 C 17.054 2.83079 -3.41147 0
M  V30 178 H 14.274 0.298875 -0.600762 0
M  V30 179 H 16.818 0.292736 -2.02394 0
M  V30 180 H 14.973 2.63965 -2.83551 0
M  V30 181 H 15.387 1.85573 -4.90574 0
M  V30 182 H 16.861 3.4565 -4.30384 0
M  V30 183 H 17.338 3.53286 -2.60932 0
M  V30 184 H 17.944 2.2108 -3.63323 0
M  V30 185 N 16.2591 1.48442 0.529413 0
M  V30 186 C 17.2061 1.63007 1.63394 0
M  V30 187 C 18.1761 0.47212 1.59249 0
M  V30 188 O 19.3611 0.695673 1.77666 0
M  V30 189 C 16.5011 1.6763 3.01653 0
M  V30 190 C 15.6141 2.94535 3.16027 0
M  V30 191 C 14.7491 2.90316 4.44849 0
M  V30 192 C 13.7881 4.11923 4.52754 0
M  V30 193 N 12.9251 4.05777 5.72965 0
M  V30 194 H 17.7651 2.5733 1.50285 0
M  V30 195 H 15.3021 1.27613 0.731656 0
M  V30 196 H 17.2601 1.68292 3.81751 0
M  V30 197 H 15.8901 0.76797 3.13532 0
M  V30 198 H 14.9421 3.03615 2.29177 0
M  V30 199 H 16.2541 3.84512 3.17729 0
M  V30 200 H 15.4081 2.89382 5.33238 0
M  V30 201 H 14.1471 1.98068 4.45668 0
M  V30 202 H 13.1521 4.13131 3.62771 0
M  V30 203 H 14.3771 5.0533 4.53672 0
M  V30 204 H 12.3231 3.16351 5.74681 0
M  V30 205 H 12.2401 4.8946 5.76164 0
M  V30 206 H 13.5081 4.08904 6.6364 0
M  V30 207 N 17.7372 -0.778329 1.37039 0
M  V30 208 C 19.1532 -1.07796 1.17695 0
M  V30 209 C 19.3532 -2.01498 0.00860115 0
M  V30 210 O 18.4092 -2.43901 -0.653352 0
M  V30 211 C 19.7222 -1.68178 2.49272 0
M  V30 212 C 21.2702 -1.80467 2.55735 0
M  V30 213 C 21.7452 -2.44263 3.87427 0
M  V30 214 N 23.2362 -2.51721 3.88833 0
M  V30 215 C 23.9712 -3.01919 4.87476 0
M  V30 216 N 23.4672 -3.5234 5.96513 0
M  V30 217 N 25.2602 -3.00733 4.74885 0
M  V30 218 H 17.4112 -0.156032 2.11826 0
M  V30 219 H 19.6742 -0.131844 0.938787 0
M  V30 220 H 19.3802 -1.06796 3.35093 0
M  V30 221 H 19.2542 -2.67554 2.65885 0
M  V30 222 H 21.6412 -2.40984 1.70325 0
M  V30 223 H 21.7222 -0.798656 2.43013 0
M  V30 224 H 21.3662 -1.84388 4.73248 0
M  V30 225 H 21.2962 -3.45458 3.9745 0
M  V30 226 H 23.7872 -2.1603 3.10063 0
M  V30 227 H 24.1002 -3.89027 6.67741 0
M  V30 228 H 22.4452 -3.50462 6.00168 0
M  V30 229 H 25.6362 -2.60638 3.88826 0
M  V30 230 H 25.8092 -3.39545 5.51918 0
M  V30 231 N 19.2153 -1.21501 -1.00376 0
M  V30 232 C 20.1633 -0.972442 -2.11297 0
M  V30 233 C 21.1573 0.080731 -1.69208 0
M  V30 234 O 22.3633 -0.0707666 -1.79861 0
M  V30 235 H 18.7383 -0.297218 -0.690772 0
M  V30 236 H 20.7093 -1.91394 -2.28934 0
M  V30 237 C 19.4583 -0.555065 -3.43241 0
M  V30 238 H 18.7813 -1.35709 -3.76062 0
M  V30 239 H 20.2213 -0.424664 -4.21868 0
M  V30 240 C 18.6803 0.734147 -3.28804 0
M  V30 241 O 19.2103 1.78937 -3.59645 0
M  V30 242 N 17.4163 0.701133 -2.82015 0
M  V30 243 H 16.9633 -0.157874 -2.57116 0
M  V30 244 H 16.9213 1.56403 -2.72737 0
M  V30 245 N 20.6934 1.19889 -1.02296 0
M  V30 246 C 21.9214 1.9339 -0.735399 0
M  V30 247 C 22.3364 1.75148 0.704887 0
M  V30 248 O 21.6934 1.06954 1.47875 0
M  V30 249 C 21.7444 3.45313 -1.06962 0
M  V30 250 O 21.4654 3.62964 -2.45334 0
M  V30 251 C 22.9664 4.35948 -0.804021 0
M  V30 252 H 20.1864 0.61448 -0.269546 0
M  V30 253 H 22.7304 1.522 -1.36585 0
M  V30 254 H 20.8854 3.84359 -0.484455 0
M  V30 255 H 21.2994 4.56886 -2.57595 0
M  V30 256 H 22.7734 5.41174 -1.0879 0
M  V30 257 H 23.2504 4.3842 0.261691 0
M  V30 258 H 23.8564 4.02574 -1.37164 0
M  V30 259 N 22.1715 0.800033 1.35784 0
M  V30 260 C 23.1195 0.193851 2.31791 0
M  V30 261 C 24.1135 -0.652744 1.56319 0
M  V30 262 O 25.3195 -0.546641 1.71499 0
M  V30 263 H 21.6945 0.04392 0.750716 0
M  V30 264 H 23.6655 1.01883 2.80468 0
M  V30 265 C 22.4145 -0.648338 3.41602 0
M  V30 266 H 21.7375 -0.00624665 3.998 0
M  V30 267 H 23.1775 -1.03898 4.11073 0
M  V30 268 C 21.6365 -1.8111 2.84079 0
M  V30 269 O 22.1665 -2.90825 2.77099 0
M  V30 270 N 20.3725 -1.62056 2.41218 0
M  V30 271 H 19.9195 -0.728123 2.47095 0
M  V30 272 H 19.8775 -2.40013 2.03079 0
M  V30 273 N 23.6496 -1.47581 0.552962 0
M  V30 274 C 25.0656 -1.5818 0.212424 0
M  V30 275 C 25.2656 -1.55213 -1.28496 0
M  V30 276 O 24.3216 -1.45329 -2.06484 0
M  V30 277 C 25.6346 -2.88865 0.835318 0
M  V30 278 C 27.1826 -3.0244 0.806156 0
M  V30 279 C 27.6576 -4.35819 1.40804 0
M  V30 280 N 29.1486 -4.42444 1.37103 0
M  V30 281 C 29.8836 -5.44202 1.80641 0
M  V30 282 N 29.3796 -6.52795 2.32015 0
M  V30 283 N 31.1726 -5.35222 1.71738 0
M  V30 284 H 23.3236 -1.47753 1.52587 0
M  V30 285 H 25.5866 -0.702941 0.636064 0
M  V30 286 H 25.2926 -2.9676 1.88749 0
M  V30 287 H 25.1666 -3.7579 0.325848 0
M  V30 288 H 27.5536 -2.94144 -0.237317 0
M  V30 289 H 27.6346 -2.17068 1.35334 0
M  V30 290 H 27.2786 -4.44871 2.45056 0
M  V30 291 H 27.2086 -5.19916 0.836338 0
M  V30 292 H 29.6996 -3.6456 0.995202 0
M  V30 293 H 30.0126 -7.26609 2.63171 0
M  V30 294 H 28.3576 -6.53696 2.36023 0
M  V30 295 H 31.5486 -4.49284 1.31382 0
M  V30 296 H 31.7216 -6.14389 2.05987 0
M  V30 297 N 25.1277 -0.289203 -1.54924 0
M  V30 298 C 26.5437 0.0645403 -1.59469 0
M  V30 299 C 26.7437 1.53419 -1.30632 0
M  V30 300 O 25.7997 2.2852 -1.074 0
M  V30 301 C 27.1127 -0.32278 -2.98963 0
M  V30 302 C 28.6607 -0.270564 -3.11828 0
M  V30 303 C 29.1357 -0.632532 -4.53611 0
M  V30 304 N 30.6267 -0.584617 -4.59496 0
M  V30 305 C 31.3617 -0.837314 -5.67254 0
M  V30 306 N 30.8577 -1.15536 -6.83098 0
M  V30 307 N 32.6507 -0.765166 -5.56868 0
M  V30 308 H 24.8017 -1.24714 -1.71931 0
M  V30 309 H 27.0647 -0.504809 -0.802416 0
M  V30 310 H 26.7707 -1.34541 -3.24948 0
M  V30 311 H 26.6447 0.32944 -3.75759 0
M  V30 312 H 29.0317 0.742805 -2.85598 0
M  V30 313 H 29.1127 -0.957242 -2.37214 0
M  V30 314 H 28.7567 -1.64365 -4.80569 0
M  V30 315 H 28.6867 0.07609 -5.26545 0
M  V30 316 H 31.1777 -0.349248 -3.76283 0
M  V30 317 H 31.4907 -1.33447 -7.61191 0
M  V30 318 H 29.8357 -1.19328 -6.84679 0
M  V30 319 H 33.0267 -0.516432 -4.65243 0
M  V30 320 H 33.1997 -0.965477 -6.40767 0
M  V30 321 N 26.6058 1.57591 -0.0167156 0
M  V30 322 C 28.0168 1.79201 0.523834 0
M  V30 323 C 28.3678 0.925796 1.72984 0
M  V30 324 O 27.4928 0.132792 2.15992 0
M  V30 325 C 28.0878 3.25 0.957091 0
M  V30 326 C 26.6468 3.47648 1.44283 0
M  V30 327 C 25.7938 2.74374 0.401757 0
M  V30 328 H 28.7448 1.56831 -0.242816 0
M  V30 329 H 28.7658 3.34031 1.82219 0
M  V30 330 H 28.2778 3.88019 0.0791415 0
M  V30 331 H 26.3788 2.89866 2.34113 0
M  V30 332 H 26.4918 4.56352 1.45877 0
M  V30 333 H 24.8558 2.39485 0.867121 0
M  V30 334 H 25.6388 3.40102 -0.467513 0
M  V30 335 N 28.0839 -0.256276 1.55502 0
M  V30 336 C 29.0159 -1.33981 1.85962 0
M  V30 337 C 30.0289 -1.44743 0.745212 0
M  V30 338 O 31.2179 -1.4626 1.02324 0
M  V30 339 C 28.3179 -2.7194 2.02242 0
M  V30 340 C 27.4909 -2.83562 3.33033 0
M  V30 341 C 26.5499 -4.02304 3.39172 0
M  V30 342 O 25.5759 -3.92273 4.12444 0
M  V30 343 N 26.7779 -5.15045 2.67784 0
M  V30 344 H 29.5429 -1.08191 2.7949 0
M  V30 345 H 27.1039 -0.446388 1.55624 0
M  V30 346 H 29.0959 -3.49697 2.03701 0
M  V30 347 H 27.6659 -2.90479 1.15502 0
M  V30 348 H 26.8859 -1.92555 3.43971 0
M  V30 349 H 28.1739 -2.88271 4.19258 0
M  V30 350 H 27.5719 -5.26085 2.07968 0
M  V30 351 H 26.1289 -5.90972 2.74947 0
M  V30 352 N 29.562 -1.4872 -0.521534 0
M  V30 353 C 30.839 -1.4766 -1.2828 0
M  V30 354 C 31.219 -0.19292 -2.10217 0
M  V30 355 O 30.567 0.825193 -2.13079 0
M  V30 356 C 30.777 -2.74358 -2.15705 0
M  V30 357 C 32.125 -3.23028 -2.75569 0
M  V30 358 O 33.149 -2.75333 -2.25987 0
M  V30 359 O 32.008 -4.0604 -3.65778 0
M  V30 360 H 29.102 -0.590085 -0.579421 0
M  V30 361 H 31.648 -1.60963 -0.537492 0
M  V30 362 H 30.42 -3.59292 -1.54999 0
M  V30 363 H 30.043 -2.63816 -2.97467 0
M  V30 364 N 31.0401 0.771051 -1.3745 0
M  V30 365 C 32.2861 1.5319 -1.32894 0
M  V30 366 C 32.6191 1.94008 0.0862511 0
M  V30 367 O 31.8941 1.64124 1.04373 0
M  V30 368 C 32.1771 2.79648 -2.26868 0
M  V30 369 C 32.0301 2.45079 -3.77169 0
M  V30 370 C 33.3491 3.81583 -2.19277 0
M  V30 371 H 30.4681 0.555744 -0.484064 0
M  V30 372 H 33.1101 0.884492 -1.68157 0
M  V30 373 H 31.2601 3.34891 -1.96926 0
M  V30 374 H 32.9321 1.95745 -4.1771 0
M  V30 375 H 31.1751 1.77767 -3.95704 0
M  V30 376 H 31.8461 3.35478 -4.38359 0
M  V30 377 H 34.3221 3.35835 -2.45671 0
M  V30 378 H 33.1981 4.67787 -2.87171 0
M  V30 379 H 33.4591 4.25897 -1.18592 0
M  V30 380 N 32.5182 1.22032 0.997298 0
M  V30 381 C 33.4652 0.986467 2.08656 0
M  V30 382 C 34.4352 -0.0902671 1.65855 0
M  V30 383 O 35.6202 0.0584294 1.90711 0
M  V30 384 C 32.7602 0.565569 3.40434 0
M  V30 385 C 31.8732 1.71259 3.96604 0
M  V30 386 C 31.0082 1.24011 5.16522 0
M  V30 387 C 30.0472 2.35896 5.64818 0
M  V30 388 N 29.1842 1.89726 6.7598 0
M  V30 389 H 34.0242 1.91892 2.27994 0
M  V30 390 H 31.5612 0.956199 1.11782 0
M  V30 391 H 33.5192 0.302738 4.161 0
M  V30 392 H 32.1492 -0.329879 3.2111 0
M  V30 393 H 31.2012 2.08986 3.17851 0
M  V30 394 H 32.5132 2.55436 4.28432 0
M  V30 395 H 31.6672 0.934395 5.99461 0
M  V30 396 H 30.4062 0.368487 4.86306 0
M  V30 397 H 29.4112 2.67261 4.8047 0
M  V30 398 H 30.6362 3.23567 5.97061 0
M  V30 399 H 28.5822 1.0492 6.47555 0
M  V30 400 H 28.4992 2.67471 7.07103 0
M  V30 401 H 29.7672 1.62211 7.62435 0
M  V30 402 N 33.9963 -1.19345 1.0293 0
M  V30 403 C 35.2433 -1.89038 0.726008 0
M  V30 404 C 35.5713 -1.79649 -0.745427 0
M  V30 405 O 34.8263 -1.18354 -1.55855 0
M  V30 406 C 35.1253 -3.39292 1.12319 0
M  V30 407 C 34.7913 -3.68885 2.59297 0
M  V30 408 C 33.4533 -3.76671 2.99453 0
M  V30 409 C 35.8053 -3.82178 3.54386 0
M  V30 410 C 33.1333 -3.9522 4.33611 0
M  V30 411 C 35.4853 -4.0224 4.88248 0
M  V30 412 C 34.1493 -4.08259 5.28092 0
M  V30 413 H 33.4193 -0.691739 0.265665 0
M  V30 414 H 36.0663 -1.41328 1.29223 0
M  V30 415 H 34.3713 -3.88903 0.475584 0
M  V30 416 H 36.0683 -3.91536 0.866037 0
M  V30 417 H 32.6583 -3.63433 2.27189 0
M  V30 418 H 36.8423 -3.75505 3.24514 0
M  V30 419 H 32.0983 -3.98119 4.64016 0
M  V30 420 H 36.2723 -4.11468 5.61843 0
M  V30 421 H 33.8993 -4.22384 6.32057 0
M  V30 422 N 35.4744 -0.807222 -1.35358 0
M  V30 423 C 36.8854 -0.44876 -1.81226 0
M  V30 424 C 37.2364 1.02929 -1.67033 0
M  V30 425 O 36.3614 1.79991 -1.20133 0
M  V30 426 C 36.9564 -0.807774 -3.2903 0
M  V30 427 C 35.5154 -0.501901 -3.73039 0
M  V30 428 C 34.6624 -1.03304 -2.57339 0
M  V30 429 H 37.6134 -0.998808 -1.23327 0
M  V30 430 H 37.6344 -0.10554 -3.80354 0
M  V30 431 H 37.1464 -1.88357 -3.39328 0
M  V30 432 H 35.2474 0.565128 -3.68289 0
M  V30 433 H 35.3604 -1.03497 -4.67787 0
M  V30 434 H 33.7244 -0.455339 -2.50597 0
M  V30 435 H 34.5074 -2.11496 -2.70415 0
M  V30 436 N 36.9525 1.47285 -0.560781 0
M  V30 437 C 38.2005 2.02064 -0.0379868 0
M  V30 438 C 38.5215 1.43711 1.31803 0
M  V30 439 O 37.7915 0.61362 1.86042 0
M  V30 440 H 36.3715 0.746918 -0.0110531 0
M  V30 441 H 39.0335 1.80648 -0.731598 0
M  V30 442 H 38.1295 3.12064 0.0474463 0
M  V30 443 N 38.4306 0.297415 1.54768 0
M  V30 444 C 39.6786 -0.312295 1.99673 0
M  V30 445 C 39.9996 -1.54686 1.18732 0
M  V30 446 O 39.2696 -1.93854 0.282382 0
M  V30 447 H 37.8496 -0.118381 0.73756 0
M  V30 448 H 40.5116 0.407915 1.90583 0
M  V30 449 H 39.6076 -0.586813 3.06534 0
M  V30 450 N 39.9087 -1.5758 0.0250728 0
M  V30 451 C 41.1567 -1.91255 -0.653151 0
M  V30 452 C 41.4777 -0.901691 -1.729 0
M  V30 453 O 40.7477 0.0573785 -1.95816 0
M  V30 454 H 39.3277 -0.705942 -0.244243 0
M  V30 455 H 41.9897 -1.94767 0.0719209 0
M  V30 456 H 41.0857 -2.91752 -1.10847 0
M  V30 457 N 41.3868 0.248026 -1.55636 0
M  V30 458 C 42.3188 1.32993 -1.8667 0
M  V30 459 C 43.3318 1.44345 -0.752877 0
M  V30 460 O 44.5208 1.45715 -1.03098 0
M  V30 461 C 41.6208 2.70863 -2.03682 0
M  V30 462 C 40.7938 2.81792 -3.34532 0
M  V30 463 C 39.8528 4.005 -3.41301 0
M  V30 464 O 38.8788 3.9008 -4.14519 0
M  V30 465 N 40.0808 5.13618 -2.70512 0
M  V30 466 H 42.8458 1.06707 -2.8006 0
M  V30 467 H 40.4068 0.438129 -1.55859 0
M  V30 468 H 42.3988 3.48612 -2.05553 0
M  V30 469 H 40.9688 2.89862 -1.17041 0
M  V30 470 H 40.1888 1.90729 -3.44987 0
M  V30 471 H 41.4768 2.86043 -4.20781 0
M  V30 472 H 40.8748 5.24975 -2.10755 0
M  V30 473 H 39.4318 5.89505 -2.78077 0
M  V30 474 N 42.8649 1.48995 0.513639 0
M  V30 475 C 44.1139 1.57093 1.2651 0
M  V30 476 C 44.4269 0.257091 1.93903 0
M  V30 477 O 45.6329 0.216478 2.70636 0
M  V30 478 C 44.0889 2.77118 2.29638 0
M  V30 479 C 43.6969 4.15209 1.68241 0
M  V30 480 C 45.4409 2.94538 3.05692 0
M  V30 481 C 43.3479 5.26474 2.69406 0
M  V30 482 H 42.2779 0.584876 0.475854 0
M  V30 483 H 44.9289 1.7536 0.540487 0
M  V30 484 H 43.3109 2.52319 3.05207 0
M  V30 485 H 44.4849 4.50094 0.987505 0
M  V30 486 H 42.7999 4.03042 1.04623 0
M  V30 487 H 45.3969 3.74832 3.8132 0
M  V30 488 H 45.7399 2.04614 3.62545 0
M  V30 489 H 46.2729 3.19316 2.37238 0
M  V30 490 H 43.0119 6.18417 2.17351 0
M  V30 491 H 42.5319 4.96058 3.37175 0
M  V30 492 H 44.2109 5.55277 3.32078 0
M  V30 493 N 44.343 -0.763751 1.37857 0
M  V30 494 C 45.589 -1.52483 1.33704 0
M  V30 495 C 45.922 -1.94051 -0.0759612 0
M  V30 496 O 45.197 -1.64675 -1.03501 0
M  V30 497 C 45.48 -2.78441 2.28348 0
M  V30 498 C 45.333 -2.43075 3.78463 0
M  V30 499 C 46.652 -3.80415 2.21298 0
M  V30 500 H 43.771 -0.553169 0.487005 0
M  V30 501 H 46.413 -0.875562 1.68624 0
M  V30 502 H 44.563 -3.33842 1.987 0
M  V30 503 H 46.235 -1.93527 4.18742 0
M  V30 504 H 44.478 -1.75666 3.96641 0
M  V30 505 H 45.149 -3.33149 4.40132 0
M  V30 506 H 47.625 -3.34527 2.47449 0
M  V30 507 H 46.501 -4.66257 2.89647 0
M  V30 508 H 46.762 -4.25262 1.20849 0
M  V30 509 N 45.8211 -1.22559 -0.990812 0
M  V30 510 C 47.0691 -1.04933 -1.72724 0
M  V30 511 C 47.3901 0.416158 -1.90508 0
M  V30 512 O 46.6601 1.29918 -1.46622 0
M  V30 513 H 45.2401 -0.385296 -0.639965 0
M  V30 514 H 47.9021 -1.54105 -1.19322 0
M  V30 515 H 46.9981 -1.52886 -2.72089 0
M  V30 516 N 47.2992 1.18797 -1.03562 0
M  V30 517 C 48.5472 1.88278 -0.734569 0
M  V30 518 C 48.8682 1.8043 0.739586 0
M  V30 519 O 48.1382 1.21925 1.53333 0
M  V30 520 H 46.7182 0.696991 -0.268725 0
M  V30 521 H 49.3802 1.44192 -1.31129 0
M  V30 522 H 48.4762 2.94443 -1.03489 0
M  V30 523 N 48.7773 0.814389 1.34928 0
M  V30 524 C 50.0233 0.399013 1.98836 0
M  V30 525 C 50.3563 -1.03314 1.64438 0
M  V30 526 O 49.6313 -1.71811 0.911659 0
M  V30 527 C 49.9143 0.591629 3.55207 0
M  V30 528 C 49.7673 2.06928 3.99376 0
M  V30 529 C 51.0863 0.022199 4.40094 0
M  V30 530 H 48.2053 0.146451 0.722303 0
M  V30 531 H 50.8473 1.02537 1.59957 0
M  V30 532 H 48.9973 0.0584441 3.88456 0
M  V30 533 H 50.6693 2.66544 3.76499 0
M  V30 534 H 48.9123 2.56287 3.49999 0
M  V30 535 H 49.5833 2.1549 5.08201 0
M  V30 536 H 52.0593 0.477643 4.13349 0
M  V30 537 H 50.9353 0.186832 5.48582 0
M  V30 538 H 51.1963 -1.07215 4.28902 0
M  V30 539 N 50.2554 -1.46986 0.568584 0
M  V30 540 C 51.4854 -2.0653 0.0539173 0
M  V30 541 C 51.8934 -1.42004 -1.25026 0
M  V30 542 O 51.2364 -0.514541 -1.76347 0
M  V30 543 C 51.2984 -3.58938 -0.200854 0
M  V30 544 C 50.9624 -4.45572 1.01559 0
M  V30 545 C 51.9594 -4.82986 1.92407 0
M  V30 546 C 49.6444 -4.8692 1.23346 0
M  V30 547 C 51.6384 -5.60559 3.03402 0
M  V30 548 C 49.3254 -5.64255 2.34649 0
M  V30 549 C 50.3234 -6.00986 3.24507 0
M  V30 550 O 50.0114 -6.76761 4.33878 0
M  V30 551 H 49.7434 -0.674292 0.0480234 0
M  V30 552 H 52.2974 -1.89812 0.784896 0
M  V30 553 H 50.5274 -3.73911 -0.986279 0
M  V30 554 H 52.2164 -4.0046 -0.662294 0
M  V30 555 H 52.9824 -4.51633 1.76785 0
M  V30 556 H 48.8614 -4.57789 0.543178 0
M  V30 557 H 52.4054 -5.89147 3.73565 0
M  V30 558 H 48.3024 -5.95021 2.5024 0
M  V30 559 H 49.0704 -6.95168 4.32068 0
M  V30 560 N 51.7335 -0.305618 -1.54608 0
M  V30 561 C 52.6635 0.561482 -2.26649 0
M  V30 562 C 53.6445 1.13415 -1.26772 0
M  V30 563 O 54.8295 1.16262 -1.55553 0
M  V30 564 C 51.9595 1.73122 -3.01075 0
M  V30 565 C 50.9135 1.2887 -4.08138 0
M  V30 566 C 50.2395 2.54396 -4.70305 0
M  V30 567 C 51.5395 0.416578 -5.20636 0
M  V30 568 H 53.2335 -0.0393902 -2.99374 0
M  V30 569 H 50.7795 -0.020385 -1.43986 0
M  V30 570 H 52.7325 2.34396 -3.50195 0
M  V30 571 H 51.4565 2.3584 -2.25936 0
M  V30 572 H 50.1155 0.698991 -3.59875 0
M  V30 573 H 49.7635 3.15439 -3.918 0
M  V30 574 H 49.4635 2.25486 -5.42614 0
M  V30 575 H 50.9875 3.16464 -5.2219 0
M  V30 576 H 52.4015 0.935116 -5.65622 0
M  V30 577 H 50.7985 0.221046 -5.99693 0
M  V30 578 H 51.8685 -0.557162 -4.81688 0
M  V30 579 N 53.2116 1.57565 -0.0334293 0
M  V30 580 C 54.1416 2.13511 0.945265 0
M  V30 581 C 55.1226 1.05231 1.33643 0
M  V30 582 O 56.3076 1.33084 1.41429 0
M  V30 583 C 53.4376 2.6657 2.22616 0
M  V30 584 C 52.3916 3.79676 1.97561 0
M  V30 585 C 51.7176 4.1918 3.31952 0
M  V30 586 C 53.0176 5.0557 1.31135 0
M  V30 587 H 54.7116 2.95538 0.479325 0
M  V30 588 H 52.2576 1.42166 0.229115 0
M  V30 589 H 54.2106 3.04344 2.91466 0
M  V30 590 H 52.9346 1.8171 2.71384 0
M  V30 591 H 51.5936 3.42347 1.31127 0
M  V30 592 H 51.2416 3.31296 3.78487 0
M  V30 593 H 50.9416 4.95402 3.15992 0
M  V30 594 H 52.4656 4.59541 4.02063 0
M  V30 595 H 53.8796 5.40903 1.89992 0
M  V30 596 H 52.2766 5.86818 1.25559 0
M  V30 597 H 53.3466 4.84062 0.284894 0
M  V30 598 N 54.6897 -0.239769 1.55765 0
M  V30 599 C 56.1007 -0.808263 1.68297 0
M  V30 600 C 56.4517 -1.85736 0.632181 0
M  V30 601 O 55.5767 -2.15277 -0.220204 0
M  V30 602 C 56.1717 -1.47284 3.05111 0
M  V30 603 C 54.7307 -1.98895 3.19559 0
M  V30 604 C 53.8777 -0.842575 2.64189 0
M  V30 605 H 56.8287 -0.0154422 1.58692 0
M  V30 606 H 56.8497 -2.34111 2.99954 0
M  V30 607 H 56.3617 -0.709053 3.81568 0
M  V30 608 H 54.4627 -2.78132 2.47938 0
M  V30 609 H 54.5757 -2.18143 4.26556 0
M  V30 610 H 52.9397 -1.24501 2.22197 0
M  V30 611 H 53.7227 -0.0917552 3.43177 0
M  V30 612 N 56.1678 -1.49265 -0.50573 0
M  V30 613 C 57.5838 -1.35923 -0.836486 0
M  V30 614 C 57.7838 -0.388704 -1.97715 0
M  V30 615 O 56.8398 0.181336 -2.51848 0
M  V30 616 C 58.1528 -2.76531 -1.18115 0
M  V30 617 C 59.7008 -2.85197 -1.28964 0
M  V30 618 C 60.1758 -4.26561 -1.66761 0
M  V30 619 N 61.6668 -4.2935 -1.73819 0
M  V30 620 C 62.4018 -5.35693 -2.045 0
M  V30 621 N 61.8978 -6.52287 -2.33438 0
M  V30 622 N 63.6908 -5.23105 -2.05711 0
M  V30 623 H 55.8418 -2.10965 0.246519 0
M  V30 624 H 58.1048 -0.9468 0.0476887 0
M  V30 625 H 57.8108 -3.49226 -0.416398 0
M  V30 626 H 57.6848 -3.11599 -2.1257 0
M  V30 627 H 60.0718 -2.12742 -2.04511 0
M  V30 628 H 60.1528 -2.53718 -0.325704 0
M  V30 629 H 59.7968 -4.99541 -0.917656 0
M  V30 630 H 59.7268 -4.55502 -2.64246 0
M  V30 631 H 62.2178 -3.4526 -1.53635 0
M  V30 632 H 62.5308 -7.29158 -2.56024 0
M  V30 633 H 60.8758 -6.55521 -2.30905 0
M  V30 634 H 64.0668 -4.31026 -1.82577 0
M  V30 635 H 64.2398 -6.06078 -2.29289 0
M  V30 636 N 57.6459 0.756429 -1.3826 0
M  V30 637 C 59.0619 1.0591 -1.19395 0
M  V30 638 C 59.2619 2.01459 -0.0406567 0
M  V30 639 O 58.3179 2.44909 0.614467 0
M  V30 640 C 59.6309 1.64191 -2.51916 0
M  V30 641 C 61.1789 1.76376 -2.58574 0
M  V30 642 C 61.6539 2.38069 -3.91264 0
M  V30 643 N 63.1449 2.45503 -3.92788 0
M  V30 644 C 63.8799 2.94126 -4.92217 0
M  V30 645 N 63.3759 3.42805 -6.02043 0
M  V30 646 N 65.1689 2.9314 -4.7961 0
M  V30 647 H 57.3199 0.122313 -2.12048 0
M  V30 648 H 59.5829 0.116892 -0.940766 0
M  V30 649 H 59.2889 1.01451 -3.3675 0
M  V30 650 H 59.1629 2.6329 -2.70108 0
M  V30 651 H 61.5499 2.38244 -1.74137 0
M  V30 652 H 61.6309 0.759894 -2.44252 0
M  V30 653 H 61.2749 1.76835 -4.76121 0
M  V30 654 H 61.2049 3.39091 -4.02895 0
M  V30 655 H 63.6959 2.1107 -3.13461 0
M  V30 656 H 64.0089 3.78354 -6.73846 0
M  V30 657 H 62.3539 3.4087 -6.05667 0
M  V30 658 H 65.5449 2.54419 -3.92923 0
M  V30 659 H 65.7179 3.30721 -5.5725 0
M  V30 660 N 59.124 1.23083 0.984299 0
M  V30 661 C 60.372 1.05848 1.72165 0
M  V30 662 C 60.693 -0.406049 1.90726 0
M  V30 663 O 59.963 -1.29139 1.47309 0
M  V30 664 H 58.543 0.388685 0.637913 0
M  V30 665 H 61.205 1.54736 1.18503 0
M  V30 666 H 60.301 1.54327 2.71274 0
M  V30 667 N 60.6021 -1.18246 1.0419 0
M  V30 668 C 62.0131 -1.69914 0.773698 0
M  V30 669 C 62.3641 -1.83085 -0.705297 0
M  V30 670 O 61.4891 -1.51123 -1.5489 0
M  V30 671 C 62.0841 -3.08619 1.39784 0
M  V30 672 C 60.6431 -3.57494 1.17792 0
M  V30 673 C 59.7901 -2.34013 1.48773 0
M  V30 674 H 62.7411 -1.02904 1.20816 0
M  V30 675 H 62.7621 -3.71958 0.801714 0
M  V30 676 H 62.2741 -2.99001 2.47426 0
M  V30 677 H 60.3751 -3.72406 0.120295 0
M  V30 678 H 60.4881 -4.40852 1.87581 0
M  V30 679 H 58.8521 -2.37986 0.907463 0
M  V30 680 H 59.6351 -2.27013 2.57527 0
M  V30 681 N 62.0802 -0.821533 -1.34494 0
M  V30 682 C 63.4962 -0.507117 -1.51329 0
M  V30 683 C 63.6962 0.968964 -1.76673 0
M  V30 684 O 62.7522 1.75348 -1.81685 0
M  V30 685 C 64.0652 -1.36544 -2.67911 0
M  V30 686 C 65.6132 -1.36242 -2.81793 0
M  V30 687 C 66.0882 -2.2052 -4.01416 0
M  V30 688 N 67.5792 -2.18136 -4.08621 0
M  V30 689 C 68.3142 -2.80095 -5.00334 0
M  V30 690 N 67.8102 -3.51039 -5.9728 0
M  V30 691 N 69.6032 -2.69656 -4.93196 0
M  V30 692 H 61.7542 -1.77729 -1.16302 0
M  V30 693 H 64.0172 -0.757291 -0.570276 0
M  V30 694 H 63.7232 -2.41361 -2.55808 0
M  V30 695 H 63.5972 -1.02917 -3.62888 0
M  V30 696 H 65.9842 -0.322041 -2.93338 0
M  V30 697 H 66.0652 -1.73866 -1.87628 0
M  V30 698 H 65.7092 -3.24607 -3.90631 0
M  V30 699 H 65.6392 -1.80247 -4.94791 0
M  V30 700 H 68.1302 -1.6653 -3.39229 0
M  V30 701 H 68.4432 -3.95565 -6.63889 0
M  V30 702 H 66.7882 -3.55145 -5.97409 0
M  V30 703 H 69.9792 -2.13808 -4.16418 0
M  V30 704 H 70.1522 -3.1823 -5.64476 0
M  V30 705 N 63.5583 1.46682 -0.576371 0
M  V30 706 C 64.4883 2.33028 0.148397 0
M  V30 707 C 65.4693 1.44961 0.889956 0
M  V30 708 O 66.6543 1.73789 0.866662 0
M  V30 709 C 63.7843 3.27117 1.1667 0
M  V30 710 C 62.7383 4.24575 0.540386 0
M  V30 711 C 62.0643 5.08126 1.6647 0
M  V30 712 C 63.3643 5.19722 -0.518331 0
M  V30 713 H 65.0583 2.93875 -0.572509 0
M  V30 714 H 62.6043 1.41315 -0.276768 0
M  V30 715 H 64.5573 3.86374 1.68204 0
M  V30 716 H 63.2813 2.64364 1.9178 0
M  V30 717 H 61.9403 3.66571 0.0461769 0
M  V30 718 H 61.5883 4.41762 2.40531 0
M  V30 719 H 61.2883 5.74122 1.25131 0
M  V30 720 H 62.8123 5.70246 2.18293 0
M  V30 721 H 64.2263 5.73232 -0.0883058 0
M  V30 722 H 62.6233 5.94026 -0.851679 0
M  V30 723 H 63.6933 4.64037 -1.40703 0
M  V30 724 N 65.0364 0.313813 1.54444 0
M  V30 725 C 66.2844 -0.291099 1.99993 0
M  V30 726 C 66.6054 -1.53418 1.20366 0
M  V30 727 O 65.8754 -1.93544 0.302927 0
M  V30 728 H 64.4554 -0.110552 0.738774 0
M  V30 729 H 67.1174 0.428106 1.9014 0
M  V30 730 H 66.2134 -0.554268 3.07139 0
M  V30 731 N 66.5145 -1.57545 0.0417849 0
M  V30 732 C 67.7605 -1.92601 -0.635021 0
M  V30 733 C 68.0935 -0.919627 -1.71045 0
M  V30 734 O 67.3685 0.0557892 -1.9442 0
M  V30 735 C 67.6515 -3.38085 -1.23979 0
M  V30 736 C 67.5045 -4.49467 -0.173057 0
M  V30 737 C 68.8235 -3.83776 -2.15416 0
M  V30 738 H 65.9425 -0.700397 -0.229374 0
M  V30 739 H 68.5845 -1.89728 0.101633 0
M  V30 740 H 66.7345 -3.40664 -1.86762 0
M  V30 741 H 68.4065 -4.59018 0.458312 0
M  V30 742 H 66.6495 -4.30909 0.499996 0
M  V30 743 H 67.3205 -5.48323 -0.636054 0
M  V30 744 H 69.7965 -3.83013 -1.62605 0
M  V30 745 H 68.6725 -4.8624 -2.54679 0
M  V30 746 H 68.9335 -3.19998 -3.05047 0
M  V30 747 N 67.9926 0.231505 -1.5589 0
M  V30 748 C 69.4086 0.580748 -1.48659 0
M  V30 749 C 69.6086 1.87617 -0.73498 0
M  V30 750 O 68.6646 2.51046 -0.270586 0
M  V30 751 C 69.9776 0.669202 -2.93159 0
M  V30 752 C 71.5256 0.760499 -3.03621 0
M  V30 753 C 72.0006 0.880383 -4.49459 0
M  V30 754 N 73.4916 0.944861 -4.53461 0
M  V30 755 C 74.2266 1.05716 -5.63571 0
M  V30 756 N 73.7226 1.13403 -6.83456 0
M  V30 757 N 75.5156 1.09152 -5.514 0
M  V30 758 H 67.6666 -0.618695 -2.03189 0
M  V30 759 H 69.9296 -0.215728 -0.923128 0
M  V30 760 H 69.6356 -0.212904 -3.51055 0
M  V30 761 H 69.5096 1.5361 -3.44505 0
M  V30 762 H 71.8966 1.63305 -2.45796 0
M  V30 763 H 71.9776 -0.131864 -2.5546 0
M  V30 764 H 71.6216 0.0123284 -5.07899 0
M  V30 765 H 71.5516 1.78802 -4.95316 0
M  V30 766 H 74.0426 0.896176 -3.6712 0
M  V30 767 H 74.3556 1.21921 -7.63122 0
M  V30 768 H 72.7006 1.10333 -6.86186 0
M  V30 769 H 75.8916 1.02805 -4.56671 0
M  V30 770 H 76.0646 1.17558 -6.37247 0
M  V30 771 N 69.4707 1.49531 0.497807 0
M  V30 772 C 70.4337 1.65916 1.58128 0
M  V30 773 C 71.4337 0.530825 1.51786 0
M  V30 774 O 72.6237 0.797342 1.54881 0
M  V30 775 C 69.7557 1.65951 2.9778 0
M  V30 776 H 70.9487 2.62556 1.44929 0
M  V30 777 H 68.5017 1.38611 0.722275 0
M  V30 778 H 69.2367 0.709065 3.16453 0
M  V30 779 H 69.0217 2.47897 3.03792 0
M  V30 780 H 70.5117 1.80673 3.76493 0
M  V30 781 N 70.9488 -0.749086 1.3866 0
M  V30 782 C 72.1768 -1.53834 1.38358 0
M  V30 783 C 72.5918 -1.88783 -0.0255219 0
M  V30 784 O 71.9488 -1.53101 -0.993292 0
M  V30 785 C 71.9998 -2.83468 2.2434 0
M  V30 786 O 71.7208 -2.50008 3.5976 0
M  V30 787 C 73.2218 -3.7758 2.32267 0
M  V30 788 H 70.4418 -0.47585 0.473083 0
M  V30 789 H 72.9858 -0.926726 1.82297 0
M  V30 790 H 71.1408 -3.40995 1.83851 0
M  V30 791 H 71.5548 -3.33182 4.05081 0
M  V30 792 H 73.0288 -4.65478 2.96706 0
M  V30 793 H 73.5058 -4.18334 1.33765 0
M  V30 794 H 74.1118 -3.25976 2.73166 0
M  V30 795 N 72.4269 -1.23603 -0.977757 0
M  V30 796 C 73.8429 -0.999251 -1.24447 0
M  V30 797 C 74.0429 0.298053 -1.99283 0
M  V30 798 O 73.0989 1.01681 -2.31122 0
M  V30 799 C 74.4119 -2.20784 -2.04144 0
M  V30 800 C 75.9599 -2.25303 -2.17273 0
M  V30 801 C 76.4349 -3.45755 -3.00362 0
M  V30 802 N 77.9259 -3.4601 -3.07947 0
M  V30 803 C 78.6609 -4.35868 -3.72568 0
M  V30 804 N 78.1569 -5.35966 -4.38991 0
M  V30 805 N 79.9499 -4.23605 -3.6948 0
M  V30 806 H 72.1009 -2.06986 -0.476483 0
M  V30 807 H 74.3639 -0.907801 -0.273134 0
M  V30 808 H 74.0699 -3.14945 -1.56533 0
M  V30 809 H 73.9439 -2.22085 -3.04891 0
M  V30 810 H 76.3309 -1.3168 -2.64092 0
M  V30 811 H 76.4119 -2.28033 -1.15907 0
M  V30 812 H 76.0559 -4.39687 -2.5424 0
M  V30 813 H 75.9859 -3.40266 -4.01904 0
M  V30 814 H 78.4769 -2.73588 -2.60688 0
M  V30 815 H 78.7899 -6.00783 -4.86086 0
M  V30 816 H 77.1349 -5.39863 -4.37691 0
M  V30 817 H 80.3259 -3.44647 -3.16759 0
M  V30 818 H 80.4989 -4.93836 -4.1956 0
M  V30 819 N 73.905 1.17692 -1.04816 0
M  V30 820 C 74.852 2.21581 -0.645797 0
M  V30 821 C 75.822 1.62367 0.350159 0
M  V30 822 O 77.007 1.89254 0.242433 0
M  V30 823 C 74.147 3.45092 -0.0227568 0
M  V30 824 C 73.26 4.18613 -1.06709 0
M  V30 825 C 72.395 5.29602 -0.411767 0
M  V30 826 C 71.434 5.94904 -1.44067 0
M  V30 827 N 70.571 6.97414 -0.809781 0
M  V30 828 H 75.411 2.55353 -1.5362 0
M  V30 829 H 72.948 1.25438 -0.768364 0
M  V30 830 H 74.906 4.15679 0.35588 0
M  V30 831 H 73.536 3.11917 0.831122 0
M  V30 832 H 72.588 3.46779 -1.5636 0
M  V30 833 H 73.9 4.63293 -1.84827 0
M  V30 834 H 73.054 6.06696 0.0206623 0
M  V30 835 H 71.793 4.86045 0.401438 0
M  V30 836 H 70.798 5.16544 -1.88316 0
M  V30 837 H 72.023 6.40542 -2.25571 0
M  V30 838 H 69.969 6.55998 -0.0170186 0
M  V30 839 H 69.886 7.40386 -1.52856 0
M  V30 840 H 71.154 7.78463 -0.401999 0
M  V30 841 N 75.3831 0.828654 1.34056 0
M  V30 842 C 76.6111 0.43262 2.02326 0
M  V30 843 C 77.0261 -0.963147 1.62385 0
M  V30 844 O 76.3831 -1.62425 0.832121 0
M  V30 845 C 76.4341 0.53182 3.57567 0
M  V30 846 O 76.1551 1.87258 3.96063 0
M  V30 847 C 77.6561 0.131422 4.43105 0
M  V30 848 H 74.8761 0.172923 0.648335 0
M  V30 849 H 77.4201 1.1184 1.71208 0
M  V30 850 H 75.5751 -0.105938 3.87255 0
M  V30 851 H 75.9891 1.85087 4.90758 0
M  V30 852 H 77.4631 0.251904 5.51425 0
M  V30 853 H 77.9401 -0.925645 4.29335 0
M  V30 854 H 78.5461 0.743207 4.18756 0
M  V30 855 N 76.8612 -1.46375 0.584142 0
M  V30 856 C 78.0862 -2.07268 0.0740405 0
M  V30 857 C 78.5112 -1.42979 -1.22223 0
M  V30 858 O 77.8692 -0.514092 -1.73859 0
M  V30 859 C 77.9172 -3.60518 -0.0767769 0
M  V30 860 O 77.0212 -3.96533 -1.13292 0
M  V30 861 H 76.3622 -0.660961 0.0634524 0
M  V30 862 H 78.8922 -1.87991 0.807492 0
M  V30 863 H 78.9022 -4.07021 -0.282489 0
M  V30 864 H 77.5772 -4.06702 0.86986 0
M  V30 865 H 76.1542 -3.61738 -0.905553 0
M  V30 866 N 78.3393 -0.321999 -1.54275 0
M  V30 867 C 79.2493 0.553631 -2.27974 0
M  V30 868 C 80.2653 1.13054 -1.32268 0
M  V30 869 O 81.4413 1.15084 -1.6528 0
M  V30 870 C 78.5063 1.69927 -3.02201 0
M  V30 871 C 77.5673 1.15433 -4.1349 0
M  V30 872 C 76.8003 2.24537 -4.84168 0
M  V30 873 O 77.0233 3.44852 -4.5435 0
M  V30 874 O 75.9573 1.90044 -5.7111 0
M  V30 875 H 79.7833 -0.0448345 -3.03667 0
M  V30 876 H 77.3683 -0.0877418 -1.49142 0
M  V30 877 H 79.2503 2.3663 -3.48689 0
M  V30 878 H 77.9253 2.28395 -2.29385 0
M  V30 879 H 76.8323 0.452436 -3.71354 0
M  V30 880 H 78.1653 0.614805 -4.88345 0
M  V30 881 N 79.8174 1.5752 -0.0501392 0
M  V30 882 C 81.2334 1.56631 0.306402 0
M  V30 883 C 81.4334 1.0577 1.71508 0
M  V30 884 O 80.4894 0.713837 2.422 0
M  V30 885 C 81.8024 3.00393 0.135811 0
M  V30 886 C 83.3504 3.12315 0.206993 0
M  V30 887 C 83.8254 4.57954 0.064944 0
M  V30 888 N 85.3164 4.63041 0.121254 0
M  V30 889 C 86.0514 5.73389 0.0354381 0
M  V30 890 N 85.5474 6.92724 -0.102666 0
M  V30 891 N 87.3404 5.62026 0.090946 0
M  V30 892 H 79.4914 1.88903 -0.971046 0
M  V30 893 H 81.7544 0.869876 -0.376855 0
M  V30 894 H 81.4604 3.41635 -0.835384 0
M  V30 895 H 81.3344 3.66373 0.897275 0
M  V30 896 H 83.7214 2.70973 1.16866 0
M  V30 897 H 83.8024 2.49016 -0.585208 0
M  V30 898 H 83.4464 4.99981 -0.893394 0
M  V30 899 H 83.3764 5.19258 0.876277 0
M  V30 900 H 85.8674 3.77216 0.227284 0
M  V30 901 H 86.1804 7.72633 -0.160882 0
M  V30 902 H 84.5254 6.94864 -0.137737 0
M  V30 903 H 87.7164 4.67684 0.197388 0
M  V30 904 H 87.8894 6.47997 0.0206089 0
M  V30 905 N 81.2955 -0.223234 1.56011 0
M  V30 906 C 82.5205 -0.968978 1.83373 0
M  V30 907 C 82.9455 -1.77227 0.630254 0
M  V30 908 O 82.3035 -1.76345 -0.420959 0
M  V30 909 C 82.3515 -1.86363 3.08709 0
M  V30 910 O 81.4555 -2.95873 2.87285 0
M  V30 911 H 80.7965 -0.274461 0.604622 0
M  V30 912 H 83.3265 -0.237056 2.03222 0
M  V30 913 H 83.3365 -2.27376 3.38768 0
M  V30 914 H 82.0115 -1.27319 3.95933 0
M  V30 915 H 80.5885 -2.58818 2.68454 0
M  V30 916 N 82.7736 -1.49793 -0.48987 0
M  V30 917 C 83.7056 -1.63413 -1.60713 0
M  V30 918 C 84.7186 -0.516329 -1.54395 0
M  V30 919 O 85.9076 -0.788812 -1.60125 0
M  V30 920 C 83.0076 -1.58516 -2.99543 0
M  V30 921 C 82.1806 -2.86016 -3.30928 0
M  V30 922 C 81.2396 -2.74018 -4.49222 0
M  V30 923 O 80.2656 -3.47964 -4.50455 0
M  V30 924 N 81.4676 -1.86309 -5.4979 0
M  V30 925 H 84.2326 -2.59777 -1.49452 0
M  V30 926 H 81.7936 -1.47022 -0.677955 0
M  V30 927 H 83.7856 -1.48128 -3.76617 0
M  V30 928 H 82.3556 -0.69965 -3.0467 0
M  V30 929 H 81.5756 -3.10672 -2.42645 0
M  V30 930 H 82.8636 -3.70521 -3.487 0
M  V30 931 H 82.2616 -1.2551 -5.51601 0
M  V30 932 H 80.8186 -1.81837 -6.25922 0
M  V30 933 N 84.2517 0.741722 -1.39055 0
M  V30 934 C 85.6627 1.31966 -1.32068 0
M  V30 935 C 86.0137 1.96192 0.0180797 0
M  V30 936 O 85.1387 1.95861 0.920196 0
M  V30 937 C 85.7337 2.39954 -2.39181 0
M  V30 938 C 84.2927 2.93438 -2.35735 0
M  V30 939 C 83.4397 1.66936 -2.21422 0
M  V30 940 H 86.3907 0.539721 -1.4924 0
M  V30 941 H 86.4117 3.20182 -2.05581 0
M  V30 942 H 85.9237 1.9318 -3.36605 0
M  V30 943 H 84.0247 3.4451 -1.41929 0
M  V30 944 H 84.1377 3.4701 -3.30335 0
M  V30 945 H 82.5017 1.91016 -1.68478 0
M  V30 946 H 83.2847 1.22224 -3.20806 0
M  V30 947 N 85.7298 1.2412 0.971189 0
M  V30 948 C 87.1458 1.00584 1.23916 0
M  V30 949 C 87.3458 -0.287481 1.99439 0
M  V30 950 O 86.4018 -1.00454 2.31658 0
M  V30 951 C 87.7148 2.21864 2.0297 0
M  V30 952 C 89.2628 2.26452 2.16076 0
M  V30 953 C 89.7378 3.47343 2.98524 0
M  V30 954 N 91.2288 3.47639 3.06107 0
M  V30 955 C 91.9638 4.37837 3.70251 0
M  V30 956 N 91.4598 5.38286 4.36142 0
M  V30 957 N 93.2528 4.25558 3.67228 0
M  V30 958 H 85.4038 2.07236 0.465499 0
M  V30 959 H 87.6668 0.909236 0.268315 0
M  V30 960 H 87.3728 3.15771 1.54861 0
M  V30 961 H 87.2468 2.23698 3.03709 0
M  V30 962 H 89.6338 1.33078 2.6339 0
M  V30 963 H 89.7148 2.28645 1.14696 0
M  V30 964 H 89.3588 4.41029 2.51905 0
M  V30 965 H 89.2888 3.42393 4.00093 0
M  V30 966 H 91.7798 2.74966 2.59233 0
M  V30 967 H 92.0928 6.03352 4.82894 0
M  V30 968 H 90.4378 5.42176 4.34822 0
M  V30 969 H 93.6288 3.46322 3.14927 0
M  V30 970 H 93.8018 4.96054 4.16935 0
M  V30 971 N 87.2079 -1.17134 1.05439 0
M  V30 972 C 88.4559 -1.87085 0.764429 0
M  V30 973 C 88.7769 -1.81584 -0.710787 0
M  V30 974 O 88.0469 -1.24349 -1.51374 0
M  V30 975 H 86.6269 -0.692627 0.279779 0
M  V30 976 H 89.2889 -1.42087 1.33406 0
M  V30 977 H 88.3849 -2.92759 1.0816 0
M  V30 978 N 88.686 -0.835752 -1.33615 0
M  V30 979 C 90.102 -0.523139 -1.50783 0
M  V30 980 C 90.302 0.950171 -1.77691 0
M  V30 981 O 89.358 1.73411 -1.83534 0
M  V30 982 C 90.671 -1.39378 -2.66448 0
M  V30 983 C 92.219 -1.39223 -2.80332 0
M  V30 984 C 92.694 -2.24765 -3.99055 0
M  V30 985 N 94.185 -2.22458 -4.06284 0
M  V30 986 C 94.92 -2.85386 -4.97336 0
M  V30 987 N 94.416 -3.57354 -5.93523 0
M  V30 988 N 96.209 -2.74872 -4.90308 0
M  V30 989 H 88.36 -1.78952 -1.14411 0
M  V30 990 H 90.623 -0.763297 -0.562212 0
M  V30 991 H 90.329 -2.44061 -2.53234 0
M  V30 992 H 90.203 -1.0676 -3.61776 0
M  V30 993 H 92.59 -0.353136 -2.92979 0
M  V30 994 H 92.671 -1.75846 -1.85773 0
M  V30 995 H 92.315 -3.28732 -3.87167 0
M  V30 996 H 92.245 -1.85485 -4.92852 0
M  V30 997 H 94.736 -1.70119 -3.37443 0
M  V30 998 H 95.049 -4.02584 -6.59656 0
M  V30 999 H 93.394 -3.61461 -5.93608 0
M  V30 1000 H 96.585 -2.18213 -4.14126 0
M  V30 1001 H 96.758 -3.24199 -5.61069 0
M  V30 1002 N 90.1641 1.46063 -0.591896 0
M  V30 1003 C 91.5801 1.57561 -0.254288 0
M  V30 1004 C 91.7801 1.58565 1.24336 0
M  V30 1005 O 90.8361 1.50753 2.02558 0
M  V30 1006 C 92.1491 2.86549 -0.911611 0
M  V30 1007 C 93.6971 3.00197 -0.886059 0
M  V30 1008 C 94.1721 4.31933 -1.5231 0
M  V30 1009 N 95.6631 4.38654 -1.48786 0
M  V30 1010 C 96.3981 5.39222 -1.95006 0
M  V30 1011 N 95.8941 6.46414 -2.49241 0
M  V30 1012 N 97.6871 5.3048 -1.85868 0
M  V30 1013 H 89.8381 1.43655 -1.56451 0
M  V30 1014 H 92.1011 0.68583 -0.654478 0
M  V30 1015 H 91.8071 2.91651 -1.96551 0
M  V30 1016 H 91.6811 3.74794 -0.425368 0
M  V30 1017 H 94.0681 2.9467 0.159246 0
M  V30 1018 H 94.1491 2.13403 -1.41041 0
M  V30 1019 H 93.7931 4.38217 -2.56765 0
M  V30 1020 H 93.7231 5.17516 -0.973891 0
M  V30 1021 H 96.2141 3.61793 -1.09151 0
M  V30 1022 H 96.5271 7.19376 -2.82344 0
M  V30 1023 H 94.8721 6.47208 -2.53272 0
M  V30 1024 H 98.0631 4.45643 -1.43248 0
M  V30 1025 H 98.2361 6.08711 -2.22204 0
M  V30 1026 N 91.6422 0.330177 1.54103 0
M  V30 1027 C 92.5742 -0.566902 2.22079 0
M  V30 1028 C 93.5872 -1.07462 1.22294 0
M  V30 1029 O 94.7762 -0.987065 1.48726 0
M  V30 1030 C 91.8762 -1.79138 2.87685 0
M  V30 1031 C 91.0492 -1.42123 4.13666 0
M  V30 1032 C 90.1082 -2.50394 4.62806 0
M  V30 1033 O 89.1342 -2.14261 5.27334 0
M  V30 1034 N 90.3362 -3.81433 4.37595 0
M  V30 1035 H 93.1012 0.0151844 2.99696 0
M  V30 1036 H 90.6622 0.153681 1.61169 0
M  V30 1037 H 92.6542 -2.50975 3.1748 0
M  V30 1038 H 91.2242 -2.28115 2.13734 0
M  V30 1039 H 90.4442 -0.534201 3.90564 0
M  V30 1040 H 91.7322 -1.14971 4.9564 0
M  V30 1041 H 91.1302 -4.13584 3.8596 0
M  V30 1042 H 89.6872 -4.4948 4.72029 0
M  V30 1043 N 93.1203 -1.57491 0.0584922 0
M  V30 1044 C 94.5313 -1.80526 -0.476138 0
M  V30 1045 C 94.8823 -0.971334 -1.70469 0
M  V30 1046 O 94.0073 -0.190012 -2.15564 0
M  V30 1047 C 94.6023 -3.27424 -0.870587 0
M  V30 1048 C 93.1613 -3.51351 -1.35015 0
M  V30 1049 C 92.3083 -2.75343 -0.32887 0
M  V30 1050 H 95.2593 -1.56133 0.284312 0
M  V30 1051 H 95.2803 -3.38745 -1.73299 0
M  V30 1052 H 94.7923 -3.88093 0.0237627 0
M  V30 1053 H 92.8933 -2.95971 -2.26345 0
M  V30 1054 H 93.0063 -4.60059 -1.33726 0
M  V30 1055 H 91.3703 -2.417 -0.803321 0
M  V30 1056 H 92.1533 -3.38743 0.557521 0
M  V30 1057 N 94.5984 0.214957 -1.56127 0
M  V30 1058 C 95.8474 0.936451 -1.78643 0
M  V30 1059 C 96.1604 1.85237 -0.628229 0
M  V30 1060 O 97.3664 2.613 -0.737186 0
M  V30 1061 C 95.8224 1.7154 -3.16389 0
M  V30 1062 C 95.4304 0.845299 -4.39953 0
M  V30 1063 C 97.1744 2.42772 -3.48227 0
M  V30 1064 C 95.0814 1.62198 -5.68723 0
M  V30 1065 H 94.0114 0.353401 -0.666051 0
M  V30 1066 H 96.6624 0.190169 -1.82512 0
M  V30 1067 H 95.0444 2.50484 -3.06715 0
M  V30 1068 H 96.2184 0.0959353 -4.607 0
M  V30 1069 H 94.5334 0.244789 -4.1568 0
M  V30 1070 H 97.1304 3.01394 -4.41663 0
M  V30 1071 H 97.4734 3.15984 -2.71035 0
M  V30 1072 H 98.0064 1.70813 -3.5926 0
M  V30 1073 H 94.7454 0.933011 -6.48826 0
M  V30 1074 H 94.2654 2.34579 -5.52026 0
M  V30 1075 H 95.9444 2.18095 -6.09133 0
M  V30 1076 N 96.0765 1.50051 0.48192 0
M  V30 1077 C 97.4875 1.5348 1.06305 0
M  V30 1078 C 97.8385 0.331997 1.93371 0
M  V30 1079 O 96.9635 -0.556256 2.09129 0
M  V30 1080 C 97.5585 2.7813 1.93466 0
M  V30 1081 C 96.1175 2.84275 2.46707 0
M  V30 1082 C 95.2645 2.47637 1.24785 0
M  V30 1083 H 98.2155 1.56472 0.264995 0
M  V30 1084 H 98.2365 2.59372 2.78399 0
M  V30 1085 H 97.7485 3.65654 1.30072 0
M  V30 1086 H 95.8495 2.01077 3.13686 0
M  V30 1087 H 95.9625 3.8691 2.82555 0
M  V30 1088 H 94.3265 1.99835 1.57918 0
M  V30 1089 H 95.1095 3.37457 0.630694 0
M  V30 1090 N 97.5546 -0.734337 1.39446 0
M  V30 1091 C 98.5016 -1.84835 1.38219 0
M  V30 1092 C 99.4716 -1.64331 0.24179 0
M  V30 1093 O 100.657 -1.85728 0.437002 0
M  V30 1094 C 97.7966 -3.22355 1.23212 0
M  V30 1095 C 96.9096 -3.5456 2.46801 0
M  V30 1096 C 96.0446 -4.81485 2.24377 0
M  V30 1097 C 95.0836 -5.06536 3.43639 0
M  V30 1098 N 94.2206 -6.24665 3.20528 0
M  V30 1099 H 99.0606 -1.85219 2.33448 0
M  V30 1100 H 96.5976 -0.905039 1.15963 0
M  V30 1101 H 98.5556 -4.0174 1.12522 0
M  V30 1102 H 97.1856 -3.21248 0.316121 0
M  V30 1103 H 96.2376 -2.69872 2.68092 0
M  V30 1104 H 97.5496 -3.6899 3.3563 0
M  V30 1105 H 96.7036 -5.68852 2.10933 0
M  V30 1106 H 95.4426 -4.6923 1.32944 0
M  V30 1107 H 94.4476 -4.17632 3.5758 0
M  V30 1108 H 95.6726 -5.20676 4.35974 0
M  V30 1109 H 93.6186 -6.13696 2.3176 0
M  V30 1110 H 93.5356 -6.39685 4.02913 0
M  V30 1111 H 94.8036 -7.14868 3.10779 0
M  V30 1112 N 99.0327 -1.24633 -0.964593 0
M  V30 1113 C 100.31 -0.995809 -1.68354 0
M  V30 1114 C 100.69 0.480964 -2.05548 0
M  V30 1115 O 100.038 1.45599 -1.76105 0
M  V30 1116 C 100.248 -1.92177 -2.91323 0
M  V30 1117 C 101.596 -2.19446 -3.63495 0
M  V30 1118 O 102.62 -1.89855 -3.01386 0
M  V30 1119 O 101.479 -2.69714 -4.75307 0
M  V30 1120 H 98.5727 -0.376854 -0.736146 0
M  V30 1121 H 101.119 -1.35745 -1.0184 0
M  V30 1122 H 99.8907 -2.91938 -2.60553 0
M  V30 1123 H 99.5137 -1.56349 -3.65569 0
M  V30 1124 N 100.511 1.16574 -1.06058 0
M  V30 1125 C 101.927 1.3904 -0.783585 0
M  V30 1126 C 102.127 1.91784 0.618145 0
M  V30 1127 O 101.183 2.11511 1.37911 0
M  V30 1128 C 102.496 2.37329 -1.84649 0
M  V30 1129 C 104.044 2.51018 -1.86973 0
M  V30 1130 C 104.519 3.52588 -2.92311 0
M  V30 1131 N 106.01 3.60113 -2.91329 0
M  V30 1132 C 106.745 4.38486 -3.69482 0
M  V30 1133 N 106.241 5.20302 -4.57447 0
M  V30 1134 N 108.034 4.33446 -3.57885 0
M  V30 1135 H 100.185 0.806725 -1.96483 0
M  V30 1136 H 102.448 0.417117 -0.851303 0
M  V30 1137 H 102.154 2.05663 -2.85299 0
M  V30 1138 H 102.028 3.36946 -1.6955 0
M  V30 1139 H 104.415 2.81989 -0.869827 0
M  V30 1140 H 104.496 1.51445 -2.0615 0
M  V30 1141 H 104.14 3.22354 -3.92492 0
M  V30 1142 H 104.07 4.51886 -2.70383 0
M  V30 1143 H 106.561 3.01707 -2.27555 0
M  V30 1144 H 106.874 5.77311 -5.13743 0
M  V30 1145 H 105.219 5.19653 -4.61503 0
M  V30 1146 H 108.41 3.68586 -2.88551 0
M  V30 1147 H 108.583 4.94279 -4.19037 0
M  V30 1148 N 101.989 0.842826 1.3317 0
M  V30 1149 C 103.405 0.531128 1.50503 0
M  V30 1150 C 103.605 -0.940734 1.78192 0
M  V30 1151 O 102.661 -1.72436 1.84451 0
M  V30 1152 C 103.974 1.40789 2.65705 0
M  V30 1153 C 105.522 1.40708 2.79589 0
M  V30 1154 C 105.997 2.26878 3.97857 0
M  V30 1155 N 107.488 2.24609 4.05099 0
M  V30 1156 C 108.223 2.88019 4.95815 0
M  V30 1157 N 107.719 3.60496 5.9162 0
M  V30 1158 N 109.512 2.77469 4.88843 0
M  V30 1159 H 101.663 1.79557 1.1346 0
M  V30 1160 H 103.926 0.766267 0.558156 0
M  V30 1161 H 103.632 2.454 2.51936 0
M  V30 1162 H 103.506 1.08677 3.61205 0
M  V30 1163 H 105.893 0.368668 2.92788 0
M  V30 1164 H 105.974 1.76829 1.84838 0
M  V30 1165 H 105.618 3.3078 3.85418 0
M  V30 1166 H 105.548 1.88096 4.91861 0
M  V30 1167 H 108.039 1.71906 3.36536 0
M  V30 1168 H 108.352 4.06076 6.57512 0
M  V30 1169 H 106.697 3.64604 5.91683 0
M  V30 1170 H 109.888 2.20406 4.12963 0
M  V30 1171 H 110.061 3.2717 5.59342 0
M  V30 1172 N 103.467 -1.45747 0.599634 0
M  V30 1173 C 104.692 -2.07178 0.0960198 0
M  V30 1174 C 105.117 -1.44268 -1.207 0
M  V30 1175 O 104.475 -0.532503 -1.73303 0
M  V30 1176 C 104.523 -3.60579 -0.0385348 0
M  V30 1177 O 103.627 -3.97713 -1.0908 0
M  V30 1178 H 102.968 -0.660251 0.0704593 0
M  V30 1179 H 105.498 -1.87124 0.827385 0
M  V30 1180 H 105.508 -4.07298 -0.239304 0
M  V30 1181 H 104.183 -4.05756 0.912947 0
M  V30 1182 H 102.76 -3.62678 -0.867135 0
M  V30 1183 N 104.945 -0.338344 -1.53925 0
M  V30 1184 C 106.173 0.261298 -2.05243 0
M  V30 1185 C 106.588 1.44625 -1.21363 0
M  V30 1186 O 105.945 1.80811 -0.247736 0
M  V30 1187 C 105.996 0.681412 -3.5502 0
M  V30 1188 O 105.717 -0.456414 -4.35716 0
M  V30 1189 C 107.218 1.34232 -4.22489 0
M  V30 1190 H 104.438 0.0513685 -0.669031 0
M  V30 1191 H 106.982 -0.488822 -1.98572 0
M  V30 1192 H 105.137 1.38148 -3.61931 0
M  V30 1193 H 105.551 -0.122564 -5.24357 0
M  V30 1194 H 107.025 1.58708 -5.28693 0
M  V30 1195 H 107.502 2.29426 -3.74514 0
M  V30 1196 H 108.108 0.684424 -4.19757 0
M  V30 1197 N 106.423 1.57458 -0.0668435 0
M  V30 1198 C 107.671 1.92919 0.602214 0
M  V30 1199 C 107.992 0.947215 1.70449 0
M  V30 1200 O 107.262 -0.00544117 1.95899 0
M  V30 1201 H 105.842 0.71217 0.22544 0
M  V30 1202 H 108.504 1.94508 -0.123535 0
M  V30 1203 H 107.6 2.94589 1.03073 0
M  V30 1204 N 107.901 -0.206675 1.56239 0
M  V30 1205 C 108.848 -1.25617 1.93621 0
M  V30 1206 C 109.818 -1.45824 0.795274 0
M  V30 1207 O 111.003 -1.59148 1.05245 0
M  V30 1208 C 108.143 -2.59839 2.27107 0
M  V30 1209 C 107.256 -2.47308 3.54207 0
M  V30 1210 C 106.391 -3.74155 3.7707 0
M  V30 1211 C 105.43 -3.56407 4.97635 0
M  V30 1212 N 104.567 -4.75238 5.1681 0
M  V30 1213 H 109.407 -0.930383 2.83104 0
M  V30 1214 H 106.944 -0.448065 1.4011 0
M  V30 1215 H 108.902 -3.38021 2.44535 0
M  V30 1216 H 107.532 -2.90485 1.40778 0
M  V30 1217 H 106.584 -1.60483 3.4489 0
M  V30 1218 H 107.896 -2.30122 4.42544 0
M  V30 1219 H 107.05 -4.60778 3.94675 0
M  V30 1220 H 105.789 -3.94282 2.87042 0
M  V30 1221 H 104.794 -2.68168 4.79964 0
M  V30 1222 H 106.019 -3.37736 5.89161 0
M  V30 1223 H 103.965 -4.95651 4.29728 0
M  V30 1224 H 103.882 -4.60835 5.99306 0
M  V30 1225 H 105.15 -5.63246 5.38864 0
M  V30 1226 N 109.379 -1.50304 -0.473955 0
M  V30 1227 C 110.604 -1.65175 -1.25427 0
M  V30 1228 C 111.029 -0.333673 -1.85117 0
M  V30 1229 O 110.387 0.702114 -1.67153 0
M  V30 1230 C 110.435 -2.74295 -2.34082 0
M  V30 1231 O 109.539 -2.35349 -3.38651 0
M  V30 1232 H 108.88 -0.551944 -0.369126 0
M  V30 1233 H 111.41 -1.96662 -0.564364 0
M  V30 1234 H 111.42 -2.97285 -2.79438 0
M  V30 1235 H 110.095 -3.69959 -1.90008 0
M  V30 1236 H 108.672 -2.22794 -2.99027 0
M  V30 1237 N 110.857 0.726932 -1.39834 0
M  V30 1238 C 112.103 1.48771 -1.38704 0
M  V30 1239 C 112.458 1.92394 0.0146387 0
M  V30 1240 O 111.751 1.64474 0.982797 0
M  V30 1241 C 111.945 2.73495 -2.30077 0
M  V30 1242 C 111.774 2.42068 -3.78989 0
M  V30 1243 C 110.544 2.33966 -4.4787 0
M  V30 1244 C 112.742 2.0708 -4.70768 0
M  V30 1245 N 110.724 1.95095 -5.82075 0
M  V30 1246 C 112.095 1.78719 -5.93683 0
M  V30 1247 C 114.15 1.93618 -4.58712 0
M  V30 1248 C 112.853 1.3825 -7.05889 0
M  V30 1249 C 114.879 1.54553 -5.70848 0
M  V30 1250 C 114.241 1.27082 -6.92842 0
M  V30 1251 H 110.34 0.542919 -0.562817 0
M  V30 1252 H 112.924 0.84408 -1.75452 0
M  V30 1253 H 111.095 3.35625 -1.95474 0
M  V30 1254 H 112.827 3.39755 -2.19883 0
M  V30 1255 H 109.582 2.51331 -4.0141 0
M  V30 1256 H 110.006 1.7823 -6.53118 0
M  V30 1257 H 114.648 2.13522 -3.64922 0
M  V30 1258 H 112.366 1.17088 -7.99572 0
M  V30 1259 H 115.952 1.44731 -5.6351 0
M  V30 1260 H 114.832 0.973069 -7.78139 0
M  V30 1261 N 112.336 1.25143 0.95797 0
M  V30 1262 C 113.584 1.09476 1.69881 0
M  V30 1263 C 113.905 -0.365502 1.91544 0
M  V30 1264 O 113.175 -1.25985 1.50015 0
M  V30 1265 H 111.755 0.402128 0.629525 0
M  V30 1266 H 114.417 1.57214 1.15194 0
M  V30 1267 H 113.513 1.60046 2.6794 0
M  V30 1268 N 113.814 -1.1601 1.06675 0
M  V30 1269 C 114.761 -2.20525 0.680967 0
M  V30 1270 C 115.731 -1.62904 -0.324283 0
M  V30 1271 O 116.916 -1.89615 -0.212294 0
M  V30 1272 C 114.056 -3.45013 0.0776551 0
M  V30 1273 C 113.169 -4.16863 1.13355 0
M  V30 1274 C 112.304 -5.2888 0.49597 0
M  V30 1275 C 111.343 -5.92537 1.53513 0
M  V30 1276 N 110.48 -6.96038 0.920631 0
M  V30 1277 H 115.32 -2.52876 1.57663 0
M  V30 1278 H 112.857 -1.24199 0.788223 0
M  V30 1279 H 114.815 -4.16193 -0.289704 0
M  V30 1280 H 113.445 -3.132 -0.781393 0
M  V30 1281 H 112.497 -3.44248 1.61857 0
M  V30 1282 H 113.809 -4.60294 1.92174 0
M  V30 1283 H 112.963 -6.06653 0.0758604 0
M  V30 1284 H 111.702 -4.86622 -0.324062 0
M  V30 1285 H 110.707 -5.13482 1.9651 0
M  V30 1286 H 111.932 -6.36873 2.35733 0
M  V30 1287 H 109.878 -6.55888 0.12138 0
M  V30 1288 H 109.795 -7.3786 1.64616 0
M  V30 1289 H 111.063 -7.77725 0.525795 0
M  V30 1290 N 115.292 -0.849877 -1.32721 0
M  V30 1291 C 116.703 -0.506188 -1.79707 0
M  V30 1292 C 117.054 0.975627 -1.70223 0
M  V30 1293 O 116.179 1.76078 -1.25799 0
M  V30 1294 C 116.774 -0.912044 -3.26293 0
M  V30 1295 C 115.333 -0.620326 -3.71253 0
M  V30 1296 C 114.48 -1.11439 -2.53922 0
M  V30 1297 H 117.431 -1.03754 -1.20087 0
M  V30 1298 H 117.452 -0.226493 -3.79825 0
M  V30 1299 H 116.964 -1.99057 -3.33164 0
M  V30 1300 H 115.065 0.447674 -3.69901 0
M  V30 1301 H 115.178 -1.18327 -4.64258 0
M  V30 1302 H 113.542 -0.534834 -2.49021 0
M  V30 1303 H 114.325 -2.19992 -2.6355 0
M  V30 1304 N 116.77 1.45427 -0.607355 0
M  V30 1305 C 118.018 2.01841 -0.102253 0
M  V30 1306 C 118.339 1.47832 1.27164 0
M  V30 1307 O 117.609 0.672497 1.83995 0
M  V30 1308 H 116.189 0.746188 -0.0348101 0
M  V30 1309 H 118.851 1.78229 -0.7887 0
M  V30 1310 H 117.947 3.12057 -0.0518585 0
M  V30 1311 N 118.248 0.346503 1.53744 0
M  V30 1312 C 119.478 -0.250047 2.05081 0
M  V30 1313 C 119.886 -1.44529 1.22098 0
M  V30 1314 O 119.229 -1.81992 0.249917 0
M  V30 1315 C 119.291 -0.725934 3.52094 0
M  V30 1316 C 118.955 0.350053 4.55657 0
M  V30 1317 C 119.952 1.19372 5.0601 0
M  V30 1318 C 117.637 0.504827 4.99757 0
M  V30 1319 C 119.631 2.17768 5.99046 0
M  V30 1320 C 117.318 1.49218 5.92602 0
M  V30 1321 C 118.316 2.32706 6.42135 0
M  V30 1322 O 118.004 3.2976 7.33153 0
M  V30 1323 H 117.736 -0.0515469 0.674032 0
M  V30 1324 H 120.29 0.497559 1.99282 0
M  V30 1325 H 118.52 -1.52483 3.55367 0
M  V30 1326 H 120.209 -1.24336 3.86388 0
M  V30 1327 H 120.975 1.08525 4.72702 0
M  V30 1328 H 116.854 -0.135178 4.60802 0
M  V30 1329 H 120.398 2.82971 6.37631 0
M  V30 1330 H 116.295 1.6012 6.25325 0
M  V30 1331 H 117.063 3.25265 7.51096 0
M  V30 1332 N 119.726 -1.57421 0.075193 0
M  V30 1333 C 121.137 -1.81021 -0.456964 0
M  V30 1334 C 121.488 -0.98936 -1.69429 0
M  V30 1335 O 120.613 -0.212865 -2.15351 0
M  V30 1336 C 121.208 -3.28329 -0.83581 0
M  V30 1337 C 119.767 -3.52764 -1.31281 0
M  V30 1338 C 118.914 -2.75676 -0.299648 0
M  V30 1339 H 121.865 -1.55822 0.300856 0
M  V30 1340 H 121.886 -3.40564 -1.69696 0
M  V30 1341 H 121.398 -3.88046 0.0649238 0
M  V30 1342 H 119.499 -2.98355 -2.23193 0
M  V30 1343 H 119.612 -4.61451 -1.28839 0
M  V30 1344 H 117.976 -2.42538 -0.777641 0
M  V30 1345 H 118.759 -3.38132 0.593417 0
M  V30 1346 N 121.204 0.198386 -1.56346 0
M  V30 1347 C 122.45 0.916115 -1.81601 0
M  V30 1348 C 122.805 1.81025 -0.651744 0
M  V30 1349 O 122.098 1.88316 0.353229 0
M  V30 1350 C 122.292 1.77031 -3.10475 0
M  V30 1351 C 122.121 0.960365 -4.39326 0
M  V30 1352 C 120.891 0.646093 -5.01152 0
M  V30 1353 C 123.089 0.314628 -5.13337 0
M  V30 1354 N 121.071 -0.182828 -6.13628 0
M  V30 1355 C 122.442 -0.37664 -6.18855 0
M  V30 1356 C 124.497 0.230019 -4.97368 0
M  V30 1357 C 123.2 -1.14445 -7.10137 0
M  V30 1358 C 125.226 -0.524389 -5.89071 0
M  V30 1359 C 124.588 -1.20412 -6.94032 0
M  V30 1360 H 120.687 0.314732 -0.715868 0
M  V30 1361 H 123.271 0.185102 -1.93818 0
M  V30 1362 H 121.442 2.47295 -2.99499 0
M  V30 1363 H 123.174 2.42727 -3.2383 0
M  V30 1364 H 119.929 0.969724 -4.63566 0
M  V30 1365 H 120.353 -0.586802 -6.74452 0
M  V30 1366 H 124.995 0.741184 -4.16253 0
M  V30 1367 H 122.713 -1.66706 -7.90718 0
M  V30 1368 H 126.299 -0.591167 -5.78789 0
M  V30 1369 H 125.179 -1.77853 -7.63766 0
M  V30 1370 N 122.682 1.50554 0.465978 0
M  V30 1371 C 124.093 1.54599 1.04671 0
M  V30 1372 C 124.444 0.352488 1.93008 0
M  V30 1373 O 123.569 -0.534044 2.09707 0
M  V30 1374 C 124.164 2.80166 1.90505 0
M  V30 1375 C 122.723 2.86876 2.43678 0
M  V30 1376 C 121.87 2.48947 1.22151 0
M  V30 1377 H 124.821 1.56744 0.248384 0
M  V30 1378 H 124.842 2.62311 2.75633 0
M  V30 1379 H 124.354 3.67013 1.26186 0
M  V30 1380 H 122.455 2.04393 3.11536 0
M  V30 1381 H 122.568 3.89885 2.78436 0
M  V30 1382 H 120.932 2.01498 1.5579 0
M  V30 1383 H 121.715 3.38107 0.594866 0
M  V30 1384 N 124.16 -0.719506 1.40217 0
M  V30 1385 C 125.09 -1.8465 1.42922 0
M  V30 1386 C 126.071 -1.67599 0.29062 0
M  V30 1387 O 127.256 -1.87688 0.498677 0
M  V30 1388 C 124.386 -3.22565 1.28722 0
M  V30 1389 C 123.34 -3.54281 2.40144 0
M  V30 1390 C 122.666 -4.91298 2.11023 0
M  V30 1391 C 123.966 -3.55676 3.82481 0
M  V30 1392 H 125.66 -1.82644 2.37237 0
M  V30 1393 H 123.206 -0.877305 1.1419 0
M  V30 1394 H 125.159 -4.01095 1.29232 0
M  V30 1395 H 123.883 -3.25137 0.308811 0
M  V30 1396 H 122.542 -2.78088 2.38877 0
M  V30 1397 H 122.19 -4.90468 1.11582 0
M  V30 1398 H 121.89 -5.13485 2.8567 0
M  V30 1399 H 123.414 -5.72166 2.13209 0
M  V30 1400 H 124.828 -4.24254 3.85592 0
M  V30 1401 H 123.225 -3.89388 4.56614 0
M  V30 1402 H 124.295 -2.55144 4.12346 0
M  V30 1403 N 125.638 -1.25649 -0.95132 0
M  V30 1404 C 126.868 -1.13179 -1.72841 0
M  V30 1405 C 127.276 0.316827 -1.86528 0
M  V30 1406 O 126.619 1.22948 -1.3649 0
M  V30 1407 C 126.681 -1.71644 -3.15878 0
M  V30 1408 C 126.345 -3.20667 -3.25609 0
M  V30 1409 C 127.342 -4.17616 -3.09666 0
M  V30 1410 C 125.027 -3.6094 -3.49324 0
M  V30 1411 C 127.021 -5.52817 -3.17289 0
M  V30 1412 C 124.708 -4.96278 -3.56584 0
M  V30 1413 C 125.706 -5.92025 -3.40581 0
M  V30 1414 O 125.394 -7.24899 -3.47528 0
M  V30 1415 H 125.126 -0.395389 -0.54831 0
M  V30 1416 H 127.68 -1.66566 -1.20187 0
M  V30 1417 H 125.91 -1.12707 -3.69911 0
M  V30 1418 H 127.599 -1.54225 -3.75459 0
M  V30 1419 H 128.365 -3.87842 -2.91211 0
M  V30 1420 H 124.244 -2.86907 -3.6084 0
M  V30 1421 H 127.788 -6.2753 -3.04716 0
M  V30 1422 H 123.685 -5.25716 -3.74556 0
M  V30 1423 H 124.453 -7.33039 -3.64138 0
M  V30 1424 N 127.117 1.15442 -1.07289 0
M  V30 1425 C 128.365 1.85845 -0.794096 0
M  V30 1426 C 128.686 1.82692 0.681809 0
M  V30 1427 O 127.956 1.26741 1.49377 0
M  V30 1428 H 126.536 0.688089 -0.290763 0
M  V30 1429 H 129.198 1.39947 -1.3565 0
M  V30 1430 H 128.294 2.91001 -1.12804 0
M  V30 1431 N 128.595 0.856903 1.32268 0
M  V30 1432 C 129.543 0.291987 2.3076 0
M  V30 1433 C 130.537 -0.585857 1.58947 0
M  V30 1434 O 131.743 -0.47341 1.73663 0
M  V30 1435 H 128.118 0.075721 0.748178 0
M  V30 1436 H 130.089 1.13687 2.75895 0
M  V30 1437 C 128.838 -0.502869 3.44044 0
M  V30 1438 H 128.161 0.163328 3.99466 0
M  V30 1439 H 129.601 -0.863691 4.1511 0
M  V30 1440 C 128.06 -1.68898 2.91505 0
M  V30 1441 O 128.59 -2.78811 2.89184 0
M  V30 1442 N 126.796 -1.51679 2.47875 0
M  V30 1443 H 126.343 -0.622666 2.49961 0
M  V30 1444 H 126.301 -2.31184 2.13076 0
M  V30 1445 N 130.073 -1.45103 0.615059 0
M  V30 1446 C 130.983 -2.34382 -0.101034 0
M  V30 1447 C 131.999 -1.51681 -0.852585 0
M  V30 1448 O 133.175 -1.8446 -0.808484 0
M  V30 1449 C 130.24 -3.29417 -1.08099 0
M  V30 1450 C 129.301 -4.28025 -0.330577 0
M  V30 1451 C 128.534 -5.1852 -1.26385 0
M  V30 1452 O 128.757 -5.12598 -2.50198 0
M  V30 1453 O 127.691 -5.97122 -0.756866 0
M  V30 1454 H 131.517 -2.97033 0.632855 0
M  V30 1455 H 129.102 -1.4461 0.375293 0
M  V30 1456 H 130.984 -3.87958 -1.6452 0
M  V30 1457 H 129.659 -2.69321 -1.79577 0
M  V30 1458 H 128.566 -3.73078 0.276283 0
M  V30 1459 H 129.899 -4.90997 0.343866 0
M  V30 1460 N 131.551 -0.354651 -1.53558 0
M  V30 1461 C 132.799 0.237972 -2.00694 0
M  V30 1462 C 133.12 1.50173 -1.24391 0
M  V30 1463 O 132.39 1.92673 -0.354135 0
M  V30 1464 H 130.97 0.0909256 -0.741446 0
M  V30 1465 H 133.632 -0.478368 -1.88938 0
M  V30 1466 H 132.728 0.47264 -3.085 0
M  V30 1467 N 133.029 1.57378 -0.0835403 0
M  V30 1468 C 134.269 1.95808 0.586381 0
M  V30 1469 C 134.633 0.963706 1.66062 0
M  V30 1470 O 135.834 1.23608 2.38693 0
M  V30 1471 C 134.105 3.38808 1.13771 0
M  V30 1472 S 135.664 3.99225 1.82112 0
M  V30 1473 H 132.482 0.684675 0.191679 0
M  V30 1474 H 135.084 1.94843 -0.160194 0
M  V30 1475 H 133.788 4.08954 0.344197 0
M  V30 1476 H 133.319 3.43344 1.92038 0
M  V30 1477 H 135.334 3.87087 3.10449 0
M  V30 1478 N 134.507 -0.190092 1.56449 0
M  V30 1479 C 135.755 -0.907908 1.80559 0
M  V30 1480 C 136.076 -1.83583 0.657438 0
M  V30 1481 O 135.346 -1.93203 -0.323924 0
M  V30 1482 H 133.926 -0.338247 0.666032 0
M  V30 1483 H 136.588 -0.194403 1.93928 0
M  V30 1484 H 135.684 -1.49604 2.73907 0
M  V30 1485 N 135.985 -1.50799 -0.457987 0
M  V30 1486 C 137.231 -1.63648 -1.20792 0
M  V30 1487 C 137.586 -0.338662 -1.89396 0
M  V30 1488 O 136.879 0.664291 -1.79716 0
M  V30 1489 C 137.073 -2.76358 -2.2663 0
M  V30 1490 C 136.902 -4.16974 -1.68411 0
M  V30 1491 C 135.672 -4.83199 -1.47807 0
M  V30 1492 C 137.87 -5.00774 -1.17176 0
M  V30 1493 N 135.852 -6.07991 -0.849692 0
M  V30 1494 C 137.223 -6.16397 -0.667403 0
M  V30 1495 C 139.278 -4.86452 -1.06155 0
M  V30 1496 C 137.981 -7.19272 -0.0636908 0
M  V30 1497 C 140.007 -5.89515 -0.471759 0
M  V30 1498 C 139.369 -7.04397 0.0221557 0
M  V30 1499 H 135.468 -0.652888 -0.43042 0
M  V30 1500 H 138.052 -1.87962 -0.507785 0
M  V30 1501 H 136.223 -2.53744 -2.94056 0
M  V30 1502 H 137.955 -2.78496 -2.93636 0
M  V30 1503 H 134.71 -4.40714 -1.73403 0
M  V30 1504 H 135.134 -6.74733 -0.553537 0
M  V30 1505 H 139.776 -3.97907 -1.42932 0
M  V30 1506 H 137.494 -8.07481 0.316253 0
M  V30 1507 H 141.08 -5.805 -0.388671 0
M  V30 1508 H 139.96 -7.82782 0.471375 0
M  V30 1509 N 137.463 0.71206 -1.40597 0
M  V30 1510 C 138.426 1.80785 -1.40888 0
M  V30 1511 C 139.426 1.57937 -0.302103 0
M  V30 1512 O 140.616 1.64913 -0.561182 0
M  V30 1513 C 137.748 3.18927 -1.20409 0
M  V30 1514 H 138.941 1.81924 -2.38419 0
M  V30 1515 H 136.494 0.91805 -1.26497 0
M  V30 1516 H 137.229 3.23436 -0.236522 0
M  V30 1517 H 137.014 3.36911 -2.00582 0
M  V30 1518 H 138.504 3.98949 -1.23408 0
M  V30 1519 N 138.941 1.26152 0.944643 0
M  V30 1520 C 140.189 1.11271 1.6871 0
M  V30 1521 C 140.51 -0.345166 1.91921 0
M  V30 1522 O 139.78 -1.24387 1.51343 0
M  V30 1523 H 138.36 0.408783 0.625224 0
M  V30 1524 H 141.022 1.58427 1.1352 0
M  V30 1525 H 140.118 1.62879 2.66227 0
M  V30 1526 N 140.419 -1.14872 1.07899 0
M  V30 1527 C 141.665 -1.86289 0.81657 0
M  V30 1528 C 142.02 -1.8107 -0.65049 0
M  V30 1529 O 141.313 -1.22684 -1.47171 0
M  V30 1530 C 141.507 -3.34223 1.26609 0
M  V30 1531 C 141.336 -3.53846 2.77531 0
M  V30 1532 C 140.106 -3.68995 3.45212 0
M  V30 1533 C 142.304 -3.51201 3.75716 0
M  V30 1534 N 140.286 -3.76725 4.84718 0
M  V30 1535 C 141.657 -3.65112 5.01092 0
M  V30 1536 C 143.712 -3.34507 3.68794 0
M  V30 1537 C 142.415 -3.64056 6.20368 0
M  V30 1538 C 144.441 -3.34752 4.8754 0
M  V30 1539 C 143.803 -3.49199 6.11751 0
M  V30 1540 H 139.902 -0.698579 0.351443 0
M  V30 1541 H 142.486 -1.37713 1.37634 0
M  V30 1542 H 140.657 -3.81402 0.73395 0
M  V30 1543 H 142.389 -3.93377 0.95062 0
M  V30 1544 H 139.144 -3.70006 2.95622 0
M  V30 1545 H 139.568 -3.8432 5.5734 0
M  V30 1546 H 144.21 -3.22253 2.73702 0
M  V30 1547 H 141.928 -3.75087 7.15776 0
M  V30 1548 H 145.514 -3.23055 4.83866 0
M  V30 1549 H 144.394 -3.49328 7.02097 0
M  V30 1550 N 141.898 -0.863906 -1.31812 0
M  V30 1551 C 142.828 -0.330843 -2.31144 0
M  V30 1552 C 143.809 0.575005 -1.60087 0
M  V30 1553 O 144.994 0.493304 -1.8783 0
M  V30 1554 C 142.124 0.47374 -3.44054 0
M  V30 1555 C 141.078 -0.338481 -4.26659 0
M  V30 1556 C 140.404 0.591412 -5.31419 0
M  V30 1557 C 141.704 -1.56926 -4.98168 0
M  V30 1558 H 143.398 -1.16086 -2.75979 0
M  V30 1559 H 140.944 -0.559657 -1.32679 0
M  V30 1560 H 142.897 0.857143 -4.12591 0
M  V30 1561 H 141.621 1.33721 -2.9797 0
M  V30 1562 H 140.28 -0.703754 -3.59782 0
M  V30 1563 H 139.928 1.45199 -4.81587 0
M  V30 1564 H 139.628 0.0519022 -5.87577 0
M  V30 1565 H 141.152 0.97179 -6.02817 0
M  V30 1566 H 142.566 -1.25764 -5.59336 0
M  V30 1567 H 140.963 -2.04739 -5.64094 0
M  V30 1568 H 142.033 -2.32544 -4.25501 0
M  V30 1569 N 143.376 1.44774 -0.622745 0
M  V30 1570 C 144.306 2.33382 0.0741861 0
M  V30 1571 C 145.287 1.47719 0.843387 0
M  V30 1572 O 146.472 1.76458 0.810934 0
M  V30 1573 C 143.602 3.30663 1.06204 0
M  V30 1574 C 142.556 4.26079 0.405037 0
M  V30 1575 C 141.882 5.13165 1.5022 0
M  V30 1576 C 143.182 5.1781 -0.683414 0
M  V30 1577 H 144.876 2.91905 -0.665713 0
M  V30 1578 H 142.422 1.40363 -0.321587 0
M  V30 1579 H 144.375 3.9153 1.55827 0
M  V30 1580 H 143.099 2.70331 1.83272 0
M  V30 1581 H 141.758 3.66532 -0.0704683 0
M  V30 1582 H 141.406 4.49191 2.26355 0
M  V30 1583 H 141.106 5.77812 1.06803 0
M  V30 1584 H 142.63 5.76902 2.00041 0
M  V30 1585 H 144.044 5.72661 -0.270631 0
M  V30 1586 H 142.441 5.91015 -1.04023 0
M  V30 1587 H 143.511 4.59326 -1.55395 0
M  V30 1588 N 144.854 0.36279 1.53368 0
M  V30 1589 C 146.079 -0.231226 2.06107 0
M  V30 1590 C 146.504 -1.419 1.23474 0
M  V30 1591 O 145.862 -1.79524 0.253128 0
M  V30 1592 C 145.91 -0.605523 3.5548 0
M  V30 1593 O 145.014 -1.70312 3.7559 0
M  V30 1594 H 144.355 -0.034327 0.663112 0
M  V30 1595 H 146.885 0.522584 1.97814 0
M  V30 1596 H 146.895 -0.877314 3.98456 0
M  V30 1597 H 145.57 0.263004 4.15068 0
M  V30 1598 H 144.147 -1.4271 3.44512 0
M  V30 1599 N 146.332 -1.57332 0.0918853 0
M  V30 1600 C 147.743 -1.81496 -0.437739 0
M  V30 1601 C 148.094 -1.00727 -1.6837 0
M  V30 1602 O 147.219 -0.235694 -2.15113 0
M  V30 1603 C 147.814 -3.29197 -0.800939 0
M  V30 1604 C 146.373 -3.54136 -1.27532 0
M  V30 1605 C 145.52 -2.75979 -0.270392 0
M  V30 1606 H 148.471 -1.55494 0.317366 0
M  V30 1607 H 148.492 -3.42344 -1.66074 0
M  V30 1608 H 148.004 -3.87955 0.106078 0
M  V30 1609 H 146.105 -3.00705 -2.20016 0
M  V30 1610 H 146.218 -4.62792 -1.23938 0
M  V30 1611 H 144.582 -2.43349 -0.751872 0
M  V30 1612 H 145.365 -3.37484 0.629248 0
M  V30 1613 N 147.81 0.181792 -1.56548 0
M  V30 1614 C 149.226 0.53316 -1.50431 0
M  V30 1615 C 149.426 1.85184 -0.794297 0
M  V30 1616 O 148.482 2.50058 -0.350318 0
M  V30 1617 C 149.795 0.575597 -2.9514 0
M  V30 1618 C 151.343 0.663519 -3.05886 0
M  V30 1619 C 151.818 0.736946 -4.52032 0
M  V30 1620 N 153.309 0.800118 -4.56237 0
M  V30 1621 C 154.044 0.877327 -5.66649 0
M  V30 1622 N 153.54 0.916016 -6.86718 0
M  V30 1623 N 155.333 0.915542 -5.54594 0
M  V30 1624 H 147.484 -0.683025 -2.01118 0
M  V30 1625 H 149.747 -0.244988 -0.915797 0
M  V30 1626 H 149.453 -0.324482 -3.502 0
M  V30 1627 H 149.327 1.42572 -3.49218 0
M  V30 1628 H 151.714 1.55403 -2.50867 0
M  V30 1629 H 151.795 -0.21307 -2.54911 0
M  V30 1630 H 151.439 -0.149262 -5.07681 0
M  V30 1631 H 151.369 1.62953 -5.00753 0
M  V30 1632 H 153.86 0.778926 -3.69785 0
M  V30 1633 H 154.173 0.975813 -7.66614 0
M  V30 1634 H 152.518 0.884469 -6.89349 0
M  V30 1635 H 155.709 0.882245 -4.59711 0
M  V30 1636 H 155.882 0.972253 -6.40665 0
M  V30 1637 N 149.288 1.51039 0.449983 0
M  V30 1638 C 150.536 1.62759 1.19808 0
M  V30 1639 C 150.857 0.339981 1.92013 0
M  V30 1640 O 150.127 -0.643606 1.85026 0
M  V30 1641 H 148.707 0.599811 0.445237 0
M  V30 1642 H 151.369 1.87914 0.517138 0
M  V30 1643 H 150.465 2.44911 1.93455 0
M  V30 1644 N 150.766 -0.704594 1.40972 0
M  V30 1645 C 151.991 -1.49858 1.43378 0
M  V30 1646 C 152.416 -1.88061 0.038184 0
M  V30 1647 O 151.774 -1.5402 -0.956425 0
M  V30 1648 C 151.822 -2.74333 2.34038 0
M  V30 1649 O 150.926 -3.7147 1.7912 0
M  V30 1650 H 150.267 -0.45139 0.486974 0
M  V30 1651 H 152.797 -0.866832 1.8533 0
M  V30 1652 H 152.807 -3.22741 2.49604 0
M  V30 1653 H 151.482 -2.45863 3.35446 0
M  V30 1654 H 150.059 -3.30363 1.72958 0
M  V30 1655 N 152.244 -1.26651 -0.937939 0
M  V30 1656 C 153.66 -1.03834 -1.21205 0
M  V30 1657 C 153.86 0.234502 -2.00131 0
M  V30 1658 O 152.916 0.942767 -2.3424 0
M  V30 1659 C 154.229 -2.27167 -1.97017 0
M  V30 1660 C 155.777 -2.32101 -2.09996 0
M  V30 1661 C 156.252 -3.55136 -2.8921 0
M  V30 1662 N 157.743 -3.55632 -2.96783 0
M  V30 1663 C 158.478 -4.475 -3.58512 0
M  V30 1664 N 157.974 -5.4966 -4.21717 0
M  V30 1665 N 159.767 -4.35145 -3.55816 0
M  V30 1666 H 151.918 -2.08398 -0.410391 0
M  V30 1667 H 154.181 -0.916031 -0.244114 0
M  V30 1668 H 153.887 -3.19765 -1.46434 0
M  V30 1669 H 153.761 -2.31672 -2.97671 0
M  V30 1670 H 156.148 -1.40015 -2.59769 0
M  V30 1671 H 156.229 -2.31605 -1.08594 0
M  V30 1672 H 155.873 -4.47553 -2.40123 0
M  V30 1673 H 155.803 -3.5288 -3.90875 0
M  V30 1674 H 158.294 -2.81743 -2.51852 0
M  V30 1675 H 158.607 -6.15943 -4.66727 0
M  V30 1676 H 156.952 -5.53514 -4.20294 0
M  V30 1677 H 160.143 -3.5455 -3.05634 0
M  V30 1678 H 160.316 -5.06934 -4.03636 0
M  V30 1679 N 153.722 1.14298 -1.08507 0
M  V30 1680 C 155.133 1.66926 -0.836227 0
M  V30 1681 C 155.484 1.85576 0.63686 0
M  V30 1682 O 154.609 1.56767 1.49175 0
M  V30 1683 C 155.204 3.03219 -1.51142 0
M  V30 1684 C 153.763 3.52876 -1.30979 0
M  V30 1685 C 152.91 2.2833 -1.57356 0
M  V30 1686 H 155.861 0.983491 -1.24552 0
M  V30 1687 H 155.882 3.68726 -0.939211 0
M  V30 1688 H 155.394 2.89612 -2.58353 0
M  V30 1689 H 153.495 3.71703 -0.258429 0
M  V30 1690 H 153.608 4.33586 -2.03814 0
M  V30 1691 H 151.972 2.34454 -0.995164 0
M  V30 1692 H 152.755 2.17298 -2.65775 0
M  V30 1693 N 155.201 0.870884 1.31352 0
M  V30 1694 C 156.429 0.49677 2.00848 0
M  V30 1695 C 156.844 -0.910998 1.65367 0
M  V30 1696 O 156.201 -1.59696 0.883374 0
M  V30 1697 C 156.252 0.645308 3.55694 0
M  V30 1698 O 155.973 1.99764 3.89905 0
M  V30 1699 C 157.474 0.272326 4.42463 0
M  V30 1700 H 154.694 0.193462 0.642506 0
M  V30 1701 H 157.238 1.1723 1.67563 0
M  V30 1702 H 155.393 0.0173176 3.87396 0
M  V30 1703 H 155.807 2.00607 4.84621 0
M  V30 1704 H 157.281 0.427208 5.50344 0
M  V30 1705 H 157.758 -0.788587 4.32062 0
M  V30 1706 H 158.364 0.876054 4.1618 0
M  V30 1707 N 156.679 -1.44442 0.630414 0
M  V30 1708 C 157.925 -2.02894 0.143332 0
M  V30 1709 C 158.28 -1.48697 -1.22094 0
M  V30 1710 O 157.573 -0.661171 -1.79831 0
M  V30 1711 C 157.767 -3.57332 0.0697835 0
M  V30 1712 C 157.596 -4.26512 1.42539 0
M  V30 1713 C 156.366 -4.63516 2.01198 0
M  V30 1714 C 158.564 -4.57004 2.35907 0
M  V30 1715 N 156.546 -5.17661 3.30001 0
M  V30 1716 C 157.917 -5.12223 3.49324 0
M  V30 1717 C 159.972 -4.38955 2.34995 0
M  V30 1718 C 158.675 -5.51295 4.62024 0
M  V30 1719 C 160.701 -4.79075 3.46758 0
M  V30 1720 C 160.063 -5.34407 4.58899 0
M  V30 1721 H 156.162 -0.776041 0.0963523 0
M  V30 1722 H 158.746 -1.75945 0.833752 0
M  V30 1723 H 156.917 -3.83894 -0.589915 0
M  V30 1724 H 158.649 -4.02451 -0.42606 0
M  V30 1725 H 155.404 -4.47811 1.54151 0
M  V30 1726 H 155.828 -5.4921 3.95851 0
M  V30 1727 H 160.47 -3.95469 1.49545 0
M  V30 1728 H 158.188 -5.93736 5.48182 0
M  V30 1729 H 161.774 -4.66824 3.47227 0
M  V30 1730 H 160.654 -5.64878 5.4395 0
M  V30 1731 N 158.157 -0.370918 -1.53173 0
M  V30 1732 C 159.405 0.216673 -2.00935 0
M  V30 1733 C 159.726 1.48845 -1.25977 0
M  V30 1734 O 158.996 1.92286 -0.374551 0
M  V30 1735 H 157.576 0.0830565 -0.742368 0
M  V30 1736 H 160.238 -0.49838 -1.8842 0
M  V30 1737 H 159.334 0.439893 -3.08984 0
M  V30 1738 N 159.635 1.57281 -0.100228 0
M  V30 1739 C 161.046 1.81725 0.428107 0
M  V30 1740 C 161.397 1.01619 1.67833 0
M  V30 1741 O 160.522 0.247098 2.14985 0
M  V30 1742 C 161.117 3.29617 0.78347 0
M  V30 1743 C 159.676 3.54808 1.25653 0
M  V30 1744 C 158.823 2.76118 0.255752 0
M  V30 1745 H 161.774 1.55324 -0.325608 0
M  V30 1746 H 161.795 3.4322 1.64256 0
M  V30 1747 H 161.307 3.87893 -0.12665 0
M  V30 1748 H 159.408 3.01868 2.18418 0
M  V30 1749 H 159.521 4.63443 1.21482 0
M  V30 1750 H 157.885 2.43745 0.738956 0
M  V30 1751 H 158.668 3.37145 -0.647136 0
M  V30 1752 N 161.113 -0.173488 1.56642 0
M  V30 1753 C 162.341 -0.906095 1.86004 0
M  V30 1754 C 162.756 -1.75921 0.685355 0
M  V30 1755 O 162.113 -1.79198 -0.345578 0
M  V30 1756 C 162.164 -1.78462 3.14378 0
M  V30 1757 O 161.885 -0.965914 4.27319 0
M  V30 1758 C 163.386 -2.62707 3.57071 0
M  V30 1759 H 160.606 -0.263341 0.617165 0
M  V30 1760 H 163.15 -0.174236 2.03756 0
M  V30 1761 H 161.305 -2.46984 2.98459 0
M  V30 1762 H 161.719 -1.56655 5.00559 0
M  V30 1763 H 163.193 -3.19969 4.49804 0
M  V30 1764 H 163.67 -3.37472 2.81086 0
M  V30 1765 H 164.276 -1.99521 3.75595 0
M  V30 1766 N 162.591 -1.51276 -0.441967 0
M  V30 1767 C 163.868 -1.54252 -1.20273 0
M  V30 1768 C 164.248 -0.30408 -2.08898 0
M  V30 1769 O 163.596 0.711084 -2.17154 0
M  V30 1770 C 163.806 -2.85406 -2.00859 0
M  V30 1771 C 165.154 -3.37181 -2.58059 0
M  V30 1772 O 166.178 -2.86925 -2.11074 0
M  V30 1773 O 165.037 -4.24858 -3.43741 0
M  V30 1774 H 162.131 -0.619969 -0.547328 0
M  V30 1775 H 164.677 -1.63586 -0.451413 0
M  V30 1776 H 163.449 -3.67003 -1.35736 0
M  V30 1777 H 163.072 -2.79213 -2.83065 0
M  V30 1778 N 164.069 0.697108 -1.41344 0
M  V30 1779 C 165.48 1.27697 -1.36199 0
M  V30 1780 C 165.831 1.9615 -0.0443463 0
M  V30 1781 O 164.956 1.98689 0.857419 0
M  V30 1782 C 165.551 2.32223 -2.46694 0
M  V30 1783 C 164.11 2.8579 -2.44952 0
M  V30 1784 C 163.257 1.59807 -2.26621 0
M  V30 1785 H 166.208 0.491968 -1.50882 0
M  V30 1786 H 166.229 3.1348 -2.15664 0
M  V30 1787 H 165.741 1.82373 -3.42581 0
M  V30 1788 H 163.842 3.3982 -1.52817 0
M  V30 1789 H 163.955 3.36325 -3.41207 0
M  V30 1790 H 162.319 1.8556 -1.7447 0
M  V30 1791 H 163.102 1.11956 -3.24532 0
M  V30 1792 N 165.547 1.27147 0.931209 0
M  V30 1793 C 166.963 1.04475 1.20653 0
M  V30 1794 C 167.163 -0.223885 2.00252 0
M  V30 1795 O 166.219 -0.930332 2.34736 0
M  V30 1796 C 167.532 2.28209 1.95809 0
M  V30 1797 C 169.08 2.33211 2.08762 0
M  V30 1798 C 169.555 3.56665 2.87323 0
M  V30 1799 N 171.046 3.57201 2.94892 0
M  V30 1800 C 171.781 4.49395 3.56134 0
M  V30 1801 N 171.277 5.51889 4.18796 0
M  V30 1802 N 173.07 4.37026 3.53504 0
M  V30 1803 H 165.221 2.08612 0.399333 0
M  V30 1804 H 167.484 0.917312 0.239253 0
M  V30 1805 H 167.19 3.20538 1.44736 0
M  V30 1806 H 167.064 2.33247 2.96438 0
M  V30 1807 H 169.451 1.41391 2.59023 0
M  V30 1808 H 169.532 2.32178 1.07364 0
M  V30 1809 H 169.176 4.4882 2.37746 0
M  V30 1810 H 169.106 3.54948 3.88998 0
M  V30 1811 H 171.597 2.83074 2.50354 0
M  V30 1812 H 171.91 6.18409 4.63454 0
M  V30 1813 H 170.255 5.55735 4.17353 0
M  V30 1814 H 173.446 3.56166 3.03749 0
M  V30 1815 H 173.619 5.09067 4.00942 0
M  V30 1816 N 167.025 -1.13721 1.09112 0
M  V30 1817 C 167.975 -2.17082 0.697091 0
M  V30 1818 C 168.959 -1.58321 -0.286923 0
M  V30 1819 O 170.151 -1.7673 -0.0978008 0
M  V30 1820 C 167.28 -3.43105 0.115729 0
M  V30 1821 C 166.366 -4.0888 1.12596 0
M  V30 1822 N 166.757 -4.4987 2.31195 0
M  V30 1823 C 165.055 -4.35471 0.963366 0
M  V30 1824 C 165.756 -5.01094 2.95431 0
M  V30 1825 N 164.732 -4.95751 2.23006 0
M  V30 1826 H 168.534 -2.46524 1.6001 0
M  V30 1827 H 166.048 -1.30481 0.966869 0
M  V30 1828 H 168.045 -4.16491 -0.184555 0
M  V30 1829 H 166.705 -3.15138 -0.78217 0
M  V30 1830 H 167.716 -4.42678 2.68806 0
M  V30 1831 H 164.393 -4.17328 0.119878 0
M  V30 1832 H 165.783 -5.4263 3.96236 0
M  V30 1833 N 168.503 -0.877838 -1.30888 0
M  V30 1834 C 169.919 -0.570844 -1.49042 0
M  V30 1835 C 170.119 0.893159 -1.80624 0
M  V30 1836 O 169.175 1.67485 -1.88958 0
M  V30 1837 C 170.488 -1.47784 -2.61878 0
M  V30 1838 C 172.036 -1.48071 -2.75761 0
M  V30 1839 C 172.511 -2.37347 -3.91702 0
M  V30 1840 N 174.002 -2.35271 -3.99001 0
M  V30 1841 C 174.737 -3.01063 -4.88004 0
M  V30 1842 N 174.233 -3.76055 -5.81854 0
M  V30 1843 N 176.026 -2.90332 -4.81315 0
M  V30 1844 H 168.177 -1.82502 -1.0866 0
M  V30 1845 H 170.44 -0.780797 -0.537644 0
M  V30 1846 H 170.146 -2.51993 -2.45341 0
M  V30 1847 H 170.02 -1.18215 -3.58197 0
M  V30 1848 H 172.407 -0.446166 -2.91708 0
M  V30 1849 H 172.488 -1.81668 -1.80085 0
M  V30 1850 H 172.132 -3.40883 -3.76512 0
M  V30 1851 H 172.062 -2.01071 -4.86701 0
M  V30 1852 H 174.553 -1.80768 -3.3186 0
M  V30 1853 H 174.866 -4.23366 -6.46514 0
M  V30 1854 H 173.211 -3.80163 -5.81808 0
M  V30 1855 H 176.402 -2.31278 -4.06974 0
M  V30 1856 H 176.575 -3.41885 -5.50471 0
M  V30 1857 N 169.982 1.44106 -0.638065 0
M  V30 1858 C 171.207 2.0685 -0.150916 0
M  V30 1859 C 171.632 1.47417 1.16833 0
M  V30 1860 O 170.99 0.578264 1.71831 0
M  V30 1861 C 171.038 3.60555 -0.05708 0
M  V30 1862 O 170.142 4.00465 0.984972 0
M  V30 1863 H 169.483 0.658151 -0.0879399 0
M  V30 1864 H 172.013 1.84865 -0.876707 0
M  V30 1865 H 172.023 4.07789 0.131232 0
M  V30 1866 H 170.698 4.03193 -1.02021 0
M  V30 1867 H 169.275 3.64849 0.770672 0
M  V30 1868 N 171.46 0.379036 1.52974 0
M  V30 1869 C 172.876 0.0285448 1.59574 0
M  V30 1870 C 173.076 -1.45542 1.39355 0
M  V30 1871 O 172.132 -2.2187 1.20541 0
M  V30 1872 C 173.445 0.496535 2.96572 0
M  V30 1873 C 174.993 0.451909 3.0972 0
M  V30 1874 C 175.468 0.895924 4.49152 0
M  V30 1875 N 176.959 0.851522 4.55306 0
M  V30 1876 C 177.694 1.16661 5.61407 0
M  V30 1877 N 177.19 1.55166 6.752 0
M  V30 1878 N 178.983 1.08853 5.51459 0
M  V30 1879 H 171.134 1.34525 1.64367 0
M  V30 1880 H 173.397 0.550733 0.771619 0
M  V30 1881 H 173.103 1.53258 3.16552 0
M  V30 1882 H 172.977 -0.109802 3.7704 0
M  V30 1883 H 175.364 -0.575029 2.89443 0
M  V30 1884 H 175.445 1.09392 2.3123 0
M  V30 1885 H 175.089 1.92104 4.70168 0
M  V30 1886 H 175.019 0.23103 5.26093 0
M  V30 1887 H 177.51 0.568038 3.73606 0
M  V30 1888 H 177.823 1.776 7.52116 0
M  V30 1889 H 176.168 1.59044 6.76557 0
M  V30 1890 H 179.359 0.786803 4.6144 0
M  V30 1891 H 179.532 1.33742 6.34048 0
M  V30 1892 N 172.938 -1.57226 0.108567 0
M  V30 1893 C 173.886 -2.16002 -0.862885 0
M  V30 1894 C 174.88 -1.10644 -1.28274 0
M  V30 1895 O 176.086 -1.28966 -1.2557 0
M  V30 1896 H 172.461 -0.691148 -0.296342 0
M  V30 1897 H 174.432 -2.96427 -0.342575 0
M  V30 1898 C 173.181 -2.76576 -2.10716 0
M  V30 1899 H 172.504 -3.5734 -1.793 0
M  V30 1900 H 173.944 -3.21253 -2.76717 0
M  V30 1901 C 172.403 -1.73137 -2.89007 0
M  V30 1902 O 172.933 -1.17842 -3.84026 0
M  V30 1903 N 171.139 -1.43317 -2.52801 0
M  V30 1904 H 170.686 -1.88473 -1.75601 0
M  V30 1905 H 170.644 -0.743485 -3.05483 0
M  V30 1906 N 174.416 0.165178 -1.56732 0
M  V30 1907 C 175.346 1.20651 -1.99914 0
M  V30 1908 C 176.327 1.45827 -0.875705 0
M  V30 1909 O 177.512 1.57057 -1.14223 0
M  V30 1910 C 174.642 2.54401 -2.36427 0
M  V30 1911 C 173.596 2.43782 -3.51787 0
M  V30 1912 C 172.922 3.82078 -3.7406 0
M  V30 1913 C 174.222 1.93732 -4.85041 0
M  V30 1914 H 175.916 0.847534 -2.87154 0
M  V30 1915 H 173.462 0.40625 -1.38151 0
M  V30 1916 H 175.415 3.27458 -2.65234 0
M  V30 1917 H 174.139 2.92098 -1.46103 0
M  V30 1918 H 172.798 1.73178 -3.23117 0
M  V30 1919 H 172.446 4.17179 -2.81017 0
M  V30 1920 H 172.146 3.7584 -4.51684 0
M  V30 1921 H 173.67 4.56712 -4.05274 0
M  V30 1922 H 175.084 2.56569 -5.12684 0
M  V30 1923 H 173.481 1.98428 -5.66345 0
M  V30 1924 H 174.551 0.891962 -4.76626 0
M  V30 1925 N 175.894 1.51508 0.433938 0
M  V30 1926 C 177.142 1.6402 1.18075 0
M  V30 1927 C 177.463 0.360328 1.91642 0
M  V30 1928 O 176.733 -0.623945 1.85698 0
M  V30 1929 H 175.313 0.6045 0.43885 0
M  V30 1930 H 177.975 1.88452 0.497178 0
M  V30 1931 H 177.071 2.46949 1.90847 0
M  V30 1932 N 177.372 -0.689602 1.41712 0
M  V30 1933 C 178.788 -1.00093 1.24312 0
M  V30 1934 C 178.988 -2.01036 0.136729 0
M  V30 1935 O 178.044 -2.47562 -0.496918 0
M  V30 1936 C 179.357 -1.51985 2.59463 0
M  V30 1937 C 180.905 -1.63838 2.66695 0
M  V30 1938 C 181.38 -2.1913 4.02177 0
M  V30 1939 N 182.871 -2.26483 4.04054 0
M  V30 1940 C 183.606 -2.70306 5.0569 0
M  V30 1941 N 183.102 -3.13691 6.17713 0
M  V30 1942 N 184.895 -2.69923 4.9305 0
M  V30 1943 H 177.046 -0.0210029 2.1239 0
M  V30 1944 H 179.309 -0.0718733 0.945272 0
M  V30 1945 H 179.015 -0.85269 3.41207 0
M  V30 1946 H 178.889 -2.50103 2.82362 0
M  V30 1947 H 181.276 -2.29664 1.85306 0
M  V30 1948 H 181.357 -0.642492 2.476 0
M  V30 1949 H 181.001 -1.53918 4.84016 0
M  V30 1950 H 180.931 -3.19482 4.18615 0
M  V30 1951 H 183.422 -1.95874 3.23174 0
M  V30 1952 H 183.735 -3.45773 6.9113 0
M  V30 1953 H 182.08 -3.11585 6.21241 0
M  V30 1954 H 185.271 -2.35382 4.04614 0
M  V30 1955 H 185.444 -3.03758 5.72394 0
M  V30 1956 N 178.85 -1.27639 -0.924453 0
M  V30 1957 C 180.096 -1.14336 -1.67497 0
M  V30 1958 C 180.429 0.309465 -1.91718 0
M  V30 1959 O 179.704 1.22608 -1.50989 0
M  V30 1960 C 179.987 -1.93096 -3.0395 0
M  V30 1961 C 179.84 -3.46381 -2.8695 0
M  V30 1962 C 181.159 -1.73798 -4.0433 0
M  V30 1963 H 178.278 -0.416728 -0.607871 0
M  V30 1964 H 180.92 -1.56832 -1.07256 0
M  V30 1965 H 179.07 -1.56982 -3.55372 0
M  V30 1966 H 180.742 -3.92343 -2.42621 0
M  V30 1967 H 178.985 -3.72557 -2.22225 0
M  V30 1968 H 179.656 -3.96735 -3.83804 0
M  V30 1969 H 182.132 -2.05293 -3.61931 0
M  V30 1970 H 181.008 -2.31294 -4.97789 0
M  V30 1971 H 181.269 -0.686725 -4.36734 0
M  V30 1972 N 180.328 1.1314 -1.09713 0
M  V30 1973 C 181.577 1.83838 -0.829851 0
M  V30 1974 C 181.89 1.84599 0.646728 0
M  V30 1975 O 183.096 2.51218 1.02965 0
M  V30 1976 C 181.552 3.30069 -1.43466 0
M  V30 1977 C 181.16 3.37688 -2.94399 0
M  V30 1978 C 182.904 4.05788 -1.24645 0
M  V30 1979 C 180.811 4.78209 -3.47952 0
M  V30 1980 H 179.741 0.68877 -0.306777 0
M  V30 1981 H 182.392 1.27448 -1.3202 0
M  V30 1982 H 180.774 3.8628 -0.871996 0
M  V30 1983 H 181.948 2.91456 -3.56918 0
M  V30 1984 H 180.263 2.75436 -3.12289 0
M  V30 1985 H 182.86 5.09535 -1.62107 0
M  V30 1986 H 183.203 4.15878 -0.187357 0
M  V30 1987 H 183.736 3.55915 -1.77678 0
M  V30 1988 H 180.475 4.73311 -4.53495 0
M  V30 1989 H 179.995 5.24924 -2.90198 0
M  V30 1990 H 181.674 5.47133 -3.45332 0
M  V30 1991 N 181.806 0.884767 1.30421 0
M  V30 1992 C 183.083 0.423185 1.90967 0
M  V30 1993 C 183.463 -1.09605 1.80416 0
M  V30 1994 O 182.811 -1.93126 1.22125 0
M  V30 1995 C 183.021 0.921056 3.36627 0
M  V30 1996 C 184.369 0.955903 4.137 0
M  V30 1997 O 185.393 0.867706 3.4547 0
M  V30 1998 O 184.252 1.08614 5.35598 0
M  V30 1999 H 181.346 0.129369 0.816819 0
M  V30 2000 H 183.892 0.973653 1.3899 0
M  V30 2001 H 182.664 1.96489 3.3839 0
M  V30 2002 H 182.287 0.349741 3.96059 0
M  V30 2003 N 183.284 -1.43765 0.645699 0
M  V30 2004 C 184.512 -2.06253 0.163556 0
M  V30 2005 C 184.927 -1.48352 -1.16778 0
M  V30 2006 O 184.284 -0.611932 -1.71935 0
M  V30 2007 C 184.335 -3.61453 0.0583186 0
M  V30 2008 O 184.056 -4.172 1.33702 0
M  V30 2009 C 185.557 -4.41002 -0.450795 0
M  V30 2010 H 182.777 -0.665413 0.0864077 0
M  V30 2011 H 185.321 -1.84396 0.884222 0
M  V30 2012 H 183.476 -3.82522 -0.612865 0
M  V30 2013 H 183.89 -5.10791 1.19131 0
M  V30 2014 H 185.364 -5.49966 -0.473403 0
M  V30 2015 H 185.841 -4.13488 -1.48068 0
M  V30 2016 H 186.447 -4.24886 0.187637 0
M  V30 2017 N 184.763 -0.387143 -1.52771 0
M  V30 2018 C 186.012 0.19697 -2.00736 0
M  V30 2019 C 186.325 1.48082 -1.27793 0
M  V30 2020 O 187.531 2.14485 -1.66458 0
M  V30 2021 C 185.987 0.401568 -3.57653 0
M  V30 2022 C 185.595 -0.868907 -4.39493 0
M  V30 2023 C 187.339 0.942164 -4.13912 0
M  V30 2024 C 185.246 -0.632705 -5.88006 0
M  V30 2025 H 184.176 0.0773827 -0.750019 0
M  V30 2026 H 186.827 -0.50921 -1.76293 0
M  V30 2027 H 185.209 1.16954 -3.78335 0
M  V30 2028 H 186.383 -1.64133 -4.30577 0
M  V30 2029 H 184.698 -1.33429 -3.94443 0
M  V30 2030 H 187.295 1.13455 -5.22525 0
M  V30 2031 H 187.638 1.9106 -3.69867 0
M  V30 2032 H 188.171 0.233814 -3.97112 0
M  V30 2033 H 184.91 -1.57208 -6.36369 0
M  V30 2034 H 184.43 0.100825 -5.99715 0
M  V30 2035 H 186.109 -0.26642 -6.46451 0
M  V30 2036 N 186.241 1.57166 -0.116904 0
M  V30 2037 C 187.469 1.99473 0.549383 0
M  V30 2038 C 187.884 0.996541 1.60357 0
M  V30 2039 O 187.241 -0.0108731 1.82497 0
M  V30 2040 C 187.292 3.41788 1.17741 0
M  V30 2041 O 187.013 4.37788 0.165362 0
M  V30 2042 C 188.514 3.99216 1.92722 0
M  V30 2043 H 185.734 0.655009 0.145616 0
M  V30 2044 H 188.278 2.03494 -0.202625 0
M  V30 2045 H 186.433 3.38713 1.88021 0
M  V30 2046 H 186.847 5.20806 0.621403 0
M  V30 2047 H 188.321 5.00882 2.31995 0
M  V30 2048 H 188.798 3.3824 2.80161 0
M  V30 2049 H 189.404 4.0583 1.27209 0
M  V30 2050 N 187.719 -0.156864 1.56817 0
M  V30 2051 C 188.959 -0.877453 1.84608 0
M  V30 2052 C 189.323 -1.78791 0.699845 0
M  V30 2053 O 190.524 -2.5472 0.858553 0
M  V30 2054 C 188.795 -1.63992 3.17555 0
M  V30 2055 S 190.354 -2.40729 3.66872 0
M  V30 2056 H 187.172 -0.293612 0.647544 0
M  V30 2057 H 189.774 -0.138099 1.95012 0
M  V30 2058 H 188.478 -0.962363 3.98957 0
M  V30 2059 H 188.009 -2.42038 3.10131 0
M  V30 2060 H 190.024 -3.65725 3.3535 0
M  V30 2061 N 189.197 -1.51736 -0.425897 0
M  V30 2062 C 190.445 -1.64644 -1.17204 0
M  V30 2063 C 190.766 -0.370486 -1.91448 0
M  V30 2064 O 190.036 0.614088 -1.86026 0
M  V30 2065 H 188.616 -0.606819 -0.435638 0
M  V30 2066 H 191.278 -1.88713 -0.487177 0
M  V30 2067 H 190.374 -2.47958 -1.89534 0
M  V30 2068 N 190.675 0.682077 -1.42076 0
M  V30 2069 C 191.922 1.44215 -1.42156 0
M  V30 2070 C 192.25 1.94468 -0.0354186 0
M  V30 2071 O 191.505 1.70816 0.955002 0
M  V30 2072 C 191.804 2.66036 -2.38662 0
M  V30 2073 C 191.47 2.34366 -3.85206 0
M  V30 2074 C 190.132 2.25439 -4.25124 0
M  V30 2075 C 192.484 2.08513 -4.77673 0
M  V30 2076 C 189.812 1.88775 -5.55501 0
M  V30 2077 C 192.164 1.73354 -6.08384 0
M  V30 2078 C 190.828 1.62933 -6.47309 0
M  V30 2079 H 190.098 0.527718 -0.520187 0
M  V30 2080 H 192.745 0.778387 -1.74967 0
M  V30 2081 H 191.05 3.3741 -1.99152 0
M  V30 2082 H 192.747 3.24205 -2.35991 0
M  V30 2083 H 189.337 2.42213 -3.53597 0
M  V30 2084 H 193.521 2.14346 -4.47626 0
M  V30 2085 H 188.777 1.7927 -5.84527 0
M  V30 2086 H 192.951 1.52373 -6.79526 0
M  V30 2087 H 190.578 1.34292 -7.48244 0
M  V30 2088 N 192.153 1.28127 0.917671 0
M  V30 2089 C 193.116 1.11744 2.00115 0
M  V30 2090 C 194.116 0.0583052 1.60694 0
M  V30 2091 O 195.306 0.303755 1.71531 0
M  V30 2092 C 192.438 0.704862 3.33533 0
M  V30 2093 H 193.631 2.07966 2.16079 0
M  V30 2094 H 191.184 1.11058 1.09981 0
M  V30 2095 H 191.919 -0.258299 3.2327 0
M  V30 2096 H 191.704 1.4699 3.63505 0
M  V30 2097 H 193.194 0.612768 4.1308 0
M  V30 2098 N 193.631 -1.12557 1.10312 0
M  V30 2099 C 194.908 -1.80363 0.756878 0
M  V30 2100 C 195.288 -1.97067 -0.756824 0
M  V30 2101 O 194.636 -1.54601 -1.68259 0
M  V30 2102 C 194.846 -3.14812 1.50647 0
M  V30 2103 C 196.194 -3.90029 1.67817 0
M  V30 2104 O 197.218 -3.24464 1.46974 0
M  V30 2105 O 196.077 -5.07652 2.02365 0
M  V30 2106 H 193.171 -0.780667 0.272926 0
M  V30 2107 H 195.717 -1.19404 1.20586 0
M  V30 2108 H 194.489 -2.97936 2.53672 0
M  V30 2109 H 194.112 -3.83478 1.05026 0
M  V30 2110 N 195.109 -0.891671 -1.2995 0
M  V30 2111 C 196.039 -0.379797 -2.30391 0
M  V30 2112 C 197.02 0.540919 -1.6127 0
M  V30 2113 O 198.205 0.453352 -1.88834 0
M  V30 2114 C 195.335 0.400654 -3.44981 0
M  V30 2115 C 194.289 -0.428905 -4.25846 0
M  V30 2116 C 193.615 0.478557 -5.32554 0
M  V30 2117 C 194.915 -1.67458 -4.94727 0
M  V30 2118 H 196.609 -1.21914 -2.73454 0
M  V30 2119 H 194.155 -0.587675 -1.31462 0
M  V30 2120 H 196.108 0.769434 -4.14316 0
M  V30 2121 H 194.832 1.27371 -3.0074 0
M  V30 2122 H 193.491 -0.779911 -3.58208 0
M  V30 2123 H 193.139 1.34951 -4.84559 0
M  V30 2124 H 192.839 -0.0727433 -5.87555 0
M  V30 2125 H 194.363 0.843705 -6.04743 0
M  V30 2126 H 195.777 -1.376 -5.56542 0
M  V30 2127 H 194.174 -2.16659 -5.59624 0
M  V30 2128 H 195.244 -2.41518 -4.20473 0
M  V30 2129 N 196.587 1.43421 -0.653314 0
M  V30 2130 C 197.52 2.2803 0.0879804 0
M  V30 2131 C 198.498 1.39833 0.82979 0
M  V30 2132 O 199.682 1.69275 0.829341 0
M  V30 2133 C 196.809 3.19247 1.13132 0
M  V30 2134 C 195.855 4.23704 0.487546 0
M  V30 2135 S 196.688 5.30377 -0.738961 0
M  V30 2136 C 197.844 6.25162 0.30384 0
M  V30 2137 H 198.077 2.90554 -0.629739 0
M  V30 2138 H 195.61 1.47934 -0.442156 0
M  V30 2139 H 197.568 3.72346 1.72827 0
M  V30 2140 H 196.229 2.55901 1.82136 0
M  V30 2141 H 195.422 4.87631 1.27407 0
M  V30 2142 H 195.024 3.73983 -0.0352915 0
M  V30 2143 H 197.316 6.67321 1.17 0
M  V30 2144 H 198.259 7.07463 -0.300402 0
M  V30 2145 H 198.667 5.60864 0.63969 0
M  V30 2146 N 198.065 0.39524 1.52563 0
M  V30 2147 C 199.313 -0.184678 2.01254 0
M  V30 2148 C 199.634 -1.46822 1.28329 0
M  V30 2149 O 198.904 -1.91666 0.405094 0
M  V30 2150 H 197.484 -0.0712355 0.743596 0
M  V30 2151 H 200.146 0.528293 1.87603 0
M  V30 2152 H 199.242 -0.390681 3.09645 0
M  V30 2153 N 199.544 -1.57102 0.125237 0
M  V30 2154 C 200.774 -1.99472 -0.538015 0
M  V30 2155 C 201.182 -1.00395 -1.60366 0
M  V30 2156 O 200.525 0.0103875 -1.83697 0
M  V30 2157 C 200.587 -3.38262 -1.21734 0
M  V30 2158 C 200.251 -4.56021 -0.298897 0
M  V30 2159 C 201.248 -5.17817 0.464943 0
M  V30 2160 C 198.933 -5.01869 -0.208149 0
M  V30 2161 C 200.927 -6.23852 1.3072 0
M  V30 2162 C 198.614 -6.07763 0.637736 0
M  V30 2163 C 199.612 -6.68622 1.39403 0
M  V30 2164 O 199.3 -7.7247 2.22586 0
M  V30 2165 H 199.032 -0.659934 -0.146501 0
M  V30 2166 H 201.586 -2.04321 0.210267 0
M  V30 2167 H 199.816 -3.30185 -2.01282 0
M  V30 2168 H 201.505 -3.6488 -1.77813 0
M  V30 2169 H 202.271 -4.83308 0.404741 0
M  V30 2170 H 198.15 -4.54241 -0.786522 0
M  V30 2171 H 201.694 -6.71284 1.898 0
M  V30 2172 H 197.591 -6.41701 0.699309 0
M  V30 2173 H 198.359 -7.89595 2.15596 0
M  V30 2174 N 201.022 0.148545 -1.56898 0
M  V30 2175 C 202.271 0.85984 -1.82454 0
M  V30 2176 C 202.584 1.82406 -0.706229 0
M  V30 2177 O 203.79 2.57938 -0.847349 0
M  V30 2178 C 202.246 1.57967 -3.2338 0
M  V30 2179 C 201.854 0.65794 -4.43142 0
M  V30 2180 C 203.598 2.27784 -3.58211 0
M  V30 2181 C 201.505 1.3793 -5.75091 0
M  V30 2182 H 200.435 0.324834 -0.68044 0
M  V30 2183 H 203.086 0.112588 -1.83154 0
M  V30 2184 H 201.468 2.37249 -3.17063 0
M  V30 2185 H 202.642 -0.0995497 -4.60692 0
M  V30 2186 H 200.957 0.0682643 -4.16344 0
M  V30 2187 H 203.554 2.8239 -4.54048 0
M  V30 2188 H 203.897 3.04204 -2.84193 0
M  V30 2189 H 204.43 1.55421 -3.66182 0
M  V30 2190 H 201.169 0.656982 -6.52199 0
M  V30 2191 H 200.689 2.10954 -5.61479 0
M  V30 2192 H 202.368 1.92063 -6.17835 0
M  V30 2193 N 202.5 1.5196 0.417844 0
M  V30 2194 C 203.911 1.57851 0.997 0
M  V30 2195 C 204.262 0.413714 1.91789 0
M  V30 2196 O 203.387 -0.467057 2.113 0
M  V30 2197 C 203.982 2.86085 1.81496 0
M  V30 2198 C 202.541 2.94483 2.34428 0
M  V30 2199 C 201.688 2.52707 1.14169 0
M  V30 2200 H 204.639 1.57455 0.198392 0
M  V30 2201 H 204.66 2.70947 2.67148 0
M  V30 2202 H 204.172 3.70842 1.14446 0
M  V30 2203 H 202.273 2.142 3.04875 0
M  V30 2204 H 202.386 3.98546 2.65891 0
M  V30 2205 H 200.75 2.06353 1.49301 0
M  V30 2206 H 201.533 3.39828 0.486999 0
M  V30 2207 N 203.978 -0.674533 1.42435 0
M  V30 2208 C 205.224 -1.43671 1.43131 0
M  V30 2209 C 205.557 -1.94142 0.0476021 0
M  V30 2210 O 204.832 -1.70924 -0.928188 0
M  V30 2211 C 205.115 -2.63355 2.45594 0
M  V30 2212 C 204.968 -2.18514 3.93156 0
M  V30 2213 C 206.287 -3.65571 2.45043 0
M  V30 2214 H 203.406 -0.521077 0.521198 0
M  V30 2215 H 206.048 -0.766551 1.7385 0
M  V30 2216 H 204.198 -3.2053 2.19528 0
M  V30 2217 H 205.87 -1.66504 4.30202 0
M  V30 2218 H 204.113 -1.50086 4.07009 0
M  V30 2219 H 204.784 -3.04484 4.60428 0
M  V30 2220 H 207.26 -3.18113 2.68223 0
M  V30 2221 H 206.136 -4.46893 3.18713 0
M  V30 2222 H 206.397 -4.16716 1.47649 0
M  V30 2223 N 205.456 -1.28612 -0.910864 0
M  V30 2224 C 206.702 -1.16106 -1.66274 0
M  V30 2225 C 207.035 0.289113 -1.92036 0
M  V30 2226 O 206.31 1.21 -1.52281 0
M  V30 2227 C 206.593 -1.96309 -3.01885 0
M  V30 2228 C 206.446 -3.49405 -2.8326 0
M  V30 2229 C 207.765 -1.78076 -4.02463 0
M  V30 2230 H 204.884 -0.423152 -0.603417 0
M  V30 2231 H 207.526 -1.57961 -1.05586 0
M  V30 2232 H 205.676 -1.60742 -3.53687 0
M  V30 2233 H 207.348 -3.94894 -2.38446 0
M  V30 2234 H 205.591 -3.74893 -2.18261 0
M  V30 2235 H 206.262 -4.00784 -3.79574 0
M  V30 2236 H 208.738 -2.0912 -3.59733 0
M  V30 2237 H 207.614 -2.36561 -4.95308 0
M  V30 2238 H 207.875 -0.733008 -4.35981 0
M  V30 2239 N 206.934 1.1197 -1.10907 0
M  V30 2240 C 208.182 1.83225 -0.852819 0
M  V30 2241 C 208.503 1.84769 0.623341 0
M  V30 2242 O 207.773 1.3143 1.45269 0
M  V30 2243 H 206.353 0.67849 -0.312507 0
M  V30 2244 H 209.015 1.3556 -1.40033 0
M  V30 2245 H 208.111 2.87265 -1.22005 0
M  V30 2246 N 208.412 0.89855 1.29475 0
M  V30 2247 C 209.375 0.380272 2.26023 0
M  V30 2248 C 210.375 -0.484891 1.53315 0
M  V30 2249 O 211.565 -0.290108 1.71767 0
M  V30 2250 C 208.697 -0.45651 3.3783 0
M  V30 2251 H 209.89 1.23295 2.73383 0
M  V30 2252 H 207.443 0.676589 1.40897 0
M  V30 2253 H 208.178 -1.32922 2.95808 0
M  V30 2254 H 207.963 0.163393 3.91759 0
M  V30 2255 H 209.453 -0.810466 4.0966 0
M  V30 2256 N 209.89 -1.43072 0.660911 0
M  V30 2257 C 211.301 -1.84932 0.256348 0
M  V30 2258 C 211.652 -1.55325 -1.19868 0
M  V30 2259 O 210.777 -1.00607 -1.91591 0
M  V30 2260 C 211.372 -3.35684 0.458475 0
M  V30 2261 C 209.931 -3.76245 0.108161 0
M  V30 2262 C 209.078 -2.66749 0.757641 0
M  V30 2263 H 212.029 -1.33116 0.864051 0
M  V30 2264 H 212.05 -3.79365 -0.293683 0
M  V30 2265 H 211.562 -3.572 1.51755 0
M  V30 2266 H 209.663 -3.60338 -0.948014 0
M  V30 2267 H 209.776 -4.76058 0.538992 0
M  V30 2268 H 208.14 -2.53989 0.190185 0
M  V30 2269 H 208.923 -2.91092 1.81989 0
M  V30 2270 N 211.368 -0.403325 -1.52352 0
M  V30 2271 C 212.614 0.174605 -2.02047 0
M  V30 2272 C 212.947 1.45282 -1.28867 0
M  V30 2273 O 212.222 1.90483 -0.393257 0
M  V30 2274 C 212.505 0.428238 -3.57545 0
M  V30 2275 C 212.358 -0.866248 -4.4138 0
M  V30 2276 C 213.677 1.21287 -4.23057 0
M  V30 2277 H 210.796 0.0619851 -0.734389 0
M  V30 2278 H 213.438 -0.53565 -1.82293 0
M  V30 2279 H 211.588 1.03327 -3.74507 0
M  V30 2280 H 213.26 -1.50265 -4.3614 0
M  V30 2281 H 211.503 -1.47851 -4.07827 0
M  V30 2282 H 212.174 -0.643249 -5.48239 0
M  V30 2283 H 214.65 0.700703 -4.10158 0
M  V30 2284 H 213.526 1.35909 -5.31808 0
M  V30 2285 H 213.787 2.23193 -3.81625 0
M  V30 2286 N 212.846 1.57033 -0.133567 0
M  V30 2287 C 214.094 1.953 0.519848 0
M  V30 2288 C 214.415 1.01866 1.66278 0
M  V30 2289 O 213.685 0.0776513 1.95746 0
M  V30 2290 H 212.265 0.721091 0.195032 0
M  V30 2291 H 214.927 1.93809 -0.205921 0
M  V30 2292 H 214.023 2.98695 0.904854 0
M  V30 2293 N 214.325 -0.140222 1.56975 0
M  V30 2294 C 215.573 -0.850005 1.83356 0
M  V30 2295 C 215.894 -1.81399 0.71551 0
M  V30 2296 O 215.164 -1.94136 -0.262294 0
M  V30 2297 H 213.744 -0.316886 0.676456 0
M  V30 2298 H 216.406 -0.132608 1.94448 0
M  V30 2299 H 215.502 -1.40814 2.78528 0
M  V30 2300 N 215.803 -1.52179 -0.40978 0
M  V30 2301 C 217.049 -1.66453 -1.15851 0
M  V30 2302 C 217.382 -0.392972 -1.90182 0
M  V30 2303 O 216.657 0.608579 -1.84734 0
M  V30 2304 C 216.94 -2.88612 -2.15349 0
M  V30 2305 C 216.793 -4.25815 -1.44918 0
M  V30 2306 C 218.112 -3.06294 -3.16026 0
M  V30 2307 H 215.231 -0.60575 -0.419805 0
M  V30 2308 H 217.873 -1.84732 -0.444314 0
M  V30 2309 H 216.023 -2.73158 -2.76255 0
M  V30 2310 H 217.695 -4.52995 -0.871365 0
M  V30 2311 H 215.938 -4.27247 -0.751159 0
M  V30 2312 H 216.609 -5.07337 -2.17516 0
M  V30 2313 H 219.085 -3.20641 -2.65195 0
M  V30 2314 H 217.961 -3.93283 -3.8291 0
M  V30 2315 H 218.222 -2.19579 -3.83715 0
M  V30 2316 N 217.281 0.66697 -1.42791 0
M  V30 2317 C 218.244 1.76211 -1.46568 0
M  V30 2318 C 219.244 1.56896 -0.352196 0
M  V30 2319 O 220.434 1.63044 -0.613364 0
M  V30 2320 C 217.566 3.14935 -1.30494 0
M  V30 2321 H 218.759 1.74247 -2.44086 0
M  V30 2322 H 216.312 0.877342 -1.29354 0
M  V30 2323 H 217.047 3.2252 -0.339301 0
M  V30 2324 H 216.832 3.30359 -2.11199 0
M  V30 2325 H 218.322 3.94821 -1.36038 0
M  V30 2326 N 218.759 1.29093 0.90403 0
M  V30 2327 C 220.175 1.07011 1.1841 0
M  V30 2328 C 220.375 -0.181358 2.00682 0
M  V30 2329 O 219.431 -0.880331 2.36657 0
M  V30 2330 C 220.744 2.32311 1.90924 0
M  V30 2331 C 222.292 2.37587 2.03768 0
M  V30 2332 C 222.767 3.62679 2.79693 0
M  V30 2333 N 224.258 3.63376 2.87249 0
M  V30 2334 C 224.993 4.56848 3.46522 0
M  V30 2335 N 224.489 5.60648 4.06996 0
M  V30 2336 N 226.282 4.44426 3.44154 0
M  V30 2337 H 218.433 2.09412 0.354993 0
M  V30 2338 H 220.696 0.922181 0.219742 0
M  V30 2339 H 220.402 3.23536 1.37905 0
M  V30 2340 H 220.276 2.39483 2.91424 0
M  V30 2341 H 222.663 1.46853 2.55965 0
M  V30 2342 H 222.744 2.34403 1.02415 0
M  V30 2343 H 222.388 4.53762 2.28173 0
M  V30 2344 H 222.318 3.63119 3.81381 0
M  V30 2345 H 224.809 2.88321 2.44293 0
M  V30 2346 H 225.122 6.28101 4.50232 0
M  V30 2347 H 223.467 5.64463 4.05471 0
M  V30 2348 H 226.658 3.62529 2.96126 0
M  V30 2349 H 226.831 5.17457 3.90054 0
M  V30 2350 N 220.237 -1.11381 1.11499 0
M  V30 2351 C 221.2 -2.15622 0.777153 0
M  V30 2352 C 222.2 -1.59504 -0.203779 0
M  V30 2353 O 223.39 -1.74188 0.020782 0
M  V30 2354 C 220.522 -3.40556 0.153116 0
M  V30 2355 H 221.715 -2.47021 1.70061 0
M  V30 2356 H 219.268 -1.26577 0.916952 0
M  V30 2357 H 220.003 -3.14767 -0.780536 0
M  V30 2358 H 219.788 -3.8257 0.859238 0
M  V30 2359 H 221.278 -4.17546 -0.0671044 0
M  V30 2360 N 221.715 -0.905404 -1.28997 0
M  V30 2361 C 222.645 -0.404212 -2.29975 0
M  V30 2362 C 223.626 0.523784 -1.61835 0
M  V30 2363 O 224.811 0.433298 -1.89304 0
M  V30 2364 C 221.941 0.364042 -3.45387 0
M  V30 2365 C 220.895 -0.474048 -4.25367 0
M  V30 2366 C 220.221 0.422045 -5.33032 0
M  V30 2367 C 221.521 -1.72696 -4.92923 0
M  V30 2368 H 223.215 -1.24807 -2.72146 0
M  V30 2369 H 220.761 -0.601585 -1.30832 0
M  V30 2370 H 222.714 0.725447 -4.15109 0
M  V30 2371 H 221.438 1.24174 -3.02074 0
M  V30 2372 H 220.097 -0.81786 -3.57361 0
M  V30 2373 H 219.745 1.29804 -4.85963 0
M  V30 2374 H 219.445 -0.135057 -5.87445 0
M  V30 2375 H 220.969 0.779517 -6.05604 0
M  V30 2376 H 222.383 -1.43495 -5.55051 0
M  V30 2377 H 220.78 -2.22582 -5.57295 0
M  V30 2378 H 221.85 -2.45964 -4.17887 0
M  V30 2379 N 223.193 1.4272 -0.668489 0
M  V30 2380 C 224.156 2.292 0.00448567 0
M  V30 2381 C 225.156 1.43001 0.735339 0
M  V30 2382 O 226.346 1.64461 0.57429 0
M  V30 2383 C 223.478 3.25375 1.01705 0
M  V30 2384 H 224.671 2.90199 -0.756608 0
M  V30 2385 H 222.224 1.50254 -0.430506 0
M  V30 2386 H 222.959 2.69301 1.80686 0
M  V30 2387 H 222.744 3.88944 0.496463 0
M  V30 2388 H 224.234 3.90245 1.48655 0
M  V30 2389 N 224.671 0.411399 1.52136 0
M  V30 2390 C 225.621 -0.430376 2.23901 0
M  V30 2391 C 226.605 -1.0116 1.25121 0
M  V30 2392 O 227.797 -0.934044 1.50348 0
M  V30 2393 C 224.926 -1.54527 3.06556 0
M  V30 2394 C 224.012 -0.9747 4.12747 0
M  V30 2395 N 224.403 -0.130991 5.0563 0
M  V30 2396 C 222.701 -1.24497 4.28271 0
M  V30 2397 C 223.402 0.186689 5.814 0
M  V30 2398 N 222.378 -0.42304 5.41951 0
M  V30 2399 H 226.18 0.220509 2.93072 0
M  V30 2400 H 223.694 0.221952 1.60876 0
M  V30 2401 H 225.691 -2.16093 3.56524 0
M  V30 2402 H 224.351 -2.19875 2.38925 0
M  V30 2403 H 225.362 0.23349 5.17373 0
M  V30 2404 H 222.039 -1.89787 3.7187 0
M  V30 2405 H 223.429 0.871673 6.66222 0
M  V30 2406 N 226.149 -1.5696 0.141893 0
M  V30 2407 C 227.397 -1.95573 -0.509484 0
M  V30 2408 C 227.718 -1.02746 -1.65736 0
M  V30 2409 O 226.988 -0.0880311 -1.95702 0
M  V30 2410 H 225.568 -0.722115 -0.191205 0
M  V30 2411 H 228.23 -1.93697 0.216196 0
M  V30 2412 H 227.326 -2.99171 -0.889 0
M  V30 2413 N 227.627 0.131896 -1.57047 0
M  V30 2414 C 228.873 0.843179 -1.84441 0
M  V30 2415 C 229.206 1.80129 -0.725749 0
M  V30 2416 O 228.481 1.92624 0.269469 0
M  V30 2417 C 228.764 1.60442 -3.22382 0
M  V30 2418 C 228.617 0.666782 -4.4483 0
M  V30 2419 C 229.936 2.56354 -3.5773 0
M  V30 2420 H 227.055 0.305081 -0.670891 0
M  V30 2421 H 229.697 0.107839 -1.89694 0
M  V30 2422 H 227.847 2.23128 -3.18035 0
M  V30 2423 H 229.519 0.0497646 -4.61273 0
M  V30 2424 H 227.762 -0.022609 -4.33794 0
M  V30 2425 H 228.433 1.23579 -5.37989 0
M  V30 2426 H 230.909 2.0378 -3.62785 0
M  V30 2427 H 229.785 3.06657 -4.5525 0
M  V30 2428 H 230.046 3.38419 -2.84473 0
M  V30 2429 N 229.106 1.52395 0.401703 0
M  V30 2430 C 230.522 1.41363 0.740864 0
M  V30 2431 C 230.722 0.523982 1.94568 0
M  V30 2432 O 229.778 -0.00741204 2.52499 0
M  V30 2433 C 231.091 2.84011 0.987847 0
M  V30 2434 C 232.639 2.93404 1.09011 0
M  V30 2435 C 233.114 4.37036 1.3698 0
M  V30 2436 N 234.605 4.40304 1.43829 0
M  V30 2437 C 235.34 5.48508 1.67112 0
M  V30 2438 N 234.836 6.66819 1.87949 0
M  V30 2439 N 236.629 5.36034 1.69187 0
M  V30 2440 H 228.78 2.08765 -0.391262 0
M  V30 2441 H 231.043 0.941265 -0.112798 0
M  V30 2442 H 230.749 3.51265 0.174835 0
M  V30 2443 H 230.623 3.25502 1.906 0
M  V30 2444 H 233.01 2.26325 1.8937 0
M  V30 2445 H 233.091 2.55359 0.15015 0
M  V30 2446 H 232.735 5.04676 0.571353 0
M  V30 2447 H 232.665 4.72623 2.3224 0
M  V30 2448 H 235.156 3.55024 1.29486 0
M  V30 2449 H 235.469 7.45063 2.05185 0
M  V30 2450 H 233.814 6.6987 1.85199 0
M  V30 2451 H 237.005 4.42579 1.52451 0
M  V30 2452 H 237.178 6.20434 1.86993 0
M  V30 2453 N 230.584 -0.659388 1.43143 0
M  V30 2454 C 231.83 -1.42145 1.44647 0
M  V30 2455 C 232.163 -1.9408 0.0681907 0
M  V30 2456 O 231.438 -1.71899 -0.910007 0
M  V30 2457 C 231.721 -2.60735 2.48373 0
M  V30 2458 C 231.574 -2.14332 3.95451 0
M  V30 2459 C 232.893 -3.62951 2.48906 0
M  V30 2460 H 230.012 -0.51552 0.526696 0
M  V30 2461 H 232.654 -0.748069 1.74654 0
M  V30 2462 H 230.804 -3.18184 2.22916 0
M  V30 2463 H 232.476 -1.61932 4.31944 0
M  V30 2464 H 230.719 -1.4576 4.08578 0
M  V30 2465 H 231.39 -2.99583 4.63631 0
M  V30 2466 H 233.866 -3.1525 2.71582 0
M  V30 2467 H 232.742 -4.43487 3.23435 0
M  V30 2468 H 233.003 -4.15126 1.52061 0
M  V30 2469 N 232.062 -1.29571 -0.897171 0
M  V30 2470 C 232.992 -1.17473 -2.01798 0
M  V30 2471 C 233.973 -0.068323 -1.69963 0
M  V30 2472 O 235.158 -0.248239 -1.92607 0
M  V30 2473 C 232.288 -0.853099 -3.36659 0
M  V30 2474 C 231.242 -1.9161 -3.82713 0
M  V30 2475 C 230.568 -1.44773 -5.14728 0
M  V30 2476 C 231.868 -3.32535 -4.02763 0
M  V30 2477 H 233.562 -2.11237 -2.12177 0
M  V30 2478 H 231.108 -1.01699 -1.01948 0
M  V30 2479 H 233.061 -0.755165 -4.14578 0
M  V30 2480 H 231.785 0.120236 -3.26379 0
M  V30 2481 H 230.444 -2.00346 -3.07013 0
M  V30 2482 H 230.092 -0.462995 -5.00865 0
M  V30 2483 H 229.792 -2.15865 -5.46513 0
M  V30 2484 H 231.316 -1.36334 -5.95185 0
M  V30 2485 H 232.73 -3.26626 -4.71156 0
M  V30 2486 H 231.127 -4.01607 -4.45905 0
M  V30 2487 H 232.197 -3.75326 -3.07016 0
M  V30 2488 N 233.54 1.10788 -1.12088 0
M  V30 2489 C 234.45 2.20599 -0.798338 0
M  V30 2490 C 235.466 1.72712 0.21135 0
M  V30 2491 O 236.642 2.01348 0.0458477 0
M  V30 2492 C 233.707 3.45771 -0.253674 0
M  V30 2493 C 232.768 4.08411 -1.32283 0
M  V30 2494 C 232.001 5.27608 -0.80406 0
M  V30 2495 O 232.224 5.69241 0.363478 0
M  V30 2496 O 231.158 5.8101 -1.57198 0
M  V30 2497 H 234.984 2.50614 -1.7154 0
M  V30 2498 H 232.569 1.19454 -0.897275 0
M  V30 2499 H 234.451 4.21376 0.0453691 0
M  V30 2500 H 233.126 3.1739 0.636005 0
M  V30 2501 H 232.033 3.34507 -1.67499 0
M  V30 2502 H 233.366 4.40986 -2.18614 0
M  V30 2503 N 235.018 0.912232 1.28515 0
M  V30 2504 C 236.295 0.463597 1.90027 0
M  V30 2505 C 236.675 -1.05753 1.82701 0
M  V30 2506 O 236.023 -1.90492 1.26194 0
M  V30 2507 C 236.233 0.992253 3.34597 0
M  V30 2508 C 237.581 1.04344 4.11579 0
M  V30 2509 O 238.605 0.94079 3.43551 0
M  V30 2510 O 237.464 1.1995 5.33174 0
M  V30 2511 H 234.558 0.146666 0.813891 0
M  V30 2512 H 237.104 1.00292 1.36893 0
M  V30 2513 H 235.876 2.03623 3.34146 0
M  V30 2514 H 235.499 0.433672 3.95228 0
M  V30 2515 N 236.496 -1.42363 0.676048 0
M  V30 2516 C 237.744 -2.01123 0.198437 0
M  V30 2517 C 238.065 -1.53731 -1.19966 0
M  V30 2518 O 237.335 -0.759518 -1.80577 0
M  V30 2519 H 235.915 -0.743678 0.0703721 0
M  V30 2520 H 238.577 -1.74263 0.872837 0
M  V30 2521 H 237.673 -3.11454 0.200686 0
M  V30 2522 N 237.974 -0.419461 -1.51915 0
M  V30 2523 C 239.223 0.154346 -2.01109 0
M  V30 2524 C 239.536 1.45338 -1.30905 0
M  V30 2525 O 240.742 2.10906 -1.7097 0
M  V30 2526 C 239.198 0.325615 -3.58424 0
M  V30 2527 C 238.806 -0.961934 -4.37551 0
M  V30 2528 C 240.55 0.854155 -4.15818 0
M  V30 2529 C 238.457 -0.757287 -5.86531 0
M  V30 2530 H 237.387 0.0614563 -0.751491 0
M  V30 2531 H 240.038 -0.54649 -1.75173 0
M  V30 2532 H 238.42 1.08903 -3.80731 0
M  V30 2533 H 239.594 -1.7323 -4.26999 0
M  V30 2534 H 237.909 -1.41766 -3.91524 0
M  V30 2535 H 240.506 1.02346 -5.24814 0
M  V30 2536 H 240.849 1.83172 -3.73837 0
M  V30 2537 H 241.382 0.149528 -3.97519 0
M  V30 2538 H 238.121 -1.70671 -6.32892 0
M  V30 2539 H 237.641 -0.0264061 -5.99794 0
M  V30 2540 H 239.32 -0.403482 -6.45741 0
M  V30 2541 N 239.452 1.56882 -0.150215 0
M  V30 2542 C 240.4 2.18214 0.805313 0
M  V30 2543 C 241.394 1.14006 1.25296 0
M  V30 2544 O 242.6 1.3225 1.22107 0
M  V30 2545 H 238.975 0.698762 0.277913 0
M  V30 2546 H 240.946 2.97231 0.263862 0
M  V30 2547 C 239.695 2.82065 2.03309 0
M  V30 2548 H 239.018 3.61968 1.69763 0
M  V30 2549 H 240.458 3.28477 2.68103 0
M  V30 2550 C 238.917 1.80739 2.84315 0
M  V30 2551 O 239.447 1.27983 3.80767 0
M  V30 2552 N 237.653 1.4997 2.48913 0
M  V30 2553 H 237.2 1.93062 1.70542 0
M  V30 2554 H 237.158 0.824217 3.03404 0
M  V30 2555 N 240.93 -0.123565 1.57115 0
M  V30 2556 C 242.16 -0.845233 1.88519 0
M  V30 2557 C 242.568 -1.74168 0.739064 0
M  V30 2558 O 241.911 -1.81244 -0.299355 0
M  V30 2559 C 241.973 -1.73452 3.14888 0
M  V30 2560 C 241.637 -1.01285 4.45635 0
M  V30 2561 C 242.634 -0.355774 5.18681 0
M  V30 2562 C 240.319 -0.99538 4.92339 0
M  V30 2563 C 242.313 0.309114 6.3665 0
M  V30 2564 C 240 -0.32669 6.10226 0
M  V30 2565 C 240.998 0.324406 6.82229 0
M  V30 2566 O 240.686 0.982437 7.97874 0
M  V30 2567 H 240.418 -0.248534 0.628655 0
M  V30 2568 H 242.972 -0.113907 2.05084 0
M  V30 2569 H 241.202 -2.50737 2.94394 0
M  V30 2570 H 242.891 -2.33021 3.32349 0
M  V30 2571 H 243.657 -0.360918 4.83655 0
M  V30 2572 H 239.536 -1.49159 4.36202 0
M  V30 2573 H 243.08 0.8179 6.92789 0
M  V30 2574 H 238.977 -0.319294 6.4471 0
M  V30 2575 H 239.745 0.886454 8.13686 0
M  V30 2576 N 242.408 -1.52605 -0.393616 0
M  V30 2577 C 243.371 -1.76415 -1.46323 0
M  V30 2578 C 244.371 -0.634126 -1.47768 0
M  V30 2579 O 245.561 -0.902142 -1.4902 0
M  V30 2580 C 242.693 -1.8607 -2.85641 0
M  V30 2581 H 243.886 -2.71916 -1.26498 0
M  V30 2582 H 241.439 -1.43257 -0.625073 0
M  V30 2583 H 242.174 -0.925378 -3.10817 0
M  V30 2584 H 241.959 -2.68235 -2.85993 0
M  V30 2585 H 243.449 -2.06179 -3.63153 0
M  V30 2586 N 243.887 0.651787 -1.4349 0
M  V30 2587 C 245.115 1.43937 -1.48626 0
M  V30 2588 C 245.53 1.8851 -0.104587 0
M  V30 2589 O 244.887 1.5958 0.885464 0
M  V30 2590 C 244.938 2.6734 -2.43334 0
M  V30 2591 O 244.659 2.24631 -3.76128 0
M  V30 2592 C 246.16 3.60683 -2.57726 0
M  V30 2593 H 243.38 0.44213 -0.504739 0
M  V30 2594 H 245.924 0.798944 -1.88248 0
M  V30 2595 H 244.079 3.2752 -2.06904 0
M  V30 2596 H 244.493 3.04485 -4.2707 0
M  V30 2597 H 245.967 4.43933 -3.28067 0
M  V30 2598 H 246.444 4.08126 -1.62265 0
M  V30 2599 H 247.05 3.06384 -2.94973 0
M  V30 2600 N 245.365 1.30045 0.890287 0
M  V30 2601 C 246.613 1.18327 1.63839 0
M  V30 2602 C 246.934 -0.263455 1.93212 0
M  V30 2603 O 246.204 -1.17856 1.56482 0
M  V30 2604 H 244.784 0.434933 0.607324 0
M  V30 2605 H 247.446 1.631 1.06698 0
M  V30 2606 H 246.542 1.74024 2.59079 0
M  V30 2607 N 246.843 -1.10192 1.12674 0
M  V30 2608 C 247.791 -2.18694 0.792196 0
M  V30 2609 C 248.785 -1.67938 -0.222058 0
M  V30 2610 O 249.991 -1.79822 -0.0800074 0
M  V30 2611 H 246.366 -0.713223 0.238364 0
M  V30 2612 H 248.337 -2.44149 1.71564 0
M  V30 2613 C 247.086 -3.46682 0.265859 0
M  V30 2614 H 246.409 -3.86101 1.03761 0
M  V30 2615 H 247.849 -4.23942 0.0701128 0
M  V30 2616 C 246.308 -3.21506 -1.00675 0
M  V30 2617 O 246.838 -3.43408 -2.08408 0
M  V30 2618 N 245.044 -2.75158 -0.934692 0
M  V30 2619 H 244.591 -2.57535 -0.0578604 0
M  V30 2620 H 244.549 -2.58691 -1.7868 0
M  V30 2621 N 248.321 -0.919034 -1.28029 0
M  V30 2622 C 249.251 -0.428581 -2.29533 0
M  V30 2623 C 250.232 0.50659 -1.62381 0
M  V30 2624 O 251.417 0.413195 -1.89753 0
M  V30 2625 C 248.547 0.327388 -3.45753 0
M  V30 2626 C 247.501 -0.519137 -4.2484 0
M  V30 2627 C 246.827 0.365486 -5.33449 0
M  V30 2628 C 248.127 -1.77914 -4.91064 0
M  V30 2629 H 249.821 -1.27687 -2.70807 0
M  V30 2630 H 247.367 -0.615428 -1.30186 0
M  V30 2631 H 249.32 0.681378 -4.15855 0
M  V30 2632 H 248.044 1.20963 -3.03374 0
M  V30 2633 H 246.703 -0.855717 -3.56473 0
M  V30 2634 H 246.351 1.24642 -4.87312 0
M  V30 2635 H 246.051 -0.197356 -5.87268 0
M  V30 2636 H 247.575 0.715241 -6.06396 0
M  V30 2637 H 248.989 -1.49374 -5.53498 0
M  V30 2638 H 247.386 -2.2848 -5.54903 0
M  V30 2639 H 248.456 -2.50382 -4.15255 0
M  V30 2640 N 249.799 1.42003 -0.683588 0
M  V30 2641 C 251.21 1.84501 -0.285736 0
M  V30 2642 C 251.561 1.57213 1.17382 0
M  V30 2643 O 250.686 1.03642 1.89966 0
M  V30 2644 C 251.281 3.34912 -0.511821 0
M  V30 2645 C 249.84 3.76025 -0.168005 0
M  V30 2646 C 248.987 2.6551 -0.799983 0
M  V30 2647 H 251.938 1.31724 -0.885119 0
M  V30 2648 H 251.959 3.79784 0.233292 0
M  V30 2649 H 251.471 3.54741 -1.57418 0
M  V30 2650 H 249.572 3.61801 0.890567 0
M  V30 2651 H 249.685 4.75141 -0.614661 0
M  V30 2652 H 248.049 2.53654 -0.230568 0
M  V30 2653 H 248.832 2.8816 -1.86597 0
M  V30 2654 N 251.277 0.427512 1.51691 0
M  V30 2655 C 252.525 -0.141948 2.01601 0
M  V30 2656 C 252.846 -1.44067 1.31414 0
M  V30 2657 O 252.116 -1.90763 0.445658 0
M  V30 2658 H 250.696 -0.0554468 0.744939 0
M  V30 2659 H 253.358 0.567968 1.86441 0
M  V30 2660 H 252.454 -0.324913 3.10404 0
M  V30 2661 N 252.755 -1.56801 0.158532 0
M  V30 2662 C 253.995 -1.98383 -0.49229 0
M  V30 2663 C 254.359 -1.04184 -1.61275 0
M  V30 2664 O 255.56 -1.34856 -2.32524 0
M  V30 2665 C 253.831 -3.4385 -0.974766 0
M  V30 2666 S 255.39 -4.07459 -1.62857 0
M  V30 2667 H 252.208 -0.693041 -0.158794 0
M  V30 2668 H 254.81 -1.93856 0.252974 0
M  V30 2669 H 253.514 -4.10131 -0.148688 0
M  V30 2670 H 253.045 -3.52115 -1.75438 0
M  V30 2671 H 255.06 -4.01458 -2.91627 0
M  V30 2672 N 254.233 0.115231 -1.57178 0
M  V30 2673 C 255.458 0.840354 -1.89612 0
M  V30 2674 C 255.883 1.72464 -0.750845 0
M  V30 2675 O 255.241 1.78826 0.298478 0
M  V30 2676 C 255.289 1.64654 -3.20814 0
M  V30 2677 O 254.393 2.7538 -3.06985 0
M  V30 2678 H 253.734 0.232158 -0.622092 0
M  V30 2679 H 256.264 0.0964977 -2.04372 0
M  V30 2680 H 256.274 2.03499 -3.53627 0
M  V30 2681 H 254.949 0.997416 -4.03763 0
M  V30 2682 H 253.526 2.3971 -2.85646 0
M  V30 2683 N 255.711 1.52812 0.385517 0
M  V30 2684 C 256.958 1.68026 1.1302 0
M  V30 2685 C 257.286 0.421934 1.89868 0
M  V30 2686 O 256.541 -0.595749 1.86412 0
M  V30 2687 C 256.84 2.86856 2.13187 0
M  V30 2688 C 256.506 4.24159 1.5297 0
M  V30 2689 C 255.168 4.61501 1.36274 0
M  V30 2690 C 257.52 5.09627 1.09223 0
M  V30 2691 C 254.848 5.81966 0.743837 0
M  V30 2692 C 257.2 6.30719 0.487411 0
M  V30 2693 C 255.864 6.6679 0.307777 0
M  V30 2694 H 255.134 0.614849 0.413571 0
M  V30 2695 H 257.781 1.86962 0.414405 0
M  V30 2696 H 256.086 2.6235 2.90998 0
M  V30 2697 H 257.783 2.95821 2.70722 0
M  V30 2698 H 254.373 3.94746 1.66954 0
M  V30 2699 H 258.557 4.81343 1.20922 0
M  V30 2700 H 253.813 6.08519 0.592891 0
M  V30 2701 H 257.987 6.96259 0.140143 0
M  V30 2702 H 255.614 7.60001 -0.173879 0
M  V30 2703 N 257.189 -0.644168 1.43834 0
M  V30 2704 C 258.414 -1.43642 1.49605 0
M  V30 2705 C 258.839 -1.8773 0.117913 0
M  V30 2706 O 258.197 -1.57938 -0.890239 0
M  V30 2707 C 258.245 -2.6416 2.45463 0
M  V30 2708 O 257.349 -3.63538 1.94714 0
M  V30 2709 H 256.69 -0.430329 0.50568 0
M  V30 2710 H 259.22 -0.787448 1.8884 0
M  V30 2711 H 259.23 -3.11864 2.63068 0
M  V30 2712 H 257.905 -2.31414 3.45572 0
M  V30 2713 H 256.482 -3.2273 1.86814 0
M  V30 2714 N 258.668 -1.30515 -0.883378 0
M  V30 2715 C 259.917 -1.18795 -1.63005 0
M  V30 2716 C 260.23 0.255923 -1.93919 0
M  V30 2717 O 261.436 0.494654 -2.66956 0
M  V30 2718 C 259.892 -2.07878 -2.93794 0
M  V30 2719 C 259.5 -3.57184 -2.70414 0
M  V30 2720 C 261.244 -2.04924 -3.71761 0
M  V30 2721 C 259.151 -4.38317 -3.97029 0
M  V30 2722 H 258.081 -0.441031 -0.611562 0
M  V30 2723 H 260.732 -1.55275 -0.977854 0
M  V30 2724 H 259.114 -1.64283 -3.60315 0
M  V30 2725 H 260.288 -4.08937 -2.12384 0
M  V30 2726 H 258.603 -3.61976 -2.0582 0
M  V30 2727 H 261.2 -2.62792 -4.65665 0
M  V30 2728 H 261.543 -1.0331 -4.03277 0
M  V30 2729 H 262.076 -2.46649 -3.12104 0
M  V30 2730 H 258.815 -5.40632 -3.70671 0
M  V30 2731 H 258.335 -3.91326 -4.54559 0
M  V30 2732 H 260.014 -4.49834 -4.65036 0
M  V30 2733 N 260.146 1.09593 -1.13257 0
M  V30 2734 C 261.393 1.81734 -0.893257 0
M  V30 2735 C 261.721 1.8563 0.580656 0
M  V30 2736 O 260.976 1.31906 1.44566 0
M  V30 2737 C 261.275 3.27802 -1.42411 0
M  V30 2738 C 260.941 3.44041 -2.91456 0
M  V30 2739 C 259.603 3.48181 -3.3215 0
M  V30 2740 C 261.955 3.48719 -3.87356 0
M  V30 2741 C 259.283 3.54575 -4.67433 0
M  V30 2742 C 261.635 3.56648 -5.2248 0
M  V30 2743 C 260.299 3.59055 -5.62704 0
M  V30 2744 H 259.569 0.665011 -0.326866 0
M  V30 2745 H 262.216 1.2912 -1.41422 0
M  V30 2746 H 260.521 3.83042 -0.823795 0
M  V30 2747 H 262.218 3.82149 -1.21503 0
M  V30 2748 H 258.808 3.41502 -2.58987 0
M  V30 2749 H 262.992 3.44763 -3.57004 0
M  V30 2750 H 258.248 3.54725 -4.97976 0
M  V30 2751 H 262.422 3.59212 -5.96607 0
M  V30 2752 H 260.049 3.63763 -6.67518 0
M  V30 2753 N 261.624 0.925811 1.2754 0
M  V30 2754 C 262.554 0.440748 2.29303 0
M  V30 2755 C 263.535 -0.497971 1.62648 0
M  V30 2756 O 264.72 -0.403126 1.8997 0
M  V30 2757 C 261.85 -0.309048 3.45922 0
M  V30 2758 C 260.804 0.54166 4.24559 0
M  V30 2759 C 260.13 -0.337191 5.33636 0
M  V30 2760 C 261.43 1.80516 4.90114 0
M  V30 2761 H 263.124 1.29121 2.70126 0
M  V30 2762 H 260.67 0.622323 1.29858 0
M  V30 2763 H 262.623 -0.659315 4.1621 0
M  V30 2764 H 261.347 -1.19352 3.04011 0
M  V30 2765 H 260.006 0.874609 3.56014 0
M  V30 2766 H 259.654 -1.22056 4.87966 0
M  V30 2767 H 259.354 0.228497 5.87156 0
M  V30 2768 H 260.878 -0.683072 6.06767 0
M  V30 2769 H 262.292 1.52307 5.52698 0
M  V30 2770 H 260.689 2.3142 5.53683 0
M  V30 2771 H 261.759 2.52581 4.13921 0
M  V30 2772 N 263.102 -1.41638 0.69111 0
M  V30 2773 C 264.032 -2.3347 0.037248 0
M  V30 2774 C 265.013 -1.51575 -0.771947 0
M  V30 2775 O 266.198 -1.80126 -0.72582 0
M  V30 2776 C 263.328 -3.35354 -0.903064 0
M  V30 2777 C 262.282 -4.27526 -0.201288 0
M  V30 2778 C 261.608 -5.19747 -1.25565 0
M  V30 2779 C 262.908 -5.13959 0.929689 0
M  V30 2780 H 264.602 -2.88397 0.804227 0
M  V30 2781 H 262.148 -1.38669 0.388189 0
M  V30 2782 H 264.101 -3.98519 -1.36969 0
M  V30 2783 H 262.825 -2.78767 -1.70166 0
M  V30 2784 H 261.484 -3.65779 0.245265 0
M  V30 2785 H 261.132 -4.59479 -2.04666 0
M  V30 2786 H 260.832 -5.8225 -0.791128 0
M  V30 2787 H 262.356 -5.85789 -1.72288 0
M  V30 2788 H 263.77 -5.70718 0.543546 0
M  V30 2789 H 262.167 -5.85379 1.32103 0
M  V30 2790 H 263.237 -4.51389 1.77133 0
M  V30 2791 N 264.58 -0.43555 -1.51462 0
M  V30 2792 C 265.543 0.365137 -2.26273 0
M  V30 2793 C 266.543 0.951227 -1.29647 0
M  V30 2794 O 267.733 0.825958 -1.53374 0
M  V30 2795 C 264.865 1.51645 -3.05314 0
M  V30 2796 H 266.058 -0.290474 -2.9849 0
M  V30 2797 H 263.611 -0.188676 -1.55157 0
M  V30 2798 H 264.346 2.20816 -2.3751 0
M  V30 2799 H 264.131 1.10238 -3.76284 0
M  V30 2800 H 265.621 2.08218 -3.61987 0
M  V30 2801 N 266.058 1.56714 -0.166846 0
M  V30 2802 C 266.988 2.20754 0.760913 0
M  V30 2803 C 267.969 1.16178 1.24244 0
M  V30 2804 O 269.154 1.44592 1.29641 0
M  V30 2805 C 266.284 2.84478 1.99223 0
M  V30 2806 C 265.238 3.95053 1.64672 0
M  V30 2807 C 264.564 4.45805 2.95232 0
M  V30 2808 C 265.864 5.14865 0.878155 0
M  V30 2809 H 267.558 2.98537 0.22713 0
M  V30 2810 H 265.104 1.43596 0.107805 0
M  V30 2811 H 267.057 3.27951 2.64624 0
M  V30 2812 H 265.781 2.04056 2.55007 0
M  V30 2813 H 264.44 3.52228 1.01641 0
M  V30 2814 H 264.088 3.62181 3.49047 0
M  V30 2815 H 263.788 5.204 2.7287 0
M  V30 2816 H 265.312 4.91962 3.6167 0
M  V30 2817 H 266.726 5.55059 1.43466 0
M  V30 2818 H 265.123 5.95348 0.753738 0
M  V30 2819 H 266.193 4.84735 -0.126377 0
M  V30 2820 N 267.536 -0.106894 1.57237 0
M  V30 2821 C 268.466 -1.13148 2.04254 0
M  V30 2822 C 269.447 -1.42476 0.929224 0
M  V30 2823 O 270.632 -1.52709 1.19973 0
M  V30 2824 C 267.762 -2.4545 2.45706 0
M  V30 2825 C 266.716 -2.30558 3.60592 0
M  V30 2826 C 266.042 -3.67931 3.87983 0
M  V30 2827 C 267.342 -1.75597 4.91897 0
M  V30 2828 H 269.036 -0.740374 2.90101 0
M  V30 2829 H 266.582 -0.354696 1.39563 0
M  V30 2830 H 268.535 -3.17389 2.77205 0
M  V30 2831 H 267.259 -2.86475 1.56843 0
M  V30 2832 H 265.918 -1.61067 3.29322 0
M  V30 2833 H 265.566 -4.06462 2.96306 0
M  V30 2834 H 265.266 -3.58817 4.65322 0
M  V30 2835 H 266.79 -4.41356 4.21945 0
M  V30 2836 H 268.204 -2.37364 5.21854 0
M  V30 2837 H 266.601 -1.77272 5.73319 0
M  V30 2838 H 267.671 -0.714451 4.79608 0
M  V30 2839 N 269.014 -1.53014 -0.377408 0
M  V30 2840 C 270.239 -1.72818 -1.14668 0
M  V30 2841 C 270.664 -0.450725 -1.8262 0
M  V30 2842 O 270.022 0.59439 -1.7128 0
M  V30 2843 C 270.07 -2.88627 -2.16164 0
M  V30 2844 O 269.174 -2.56409 -3.22998 0
M  V30 2845 H 268.515 -0.574301 -0.333278 0
M  V30 2846 H 271.045 -1.99853 -0.438152 0
M  V30 2847 H 271.055 -3.14455 -2.59966 0
M  V30 2848 H 269.73 -3.81294 -1.66095 0
M  V30 2849 H 268.307 -2.4136 -2.84253 0
M  V30 2850 N 270.492 0.636531 -1.44174 0
M  V30 2851 C 271.732 1.40781 -1.48189 0
M  V30 2852 C 272.096 1.91688 -0.10944 0
M  V30 2853 O 273.297 2.68789 -0.0242741 0
M  V30 2854 C 271.568 2.54575 -2.50851 0
M  V30 2855 S 273.127 3.4284 -2.73873 0
M  V30 2856 H 269.945 0.480345 -0.524204 0
M  V30 2857 H 272.547 0.737416 -1.81059 0
M  V30 2858 H 271.251 2.15478 -3.49281 0
M  V30 2859 H 270.782 3.26447 -2.19536 0
M  V30 2860 H 272.797 4.51846 -2.05059 0
M  V30 2861 N 271.97 1.30982 0.876444 0
M  V30 2862 C 273.216 1.20474 1.63138 0
M  V30 2863 C 273.549 -0.238096 1.92735 0
M  V30 2864 O 272.824 -1.1692 1.55435 0
M  V30 2865 C 273.107 2.04244 2.96574 0
M  V30 2866 C 272.96 3.56793 2.73896 0
M  V30 2867 C 274.279 1.88684 3.97601 0
M  V30 2868 H 271.398 0.439001 0.591985 0
M  V30 2869 H 274.04 1.60704 1.01361 0
M  V30 2870 H 272.19 1.70063 3.493 0
M  V30 2871 H 273.862 4.01077 2.27892 0
M  V30 2872 H 272.105 3.80548 2.08245 0
M  V30 2873 H 272.776 4.10706 3.68815 0
M  V30 2874 H 275.252 2.18584 3.54062 0
M  V30 2875 H 274.128 2.4961 4.88862 0
M  V30 2876 H 274.389 0.848343 4.33884 0
M  V30 2877 N 273.449 -1.08991 1.13837 0
M  V30 2878 C 274.677 -1.85011 0.926202 0
M  V30 2879 C 275.092 -1.8135 -0.525127 0
M  V30 2880 O 274.449 -1.21287 -1.36366 0
M  V30 2881 C 274.5 -3.32802 1.41155 0
M  V30 2882 O 274.221 -3.36444 2.80601 0
M  V30 2883 C 275.722 -4.25649 1.23847 0
M  V30 2884 H 272.942 -0.584249 0.32999 0
M  V30 2885 H 275.486 -1.37688 1.51202 0
M  V30 2886 H 273.641 -3.77536 0.868631 0
M  V30 2887 H 274.055 -4.28657 3.02248 0
M  V30 2888 H 275.529 -5.27485 1.62675 0
M  V30 2889 H 276.006 -4.38828 0.18065 0
M  V30 2890 H 276.612 -3.86735 1.76964 0
M  V30 2891 N 274.927 -0.932562 -1.27047 0
M  V30 2892 C 276.173 -0.576412 -1.94436 0
M  V30 2893 C 276.506 0.880891 -1.73072 0
M  V30 2894 O 275.781 1.62905 -1.06264 0
M  V30 2895 C 276.064 -0.909031 -3.48437 0
M  V30 2896 C 275.917 -2.42044 -3.79123 0
M  V30 2897 C 277.236 -0.418341 -4.38107 0
M  V30 2898 H 274.355 -0.210888 -0.706184 0
M  V30 2899 H 276.997 -1.16522 -1.50075 0
M  V30 2900 H 275.147 -0.407947 -3.86352 0
M  V30 2901 H 276.819 -2.99359 -3.50973 0
M  V30 2902 H 275.062 -2.86758 -3.25503 0
M  V30 2903 H 275.733 -2.6037 -4.86736 0
M  V30 2904 H 278.209 -0.847856 -4.0737 0
M  V30 2905 H 277.085 -0.679981 -5.44672 0
M  V30 2906 H 277.346 0.681642 -4.36814 0
M  V30 2907 N 276.405 1.4127 -0.698611 0
M  V30 2908 C 277.816 1.84187 -0.305289 0
M  V30 2909 C 278.167 1.58449 1.15708 0
M  V30 2910 O 277.292 1.05651 1.88856 0
M  V30 2911 C 277.887 3.3435 -0.547314 0
M  V30 2912 C 276.446 3.75826 -0.207878 0
M  V30 2913 C 275.593 2.64647 -0.828099 0
M  V30 2914 H 278.544 1.30778 -0.89904 0
M  V30 2915 H 278.565 3.8001 0.192998 0
M  V30 2916 H 278.077 3.53051 -1.61172 0
M  V30 2917 H 276.178 3.62725 0.852143 0
M  V30 2918 H 276.291 4.74462 -0.665021 0
M  V30 2919 H 274.655 2.53395 -0.257458 0
M  V30 2920 H 275.438 2.86165 -1.89643 0
M  V30 2921 N 277.883 0.443576 1.51229 0
M  V30 2922 C 279.129 -0.120975 2.02439 0
M  V30 2923 C 279.462 -1.41815 1.32674 0
M  V30 2924 O 278.737 -1.89373 0.443622 0
M  V30 2925 C 279.02 -0.333291 3.58554 0
M  V30 2926 C 278.873 0.982968 4.38928 0
M  V30 2927 C 280.192 -1.10028 4.26124 0
M  V30 2928 H 277.311 -0.0424923 0.735774 0
M  V30 2929 H 279.953 0.583794 1.80809 0
M  V30 2930 H 278.103 -0.933614 3.77115 0
M  V30 2931 H 279.775 1.61775 4.32003 0
M  V30 2932 H 278.018 1.58611 4.03763 0
M  V30 2933 H 278.689 0.788379 5.46341 0
M  V30 2934 H 281.165 -0.591711 4.11871 0
M  V30 2935 H 280.041 -1.21761 5.35225 0
M  V30 2936 H 280.302 -2.12996 3.87408 0
M  V30 2937 N 279.361 -1.56624 0.175154 0
M  V30 2938 C 280.586 -2.01813 -0.478137 0
M  V30 2939 C 281.011 -1.05457 -1.55757 0
M  V30 2940 O 280.369 -0.0347439 -1.81267 0
M  V30 2941 C 280.417 -3.45581 -1.02987 0
M  V30 2942 O 279.521 -3.52305 -2.14371 0
M  V30 2943 H 278.862 -0.65413 -0.114059 0
M  V30 2944 H 281.392 -2.02673 0.280173 0
M  V30 2945 H 281.402 -3.84965 -1.35151 0
M  V30 2946 H 280.077 -4.1521 -0.239556 0
M  V30 2947 H 278.654 -3.24783 -1.83222 0
M  V30 2948 N 280.839 0.0985539 -1.57292 0
M  V30 2949 C 281.802 1.10402 -2.00858 0
M  V30 2950 C 282.802 1.33146 -0.901593 0
M  V30 2951 O 283.992 1.29318 -1.16716 0
M  V30 2952 C 281.124 2.45394 -2.36632 0
M  V30 2953 H 282.317 0.729099 -2.90902 0
M  V30 2954 H 279.87 0.343495 -1.52479 0
M  V30 2955 H 280.605 2.87769 -1.49531 0
M  V30 2956 H 280.39 2.30235 -3.17387 0
M  V30 2957 H 281.88 3.17718 -2.71007 0
M  V30 2958 N 282.317 1.53212 0.369288 0
M  V30 2959 C 283.563 1.69466 1.11397 0
M  V30 2960 C 283.896 0.443257 1.89074 0
M  V30 2961 O 283.171 -0.559386 1.86282 0
M  V30 2962 C 283.454 2.9422 2.07621 0
M  V30 2963 C 283.307 4.29508 1.33577 0
M  V30 2964 C 284.626 3.14565 3.07794 0
M  V30 2965 H 281.745 0.616667 0.403597 0
M  V30 2966 H 284.387 1.85845 0.395179 0
M  V30 2967 H 282.537 2.80387 2.68916 0
M  V30 2968 H 284.209 4.55147 0.750955 0
M  V30 2969 H 282.452 4.29088 0.637618 0
M  V30 2970 H 283.123 5.12926 2.03989 0
M  V30 2971 H 285.599 3.2756 2.56601 0
M  V30 2972 H 284.475 4.03297 3.72348 0
M  V30 2973 H 284.736 2.29675 3.77759 0
M  V30 2974 N 283.795 -0.628877 1.44509 0
M  V30 2975 C 284.705 -1.7694 1.54044 0
M  V30 2976 C 285.721 -1.68705 0.425987 0
M  V30 2977 O 286.897 -1.89442 0.683656 0
M  V30 2978 C 283.962 -3.13332 1.48405 0
M  V30 2979 C 283.023 -3.33181 2.70719 0
M  V30 2980 C 282.256 -4.63067 2.6534 0
M  V30 2981 O 282.479 -5.44017 1.71469 0
M  V30 2982 O 281.413 -4.85167 3.56226 0
M  V30 2983 H 285.239 -1.71848 2.50403 0
M  V30 2984 H 282.824 -0.790378 1.26781 0
M  V30 2985 H 284.706 -3.94634 1.47791 0
M  V30 2986 H 283.381 -3.1896 0.551898 0
M  V30 2987 H 282.288 -2.51549 2.769 0
M  V30 2988 H 283.621 -3.32416 3.62988 0
M  V30 2989 N 285.273 -1.31445 -0.869486 0
M  V30 2990 C 286.519 -1.21337 -1.62496 0
M  V30 2991 C 286.852 0.227872 -1.92858 0
M  V30 2992 O 286.127 1.16094 -1.56053 0
M  V30 2993 C 286.41 -2.05814 -2.95487 0
M  V30 2994 C 286.263 -3.5824 -2.72 0
M  V30 2995 C 287.582 -1.9079 -3.96594 0
M  V30 2996 H 284.701 -0.442135 -0.589649 0
M  V30 2997 H 287.343 -1.6124 -1.00507 0
M  V30 2998 H 285.493 -1.71913 -3.48394 0
M  V30 2999 H 287.165 -4.0228 -2.25762 0
M  V30 3000 H 285.408 -3.81647 -2.06224 0
M  V30 3001 H 286.079 -4.12657 -3.66631 0
M  V30 3002 H 288.555 -2.20459 -3.52898 0
M  V30 3003 H 287.431 -2.52199 -4.87531 0
M  V30 3004 H 287.692 -0.871341 -4.33428 0
M  V30 3005 N 286.751 1.08385 -1.14413 0
M  V30 3006 C 288.167 1.32844 -0.884563 0
M  V30 3007 C 288.367 1.95841 0.474181 0
M  V30 3008 O 287.423 2.21158 1.21842 0
M  V30 3009 C 288.736 2.22978 -2.01745 0
M  V30 3010 C 290.284 2.36458 -2.05077 0
M  V30 3011 C 290.759 3.29934 -3.1766 0
M  V30 3012 N 292.25 3.37511 -3.17239 0
M  V30 3013 C 292.985 4.09871 -4.0099 0
M  V30 3014 N 292.481 4.84936 -4.94781 0
M  V30 3015 N 294.274 4.05704 -3.89051 0
M  V30 3016 H 286.425 0.658756 -2.01926 0
M  V30 3017 H 288.688 0.352821 -0.879899 0
M  V30 3018 H 288.394 1.83934 -2.99769 0
M  V30 3019 H 288.268 3.23441 -1.94077 0
M  V30 3020 H 290.655 2.7476 -1.0766 0
M  V30 3021 H 290.736 1.35736 -2.16816 0
M  V30 3022 H 290.38 2.92352 -4.15322 0
M  V30 3023 H 290.31 4.30584 -3.03158 0
M  V30 3024 H 292.801 2.83996 -2.49308 0
M  V30 3025 H 293.114 5.37612 -5.55151 0
M  V30 3026 H 291.459 4.83988 -4.98779 0
M  V30 3027 H 294.65 3.46167 -3.15097 0
M  V30 3028 H 294.823 4.61834 -4.54547 0
M  V30 3029 N 288.23 0.939286 1.26551 0
M  V30 3030 C 289.178 0.43815 2.28436 0
M  V30 3031 C 290.172 -0.483587 1.62351 0
M  V30 3032 O 291.378 -0.362009 1.76322 0
M  V30 3033 H 287.753 0.123149 0.741848 0
M  V30 3034 H 289.724 1.31002 2.68106 0
M  V30 3035 C 288.473 -0.283052 3.46546 0
M  V30 3036 H 287.796 0.417043 3.97619 0
M  V30 3037 H 289.236 -0.597948 4.19763 0
M  V30 3038 C 287.695 -1.50018 3.01656 0
M  V30 3039 O 288.225 -2.59855 3.0633 0
M  V30 3040 N 286.431 -1.35608 2.57019 0
M  V30 3041 H 285.978 -0.46244 2.53415 0
M  V30 3042 H 285.936 -2.17165 2.27347 0
M  V30 3043 N 289.708 -1.40897 0.706093 0
M  V30 3044 C 290.957 -2.00284 0.238574 0
M  V30 3045 C 291.27 -1.56604 -1.17194 0
M  V30 3046 O 292.476 -2.08624 -1.73748 0
M  V30 3047 C 290.932 -3.57934 0.375623 0
M  V30 3048 C 290.54 -4.10591 1.79217 0
M  V30 3049 C 292.284 -4.24488 -0.0315857 0
M  V30 3050 C 290.191 -5.60712 1.88032 0
M  V30 3051 H 289.121 -0.749144 0.0854398 0
M  V30 3052 H 291.772 -1.61251 0.875813 0
M  V30 3053 H 290.154 -3.94622 -0.330042 0
M  V30 3054 H 291.328 -3.85301 2.52745 0
M  V30 3055 H 289.643 -3.56601 2.15 0
M  V30 3056 H 292.24 -5.34698 0.0136842 0
M  V30 3057 H 292.583 -4.02261 -1.072 0
M  V30 3058 H 293.116 -3.92873 0.624181 0
M  V30 3059 H 289.855 -5.87781 2.90161 0
M  V30 3060 H 289.375 -5.87896 1.18903 0
M  V30 3061 H 291.054 -6.25658 1.64805 0
M  V30 3062 N 291.186 -0.45159 -1.50991 0
M  V30 3063 C 292.411 0.110667 -2.07105 0
M  V30 3064 C 292.836 1.3446 -1.31538 0
M  V30 3065 O 292.194 1.77743 -0.357365 0
M  V30 3066 C 292.242 0.397238 -3.58405 0
M  V30 3067 O 291.346 1.48124 -3.84881 0
M  V30 3068 H 290.687 -0.00439271 -0.663985 0
M  V30 3069 H 293.217 -0.637026 -1.9443 0
M  V30 3070 H 293.227 0.64351 -4.02893 0
M  V30 3071 H 291.902 -0.504553 -4.12828 0
M  V30 3072 H 290.479 1.22381 -3.52246 0
M  V30 3073 N 292.664 1.56529 -0.183458 0
M  V30 3074 C 293.889 2.02064 0.467428 0
M  V30 3075 C 294.314 1.06282 1.55196 0
M  V30 3076 O 293.672 0.0443565 1.81246 0
M  V30 3077 C 293.72 3.46122 1.01153 0
M  V30 3078 O 292.824 3.53437 2.12499 0
M  V30 3079 H 292.165 0.654726 0.110588 0
M  V30 3080 H 294.695 2.02521 -0.290917 0
M  V30 3081 H 294.705 3.85676 1.33108 0
M  V30 3082 H 293.38 4.15331 0.217533 0
M  V30 3083 H 291.957 3.2575 1.81497 0
M  V30 3084 N 294.142 -0.090211 1.57342 0
M  V30 3085 C 295.367 -0.810082 1.90925 0
M  V30 3086 C 295.792 -1.71248 0.778187 0
M  V30 3087 O 295.15 -1.79278 -0.269991 0
M  V30 3088 C 295.198 -1.59529 3.23393 0
M  V30 3089 O 294.302 -2.70461 3.11327 0
M  V30 3090 H 293.643 -0.222231 0.625707 0
M  V30 3091 H 296.173 -0.0639716 2.045 0
M  V30 3092 H 296.183 -1.97847 3.5682 0
M  V30 3093 H 294.858 -0.933055 4.05299 0
M  V30 3094 H 293.435 -2.35135 2.89423 0
M  V30 3095 N 295.62 -1.53406 -0.361157 0
M  V30 3096 C 296.85 -1.73465 -1.1222 0
M  V30 3097 C 297.258 -0.465486 -1.83384 0
M  V30 3098 O 296.601 0.571611 -1.7458 0
M  V30 3099 C 296.663 -2.84834 -2.19339 0
M  V30 3100 C 296.327 -4.25038 -1.67903 0
M  V30 3101 C 297.324 -5.07231 -1.14074 0
M  V30 3102 C 295.009 -4.71464 -1.73282 0
M  V30 3103 C 297.003 -6.33942 -0.663068 0
M  V30 3104 C 294.69 -5.98153 -1.25127 0
M  V30 3105 C 295.688 -6.79223 -0.717296 0
M  V30 3106 O 295.376 -8.03533 -0.242865 0
M  V30 3107 H 295.108 -0.583526 -0.341283 0
M  V30 3108 H 297.662 -2.00964 -0.424591 0
M  V30 3109 H 295.892 -2.5282 -2.92607 0
M  V30 3110 H 297.581 -2.9303 -2.80871 0
M  V30 3111 H 298.347 -4.72534 -1.09254 0
M  V30 3112 H 294.226 -4.08432 -2.13786 0
M  V30 3113 H 297.77 -6.97167 -0.245612 0
M  V30 3114 H 293.667 -6.32347 -1.29642 0
M  V30 3115 H 294.435 -8.177 -0.361786 0
M  V30 3116 N 297.098 0.621204 -1.44841 0
M  V30 3117 C 298.328 1.40548 -1.51426 0
M  V30 3118 C 298.736 1.88673 -0.141083 0
M  V30 3119 O 298.079 1.62053 0.865128 0
M  V30 3120 C 298.141 2.65325 -2.42576 0
M  V30 3121 C 297.805 2.3893 -3.89566 0
M  V30 3122 C 298.802 2.00138 -4.79834 0
M  V30 3123 C 296.487 2.52263 -4.3436 0
M  V30 3124 C 298.481 1.75021 -6.129 0
M  V30 3125 C 296.168 2.2676 -5.67471 0
M  V30 3126 C 297.166 1.88199 -6.56559 0
M  V30 3127 O 296.854 1.62986 -7.87204 0
M  V30 3128 H 296.586 0.437122 -0.515655 0
M  V30 3129 H 299.14 0.765987 -1.90583 0
M  V30 3130 H 297.37 3.31947 -1.98364 0
M  V30 3131 H 299.059 3.27347 -2.39998 0
M  V30 3132 H 299.825 1.89386 -4.46495 0
M  V30 3133 H 295.704 2.81246 -3.65269 0
M  V30 3134 H 299.248 1.44848 -6.82396 0
M  V30 3135 H 295.145 2.37125 -6.00368 0
M  V30 3136 H 295.913 1.7715 -7.991 0
M  V30 3137 N 298.576 1.31904 0.862503 0
M  V30 3138 C 299.539 1.20131 1.95195 0
M  V30 3139 C 300.539 0.126409 1.60302 0
M  V30 3140 O 301.729 0.376234 1.70089 0
M  V30 3141 C 298.861 0.845691 3.30244 0
M  V30 3142 H 300.054 2.16943 2.07064 0
M  V30 3143 H 297.607 1.15622 1.05172 0
M  V30 3144 H 298.342 -0.120957 3.24074 0
M  V30 3145 H 298.127 1.62276 3.56944 0
M  V30 3146 H 299.617 0.787418 4.10109 0
M  V30 3147 N 300.054 -1.07777 1.14986 0
M  V30 3148 C 301.282 -1.84018 0.945773 0
M  V30 3149 C 301.697 -1.81897 -0.505863 0
M  V30 3150 O 301.054 -1.22726 -1.35072 0
M  V30 3151 C 301.105 -3.31287 1.44677 0
M  V30 3152 O 300.826 -3.33449 2.84154 0
M  V30 3153 C 302.327 -4.24311 1.28355 0
M  V30 3154 H 299.547 -0.580716 0.336169 0
M  V30 3155 H 302.091 -1.36077 1.52654 0
M  V30 3156 H 300.246 -3.76594 0.908625 0
M  V30 3157 H 300.66 -4.25427 3.06777 0
M  V30 3158 H 302.134 -5.2573 1.68261 0
M  V30 3159 H 302.611 -4.38612 0.227184 0
M  V30 3160 H 303.217 -3.84836 1.81056 0
M  V30 3161 N 301.532 -0.945985 -1.26051 0
M  V30 3162 C 302.48 -0.450259 -2.282 0
M  V30 3163 C 303.474 0.47497 -1.62605 0
M  V30 3164 O 304.68 0.352653 -1.76512 0
M  V30 3165 H 301.055 -0.127081 -0.741184 0
M  V30 3166 H 303.026 -1.32422 -2.67408 0
M  V30 3167 C 301.775 0.26467 -3.46691 0
M  V30 3168 H 301.098 -0.438123 -3.97392 0
M  V30 3169 H 302.538 0.575678 -4.20074 0
M  V30 3170 C 300.997 1.48416 -3.02447 0
M  V30 3171 O 301.527 2.58227 -3.07704 0
M  V30 3172 N 299.733 1.34243 -2.57735 0
M  V30 3173 H 299.28 0.448994 -2.53657 0
M  V30 3174 H 299.238 2.15957 -2.28495 0
M  V30 3175 N 303.011 1.40521 -0.713556 0
M  V30 3176 C 304.288 1.94775 -0.17943 0
M  V30 3177 C 304.668 1.65184 1.31444 0
M  V30 3178 O 304.016 0.968429 2.06963 0
M  V30 3179 C 304.226 3.45543 -0.489986 0
M  V30 3180 C 305.574 4.22442 -0.427536 0
M  V30 3181 O 306.598 3.53644 -0.425929 0
M  V30 3182 O 305.457 5.4501 -0.403292 0
M  V30 3183 H 302.551 0.826606 -0.0255192 0
M  V30 3184 H 305.097 1.5014 -0.790949 0
M  V30 3185 H 303.869 3.60432 -1.5233 0
M  V30 3186 H 303.492 3.97311 0.151598 0
M  V30 3187 N 304.489 0.459591 1.5075 0
M  V30 3188 C 305.729 -0.09824 2.04164 0
M  V30 3189 C 306.093 -1.3801 1.33481 0
M  V30 3190 O 307.294 -2.01959 1.77387 0
M  V30 3191 C 305.565 -0.289467 3.56226 0
M  V30 3192 S 307.124 -0.807507 4.31306 0
M  V30 3193 H 303.942 -0.0213845 0.710678 0
M  V30 3194 H 306.544 0.624098 1.85271 0
M  V30 3195 H 305.248 0.649461 4.05229 0
M  V30 3196 H 304.779 -1.03825 3.79452 0
M  V30 3197 H 306.794 -2.0824 4.50389 0
M  V30 3198 N 305.967 -1.56429 0.191757 0
M  V30 3199 C 307.192 -2.02309 -0.456706 0
M  V30 3200 C 307.617 -1.07103 -1.5463 0
M  V30 3201 O 306.975 -0.0539677 -1.8122 0
M  V30 3202 C 307.023 -3.46654 -0.993159 0
M  V30 3203 O 306.127 -3.54559 -2.10622 0
M  V30 3204 H 305.468 -0.655303 -0.107114 0
M  V30 3205 H 307.998 -2.02364 0.301653 0
M  V30 3206 H 308.008 -3.86377 -1.31061 0
M  V30 3207 H 306.683 -4.1544 -0.195504 0
M  V30 3208 H 305.26 -3.26708 -1.79767 0
M  V30 3209 N 307.445 0.0818655 -1.57387 0
M  V30 3210 C 308.393 1.11712 -2.04018 0
M  V30 3211 C 309.387 1.40683 -0.94364 0
M  V30 3212 O 310.593 1.40209 -1.12878 0
M  V30 3213 H 306.968 0.377542 -0.650358 0
M  V30 3214 H 308.939 0.697614 -2.90131 0
M  V30 3215 C 307.688 2.42537 -2.49141 0
M  V30 3216 H 307.011 2.21092 -3.33104 0
M  V30 3217 H 308.451 3.13446 -2.85531 0
M  V30 3218 C 306.91 3.0778 -1.37014 0
M  V30 3219 O 307.44 3.95436 -0.706621 0
M  V30 3220 N 305.646 2.68242 -1.11779 0
M  V30 3221 H 305.193 1.97052 -1.65917 0
M  V30 3222 H 305.151 3.1222 -0.369594 0
M  V30 3223 N 308.923 1.53595 0.353017 0
M  V30 3224 C 309.871 1.81605 1.45335 0
M  V30 3225 C 310.865 0.685923 1.54892 0
M  V30 3226 O 312.071 0.869095 1.57628 0
M  V30 3227 H 308.446 0.575204 0.484401 0
M  V30 3228 H 310.417 2.73679 1.18921 0
M  V30 3229 C 309.166 2.03406 2.81995 0
M  V30 3230 H 308.489 2.89814 2.75405 0
M  V30 3231 H 309.929 2.26975 3.58132 0
M  V30 3232 C 308.388 0.816794 3.26849 0
M  V30 3233 O 308.918 0.0115856 4.01698 0
M  V30 3234 N 307.124 0.636682 2.8354 0
M  V30 3235 H 306.671 1.2931 2.22793 0
M  V30 3236 H 306.629 -0.176336 3.13905 0
M  V30 3237 N 310.401 -0.613514 1.45168 0
M  V30 3238 C 311.626 -1.40437 1.52618 0
M  V30 3239 C 312.051 -1.87438 0.157707 0
M  V30 3240 O 311.409 -1.59791 -0.856537 0
M  V30 3241 C 311.457 -2.58894 2.51011 0
M  V30 3242 O 310.561 -3.59326 2.02382 0
M  V30 3243 H 309.902 -0.419506 0.514695 0
M  V30 3244 H 312.432 -0.747215 1.90467 0
M  V30 3245 H 312.442 -3.06214 2.69624 0
M  V30 3246 H 311.117 -2.24032 3.50403 0
M  V30 3247 H 309.694 -3.18695 1.93618 0
M  V30 3248 N 311.879 -1.3236 -0.855495 0
M  V30 3249 C 313.128 -1.22226 -1.60448 0
M  V30 3250 C 313.441 0.214733 -1.94418 0
M  V30 3251 O 314.647 0.437917 -2.67945 0
M  V30 3252 C 313.103 -2.14063 -2.89318 0
M  V30 3253 C 312.711 -3.62839 -2.62777 0
M  V30 3254 C 314.455 -2.12764 -3.67331 0
M  V30 3255 C 312.362 -4.4664 -3.87643 0
M  V30 3256 H 311.292 -0.453904 -0.602069 0
M  V30 3257 H 313.943 -1.57314 -0.944698 0
M  V30 3258 H 312.325 -1.71889 -3.5675 0
M  V30 3259 H 313.499 -4.1335 -2.03662 0
M  V30 3260 H 311.814 -3.66261 -1.98096 0
M  V30 3261 H 314.411 -2.72611 -4.59987 0
M  V30 3262 H 314.754 -1.11841 -4.00995 0
M  V30 3263 H 315.287 -2.53214 -3.06802 0
M  V30 3264 H 312.026 -5.48373 -3.5912 0
M  V30 3265 H 311.546 -4.0088 -4.46156 0
M  V30 3266 H 313.225 -4.59597 -4.55389 0
M  V30 3267 N 313.357 1.07166 -1.15556 0
M  V30 3268 C 314.585 1.83514 -0.955519 0
M  V30 3269 C 315 1.82163 0.49621 0
M  V30 3270 O 314.357 1.23441 1.34419 0
M  V30 3271 C 314.408 3.30515 -1.46432 0
M  V30 3272 O 314.129 3.31937 -2.85918 0
M  V30 3273 C 315.63 4.23625 -1.30603 0
M  V30 3274 H 312.85 0.578926 -0.339244 0
M  V30 3275 H 315.394 1.35265 -1.53374 0
M  V30 3276 H 313.549 3.76106 -0.928584 0
M  V30 3277 H 313.963 4.23794 -3.09029 0
M  V30 3278 H 315.437 5.24831 -1.71047 0
M  V30 3279 H 315.914 4.38485 -0.250441 0
M  V30 3280 H 316.52 3.83871 -1.83094 0
M  V30 3281 N 314.835 0.952656 1.25548 0
M  V30 3282 C 316.081 0.616826 1.93822 0
M  V30 3283 C 316.436 -0.836684 1.73255 0
M  V30 3284 O 315.729 -1.59218 1.06584 0
M  V30 3285 C 315.923 0.908818 3.45652 0
M  V30 3286 C 315.752 2.38916 3.80984 0
M  V30 3287 C 314.522 3.04637 4.03143 0
M  V30 3288 C 316.72 3.36838 3.88645 0
M  V30 3289 N 314.702 4.42565 4.25453 0
M  V30 3290 C 316.073 4.60065 4.1562 0
M  V30 3291 C 318.128 3.31704 3.71318 0
M  V30 3292 C 316.831 5.78795 4.2707 0
M  V30 3293 C 318.857 4.4977 3.84006 0
M  V30 3294 C 318.219 5.71783 4.11392 0
M  V30 3295 H 314.318 0.27629 0.731565 0
M  V30 3296 H 316.902 1.22443 1.5138 0
M  V30 3297 H 315.073 0.330166 3.86994 0
M  V30 3298 H 316.805 0.533093 4.01174 0
M  V30 3299 H 313.56 2.55215 3.98952 0
M  V30 3300 H 313.984 5.1399 4.40617 0
M  V30 3301 H 318.626 2.3842 3.49164 0
M  V30 3302 H 316.344 6.72521 4.48041 0
M  V30 3303 H 319.93 4.47342 3.71989 0
M  V30 3304 H 318.81 6.61617 4.2099 0
M  V30 3305 N 316.313 -1.40141 0.720998 0
M  V30 3306 C 317.245 -2.29177 0.0324669 0
M  V30 3307 C 318.258 -1.46105 -0.718126 0
M  V30 3308 O 319.447 -1.69335 -0.564608 0
M  V30 3309 C 316.547 -3.24473 -0.978292 0
M  V30 3310 C 315.72 -4.36423 -0.292115 0
M  V30 3311 C 314.779 -5.12122 -1.20901 0
M  V30 3312 O 313.805 -5.64981 -0.691766 0
M  V30 3313 N 315.007 -5.21992 -2.53978 0
M  V30 3314 H 317.772 -2.88909 0.796984 0
M  V30 3315 H 315.333 -1.51569 0.569068 0
M  V30 3316 H 317.325 -3.71987 -1.59398 0
M  V30 3317 H 315.895 -2.65871 -1.64413 0
M  V30 3318 H 315.115 -3.90967 0.503847 0
M  V30 3319 H 316.403 -5.08467 0.183971 0
M  V30 3320 H 315.801 -4.8054 -2.98493 0
M  V30 3321 H 314.358 -5.72995 -3.10677 0
M  V30 3322 N 317.792 -0.46758 -1.50504 0
M  V30 3323 C 318.722 0.318381 -2.31319 0
M  V30 3324 C 319.703 0.993564 -1.38066 0
M  V30 3325 O 320.888 0.991411 -1.66987 0
M  V30 3326 C 318.018 1.40275 -3.17711 0
M  V30 3327 C 316.972 0.849373 -4.19487 0
M  V30 3328 C 316.298 2.03177 -4.94594 0
M  V30 3329 C 317.598 -0.136942 -5.2212 0
M  V30 3330 H 319.292 -0.356106 -2.97275 0
M  V30 3331 H 316.838 -0.172703 -1.42961 0
M  V30 3332 H 318.791 1.96004 -3.73042 0
M  V30 3333 H 317.515 2.10596 -2.49634 0
M  V30 3334 H 316.174 0.314076 -3.65252 0
M  V30 3335 H 315.822 2.72187 -4.22993 0
M  V30 3336 H 315.522 1.66774 -5.63436 0
M  V30 3337 H 317.046 2.59403 -5.52759 0
M  V30 3338 H 318.46 0.331056 -5.72343 0
M  V30 3339 H 316.857 -0.41507 -5.98663 0
M  V30 3340 H 317.927 -1.06398 -4.73083 0
M  V30 3341 N 319.27 1.56325 -0.20005 0
M  V30 3342 C 320.498 2.02105 0.442874 0
M  V30 3343 C 320.913 1.08014 1.5485 0
M  V30 3344 O 320.27 0.0858797 1.82298 0
M  V30 3345 C 320.321 3.47549 0.994583 0
M  V30 3346 O 320.042 4.38049 -0.0669322 0
M  V30 3347 C 321.543 4.0887 1.7129 0
M  V30 3348 H 318.763 0.661807 0.110691 0
M  V30 3349 H 321.307 2.02134 -0.310207 0
M  V30 3350 H 319.462 3.48204 1.69803 0
M  V30 3351 H 319.876 5.23368 0.344462 0
M  V30 3352 H 321.35 5.12475 2.05118 0
M  V30 3353 H 321.827 3.52615 2.61838 0
M  V30 3354 H 322.433 4.12002 1.05518 0
M  V30 3355 N 320.748 -0.0735177 1.57428 0
M  V30 3356 C 322.025 -0.805903 1.78226 0
M  V30 3357 C 322.405 -1.95874 0.787189 0
M  V30 3358 O 321.753 -2.2779 -0.180029 0
M  V30 3359 C 321.963 -1.28045 3.24662 0
M  V30 3360 C 323.311 -1.71453 3.88444 0
M  V30 3361 O 324.335 -1.37616 3.28543 0
M  V30 3362 O 323.194 -2.34093 4.93825 0
M  V30 3363 H 320.288 -0.386041 0.73137 0
M  V30 3364 H 322.834 -0.0537269 1.69615 0
M  V30 3365 H 321.606 -0.455476 3.8864 0
M  V30 3366 H 321.229 -2.094 3.37991 0
M  V30 3367 N 322.226 -1.5378 -0.344866 0
M  V30 3368 C 323.189 -1.80981 -1.40637 0
M  V30 3369 C 324.189 -0.680816 -1.45676 0
M  V30 3370 O 325.379 -0.949095 -1.46075 0
M  V30 3371 C 322.511 -1.95063 -2.79577 0
M  V30 3372 H 323.704 -2.75803 -1.17783 0
M  V30 3373 H 321.257 -1.45173 -0.579181 0
M  V30 3374 H 321.992 -1.02379 -3.07716 0
M  V30 3375 H 321.777 -2.77198 -2.77315 0
M  V30 3376 H 323.267 -2.17629 -3.56409 0
M  V30 3377 N 323.704 0.605807 -1.45491 0
M  V30 3378 C 324.95 1.36679 -1.49823 0
M  V30 3379 C 325.283 1.93693 -0.140175 0
M  V30 3380 O 324.558 1.75158 0.845581 0
M  V30 3381 C 324.841 2.51337 -2.57879 0
M  V30 3382 C 324.694 1.99508 -4.03134 0
M  V30 3383 C 326.013 3.53463 -2.62205 0
M  V30 3384 H 323.132 0.495617 -0.545466 0
M  V30 3385 H 325.774 0.682732 -1.7731 0
M  V30 3386 H 323.924 3.09691 -2.34571 0
M  V30 3387 H 325.596 1.45789 -4.37656 0
M  V30 3388 H 323.839 1.30496 -4.13707 0
M  V30 3389 H 324.51 2.82169 -4.74431 0
M  V30 3390 H 326.986 3.04953 -2.83095 0
M  V30 3391 H 325.862 4.31178 -3.39672 0
M  V30 3392 H 326.123 4.09197 -1.67363 0
M  V30 3393 N 325.182 1.32811 0.848464 0
M  V30 3394 C 326.112 1.24882 1.97299 0
M  V30 3395 C 327.093 0.131357 1.69592 0
M  V30 3396 O 328.278 0.319553 1.91553 0
M  V30 3397 C 325.408 0.97746 3.33261 0
M  V30 3398 C 324.362 2.05682 3.75338 0
M  V30 3399 C 323.688 1.63777 5.09 0
M  V30 3400 C 324.988 3.47254 3.90144 0
M  V30 3401 H 326.682 2.18966 2.04191 0
M  V30 3402 H 324.228 1.05413 0.981029 0
M  V30 3403 H 326.181 0.908513 4.1149 0
M  V30 3404 H 324.905 0.000980011 3.266 0
M  V30 3405 H 323.564 2.11603 2.99366 0
M  V30 3406 H 323.212 0.648569 4.98801 0
M  V30 3407 H 322.912 2.36 5.38124 0
M  V30 3408 H 324.436 1.5833 5.89715 0
M  V30 3409 H 325.85 3.43888 4.58709 0
M  V30 3410 H 324.247 4.1788 4.30693 0
M  V30 3411 H 325.317 3.86462 2.92874 0
M  V30 3412 N 326.66 -1.06551 1.16123 0
M  V30 3413 C 327.61 -2.12209 0.833736 0
M  V30 3414 C 328.594 -1.59825 -0.185656 0
M  V30 3415 O 329.786 -1.76994 0.0147906 0
M  V30 3416 C 326.915 -3.41674 0.333697 0
M  V30 3417 C 326.001 -4.00892 1.38372 0
M  V30 3418 N 326.392 -4.34256 2.59337 0
M  V30 3419 C 324.69 -4.28463 1.23836 0
M  V30 3420 C 325.391 -4.81291 3.26701 0
M  V30 3421 N 324.367 -4.80565 2.54083 0
M  V30 3422 H 328.169 -2.35849 1.75364 0
M  V30 3423 H 325.683 -1.24068 1.04789 0
M  V30 3424 H 327.68 -4.16822 0.0806918 0
M  V30 3425 H 326.34 -3.19475 -0.58017 0
M  V30 3426 H 327.351 -4.24687 2.96415 0
M  V30 3427 H 324.028 -4.15721 0.38504 0
M  V30 3428 H 325.418 -5.16332 4.29943 0
M  V30 3429 N 328.138 -0.959301 -1.25041 0
M  V30 3430 C 329.068 -0.501388 -2.28053 0
M  V30 3431 C 330.049 0.454673 -1.63911 0
M  V30 3432 O 331.234 0.352618 -1.90972 0
M  V30 3433 C 328.364 0.217224 -3.4662 0
M  V30 3434 C 327.318 -0.654034 -4.22973 0
M  V30 3435 C 326.644 0.195589 -5.34342 0
M  V30 3436 C 327.944 -1.93447 -4.85155 0
M  V30 3437 H 329.638 -1.36238 -2.66608 0
M  V30 3438 H 327.184 -0.656534 -1.28163 0
M  V30 3439 H 329.137 0.548732 -4.17812 0
M  V30 3440 H 327.861 1.1125 -3.07068 0
M  V30 3441 H 326.52 -0.968693 -3.5357 0
M  V30 3442 H 326.168 1.09076 -4.91031 0
M  V30 3443 H 325.868 -0.384091 -5.86343 0
M  V30 3444 H 327.392 0.521958 -6.08365 0
M  V30 3445 H 328.806 -1.66908 -5.48466 0
M  V30 3446 H 327.203 -2.46018 -5.47353 0
M  V30 3447 H 328.273 -2.63466 -4.07079 0
M  V30 3448 N 329.616 1.39756 -0.72842 0
M  V30 3449 C 331.027 1.83498 -0.344289 0
M  V30 3450 C 331.378 1.60868 1.12321 0
M  V30 3451 O 330.503 1.09634 1.86573 0
M  V30 3452 C 331.098 3.33114 -0.618112 0
M  V30 3453 C 329.657 3.753 -0.287549 0
M  V30 3454 C 328.804 2.62831 -0.884048 0
M  V30 3455 H 331.755 1.28842 -0.926578 0
M  V30 3456 H 331.776 3.80334 0.112349 0
M  V30 3457 H 331.288 3.49553 -1.68625 0
M  V30 3458 H 329.389 3.64451 0.775012 0
M  V30 3459 H 329.502 4.72945 -0.765512 0
M  V30 3460 H 327.866 2.52792 -0.311149 0
M  V30 3461 H 328.649 2.82078 -1.95671 0
M  V30 3462 N 331.094 0.475555 1.50254 0
M  V30 3463 C 332.342 -0.077738 2.0195 0
M  V30 3464 C 332.663 -1.39813 1.35931 0
M  V30 3465 O 331.933 -1.89249 0.506123 0
M  V30 3466 H 330.513 -0.031719 0.746326 0
M  V30 3467 H 333.175 0.626995 1.84539 0
M  V30 3468 H 332.271 -0.225995 3.11281 0
M  V30 3469 N 332.573 -1.56217 0.208337 0
M  V30 3470 C 333.813 -1.99849 -0.428927 0
M  V30 3471 C 334.177 -1.09262 -1.57879 0
M  V30 3472 O 335.378 -1.42185 -2.28116 0
M  V30 3473 C 333.649 -3.46777 -0.864879 0
M  V30 3474 S 335.208 -4.12434 -1.49811 0
M  V30 3475 H 332.026 -0.697742 -0.136665 0
M  V30 3476 H 334.628 -1.92953 0.314519 0
M  V30 3477 H 333.332 -4.10396 -0.0181326 0
M  V30 3478 H 332.863 -3.57518 -1.64147 0
M  V30 3479 H 334.878 -4.10532 -2.78707 0
M  V30 3480 N 334.051 0.0651679 -1.57465 0
M  V30 3481 C 335.297 0.764193 -1.87851 0
M  V30 3482 C 335.63 1.76889 -0.801495 0
M  V30 3483 O 334.905 1.93594 0.187528 0
M  V30 3484 C 335.188 1.46625 -3.28897 0
M  V30 3485 C 335.041 0.477515 -4.47258 0
M  V30 3486 C 336.36 2.4095 -3.68281 0
M  V30 3487 H 333.479 0.276351 -0.683227 0
M  V30 3488 H 336.121 0.0272868 -1.8998 0
M  V30 3489 H 334.271 2.09438 -3.27212 0
M  V30 3490 H 335.943 -0.145922 -4.61069 0
M  V30 3491 H 334.186 -0.206576 -4.33308 0
M  V30 3492 H 334.857 1.0065 -5.42746 0
M  V30 3493 H 337.333 1.88209 -3.71102 0
M  V30 3494 H 336.209 2.87072 -4.67847 0
M  V30 3495 H 336.47 3.26049 -2.98571 0
M  V30 3496 N 335.529 1.53961 0.336706 0
M  V30 3497 C 336.94 1.62914 0.911925 0
M  V30 3498 C 337.291 0.514795 1.89326 0
M  V30 3499 O 336.416 -0.354395 2.13478 0
M  V30 3500 C 337.011 2.95304 1.66076 0
M  V30 3501 C 335.57 3.06496 2.18489 0
M  V30 3502 C 334.717 2.58403 1.00613 0
M  V30 3503 H 337.668 1.58285 0.114649 0
M  V30 3504 H 337.689 2.84727 2.5241 0
M  V30 3505 H 337.201 3.76387 0.946276 0
M  V30 3506 H 335.302 2.3006 2.93092 0
M  V30 3507 H 335.415 4.1208 2.44391 0
M  V30 3508 H 333.779 2.13977 1.38152 0
M  V30 3509 H 334.562 3.41932 0.306179 0
M  V30 3510 N 337.007 -0.598083 1.45811 0
M  V30 3511 C 338.247 -1.36802 1.5187 0
M  V30 3512 C 338.611 -1.9133 0.160224 0
M  V30 3513 O 339.812 -2.6863 0.0955302 0
M  V30 3514 C 338.083 -2.47835 2.57513 0
M  V30 3515 S 339.642 -3.35458 2.82866 0
M  V30 3516 H 336.46 -0.466278 0.536755 0
M  V30 3517 H 339.062 -0.689152 1.82951 0
M  V30 3518 H 337.766 -2.06141 3.54872 0
M  V30 3519 H 337.297 -3.20512 2.28114 0
M  V30 3520 H 339.312 -4.46251 2.16967 0
M  V30 3521 N 338.485 -1.33259 -0.841409 0
M  V30 3522 C 339.395 -1.25332 -1.98316 0
M  V30 3523 C 340.411 -0.164364 -1.73222 0
M  V30 3524 O 341.587 -0.387486 -1.97637 0
M  V30 3525 C 338.652 -0.990078 -3.32262 0
M  V30 3526 C 337.713 -2.16879 -3.70489 0
M  V30 3527 C 336.946 -1.91801 -4.98044 0
M  V30 3528 O 337.169 -0.867075 -5.63771 0
M  V30 3529 O 336.103 -2.78267 -5.33714 0
M  V30 3530 H 339.929 -2.21344 -2.07944 0
M  V30 3531 H 337.514 -1.1328 -0.974058 0
M  V30 3532 H 339.396 -0.860321 -4.12524 0
M  V30 3533 H 338.071 -0.0602155 -3.23644 0
M  V30 3534 H 336.978 -2.35407 -2.90748 0
M  V30 3535 H 338.311 -3.0819 -3.8377 0
M  V30 3536 N 339.963 1.05934 -1.16686 0
M  V30 3537 C 340.911 2.15603 -0.872817 0
M  V30 3538 C 341.905 1.68647 0.159576 0
M  V30 3539 O 343.111 1.79995 0.0132125 0
M  V30 3540 H 339.486 0.703885 -0.264671 0
M  V30 3541 H 341.457 2.37613 -1.80507 0
M  V30 3542 C 340.206 3.45457 -0.394344 0
M  V30 3543 H 339.529 3.81984 -1.18019 0
M  V30 3544 H 340.969 4.2339 -0.227408 0
M  V30 3545 C 339.428 3.25021 0.88673 0
M  V30 3546 O 339.958 3.50906 1.95519 0
M  V30 3547 N 338.164 2.78437 0.831925 0
M  V30 3548 H 337.711 2.57572 -0.0377619 0
M  V30 3549 H 337.669 2.65144 1.68956 0
M  V30 3550 N 341.441 0.965919 1.2453 0
M  V30 3551 C 342.718 0.543777 1.87889 0
M  V30 3552 C 343.098 -0.97909 1.87021 0
M  V30 3553 O 342.446 -1.84969 1.3416 0
M  V30 3554 C 342.656 1.13327 3.30088 0
M  V30 3555 C 344.004 1.21707 4.06783 0
M  V30 3556 O 345.028 1.08566 3.39252 0
M  V30 3557 O 343.887 1.42456 5.27606 0
M  V30 3558 H 340.981 0.181054 0.806938 0
M  V30 3559 H 343.527 1.06007 1.32516 0
M  V30 3560 H 342.299 2.17612 3.25209 0
M  V30 3561 H 341.922 0.600911 3.93033 0
M  V30 3562 N 342.919 -1.39368 0.735821 0
M  V30 3563 C 343.867 -2.32443 0.0855131 0
M  V30 3564 C 344.861 -1.53104 -0.724954 0
M  V30 3565 O 346.067 -1.68762 -0.626047 0
M  V30 3566 H 342.442 -0.751948 0.00885257 0
M  V30 3567 H 344.413 -2.84916 0.886883 0
M  V30 3568 C 343.162 -3.38206 -0.806983 0
M  V30 3569 H 342.485 -3.99335 -0.19274 0
M  V30 3570 H 343.925 -4.05779 -1.2296 0
M  V30 3571 C 342.384 -2.75321 -1.94165 0
M  V30 3572 O 342.914 -2.63231 -3.03435 0
M  V30 3573 N 341.12 -2.33396 -1.73132 0
M  V30 3574 H 340.667 -2.4343 -0.842596 0
M  V30 3575 H 340.625 -1.91661 -2.49225 0
M  V30 3576 N 344.397 -0.483516 -1.5 0
M  V30 3577 C 345.645 0.067027 -2.01989 0
M  V30 3578 C 345.966 1.3909 -1.36671 0
M  V30 3579 O 345.236 1.88978 -0.516152 0
M  V30 3580 H 343.816 0.0277606 -0.746484 0
M  V30 3581 H 346.478 -0.636773 -1.84204 0
M  V30 3582 H 345.574 0.209484 -3.11396 0
M  V30 3583 N 345.875 1.56104 -0.216619 0
M  V30 3584 C 347.103 2.02563 0.421413 0
M  V30 3585 C 347.518 1.0965 1.53695 0
M  V30 3586 O 346.875 0.10521 1.82196 0
M  V30 3587 C 346.926 3.48584 0.957665 0
M  V30 3588 O 346.647 4.37953 -0.113389 0
M  V30 3589 C 348.148 4.10664 1.66943 0
M  V30 3590 H 345.368 0.662944 0.103665 0
M  V30 3591 H 347.912 2.01793 -0.331629 0
M  V30 3592 H 346.067 3.49985 1.661 0
M  V30 3593 H 346.481 5.23704 0.288932 0
M  V30 3594 H 347.955 5.14622 1.99671 0
M  V30 3595 H 348.432 3.55373 2.58083 0
M  V30 3596 H 349.038 4.13098 1.01142 0
M  V30 3597 N 347.353 -0.0568162 1.57498 0
M  V30 3598 C 348.283 -1.06593 2.0775 0
M  V30 3599 C 349.264 -1.39448 0.974082 0
M  V30 3600 O 350.449 -1.48815 1.24771 0
M  V30 3601 C 347.579 -2.37509 2.5339 0
M  V30 3602 C 346.533 -2.1897 3.67745 0
M  V30 3603 C 345.859 -3.55402 3.99492 0
M  V30 3604 C 347.159 -1.59859 4.97235 0
M  V30 3605 H 348.853 -0.647706 2.9231 0
M  V30 3606 H 346.399 -0.310116 1.40621 0
M  V30 3607 H 348.352 -3.08409 2.87162 0
M  V30 3608 H 347.076 -2.8134 1.65878 0
M  V30 3609 H 345.735 -1.50508 3.3428 0
M  V30 3610 H 345.383 -3.9683 3.09088 0
M  V30 3611 H 345.083 -3.43831 4.76502 0
M  V30 3612 H 346.607 -4.27708 4.35773 0
M  V30 3613 H 348.021 -2.20642 5.29141 0
M  V30 3614 H 346.418 -1.58942 5.78669 0
M  V30 3615 H 347.488 -0.561506 4.81638 0
M  V30 3616 N 348.832 -1.54138 -0.328536 0
M  V30 3617 C 349.782 -1.79557 -1.4051 0
M  V30 3618 C 350.766 -0.651373 -1.47126 0
M  V30 3619 O 351.958 -0.911226 -1.51742 0
M  V30 3620 C 349.087 -2.02196 -2.77438 0
M  V30 3621 C 348.173 -3.22724 -2.75155 0
M  V30 3622 N 348.564 -4.43881 -2.42494 0
M  V30 3623 C 346.862 -3.24196 -3.06289 0
M  V30 3624 C 347.563 -5.25797 -2.48822 0
M  V30 3625 N 346.539 -4.62862 -2.8506 0
M  V30 3626 H 350.341 -2.70814 -1.1418 0
M  V30 3627 H 347.855 -1.53265 -0.536991 0
M  V30 3628 H 349.852 -2.18546 -3.55026 0
M  V30 3629 H 348.512 -1.12191 -3.04702 0
M  V30 3630 H 349.523 -4.70969 -2.15428 0
M  V30 3631 H 346.2 -2.44208 -3.38627 0
M  V30 3632 H 347.59 -6.32535 -2.26603 0
M  V30 3633 N 350.31 0.590341 -1.46126 0
M  V30 3634 C 351.55 1.35995 -1.52593 0
M  V30 3635 C 351.914 1.91243 -0.170368 0
M  V30 3636 O 353.115 2.68576 -0.109775 0
M  V30 3637 C 351.386 2.46465 -2.58823 0
M  V30 3638 S 352.945 3.33953 -2.84641 0
M  V30 3639 H 349.763 0.463425 -0.53922 0
M  V30 3640 H 352.365 0.67944 -1.83314 0
M  V30 3641 H 351.069 2.04256 -3.5596 0
M  V30 3642 H 350.6 3.19297 -2.2981 0
M  V30 3643 H 352.615 4.45094 -2.19331 0
M  V30 3644 N 351.788 1.33704 0.83433 0
M  V30 3645 C 353.034 1.26612 1.59188 0
M  V30 3646 C 353.389 -0.165439 1.91687 0
M  V30 3647 O 352.682 -1.10873 1.56262 0
M  V30 3648 C 352.876 2.07926 2.90692 0
M  V30 3649 C 352.705 3.58844 2.71038 0
M  V30 3650 C 351.475 4.28148 2.68361 0
M  V30 3651 C 353.673 4.53082 2.43353 0
M  V30 3652 N 351.655 5.64987 2.40132 0
M  V30 3653 C 353.026 5.77843 2.24716 0
M  V30 3654 C 355.081 4.42119 2.28987 0
M  V30 3655 C 353.784 6.92877 1.9317 0
M  V30 3656 C 355.81 5.56973 1.98835 0
M  V30 3657 C 355.172 6.80745 1.81012 0
M  V30 3658 H 351.271 0.518517 0.585375 0
M  V30 3659 H 353.855 1.68294 0.979044 0
M  V30 3660 H 352.026 1.68558 3.49918 0
M  V30 3661 H 353.758 1.92568 3.55949 0
M  V30 3662 H 350.513 3.80469 2.82029 0
M  V30 3663 H 350.937 6.37133 2.28889 0
M  V30 3664 H 355.579 3.47058 2.41477 0
M  V30 3665 H 353.297 7.87931 1.79418 0
M  V30 3666 H 356.883 5.50428 1.88468 0
M  V30 3667 H 355.763 7.68115 1.58017 0
M  V30 3668 N 353.266 -1.05314 1.17247 0
M  V30 3669 C 354.515 -1.77685 0.954521 0
M  V30 3670 C 354.828 -1.88616 -0.518025 0
M  V30 3671 O 356.034 -2.57714 -0.854144 0
M  V30 3672 C 354.49 -3.19402 1.65863 0
M  V30 3673 C 354.098 -3.16605 3.16963 0
M  V30 3674 C 355.842 -3.96237 1.52303 0
M  V30 3675 C 353.749 -4.53103 3.80068 0
M  V30 3676 H 352.679 -0.666 0.353496 0
M  V30 3677 H 355.33 -1.1805 1.40486 0
M  V30 3678 H 353.712 -3.79355 1.13602 0
M  V30 3679 H 354.886 -2.66176 3.76148 0
M  V30 3680 H 353.201 -2.53268 3.30521 0
M  V30 3681 H 355.798 -4.97157 1.96822 0
M  V30 3682 H 356.141 -4.136 0.473401 0
M  V30 3683 H 356.674 -3.42829 2.01775 0
M  V30 3684 H 353.413 -4.40946 4.85023 0
M  V30 3685 H 352.933 -5.03686 3.2567 0
M  V30 3686 H 354.612 -5.22045 3.82202 0
M  V30 3687 N 354.744 -0.972509 -1.24016 0
M  V30 3688 C 355.676 -0.464375 -2.24446 0
M  V30 3689 C 356.689 0.4295 -1.57032 0
M  V30 3690 O 357.878 0.234902 -1.76948 0
M  V30 3691 C 354.978 0.348385 -3.37105 0
M  V30 3692 C 354.151 -0.53673 -4.34094 0
M  V30 3693 C 353.21 0.220838 -5.25736 0
M  V30 3694 O 352.236 -0.386867 -5.67884 0
M  V30 3695 N 353.438 1.50907 -5.60542 0
M  V30 3696 H 356.203 -1.32788 -2.68677 0
M  V30 3697 H 353.764 -0.844877 -1.38107 0
M  V30 3698 H 355.756 0.863341 -3.95384 0
M  V30 3699 H 354.326 1.11285 -2.92121 0
M  V30 3700 H 353.546 -1.23261 -3.74433 0
M  V30 3701 H 354.834 -1.14022 -4.95859 0
M  V30 3702 H 354.232 2.02444 -5.28236 0
M  V30 3703 H 352.789 1.96962 -6.21329 0
M  V30 3704 N 356.222 1.38976 -0.743202 0
M  V30 3705 C 357.468 2.0064 -0.295189 0
M  V30 3706 C 357.801 1.5885 1.11716 0
M  V30 3707 O 357.076 0.821181 1.76315 0
M  V30 3708 C 357.359 3.578 -0.406318 0
M  V30 3709 C 357.212 4.09586 -1.85903 0
M  V30 3710 C 358.531 4.39616 0.206439 0
M  V30 3711 H 355.65 0.728935 -0.108733 0
M  V30 3712 H 358.292 1.65067 -0.940897 0
M  V30 3713 H 356.442 3.88235 0.143419 0
M  V30 3714 H 358.114 3.89837 -2.46627 0
M  V30 3715 H 356.357 3.6284 -2.3776 0
M  V30 3716 H 357.028 5.18708 -1.888 0
M  V30 3717 H 359.504 4.15273 -0.262283 0
M  V30 3718 H 358.38 5.48812 0.0983819 0
M  V30 3719 H 358.641 4.22754 1.2935 0
M  V30 3720 N 357.7 0.491464 1.49741 0
M  V30 3721 C 358.928 -0.0535151 2.06831 0
M  V30 3722 C 359.343 -1.31683 1.35296 0
M  V30 3723 O 358.7 -1.77402 0.42836 0
M  V30 3724 C 358.751 -0.320835 3.60073 0
M  V30 3725 O 358.472 0.892394 4.28915 0
M  V30 3726 C 359.973 -0.910519 4.33848 0
M  V30 3727 H 357.193 0.0161909 0.670805 0
M  V30 3728 H 359.737 0.68609 1.92647 0
M  V30 3729 H 357.892 -1.0104 3.73991 0
M  V30 3730 H 358.306 0.649401 5.20464 0
M  V30 3731 H 359.78 -1.04721 5.41976 0
M  V30 3732 H 360.257 -1.90589 3.95692 0
M  V30 3733 H 360.863 -0.258712 4.24512 0
M  V30 3734 N 359.178 -1.55987 0.224894 0
M  V30 3735 C 360.589 -1.84553 -0.282345 0
M  V30 3736 C 360.94 -1.14634 -1.59227 0
M  V30 3737 O 360.065 -0.417155 -2.12341 0
M  V30 3738 C 360.66 -3.348 -0.519062 0
M  V30 3739 C 359.219 -3.63671 -0.970604 0
M  V30 3740 C 358.366 -2.77277 -0.0355261 0
M  V30 3741 H 361.317 -1.52245 0.448006 0
M  V30 3742 H 361.338 -3.55187 -1.36463 0
M  V30 3743 H 360.85 -3.8566 0.43449 0
M  V30 3744 H 358.951 -3.1827 -1.9374 0
M  V30 3745 H 359.064 -4.71631 -0.842698 0
M  V30 3746 H 357.428 -2.48846 -0.542927 0
M  V30 3747 H 358.211 -3.30937 0.913003 0
M  V30 3748 N 360.656 0.0484629 -1.57525 0
M  V30 3749 C 361.604 1.07359 -2.06341 0
M  V30 3750 C 362.598 1.3865 -0.973269 0
M  V30 3751 O 363.804 1.37783 -1.15827 0
M  V30 3752 H 360.179 0.363662 -0.65822 0
M  V30 3753 H 362.15 0.635916 -2.91545 0
M  V30 3754 C 360.899 2.37198 -2.54229 0
M  V30 3755 H 360.222 2.13977 -3.37719 0
M  V30 3756 H 361.662 3.07319 -2.92115 0
M  V30 3757 C 360.121 3.04805 -1.43511 0
M  V30 3758 O 360.651 3.93848 -0.79034 0
M  V30 3759 N 358.857 2.65811 -1.17444 0
M  V30 3760 H 358.404 1.93488 -1.70059 0
M  V30 3761 H 358.362 3.11366 -0.435737 0
M  V30 3762 N 362.134 1.5431 0.320358 0
M  V30 3763 C 363.38 1.72924 1.05949 0
M  V30 3764 C 363.713 0.503185 1.87568 0
M  V30 3765 O 362.988 -0.499839 1.87968 0
M  V30 3766 C 363.271 3.00676 1.98156 0
M  V30 3767 C 363.124 4.3354 1.19845 0
M  V30 3768 C 364.443 3.24198 2.9763 0
M  V30 3769 H 361.562 0.629195 0.383774 0
M  V30 3770 H 364.204 1.87008 0.335854 0
M  V30 3771 H 362.354 2.888 2.59859 0
M  V30 3772 H 364.026 4.57305 0.605773 0
M  V30 3773 H 362.269 4.309 0.500784 0
M  V30 3774 H 362.94 5.19156 1.87567 0
M  V30 3775 H 365.416 3.35557 2.4605 0
M  V30 3776 H 364.292 4.14938 3.59329 0
M  V30 3777 H 364.553 2.41577 3.7026 0
M  V30 3778 N 363.613 -0.582584 1.46437 0
M  V30 3779 C 364.576 -1.67366 1.56592 0
M  V30 3780 C 365.576 -1.54575 0.443072 0
M  V30 3781 O 366.766 -1.59191 0.707381 0
M  V30 3782 C 363.898 -3.06791 1.48634 0
M  V30 3783 H 365.091 -1.5972 2.5383 0
M  V30 3784 H 362.644 -0.800432 1.34249 0
M  V30 3785 H 363.379 -3.19993 0.526763 0
M  V30 3786 H 363.164 -3.17484 2.30101 0
M  V30 3787 H 364.654 -3.86218 1.58826 0
M  V30 3788 N 365.091 -1.34144 -0.827227 0
M  V30 3789 C 366.337 -1.26446 -1.58554 0
M  V30 3790 C 366.67 0.1664 -1.93486 0
M  V30 3791 O 365.945 1.1107 -1.59667 0
M  V30 3792 C 366.228 -2.15111 -2.8879 0
M  V30 3793 C 366.081 -3.66712 -2.60465 0
M  V30 3794 C 367.4 -2.03311 -3.90324 0
M  V30 3795 H 364.519 -0.46067 -0.575284 0
M  V30 3796 H 367.161 -1.64356 -0.953269 0
M  V30 3797 H 365.311 -1.8291 -3.42748 0
M  V30 3798 H 366.983 -4.09259 -2.1285 0
M  V30 3799 H 365.226 -3.88014 -1.93978 0
M  V30 3800 H 365.897 -4.24112 -3.53317 0
M  V30 3801 H 368.373 -2.31574 -3.45706 0
M  V30 3802 H 367.249 -2.67582 -4.79261 0
M  V30 3803 H 367.51 -1.00879 -4.30437 0
M  V30 3804 N 366.569 1.04691 -1.17803 0
M  V30 3805 C 367.516 2.12557 -0.899343 0
M  V30 3806 C 368.486 1.65339 0.158771 0
M  V30 3807 O 369.671 1.90789 0.0204797 0
M  V30 3808 C 366.811 3.42481 -0.424315 0
M  V30 3809 C 365.924 4.03346 -1.54713 0
M  V30 3810 C 365.059 5.21208 -1.02546 0
M  V30 3811 C 364.098 5.74089 -2.12339 0
M  V30 3812 N 363.235 6.83247 -1.61612 0
M  V30 3813 H 368.075 2.35734 -1.823 0
M  V30 3814 H 365.612 1.1564 -0.909159 0
M  V30 3815 H 367.57 4.16996 -0.130421 0
M  V30 3816 H 366.2 3.19471 0.462377 0
M  V30 3817 H 365.252 3.2622 -1.95664 0
M  V30 3818 H 366.564 4.38628 -2.37501 0
M  V30 3819 H 365.718 6.02812 -0.685718 0
M  V30 3820 H 364.457 4.87414 -0.167084 0
M  V30 3821 H 363.462 4.91111 -2.47165 0
M  V30 3822 H 364.687 6.0993 -2.98601 0
M  V30 3823 H 362.633 6.5134 -0.780533 0
M  V30 3824 H 362.55 7.17559 -2.38003 0
M  V30 3825 H 363.818 7.68491 -1.30545 0
M  V30 3826 N 368.047 0.979072 1.23499 0
M  V30 3827 C 368.997 0.489378 2.22686 0
M  V30 3828 C 369.981 -0.434871 1.54912 0
M  V30 3829 O 371.173 -0.263941 1.75021 0
M  V30 3830 C 368.302 -0.208178 3.42668 0
M  V30 3831 C 367.388 0.735563 4.17672 0
M  V30 3832 N 367.779 1.87763 4.69658 0
M  V30 3833 C 366.077 0.548625 4.42613 0
M  V30 3834 C 366.778 2.46886 5.26709 0
M  V30 3835 N 365.754 1.75287 5.14563 0
M  V30 3836 H 369.556 1.36062 2.60508 0
M  V30 3837 H 367.07 0.83958 1.39014 0
M  V30 3838 H 369.067 -0.576295 4.12898 0
M  V30 3839 H 367.727 -1.07572 3.06363 0
M  V30 3840 H 368.738 2.25885 4.66043 0
M  V30 3841 H 365.415 -0.274006 4.166 0
M  V30 3842 H 366.805 3.43326 5.77561 0
M  V30 3843 N 369.525 -1.3858 0.750561 0
M  V30 3844 C 370.941 -1.53759 0.427824 0
M  V30 3845 C 371.141 -1.71401 -1.05943 0
M  V30 3846 O 370.197 -1.72331 -1.84549 0
M  V30 3847 C 371.51 -2.74642 1.22443 0
M  V30 3848 C 373.058 -2.88489 1.2142 0
M  V30 3849 C 373.533 -4.12329 1.9937 0
M  V30 3850 N 375.024 -4.194 1.96616 0
M  V30 3851 C 375.759 -5.14209 2.53727 0
M  V30 3852 N 375.255 -6.14709 3.19539 0
M  V30 3853 N 377.048 -5.06537 2.43673 0
M  V30 3854 H 369.199 -1.25377 1.71447 0
M  V30 3855 H 371.462 -0.608844 0.726645 0
M  V30 3856 H 371.168 -2.68 2.27747 0
M  V30 3857 H 371.042 -3.67745 0.839273 0
M  V30 3858 H 373.429 -2.94614 0.169232 0
M  V30 3859 H 373.51 -1.96406 1.63885 0
M  V30 3860 H 373.154 -4.06966 3.03877 0
M  V30 3861 H 373.084 -5.03486 1.54302 0
M  V30 3862 H 375.575 -3.47421 1.48684 0
M  V30 3863 H 375.888 -6.8354 3.60545 0
M  V30 3864 H 374.233 -6.1505 3.23633 0
M  V30 3865 H 377.424 -4.26962 1.91889 0
M  V30 3866 H 377.597 -5.80245 2.88479 0
M  V30 3867 N 371.003 -0.499398 -1.49478 0
M  V30 3868 C 372.251 0.0455996 -2.02049 0
M  V30 3869 C 372.572 1.37633 -1.38138 0
M  V30 3870 O 371.842 1.8842 -0.536166 0
M  V30 3871 H 370.422 0.0198416 -0.746736 0
M  V30 3872 H 373.084 -0.656274 -1.83519 0
M  V30 3873 H 372.18 0.176445 -3.11601 0
M  V30 3874 N 372.481 1.55866 -0.233164 0
M  V30 3875 C 373.444 2.1953 0.658715 0
M  V30 3876 C 374.444 1.16053 1.11303 0
M  V30 3877 O 375.634 1.41218 1.01996 0
M  V30 3878 C 372.766 2.82791 1.90373 0
M  V30 3879 H 373.959 2.99721 0.10347 0
M  V30 3880 H 371.512 1.56291 0.0164245 0
M  V30 3881 H 372.247 2.06501 2.50056 0
M  V30 3882 H 372.032 3.58578 1.58632 0
M  V30 3883 H 373.522 3.31556 2.53891 0
M  V30 3884 N 373.959 -0.0401083 1.57549 0
M  V30 3885 C 374.889 -1.04384 2.08869 0
M  V30 3886 C 375.87 -1.38407 0.988817 0
M  V30 3887 O 377.055 -1.47483 1.26342 0
M  V30 3888 C 374.185 -2.34808 2.55895 0
M  V30 3889 C 373.139 -2.15057 3.70047 0
M  V30 3890 C 372.465 -3.51145 4.03239 0
M  V30 3891 C 373.765 -1.54576 4.98902 0
M  V30 3892 H 375.459 -0.616666 2.92981 0
M  V30 3893 H 373.005 -0.295184 1.40942 0
M  V30 3894 H 374.958 -3.05346 2.90417 0
M  V30 3895 H 373.682 -2.79565 1.68853 0
M  V30 3896 H 372.341 -1.46954 3.35857 0
M  V30 3897 H 371.989 -3.93529 3.13279 0
M  V30 3898 H 371.689 -3.38758 4.80122 0
M  V30 3899 H 373.213 -4.23062 4.40285 0
M  V30 3900 H 374.627 -2.15017 5.31451 0
M  V30 3901 H 373.024 -1.52796 5.80322 0
M  V30 3902 H 374.094 -0.51039 4.82206 0
M  V30 3903 N 375.437 -1.54477 -0.31217 0
M  V30 3904 C 376.665 -1.77205 -1.068 0
M  V30 3905 C 377.08 -0.526114 -1.81321 0
M  V30 3906 O 376.437 0.503647 -1.75413 0
M  V30 3907 C 376.488 -2.97253 -2.05725 0
M  V30 3908 O 376.209 -4.1703 -1.34228 0
M  V30 3909 C 377.71 -3.32281 -2.93435 0
M  V30 3910 H 374.93 -0.591287 -0.317208 0
M  V30 3911 H 377.474 -2.01398 -0.354834 0
M  V30 3912 H 375.629 -2.753 -2.72559 0
M  V30 3913 H 376.043 -4.84636 -2.00571 0
M  V30 3914 H 377.517 -4.19551 -3.58721 0
M  V30 3915 H 377.994 -2.49945 -3.61143 0
M  V30 3916 H 378.6 -3.56353 -2.32147 0
M  V30 3917 N 376.915 0.57481 -1.46744 0
M  V30 3918 C 378.331 0.898981 -1.31873 0
M  V30 3919 C 378.531 1.99313 -0.29605 0
M  V30 3920 O 377.587 2.50728 0.298621 0
M  V30 3921 C 378.9 1.30886 -2.7072 0
M  V30 3922 C 380.448 1.42127 -2.78871 0
M  V30 3923 C 380.923 1.86478 -4.18318 0
M  V30 3924 N 382.414 1.93658 -4.20774 0
M  V30 3925 C 383.149 2.29267 -5.2557 0
M  V30 3926 N 382.645 2.63612 -6.40688 0
M  V30 3927 N 384.438 2.29889 -5.1294 0
M  V30 3928 H 376.589 -0.147839 -2.11885 0
M  V30 3929 H 378.852 -0.00347013 -0.947994 0
M  V30 3930 H 378.558 0.578853 -3.46904 0
M  V30 3931 H 378.432 2.26874 -3.01343 0
M  V30 3932 H 380.819 2.14213 -2.0297 0
M  V30 3933 H 380.9 0.443705 -2.51922 0
M  V30 3934 H 380.544 1.14968 -4.94717 0
M  V30 3935 H 380.474 2.85207 -4.42679 0
M  V30 3936 H 382.965 1.69574 -3.37718 0
M  V30 3937 H 383.278 2.89759 -7.16421 0
M  V30 3938 H 381.623 2.61232 -6.44036 0
M  V30 3939 H 384.814 2.02485 -4.22039 0
M  V30 3940 H 384.987 2.57312 -5.94722 0
M  V30 3941 N 378.394 1.34581 0.820102 0
M  V30 3942 C 379.619 1.30333 1.61332 0
M  V30 3943 C 380.044 -0.119339 1.87721 0
M  V30 3944 O 379.402 -1.08197 1.45475 0
M  V30 3945 C 379.45 2.10258 2.92957 0
M  V30 3946 O 378.554 1.47404 3.85157 0
M  V30 3947 H 377.895 0.447488 0.490561 0
M  V30 3948 H 380.425 1.77425 1.01889 0
M  V30 3949 H 380.435 2.21718 3.42498 0
M  V30 3950 H 379.11 3.13693 2.73074 0
M  V30 3951 H 377.687 1.44703 3.43679 0
M  V30 3952 N 379.872 -1.04064 1.18357 0
M  V30 3953 C 380.802 -2.14001 0.934113 0
M  V30 3954 C 381.783 -1.69616 -0.128186 0
M  V30 3955 O 382.968 -1.94185 0.0244093 0
M  V30 3956 C 380.098 -3.44253 0.459066 0
M  V30 3957 C 379.052 -4.02261 1.46185 0
M  V30 3958 C 378.378 -5.27992 0.844322 0
M  V30 3959 C 379.678 -4.38432 2.83856 0
M  V30 3960 H 381.372 -2.35127 1.85352 0
M  V30 3961 H 378.918 -1.12998 0.892604 0
M  V30 3962 H 380.871 -4.20522 0.271907 0
M  V30 3963 H 379.595 -3.22813 -0.495912 0
M  V30 3964 H 378.254 -3.28074 1.63595 0
M  V30 3965 H 377.902 -5.02862 -0.117845 0
M  V30 3966 H 377.602 -5.67765 1.51384 0
M  V30 3967 H 379.126 -6.06938 0.667693 0
M  V30 3968 H 380.54 -5.05688 2.70098 0
M  V30 3969 H 378.937 -4.89254 3.47491 0
M  V30 3970 H 380.007 -3.4826 3.37406 0
M  V30 3971 N 381.35 -0.985608 -1.22978 0
M  V30 3972 C 382.766 -0.695104 -1.43668 0
M  V30 3973 C 382.966 0.736866 -1.87543 0
M  V30 3974 O 382.022 1.50868 -2.02473 0
M  V30 3975 C 383.335 -1.69447 -2.48412 0
M  V30 3976 C 384.883 -1.70909 -2.62219 0
M  V30 3977 C 385.358 -2.6969 -3.70178 0
M  V30 3978 N 386.849 -2.6824 -3.77626 0
M  V30 3979 C 387.584 -3.41339 -4.60733 0
M  V30 3980 N 387.08 -4.24015 -5.4789 0
M  V30 3981 N 388.873 -3.30079 -4.54977 0
M  V30 3982 H 381.024 -1.91054 -0.928016 0
M  V30 3983 H 383.287 -0.823553 -0.469536 0
M  V30 3984 H 382.993 -2.7188 -2.23102 0
M  V30 3985 H 382.867 -1.48147 -3.46889 0
M  V30 3986 H 385.254 -0.691785 -2.86877 0
M  V30 3987 H 385.335 -1.96276 -1.6404 0
M  V30 3988 H 384.979 -3.71566 -3.46268 0
M  V30 3989 H 384.909 -2.41595 -4.67909 0
M  V30 3990 H 387.4 -2.08243 -3.15346 0
M  V30 3991 H 387.713 -4.76636 -6.08308 0
M  V30 3992 H 386.058 -4.28104 -5.47496 0
M  V30 3993 H 389.249 -2.64937 -3.85909 0
M  V30 3994 H 389.422 -3.87308 -5.19516 0
M  V30 3995 N 382.828 1.3818 -0.7579 0
M  V30 3996 C 384.056 2.04301 -0.326937 0
M  V30 3997 C 384.471 1.57163 1.0462 0
M  V30 3998 O 383.828 0.746626 1.66529 0
M  V30 3999 C 383.879 3.59846 -0.345363 0
M  V30 4000 O 383.6 4.05256 -1.66432 0
M  V30 4001 C 385.101 4.4319 0.098927 0
M  V30 4002 H 382.321 0.656443 -0.139012 0
M  V30 4003 H 384.865 1.76786 -1.02796 0
M  V30 4004 H 383.02 3.86182 0.306955 0
M  V30 4005 H 383.434 4.99709 -1.59345 0
M  V30 4006 H 384.908 5.51989 0.0348745 0
M  V30 4007 H 385.385 4.23947 1.14741 0
M  V30 4008 H 385.991 4.22051 -0.52468 0
M  V30 4009 N 384.306 0.507319 1.49211 0
M  V30 4010 C 385.256 -0.287112 2.26185 0
M  V30 4011 C 386.24 -0.929983 1.31302 0
M  V30 4012 O 387.432 -0.836538 1.55984 0
M  V30 4013 C 384.561 -1.34718 3.15763 0
M  V30 4014 C 383.647 -0.710235 4.18111 0
M  V30 4015 N 384.038 0.190836 5.0544 0
M  V30 4016 C 382.336 -0.97009 4.35322 0
M  V30 4017 C 383.037 0.55606 5.79036 0
M  V30 4018 N 382.013 -0.0775232 5.43545 0
M  V30 4019 H 385.815 0.406445 2.91076 0
M  V30 4020 H 383.329 0.323814 1.59139 0
M  V30 4021 H 385.326 -1.92982 3.69545 0
M  V30 4022 H 383.986 -2.04235 2.52424 0
M  V30 4023 H 384.997 0.562047 5.14841 0
M  V30 4024 H 381.674 -1.65753 3.83187 0
M  V30 4025 H 383.064 1.2936 6.5933 0
M  V30 4026 N 385.784 -1.5574 0.241426 0
M  V30 4027 C 387.03 -1.99104 -0.385406 0
M  V30 4028 C 387.363 -1.1293 -1.57988 0
M  V30 4029 O 386.638 -0.191449 -1.93555 0
M  V30 4030 C 386.921 -3.51087 -0.800616 0
M  V30 4031 C 386.774 -4.48028 0.398874 0
M  V30 4032 C 388.093 -4.08015 -1.64959 0
M  V30 4033 H 385.212 -0.723848 -0.138614 0
M  V30 4034 H 387.854 -1.86903 0.341642 0
M  V30 4035 H 386.004 -3.61615 -1.4201 0
M  V30 4036 H 387.676 -4.49487 1.03726 0
M  V30 4037 H 385.919 -4.21077 1.04293 0
M  V30 4038 H 386.59 -5.51962 0.0651056 0
M  V30 4039 H 389.066 -4.00555 -1.12672 0
M  V30 4040 H 387.942 -5.14635 -1.90898 0
M  V30 4041 H 388.203 -3.56131 -2.61961 0
M  V30 4042 N 387.262 0.0317525 -1.57568 0
M  V30 4043 C 388.539 0.758366 -1.803 0
M  V30 4044 C 388.919 1.93718 -0.838845 0
M  V30 4045 O 388.267 2.28187 0.119571 0
M  V30 4046 C 388.477 1.19392 -3.27943 0
M  V30 4047 C 389.825 1.61094 -3.92854 0
M  V30 4048 O 390.849 1.28857 -3.32076 0
M  V30 4049 O 389.708 2.20918 -4.99858 0
M  V30 4050 H 386.802 0.366514 -0.741348 0
M  V30 4051 H 389.348 0.00873765 -1.69698 0
M  V30 4052 H 388.12 0.352275 -3.89711 0
M  V30 4053 H 387.743 2.00365 -3.43424 0
M  V30 4054 N 388.74 1.54641 0.303973 0
M  V30 4055 C 389.673 1.80263 1.3993 0
M  V30 4056 C 390.651 0.653657 1.48883 0
M  V30 4057 O 391.835 0.893284 1.6599 0
M  V30 4058 C 388.962 1.9367 2.77866 0
M  V30 4059 C 388.008 3.16078 2.86351 0
M  V30 4060 S 388.841 4.74219 2.4875 0
M  V30 4061 C 389.997 4.90558 3.88721 0
M  V30 4062 H 390.23 2.72886 1.17986 0
M  V30 4063 H 387.763 1.46014 0.501918 0
M  V30 4064 H 389.721 2.0208 3.57315 0
M  V30 4065 H 388.382 1.01991 2.9708 0
M  V30 4066 H 387.575 3.22252 3.87517 0
M  V30 4067 H 387.177 3.06099 2.14893 0
M  V30 4068 H 389.469 4.74398 4.83687 0
M  V30 4069 H 390.412 5.92651 3.87518 0
M  V30 4070 H 390.82 4.18728 3.78585 0
M  V30 4071 N 390.218 -0.567019 1.47046 0
M  V30 4072 C 391.467 -1.32091 1.5243 0
M  V30 4073 C 391.78 -1.94704 0.187021 0
M  V30 4074 O 392.986 -2.7124 0.118771 0
M  V30 4075 C 391.442 -2.39479 2.68659 0
M  V30 4076 C 391.05 -1.831 4.08874 0
M  V30 4077 C 392.794 -3.16111 2.83327 0
M  V30 4078 C 390.701 -2.8821 5.16419 0
M  V30 4079 H 389.631 -0.496629 0.56734 0
M  V30 4080 H 392.282 -0.603354 1.73297 0
M  V30 4081 H 390.664 -3.14105 2.41152 0
M  V30 4082 H 391.838 -1.14913 4.46242 0
M  V30 4083 H 390.153 -1.19085 3.99008 0
M  V30 4084 H 392.75 -3.94585 3.60842 0
M  V30 4085 H 393.093 -3.69686 1.91411 0
M  V30 4086 H 393.626 -2.48595 3.10556 0
M  V30 4087 H 390.365 -2.39504 6.10179 0
M  V30 4088 H 389.885 -3.54839 4.8358 0
M  V30 4089 H 391.564 -3.51881 5.42945 0
M  V30 4090 N 391.696 -1.35014 -0.812953 0
M  V30 4091 C 392.942 -1.2812 -1.57204 0
M  V30 4092 C 393.275 0.145869 -1.93651 0
M  V30 4093 O 392.55 1.0937 -1.60836 0
M  V30 4094 C 392.833 -2.18162 -2.86492 0
M  V30 4095 C 392.686 -3.69454 -2.56561 0
M  V30 4096 C 394.005 -2.07439 -3.88145 0
M  V30 4097 H 391.124 -0.466746 -0.570366 0
M  V30 4098 H 393.766 -1.65357 -0.935783 0
M  V30 4099 H 391.916 -1.86535 -3.40789 0
M  V30 4100 H 393.588 -4.11493 -2.08497 0
M  V30 4101 H 391.831 -3.9005 -1.89851 0
M  V30 4102 H 392.502 -4.27835 -3.48799 0
M  V30 4103 H 394.978 -2.35228 -3.4323 0
M  V30 4104 H 393.854 -2.7265 -4.76396 0
M  V30 4105 H 394.115 -1.05439 -4.29343 0
M  V30 4106 N 393.175 1.03435 -1.18907 0
M  V30 4107 C 394.108 2.11162 -0.86521 0
M  V30 4108 C 395.086 1.6165 0.175473 0
M  V30 4109 O 396.27 1.88425 0.0530129 0
M  V30 4110 C 393.397 3.37423 -0.293868 0
M  V30 4111 C 392.443 4.05795 -1.31274 0
M  V30 4112 S 393.276 4.52027 -2.8711 0
M  V30 4113 C 394.432 5.81513 -2.31504 0
M  V30 4114 H 394.665 2.38308 -1.77754 0
M  V30 4115 H 392.198 1.16295 -1.01562 0
M  V30 4116 H 394.156 4.1049 0.0292572 0
M  V30 4117 H 392.817 3.0838 0.596682 0
M  V30 4118 H 392.01 4.96574 -0.86198 0
M  V30 4119 H 391.612 3.38874 -1.58242 0
M  V30 4120 H 393.904 6.55784 -1.70157 0
M  V30 4121 H 394.847 6.3136 -3.20608 0
M  V30 4122 H 395.255 5.36921 -1.74286 0
M  V30 4123 N 394.653 0.992116 1.22453 0
M  V30 4124 C 395.616 0.546883 2.2258 0
M  V30 4125 C 396.616 -0.369829 1.56489 0
M  V30 4126 O 397.806 -0.161896 1.73446 0
M  V30 4127 C 394.938 -0.204659 3.40285 0
M  V30 4128 H 396.131 1.43234 2.63484 0
M  V30 4129 H 393.684 0.779239 1.3549 0
M  V30 4130 H 394.419 -1.10614 3.04853 0
M  V30 4131 H 394.204 0.45354 3.89468 0
M  V30 4132 H 395.694 -0.504358 4.14543 0
M  V30 4133 N 396.131 -1.37776 0.765217 0
M  V30 4134 C 397.094 -2.28686 0.153416 0
M  V30 4135 C 398.094 -1.47727 -0.635081 0
M  V30 4136 O 399.284 -1.68027 -0.459632 0
M  V30 4137 C 396.416 -3.31608 -0.790495 0
M  V30 4138 H 397.609 -2.84297 0.954723 0
M  V30 4139 H 395.162 -1.46932 0.53299 0
M  V30 4140 H 395.897 -2.81109 -1.61705 0
M  V30 4141 H 395.682 -3.9144 -0.227348 0
M  V30 4142 H 397.172 -3.99559 -1.21419 0
M  V30 4143 N 397.609 -0.515225 -1.4894 0
M  V30 4144 C 398.837 0.0206034 -2.0689 0
M  V30 4145 C 399.252 1.29514 -1.37374 0
M  V30 4146 O 398.609 1.76698 -0.456529 0
M  V30 4147 C 398.66 0.26351 -3.60538 0
M  V30 4148 O 398.381 -0.960517 -4.27441 0
M  V30 4149 C 399.882 0.841383 -4.35242 0
M  V30 4150 H 397.102 -0.0268608 -0.670462 0
M  V30 4151 H 399.646 -0.716651 -1.91532 0
M  V30 4152 H 397.801 0.950777 -3.75552 0
M  V30 4153 H 398.215 -0.73212 -5.19365 0
M  V30 4154 H 399.689 0.96085 -5.43573 0
M  V30 4155 H 400.166 1.8427 -3.98674 0
M  V30 4156 H 400.772 0.191143 -4.2487 0
M  V30 4157 N 399.087 1.5561 -0.249682 0
M  V30 4158 C 400.05 2.20217 0.635394 0
M  V30 4159 C 401.05 1.17227 1.10066 0
M  V30 4160 O 402.24 1.42292 1.00492 0
M  V30 4161 C 399.372 2.84794 1.87363 0
M  V30 4162 H 400.565 2.99814 0.0716752 0
M  V30 4163 H 398.118 1.563 -0.000153234 0
M  V30 4164 H 398.853 2.09142 2.47851 0
M  V30 4165 H 398.638 3.60241 1.5482 0
M  V30 4166 H 400.128 3.3423 2.5036 0
M  V30 4167 N 400.565 -0.0233959 1.57583 0
M  V30 4168 C 401.805 -0.71784 1.9138 0
M  V30 4169 C 402.169 -1.72216 0.848853 0
M  V30 4170 O 403.37 -2.46527 1.07134 0
M  V30 4171 C 401.641 -1.36489 3.30311 0
M  V30 4172 S 403.2 -2.0877 3.85954 0
M  V30 4173 H 400.018 -0.237676 0.670098 0
M  V30 4174 H 402.62 0.0276709 1.9548 0
M  V30 4175 H 401.324 -0.620782 4.05678 0
M  V30 4176 H 400.855 -2.14883 3.29528 0
M  V30 4177 H 402.87 -3.35988 3.65139 0
M  V30 4178 N 402.043 -1.548 -0.295768 0
M  V30 4179 C 403.268 -1.78653 -1.05346 0
M  V30 4180 C 403.693 -0.546894 -1.79974 0
M  V30 4181 O 403.051 0.502763 -1.7419 0
M  V30 4182 C 403.099 -2.99679 -2.00561 0
M  V30 4183 O 402.203 -2.7317 -3.08953 0
M  V30 4184 H 401.544 -0.59116 -0.302367 0
M  V30 4185 H 404.074 -2.01895 -0.331598 0
M  V30 4186 H 404.084 -3.27793 -2.42932 0
M  V30 4187 H 402.759 -3.89562 -1.4565 0
M  V30 4188 H 401.336 -2.56089 -2.71059 0
M  V30 4189 N 403.521 0.559213 -1.47345 0
M  V30 4190 C 404.484 1.64854 -1.59235 0
M  V30 4191 C 405.484 1.53851 -0.467607 0
M  V30 4192 O 406.674 1.58045 -0.732617 0
M  V30 4193 C 403.806 3.04388 -1.53496 0
M  V30 4194 H 404.999 1.55662 -2.56339 0
M  V30 4195 H 402.552 0.778973 -1.35505 0
M  V30 4196 H 403.287 3.19115 -0.577604 0
M  V30 4197 H 403.072 3.13783 -2.35123 0
M  V30 4198 H 404.562 3.83642 -1.6495 0
M  V30 4199 N 404.999 1.35443 0.805782 0
M  V30 4200 C 405.929 1.31095 1.93226 0
M  V30 4201 C 406.91 0.185244 1.69088 0
M  V30 4202 O 408.095 0.380332 1.90439 0
M  V30 4203 C 405.225 1.08299 3.29983 0
M  V30 4204 C 404.179 2.17519 3.68605 0
M  V30 4205 C 403.505 1.79887 5.03532 0
M  V30 4206 C 404.805 3.5949 3.78898 0
M  V30 4207 H 406.499 2.25352 1.97122 0
M  V30 4208 H 404.045 1.0848 0.946996 0
M  V30 4209 H 405.998 1.03897 4.08391 0
M  V30 4210 H 404.722 0.104885 3.26432 0
M  V30 4211 H 403.381 2.2102 2.92482 0
M  V30 4212 H 403.029 0.80693 4.96485 0
M  V30 4213 H 402.729 2.53001 5.30344 0
M  V30 4214 H 404.253 1.77011 5.84379 0
M  V30 4215 H 405.667 3.58307 4.47536 0
M  V30 4216 H 404.064 4.31371 4.1718 0
M  V30 4217 H 405.134 3.95584 2.80431 0
M  V30 4218 N 406.477 -1.02803 1.19454 0
M  V30 4219 C 407.707 -1.79581 1.02149 0
M  V30 4220 C 408.115 -1.84182 -0.432851 0
M  V30 4221 O 407.458 -1.28534 -1.31243 0
M  V30 4222 C 407.52 -3.25993 1.51554 0
M  V30 4223 C 407.184 -3.45025 2.99678 0
M  V30 4224 C 408.181 -3.35175 3.97434 0
M  V30 4225 C 405.866 -3.71212 3.38389 0
M  V30 4226 C 407.86 -3.51238 5.31893 0
M  V30 4227 C 405.547 -3.8692 4.73008 0
M  V30 4228 C 406.545 -3.76936 5.69569 0
M  V30 4229 O 406.233 -3.92179 7.01748 0
M  V30 4230 H 405.965 -0.571962 0.360327 0
M  V30 4231 H 408.519 -1.30367 1.58725 0
M  V30 4232 H 406.749 -3.76235 0.893543 0
M  V30 4233 H 408.438 -3.84368 1.30444 0
M  V30 4234 H 409.204 -3.14895 3.68872 0
M  V30 4235 H 405.083 -3.78075 2.6378 0
M  V30 4236 H 408.627 -3.43362 6.07247 0
M  V30 4237 H 404.524 -4.06699 5.01265 0
M  V30 4238 H 405.292 -4.09265 7.08833 0
M  V30 4239 N 407.956 -0.998596 -1.21925 0
M  V30 4240 C 409.202 -0.678667 -1.91107 0
M  V30 4241 C 409.535 0.78791 -1.77498 0
M  V30 4242 O 408.81 1.57043 -1.1475 0
M  V30 4243 C 409.093 -1.09245 -3.43129 0
M  V30 4244 C 408.946 -2.61801 -3.6576 0
M  V30 4245 C 410.265 -0.649984 -4.35274 0
M  V30 4246 H 407.384 -0.248025 -0.694012 0
M  V30 4247 H 410.026 -1.24314 -1.43688 0
M  V30 4248 H 408.176 -0.612171 -3.83647 0
M  V30 4249 H 409.848 -3.17543 -3.34611 0
M  V30 4250 H 408.091 -3.03609 -3.09845 0
M  V30 4251 H 408.762 -2.85804 -4.7225 0
M  V30 4252 H 411.238 -1.0626 -4.02303 0
M  V30 4253 H 410.114 -0.967743 -5.40302 0
M  V30 4254 H 410.375 0.449139 -4.39813 0
M  V30 4255 N 409.434 1.37368 -0.772513 0
M  V30 4256 C 410.682 1.99279 -0.336516 0
M  V30 4257 C 411.003 1.6163 1.09091 0
M  V30 4258 O 410.273 0.882109 1.74916 0
M  V30 4259 H 408.853 0.737063 -0.121435 0
M  V30 4260 H 411.515 1.67836 -0.990809 0
M  V30 4261 H 410.611 3.09332 -0.414763 0
M  V30 4262 N 410.912 0.523116 1.48665 0
M  V30 4263 C 412.189 -0.0775449 1.95446 0
M  V30 4264 C 412.569 -1.5197 1.4652 0
M  V30 4265 O 411.917 -2.17876 0.688657 0
M  V30 4266 C 412.127 0.0326135 3.48985 0
M  V30 4267 C 413.475 -0.130141 4.24401 0
M  V30 4268 O 414.499 -0.0415142 3.56176 0
M  V30 4269 O 413.358 -0.31491 5.45592 0
M  V30 4270 H 410.452 -0.0831012 0.822814 0
M  V30 4271 H 412.998 0.587227 1.59216 0
M  V30 4272 H 411.77 1.03748 3.77296 0
M  V30 4273 H 411.393 -0.671317 3.91892 0
M  V30 4274 N 412.39 -1.55475 0.257931 0
M  V30 4275 C 413.636 -1.99502 -0.364266 0
M  V30 4276 C 413.969 -1.146 -1.56782 0
M  V30 4277 O 413.244 -0.211968 -1.93342 0
M  V30 4278 C 413.527 -3.51917 -0.763333 0
M  V30 4279 C 413.38 -4.4758 0.446371 0
M  V30 4280 C 414.699 -4.09742 -1.60623 0
M  V30 4281 H 411.818 -0.725277 -0.130929 0
M  V30 4282 H 414.46 -1.8653 0.361446 0
M  V30 4283 H 412.61 -3.63101 -1.38166 0
M  V30 4284 H 414.282 -4.48362 1.08487 0
M  V30 4285 H 412.525 -4.19947 1.08753 0
M  V30 4286 H 413.196 -5.51862 0.123645 0
M  V30 4287 H 415.672 -4.01727 -1.08418 0
M  V30 4288 H 414.548 -5.16631 -1.85429 0
M  V30 4289 H 414.809 -3.58889 -2.58169 0
M  V30 4290 N 413.868 0.0150385 -1.57593 0
M  V30 4291 C 415.108 0.70768 -1.91758 0
M  V30 4292 C 415.472 1.71764 -0.857974 0
M  V30 4293 O 416.673 2.45956 -1.0844 0
M  V30 4294 C 414.944 1.34736 -3.3103 0
M  V30 4295 S 416.503 2.06721 -3.87056 0
M  V30 4296 H 413.321 0.234119 -0.671349 0
M  V30 4297 H 415.923 -0.0380373 -1.95463 0
M  V30 4298 H 414.627 0.59926 -4.06001 0
M  V30 4299 H 414.158 2.13133 -3.30663 0
M  V30 4300 H 416.173 3.34047 -3.66915 0
M  V30 4301 N 415.346 1.54954 0.287554 0
M  V30 4302 C 416.594 1.74528 1.01904 0
M  V30 4303 C 416.915 0.541349 1.87335 0
M  V30 4304 O 416.185 -0.444108 1.908 0
M  V30 4305 H 414.765 0.643576 0.379235 0
M  V30 4306 H 417.427 1.92333 0.315294 0
M  V30 4307 H 416.523 2.64015 1.6644 0
M  V30 4308 N 416.824 -0.551391 1.4764 0
M  V30 4309 C 417.787 -1.64007 1.60107 0
M  V30 4310 C 418.787 -1.53601 0.47576 0
M  V30 4311 O 419.977 -1.57655 0.740988 0
M  V30 4312 C 417.109 -3.03569 1.55108 0
M  V30 4313 H 418.302 -1.543 2.57161 0
M  V30 4314 H 415.855 -0.771776 1.35917 0
M  V30 4315 H 416.59 -3.18804 0.594519 0
M  V30 4316 H 416.375 -3.12532 2.36783 0
M  V30 4317 H 417.865 -3.82762 1.66982 0
M  V30 4318 N 418.302 -1.35869 -0.798587 0
M  V30 4319 C 419.548 -1.2978 -1.55836 0
M  V30 4320 C 419.881 0.125322 -1.93795 0
M  V30 4321 O 419.156 1.07658 -1.61987 0
M  V30 4322 C 419.439 -2.21188 -2.84162 0
M  V30 4323 C 419.292 -3.72155 -2.52628 0
M  V30 4324 C 420.611 -2.11545 -3.85923 0
M  V30 4325 H 417.73 -0.472769 -0.565383 0
M  V30 4326 H 420.372 -1.66341 -0.918192 0
M  V30 4327 H 418.522 -1.90139 -3.38791 0
M  V30 4328 H 420.194 -4.13682 -2.04121 0
M  V30 4329 H 418.437 -3.92042 -1.85704 0
M  V30 4330 H 419.108 -4.31511 -3.44242 0
M  V30 4331 H 421.584 -2.38855 -3.40716 0
M  V30 4332 H 420.46 -2.77688 -4.73477 0
M  V30 4333 H 420.721 -1.09987 -4.282 0
M  V30 4334 N 419.78 1.02168 -1.19998 0
M  V30 4335 C 420.713 2.10232 -0.887558 0
M  V30 4336 C 421.691 1.61827 0.158317 0
M  V30 4337 O 422.875 1.88471 0.0330249 0
M  V30 4338 C 420.002 3.37092 -0.32964 0
M  V30 4339 C 419.048 4.0438 -1.3557 0
M  V30 4340 S 419.881 4.48956 -2.91888 0
M  V30 4341 C 421.037 5.79024 -2.37658 0
M  V30 4342 H 421.27 2.36409 -1.80272 0
M  V30 4343 H 418.803 1.15211 -1.0279 0
M  V30 4344 H 420.761 4.10498 -0.0142824 0
M  V30 4345 H 419.422 3.08996 0.563941 0
M  V30 4346 H 418.615 4.95632 -0.9146 0
M  V30 4347 H 418.217 3.37176 -1.61828 0
M  V30 4348 H 420.509 6.53942 -1.77103 0
M  V30 4349 H 421.452 6.27924 -3.27287 0
M  V30 4350 H 421.86 5.35043 -1.79971 0
M  V30 4351 N 421.258 1.00505 1.21394 0
M  V30 4352 C 422.507 0.683159 1.89778 0
M  V30 4353 C 422.82 -0.789471 1.7896 0
M  V30 4354 O 424.026 -1.22344 2.42372 0
M  V30 4355 C 422.482 1.17146 3.40301 0
M  V30 4356 C 422.09 2.67017 3.5973 0
M  V30 4357 C 423.834 0.924461 4.14311 0
M  V30 4358 C 421.741 3.09387 5.04017 0
M  V30 4359 H 420.671 0.25183 0.710702 0
M  V30 4360 H 423.322 1.21622 1.37406 0
M  V30 4361 H 421.704 0.566451 3.91928 0
M  V30 4362 H 422.878 3.32968 3.18542 0
M  V30 4363 H 421.193 2.89732 2.99073 0
M  V30 4364 H 423.79 1.21658 5.20676 0
M  V30 4365 H 424.133 -0.139286 4.16067 0
M  V30 4366 H 424.666 1.49226 3.6875 0
M  V30 4367 H 421.405 4.14989 5.07409 0
M  V30 4368 H 420.925 2.48149 5.46061 0
M  V30 4369 H 422.604 3.01371 5.72525 0
M  V30 4370 N 422.737 -1.36956 0.779787 0
M  V30 4371 C 423.667 -2.32761 0.185651 0
M  V30 4372 C 424.648 -1.56177 -0.673989 0
M  V30 4373 O 425.833 -1.84378 -0.609797 0
M  V30 4374 C 422.963 -3.40418 -0.687964 0
M  V30 4375 C 421.917 -4.27941 0.0710102 0
M  V30 4376 C 421.243 -5.26681 -0.922573 0
M  V30 4377 C 422.543 -5.07006 1.25467 0
M  V30 4378 H 424.237 -2.82698 0.986008 0
M  V30 4379 H 421.783 -1.3592 0.475592 0
M  V30 4380 H 423.736 -4.06423 -1.11348 0
M  V30 4381 H 422.46 -2.89025 -1.52093 0
M  V30 4382 H 421.119 -3.63478 0.47739 0
M  V30 4383 H 420.767 -4.71565 -1.7503 0
M  V30 4384 H 420.467 -5.86103 -0.419237 0
M  V30 4385 H 421.991 -5.9556 -1.34686 0
M  V30 4386 H 423.405 -5.66105 0.905401 0
M  V30 4387 H 421.802 -5.75793 1.69063 0
M  V30 4388 H 422.872 -4.3921 2.05481 0
M  V30 4389 N 424.215 -0.530993 -1.48385 0
M  V30 4390 C 425.44 0.000729535 -2.074 0
M  V30 4391 C 425.865 1.27298 -1.3848 0
M  V30 4392 O 425.223 1.75599 -0.451081 0
M  V30 4393 C 425.271 0.206697 -3.60007 0
M  V30 4394 O 424.375 1.27514 -3.92191 0
M  V30 4395 H 423.716 -0.039583 -0.662819 0
M  V30 4396 H 426.246 -0.739194 -1.9078 0
M  V30 4397 H 426.256 0.42904 -4.05738 0
M  V30 4398 H 424.931 -0.722675 -4.09573 0
M  V30 4399 H 423.508 1.03537 -3.58238 0
M  V30 4400 N 425.693 1.55336 -0.266172 0
M  V30 4401 C 426.625 2.19544 0.658247 0
M  V30 4402 C 427.638 1.17746 1.12427 0
M  V30 4403 O 428.827 1.44517 1.04772 0
M  V30 4404 C 425.927 2.80032 1.9088 0
M  V30 4405 C 425.1 4.07436 1.59106 0
M  V30 4406 C 424.159 4.52056 2.69317 0
M  V30 4407 O 423.185 5.18023 2.35883 0
M  V30 4408 N 424.387 4.21448 3.99201 0
M  V30 4409 H 427.152 2.99503 0.108754 0
M  V30 4410 H 424.713 1.61667 -0.0869059 0
M  V30 4411 H 426.705 3.06831 2.63888 0
M  V30 4412 H 425.275 2.04119 2.36758 0
M  V30 4413 H 424.495 3.88021 0.695243 0
M  V30 4414 H 425.783 4.90462 1.35367 0
M  V30 4415 H 425.181 3.68528 4.29189 0
M  V30 4416 H 423.738 4.53039 4.68614 0
M  V30 4417 N 427.171 -0.0066808 1.57599 0
M  V30 4418 C 428.134 -0.985035 2.06953 0
M  V30 4419 C 429.134 -1.27663 0.977687 0
M  V30 4420 O 430.324 -1.22293 1.24057 0
M  V30 4421 C 427.456 -2.3118 2.50536 0
M  V30 4422 H 428.649 -0.558255 2.94658 0
M  V30 4423 H 426.202 -0.254011 1.54222 0
M  V30 4424 H 426.937 -2.78561 1.66054 0
M  V30 4425 H 426.722 -2.11338 3.3027 0
M  V30 4426 H 428.212 -3.01377 2.8907 0
M  V30 4427 N 428.649 -1.55105 -0.279332 0
M  V30 4428 C 429.896 -1.75412 -1.01177 0
M  V30 4429 C 430.224 -0.551728 -1.86511 0
M  V30 4430 O 429.479 0.465919 -1.90073 0
M  V30 4431 C 429.778 -3.0086 -1.92919 0
M  V30 4432 C 429.444 -4.33689 -1.23387 0
M  V30 4433 C 428.106 -4.69792 -1.04159 0
M  V30 4434 C 430.458 -5.15941 -0.738562 0
M  V30 4435 C 427.786 -5.85707 -0.341166 0
M  V30 4436 C 430.138 -6.32579 -0.0517636 0
M  V30 4437 C 428.802 -6.67326 0.152292 0
M  V30 4438 H 428.072 -0.641879 -0.370233 0
M  V30 4439 H 430.719 -1.89373 -0.284627 0
M  V30 4440 H 429.024 -2.81773 -2.72234 0
M  V30 4441 H 430.721 -3.13768 -2.49701 0
M  V30 4442 H 427.311 -4.05309 -1.39364 0
M  V30 4443 H 431.495 -4.8853 -0.874764 0
M  V30 4444 H 426.751 -6.11157 -0.172287 0
M  V30 4445 H 430.925 -6.9557 0.339828 0
M  V30 4446 H 428.552 -7.56998 0.697014 0
M  V30 4447 N 430.127 0.543554 -1.4793 0
M  V30 4448 C 431.06 1.66556 -1.55995 0
M  V30 4449 C 432.038 1.57315 -0.411205 0
M  V30 4450 O 433.222 1.7798 -0.620922 0
M  V30 4451 C 430.349 3.04883 -1.47527 0
M  V30 4452 C 429.395 3.32526 -2.67074 0
M  V30 4453 S 430.228 3.20282 -4.29162 0
M  V30 4454 C 431.384 4.61079 -4.23269 0
M  V30 4455 H 431.617 1.59462 -2.50917 0
M  V30 4456 H 429.15 0.725456 -1.36296 0
M  V30 4457 H 431.108 3.84665 -1.43328 0
M  V30 4458 H 429.769 3.09429 -0.539665 0
M  V30 4459 H 428.962 4.33403 -2.5725 0
M  V30 4460 H 428.564 2.60389 -2.68466 0
M  V30 4461 H 430.856 5.52318 -3.92365 0
M  V30 4462 H 431.799 4.75959 -5.24279 0
M  V30 4463 H 432.207 4.39766 -3.5393 0
M  V30 4464 N 431.605 1.3629 0.791371 0
M  V30 4465 C 432.851 1.30605 1.55146 0
M  V30 4466 C 433.184 -0.115042 1.93859 0
M  V30 4467 O 432.459 -1.06798 1.62556 0
M  V30 4468 C 432.742 2.22692 2.82985 0
M  V30 4469 C 432.595 3.73489 2.50651 0
M  V30 4470 C 433.914 2.13588 3.84796 0
M  V30 4471 H 431.033 0.475761 0.562868 0
M  V30 4472 H 433.675 1.66825 0.909358 0
M  V30 4473 H 431.825 1.91933 3.37778 0
M  V30 4474 H 433.497 4.14758 2.01924 0
M  V30 4475 H 431.74 3.93021 1.83622 0
M  V30 4476 H 432.411 4.3333 3.41949 0
M  V30 4477 H 434.887 2.40659 3.39445 0
M  V30 4478 H 433.763 2.80195 4.71998 0
M  V30 4479 H 434.024 1.12256 4.27611 0
M  V30 4480 N 433.083 -1.0153 1.20538 0
M  V30 4481 C 434.308 -1.79283 1.04271 0
M  V30 4482 C 434.733 -1.8372 -0.403544 0
M  V30 4483 O 434.091 -1.27321 -1.2907 0
M  V30 4484 C 434.139 -3.21535 1.63241 0
M  V30 4485 O 433.243 -4.03099 0.870908 0
M  V30 4486 H 432.584 -0.55293 0.367647 0
M  V30 4487 H 435.114 -1.27696 1.59859 0
M  V30 4488 H 435.124 -3.72243 1.6703 0
M  V30 4489 H 433.799 -3.1762 2.68497 0
M  V30 4490 H 432.376 -3.61693 0.907323 0
M  V30 4491 N 434.561 -1.01147 -1.20859 0
M  V30 4492 C 435.972 -0.730205 -1.71828 0
M  V30 4493 C 436.323 0.751662 -1.8123 0
M  V30 4494 O 435.448 1.58686 -1.47132 0
M  V30 4495 C 436.043 -1.31885 -3.12077 0
M  V30 4496 C 434.602 -1.08656 -3.60376 0
M  V30 4497 C 433.749 -1.42769 -2.37723 0
M  V30 4498 H 436.7 -1.18158 -1.05945 0
M  V30 4499 H 436.721 -0.706793 -3.73878 0
M  V30 4500 H 436.233 -2.39737 -3.05201 0
M  V30 4501 H 434.334 -0.0254814 -3.72591 0
M  V30 4502 H 434.447 -1.76301 -4.45483 0
M  V30 4503 H 432.811 -0.846603 -2.40218 0
M  V30 4504 H 433.594 -2.51666 -2.33493 0
M  V30 4505 N 436.039 1.36541 -0.78704 0
M  V30 4506 C 436.971 2.28761 -0.141773 0
M  V30 4507 C 437.984 1.49365 0.647599 0
M  V30 4508 O 439.173 1.71836 0.483173 0
M  V30 4509 C 436.273 3.28771 0.822368 0
M  V30 4510 C 435.446 4.3732 0.0835594 0
M  V30 4511 C 434.505 5.17307 0.963296 0
M  V30 4512 O 433.531 5.67638 0.421419 0
M  V30 4513 N 434.733 5.33515 2.28784 0
M  V30 4514 H 437.498 2.84777 -0.933919 0
M  V30 4515 H 435.059 1.48682 -0.640735 0
M  V30 4516 H 437.051 3.79169 1.41468 0
M  V30 4517 H 435.621 2.73412 1.5154 0
M  V30 4518 H 434.841 3.88118 -0.689809 0
M  V30 4519 H 436.129 5.0701 -0.426358 0
M  V30 4520 H 435.527 4.94234 2.75226 0
M  V30 4521 H 434.084 5.87165 2.82985 0
M  V30 4522 N 437.518 0.538854 1.48102 0
M  V30 4523 C 438.934 0.19732 1.58376 0
M  V30 4524 C 439.134 -1.29971 1.5398 0
M  V30 4525 O 438.19 -2.07861 1.43352 0
M  V30 4526 C 439.503 0.807716 2.89649 0
M  V30 4527 C 441.051 0.77726 3.03196 0
M  V30 4528 C 441.526 1.36639 4.37143 0
M  V30 4529 N 443.017 1.32875 4.43732 0
M  V30 4530 C 443.752 1.7544 5.45901 0
M  V30 4531 N 443.248 2.25776 6.54979 0
M  V30 4532 N 445.041 1.66623 5.36836 0
M  V30 4533 H 437.192 1.5117 1.49202 0
M  V30 4534 H 439.455 0.629327 0.708979 0
M  V30 4535 H 439.161 1.85909 2.98548 0
M  V30 4536 H 439.035 0.289975 3.76084 0
M  V30 4537 H 441.422 -0.265374 2.93904 0
M  V30 4538 H 441.503 1.33256 2.18349 0
M  V30 4539 H 441.147 2.408 4.47189 0
M  V30 4540 H 441.077 0.786689 5.20691 0
M  V30 4541 H 443.568 0.96037 3.65493 0
M  V30 4542 H 443.881 2.56226 7.29087 0
M  V30 4543 H 442.226 2.29775 6.55918 0
M  V30 4544 H 445.417 1.27089 4.50517 0
M  V30 4545 H 445.59 2.00115 6.16326 0
M  V30 4546 N 438.996 -1.55193 0.274407 0
M  V30 4547 C 439.946 -2.19184 -0.627882 0
M  V30 4548 C 440.93 -1.15625 -1.11892 0
M  V30 4549 O 442.122 -1.41441 -1.06411 0
M  V30 4550 C 439.251 -2.91591 -1.81189 0
M  V30 4551 C 438.337 -4.02438 -1.33807 0
M  V30 4552 N 438.728 -5.0246 -0.580349 0
M  V30 4553 C 437.026 -4.15496 -1.62109 0
M  V30 4554 C 437.727 -5.80756 -0.331344 0
M  V30 4555 N 436.703 -5.36038 -0.903556 0
M  V30 4556 H 440.505 -2.93871 -0.0411216 0
M  V30 4557 H 438.019 -1.62213 0.0779348 0
M  V30 4558 H 440.016 -3.35883 -2.46957 0
M  V30 4559 H 438.676 -2.18414 -2.40261 0
M  V30 4560 H 439.687 -5.17399 -0.227762 0
M  V30 4561 H 436.364 -3.53509 -2.22121 0
M  V30 4562 H 437.754 -6.71335 0.275454 0
M  V30 4563 N 440.474 -0.00167713 -1.576 0
M  V30 4564 C 441.422 1.0074 -2.09652 0
M  V30 4565 C 442.416 1.35483 -1.01689 0
M  V30 4566 O 443.622 1.34028 -1.20152 0
M  V30 4567 H 439.997 0.342537 -0.669457 0
M  V30 4568 H 441.968 0.542841 -2.93421 0
M  V30 4569 C 440.717 2.2899 -2.61647 0
M  V30 4570 H 440.04 2.03124 -3.44355 0
M  V30 4571 H 441.48 2.9787 -3.01744 0
M  V30 4572 C 439.939 3.00085 -1.53136 0
M  V30 4573 O 440.469 3.91135 -0.91524 0
M  V30 4574 N 438.675 2.6194 -1.25841 0
M  V30 4575 H 438.222 1.8798 -1.76129 0
M  V30 4576 H 438.18 3.09822 -0.534576 0
M  V30 4577 N 441.952 1.55251 0.271103 0
M  V30 4578 C 443.199 1.75946 1.00245 0
M  V30 4579 C 443.527 0.561611 1.86215 0
M  V30 4580 O 442.782 -0.455832 1.90317 0
M  V30 4581 C 443.081 3.01879 1.91321 0
M  V30 4582 C 442.747 4.34337 1.21086 0
M  V30 4583 C 441.409 4.70338 1.01666 0
M  V30 4584 C 443.761 5.16325 0.71119 0
M  V30 4585 C 441.089 5.8588 0.310099 0
M  V30 4586 C 443.441 6.32597 0.0182157 0
M  V30 4587 C 442.105 6.67236 -0.18768 0
M  V30 4588 H 441.375 0.643833 0.366824 0
M  V30 4589 H 444.022 1.89521 0.27458 0
M  V30 4590 H 442.327 2.83212 2.70736 0
M  V30 4591 H 444.024 3.15088 2.48033 0
M  V30 4592 H 440.614 4.06043 1.37213 0
M  V30 4593 H 444.798 4.88987 0.848844 0
M  V30 4594 H 440.054 6.1124 0.139873 0
M  V30 4595 H 444.228 6.9538 -0.376711 0
M  V30 4596 H 441.855 7.56618 -0.73715 0
M  V30 4597 N 443.43 -0.535701 1.48216 0
M  V30 4598 C 444.658 -1.31671 1.59594 0
M  V30 4599 C 445.073 -1.87083 0.254056 0
M  V30 4600 O 444.43 -1.66112 -0.755854 0
M  V30 4601 C 444.481 -2.47158 2.63809 0
M  V30 4602 O 444.202 -1.94032 3.92789 0
M  V30 4603 C 445.703 -3.39062 2.85573 0
M  V30 4604 H 442.923 -0.400623 0.538277 0
M  V30 4605 H 445.467 -0.646827 1.94001 0
M  V30 4606 H 443.622 -3.10043 2.32276 0
M  V30 4607 H 444.036 -2.69585 4.49916 0
M  V30 4608 H 445.51 -4.16459 3.62306 0
M  V30 4609 H 445.987 -3.93941 1.94184 0
M  V30 4610 H 446.593 -2.81975 3.18387 0
M  V30 4611 N 444.908 -1.36708 -0.784132 0
M  V30 4612 C 445.84 -1.27333 -1.90575 0
M  V30 4613 C 446.853 -0.191706 -1.61667 0
M  V30 4614 O 448.042 -0.446854 -1.72816 0
M  V30 4615 C 445.142 -0.943177 -3.25511 0
M  V30 4616 C 444.315 -2.12776 -3.82158 0
M  V30 4617 C 443.374 -1.76983 -4.95544 0
M  V30 4618 O 442.4 -2.49134 -5.11782 0
M  V30 4619 N 443.602 -0.706624 -5.76183 0
M  V30 4620 H 446.367 -2.23974 -1.99138 0
M  V30 4621 H 443.928 -1.30171 -0.962656 0
M  V30 4622 H 445.92 -0.684799 -3.98864 0
M  V30 4623 H 444.49 -0.0657333 -3.12531 0
M  V30 4624 H 443.71 -2.54863 -3.0073 0
M  V30 4625 H 444.998 -2.91904 -4.16737 0
M  V30 4626 H 444.396 -0.107643 -5.65598 0
M  V30 4627 H 442.953 -0.50808 -6.49817 0
M  V30 4628 N 446.386 1.0089 -1.21074 0
M  V30 4629 C 447.296 2.13039 -0.982425 0
M  V30 4630 C 448.312 1.73881 0.0642161 0
M  V30 4631 O 449.488 2.01012 -0.12496 0
M  V30 4632 C 446.553 3.42377 -0.545803 0
M  V30 4633 C 445.614 3.95731 -1.6642 0
M  V30 4634 C 444.847 5.18896 -1.24832 0
M  V30 4635 O 445.07 5.70273 -0.120265 0
M  V30 4636 O 444.004 5.65597 -2.05873 0
M  V30 4637 H 447.83 2.35175 -1.92163 0
M  V30 4638 H 445.415 1.1142 -0.995285 0
M  V30 4639 H 447.297 4.20244 -0.311912 0
M  V30 4640 H 445.972 3.21639 0.364727 0
M  V30 4641 H 444.879 3.19108 -1.95246 0
M  V30 4642 H 446.212 4.20872 -2.55201 0
M  V30 4643 N 447.864 1.01787 1.20321 0
M  V30 4644 C 449.104 0.716493 1.91431 0
M  V30 4645 C 449.468 -0.740352 1.77152 0
M  V30 4646 O 450.669 -1.1543 2.42754 0
M  V30 4647 C 448.94 1.14169 3.38674 0
M  V30 4648 S 450.499 0.962482 4.28114 0
M  V30 4649 H 447.317 0.261175 0.661293 0
M  V30 4650 H 449.919 1.30539 1.45533 0
M  V30 4651 H 448.623 2.19784 3.46588 0
M  V30 4652 H 448.154 0.545621 3.89598 0
M  V30 4653 H 450.169 -0.133253 4.96021 0
M  V30 4654 N 449.342 -1.36122 0.79427 0
M  V30 4655 C 450.29 -2.31871 0.184023 0
M  V30 4656 C 451.284 -1.56041 -0.659365 0
M  V30 4657 O 452.49 -1.71266 -0.553906 0
M  V30 4658 H 448.865 -0.750896 0.0407373 0
M  V30 4659 H 450.836 -2.80898 1.00693 0
M  V30 4660 C 449.585 -3.41324 -0.662813 0
M  V30 4661 H 448.908 -3.99793 -0.0231944 0
M  V30 4662 H 450.348 -4.10629 -1.05639 0
M  V30 4663 C 448.807 -2.83308 -1.82313 0
M  V30 4664 O 449.337 -2.75863 -2.91997 0
M  V30 4665 N 447.543 -2.40529 -1.63077 0
M  V30 4666 H 447.09 -2.46785 -0.738591 0
M  V30 4667 H 447.048 -2.02059 -2.40872 0
M  V30 4668 N 450.82 -0.546701 -1.47814 0
M  V30 4669 C 452.06 -0.0209604 -2.04389 0
M  V30 4670 C 452.424 1.29993 -1.413 0
M  V30 4671 O 453.625 1.91273 -1.8886 0
M  V30 4672 C 451.896 0.0812844 -3.57308 0
M  V30 4673 S 453.455 0.55467 -4.3528 0
M  V30 4674 H 450.273 -0.0200865 -0.710716 0
M  V30 4675 H 452.875 -0.731055 -1.81317 0
M  V30 4676 H 451.579 -0.884616 -4.00753 0
M  V30 4677 H 451.11 0.815253 -3.8486 0
M  V30 4678 H 453.125 1.81627 -4.61764 0
M  V30 4679 N 452.299 1.55045 -0.282633 0
M  V30 4680 C 453.524 2.04628 0.337977 0
M  V30 4681 C 453.949 1.15937 1.48123 0
M  V30 4682 O 453.307 0.159532 1.80597 0
M  V30 4683 C 453.355 3.51854 0.78936 0
M  V30 4684 O 452.459 3.66236 1.89592 0
M  V30 4685 H 451.8 0.660434 0.0687261 0
M  V30 4686 H 454.33 2.00261 -0.419124 0
M  V30 4687 H 454.34 3.93361 1.08311 0
M  V30 4688 H 453.015 4.15873 -0.0470419 0
M  V30 4689 H 451.592 3.36633 1.60413 0
M  V30 4690 N 453.777 0.010035 1.57597 0
M  V30 4691 C 455.026 -0.671945 1.90178 0
M  V30 4692 C 455.339 -1.74376 0.886131 0
M  V30 4693 O 456.545 -2.48107 1.10252 0
M  V30 4694 C 455.001 -1.24636 3.3763 0
M  V30 4695 C 454.609 -0.208838 4.47513 0
M  V30 4696 C 456.353 -1.90595 3.79307 0
M  V30 4697 C 454.26 -0.793814 5.86048 0
M  V30 4698 H 453.19 -0.25474 0.709665 0
M  V30 4699 H 455.841 0.0722206 1.83358 0
M  V30 4700 H 454.223 -2.04152 3.3932 0
M  V30 4701 H 455.397 0.562463 4.57354 0
M  V30 4702 H 453.712 0.350889 4.14919 0
M  V30 4703 H 456.309 -2.35284 4.80151 0
M  V30 4704 H 456.652 -2.74074 3.13352 0
M  V30 4705 H 457.185 -1.17798 3.79958 0
M  V30 4706 H 453.924 0.00240855 6.555 0
M  V30 4707 H 453.444 -1.53404 5.79851 0
M  V30 4708 H 455.123 -1.2894 6.34022 0
M  V30 4709 N 455.255 -1.55392 -0.262866 0
M  V30 4710 C 456.485 -1.80251 -1.00961 0
M  V30 4711 C 456.893 -0.58117 -1.80053 0
M  V30 4712 O 456.236 0.459427 -1.77862 0
M  V30 4713 C 456.298 -2.98207 -2.00781 0
M  V30 4714 C 455.962 -4.34856 -1.40533 0
M  V30 4715 C 456.959 -5.13459 -0.815853 0
M  V30 4716 C 454.644 -4.8153 -1.42948 0
M  V30 4717 C 456.638 -6.36875 -0.258562 0
M  V30 4718 C 454.325 -6.04899 -0.868334 0
M  V30 4719 C 455.323 -6.8241 -0.283884 0
M  V30 4720 O 455.011 -8.03451 0.268644 0
M  V30 4721 H 454.743 -0.604049 -0.303482 0
M  V30 4722 H 457.297 -2.03257 -0.295926 0
M  V30 4723 H 455.527 -2.70917 -2.75936 0
M  V30 4724 H 457.216 -3.10299 -2.61667 0
M  V30 4725 H 457.982 -4.78526 -0.789812 0
M  V30 4726 H 453.861 -4.21201 -1.87378 0
M  V30 4727 H 457.405 -6.97318 0.198257 0
M  V30 4728 H 453.302 -6.39312 -0.891649 0
M  V30 4729 H 454.07 -8.18346 0.158974 0
M  V30 4730 N 456.733 0.527833 -1.48498 0
M  V30 4731 C 457.665 1.6482 -1.5927 0
M  V30 4732 C 458.678 1.55659 -0.476869 0
M  V30 4733 O 459.867 1.62081 -0.747806 0
M  V30 4734 C 456.967 3.0348 -1.50842 0
M  V30 4735 C 456.14 3.381 -2.77502 0
M  V30 4736 C 455.199 4.5605 -2.62497 0
M  V30 4737 O 454.225 4.59165 -3.36387 0
M  V30 4738 N 455.427 5.54353 -1.72257 0
M  V30 4739 H 458.192 1.56015 -2.55889 0
M  V30 4740 H 455.753 0.715152 -1.45249 0
M  V30 4741 H 457.745 3.80264 -1.38496 0
M  V30 4742 H 456.315 3.06352 -0.621887 0
M  V30 4743 H 455.535 2.50473 -3.04396 0
M  V30 4744 H 456.823 3.58017 -3.61527 0
M  V30 4745 H 456.221 5.54617 -1.11431 0
M  V30 4746 H 454.778 6.30347 -1.65849 0
M  V30 4747 N 458.211 1.37122 0.776871 0
M  V30 4748 C 459.459 1.31787 1.53221 0
M  V30 4749 C 459.78 -0.0987589 1.9475 0
M  V30 4750 O 459.05 -1.0417 1.65908 0
M  V30 4751 H 457.63 0.484839 0.568278 0
M  V30 4752 H 460.292 1.71556 0.924917 0
M  V30 4753 H 459.388 1.95355 2.43398 0
M  V30 4754 N 459.689 -1.00246 1.21608 0
M  V30 4755 C 460.639 -2.07492 0.945051 0
M  V30 4756 C 461.623 -1.60585 -0.100675 0
M  V30 4757 O 462.815 -1.76667 0.10859 0
M  V30 4758 C 459.944 -3.39425 0.514342 0
M  V30 4759 C 459.03 -3.92993 1.59428 0
M  V30 4760 N 459.421 -4.19898 2.81991 0
M  V30 4761 C 457.719 -4.21297 1.46374 0
M  V30 4762 C 458.42 -4.63297 3.51754 0
M  V30 4763 N 457.396 -4.66421 2.79199 0
M  V30 4764 H 461.198 -2.26222 1.87619 0
M  V30 4765 H 458.712 -1.18339 1.11219 0
M  V30 4766 H 460.709 -4.15808 0.301527 0
M  V30 4767 H 459.369 -3.22101 -0.410008 0
M  V30 4768 H 460.38 -4.08377 3.1851 0
M  V30 4769 H 457.057 -4.13095 0.604863 0
M  V30 4770 H 458.447 -4.92816 4.56708 0
M  V30 4771 N 461.167 -1.02423 -1.1978 0
M  V30 4772 C 462.416 -0.713265 -1.88667 0
M  V30 4773 C 462.729 0.7609 -1.80193 0
M  V30 4774 O 463.935 1.18473 -2.44288 0
M  V30 4775 C 462.391 -1.22545 -3.38394 0
M  V30 4776 C 461.999 -2.72706 -3.55437 0
M  V30 4777 C 463.743 -0.990257 -4.12788 0
M  V30 4778 C 461.65 -3.17367 -4.99031 0
M  V30 4779 H 460.58 -0.263105 -0.706606 0
M  V30 4780 H 463.231 -1.23792 -1.35454 0
M  V30 4781 H 461.613 -0.628732 -3.90977 0
M  V30 4782 H 462.787 -3.37993 -3.13205 0
M  V30 4783 H 461.102 -2.94453 -2.94425 0
M  V30 4784 H 463.699 -1.29926 -5.18675 0
M  V30 4785 H 464.042 0.0730761 -4.16236 0
M  V30 4786 H 464.575 -1.55074 -3.66329 0
M  V30 4787 H 461.314 -4.23009 -5.00743 0
M  V30 4788 H 460.834 -2.56805 -5.42044 0
M  V30 4789 H 462.513 -3.10441 -5.67658 0
M  V30 4790 N 462.645 1.35699 -0.801477 0
M  V30 4791 C 463.873 2.03157 -0.391768 0
M  V30 4792 C 464.288 1.60412 0.995668 0
M  V30 4793 O 463.645 0.799228 1.64069 0
M  V30 4794 C 463.696 3.58566 -0.459671 0
M  V30 4795 O 463.417 3.99756 -1.7924 0
M  V30 4796 C 464.918 4.4328 -0.0421205 0
M  V30 4797 H 462.138 0.651688 -0.159825 0
M  V30 4798 H 464.682 1.73426 -1.08368 0
M  V30 4799 H 462.837 3.86963 0.183939 0
M  V30 4800 H 463.251 4.94387 -1.75162 0
M  V30 4801 H 464.725 5.51821 -0.140754 0
M  V30 4802 H 465.202 4.27383 1.01196 0
M  V30 4803 H 465.808 4.20168 -0.658687 0
M  V30 4804 N 464.123 0.554532 1.47522 0
M  V30 4805 C 465.371 0.0294208 2.02079 0
M  V30 4806 C 465.692 -1.32411 1.43151 0
M  V30 4807 O 464.962 -1.863 0.605728 0
M  V30 4808 H 463.542 0.00788672 0.746958 0
M  V30 4809 H 466.204 0.723934 1.80956 0
M  V30 4810 H 465.3 -0.0606745 3.12041 0
M  V30 4811 N 465.601 -1.54893 0.290851 0
M  V30 4812 C 466.551 -2.19838 -0.604599 0
M  V30 4813 C 467.535 -1.16805 -1.10659 0
M  V30 4814 O 468.727 -1.42562 -1.04905 0
M  V30 4815 C 465.856 -2.93497 -1.78086 0
M  V30 4816 C 464.942 -4.03835 -1.29531 0
M  V30 4817 N 465.333 -5.03047 -0.527024 0
M  V30 4818 C 463.631 -4.17192 -1.57693 0
M  V30 4819 C 464.332 -5.81074 -0.269728 0
M  V30 4820 N 463.308 -5.36966 -0.846651 0
M  V30 4821 H 467.11 -2.93898 -0.00995032 0
M  V30 4822 H 464.624 -1.62121 0.0951353 0
M  V30 4823 H 466.621 -3.38484 -2.43381 0
M  V30 4824 H 465.281 -2.2095 -2.37931 0
M  V30 4825 H 466.292 -5.17611 -0.172872 0
M  V30 4826 H 462.969 -3.55845 -2.18359 0
M  V30 4827 H 464.359 -6.71005 0.346643 0
M  V30 4828 N 467.08 -0.0183926 -1.57589 0
M  V30 4829 C 468.496 0.337897 -1.55982 0
M  V30 4830 C 468.696 1.73604 -1.02294 0
M  V30 4831 O 467.752 2.43589 -0.664895 0
M  V30 4832 C 469.065 0.196305 -3.00059 0
M  V30 4833 C 470.613 0.269875 -3.11834 0
M  V30 4834 C 471.088 0.157197 -4.5773 0
M  V30 4835 N 472.579 0.214521 -4.62703 0
M  V30 4836 C 473.314 0.150955 -5.73201 0
M  V30 4837 N 472.81 0.0369212 -6.9279 0
M  V30 4838 N 474.603 0.204162 -5.61729 0
M  V30 4839 H 466.754 -0.93279 -1.90821 0
M  V30 4840 H 469.017 -0.359253 -0.877292 0
M  V30 4841 H 468.723 -0.766383 -3.43248 0
M  V30 4842 H 468.597 0.970908 -3.6449 0
M  V30 4843 H 470.984 1.22302 -2.68563 0
M  V30 4844 H 471.065 -0.534918 -2.50144 0
M  V30 4845 H 470.709 -0.792479 -5.01679 0
M  V30 4846 H 470.639 0.980717 -5.17387 0
M  V30 4847 H 473.13 0.303238 -3.76681 0
M  V30 4848 H 473.443 -0.00518321 -7.728 0
M  V30 4849 H 471.788 0.0022886 -6.95 0
M  V30 4850 H 474.979 0.291575 -4.67191 0
M  V30 4851 H 475.152 0.15116 -6.47824 0
M  V30 4852 N 468.558 1.5553 0.254621 0
M  V30 4853 C 469.491 1.84624 1.34124 0
M  V30 4854 C 470.469 0.700693 1.46728 0
M  V30 4855 O 471.653 0.94564 1.63064 0
M  V30 4856 C 468.78 2.02412 2.71564 0
M  V30 4857 C 467.826 3.25028 2.7615 0
M  V30 4858 S 468.659 4.81893 2.33538 0
M  V30 4859 C 469.815 5.02677 3.72917 0
M  V30 4860 H 470.048 2.76501 1.09245 0
M  V30 4861 H 467.581 1.47537 0.455211 0
M  V30 4862 H 469.539 2.13345 3.50705 0
M  V30 4863 H 468.2 1.11391 2.93685 0
M  V30 4864 H 467.393 3.34418 3.77069 0
M  V30 4865 H 466.995 3.12781 2.05046 0
M  V30 4866 H 469.287 4.89546 4.68349 0
M  V30 4867 H 470.23 6.0468 3.68467 0
M  V30 4868 H 470.638 4.30561 3.65072 0
M  V30 4869 N 470.036 -0.519951 1.48776 0
M  V30 4870 C 470.999 -1.60574 1.6355 0
M  V30 4871 C 471.999 -1.52557 0.508234 0
M  V30 4872 O 473.189 -1.56047 0.774262 0
M  V30 4873 C 470.321 -3.00211 1.61512 0
M  V30 4874 H 471.514 -1.4881 2.60376 0
M  V30 4875 H 469.067 -0.742772 1.37523 0
M  V30 4876 H 469.802 -3.17471 0.662009 0
M  V30 4877 H 469.587 -3.07439 2.43359 0
M  V30 4878 H 471.077 -3.79134 1.75064 0
M  V30 4879 N 471.514 -1.37532 -0.769588 0
M  V30 4880 C 472.76 -1.34063 -1.52966 0
M  V30 4881 C 473.115 0.0737942 -1.92258 0
M  V30 4882 O 472.408 1.03291 -1.61374 0
M  V30 4883 C 472.602 -2.21558 -2.8044 0
M  V30 4884 C 472.431 -3.71367 -2.53608 0
M  V30 4885 C 471.201 -4.40464 -2.47628 0
M  V30 4886 C 473.399 -4.64177 -2.21459 0
M  V30 4887 N 471.381 -5.758 -2.12902 0
M  V30 4888 C 472.752 -5.87907 -1.9689 0
M  V30 4889 C 474.807 -4.52541 -2.07633 0
M  V30 4890 C 473.51 -7.01304 -1.59892 0
M  V30 4891 C 475.536 -5.65825 -1.72034 0
M  V30 4892 C 474.898 -6.88606 -1.48327 0
M  V30 4893 H 470.997 -0.545856 -0.559969 0
M  V30 4894 H 473.581 -1.72773 -0.897634 0
M  V30 4895 H 471.752 -1.85061 -3.41478 0
M  V30 4896 H 473.484 -2.09332 -3.46356 0
M  V30 4897 H 470.239 -3.93491 -2.63556 0
M  V30 4898 H 470.663 -6.47328 -1.9823 0
M  V30 4899 H 475.305 -3.58183 -2.24643 0
M  V30 4900 H 473.023 -7.95594 -1.4162 0
M  V30 4901 H 476.609 -5.58793 -1.61991 0
M  V30 4902 H 475.489 -7.74779 -1.21189 0
M  V30 4903 N 472.992 0.995999 -1.22138 0
M  V30 4904 C 474.269 1.70834 -0.952642 0
M  V30 4905 C 474.649 2.04257 0.533119 0
M  V30 4906 O 473.997 1.72343 1.50034 0
M  V30 4907 C 474.207 2.96119 -1.84701 0
M  V30 4908 C 475.555 3.68962 -2.10124 0
M  V30 4909 O 476.579 3.0612 -1.82124 0
M  V30 4910 O 475.438 4.82017 -2.57531 0
M  V30 4911 H 472.532 0.745498 -0.357997 0
M  V30 4912 H 475.078 1.05262 -1.33109 0
M  V30 4913 H 473.85 2.67898 -2.85213 0
M  V30 4914 H 473.473 3.6943 -1.46995 0
M  V30 4915 N 474.47 1.03057 1.19235 0
M  V30 4916 C 475.403 0.557384 2.21288 0
M  V30 4917 C 476.381 -0.402675 1.57535 0
M  V30 4918 O 477.565 -0.319376 1.85775 0
M  V30 4919 C 474.692 -0.187041 3.38183 0
M  V30 4920 C 473.738 0.72471 4.20298 0
M  V30 4921 S 474.571 2.20187 4.88137 0
M  V30 4922 C 475.727 1.46801 6.08441 0
M  V30 4923 H 475.96 1.42207 2.61083 0
M  V30 4924 H 473.493 0.840651 1.29508 0
M  V30 4925 H 475.451 -0.610405 4.05936 0
M  V30 4926 H 474.112 -1.02748 2.96819 0
M  V30 4927 H 473.305 0.149911 5.03777 0
M  V30 4928 H 472.907 1.08647 3.57871 0
M  V30 4929 H 475.199 0.755522 6.73274 0
M  V30 4930 H 476.142 2.27946 6.70407 0
M  V30 4931 H 476.55 0.964762 5.56195 0
M  V30 4932 N 475.948 -1.35272 0.808662 0
M  V30 4933 C 476.881 -2.27595 0.165994 0
M  V30 4934 C 477.859 -1.48189 -0.669241 0
M  V30 4935 O 479.043 -1.77444 -0.636073 0
M  V30 4936 C 476.17 -3.29843 -0.769505 0
M  V30 4937 C 475.216 -4.26498 -0.0136267 0
M  V30 4938 S 476.049 -5.18878 1.32384 0
M  V30 4939 C 477.205 -6.24666 0.392838 0
M  V30 4940 H 477.438 -2.81755 0.948756 0
M  V30 4941 H 474.971 -1.42103 0.603828 0
M  V30 4942 H 476.929 -3.89247 -1.30374 0
M  V30 4943 H 475.59 -2.74558 -1.52567 0
M  V30 4944 H 474.783 -4.98769 -0.724227 0
M  V30 4945 H 474.385 -3.71274 0.450713 0
M  V30 4946 H 476.677 -6.7619 -0.4211 0
M  V30 4947 H 477.62 -6.99741 1.0848 0
M  V30 4948 H 478.028 -5.64499 -0.0123908 0
M  V30 4949 N 477.426 -0.562348 -1.47226 0
M  V30 4950 C 478.356 0.170627 -2.32876 0
M  V30 4951 C 479.337 0.903748 -1.44106 0
M  V30 4952 O 480.522 0.883206 -1.72954 0
M  V30 4953 C 477.652 1.19786 -3.25989 0
M  V30 4954 C 476.606 0.580875 -4.2404 0
M  V30 4955 C 475.932 1.71311 -5.06514 0
M  V30 4956 C 477.232 -0.468714 -5.20193 0
M  V30 4957 H 478.926 -0.544441 -2.94408 0
M  V30 4958 H 476.472 -0.263271 -1.41573 0
M  V30 4959 H 478.425 1.71884 -3.84752 0
M  V30 4960 H 477.149 1.94294 -2.62521 0
M  V30 4961 H 475.808 0.0811538 -3.6651 0
M  V30 4962 H 475.456 2.44736 -4.39447 0
M  V30 4963 H 475.156 1.30604 -5.72902 0
M  V30 4964 H 476.68 2.23725 -5.68137 0
M  V30 4965 H 478.094 -0.0336028 -5.7329 0
M  V30 4966 H 476.491 -0.794957 -5.94811 0
M  V30 4967 H 477.561 -1.36269 -4.65359 0
M  V30 4968 N 478.904 1.54736 -0.299062 0
M  V30 4969 C 480.129 2.04975 0.316254 0
M  V30 4970 C 480.554 1.17501 1.46885 0
M  V30 4971 O 479.912 0.178678 1.80417 0
M  V30 4972 C 479.96 3.52672 0.751997 0
M  V30 4973 O 479.064 3.68226 1.85697 0
M  V30 4974 H 478.405 0.661126 0.0617175 0
M  V30 4975 H 480.935 1.99805 -0.440341 0
M  V30 4976 H 480.945 3.94488 1.04133 0
M  V30 4977 H 479.62 4.158 -0.0911482 0
M  V30 4978 H 478.197 3.38316 1.56834 0
M  V30 4979 N 480.382 0.0267497 1.57577 0
M  V30 4980 C 481.628 -0.647596 1.92815 0
M  V30 4981 C 481.983 -1.69872 0.903396 0
M  V30 4982 O 481.276 -1.91429 -0.0808881 0
M  V30 4983 C 481.47 -1.30914 3.3256 0
M  V30 4984 C 481.299 -0.323621 4.48534 0
M  V30 4985 C 480.069 0.0756607 5.05243 0
M  V30 4986 C 482.267 0.42112 5.12573 0
M  V30 4987 N 480.249 1.0566 6.04739 0
M  V30 4988 C 481.62 1.25589 6.07147 0
M  V30 4989 C 483.675 0.482077 4.95561 0
M  V30 4990 C 482.378 2.1461 6.86538 0
M  V30 4991 C 484.404 1.35962 5.75559 0
M  V30 4992 C 483.766 2.18217 6.69747 0
M  V30 4993 H 479.865 -0.209357 0.753454 0
M  V30 4994 H 482.449 0.0933695 1.94476 0
M  V30 4995 H 480.62 -2.02026 3.31723 0
M  V30 4996 H 482.352 -1.94033 3.55153 0
M  V30 4997 H 479.107 -0.298294 4.7266 0
M  V30 4998 H 479.531 1.54324 6.59176 0
M  V30 4999 H 484.173 -0.139609 4.22569 0
M  V30 5000 H 481.891 2.77835 7.58837 0
M  V30 5001 H 485.477 1.41105 5.6443 0
M  V30 5002 H 484.357 2.85022 7.3057 0
M  V30 5003 N 481.861 -1.55662 -0.24637 0
M  V30 5004 C 483.086 -1.81914 -0.996093 0
M  V30 5005 C 483.511 -0.603875 -1.78143 0
M  V30 5006 O 482.869 0.447091 -1.75701 0
M  V30 5007 C 482.917 -3.05908 -1.90925 0
M  V30 5008 O 482.021 -2.82861 -3.00105 0
M  V30 5009 H 481.362 -0.600481 -0.283406 0
M  V30 5010 H 483.892 -2.02848 -0.267199 0
M  V30 5011 H 483.902 -3.35356 -2.3238 0
M  V30 5012 H 482.577 -3.93999 -1.33183 0
M  V30 5013 H 481.154 -2.64583 -2.62775 0
M  V30 5014 N 483.339 0.512053 -1.4905 0
M  V30 5015 C 484.75 1.09376 -1.51307 0
M  V30 5016 C 485.101 1.94 -0.292971 0
M  V30 5017 O 484.226 2.07965 0.598277 0
M  V30 5018 C 484.821 1.99031 -2.74176 0
M  V30 5019 C 483.38 2.52385 -2.79247 0
M  V30 5020 C 482.527 1.29749 -2.45073 0
M  V30 5021 H 485.478 0.296467 -1.55906 0
M  V30 5022 H 485.499 2.83569 -2.53711 0
M  V30 5023 H 485.011 1.37412 -3.62959 0
M  V30 5024 H 483.112 3.17673 -1.94716 0
M  V30 5025 H 483.225 2.90293 -3.81139 0
M  V30 5026 H 481.589 1.61912 -1.96612 0
M  V30 5027 H 482.372 0.698555 -3.36118 0
M  V30 5028 N 484.817 1.37938 0.762283 0
M  V30 5029 C 486.045 1.36883 1.55147 0
M  V30 5030 C 486.46 -0.0435348 1.8875 0
M  V30 5031 O 485.817 -1.00786 1.52146 0
M  V30 5032 C 485.868 2.21624 2.85596 0
M  V30 5033 O 485.589 3.57358 2.5343 0
M  V30 5034 C 487.09 2.28653 3.7978 0
M  V30 5035 H 484.31 0.468521 0.480343 0
M  V30 5036 H 486.854 1.81404 0.944079 0
M  V30 5037 H 485.009 1.80588 3.42734 0
M  V30 5038 H 485.423 4.01883 3.37032 0
M  V30 5039 H 486.897 2.9225 4.68288 0
M  V30 5040 H 487.374 1.29767 4.19592 0
M  V30 5041 H 487.98 2.70043 3.28568 0
M  V30 5042 N 486.295 -0.989507 1.22664 0
M  V30 5043 C 487.225 -2.09847 1.02404 0
M  V30 5044 C 488.206 -1.70007 -0.0561303 0
M  V30 5045 O 489.391 -1.93906 0.106748 0
M  V30 5046 C 486.521 -3.41996 0.604663 0
M  V30 5047 C 485.475 -3.95699 1.63115 0
M  V30 5048 C 484.801 -5.23936 1.0675 0
M  V30 5049 C 486.101 -4.25999 3.02196 0
M  V30 5050 H 487.795 -2.27054 1.95158 0
M  V30 5051 H 485.341 -1.09111 0.939727 0
M  V30 5052 H 487.294 -4.1899 0.45002 0
M  V30 5053 H 486.018 -3.24626 -0.35855 0
M  V30 5054 H 484.677 -3.2084 1.77362 0
M  V30 5055 H 484.325 -5.02909 0.0955422 0
M  V30 5056 H 484.025 -5.60833 1.75328 0
M  V30 5057 H 485.549 -6.0356 0.924516 0
M  V30 5058 H 486.963 -4.93777 2.91303 0
M  V30 5059 H 485.36 -4.74076 3.67929 0
M  V30 5060 H 486.43 -3.33636 3.51873 0
M  V30 5061 N 487.773 -1.03688 -1.18687 0
M  V30 5062 C 489.001 -0.757918 -1.92518 0
M  V30 5063 C 489.416 0.684398 -1.75959 0
M  V30 5064 O 488.773 1.46617 -1.08673 0
M  V30 5065 C 488.824 -1.10985 -3.44042 0
M  V30 5066 O 488.545 -2.49554 -3.60076 0
M  V30 5067 C 490.046 -0.854844 -4.3498 0
M  V30 5068 H 487.266 -0.276699 -0.611293 0
M  V30 5069 H 489.81 -1.38352 -1.50595 0
M  V30 5070 H 487.965 -0.529279 -3.83767 0
M  V30 5071 H 488.379 -2.6291 -4.53849 0
M  V30 5072 H 489.853 -1.15098 -5.39867 0
M  V30 5073 H 490.33 0.210507 -4.38695 0
M  V30 5074 H 490.936 -1.41853 -4.00946 0
M  V30 5075 N 489.251 1.34841 -0.815825 0
M  V30 5076 C 490.184 2.27504 -0.178062 0
M  V30 5077 C 491.162 1.48542 0.661373 0
M  V30 5078 O 492.346 1.77779 0.626653 0
M  V30 5079 C 489.473 3.30246 0.752002 0
M  V30 5080 C 488.519 4.26499 -0.00899172 0
M  V30 5081 S 489.352 5.18169 -1.35134 0
M  V30 5082 C 490.508 6.24449 -0.42596 0
M  V30 5083 H 490.741 2.81248 -0.963684 0
M  V30 5084 H 488.274 1.41781 -0.611355 0
M  V30 5085 H 490.232 3.89933 1.28308 0
M  V30 5086 H 488.893 2.75363 1.51109 0
M  V30 5087 H 488.086 4.99146 0.697766 0
M  V30 5088 H 487.688 3.7103 -0.470396 0
M  V30 5089 H 489.98 6.76404 0.385234 0
M  V30 5090 H 490.923 6.99156 -1.1219 0
M  V30 5091 H 491.331 5.64497 -0.0175461 0
M  V30 5092 N 490.729 0.570148 1.46925 0
M  V30 5093 C 491.978 0.0487352 2.01641 0
M  V30 5094 C 492.291 -1.31433 1.44861 0
M  V30 5095 O 493.497 -1.92638 1.91318 0
M  V30 5096 C 491.953 0.0365817 3.59881 0
M  V30 5097 C 491.561 1.39719 4.25655 0
M  V30 5098 C 493.305 -0.431545 4.22301 0
M  V30 5099 C 491.212 1.34345 5.75939 0
M  V30 5100 H 490.142 0.0144492 0.753862 0
M  V30 5101 H 492.793 0.719928 1.68788 0
M  V30 5102 H 491.175 -0.700522 3.89755 0
M  V30 5103 H 492.349 2.15303 4.07408 0
M  V30 5104 H 490.664 1.80431 3.75278 0
M  V30 5105 H 493.261 -0.490354 5.32447 0
M  V30 5106 H 493.604 -1.44638 3.90366 0
M  V30 5107 H 494.137 0.251102 3.97007 0
M  V30 5108 H 490.876 2.33469 6.12513 0
M  V30 5109 H 490.396 0.629615 5.96486 0
M  V30 5110 H 492.075 1.051 6.38407 0
M  V30 5111 N 492.207 -1.54576 0.307264 0
M  V30 5112 C 493.137 -2.26708 -0.55907 0
M  V30 5113 C 494.118 -1.26893 -1.1328 0
M  V30 5114 O 495.303 -1.55677 -1.16097 0
M  V30 5115 C 492.433 -3.01259 -1.72801 0
M  V30 5116 C 491.387 -4.08275 -1.28435 0
M  V30 5117 C 490.713 -4.70575 -2.53895 0
M  V30 5118 C 492.013 -5.2068 -0.411038 0
M  V30 5119 H 493.707 -2.9937 0.042576 0
M  V30 5120 H 491.253 -1.43983 0.0219173 0
M  V30 5121 H 493.206 -3.50444 -2.34023 0
M  V30 5122 H 491.93 -2.26187 -2.356 0
M  V30 5123 H 490.589 -3.59949 -0.695161 0
M  V30 5124 H 490.237 -3.92136 -3.15021 0
M  V30 5125 H 489.937 -5.42854 -2.24908 0
M  V30 5126 H 491.461 -5.22527 -3.15908 0
M  V30 5127 H 492.875 -5.65721 -0.929097 0
M  V30 5128 H 491.272 -5.99716 -0.214664 0
M  V30 5129 H 492.342 -4.81629 0.562287 0
M  V30 5130 N 493.685 -0.035106 -1.57561 0
M  V30 5131 C 494.648 0.929819 -2.09492 0
M  V30 5132 C 495.648 1.25026 -1.01119 0
M  V30 5133 O 496.838 1.18961 -1.27255 0
M  V30 5134 C 493.97 2.24457 -2.56577 0
M  V30 5135 H 495.163 0.479935 -2.96035 0
M  V30 5136 H 492.716 0.213033 -1.54841 0
M  V30 5137 H 493.451 2.74061 -1.73382 0
M  V30 5138 H 493.236 2.02508 -3.35757 0
M  V30 5139 H 494.726 2.93607 -2.96959 0
M  V30 5140 N 495.163 1.55791 0.238111 0
M  V30 5141 C 496.393 1.81834 0.980809 0
M  V30 5142 C 496.801 0.609741 1.79106 0
M  V30 5143 O 496.144 -0.431073 1.78571 0
M  V30 5144 C 496.206 3.01363 1.96011 0
M  V30 5145 C 495.87 4.37037 1.33597 0
M  V30 5146 C 496.867 5.14692 0.734063 0
M  V30 5147 C 494.552 4.83743 1.3527 0
M  V30 5148 C 496.546 6.37206 0.157208 0
M  V30 5149 C 494.233 6.06204 0.77199 0
M  V30 5150 C 495.231 6.82775 0.175282 0
M  V30 5151 O 494.919 8.02922 -0.396432 0
M  V30 5152 H 494.651 0.6088 0.293834 0
M  V30 5153 H 497.205 2.03702 0.263552 0
M  V30 5154 H 495.435 2.75273 2.71591 0
M  V30 5155 H 497.124 3.14422 2.56697 0
M  V30 5156 H 497.89 4.79722 0.713582 0
M  V30 5157 H 493.769 4.24129 1.80653 0
M  V30 5158 H 497.313 6.96915 -0.30917 0
M  V30 5159 H 493.21 6.4065 0.789828 0
M  V30 5160 H 493.978 8.17989 -0.289145 0
M  V30 5161 N 496.642 -0.504142 1.49319 0
M  V30 5162 C 497.605 -1.5883 1.65244 0
M  V30 5163 C 498.605 -1.52009 0.524386 0
M  V30 5164 O 499.795 -1.55218 0.79077 0
M  V30 5165 C 496.927 -2.98481 1.64687 0
M  V30 5166 H 498.12 -1.4604 2.61939 0
M  V30 5167 H 495.673 -0.728144 1.38303 0
M  V30 5168 H 496.408 -3.16751 0.695644 0
M  V30 5169 H 496.193 -3.0484 2.46607 0
M  V30 5170 H 497.683 -3.77256 1.79075 0
M  V30 5171 N 498.12 -1.38341 -0.754957 0
M  V30 5172 C 499.083 -1.35262 -1.85032 0
M  V30 5173 C 500.083 -0.253393 -1.58791 0
M  V30 5174 O 501.273 -0.510205 -1.66561 0
M  V30 5175 C 498.405 -1.10544 -3.22479 0
M  V30 5176 H 499.598 -2.32712 -1.8917 0
M  V30 5177 H 497.151 -1.23614 -0.956515 0
M  V30 5178 H 497.886 -0.136952 -3.24011 0
M  V30 5179 H 497.671 -1.90127 -3.4292 0
M  V30 5180 H 499.161 -1.11082 -4.02555 0
M  V30 5181 N 499.598 0.982988 -1.23187 0
M  V30 5182 C 501.014 1.2487 -0.993967 0
M  V30 5183 C 501.214 1.99155 0.306498 0
M  V30 5184 O 500.27 2.30688 1.0266 0
M  V30 5185 C 501.583 2.05078 -2.19917 0
M  V30 5186 C 503.131 2.18227 -2.2438 0
M  V30 5187 C 503.606 3.01825 -3.44479 0
M  V30 5188 N 505.097 3.09411 -3.44702 0
M  V30 5189 C 505.832 3.74412 -4.34285 0
M  V30 5190 N 505.328 4.41259 -5.341 0
M  V30 5191 N 507.121 3.71273 -4.22035 0
M  V30 5192 H 499.272 0.485253 -2.06783 0
M  V30 5193 H 501.535 0.276979 -0.906635 0
M  V30 5194 H 501.241 1.57867 -3.14279 0
M  V30 5195 H 501.115 3.05829 -2.2079 0
M  V30 5196 H 503.502 2.64648 -1.30559 0
M  V30 5197 H 503.583 1.16873 -2.2754 0
M  V30 5198 H 503.227 2.56102 -4.38605 0
M  V30 5199 H 503.157 4.03342 -3.38559 0
M  V30 5200 H 505.648 2.61845 -2.7248 0
M  V30 5201 H 505.961 4.88629 -5.98717 0
M  V30 5202 H 504.306 4.39975 -5.38002 0
M  V30 5203 H 507.497 3.18217 -3.43301 0
M  V30 5204 H 507.67 4.21649 -4.92053 0
M  V30 5205 N 501.076 1.04316 1.18135 0
M  V30 5206 C 502.322 0.749128 1.88457 0
M  V30 5207 C 502.655 -0.72149 1.803 0
M  V30 5208 O 501.93 -1.52676 1.205 0
M  V30 5209 C 502.213 1.21905 3.38838 0
M  V30 5210 C 502.066 2.75195 3.55792 0
M  V30 5211 C 503.385 0.811085 4.32561 0
M  V30 5212 H 500.504 0.273611 0.684329 0
M  V30 5213 H 503.146 1.29561 1.38975 0
M  V30 5214 H 501.296 0.754137 3.8111 0
M  V30 5215 H 502.968 3.29743 3.22595 0
M  V30 5216 H 501.211 3.14899 2.98364 0
M  V30 5217 H 501.882 3.03135 4.61317 0
M  V30 5218 H 504.358 1.21118 3.98082 0
M  V30 5219 H 503.234 1.16761 5.36338 0
M  V30 5220 H 503.495 -0.285596 4.41177 0
M  V30 5221 N 502.554 -1.34406 0.822964 0
M  V30 5222 C 503.965 -1.8069 0.469879 0
M  V30 5223 C 504.316 -1.68223 -1.00972 0
M  V30 5224 O 503.441 -1.22226 -1.78577 0
M  V30 5225 C 504.036 -3.28064 0.846118 0
M  V30 5226 C 502.595 -3.72428 0.545402 0
M  V30 5227 C 501.742 -2.56116 1.06301 0
M  V30 5228 H 504.693 -1.22153 1.01313 0
M  V30 5229 H 504.714 -3.80205 0.149922 0
M  V30 5230 H 504.226 -3.37107 1.92304 0
M  V30 5231 H 502.327 -3.68924 -0.522109 0
M  V30 5232 H 502.44 -4.66548 1.0895 0
M  V30 5233 H 500.804 -2.50048 0.484554 0
M  V30 5234 H 501.587 -2.67928 2.14638 0
M  V30 5235 N 504.032 -0.577932 -1.46621 0
M  V30 5236 C 504.942 0.160651 -2.34049 0
M  V30 5237 C 505.958 0.890911 -1.49462 0
M  V30 5238 O 507.134 0.855166 -1.82343 0
M  V30 5239 C 504.199 1.16447 -3.26559 0
M  V30 5240 C 503.26 0.4394 -4.27045 0
M  V30 5241 C 502.493 1.3954 -5.15135 0
M  V30 5242 O 502.716 2.63162 -5.06065 0
M  V30 5243 O 501.65 0.908585 -5.95003 0
M  V30 5244 H 505.476 -0.557057 -2.98547 0
M  V30 5245 H 503.061 -0.338369 -1.45518 0
M  V30 5246 H 504.943 1.7434 -3.83645 0
M  V30 5247 H 503.618 1.86373 -2.64663 0
M  V30 5248 H 502.525 -0.181247 -3.73661 0
M  V30 5249 H 503.858 -0.218799 -4.91713 0
M  V30 5250 N 505.51 1.54411 -0.315457 0
M  V30 5251 C 506.44 2.27002 0.547039 0
M  V30 5252 C 507.421 1.27492 1.12605 0
M  V30 5253 O 508.606 1.5629 1.15269 0
M  V30 5254 C 505.736 3.02171 1.71201 0
M  V30 5255 C 504.69 4.0895 1.26268 0
M  V30 5256 C 504.016 4.71915 2.51396 0
M  V30 5257 C 505.316 5.20891 0.383419 0
M  V30 5258 H 507.01 2.99343 -0.0584517 0
M  V30 5259 H 504.556 1.4397 -0.0295527 0
M  V30 5260 H 506.509 3.51681 2.32161 0
M  V30 5261 H 505.233 2.27433 2.34397 0
M  V30 5262 H 503.892 3.60312 0.676062 0
M  V30 5263 H 503.54 3.93801 3.12937 0
M  V30 5264 H 503.24 5.44039 2.22026 0
M  V30 5265 H 504.764 5.24195 3.13133 0
M  V30 5266 H 506.178 5.66206 0.899082 0
M  V30 5267 H 504.575 5.99821 0.182857 0
M  V30 5268 H 505.645 4.81324 -0.587821 0
M  V30 5269 N 506.988 0.0434614 1.5754 0
M  V30 5270 C 508.234 -0.632971 1.92669 0
M  V30 5271 C 508.567 -1.70947 0.921446 0
M  V30 5272 O 507.842 -1.94426 -0.0537202 0
M  V30 5273 C 508.125 -1.23619 3.38216 0
M  V30 5274 C 507.978 -0.168274 4.49485 0
M  V30 5275 C 509.297 -2.15008 3.84005 0
M  V30 5276 H 506.416 -0.228629 0.700641 0
M  V30 5277 H 509.058 0.103651 1.89717 0
M  V30 5278 H 507.208 -1.864 3.40863 0
M  V30 5279 H 508.88 0.463196 4.58969 0
M  V30 5280 H 507.123 0.504581 4.30855 0
M  V30 5281 H 507.794 -0.630218 5.48391 0
M  V30 5282 H 510.27 -1.62198 3.83185 0
M  V30 5283 H 509.146 -2.54161 4.86511 0
M  V30 5284 H 509.407 -3.04707 3.20322 0
M  V30 5285 N 508.466 -1.55915 -0.229846 0
M  V30 5286 C 509.396 -1.94754 -1.28815 0
M  V30 5287 C 510.377 -0.814657 -1.49323 0
M  V30 5288 O 511.562 -1.07631 -1.61645 0
M  V30 5289 C 508.692 -2.25705 -2.63959 0
M  V30 5290 C 507.646 -3.41406 -2.5812 0
M  V30 5291 C 506.972 -3.57941 -3.97218 0
M  V30 5292 C 508.272 -4.76616 -2.13623 0
M  V30 5293 H 509.966 -2.83404 -0.965547 0
M  V30 5294 H 507.512 -1.36353 -0.463028 0
M  V30 5295 H 509.465 -2.51467 -3.38146 0
M  V30 5296 H 508.189 -1.339 -2.9789 0
M  V30 5297 H 506.848 -3.1568 -1.86391 0
M  V30 5298 H 506.496 -2.63526 -4.28443 0
M  V30 5299 H 506.196 -4.35757 -3.94195 0
M  V30 5300 H 507.72 -3.86042 -4.73079 0
M  V30 5301 H 509.134 -5.01637 -2.77549 0
M  V30 5302 H 507.531 -5.57655 -2.21677 0
M  V30 5303 H 508.601 -4.7253 -1.08829 0
M  V30 5304 N 509.944 0.496216 -1.49584 0
M  V30 5305 C 510.854 1.62352 -1.69349 0
M  V30 5306 C 511.87 1.64184 -0.576147 0
M  V30 5307 O 513.046 1.82517 -0.85144 0
M  V30 5308 C 510.111 2.98698 -1.76013 0
M  V30 5309 C 509.172 3.07454 -2.99617 0
M  V30 5310 C 508.405 4.37296 -3.05953 0
M  V30 5311 O 508.628 5.2637 -2.19752 0
M  V30 5312 O 507.562 4.51124 -3.9846 0
M  V30 5313 H 511.388 1.48606 -2.64859 0
M  V30 5314 H 508.973 0.673022 -1.33382 0
M  V30 5315 H 510.855 3.79725 -1.82721 0
M  V30 5316 H 509.53 3.12696 -0.836828 0
M  V30 5317 H 508.437 2.25597 -2.98424 0
M  V30 5318 H 509.77 2.98385 -3.91443 0
M  V30 5319 N 511.423 1.38739 0.74761 0
M  V30 5320 C 512.672 1.3459 1.50228 0
M  V30 5321 C 512.985 -0.0595592 1.95509 0
M  V30 5322 O 514.191 -0.22361 2.70578 0
M  V30 5323 C 512.647 2.36377 2.71393 0
M  V30 5324 C 512.255 3.82573 2.33113 0
M  V30 5325 C 513.999 2.41281 3.49262 0
M  V30 5326 C 511.906 4.76032 3.50924 0
M  V30 5327 H 510.836 0.500312 0.564096 0
M  V30 5328 H 513.487 1.64324 0.8167 0
M  V30 5329 H 511.869 1.99694 3.41962 0
M  V30 5330 H 513.043 4.28227 1.70171 0
M  V30 5331 H 511.358 3.80844 1.68365 0
M  V30 5332 H 513.955 3.08301 4.36869 0
M  V30 5333 H 514.298 1.43353 3.9084 0
M  V30 5334 H 514.831 2.76793 2.85711 0
M  V30 5335 H 511.57 5.75177 3.14408 0
M  V30 5336 H 511.09 4.35066 4.12889 0
M  V30 5337 H 512.769 4.94331 4.17427 0
M  V30 5338 N 512.901 -0.976442 1.23707 0
M  V30 5339 C 514.15 -1.71254 1.06559 0
M  V30 5340 C 514.463 -1.91528 -0.397024 0
M  V30 5341 O 515.669 -2.62625 -0.688518 0
M  V30 5342 C 514.125 -3.08207 1.8584 0
M  V30 5343 C 513.733 -2.95806 3.36456 0
M  V30 5344 C 515.477 -3.85749 1.77194 0
M  V30 5345 C 513.384 -4.28015 4.08114 0
M  V30 5346 H 512.314 -0.642171 0.395136 0
M  V30 5347 H 514.965 -1.08877 1.4771 0
M  V30 5348 H 513.347 -3.71363 1.37498 0
M  V30 5349 H 514.521 -2.41716 3.92314 0
M  V30 5350 H 512.836 -2.31736 3.45959 0
M  V30 5351 H 515.433 -4.83633 2.28041 0
M  V30 5352 H 515.776 -4.09752 0.735477 0
M  V30 5353 H 516.309 -3.29303 2.23169 0
M  V30 5354 H 513.048 -4.09208 5.12083 0
M  V30 5355 H 512.568 -4.81955 3.57043 0
M  V30 5356 H 514.247 -4.96681 4.14629 0
M  V30 5357 N 514.379 -1.04941 -1.1758 0
M  V30 5358 C 515.626 -0.757989 -1.87779 0
M  V30 5359 C 515.954 0.714827 -1.80888 0
M  V30 5360 O 515.209 1.53824 -1.20982 0
M  V30 5361 C 515.508 -1.18062 -3.37337 0
M  V30 5362 C 515.174 -2.65521 -3.6443 0
M  V30 5363 C 513.836 -3.05804 -3.71534 0
M  V30 5364 C 516.188 -3.60822 -3.76108 0
M  V30 5365 C 513.516 -4.40256 -3.87803 0
M  V30 5366 C 515.868 -4.95005 -3.93895 0
M  V30 5367 C 514.532 -5.34945 -3.99237 0
M  V30 5368 H 513.802 -0.277368 -0.68713 0
M  V30 5369 H 516.449 -1.31603 -1.39115 0
M  V30 5370 H 514.754 -0.541525 -3.8804 0
M  V30 5371 H 516.451 -0.932368 -3.9001 0
M  V30 5372 H 513.041 -2.33324 -3.59524 0
M  V30 5373 H 517.225 -3.30841 -3.69943 0
M  V30 5374 H 512.481 -4.70707 -3.90186 0
M  V30 5375 H 516.655 -5.68746 -4.01872 0
M  V30 5376 H 514.282 -6.39135 -4.11596 0
M  V30 5377 N 515.857 1.33968 -0.830081 0
M  V30 5378 C 517.105 1.97672 -0.420734 0
M  V30 5379 C 517.426 1.66111 1.02138 0
M  V30 5380 O 516.696 0.955503 1.71017 0
M  V30 5381 H 515.276 0.73125 -0.152587 0
M  V30 5382 H 517.938 1.63483 -1.0611 0
M  V30 5383 H 517.034 3.07294 -0.545588 0
M  V30 5384 N 517.335 0.585699 1.46312 0
M  V30 5385 C 518.583 0.072278 2.01971 0
M  V30 5386 C 518.904 -1.29345 1.45928 0
M  V30 5387 O 518.174 -1.84973 0.645109 0
M  V30 5388 H 516.754 0.023729 0.746623 0
M  V30 5389 H 519.416 0.762155 1.7938 0
M  V30 5390 H 518.512 0.00552767 3.121 0
M  V30 5391 N 518.813 -1.54241 0.323641 0
M  V30 5392 C 519.763 -2.21071 -0.557833 0
M  V30 5393 C 520.747 -1.19126 -1.08157 0
M  V30 5394 O 521.939 -1.44755 -1.01857 0
M  V30 5395 C 519.068 -2.97208 -1.71821 0
M  V30 5396 C 518.154 -4.06491 -1.20936 0
M  V30 5397 N 518.545 -5.04052 -0.420202 0
M  V30 5398 C 516.843 -4.20443 -1.48808 0
M  V30 5399 C 517.544 -5.81516 -0.146413 0
M  V30 5400 N 516.52 -5.38641 -0.732562 0
M  V30 5401 H 520.322 -2.93853 0.0523921 0
M  V30 5402 H 517.836 -1.61883 0.129502 0
M  V30 5403 H 519.833 -3.4357 -2.36146 0
M  V30 5404 H 518.493 -2.25947 -2.33191 0
M  V30 5405 H 519.504 -5.17862 -0.0630401 0
M  V30 5406 H 516.181 -3.60396 -2.10762 0
M  V30 5407 H 517.571 -6.70119 0.488895 0
M  V30 5408 N 520.291 -0.0518155 -1.57515 0
M  V30 5409 C 521.537 0.616839 -1.93821 0
M  V30 5410 C 521.892 1.68413 -0.930307 0
M  V30 5411 O 521.185 1.91534 0.0504231 0
M  V30 5412 C 521.379 1.25607 -3.34601 0
M  V30 5413 C 521.208 0.252222 -4.48992 0
M  V30 5414 C 519.978 -0.156031 -5.05059 0
M  V30 5415 C 522.176 -0.502613 -5.11838 0
M  V30 5416 N 520.158 -1.15267 -6.02981 0
M  V30 5417 C 521.529 -1.35232 -6.05072 0
M  V30 5418 C 523.584 -0.560855 -4.94731 0
M  V30 5419 C 522.287 -2.25505 -6.83037 0
M  V30 5420 C 524.313 -1.45102 -5.73323 0
M  V30 5421 C 523.675 -2.28845 -6.6619 0
M  V30 5422 H 519.774 0.197344 -0.75669 0
M  V30 5423 H 522.358 -0.124297 -1.94303 0
M  V30 5424 H 520.529 1.96723 -3.34895 0
M  V30 5425 H 522.261 1.88358 -3.58195 0
M  V30 5426 H 519.016 0.22306 -4.73074 0
M  V30 5427 H 519.44 -1.64791 -6.56638 0
M  V30 5428 H 524.082 0.0723639 -4.22738 0
M  V30 5429 H 521.8 -2.89872 -7.54321 0
M  V30 5430 H 525.386 -1.50066 -5.62113 0
M  V30 5431 H 524.266 -2.96608 -7.25943 0
M  V30 5432 N 521.769 1.56035 0.221574 0
M  V30 5433 C 523.017 1.78693 0.944102 0
M  V30 5434 C 523.338 0.620317 1.8487 0
M  V30 5435 O 522.608 -0.362784 1.92512 0
M  V30 5436 H 521.188 0.659082 0.351597 0
M  V30 5437 H 523.85 1.93497 0.233435 0
M  V30 5438 H 522.946 2.70837 1.55093 0
M  V30 5439 N 523.247 -0.488276 1.49845 0
M  V30 5440 C 524.493 -1.24341 1.6021 0
M  V30 5441 C 524.826 -1.91967 0.293651 0
M  V30 5442 O 524.101 -1.81323 -0.703718 0
M  V30 5443 C 524.384 -2.3005 2.77036 0
M  V30 5444 C 524.237 -1.66842 4.17713 0
M  V30 5445 C 525.556 -3.31509 2.89464 0
M  V30 5446 H 522.675 -0.450704 0.583125 0
M  V30 5447 H 525.317 -0.539673 1.82174 0
M  V30 5448 H 523.467 -2.90071 2.58439 0
M  V30 5449 H 525.139 -1.1055 4.47858 0
M  V30 5450 H 523.382 -0.972079 4.22768 0
M  V30 5451 H 524.053 -2.43576 4.95353 0
M  V30 5452 H 526.529 -2.81493 3.06433 0
M  V30 5453 H 525.405 -4.02822 3.72861 0
M  V30 5454 H 525.666 -3.94603 1.99351 0
M  V30 5455 N 524.725 -1.39134 -0.740242 0
M  V30 5456 C 525.971 -1.36273 -1.50192 0
M  V30 5457 C 526.304 0.0430136 -1.94152 0
M  V30 5458 O 525.579 1.00691 -1.66408 0
M  V30 5459 C 525.862 -2.33041 -2.74525 0
M  V30 5460 C 525.715 -3.82535 -2.36617 0
M  V30 5461 C 527.034 -2.27723 -3.76604 0
M  V30 5462 H 524.153 -0.496323 -0.544823 0
M  V30 5463 H 526.795 -1.70085 -0.846815 0
M  V30 5464 H 524.945 -2.04337 -3.30422 0
M  V30 5465 H 526.617 -4.21967 -1.86391 0
M  V30 5466 H 524.86 -3.99565 -1.68909 0
M  V30 5467 H 525.531 -4.45723 -3.2563 0
M  V30 5468 H 528.007 -2.53091 -3.30279 0
M  V30 5469 H 526.883 -2.97519 -4.61274 0
M  V30 5470 H 527.144 -1.28049 -4.2315 0
M  V30 5471 N 526.204 0.969867 -1.24223 0
M  V30 5472 C 527.451 1.71256 -1.08063 0
M  V30 5473 C 527.779 1.90734 0.380872 0
M  V30 5474 O 527.034 1.46469 1.29789 0
M  V30 5475 C 527.333 3.10883 -1.76314 0
M  V30 5476 C 526.999 3.11252 -3.26241 0
M  V30 5477 C 525.661 3.1106 -3.67144 0
M  V30 5478 C 528.013 3.05751 -4.22097 0
M  V30 5479 C 525.341 3.03097 -5.02344 0
M  V30 5480 C 527.693 2.9933 -5.57301 0
M  V30 5481 C 526.357 2.97466 -5.97554 0
M  V30 5482 H 525.627 0.62667 -0.395431 0
M  V30 5483 H 528.274 1.13422 -1.54297 0
M  V30 5484 H 526.579 3.72168 -1.22468 0
M  V30 5485 H 528.276 3.67138 -1.61277 0
M  V30 5486 H 524.866 3.12165 -2.93685 0
M  V30 5487 H 529.05 3.05031 -3.91497 0
M  V30 5488 H 524.306 3.00013 -5.32731 0
M  V30 5489 H 528.48 2.94033 -6.31283 0
M  V30 5490 H 526.107 2.91051 -7.02277 0
M  V30 5491 N 527.682 1.05563 1.17022 0
M  V30 5492 C 528.93 0.76642 1.87004 0
M  V30 5493 C 529.251 -0.708854 1.8166 0
M  V30 5494 O 528.521 -1.51242 1.2451 0
M  V30 5495 H 527.101 0.280516 0.692329 0
M  V30 5496 H 529.763 1.33557 1.41945 0
M  V30 5497 H 528.859 1.08472 2.92644 0
M  V30 5498 N 529.16 -1.33526 0.837174 0
M  V30 5499 C 530.09 -2.31764 0.284206 0
M  V30 5500 C 531.071 -1.58896 -0.607142 0
M  V30 5501 O 532.256 -1.86798 -0.531047 0
M  V30 5502 C 529.386 -3.43029 -0.542962 0
M  V30 5503 C 528.34 -4.27255 0.252451 0
M  V30 5504 C 527.666 -5.3012 -0.69836 0
M  V30 5505 C 528.966 -5.01229 1.46858 0
M  V30 5506 H 530.66 -2.78262 1.10502 0
M  V30 5507 H 528.206 -1.3378 0.532812 0
M  V30 5508 H 530.159 -4.1078 -0.940096 0
M  V30 5509 H 528.883 -2.95216 -1.39697 0
M  V30 5510 H 527.542 -3.61127 0.631124 0
M  V30 5511 H 527.19 -4.78564 -1.54872 0
M  V30 5512 H 526.89 -5.87353 -0.170274 0
M  V30 5513 H 528.414 -6.00737 -1.09305 0
M  V30 5514 H 529.828 -5.61756 1.14469 0
M  V30 5515 H 528.225 -5.68104 1.93333 0
M  V30 5516 H 529.295 -4.301 2.23924 0
M  V30 5517 N 530.638 -0.59345 -1.46 0
M  V30 5518 C 531.601 0.123538 -2.28867 0
M  V30 5519 C 532.601 0.808628 -1.38989 0
M  V30 5520 O 533.791 0.658945 -1.61256 0
M  V30 5521 C 530.923 1.1847 -3.19653 0
M  V30 5522 H 532.116 -0.604843 -2.93737 0
M  V30 5523 H 529.669 -0.351875 -1.52288 0
M  V30 5524 H 530.404 1.94431 -2.59552 0
M  V30 5525 H 530.189 0.69783 -3.8584 0
M  V30 5526 H 531.679 1.68726 -3.81997 0
M  V30 5527 N 532.116 1.54067 -0.331816 0
M  V30 5528 C 533.346 2.04833 0.269605 0
M  V30 5529 C 533.754 1.20714 1.45687 0
M  V30 5530 O 533.097 0.232539 1.82222 0
M  V30 5531 C 533.159 3.51386 0.759499 0
M  V30 5532 C 532.823 4.55971 -0.306557 0
M  V30 5533 C 533.82 5.07126 -1.14538 0
M  V30 5534 C 531.505 5.00216 -0.457116 0
M  V30 5535 C 533.499 6.01096 -2.12042 0
M  V30 5536 C 531.186 5.93999 -1.43556 0
M  V30 5537 C 532.184 6.44326 -2.26568 0
M  V30 5538 O 531.872 7.36267 -3.22749 0
M  V30 5539 H 531.604 0.673509 0.0579763 0
M  V30 5540 H 534.158 1.99748 -0.478521 0
M  V30 5541 H 532.388 3.53896 1.55867 0
M  V30 5542 H 534.077 3.85184 1.28017 0
M  V30 5543 H 534.843 4.73716 -1.04009 0
M  V30 5544 H 530.722 4.60652 0.179142 0
M  V30 5545 H 534.266 6.40302 -2.76873 0
M  V30 5546 H 530.163 6.26825 -1.54146 0
M  V30 5547 H 530.931 7.54165 -3.18083 0
M  V30 5548 N 533.594 0.0601682 1.57485 0
M  V30 5549 C 534.841 -0.611594 1.93043 0
M  V30 5550 C 535.169 -1.70317 0.939274 0
M  V30 5551 O 534.424 -1.95644 -0.046996 0
M  V30 5552 C 534.723 -1.23831 3.35262 0
M  V30 5553 C 534.389 -0.274037 4.50066 0
M  V30 5554 C 533.051 -0.00872394 4.81199 0
M  V30 5555 C 535.403 0.386308 5.19766 0
M  V30 5556 C 532.731 0.924218 5.79375 0
M  V30 5557 C 535.083 1.3075 6.1894 0
M  V30 5558 C 533.747 1.58139 6.48497 0
M  V30 5559 H 533.017 -0.223798 0.706396 0
M  V30 5560 H 535.664 0.128566 1.91068 0
M  V30 5561 H 533.969 -2.05394 3.33647 0
M  V30 5562 H 535.666 -1.76517 3.60059 0
M  V30 5563 H 532.256 -0.491008 4.25778 0
M  V30 5564 H 536.44 0.194436 4.95919 0
M  V30 5565 H 531.696 1.1438 6.00606 0
M  V30 5566 H 535.87 1.82519 6.72056 0
M  V30 5567 H 533.497 2.30593 7.24383 0
M  V30 5568 N 535.072 -1.5615 -0.213296 0
M  V30 5569 C 536.297 -1.83986 -0.957282 0
M  V30 5570 C 536.722 -0.641526 -1.76822 0
M  V30 5571 O 536.08 0.409722 -1.7661 0
M  V30 5572 C 536.128 -3.09889 -1.84393 0
M  V30 5573 O 535.232 -2.89163 -2.94038 0
M  V30 5574 H 534.573 -0.606357 -0.270605 0
M  V30 5575 H 537.103 -2.03369 -0.224111 0
M  V30 5576 H 537.113 -3.40209 -2.25215 0
M  V30 5577 H 535.788 -3.96735 -1.24795 0
M  V30 5578 H 534.365 -2.70097 -2.57103 0
M  V30 5579 N 536.55 0.480323 -1.50102 0
M  V30 5580 C 537.483 1.59789 -1.62919 0
M  V30 5581 C 538.461 1.55429 -0.477557 0
M  V30 5582 O 539.645 1.75186 -0.695851 0
M  V30 5583 C 536.772 2.98351 -1.60325 0
M  V30 5584 C 535.818 3.20899 -2.80938 0
M  V30 5585 S 536.651 3.01791 -4.4236 0
M  V30 5586 C 537.807 4.42712 -4.42444 0
M  V30 5587 H 538.04 1.48676 -2.57454 0
M  V30 5588 H 535.573 0.666996 -1.3925 0
M  V30 5589 H 537.531 3.7824 -1.59514 0
M  V30 5590 H 536.192 3.06862 -0.670419 0
M  V30 5591 H 535.385 4.22102 -2.75401 0
M  V30 5592 H 534.987 2.48768 -2.79268 0
M  V30 5593 H 537.279 5.3518 -4.15438 0
M  V30 5594 H 538.222 4.53294 -5.43995 0
M  V30 5595 H 538.63 4.24359 -3.72263 0
M  V30 5596 N 538.028 1.39524 0.732853 0
M  V30 5597 C 538.96 1.34318 1.85718 0
M  V30 5598 C 539.973 0.251576 1.60844 0
M  V30 5599 O 541.162 0.510685 1.71039 0
M  V30 5600 C 538.262 1.06334 3.21786 0
M  V30 5601 C 537.435 2.26813 3.73998 0
M  V30 5602 C 536.494 1.95253 4.88634 0
M  V30 5603 O 535.52 2.67957 5.02183 0
M  V30 5604 N 536.722 0.919984 5.73164 0
M  V30 5605 H 539.487 2.3121 1.90688 0
M  V30 5606 H 537.048 1.33654 0.91368 0
M  V30 5607 H 539.04 0.832363 3.96048 0
M  V30 5608 H 537.61 0.181682 3.12072 0
M  V30 5609 H 536.83 2.65849 2.91064 0
M  V30 5610 H 538.118 3.0717 4.05616 0
M  V30 5611 H 537.516 0.317487 5.64808 0
M  V30 5612 H 536.073 0.748905 6.47483 0
M  V30 5613 N 539.506 -0.963266 1.24736 0
M  V30 5614 C 540.754 -1.70343 1.08755 0
M  V30 5615 C 541.075 -1.91387 -0.373619 0
M  V30 5616 O 540.345 -1.4948 -1.2662 0
M  V30 5617 H 538.925 -0.631224 0.399456 0
M  V30 5618 H 541.587 -1.15859 1.56725 0
M  V30 5619 H 540.683 -2.68616 1.58909 0
M  V30 5620 N 540.985 -1.06182 -1.16461 0
M  V30 5621 C 541.948 -0.675723 -2.19013 0
M  V30 5622 C 542.948 0.277963 -1.58379 0
M  V30 5623 O 544.138 0.0604962 -1.74095 0
M  V30 5624 C 541.27 0.00591459 -3.40899 0
M  V30 5625 H 542.463 -1.58353 -2.54685 0
M  V30 5626 H 540.016 -0.856908 -1.30716 0
M  V30 5627 H 540.751 0.92652 -3.10783 0
M  V30 5628 H 540.536 -0.67984 -3.86161 0
M  V30 5629 H 542.026 0.26181 -4.16778 0
M  V30 5630 N 542.463 1.3308 -0.844243 0
M  V30 5631 C 543.709 1.98304 -0.452453 0
M  V30 5632 C 544.064 1.65645 0.978746 0
M  V30 5633 O 543.357 0.928849 1.6758 0
M  V30 5634 C 543.551 3.52045 -0.616354 0
M  V30 5635 C 543.38 3.99643 -2.06193 0
M  V30 5636 C 542.15 4.27224 -2.69829 0
M  V30 5637 C 544.348 4.15471 -3.03131 0
M  V30 5638 N 542.33 4.60998 -4.05406 0
M  V30 5639 C 543.701 4.52665 -4.23668 0
M  V30 5640 C 545.756 3.97776 -2.99465 0
M  V30 5641 C 544.459 4.74011 -5.41023 0
M  V30 5642 C 546.485 4.20301 -4.16055 0
M  V30 5643 C 545.847 4.57801 -5.35348 0
M  V30 5644 H 541.946 0.752122 -0.214096 0
M  V30 5645 H 544.53 1.61096 -1.09344 0
M  V30 5646 H 542.701 3.884 -0.00513205 0
M  V30 5647 H 544.433 4.04228 -0.19548 0
M  V30 5648 H 541.188 4.18911 -2.20931 0
M  V30 5649 H 541.612 4.82087 -4.75312 0
M  V30 5650 H 546.254 3.67893 -2.08362 0
M  V30 5651 H 543.972 5.02753 -6.32665 0
M  V30 5652 H 547.558 4.08122 -4.14641 0
M  V30 5653 H 546.438 4.74884 -6.24063 0
M  V30 5654 N 543.941 0.601185 1.45683 0
M  V30 5655 C 544.904 -0.111398 2.28929 0
M  V30 5656 C 545.904 -0.801246 1.39416 0
M  V30 5657 O 547.094 -0.650383 1.61603 0
M  V30 5658 C 544.226 -1.16773 3.20276 0
M  V30 5659 H 545.419 0.620412 2.93413 0
M  V30 5660 H 542.972 0.359946 1.52099 0
M  V30 5661 H 543.707 -1.93051 2.60579 0
M  V30 5662 H 543.492 -0.677358 3.86205 0
M  V30 5663 H 544.982 -1.66698 3.82886 0
M  V30 5664 N 545.419 -1.53889 0.339982 0
M  V30 5665 C 546.366 -2.24902 -0.518452 0
M  V30 5666 C 547.336 -1.24593 -1.09844 0
M  V30 5667 O 548.521 -1.53317 -1.13572 0
M  V30 5668 C 545.661 -3.02262 -1.66529 0
M  V30 5669 C 544.774 -4.17418 -1.11295 0
M  V30 5670 C 543.909 -4.82273 -2.2268 0
M  V30 5671 C 542.948 -5.89503 -1.6478 0
M  V30 5672 N 542.085 -6.48153 -2.69893 0
M  V30 5673 H 546.925 -2.97853 0.0936579 0
M  V30 5674 H 544.462 -1.46986 0.0579924 0
M  V30 5675 H 546.42 -3.45371 -2.3404 0
M  V30 5676 H 545.05 -2.31614 -2.24844 0
M  V30 5677 H 544.102 -3.78976 -0.328886 0
M  V30 5678 H 545.414 -4.94554 -0.649414 0
M  V30 5679 H 544.568 -5.28435 -2.98063 0
M  V30 5680 H 543.307 -4.04552 -2.72376 0
M  V30 5681 H 542.312 -5.42728 -0.879004 0
M  V30 5682 H 543.537 -6.6913 -1.1594 0
M  V30 5683 H 541.483 -5.73298 -3.1885 0
M  V30 5684 H 541.4 -7.20752 -2.28151 0
M  V30 5685 H 542.668 -6.98968 -3.45056 0
M  V30 5686 N 546.897 -0.0685191 -1.57451 0
M  V30 5687 C 548.143 0.602239 -1.93652 0
M  V30 5688 C 548.476 1.6946 -0.948526 0
M  V30 5689 O 547.751 1.94487 0.022782 0
M  V30 5690 C 548.034 1.18223 -3.4014 0
M  V30 5691 C 547.887 0.0967431 -4.49696 0
M  V30 5692 C 549.206 2.08872 -3.87377 0
M  V30 5693 H 546.325 0.217453 -0.70419 0
M  V30 5694 H 548.967 -0.133821 -1.89528 0
M  V30 5695 H 547.117 1.80953 -3.43785 0
M  V30 5696 H 548.789 -0.536155 -4.58174 0
M  V30 5697 H 547.032 -0.573063 -4.29998 0
M  V30 5698 H 547.703 0.542894 -5.49324 0
M  V30 5699 H 550.179 1.56081 -3.85717 0
M  V30 5700 H 549.055 2.46389 -4.90493 0
M  V30 5701 H 549.316 2.99572 -3.25129 0
M  V30 5702 N 548.375 1.56261 0.205012 0
M  V30 5703 C 549.624 1.79236 0.925058 0
M  V30 5704 C 549.937 0.640011 1.84833 0
M  V30 5705 O 551.143 0.753809 2.60826 0
M  V30 5706 C 549.599 3.17475 1.69522 0
M  V30 5707 C 549.207 4.40482 0.817269 0
M  V30 5708 C 550.951 3.49766 2.4055 0
M  V30 5709 C 548.858 5.69744 1.58573 0
M  V30 5710 H 547.788 0.668287 0.349153 0
M  V30 5711 H 550.439 1.82629 0.178544 0
M  V30 5712 H 548.821 3.08304 2.48526 0
M  V30 5713 H 549.995 4.60752 0.0665988 0
M  V30 5714 H 548.31 4.15827 0.218316 0
M  V30 5715 H 550.907 4.43573 2.98575 0
M  V30 5716 H 551.25 2.73041 3.14252 0
M  V30 5717 H 551.783 3.60341 1.68522 0
M  V30 5718 H 548.522 6.49407 0.891679 0
M  V30 5719 H 548.042 5.53509 2.31059 0
M  V30 5720 H 549.721 6.1051 2.14212 0
M  V30 5721 N 549.853 -0.472356 1.50355 0
M  V30 5722 C 550.816 -1.5529 1.68576 0
M  V30 5723 C 551.816 -1.50863 0.556511 0
M  V30 5724 O 553.006 -1.53505 0.823516 0
M  V30 5725 C 550.138 -2.94921 1.70981 0
M  V30 5726 H 551.331 -1.40451 2.64978 0
M  V30 5727 H 548.884 -0.698645 1.39816 0
M  V30 5728 H 549.619 -3.15204 0.762675 0
M  V30 5729 H 549.404 -2.99541 2.53017 0
M  V30 5730 H 550.894 -3.73372 1.87037 0
M  V30 5731 N 551.331 -1.39911 -0.725443 0
M  V30 5732 C 552.58 -1.36963 -1.48068 0
M  V30 5733 C 552.893 0.0284478 -1.95579 0
M  V30 5734 O 554.099 0.180535 -2.70899 0
M  V30 5735 C 552.555 -2.40664 -2.67598 0
M  V30 5736 C 552.163 -3.86234 -2.26997 0
M  V30 5737 C 553.907 -2.46807 -3.45379 0
M  V30 5738 C 551.814 -4.81554 -3.43307 0
M  V30 5739 H 550.744 -0.509223 -0.556065 0
M  V30 5740 H 553.395 -1.65602 -0.790454 0
M  V30 5741 H 551.777 -2.05109 -3.38742 0
M  V30 5742 H 552.951 -4.3088 -1.63337 0
M  V30 5743 H 551.266 -3.83475 -1.62284 0
M  V30 5744 H 553.863 -3.15213 -4.31909 0
M  V30 5745 H 554.206 -1.49552 -3.8851 0
M  V30 5746 H 554.739 -2.81303 -2.81271 0
M  V30 5747 H 551.478 -5.80106 -3.05217 0
M  V30 5748 H 550.998 -4.4158 -4.05915 0
M  V30 5749 H 552.677 -5.0091 -4.0951 0
M  V30 5750 N 552.809 0.956637 -1.25245 0
M  V30 5751 C 553.739 2.07058 -1.07931 0
M  V30 5752 C 554.72 1.70096 0.0110361 0
M  V30 5753 O 555.905 1.93555 -0.158121 0
M  V30 5754 C 553.035 3.40272 -0.695124 0
M  V30 5755 C 551.989 3.91235 -1.73549 0
M  V30 5756 C 551.315 5.20921 -1.20604 0
M  V30 5757 C 552.615 4.17837 -3.13385 0
M  V30 5758 H 554.309 2.218 -2.01109 0
M  V30 5759 H 551.855 1.06581 -0.968326 0
M  V30 5760 H 553.808 4.1765 -0.560949 0
M  V30 5761 H 552.532 3.25462 0.272355 0
M  V30 5762 H 551.191 3.16025 -1.85807 0
M  V30 5763 H 550.839 5.02479 -0.228846 0
M  V30 5764 H 550.539 5.55987 -1.90136 0
M  V30 5765 H 552.063 6.00897 -1.08421 0
M  V30 5766 H 553.477 4.8588 -3.04292 0
M  V30 5767 H 551.874 4.64154 -3.80369 0
M  V30 5768 H 552.944 3.2419 -3.60595 0
M  V30 5769 N 554.287 1.06798 1.15896 0
M  V30 5770 C 555.217 0.704677 2.22613 0
M  V30 5771 C 556.198 -0.305252 1.67339 0
M  V30 5772 O 557.383 -0.179247 1.93371 0
M  V30 5773 C 554.513 0.0957325 3.47168 0
M  V30 5774 C 553.467 1.0322 4.15367 0
M  V30 5775 C 552.793 0.286293 5.33933 0
M  V30 5776 C 554.093 2.36341 4.65768 0
M  V30 5777 H 555.787 1.59688 2.53259 0
M  V30 5778 H 553.333 0.769257 1.21731 0
M  V30 5779 H 555.286 -0.170333 4.21056 0
M  V30 5780 H 554.01 -0.831516 3.15838 0
M  V30 5781 H 552.669 1.28309 3.43413 0
M  V30 5782 H 552.317 -0.644237 4.98857 0
M  V30 5783 H 552.017 0.910436 5.80504 0
M  V30 5784 H 553.541 0.0278938 6.10594 0
M  V30 5785 H 554.955 2.1561 5.31211 0
M  V30 5786 H 553.352 2.94299 5.2298 0
M  V30 5787 H 554.422 2.99047 3.81705 0
M  V30 5788 N 555.766 -1.3263 0.851289 0
M  V30 5789 C 556.696 -2.31449 0.308771 0
M  V30 5790 C 557.677 -1.59531 -0.590255 0
M  V30 5791 O 558.862 -1.87351 -0.511205 0
M  V30 5792 C 555.992 -3.43586 -0.506548 0
M  V30 5793 C 554.946 -4.26963 0.297753 0
M  V30 5794 C 554.272 -5.30831 -0.642094 0
M  V30 5795 C 555.572 -4.99643 1.52166 0
M  V30 5796 H 557.266 -2.77074 1.13447 0
M  V30 5797 H 554.812 -1.33207 0.546971 0
M  V30 5798 H 556.765 -4.11754 -0.896474 0
M  V30 5799 H 555.489 -2.96681 -1.36558 0
M  V30 5800 H 554.148 -3.60437 0.669391 0
M  V30 5801 H 553.796 -4.8018 -1.49788 0
M  V30 5802 H 553.496 -5.87501 -0.107968 0
M  V30 5803 H 555.02 -6.01862 -1.02927 0
M  V30 5804 H 556.434 -5.6051 1.20421 0
M  V30 5805 H 554.831 -5.66022 1.99347 0
M  V30 5806 H 555.901 -4.27701 2.28474 0
M  V30 5807 N 557.244 -0.608902 -1.45362 0
M  V30 5808 C 558.49 -0.104762 -2.02529 0
M  V30 5809 C 558.823 1.26191 -1.47613 0
M  V30 5810 O 558.098 1.8327 -0.65134 0
M  V30 5811 C 558.381 -0.0672661 -3.60037 0
M  V30 5812 C 558.234 -1.4647 -4.25284 0
M  V30 5813 C 559.553 0.619877 -4.35713 0
M  V30 5814 H 556.672 -0.0395438 -0.735938 0
M  V30 5815 H 559.314 -0.781126 -1.73201 0
M  V30 5816 H 557.464 0.50871 -3.85155 0
M  V30 5817 H 559.136 -2.08785 -4.11347 0
M  V30 5818 H 557.379 -2.02502 -3.83634 0
M  V30 5819 H 558.05 -1.39069 -5.34195 0
M  V30 5820 H 560.526 0.130297 -4.15896 0
M  V30 5821 H 559.402 0.615224 -5.45441 0
M  V30 5822 H 559.663 1.68621 -4.0868 0
M  V30 5823 N 558.722 1.53707 -0.348139 0
M  V30 5824 C 559.685 2.23812 0.494058 0
M  V30 5825 C 560.685 1.23989 1.02388 0
M  V30 5826 O 561.875 1.48395 0.912396 0
M  V30 5827 C 559.007 2.96133 1.68872 0
M  V30 5828 H 560.2 2.99663 -0.119141 0
M  V30 5829 H 557.753 1.55983 -0.0995539 0
M  V30 5830 H 558.488 2.24481 2.34049 0
M  V30 5831 H 558.273 3.69357 1.31596 0
M  V30 5832 H 559.763 3.49475 2.28597 0
M  V30 5833 N 560.2 0.0768682 1.57412 0
M  V30 5834 C 561.448 -0.589918 1.93299 0
M  V30 5835 C 561.769 -1.69842 0.958049 0
M  V30 5836 O 561.039 -1.95899 0.00703261 0
M  V30 5837 H 559.619 -0.220901 0.713591 0
M  V30 5838 H 562.281 0.135917 1.94425 0
M  V30 5839 H 561.377 -1.01195 2.95239 0
M  V30 5840 N 561.678 -1.56367 -0.196722 0
M  V30 5841 C 562.924 -1.80796 -0.918725 0
M  V30 5842 C 563.257 -0.650645 -1.82976 0
M  V30 5843 O 562.532 0.348889 -1.91345 0
M  V30 5844 C 562.815 -3.15472 -1.73636 0
M  V30 5845 C 562.668 -4.41693 -0.85015 0
M  V30 5846 C 563.987 -3.46824 -2.70927 0
M  V30 5847 H 561.106 -0.657702 -0.332561 0
M  V30 5848 H 563.748 -1.89086 -0.186186 0
M  V30 5849 H 561.898 -3.08536 -2.36088 0
M  V30 5850 H 563.57 -4.60673 -0.240459 0
M  V30 5851 H 561.813 -4.33517 -0.156785 0
M  V30 5852 H 562.484 -5.32419 -1.45719 0
M  V30 5853 H 564.96 -3.54049 -2.18607 0
M  V30 5854 H 563.836 -4.4218 -3.25219 0
M  V30 5855 H 564.097 -2.70236 -3.49893 0
M  V30 5856 N 563.156 0.464375 -1.50603 0
M  V30 5857 C 564.433 1.22549 -1.5245 0
M  V30 5858 C 564.813 2.09327 -0.273035 0
M  V30 5859 O 564.161 2.16074 0.743242 0
M  V30 5860 C 564.371 2.05074 -2.82393 0
M  V30 5861 C 565.719 2.63036 -3.33313 0
M  V30 5862 O 566.743 2.1531 -2.8376 0
M  V30 5863 O 565.602 3.5001 -4.19709 0
M  V30 5864 H 562.696 0.556471 -0.611775 0
M  V30 5865 H 565.242 0.475648 -1.62898 0
M  V30 5866 H 564.014 1.41169 -3.64948 0
M  V30 5867 H 563.637 2.87179 -2.7498 0
M  V30 5868 N 564.634 1.40294 0.718013 0
M  V30 5869 C 565.597 1.4012 1.81381 0
M  V30 5870 C 566.597 0.295405 1.58063 0
M  V30 5871 O 567.787 0.554187 1.6515 0
M  V30 5872 C 564.919 1.19056 3.19435 0
M  V30 5873 H 566.112 2.37645 1.82933 0
M  V30 5874 H 563.665 1.26107 0.923405 0
M  V30 5875 H 564.4 0.222809 3.23534 0
M  V30 5876 H 564.185 1.99152 3.37758 0
M  V30 5877 H 565.675 1.21716 3.99468 0
M  V30 5878 N 566.112 -0.949982 1.2575 0
M  V30 5879 C 567.34 -1.72972 1.13527 0
M  V30 5880 C 567.755 -1.8623 -0.310453 0
M  V30 5881 O 567.112 -1.36336 -1.2132 0
M  V30 5882 C 567.163 -3.14108 1.78936 0
M  V30 5883 O 566.884 -3.01493 3.17858 0
M  V30 5884 C 568.385 -4.08338 1.72554 0
M  V30 5885 H 565.605 -0.541864 0.395758 0
M  V30 5886 H 568.149 -1.19151 1.66202 0
M  V30 5887 H 566.304 -3.64858 1.30221 0
M  V30 5888 H 566.718 -3.90559 3.50092 0
M  V30 5889 H 568.192 -5.04963 2.22973 0
M  V30 5890 H 568.669 -4.33742 0.690251 0
M  V30 5891 H 569.275 -3.63506 2.2078 0
M  V30 5892 N 567.59 -1.07411 -1.15328 0
M  V30 5893 C 568.818 -0.818782 -1.90009 0
M  V30 5894 C 569.233 0.628072 -1.78047 0
M  V30 5895 O 568.59 1.43085 -1.13282 0
M  V30 5896 C 568.641 -1.21874 -3.40337 0
M  V30 5897 O 568.362 -2.60883 -3.51954 0
M  V30 5898 C 569.863 -0.992796 -4.3204 0
M  V30 5899 H 567.083 -0.296007 -0.60218 0
M  V30 5900 H 569.627 -1.43073 -1.46117 0
M  V30 5901 H 567.782 -0.651103 -3.81889 0
M  V30 5902 H 568.196 -2.77216 -4.45255 0
M  V30 5903 H 569.67 -1.32215 -5.35932 0
M  V30 5904 H 570.147 0.0708331 -4.39143 0
M  V30 5905 H 570.753 -1.54537 -3.9623 0
M  V30 5906 N 569.068 1.32177 -0.85831 0
M  V30 5907 C 570.298 2.01021 -0.476889 0
M  V30 5908 C 570.706 1.64653 0.931995 0
M  V30 5909 O 570.049 0.865713 1.62022 0
M  V30 5910 C 570.111 3.55413 -0.540528 0
M  V30 5911 C 569.775 4.1522 -1.90895 0
M  V30 5912 C 570.772 4.3318 -2.87491 0
M  V30 5913 C 568.457 4.51212 -2.20709 0
M  V30 5914 C 570.451 4.86306 -4.1205 0
M  V30 5915 C 568.138 5.04042 -3.45521 0
M  V30 5916 C 569.136 5.21538 -4.41007 0
M  V30 5917 O 568.824 5.73238 -5.63608 0
M  V30 5918 H 568.556 0.650059 -0.18547 0
M  V30 5919 H 571.11 1.69648 -1.15796 0
M  V30 5920 H 569.34 3.86196 0.19741 0
M  V30 5921 H 571.029 4.05526 -0.174191 0
M  V30 5922 H 571.795 4.05704 -2.65762 0
M  V30 5923 H 567.674 4.36878 -1.4717 0
M  V30 5924 H 571.218 4.99877 -4.86589 0
M  V30 5925 H 567.115 5.30952 -3.67098 0
M  V30 5926 H 567.883 5.91625 -5.65617 0
M  V30 5927 N 570.547 0.616602 1.45037 0
M  V30 5928 C 571.772 0.120192 2.07051 0
M  V30 5929 C 572.197 -1.19008 1.45666 0
M  V30 5930 O 571.555 -1.7267 0.552692 0
M  V30 5931 C 571.603 0.00354901 3.606 0
M  V30 5932 O 570.707 -1.04431 3.98958 0
M  V30 5933 H 570.048 0.0781599 0.659384 0
M  V30 5934 H 572.578 0.849167 1.86146 0
M  V30 5935 H 572.588 -0.191754 4.07549 0
M  V30 5936 H 571.263 0.960239 4.04663 0
M  V30 5937 H 569.84 -0.824749 3.63665 0
M  V30 5938 N 572.025 -1.5352 0.356285 0
M  V30 5939 C 573.25 -2.06007 -0.239961 0
M  V30 5940 C 573.675 -1.22872 -1.42422 0
M  V30 5941 O 573.033 -0.245516 -1.7963 0
M  V30 5942 C 573.081 -3.5522 -0.620587 0
M  V30 5943 O 572.185 -3.74864 -1.71902 0
M  V30 5944 H 571.526 -0.662961 -0.0371377 0
M  V30 5945 H 574.056 -1.98033 0.514194 0
M  V30 5946 H 574.066 -3.98081 -0.894197 0
M  V30 5947 H 572.741 -4.15175 0.245407 0
M  V30 5948 H 571.318 -3.43904 -1.44169 0
M  V30 5949 N 573.503 -0.0852151 -1.57369 0
M  V30 5950 C 574.751 0.579658 -1.93609 0
M  V30 5951 C 575.072 1.69332 -0.967043 0
M  V30 5952 O 574.342 1.95892 -0.0174215 0
M  V30 5953 H 572.922 0.217113 -0.714752 0
M  V30 5954 H 575.584 -0.146226 -1.94351 0
M  V30 5955 H 574.68 0.996276 -2.95771 0
M  V30 5956 N 574.981 1.5647 0.188427 0
M  V30 5957 C 575.913 1.91611 1.25769 0
M  V30 5958 C 576.926 0.807436 1.41366 0
M  V30 5959 O 578.115 1.08586 1.41673 0
M  V30 5960 C 575.215 2.13874 2.6289 0
M  V30 5961 C 574.388 3.45047 2.68815 0
M  V30 5962 C 573.447 3.56342 3.87178 0
M  V30 5963 O 572.473 4.29109 3.73971 0
M  V30 5964 N 573.675 2.89924 5.02916 0
M  V30 5965 H 576.44 2.8393 0.959373 0
M  V30 5966 H 574.001 1.57418 0.378306 0
M  V30 5967 H 575.993 2.18713 3.4051 0
M  V30 5968 H 574.563 1.28022 2.85183 0
M  V30 5969 H 573.783 3.52017 1.77419 0
M  V30 5970 H 575.071 4.31395 2.6977 0
M  V30 5971 H 574.469 2.30644 5.16546 0
M  V30 5972 H 573.026 3.0038 5.78459 0
M  V30 5973 N 576.459 -0.456382 1.50847 0
M  V30 5974 C 577.369 -1.57805 1.73594 0
M  V30 5975 C 578.385 -1.62599 0.619476 0
M  V30 5976 O 579.561 -1.80195 0.899532 0
M  V30 5977 C 576.626 -2.93926 1.8387 0
M  V30 5978 C 575.687 -2.99402 3.07663 0
M  V30 5979 C 574.92 -4.29031 3.1744 0
M  V30 5980 O 575.143 -5.20358 2.33631 0
M  V30 5981 O 574.077 -4.40401 4.10281 0
M  V30 5982 H 577.903 -1.41531 2.68705 0
M  V30 5983 H 575.488 -0.637422 1.3512 0
M  V30 5984 H 577.37 -3.74747 1.92725 0
M  V30 5985 H 576.045 -3.10368 0.91944 0
M  V30 5986 H 574.952 -2.17606 3.043 0
M  V30 5987 H 576.285 -2.87901 3.99216 0
M  V30 5988 N 577.937 -1.40673 -0.710563 0
M  V30 5989 C 578.9 -1.4108 -1.80635 0
M  V30 5990 C 579.9 -0.303783 -1.57904 0
M  V30 5991 O 581.09 -0.562937 -1.64853 0
M  V30 5992 C 578.222 -1.20748 -3.18799 0
M  V30 5993 H 579.415 -2.38612 -1.81671 0
M  V30 5994 H 576.968 -1.26595 -0.916704 0
M  V30 5995 H 577.703 -0.239964 -3.23411 0
M  V30 5996 H 577.488 -2.00941 -3.36698 0
M  V30 5997 H 578.978 -1.23833 -3.98817 0
M  V30 5998 N 579.415 0.9433 -1.26252 0
M  V30 5999 C 580.663 1.68592 -1.11451 0
M  V30 6000 C 580.984 1.91957 0.343123 0
M  V30 6001 O 580.254 1.51475 1.24226 0
M  V30 6002 H 578.834 0.624789 -0.409448 0
M  V30 6003 H 581.496 1.13351 -1.58548 0
M  V30 6004 H 580.592 2.66054 -1.63162 0
M  V30 6005 N 580.893 1.08022 1.14757 0
M  V30 6006 C 582.309 0.807072 1.3769 0
M  V30 6007 C 582.509 -0.585504 1.92806 0
M  V30 6008 O 581.565 -1.34301 2.13821 0
M  V30 6009 C 582.878 1.88651 2.34161 0
M  V30 6010 C 584.426 1.91206 2.47809 0
M  V30 6011 C 584.901 2.98253 3.47576 0
M  V30 6012 N 586.392 2.974 3.55117 0
M  V30 6013 C 587.127 3.76872 4.32152 0
M  V30 6014 N 586.623 4.66212 5.12463 0
M  V30 6015 N 588.416 3.6519 4.27309 0
M  V30 6016 H 580.567 1.97824 0.77326 0
M  V30 6017 H 582.83 0.85826 0.402608 0
M  V30 6018 H 582.536 2.88749 2.00791 0
M  V30 6019 H 582.41 1.75244 3.3402 0
M  V30 6020 H 584.797 0.917564 2.80472 0
M  V30 6021 H 584.878 2.08691 1.47925 0
M  V30 6022 H 584.522 3.97907 3.15646 0
M  V30 6023 H 584.452 2.78014 4.47231 0
M  V30 6024 H 586.943 2.32643 2.97801 0
M  V30 6025 H 587.256 5.23468 5.68508 0
M  V30 6026 H 585.601 4.70257 5.11745 0
M  V30 6027 H 588.792 2.94765 3.63636 0
M  V30 6028 H 588.965 4.27366 4.87095 0
M  V30 6029 N 582.371 -1.3172 0.865308 0
M  V30 6030 C 583.599 -2.01057 0.488251 0
M  V30 6031 C 584.014 -1.64979 -0.918 0
M  V30 6032 O 583.371 -0.876597 -1.60069 0
M  V30 6033 C 583.422 -3.55964 0.630224 0
M  V30 6034 O 583.143 -3.90749 1.98109 0
M  V30 6035 C 584.644 -4.42574 0.253567 0
M  V30 6036 H 581.864 -0.64332 0.190736 0
M  V30 6037 H 584.408 -1.68058 1.16519 0
M  V30 6038 H 582.563 -3.874 0.000895422 0
M  V30 6039 H 582.977 -4.85467 1.9855 0
M  V30 6040 H 584.451 -5.50521 0.403875 0
M  V30 6041 H 584.928 -4.31724 -0.806895 0
M  V30 6042 H 585.534 -4.16547 0.858404 0
M  V30 6043 N 583.85 -0.624285 -1.44708 0
M  V30 6044 C 585.096 -0.126237 -2.02407 0
M  V30 6045 C 585.428 1.24618 -1.48943 0
M  V30 6046 O 584.704 1.82569 -0.670742 0
M  V30 6047 C 584.986 -0.105449 -3.59946 0
M  V30 6048 C 584.84 -1.50972 -4.23707 0
M  V30 6049 C 586.159 0.573629 -4.36346 0
M  V30 6050 H 583.278 -0.0473472 -0.735478 0
M  V30 6051 H 585.92 -0.799452 -1.72362 0
M  V30 6052 H 584.07 0.46783 -3.85673 0
M  V30 6053 H 585.742 -2.13136 -4.0911 0
M  V30 6054 H 583.985 -2.0656 -3.81465 0
M  V30 6055 H 584.656 -1.44727 -5.32689 0
M  V30 6056 H 587.132 0.0861787 -4.16011 0
M  V30 6057 H 586.008 0.557338 -5.46063 0
M  V30 6058 H 586.269 1.64276 -4.10446 0
M  V30 6059 N 585.328 1.53329 -0.364422 0
M  V30 6060 C 586.291 2.24323 0.470292 0
M  V30 6061 C 587.291 1.25068 1.01067 0
M  V30 6062 O 588.481 1.49354 0.896605 0
M  V30 6063 C 585.613 2.97908 1.65722 0
M  V30 6064 H 586.806 2.9952 -0.150917 0
M  V30 6065 H 584.359 1.55868 -0.116092 0
M  V30 6066 H 585.094 2.2695 2.31655 0
M  V30 6067 H 584.879 3.70732 1.27671 0
M  V30 6068 H 586.369 3.5188 2.24878 0
M  V30 6069 N 586.806 0.0935595 1.57322 0
M  V30 6070 C 588.054 -0.569383 1.93913 0
M  V30 6071 C 588.375 -1.68817 0.976009 0
M  V30 6072 O 587.645 -1.9588 0.0278099 0
M  V30 6073 H 586.225 -0.21332 0.715894 0
M  V30 6074 H 588.887 0.156531 1.9427 0
M  V30 6075 H 587.983 -0.980577 2.96296 0
M  V30 6076 N 588.284 -1.56567 -0.180126 0
M  V30 6077 C 589.531 -1.81492 -0.898167 0
M  V30 6078 C 589.859 -0.669225 -1.82624 0
M  V30 6079 O 589.114 0.344096 -1.92651 0
M  V30 6080 C 589.413 -3.1252 -1.73395 0
M  V30 6081 C 589.079 -4.40658 -0.955567 0
M  V30 6082 C 587.741 -4.75465 -0.740707 0
M  V30 6083 C 590.093 -5.19593 -0.408948 0
M  V30 6084 C 587.421 -5.86691 0.0320128 0
M  V30 6085 C 589.773 -6.31627 0.350638 0
M  V30 6086 C 588.437 -6.65007 0.576378 0
M  V30 6087 H 587.707 -0.664125 -0.328662 0
M  V30 6088 H 590.354 -1.908 -0.163616 0
M  V30 6089 H 588.659 -2.98515 -2.53763 0
M  V30 6090 H 590.356 -3.29013 -2.29241 0
M  V30 6091 H 586.946 -4.13352 -1.13306 0
M  V30 6092 H 591.13 -4.93104 -0.562307 0
M  V30 6093 H 586.386 -6.11016 0.216735 0
M  V30 6094 H 590.56 -6.92001 0.781497 0
M  V30 6095 H 588.187 -7.51033 1.17703 0
M  V30 6096 N 589.762 0.448376 -1.51087 0
M  V30 6097 C 590.725 1.52588 -1.71025 0
M  V30 6098 C 591.725 1.49958 -0.580442 0
M  V30 6099 O 592.915 1.52176 -0.847833 0
M  V30 6100 C 590.047 2.92163 -1.75652 0
M  V30 6101 H 591.24 1.36218 -2.67179 0
M  V30 6102 H 588.793 0.676313 -1.4091 0
M  V30 6103 H 589.528 3.13951 -0.812724 0
M  V30 6104 H 589.313 2.95478 -2.57751 0
M  V30 6105 H 590.803 3.70349 -1.92953 0
M  V30 6106 N 591.24 1.41047 0.703093 0
M  V30 6107 C 592.488 1.39723 1.4602 0
M  V30 6108 C 592.809 0.00461257 1.94999 0
M  V30 6109 O 592.079 -0.952292 1.71196 0
M  V30 6110 H 590.659 0.514281 0.541779 0
M  V30 6111 H 593.321 1.76217 0.832678 0
M  V30 6112 H 592.417 2.07982 2.32701 0
M  V30 6113 N 592.718 -0.936591 1.26751 0
M  V30 6114 C 593.648 -2.05315 1.11212 0
M  V30 6115 C 594.629 -1.70092 0.0160262 0
M  V30 6116 O 595.814 -1.93279 0.188894 0
M  V30 6117 C 592.944 -3.39123 0.749171 0
M  V30 6118 C 591.898 -3.88425 1.79751 0
M  V30 6119 C 591.224 -5.18936 1.28876 0
M  V30 6120 C 592.524 -4.12798 3.19992 0
M  V30 6121 H 594.218 -2.18573 2.04613 0
M  V30 6122 H 591.764 -1.05027 0.985159 0
M  V30 6123 H 593.717 -4.16704 0.627323 0
M  V30 6124 H 592.441 -3.25855 -0.220543 0
M  V30 6125 H 591.1 -3.13028 1.90811 0
M  V30 6126 H 590.748 -5.02051 0.308757 0
M  V30 6127 H 590.448 -5.52892 1.98958 0
M  V30 6128 H 591.972 -5.99096 1.17967 0
M  V30 6129 H 593.386 -4.80977 3.11983 0
M  V30 6130 H 591.783 -4.58044 3.87705 0
M  V30 6131 H 592.853 -3.18412 3.65707 0
M  V30 6132 N 594.196 -1.08629 -1.14182 0
M  V30 6133 C 595.443 -0.817345 -1.85272 0
M  V30 6134 C 595.771 0.656917 -1.83071 0
M  V30 6135 O 595.026 1.49897 -1.25815 0
M  V30 6136 C 595.325 -1.28734 -3.3341 0
M  V30 6137 C 594.991 -2.76981 -3.55798 0
M  V30 6138 C 593.653 -3.17469 -3.61617 0
M  V30 6139 C 596.005 -3.72605 -3.64438 0
M  V30 6140 C 593.333 -4.52371 -3.736 0
M  V30 6141 C 595.685 -5.07286 -3.77947 0
M  V30 6142 C 594.349 -5.47376 -3.82016 0
M  V30 6143 H 593.619 -0.299088 -0.677958 0
M  V30 6144 H 596.266 -1.35962 -1.34857 0
M  V30 6145 H 594.571 -0.664702 -3.8612 0
M  V30 6146 H 596.268 -1.05598 -3.86846 0
M  V30 6147 H 592.858 -2.44644 -3.51919 0
M  V30 6148 H 597.042 -3.42443 -3.5923 0
M  V30 6149 H 592.298 -4.82882 -3.75013 0
M  V30 6150 H 596.472 -5.81243 -3.83575 0
M  V30 6151 H 594.099 -6.51906 -3.91054 0
M  V30 6152 N 595.674 1.31259 -0.872281 0
M  V30 6153 C 596.902 2.00795 -0.498907 0
M  V30 6154 C 597.317 1.65464 0.909238 0
M  V30 6155 O 596.674 0.885073 1.59602 0
M  V30 6156 C 596.725 3.55625 -0.649092 0
M  V30 6157 O 596.446 3.89692 -2.00179 0
M  V30 6158 C 597.947 4.42434 -0.277034 0
M  V30 6159 H 595.167 0.642299 -0.194145 0
M  V30 6160 H 597.711 1.67438 -1.17408 0
M  V30 6161 H 595.866 3.87394 -0.0214402 0
M  V30 6162 H 596.28 4.84407 -2.01122 0
M  V30 6163 H 597.754 5.50299 -0.433064 0
M  V30 6164 H 598.231 4.32146 0.783989 0
M  V30 6165 H 598.837 4.16086 -0.880483 0
M  V30 6166 N 597.152 0.631951 1.44375 0
M  V30 6167 C 598.38 0.143867 2.06399 0
M  V30 6168 C 598.795 -1.18188 1.47231 0
M  V30 6169 O 598.152 -1.72511 0.595498 0
M  V30 6170 C 598.203 0.0238253 3.61492 0
M  V30 6171 O 597.924 1.29715 4.18456 0
M  V30 6172 C 599.425 -0.492856 4.40552 0
M  V30 6173 H 596.645 0.0800542 0.666207 0
M  V30 6174 H 599.189 0.866586 1.85231 0
M  V30 6175 H 597.344 -0.649338 3.81919 0
M  V30 6176 H 597.758 1.14252 5.11905 0
M  V30 6177 H 599.232 -0.525861 5.49489 0
M  V30 6178 H 599.709 -1.52006 4.12057 0
M  V30 6179 H 600.315 0.147085 4.25046 0
M  V30 6180 N 598.631 -1.53133 0.372548 0
M  V30 6181 C 599.879 -2.00958 -0.214534 0
M  V30 6182 C 600.2 -1.26135 -1.48711 0
M  V30 6183 O 599.47 -0.376597 -1.92246 0
M  V30 6184 H 598.05 -0.742456 -0.0822664 0
M  V30 6185 H 600.712 -1.88367 0.500385 0
M  V30 6186 H 599.808 -3.09031 -0.436605 0
M  V30 6187 N 600.109 -0.101901 -1.5727 0
M  V30 6188 C 601.072 0.840129 -2.13247 0
M  V30 6189 C 602.072 1.20625 -1.06331 0
M  V30 6190 O 603.262 1.13456 -1.32186 0
M  V30 6191 C 600.394 2.13372 -2.65867 0
M  V30 6192 H 601.587 0.353945 -2.97804 0
M  V30 6193 H 599.14 0.147167 -1.55606 0
M  V30 6194 H 599.875 2.66461 -1.84849 0
M  V30 6195 H 599.66 1.88085 -3.44044 0
M  V30 6196 H 601.15 2.80748 -3.09145 0
M  V30 6197 N 601.587 1.56661 0.17182 0
M  V30 6198 C 602.534 1.96371 1.21273 0
M  V30 6199 C 603.504 0.82756 1.44016 0
M  V30 6200 O 604.689 1.08764 1.56764 0
M  V30 6201 C 601.829 2.32838 2.54716 0
M  V30 6202 C 600.942 3.59628 2.39356 0
M  V30 6203 C 600.077 3.85311 3.65662 0
M  V30 6204 C 599.116 5.0545 3.45234 0
M  V30 6205 N 598.253 5.27268 4.63608 0
M  V30 6206 H 603.093 2.85106 0.86709 0
M  V30 6207 H 600.63 1.41073 0.416744 0
M  V30 6208 H 602.588 2.52004 3.3249 0
M  V30 6209 H 601.218 1.47214 2.87277 0
M  V30 6210 H 600.27 3.4838 1.52761 0
M  V30 6211 H 601.582 4.4756 2.20207 0
M  V30 6212 H 600.736 4.04841 4.51872 0
M  V30 6213 H 599.475 2.95753 3.8779 0
M  V30 6214 H 598.48 4.85819 2.5741 0
M  V30 6215 H 599.705 5.96538 3.24529 0
M  V30 6216 H 597.651 4.40662 4.85956 0
M  V30 6217 H 597.568 6.09422 4.4737 0
M  V30 6218 H 598.836 5.51277 5.51103 0
M  V30 6219 N 603.065 -0.440357 1.51323 0
M  V30 6220 C 603.997 -1.55254 1.68609 0
M  V30 6221 C 605.01 -1.52614 0.566812 0
M  V30 6222 O 606.199 -1.57445 0.841032 0
M  V30 6223 C 603.299 -2.94169 1.68279 0
M  V30 6224 C 602.472 -3.21346 2.96742 0
M  V30 6225 C 601.531 -4.3997 2.8864 0
M  V30 6226 O 600.557 -4.38771 3.62586 0
M  V30 6227 N 601.759 -5.43367 2.04285 0
M  V30 6228 H 604.524 -1.40831 2.6455 0
M  V30 6229 H 602.085 -0.629251 1.49171 0
M  V30 6230 H 604.077 -3.71543 1.60431 0
M  V30 6231 H 602.647 -3.02205 0.799441 0
M  V30 6232 H 601.867 -2.32299 3.18482 0
M  V30 6233 H 603.155 -3.3633 3.81785 0
M  V30 6234 H 602.553 -5.47176 1.43578 0
M  V30 6235 H 601.11 -6.19605 2.02318 0
M  V30 6236 N 604.543 -1.41418 -0.695603 0
M  V30 6237 C 605.491 -1.43467 -1.83084 0
M  V30 6238 C 606.485 -0.312719 -1.66489 0
M  V30 6239 O 607.691 -0.484744 -1.7335 0
M  V30 6240 H 604.066 -0.448891 -0.603325 0
M  V30 6241 H 606.037 -2.39144 -1.78473 0
M  V30 6242 C 604.786 -1.3337 -3.21104 0
M  V30 6243 H 604.109 -2.18989 -3.3449 0
M  V30 6244 H 605.549 -1.38865 -4.00615 0
M  V30 6245 C 604.008 -0.0460484 -3.36869 0
M  V30 6246 O 604.538 0.909258 -3.91274 0
M  V30 6247 N 602.744 0.0300222 -2.90584 0
M  V30 6248 H 602.291 -0.748129 -2.46497 0
M  V30 6249 H 602.249 0.890991 -3.01511 0
M  V30 6250 N 606.021 0.929856 -1.27246 0
M  V30 6251 C 606.951 2.04722 -1.12299 0
M  V30 6252 C 607.932 1.70082 -0.0250464 0
M  V30 6253 O 609.117 1.93176 -0.199141 0
M  V30 6254 C 606.247 3.38721 -0.767145 0
M  V30 6255 C 605.201 3.87466 -1.81808 0
M  V30 6256 C 604.527 5.18246 -1.31626 0
M  V30 6257 C 605.827 4.11095 -3.22177 0
M  V30 6258 H 607.521 2.17485 -2.05769 0
M  V30 6259 H 605.067 1.04503 -0.990715 0
M  V30 6260 H 607.02 4.16366 -0.649413 0
M  V30 6261 H 605.744 3.25967 0.203259 0
M  V30 6262 H 604.403 3.12012 -1.92468 0
M  V30 6263 H 604.051 5.01881 -0.335378 0
M  V30 6264 H 603.751 5.51829 -2.01887 0
M  V30 6265 H 605.275 5.98462 -1.21143 0
M  V30 6266 H 606.689 4.79316 -3.1453 0
M  V30 6267 H 605.086 4.55982 -3.90129 0
M  V30 6268 H 606.156 3.16468 -3.67391 0
M  V30 6269 N 607.499 1.09233 1.13605 0
M  V30 6270 C 608.729 0.847677 1.88409 0
M  V30 6271 C 609.137 -0.604524 1.79282 0
M  V30 6272 O 608.48 -1.42773 1.15592 0
M  V30 6273 C 608.542 1.20153 3.38827 0
M  V30 6274 C 608.206 2.65824 3.71735 0
M  V30 6275 C 609.203 3.64072 3.71143 0
M  V30 6276 C 606.888 3.01894 4.01454 0
M  V30 6277 C 608.882 4.96419 3.99808 0
M  V30 6278 C 606.569 4.34433 4.29781 0
M  V30 6279 C 607.567 5.31505 4.28942 0
M  V30 6280 O 607.255 6.61659 4.56576 0
M  V30 6281 H 606.987 0.304813 0.603378 0
M  V30 6282 H 609.541 1.4573 1.44748 0
M  V30 6283 H 607.771 0.534946 3.82982 0
M  V30 6284 H 609.46 0.936349 3.94952 0
M  V30 6285 H 610.226 3.37549 3.4826 0
M  V30 6286 H 606.105 2.26971 4.01255 0
M  V30 6287 H 609.649 5.7218 3.99069 0
M  V30 6288 H 605.546 4.607 4.52135 0
M  V30 6289 H 606.314 6.67102 4.74254 0
M  V30 6290 N 608.977 -1.30795 0.87923 0
M  V30 6291 C 609.907 -2.30742 0.357796 0
M  V30 6292 C 610.888 -1.60747 -0.556283 0
M  V30 6293 O 612.073 -1.88393 -0.47135 0
M  V30 6294 C 609.203 -3.44583 -0.433555 0
M  V30 6295 C 608.157 -4.26235 0.388251 0
M  V30 6296 C 607.483 -5.32073 -0.529352 0
M  V30 6297 C 608.783 -4.96303 1.62729 0
M  V30 6298 H 610.477 -2.74605 1.19299 0
M  V30 6299 H 608.023 -1.32017 0.575104 0
M  V30 6300 H 609.976 -4.13563 -0.808934 0
M  V30 6301 H 608.7 -2.99511 -1.30234 0
M  V30 6302 H 607.359 -3.58936 0.745695 0
M  V30 6303 H 607.007 -4.83249 -1.39569 0
M  V30 6304 H 606.707 -5.87598 0.0166741 0
M  V30 6305 H 608.231 -6.0391 -0.901373 0
M  V30 6306 H 609.645 -5.5783 1.32283 0
M  V30 6307 H 608.042 -5.61666 2.11309 0
M  V30 6308 H 609.112 -4.22758 2.37494 0
M  V30 6309 N 610.455 -0.639598 -1.44038 0
M  V30 6310 C 611.704 -0.144885 -2.01179 0
M  V30 6311 C 612.017 1.24372 -1.50967 0
M  V30 6312 O 613.223 1.83291 -2.00292 0
M  V30 6313 C 611.679 -0.208244 -3.59297 0
M  V30 6314 C 611.287 -1.59869 -4.18504 0
M  V30 6315 C 613.031 0.229568 -4.23879 0
M  V30 6316 C 610.938 -1.61671 -5.68873 0
M  V30 6317 H 609.868 -0.0504005 -0.752314 0
M  V30 6318 H 612.519 -0.799639 -1.65161 0
M  V30 6319 H 610.901 0.513767 -3.92653 0
M  V30 6320 H 612.075 -2.34496 -3.96671 0
M  V30 6321 H 610.39 -1.98131 -3.66242 0
M  V30 6322 H 612.987 0.235758 -5.3418 0
M  V30 6323 H 613.33 1.25848 -3.96822 0
M  V30 6324 H 613.863 -0.440233 -3.95357 0
M  V30 6325 H 610.602 -2.62427 -6.00677 0
M  V30 6326 H 610.122 -0.913489 -5.92803 0
M  V30 6327 H 611.801 -1.35439 -6.32665 0
M  V30 6328 N 611.933 1.52934 -0.380664 0
M  V30 6329 C 612.881 2.27727 0.47361 0
M  V30 6330 C 613.875 1.31288 1.0705 0
M  V30 6331 O 615.081 1.4886 1.01197 0
M  V30 6332 H 611.456 0.732189 0.171475 0
M  V30 6333 H 613.427 2.97864 -0.178785 0
M  V30 6334 C 612.176 3.0904 1.59341 0
M  V30 6335 H 611.499 3.831 1.14343 0
M  V30 6336 H 612.939 3.64527 2.16555 0
M  V30 6337 C 611.398 2.20813 2.54447 0
M  V30 6338 O 611.928 1.82907 3.57642 0
M  V30 6339 N 610.134 1.85145 2.23986 0
M  V30 6340 H 609.681 2.16169 1.40103 0
M  V30 6341 H 609.639 1.26402 2.87871 0
M  V30 6342 N 613.412 0.11024 1.57214 0
M  V30 6343 C 614.64 -0.557834 1.99238 0
M  V30 6344 C 615.055 -1.60778 0.989734 0
M  V30 6345 O 614.412 -1.82491 -0.0186092 0
M  V30 6346 C 614.463 -1.19189 3.41286 0
M  V30 6347 O 614.184 -0.183919 4.37714 0
M  V30 6348 C 615.685 -1.94413 3.98395 0
M  V30 6349 H 612.905 -0.148392 0.654386 0
M  V30 6350 H 615.449 0.193996 2.03578 0
M  V30 6351 H 613.604 -1.89456 3.37913 0
M  V30 6352 H 614.018 -0.643475 5.20538 0
M  V30 6353 H 615.492 -2.34116 4.99894 0
M  V30 6354 H 615.969 -2.81592 3.3705 0
M  V30 6355 H 616.575 -1.28928 4.05287 0
M  V30 6356 N 614.89 -1.56749 -0.16351 0
M  V30 6357 C 615.838 -1.97939 -1.22159 0
M  V30 6358 C 616.832 -0.869288 -1.45395 0
M  V30 6359 O 618.038 -1.05443 -1.45883 0
M  V30 6360 H 614.413 -0.629869 -0.410815 0
M  V30 6361 H 616.384 -2.86115 -0.847381 0
M  V30 6362 C 615.133 -2.36206 -2.55151 0
M  V30 6363 H 614.456 -3.2117 -2.38097 0
M  V30 6364 H 615.896 -2.68863 -3.27854 0
M  V30 6365 C 614.355 -1.20841 -3.14482 0
M  V30 6366 O 614.885 -0.500258 -3.98573 0
M  V30 6367 N 613.091 -0.976943 -2.73686 0
M  V30 6368 H 612.638 -1.55457 -2.05404 0
M  V30 6369 H 612.596 -0.206912 -3.13718 0
M  V30 6370 N 616.368 0.432326 -1.51554 0
M  V30 6371 C 617.616 1.17901 -1.64146 0
M  V30 6372 C 617.937 1.91604 -0.362367 0
M  V30 6373 O 617.207 1.85764 0.621968 0
M  V30 6374 H 615.787 0.438206 -0.604966 0
M  V30 6375 H 618.449 0.495172 -1.88505 0
M  V30 6376 H 617.545 1.90584 -2.47152 0
M  V30 6377 N 617.846 1.41785 0.688094 0
M  V30 6378 C 619.071 1.45117 1.48175 0
M  V30 6379 C 619.496 0.060129 1.88004 0
M  V30 6380 O 618.854 -0.938385 1.55126 0
M  V30 6381 C 618.902 2.37224 2.71583 0
M  V30 6382 O 618.006 1.83443 3.69354 0
M  V30 6383 H 617.347 0.492208 0.445676 0
M  V30 6384 H 619.877 1.86329 0.845145 0
M  V30 6385 H 619.887 2.53353 3.19806 0
M  V30 6386 H 618.562 3.38293 2.41931 0
M  V30 6387 H 617.139 1.76802 3.28322 0
M  V30 6388 N 619.324 -0.923095 1.27737 0
M  V30 6389 C 620.57 -1.67409 1.15524 0
M  V30 6390 C 620.925 -1.90124 -0.295072 0
M  V30 6391 O 620.218 -1.48382 -1.21216 0
M  V30 6392 C 620.412 -3.04125 1.8773 0
M  V30 6393 C 620.241 -2.94752 3.39634 0
M  V30 6394 C 619.011 -2.96783 4.0896 0
M  V30 6395 C 621.209 -2.73524 4.35533 0
M  V30 6396 N 619.191 -2.779 5.47398 0
M  V30 6397 C 620.562 -2.63391 5.61271 0
M  V30 6398 C 622.617 -2.58447 4.2557 0
M  V30 6399 C 621.32 -2.3972 6.78179 0
M  V30 6400 C 623.346 -2.36154 5.42204 0
M  V30 6401 C 622.708 -2.26768 6.669 0
M  V30 6402 H 618.807 -0.619196 0.477619 0
M  V30 6403 H 621.391 -1.09094 1.61266 0
M  V30 6404 H 619.562 -3.60545 1.44436 0
M  V30 6405 H 621.294 -3.6819 1.67982 0
M  V30 6406 H 618.049 -3.07186 3.60463 0
M  V30 6407 H 618.473 -2.71576 6.20141 0
M  V30 6408 H 623.115 -2.6446 3.2988 0
M  V30 6409 H 620.833 -2.32447 7.73947 0
M  V30 6410 H 624.419 -2.25367 5.36378 0
M  V30 6411 H 623.299 -2.09751 7.55628 0
M  V30 6412 N 620.802 -1.09834 -1.13024 0
M  V30 6413 C 621.752 -0.710899 -2.16634 0
M  V30 6414 C 622.736 0.276836 -1.58501 0
M  V30 6415 O 623.928 0.0865457 -1.76788 0
M  V30 6416 C 621.057 -0.137574 -3.43024 0
M  V30 6417 C 620.143 -1.15198 -4.08155 0
M  V30 6418 N 620.534 -2.34054 -4.48388 0
M  V30 6419 C 618.832 -0.991074 -4.34849 0
M  V30 6420 C 619.533 -2.98616 -4.99203 0
M  V30 6421 N 618.509 -2.26159 -4.94321 0
M  V30 6422 H 622.311 -1.61576 -2.455 0
M  V30 6423 H 619.825 -0.975158 -1.29863 0
M  V30 6424 H 621.822 0.158031 -4.166 0
M  V30 6425 H 620.482 0.762088 -3.1563 0
M  V30 6426 H 621.493 -2.7162 -4.40957 0
M  V30 6427 H 618.17 -0.146448 -4.17243 0
M  V30 6428 H 619.56 -3.99683 -5.40096 0
M  V30 6429 N 622.28 1.30327 -0.886154 0
M  V30 6430 C 623.529 1.95373 -0.501243 0
M  V30 6431 C 623.842 1.70722 0.954634 0
M  V30 6432 O 625.048 2.29761 1.44644 0
M  V30 6433 C 623.504 3.49828 -0.845493 0
M  V30 6434 C 623.112 3.83296 -2.31922 0
M  V30 6435 C 624.856 4.2118 -0.529838 0
M  V30 6436 C 622.763 5.30935 -2.60504 0
M  V30 6437 H 621.693 0.731274 -0.183722 0
M  V30 6438 H 624.344 1.48258 -1.08129 0
M  V30 6439 H 622.726 3.95522 -0.19452 0
M  V30 6440 H 623.9 3.48508 -3.01461 0
M  V30 6441 H 622.215 3.2505 -2.60253 0
M  V30 6442 H 624.812 5.29825 -0.720401 0
M  V30 6443 H 625.155 4.12902 0.530828 0
M  V30 6444 H 625.688 3.81173 -1.13806 0
M  V30 6445 H 622.427 5.44265 -3.65316 0
M  V30 6446 H 621.947 5.67019 -1.95575 0
M  V30 6447 H 623.626 5.98381 -2.46066 0
M  V30 6448 N 623.758 0.647228 1.43697 0
M  V30 6449 C 624.706 -0.0600105 2.32523 0
M  V30 6450 C 625.7 -0.819277 1.48271 0
M  V30 6451 O 626.906 -0.730356 1.64517 0
M  V30 6452 H 623.281 -0.0381872 0.75103 0
M  V30 6453 H 625.252 0.706978 2.89904 0
M  V30 6454 C 624.001 -1.0169 3.32497 0
M  V30 6455 H 623.324 -0.442083 3.97348 0
M  V30 6456 H 624.764 -1.48095 3.97296 0
M  V30 6457 C 623.223 -2.11002 2.6264 0
M  V30 6458 O 623.753 -3.19302 2.4374 0
M  V30 6459 N 621.959 -1.87388 2.22113 0
M  V30 6460 H 621.506 -0.993174 2.37684 0
M  V30 6461 H 621.464 -2.60723 1.75701 0
M  V30 6462 N 625.236 -1.5273 0.388769 0
M  V30 6463 C 626.652 -1.59553 0.0387049 0
M  V30 6464 C 626.852 -1.40278 -1.44652 0
M  V30 6465 O 625.908 -1.21951 -2.21098 0
M  V30 6466 C 627.221 -2.9625 0.515409 0
M  V30 6467 C 628.769 -3.09426 0.471621 0
M  V30 6468 C 629.244 -4.48572 0.924505 0
M  V30 6469 N 630.735 -4.54754 0.880496 0
M  V30 6470 C 631.47 -5.60653 1.20234 0
M  V30 6471 N 630.966 -6.74198 1.59463 0
M  V30 6472 N 632.759 -5.50755 1.12363 0
M  V30 6473 H 624.91 -1.63508 1.35569 0
M  V30 6474 H 627.173 -0.768097 0.555636 0
M  V30 6475 H 626.879 -3.15569 1.5527 0
M  V30 6476 H 626.753 -3.77102 -0.085792 0
M  V30 6477 H 629.14 -2.89804 -0.556588 0
M  V30 6478 H 629.221 -2.30528 1.10862 0
M  V30 6479 H 628.865 -4.68936 1.95094 0
M  V30 6480 H 628.795 -5.25935 0.264524 0
M  V30 6481 H 631.286 -3.73237 0.591815 0
M  V30 6482 H 631.599 -7.5097 1.82385 0
M  V30 6483 H 629.944 -6.75531 1.63349 0
M  V30 6484 H 633.135 -4.6093 0.816169 0
M  V30 6485 H 633.308 -6.33184 1.37777 0
M  V30 6486 N 626.714 -0.118576 -1.57153 0
M  V30 6487 C 627.942 0.54726 -1.99531 0
M  V30 6488 C 628.357 1.60251 -0.998246 0
M  V30 6489 O 627.714 1.82498 0.00893106 0
M  V30 6490 C 627.765 1.17378 -3.41913 0
M  V30 6491 O 627.486 0.160703 -4.37805 0
M  V30 6492 C 628.987 1.92297 -3.9942 0
M  V30 6493 H 626.207 0.144919 -0.655164 0
M  V30 6494 H 628.751 -0.20479 -2.03472 0
M  V30 6495 H 626.906 1.87661 -3.38913 0
M  V30 6496 H 627.32 0.61586 -5.20872 0
M  V30 6497 H 628.794 2.31462 -5.01128 0
M  V30 6498 H 629.271 2.79801 -3.38538 0
M  V30 6499 H 629.877 1.26777 -4.05965 0
M  V30 6500 N 628.193 1.56834 0.155195 0
M  V30 6501 C 629.156 1.96748 1.17571 0
M  V30 6502 C 630.156 0.853006 1.3631 0
M  V30 6503 O 631.346 1.11978 1.33441 0
M  V30 6504 C 628.478 2.27631 2.53765 0
M  V30 6505 H 629.671 2.88085 0.833498 0
M  V30 6506 H 627.224 1.51141 0.398242 0
M  V30 6507 H 627.959 1.39059 2.92973 0
M  V30 6508 H 627.744 3.0888 2.41527 0
M  V30 6509 H 629.234 2.59377 3.27282 0
M  V30 6510 N 629.671 -0.424282 1.51781 0
M  V30 6511 C 630.601 -1.52305 1.7699 0
M  V30 6512 C 631.582 -1.5839 0.620209 0
M  V30 6513 O 632.767 -1.73908 0.864268 0
M  V30 6514 C 629.897 -2.90271 1.90683 0
M  V30 6515 C 628.851 -2.99043 3.06198 0
M  V30 6516 C 628.177 -4.39116 3.05092 0
M  V30 6517 C 629.477 -2.7192 4.45934 0
M  V30 6518 H 631.171 -1.31461 2.68995 0
M  V30 6519 H 628.717 -0.630985 1.29439 0
M  V30 6520 H 630.67 -3.6711 2.06901 0
M  V30 6521 H 629.394 -3.12376 0.953365 0
M  V30 6522 H 628.053 -2.24646 2.89706 0
M  V30 6523 H 627.701 -4.58207 2.07498 0
M  V30 6524 H 627.401 -4.45912 3.82669 0
M  V30 6525 H 628.925 -5.17911 3.2342 0
M  V30 6526 H 630.339 -3.38487 4.62709 0
M  V30 6527 H 628.736 -2.90111 5.25315 0
M  V30 6528 H 629.806 -1.67445 4.55072 0
M  V30 6529 N 631.149 -1.42148 -0.680565 0
M  V30 6530 C 632.097 -1.45401 -1.81552 0
M  V30 6531 C 633.091 -0.33036 -1.66147 0
M  V30 6532 O 634.297 -0.503103 -1.72826 0
M  V30 6533 H 630.672 -0.455265 -0.59853 0
M  V30 6534 H 632.643 -2.41024 -1.75926 0
M  V30 6535 C 631.392 -1.36769 -3.19671 0
M  V30 6536 H 630.715 -2.22525 -3.32149 0
M  V30 6537 H 632.155 -1.43106 -3.9912 0
M  V30 6538 C 630.614 -0.0817752 -3.36801 0
M  V30 6539 O 631.144 0.867707 -3.92216 0
M  V30 6540 N 629.35 -0.000799811 -2.906 0
M  V30 6541 H 628.897 -0.774231 -2.4569 0
M  V30 6542 H 628.855 0.858961 -3.02439 0
M  V30 6543 N 632.627 0.916307 -1.28225 0
M  V30 6544 C 633.867 1.67964 -1.16479 0
M  V30 6545 C 634.231 1.8991 0.282494 0
M  V30 6546 O 635.432 2.63671 0.522607 0
M  V30 6547 C 633.703 3.00251 -1.93866 0
M  V30 6548 S 635.262 3.91353 -1.98465 0
M  V30 6549 H 632.08 0.576873 -0.415619 0
M  V30 6550 H 634.682 1.09006 -1.62289 0
M  V30 6551 H 633.386 2.81978 -2.98189 0
M  V30 6552 H 632.917 3.64257 -1.48595 0
M  V30 6553 H 634.932 4.84096 -1.0893 0
M  V30 6554 N 634.105 1.10431 1.1244 0
M  V30 6555 C 635.053 0.747974 2.20246 0
M  V30 6556 C 636.047 -0.255848 1.67457 0
M  V30 6557 O 637.253 -0.116221 1.79624 0
M  V30 6558 H 633.628 0.223946 0.71788 0
M  V30 6559 H 635.599 1.6661 2.47556 0
M  V30 6560 C 634.348 0.195957 3.47147 0
M  V30 6561 H 633.671 0.959606 3.88113 0
M  V30 6562 H 635.111 -0.0153154 4.23997 0
M  V30 6563 C 633.57 -1.07132 3.19413 0
M  V30 6564 O 634.1 -2.15284 3.3914 0
M  V30 6565 N 632.306 -0.98994 2.73219 0
M  V30 6566 H 631.853 -0.109736 2.57366 0
M  V30 6567 H 631.811 -1.83856 2.55038 0
M  V30 6568 N 635.583 -1.29855 0.893053 0
M  V30 6569 C 636.86 -1.90694 0.435336 0
M  V30 6570 C 637.24 -1.8111 -1.08454 0
M  V30 6571 O 636.588 -1.23352 -1.92345 0
M  V30 6572 C 636.798 -3.36033 0.942472 0
M  V30 6573 C 638.146 -4.13083 0.982226 0
M  V30 6574 O 639.17 -3.4491 0.889686 0
M  V30 6575 O 638.029 -5.34896 1.12022 0
M  V30 6576 H 635.123 -0.815978 0.134567 0
M  V30 6577 H 637.669 -1.38367 0.982484 0
M  V30 6578 H 636.441 -3.37132 1.9864 0
M  V30 6579 H 636.064 -3.95828 0.374952 0
M  V30 6580 N 637.061 -0.65484 -1.43351 0
M  V30 6581 C 638.286 -0.175046 -2.0666 0
M  V30 6582 C 638.711 1.15104 -1.4877 0
M  V30 6583 O 638.069 1.71144 -0.598279 0
M  V30 6584 C 638.117 -0.0991544 -3.60464 0
M  V30 6585 O 637.221 0.938169 -4.01587 0
M  V30 6586 H 636.562 -0.0956148 -0.65708 0
M  V30 6587 H 639.092 -0.898222 -1.83829 0
M  V30 6588 H 639.102 0.083632 -4.07914 0
M  V30 6589 H 637.777 -1.06719 -4.01975 0
M  V30 6590 H 636.354 0.72804 -3.65724 0
M  V30 6591 N 638.539 1.52521 -0.396863 0
M  V30 6592 C 639.469 2.29582 0.425941 0
M  V30 6593 C 640.45 1.33281 1.05689 0
M  V30 6594 O 641.635 1.62181 1.06823 0
M  V30 6595 C 638.765 3.10821 1.54943 0
M  V30 6596 C 637.719 4.15069 1.04413 0
M  V30 6597 C 637.045 4.84578 2.26028 0
M  V30 6598 C 638.345 5.22191 0.106767 0
M  V30 6599 H 640.039 2.98612 -0.217045 0
M  V30 6600 H 637.585 1.43611 -0.105826 0
M  V30 6601 H 639.538 3.63492 2.13193 0
M  V30 6602 H 638.262 2.39538 2.22011 0
M  V30 6603 H 636.921 3.63389 0.484118 0
M  V30 6604 H 636.569 4.09835 2.91623 0
M  V30 6605 H 636.269 5.55043 1.92876 0
M  V30 6606 H 637.793 5.40056 2.84906 0
M  V30 6607 H 639.207 5.70176 0.597685 0
M  V30 6608 H 637.604 5.99947 -0.135352 0
M  V30 6609 H 638.674 4.77531 -0.842134 0
M  V30 6610 N 640.017 0.126909 1.57088 0
M  V30 6611 C 640.949 -0.850973 2.12817 0
M  V30 6612 C 641.962 -1.22457 1.07276 0
M  V30 6613 O 643.151 -1.17215 1.34622 0
M  V30 6614 C 640.251 -2.15039 2.61938 0
M  V30 6615 C 639.424 -1.94726 3.91664 0
M  V30 6616 C 638.483 -3.0847 4.26301 0
M  V30 6617 O 637.509 -2.81038 4.94981 0
M  V30 6618 N 638.711 -4.35116 3.84259 0
M  V30 6619 H 641.476 -0.3748 2.97347 0
M  V30 6620 H 639.037 -0.0572793 1.61799 0
M  V30 6621 H 641.029 -2.90141 2.82135 0
M  V30 6622 H 639.599 -2.5398 1.82244 0
M  V30 6623 H 638.819 -1.03772 3.80296 0
M  V30 6624 H 640.107 -1.78469 4.76473 0
M  V30 6625 H 639.505 -4.60276 3.2888 0
M  V30 6626 H 638.062 -5.07064 4.09548 0
M  V30 6627 N 641.495 -1.56914 -0.146875 0
M  V30 6628 C 642.723 -1.87515 -0.874394 0
M  V30 6629 C 643.138 -0.715116 -1.74733 0
M  V30 6630 O 642.495 0.315113 -1.79759 0
M  V30 6631 C 642.546 -3.17362 -1.731 0
M  V30 6632 O 642.267 -4.28897 -0.893245 0
M  V30 6633 C 643.768 -3.61479 -2.56609 0
M  V30 6634 H 640.988 -0.621546 -0.252827 0
M  V30 6635 H 643.532 -2.04023 -0.139627 0
M  V30 6636 H 641.687 -3.02608 -2.41883 0
M  V30 6637 H 642.101 -5.03146 -1.48137 0
M  V30 6638 H 643.575 -4.5517 -3.12289 0
M  V30 6639 H 644.052 -2.86773 -3.32653 0
M  V30 6640 H 644.658 -3.78927 -1.93117 0
M  V30 6641 N 642.974 0.416227 -1.52004 0
M  V30 6642 C 644.222 1.16153 -1.65387 0
M  V30 6643 C 644.543 1.91208 -0.382669 0
M  V30 6644 O 643.813 1.86413 0.602231 0
M  V30 6645 H 642.393 0.431765 -0.60958 0
M  V30 6646 H 645.055 0.475151 -1.89019 0
M  V30 6647 H 644.151 1.87952 -2.4916 0
M  V30 6648 N 644.452 1.42507 0.673017 0
M  V30 6649 C 645.699 1.43072 1.43306 0
M  V30 6650 C 646.027 0.0478004 1.94441 0
M  V30 6651 O 645.282 -0.944106 1.71421 0
M  V30 6652 C 645.581 2.40351 2.64511 0
M  V30 6653 C 645.247 3.8669 2.31908 0
M  V30 6654 C 643.909 4.26551 2.22728 0
M  V30 6655 C 646.261 4.78991 2.05467 0
M  V30 6656 C 643.589 5.56691 1.85234 0
M  V30 6657 C 645.941 6.09476 1.69477 0
M  V30 6658 C 644.605 6.48334 1.58808 0
M  V30 6659 H 643.875 0.523536 0.524395 0
M  V30 6660 H 646.522 1.75459 0.76723 0
M  V30 6661 H 644.827 2.01297 3.36135 0
M  V30 6662 H 646.524 2.38051 3.22696 0
M  V30 6663 H 643.114 3.55132 2.39956 0
M  V30 6664 H 647.298 4.48982 2.11492 0
M  V30 6665 H 642.554 5.85657 1.75545 0
M  V30 6666 H 646.728 6.80482 1.48043 0
M  V30 6667 H 644.355 7.49084 1.29525 0
M  V30 6668 N 645.93 -0.909495 1.28709 0
M  V30 6669 C 646.86 -2.0291 1.15542 0
M  V30 6670 C 647.841 -1.7002 0.0521017 0
M  V30 6671 O 649.026 -1.92835 0.229849 0
M  V30 6672 C 646.156 -3.37458 0.820935 0
M  V30 6673 C 645.11 -3.84524 1.87949 0
M  V30 6674 C 644.436 -5.16086 1.39854 0
M  V30 6675 C 645.736 -4.05918 3.28676 0
M  V30 6676 H 647.43 -2.14183 2.09203 0
M  V30 6677 H 644.976 -1.02913 1.00722 0
M  V30 6678 H 646.929 -4.1528 0.715571 0
M  V30 6679 H 645.653 -3.26249 -0.151374 0
M  V30 6680 H 644.312 -3.08911 1.97408 0
M  V30 6681 H 643.96 -5.01284 0.41518 0
M  V30 6682 H 643.66 -5.48547 2.1064 0
M  V30 6683 H 645.184 -5.96459 1.30649 0
M  V30 6684 H 646.598 -4.74252 3.22115 0
M  V30 6685 H 644.995 -4.49717 3.97334 0
M  V30 6686 H 646.065 -3.10583 3.72379 0
M  V30 6687 N 647.408 -1.11026 -1.11852 0
M  V30 6688 C 648.371 -0.768006 -2.1595 0
M  V30 6689 C 649.371 0.210538 -1.59416 0
M  V30 6690 O 650.561 -0.0133978 -1.74195 0
M  V30 6691 C 647.693 -0.138678 -3.40618 0
M  V30 6692 H 648.886 -1.69012 -2.4774 0
M  V30 6693 H 646.439 -0.911578 -1.26964 0
M  V30 6694 H 647.174 0.793872 -3.14433 0
M  V30 6695 H 646.959 -0.843012 -3.8293 0
M  V30 6696 H 648.449 0.0848039 -4.17514 0
M  V30 6697 N 648.886 1.2938 -0.899927 0
M  V30 6698 C 650.111 2.00228 -0.540692 0
M  V30 6699 C 650.536 1.66909 0.867359 0
M  V30 6700 O 649.894 0.893824 1.57735 0
M  V30 6701 C 649.942 3.52921 -0.740232 0
M  V30 6702 O 649.046 4.11879 0.207154 0
M  V30 6703 H 648.387 0.629505 -0.211233 0
M  V30 6704 H 650.917 1.6487 -1.21158 0
M  V30 6705 H 650.927 4.0287 -0.644973 0
M  V30 6706 H 649.602 3.76508 -1.76677 0
M  V30 6707 H 648.179 3.72845 0.0643315 0
M  V30 6708 N 650.364 0.662433 1.43002 0
M  V30 6709 C 651.294 -0.00979809 2.33498 0
M  V30 6710 C 652.275 -0.802329 1.49989 0
M  V30 6711 O 653.46 -0.761964 1.78627 0
M  V30 6712 C 650.59 -0.970446 3.33466 0
M  V30 6713 C 649.544 -0.287383 4.27034 0
M  V30 6714 C 648.87 -1.36012 5.17112 0
M  V30 6715 C 650.17 0.82595 5.15728 0
M  V30 6716 H 651.864 0.745959 2.89958 0
M  V30 6717 H 649.41 0.360172 1.39423 0
M  V30 6718 H 651.363 -1.44971 3.95679 0
M  V30 6719 H 650.087 -1.75748 2.75282 0
M  V30 6720 H 648.746 0.17152 3.66199 0
M  V30 6721 H 648.394 -2.13882 4.55262 0
M  V30 6722 H 648.094 -0.908276 5.80538 0
M  V30 6723 H 649.618 -1.84056 5.82199 0
M  V30 6724 H 651.032 0.42845 5.71697 0
M  V30 6725 H 649.429 1.20282 5.87922 0
M  V30 6726 H 650.499 1.68003 4.54866 0
M  V30 6727 N 651.842 -1.52309 0.404946 0
M  V30 6728 C 653.089 -2.01767 -0.1722 0
M  V30 6729 C 653.417 -1.29075 -1.45498 0
M  V30 6730 O 652.672 -0.3843 -1.9189 0
M  V30 6731 C 652.971 -3.54284 -0.470895 0
M  V30 6732 C 652.637 -4.45079 0.722194 0
M  V30 6733 C 651.299 -4.69617 1.04946 0
M  V30 6734 C 653.651 -4.98555 1.51962 0
M  V30 6735 C 650.979 -5.44878 2.17543 0
M  V30 6736 C 653.331 -5.75049 2.63632 0
M  V30 6737 C 651.995 -5.9786 2.9685 0
M  V30 6738 H 651.265 -0.738316 -0.0630125 0
M  V30 6739 H 653.912 -1.83566 0.545506 0
M  V30 6740 H 652.217 -3.70642 -1.27012 0
M  V30 6741 H 653.914 -3.90058 -0.930346 0
M  V30 6742 H 650.504 -4.26155 0.457131 0
M  V30 6743 H 654.688 -4.79509 1.28002 0
M  V30 6744 H 649.944 -5.60762 2.43631 0
M  V30 6745 H 654.118 -6.15483 3.25813 0
M  V30 6746 H 651.745 -6.5596 3.84215 0
M  V30 6747 N 653.32 -0.135238 -1.57019 0
M  V30 6748 C 654.55 0.525303 -1.9981 0
M  V30 6749 C 654.958 1.59724 -1.01415 0
M  V30 6750 O 654.301 1.837 -0.00130938 0
M  V30 6751 C 654.363 1.19578 -3.3903 0
M  V30 6752 C 654.027 0.269855 -4.56203 0
M  V30 6753 C 655.024 -0.497905 -5.1751 0
M  V30 6754 C 652.709 0.176188 -5.01991 0
M  V30 6755 C 654.703 -1.3469 -6.23007 0
M  V30 6756 C 652.39 -0.676422 -6.07345 0
M  V30 6757 C 653.388 -1.43658 -6.67721 0
M  V30 6758 O 653.076 -2.27501 -7.71037 0
M  V30 6759 H 652.808 0.142296 -0.660854 0
M  V30 6760 H 655.362 -0.223272 -2.04183 0
M  V30 6761 H 653.592 1.99176 -3.3146 0
M  V30 6762 H 655.281 1.75486 -3.66005 0
M  V30 6763 H 656.047 -0.435507 -4.83041 0
M  V30 6764 H 651.926 0.757583 -4.54733 0
M  V30 6765 H 655.47 -1.9407 -6.70062 0
M  V30 6766 H 651.367 -0.740154 -6.41243 0
M  V30 6767 H 652.135 -2.20619 -7.88206 0
M  V30 6768 N 654.798 1.5699 0.138552 0
M  V30 6769 C 656.026 1.87976 0.864437 0
M  V30 6770 C 656.441 0.724372 1.74351 0
M  V30 6771 O 655.798 -0.305575 1.79924 0
M  V30 6772 C 655.849 3.18276 1.71414 0
M  V30 6773 O 655.57 4.29365 0.870487 0
M  V30 6774 C 657.071 3.62834 2.54688 0
M  V30 6775 H 654.291 0.622878 0.249528 0
M  V30 6776 H 656.835 2.04094 0.128805 0
M  V30 6777 H 654.99 3.03886 2.40274 0
M  V30 6778 H 655.404 5.03924 1.45466 0
M  V30 6779 H 656.878 4.5682 3.0987 0
M  V30 6780 H 657.355 2.88533 3.31127 0
M  V30 6781 H 657.961 3.79946 1.91105 0
M  V30 6782 N 656.276 -0.40816 1.52223 0
M  V30 6783 C 657.226 -1.49648 1.72016 0
M  V30 6784 C 658.21 -1.50311 0.574069 0
M  V30 6785 O 659.402 -1.56271 0.831173 0
M  V30 6786 C 656.531 -2.87566 1.87512 0
M  V30 6787 C 655.617 -2.91547 3.07995 0
M  V30 6788 N 656.008 -2.65225 4.30685 0
M  V30 6789 C 654.306 -3.22715 3.07849 0
M  V30 6790 C 655.007 -2.75799 5.12162 0
M  V30 6791 N 653.983 -3.08719 4.4743 0
M  V30 6792 H 657.785 -1.28093 2.64517 0
M  V30 6793 H 655.299 -0.61588 1.50269 0
M  V30 6794 H 657.296 -3.65899 1.99809 0
M  V30 6795 H 655.956 -3.10118 0.962114 0
M  V30 6796 H 656.967 -2.39601 4.59142 0
M  V30 6797 H 653.644 -3.50856 2.26289 0
M  V30 6798 H 655.034 -2.59155 6.1991 0
M  V30 6799 N 657.755 -1.42862 -0.66545 0
M  V30 6800 C 658.702 -1.4707 -1.77874 0
M  V30 6801 C 659.672 -0.321654 -1.62956 0
M  V30 6802 O 660.857 -0.52707 -1.83376 0
M  V30 6803 C 657.997 -1.38788 -3.15962 0
M  V30 6804 C 657.11 -2.63801 -3.42101 0
M  V30 6805 C 656.245 -2.47594 -4.69969 0
M  V30 6806 C 655.284 -3.67936 -4.89172 0
M  V30 6807 N 654.421 -3.50614 -6.08288 0
M  V30 6808 H 659.261 -2.42204 -1.73613 0
M  V30 6809 H 656.798 -1.20239 -0.847401 0
M  V30 6810 H 658.756 -1.31982 -3.95773 0
M  V30 6811 H 657.386 -0.472431 -3.19324 0
M  V30 6812 H 656.438 -2.80935 -2.56475 0
M  V30 6813 H 657.75 -3.53228 -3.52181 0
M  V30 6814 H 656.904 -2.38427 -5.57886 0
M  V30 6815 H 655.643 -1.55672 -4.62188 0
M  V30 6816 H 654.648 -3.77525 -3.99694 0
M  V30 6817 H 655.873 -4.60851 -4.98792 0
M  V30 6818 H 653.819 -2.61417 -6.01662 0
M  V30 6819 H 653.736 -4.33634 -6.19272 0
M  V30 6820 H 655.004 -3.45276 -6.98859 0
M  V30 6821 N 659.233 0.902656 -1.29189 0
M  V30 6822 C 660.48 1.65287 -1.16989 0
M  V30 6823 C 660.808 1.92485 0.279232 0
M  V30 6824 O 660.063 1.53143 1.21843 0
M  V30 6825 C 660.362 3.011 -1.92545 0
M  V30 6826 C 660.028 2.93521 -3.42281 0
M  V30 6827 C 658.69 2.91161 -3.83117 0
M  V30 6828 C 661.042 2.82947 -4.3771 0
M  V30 6829 C 658.37 2.76043 -5.17704 0
M  V30 6830 C 660.722 2.69368 -5.72384 0
M  V30 6831 C 659.386 2.65373 -6.12482 0
M  V30 6832 H 658.656 0.604828 -0.428094 0
M  V30 6833 H 661.303 1.05084 -1.60092 0
M  V30 6834 H 659.608 3.65153 -1.42024 0
M  V30 6835 H 661.305 3.58073 -1.80512 0
M  V30 6836 H 657.895 2.96158 -3.09819 0
M  V30 6837 H 662.079 2.83849 -4.07116 0
M  V30 6838 H 657.335 2.71352 -5.47885 0
M  V30 6839 H 661.509 2.60156 -6.45981 0
M  V30 6840 H 659.136 2.53415 -7.16718 0
M  V30 6841 N 660.711 1.11618 1.11262 0
M  V30 6842 C 661.659 0.771291 2.1944 0
M  V30 6843 C 662.653 -0.238073 1.67719 0
M  V30 6844 O 663.859 -0.0971628 1.79738 0
M  V30 6845 H 660.234 0.231548 0.715465 0
M  V30 6846 H 662.205 1.69226 2.45775 0
M  V30 6847 C 660.954 0.232765 3.4692 0
M  V30 6848 H 660.277 1.00072 3.87073 0
M  V30 6849 H 661.717 0.0296561 4.2399 0
M  V30 6850 C 660.176 -1.03738 3.20531 0
M  V30 6851 O 660.706 -2.11675 3.41404 0
M  V30 6852 N 658.912 -0.960906 2.74253 0
M  V30 6853 H 658.459 -0.0824323 2.57468 0
M  V30 6854 H 658.417 -1.8114 2.56974 0
M  V30 6855 N 662.189 -1.289 0.906776 0
M  V30 6856 C 663.414 -1.99939 0.551303 0
M  V30 6857 C 663.839 -1.67366 -0.858496 0
M  V30 6858 O 663.197 -0.902176 -1.57259 0
M  V30 6859 C 663.245 -3.52523 0.758937 0
M  V30 6860 O 662.349 -4.11983 -0.185308 0
M  V30 6861 H 661.69 -0.628376 0.214568 0
M  V30 6862 H 664.22 -1.64225 1.2203 0
M  V30 6863 H 664.23 -4.02522 0.666329 0
M  V30 6864 H 662.905 -3.75566 1.78671 0
M  V30 6865 H 661.482 -3.72873 -0.0445577 0
M  V30 6866 N 663.667 -0.670007 -1.42649 0
M  V30 6867 C 664.892 -0.196955 -2.06463 0
M  V30 6868 C 665.317 1.1352 -1.49983 0
M  V30 6869 O 664.675 1.705 -0.616397 0
M  V30 6870 C 664.723 -0.137381 -3.60338 0
M  V30 6871 O 663.827 0.895523 -4.02559 0
M  V30 6872 H 663.168 -0.102579 -0.656029 0
M  V30 6873 H 665.698 -0.917669 -1.82866 0
M  V30 6874 H 665.708 0.0403625 -4.0798 0
M  V30 6875 H 664.383 -1.10977 -4.0082 0
M  V30 6876 H 662.96 0.689209 -3.66476 0
M  V30 6877 N 665.145 1.52092 -0.413018 0
M  V30 6878 C 666.393 2.01456 0.161178 0
M  V30 6879 C 666.714 1.30034 1.45314 0
M  V30 6880 O 665.984 0.427435 1.9118 0
M  V30 6881 H 664.564 0.744376 0.0625526 0
M  V30 6882 H 667.226 1.86974 -0.550151 0
M  V30 6883 H 666.322 3.1008 0.354517 0
M  V30 6884 N 666.623 0.143563 1.56945 0
M  V30 6885 C 667.863 -0.511198 1.97904 0
M  V30 6886 C 668.227 -1.62262 1.0264 0
M  V30 6887 O 669.428 -2.338 1.32631 0
M  V30 6888 C 667.699 -1.00753 3.42905 0
M  V30 6889 S 669.258 -1.66737 4.05887 0
M  V30 6890 H 666.076 -0.165399 0.691494 0
M  V30 6891 H 668.678 0.234464 1.94089 0
M  V30 6892 H 667.382 -0.187817 4.0997 0
M  V30 6893 H 666.913 -1.7879 3.50425 0
M  V30 6894 H 668.928 -2.95444 3.98657 0
M  V30 6895 N 668.101 -1.57061 -0.130224 0
M  V30 6896 C 669.512 -1.73539 -0.68856 0
M  V30 6897 C 669.863 -0.760554 -1.80859 0
M  V30 6898 O 668.988 0.0690796 -2.1629 0
M  V30 6899 C 669.583 -3.14666 -1.25581 0
M  V30 6900 C 668.142 -3.32689 -1.76055 0
M  V30 6901 C 667.289 -2.69436 -0.655712 0
M  V30 6902 H 670.24 -1.58412 0.0956002 0
M  V30 6903 H 670.261 -3.15595 -2.12556 0
M  V30 6904 H 669.773 -3.85593 -0.440412 0
M  V30 6905 H 667.874 -2.66786 -2.60108 0
M  V30 6906 H 667.987 -4.4077 -1.87772 0
M  V30 6907 H 666.351 -2.30362 -1.08654 0
M  V30 6908 H 667.134 -3.42979 0.14852 0
M  V30 6909 N 669.579 0.400081 -1.52437 0
M  V30 6910 C 670.489 1.51253 -1.79331 0
M  V30 6911 C 671.505 1.60188 -0.679396 0
M  V30 6912 O 672.681 1.76733 -0.965791 0
M  V30 6913 C 669.746 2.869 -1.94652 0
M  V30 6914 C 668.807 2.87777 -3.18564 0
M  V30 6915 C 668.04 4.16954 -3.33145 0
M  V30 6916 O 668.263 5.11329 -2.52783 0
M  V30 6917 O 667.197 4.2487 -4.26343 0
M  V30 6918 H 671.023 1.31461 -2.73773 0
M  V30 6919 H 668.608 0.586834 -1.37392 0
M  V30 6920 H 670.49 3.67336 -2.065 0
M  V30 6921 H 669.165 3.06741 -1.034 0
M  V30 6922 H 668.072 2.06162 -3.12167 0
M  V30 6923 H 669.405 2.72886 -4.09627 0
M  V30 6924 N 671.057 1.43213 0.657864 0
M  V30 6925 C 672.473 1.26511 0.972992 0
M  V30 6926 C 672.673 0.181477 2.00681 0
M  V30 6927 O 671.729 -0.441649 2.48608 0
M  V30 6928 C 673.042 2.62784 1.46168 0
M  V30 6929 C 674.59 2.70278 1.57857 0
M  V30 6930 C 675.065 4.06958 2.10117 0
M  V30 6931 N 676.556 4.08999 2.17426 0
M  V30 6932 C 677.291 5.11585 2.58975 0
M  V30 6933 N 676.787 6.24548 2.99853 0
M  V30 6934 N 678.58 4.9894 2.58873 0
M  V30 6935 H 670.731 2.12384 -0.0263129 0
M  V30 6936 H 672.994 0.946638 0.0507992 0
M  V30 6937 H 672.7 3.43022 0.776474 0
M  V30 6938 H 672.574 2.87863 2.43751 0
M  V30 6939 H 674.961 1.90376 2.25479 0
M  V30 6940 H 675.042 2.4897 0.587179 0
M  V30 6941 H 674.686 4.87325 1.43098 0
M  V30 6942 H 674.616 4.25628 3.10078 0
M  V30 6943 H 677.107 3.27457 1.88627 0
M  V30 6944 H 677.42 6.98661 3.30292 0
M  V30 6945 H 675.765 6.28027 2.97669 0
M  V30 6946 H 678.956 4.09757 2.26311 0
M  V30 6947 H 679.129 5.79019 2.90932 0
M  V30 6948 N 672.536 -0.895792 1.29666 0
M  V30 6949 C 673.466 -2.01673 1.17688 0
M  V30 6950 C 674.447 -1.69955 0.0701317 0
M  V30 6951 O 675.632 -1.9258 0.250289 0
M  V30 6952 C 672.762 -3.36568 0.856681 0
M  V30 6953 C 671.716 -3.82509 1.92017 0
M  V30 6954 C 671.042 -5.14574 1.4532 0
M  V30 6955 C 672.342 -4.02409 3.32963 0
M  V30 6956 H 674.036 -2.11953 2.11463 0
M  V30 6957 H 671.582 -1.01839 1.01807 0
M  V30 6958 H 673.535 -4.14498 0.759577 0
M  V30 6959 H 672.259 -3.26391 -0.116763 0
M  V30 6960 H 670.918 -3.068 2.00673 0
M  V30 6961 H 670.566 -5.00815 0.468325 0
M  V30 6962 H 670.266 -5.46283 2.16447 0
M  V30 6963 H 671.79 -5.9504 1.36968 0
M  V30 6964 H 673.204 -4.70808 3.27127 0
M  V30 6965 H 671.601 -4.45478 4.02082 0
M  V30 6966 H 672.671 -3.06616 3.75652 0
M  V30 6967 N 674.014 -1.12206 -1.10668 0
M  V30 6968 C 675.239 -0.898938 -1.86906 0
M  V30 6969 C 675.664 0.546346 -1.79991 0
M  V30 6970 O 675.022 1.38655 -1.1681 0
M  V30 6971 C 675.07 -1.37529 -3.33344 0
M  V30 6972 O 674.174 -0.55218 -4.08687 0
M  V30 6973 H 673.515 -0.323163 -0.580053 0
M  V30 6974 H 676.045 -1.49355 -1.39837 0
M  V30 6975 H 676.055 -1.3733 -3.84193 0
M  V30 6976 H 674.73 -2.42767 -3.37693 0
M  V30 6977 H 673.307 -0.620947 -3.67694 0
M  V30 6978 N 675.492 1.28418 -0.913599 0
M  V30 6979 C 676.717 1.99643 -0.561899 0
M  V30 6980 C 677.142 1.67819 0.849608 0
M  V30 6981 O 676.5 0.910503 1.56779 0
M  V30 6982 C 676.548 3.52116 -0.777622 0
M  V30 6983 O 675.652 4.12076 0.163457 0
M  V30 6984 H 674.993 0.627229 -0.217898 0
M  V30 6985 H 677.523 1.63575 -1.229 0
M  V30 6986 H 677.533 4.02163 -0.687666 0
M  V30 6987 H 676.208 3.74613 -1.8066 0
M  V30 6988 H 674.785 3.72892 0.0247827 0
M  V30 6989 N 676.97 0.677563 1.42291 0
M  V30 6990 C 678.21 0.204894 2.0337 0
M  V30 6991 C 678.574 -1.16744 1.5243 0
M  V30 6992 O 679.775 -1.73492 2.05314 0
M  V30 6993 C 678.046 0.240742 3.56588 0
M  V30 6994 S 679.605 -0.16052 4.38506 0
M  V30 6995 H 676.423 0.0839932 0.706021 0
M  V30 6996 H 679.025 0.891332 1.73999 0
M  V30 6997 H 677.729 1.24184 3.91161 0
M  V30 6998 H 677.26 -0.465439 3.90637 0
M  V30 6999 H 679.275 -1.39315 4.76241 0
M  V30 7000 N 678.448 -1.51871 0.421078 0
M  V30 7001 C 679.864 -1.59435 0.0725398 0
M  V30 7002 C 680.064 -1.43315 -1.41644 0
M  V30 7003 O 679.12 -1.26614 -2.18461 0
M  V30 7004 C 680.433 -2.9509 0.578132 0
M  V30 7005 C 681.981 -3.08356 0.537149 0
M  V30 7006 C 682.456 -4.4651 1.01945 0
M  V30 7007 N 683.947 -4.52784 0.976758 0
M  V30 7008 C 684.682 -5.57976 1.32099 0
M  V30 7009 N 684.178 -6.70664 1.73727 0
M  V30 7010 N 685.971 -5.48248 1.2402 0
M  V30 7011 H 678.122 -1.60595 1.39007 0
M  V30 7012 H 680.385 -0.756138 0.571803 0
M  V30 7013 H 680.091 -3.12205 1.61929 0
M  V30 7014 H 679.965 -3.772 -0.00578374 0
M  V30 7015 H 682.352 -2.90919 -0.494991 0
M  V30 7016 H 682.433 -2.28125 1.15727 0
M  V30 7017 H 682.077 -4.64692 2.04997 0
M  V30 7018 H 682.007 -5.25256 0.376023 0
M  V30 7019 H 684.498 -3.71898 0.670851 0
M  V30 7020 H 684.811 -7.46932 1.98274 0
M  V30 7021 H 683.156 -6.71914 1.77641 0
M  V30 7022 H 686.347 -4.59095 0.913756 0
M  V30 7023 H 686.52 -6.30119 1.51176 0
M  V30 7024 N 679.926 -0.151884 -1.56866 0
M  V30 7025 C 681.174 0.497021 -1.95893 0
M  V30 7026 C 681.495 1.65078 -1.03799 0
M  V30 7027 O 680.765 1.95642 -0.10049 0
M  V30 7028 H 679.345 0.186603 -0.723318 0
M  V30 7029 H 682.007 -0.228525 -1.93556 0
M  V30 7030 H 681.103 0.869933 -2.99731 0
M  V30 7031 N 681.404 1.57128 0.121893 0
M  V30 7032 C 682.334 2.03165 1.15092 0
M  V30 7033 C 683.315 0.915587 1.43356 0
M  V30 7034 O 684.5 1.1851 1.53847 0
M  V30 7035 C 681.63 2.43352 2.47784 0
M  V30 7036 C 680.584 3.58376 2.33989 0
M  V30 7037 C 679.91 3.84454 3.71617 0
M  V30 7038 C 681.21 4.90199 1.80283 0
M  V30 7039 H 682.904 2.89382 0.768023 0
M  V30 7040 H 680.45 1.39218 0.367998 0
M  V30 7041 H 682.403 2.74163 3.20019 0
M  V30 7042 H 681.127 1.54103 2.87958 0
M  V30 7043 H 679.786 3.2777 1.64202 0
M  V30 7044 H 679.434 2.92414 4.09271 0
M  V30 7045 H 679.134 4.61877 3.6324 0
M  V30 7046 H 680.658 4.17714 4.45362 0
M  V30 7047 H 682.072 5.19565 2.42333 0
M  V30 7048 H 680.469 5.71601 1.82735 0
M  V30 7049 H 681.539 4.78904 0.760184 0
M  V30 7050 N 682.882 -0.391992 1.52647 0
M  V30 7051 C 684.159 -1.15136 1.58123 0
M  V30 7052 C 684.539 -2.07786 0.372597 0
M  V30 7053 O 683.887 -2.19374 -0.639304 0
M  V30 7054 C 684.097 -1.91367 2.91856 0
M  V30 7055 C 685.445 -2.46833 3.45483 0
M  V30 7056 O 686.469 -2.01527 2.9371 0
M  V30 7057 O 685.328 -3.29587 4.3593 0
M  V30 7058 H 682.422 -0.526649 0.637629 0
M  V30 7059 H 684.968 -0.397386 1.64982 0
M  V30 7060 H 683.74 -1.23597 3.71268 0
M  V30 7061 H 683.363 -2.73732 2.88369 0
M  V30 7062 N 684.36 -1.4356 -0.65026 0
M  V30 7063 C 685.637 -1.35811 -1.40765 0
M  V30 7064 C 686.017 -0.00736379 -2.11099 0
M  V30 7065 O 685.365 1.00932 -2.05 0
M  V30 7066 C 685.575 -2.54332 -2.3899 0
M  V30 7067 C 686.923 -2.97551 -3.02901 0
M  V30 7068 O 687.947 -2.544 -2.49317 0
M  V30 7069 O 686.806 -3.72311 -4.00059 0
M  V30 7070 H 683.9 -0.536861 -0.629054 0
M  V30 7071 H 686.446 -1.55615 -0.676919 0
M  V30 7072 H 685.218 -3.44274 -1.85986 0
M  V30 7073 H 684.841 -2.36643 -3.19509 0
M  V30 7074 N 685.838 0.888903 -1.30139 0
M  V30 7075 C 687.085 1.64037 -1.18736 0
M  V30 7076 C 687.413 1.92771 0.258801 0
M  V30 7077 O 686.668 1.54427 1.20212 0
M  V30 7078 C 686.967 2.99041 -1.95728 0
M  V30 7079 C 686.633 2.89874 -3.45375 0
M  V30 7080 C 685.295 2.87082 -3.86183 0
M  V30 7081 C 687.647 2.78289 -4.40687 0
M  V30 7082 C 684.975 2.70536 -5.20603 0
M  V30 7083 C 687.327 2.63282 -5.75209 0
M  V30 7084 C 685.991 2.58861 -6.15262 0
M  V30 7085 H 685.261 0.600253 -0.434485 0
M  V30 7086 H 687.908 1.0338 -1.61198 0
M  V30 7087 H 686.213 3.63626 -1.45888 0
M  V30 7088 H 687.91 3.56139 -1.843 0
M  V30 7089 H 684.5 2.92856 -3.12943 0
M  V30 7090 H 688.684 2.79516 -4.10103 0
M  V30 7091 H 683.94 2.65526 -5.50732 0
M  V30 7092 H 688.114 2.5329 -6.48704 0
M  V30 7093 H 685.741 2.45799 -7.19366 0
M  V30 7094 N 687.317 1.12792 1.10072 0
M  V30 7095 C 688.733 0.864745 1.34143 0
M  V30 7096 C 688.933 -0.503201 1.95116 0
M  V30 7097 O 687.989 -1.25111 2.19325 0
M  V30 7098 C 689.302 1.98413 2.25949 0
M  V30 7099 C 690.85 2.01545 2.39476 0
M  V30 7100 C 691.325 3.12727 3.34613 0
M  V30 7101 N 692.816 3.12194 3.42183 0
M  V30 7102 C 693.551 3.94862 4.15779 0
M  V30 7103 N 693.047 4.87528 4.92228 0
M  V30 7104 N 694.84 3.82985 4.11435 0
M  V30 7105 H 686.991 2.00926 0.68866 0
M  V30 7106 H 689.254 0.874564 0.365844 0
M  V30 7107 H 688.96 2.97005 1.88364 0
M  V30 7108 H 688.834 1.89254 3.26287 0
M  V30 7109 H 691.221 1.0357 2.76328 0
M  V30 7110 H 691.302 2.14777 1.3894 0
M  V30 7111 H 690.946 4.10936 2.98486 0
M  V30 7112 H 690.876 2.96732 4.35037 0
M  V30 7113 H 693.367 2.45065 2.87666 0
M  V30 7114 H 693.68 5.47109 5.45794 0
M  V30 7115 H 692.025 4.91539 4.9134 0
M  V30 7116 H 695.216 3.09923 3.50807 0
M  V30 7117 H 695.389 4.47641 4.68531 0
M  V30 7118 N 688.795 -1.27931 0.920396 0
M  V30 7119 C 690.044 -1.93975 0.552867 0
M  V30 7120 C 690.357 -1.73193 -0.909035 0
M  V30 7121 O 691.563 -2.33515 -1.38502 0
M  V30 7122 C 690.019 -3.47463 0.937947 0
M  V30 7123 C 689.627 -3.77013 2.42003 0
M  V30 7124 C 691.371 -4.19628 0.64132 0
M  V30 7125 C 689.278 -5.23841 2.74489 0
M  V30 7126 H 688.208 -0.726146 0.203046 0
M  V30 7127 H 690.859 -1.45339 1.12022 0
M  V30 7128 H 689.241 -3.94867 0.299317 0
M  V30 7129 H 690.415 -3.40393 3.10595 0
M  V30 7130 H 688.73 -3.18035 2.6878 0
M  V30 7131 H 691.327 -5.27729 0.860622 0
M  V30 7132 H 691.67 -4.14164 -0.421168 0
M  V30 7133 H 692.203 -3.78022 1.23872 0
M  V30 7134 H 688.942 -5.34388 3.79618 0
M  V30 7135 H 688.462 -5.61634 2.1054 0
M  V30 7136 H 690.141 -5.91647 2.61845 0
M  V30 7137 N 690.273 -0.685099 -1.4193 0
M  V30 7138 C 691.521 -0.21124 -2.00993 0
M  V30 7139 C 691.842 1.18985 -1.54491 0
M  V30 7140 O 691.112 1.8009 -0.771 0
M  V30 7141 H 689.692 -0.0751059 -0.743215 0
M  V30 7142 H 692.354 -0.883915 -1.73704 0
M  V30 7143 H 691.45 -0.220513 -3.1132 0
M  V30 7144 N 691.751 1.51645 -0.429126 0
M  V30 7145 C 692.997 2.02967 0.132584 0
M  V30 7146 C 693.352 1.30804 1.41096 0
M  V30 7147 O 692.645 0.411705 1.87124 0
M  V30 7148 C 692.839 3.54989 0.414472 0
M  V30 7149 C 692.668 4.41879 -0.83503 0
M  V30 7150 C 691.438 4.86482 -1.36614 0
M  V30 7151 C 693.636 4.84727 -1.71886 0
M  V30 7152 N 691.618 5.5756 -2.56904 0
M  V30 7153 C 692.989 5.54788 -2.76786 0
M  V30 7154 C 695.044 4.66721 -1.73425 0
M  V30 7155 C 693.747 6.08753 -3.8316 0
M  V30 7156 C 695.773 5.21597 -2.7873 0
M  V30 7157 C 695.135 5.91598 -3.8235 0
M  V30 7158 H 691.234 0.781942 0.00956367 0
M  V30 7159 H 693.818 1.8561 -0.587957 0
M  V30 7160 H 691.989 3.72378 1.10405 0
M  V30 7161 H 693.721 3.92982 0.966817 0
M  V30 7162 H 690.476 4.64553 -0.921255 0
M  V30 7163 H 690.9 5.97731 -3.17879 0
M  V30 7164 H 695.542 4.1207 -0.946467 0
M  V30 7165 H 693.26 6.62464 -4.62782 0
M  V30 7166 H 696.846 5.09522 -2.80853 0
M  V30 7167 H 695.726 6.33299 -4.62495 0
M  V30 7168 N 693.229 0.160201 1.56784 0
M  V30 7169 C 694.477 -0.486625 1.96154 0
M  V30 7170 C 694.798 -1.64525 1.04673 0
M  V30 7171 O 694.068 -1.95586 0.110864 0
M  V30 7172 H 692.648 -0.182764 0.724297 0
M  V30 7173 H 695.31 0.238787 1.93432 0
M  V30 7174 H 694.406 -0.854025 3.00188 0
M  V30 7175 N 694.707 -1.5719 -0.113559 0
M  V30 7176 C 695.935 -1.89328 -0.834422 0
M  V30 7177 C 696.35 -0.752018 -1.73177 0
M  V30 7178 O 695.707 0.276912 -1.80387 0
M  V30 7179 C 695.758 -3.20962 -1.66329 0
M  V30 7180 O 695.479 -4.30695 -0.802069 0
M  V30 7181 C 696.98 -3.6684 -2.48884 0
M  V30 7182 H 694.2 -0.626769 -0.239587 0
M  V30 7183 H 696.744 -2.04273 -0.0963195 0
M  V30 7184 H 694.899 -3.0767 -2.35409 0
M  V30 7185 H 695.313 -5.06175 -1.37431 0
M  V30 7186 H 696.787 -4.61692 -3.02563 0
M  V30 7187 H 697.264 -2.93765 -3.26495 0
M  V30 7188 H 697.87 -3.82938 -1.85036 0
M  V30 7189 N 696.185 0.383891 -1.52853 0
M  V30 7190 C 697.115 1.47559 -1.80965 0
M  V30 7191 C 698.096 1.5669 -0.661986 0
M  V30 7192 O 699.281 1.71556 -0.910072 0
M  V30 7193 C 696.411 2.85114 -1.98312 0
M  V30 7194 C 695.365 2.9082 -3.14019 0
M  V30 7195 C 694.691 4.30873 -3.16627 0
M  V30 7196 C 695.991 2.60001 -4.52986 0
M  V30 7197 H 697.685 1.24283 -2.72386 0
M  V30 7198 H 695.231 0.596445 -1.31067 0
M  V30 7199 H 697.184 3.61496 -2.16561 0
M  V30 7200 H 695.908 3.09738 -1.03585 0
M  V30 7201 H 694.567 2.16886 -2.9556 0
M  V30 7202 H 694.215 4.52545 -2.19573 0
M  V30 7203 H 693.915 4.3561 -3.94357 0
M  V30 7204 H 695.439 5.09154 -3.37038 0
M  V30 7205 H 696.853 3.261 -4.71521 0
M  V30 7206 H 695.25 2.76081 -5.32822 0
M  V30 7207 H 696.32 1.5532 -4.59351 0
M  V30 7208 N 697.663 1.43903 0.642637 0
M  V30 7209 C 698.573 1.52349 1.78401 0
M  V30 7210 C 699.589 0.409869 1.69104 0
M  V30 7211 O 700.765 0.665548 1.90085 0
M  V30 7212 C 697.83 1.45408 3.14734 0
M  V30 7213 C 696.891 2.67528 3.35749 0
M  V30 7214 C 696.124 2.60909 4.65577 0
M  V30 7215 O 696.347 1.6627 5.45628 0
M  V30 7216 O 695.281 3.5158 4.88544 0
M  V30 7217 H 699.107 2.48752 1.7423 0
M  V30 7218 H 696.692 1.26021 0.802439 0
M  V30 7219 H 698.574 1.44019 3.96026 0
M  V30 7220 H 697.249 0.521437 3.19473 0
M  V30 7221 H 696.156 2.74487 2.5418 0
M  V30 7222 H 697.489 3.598 3.35864 0
M  V30 7223 N 699.141 -0.881989 1.30609 0
M  V30 7224 C 700.371 -1.66469 1.22359 0
M  V30 7225 C 700.779 -1.87969 -0.215507 0
M  V30 7226 O 700.122 -1.42938 -1.15388 0
M  V30 7227 C 700.184 -3.06135 1.88472 0
M  V30 7228 C 699.848 -3.07795 3.37804 0
M  V30 7229 C 700.845 -2.86633 4.33749 0
M  V30 7230 C 698.53 -3.29297 3.793 0
M  V30 7231 C 700.524 -2.86934 5.69164 0
M  V30 7232 C 698.211 -3.29228 5.14832 0
M  V30 7233 C 699.209 -3.08071 6.09574 0
M  V30 7234 O 698.897 -3.07824 7.4263 0
M  V30 7235 H 698.629 -0.526129 0.424458 0
M  V30 7236 H 701.183 -1.11004 1.72821 0
M  V30 7237 H 699.413 -3.63276 1.32543 0
M  V30 7238 H 701.102 -3.66571 1.74301 0
M  V30 7239 H 701.868 -2.69814 4.0302 0
M  V30 7240 H 697.747 -3.44799 3.05998 0
M  V30 7241 H 701.291 -2.70339 6.43088 0
M  V30 7242 H 697.188 -3.45583 5.452 0
M  V30 7243 H 697.956 -3.2397 7.51656 0
M  V30 7244 N 700.619 -1.13374 -1.09472 0
M  V30 7245 C 701.529 -0.824029 -2.19652 0
M  V30 7246 C 702.545 0.19118 -1.72947 0
M  V30 7247 O 703.721 0.0223464 -2.01388 0
M  V30 7248 C 700.786 -0.294009 -3.45451 0
M  V30 7249 C 699.847 -1.3704 -4.0684 0
M  V30 7250 C 699.08 -0.86558 -5.26634 0
M  V30 7251 O 699.303 0.29702 -5.69626 0
M  V30 7252 O 698.237 -1.63968 -5.79136 0
M  V30 7253 H 702.063 -1.74454 -2.48595 0
M  V30 7254 H 699.648 -0.911155 -1.18399 0
M  V30 7255 H 701.53 -0.00381039 -4.214 0
M  V30 7256 H 700.205 0.598921 -3.18111 0
M  V30 7257 H 699.112 -1.71391 -3.3253 0
M  V30 7258 H 700.445 -2.23746 -4.38405 0
M  V30 7259 N 702.098 1.27442 -0.927168 0
M  V30 7260 C 703.326 1.98498 -0.583622 0
M  V30 7261 C 703.741 1.69171 0.838241 0
M  V30 7262 O 703.098 0.951969 1.55704 0
M  V30 7263 C 703.149 3.52552 -0.799341 0
M  V30 7264 O 702.87 3.80851 -2.16527 0
M  V30 7265 C 704.371 4.4086 -0.464436 0
M  V30 7266 H 701.591 0.633487 -0.221213 0
M  V30 7267 H 704.135 1.62308 -1.24404 0
M  V30 7268 H 702.29 3.86955 -0.185728 0
M  V30 7269 H 702.704 4.75441 -2.21487 0
M  V30 7270 H 704.178 5.47967 -0.666075 0
M  V30 7271 H 704.655 4.35082 0.599995 0
M  V30 7272 H 705.261 4.11977 -1.05617 0
M  V30 7273 N 703.576 0.692616 1.41565 0
M  V30 7274 C 704.524 0.0139952 2.32596 0
M  V30 7275 C 705.518 -0.771691 1.50802 0
M  V30 7276 O 706.724 -0.677646 1.66757 0
M  V30 7277 H 703.099 -0.0142745 0.751865 0
M  V30 7278 H 705.07 0.798851 2.87508 0
M  V30 7279 C 703.819 -0.910602 3.35564 0
M  V30 7280 H 703.142 -0.315446 3.98554 0
M  V30 7281 H 704.582 -1.3538 4.01806 0
M  V30 7282 C 703.041 -2.02539 2.6922 0
M  V30 7283 O 703.571 -3.11386 2.53775 0
M  V30 7284 N 701.777 -1.80227 2.27962 0
M  V30 7285 H 701.324 -0.917054 2.40724 0
M  V30 7286 H 701.282 -2.55001 1.83907 0
M  V30 7287 N 705.054 -1.51416 0.437162 0
M  V30 7288 C 706.3 -2.02386 -0.129555 0
M  V30 7289 C 706.633 -1.32071 -1.42376 0
M  V30 7290 O 705.908 -0.43559 -1.8956 0
M  V30 7291 C 706.191 -3.5841 -0.348487 0
M  V30 7292 C 706.044 -4.39341 0.964352 0
M  V30 7293 C 707.363 -4.25654 -1.11834 0
M  V30 7294 H 704.482 -0.735587 -0.0456109 0
M  V30 7295 H 707.124 -1.81055 0.576124 0
M  V30 7296 H 705.274 -3.76716 -0.949592 0
M  V30 7297 H 706.946 -4.32685 1.59942 0
M  V30 7298 H 705.189 -4.04432 1.56898 0
M  V30 7299 H 705.86 -5.4667 0.765212 0
M  V30 7300 H 708.336 -4.11617 -0.609165 0
M  V30 7301 H 707.212 -5.34704 -1.24029 0
M  V30 7302 H 707.473 -3.86502 -2.14636 0
M  V30 7303 N 706.532 -0.168513 -1.56696 0
M  V30 7304 C 707.76 0.483503 -2.01171 0
M  V30 7305 C 708.175 1.56994 -1.04872 0
M  V30 7306 O 707.532 1.82434 -0.0491337 0
M  V30 7307 C 707.583 1.0644 -3.45475 0
M  V30 7308 O 707.304 0.0213375 -4.38095 0
M  V30 7309 C 708.805 1.79493 -4.05336 0
M  V30 7310 H 706.025 0.124002 -0.659443 0
M  V30 7311 H 708.569 -0.269419 -2.02717 0
M  V30 7312 H 706.724 1.76784 -3.44712 0
M  V30 7313 H 707.138 0.449837 -5.22567 0
M  V30 7314 H 708.612 2.15401 -5.08238 0
M  V30 7315 H 709.089 2.68889 -3.47269 0
M  V30 7316 H 709.695 1.13798 -4.09793 0
M  V30 7317 N 708.01 1.57248 0.105221 0
M  V30 7318 C 708.958 2.02337 1.14728 0
M  V30 7319 C 709.952 0.922652 1.42069 0
M  V30 7320 O 711.158 1.10785 1.41869 0
M  V30 7321 H 707.533 0.644682 0.387155 0
M  V30 7322 H 709.504 2.89063 0.740607 0
M  V30 7323 C 708.253 2.45513 2.46209 0
M  V30 7324 H 707.576 3.29785 2.26013 0
M  V30 7325 H 709.016 2.80846 3.1765 0
M  V30 7326 C 707.475 1.3243 3.09781 0
M  V30 7327 O 708.005 0.647841 3.96442 0
M  V30 7328 N 706.211 1.07785 2.69872 0
M  V30 7329 H 705.758 1.62973 1.99493 0
M  V30 7330 H 705.716 0.323204 3.12734 0
M  V30 7331 N 709.488 -0.375779 1.53054 0
M  V30 7332 C 710.765 -1.13453 1.59336 0
M  V30 7333 C 711.145 -2.07379 0.394614 0
M  V30 7334 O 710.493 -2.2004 -0.616 0
M  V30 7335 C 710.703 -1.8826 2.93869 0
M  V30 7336 C 712.051 -2.43155 3.48081 0
M  V30 7337 O 713.075 -1.984 2.95831 0
M  V30 7338 O 711.934 -3.24944 4.39401 0
M  V30 7339 H 709.028 -0.519856 0.643179 0
M  V30 7340 H 711.574 -0.379865 1.65394 0
M  V30 7341 H 710.346 -1.19652 3.72558 0
M  V30 7342 H 709.969 -2.70658 2.91256 0
M  V30 7343 N 710.966 -1.44241 -0.634997 0
M  V30 7344 C 712.214 -1.46531 -1.39187 0
M  V30 7345 C 712.535 -0.0976441 -1.94755 0
M  V30 7346 O 711.805 0.869528 -1.75545 0
M  V30 7347 H 710.385 -0.539544 -0.516625 0
M  V30 7348 H 713.047 -1.79989 -0.747655 0
M  V30 7349 H 712.143 -2.18848 -2.22513 0
M  V30 7350 N 712.444 0.87505 -1.31075 0
M  V30 7351 C 713.721 1.60976 -1.11113 0
M  V30 7352 C 714.101 2.08409 0.336006 0
M  V30 7353 O 713.449 1.85858 1.32924 0
M  V30 7354 C 713.659 2.77166 -2.12085 0
M  V30 7355 C 715.007 3.47254 -2.44335 0
M  V30 7356 O 716.031 2.87367 -2.10472 0
M  V30 7357 O 714.89 4.55276 -3.02301 0
M  V30 7358 H 711.984 0.707982 -0.427424 0
M  V30 7359 H 714.53 0.920957 -1.42536 0
M  V30 7360 H 713.302 2.39494 -3.09449 0
M  V30 7361 H 712.925 3.53737 -1.81538 0
M  V30 7362 N 713.922 1.13953 1.08869 0
M  V30 7363 C 714.855 0.765765 2.14968 0
M  V30 7364 C 715.833 -0.250689 1.60656 0
M  V30 7365 O 717.017 -0.140852 1.87973 0
M  V30 7366 C 714.144 0.136146 3.38426 0
M  V30 7367 C 713.19 1.12201 4.11477 0
M  V30 7368 S 714.023 2.65711 4.64928 0
M  V30 7369 C 715.179 2.04125 5.91679 0
M  V30 7370 H 715.412 1.66444 2.46341 0
M  V30 7371 H 712.945 0.960263 1.20906 0
M  V30 7372 H 714.903 -0.220712 4.09906 0
M  V30 7373 H 713.564 -0.739887 3.05261 0
M  V30 7374 H 712.757 0.629398 5.00055 0
M  V30 7375 H 712.359 1.42262 3.45886 0
M  V30 7376 H 714.651 1.39381 6.63008 0
M  V30 7377 H 715.594 2.90808 6.45629 0
M  V30 7378 H 716.002 1.4905 5.44467 0
M  V30 7379 N 715.4 -1.26948 0.933913 0
M  V30 7380 C 716.816 -1.46419 0.635103 0
M  V30 7381 C 717.016 -1.84336 -0.813785 0
M  V30 7382 O 716.072 -1.96061 -1.59111 0
M  V30 7383 C 717.385 -2.55206 1.5903 0
M  V30 7384 C 718.933 -2.69062 1.5992 0
M  V30 7385 C 719.408 -3.81013 2.54152 0
M  V30 7386 N 720.899 -3.88395 2.52395 0
M  V30 7387 C 721.634 -4.74454 3.21996 0
M  V30 7388 N 721.13 -5.64954 4.00997 0
M  V30 7389 N 722.923 -4.68237 3.10983 0
M  V30 7390 H 715.074 -1.00622 1.87053 0
M  V30 7391 H 717.337 -0.503189 0.803433 0
M  V30 7392 H 717.043 -2.34153 2.62422 0
M  V30 7393 H 716.917 -3.52719 1.33677 0
M  V30 7394 H 719.304 -2.89492 0.572569 0
M  V30 7395 H 719.385 -1.72016 1.89325 0
M  V30 7396 H 719.029 -3.61336 3.5693 0
M  V30 7397 H 718.959 -4.77499 2.22041 0
M  V30 7398 H 721.45 -3.23687 1.95025 0
M  V30 7399 H 721.763 -6.27496 4.51074 0
M  V30 7400 H 720.108 -5.6473 4.05099 0
M  V30 7401 H 723.299 -3.96535 2.48753 0
M  V30 7402 H 723.472 -5.35087 3.65494 0
M  V30 7403 N 716.879 -0.700114 -1.41195 0
M  V30 7404 C 718.29 -0.307249 -1.84154 0
M  V30 7405 C 718.641 1.15539 -1.58572 0
M  V30 7406 O 717.766 1.88744 -1.05852 0
M  V30 7407 C 718.361 -0.550872 -3.34292 0
M  V30 7408 C 716.92 -0.211877 -3.75803 0
M  V30 7409 C 716.067 -0.830915 -2.64558 0
M  V30 7410 H 719.018 -0.900431 -1.30683 0
M  V30 7411 H 719.039 0.188954 -3.80031 0
M  V30 7412 H 718.551 -1.61548 -3.5288 0
M  V30 7413 H 716.652 0.848283 -3.62815 0
M  V30 7414 H 716.765 -0.67007 -4.74391 0
M  V30 7415 H 715.129 -0.260155 -2.53368 0
M  V30 7416 H 715.912 -1.89948 -2.85963 0
M  V30 7417 N 718.357 1.51182 -0.445186 0
M  V30 7418 C 719.587 2.06269 0.116922 0
M  V30 7419 C 719.995 1.31188 1.36332 0
M  V30 7420 O 719.338 0.367067 1.79995 0
M  V30 7421 C 719.4 3.56051 0.496757 0
M  V30 7422 C 719.064 4.52441 -0.64394 0
M  V30 7423 C 720.061 4.97233 -1.5184 0
M  V30 7424 C 717.746 4.95447 -0.826905 0
M  V30 7425 C 719.74 5.83712 -2.56046 0
M  V30 7426 C 717.427 5.81714 -1.87222 0
M  V30 7427 C 718.425 6.25745 -2.73738 0
M  V30 7428 O 718.113 7.10298 -3.76474 0
M  V30 7429 H 717.845 0.675954 0.00785733 0
M  V30 7430 H 720.399 1.95648 -0.625371 0
M  V30 7431 H 718.629 3.64483 1.29187 0
M  V30 7432 H 720.318 3.93618 0.990928 0
M  V30 7433 H 721.084 4.64696 -1.38862 0
M  V30 7434 H 716.963 4.60712 -0.163052 0
M  V30 7435 H 720.507 6.18 -3.23607 0
M  V30 7436 H 716.404 6.13664 -2.00218 0
M  V30 7437 H 717.172 7.28493 -3.73149 0
M  V30 7438 N 719.835 0.176821 1.56605 0
M  V30 7439 C 721.075 -0.469104 1.98944 0
M  V30 7440 C 721.439 -1.60048 1.06059 0
M  V30 7441 O 722.64 -2.30934 1.3756 0
M  V30 7442 C 720.911 -0.934571 3.44965 0
M  V30 7443 S 722.47 -1.58091 4.09332 0
M  V30 7444 H 719.288 -0.150695 0.694847 0
M  V30 7445 H 721.89 0.27558 1.93548 0
M  V30 7446 H 720.594 -0.100814 4.10276 0
M  V30 7447 H 720.125 -1.71316 3.54139 0
M  V30 7448 H 722.14 -2.86922 4.04834 0
M  V30 7449 N 721.313 -1.57302 -0.09688 0
M  V30 7450 C 722.559 -1.87144 -0.796778 0
M  V30 7451 C 722.914 -0.767428 -1.76432 0
M  V30 7452 O 722.207 0.230728 -1.90206 0
M  V30 7453 C 722.401 -3.21272 -1.56586 0
M  V30 7454 C 722.23 -4.44616 -0.674295 0
M  V30 7455 C 721 -5.04281 -0.320705 0
M  V30 7456 C 723.198 -5.14297 0.0179445 0
M  V30 7457 N 721.18 -6.11162 0.579206 0
M  V30 7458 C 722.551 -6.15125 0.775992 0
M  V30 7459 C 724.606 -4.97815 0.0920521 0
M  V30 7460 C 723.309 -7.01251 1.60122 0
M  V30 7461 C 725.335 -5.84447 0.904175 0
M  V30 7462 C 724.697 -6.84794 1.65035 0
M  V30 7463 H 720.796 -0.734721 -0.267787 0
M  V30 7464 H 723.38 -1.94609 -0.0593955 0
M  V30 7465 H 721.551 -3.14862 -2.27413 0
M  V30 7466 H 723.283 -3.38846 -2.21281 0
M  V30 7467 H 720.038 -4.68866 -0.667961 0
M  V30 7468 H 720.462 -6.69247 1.02166 0
M  V30 7469 H 725.104 -4.20174 -0.470492 0
M  V30 7470 H 722.822 -7.78284 2.17484 0
M  V30 7471 H 726.408 -5.73755 0.964165 0
M  V30 7472 H 725.288 -7.50668 2.26864 0
M  V30 7473 N 722.791 0.367657 -1.53252 0
M  V30 7474 C 723.741 1.45035 -1.75923 0
M  V30 7475 C 724.725 1.48736 -0.613719 0
M  V30 7476 O 725.917 1.54012 -0.872313 0
M  V30 7477 C 723.046 2.82493 -1.9507 0
M  V30 7478 C 722.132 2.83279 -3.15617 0
M  V30 7479 N 722.523 2.53712 -4.37566 0
M  V30 7480 C 720.821 3.1444 -3.16297 0
M  V30 7481 C 721.522 2.62123 -5.19294 0
M  V30 7482 N 720.498 2.96747 -4.55458 0
M  V30 7483 H 724.3 1.21035 -2.6782 0
M  V30 7484 H 721.814 0.575822 -1.51849 0
M  V30 7485 H 723.811 3.60473 -2.0944 0
M  V30 7486 H 722.471 3.07459 -1.044 0
M  V30 7487 H 723.482 2.27344 -4.65333 0
M  V30 7488 H 720.159 3.44733 -2.35511 0
M  V30 7489 H 721.549 2.42628 -6.26563 0
M  V30 7490 N 724.269 1.44576 0.627338 0
M  V30 7491 C 725.499 1.50829 1.41189 0
M  V30 7492 C 725.907 0.133083 1.88731 0
M  V30 7493 O 725.25 -0.87199 1.61685 0
M  V30 7494 C 725.312 2.41449 2.66351 0
M  V30 7495 C 724.976 3.88549 2.40579 0
M  V30 7496 C 725.973 4.78981 2.0217 0
M  V30 7497 C 723.658 4.33287 2.54102 0
M  V30 7498 C 725.652 6.12153 1.77618 0
M  V30 7499 C 723.339 5.66505 2.29163 0
M  V30 7500 C 724.337 6.55756 1.9098 0
M  V30 7501 O 724.025 7.86506 1.66321 0
M  V30 7502 H 723.757 0.513797 0.439304 0
M  V30 7503 H 726.311 1.90256 0.774059 0
M  V30 7504 H 724.541 1.96955 3.32784 0
M  V30 7505 H 726.23 2.38608 3.28361 0
M  V30 7506 H 726.996 4.45689 1.91277 0
M  V30 7507 H 722.875 3.64074 2.82792 0
M  V30 7508 H 726.419 6.81776 1.47739 0
M  V30 7509 H 722.316 5.99358 2.39668 0
M  V30 7510 H 723.084 7.98341 1.80536 0
M  V30 7511 N 725.747 -0.868086 1.31537 0
M  V30 7512 C 727.158 -1.437 1.19195 0
M  V30 7513 C 727.509 -1.95169 -0.200842 0
M  V30 7514 O 726.634 -1.86432 -1.09872 0
M  V30 7515 C 727.229 -2.612 2.15778 0
M  V30 7516 C 725.788 -3.1413 2.07363 0
M  V30 7517 C 724.935 -1.86845 2.049 0
M  V30 7518 H 727.886 -0.676457 1.43561 0
M  V30 7519 H 727.907 -3.37948 1.74847 0
M  V30 7520 H 727.419 -2.23709 3.17137 0
M  V30 7521 H 725.52 -3.56238 1.09204 0
M  V30 7522 H 725.633 -3.76285 2.96557 0
M  V30 7523 H 723.997 -2.05886 1.49943 0
M  V30 7524 H 724.78 -1.51589 3.08019 0
M  V30 7525 N 727.225 -1.14528 -1.08264 0
M  V30 7526 C 728.636 -0.925261 -1.6216 0
M  V30 7527 C 728.987 0.535587 -1.88748 0
M  V30 7528 O 728.112 1.4048 -1.64604 0
M  V30 7529 C 728.707 -1.67316 -2.94603 0
M  V30 7530 C 727.266 -1.49868 -3.45278 0
M  V30 7531 C 726.413 -1.69471 -2.19487 0
M  V30 7532 H 729.364 -1.29687 -0.914707 0
M  V30 7533 H 729.385 -1.13721 -3.63109 0
M  V30 7534 H 728.897 -2.73635 -2.75219 0
M  V30 7535 H 726.998 -0.459032 -3.69762 0
M  V30 7536 H 727.111 -2.2696 -4.21931 0
M  V30 7537 H 725.475 -1.12048 -2.2873 0
M  V30 7538 H 726.258 -2.77136 -2.0261 0
M  V30 7539 N 728.703 1.26451 -0.940633 0
M  V30 7540 C 730.119 1.4608 -0.642859 0
M  V30 7541 C 730.319 1.84765 0.803998 0
M  V30 7542 O 729.375 1.96902 1.58069 0
M  V30 7543 C 730.688 2.54359 -1.60381 0
M  V30 7544 C 732.236 2.6821 -1.61345 0
M  V30 7545 C 732.711 3.79659 -2.56169 0
M  V30 7546 N 734.202 3.87051 -2.54452 0
M  V30 7547 C 734.937 4.72739 -3.24507 0
M  V30 7548 N 734.433 5.6282 -4.03987 0
M  V30 7549 N 736.226 4.66581 -3.13462 0
M  V30 7550 H 728.377 0.996289 -1.87584 0
M  V30 7551 H 730.64 0.498921 -0.80609 0
M  V30 7552 H 730.346 2.32758 -2.6366 0
M  V30 7553 H 730.22 3.52005 -1.35545 0
M  V30 7554 H 732.607 2.89184 -0.587913 0
M  V30 7555 H 732.688 1.7101 -1.90235 0
M  V30 7556 H 732.332 3.59438 -3.58841 0
M  V30 7557 H 732.262 4.76315 -2.2457 0
M  V30 7558 H 734.753 3.22649 -1.96739 0
M  V30 7559 H 735.066 6.25095 -4.54396 0
M  V30 7560 H 733.411 5.62574 -4.08088 0
M  V30 7561 H 736.602 3.9521 -2.50852 0
M  V30 7562 H 736.775 5.33141 -3.68327 0
M  V30 7563 N 730.181 0.707592 1.40822 0
M  V30 7564 C 731.592 0.317011 1.83989 0
M  V30 7565 C 731.943 -1.14697 1.59182 0
M  V30 7566 O 731.068 -1.8818 1.06852 0
M  V30 7567 C 731.663 0.568593 3.33995 0
M  V30 7568 C 730.222 0.231804 3.75686 0
M  V30 7569 C 729.369 0.844933 2.64114 0
M  V30 7570 H 732.32 0.907349 1.30203 0
M  V30 7571 H 732.341 -0.168798 3.80125 0
M  V30 7572 H 731.853 1.63417 3.52018 0
M  V30 7573 H 729.954 -0.82903 3.6326 0
M  V30 7574 H 730.067 0.695219 4.74029 0
M  V30 7575 H 728.431 0.273588 2.53226 0
M  V30 7576 H 729.214 1.91462 2.84951 0
M  V30 7577 N 731.66 -1.50943 0.453197 0
M  V30 7578 C 732.9 -2.0412 -0.106894 0
M  V30 7579 C 733.264 -1.32895 -1.38575 0
M  V30 7580 O 734.465 -1.76529 -2.02709 0
M  V30 7581 C 732.736 -3.561 -0.304565 0
M  V30 7582 S 734.295 -4.3096 -0.825784 0
M  V30 7583 H 731.113 -0.710581 -0.0243969 0
M  V30 7584 H 733.715 -1.85534 0.616239 0
M  V30 7585 H 732.419 -4.055 0.632277 0
M  V30 7586 H 731.95 -3.79009 -1.05433 0
M  V30 7587 H 733.965 -4.49503 -2.10147 0
M  V30 7588 N 733.138 -0.185124 -1.56509 0
M  V30 7589 C 734.386 0.455357 -1.96903 0
M  V30 7590 C 734.707 1.62839 -1.07277 0
M  V30 7591 O 733.977 1.95385 -0.141966 0
M  V30 7592 H 732.557 0.171218 -0.727113 0
M  V30 7593 H 735.219 -0.26953 -1.93027 0
M  V30 7594 H 734.315 0.80616 -3.01509 0
M  V30 7595 N 734.616 1.57351 0.0885366 0
M  V30 7596 C 735.865 1.85604 0.789556 0
M  V30 7597 C 736.178 0.775352 1.79576 0
M  V30 7598 O 737.384 0.945206 2.54515 0
M  V30 7599 C 735.84 3.29175 1.45506 0
M  V30 7600 C 735.448 4.45331 0.488278 0
M  V30 7601 C 737.192 3.66646 2.13942 0
M  V30 7602 C 735.099 5.79937 1.15874 0
M  V30 7603 H 734.029 0.692346 0.298619 0
M  V30 7604 H 736.68 1.83451 0.0425821 0
M  V30 7605 H 735.062 3.25889 2.24972 0
M  V30 7606 H 736.236 4.59977 -0.275359 0
M  V30 7607 H 734.551 4.16301 -0.0907363 0
M  V30 7608 H 737.148 4.64498 2.6485 0
M  V30 7609 H 737.491 2.956 2.93132 0
M  V30 7610 H 738.024 3.71848 1.41328 0
M  V30 7611 H 734.763 6.54232 0.407508 0
M  V30 7612 H 734.283 5.69123 1.89364 0
M  V30 7613 H 735.962 6.24718 1.68336 0
M  V30 7614 N 736.094 -0.359525 1.53444 0
M  V30 7615 C 737.34 -1.10315 1.70172 0
M  V30 7616 C 737.673 -1.88788 0.455287 0
M  V30 7617 O 736.948 -1.86635 -0.547514 0
M  V30 7618 C 737.231 -2.05744 2.95536 0
M  V30 7619 C 737.084 -1.3084 4.3035 0
M  V30 7620 C 738.403 -3.05784 3.16518 0
M  V30 7621 H 735.522 -0.399662 0.619225 0
M  V30 7622 H 738.164 -0.383338 1.86093 0
M  V30 7623 H 736.314 -2.67125 2.82093 0
M  V30 7624 H 737.986 -0.721959 4.55615 0
M  V30 7625 H 736.229 -0.610283 4.29486 0
M  V30 7626 H 736.9 -2.00718 5.14214 0
M  V30 7627 H 739.376 -2.5451 3.29187 0
M  V30 7628 H 738.252 -3.69772 4.05659 0
M  V30 7629 H 738.513 -3.76289 2.32076 0
M  V30 7630 N 737.572 -1.44907 -0.619662 0
M  V30 7631 C 738.983 -1.42905 -1.20146 0
M  V30 7632 C 739.334 -0.150341 -1.95623 0
M  V30 7633 O 738.459 0.748732 -2.03034 0
M  V30 7634 C 739.054 -2.58889 -2.18545 0
M  V30 7635 C 737.613 -2.60046 -2.72127 0
M  V30 7636 C 736.76 -2.3493 -1.4732 0
M  V30 7637 H 739.711 -1.53321 -0.409666 0
M  V30 7638 H 739.732 -2.32298 -3.0136 0
M  V30 7639 H 739.244 -3.51941 -1.63583 0
M  V30 7640 H 737.345 -1.70968 -3.3106 0
M  V30 7641 H 737.458 -3.58893 -3.17384 0
M  V30 7642 H 735.822 -1.84248 -1.75855 0
M  V30 7643 H 736.605 -3.3011 -0.942442 0
M  V30 7644 N 739.05 0.861098 -1.31996 0
M  V30 7645 C 740.013 1.95068 -1.20338 0
M  V30 7646 C 741.013 1.60289 -0.128114 0
M  V30 7647 O 742.203 1.70048 -0.378044 0
M  V30 7648 C 739.335 3.30153 -0.849205 0
M  V30 7649 H 740.528 2.06833 -2.17164 0
M  V30 7650 H 738.081 1.05049 -1.15734 0
M  V30 7651 H 738.816 3.24087 0.117508 0
M  V30 7652 H 738.601 3.56771 -1.62655 0
M  V30 7653 H 740.091 4.10025 -0.791782 0
M  V30 7654 N 740.528 1.15101 1.07655 0
M  V30 7655 C 741.944 0.893004 1.32279 0
M  V30 7656 C 742.144 -0.461701 1.96139 0
M  V30 7657 O 741.2 -1.20431 2.21929 0
M  V30 7658 C 742.513 2.03161 2.21689 0
M  V30 7659 C 744.061 2.06579 2.35147 0
M  V30 7660 C 744.536 3.19754 3.27905 0
M  V30 7661 N 746.027 3.19382 3.35484 0
M  V30 7662 C 746.762 4.03592 4.07309 0
M  V30 7663 N 746.258 4.97859 4.81776 0
M  V30 7664 N 748.051 3.91626 4.03219 0
M  V30 7665 H 740.202 2.02341 0.645886 0
M  V30 7666 H 742.465 0.882127 0.347211 0
M  V30 7667 H 742.171 3.00934 1.82021 0
M  V30 7668 H 742.045 1.96132 3.22199 0
M  V30 7669 H 744.432 1.09408 2.74069 0
M  V30 7670 H 744.513 2.17676 1.34353 0
M  V30 7671 H 744.157 4.17175 2.89702 0
M  V30 7672 H 744.087 3.05893 4.28645 0
M  V30 7673 H 746.578 2.51112 2.82403 0
M  V30 7674 H 746.891 5.58563 5.34067 0
M  V30 7675 H 745.236 5.0185 4.80803 0
M  V30 7676 H 748.427 3.17295 3.44154 0
M  V30 7677 H 748.6 4.57479 4.5893 0
M  V30 7678 N 742.006 -1.2595 0.947325 0
M  V30 7679 C 743.234 -1.97544 0.615127 0
M  V30 7680 C 743.649 -1.70484 -0.811221 0
M  V30 7681 O 743.006 -0.97662 -1.5417 0
M  V30 7682 C 743.057 -3.51236 0.855328 0
M  V30 7683 O 742.778 -3.77359 2.22558 0
M  V30 7684 C 744.279 -4.40066 0.534515 0
M  V30 7685 H 741.499 -0.629888 0.231263 0
M  V30 7686 H 744.043 -1.60308 1.26971 0
M  V30 7687 H 742.198 -3.8661 0.247266 0
M  V30 7688 H 742.612 -4.71857 2.29022 0
M  V30 7689 H 744.086 -5.46838 0.753168 0
M  V30 7690 H 744.563 -4.35982 -0.530701 0
M  V30 7691 H 745.169 -4.10245 1.12158 0
M  V30 7692 N 743.484 -0.715051 -1.40445 0
M  V30 7693 C 744.73 -0.254705 -2.01194 0
M  V30 7694 C 745.063 1.14894 -1.56567 0
M  V30 7695 O 744.338 1.77933 -0.785491 0
M  V30 7696 C 744.621 -0.334148 -3.58546 0
M  V30 7697 C 744.474 -1.77613 -4.13248 0
M  V30 7698 C 745.793 0.294968 -4.3911 0
M  V30 7699 H 742.912 -0.094025 -0.730978 0
M  V30 7700 H 745.554 -0.907449 -1.66929 0
M  V30 7701 H 743.704 0.221609 -3.87867 0
M  V30 7702 H 745.376 -2.38723 -3.94727 0
M  V30 7703 H 743.619 -2.30402 -3.67556 0
M  V30 7704 H 744.29 -1.78311 -5.22407 0
M  V30 7705 H 746.766 -0.178563 -4.15717 0
M  V30 7706 H 745.642 0.208934 -5.48502 0
M  V30 7707 H 745.903 1.37841 -4.20062 0
M  V30 7708 N 744.962 1.50701 -0.461195 0
M  V30 7709 C 746.202 2.04174 0.0960673 0
M  V30 7710 C 746.566 1.33628 1.37868 0
M  V30 7711 O 747.767 1.77602 2.0177 0
M  V30 7712 C 746.038 3.56256 0.285676 0
M  V30 7713 S 747.597 4.31392 0.802917 0
M  V30 7714 H 744.415 0.710701 0.0206282 0
M  V30 7715 H 747.017 1.85204 -0.62607 0
M  V30 7716 H 745.721 4.05159 -0.653773 0
M  V30 7717 H 745.252 3.79562 1.03421 0
M  V30 7718 H 747.267 4.50611 2.07761 0
M  V30 7719 N 746.441 0.193421 1.56409 0
M  V30 7720 C 747.689 -0.444908 1.97142 0
M  V30 7721 C 748.01 -1.62268 1.08139 0
M  V30 7722 O 747.28 -1.95307 0.152326 0
M  V30 7723 H 745.86 -0.16736 0.728011 0
M  V30 7724 H 748.522 0.279763 1.92882 0
M  V30 7725 H 747.618 -0.790159 3.01932 0
M  V30 7726 N 747.919 -1.57396 -0.0801906 0
M  V30 7727 C 749.33 -1.75642 -0.633002 0
M  V30 7728 C 749.681 -0.817708 -1.78348 0
M  V30 7729 O 748.806 0.000233743 -2.164 0
M  V30 7730 C 749.401 -3.18502 -1.15507 0
M  V30 7731 C 747.96 -3.38121 -1.65381 0
M  V30 7732 C 747.107 -2.71386 -0.569661 0
M  V30 7733 H 750.058 -1.58027 0.145949 0
M  V30 7734 H 750.079 -3.22198 -2.02408 0
M  V30 7735 H 749.591 -3.86799 -0.317515 0
M  V30 7736 H 747.692 -2.74926 -2.51488 0
M  V30 7737 H 747.805 -4.46521 -1.73654 0
M  V30 7738 H 746.169 -2.33702 -1.0127 0
M  V30 7739 H 746.952 -3.42332 0.257561 0
M  V30 7740 N 749.397 0.351382 -1.53633 0
M  V30 7741 C 750.643 1.09411 -1.70754 0
M  V30 7742 C 750.976 1.88544 -0.465293 0
M  V30 7743 O 750.251 1.86923 0.537608 0
M  V30 7744 C 750.534 2.04173 -2.96623 0
M  V30 7745 C 750.387 1.28556 -4.31038 0
M  V30 7746 C 751.706 3.04102 -3.18136 0
M  V30 7747 H 748.825 0.396373 -0.621335 0
M  V30 7748 H 751.467 0.373464 -1.86293 0
M  V30 7749 H 749.617 2.65625 -2.83506 0
M  V30 7750 H 751.289 0.697786 -4.55992 0
M  V30 7751 H 749.532 0.587498 -4.29803 0
M  V30 7752 H 750.203 1.97989 -5.15271 0
M  V30 7753 H 752.679 2.5276 -3.30532 0
M  V30 7754 H 751.555 3.67616 -4.07615 0
M  V30 7755 H 751.816 3.75053 -2.34068 0
M  V30 7756 N 750.875 1.45233 0.611969 0
M  V30 7757 C 752.105 1.52318 1.39581 0
M  V30 7758 C 752.513 0.153093 1.8858 0
M  V30 7759 O 751.856 -0.854792 1.62601 0
M  V30 7760 C 751.918 2.4426 2.63775 0
M  V30 7761 C 751.582 3.91079 2.36445 0
M  V30 7762 C 752.579 4.81099 1.97079 0
M  V30 7763 C 750.264 4.35958 2.49492 0
M  V30 7764 C 752.258 6.14002 1.71115 0
M  V30 7765 C 749.945 5.68903 2.23142 0
M  V30 7766 C 750.943 6.57744 1.84015 0
M  V30 7767 O 750.631 7.88226 1.5797 0
M  V30 7768 H 750.363 0.518428 0.43383 0
M  V30 7769 H 752.917 1.91067 0.753837 0
M  V30 7770 H 751.147 2.00474 3.30677 0
M  V30 7771 H 752.836 2.42077 3.25812 0
M  V30 7772 H 753.602 4.47692 1.86539 0
M  V30 7773 H 749.481 3.67053 2.78914 0
M  V30 7774 H 753.025 6.83305 1.405 0
M  V30 7775 H 748.922 6.01866 2.33297 0
M  V30 7776 H 749.69 8.00211 1.72058 0
M  V30 7777 N 752.353 -0.854086 1.3245 0
M  V30 7778 C 753.593 -1.62216 1.2436 0
M  V30 7779 C 753.957 -1.91042 -0.191564 0
M  V30 7780 O 755.158 -2.65864 -0.396211 0
M  V30 7781 C 753.429 -2.9066 2.0797 0
M  V30 7782 S 754.988 -3.81438 2.16911 0
M  V30 7783 H 751.806 -0.556386 0.442669 0
M  V30 7784 H 754.408 -1.01139 1.67305 0
M  V30 7785 H 753.112 -2.6743 3.11302 0
M  V30 7786 H 752.643 -3.56753 1.65805 0
M  V30 7787 H 754.658 -4.78347 1.31903 0
M  V30 7788 N 753.831 -1.1567 -1.07043 0
M  V30 7789 C 755.078 -0.933517 -1.79699 0
M  V30 7790 C 755.406 0.539162 -1.86878 0
M  V30 7791 O 754.661 1.41592 -1.35093 0
M  V30 7792 C 754.96 -1.49677 -3.24548 0
M  V30 7793 C 754.626 -2.99047 -3.37463 0
M  V30 7794 C 753.288 -3.39824 -3.40695 0
M  V30 7795 C 755.64 -3.95027 -3.40004 0
M  V30 7796 C 752.968 -4.75215 -3.44075 0
M  V30 7797 C 755.32 -5.30295 -3.44921 0
M  V30 7798 C 753.984 -5.70562 -3.46432 0
M  V30 7799 H 753.254 -0.341598 -0.657565 0
M  V30 7800 H 755.901 -1.44263 -1.25938 0
M  V30 7801 H 754.206 -0.908915 -3.81111 0
M  V30 7802 H 755.903 -1.29986 -3.79348 0
M  V30 7803 H 752.493 -2.6653 -3.35648 0
M  V30 7804 H 756.677 -3.64596 -3.36725 0
M  V30 7805 H 751.933 -5.05754 -3.43545 0
M  V30 7806 H 756.107 -6.0446 -3.45833 0
M  V30 7807 H 753.734 -6.75456 -3.48803 0
M  V30 7808 N 755.309 1.25446 -0.953992 0
M  V30 7809 C 756.537 1.97215 -0.625595 0
M  V30 7810 C 756.952 1.70911 0.802168 0
M  V30 7811 O 756.309 0.984782 1.5365 0
M  V30 7812 C 756.36 3.50777 -0.873943 0
M  V30 7813 O 756.081 3.76173 -2.24556 0
M  V30 7814 C 757.582 4.39776 -0.557845 0
M  V30 7815 H 754.802 0.628652 -0.2346 0
M  V30 7816 H 757.346 1.59632 -1.27819 0
M  V30 7817 H 755.501 3.86474 -0.267765 0
M  V30 7818 H 755.915 4.70636 -2.31522 0
M  V30 7819 H 757.389 5.46431 -0.782157 0
M  V30 7820 H 757.866 4.36257 0.507573 0
M  V30 7821 H 758.472 4.09644 -1.14332 0
M  V30 7822 N 756.787 0.722489 1.40064 0
M  V30 7823 C 758.198 0.336507 1.83642 0
M  V30 7824 C 758.549 -1.13002 1.6039 0
M  V30 7825 O 757.674 -1.87036 1.08842 0
M  V30 7826 C 758.269 0.603985 3.33373 0
M  V30 7827 C 756.828 0.271637 3.75419 0
M  V30 7828 C 755.975 0.872898 2.63203 0
M  V30 7829 H 758.926 0.921108 1.29233 0
M  V30 7830 H 758.947 -0.128471 3.80283 0
M  V30 7831 H 758.459 1.67141 3.50265 0
M  V30 7832 H 756.56 -0.790455 3.64119 0
M  V30 7833 H 756.673 0.745457 4.73265 0
M  V30 7834 H 755.037 0.300431 2.52922 0
M  V30 7835 H 755.82 1.94473 2.82905 0
M  V30 7836 N 758.265 -1.50454 0.469181 0
M  V30 7837 C 759.49 -2.0722 -0.0864892 0
M  V30 7838 C 759.915 -1.33098 -1.32916 0
M  V30 7839 O 759.273 -0.378084 -1.77314 0
M  V30 7840 C 759.321 -3.58845 -0.355384 0
M  V30 7841 O 758.425 -3.86583 -1.43622 0
M  V30 7842 H 757.766 -0.663889 0.0121414 0
M  V30 7843 H 760.296 -1.93674 0.659674 0
M  V30 7844 H 760.306 -4.03617 -0.596447 0
M  V30 7845 H 758.981 -4.12211 0.552698 0
M  V30 7846 H 757.558 -3.5365 -1.18262 0
M  V30 7847 N 759.743 -0.201713 -1.56304 0
M  V30 7848 C 761.154 0.309711 -1.84113 0
M  V30 7849 C 761.505 1.60912 -1.12258 0
M  V30 7850 O 760.63 2.12937 -0.385587 0
M  V30 7851 C 761.225 0.568706 -3.33993 0
M  V30 7852 C 759.784 1.02448 -3.6219 0
M  V30 7853 C 758.931 0.0766842 -2.77194 0
M  V30 7854 H 761.882 -0.425356 -1.52893 0
M  V30 7855 H 761.903 1.41721 -3.53122 0
M  V30 7856 H 761.415 -0.37719 -3.86263 0
M  V30 7857 H 759.516 1.98443 -3.15359 0
M  V30 7858 H 759.629 0.912619 -4.70328 0
M  V30 7859 H 757.993 0.579809 -2.48013 0
M  V30 7860 H 758.776 -0.863774 -3.32256 0
M  V30 7861 N 761.222 1.57436 0.0718424 0
M  V30 7862 C 762.468 1.87525 0.772149 0
M  V30 7863 C 762.801 0.79399 1.77227 0
M  V30 7864 O 762.076 -0.195733 1.93513 0
M  V30 7865 C 762.359 3.28272 1.48018 0
M  V30 7866 C 762.212 4.47052 0.49647 0
M  V30 7867 C 763.531 3.67256 2.42509 0
M  V30 7868 H 760.65 0.682049 0.279245 0
M  V30 7869 H 763.292 1.89967 0.03534 0
M  V30 7870 H 761.442 3.26321 2.10824 0
M  V30 7871 H 763.114 4.61127 -0.126375 0
M  V30 7872 H 761.357 4.33392 -0.188205 0
M  V30 7873 H 762.028 5.42315 1.02949 0
M  V30 7874 H 764.504 3.70301 1.89781 0
M  V30 7875 H 763.38 4.66626 2.89053 0
M  V30 7876 H 763.641 2.97186 3.27312 0
M  V30 7877 N 762.7 -0.34323 1.53817 0
M  V30 7878 C 763.946 -1.08504 1.71332 0
M  V30 7879 C 764.279 -1.88294 0.475285 0
M  V30 7880 O 763.554 -1.87205 -0.527688 0
M  V30 7881 C 763.837 -2.02597 2.97702 0
M  V30 7882 C 763.69 -1.26268 4.31713 0
M  V30 7883 C 765.009 -3.0241 3.19744 0
M  V30 7884 H 762.128 -0.393072 0.623429 0
M  V30 7885 H 764.77 -0.363579 1.86489 0
M  V30 7886 H 762.92 -2.64118 2.8491 0
M  V30 7887 H 764.592 -0.673594 4.56356 0
M  V30 7888 H 762.835 -0.564696 4.30109 0
M  V30 7889 H 763.506 -1.95253 5.16314 0
M  V30 7890 H 765.982 -2.51004 3.31868 0
M  V30 7891 H 764.858 -3.65449 4.09558 0
M  V30 7892 H 765.119 -3.73806 2.36054 0
M  V30 7893 N 764.178 -1.45556 -0.604258 0
M  V30 7894 C 765.424 -1.49968 -1.36519 0
M  V30 7895 C 765.757 -0.142236 -1.93678 0
M  V30 7896 O 765.032 0.843717 -1.75247 0
M  V30 7897 C 765.315 -2.58146 -2.51063 0
M  V30 7898 C 765.168 -4.03346 -1.99078 0
M  V30 7899 C 766.487 -2.62581 -3.53184 0
M  V30 7900 H 763.606 -0.545993 -0.495036 0
M  V30 7901 H 766.248 -1.77382 -0.680845 0
M  V30 7902 H 764.398 -2.34901 -3.09441 0
M  V30 7903 H 766.07 -4.37811 -1.45323 0
M  V30 7904 H 764.313 -4.13845 -1.30055 0
M  V30 7905 H 764.984 -4.74731 -2.81664 0
M  V30 7906 H 767.46 -2.83419 -3.04652 0
M  V30 7907 H 766.336 -3.40131 -4.30816 0
M  V30 7908 H 766.597 -1.67798 -4.09019 0
M  V30 7909 N 765.656 0.84705 -1.32902 0
M  V30 7910 C 766.904 1.5986 -1.2365 0
M  V30 7911 C 767.225 1.93974 0.199789 0
M  V30 7912 O 766.495 1.60273 1.12648 0
M  V30 7913 H 765.075 0.592696 -0.454665 0
M  V30 7914 H 767.737 1.01278 -1.66519 0
M  V30 7915 H 766.833 2.53218 -1.82448 0
M  V30 7916 N 767.134 1.16236 1.06428 0
M  V30 7917 C 768.362 0.967184 1.82902 0
M  V30 7918 C 768.777 -0.484601 1.82475 0
M  V30 7919 O 768.134 -1.33631 1.24294 0
M  V30 7920 C 768.185 1.48534 3.29576 0
M  V30 7921 O 767.906 2.88026 3.3011 0
M  V30 7922 C 769.407 1.33298 4.22784 0
M  V30 7923 H 766.627 0.342923 0.576754 0
M  V30 7924 H 769.171 1.54232 1.34286 0
M  V30 7925 H 767.326 0.952513 3.75508 0
M  V30 7926 H 767.74 3.11721 4.21818 0
M  V30 7927 H 769.214 1.74385 5.23731 0
M  V30 7928 H 769.691 0.278356 4.38317 0
M  V30 7929 H 770.297 1.85535 3.82697 0
M  V30 7930 N 768.612 -1.24939 0.960631 0
M  V30 7931 C 769.84 -1.96881 0.636045 0
M  V30 7932 C 770.255 -1.71334 -0.793093 0
M  V30 7933 O 769.612 -0.992917 -1.53125 0
M  V30 7934 C 769.663 -3.50309 0.892533 0
M  V30 7935 O 769.384 -3.74977 2.26548 0
M  V30 7936 C 770.885 -4.39474 0.581159 0
M  V30 7937 H 768.105 -0.627399 0.237931 0
M  V30 7938 H 770.649 -1.58952 1.28664 0
M  V30 7939 H 768.804 -3.86326 0.288257 0
M  V30 7940 H 769.218 -4.69401 2.34014 0
M  V30 7941 H 770.692 -5.46008 0.811125 0
M  V30 7942 H 771.169 -4.3652 -0.48443 0
M  V30 7943 H 771.775 -4.09032 1.16502 0
M  V30 7944 N 770.09 -0.729906 -1.39679 0
M  V30 7945 C 771.367 -0.202149 -1.94553 0
M  V30 7946 C 771.747 1.29507 -1.66707 0
M  V30 7947 O 771.095 2.05819 -0.992517 0
M  V30 7948 C 771.305 -0.530279 -3.44948 0
M  V30 7949 C 772.653 -0.476808 -4.21914 0
M  V30 7950 O 773.677 -0.467171 -3.53123 0
M  V30 7951 O 772.536 -0.466869 -5.44502 0
M  V30 7952 H 769.63 -0.0351644 -0.826252 0
M  V30 7953 H 772.176 -0.808417 -1.49207 0
M  V30 7954 H 770.948 -1.56526 -3.5863 0
M  V30 7955 H 770.571 0.10522 -3.97461 0
M  V30 7956 N 771.568 1.50203 -0.477153 0
M  V30 7957 C 772.515 2.28656 0.31386 0
M  V30 7958 C 773.485 1.33977 0.981802 0
M  V30 7959 O 774.67 1.62919 0.993072 0
M  V30 7960 C 771.81 3.16027 1.38639 0
M  V30 7961 C 770.923 4.25743 0.732615 0
M  V30 7962 C 770.058 5.00363 1.78355 0
M  V30 7963 C 769.097 6.01945 1.11035 0
M  V30 7964 N 768.234 6.6982 2.10441 0
M  V30 7965 H 773.074 2.958 -0.361445 0
M  V30 7966 H 770.611 1.45867 -0.190093 0
M  V30 7967 H 772.569 3.6504 2.01994 0
M  V30 7968 H 771.199 2.50917 2.03077 0
M  V30 7969 H 770.251 3.80398 -0.0136546 0
M  V30 7970 H 771.563 4.98393 0.201513 0
M  V30 7971 H 770.717 5.53124 2.49276 0
M  V30 7972 H 769.456 4.27432 2.34847 0
M  V30 7973 H 768.461 5.48438 0.386797 0
M  V30 7974 H 769.686 6.76851 0.552248 0
M  V30 7975 H 767.632 5.99677 2.65939 0
M  V30 7976 H 767.549 7.38366 1.62332 0
M  V30 7977 H 768.817 7.27196 2.80724 0
M  V30 7978 N 773.046 0.209999 1.56195 0
M  V30 7979 C 773.978 -0.736967 2.17029 0
M  V30 7980 C 774.991 -1.16599 1.13616 0
M  V30 7981 O 776.18 -1.09914 1.40646 0
M  V30 7982 C 773.28 -2.00852 2.72969 0
M  V30 7983 C 772.453 -1.73691 4.01435 0
M  V30 7984 C 771.512 -2.85439 4.42053 0
M  V30 7985 O 770.538 -2.54405 5.09183 0
M  V30 7986 N 771.74 -4.14135 4.06783 0
M  V30 7987 H 774.505 -0.216656 2.98916 0
M  V30 7988 H 772.066 0.0285672 1.61875 0
M  V30 7989 H 774.058 -2.74778 2.97118 0
M  V30 7990 H 772.628 -2.43963 1.95451 0
M  V30 7991 H 771.848 -0.834676 3.85262 0
M  V30 7992 H 773.136 -1.52961 4.85263 0
M  V30 7993 H 772.534 -4.42196 3.52816 0
M  V30 7994 H 771.091 -4.84642 4.35851 0
M  V30 7995 N 774.524 -1.57472 -0.0634922 0
M  V30 7996 C 775.772 -1.87283 -0.759563 0
M  V30 7997 C 776.093 -0.803135 -1.77693 0
M  V30 7998 O 775.363 0.167293 -1.95184 0
M  V30 7999 H 773.943 -0.691106 -0.283516 0
M  V30 8000 H 776.605 -1.94864 -0.0376091 0
M  V30 8001 H 775.701 -2.85064 -1.27062 0
M  V30 8002 N 776.003 0.335068 -1.53997 0
M  V30 8003 C 777.249 1.07594 -1.71905 0
M  V30 8004 C 777.582 1.88039 -0.485264 0
M  V30 8005 O 776.857 1.87482 0.517752 0
M  V30 8006 C 777.14 2.01016 -2.98772 0
M  V30 8007 C 776.993 1.23977 -4.32377 0
M  V30 8008 C 778.312 3.0071 -3.21343 0
M  V30 8009 H 775.431 0.38976 -0.625505 0
M  V30 8010 H 778.073 0.353684 -1.86679 0
M  V30 8011 H 776.223 2.62603 -2.86307 0
M  V30 8012 H 777.895 0.649383 -4.56706 0
M  V30 8013 H 776.138 0.541878 -4.30402 0
M  V30 8014 H 776.809 1.92512 -5.17342 0
M  V30 8015 H 779.285 2.4924 -3.33194 0
M  V30 8016 H 778.161 3.63272 -4.11491 0
M  V30 8017 H 778.422 3.72549 -2.38033 0
M  V30 8018 N 777.481 1.45874 0.596531 0
M  V30 8019 C 778.892 1.44798 1.17857 0
M  V30 8020 C 779.243 0.181443 1.95359 0
M  V30 8021 O 778.368 -0.716336 2.042 0
M  V30 8022 C 778.963 2.62333 2.14398 0
M  V30 8023 C 777.522 2.64342 2.67955 0
M  V30 8024 C 776.669 2.37244 1.43564 0
M  V30 8025 H 779.62 1.53954 0.385222 0
M  V30 8026 H 779.641 2.37063 2.97626 0
M  V30 8027 H 779.153 3.54499 1.57963 0
M  V30 8028 H 777.254 1.76213 3.28298 0
M  V30 8029 H 777.367 3.63897 3.11634 0
M  V30 8030 H 775.731 1.87022 1.72901 0
M  V30 8031 H 776.514 3.31568 0.889805 0
M  V30 8032 N 778.959 -0.83999 1.33349 0
M  V30 8033 C 780.187 -1.62728 1.27778 0
M  V30 8034 C 780.602 -1.88191 -0.151505 0
M  V30 8035 O 779.959 -1.46128 -1.09329 0
M  V30 8036 C 780.01 -2.97813 2.04913 0
M  V30 8037 O 779.731 -2.73469 3.42266 0
M  V30 8038 C 781.232 -3.92245 2.0654 0
M  V30 8039 H 778.452 -0.506374 0.440257 0
M  V30 8040 H 780.996 -1.04637 1.75703 0
M  V30 8041 H 779.151 -3.52509 1.60674 0
M  V30 8042 H 779.565 -3.59483 3.81932 0
M  V30 8043 H 781.039 -4.84249 2.64966 0
M  V30 8044 H 781.516 -4.26332 1.05537 0
M  V30 8045 H 782.122 -3.43487 2.50793 0
M  V30 8046 N 780.437 -1.16799 -1.0581 0
M  V30 8047 C 781.667 -0.975454 -1.82122 0
M  V30 8048 C 782.075 0.479584 -1.83021 0
M  V30 8049 O 781.418 1.34471 -1.25153 0
M  V30 8050 C 781.48 -1.43209 -3.29744 0
M  V30 8051 C 781.144 -2.908 -3.5254 0
M  V30 8052 C 782.141 -3.88775 -3.45181 0
M  V30 8053 C 779.826 -3.28832 -3.79703 0
M  V30 8054 C 781.82 -5.22782 -3.64661 0
M  V30 8055 C 779.507 -4.63007 -3.98832 0
M  V30 8056 C 780.505 -5.59791 -3.91309 0
M  V30 8057 O 780.193 -6.9154 -4.09911 0
M  V30 8058 H 779.925 -0.345655 -0.580947 0
M  V30 8059 H 782.479 -1.55355 -1.34365 0
M  V30 8060 H 780.709 -0.797504 -3.78387 0
M  V30 8061 H 782.398 -1.2062 -3.87564 0
M  V30 8062 H 783.164 -3.60738 -3.2418 0
M  V30 8063 H 779.043 -2.54073 -3.84666 0
M  V30 8064 H 782.587 -5.98312 -3.58705 0
M  V30 8065 H 778.484 -4.90752 -4.19324 0
M  V30 8066 H 779.252 -6.98188 -4.27172 0
M  V30 8067 N 781.915 1.24427 -0.967243 0
M  V30 8068 C 783.143 1.96541 -0.646477 0
M  V30 8069 C 783.558 1.71753 0.783996 0
M  V30 8070 O 782.915 1.00102 1.52597 0
M  V30 8071 C 782.966 3.4983 -0.911098 0
M  V30 8072 O 782.687 3.7377 -2.28534 0
M  V30 8073 C 784.188 4.3916 -0.604458 0
M  V30 8074 H 781.408 0.626129 -0.241255 0
M  V30 8075 H 783.952 1.58268 -1.29505 0
M  V30 8076 H 782.107 3.86168 -0.308741 0
M  V30 8077 H 782.521 4.68154 -2.365 0
M  V30 8078 H 783.995 5.4557 -0.840069 0
M  V30 8079 H 784.472 4.36771 0.461273 0
M  V30 8080 H 785.078 4.08409 -1.1867 0
M  V30 8081 N 783.393 0.737304 1.3929 0
M  V30 8082 C 784.639 0.295581 2.01241 0
M  V30 8083 C 784.994 -1.10561 1.57461 0
M  V30 8084 O 784.287 -1.74346 0.7946 0
M  V30 8085 C 784.481 0.338438 3.55794 0
M  V30 8086 C 784.31 1.74225 4.14579 0
M  V30 8087 C 783.08 2.35502 4.47065 0
M  V30 8088 C 785.278 2.69623 4.37959 0
M  V30 8089 N 783.26 3.68014 4.91365 0
M  V30 8090 C 784.631 3.86873 4.84489 0
M  V30 8091 C 786.686 2.67355 4.2003 0
M  V30 8092 C 785.389 5.02193 5.14971 0
M  V30 8093 C 787.415 3.8182 4.51627 0
M  V30 8094 C 786.777 4.97806 4.98366 0
M  V30 8095 H 782.876 0.154468 0.766592 0
M  V30 8096 H 785.46 0.963768 1.69173 0
M  V30 8097 H 783.631 -0.299406 3.87244 0
M  V30 8098 H 785.363 -0.122053 4.04516 0
M  V30 8099 H 782.118 1.87406 4.34943 0
M  V30 8100 H 782.542 4.36051 5.17869 0
M  V30 8101 H 787.184 1.78876 3.83097 0
M  V30 8102 H 784.902 5.913 5.50809 0
M  V30 8103 H 788.488 3.81366 4.39376 0
M  V30 8104 H 787.368 5.84909 5.22351 0
M  V30 8105 N 784.871 -1.49948 0.485112 0
M  V30 8106 C 786.119 -2.01996 -0.0648775 0
M  V30 8107 C 786.44 -1.36819 -1.38945 0
M  V30 8108 O 785.71 -0.518163 -1.88923 0
M  V30 8109 H 784.29 -0.746513 -0.0269662 0
M  V30 8110 H 786.952 -1.84136 0.638733 0
M  V30 8111 H 786.048 -3.11418 -0.20617 0
M  V30 8112 N 786.349 -0.21828 -1.56081 0
M  V30 8113 C 787.259 0.704602 -2.23769 0
M  V30 8114 C 788.275 1.21633 -1.24425 0
M  V30 8115 O 789.451 1.25862 -1.57228 0
M  V30 8116 C 786.516 1.89725 -2.90182 0
M  V30 8117 C 785.577 1.42782 -4.0486 0
M  V30 8118 C 784.81 2.56361 -4.68097 0
M  V30 8119 O 785.033 3.74417 -4.30312 0
M  V30 8120 O 783.967 2.2775 -5.57148 0
M  V30 8121 H 787.793 0.158007 -3.03289 0
M  V30 8122 H 785.378 0.0120279 -1.49395 0
M  V30 8123 H 787.26 2.59382 -3.32113 0
M  V30 8124 H 785.935 2.432 -2.13624 0
M  V30 8125 H 784.842 0.699359 -3.67505 0
M  V30 8126 H 786.175 0.939474 -4.83151 0
M  V30 8127 N 787.827 1.57504 0.0551401 0
M  V30 8128 C 788.775 2.05884 1.08233 0
M  V30 8129 C 789.769 0.967383 1.39061 0
M  V30 8130 O 790.975 1.15242 1.38273 0
M  V30 8131 H 787.35 0.656673 0.366449 0
M  V30 8132 H 789.321 2.91273 0.648269 0
M  V30 8133 C 788.07 2.53221 2.38273 0
M  V30 8134 H 787.393 3.36809 2.15406 0
M  V30 8135 H 788.833 2.9081 3.08554 0
M  V30 8136 C 787.292 1.42218 3.05411 0
M  V30 8137 O 787.822 0.773638 3.9418 0
M  V30 8138 N 786.028 1.16316 2.66306 0
M  V30 8139 H 785.575 1.69237 1.94207 0
M  V30 8140 H 785.533 0.422534 3.11548 0
M  V30 8141 N 789.305 -0.326896 1.54172 0
M  V30 8142 C 790.215 -1.42525 1.86343 0
M  V30 8143 C 791.231 -1.56764 0.75505 0
M  V30 8144 O 792.407 -1.71924 1.04901 0
M  V30 8145 C 789.472 -2.77286 2.08119 0
M  V30 8146 C 788.533 -2.7225 3.31931 0
M  V30 8147 C 787.766 -4.00584 3.52659 0
M  V30 8148 O 787.989 -4.98686 2.76891 0
M  V30 8149 O 786.923 -4.04045 4.46129 0
M  V30 8150 H 790.749 -1.18249 2.79734 0
M  V30 8151 H 788.334 -0.520614 1.40036 0
M  V30 8152 H 790.216 -3.57065 2.23791 0
M  V30 8153 H 788.891 -3.01459 1.17917 0
M  V30 8154 H 787.798 -1.91033 3.21647 0
M  V30 8155 H 789.131 -2.53032 4.2218 0
M  V30 8156 N 790.784 -1.46188 -0.588786 0
M  V30 8157 C 792.012 -1.54743 -1.37339 0
M  V30 8158 C 792.427 -0.186446 -1.87877 0
M  V30 8159 O 791.784 0.815247 -1.63279 0
M  V30 8160 C 791.835 -2.54727 -2.56508 0
M  V30 8161 O 791.556 -3.85539 -2.08066 0
M  V30 8162 C 793.057 -2.73163 -3.49137 0
M  V30 8163 H 790.277 -0.523484 -0.419768 0
M  V30 8164 H 792.821 -1.91543 -0.716345 0
M  V30 8165 H 790.976 -2.20948 -3.18215 0
M  V30 8166 H 791.39 -4.39905 -2.85629 0
M  V30 8167 H 792.864 -3.47057 -4.2925 0
M  V30 8168 H 793.341 -1.79856 -4.00685 0
M  V30 8169 H 793.947 -3.08014 -2.9327 0
M  V30 8170 N 792.262 0.832906 -1.33792 0
M  V30 8171 C 793.539 1.57359 -1.16178 0
M  V30 8172 C 793.919 2.09372 0.269532 0
M  V30 8173 O 793.267 1.89993 1.26944 0
M  V30 8174 C 793.477 2.70279 -2.20795 0
M  V30 8175 C 794.825 3.39305 -2.55259 0
M  V30 8176 O 795.849 2.80526 -2.19508 0
M  V30 8177 O 794.708 4.45428 -3.16632 0
M  V30 8178 H 791.802 0.694025 -0.449731 0
M  V30 8179 H 794.348 0.875144 -1.45394 0
M  V30 8180 H 793.12 2.29527 -3.16911 0
M  V30 8181 H 792.743 3.47782 -1.927 0
M  V30 8182 N 793.74 1.17359 1.05189 0
M  V30 8183 C 794.986 0.963413 1.78455 0
M  V30 8184 C 795.319 -0.506703 1.87473 0
M  V30 8185 O 794.594 -1.37611 1.37453 0
M  V30 8186 C 794.877 1.60519 3.22344 0
M  V30 8187 C 794.73 3.14741 3.21338 0
M  V30 8188 C 796.049 1.3091 4.20179 0
M  V30 8189 H 793.168 0.351412 0.647826 0
M  V30 8190 H 795.81 1.44858 1.22948 0
M  V30 8191 H 793.96 1.19265 3.69741 0
M  V30 8192 H 795.632 3.65053 2.82017 0
M  V30 8193 H 793.875 3.4749 2.59679 0
M  V30 8194 H 794.546 3.54775 4.22894 0
M  V30 8195 H 797.022 1.66635 3.81277 0
M  V30 8196 H 795.898 1.784 5.191 0
M  V30 8197 H 796.159 0.229908 4.41502 0
M  V30 8198 N 795.218 -1.23913 0.973828 0
M  V30 8199 C 796.465 -1.92151 0.639079 0
M  V30 8200 C 796.793 -1.76064 -0.826545 0
M  V30 8201 O 796.048 -1.11126 -1.61088 0
M  V30 8202 C 796.347 -3.4406 0.967356 0
M  V30 8203 C 796.013 -3.80321 2.42212 0
M  V30 8204 C 794.675 -3.8993 2.81971 0
M  V30 8205 C 797.027 -3.97935 3.36596 0
M  V30 8206 C 794.355 -4.14575 4.15144 0
M  V30 8207 C 796.707 -4.24079 4.69404 0
M  V30 8208 C 795.371 -4.31908 5.08932 0
M  V30 8209 H 794.641 -0.70313 0.233856 0
M  V30 8210 H 797.288 -1.47072 1.22646 0
M  V30 8211 H 795.593 -3.90667 0.297807 0
M  V30 8212 H 797.29 -3.95077 0.686654 0
M  V30 8213 H 793.88 -3.73411 2.10385 0
M  V30 8214 H 798.064 -3.89908 3.07059 0
M  V30 8215 H 793.32 -4.18858 4.45385 0
M  V30 8216 H 797.494 -4.36652 5.42502 0
M  V30 8217 H 795.121 -4.50758 6.12145 0
M  V30 8218 N 796.696 -0.74468 -1.38897 0
M  V30 8219 C 797.626 -0.126355 -2.33158 0
M  V30 8220 C 798.607 0.713517 -1.54412 0
M  V30 8221 O 799.792 0.656523 -1.82766 0
M  V30 8222 C 796.922 0.774375 -3.38557 0
M  V30 8223 C 795.876 0.0379214 -4.27983 0
M  V30 8224 C 795.202 1.05631 -5.24162 0
M  V30 8225 C 796.502 -1.12523 -5.10035 0
M  V30 8226 H 798.196 -0.913744 -2.85116 0
M  V30 8227 H 795.742 -0.440847 -1.37086 0
M  V30 8228 H 797.695 1.21655 -4.03458 0
M  V30 8229 H 796.419 1.59399 -2.85061 0
M  V30 8230 H 795.078 -0.384733 -3.64576 0
M  V30 8231 H 794.726 1.86975 -4.66958 0
M  V30 8232 H 794.426 0.568261 -5.84846 0
M  V30 8233 H 795.95 1.49799 -5.9194 0
M  V30 8234 H 797.364 -0.761037 -5.68226 0
M  V30 8235 H 795.761 -1.54355 -5.79909 0
M  V30 8236 H 796.831 -1.94237 -4.44297 0
M  V30 8237 N 798.174 1.49689 -0.493057 0
M  V30 8238 C 799.104 2.31826 0.279073 0
M  V30 8239 C 800.085 1.39733 0.969987 0
M  V30 8240 O 801.27 1.68646 0.962925 0
M  V30 8241 C 798.4 3.20046 1.34862 0
M  V30 8242 C 797.354 4.20869 0.77805 0
M  V30 8243 C 796.68 4.97971 1.94753 0
M  V30 8244 C 797.98 5.21813 -0.225543 0
M  V30 8245 H 799.674 2.96627 -0.406512 0
M  V30 8246 H 797.22 1.42647 -0.196943 0
M  V30 8247 H 799.173 3.76315 1.89645 0
M  V30 8248 H 797.897 2.53172 2.06328 0
M  V30 8249 H 796.556 3.65733 0.252036 0
M  V30 8250 H 796.204 4.27552 2.64969 0
M  V30 8251 H 795.904 5.66186 1.57187 0
M  V30 8252 H 797.428 5.57082 2.49984 0
M  V30 8253 H 798.842 5.72823 0.233864 0
M  V30 8254 H 797.239 5.97872 -0.516622 0
M  V30 8255 H 798.309 4.71209 -1.14412 0
M  V30 8256 N 799.652 0.226554 1.55963 0
M  V30 8257 C 800.6 -0.697922 2.21882 0
M  V30 8258 C 801.594 -1.19586 1.19981 0
M  V30 8259 O 802.8 -1.15511 1.38048 0
M  V30 8260 H 799.175 -0.243501 0.711485 0
M  V30 8261 H 801.146 -0.118576 2.98164 0
M  V30 8262 C 799.895 -1.89309 2.91646 0
M  V30 8263 H 799.218 -1.51906 3.69817 0
M  V30 8264 H 800.658 -2.51762 3.41162 0
M  V30 8265 C 799.117 -2.75162 1.94391 0
M  V30 8266 O 799.647 -3.74071 1.46402 0
M  V30 8267 N 797.853 -2.41302 1.61932 0
M  V30 8268 H 797.4 -1.60923 2.01151 0
M  V30 8269 H 797.358 -2.99023 0.971219 0
M  V30 8270 N 801.13 -1.57531 -0.0467866 0
M  V30 8271 C 802.355 -1.93087 -0.757123 0
M  V30 8272 C 802.78 -0.825116 -1.69037 0
M  V30 8273 O 802.138 0.220449 -1.79955 0
M  V30 8274 C 802.186 -3.27669 -1.5055 0
M  V30 8275 O 801.29 -3.18667 -2.61773 0
M  V30 8276 H 800.631 -0.631597 -0.204892 0
M  V30 8277 H 803.161 -2.04599 -0.00755232 0
M  V30 8278 H 803.171 -3.6214 -1.87932 0
M  V30 8279 H 801.846 -4.07717 -0.820931 0
M  V30 8280 H 800.423 -2.95798 -2.27064 0
M  V30 8281 N 802.608 0.318715 -1.54344 0
M  V30 8282 C 803.836 1.0755 -1.7675 0
M  V30 8283 C 804.251 1.81543 -0.518422 0
M  V30 8284 O 803.608 1.75198 0.511078 0
M  V30 8285 C 803.659 2.06983 -2.96378 0
M  V30 8286 O 803.38 1.35995 -4.16458 0
M  V30 8287 C 804.881 2.94841 -3.31034 0
M  V30 8288 H 802.101 0.319711 -0.589937 0
M  V30 8289 H 804.645 0.363369 -2.01246 0
M  V30 8290 H 802.8 2.73724 -2.74142 0
M  V30 8291 H 803.214 2.02623 -4.83781 0
M  V30 8292 H 804.688 3.60496 -4.18027 0
M  V30 8293 H 805.165 3.62199 -2.48412 0
M  V30 8294 H 805.771 2.33656 -3.55366 0
M  V30 8295 N 804.086 1.46499 0.581025 0
M  V30 8296 C 805.502 1.31491 0.904563 0
M  V30 8297 C 805.702 0.287598 1.99437 0
M  V30 8298 O 804.758 -0.309247 2.50599 0
M  V30 8299 C 806.071 2.70163 1.32032 0
M  V30 8300 C 807.619 2.78266 1.43308 0
M  V30 8301 C 808.094 4.17524 1.8825 0
M  V30 8302 N 809.585 4.19949 1.9544 0
M  V30 8303 C 810.32 5.24594 2.31493 0
M  V30 8304 N 809.816 6.39564 2.66326 0
M  V30 8305 N 811.609 5.11961 2.32062 0
M  V30 8306 H 803.76 2.11946 -0.138856 0
M  V30 8307 H 806.023 0.948 0.000548528 0
M  V30 8308 H 805.729 3.46655 0.593554 0
M  V30 8309 H 805.603 3.00379 2.2815 0
M  V30 8310 H 807.99 2.02061 2.15071 0
M  V30 8311 H 808.071 2.51732 0.45438 0
M  V30 8312 H 807.715 4.94225 1.17065 0
M  V30 8313 H 807.645 4.41466 2.87081 0
M  V30 8314 H 810.136 3.36996 1.71004 0
M  V30 8315 H 810.449 7.15187 2.92793 0
M  V30 8316 H 808.794 6.42923 2.6396 0
M  V30 8317 H 811.985 4.21177 2.04272 0
M  V30 8318 H 812.158 5.93626 2.5983 0
M  V30 8319 N 805.565 -0.825799 1.34232 0
M  V30 8320 C 806.976 -1.39835 1.23706 0
M  V30 8321 C 807.327 -1.95709 -0.138649 0
M  V30 8322 O 806.452 -1.89833 -1.03886 0
M  V30 8323 C 807.047 -2.54203 2.23978 0
M  V30 8324 C 805.606 -3.07374 2.17251 0
M  V30 8325 C 804.753 -1.80232 2.10741 0
M  V30 8326 H 807.704 -0.630442 1.4564 0
M  V30 8327 H 807.725 -3.32214 1.8551 0
M  V30 8328 H 807.237 -2.13506 3.24094 0
M  V30 8329 H 805.338 -3.52583 1.20483 0
M  V30 8330 H 805.451 -3.6666 3.08379 0
M  V30 8331 H 803.815 -2.01012 1.56417 0
M  V30 8332 H 804.598 -1.41713 3.12686 0
M  V30 8333 N 807.043 -1.17915 -1.04565 0
M  V30 8334 C 808.454 -0.976383 -1.59134 0
M  V30 8335 C 808.805 0.475267 -1.90357 0
M  V30 8336 O 807.93 1.35172 -1.6899 0
M  V30 8337 C 808.525 -1.76604 -2.89131 0
M  V30 8338 C 807.084 -1.60777 -3.40335 0
M  V30 8339 C 806.231 -1.76369 -2.13985 0
M  V30 8340 H 809.182 -1.32532 -0.872985 0
M  V30 8341 H 809.203 -1.25215 -3.59307 0
M  V30 8342 H 808.715 -2.82252 -2.66375 0
M  V30 8343 H 806.816 -0.576436 -3.68114 0
M  V30 8344 H 806.929 -2.40268 -4.14497 0
M  V30 8345 H 805.293 -1.19268 -2.25049 0
M  V30 8346 H 806.076 -2.83441 -1.9369 0
M  V30 8347 N 808.521 1.23394 -0.980386 0
M  V30 8348 C 809.937 1.43961 -0.689008 0
M  V30 8349 C 810.137 1.87229 0.744809 0
M  V30 8350 O 809.193 2.01831 1.51725 0
M  V30 8351 C 810.506 2.49128 -1.68392 0
M  V30 8352 C 812.054 2.62941 -1.69796 0
M  V30 8353 C 812.529 3.71317 -2.68118 0
M  V30 8354 N 814.02 3.7876 -2.66636 0
M  V30 8355 C 814.755 4.62176 -3.39383 0
M  V30 8356 N 814.251 5.49682 -4.21688 0
M  V30 8357 N 816.044 4.56372 -3.28147 0
M  V30 8358 H 808.195 0.936106 -1.90659 0
M  V30 8359 H 810.458 0.473023 -0.821555 0
M  V30 8360 H 810.164 2.24252 -2.70931 0
M  V30 8361 H 810.038 3.47514 -1.46675 0
M  V30 8362 H 812.425 2.87168 -0.679617 0
M  V30 8363 H 812.506 1.64871 -1.95579 0
M  V30 8364 H 812.15 3.4784 -3.70095 0
M  V30 8365 H 812.08 4.68929 -2.3961 0
M  V30 8366 H 814.571 3.16226 -2.06904 0
M  V30 8367 H 814.884 6.10323 -4.74053 0
M  V30 8368 H 813.229 5.49306 -4.25779 0
M  V30 8369 H 816.42 3.87029 -2.63299 0
M  V30 8370 H 816.593 5.21153 -3.85102 0
M  V30 8371 N 809.999 0.752036 1.385 0
M  V30 8372 C 811.247 0.306895 1.99756 0
M  V30 8373 C 811.568 -1.11478 1.59992 0
M  V30 8374 O 810.838 -1.76206 0.856045 0
M  V30 8375 H 809.418 0.11048 0.738785 0
M  V30 8376 H 812.08 0.965785 1.69289 0
M  V30 8377 H 811.176 0.368797 3.09913 0
M  V30 8378 N 811.477 -1.49425 0.500989 0
M  V30 8379 C 812.44 -2.27646 -0.266416 0
M  V30 8380 C 813.44 -1.3366 -0.893961 0
M  V30 8381 O 814.63 -1.5682 -0.758495 0
M  V30 8382 C 811.762 -3.11618 -1.38227 0
M  V30 8383 H 812.955 -2.96945 0.419973 0
M  V30 8384 H 810.508 -1.5419 0.255954 0
M  V30 8385 H 811.243 -2.46885 -2.10281 0
M  V30 8386 H 811.028 -3.80721 -0.937746 0
M  V30 8387 H 812.518 -3.70698 -1.92283 0
M  V30 8388 N 812.955 -0.234822 -1.55841 0
M  V30 8389 C 814.201 0.387023 -1.99684 0
M  V30 8390 C 814.556 1.56439 -1.12003 0
M  V30 8391 O 813.849 1.90818 -0.172879 0
M  V30 8392 C 814.043 0.858032 -3.46947 0
M  V30 8393 C 813.872 -0.272152 -4.48876 0
M  V30 8394 C 812.642 -0.742896 -4.99809 0
M  V30 8395 C 814.84 -1.09501 -5.02508 0
M  V30 8396 N 812.822 -1.84675 -5.85464 0
M  V30 8397 C 814.193 -2.04748 -5.85217 0
M  V30 8398 C 816.248 -1.13295 -4.84839 0
M  V30 8399 C 814.951 -3.03483 -6.52143 0
M  V30 8400 C 816.977 -2.10854 -5.52535 0
M  V30 8401 C 816.339 -3.04838 -6.35022 0
M  V30 8402 H 812.438 0.107918 -0.774518 0
M  V30 8403 H 815.022 -0.349635 -1.91535 0
M  V30 8404 H 813.193 1.56401 -3.55518 0
M  V30 8405 H 814.925 1.45381 -3.77686 0
M  V30 8406 H 811.68 -0.32915 -4.72455 0
M  V30 8407 H 812.104 -2.40108 -6.32991 0
M  V30 8408 H 816.746 -0.420226 -4.20706 0
M  V30 8409 H 814.464 -3.7571 -7.15449 0
M  V30 8410 H 818.05 -2.1448 -5.40823 0
M  V30 8411 H 816.93 -3.79097 -6.8648 0
M  V30 8412 N 814.433 1.57553 0.0384317 0
M  V30 8413 C 815.68 1.88841 0.731116 0
M  V30 8414 C 816.008 0.83093 1.75857 0
M  V30 8415 O 815.263 -0.169248 1.94967 0
M  V30 8416 C 815.562 3.26862 1.44554 0
M  V30 8417 C 815.228 4.47472 0.554946 0
M  V30 8418 C 813.89 4.80203 0.309621 0
M  V30 8419 C 816.242 5.21165 -0.0605204 0
M  V30 8420 C 813.57 5.8402 -0.560101 0
M  V30 8421 C 815.922 6.25905 -0.91789 0
M  V30 8422 C 814.586 6.57117 -1.17277 0
M  V30 8423 H 813.856 0.691018 0.267534 0
M  V30 8424 H 816.503 1.91498 -0.00883195 0
M  V30 8425 H 814.808 3.2015 2.25856 0
M  V30 8426 H 816.505 3.48316 1.98688 0
M  V30 8427 H 813.095 4.21874 0.756304 0
M  V30 8428 H 817.279 4.96164 0.116064 0
M  V30 8429 H 812.535 6.06583 -0.765974 0
M  V30 8430 H 816.709 6.82155 -1.40136 0
M  V30 8431 H 814.336 7.37385 -1.84843 0
M  V30 8432 N 815.911 -0.310526 1.54511 0
M  V30 8433 C 817.159 -1.04484 1.72996 0
M  V30 8434 C 817.48 -1.88118 0.513479 0
M  V30 8435 O 816.75 -1.90119 -0.472384 0
M  V30 8436 H 815.33 -0.388747 0.637875 0
M  V30 8437 H 817.992 -0.343811 1.91844 0
M  V30 8438 H 817.088 -1.70341 2.61515 0
M  V30 8439 N 817.389 -1.46805 -0.573248 0
M  V30 8440 C 818.629 -1.5417 -1.34205 0
M  V30 8441 C 818.993 -0.192675 -1.91031 0
M  V30 8442 O 820.194 -0.141111 -2.68429 0
M  V30 8443 C 818.465 -2.61682 -2.43428 0
M  V30 8444 S 820.024 -2.88519 -3.30609 0
M  V30 8445 H 816.842 -0.544592 -0.4571 0
M  V30 8446 H 819.444 -1.84094 -0.658001 0
M  V30 8447 H 818.148 -3.58319 -2.00088 0
M  V30 8448 H 817.679 -2.33521 -3.16594 0
M  V30 8449 H 819.694 -2.2451 -4.42504 0
M  V30 8450 N 818.867 0.818669 -1.34668 0
M  V30 8451 C 820.095 1.60674 -1.30351 0
M  V30 8452 C 820.51 1.88408 0.121546 0
M  V30 8453 O 819.867 1.47849 1.06991 0
M  V30 8454 C 819.918 2.94516 -2.09625 0
M  V30 8455 O 819.639 2.6799 -3.46573 0
M  V30 8456 C 821.14 3.8891 -2.12754 0
M  V30 8457 H 818.36 0.499306 -0.448258 0
M  V30 8458 H 820.904 1.01828 -1.77345 0
M  V30 8459 H 819.059 3.49908 -1.66262 0
M  V30 8460 H 819.473 3.53361 -3.87603 0
M  V30 8461 H 820.947 4.79972 -2.72637 0
M  V30 8462 H 821.424 4.24599 -1.12306 0
M  V30 8463 H 822.03 3.39453 -2.56225 0
M  V30 8464 N 820.346 1.18468 1.03938 0
M  V30 8465 C 821.592 0.992302 1.77553 0
M  V30 8466 C 821.947 -0.472959 1.86496 0
M  V30 8467 O 821.24 -1.34662 1.36296 0
M  V30 8468 C 821.434 1.58229 3.20466 0
M  V30 8469 C 821.263 3.1034 3.25452 0
M  V30 8470 C 820.033 3.79166 3.34008 0
M  V30 8471 C 822.231 4.07814 3.13357 0
M  V30 8472 N 820.213 5.18768 3.28258 0
M  V30 8473 C 821.584 5.33946 3.15121 0
M  V30 8474 C 823.639 3.99315 2.97409 0
M  V30 8475 C 822.342 6.52565 3.02574 0
M  V30 8476 C 824.368 5.17532 2.86208 0
M  V30 8477 C 823.73 6.42557 2.88617 0
M  V30 8478 H 819.829 0.417131 0.661457 0
M  V30 8479 H 822.413 1.50265 1.23808 0
M  V30 8480 H 820.584 1.0981 3.72554 0
M  V30 8481 H 822.316 1.32531 3.82384 0
M  V30 8482 H 819.071 3.29905 3.39794 0
M  V30 8483 H 819.495 5.91783 3.28818 0
M  V30 8484 H 824.137 3.03485 2.94375 0
M  V30 8485 H 821.855 7.48592 3.0436 0
M  V30 8486 H 825.441 5.12748 2.7492 0
M  V30 8487 H 824.321 7.32494 2.80039 0
M  V30 8488 N 821.824 -1.22873 0.986916 0
M  V30 8489 C 822.757 -2.23154 0.477245 0
M  V30 8490 C 823.735 -1.55981 -0.459206 0
M  V30 8491 O 824.919 -1.84503 -0.386141 0
M  V30 8492 C 822.046 -3.37289 -0.308838 0
M  V30 8493 C 821.092 -4.22637 0.572717 0
M  V30 8494 S 821.925 -4.95758 2.02446 0
M  V30 8495 C 823.081 -6.13338 1.2477 0
M  V30 8496 H 823.314 -2.6604 1.32702 0
M  V30 8497 H 820.847 -1.32455 0.793415 0
M  V30 8498 H 822.805 -4.03472 -0.756351 0
M  V30 8499 H 821.466 -2.92922 -1.13381 0
M  V30 8500 H 820.659 -5.0399 -0.0318024 0
M  V30 8501 H 820.261 -3.61555 0.956746 0
M  V30 8502 H 822.553 -6.7556 0.51231 0
M  V30 8503 H 823.496 -6.78189 2.03629 0
M  V30 8504 H 823.904 -5.59311 0.763622 0
M  V30 8505 N 823.302 -0.75937 -1.38099 0
M  V30 8506 C 824.25 -0.124954 -2.32264 0
M  V30 8507 C 825.244 0.698863 -1.54312 0
M  V30 8508 O 826.45 0.597312 -1.698 0
M  V30 8509 H 822.825 -0.0216142 -0.751689 0
M  V30 8510 H 824.796 -0.935115 -2.83369 0
M  V30 8511 C 823.545 0.749463 -3.39527 0
M  V30 8512 H 822.868 0.124932 -3.99605 0
M  V30 8513 H 824.308 1.16055 -4.07808 0
M  V30 8514 C 822.767 1.89464 -2.78577 0
M  V30 8515 O 823.297 2.98923 -2.68343 0
M  V30 8516 N 821.503 1.69145 -2.36301 0
M  V30 8517 H 821.05 0.801157 -2.44825 0
M  V30 8518 H 821.008 2.45936 -1.95864 0
M  V30 8519 N 824.78 1.49157 -0.508906 0
M  V30 8520 C 826.028 2.02073 0.0327335 0
M  V30 8521 C 826.349 1.39012 1.3675 0
M  V30 8522 O 825.619 0.548153 1.88075 0
M  V30 8523 H 824.199 0.746848 0.0150864 0
M  V30 8524 H 826.861 1.83097 -0.667946 0
M  V30 8525 H 825.957 3.11707 0.1566 0
M  V30 8526 N 826.258 0.243083 1.55714 0
M  V30 8527 C 827.486 -0.386971 2.03249 0
M  V30 8528 C 827.901 -1.51812 1.12243 0
M  V30 8529 O 827.258 -1.81992 0.136119 0
M  V30 8530 C 827.309 -0.898361 3.5016 0
M  V30 8531 O 827.03 0.187708 4.37698 0
M  V30 8532 C 828.531 -1.59949 4.13438 0
M  V30 8533 H 825.751 -0.0923981 0.664608 0
M  V30 8534 H 828.295 0.365832 2.01201 0
M  V30 8535 H 826.45 -1.60136 3.52754 0
M  V30 8536 H 826.864 -0.200001 5.24119 0
M  V30 8537 H 828.338 -1.90907 5.17937 0
M  V30 8538 H 828.815 -2.52014 3.59702 0
M  V30 8539 H 829.421 -0.941163 4.14756 0
M  V30 8540 N 827.736 -1.57571 -0.0300757 0
M  V30 8541 C 828.984 -1.88852 -0.719666 0
M  V30 8542 C 829.305 -0.840645 -1.75949 0
M  V30 8543 O 828.575 0.125854 -1.95495 0
M  V30 8544 H 827.155 -0.696965 -0.268792 0
M  V30 8545 H 829.817 -1.949 0.00373285 0
M  V30 8546 H 828.913 -2.87695 -1.20987 0
M  V30 8547 N 829.214 0.302327 -1.54673 0
M  V30 8548 C 830.461 1.0377 -1.73891 0
M  V30 8549 C 830.789 1.87309 -0.523979 0
M  V30 8550 O 830.044 1.8936 0.494084 0
M  V30 8551 C 830.343 1.97365 -2.97963 0
M  V30 8552 C 830.009 1.29812 -4.3181 0
M  V30 8553 C 828.671 1.11121 -4.68194 0
M  V30 8554 C 831.023 0.815073 -5.14787 0
M  V30 8555 C 828.351 0.428077 -5.85136 0
M  V30 8556 C 830.703 0.145665 -6.32432 0
M  V30 8557 C 829.367 -0.0532098 -6.67479 0
M  V30 8558 H 828.637 0.379721 -0.636312 0
M  V30 8559 H 831.284 0.312708 -1.8893 0
M  V30 8560 H 829.589 2.76387 -2.777 0
M  V30 8561 H 831.286 2.54331 -3.10027 0
M  V30 8562 H 827.876 1.45366 -4.03196 0
M  V30 8563 H 832.06 0.947191 -4.87178 0
M  V30 8564 H 827.316 0.262995 -6.10834 0
M  V30 8565 H 831.49 -0.236533 -6.95998 0
M  V30 8566 H 829.117 -0.58456 -7.57949 0
M  V30 8567 N 830.692 1.47107 0.565454 0
M  V30 8568 C 831.92 1.56909 1.3486 0
M  V30 8569 C 832.335 0.216312 1.87557 0
M  V30 8570 O 831.692 -0.789168 1.64555 0
M  V30 8571 C 831.743 2.58776 2.52423 0
M  V30 8572 O 831.464 3.888 2.01906 0
M  V30 8573 C 832.965 2.78683 3.44747 0
M  V30 8574 H 830.185 0.530096 0.411387 0
M  V30 8575 H 832.729 1.92658 0.685782 0
M  V30 8576 H 830.884 2.25983 3.1466 0
M  V30 8577 H 831.298 4.44393 2.78595 0
M  V30 8578 H 832.772 3.53842 4.23674 0
M  V30 8579 H 833.249 1.86208 3.97773 0
M  V30 8580 H 833.855 3.12641 2.88333 0
M  V30 8581 N 832.17 -0.811516 1.35101 0
M  V30 8582 C 833.117 -1.92308 1.27617 0
M  V30 8583 C 834.087 -1.6543 0.149091 0
M  V30 8584 O 835.272 -1.8789 0.331974 0
M  V30 8585 C 832.412 -3.28768 1.04908 0
M  V30 8586 C 831.525 -3.67865 2.26493 0
M  V30 8587 C 830.66 -4.9333 1.96974 0
M  V30 8588 C 829.699 -5.25041 3.1464 0
M  V30 8589 N 828.836 -6.41685 2.84929 0
M  V30 8590 H 833.676 -1.98041 2.22674 0
M  V30 8591 H 831.213 -0.968755 1.10696 0
M  V30 8592 H 833.171 -4.07426 0.897749 0
M  V30 8593 H 831.801 -3.22517 0.135151 0
M  V30 8594 H 830.853 -2.84507 2.52507 0
M  V30 8595 H 832.165 -3.87263 3.14371 0
M  V30 8596 H 831.319 -5.79803 1.78643 0
M  V30 8597 H 830.058 -4.75958 1.06374 0
M  V30 8598 H 829.063 -4.3706 3.33554 0
M  V30 8599 H 830.288 -5.44346 4.06035 0
M  V30 8600 H 828.234 -6.25747 1.96918 0
M  V30 8601 H 828.151 -6.6131 3.66341 0
M  V30 8602 H 829.419 -7.31198 2.70128 0
M  V30 8603 N 833.648 -1.19017 -1.03309 0
M  V30 8604 C 834.876 -1.01534 -1.80273 0
M  V30 8605 C 835.291 0.43605 -1.83696 0
M  V30 8606 O 834.648 1.30288 -1.27794 0
M  V30 8607 C 834.699 -1.5722 -3.25522 0
M  V30 8608 O 834.42 -2.96677 -3.22358 0
M  V30 8609 C 835.921 -1.4446 -4.19102 0
M  V30 8610 H 833.141 -0.358094 -0.567459 0
M  V30 8611 H 835.685 -1.57738 -1.3015 0
M  V30 8612 H 833.84 -1.05174 -3.7285 0
M  V30 8613 H 834.254 -3.22795 -4.13405 0
M  V30 8614 H 835.728 -1.88209 -5.18923 0
M  V30 8615 H 836.205 -0.394471 -4.37425 0
M  V30 8616 H 836.811 -1.95616 -3.77643 0
M  V30 8617 N 835.127 1.22348 -0.993418 0
M  V30 8618 C 836.367 1.92835 -0.677779 0
M  V30 8619 C 836.731 1.75624 0.775893 0
M  V30 8620 O 837.932 2.40379 1.20297 0
M  V30 8621 C 836.203 3.40906 -1.07322 0
M  V30 8622 S 837.762 4.29966 -0.876032 0
M  V30 8623 H 834.58 0.666421 -0.247799 0
M  V30 8624 H 837.182 1.48133 -1.27581 0
M  V30 8625 H 835.886 3.50946 -2.12756 0
M  V30 8626 H 835.417 3.90618 -0.467015 0
M  V30 8627 H 837.432 4.95652 0.233162 0
M  V30 8628 N 836.605 0.766683 1.37694 0
M  V30 8629 C 837.853 0.328065 1.9942 0
M  V30 8630 C 838.174 -1.09775 1.61166 0
M  V30 8631 O 837.444 -1.75288 0.874686 0
M  V30 8632 H 836.024 0.11831 0.737572 0
M  V30 8633 H 838.686 0.983686 1.68255 0
M  V30 8634 H 837.782 0.401647 3.09505 0
M  V30 8635 N 838.083 -1.48885 0.516809 0
M  V30 8636 C 839.046 -2.27916 -0.242256 0
M  V30 8637 C 840.046 -1.34601 -0.879735 0
M  V30 8638 O 841.236 -1.57616 -0.74182 0
M  V30 8639 C 838.368 -3.13067 -1.34914 0
M  V30 8640 H 839.561 -2.96483 0.451444 0
M  V30 8641 H 837.114 -1.5391 0.272294 0
M  V30 8642 H 837.849 -2.49102 -2.07651 0
M  V30 8643 H 837.634 -3.81695 -0.897313 0
M  V30 8644 H 839.124 -3.72716 -1.88341 0
M  V30 8645 N 839.561 -0.251338 -1.55583 0
M  V30 8646 C 840.972 0.25098 -1.85005 0
M  V30 8647 C 841.323 1.57259 -1.17321 0
M  V30 8648 O 840.448 2.11603 -0.453136 0
M  V30 8649 C 841.043 0.462161 -3.35633 0
M  V30 8650 C 839.602 0.908737 -3.65266 0
M  V30 8651 C 838.749 -0.0115418 -2.77298 0
M  V30 8652 H 841.7 -0.473782 -1.51463 0
M  V30 8653 H 841.721 1.30415 -3.57452 0
M  V30 8654 H 841.233 -0.499886 -3.84867 0
M  V30 8655 H 839.334 1.8831 -3.21512 0
M  V30 8656 H 839.447 0.762526 -4.72993 0
M  V30 8657 H 837.811 0.500612 -2.49732 0
M  V30 8658 H 838.594 -0.969042 -3.29339 0
M  V30 8659 N 841.039 1.57585 0.0217189 0
M  V30 8660 C 842.45 1.7787 0.567377 0
M  V30 8661 C 842.801 0.883337 1.7519 0
M  V30 8662 O 841.926 0.0800819 2.16252 0
M  V30 8663 C 842.521 3.2257 1.03606 0
M  V30 8664 C 841.08 3.44026 1.52718 0
M  V30 8665 C 840.227 2.73313 0.468545 0
M  V30 8666 H 843.178 1.57377 -0.2045 0
M  V30 8667 H 843.199 3.29488 1.9031 0
M  V30 8668 H 842.711 3.87711 0.173739 0
M  V30 8669 H 840.812 2.8407 2.41111 0
M  V30 8670 H 840.925 4.52659 1.56962 0
M  V30 8671 H 839.289 2.37299 0.925263 0
M  V30 8672 H 840.072 3.41141 -0.384438 0
M  V30 8673 N 842.517 -0.29412 1.54831 0
M  V30 8674 C 843.757 -1.03635 1.76179 0
M  V30 8675 C 844.121 -1.84251 0.539953 0
M  V30 8676 O 845.322 -2.61282 0.631295 0
M  V30 8677 C 843.593 -1.91275 3.01909 0
M  V30 8678 S 845.152 -2.7205 3.44288 0
M  V30 8679 H 841.97 -0.349403 0.619224 0
M  V30 8680 H 844.572 -0.309006 1.93042 0
M  V30 8681 H 843.276 -1.30937 3.88952 0
M  V30 8682 H 842.807 -2.68365 2.87652 0
M  V30 8683 H 844.822 -3.93791 3.01899 0
M  V30 8684 N 843.995 -1.47404 -0.557645 0
M  V30 8685 C 845.411 -1.32913 -0.88353 0
M  V30 8686 C 845.611 -0.31929 -1.98954 0
M  V30 8687 O 844.667 0.26934 -2.51059 0
M  V30 8688 C 845.98 -2.72229 -1.27718 0
M  V30 8689 C 847.528 -2.8051 -1.38863 0
M  V30 8690 C 848.003 -4.20466 -1.81583 0
M  V30 8691 N 849.494 -4.23005 -1.88735 0
M  V30 8692 C 850.229 -5.2821 -2.23118 0
M  V30 8693 N 849.725 -6.4372 -2.56117 0
M  V30 8694 N 851.518 -5.15588 -2.23888 0
M  V30 8695 H 843.669 -2.11698 0.172557 0
M  V30 8696 H 845.932 -0.947889 0.0145334 0
M  V30 8697 H 845.638 -3.47556 -0.538329 0
M  V30 8698 H 845.512 -3.03971 -2.23342 0
M  V30 8699 H 847.899 -2.05457 -2.11829 0
M  V30 8700 H 847.98 -2.52423 -0.414274 0
M  V30 8701 H 847.624 -4.96025 -1.09187 0
M  V30 8702 H 847.554 -4.45977 -2.80021 0
M  V30 8703 H 850.045 -3.39674 -1.65621 0
M  V30 8704 H 850.358 -7.19754 -2.81378 0
M  V30 8705 H 848.703 -6.47041 -2.53698 0
M  V30 8706 H 851.894 -4.24374 -1.97546 0
M  V30 8707 H 852.067 -5.97685 -2.50353 0
M  V30 8708 N 845.473 0.80434 -1.35529 0
M  V30 8709 C 846.722 1.55665 -1.28263 0
M  V30 8710 C 847.035 1.95096 0.140352 0
M  V30 8711 O 848.241 2.69422 0.335303 0
M  V30 8712 C 846.697 2.80935 -2.24952 0
M  V30 8713 C 846.305 2.48733 -3.72607 0
M  V30 8714 C 848.049 3.5894 -2.26632 0
M  V30 8715 C 845.956 3.70308 -4.61114 0
M  V30 8716 H 844.886 0.584301 -0.476559 0
M  V30 8717 H 847.537 0.88395 -1.60806 0
M  V30 8718 H 845.919 3.49927 -1.85383 0
M  V30 8719 H 847.093 1.87733 -4.20824 0
M  V30 8720 H 845.408 1.83969 -3.73557 0
M  V30 8721 H 848.005 4.49244 -2.89973 0
M  V30 8722 H 848.348 3.96433 -1.27069 0
M  V30 8723 H 848.881 2.96912 -2.64742 0
M  V30 8724 H 845.62 3.37922 -5.61684 0
M  V30 8725 H 845.14 4.30526 -4.17621 0
M  V30 8726 H 846.819 4.37511 -4.76648 0
M  V30 8727 N 846.951 1.19563 1.02676 0
M  V30 8728 C 848.367 0.948304 1.28372 0
M  V30 8729 C 848.567 -0.378096 1.97921 0
M  V30 8730 O 847.623 -1.1091 2.26838 0
M  V30 8731 C 848.936 2.12381 2.12873 0
M  V30 8732 C 850.484 2.16366 2.26174 0
M  V30 8733 C 850.959 3.33374 3.14048 0
M  V30 8734 N 852.45 3.33323 3.21636 0
M  V30 8735 C 853.185 4.20504 3.89825 0
M  V30 8736 N 852.681 5.17845 4.60227 0
M  V30 8737 N 854.474 4.08375 3.86246 0
M  V30 8738 H 846.625 2.04899 0.559485 0
M  V30 8739 H 848.888 0.89606 0.309484 0
M  V30 8740 H 848.594 3.08383 1.69094 0
M  V30 8741 H 848.468 2.09621 3.1359 0
M  V30 8742 H 850.855 1.20933 2.69182 0
M  V30 8743 H 850.936 2.23179 1.25 0
M  V30 8744 H 850.58 4.29087 2.71747 0
M  V30 8745 H 850.51 3.23798 4.15286 0
M  V30 8746 H 853.001 2.62863 2.71498 0
M  V30 8747 H 853.314 5.80712 5.09896 0
M  V30 8748 H 851.659 5.21791 4.59085 0
M  V30 8749 H 854.85 3.31606 3.30386 0
M  V30 8750 H 855.023 4.76532 4.39114 0
M  V30 8751 N 848.429 -1.21819 0.999893 0
M  V30 8752 C 849.376 -2.24003 0.556005 0
M  V30 8753 C 850.346 -1.60825 -0.415287 0
M  V30 8754 O 851.531 -1.88123 -0.318481 0
M  V30 8755 C 848.671 -3.44904 -0.116289 0
M  V30 8756 C 847.784 -4.22573 0.897574 0
M  V30 8757 C 846.919 -5.30831 0.198073 0
M  V30 8758 C 845.958 -6.00225 1.19983 0
M  V30 8759 N 845.095 -7.00111 0.528157 0
M  V30 8760 H 849.935 -2.61334 1.43208 0
M  V30 8761 H 847.472 -1.28431 0.717205 0
M  V30 8762 H 849.43 -4.13908 -0.523055 0
M  V30 8763 H 848.06 -3.08315 -0.956108 0
M  V30 8764 H 847.112 -3.52797 1.42262 0
M  V30 8765 H 848.424 -4.70363 1.66013 0
M  V30 8766 H 847.578 -6.06121 -0.265065 0
M  V30 8767 H 846.317 -4.84033 -0.596924 0
M  V30 8768 H 845.322 -5.23711 1.67353 0
M  V30 8769 H 846.547 -6.4911 1.99582 0
M  V30 8770 H 844.493 -6.55534 -0.247276 0
M  V30 8771 H 844.41 -7.45943 1.22904 0
M  V30 8772 H 845.678 -7.7945 0.0880543 0
M  V30 8773 N 849.908 -0.773975 -1.37286 0
M  V30 8774 C 851.185 -0.263942 -1.93811 0
M  V30 8775 C 851.565 1.24138 -1.70743 0
M  V30 8776 O 850.913 2.02557 -1.05749 0
M  V30 8777 C 851.123 -0.639753 -3.43086 0
M  V30 8778 C 852.471 -0.610796 -4.20184 0
M  V30 8779 O 853.495 -0.579278 -3.51458 0
M  V30 8780 O 852.354 -0.639862 -5.42741 0
M  V30 8781 H 849.448 -0.0614331 -0.824715 0
M  V30 8782 H 851.994 -0.855477 -1.46559 0
M  V30 8783 H 850.766 -1.67856 -3.53469 0
M  V30 8784 H 850.389 -0.0212827 -3.97594 0
M  V30 8785 N 851.386 1.48609 -0.524698 0
M  V30 8786 C 852.616 2.06599 0.00741868 0
M  V30 8787 C 853.024 1.3823 1.29186 0
M  V30 8788 O 852.367 0.461962 1.77797 0
M  V30 8789 C 852.429 3.58184 0.307324 0
M  V30 8790 C 852.093 4.48391 -0.882864 0
M  V30 8791 C 853.09 4.88485 -1.77984 0
M  V30 8792 C 850.775 4.90367 -1.08837 0
M  V30 8793 C 852.769 5.69319 -2.86627 0
M  V30 8794 C 850.456 5.70972 -2.17794 0
M  V30 8795 C 851.454 6.10355 -3.06523 0
M  V30 8796 O 851.142 6.89343 -4.13596 0
M  V30 8797 H 850.874 0.675421 -0.0279846 0
M  V30 8798 H 853.428 1.92058 -0.7282 0
M  V30 8799 H 851.658 3.70818 1.09685 0
M  V30 8800 H 853.347 3.98318 0.780886 0
M  V30 8801 H 854.113 4.56682 -1.63299 0
M  V30 8802 H 849.992 4.592 -0.407035 0
M  V30 8803 H 853.536 5.99978 -3.55911 0
M  V30 8804 H 849.433 6.02188 -2.32465 0
M  V30 8805 H 850.201 7.07689 -4.1124 0
M  V30 8806 N 852.864 0.259585 1.55447 0
M  V30 8807 C 853.812 -0.6507 2.23313 0
M  V30 8808 C 854.806 -1.17014 1.22491 0
M  V30 8809 O 856.012 -1.12557 1.40467 0
M  V30 8810 H 852.387 -0.228354 0.71649 0
M  V30 8811 H 854.358 -0.0553039 2.98349 0
M  V30 8812 C 853.107 -1.83081 2.95596 0
M  V30 8813 H 852.43 -1.44027 3.72956 0
M  V30 8814 H 853.87 -2.44469 3.46426 0
M  V30 8815 C 852.329 -2.70976 2.00184 0
M  V30 8816 O 852.859 -3.70882 1.54304 0
M  V30 8817 N 851.065 -2.37813 1.67014 0
M  V30 8818 H 850.612 -1.5662 2.04519 0
M  V30 8819 H 850.57 -2.96896 1.03443 0
M  V30 8820 N 854.342 -1.57594 -0.0133615 0
M  V30 8821 C 855.567 -1.94649 -0.715996 0
M  V30 8822 C 855.992 -0.860786 -1.67249 0
M  V30 8823 O 855.35 0.182228 -1.80382 0
M  V30 8824 C 855.398 -3.30789 -1.43566 0
M  V30 8825 O 854.502 -3.24148 -2.54955 0
M  V30 8826 H 853.843 -0.635801 -0.191449 0
M  V30 8827 H 856.373 -2.04569 0.0358478 0
M  V30 8828 H 856.383 -3.66045 -1.80208 0
M  V30 8829 H 855.058 -4.09367 -0.734263 0
M  V30 8830 H 853.635 -3.00548 -2.20739 0
M  V30 8831 N 855.82 0.285905 -1.54985 0
M  V30 8832 C 857.048 1.03776 -1.78992 0
M  V30 8833 C 857.463 1.80402 -0.556814 0
M  V30 8834 O 856.82 1.76242 0.473801 0
M  V30 8835 C 856.871 2.0065 -3.00702 0
M  V30 8836 O 856.592 1.27131 -4.19249 0
M  V30 8837 C 858.093 2.87753 -3.37214 0
M  V30 8838 H 855.313 0.307126 -0.596586 0
M  V30 8839 H 857.857 0.3206 -2.01971 0
M  V30 8840 H 856.012 2.67847 -2.79887 0
M  V30 8841 H 856.426 1.92316 -4.8797 0
M  V30 8842 H 857.9 3.51548 -4.2558 0
M  V30 8843 H 858.377 3.56848 -2.56039 0
M  V30 8844 H 858.983 2.26065 -3.60242 0
M  V30 8845 N 857.298 1.47698 0.54982 0
M  V30 8846 C 858.547 1.53961 1.30303 0
M  V30 8847 C 858.86 0.209731 1.94472 0
M  V30 8848 O 860.066 0.150418 2.71083 0
M  V30 8849 C 858.522 2.71436 2.36328 0
M  V30 8850 C 858.13 4.10983 1.78316 0
M  V30 8851 C 859.874 2.86996 3.12783 0
M  V30 8852 C 857.781 5.19747 2.82164 0
M  V30 8853 H 856.711 0.573098 0.489975 0
M  V30 8854 H 859.362 1.73989 0.583089 0
M  V30 8855 H 857.744 2.44801 3.11269 0
M  V30 8856 H 858.918 4.47552 1.09697 0
M  V30 8857 H 857.233 4.00371 1.1442 0
M  V30 8858 H 859.83 3.65422 3.90347 0
M  V30 8859 H 860.173 1.95712 3.67427 0
M  V30 8860 H 860.706 3.13436 2.44954 0
M  V30 8861 H 857.445 6.12932 2.32366 0
M  V30 8862 H 856.965 4.87688 3.49171 0
M  V30 8863 H 858.644 5.47014 3.4552 0
M  V30 8864 N 858.776 -0.797141 1.35954 0
M  V30 8865 C 860.053 -1.54224 1.2031 0
M  V30 8866 C 860.433 -2.10013 -0.213926 0
M  V30 8867 O 859.781 -1.93292 -1.21862 0
M  V30 8868 C 859.991 -2.6433 2.27883 0
M  V30 8869 C 861.339 -3.32418 2.64165 0
M  V30 8870 O 862.363 -2.74607 2.26868 0
M  V30 8871 O 861.222 -4.36876 3.28331 0
M  V30 8872 H 858.316 -0.681857 0.467974 0
M  V30 8873 H 860.862 -0.836288 1.47663 0
M  V30 8874 H 859.634 -2.21044 3.22885 0
M  V30 8875 H 859.257 -3.42551 2.01853 0
M  V30 8876 N 860.254 -1.20106 -1.0204 0
M  V30 8877 C 861.184 -0.970301 -2.12385 0
M  V30 8878 C 862.165 0.099378 -1.69809 0
M  V30 8879 O 863.35 -0.057365 -1.94115 0
M  V30 8880 C 860.48 -0.517431 -3.43424 0
M  V30 8881 C 859.434 -1.52992 -3.99722 0
M  V30 8882 C 858.76 -0.933817 -5.26483 0
M  V30 8883 C 860.06 -2.91257 -4.33551 0
M  V30 8884 H 861.754 -1.89316 -2.31948 0
M  V30 8885 H 859.3 -0.911655 -1.11467 0
M  V30 8886 H 861.253 -0.343243 -4.2 0
M  V30 8887 H 859.977 0.441049 -3.23608 0
M  V30 8888 H 858.636 -1.6914 -3.2525 0
M  V30 8889 H 858.284 0.0324763 -5.0299 0
M  V30 8890 H 857.984 -1.60999 -5.65113 0
M  V30 8891 H 859.508 -0.770614 -6.05718 0
M  V30 8892 H 860.922 -2.78642 -5.0103 0
M  V30 8893 H 859.319 -3.55745 -4.83286 0
M  V30 8894 H 860.389 -3.43269 -3.42483 0
M  V30 8895 N 861.732 1.21287 -1.00634 0
M  V30 8896 C 862.662 2.25973 -0.588089 0
M  V30 8897 C 863.643 1.65527 0.391764 0
M  V30 8898 O 864.828 1.92179 0.279452 0
M  V30 8899 C 861.958 3.47197 0.0847336 0
M  V30 8900 C 860.912 4.20168 -0.815039 0
M  V30 8901 C 860.238 5.34699 -0.00855393 0
M  V30 8902 C 861.538 4.77416 -2.11828 0
M  V30 8903 H 863.232 2.61212 -1.46317 0
M  V30 8904 H 860.778 1.25563 -0.704985 0
M  V30 8905 H 862.731 4.19602 0.388821 0
M  V30 8906 H 861.455 3.11092 0.994456 0
M  V30 8907 H 860.114 3.49614 -1.10297 0
M  V30 8908 H 859.762 4.94837 0.902499 0
M  V30 8909 H 859.462 5.84449 -0.607664 0
M  V30 8910 H 860.986 6.09914 0.289317 0
M  V30 8911 H 862.4 5.41694 -1.87725 0
M  V30 8912 H 860.797 5.37561 -2.66736 0
M  V30 8913 H 861.867 3.96724 -2.78816 0
M  V30 8914 N 863.21 0.781244 1.36873 0
M  V30 8915 C 864.45 0.355185 2.0129 0
M  V30 8916 C 864.814 -1.05115 1.6067 0
M  V30 8917 O 866.015 -1.57785 2.17618 0
M  V30 8918 C 864.286 0.504587 3.5382 0
M  V30 8919 S 865.845 0.165196 4.38489 0
M  V30 8920 H 862.663 0.136133 0.697846 0
M  V30 8921 H 865.265 1.01794 1.66908 0
M  V30 8922 H 863.969 1.52857 3.80871 0
M  V30 8923 H 863.5 -0.174392 3.93013 0
M  V30 8924 H 865.515 -1.03605 4.85263 0
M  V30 8925 N 864.689 -1.48329 0.532571 0
M  V30 8926 C 866.1 -1.86469 0.0927749 0
M  V30 8927 C 866.451 -1.44186 -1.3306 0
M  V30 8928 O 865.576 -0.833741 -1.99694 0
M  V30 8929 C 866.171 -3.38414 0.161588 0
M  V30 8930 C 864.73 -3.75739 -0.223028 0
M  V30 8931 C 863.877 -2.72377 0.520199 0
M  V30 8932 H 866.828 -1.40197 0.743678 0
M  V30 8933 H 866.849 -3.75314 -0.626059 0
M  V30 8934 H 866.361 -3.69159 1.19765 0
M  V30 8935 H 864.462 -3.50608 -1.26113 0
M  V30 8936 H 864.575 -4.78954 0.118385 0
M  V30 8937 H 862.939 -2.54678 -0.0338425 0
M  V30 8938 H 863.722 -3.05965 1.55694 0
M  V30 8939 N 866.167 -0.267825 -1.55308 0
M  V30 8940 C 867.395 0.354587 -2.03839 0
M  V30 8941 C 867.81 1.50007 -1.14644 0
M  V30 8942 O 867.167 1.81752 -0.165055 0
M  V30 8943 C 867.218 0.84254 -3.51544 0
M  V30 8944 O 866.939 -0.257318 -4.37344 0
M  V30 8945 C 868.44 1.53351 -4.15931 0
M  V30 8946 H 865.66 0.0818131 -0.665994 0
M  V30 8947 H 868.204 -0.397795 -2.00594 0
M  V30 8948 H 866.359 1.54503 -3.55257 0
M  V30 8949 H 866.773 0.116593 -5.2437 0
M  V30 8950 H 868.247 1.82643 -5.20908 0
M  V30 8951 H 868.724 2.4626 -3.63666 0
M  V30 8952 H 869.33 0.87506 -4.162 0
M  V30 8953 N 867.645 1.57599 0.00500368 0
M  V30 8954 C 868.922 1.81561 0.727654 0
M  V30 8955 C 869.302 0.871604 1.92266 0
M  V30 8956 O 868.65 -0.0808232 2.28357 0
M  V30 8957 C 868.86 3.29922 1.13809 0
M  V30 8958 C 870.208 3.95531 1.54403 0
M  V30 8959 O 871.232 3.34215 1.23202 0
M  V30 8960 O 870.091 5.03535 2.12402 0
M  V30 8961 H 867.185 0.747462 0.353878 0
M  V30 8962 H 869.731 1.69688 -0.0200667 0
M  V30 8963 H 868.503 3.90253 0.286078 0
M  V30 8964 H 868.126 3.46775 1.94507 0
M  V30 8965 N 869.123 -0.277682 1.55134 0
M  V30 8966 C 870.363 -1.01761 1.77269 0
M  V30 8967 C 870.727 -1.83668 0.559465 0
M  V30 8968 O 871.928 -2.60597 0.658972 0
M  V30 8969 C 870.199 -1.88062 3.0392 0
M  V30 8970 S 871.758 -2.68383 3.47154 0
M  V30 8971 H 868.576 -0.342816 0.622895 0
M  V30 8972 H 871.178 -0.288514 1.93359 0
M  V30 8973 H 869.882 -1.26805 3.90319 0
M  V30 8974 H 869.413 -2.65299 2.90482 0
M  V30 8975 H 871.428 -3.90567 3.06059 0
M  V30 8976 N 870.601 -1.47988 -0.541979 0
M  V30 8977 C 871.848 -1.55393 -1.29843 0
M  V30 8978 C 872.176 -0.222668 -1.93221 0
M  V30 8979 O 871.431 0.785936 -1.79225 0
M  V30 8980 C 871.73 -2.63189 -2.41798 0
M  V30 8981 C 871.396 -4.05999 -1.96151 0
M  V30 8982 C 870.058 -4.44872 -1.83419 0
M  V30 8983 C 872.41 -4.95545 -1.61507 0
M  V30 8984 C 869.738 -5.71108 -1.34361 0
M  V30 8985 C 872.09 -6.22259 -1.13915 0
M  V30 8986 C 870.754 -6.59998 -0.997911 0
M  V30 8987 H 870.024 -0.568623 -0.47513 0
M  V30 8988 H 872.671 -1.81654 -0.606142 0
M  V30 8989 H 870.976 -2.30743 -3.16647 0
M  V30 8990 H 872.673 -2.66138 -2.99953 0
M  V30 8991 H 869.263 -3.75294 -2.07008 0
M  V30 8992 H 873.447 -4.662 -1.70209 0
M  V30 8993 H 868.703 -5.99083 -1.22103 0
M  V30 8994 H 872.877 -6.91048 -0.861755 0
M  V30 8995 H 870.504 -7.57704 -0.615561 0
M  V30 8996 N 872.079 0.78992 -1.36375 0
M  V30 8997 C 873.495 1.0879 -1.16777 0
M  V30 8998 C 873.695 2.01498 0.00848236 0
M  V30 8999 O 872.751 2.43338 0.674007 0
M  V30 9000 C 874.064 1.70285 -2.47837 0
M  V30 9001 C 875.612 1.82629 -2.54196 0
M  V30 9002 C 876.087 2.47539 -3.85342 0
M  V30 9003 N 877.578 2.55008 -3.86685 0
M  V30 9004 C 878.313 3.06041 -4.84898 0
M  V30 9005 N 877.809 3.57385 -5.93505 0
M  V30 9006 N 879.602 3.04748 -4.72319 0
M  V30 9007 H 871.753 0.173985 -2.11686 0
M  V30 9008 H 874.016 0.139798 -0.937636 0
M  V30 9009 H 873.722 1.09633 -3.34176 0
M  V30 9010 H 873.596 2.69799 -2.63607 0
M  V30 9011 H 875.983 2.42419 -1.68276 0
M  V30 9012 H 876.064 0.81923 -2.42327 0
M  V30 9013 H 875.708 1.88393 -4.71668 0
M  V30 9014 H 875.638 3.48815 -3.94507 0
M  V30 9015 H 878.129 2.18651 -3.08221 0
M  V30 9016 H 878.442 3.94674 -6.64419 0
M  V30 9017 H 876.787 3.55538 -5.97175 0
M  V30 9018 H 879.978 2.63925 -3.86602 0
M  V30 9019 H 880.151 3.44212 -5.49019 0
M  V30 9020 N 873.557 1.20646 1.01402 0
M  V30 9021 C 874.504 0.957618 2.09996 0
M  V30 9022 C 875.474 -0.113115 1.65714 0
M  V30 9023 O 876.659 0.032142 1.90773 0
M  V30 9024 C 873.799 0.5186 3.41181 0
M  V30 9025 C 872.912 1.65777 3.98926 0
M  V30 9026 C 872.047 1.16881 5.18182 0
M  V30 9027 C 871.086 2.2809 5.68015 0
M  V30 9028 N 870.223 1.80392 6.7853 0
M  V30 9029 H 875.063 1.88732 2.30617 0
M  V30 9030 H 872.6 0.940703 1.13089 0
M  V30 9031 H 874.558 0.245367 4.16478 0
M  V30 9032 H 873.188 -0.3741 3.20625 0
M  V30 9033 H 872.24 2.04586 3.207 0
M  V30 9034 H 873.552 2.49507 4.31912 0
M  V30 9035 H 872.706 0.851694 6.00692 0
M  V30 9036 H 871.445 0.301434 4.86768 0
M  V30 9037 H 870.45 2.60614 4.84108 0
M  V30 9038 H 871.675 3.15308 6.01463 0
M  V30 9039 H 869.621 0.959856 6.4894 0
M  V30 9040 H 869.538 2.57701 7.10722 0
M  V30 9041 H 870.806 1.51688 7.64598 0
M  V30 9042 N 875.035 -1.20752 1.01276 0
M  V30 9043 C 875.985 -2.21252 0.550602 0
M  V30 9044 C 876.969 -1.56052 -0.391985 0
M  V30 9045 O 878.161 -1.75682 -0.215575 0
M  V30 9046 C 875.29 -3.43112 -0.113601 0
M  V30 9047 C 874.376 -4.15485 0.850465 0
M  V30 9048 N 874.767 -4.64301 2.00643 0
M  V30 9049 C 873.065 -4.40932 0.670476 0
M  V30 9050 C 873.766 -5.197 2.61317 0
M  V30 9051 N 872.742 -5.09534 1.8941 0
M  V30 9052 H 876.544 -2.56657 1.43194 0
M  V30 9053 H 874.058 -1.36646 0.877597 0
M  V30 9054 H 876.055 -4.1433 -0.462211 0
M  V30 9055 H 874.715 -3.09213 -0.990825 0
M  V30 9056 H 875.726 -4.59637 2.38651 0
M  V30 9057 H 872.403 -4.17197 -0.159016 0
M  V30 9058 H 873.793 -5.67873 3.59123 0
M  V30 9059 N 876.513 -0.788492 -1.36457 0
M  V30 9060 C 877.924 -0.423742 -1.81828 0
M  V30 9061 C 878.275 1.05221 -1.65599 0
M  V30 9062 O 877.4 1.8163 -1.17641 0
M  V30 9063 C 877.995 -0.762354 -3.30112 0
M  V30 9064 C 876.554 -0.450445 -3.73695 0
M  V30 9065 C 875.701 -0.997482 -2.58738 0
M  V30 9066 H 878.652 -0.981718 -1.24692 0
M  V30 9067 H 878.673 -0.0531136 -3.80463 0
M  V30 9068 H 878.185 -1.83662 -3.41891 0
M  V30 9069 H 876.286 0.615829 -3.67476 0
M  V30 9070 H 876.399 -0.970408 -4.69169 0
M  V30 9071 H 874.763 -0.420761 -2.51201 0
M  V30 9072 H 875.546 -2.07749 -2.73304 0
M  V30 9073 N 877.991 1.48044 -0.54043 0
M  V30 9074 C 879.268 1.95523 0.0547302 0
M  V30 9075 C 879.648 1.48284 1.5025 0
M  V30 9076 O 878.996 0.714037 2.17057 0
M  V30 9077 C 879.206 3.48923 -0.0733393 0
M  V30 9078 C 880.554 4.24523 0.0806026 0
M  V30 9079 O 881.578 3.562 -5.58687e-05 0
M  V30 9080 O 880.437 5.45922 0.251216 0
M  V30 9081 H 877.531 0.823728 0.073493 0
M  V30 9082 H 880.077 1.5852 -0.605768 0
M  V30 9083 H 878.849 3.76059 -1.08144 0
M  V30 9084 H 878.472 3.92648 0.625536 0
M  V30 9085 N 879.47 0.276058 1.55163 0
M  V30 9086 C 880.433 -0.597924 2.21263 0
M  V30 9087 C 881.433 -1.0806 1.19078 0
M  V30 9088 O 882.623 -0.980626 1.43977 0
M  V30 9089 C 879.755 -1.82503 2.87933 0
M  V30 9090 H 880.948 -0.0207769 2.99893 0
M  V30 9091 H 878.501 0.0266823 1.56277 0
M  V30 9092 H 879.236 -2.44266 2.13318 0
M  V30 9093 H 879.021 -1.48683 3.62816 0
M  V30 9094 H 880.511 -2.44651 3.38431 0
M  V30 9095 N 880.948 -1.576 0.00335426 0
M  V30 9096 C 882.176 -1.94996 -0.691685 0
M  V30 9097 C 882.591 -0.878405 -1.67121 0
M  V30 9098 O 881.948 0.142343 -1.81944 0
M  V30 9099 C 881.999 -3.32416 -1.42063 0
M  V30 9100 O 881.72 -4.35458 -0.48038 0
M  V30 9101 C 883.221 -3.84291 -2.20987 0
M  V30 9102 H 880.441 -0.642814 -0.192434 0
M  V30 9103 H 882.985 -2.04425 0.0554706 0
M  V30 9104 H 881.14 -3.24285 -2.11939 0
M  V30 9105 H 881.554 -5.14975 -0.995054 0
M  V30 9106 H 883.028 -4.82863 -2.67483 0
M  V30 9107 H 883.505 -3.17174 -3.03805 0
M  V30 9108 H 884.111 -3.95609 -1.56121 0
M  V30 9109 N 882.426 0.269451 -1.5528 0
M  V30 9110 C 883.656 1.01724 -1.79821 0
M  V30 9111 C 884.064 1.80298 -0.573532 0
M  V30 9112 O 883.407 1.77666 0.466963 0
M  V30 9113 C 883.469 2.02043 -2.97353 0
M  V30 9114 C 883.133 1.42375 -4.34256 0
M  V30 9115 C 884.13 0.837611 -5.13108 0
M  V30 9116 C 881.815 1.44988 -4.8092 0
M  V30 9117 C 883.809 0.285557 -6.3676 0
M  V30 9118 C 881.496 0.893969 -6.04526 0
M  V30 9119 C 882.494 0.312809 -6.82283 0
M  V30 9120 O 882.182 -0.234582 -8.03558 0
M  V30 9121 H 881.914 0.30604 -0.602757 0
M  V30 9122 H 884.468 0.30454 -2.0313 0
M  V30 9123 H 882.698 2.77082 -2.69745 0
M  V30 9124 H 884.387 2.6298 -3.09187 0
M  V30 9125 H 885.153 0.81009 -4.78187 0
M  V30 9126 H 881.032 1.89162 -4.20403 0
M  V30 9127 H 884.576 -0.168696 -6.97396 0
M  V30 9128 H 880.473 0.918742 -6.38928 0
M  V30 9129 H 881.241 -0.124282 -8.18406 0
M  V30 9130 N 883.904 1.48273 0.534124 0
M  V30 9131 C 884.834 1.6538 1.64839 0
M  V30 9132 C 885.815 0.502741 1.62501 0
M  V30 9133 O 887 0.734799 1.79762 0
M  V30 9134 C 884.13 1.68949 3.03436 0
M  V30 9135 C 883.084 2.83513 3.20631 0
M  V30 9136 C 882.41 2.72169 4.60248 0
M  V30 9137 C 883.71 4.24858 3.03797 0
M  V30 9138 H 885.404 2.58663 1.50777 0
M  V30 9139 H 882.95 1.24479 0.723937 0
M  V30 9140 H 884.903 1.79505 3.81256 0
M  V30 9141 H 883.627 0.722415 3.1851 0
M  V30 9142 H 882.286 2.72505 2.45227 0
M  V30 9143 H 881.934 1.7344 4.72152 0
M  V30 9144 H 881.634 3.49042 4.72698 0
M  V30 9145 H 883.158 2.84687 5.40172 0
M  V30 9146 H 884.572 4.36721 3.71413 0
M  V30 9147 H 882.969 5.02697 3.27743 0
M  V30 9148 H 884.039 4.41611 2.0027 0
M  V30 9149 N 885.382 -0.782676 1.36792 0
M  V30 9150 C 886.329 -1.89558 1.31667 0
M  V30 9151 C 887.299 -1.65076 0.184147 0
M  V30 9152 O 888.484 -1.87143 0.371753 0
M  V30 9153 C 885.624 -3.26469 1.11858 0
M  V30 9154 C 884.737 -3.62978 2.34245 0
M  V30 9155 C 883.872 -4.89041 2.07394 0
M  V30 9156 C 882.911 -5.18249 3.25706 0
M  V30 9157 N 882.048 -6.35497 2.98476 0
M  V30 9158 H 886.888 -1.93274 2.26824 0
M  V30 9159 H 884.425 -0.945057 1.12726 0
M  V30 9160 H 886.383 -4.05431 0.983968 0
M  V30 9161 H 885.013 -3.22158 0.203531 0
M  V30 9162 H 884.065 -2.79087 2.58485 0
M  V30 9163 H 885.377 -3.80507 3.22514 0
M  V30 9164 H 884.531 -5.75883 1.90901 0
M  V30 9165 H 883.27 -4.73594 1.16446 0
M  V30 9166 H 882.275 -4.29887 3.4275 0
M  V30 9167 H 883.5 -5.35611 4.1749 0
M  V30 9168 H 881.446 -6.21429 2.10146 0
M  V30 9169 H 881.363 -6.5339 3.80286 0
M  V30 9170 H 882.631 -7.25304 2.85577 0
M  V30 9171 N 886.86 -1.21182 -1.00761 0
M  V30 9172 C 888.1 -1.03886 -1.76031 0
M  V30 9173 C 888.464 0.420593 -1.87337 0
M  V30 9174 O 889.665 0.713994 -2.59144 0
M  V30 9175 C 887.936 -1.71394 -3.13622 0
M  V30 9176 S 889.495 -1.69319 -4.04816 0
M  V30 9177 H 886.313 -0.372327 -0.605717 0
M  V30 9178 H 888.915 -1.53885 -1.20581 0
M  V30 9179 H 887.619 -2.76773 -3.03026 0
M  V30 9180 H 887.15 -1.21564 -3.74147 0
M  V30 9181 H 889.165 -0.732434 -4.90765 0
M  V30 9182 N 888.338 1.20213 -1.01915 0
M  V30 9183 C 889.586 1.89272 -0.708552 0
M  V30 9184 C 889.907 1.79394 0.76438 0
M  V30 9185 O 889.177 1.198 1.54999 0
M  V30 9186 H 887.757 0.700628 -0.259094 0
M  V30 9187 H 890.419 1.45985 -1.29129 0
M  V30 9188 H 889.515 2.95841 -0.994215 0
M  V30 9189 N 889.816 0.795718 1.36037 0
M  V30 9190 C 890.779 0.204318 2.28287 0
M  V30 9191 C 891.779 -0.602017 1.49105 0
M  V30 9192 O 892.969 -0.422089 1.69009 0
M  V30 9193 C 890.101 -0.716431 3.33287 0
M  V30 9194 H 891.294 1.01781 2.821 0
M  V30 9195 H 888.847 0.565588 1.45708 0
M  V30 9196 H 889.582 -1.55403 2.84641 0
M  V30 9197 H 889.367 -0.140096 3.9185 0
M  V30 9198 H 890.857 -1.12488 4.02164 0
M  V30 9199 N 891.294 -1.47756 0.548274 0
M  V30 9200 C 892.542 -2.02089 0.0208542 0
M  V30 9201 C 892.863 -1.42589 -1.33017 0
M  V30 9202 O 892.133 -0.597825 -1.86555 0
M  V30 9203 H 890.713 -0.746985 0.00472023 0
M  V30 9204 H 893.375 -1.81262 0.716257 0
M  V30 9205 H 892.471 -3.12012 -0.0739016 0
M  V30 9206 N 892.772 -0.284283 -1.55015 0
M  V30 9207 C 894.183 0.211681 -1.85496 0
M  V30 9208 C 894.534 1.54735 -1.2063 0
M  V30 9209 O 893.659 2.10594 -0.497918 0
M  V30 9210 C 894.254 0.390864 -3.36538 0
M  V30 9211 C 892.813 0.831055 -3.67111 0
M  V30 9212 C 891.96 -0.0703581 -2.77211 0
M  V30 9213 H 894.911 -0.505803 -1.50424 0
M  V30 9214 H 894.932 1.22803 -3.60138 0
M  V30 9215 H 894.444 -0.581409 -3.8372 0
M  V30 9216 H 892.545 1.81447 -3.25434 0
M  V30 9217 H 892.658 0.662026 -4.74504 0
M  V30 9218 H 891.022 0.447528 -2.50737 0
M  V30 9219 H 891.805 -1.03868 -3.2721 0
M  V30 9220 N 894.251 1.57596 -0.0117121 0
M  V30 9221 C 895.497 1.92189 0.665966 0
M  V30 9222 C 895.852 0.887145 1.70726 0
M  V30 9223 O 895.145 -0.099151 1.91343 0
M  V30 9224 C 895.339 3.31296 1.34082 0
M  V30 9225 C 895.168 4.48205 0.366406 0
M  V30 9226 C 893.938 5.05293 -0.0274458 0
M  V30 9227 C 896.136 5.12951 -0.37219 0
M  V30 9228 N 894.118 6.0572 -0.998846 0
M  V30 9229 C 895.489 6.08318 -1.1979 0
M  V30 9230 C 897.544 4.95998 -0.434768 0
M  V30 9231 C 896.247 6.88555 -2.0805 0
M  V30 9232 C 898.273 5.7683 -1.30464 0
M  V30 9233 C 897.635 6.71798 -2.11816 0
M  V30 9234 H 893.734 0.751422 0.216537 0
M  V30 9235 H 896.318 1.94556 -0.0748079 0
M  V30 9236 H 894.489 3.2978 2.05182 0
M  V30 9237 H 896.221 3.53285 1.97413 0
M  V30 9238 H 892.976 4.72354 0.343382 0
M  V30 9239 H 893.4 6.60619 -1.48027 0
M  V30 9240 H 898.042 4.22417 0.179925 0
M  V30 9241 H 895.76 7.61453 -2.70581 0
M  V30 9242 H 899.346 5.6575 -1.35712 0
M  V30 9243 H 898.226 7.33256 -2.78037 0
M  V30 9244 N 895.729 -0.261212 1.5542 0
M  V30 9245 C 896.659 -1.32712 1.92119 0
M  V30 9246 C 897.64 -1.50934 0.784406 0
M  V30 9247 O 898.825 -1.63781 1.04352 0
M  V30 9248 C 895.955 -2.68453 2.20341 0
M  V30 9249 C 894.909 -2.64947 3.36136 0
M  V30 9250 C 894.235 -4.04349 3.49865 0
M  V30 9251 C 895.535 -2.23182 4.72215 0
M  V30 9252 H 897.229 -1.02245 2.81401 0
M  V30 9253 H 894.775 -0.490406 1.35392 0
M  V30 9254 H 896.728 -3.43144 2.44603 0
M  V30 9255 H 895.452 -3.00527 1.27871 0
M  V30 9256 H 894.111 -1.92714 3.11861 0
M  V30 9257 H 893.759 -4.33665 2.5484 0
M  V30 9258 H 893.459 -4.02895 4.27726 0
M  V30 9259 H 894.983 -4.80761 3.76432 0
M  V30 9260 H 896.397 -2.87599 4.95943 0
M  V30 9261 H 894.794 -2.32867 5.53076 0
M  V30 9262 H 895.864 -1.18327 4.70241 0
M  V30 9263 N 897.207 -1.48554 -0.526253 0
M  V30 9264 C 898.435 -1.60429 -1.30652 0
M  V30 9265 C 898.85 -0.265963 -1.86917 0
M  V30 9266 O 898.207 0.745262 -1.6659 0
M  V30 9267 C 898.258 -2.65377 -2.45473 0
M  V30 9268 O 897.979 -3.94017 -1.91527 0
M  V30 9269 C 899.48 -2.87726 -3.37237 0
M  V30 9270 H 896.7 -0.540817 -0.397187 0
M  V30 9271 H 899.244 -1.94409 -0.634461 0
M  V30 9272 H 897.399 -2.34246 -3.08557 0
M  V30 9273 H 897.813 -4.51623 -2.66715 0
M  V30 9274 H 899.287 -3.64951 -4.14144 0
M  V30 9275 H 899.764 -1.96688 -3.92696 0
M  V30 9276 H 900.37 -3.20176 -2.79942 0
M  V30 9277 N 898.685 0.775411 -1.37205 0
M  V30 9278 C 900.096 1.35147 -1.28811 0
M  V30 9279 C 900.447 1.96089 0.0659168 0
M  V30 9280 O 899.572 1.93558 0.967684 0
M  V30 9281 C 900.167 2.45715 -2.33258 0
M  V30 9282 C 898.726 2.99099 -2.2851 0
M  V30 9283 C 897.873 1.72286 -2.17285 0
M  V30 9284 H 900.824 0.575954 -1.4788 0
M  V30 9285 H 900.845 3.251 -1.97712 0
M  V30 9286 H 900.357 2.01331 -3.31795 0
M  V30 9287 H 898.458 3.47868 -1.33485 0
M  V30 9288 H 898.571 3.54962 -3.21774 0
M  V30 9289 H 896.935 1.95068 -1.6377 0
M  V30 9290 H 897.718 1.3001 -3.1773 0
M  V30 9291 N 900.163 1.21714 1.00117 0
M  V30 9292 C 901.579 0.97532 1.26332 0
M  V30 9293 C 901.779 -0.336029 1.98678 0
M  V30 9294 O 900.835 -1.06073 2.29139 0
M  V30 9295 C 902.148 2.16848 2.0832 0
M  V30 9296 C 903.696 2.21115 2.21533 0
M  V30 9297 C 904.171 3.3996 3.06906 0
M  V30 9298 N 905.662 3.40071 3.14494 0
M  V30 9299 C 906.397 4.28678 3.80818 0
M  V30 9300 N 905.893 5.2749 4.49139 0
M  V30 9301 N 907.686 4.16476 3.77497 0
M  V30 9302 H 899.837 2.06039 0.515897 0
M  V30 9303 H 902.1 0.902423 0.290408 0
M  V30 9304 H 901.806 3.119 1.62515 0
M  V30 9305 H 901.68 2.16226 3.09073 0
M  V30 9306 H 904.067 1.26616 2.66557 0
M  V30 9307 H 904.148 2.2578 1.20238 0
M  V30 9308 H 903.792 4.34755 2.62585 0
M  V30 9309 H 903.722 3.32534 4.08324 0
M  V30 9310 H 906.213 2.68563 2.65861 0
M  V30 9311 H 906.526 5.91397 4.97463 0
M  V30 9312 H 904.871 5.31412 4.47914 0
M  V30 9313 H 908.062 3.38539 3.23278 0
M  V30 9314 H 908.235 4.85739 4.28908 0
M  V30 9315 N 901.641 -1.19671 1.02551 0
M  V30 9316 C 902.881 -1.90971 0.728668 0
M  V30 9317 C 903.245 -1.7762 -0.729057 0
M  V30 9318 O 904.446 -2.43484 -1.13882 0
M  V30 9319 C 902.717 -3.3794 1.16323 0
M  V30 9320 S 904.276 -4.27493 0.989722 0
M  V30 9321 H 901.094 -0.659617 0.265381 0
M  V30 9322 H 903.696 -1.44698 1.31463 0
M  V30 9323 H 902.4 -3.45181 2.21986 0
M  V30 9324 H 901.931 -3.89243 0.570417 0
M  V30 9325 H 903.946 -4.96096 -0.101666 0
M  V30 9326 N 903.119 -0.802921 -1.35613 0
M  V30 9327 C 904.049 -0.225131 -2.32412 0
M  V30 9328 C 905.03 0.647383 -1.57299 0
M  V30 9329 O 906.215 0.578414 -1.85386 0
M  V30 9330 C 903.345 0.630085 -3.41537 0
M  V30 9331 C 902.299 -0.143635 -4.27759 0
M  V30 9332 C 901.625 0.833046 -5.28171 0
M  V30 9333 C 902.925 -1.34054 -5.04804 0
M  V30 9334 H 904.619 -1.03385 -2.80984 0
M  V30 9335 H 902.165 -0.498593 -1.35093 0
M  V30 9336 H 904.118 1.04433 -4.08254 0
M  V30 9337 H 902.842 1.47165 -2.91565 0
M  V30 9338 H 901.501 -0.539015 -3.62616 0
M  V30 9339 H 901.149 1.67001 -4.74468 0
M  V30 9340 H 900.849 0.319697 -5.8673 0
M  V30 9341 H 902.373 1.24558 -5.97761 0
M  V30 9342 H 903.787 -1.00136 -5.64487 0
M  V30 9343 H 902.184 -1.78812 -5.72841 0
M  V30 9344 H 903.254 -2.12906 -4.35659 0
M  V30 9345 N 904.597 1.47463 -0.556102 0
M  V30 9346 C 905.843 2.02775 -0.0316806 0
M  V30 9347 C 906.176 1.42967 1.3143 0
M  V30 9348 O 905.451 0.584847 1.85499 0
M  V30 9349 C 905.734 3.60046 0.0625742 0
M  V30 9350 C 905.587 4.30288 -1.31043 0
M  V30 9351 C 906.906 4.33195 0.776553 0
M  V30 9352 H 904.025 0.736886 -0.0129869 0
M  V30 9353 H 906.667 1.75904 -0.718177 0
M  V30 9354 H 904.817 3.83071 0.647231 0
M  V30 9355 H 906.489 4.18607 -1.9382 0
M  V30 9356 H 904.732 3.90685 -1.8854 0
M  V30 9357 H 905.403 5.38861 -1.1972 0
M  V30 9358 H 907.879 4.15156 0.280147 0
M  V30 9359 H 906.755 5.42869 0.81146 0
M  V30 9360 H 907.016 4.02336 1.83244 0
M  V30 9361 N 906.075 0.2925 1.54862 0
M  V30 9362 C 907.352 -0.371946 1.92031 0
M  V30 9363 C 907.732 -1.72363 1.21878 0
M  V30 9364 O 907.08 -2.25779 0.351573 0
M  V30 9365 C 907.29 -0.495027 3.45471 0
M  V30 9366 C 908.638 -0.769855 4.17562 0
M  V30 9367 O 909.662 -0.579168 3.5146 0
M  V30 9368 O 908.521 -1.13561 5.34571 0
M  V30 9369 H 905.615 -0.206463 0.800813 0
M  V30 9370 H 908.161 0.339933 1.6626 0
M  V30 9371 H 906.933 0.455528 3.88639 0
M  V30 9372 H 906.556 -1.2557 3.7725 0
M  V30 9373 N 907.553 -1.57587 0.0200696 0
M  V30 9374 C 908.783 -1.95435 -0.669991 0
M  V30 9375 C 909.191 -0.894647 -1.66711 0
M  V30 9376 O 908.534 0.133009 -1.83218 0
M  V30 9377 C 908.596 -3.29379 -1.44047 0
M  V30 9378 C 908.26 -4.53008 -0.602691 0
M  V30 9379 C 909.257 -5.19766 0.118188 0
M  V30 9380 C 906.942 -4.99359 -0.542754 0
M  V30 9381 C 908.936 -6.31187 0.887774 0
M  V30 9382 C 906.623 -6.10665 0.230543 0
M  V30 9383 C 907.621 -6.76438 0.944522 0
M  V30 9384 O 907.309 -7.85608 1.70516 0
M  V30 9385 H 907.041 -0.648681 -0.190234 0
M  V30 9386 H 909.595 -2.05269 0.0733838 0
M  V30 9387 H 907.825 -3.1601 -2.22878 0
M  V30 9388 H 909.514 -3.52194 -2.01777 0
M  V30 9389 H 910.28 -4.84932 0.0811604 0
M  V30 9390 H 906.159 -4.47976 -1.08804 0
M  V30 9391 H 909.703 -6.82458 1.44558 0
M  V30 9392 H 905.6 -6.44938 0.26932 0
M  V30 9393 H 906.368 -8.02228 1.62398 0
M  V30 9394 N 909.032 0.252966 -1.55557 0
M  V30 9395 C 910.443 0.822503 -1.67606 0
M  V30 9396 C 910.794 1.86265 -0.616411 0
M  V30 9397 O 909.919 2.15082 0.238447 0
M  V30 9398 C 910.514 1.49866 -3.03852 0
M  V30 9399 C 909.073 2.01597 -3.17861 0
M  V30 9400 C 908.22 0.864943 -2.63465 0
M  V30 9401 H 911.171 0.0288958 -1.58674 0
M  V30 9402 H 911.192 2.36646 -2.97958 0
M  V30 9403 H 910.704 0.741378 -3.80953 0
M  V30 9404 H 908.805 2.80224 -2.45571 0
M  V30 9405 H 908.918 2.21752 -4.24692 0
M  V30 9406 H 907.282 1.2638 -2.21134 0
M  V30 9407 H 908.065 0.120847 -3.43087 0
M  V30 9408 N 910.51 1.48831 0.518367 0
M  V30 9409 C 911.74 1.60886 1.29612 0
M  V30 9410 C 912.148 0.272713 1.87224 0
M  V30 9411 O 911.491 -0.749653 1.67708 0
M  V30 9412 C 911.553 2.60541 2.47707 0
M  V30 9413 C 911.217 4.05324 2.11095 0
M  V30 9414 C 912.214 4.92658 1.66084 0
M  V30 9415 C 909.899 4.50942 2.21262 0
M  V30 9416 C 911.893 6.23641 1.3172 0
M  V30 9417 C 909.58 5.81943 1.8651 0
M  V30 9418 C 910.578 6.68116 1.41812 0
M  V30 9419 O 910.266 7.96677 1.07522 0
M  V30 9420 H 909.998 0.544968 0.399982 0
M  V30 9421 H 912.552 1.95474 0.630799 0
M  V30 9422 H 910.782 2.21098 3.17258 0
M  V30 9423 H 912.471 2.62308 3.09757 0
M  V30 9424 H 913.237 4.58649 1.5769 0
M  V30 9425 H 909.116 3.84048 2.55007 0
M  V30 9426 H 912.66 6.90857 0.967598 0
M  V30 9427 H 908.557 6.15484 1.94549 0
M  V30 9428 H 909.325 8.09534 1.2082 0
M  V30 9429 N 911.988 -0.768124 1.37614 0
M  V30 9430 C 913.404 -1.06919 1.18493 0
M  V30 9431 C 913.604 -2.01486 0.0235753 0
M  V30 9432 O 912.66 -2.4438 -0.635209 0
M  V30 9433 C 913.973 -1.66321 2.50515 0
M  V30 9434 C 915.521 -1.78562 2.57069 0
M  V30 9435 C 915.996 -2.41377 3.89231 0
M  V30 9436 N 917.487 -2.48824 3.90693 0
M  V30 9437 C 918.222 -2.98288 4.89706 0
M  V30 9438 N 917.718 -3.47897 5.99115 0
M  V30 9439 N 919.511 -2.97196 4.77107 0
M  V30 9440 H 911.662 -0.140286 2.11936 0
M  V30 9441 H 913.925 -0.124863 0.939741 0
M  V30 9442 H 913.631 -1.04303 3.35878 0
M  V30 9443 H 913.505 -2.65571 2.67866 0
M  V30 9444 H 915.892 -2.39712 1.72111 0
M  V30 9445 H 915.973 -0.780574 2.43599 0
M  V30 9446 H 915.617 -1.80866 4.74605 0
M  V30 9447 H 915.547 -3.42495 4.00006 0
M  V30 9448 H 918.038 -2.1372 3.1166 0
M  V30 9449 H 918.351 -3.84053 6.70614 0
M  V30 9450 H 916.696 -3.45993 6.02755 0
M  V30 9451 H 919.887 -2.57741 3.90752 0
M  V30 9452 H 920.06 -3.35434 5.54426 0
M  V30 9453 N 913.466 -1.22244 -0.994698 0
M  V30 9454 C 914.396 -1.01513 -2.10279 0
M  V30 9455 C 915.377 0.0633365 -1.69982 0
M  V30 9456 O 916.562 -0.0985268 -1.9395 0
M  V30 9457 C 913.692 -0.59016 -3.42249 0
M  V30 9458 C 912.646 -1.61436 -3.96387 0
M  V30 9459 C 911.972 -1.04528 -5.24383 0
M  V30 9460 C 913.272 -3.00388 -4.27276 0
M  V30 9461 H 914.966 -1.94194 -2.2788 0
M  V30 9462 H 912.512 -0.935094 -1.09508 0
M  V30 9463 H 914.465 -0.432254 -4.19177 0
M  V30 9464 H 913.189 0.372308 -3.24471 0
M  V30 9465 H 911.848 -1.76001 -3.21589 0
M  V30 9466 H 911.496 -0.0742225 -5.02945 0
M  V30 9467 H 911.196 -1.72949 -5.61571 0
M  V30 9468 H 912.72 -0.898922 -6.03947 0
M  V30 9469 H 914.134 -2.89207 -4.95007 0
M  V30 9470 H 912.531 -3.65916 -4.75631 0
M  V30 9471 H 913.601 -3.50456 -3.35125 0
M  V30 9472 N 914.944 1.19125 -1.03184 0
M  V30 9473 C 916.19 1.89428 -0.740857 0
M  V30 9474 C 916.545 1.78302 0.72291 0
M  V30 9475 O 915.838 1.16656 1.51994 0
M  V30 9476 C 916.032 3.39052 -1.13041 0
M  V30 9477 C 915.861 3.64739 -2.6305 0
M  V30 9478 C 914.631 3.82603 -3.30066 0
M  V30 9479 C 916.829 3.66052 -3.61262 0
M  V30 9480 N 914.811 3.95947 -4.69147 0
M  V30 9481 C 916.182 3.85003 -4.85976 0
M  V30 9482 C 918.237 3.49093 -3.55019 0
M  V30 9483 C 916.94 3.88753 -6.05197 0
M  V30 9484 C 918.966 3.54122 -4.73658 0
M  V30 9485 C 918.328 3.73561 -5.97187 0
M  V30 9486 H 914.427 0.71217 -0.323014 0
M  V30 9487 H 917.011 1.43146 -1.31974 0
M  V30 9488 H 915.182 3.8405 -0.579699 0
M  V30 9489 H 916.914 3.96887 -0.791369 0
M  V30 9490 H 913.669 3.81615 -2.80476 0
M  V30 9491 H 914.093 4.06461 -5.41404 0
M  V30 9492 H 918.735 3.33018 -2.60497 0
M  V30 9493 H 916.453 4.03619 -7.00084 0
M  V30 9494 H 920.039 3.42286 -4.70459 0
M  V30 9495 H 918.919 3.7733 -6.87453 0
M  V30 9496 N 916.422 0.810101 1.35185 0
M  V30 9497 C 917.372 0.195541 2.2716 0
M  V30 9498 C 918.356 -0.632691 1.47939 0
M  V30 9499 O 919.548 -0.489372 1.701 0
M  V30 9500 C 916.677 -0.652164 3.37049 0
M  V30 9501 C 915.763 0.185989 4.23692 0
M  V30 9502 N 916.154 1.25073 4.90092 0
M  V30 9503 C 914.452 -0.0318033 4.45989 0
M  V30 9504 C 915.153 1.76272 5.54349 0
M  V30 9505 N 914.129 1.06861 5.32993 0
M  V30 9506 H 917.931 1.01018 2.75994 0
M  V30 9507 H 915.445 0.651612 1.48754 0
M  V30 9508 H 917.442 -1.10851 4.01893 0
M  V30 9509 H 916.102 -1.46511 2.89767 0
M  V30 9510 H 917.113 1.63341 4.91467 0
M  V30 9511 H 913.79 -0.813607 4.09496 0
M  V30 9512 H 915.18 2.65278 6.17315 0
M  V30 9513 N 917.9 -1.47166 0.563914 0
M  V30 9514 C 919.13 -2.06546 0.0473599 0
M  V30 9515 C 919.538 -1.41607 -1.25476 0
M  V30 9516 O 918.881 -0.50894 -1.76509 0
M  V30 9517 C 918.943 -3.58873 -0.212249 0
M  V30 9518 C 918.607 -4.45893 1.00144 0
M  V30 9519 C 919.604 -4.83594 1.90873 0
M  V30 9520 C 917.289 -4.87309 1.218 0
M  V30 9521 C 919.283 -5.61519 3.01621 0
M  V30 9522 C 916.97 -5.64997 2.32856 0
M  V30 9523 C 917.968 -6.02013 3.22597 0
M  V30 9524 O 917.656 -6.78135 4.31727 0
M  V30 9525 H 917.388 -0.674441 0.0458823 0
M  V30 9526 H 919.942 -1.9006 0.778865 0
M  V30 9527 H 918.172 -3.73596 -0.998145 0
M  V30 9528 H 919.861 -4.00248 -0.675005 0
M  V30 9529 H 920.627 -4.52192 1.7535 0
M  V30 9530 H 916.506 -4.57959 0.528641 0
M  V30 9531 H 920.05 -5.90331 3.71693 0
M  V30 9532 H 915.947 -5.95813 2.48349 0
M  V30 9533 H 916.715 -6.96537 4.29859 0
M  V30 9534 N 919.378 -0.300708 -1.54705 0
M  V30 9535 C 920.789 0.191995 -1.8571 0
M  V30 9536 C 921.14 1.53447 -1.22264 0
M  V30 9537 O 920.265 2.10054 -0.520226 0
M  V30 9538 C 920.86 0.355148 -3.36933 0
M  V30 9539 C 919.419 0.792071 -3.67972 0
M  V30 9540 C 918.566 -0.099756 -2.77121 0
M  V30 9541 H 921.517 -0.521729 -1.49879 0
M  V30 9542 H 921.538 1.18977 -3.61421 0
M  V30 9543 H 921.05 -0.622075 -3.83082 0
M  V30 9544 H 919.151 1.77986 -3.27341 0
M  V30 9545 H 919.264 0.611661 -4.75179 0
M  V30 9546 H 917.628 0.420909 -2.51198 0
M  V30 9547 H 918.411 -1.07333 -3.2609 0
M  V30 9548 N 920.856 1.57574 -0.0284266 0
M  V30 9549 C 922.096 1.93637 0.65453 0
M  V30 9550 C 922.46 0.905015 1.69332 0
M  V30 9551 O 923.661 1.15181 2.42872 0
M  V30 9552 C 921.932 3.3462 1.25555 0
M  V30 9553 S 923.491 3.92609 1.95968 0
M  V30 9554 H 920.309 0.67755 0.215516 0
M  V30 9555 H 922.911 1.95284 -0.0919257 0
M  V30 9556 H 921.615 4.07499 0.487069 0
M  V30 9557 H 921.146 3.36415 2.03933 0
M  V30 9558 H 923.161 3.75988 3.23802 0
M  V30 9559 N 922.334 -0.244713 1.55689 0
M  V30 9560 C 923.562 -0.989944 1.8168 0
M  V30 9561 C 923.977 -1.78863 0.604449 0
M  V30 9562 O 923.334 -1.77437 -0.426907 0
M  V30 9563 C 923.385 -1.92607 3.05916 0
M  V30 9564 O 923.106 -1.1597 4.22472 0
M  V30 9565 C 924.607 -2.78711 3.44724 0
M  V30 9566 H 921.827 -0.2912 0.604519 0
M  V30 9567 H 924.371 -0.266938 2.0275 0
M  V30 9568 H 922.526 -2.60333 2.8689 0
M  V30 9569 H 922.94 -1.79311 4.92898 0
M  V30 9570 H 924.414 -3.40141 4.34751 0
M  V30 9571 H 924.891 -3.49935 2.6541 0
M  V30 9572 H 925.497 -2.16435 3.66109 0
M  V30 9573 N 923.813 -1.49104 -0.510467 0
M  V30 9574 C 925.059 -1.58346 -1.26705 0
M  V30 9575 C 925.392 -0.265121 -1.92382 0
M  V30 9576 O 924.667 0.730558 -1.80258 0
M  V30 9577 C 924.95 -2.7359 -2.34137 0
M  V30 9578 C 924.803 -4.1519 -1.73024 0
M  V30 9579 C 926.122 -2.84511 -3.3577 0
M  V30 9580 H 923.241 -0.57637 -0.459311 0
M  V30 9581 H 925.883 -1.81353 -0.566658 0
M  V30 9582 H 924.033 -2.54105 -2.93876 0
M  V30 9583 H 925.705 -4.46167 -1.17186 0
M  V30 9584 H 923.948 -4.21279 -1.03473 0
M  V30 9585 H 924.619 -4.91683 -2.50903 0
M  V30 9586 H 927.095 -3.0222 -2.86011 0
M  V30 9587 H 925.971 -3.6684 -4.08313 0
M  V30 9588 H 926.232 -1.93471 -3.97519 0
M  V30 9589 N 925.291 0.760815 -1.38019 0
M  V30 9590 C 926.239 1.89578 -1.34771 0
M  V30 9591 C 927.233 1.67766 -0.234714 0
M  V30 9592 O 928.439 1.75423 -0.403352 0
M  V30 9593 H 924.814 0.623608 -0.420258 0
M  V30 9594 H 926.785 1.89434 -2.30558 0
M  V30 9595 C 925.534 3.26976 -1.18246 0
M  V30 9596 H 924.857 3.44342 -2.03147 0
M  V30 9597 H 926.297 4.06657 -1.20026 0
M  V30 9598 C 924.756 3.36717 0.111145 0
M  V30 9599 O 925.286 3.86607 1.09079 0
M  V30 9600 N 923.492 2.90128 0.165542 0
M  V30 9601 H 923.039 2.49719 -0.632328 0
M  V30 9602 H 922.997 2.97026 1.03067 0
M  V30 9603 N 926.769 1.22769 0.988202 0
M  V30 9604 C 928.016 1.05509 1.72841 0
M  V30 9605 C 928.344 -0.409145 1.90148 0
M  V30 9606 O 927.599 -1.3195 1.44526 0
M  V30 9607 C 927.898 1.71679 3.13466 0
M  V30 9608 C 927.564 3.21584 3.16061 0
M  V30 9609 C 926.226 3.62486 3.16476 0
M  V30 9610 C 928.578 4.17511 3.11984 0
M  V30 9611 C 925.906 4.97789 3.10521 0
M  V30 9612 C 928.258 5.52796 3.0757 0
M  V30 9613 C 926.922 5.93072 3.06304 0
M  V30 9614 H 926.192 0.386085 0.632471 0
M  V30 9615 H 928.839 1.52596 1.157 0
M  V30 9616 H 927.144 1.1693 3.73945 0
M  V30 9617 H 928.841 1.55809 3.69492 0
M  V30 9618 H 925.431 2.89019 3.1649 0
M  V30 9619 H 929.615 3.86926 3.10809 0
M  V30 9620 H 924.871 5.28218 3.07888 0
M  V30 9621 H 929.045 6.26848 3.03372 0
M  V30 9622 H 926.672 6.97879 3.01444 0
M  V30 9623 N 928.247 -1.18576 1.03814 0
M  V30 9624 C 929.475 -1.92437 0.759966 0
M  V30 9625 C 929.89 -1.76031 -0.682526 0
M  V30 9626 O 929.247 -1.08829 -1.46501 0
M  V30 9627 C 929.298 -3.43923 1.11351 0
M  V30 9628 O 929.019 -3.5981 2.49937 0
M  V30 9629 C 930.52 -4.34888 0.859472 0
M  V30 9630 H 927.74 -0.610998 0.277349 0
M  V30 9631 H 930.284 -1.50448 1.38512 0
M  V30 9632 H 928.439 -3.83711 0.533362 0
M  V30 9633 H 928.853 -4.53569 2.63393 0
M  V30 9634 H 930.327 -5.39744 1.15672 0
M  V30 9635 H 930.804 -4.38717 -0.205839 0
M  V30 9636 H 931.41 -4.00795 1.42279 0
M  V30 9637 N 929.725 -0.817259 -1.34754 0
M  V30 9638 C 930.974 -0.39908 -1.97713 0
M  V30 9639 C 931.287 1.04203 -1.65533 0
M  V30 9640 O 932.493 1.56384 -2.21937 0
M  V30 9641 C 930.949 -0.662634 -3.53747 0
M  V30 9642 C 930.557 -2.11699 -3.94826 0
M  V30 9643 C 932.301 -0.31034 -4.23364 0
M  V30 9644 C 930.208 -2.32573 -5.4375 0
M  V30 9645 H 929.138 -0.145488 -0.739831 0
M  V30 9646 H 931.789 -1.00282 -1.53674 0
M  V30 9647 H 930.171 0.0111972 -3.95998 0
M  V30 9648 H 931.345 -2.82951 -3.63697 0
M  V30 9649 H 929.66 -2.43017 -3.3813 0
M  V30 9650 H 932.257 -0.44421 -5.32852 0
M  V30 9651 H 932.6 0.744594 -4.09587 0
M  V30 9652 H 933.133 -0.938518 -3.8657 0
M  V30 9653 H 929.872 -3.36551 -5.62507 0
M  V30 9654 H 929.392 -1.65858 -5.76412 0
M  V30 9655 H 931.071 -2.14651 -6.10356 0
M  V30 9656 N 931.203 1.46865 -0.571711 0
M  V30 9657 C 932.45 2.0243 -0.0531071 0
M  V30 9658 C 932.778 1.44446 1.30252 0
M  V30 9659 O 932.033 0.595182 1.8643 0
M  V30 9660 C 932.332 3.57323 0.0742311 0
M  V30 9661 C 931.998 4.34295 -1.21237 0
M  V30 9662 C 930.66 4.55044 -1.56489 0
M  V30 9663 C 933.012 4.78577 -2.0643 0
M  V30 9664 C 930.34 5.17325 -2.76752 0
M  V30 9665 C 932.692 5.42186 -3.25909 0
M  V30 9666 C 931.356 5.61165 -3.61456 0
M  V30 9667 H 930.626 0.740745 -0.0194333 0
M  V30 9668 H 933.273 1.76366 -0.74614 0
M  V30 9669 H 931.578 3.82461 0.850325 0
M  V30 9670 H 933.275 3.97982 0.491077 0
M  V30 9671 H 929.865 4.18435 -0.927922 0
M  V30 9672 H 934.049 4.62313 -1.80501 0
M  V30 9673 H 929.305 5.30211 -3.04444 0
M  V30 9674 H 933.479 5.75459 -3.92198 0
M  V30 9675 H 931.106 6.09195 -4.54737 0
M  V30 9676 N 932.681 0.308908 1.54543 0
M  V30 9677 C 933.628 -0.563659 2.23811 0
M  V30 9678 C 934.598 -1.12332 1.22355 0
M  V30 9679 O 935.783 -1.16638 1.50997 0
M  V30 9680 C 932.923 -1.72585 2.98845 0
M  V30 9681 C 932.036 -1.19682 4.1509 0
M  V30 9682 C 931.171 -2.32351 4.77688 0
M  V30 9683 C 930.21 -1.76623 5.86064 0
M  V30 9684 N 929.347 -2.82896 6.42584 0
M  V30 9685 H 934.187 0.0336288 2.97981 0
M  V30 9686 H 931.724 0.0283666 1.47073 0
M  V30 9687 H 933.682 -2.40951 3.40586 0
M  V30 9688 H 932.312 -2.29464 2.27037 0
M  V30 9689 H 931.364 -0.405173 3.78236 0
M  V30 9690 H 932.676 -0.748923 4.93146 0
M  V30 9691 H 931.83 -3.0865 5.22322 0
M  V30 9692 H 930.569 -2.80472 3.98982 0
M  V30 9693 H 929.574 -0.988171 5.40847 0
M  V30 9694 H 930.799 -1.29398 6.66658 0
M  V30 9695 H 928.745 -3.30336 5.66758 0
M  V30 9696 H 928.662 -2.42626 7.16009 0
M  V30 9697 H 929.93 -3.59068 6.91875 0
M  V30 9698 N 934.159 -1.57557 0.0367827 0
M  V30 9699 C 935.122 -2.09591 -0.927589 0
M  V30 9700 C 936.122 -1.01252 -1.24919 0
M  V30 9701 O 937.312 -1.27382 -1.18825 0
M  V30 9702 C 934.444 -2.56816 -2.24184 0
M  V30 9703 H 935.637 -2.96086 -0.476784 0
M  V30 9704 H 933.19 -1.54864 -0.211385 0
M  V30 9705 H 933.925 -1.73673 -2.73876 0
M  V30 9706 H 933.71 -3.35973 -2.0215 0
M  V30 9707 H 935.2 -2.97271 -2.93291 0
M  V30 9708 N 935.637 0.236453 -1.55816 0
M  V30 9709 C 937.053 0.585465 -1.48474 0
M  V30 9710 C 937.253 1.8785 -0.72902 0
M  V30 9711 O 936.309 2.51131 -0.262614 0
M  V30 9712 C 937.622 0.678506 -2.92945 0
M  V30 9713 C 939.17 0.770135 -3.03378 0
M  V30 9714 C 939.645 0.894649 -4.49177 0
M  V30 9715 N 941.136 0.959253 -4.53158 0
M  V30 9716 C 941.871 1.07505 -5.63232 0
M  V30 9717 N 941.367 1.15572 -6.83092 0
M  V30 9718 N 943.16 1.10902 -5.51051 0
M  V30 9719 H 935.311 -0.612241 -2.03385 0
M  V30 9720 H 937.574 -0.212796 -0.923808 0
M  V30 9721 H 937.28 -0.201757 -3.51121 0
M  V30 9722 H 937.154 1.54703 -3.44016 0
M  V30 9723 H 939.541 1.64085 -2.45276 0
M  V30 9724 H 939.622 -0.123753 -2.555 0
M  V30 9725 H 939.266 0.0284537 -5.07892 0
M  V30 9726 H 939.196 1.80373 -4.94745 0
M  V30 9727 H 941.687 0.907827 -3.66834 0
M  V30 9728 H 942 1.24343 -7.62731 0
M  V30 9729 H 940.345 1.12511 -6.85833 0
M  V30 9730 H 943.536 1.04255 -4.56343 0
M  V30 9731 H 943.709 1.19581 -6.36871 0
M  V30 9732 N 937.115 1.49373 0.502552 0
M  V30 9733 C 938.048 1.60529 1.6219 0
M  V30 9734 C 939.026 0.454431 1.56121 0
M  V30 9735 O 940.21 0.669768 1.762 0
M  V30 9736 C 937.337 1.55879 3.00698 0
M  V30 9737 C 936.383 2.76143 3.25034 0
M  V30 9738 S 937.216 4.37831 3.08325 0
M  V30 9739 C 938.372 4.35824 4.49231 0
M  V30 9740 H 938.605 2.55219 1.52482 0
M  V30 9741 H 936.138 1.38244 0.687594 0
M  V30 9742 H 938.096 1.53882 3.80566 0
M  V30 9743 H 936.757 0.624791 3.07823 0
M  V30 9744 H 935.95 2.69104 4.26144 0
M  V30 9745 H 935.552 2.75544 2.52886 0
M  V30 9746 H 937.844 4.07447 5.41288 0
M  V30 9747 H 938.787 5.37206 4.6132 0
M  V30 9748 H 939.195 3.65923 4.29838 0
M  V30 9749 N 938.594 -0.753485 1.38421 0
M  V30 9750 C 939.824 -1.54049 1.37669 0
M  V30 9751 C 940.232 -1.89167 -0.0353656 0
M  V30 9752 O 939.575 -1.53285 -1.01239 0
M  V30 9753 C 939.637 -2.86777 2.16793 0
M  V30 9754 C 939.301 -2.74196 3.65603 0
M  V30 9755 C 940.298 -2.43985 4.59094 0
M  V30 9756 C 937.983 -2.91645 4.0896 0
M  V30 9757 C 939.977 -2.31379 5.93921 0
M  V30 9758 C 937.664 -2.78658 5.43868 0
M  V30 9759 C 938.662 -2.48568 6.36163 0
M  V30 9760 O 938.35 -2.3564 7.68589 0
M  V30 9761 H 938.082 -0.483276 0.472673 0
M  V30 9762 H 940.636 -0.940267 1.82615 0
M  V30 9763 H 938.866 -3.48988 1.66565 0
M  V30 9764 H 940.555 -3.48289 2.08446 0
M  V30 9765 H 941.321 -2.30172 4.26902 0
M  V30 9766 H 937.2 -3.14063 3.37469 0
M  V30 9767 H 940.744 -2.07813 6.65927 0
M  V30 9768 H 936.641 -2.92044 5.75656 0
M  V30 9769 H 937.409 -2.50851 7.79112 0
M  V30 9770 N 940.072 -1.23292 -0.981677 0
M  V30 9771 C 941.318 -1.06582 -1.72535 0
M  V30 9772 C 941.651 0.396538 -1.90108 0
M  V30 9773 O 940.926 1.29363 -1.45243 0
M  V30 9774 C 941.209 -1.7904 -3.12437 0
M  V30 9775 C 941.062 -3.32941 -3.02441 0
M  V30 9776 C 942.381 -1.55185 -4.11832 0
M  V30 9777 H 939.5 -0.388585 -0.626236 0
M  V30 9778 H 942.142 -1.51779 -1.14293 0
M  V30 9779 H 940.292 -1.40619 -3.62158 0
M  V30 9780 H 941.964 -3.80875 -2.60254 0
M  V30 9781 H 940.207 -3.62039 -2.38977 0
M  V30 9782 H 940.878 -3.78827 -4.0149 0
M  V30 9783 H 943.354 -1.88581 -3.70913 0
M  V30 9784 H 942.23 -2.08362 -5.07815 0
M  V30 9785 H 942.491 -0.486925 -4.3941 0
M  V30 9786 N 941.55 1.18024 -1.04442 0
M  V30 9787 C 942.798 1.87727 -0.74854 0
M  V30 9788 C 943.119 1.80975 0.726156 0
M  V30 9789 O 942.389 1.23061 1.52423 0
M  V30 9790 H 940.969 0.694974 -0.273897 0
M  V30 9791 H 943.631 1.43213 -1.32197 0
M  V30 9792 H 942.727 2.93665 -1.05674 0
M  V30 9793 N 943.028 0.824394 1.34319 0
M  V30 9794 C 944.276 0.41235 1.97849 0
M  V30 9795 C 944.597 -1.02841 1.65677 0
M  V30 9796 O 943.867 -1.71421 0.948245 0
M  V30 9797 H 942.447 0.149486 0.73189 0
M  V30 9798 H 945.109 1.05416 1.63931 0
M  V30 9799 H 944.205 0.532557 3.07523 0
M  V30 9800 N 944.506 -1.46559 0.579492 0
M  V30 9801 C 945.752 -2.02699 0.0639363 0
M  V30 9802 C 946.085 -1.4504 -1.29139 0
M  V30 9803 O 945.36 -0.614284 -1.84545 0
M  V30 9804 C 945.643 -3.601 -0.00528618 0
M  V30 9805 C 945.496 -4.28149 1.37871 0
M  V30 9806 C 946.815 -4.34375 -0.707537 0
M  V30 9807 H 943.934 -0.736586 0.0247085 0
M  V30 9808 H 946.576 -1.74739 0.746071 0
M  V30 9809 H 944.726 -3.84052 -0.586206 0
M  V30 9810 H 946.398 -4.1547 2.00455 0
M  V30 9811 H 944.641 -3.87636 1.94732 0
M  V30 9812 H 945.312 -5.36888 1.28278 0
M  V30 9813 H 947.788 -4.15549 -0.214064 0
M  V30 9814 H 946.664 -5.44091 -0.724992 0
M  V30 9815 H 946.925 -4.052 -1.7682 0
M  V30 9816 N 945.984 -0.3171 -1.54377 0
M  V30 9817 C 946.894 0.560867 -2.27797 0
M  V30 9818 C 947.91 1.13473 -1.31908 0
M  V30 9819 O 949.086 1.15608 -1.64914 0
M  V30 9820 C 946.151 1.70886 -3.0166 0
M  V30 9821 C 945.212 1.16745 -4.13121 0
M  V30 9822 C 944.445 2.26073 -4.83453 0
M  V30 9823 O 944.668 3.46292 -4.53252 0
M  V30 9824 O 943.602 1.91856 -5.70504 0
M  V30 9825 H 947.428 -0.035193 -3.0368 0
M  V30 9826 H 945.013 -0.0830062 -1.49169 0
M  V30 9827 H 946.895 2.37736 -3.47936 0
M  V30 9828 H 945.57 2.29122 -2.28658 0
M  V30 9829 H 944.477 0.464224 -3.71209 0
M  V30 9830 H 945.81 0.630307 -4.88147 0
M  V30 9831 N 947.462 1.57535 -0.0451378 0
M  V30 9832 C 948.412 2.07683 0.940829 0
M  V30 9833 C 949.396 0.9807 1.27558 0
M  V30 9834 O 950.588 1.2441 1.25901 0
M  V30 9835 C 947.717 2.62049 2.21778 0
M  V30 9836 C 946.803 3.78621 1.91068 0
M  V30 9837 N 947.194 4.88623 1.30694 0
M  V30 9838 C 945.492 3.87411 2.20972 0
M  V30 9839 C 946.193 5.69714 1.17478 0
M  V30 9840 N 945.169 5.17129 1.67566 0
M  V30 9841 H 948.971 2.90129 0.469267 0
M  V30 9842 H 946.485 1.61615 0.159472 0
M  V30 9843 H 948.482 2.96276 2.93302 0
M  V30 9844 H 947.142 1.81039 2.69546 0
M  V30 9845 H 948.153 5.08545 0.979907 0
M  V30 9846 H 944.83 3.17335 2.71302 0
M  V30 9847 H 946.22 6.68174 0.706574 0
M  V30 9848 N 948.94 -0.228186 1.55939 0
M  V30 9849 C 950.356 -0.577583 1.48782 0
M  V30 9850 C 950.556 -1.87461 0.738972 0
M  V30 9851 O 949.612 -2.50988 0.275929 0
M  V30 9852 C 950.925 -0.662961 2.93301 0
M  V30 9853 C 952.473 -0.754035 3.03782 0
M  V30 9854 C 952.948 -0.870815 4.49645 0
M  V30 9855 N 954.439 -0.935208 4.53661 0
M  V30 9856 C 955.174 -1.04516 5.63794 0
M  V30 9857 N 954.67 -1.11948 6.83696 0
M  V30 9858 N 956.463 -1.07978 5.51631 0
M  V30 9859 H 948.614 0.623018 2.03057 0
M  V30 9860 H 950.877 0.217692 0.922667 0
M  V30 9861 H 950.583 0.220375 3.51009 0
M  V30 9862 H 950.457 -1.52876 3.44831 0
M  V30 9863 H 952.844 -1.62782 2.46143 0
M  V30 9864 H 952.925 0.137301 2.55431 0
M  V30 9865 H 952.569 -0.0015186 5.079 0
M  V30 9866 H 952.499 -1.77747 4.95695 0
M  V30 9867 H 954.99 -0.88836 3.6731 0
M  V30 9868 H 955.303 -1.20297 7.6338 0
M  V30 9869 H 953.648 -1.08873 6.8642 0
M  V30 9870 H 956.839 -1.01833 4.56889 0
M  V30 9871 H 957.012 -1.16202 6.37496 0
M  V30 9872 N 950.418 -1.49637 -0.494624 0
M  V30 9873 C 951.665 -1.59445 -1.24834 0
M  V30 9874 C 951.993 -0.284028 -1.92415 0
M  V30 9875 O 951.248 0.728519 -1.81634 0
M  V30 9876 C 951.547 -2.70749 -2.33302 0
M  V30 9877 C 951.213 -4.12034 -1.83135 0
M  V30 9878 C 949.875 -4.50482 -1.69173 0
M  V30 9879 C 952.227 -5.00432 -1.4566 0
M  V30 9880 C 949.555 -5.75093 -1.16124 0
M  V30 9881 C 951.907 -6.25568 -0.940608 0
M  V30 9882 C 950.571 -6.62839 -0.787432 0
M  V30 9883 H 949.841 -0.583451 -0.456799 0
M  V30 9884 H 952.488 -1.8349 -0.548044 0
M  V30 9885 H 950.793 -2.407 -3.09145 0
M  V30 9886 H 952.49 -2.75546 -2.91334 0
M  V30 9887 H 949.08 -3.8169 -1.94964 0
M  V30 9888 H 953.264 -4.71379 -1.55291 0
M  V30 9889 H 948.52 -6.02665 -1.02982 0
M  V30 9890 H 952.694 -6.93439 -0.641467 0
M  V30 9891 H 950.321 -7.59279 -0.374191 0
M  V30 9892 N 951.896 0.746133 -1.38819 0
M  V30 9893 C 953.121 1.54049 -1.38866 0
M  V30 9894 C 953.546 1.88092 0.0176624 0
M  V30 9895 O 952.904 1.51113 1.00173 0
M  V30 9896 C 952.952 2.8116 -2.25791 0
M  V30 9897 O 952.056 3.76623 -1.68014 0
M  V30 9898 H 951.397 0.465648 -0.473359 0
M  V30 9899 H 953.927 0.921469 -1.82675 0
M  V30 9900 H 953.937 3.30009 -2.39913 0
M  V30 9901 H 952.612 2.55713 -3.27999 0
M  V30 9902 H 951.189 3.35352 -1.63074 0
M  V30 9903 N 953.375 1.23811 0.975125 0
M  V30 9904 C 954.338 1.02505 2.05001 0
M  V30 9905 C 955.338 -0.0150084 1.60793 0
M  V30 9906 O 956.528 0.225246 1.72738 0
M  V30 9907 C 953.66 0.552087 3.364 0
M  V30 9908 H 954.853 1.979 2.25335 0
M  V30 9909 H 952.406 1.05929 1.1493 0
M  V30 9910 H 953.141 -0.405394 3.21756 0
M  V30 9911 H 952.926 1.30267 3.69828 0
M  V30 9912 H 954.416 0.423828 4.15444 0
M  V30 9913 N 954.853 -1.17469 1.05066 0
M  V30 9914 C 955.816 -2.19648 0.654793 0
M  V30 9915 C 956.816 -1.58107 -0.293063 0
M  V30 9916 O 958.006 -1.74029 -0.077106 0
M  V30 9917 C 955.138 -3.40878 -0.0384437 0
M  V30 9918 H 956.331 -2.56184 1.55915 0
M  V30 9919 H 953.884 -1.31528 0.844396 0
M  V30 9920 H 954.619 -3.09885 -0.956133 0
M  V30 9921 H 954.404 -3.86792 0.642961 0
M  V30 9922 H 955.894 -4.1651 -0.301568 0
M  V30 9923 N 956.331 -0.831506 -1.3388 0
M  V30 9924 C 957.571 -0.429648 -1.99833 0
M  V30 9925 C 957.935 0.990796 -1.6446 0
M  V30 9926 O 959.136 1.49599 -2.23324 0
M  V30 9927 C 957.407 -0.635558 -3.51704 0
M  V30 9928 S 958.966 -0.327824 -4.37574 0
M  V30 9929 H 955.784 -0.161939 -0.692313 0
M  V30 9930 H 958.386 -1.07919 -1.63015 0
M  V30 9931 H 957.09 -1.66887 -3.74936 0
M  V30 9932 H 956.621 0.0284073 -3.9339 0
M  V30 9933 H 958.636 0.855231 -4.88774 0
M  V30 9934 N 957.809 1.4625 -0.587256 0
M  V30 9935 C 958.757 2.32076 0.156108 0
M  V30 9936 C 959.751 1.44756 0.879887 0
M  V30 9937 O 960.957 1.61356 0.797759 0
M  V30 9938 H 957.332 0.748808 0.0692098 0
M  V30 9939 H 959.303 2.9258 -0.586497 0
M  V30 9940 C 958.052 3.28008 1.15352 0
M  V30 9941 H 957.375 3.9518 0.60601 0
M  V30 9942 H 958.815 3.90832 1.64396 0
M  V30 9943 C 957.274 2.53691 2.21681 0
M  V30 9944 O 957.804 2.30329 3.29107 0
M  V30 9945 N 956.01 2.14174 1.96412 0
M  V30 9946 H 955.557 2.33374 1.09061 0
M  V30 9947 H 955.515 1.6477 2.67765 0
M  V30 9948 N 959.287 0.325282 1.54207 0
M  V30 9949 C 960.534 -0.276775 2.006 0
M  V30 9950 C 960.862 -1.52007 1.21343 0
M  V30 9951 O 960.117 -1.93627 0.284104 0
M  V30 9952 C 960.416 -0.654292 3.5136 0
M  V30 9953 C 960.082 0.490023 4.48229 0
M  V30 9954 C 958.744 0.804104 4.74434 0
M  V30 9955 C 961.096 1.2586 5.05775 0
M  V30 9956 C 958.424 1.88945 5.55443 0
M  V30 9957 C 960.776 2.33405 5.87967 0
M  V30 9958 C 959.44 2.65393 6.12473 0
M  V30 9959 H 958.71 -0.101279 0.734046 0
M  V30 9960 H 961.357 0.449416 1.86152 0
M  V30 9961 H 959.662 -1.46093 3.63544 0
M  V30 9962 H 961.359 -1.13171 3.84699 0
M  V30 9963 H 957.949 0.235147 4.27954 0
M  V30 9964 H 962.133 1.02921 4.85511 0
M  V30 9965 H 957.389 2.14174 5.7266 0
M  V30 9966 H 961.563 2.93402 6.31576 0
M  V30 9967 H 959.19 3.49622 6.75032 0
M  V30 9968 N 960.765 -1.57509 0.0534917 0
M  V30 9969 C 961.993 -1.97098 -0.629298 0
M  V30 9970 C 962.408 -0.931128 -1.64242 0
M  V30 9971 O 961.765 0.0843866 -1.82305 0
M  V30 9972 C 961.816 -3.36767 -1.31415 0
M  V30 9973 O 961.537 -4.36766 -0.341599 0
M  V30 9974 C 963.038 -3.91127 -2.08649 0
M  V30 9975 H 960.258 -0.648611 -0.171886 0
M  V30 9976 H 962.802 -2.04145 0.120479 0
M  V30 9977 H 960.957 -3.30863 -2.01515 0
M  V30 9978 H 961.371 -5.1788 -0.830715 0
M  V30 9979 H 962.845 -4.91129 -2.51985 0
M  V30 9980 H 963.322 -3.26679 -2.9356 0
M  V30 9981 H 963.928 -4.00376 -1.43456 0
M  V30 9982 N 962.243 0.219913 -1.56058 0
M  V30 9983 C 963.659 0.569685 -1.49086 0
M  V30 9984 C 963.859 1.87066 -0.748903 0
M  V30 9985 O 962.915 2.50838 -0.289235 0
M  V30 9986 C 964.228 0.647397 -2.93648 0
M  V30 9987 C 965.776 0.737914 -3.04177 0
M  V30 9988 C 966.251 0.846957 -4.50101 0
M  V30 9989 N 967.742 0.911136 -4.5415 0
M  V30 9990 C 968.477 1.01525 -5.64341 0
M  V30 9991 N 967.973 1.0832 -6.8428 0
M  V30 9992 N 969.766 1.05051 -5.52196 0
M  V30 9993 H 961.917 -0.633778 -2.02724 0
M  V30 9994 H 964.18 -0.222583 -0.921499 0
M  V30 9995 H 963.886 -0.238987 -3.50887 0
M  V30 9996 H 963.76 1.51046 -3.45637 0
M  V30 9997 H 966.147 1.61474 -2.47002 0
M  V30 9998 H 966.228 -0.150845 -2.55355 0
M  V30 9999 H 965.872 -0.0254166 -5.07894 0
M  V30 10000 H 965.802 1.75116 -4.96631 0
M  V30 10001 H 968.293 0.868869 -3.67776 0
M  V30 10002 H 968.606 1.16247 -7.64007 0
M  V30 10003 H 966.951 1.05231 -6.86987 0
M  V30 10004 H 970.142 0.994086 -4.57423 0
M  V30 10005 H 970.315 1.12819 -6.38103 0
M  V30 10006 N 963.721 1.49897 0.486681 0
M  V30 10007 C 964.969 1.59789 1.23742 0
M  V30 10008 C 965.29 0.293056 1.92785 0
M  V30 10009 O 964.56 -0.688534 1.83401 0
M  V30 10010 H 963.14 0.588775 0.459731 0
M  V30 10011 H 965.802 1.86597 0.562808 0
M  V30 10012 H 964.898 2.40121 1.9937 0
M  V30 10013 N 965.199 -0.738761 1.39212 0
M  V30 10014 C 966.476 -1.48982 1.26742 0
M  V30 10015 C 966.856 -2.10732 -0.12466 0
M  V30 10016 O 966.204 -1.98287 -1.13554 0
M  V30 10017 C 966.414 -2.54427 2.38889 0
M  V30 10018 C 967.762 -3.20915 2.78027 0
M  V30 10019 O 968.786 -2.64738 2.38311 0
M  V30 10020 O 967.645 -4.22558 3.46565 0
M  V30 10021 H 964.739 -0.661395 0.496473 0
M  V30 10022 H 967.285 -0.772907 1.51077 0
M  V30 10023 H 966.057 -2.07151 3.3197 0
M  V30 10024 H 965.68 -3.33682 2.162 0
M  V30 10025 N 966.677 -1.24326 -0.968545 0
M  V30 10026 C 968.093 -1.00847 -1.23701 0
M  V30 10027 C 968.293 0.283235 -1.99499 0
M  V30 10028 O 967.349 0.999607 -2.31871 0
M  V30 10029 C 968.662 -2.22295 -2.02498 0
M  V30 10030 C 970.21 -2.26911 -2.15593 0
M  V30 10031 C 970.685 -3.47978 -2.97784 0
M  V30 10032 N 972.176 -3.48289 -3.05367 0
M  V30 10033 C 972.911 -4.38625 -3.69318 0
M  V30 10034 N 972.407 -5.39213 -4.34995 0
M  V30 10035 N 974.2 -4.26339 -3.66322 0
M  V30 10036 H 966.351 -2.07335 -0.461087 0
M  V30 10037 H 968.614 -0.909805 -0.26638 0
M  V30 10038 H 968.32 -3.161 -1.54188 0
M  V30 10039 H 968.194 -2.24344 -3.03232 0
M  V30 10040 H 970.581 -1.33639 -2.63106 0
M  V30 10041 H 970.662 -2.28888 -1.14209 0
M  V30 10042 H 970.306 -4.41564 -2.50965 0
M  V30 10043 H 970.236 -3.43244 -3.99364 0
M  V30 10044 H 972.727 -2.75517 -2.58648 0
M  V30 10045 H 973.04 -6.04378 -4.81608 0
M  V30 10046 H 971.385 -5.43101 -4.33667 0
M  V30 10047 H 974.576 -3.46991 -3.14189 0
M  V30 10048 H 974.749 -4.9694 -4.15878 0
M  V30 10049 N 968.156 1.1691 -1.05688 0
M  V30 10050 C 969.396 1.88972 -0.779044 0
M  V30 10051 C 969.76 1.7949 0.681708 0
M  V30 10052 O 970.961 2.46418 1.07386 0
M  V30 10053 C 969.232 3.34737 -1.25242 0
M  V30 10054 S 970.791 4.24718 -1.10272 0
M  V30 10055 H 967.609 0.652349 -0.282776 0
M  V30 10056 H 970.211 1.41162 -1.35254 0
M  V30 10057 H 968.915 3.39175 -2.3106 0
M  V30 10058 H 968.446 3.87593 -0.673417 0
M  V30 10059 H 970.461 4.96191 -0.0299004 0
M  V30 10060 N 969.634 0.838594 1.33437 0
M  V30 10061 C 971.05 0.526347 1.50671 0
M  V30 10062 C 971.25 -0.946387 1.77893 0
M  V30 10063 O 970.306 -1.7302 1.83903 0
M  V30 10064 C 971.619 1.39945 2.6615 0
M  V30 10065 C 973.167 1.3982 2.80035 0
M  V30 10066 C 973.642 2.25614 3.98576 0
M  V30 10067 N 975.133 2.23322 4.0581 0
M  V30 10068 C 975.868 2.86443 4.96727 0
M  V30 10069 N 975.364 3.58616 5.92762 0
M  V30 10070 N 977.157 2.75915 4.89722 0
M  V30 10071 H 969.308 1.79195 1.1403 0
M  V30 10072 H 971.571 0.764491 0.560586 0
M  V30 10073 H 971.277 2.44599 2.52714 0
M  V30 10074 H 971.151 1.07529 3.61548 0
M  V30 10075 H 973.538 0.35937 2.92904 0
M  V30 10076 H 973.619 1.76241 1.85399 0
M  V30 10077 H 973.263 3.29555 3.86466 0
M  V30 10078 H 973.193 1.86533 4.92456 0
M  V30 10079 H 975.684 1.70836 3.37081 0
M  V30 10080 H 975.997 4.03987 6.58798 0
M  V30 10081 H 974.342 3.62724 5.92838 0
M  V30 10082 H 977.533 2.19094 4.13661 0
M  V30 10083 H 977.706 3.25393 5.60378 0
M  V30 10084 N 971.112 -1.45937 0.595003 0
M  V30 10085 C 972.042 -2.33198 -0.11871 0
M  V30 10086 C 973.023 -1.46083 -0.871423 0
M  V30 10087 O 974.208 -1.74879 -0.844461 0
M  V30 10088 C 971.338 -3.28576 -1.12495 0
M  V30 10089 C 970.292 -4.25229 -0.486275 0
M  V30 10090 C 969.618 -5.10204 -1.59986 0
M  V30 10091 C 970.918 -5.19019 0.584473 0
M  V30 10092 H 972.612 -2.93122 0.609886 0
M  V30 10093 H 970.158 -1.40951 0.294742 0
M  V30 10094 H 972.111 -3.88485 -1.6327 0
M  V30 10095 H 970.835 -2.66784 -1.88398 0
M  V30 10096 H 969.494 -3.666 0.000507962 0
M  V30 10097 H 969.142 -4.44789 -2.34886 0
M  V30 10098 H 968.842 -5.75669 -1.1781 0
M  V30 10099 H 970.366 -5.7298 -2.11014 0
M  V30 10100 H 971.78 -5.73073 0.161297 0
M  V30 10101 H 970.177 -5.92893 0.927256 0
M  V30 10102 H 971.247 -4.62208 1.46601 0
M  V30 10103 N 972.59 -0.333456 -1.54032 0
M  V30 10104 C 973.5 0.536674 -2.28379 0
M  V30 10105 C 974.516 1.12068 -1.33104 0
M  V30 10106 O 975.692 1.13853 -1.66131 0
M  V30 10107 C 972.757 1.67677 -3.03456 0
M  V30 10108 C 971.818 1.12357 -4.14336 0
M  V30 10109 C 971.051 2.20933 -4.85823 0
M  V30 10110 O 971.274 3.41466 -4.569 0
M  V30 10111 O 970.208 1.85795 -5.72507 0
M  V30 10112 H 974.034 -0.0674003 -3.03625 0
M  V30 10113 H 971.619 -0.098823 -1.49073 0
M  V30 10114 H 973.501 2.34032 -3.50438 0
M  V30 10115 H 972.176 2.26684 -2.31076 0
M  V30 10116 H 971.083 0.424827 -3.7168 0
M  V30 10117 H 972.416 0.578497 -4.88789 0
M  V30 10118 N 974.068 1.57479 -0.061844 0
M  V30 10119 C 975.345 1.84484 0.649993 0
M  V30 10120 C 975.725 0.952366 1.88396 0
M  V30 10121 O 975.073 0.0161035 2.28494 0
M  V30 10122 C 975.283 3.34452 0.997133 0
M  V30 10123 C 976.631 4.01724 1.37488 0
M  V30 10124 O 977.655 3.3914 1.08916 0
M  V30 10125 O 976.514 5.12091 1.90854 0
M  V30 10126 H 973.608 0.761798 0.321858 0
M  V30 10127 H 976.154 1.6945 -0.0920192 0
M  V30 10128 H 974.926 3.91115 0.120301 0
M  V30 10129 H 974.549 3.54713 1.79624 0
M  V30 10130 N 975.546 -0.211634 1.56173 0
M  V30 10131 C 976.962 -0.56177 1.49386 0
M  V30 10132 C 977.162 -1.86666 0.758813 0
M  V30 10133 O 976.218 -2.50681 0.302534 0
M  V30 10134 C 977.531 -0.631815 2.93987 0
M  V30 10135 C 979.079 -0.721773 3.04564 0
M  V30 10136 C 979.554 -0.823075 4.50544 0
M  V30 10137 N 981.045 -0.887038 4.54627 0
M  V30 10138 C 981.78 -0.985304 5.64871 0
M  V30 10139 N 981.276 -1.0469 6.84844 0
M  V30 10140 N 983.069 -1.02121 5.52746 0
M  V30 10141 H 975.22 0.64452 2.02385 0
M  V30 10142 H 977.483 0.227466 0.920306 0
M  V30 10143 H 977.189 0.257592 3.50755 0
M  V30 10144 H 977.063 -1.4921 3.46433 0
M  V30 10145 H 979.45 -1.60162 2.47855 0
M  V30 10146 H 979.531 0.164385 2.55271 0
M  V30 10147 H 979.175 0.0523511 5.07873 0
M  V30 10148 H 979.105 -1.72479 4.97552 0
M  V30 10149 H 981.596 -0.849352 3.68231 0
M  V30 10150 H 981.909 -1.12193 7.64613 0
M  V30 10151 H 980.254 -1.01586 6.87536 0
M  V30 10152 H 983.445 -0.969814 4.57943 0
M  V30 10153 H 983.618 -1.09434 6.38693 0
M  V30 10154 N 977.024 -1.50153 -0.478725 0
M  V30 10155 C 978.301 -1.51274 -1.23999 0
M  V30 10156 C 978.681 -0.253048 -2.09578 0
M  V30 10157 O 978.029 0.763827 -2.15355 0
M  V30 10158 C 978.239 -2.80423 -2.07759 0
M  V30 10159 C 979.587 -3.30788 -2.66204 0
M  V30 10160 O 980.611 -2.81693 -2.18008 0
M  V30 10161 O 979.47 -4.1635 -3.53999 0
M  V30 10162 H 976.564 -0.606438 -0.562283 0
M  V30 10163 H 979.11 -1.62436 -0.491171 0
M  V30 10164 H 977.882 -3.63584 -1.44645 0
M  V30 10165 H 977.505 -2.72228 -2.89789 0
M  V30 10166 N 978.502 0.731368 -1.39602 0
M  V30 10167 C 979.918 1.03739 -1.21286 0
M  V30 10168 C 980.118 2.01353 -0.0769875 0
M  V30 10169 O 979.174 2.45978 0.570193 0
M  V30 10170 C 980.487 1.59621 -2.54837 0
M  V30 10171 C 982.035 1.71683 -2.61713 0
M  V30 10172 C 982.51 2.30973 -3.95494 0
M  V30 10173 N 984.001 2.38378 -3.97153 0
M  V30 10174 C 984.736 2.852 -4.97442 0
M  V30 10175 N 984.232 3.31891 -6.08129 0
M  V30 10176 N 986.025 2.84441 -4.84819 0
M  V30 10177 H 978.176 0.0840456 -2.12234 0
M  V30 10178 H 980.439 0.0999038 -0.942721 0
M  V30 10179 H 980.145 0.953608 -3.38525 0
M  V30 10180 H 980.019 2.58375 -2.74813 0
M  V30 10181 H 982.406 2.35064 -1.78406 0
M  V30 10182 H 982.487 0.715714 -2.45583 0
M  V30 10183 H 982.131 1.68219 -4.79234 0
M  V30 10184 H 982.061 3.31769 -4.08946 0
M  V30 10185 H 984.552 2.05382 -3.17217 0
M  V30 10186 H 984.865 3.66138 -6.8056 0
M  V30 10187 H 983.21 3.2989 -6.11717 0
M  V30 10188 H 986.401 2.4729 -3.97448 0
M  V30 10189 H 986.574 3.20616 -5.63124 0
M  V30 10190 N 979.98 1.24838 0.961938 0
M  V30 10191 C 981.228 1.08936 1.70227 0
M  V30 10192 C 981.549 -0.371582 1.91427 0
M  V30 10193 O 980.819 -1.26461 1.49614 0
M  V30 10194 H 979.399 0.400128 0.630799 0
M  V30 10195 H 982.061 1.56848 1.15692 0
M  V30 10196 H 981.157 1.59195 2.68446 0
M  V30 10197 N 981.458 -1.16348 1.06306 0
M  V30 10198 C 982.39 -2.20316 0.631929 0
M  V30 10199 C 983.403 -1.59819 -0.310133 0
M  V30 10200 O 984.592 -1.78213 -0.101103 0
M  V30 10201 C 981.692 -3.3877 -0.0937645 0
M  V30 10202 C 980.865 -4.28826 0.861816 0
M  V30 10203 C 979.924 -5.25908 0.175346 0
M  V30 10204 O 978.95 -5.63363 0.813039 0
M  V30 10205 N 980.152 -5.70307 -1.08305 0
M  V30 10206 H 982.917 -2.57925 1.52626 0
M  V30 10207 H 980.478 -1.31358 0.946392 0
M  V30 10208 H 982.47 -4.00759 -0.563412 0
M  V30 10209 H 981.04 -2.99666 -0.889904 0
M  V30 10210 H 980.26 -3.64098 1.51083 0
M  V30 10211 H 981.548 -4.85875 1.51007 0
M  V30 10212 H 980.946 -5.4197 -1.62127 0
M  V30 10213 H 979.503 -6.34387 -1.49656 0
M  V30 10214 N 982.937 -0.845659 -1.3299 0
M  V30 10215 C 983.869 -0.241097 -2.27928 0
M  V30 10216 C 984.882 0.582048 -1.5204 0
M  V30 10217 O 986.071 0.408008 -1.73774 0
M  V30 10218 C 983.171 0.678652 -3.32035 0
M  V30 10219 C 982.344 -0.106652 -4.3727 0
M  V30 10220 C 981.403 0.737478 -5.21006 0
M  V30 10221 O 980.429 0.174231 -5.68933 0
M  V30 10222 N 981.631 2.05372 -5.42957 0
M  V30 10223 H 984.396 -1.05685 -2.80448 0
M  V30 10224 H 981.957 -0.704771 -1.45755 0
M  V30 10225 H 983.949 1.24849 -3.84961 0
M  V30 10226 H 982.519 1.3951 -2.79742 0
M  V30 10227 H 981.739 -0.857897 -3.84752 0
M  V30 10228 H 983.027 -0.646386 -5.04677 0
M  V30 10229 H 982.425 2.53478 -5.05733 0
M  V30 10230 H 980.982 2.5719 -5.98913 0
M  V30 10231 N 984.415 1.45619 -0.602734 0
M  V30 10232 C 985.64 2.07157 -0.100429 0
M  V30 10233 C 986.065 1.44524 1.20393 0
M  V30 10234 O 985.423 0.536191 1.7319 0
M  V30 10235 C 985.471 3.60587 0.0308604 0
M  V30 10236 O 984.575 3.97944 1.08234 0
M  V30 10237 H 983.916 0.6601 -0.0718643 0
M  V30 10238 H 986.446 1.86948 -0.831366 0
M  V30 10239 H 986.456 4.07348 0.230634 0
M  V30 10240 H 985.131 4.05561 -0.921581 0
M  V30 10241 H 983.708 3.62862 0.859414 0
M  V30 10242 N 985.893 0.34162 1.53853 0
M  V30 10243 C 987.304 -0.14269 1.86154 0
M  V30 10244 C 987.655 -1.50151 1.2629 0
M  V30 10245 O 986.78 -2.08601 0.575735 0
M  V30 10246 C 987.375 -0.265691 3.37757 0
M  V30 10247 C 985.934 -0.694231 3.69942 0
M  V30 10248 C 985.081 0.173195 2.76759 0
M  V30 10249 H 988.032 0.561284 1.48443 0
M  V30 10250 H 988.053 -1.09352 3.64448 0
M  V30 10251 H 987.565 0.723424 3.81298 0
M  V30 10252 H 985.666 -1.69244 3.31945 0
M  V30 10253 H 985.779 -0.485461 4.76634 0
M  V30 10254 H 984.143 -0.35416 2.52226 0
M  V30 10255 H 984.926 1.15941 3.23129 0
M  V30 10256 N 987.371 -1.57444 0.0701946 0
M  V30 10257 C 988.301 -2.15659 -0.895176 0
M  V30 10258 C 989.282 -1.08321 -1.31151 0
M  V30 10259 O 990.467 -1.36349 -1.38284 0
M  V30 10260 C 987.597 -2.71693 -2.16334 0
M  V30 10261 C 986.551 -3.84183 -1.88645 0
M  V30 10262 C 985.877 -4.26814 -3.22078 0
M  V30 10263 C 987.177 -5.08493 -1.19299 0
M  V30 10264 H 988.871 -2.96576 -0.410217 0
M  V30 10265 H 986.417 -1.42662 -0.195872 0
M  V30 10266 H 988.37 -3.11064 -2.84284 0
M  V30 10267 H 987.094 -1.87994 -2.67069 0
M  V30 10268 H 985.753 -3.45314 -1.23101 0
M  V30 10269 H 985.401 -3.40039 -3.70651 0
M  V30 10270 H 985.101 -5.02642 -3.04344 0
M  V30 10271 H 986.625 -4.68799 -3.91228 0
M  V30 10272 H 988.039 -5.4519 -1.77316 0
M  V30 10273 H 986.436 -5.89588 -1.11828 0
M  V30 10274 H 987.506 -4.84595 -0.171839 0
M  V30 10275 N 988.849 0.203349 -1.56283 0
M  V30 10276 C 989.779 1.2549 -1.96912 0
M  V30 10277 C 990.76 1.47919 -0.839884 0
M  V30 10278 O 991.945 1.59795 -1.10359 0
M  V30 10279 C 989.075 2.6009 -2.30153 0
M  V30 10280 C 988.029 2.52289 -3.45738 0
M  V30 10281 C 987.355 3.91086 -3.64632 0
M  V30 10282 C 988.655 2.05503 -4.80173 0
M  V30 10283 H 990.349 0.917306 -2.85002 0
M  V30 10284 H 987.895 0.439818 -1.37119 0
M  V30 10285 H 989.848 3.33829 -2.5717 0
M  V30 10286 H 988.572 2.95574 -1.38937 0
M  V30 10287 H 987.231 1.81006 -3.18798 0
M  V30 10288 H 986.879 4.23908 -2.7076 0
M  V30 10289 H 986.579 3.86742 -4.42385 0
M  V30 10290 H 988.103 4.66459 -3.94016 0
M  V30 10291 H 989.517 2.68995 -5.06275 0
M  V30 10292 H 987.914 2.1218 -5.61337 0
M  V30 10293 H 988.984 1.00793 -4.74309 0
M  V30 10294 N 990.327 1.50405 0.470755 0
M  V30 10295 C 991.277 1.65681 1.56633 0
M  V30 10296 C 992.261 0.511424 1.52556 0
M  V30 10297 O 993.453 0.765844 1.59574 0
M  V30 10298 C 990.582 1.7546 2.95074 0
M  V30 10299 C 989.668 2.95676 3.04034 0
M  V30 10300 N 990.059 4.1935 2.82807 0
M  V30 10301 C 988.357 2.94241 3.35169 0
M  V30 10302 C 989.058 5.0032 2.96741 0
M  V30 10303 N 988.034 4.34282 3.26956 0
M  V30 10304 H 991.836 2.58994 1.38922 0
M  V30 10305 H 989.35 1.47593 0.67749 0
M  V30 10306 H 991.347 1.84508 3.73848 0
M  V30 10307 H 990.007 0.833057 3.13832 0
M  V30 10308 H 991.018 4.48842 2.58382 0
M  V30 10309 H 987.695 2.11587 3.59913 0
M  V30 10310 H 989.085 6.08664 2.84566 0
M  V30 10311 N 991.805 -0.723954 1.39988 0
M  V30 10312 C 993.03 -1.5182 1.41299 0
M  V30 10313 C 993.455 -1.88096 0.0122636 0
M  V30 10314 O 992.813 -1.52687 -0.977559 0
M  V30 10315 C 992.861 -2.77532 2.30235 0
M  V30 10316 O 991.965 -3.73903 1.73984 0
M  V30 10317 H 991.306 -0.458058 0.480707 0
M  V30 10318 H 993.836 -0.892291 1.84118 0
M  V30 10319 H 993.846 -3.2615 2.45132 0
M  V30 10320 H 992.521 -2.50462 3.32026 0
M  V30 10321 H 991.098 -3.32715 1.68389 0
M  V30 10322 N 993.283 -1.25346 -0.955304 0
M  V30 10323 C 994.511 -1.12793 -1.73451 0
M  V30 10324 C 994.926 0.318344 -1.86097 0
M  V30 10325 O 994.283 1.21897 -1.35821 0
M  V30 10326 C 994.334 -1.77603 -3.14864 0
M  V30 10327 O 994.055 -3.16577 -3.02837 0
M  V30 10328 C 995.556 -1.70821 -4.09066 0
M  V30 10329 H 992.776 -0.393457 -0.543537 0
M  V30 10330 H 995.32 -1.65696 -1.19855 0
M  V30 10331 H 993.475 -1.28673 -3.65407 0
M  V30 10332 H 993.889 -3.48433 -3.92039 0
M  V30 10333 H 995.363 -2.2083 -5.05903 0
M  V30 10334 H 995.84 -0.671858 -4.34031 0
M  V30 10335 H 996.446 -2.19237 -3.64438 0
M  V30 10336 N 994.761 1.15782 -1.06922 0
M  V30 10337 C 995.989 1.90355 -0.81072 0
M  V30 10338 C 996.404 1.77779 0.635614 0
M  V30 10339 O 995.761 1.12675 1.43564 0
M  V30 10340 C 995.812 3.4085 -1.2043 0
M  V30 10341 O 995.533 3.53057 -2.59388 0
M  V30 10342 C 997.034 4.32457 -0.974473 0
M  V30 10343 H 994.254 0.60343 -0.293451 0
M  V30 10344 H 996.798 1.46723 -1.42452 0
M  V30 10345 H 994.953 3.82162 -0.634909 0
M  V30 10346 H 995.367 4.46426 -2.75326 0
M  V30 10347 H 996.841 5.36488 -1.29942 0
M  V30 10348 H 997.318 4.39109 0.0894481 0
M  V30 10349 H 997.924 3.96882 -1.52856 0
M  V30 10350 N 996.239 0.8527 1.3254 0
M  V30 10351 C 997.149 0.298744 2.3269 0
M  V30 10352 C 998.165 -0.582418 1.63963 0
M  V30 10353 O 999.341 -0.483253 1.95516 0
M  V30 10354 C 996.406 -0.505453 3.42996 0
M  V30 10355 C 995.467 0.401618 4.27417 0
M  V30 10356 C 994.7 -0.364294 5.32455 0
M  V30 10357 O 994.923 -1.59448 5.47661 0
M  V30 10358 O 993.857 0.268892 6.01299 0
M  V30 10359 H 997.683 1.12843 2.81958 0
M  V30 10360 H 995.268 0.615584 1.36128 0
M  V30 10361 H 997.15 -0.961974 4.10273 0
M  V30 10362 H 995.825 -1.31197 2.95921 0
M  V30 10363 H 994.732 0.906274 3.62957 0
M  V30 10364 H 996.065 1.17327 4.78012 0
M  V30 10365 N 997.718 -1.45297 0.610449 0
M  V30 10366 C 998.964 -2.03073 0.115358 0
M  V30 10367 C 999.319 -1.47 -1.24132 0
M  V30 10368 O 998.612 -0.636326 -1.80725 0
M  V30 10369 C 998.806 -3.57394 0.0205329 0
M  V30 10370 C 998.635 -4.28436 1.36647 0
M  V30 10371 C 997.405 -4.66245 1.94791 0
M  V30 10372 C 999.603 -4.60211 2.29587 0
M  V30 10373 N 997.585 -5.22159 3.22835 0
M  V30 10374 C 998.956 -5.16989 3.42232 0
M  V30 10375 C 1001.01 -4.42152 2.28923 0
M  V30 10376 C 999.714 -5.5761 4.54382 0
M  V30 10377 C 1001.74 -4.83808 3.40123 0
M  V30 10378 C 1001.1 -5.40681 4.5149 0
M  V30 10379 H 997.201 -0.777296 0.0856485 0
M  V30 10380 H 999.785 -1.77077 0.809426 0
M  V30 10381 H 997.956 -3.83045 -0.642763 0
M  V30 10382 H 999.688 -4.01826 -0.481481 0
M  V30 10383 H 996.443 -4.49893 1.47965 0
M  V30 10384 H 996.867 -5.54613 3.88245 0
M  V30 10385 H 1001.51 -3.97493 1.44081 0
M  V30 10386 H 999.227 -6.01234 5.39947 0
M  V30 10387 H 1002.81 -4.71565 3.40761 0
M  V30 10388 H 1001.69 -5.72321 5.36114 0
M  V30 10389 N 999.196 -0.349774 -1.5367 0
M  V30 10390 C 1000.16 0.491676 -2.23864 0
M  V30 10391 C 1001.16 1.02256 -1.24098 0
M  V30 10392 O 1002.35 0.910816 -1.48492 0
M  V30 10393 C 999.481 1.68557 -2.96313 0
M  V30 10394 H 1000.67 -0.12233 -2.9965 0
M  V30 10395 H 998.227 -0.101214 -1.55972 0
M  V30 10396 H 998.962 2.3381 -2.2473 0
M  V30 10397 H 998.747 1.31203 -3.69497 0
M  V30 10398 H 1000.24 2.28225 -3.49718 0
M  V30 10399 N 1000.67 1.57404 -0.0785433 0
M  V30 10400 C 1001.92 1.94031 0.589896 0
M  V30 10401 C 1002.25 0.959297 1.68852 0
M  V30 10402 O 1001.53 -0.0103978 1.94497 0
M  V30 10403 C 1001.81 3.40886 1.16055 0
M  V30 10404 C 1001.66 4.49748 0.0681072 0
M  V30 10405 C 1002.98 3.88699 2.06401 0
M  V30 10406 H 1000.1 0.70556 0.212965 0
M  V30 10407 H 1002.74 1.89439 -0.145886 0
M  V30 10408 H 1000.89 3.4493 1.78761 0
M  V30 10409 H 1002.57 4.57823 -0.565318 0
M  V30 10410 H 1000.81 4.29625 -0.600431 0
M  V30 10411 H 1001.48 5.49658 0.507906 0
M  V30 10412 H 1003.96 3.86703 1.53622 0
M  V30 10413 H 1002.83 4.92052 2.43261 0
M  V30 10414 H 1003.09 3.2703 2.97496 0
M  V30 10415 N 1002.15 -0.195058 1.56388 0
M  V30 10416 C 1003.08 -1.24444 1.97575 0
M  V30 10417 C 1004.06 -1.47471 0.847717 0
M  V30 10418 O 1005.25 -1.59208 1.11205 0
M  V30 10419 C 1002.38 -2.58866 2.31529 0
M  V30 10420 C 1001.33 -2.50451 3.47071 0
M  V30 10421 C 1000.66 -3.89146 3.667 0
M  V30 10422 C 1001.96 -2.02953 4.81256 0
M  V30 10423 H 1003.65 -0.902178 2.85484 0
M  V30 10424 H 1001.2 -0.43254 1.3735 0
M  V30 10425 H 1003.15 -3.3246 2.58936 0
M  V30 10426 H 1001.87 -2.94833 1.40502 0
M  V30 10427 H 1000.53 -1.79313 3.19754 0
M  V30 10428 H 1000.18 -4.22466 2.73004 0
M  V30 10429 H 999.882 -3.84391 4.44429 0
M  V30 10430 H 1001.41 -4.64363 3.96484 0
M  V30 10431 H 1002.82 -2.66306 5.07695 0
M  V30 10432 H 1001.22 -2.092 5.62455 0
M  V30 10433 H 1002.29 -0.982757 4.74837 0
M  V30 10434 N 1003.63 -1.50653 -0.462772 0
M  V30 10435 C 1005.04 -1.54821 -1.04342 0
M  V30 10436 C 1005.39 -0.356595 -1.92932 0
M  V30 10437 O 1004.52 0.529579 -2.0982 0
M  V30 10438 C 1005.11 -2.80571 -1.89909 0
M  V30 10439 C 1003.67 -2.87394 -2.43067 0
M  V30 10440 C 1002.82 -2.49206 -1.21621 0
M  V30 10441 H 1005.77 -1.56797 -0.245048 0
M  V30 10442 H 1005.79 -2.62897 -2.75074 0
M  V30 10443 H 1005.3 -3.67281 -1.25405 0
M  V30 10444 H 1003.4 -2.05055 -3.111 0
M  V30 10445 H 1003.52 -3.90477 -2.77605 0
M  V30 10446 H 1001.88 -2.01829 -1.55361 0
M  V30 10447 H 1002.66 -3.38233 -0.587669 0
M  V30 10448 N 1005.11 0.71652 -1.4037 0
M  V30 10449 C 1006.35 1.48883 -1.40047 0
M  V30 10450 C 1006.71 1.92 -0.00158027 0
M  V30 10451 O 1007.91 2.68501 0.126765 0
M  V30 10452 C 1006.18 2.68265 -2.36154 0
M  V30 10453 S 1007.74 3.57684 -2.5418 0
M  V30 10454 H 1004.56 0.509035 -0.496391 0
M  V30 10455 H 1007.16 0.837967 -1.76631 0
M  V30 10456 H 1005.87 2.34759 -3.36625 0
M  V30 10457 H 1005.4 3.38264 -2.0085 0
M  V30 10458 H 1007.41 4.62653 -1.79352 0
M  V30 10459 N 1006.59 1.25851 0.948643 0
M  V30 10460 C 1007.81 1.13813 1.73382 0
M  V30 10461 C 1008.24 -0.303615 1.85633 0
M  V30 10462 O 1007.59 -1.21997 1.34114 0
M  V30 10463 C 1007.64 1.80388 3.12238 0
M  V30 10464 O 1006.75 1.08759 3.978 0
M  V30 10465 H 1006.09 0.397006 0.532243 0
M  V30 10466 H 1008.62 1.66529 1.18866 0
M  V30 10467 H 1008.63 1.86913 3.62667 0
M  V30 10468 H 1007.3 2.85278 3.02637 0
M  V30 10469 H 1005.88 1.10157 3.56258 0
M  V30 10470 N 1008.06 -1.15214 1.07534 0
M  V30 10471 C 1009.31 -1.86043 0.799629 0
M  V30 10472 C 1009.64 -1.82435 -0.674356 0
M  V30 10473 O 1008.89 -1.24379 -1.51091 0
M  V30 10474 C 1009.19 -3.34623 1.25547 0
M  V30 10475 C 1008.86 -3.58425 2.73573 0
M  V30 10476 C 1007.52 -3.6463 3.14004 0
M  V30 10477 C 1009.87 -3.67977 3.6911 0
M  V30 10478 C 1007.2 -3.779 4.48786 0
M  V30 10479 C 1009.55 -3.82771 5.03656 0
M  V30 10480 C 1008.22 -3.87222 5.43705 0
M  V30 10481 H 1007.49 -0.680781 0.292605 0
M  V30 10482 H 1010.13 -1.36149 1.34669 0
M  V30 10483 H 1008.44 -3.86737 0.627828 0
M  V30 10484 H 1010.14 -3.87836 1.01901 0
M  V30 10485 H 1006.73 -3.54238 2.41275 0
M  V30 10486 H 1010.91 -3.62482 3.39 0
M  V30 10487 H 1006.17 -3.79604 4.79281 0
M  V30 10488 H 1010.34 -3.89104 5.77556 0
M  V30 10489 H 1007.97 -3.97256 6.48145 0
M  V30 10490 N 1009.54 -0.859717 -1.32086 0
M  V30 10491 C 1010.77 -0.478865 -2.01796 0
M  V30 10492 C 1011.19 0.918274 -1.64163 0
M  V30 10493 O 1010.55 1.60409 -0.844896 0
M  V30 10494 C 1010.6 -0.631356 -3.5503 0
M  V30 10495 O 1009.7 0.333712 -4.11048 0
M  V30 10496 H 1009.04 -0.191775 -0.635703 0
M  V30 10497 H 1011.57 -1.16031 -1.68517 0
M  V30 10498 H 1011.58 -0.520783 -4.04663 0
M  V30 10499 H 1010.26 -1.65015 -3.81763 0
M  V30 10500 H 1008.84 0.178953 -3.7247 0
M  V30 10501 N 1011.02 1.44971 -0.618145 0
M  V30 10502 C 1012.3 1.95539 -0.0489895 0
M  V30 10503 C 1012.68 1.5604 1.42179 0
M  V30 10504 O 1012.03 0.82809 2.12967 0
M  V30 10505 C 1012.24 3.48044 -0.258193 0
M  V30 10506 C 1013.58 4.24354 -0.144541 0
M  V30 10507 O 1014.61 3.55699 -0.18887 0
M  V30 10508 O 1013.47 5.46486 -0.038519 0
M  V30 10509 H 1010.56 0.826466 0.0297256 0
M  V30 10510 H 1013.11 1.55086 -0.688944 0
M  V30 10511 H 1011.88 3.69798 -1.27926 0
M  V30 10512 H 1011.5 3.95412 0.416522 0
M  V30 10513 N 1012.5 0.357919 1.53482 0
M  V30 10514 C 1013.43 -0.484231 2.28424 0
M  V30 10515 C 1014.41 -1.09046 1.30548 0
M  V30 10516 O 1015.59 -1.10916 1.59409 0
M  V30 10517 C 1012.72 -1.62803 3.06778 0
M  V30 10518 C 1011.68 -1.14943 4.12277 0
M  V30 10519 C 1011 -2.38287 4.78669 0
M  V30 10520 C 1012.3 -0.239627 5.2175 0
M  V30 10521 H 1014 0.140979 2.99068 0
M  V30 10522 H 1011.54 0.069244 1.43833 0
M  V30 10523 H 1013.5 -2.22374 3.57949 0
M  V30 10524 H 1012.22 -2.28036 2.3381 0
M  V30 10525 H 1010.88 -0.576442 3.6204 0
M  V30 10526 H 1010.53 -3.01959 4.02281 0
M  V30 10527 H 1010.23 -2.06939 5.49955 0
M  V30 10528 H 1011.75 -2.98558 5.32631 0
M  V30 10529 H 1013.17 -0.742597 5.6847 0
M  V30 10530 H 1011.56 -0.0173747 6.00097 0
M  V30 10531 H 1012.63 0.720333 4.7952 0
M  V30 10532 N 1013.98 -1.5736 0.0868897 0
M  V30 10533 C 1015.39 -1.81356 -0.443499 0
M  V30 10534 C 1015.74 -1.00192 -1.68689 0
M  V30 10535 O 1014.86 -0.228863 -2.15186 0
M  V30 10536 C 1015.46 -3.28941 -0.811387 0
M  V30 10537 C 1014.02 -3.53729 -1.28656 0
M  V30 10538 C 1013.16 -2.75891 -0.279153 0
M  V30 10539 H 1016.12 -1.55594 0.312427 0
M  V30 10540 H 1016.14 -3.41815 -1.6716 0
M  V30 10541 H 1015.65 -3.87987 0.0937598 0
M  V30 10542 H 1013.75 -3.00005 -2.2097 0
M  V30 10543 H 1013.86 -4.62396 -1.25406 0
M  V30 10544 H 1012.23 -2.4311 -0.759595 0
M  V30 10545 H 1013.01 -3.37682 0.618529 0
M  V30 10546 N 1015.45 0.186762 -1.56489 0
M  V30 10547 C 1016.42 1.21511 -1.94339 0
M  V30 10548 C 1017.42 1.38001 -0.82537 0
M  V30 10549 O 1018.61 1.3567 -1.09266 0
M  V30 10550 C 1015.74 2.583 -2.22472 0
M  V30 10551 H 1016.93 0.891371 -2.86347 0
M  V30 10552 H 1014.49 0.428612 -1.50308 0
M  V30 10553 H 1015.22 2.95715 -1.33129 0
M  V30 10554 H 1015.01 2.47701 -3.03951 0
M  V30 10555 H 1016.5 3.32441 -2.5273 0
M  V30 10556 N 1016.93 1.50896 0.454776 0
M  V30 10557 C 1017.86 1.73885 1.5584 0
M  V30 10558 C 1018.84 0.588172 1.59607 0
M  V30 10559 O 1020.03 0.829054 1.75614 0
M  V30 10560 C 1017.16 1.84796 2.94054 0
M  V30 10561 C 1016.11 3.00111 3.05152 0
M  V30 10562 C 1015.44 2.96183 4.45174 0
M  V30 10563 C 1016.74 4.40365 2.80849 0
M  V30 10564 H 1018.43 2.66292 1.36854 0
M  V30 10565 H 1015.98 1.28142 0.656936 0
M  V30 10566 H 1017.93 1.99462 3.71204 0
M  V30 10567 H 1016.66 0.890235 3.14233 0
M  V30 10568 H 1015.31 2.85121 2.30438 0
M  V30 10569 H 1014.96 1.98224 4.62295 0
M  V30 10570 H 1014.66 3.73608 4.53532 0
M  V30 10571 H 1016.19 3.1292 5.24322 0
M  V30 10572 H 1017.6 4.55795 3.47741 0
M  V30 10573 H 1016 5.19363 3.00636 0
M  V30 10574 H 1017.07 4.51606 1.76579 0
M  V30 10575 N 1018.41 -0.709066 1.40748 0
M  V30 10576 C 1019.64 -1.50313 1.42901 0
M  V30 10577 C 1020.06 -1.88072 0.032213 0
M  V30 10578 O 1019.42 -1.53716 -0.96131 0
M  V30 10579 C 1019.47 -2.75074 2.33166 0
M  V30 10580 O 1018.57 -3.72036 1.7794 0
M  V30 10581 H 1017.91 -0.452934 0.485538 0
M  V30 10582 H 1020.44 -0.872712 1.85054 0
M  V30 10583 H 1020.45 -3.23532 2.48578 0
M  V30 10584 H 1019.13 -2.46927 3.34664 0
M  V30 10585 H 1017.7 -3.30911 1.71908 0
M  V30 10586 N 1019.89 -1.26353 -0.941956 0
M  V30 10587 C 1021.12 -1.14626 -1.72245 0
M  V30 10588 C 1021.53 0.298588 -1.86424 0
M  V30 10589 O 1020.89 1.2045 -1.37106 0
M  V30 10590 C 1020.94 -1.80933 -3.12963 0
M  V30 10591 O 1020.66 -3.19771 -2.99463 0
M  V30 10592 C 1022.16 -1.7515 -4.07231 0
M  V30 10593 H 1019.38 -0.3992 -0.539333 0
M  V30 10594 H 1021.93 -1.66958 -1.1809 0
M  V30 10595 H 1020.08 -1.32541 -3.64021 0
M  V30 10596 H 1020.5 -3.52571 -3.88322 0
M  V30 10597 H 1021.97 -2.26183 -5.03533 0
M  V30 10598 H 1022.45 -0.717855 -4.33294 0
M  V30 10599 H 1023.05 -2.2309 -3.62093 0
M  V30 10600 N 1021.37 1.14642 -1.08144 0
M  V30 10601 C 1022.62 1.8525 -0.807885 0
M  V30 10602 C 1022.94 1.83194 0.668213 0
M  V30 10603 O 1022.21 1.27848 1.48431 0
M  V30 10604 H 1020.79 0.685909 -0.295868 0
M  V30 10605 H 1023.45 1.38935 -1.36686 0
M  V30 10606 H 1022.54 2.90155 -1.14964 0
M  V30 10607 N 1022.85 0.866709 1.31628 0
M  V30 10608 C 1023.78 0.335762 2.31073 0
M  V30 10609 C 1024.76 -0.571597 1.60209 0
M  V30 10610 O 1025.94 -0.489306 1.87935 0
M  V30 10611 C 1023.07 -0.466416 3.44154 0
M  V30 10612 C 1022.03 0.347561 4.26586 0
M  V30 10613 C 1021.35 -0.5801 5.31544 0
M  V30 10614 C 1022.65 1.57986 4.97833 0
M  V30 10615 H 1024.35 1.16673 2.75731 0
M  V30 10616 H 1021.89 0.56248 1.3256 0
M  V30 10617 H 1023.84 -0.84836 4.12772 0
M  V30 10618 H 1022.57 -1.33086 2.98254 0
M  V30 10619 H 1021.23 0.71141 3.59631 0
M  V30 10620 H 1020.88 -1.44174 4.81895 0
M  V30 10621 H 1020.58 -0.0393965 5.87587 0
M  V30 10622 H 1022.1 -0.958958 6.03023 0
M  V30 10623 H 1023.51 1.26954 5.59067 0
M  V30 10624 H 1021.91 2.05939 5.63657 0
M  V30 10625 H 1022.98 2.3345 4.25005 0
M  V30 10626 N 1024.32 -1.44642 0.625825 0
M  V30 10627 C 1025.25 -2.33397 -0.0692188 0
M  V30 10628 C 1026.23 -1.47898 -0.840241 0
M  V30 10629 O 1027.42 -1.7663 -0.807176 0
M  V30 10630 C 1024.55 -3.30888 -1.055 0
M  V30 10631 C 1023.5 -4.26164 -0.395968 0
M  V30 10632 C 1022.83 -5.13483 -1.49128 0
M  V30 10633 C 1024.13 -5.17663 0.694433 0
M  V30 10634 H 1025.82 -2.91763 0.671925 0
M  V30 10635 H 1023.37 -1.40294 0.324573 0
M  V30 10636 H 1025.32 -3.91861 -1.54993 0
M  V30 10637 H 1024.05 -2.7072 -1.82696 0
M  V30 10638 H 1022.71 -3.66516 0.0782691 0
M  V30 10639 H 1022.35 -4.49672 -2.25399 0
M  V30 10640 H 1022.05 -5.78038 -1.05573 0
M  V30 10641 H 1023.58 -5.77327 -1.98813 0
M  V30 10642 H 1024.99 -5.72602 0.282818 0
M  V30 10643 H 1023.39 -5.90793 1.05281 0
M  V30 10644 H 1024.46 -4.58994 1.56372 0
M  V30 10645 N 1025.8 -0.366053 -1.5329 0
M  V30 10646 C 1026.75 0.496656 -2.22525 0
M  V30 10647 C 1027.74 1.0483 -1.22063 0
M  V30 10648 O 1028.93 0.978266 -1.47509 0
M  V30 10649 C 1026.06 1.63559 -3.01833 0
M  V30 10650 C 1025.14 1.0968 -4.09672 0
M  V30 10651 N 1025.53 0.28104 -5.05019 0
M  V30 10652 C 1023.83 1.37157 -4.24387 0
M  V30 10653 C 1024.53 -0.0140071 -5.81698 0
M  V30 10654 N 1023.51 0.583743 -5.40457 0
M  V30 10655 H 1027.31 -0.133408 -2.93597 0
M  V30 10656 H 1024.82 -0.174095 -1.61464 0
M  V30 10657 H 1026.82 2.26582 -3.49952 0
M  V30 10658 H 1025.48 2.26871 -2.32292 0
M  V30 10659 H 1026.49 -0.0797947 -5.17839 0
M  V30 10660 H 1023.17 2.00743 -3.66072 0
M  V30 10661 H 1024.56 -0.673508 -6.68516 0
M  V30 10662 N 1027.28 1.57312 -0.0952337 0
M  V30 10663 C 1028.21 2.17056 0.860753 0
M  V30 10664 C 1029.19 1.10394 1.29411 0
M  V30 10665 O 1030.38 1.38532 1.36098 0
M  V30 10666 C 1027.51 2.751 2.11984 0
M  V30 10667 C 1026.46 3.87136 1.8251 0
M  V30 10668 C 1025.79 4.31883 3.15247 0
M  V30 10669 C 1027.09 5.10326 1.11194 0
M  V30 10670 H 1028.78 2.97192 0.362983 0
M  V30 10671 H 1026.33 1.42955 0.173151 0
M  V30 10672 H 1028.28 3.15547 2.79299 0
M  V30 10673 H 1027 1.92219 2.64044 0
M  V30 10674 H 1025.66 3.47229 1.17592 0
M  V30 10675 H 1025.31 3.45893 3.65195 0
M  V30 10676 H 1025.01 5.0742 2.96309 0
M  V30 10677 H 1026.53 4.74964 3.83721 0
M  V30 10678 H 1027.95 5.47942 1.6862 0
M  V30 10679 H 1026.34 5.91293 1.02435 0
M  V30 10680 H 1027.41 4.84807 0.0947227 0
M  V30 10681 N 1028.76 -0.17846 1.56586 0
M  V30 10682 C 1029.71 -1.22552 1.92263 0
M  V30 10683 C 1030.69 -1.40163 0.790131 0
M  V30 10684 O 1031.88 -1.42254 1.05322 0
M  V30 10685 C 1029.01 -2.5666 2.27993 0
M  V30 10686 C 1028.1 -2.42772 3.47739 0
M  V30 10687 N 1028.49 -1.98588 4.65185 0
M  V30 10688 C 1026.79 -2.73619 3.52205 0
M  V30 10689 C 1027.49 -1.96991 5.47329 0
M  V30 10690 N 1026.46 -2.39126 4.8818 0
M  V30 10691 H 1030.27 -0.875493 2.80557 0
M  V30 10692 H 1027.78 -0.386785 1.57727 0
M  V30 10693 H 1029.78 -3.32312 2.51743 0
M  V30 10694 H 1028.44 -2.92472 1.41034 0
M  V30 10695 H 1029.45 -1.69036 4.89538 0
M  V30 10696 H 1026.13 -3.13516 2.75706 0
M  V30 10697 H 1027.52 -1.64589 6.51429 0
M  V30 10698 N 1030.24 -1.51135 -0.446768 0
M  V30 10699 C 1031.17 -1.67949 -1.55967 0
M  V30 10700 C 1032.18 -0.560337 -1.52853 0
M  V30 10701 O 1033.37 -0.83435 -1.578 0
M  V30 10702 C 1030.47 -1.6703 -2.9488 0
M  V30 10703 C 1029.64 -2.95377 -3.22601 0
M  V30 10704 C 1028.7 -2.86772 -4.4119 0
M  V30 10705 O 1027.73 -3.60722 -4.40304 0
M  V30 10706 N 1028.93 -2.01979 -5.44228 0
M  V30 10707 H 1031.69 -2.63951 -1.41951 0
M  V30 10708 H 1029.26 -1.48903 -0.635569 0
M  V30 10709 H 1031.25 -1.58854 -3.7222 0
M  V30 10710 H 1029.82 -0.786623 -3.02541 0
M  V30 10711 H 1029.04 -3.17494 -2.33647 0
M  V30 10712 H 1030.33 -3.80356 -3.37945 0
M  V30 10713 H 1029.72 -1.41257 -5.4778 0
M  V30 10714 H 1028.28 -1.99689 -6.20457 0
M  V30 10715 N 1031.71 0.701592 -1.41122 0
M  V30 10716 C 1032.66 1.83691 -1.4269 0
M  V30 10717 C 1033.66 1.6662 -0.305658 0
M  V30 10718 O 1034.86 1.73554 -0.477392 0
M  V30 10719 H 1031.24 0.605222 -0.44633 0
M  V30 10720 H 1033.21 1.79485 -2.38386 0
M  V30 10721 C 1031.96 3.21666 -1.32008 0
M  V30 10722 H 1031.28 3.35416 -2.17569 0
M  V30 10723 H 1032.72 4.012 -1.37165 0
M  V30 10724 C 1031.18 3.36885 -0.0317678 0
M  V30 10725 O 1031.71 3.90885 0.925836 0
M  V30 10726 N 1029.91 2.90569 0.0423401 0
M  V30 10727 H 1029.46 2.46812 -0.737673 0
M  V30 10728 H 1029.42 3.0113 0.903764 0
M  V30 10729 N 1033.19 1.2685 0.935242 0
M  V30 10730 C 1034.44 1.12132 1.67658 0
M  V30 10731 C 1034.75 -0.333839 1.9273 0
M  V30 10732 O 1035.96 -0.601801 2.64746 0
M  V30 10733 C 1034.42 1.95873 3.0193 0
M  V30 10734 C 1034.02 3.46 2.84584 0
M  V30 10735 C 1035.77 1.89781 3.79715 0
M  V30 10736 C 1033.67 4.21966 4.14365 0
M  V30 10737 H 1032.6 0.416035 0.628833 0
M  V30 10738 H 1035.26 1.51209 1.03962 0
M  V30 10739 H 1033.64 1.49633 3.66641 0
M  V30 10740 H 1034.81 4.00049 2.28687 0
M  V30 10741 H 1033.13 3.53391 2.20236 0
M  V30 10742 H 1035.72 2.43819 4.75875 0
M  V30 10743 H 1036.07 0.869797 4.07112 0
M  V30 10744 H 1036.6 2.33875 3.21788 0
M  V30 10745 H 1033.34 5.2526 3.9215 0
M  V30 10746 H 1032.86 3.72696 4.69955 0
M  V30 10747 H 1034.54 4.30734 4.82781 0
M  V30 10748 N 1034.67 -1.14067 1.0875 0
M  V30 10749 C 1035.92 -1.85459 0.82053 0
M  V30 10750 C 1036.25 -1.82923 -0.65213 0
M  V30 10751 O 1035.52 -1.26241 -1.47965 0
M  V30 10752 C 1035.81 -3.33937 1.34752 0
M  V30 10753 C 1035.66 -3.45026 2.88578 0
M  V30 10754 C 1036.98 -4.2915 0.975636 0
M  V30 10755 H 1034.1 -0.673384 0.299538 0
M  V30 10756 H 1036.74 -1.33927 1.34772 0
M  V30 10757 H 1034.89 -3.77953 0.899086 0
M  V30 10758 H 1036.56 -3.09771 3.41818 0
M  V30 10759 H 1034.81 -2.86124 3.26061 0
M  V30 10760 H 1035.48 -4.49408 3.20526 0
M  V30 10761 H 1037.95 -3.93168 1.36228 0
M  V30 10762 H 1036.83 -5.31489 1.37152 0
M  V30 10763 H 1037.09 -4.41945 -0.116956 0
M  V30 10764 N 1036.15 -0.873678 -1.31166 0
M  V30 10765 C 1037.43 -0.40698 -1.91319 0
M  V30 10766 C 1037.81 1.1113 -1.79481 0
M  V30 10767 O 1037.15 1.94155 -1.20483 0
M  V30 10768 C 1037.36 -0.892484 -3.37396 0
M  V30 10769 C 1038.71 -0.920795 -4.14496 0
M  V30 10770 O 1039.74 -0.838386 -3.46193 0
M  V30 10771 O 1038.59 -1.04069 -5.365 0
M  V30 10772 H 1035.69 -0.122439 -0.817886 0
M  V30 10773 H 1038.23 -0.961835 -1.3981 0
M  V30 10774 H 1037.01 -1.93613 -3.40044 0
M  V30 10775 H 1036.63 -0.31615 -3.96341 0
M  V30 10776 N 1037.63 1.44308 -0.633487 0
M  V30 10777 C 1038.87 2.02322 -0.139123 0
M  V30 10778 C 1039.21 1.49733 1.23667 0
M  V30 10779 O 1038.48 0.682353 1.82138 0
M  V30 10780 C 1038.76 3.59871 -0.128366 0
M  V30 10781 C 1038.62 4.22737 -1.53667 0
M  V30 10782 C 1039.94 4.36702 0.545834 0
M  V30 10783 H 1037.05 0.735161 -0.0520293 0
M  V30 10784 H 1039.7 1.7185 -0.810411 0
M  V30 10785 H 1037.85 3.85963 0.443263 0
M  V30 10786 H 1039.52 4.07744 -2.15737 0
M  V30 10787 H 1037.76 3.80142 -2.08985 0
M  V30 10788 H 1038.43 5.31757 -1.48116 0
M  V30 10789 H 1040.91 4.16057 0.0596879 0
M  V30 10790 H 1039.78 5.46407 0.522557 0
M  V30 10791 H 1040.05 4.11483 1.6166 0
M  V30 10792 N 1039.1 0.374177 1.53094 0
M  V30 10793 C 1040.04 -0.503065 2.23611 0
M  V30 10794 C 1041.05 -1.03915 1.25321 0
M  V30 10795 O 1042.24 -0.944064 1.51492 0
M  V30 10796 C 1039.34 -1.70825 2.92698 0
M  V30 10797 C 1038.51 -1.30217 4.17567 0
M  V30 10798 C 1037.57 -2.37036 4.69788 0
M  V30 10799 O 1036.6 -1.99069 5.33254 0
M  V30 10800 N 1037.8 -3.68743 4.4834 0
M  V30 10801 H 1040.56 0.101013 2.9953 0
M  V30 10802 H 1038.12 0.199778 1.60663 0
M  V30 10803 H 1040.12 -2.41779 3.24538 0
M  V30 10804 H 1038.69 -2.219 2.2018 0
M  V30 10805 H 1037.91 -0.422121 3.91933 0
M  V30 10806 H 1039.19 -1.00728 4.9873 0
M  V30 10807 H 1038.59 -4.0236 3.97647 0
M  V30 10808 H 1037.15 -4.35776 4.84709 0
M  V30 10809 N 1040.58 -1.57259 0.103575 0
M  V30 10810 C 1041.81 -1.98711 -0.565454 0
M  V30 10811 C 1042.22 -0.981759 -1.61735 0
M  V30 10812 O 1041.56 0.0357019 -1.83665 0
M  V30 10813 C 1041.63 -3.36552 -1.26384 0
M  V30 10814 C 1041.29 -4.55566 -0.361714 0
M  V30 10815 C 1042.29 -5.18408 0.393539 0
M  V30 10816 C 1039.97 -5.01534 -0.277292 0
M  V30 10817 C 1041.97 -6.25594 1.2211 0
M  V30 10818 C 1039.65 -6.08584 0.553919 0
M  V30 10819 C 1040.65 -6.7048 1.30176 0
M  V30 10820 O 1040.34 -7.75464 2.1192 0
M  V30 10821 H 1040.07 -0.657853 -0.155582 0
M  V30 10822 H 1042.62 -2.04591 0.182089 0
M  V30 10823 H 1040.85 -3.2738 -2.05813 0
M  V30 10824 H 1042.54 -3.62395 -1.82824 0
M  V30 10825 H 1043.31 -4.8382 0.338098 0
M  V30 10826 H 1039.19 -4.53114 -0.849047 0
M  V30 10827 H 1042.73 -6.73836 1.80531 0
M  V30 10828 H 1038.63 -6.42604 0.610809 0
M  V30 10829 H 1039.4 -7.92491 2.04694 0
M  V30 10830 N 1042.06 0.170153 -1.56679 0
M  V30 10831 C 1042.99 1.21285 -1.9953 0
M  V30 10832 C 1043.97 1.46104 -0.871071 0
M  V30 10833 O 1045.16 1.57419 -1.13724 0
M  V30 10834 C 1042.29 2.5515 -2.35618 0
M  V30 10835 C 1041.24 2.44898 -3.51011 0
M  V30 10836 C 1040.57 3.83263 -3.72845 0
M  V30 10837 C 1041.87 1.95271 -4.84424 0
M  V30 10838 H 1043.56 0.856646 -2.86883 0
M  V30 10839 H 1041.11 0.410634 -1.38021 0
M  V30 10840 H 1043.06 3.28299 -2.64193 0
M  V30 10841 H 1041.78 2.92561 -1.45175 0
M  V30 10842 H 1040.44 1.74203 -3.22566 0
M  V30 10843 H 1040.09 4.18069 -2.79691 0
M  V30 10844 H 1039.79 3.77272 -4.50488 0
M  V30 10845 H 1041.31 4.57996 -4.03822 0
M  V30 10846 H 1042.73 2.58195 -5.11867 0
M  V30 10847 H 1041.13 2.00225 -5.65712 0
M  V30 10848 H 1042.2 0.90709 -4.7634 0
M  V30 10849 N 1043.54 1.5137 0.438746 0
M  V30 10850 C 1044.77 1.6753 1.20901 0
M  V30 10851 C 1045.18 0.371573 1.85515 0
M  V30 10852 O 1044.52 -0.659701 1.71446 0
M  V30 10853 C 1044.58 2.73305 2.33548 0
M  V30 10854 C 1044.25 4.15944 1.89313 0
M  V30 10855 C 1045.24 5.00769 1.39736 0
M  V30 10856 C 1042.93 4.62036 1.97047 0
M  V30 10857 C 1044.92 6.29747 0.984773 0
M  V30 10858 C 1042.61 5.91011 1.554 0
M  V30 10859 C 1043.61 6.74693 1.06197 0
M  V30 10860 O 1043.29 8.01256 0.651407 0
M  V30 10861 H 1043.03 0.565404 0.370532 0
M  V30 10862 H 1045.58 1.98543 0.526296 0
M  V30 10863 H 1043.81 2.37604 3.05092 0
M  V30 10864 H 1045.5 2.78359 2.95417 0
M  V30 10865 H 1046.27 4.66363 1.33156 0
M  V30 10866 H 1042.14 3.97025 2.34291 0
M  V30 10867 H 1045.69 6.95015 0.600029 0
M  V30 10868 H 1041.59 6.24932 1.6165 0
M  V30 10869 H 1042.35 8.148 0.777382 0
M  V30 10870 N 1045.02 -0.694098 1.41492 0
M  V30 10871 C 1046.26 -1.45127 1.4065 0
M  V30 10872 C 1046.59 -1.94993 0.0170289 0
M  V30 10873 O 1045.86 -1.71799 -0.941372 0
M  V30 10874 H 1044.44 -0.538493 0.51772 0
M  V30 10875 H 1047.1 -0.821441 1.76744 0
M  V30 10876 H 1046.19 -2.31372 2.0946 0
M  V30 10877 N 1046.49 -1.27344 -0.928501 0
M  V30 10878 C 1047.42 -1.12517 -2.04602 0
M  V30 10879 C 1048.41 -0.0268563 -1.70079 0
M  V30 10880 O 1049.59 -0.201197 -1.93155 0
M  V30 10881 C 1046.72 -0.770749 -3.3864 0
M  V30 10882 C 1045.67 -1.8222 -3.87272 0
M  V30 10883 C 1045 -1.32178 -5.18105 0
M  V30 10884 C 1046.3 -3.22614 -4.10752 0
M  V30 10885 H 1047.99 -2.06 -2.17265 0
M  V30 10886 H 1045.54 -0.991827 -1.04397 0
M  V30 10887 H 1047.49 -0.653843 -4.16297 0
M  V30 10888 H 1046.22 0.19979 -3.25988 0
M  V30 10889 H 1044.88 -1.928 -3.11807 0
M  V30 10890 H 1044.52 -0.340719 -5.01845 0
M  V30 10891 H 1044.22 -2.02474 -5.51614 0
M  V30 10892 H 1045.75 -1.2178 -5.98333 0
M  V30 10893 H 1047.16 -3.1504 -4.78981 0
M  V30 10894 H 1045.56 -3.90614 -4.55566 0
M  V30 10895 H 1046.63 -3.67727 -3.16077 0
M  V30 10896 N 1047.97 1.13488 -1.09353 0
M  V30 10897 C 1049.2 1.89133 -0.85108 0
M  V30 10898 C 1049.62 1.78542 0.591976 0
M  V30 10899 O 1048.98 1.13243 1.41583 0
M  V30 10900 C 1049.03 3.36736 -1.29001 0
M  V30 10901 O 1048.13 4.09959 -0.447993 0
M  V30 10902 H 1047.47 0.58809 -0.308296 0
M  V30 10903 H 1050 1.43593 -1.45747 0
M  V30 10904 H 1050.01 3.87564 -1.27508 0
M  V30 10905 H 1048.69 3.43762 -2.34095 0
M  V30 10906 H 1047.27 3.69155 -0.52717 0
M  V30 10907 N 1049.45 0.880621 1.30701 0
M  V30 10908 C 1050.86 0.547993 1.78477 0
M  V30 10909 C 1051.21 -0.935633 1.72454 0
M  V30 10910 O 1050.34 -1.73094 1.29874 0
M  V30 10911 C 1050.93 0.98795 3.24076 0
M  V30 10912 C 1049.49 0.706805 3.69704 0
M  V30 10913 C 1048.64 1.17335 2.51252 0
M  V30 10914 H 1051.59 1.06528 1.17633 0
M  V30 10915 H 1051.61 0.31508 3.79193 0
M  V30 10916 H 1051.12 2.06778 3.28427 0
M  V30 10917 H 1049.22 -0.36122 3.70845 0
M  V30 10918 H 1049.34 1.2913 4.6137 0
M  V30 10919 H 1047.7 0.592808 2.47705 0
M  V30 10920 H 1048.48 2.26083 2.58343 0
M  V30 10921 N 1050.93 -1.4397 0.641131 0
M  V30 10922 C 1051.89 -2.29149 -0.0482243 0
M  V30 10923 C 1052.89 -1.41572 -0.762495 0
M  V30 10924 O 1054.08 -1.63335 -0.605571 0
M  V30 10925 C 1051.21 -3.23375 -1.07896 0
M  V30 10926 H 1052.41 -2.9159 0.70109 0
M  V30 10927 H 1049.96 -1.51048 0.401754 0
M  V30 10928 H 1050.7 -2.65804 -1.85792 0
M  V30 10929 H 1050.48 -3.87926 -0.570597 0
M  V30 10930 H 1051.97 -3.87337 -1.56075 0
M  V30 10931 N 1052.41 -0.382291 -1.52893 0
M  V30 10932 C 1053.34 0.447829 -2.29165 0
M  V30 10933 C 1054.32 1.06956 -1.32267 0
M  V30 10934 O 1055.5 1.08365 -1.61154 0
M  V30 10935 C 1052.63 1.57902 -3.09329 0
M  V30 10936 C 1051.59 1.08369 -4.14053 0
M  V30 10937 C 1050.91 2.30641 -4.82399 0
M  V30 10938 C 1052.21 0.156591 -5.22065 0
M  V30 10939 H 1053.91 -0.188541 -2.98806 0
M  V30 10940 H 1051.45 -0.0921179 -1.43705 0
M  V30 10941 H 1053.41 2.16652 -3.61442 0
M  V30 10942 H 1052.13 2.24287 -2.37409 0
M  V30 10943 H 1050.79 0.518772 -3.62911 0
M  V30 10944 H 1050.44 2.9552 -4.07034 0
M  V30 10945 H 1050.14 1.98163 -5.53177 0
M  V30 10946 H 1051.66 2.90047 -5.37313 0
M  V30 10947 H 1053.08 0.652065 -5.6958 0
M  V30 10948 H 1051.47 -0.0780978 -6.00049 0
M  V30 10949 H 1052.54 -0.796529 -4.78313 0
M  V30 10950 N 1053.89 1.57202 -0.111913 0
M  V30 10951 C 1055.11 1.99297 0.555713 0
M  V30 10952 C 1055.53 0.991444 1.60673 0
M  V30 10953 O 1054.89 -0.0166672 1.82492 0
M  V30 10954 C 1054.94 3.41413 1.18826 0
M  V30 10955 O 1054.66 4.37733 0.179261 0
M  V30 10956 C 1056.16 3.98602 1.93989 0
M  V30 10957 H 1053.38 0.654543 0.147695 0
M  V30 10958 H 1055.92 2.03557 -0.196163 0
M  V30 10959 H 1054.08 3.38115 1.89096 0
M  V30 10960 H 1054.49 5.20606 0.637935 0
M  V30 10961 H 1055.97 5.00143 2.33584 0
M  V30 10962 H 1056.44 3.37349 2.81233 0
M  V30 10963 H 1057.05 4.05424 1.28497 0
M  V30 10964 N 1055.36 -0.161842 1.56767 0
M  V30 10965 C 1056.78 -0.51396 1.51098 0
M  V30 10966 C 1056.98 -1.84158 0.817815 0
M  V30 10967 O 1056.04 -2.49592 0.382133 0
M  V30 10968 C 1057.35 -0.537966 2.95849 0
M  V30 10969 C 1058.9 -0.624512 3.06706 0
M  V30 10970 C 1059.37 -0.679322 4.52934 0
M  V30 10971 N 1060.86 -0.741953 4.57219 0
M  V30 10972 C 1061.6 -0.805096 5.6772 0
M  V30 10973 N 1061.09 -0.828492 6.87828 0
M  V30 10974 N 1062.89 -0.844843 5.55715 0
M  V30 10975 H 1055.04 0.708581 2.00232 0
M  V30 10976 H 1057.3 0.25663 0.912603 0
M  V30 10977 H 1057.01 0.369052 3.49758 0
M  V30 10978 H 1056.88 -1.38113 3.51005 0
M  V30 10979 H 1059.27 -1.52195 2.52825 0
M  V30 10980 H 1059.35 0.245515 2.54619 0
M  V30 10981 H 1058.99 0.213901 5.07449 0
M  V30 10982 H 1058.92 -1.56563 5.02788 0
M  V30 10983 H 1061.41 -0.731772 3.70747 0
M  V30 10984 H 1061.73 -0.878109 7.67795 0
M  V30 10985 H 1060.07 -0.796612 6.9042 0
M  V30 10986 H 1063.26 -0.823632 4.60797 0
M  V30 10987 H 1063.44 -0.890588 6.41851 0
M  V30 10988 N 1056.84 -1.516 -0.430713 0
M  V30 10989 C 1058.07 -1.68169 -1.20011 0
M  V30 10990 C 1058.48 -0.381406 -1.85316 0
M  V30 10991 O 1057.82 0.6506 -1.71793 0
M  V30 10992 C 1057.88 -2.7454 -2.32095 0
M  V30 10993 C 1057.55 -4.16942 -1.87104 0
M  V30 10994 C 1058.55 -5.01503 -1.37078 0
M  V30 10995 C 1056.23 -4.63075 -1.94594 0
M  V30 10996 C 1058.22 -6.3026 -0.951362 0
M  V30 10997 C 1055.91 -5.91827 -1.52264 0
M  V30 10998 C 1056.91 -6.75247 -1.02618 0
M  V30 10999 O 1056.6 -8.01591 -0.608905 0
M  V30 11000 H 1056.33 -0.567361 -0.367528 0
M  V30 11001 H 1058.88 -1.98819 -0.515759 0
M  V30 11002 H 1057.11 -2.39219 -3.03828 0
M  V30 11003 H 1058.8 -2.79921 -2.93937 0
M  V30 11004 H 1059.57 -4.67063 -1.30681 0
M  V30 11005 H 1055.45 -3.98262 -2.32182 0
M  V30 11006 H 1058.99 -6.95323 -0.563163 0
M  V30 11007 H 1054.89 -6.2578 -1.58333 0
M  V30 11008 H 1055.66 -8.15201 -0.73416 0
M  V30 11009 N 1058.32 0.686584 -1.41858 0
M  V30 11010 C 1059.57 1.44235 -1.40994 0
M  V30 11011 C 1059.88 1.95583 -0.0254979 0
M  V30 11012 O 1061.09 2.71294 0.10576 0
M  V30 11013 C 1059.54 2.6086 -2.47952 0
M  V30 11014 C 1059.15 2.16259 -3.92347 0
M  V30 11015 C 1060.9 3.38441 -2.56237 0
M  V30 11016 C 1058.8 3.29896 -4.90838 0
M  V30 11017 H 1057.73 0.54181 -0.524364 0
M  V30 11018 H 1060.38 0.744486 -1.67719 0
M  V30 11019 H 1058.77 3.32957 -2.14373 0
M  V30 11020 H 1059.94 1.51392 -4.35221 0
M  V30 11021 H 1058.25 1.51648 -3.87804 0
M  V30 11022 H 1060.85 4.23052 -3.27003 0
M  V30 11023 H 1061.19 3.84238 -1.6021 0
M  V30 11024 H 1061.73 2.73406 -2.88953 0
M  V30 11025 H 1058.47 2.89104 -5.88302 0
M  V30 11026 H 1057.99 3.93584 -4.52606 0
M  V30 11027 H 1059.67 3.95541 -5.12012 0
M  V30 11028 N 1059.8 1.27835 0.921735 0
M  V30 11029 C 1061.04 1.14692 1.67253 0
M  V30 11030 C 1061.38 -0.305384 1.91784 0
M  V30 11031 O 1060.65 -1.22286 1.51249 0
M  V30 11032 C 1060.93 1.93743 3.03539 0
M  V30 11033 C 1060.79 3.46991 2.86212 0
M  V30 11034 C 1062.11 1.74658 4.03959 0
M  V30 11035 H 1059.23 0.418021 0.606983 0
M  V30 11036 H 1061.87 1.5706 1.06922 0
M  V30 11037 H 1060.02 1.57738 3.55037 0
M  V30 11038 H 1061.69 3.92858 2.41785 0
M  V30 11039 H 1059.93 3.73029 2.21432 0
M  V30 11040 H 1060.6 3.97551 3.82958 0
M  V30 11041 H 1063.08 2.06063 3.61493 0
M  V30 11042 H 1061.96 2.32353 4.97296 0
M  V30 11043 H 1062.22 0.696019 4.36587 0
M  V30 11044 N 1061.28 -1.12907 1.09954 0
M  V30 11045 C 1062.22 -2.18485 0.743848 0
M  V30 11046 C 1063.19 -1.63766 -0.277494 0
M  V30 11047 O 1064.38 -1.90146 -0.157899 0
M  V30 11048 C 1061.52 -3.44649 0.176437 0
M  V30 11049 C 1060.63 -4.13445 1.25248 0
M  V30 11050 C 1059.77 -5.27242 0.647242 0
M  V30 11051 C 1058.8 -5.87897 1.70421 0
M  V30 11052 N 1057.94 -6.93116 1.1196 0
M  V30 11053 H 1062.78 -2.48257 1.64841 0
M  V30 11054 H 1060.32 -1.21891 0.823471 0
M  V30 11055 H 1062.28 -4.16852 -0.170384 0
M  V30 11056 H 1060.91 -3.15309 -0.69137 0
M  V30 11057 H 1059.96 -3.39471 1.7165 0
M  V30 11058 H 1061.27 -4.54601 2.05279 0
M  V30 11059 H 1060.42 -6.06186 0.249579 0
M  V30 11060 H 1059.16 -4.87351 -0.184556 0
M  V30 11061 H 1058.17 -5.07643 2.11136 0
M  V30 11062 H 1059.39 -6.2986 2.53877 0
M  V30 11063 H 1057.34 -6.55271 0.309181 0
M  V30 11064 H 1057.26 -7.32843 1.85681 0
M  V30 11065 H 1058.52 -7.759 0.748326 0
M  V30 11066 N 1062.75 -0.88754 -1.30232 0
M  V30 11067 C 1064 -0.517406 -1.96709 0
M  V30 11068 C 1064.35 0.923757 -1.68774 0
M  V30 11069 O 1063.65 1.64435 -0.983443 0
M  V30 11070 C 1063.84 -0.731765 -3.49828 0
M  V30 11071 C 1063.67 -2.19221 -3.92648 0
M  V30 11072 C 1062.44 -2.83729 -4.18122 0
M  V30 11073 C 1064.64 -3.16627 -4.0528 0
M  V30 11074 N 1062.62 -4.20343 -4.4742 0
M  V30 11075 C 1063.99 -4.38322 -4.38491 0
M  V30 11076 C 1066.05 -3.12381 -3.87715 0
M  V30 11077 C 1064.75 -5.56315 -4.55967 0
M  V30 11078 C 1066.78 -4.29648 -4.06394 0
M  V30 11079 C 1066.14 -5.5011 -4.39953 0
M  V30 11080 H 1062.24 -0.238709 -0.744676 0
M  V30 11081 H 1064.82 -1.14581 -1.57414 0
M  V30 11082 H 1062.99 -0.132827 -3.88173 0
M  V30 11083 H 1064.72 -0.328276 -4.03366 0
M  V30 11084 H 1061.48 -2.34584 -4.11421 0
M  V30 11085 H 1061.9 -4.90905 -4.66199 0
M  V30 11086 H 1066.54 -2.20345 -3.60843 0
M  V30 11087 H 1064.26 -6.48853 -4.8168 0
M  V30 11088 H 1067.85 -4.27835 -3.94269 0
M  V30 11089 H 1066.73 -6.39339 -4.54109 0
M  V30 11090 N 1064.23 1.43628 -0.648757 0
M  V30 11091 C 1065.14 2.34554 0.0463037 0
M  V30 11092 C 1066.16 1.53629 0.816952 0
M  V30 11093 O 1067.33 1.86297 0.765212 0
M  V30 11094 C 1064.4 3.3185 1.00381 0
M  V30 11095 C 1063.46 4.2868 0.230589 0
M  V30 11096 C 1062.69 5.21328 1.14249 0
M  V30 11097 O 1062.92 5.18298 2.38166 0
M  V30 11098 O 1061.85 5.98726 0.617296 0
M  V30 11099 H 1065.68 2.95475 -0.702008 0
M  V30 11100 H 1063.26 1.43694 -0.408942 0
M  V30 11101 H 1065.14 3.91692 1.5542 0
M  V30 11102 H 1063.82 2.73439 1.73243 0
M  V30 11103 H 1062.73 3.72332 -0.363282 0
M  V30 11104 H 1064.06 4.90061 -0.458368 0
M  V30 11105 N 1065.71 0.390394 1.52688 0
M  V30 11106 C 1066.96 -0.184195 2.02564 0
M  V30 11107 C 1067.31 -1.44379 1.27171 0
M  V30 11108 O 1066.6 -1.88112 0.36395 0
M  V30 11109 C 1066.8 -0.50468 3.53819 0
M  V30 11110 C 1066.63 0.722304 4.43861 0
M  V30 11111 C 1065.4 1.24189 4.89801 0
M  V30 11112 C 1067.6 1.59494 4.88944 0
M  V30 11113 N 1065.58 2.42631 5.63918 0
M  V30 11114 C 1066.95 2.62577 5.61652 0
M  V30 11115 C 1069 1.61491 4.70983 0
M  V30 11116 C 1067.71 3.67544 6.18307 0
M  V30 11117 C 1069.73 2.65365 5.28522 0
M  V30 11118 C 1069.09 3.6717 6.01137 0
M  V30 11119 H 1065.19 -0.0294605 0.781445 0
M  V30 11120 H 1067.78 0.54053 1.87046 0
M  V30 11121 H 1065.95 -1.19846 3.69448 0
M  V30 11122 H 1067.68 -1.06652 3.90394 0
M  V30 11123 H 1064.44 0.802731 4.66747 0
M  V30 11124 H 1064.86 3.02564 6.05627 0
M  V30 11125 H 1069.5 0.841291 4.14345 0
M  V30 11126 H 1067.22 4.45773 6.74027 0
M  V30 11127 H 1070.81 2.67795 5.16505 0
M  V30 11128 H 1069.69 4.46228 6.44864 0
M  V30 11129 N 1067.19 -1.57141 0.120249 0
M  V30 11130 C 1068.43 -1.95527 -0.538245 0
M  V30 11131 C 1068.77 -1.00373 -1.6625 0
M  V30 11132 O 1068.04 -0.0411734 -1.94456 0
M  V30 11133 C 1068.33 -3.43843 -1.06976 0
M  V30 11134 C 1068.18 -4.49771 0.0511596 0
M  V30 11135 C 1069.5 -3.94035 -1.96022 0
M  V30 11136 H 1066.62 -0.710958 -0.194183 0
M  V30 11137 H 1069.26 -1.88986 0.196061 0
M  V30 11138 H 1067.41 -3.49548 -1.69553 0
M  V30 11139 H 1069.08 -4.56163 0.686503 0
M  V30 11140 H 1067.32 -4.27882 0.714127 0
M  V30 11141 H 1067.99 -5.50812 -0.361995 0
M  V30 11142 H 1070.47 -3.9064 -1.43315 0
M  V30 11143 H 1069.35 -4.98329 -2.3013 0
M  V30 11144 H 1069.61 -3.34803 -2.8872 0
M  V30 11145 N 1068.67 0.153526 -1.5685 0
M  V30 11146 C 1069.92 0.865628 -1.82181 0
M  V30 11147 C 1070.23 1.82629 -0.700434 0
M  V30 11148 O 1071.43 2.58206 -0.839155 0
M  V30 11149 C 1069.89 1.58993 -3.22877 0
M  V30 11150 C 1069.5 0.672006 -4.42931 0
M  V30 11151 C 1071.24 2.2892 -3.57486 0
M  V30 11152 C 1069.15 1.39755 -5.7465 0
M  V30 11153 H 1068.08 0.326993 -0.679406 0
M  V30 11154 H 1070.73 0.118403 -1.83118 0
M  V30 11155 H 1069.11 2.38255 -3.16308 0
M  V30 11156 H 1070.29 -0.0849226 -4.60722 0
M  V30 11157 H 1068.6 0.0814825 -4.1632 0
M  V30 11158 H 1071.2 2.8383 -4.5315 0
M  V30 11159 H 1071.54 3.05105 -2.83226 0
M  V30 11160 H 1072.07 1.56583 -3.65686 0
M  V30 11161 H 1068.81 0.677686 -6.51987 0
M  V30 11162 H 1068.33 2.12736 -5.60806 0
M  V30 11163 H 1070.01 1.94024 -6.17223 0
M  V30 11164 N 1070.14 1.51827 0.422667 0
M  V30 11165 C 1071.07 1.77152 1.52117 0
M  V30 11166 C 1072.06 0.621895 1.58324 0
M  V30 11167 O 1073.24 0.866118 1.73816 0
M  V30 11168 C 1070.37 1.90991 2.90068 0
M  V30 11169 C 1069.32 3.06516 2.98717 0
M  V30 11170 C 1068.65 3.05559 4.38791 0
M  V30 11171 C 1069.95 4.46223 2.71445 0
M  V30 11172 H 1071.64 2.69135 1.31175 0
M  V30 11173 H 1069.19 1.29507 0.629607 0
M  V30 11174 H 1071.14 2.07291 3.6689 0
M  V30 11175 H 1069.87 0.956688 3.12274 0
M  V30 11176 H 1068.53 2.89945 2.24338 0
M  V30 11177 H 1068.17 2.07985 4.57986 0
M  V30 11178 H 1067.87 3.83144 4.45505 0
M  V30 11179 H 1069.4 3.23971 5.17566 0
M  V30 11180 H 1070.81 4.63069 3.37994 0
M  V30 11181 H 1069.21 5.25623 2.89552 0
M  V30 11182 H 1070.28 4.5525 1.6696 0
M  V30 11183 N 1071.62 -0.679052 1.4222 0
M  V30 11184 C 1072.55 -1.80481 1.48152 0
M  V30 11185 C 1073.53 -1.66698 0.338502 0
M  V30 11186 O 1074.72 -1.86183 0.552228 0
M  V30 11187 C 1071.85 -3.18746 1.37908 0
M  V30 11188 C 1070.8 -3.47258 2.50192 0
M  V30 11189 C 1070.13 -4.85052 2.25008 0
M  V30 11190 C 1071.43 -3.44576 3.92511 0
M  V30 11191 H 1073.12 -1.75774 2.42371 0
M  V30 11192 H 1070.67 -0.844241 1.16656 0
M  V30 11193 H 1072.62 -3.97229 1.40666 0
M  V30 11194 H 1071.35 -3.24119 0.401806 0
M  V30 11195 H 1070 -2.71133 2.46744 0
M  V30 11196 H 1069.65 -4.8707 1.25584 0
M  V30 11197 H 1069.35 -5.05092 3.00259 0
M  V30 11198 H 1070.88 -5.65825 2.29508 0
M  V30 11199 H 1072.29 -4.13036 3.97585 0
M  V30 11200 H 1070.69 -3.76151 4.67579 0
M  V30 11201 H 1071.76 -2.4323 4.19484 0
M  V30 11202 N 1073.1 -1.28322 -0.914942 0
M  V30 11203 C 1074.35 -1.15407 -1.66396 0
M  V30 11204 C 1074.68 0.297587 -1.9221 0
M  V30 11205 O 1073.93 1.23299 -1.51973 0
M  V30 11206 C 1074.23 -1.89663 -3.02924 0
M  V30 11207 C 1073.9 -3.39464 -2.96774 0
M  V30 11208 C 1072.56 -3.80321 -2.94804 0
M  V30 11209 C 1074.91 -4.3499 -2.87111 0
M  V30 11210 C 1072.24 -5.15046 -2.8097 0
M  V30 11211 C 1074.59 -5.69788 -2.74818 0
M  V30 11212 C 1073.25 -6.09921 -2.71205 0
M  V30 11213 H 1072.52 -0.422303 -0.608885 0
M  V30 11214 H 1075.17 -1.59082 -1.06607 0
M  V30 11215 H 1073.48 -1.38533 -3.66491 0
M  V30 11216 H 1075.17 -1.77087 -3.59779 0
M  V30 11217 H 1071.76 -3.06979 -2.99101 0
M  V30 11218 H 1075.95 -4.04389 -2.87721 0
M  V30 11219 H 1071.2 -5.45271 -2.76568 0
M  V30 11220 H 1075.38 -6.43469 -2.66309 0
M  V30 11221 H 1073 -7.14267 -2.60243 0
M  V30 11222 N 1074.58 1.12322 -1.10551 0
M  V30 11223 C 1075.51 2.20176 -0.777486 0
M  V30 11224 C 1076.49 1.68252 0.250069 0
M  V30 11225 O 1077.67 1.93856 0.115574 0
M  V30 11226 C 1074.8 3.46666 -0.209822 0
M  V30 11227 C 1073.76 4.11749 -1.1682 0
M  V30 11228 C 1073.08 5.32703 -0.461684 0
M  V30 11229 C 1074.38 4.57746 -2.51527 0
M  V30 11230 H 1076.08 2.47872 -1.67928 0
M  V30 11231 H 1073.62 1.19136 -0.808863 0
M  V30 11232 H 1075.58 4.21388 0.0318068 0
M  V30 11233 H 1074.3 3.18401 0.727226 0
M  V30 11234 H 1072.96 3.39009 -1.3953 0
M  V30 11235 H 1072.61 5.00706 0.479875 0
M  V30 11236 H 1072.31 5.77197 -1.1008 0
M  V30 11237 H 1073.83 6.10172 -0.228629 0
M  V30 11238 H 1075.25 5.23835 -2.32958 0
M  V30 11239 H 1073.64 5.13021 -3.11335 0
M  V30 11240 H 1074.71 3.71667 -3.11435 0
M  V30 11241 N 1076.06 0.894434 1.2976 0
M  V30 11242 C 1076.99 0.3847 2.30309 0
M  V30 11243 C 1077.97 -0.537486 1.61385 0
M  V30 11244 O 1079.15 -0.449332 1.8893 0
M  V30 11245 C 1076.28 -0.393311 3.45066 0
M  V30 11246 C 1075.24 0.437968 4.25753 0
M  V30 11247 C 1074.56 -0.467221 5.32655 0
M  V30 11248 C 1075.86 1.6851 4.9437 0
M  V30 11249 H 1077.56 1.22496 2.73194 0
M  V30 11250 H 1075.1 0.590471 1.31337 0
M  V30 11251 H 1077.06 -0.760614 4.14479 0
M  V30 11252 H 1075.78 -1.2673 3.0101 0
M  V30 11253 H 1074.44 0.787533 3.58041 0
M  V30 11254 H 1074.09 -1.33919 4.84845 0
M  V30 11255 H 1073.79 0.0852482 5.87538 0
M  V30 11256 H 1075.31 -0.830833 6.04921 0
M  V30 11257 H 1076.72 1.38784 5.56248 0
M  V30 11258 H 1075.12 2.17849 5.59162 0
M  V30 11259 H 1076.19 2.42412 4.19958 0
M  V30 11260 N 1077.53 -1.43282 0.656365 0
M  V30 11261 C 1078.46 -2.33492 -0.0196962 0
M  V30 11262 C 1079.45 -1.49647 -0.80868 0
M  V30 11263 O 1080.63 -1.78303 -0.769529 0
M  V30 11264 C 1077.76 -3.33052 -0.984574 0
M  V30 11265 C 1076.71 -4.26908 -0.305483 0
M  V30 11266 C 1076.04 -5.16531 -1.38202 0
M  V30 11267 C 1077.34 -5.16073 0.804081 0
M  V30 11268 H 1079.03 -2.90272 0.733661 0
M  V30 11269 H 1076.58 -1.39574 0.354259 0
M  V30 11270 H 1078.53 -3.9506 -1.46647 0
M  V30 11271 H 1077.26 -2.74535 -1.76913 0
M  V30 11272 H 1075.92 -3.66268 0.155995 0
M  V30 11273 H 1075.56 -4.54351 -2.1581 0
M  V30 11274 H 1075.26 -5.80148 -0.932878 0
M  V30 11275 H 1076.79 -5.81414 -1.86522 0
M  V30 11276 H 1078.2 -5.71873 0.404212 0
M  V30 11277 H 1076.6 -5.88427 1.17789 0
M  V30 11278 H 1077.67 -4.55574 1.66073 0
M  V30 11279 N 1079.01 -0.398486 -1.52479 0
M  V30 11280 C 1079.98 0.420206 -2.25315 0
M  V30 11281 C 1080.98 0.982559 -1.27289 0
M  V30 11282 O 1082.17 0.863113 -1.51314 0
M  V30 11283 C 1079.3 1.59045 -3.01525 0
M  V30 11284 H 1080.49 -0.217599 -2.9911 0
M  V30 11285 H 1078.04 -0.150784 -1.55571 0
M  V30 11286 H 1078.78 2.26542 -2.32054 0
M  V30 11287 H 1078.56 1.19382 -3.73484 0
M  V30 11288 H 1080.05 2.16984 -3.56802 0
M  V30 11289 N 1080.49 1.57075 -0.12858 0
M  V30 11290 C 1081.77 1.87075 0.571162 0
M  V30 11291 C 1082.15 1.03141 1.84188 0
M  V30 11292 O 1081.5 0.113001 2.2822 0
M  V30 11293 C 1081.71 3.3838 0.854383 0
M  V30 11294 C 1083.05 4.07194 1.20326 0
M  V30 11295 O 1084.08 3.43454 0.944338 0
M  V30 11296 O 1082.94 5.19725 1.68963 0
M  V30 11297 H 1080.03 0.774764 0.289258 0
M  V30 11298 H 1082.58 1.68908 -0.163806 0
M  V30 11299 H 1081.35 3.91273 -0.0456925 0
M  V30 11300 H 1080.97 3.62012 1.64418 0
M  V30 11301 N 1081.97 -0.145205 1.5693 0
M  V30 11302 C 1082.93 -1.16316 1.97492 0
M  V30 11303 C 1083.93 -1.35764 0.861668 0
M  V30 11304 O 1085.12 -1.32726 1.12825 0
M  V30 11305 C 1082.25 -2.52311 2.29242 0
M  V30 11306 H 1083.45 -0.815138 2.8861 0
M  V30 11307 H 1081 -0.38861 1.51392 0
M  V30 11308 H 1081.74 -2.92081 1.40922 0
M  V30 11309 H 1081.52 -2.39555 3.10412 0
M  V30 11310 H 1083.01 -3.25624 2.61456 0
M  V30 11311 N 1083.45 -1.52049 -0.414609 0
M  V30 11312 C 1084.86 -1.40729 -0.752822 0
M  V30 11313 C 1085.06 -0.507468 -1.95005 0
M  V30 11314 O 1084.12 0.0288189 -2.52484 0
M  V30 11315 C 1085.43 -2.83163 -1.01189 0
M  V30 11316 C 1086.98 -2.92469 -1.11494 0
M  V30 11317 C 1087.46 -4.35859 -1.4068 0
M  V30 11318 N 1088.95 -4.39069 -1.47557 0
M  V30 11319 C 1089.68 -5.47072 -1.71756 0
M  V30 11320 N 1089.18 -6.65201 -1.93595 0
M  V30 11321 N 1090.97 -5.3458 -1.73726 0
M  V30 11322 H 1083.12 -2.09089 0.373549 0
M  V30 11323 H 1085.38 -0.942188 0.104814 0
M  V30 11324 H 1085.09 -3.51104 -0.204609 0
M  V30 11325 H 1084.96 -3.23874 -1.93353 0
M  V30 11326 H 1087.35 -2.24711 -1.91282 0
M  V30 11327 H 1087.43 -2.55222 -0.171794 0
M  V30 11328 H 1087.08 -5.04174 -0.614119 0
M  V30 11329 H 1087.01 -4.70637 -2.36238 0
M  V30 11330 H 1089.5 -3.53913 -1.32491 0
M  V30 11331 H 1089.81 -7.43297 -2.11495 0
M  V30 11332 H 1088.16 -6.68276 -1.90871 0
M  V30 11333 H 1091.35 -4.41271 -1.56198 0
M  V30 11334 H 1091.52 -6.18826 -1.92246 0
M  V30 11335 N 1084.93 0.6715 -1.42579 0
M  V30 11336 C 1086.17 1.42731 -1.42516 0
M  V30 11337 C 1086.49 1.95545 -0.0462407 0
M  V30 11338 O 1087.69 2.71391 0.0769798 0
M  V30 11339 C 1086.15 2.58215 -2.50705 0
M  V30 11340 C 1085.76 2.12086 -3.94618 0
M  V30 11341 C 1087.5 3.35705 -2.59813 0
M  V30 11342 C 1085.41 3.24672 -4.9431 0
M  V30 11343 H 1084.34 0.536218 -0.530081 0
M  V30 11344 H 1086.99 0.726655 -1.68499 0
M  V30 11345 H 1085.37 3.30665 -2.17892 0
M  V30 11346 H 1086.55 1.46768 -4.36802 0
M  V30 11347 H 1084.86 1.47526 -3.89391 0
M  V30 11348 H 1087.46 4.1956 -3.31472 0
M  V30 11349 H 1087.8 3.82517 -1.64276 0
M  V30 11350 H 1088.33 2.70326 -2.91836 0
M  V30 11351 H 1085.07 2.82848 -5.91335 0
M  V30 11352 H 1084.59 3.88761 -4.56755 0
M  V30 11353 H 1086.27 3.90088 -5.16179 0
M  V30 11354 N 1086.4 1.28806 0.908124 0
M  V30 11355 C 1087.64 1.17546 1.67219 0
M  V30 11356 C 1088.01 -0.270396 1.90086 0
M  V30 11357 O 1089.21 -0.505808 2.63998 0
M  V30 11358 C 1087.48 1.95774 2.99011 0
M  V30 11359 S 1089.04 2.00953 3.90081 0
M  V30 11360 H 1085.86 0.419283 0.574215 0
M  V30 11361 H 1088.46 1.6298 1.07971 0
M  V30 11362 H 1087.16 2.99978 2.80074 0
M  V30 11363 H 1086.69 1.50911 3.63303 0
M  V30 11364 H 1088.71 1.1201 4.83392 0
M  V30 11365 N 1087.88 -1.11734 1.11145 0
M  V30 11366 C 1088.84 -2.15868 0.770303 0
M  V30 11367 C 1089.84 -1.59438 -0.208842 0
M  V30 11368 O 1091.03 -1.74193 0.0152516 0
M  V30 11369 C 1088.17 -3.40603 0.142303 0
M  V30 11370 H 1089.36 -2.4756 1.69276 0
M  V30 11371 H 1086.91 -1.26867 0.912929 0
M  V30 11372 H 1087.65 -3.14517 -0.790526 0
M  V30 11373 H 1087.43 -3.8284 0.847087 0
M  V30 11374 H 1088.92 -4.17523 -0.0803608 0
M  V30 11375 N 1089.36 -0.901303 -1.29284 0
M  V30 11376 C 1090.6 -0.534971 -1.97275 0
M  V30 11377 C 1090.96 0.902226 -1.69481 0
M  V30 11378 O 1092.16 1.37551 -2.3094 0
M  V30 11379 C 1090.44 -0.821095 -3.4784 0
M  V30 11380 S 1091.99 -0.559312 -4.35221 0
M  V30 11381 H 1088.81 -0.198409 -0.682755 0
M  V30 11382 H 1091.41 -1.16408 -1.57065 0
M  V30 11383 H 1090.12 -1.86527 -3.65562 0
M  V30 11384 H 1089.65 -0.18016 -3.92987 0
M  V30 11385 H 1091.66 0.59494 -4.9262 0
M  V30 11386 N 1090.84 1.42931 -0.663954 0
M  V30 11387 C 1091.77 2.33499 0.00731327 0
M  V30 11388 C 1092.75 1.50074 0.800733 0
M  V30 11389 O 1093.93 1.78708 0.760062 0
M  V30 11390 C 1091.06 3.33569 0.966897 0
M  V30 11391 C 1090.02 4.27064 0.282839 0
M  V30 11392 C 1089.34 5.17257 1.35461 0
M  V30 11393 C 1090.64 5.1564 -0.831438 0
M  V30 11394 H 1092.34 2.89879 -0.749044 0
M  V30 11395 H 1089.88 1.39385 -0.361656 0
M  V30 11396 H 1091.84 3.95833 1.44549 0
M  V30 11397 H 1090.56 2.75469 1.75455 0
M  V30 11398 H 1089.22 3.6618 -0.175417 0
M  V30 11399 H 1088.87 4.5549 2.13397 0
M  V30 11400 H 1088.57 5.80634 0.902098 0
M  V30 11401 H 1090.09 5.82395 1.83436 0
M  V30 11402 H 1091.51 5.71651 -0.434534 0
M  V30 11403 H 1089.9 5.87794 -1.20908 0
M  V30 11404 H 1090.97 4.54687 -1.68487 0
M  V30 11405 N 1092.32 0.406567 1.52266 0
M  V30 11406 C 1093.56 -0.1627 2.02748 0
M  V30 11407 C 1093.92 -1.43022 1.28695 0
M  V30 11408 O 1093.21 -1.87715 0.383881 0
M  V30 11409 C 1093.4 -0.467124 3.54334 0
M  V30 11410 C 1093.23 0.76934 4.4307 0
M  V30 11411 C 1092 1.29377 4.88456 0
M  V30 11412 C 1094.2 1.64671 4.87225 0
M  V30 11413 N 1092.18 2.48599 5.61313 0
M  V30 11414 C 1093.55 2.68519 5.58836 0
M  V30 11415 C 1095.61 1.66477 4.69244 0
M  V30 11416 C 1094.31 3.74081 6.14374 0
M  V30 11417 C 1096.34 2.70956 5.25677 0
M  V30 11418 C 1095.7 3.73525 5.97209 0
M  V30 11419 H 1091.8 -0.0211706 0.781713 0
M  V30 11420 H 1094.38 0.560338 1.86463 0
M  V30 11421 H 1092.55 -1.15921 3.70698 0
M  V30 11422 H 1094.29 -1.02505 3.91503 0
M  V30 11423 H 1091.04 0.85219 4.6587 0
M  V30 11424 H 1091.46 3.0897 6.02384 0
M  V30 11425 H 1096.11 0.88519 4.1343 0
M  V30 11426 H 1093.82 4.52896 6.69261 0
M  V30 11427 H 1097.41 2.73258 5.13635 0
M  V30 11428 H 1096.29 4.53043 6.40095 0
M  V30 11429 N 1093.79 -1.57004 0.136909 0
M  V30 11430 C 1094.73 -2.12004 -0.844362 0
M  V30 11431 C 1095.71 -1.04099 -1.24909 0
M  V30 11432 O 1096.89 -1.31866 -1.34698 0
M  V30 11433 C 1094.02 -2.63147 -2.13241 0
M  V30 11434 C 1093.06 -3.83105 -1.87438 0
M  V30 11435 S 1093.9 -5.2461 -1.07447 0
M  V30 11436 C 1095.05 -5.79134 -2.37392 0
M  V30 11437 H 1095.28 -2.94905 -0.376614 0
M  V30 11438 H 1092.82 -1.54207 -0.0771977 0
M  V30 11439 H 1094.78 -2.93264 -2.87239 0
M  V30 11440 H 1093.44 -1.80395 -2.57131 0
M  V30 11441 H 1092.63 -4.17099 -2.82922 0
M  V30 11442 H 1092.23 -3.53696 -1.21553 0
M  V30 11443 H 1094.52 -5.8995 -3.33114 0
M  V30 11444 H 1095.47 -6.76887 -2.07918 0
M  V30 11445 H 1095.87 -5.07311 -2.47579 0
M  V30 11446 N 1095.27 0.136881 -1.57004 0
M  V30 11447 C 1096.2 1.17026 -2.02057 0
M  V30 11448 C 1097.18 1.44223 -0.901866 0
M  V30 11449 O 1098.37 1.54971 -1.17037 0
M  V30 11450 C 1095.5 2.50095 -2.40977 0
M  V30 11451 C 1094.45 2.37398 -3.56127 0
M  V30 11452 C 1093.78 3.75268 -3.80891 0
M  V30 11453 C 1095.08 1.84952 -4.88457 0
M  V30 11454 H 1096.77 0.795601 -2.88636 0
M  V30 11455 H 1094.32 0.381266 -1.38861 0
M  V30 11456 H 1096.27 3.22621 -2.71097 0
M  V30 11457 H 1095 2.89416 -1.51348 0
M  V30 11458 H 1093.65 1.67322 -3.26188 0
M  V30 11459 H 1093.3 4.12043 -2.88496 0
M  V30 11460 H 1093 3.67631 -4.5839 0
M  V30 11461 H 1094.53 4.49327 -4.13446 0
M  V30 11462 H 1095.94 2.4728 -5.17229 0
M  V30 11463 H 1094.34 1.88181 -5.69832 0
M  V30 11464 H 1095.41 0.805848 -4.78157 0
M  V30 11465 N 1096.75 1.52266 0.40654 0
M  V30 11466 C 1098 1.6568 1.15035 0
M  V30 11467 C 1098.31 0.394135 1.91588 0
M  V30 11468 O 1099.52 0.408113 2.68415 0
M  V30 11469 C 1097.97 2.92725 2.0938 0
M  V30 11470 C 1097.58 4.26108 1.38332 0
M  V30 11471 C 1099.33 3.15502 2.84004 0
M  V30 11472 C 1097.23 5.44275 2.3134 0
M  V30 11473 H 1096.16 0.61719 0.43312 0
M  V30 11474 H 1098.81 1.78755 0.414598 0
M  V30 11475 H 1097.2 2.73355 2.86519 0
M  V30 11476 H 1098.37 4.55971 0.665396 0
M  V30 11477 H 1096.69 4.09454 0.757384 0
M  V30 11478 H 1099.28 4.00964 3.5374 0
M  V30 11479 H 1099.63 2.29842 3.471 0
M  V30 11480 H 1100.16 3.35357 2.13964 0
M  V30 11481 H 1096.9 6.3229 1.72887 0
M  V30 11482 H 1096.42 5.18749 3.01098 0
M  V30 11483 H 1098.1 5.77457 2.91809 0
M  V30 11484 N 1098.23 -0.663929 1.42933 0
M  V30 11485 C 1099.48 -1.41973 1.43271 0
M  V30 11486 C 1099.79 -1.95518 0.0566103 0
M  V30 11487 O 1101 -2.71428 -0.0625862 0
M  V30 11488 C 1099.45 -2.56882 2.52071 0
M  V30 11489 C 1099.06 -2.0999 3.95737 0
M  V30 11490 C 1100.8 -3.34322 2.61589 0
M  V30 11491 C 1098.71 -3.22046 4.96025 0
M  V30 11492 H 1097.64 -0.5334 0.532917 0
M  V30 11493 H 1100.29 -0.717709 1.68882 0
M  V30 11494 H 1098.67 -3.29504 2.19643 0
M  V30 11495 H 1099.85 -1.44449 4.37574 0
M  V30 11496 H 1098.16 -1.45459 3.90168 0
M  V30 11497 H 1100.76 -4.17796 3.33692 0
M  V30 11498 H 1101.1 -3.8164 1.66302 0
M  V30 11499 H 1101.64 -2.68775 2.93266 0
M  V30 11500 H 1098.38 -2.79708 5.92827 0
M  V30 11501 H 1097.9 -3.86333 4.5881 0
M  V30 11502 H 1099.57 -3.87345 5.1824 0
M  V30 11503 N 1099.71 -1.29285 -0.901281 0
M  V30 11504 C 1100.64 -1.16832 -2.0217 0
M  V30 11505 C 1101.62 -0.0629265 -1.69984 0
M  V30 11506 O 1102.8 -0.242123 -1.92685 0
M  V30 11507 C 1099.93 -0.842406 -3.36929 0
M  V30 11508 C 1098.89 -1.90394 -3.8332 0
M  V30 11509 C 1098.21 -1.43138 -5.15185 0
M  V30 11510 C 1099.51 -3.31254 -4.03817 0
M  V30 11511 H 1101.21 -2.10562 -2.12847 0
M  V30 11512 H 1098.75 -1.01375 -1.0227 0
M  V30 11513 H 1100.71 -0.741999 -4.14816 0
M  V30 11514 H 1099.43 0.130598 -3.26339 0
M  V30 11515 H 1098.09 -1.99371 -3.07647 0
M  V30 11516 H 1097.74 -0.447091 -5.01009 0
M  V30 11517 H 1097.44 -2.14129 -5.47195 0
M  V30 11518 H 1098.96 -1.34444 -5.95615 0
M  V30 11519 H 1100.37 -3.25129 -4.72191 0
M  V30 11520 H 1098.77 -4.00189 -4.47178 0
M  V30 11521 H 1099.84 -3.74349 -3.08206 0
M  V30 11522 N 1101.18 1.11143 -1.11736 0
M  V30 11523 C 1102.43 1.82586 -0.866412 0
M  V30 11524 C 1102.75 1.85227 0.609593 0
M  V30 11525 O 1102.02 1.32505 1.44288 0
M  V30 11526 H 1100.6 0.676149 -0.31754 0
M  V30 11527 H 1103.27 1.34516 -1.41037 0
M  V30 11528 H 1102.36 2.8635 -1.24136 0
M  V30 11529 N 1102.66 0.908147 1.28804 0
M  V30 11530 C 1103.59 0.34957 2.26519 0
M  V30 11531 C 1104.61 -0.508845 1.54643 0
M  V30 11532 O 1105.8 -0.324633 1.75523 0
M  V30 11533 C 1102.9 -0.519461 3.34895 0
M  V30 11534 C 1102.07 0.315157 4.36263 0
M  V30 11535 C 1101.13 -0.488059 5.23932 0
M  V30 11536 O 1100.15 0.0974133 5.69117 0
M  V30 11537 N 1101.36 -1.79233 5.52137 0
M  V30 11538 H 1104.12 1.18945 2.75086 0
M  V30 11539 H 1101.68 0.77351 1.42227 0
M  V30 11540 H 1103.67 -1.0634 3.90479 0
M  V30 11541 H 1102.24 -1.26004 2.8608 0
M  V30 11542 H 1101.46 1.04049 3.8022 0
M  V30 11543 H 1102.75 0.886438 5.01019 0
M  V30 11544 H 1102.15 -2.2906 5.1725 0
M  V30 11545 H 1100.71 -2.28322 6.10502 0
M  V30 11546 N 1104.14 -1.42577 0.671525 0
M  V30 11547 C 1105.1 -2.292 0.000392482 0
M  V30 11548 C 1106.1 -1.43158 -0.732294 0
M  V30 11549 O 1107.29 -1.64583 -0.570789 0
M  V30 11550 C 1104.43 -3.25591 -1.01013 0
M  V30 11551 H 1105.62 -2.90037 0.762783 0
M  V30 11552 H 1103.17 -1.50162 0.433703 0
M  V30 11553 H 1103.91 -2.69685 -1.80112 0
M  V30 11554 H 1103.69 -3.89049 -0.488183 0
M  V30 11555 H 1105.18 -3.90561 -1.47824 0
M  V30 11556 N 1105.62 -0.414636 -1.52048 0
M  V30 11557 C 1106.53 0.414861 -2.30903 0
M  V30 11558 C 1107.54 1.04855 -1.38858 0
M  V30 11559 O 1108.72 1.04886 -1.71933 0
M  V30 11560 C 1105.79 1.51356 -3.11917 0
M  V30 11561 C 1104.85 0.902359 -4.19709 0
M  V30 11562 C 1104.08 1.9487 -4.96852 0
M  V30 11563 O 1104.3 3.16766 -4.74358 0
M  V30 11564 O 1103.24 1.55186 -5.8155 0
M  V30 11565 H 1107.06 -0.228251 -3.02841 0
M  V30 11566 H 1104.65 -0.177704 -1.48339 0
M  V30 11567 H 1106.53 2.15127 -3.62351 0
M  V30 11568 H 1105.2 2.14117 -2.42767 0
M  V30 11569 H 1104.11 0.22721 -3.73409 0
M  V30 11570 H 1105.44 0.318587 -4.91168 0
M  V30 11571 N 1107.1 1.56929 -0.145233 0
M  V30 11572 C 1108.06 2.15483 0.781002 0
M  V30 11573 C 1109.06 1.09617 1.17647 0
M  V30 11574 O 1110.25 1.35265 1.09768 0
M  V30 11575 C 1107.38 2.7165 2.05959 0
M  V30 11576 H 1108.57 2.98667 0.271685 0
M  V30 11577 H 1106.13 1.55952 0.1042 0
M  V30 11578 H 1106.86 1.92127 2.61262 0
M  V30 11579 H 1106.65 3.491 1.78526 0
M  V30 11580 H 1108.14 3.16769 2.72116 0
M  V30 11581 N 1108.58 -0.128553 1.57075 0
M  V30 11582 C 1109.54 -1.14215 1.98715 0
M  V30 11583 C 1110.54 -1.34843 0.876019 0
M  V30 11584 O 1111.73 -1.31522 1.14227 0
M  V30 11585 C 1108.86 -2.49865 2.31905 0
M  V30 11586 H 1110.05 -0.784481 2.89458 0
M  V30 11587 H 1107.61 -0.372531 1.51796 0
M  V30 11588 H 1108.34 -2.9057 1.44012 0
M  V30 11589 H 1108.13 -2.3625 3.12935 0
M  V30 11590 H 1109.62 -3.22832 2.64895 0
M  V30 11591 N 1110.05 -1.5248 -0.398459 0
M  V30 11592 C 1110.98 -1.79549 -1.49279 0
M  V30 11593 C 1111.96 -0.647004 -1.57315 0
M  V30 11594 O 1113.15 -0.893661 -1.72416 0
M  V30 11595 C 1110.28 -1.95582 -2.86993 0
M  V30 11596 C 1109.23 -3.1123 -2.93803 0
M  V30 11597 C 1108.56 -3.12501 -4.33874 0
M  V30 11598 C 1109.86 -4.50485 -2.64312 0
M  V30 11599 H 1111.55 -2.71187 -1.26877 0
M  V30 11600 H 1109.1 -1.30492 -0.608924 0
M  V30 11601 H 1111.05 -2.13102 -3.63546 0
M  V30 11602 H 1109.78 -1.00625 -3.10712 0
M  V30 11603 H 1108.44 -2.93477 -2.19697 0
M  V30 11604 H 1108.08 -2.15245 -4.54619 0
M  V30 11605 H 1107.78 -3.90183 -4.39353 0
M  V30 11606 H 1109.31 -3.32164 -5.12347 0
M  V30 11607 H 1110.72 -4.68387 -3.30585 0
M  V30 11608 H 1109.12 -5.30163 -2.81153 0
M  V30 11609 H 1110.19 -4.57848 -1.59696 0
M  V30 11610 N 1111.53 0.65634 -1.43283 0
M  V30 11611 C 1112.44 1.79847 -1.50639 0
M  V30 11612 C 1113.46 1.69487 -0.393714 0
M  V30 11613 O 1114.63 1.90712 -0.647379 0
M  V30 11614 C 1111.7 3.16107 -1.42398 0
M  V30 11615 C 1110.76 3.38287 -2.64312 0
M  V30 11616 C 1109.99 4.68046 -2.56454 0
M  V30 11617 O 1110.22 5.4719 -1.61056 0
M  V30 11618 O 1109.15 4.91877 -3.46902 0
M  V30 11619 H 1112.98 1.76596 -2.47078 0
M  V30 11620 H 1110.56 0.814428 -1.25249 0
M  V30 11621 H 1112.44 3.97382 -1.40233 0
M  V30 11622 H 1111.12 3.19956 -0.490929 0
M  V30 11623 H 1110.02 2.56788 -2.72049 0
M  V30 11624 H 1111.36 3.39282 -3.56579 0
M  V30 11625 N 1113.01 1.29761 0.894412 0
M  V30 11626 C 1113.96 1.15341 1.99912 0
M  V30 11627 C 1114.93 0.0453488 1.66038 0
M  V30 11628 O 1116.11 0.213829 1.89598 0
M  V30 11629 C 1113.25 0.841432 3.34685 0
M  V30 11630 C 1112.36 2.03046 3.81309 0
M  V30 11631 C 1111.5 1.65739 5.04682 0
M  V30 11632 C 1110.54 2.81191 5.43689 0
M  V30 11633 N 1109.68 2.44244 6.58247 0
M  V30 11634 H 1114.52 2.09854 2.11578 0
M  V30 11635 H 1112.05 1.04421 1.03608 0
M  V30 11636 H 1114.01 0.641211 4.12243 0
M  V30 11637 H 1112.64 -0.066797 3.22731 0
M  V30 11638 H 1111.69 2.34222 2.9974 0
M  V30 11639 H 1113 2.89538 4.06164 0
M  V30 11640 H 1112.16 1.42036 5.8984 0
M  V30 11641 H 1110.9 0.764019 4.81678 0
M  V30 11642 H 1109.9 3.0557 4.57064 0
M  V30 11643 H 1111.13 3.712 5.68672 0
M  V30 11644 H 1109.07 1.57402 6.36837 0
M  V30 11645 H 1108.99 3.24269 6.82924 0
M  V30 11646 H 1110.26 2.23875 7.46659 0
M  V30 11647 N 1114.49 -1.10549 1.12324 0
M  V30 11648 C 1115.42 -2.18911 0.812416 0
M  V30 11649 C 1116.4 -1.68628 -0.22327 0
M  V30 11650 O 1117.58 -1.94015 -0.0847184 0
M  V30 11651 C 1114.71 -3.46288 0.264947 0
M  V30 11652 C 1113.67 -4.09838 1.23356 0
M  V30 11653 C 1112.99 -5.31901 0.546374 0
M  V30 11654 C 1114.29 -4.53686 2.58778 0
M  V30 11655 H 1115.99 -2.45169 1.71851 0
M  V30 11656 H 1113.53 -1.17834 0.827715 0
M  V30 11657 H 1115.49 -4.21385 0.0352364 0
M  V30 11658 H 1114.21 -3.19517 -0.676479 0
M  V30 11659 H 1112.87 -3.36746 1.44906 0
M  V30 11660 H 1112.52 -5.01406 -0.400157 0
M  V30 11661 H 1112.22 -5.75372 1.19249 0
M  V30 11662 H 1113.74 -6.09731 0.325673 0
M  V30 11663 H 1115.16 -5.20063 2.41263 0
M  V30 11664 H 1113.55 -5.08003 3.19457 0
M  V30 11665 H 1114.62 -3.66665 3.17309 0
M  V30 11666 N 1115.97 -0.914965 -1.28321 0
M  V30 11667 C 1117.21 -0.544639 -1.94208 0
M  V30 11668 C 1117.53 0.916368 -1.72806 0
M  V30 11669 O 1118.73 1.39491 -2.32926 0
M  V30 11670 C 1117.19 -0.923209 -3.47858 0
M  V30 11671 C 1116.8 -2.40403 -3.78035 0
M  V30 11672 C 1118.54 -0.623526 -4.19896 0
M  V30 11673 C 1116.45 -2.72266 -5.25 0
M  V30 11674 H 1115.38 -0.199966 -0.727 0
M  V30 11675 H 1118.03 -1.11405 -1.45812 0
M  V30 11676 H 1116.41 -0.282576 -3.94991 0
M  V30 11677 H 1117.59 -3.09149 -3.41706 0
M  V30 11678 H 1115.9 -2.67429 -3.19172 0
M  V30 11679 H 1118.5 -0.838243 -5.28089 0
M  V30 11680 H 1118.84 0.438721 -4.13982 0
M  V30 11681 H 1119.37 -1.22268 -3.78544 0
M  V30 11682 H 1116.11 -3.77349 -5.35993 0
M  V30 11683 H 1115.63 -2.08157 -5.62522 0
M  V30 11684 H 1117.31 -2.59334 -5.92752 0
M  V30 11685 N 1117.44 1.42219 -0.679077 0
M  V30 11686 C 1118.69 2.00703 -0.200309 0
M  V30 11687 C 1119.01 1.54339 1.20161 0
M  V30 11688 O 1120.21 2.0527 1.77698 0
M  V30 11689 C 1118.67 3.58586 -0.307248 0
M  V30 11690 C 1118.28 4.13937 -1.71349 0
M  V30 11691 C 1120.02 4.24351 0.112588 0
M  V30 11692 C 1117.93 5.64198 -1.77297 0
M  V30 11693 H 1116.86 0.750638 -0.0711279 0
M  V30 11694 H 1119.51 1.62893 -0.844881 0
M  V30 11695 H 1117.89 3.93921 0.40529 0
M  V30 11696 H 1119.06 3.90054 -2.45346 0
M  V30 11697 H 1117.38 3.60639 -2.08155 0
M  V30 11698 H 1119.98 5.34627 0.0883578 0
M  V30 11699 H 1120.32 4.00142 1.14857 0
M  V30 11700 H 1120.85 3.93992 -0.549093 0
M  V30 11701 H 1117.59 5.93211 -2.78892 0
M  V30 11702 H 1117.11 5.90058 -1.07662 0
M  V30 11703 H 1118.79 6.2869 -1.52835 0
M  V30 11704 N 1118.92 0.422693 1.51826 0
M  V30 11705 C 1119.85 -0.386913 2.30272 0
M  V30 11706 C 1120.83 -1.03411 1.35056 0
M  V30 11707 O 1122.02 -1.04055 1.6397 0
M  V30 11708 C 1119.15 -1.49645 3.13407 0
M  V30 11709 C 1118.1 -0.973532 4.16781 0
M  V30 11710 C 1117.43 -2.1777 4.88344 0
M  V30 11711 C 1118.73 -0.0181194 5.22297 0
M  V30 11712 H 1120.42 0.267697 2.98201 0
M  V30 11713 H 1117.97 0.130186 1.4341 0
M  V30 11714 H 1119.92 -2.06993 3.67059 0
M  V30 11715 H 1118.64 -2.17914 2.43272 0
M  V30 11716 H 1117.3 -0.42237 3.64159 0
M  V30 11717 H 1116.95 -2.84625 4.14726 0
M  V30 11718 H 1116.65 -1.83427 5.58237 0
M  V30 11719 H 1118.18 -2.75699 5.44814 0
M  V30 11720 H 1119.59 -0.500822 5.71108 0
M  V30 11721 H 1117.99 0.237163 5.99631 0
M  V30 11722 H 1119.06 0.923065 4.76033 0
M  V30 11723 N 1120.4 -1.5685 0.153553 0
M  V30 11724 C 1121.35 -2.13671 -0.795526 0
M  V30 11725 C 1122.33 -1.06624 -1.20499 0
M  V30 11726 O 1123.53 -1.32788 -1.17032 0
M  V30 11727 C 1120.65 -2.76704 -2.03199 0
M  V30 11728 C 1119.74 -3.90884 -1.64532 0
M  V30 11729 N 1120.13 -4.96466 -0.96723 0
M  V30 11730 C 1118.43 -4.01713 -1.93759 0
M  V30 11731 C 1119.13 -5.76453 -0.779527 0
M  V30 11732 N 1118.11 -5.27444 -1.31544 0
M  V30 11733 H 1121.91 -2.92673 -0.268288 0
M  V30 11734 H 1119.42 -1.6233 -0.0477596 0
M  V30 11735 H 1121.42 -3.15777 -2.72196 0
M  V30 11736 H 1120.08 -1.99177 -2.56434 0
M  V30 11737 H 1121.09 -5.14087 -0.627253 0
M  V30 11738 H 1117.77 -3.3527 -2.48797 0
M  V30 11739 H 1119.16 -6.71455 -0.244604 0
M  V30 11740 N 1121.88 0.120221 -1.57141 0
M  V30 11741 C 1123.1 0.84637 -1.89344 0
M  V30 11742 C 1123.53 1.72702 -0.745365 0
M  V30 11743 O 1122.89 1.7873 0.304155 0
M  V30 11744 C 1122.93 1.65671 -3.20289 0
M  V30 11745 O 1122.04 2.76353 -3.06109 0
M  V30 11746 H 1121.38 0.234132 -0.621352 0
M  V30 11747 H 1123.91 0.102986 -2.04341 0
M  V30 11748 H 1123.92 2.04621 -3.52979 0
M  V30 11749 H 1122.59 1.01023 -4.03444 0
M  V30 11750 H 1121.17 2.40615 -2.84884 0
M  V30 11751 N 1123.36 1.52689 0.390367 0
M  V30 11752 C 1124.32 1.76726 1.45947 0
M  V30 11753 C 1125.32 0.637269 1.47633 0
M  V30 11754 O 1126.51 0.905312 1.48828 0
M  V30 11755 C 1123.64 1.86678 2.85244 0
M  V30 11756 H 1124.83 2.72185 1.25918 0
M  V30 11757 H 1122.39 1.4339 0.622023 0
M  V30 11758 H 1123.12 0.931991 3.10619 0
M  V30 11759 H 1122.91 2.68843 2.85422 0
M  V30 11760 H 1124.4 2.06952 3.62713 0
M  V30 11761 N 1124.83 -0.648732 1.43629 0
M  V30 11762 C 1126.06 -1.44117 1.49148 0
M  V30 11763 C 1126.48 -1.87767 0.111952 0
M  V30 11764 O 1125.84 -1.57655 -0.895249 0
M  V30 11765 C 1125.89 -2.64938 2.44623 0
M  V30 11766 O 1124.99 -3.64155 1.93559 0
M  V30 11767 H 1124.34 -0.431933 0.504312 0
M  V30 11768 H 1126.87 -0.793439 1.88589 0
M  V30 11769 H 1126.88 -3.12698 2.62076 0
M  V30 11770 H 1125.55 -2.3251 3.44836 0
M  V30 11771 H 1124.13 -3.23322 1.85789 0
M  V30 11772 N 1126.31 -1.30234 -0.887518 0
M  V30 11773 C 1127.28 -1.16384 -1.97452 0
M  V30 11774 C 1128.28 -0.0957942 -1.60514 0
M  V30 11775 O 1129.47 -0.343706 -1.70776 0
M  V30 11776 C 1126.6 -0.782514 -3.31797 0
M  V30 11777 H 1127.79 -2.12952 -2.11167 0
M  V30 11778 H 1125.34 -1.13594 -1.07359 0
M  V30 11779 H 1126.08 0.18278 -3.23785 0
M  V30 11780 H 1125.86 -1.55434 -3.59976 0
M  V30 11781 H 1127.35 -0.709011 -4.11537 0
M  V30 11782 N 1127.79 1.09952 -1.12909 0
M  V30 11783 C 1128.75 2.14615 -0.804548 0
M  V30 11784 C 1129.75 1.5975 0.18345 0
M  V30 11785 O 1130.94 1.74147 -0.0429623 0
M  V30 11786 C 1128.08 3.40333 -0.196471 0
M  V30 11787 H 1129.27 2.44835 -1.73193 0
M  V30 11788 H 1126.82 1.25399 -0.932997 0
M  V30 11789 H 1127.56 3.15735 0.740388 0
M  V30 11790 H 1127.34 3.81444 -0.907886 0
M  V30 11791 H 1128.83 4.17598 0.0139264 0
M  V30 11792 N 1129.27 0.921757 1.27833 0
M  V30 11793 C 1130.49 0.574599 1.99281 0
M  V30 11794 C 1130.92 -0.838905 1.68357 0
M  V30 11795 O 1130.28 -1.56196 0.920468 0
M  V30 11796 C 1130.32 0.800027 3.51613 0
M  V30 11797 O 1129.43 -0.137215 4.12172 0
M  V30 11798 H 1128.77 0.221887 0.625829 0
M  V30 11799 H 1131.3 1.23939 1.62789 0
M  V30 11800 H 1131.31 0.71326 4.01717 0
M  V30 11801 H 1129.98 1.83042 3.73455 0
M  V30 11802 H 1128.56 -0.00103872 3.729 0
M  V30 11803 N 1130.75 -1.41857 0.686609 0
M  V30 11804 C 1131.71 -2.29187 0.0247022 0
M  V30 11805 C 1132.71 -1.43926 -0.717069 0
M  V30 11806 O 1133.9 -1.65179 -0.5533 0
M  V30 11807 C 1131.03 -3.26644 -0.975537 0
M  V30 11808 H 1132.22 -2.89212 0.793503 0
M  V30 11809 H 1129.78 -1.49694 0.449605 0
M  V30 11810 H 1130.51 -2.7158 -1.77242 0
M  V30 11811 H 1130.3 -3.89545 -0.446892 0
M  V30 11812 H 1131.79 -3.92107 -1.43673 0
M  V30 11813 N 1132.22 -0.430739 -1.51599 0
M  V30 11814 C 1133.17 0.398482 -2.29161 0
M  V30 11815 C 1134.17 1.02676 -1.34737 0
M  V30 11816 O 1135.37 0.96248 -1.52106 0
M  V30 11817 H 1131.75 0.14731 -0.737431 0
M  V30 11818 H 1133.72 -0.276619 -2.97115 0
M  V30 11819 C 1132.47 1.49094 -3.14112 0
M  V30 11820 H 1131.79 1.01685 -3.86652 0
M  V30 11821 H 1133.23 2.04453 -3.7145 0
M  V30 11822 C 1131.69 2.47049 -2.29059 0
M  V30 11823 O 1132.22 3.51435 -1.94567 0
M  V30 11824 N 1130.43 2.17778 -1.92409 0
M  V30 11825 H 1129.97 1.3292 -2.20658 0
M  V30 11826 H 1129.93 2.8356 -1.35798 0
M  V30 11827 N 1133.7 1.56767 -0.161869 0
M  V30 11828 C 1134.95 1.96206 0.484537 0
M  V30 11829 C 1135.27 1.04848 1.64414 0
M  V30 11830 O 1134.54 0.112946 1.95574 0
M  V30 11831 H 1133.12 0.724491 0.181994 0
M  V30 11832 H 1135.78 1.93406 -0.240845 0
M  V30 11833 H 1134.88 3.00279 0.85083 0
M  V30 11834 N 1135.18 -0.111886 1.57202 0
M  V30 11835 C 1136.59 -0.668261 1.74331 0
M  V30 11836 C 1136.94 -1.79959 0.781609 0
M  V30 11837 O 1136.07 -2.16356 -0.043833 0
M  V30 11838 C 1136.66 -1.219 3.1611 0
M  V30 11839 C 1135.22 -1.7216 3.34721 0
M  V30 11840 C 1134.37 -0.624223 2.70183 0
M  V30 11841 H 1137.32 0.114081 1.58289 0
M  V30 11842 H 1137.34 -2.08858 3.18054 0
M  V30 11843 H 1136.85 -0.395381 3.86081 0
M  V30 11844 H 1134.95 -2.56976 2.69803 0
M  V30 11845 H 1135.07 -1.82615 4.42932 0
M  V30 11846 H 1133.43 -1.05958 2.31614 0
M  V30 11847 H 1134.21 0.188537 3.42782 0
M  V30 11848 N 1136.66 -1.52894 -0.382264 0
M  V30 11849 C 1137.59 -1.81122 -1.47367 0
M  V30 11850 C 1138.57 -0.663653 -1.56619 0
M  V30 11851 O 1139.75 -0.911898 -1.71459 0
M  V30 11852 C 1136.88 -1.98615 -2.84902 0
M  V30 11853 C 1135.84 -3.14328 -2.90485 0
M  V30 11854 C 1135.16 -3.17086 -4.30535 0
M  V30 11855 C 1136.46 -4.53263 -2.59519 0
M  V30 11856 H 1138.16 -2.72518 -1.23993 0
M  V30 11857 H 1135.7 -1.3113 -0.595049 0
M  V30 11858 H 1137.66 -2.16946 -3.61265 0
M  V30 11859 H 1136.38 -1.03915 -3.09628 0
M  V30 11860 H 1135.04 -2.95791 -2.16572 0
M  V30 11861 H 1134.69 -2.20055 -4.52311 0
M  V30 11862 H 1134.39 -3.94821 -4.3519 0
M  V30 11863 H 1135.91 -3.3758 -5.08795 0
M  V30 11864 H 1137.33 -4.71867 -3.25598 0
M  V30 11865 H 1135.72 -5.33115 -2.75514 0
M  V30 11866 H 1136.79 -4.59516 -1.54831 0
M  V30 11867 N 1138.14 0.641106 -1.43971 0
M  V30 11868 C 1139.38 1.40118 -1.4744 0
M  V30 11869 C 1139.74 1.92131 -0.101647 0
M  V30 11870 O 1139.03 1.70112 0.881614 0
M  V30 11871 C 1139.23 2.59092 -2.46183 0
M  V30 11872 C 1139.05 2.18725 -3.92924 0
M  V30 11873 C 1137.82 2.06475 -4.6119 0
M  V30 11874 C 1140.02 1.78255 -4.82421 0
M  V30 11875 N 1138 1.59566 -5.928 0
M  V30 11876 C 1139.38 1.42517 -6.03398 0
M  V30 11877 C 1141.43 1.65546 -4.69573 0
M  V30 11878 C 1140.13 0.953428 -7.12953 0
M  V30 11879 C 1142.16 1.19776 -5.79144 0
M  V30 11880 C 1141.52 0.84983 -6.99255 0
M  V30 11881 H 1137.62 0.507917 -0.594596 0
M  V30 11882 H 1140.2 0.736517 -1.80232 0
M  V30 11883 H 1138.38 3.232 -2.15398 0
M  V30 11884 H 1140.11 3.25847 -2.40012 0
M  V30 11885 H 1136.86 2.26615 -4.15863 0
M  V30 11886 H 1137.29 1.38438 -6.62694 0
M  V30 11887 H 1141.93 1.91081 -3.77158 0
M  V30 11888 H 1139.65 0.68558 -8.05187 0
M  V30 11889 H 1143.23 1.10415 -5.71226 0
M  V30 11890 H 1142.11 0.501081 -7.82597 0
M  V30 11891 N 1139.62 1.30703 0.880598 0
M  V30 11892 C 1140.86 1.19778 1.63277 0
M  V30 11893 C 1141.19 -0.246521 1.92931 0
M  V30 11894 O 1140.45 -1.19226 1.55189 0
M  V30 11895 C 1140.74 1.97628 2.97789 0
M  V30 11896 C 1140.41 3.47213 2.87669 0
M  V30 11897 C 1139.07 3.88004 2.84617 0
M  V30 11898 C 1141.42 4.4245 2.75477 0
M  V30 11899 C 1138.75 5.22315 2.67216 0
M  V30 11900 C 1141.1 5.76874 2.59614 0
M  V30 11901 C 1139.77 6.16898 2.54939 0
M  V30 11902 H 1139.04 0.438298 0.597475 0
M  V30 11903 H 1141.69 1.61853 1.02352 0
M  V30 11904 H 1139.99 1.48201 3.6269 0
M  V30 11905 H 1141.69 1.86563 3.54958 0
M  V30 11906 H 1138.28 3.14802 2.90857 0
M  V30 11907 H 1142.46 4.11875 2.76899 0
M  V30 11908 H 1137.72 5.52412 2.62014 0
M  V30 11909 H 1141.89 6.50304 2.49155 0
M  V30 11910 H 1139.52 7.20916 2.41214 0
M  V30 11911 N 1141.09 -1.09351 1.1349 0
M  V30 11912 C 1142.34 -1.81543 0.897123 0
M  V30 11913 C 1142.67 -1.85754 -0.576703 0
M  V30 11914 O 1141.92 -1.32213 -1.44285 0
M  V30 11915 C 1142.22 -3.27498 1.43108 0
M  V30 11916 C 1141.89 -3.4342 2.92188 0
M  V30 11917 C 1140.55 -3.47473 3.32891 0
M  V30 11918 C 1142.9 -3.47894 3.88097 0
M  V30 11919 C 1140.23 -3.5358 4.68186 0
M  V30 11920 C 1142.58 -3.55535 5.23238 0
M  V30 11921 C 1141.25 -3.57857 5.63467 0
M  V30 11922 H 1140.52 -0.664314 0.32828 0
M  V30 11923 H 1143.16 -1.28819 1.41697 0
M  V30 11924 H 1141.47 -3.82865 0.831946 0
M  V30 11925 H 1143.17 -3.8189 1.22316 0
M  V30 11926 H 1139.76 -3.4095 2.59713 0
M  V30 11927 H 1143.94 -3.44002 3.57737 0
M  V30 11928 H 1139.2 -3.53665 4.9873 0
M  V30 11929 H 1143.37 -3.57942 5.9737 0
M  V30 11930 H 1141 -3.62341 6.68291 0
M  V30 11931 N 1142.57 -0.928524 -1.27343 0
M  V30 11932 C 1143.82 -0.565207 -1.93619 0
M  V30 11933 C 1144.13 0.897988 -1.73769 0
M  V30 11934 O 1145.34 1.37012 -2.34393 0
M  V30 11935 C 1143.8 -0.960052 -3.46859 0
M  V30 11936 C 1143.4 -2.44399 -3.75464 0
M  V30 11937 C 1145.15 -0.668026 -4.19211 0
M  V30 11938 C 1143.05 -2.77819 -5.22083 0
M  V30 11939 H 1141.98 -0.207665 -0.724839 0
M  V30 11940 H 1144.64 -1.12945 -1.44623 0
M  V30 11941 H 1143.02 -0.324454 -3.94669 0
M  V30 11942 H 1144.19 -3.12756 -3.38408 0
M  V30 11943 H 1142.51 -2.70799 -3.16317 0
M  V30 11944 H 1145.1 -0.894207 -5.2717 0
M  V30 11945 H 1145.45 0.394788 -4.14424 0
M  V30 11946 H 1145.98 -1.26276 -3.77226 0
M  V30 11947 H 1142.72 -3.83013 -5.3196 0
M  V30 11948 H 1142.24 -2.14112 -5.60282 0
M  V30 11949 H 1143.92 -2.65607 -5.89968 0
M  V30 11950 N 1144.05 1.41491 -0.694123 0
M  V30 11951 C 1145.3 2.01252 -0.224477 0
M  V30 11952 C 1145.62 1.54965 1.17541 0
M  V30 11953 O 1144.88 0.751041 1.80715 0
M  V30 11954 C 1145.18 3.56666 -0.228869 0
M  V30 11955 C 1144.84 4.22458 -1.57608 0
M  V30 11956 C 1143.51 4.40144 -1.94491 0
M  V30 11957 C 1145.86 4.5936 -2.46247 0
M  V30 11958 C 1143.19 4.92009 -3.196 0
M  V30 11959 C 1145.54 5.12615 -3.70687 0
M  V30 11960 C 1144.2 5.28512 -4.07715 0
M  V30 11961 H 1143.47 0.736433 -0.0821419 0
M  V30 11962 H 1146.12 1.69408 -0.892926 0
M  V30 11963 H 1144.42 3.88292 0.523128 0
M  V30 11964 H 1146.12 4.00712 0.152019 0
M  V30 11965 H 1142.71 4.09065 -1.27921 0
M  V30 11966 H 1146.9 4.45352 -2.19032 0
M  V30 11967 H 1142.15 5.02502 -3.48285 0
M  V30 11968 H 1146.33 5.4015 -4.39558 0
M  V30 11969 H 1143.95 5.68464 -5.0473 0
M  V30 11970 N 1145.53 0.438773 1.51369 0
M  V30 11971 C 1146.77 -0.127213 2.021 0
M  V30 11972 C 1147.1 -1.42587 1.32284 0
M  V30 11973 O 1146.36 -1.90986 0.426949 0
M  V30 11974 C 1146.66 -0.39186 3.55245 0
M  V30 11975 C 1146.32 0.821158 4.4336 0
M  V30 11976 C 1144.98 1.15381 4.67162 0
M  V30 11977 C 1147.34 1.6303 4.95046 0
M  V30 11978 C 1144.66 2.29626 5.39897 0
M  V30 11979 C 1147.02 2.76376 5.69033 0
M  V30 11980 C 1145.68 3.10094 5.91099 0
M  V30 11981 H 1144.95 -0.0465505 0.739536 0
M  V30 11982 H 1147.6 0.586261 1.82305 0
M  V30 11983 H 1145.9 -1.18724 3.73379 0
M  V30 11984 H 1147.6 -0.843228 3.92034 0
M  V30 11985 H 1144.19 0.551946 4.25031 0
M  V30 11986 H 1148.37 1.38651 4.76539 0
M  V30 11987 H 1143.63 2.56062 5.55196 0
M  V30 11988 H 1147.8 3.39442 6.08072 0
M  V30 11989 H 1145.43 3.98731 6.47238 0
M  V30 11990 N 1147.01 -1.56678 0.170181 0
M  V30 11991 C 1148.23 -2.01223 -0.481362 0
M  V30 11992 C 1148.65 -1.05039 -1.56883 0
M  V30 11993 O 1148.01 -0.0510751 -1.82429 0
M  V30 11994 C 1148.06 -3.45588 -1.06073 0
M  V30 11995 O 1147.78 -4.38097 -0.0166754 0
M  V30 11996 C 1149.28 -4.05527 -1.79061 0
M  V30 11997 H 1146.5 -0.659574 -0.1233 0
M  V30 11998 H 1149.04 -2.02689 0.271576 0
M  V30 11999 H 1147.2 -3.449 -1.76417 0
M  V30 12000 H 1147.61 -5.22615 -0.444276 0
M  V30 12001 H 1149.09 -5.08467 -2.1486 0
M  V30 12002 H 1149.56 -3.47554 -2.68519 0
M  V30 12003 H 1150.17 -4.09914 -1.13361 0
M  V30 12004 N 1148.48 0.103547 -1.57259 0
M  V30 12005 C 1149.45 1.11039 -2.00507 0
M  V30 12006 C 1150.45 1.33432 -0.897361 0
M  V30 12007 O 1151.64 1.29688 -1.16304 0
M  V30 12008 C 1148.77 2.46144 -2.35851 0
M  V30 12009 H 1149.96 0.738332 -2.90669 0
M  V30 12010 H 1147.51 0.348334 -1.52369 0
M  V30 12011 H 1148.25 2.88242 -1.48617 0
M  V30 12012 H 1148.03 2.31241 -3.16654 0
M  V30 12013 H 1149.52 3.18577 -2.69997 0
M  V30 12014 N 1149.96 1.53094 0.37415 0
M  V30 12015 C 1150.92 1.78264 1.44065 0
M  V30 12016 C 1151.92 0.652892 1.46949 0
M  V30 12017 O 1153.11 0.921046 1.47859 0
M  V30 12018 C 1150.25 1.89693 2.83248 0
M  V30 12019 H 1151.44 2.73505 1.23025 0
M  V30 12020 H 1148.99 1.44041 0.60678 0
M  V30 12021 H 1149.73 0.964884 3.09613 0
M  V30 12022 H 1149.51 2.71855 2.82554 0
M  V30 12023 H 1151 2.10787 3.60498 0
M  V30 12024 N 1151.44 -0.633461 1.44309 0
M  V30 12025 C 1152.69 -1.39334 1.48181 0
M  V30 12026 C 1153.04 -1.92075 0.111835 0
M  V30 12027 O 1152.33 -1.70577 -0.87258 0
M  V30 12028 C 1152.53 -2.57783 2.47554 0
M  V30 12029 C 1152.36 -2.16638 3.94079 0
M  V30 12030 C 1151.13 -2.04027 4.62278 0
M  V30 12031 C 1153.32 -1.75694 4.83359 0
M  V30 12032 N 1151.31 -1.5642 5.93638 0
M  V30 12033 C 1152.68 -1.39315 6.04145 0
M  V30 12034 C 1154.73 -1.63053 4.70445 0
M  V30 12035 C 1153.44 -0.915604 7.13449 0
M  V30 12036 C 1155.46 -1.16703 5.79771 0
M  V30 12037 C 1154.82 -0.812735 6.99696 0
M  V30 12038 H 1150.92 -0.504757 0.597281 0
M  V30 12039 H 1153.51 -0.726948 1.8062 0
M  V30 12040 H 1151.68 -3.22053 2.17109 0
M  V30 12041 H 1153.41 -3.2457 2.41737 0
M  V30 12042 H 1150.16 -2.24407 4.17059 0
M  V30 12043 H 1150.59 -1.34922 6.63419 0
M  V30 12044 H 1155.23 -1.89078 3.78166 0
M  V30 12045 H 1152.95 -0.642869 8.05539 0
M  V30 12046 H 1156.53 -1.07385 5.71804 0
M  V30 12047 H 1155.41 -0.45957 7.82852 0
M  V30 12048 N 1152.92 -1.31168 -0.873655 0
M  V30 12049 C 1154.15 -1.23416 -1.65686 0
M  V30 12050 C 1154.56 0.203534 -1.88102 0
M  V30 12051 O 1153.9 1.14476 -1.4367 0
M  V30 12052 C 1153.96 -1.90418 -3.04929 0
M  V30 12053 C 1153.63 -3.39757 -3.05637 0
M  V30 12054 C 1154.62 -4.35565 -2.83865 0
M  V30 12055 C 1152.31 -3.81389 -3.26875 0
M  V30 12056 C 1154.3 -5.70979 -2.83304 0
M  V30 12057 C 1151.99 -5.16918 -3.25943 0
M  V30 12058 C 1152.99 -6.11524 -3.04184 0
M  V30 12059 O 1152.67 -7.44575 -3.0309 0
M  V30 12060 H 1152.41 -0.4278 -0.523415 0
M  V30 12061 H 1154.96 -1.73525 -1.09902 0
M  V30 12062 H 1153.19 -1.34854 -3.62424 0
M  V30 12063 H 1154.88 -1.76631 -3.65453 0
M  V30 12064 H 1155.65 -4.0473 -2.67243 0
M  V30 12065 H 1151.52 -3.08187 -3.42844 0
M  V30 12066 H 1155.07 -6.44796 -2.66239 0
M  V30 12067 H 1150.97 -5.47389 -3.42104 0
M  V30 12068 H 1151.73 -7.53703 -3.19177 0
M  V30 12069 N 1154.4 1.08748 -1.14068 0
M  V30 12070 C 1155.33 2.17591 -0.84714 0
M  V30 12071 C 1156.31 1.68962 0.196415 0
M  V30 12072 O 1157.49 1.94125 0.0538415 0
M  V30 12073 C 1154.62 3.45823 -0.320005 0
M  V30 12074 C 1153.58 4.07824 -1.2986 0
M  V30 12075 C 1152.9 5.30965 -0.630925 0
M  V30 12076 C 1154.2 4.49512 -2.65963 0
M  V30 12077 H 1155.9 2.42404 -1.75729 0
M  V30 12078 H 1153.44 1.16502 -0.846356 0
M  V30 12079 H 1155.4 4.21276 -0.102271 0
M  V30 12080 H 1154.12 3.20553 0.625561 0
M  V30 12081 H 1152.78 3.34398 -1.50245 0
M  V30 12082 H 1152.43 5.01979 0.320337 0
M  V30 12083 H 1152.13 5.73402 -1.28388 0
M  V30 12084 H 1153.65 6.09136 -0.422635 0
M  V30 12085 H 1155.06 5.16159 -2.49506 0
M  V30 12086 H 1153.46 5.02857 -3.27498 0
M  V30 12087 H 1154.53 3.6157 -3.23102 0
M  V30 12088 N 1155.87 0.935264 1.26849 0
M  V30 12089 C 1156.82 0.438896 2.26588 0
M  V30 12090 C 1157.79 -0.498267 1.5845 0
M  V30 12091 O 1158.98 -0.415771 1.86215 0
M  V30 12092 C 1156.12 -0.295293 3.43834 0
M  V30 12093 C 1155.23 0.676857 4.26665 0
M  V30 12094 C 1154.36 -0.0779349 5.31143 0
M  V30 12095 C 1153.4 0.886425 6.05648 0
M  V30 12096 N 1152.54 0.163771 7.01909 0
M  V30 12097 H 1157.38 1.29439 2.6842 0
M  V30 12098 H 1154.92 0.649523 1.31983 0
M  V30 12099 H 1156.88 -0.737354 4.10632 0
M  V30 12100 H 1155.51 -1.11497 3.02933 0
M  V30 12101 H 1154.56 1.23744 3.5971 0
M  V30 12102 H 1155.87 1.41355 4.78351 0
M  V30 12103 H 1155.02 -0.579557 6.03926 0
M  V30 12104 H 1153.76 -0.84755 4.80279 0
M  V30 12105 H 1152.77 1.39923 5.31697 0
M  V30 12106 H 1153.99 1.65595 6.58601 0
M  V30 12107 H 1151.94 -0.58746 6.53364 0
M  V30 12108 H 1151.86 0.839902 7.5132 0
M  V30 12109 H 1153.12 -0.316951 7.78855 0
M  V30 12110 N 1157.35 -1.41121 0.701616 0
M  V30 12111 C 1158.6 -2.00733 0.234682 0
M  V30 12112 C 1158.92 -1.55869 -1.17174 0
M  V30 12113 O 1158.19 -0.791965 -1.79178 0
M  V30 12114 H 1156.77 -0.742288 0.0837745 0
M  V30 12115 H 1159.43 -1.7266 0.904127 0
M  V30 12116 H 1158.53 -3.11041 0.256831 0
M  V30 12117 N 1158.83 -0.446794 -1.51134 0
M  V30 12118 C 1160.25 -0.0995905 -1.59289 0
M  V30 12119 C 1160.45 1.39191 -1.45699 0
M  V30 12120 O 1159.5 2.1628 -1.30303 0
M  V30 12121 C 1160.82 -0.628135 -2.94066 0
M  V30 12122 C 1162.36 -0.589409 -3.074 0
M  V30 12123 C 1162.84 -1.09509 -4.44715 0
M  V30 12124 N 1164.33 -1.05347 -4.51061 0
M  V30 12125 C 1165.06 -1.41551 -5.55654 0
M  V30 12126 N 1164.56 -1.85086 -6.67619 0
M  V30 12127 N 1166.35 -1.33307 -5.46064 0
M  V30 12128 H 1158.5 -1.41713 -1.58213 0
M  V30 12129 H 1160.77 -0.584555 -0.746324 0
M  V30 12130 H 1160.47 -1.67205 -3.09411 0
M  V30 12131 H 1160.35 -0.0582398 -3.77155 0
M  V30 12132 H 1162.73 0.445541 -2.91717 0
M  V30 12133 H 1162.82 -1.19582 -2.26128 0
M  V30 12134 H 1162.46 -2.12855 -4.61146 0
M  V30 12135 H 1162.39 -0.465122 -5.24542 0
M  V30 12136 H 1164.88 -0.733877 -3.70706 0
M  V30 12137 H 1165.19 -2.10923 -7.43459 0
M  V30 12138 H 1163.54 -1.8902 -6.68802 0
M  V30 12139 H 1166.73 -0.991547 -4.57478 0
M  V30 12140 H 1166.9 -1.6185 -6.27462 0
M  V30 12141 N 1160.31 1.56586 -0.178487 0
M  V30 12142 C 1161.55 1.9739 0.465306 0
M  V30 12143 C 1161.89 1.06474 1.6241 0
M  V30 12144 O 1161.16 0.113316 1.9417 0
M  V30 12145 C 1161.45 3.47577 0.941408 0
M  V30 12146 C 1161.3 4.49271 -0.218054 0
M  V30 12147 C 1162.62 4.01038 1.81263 0
M  V30 12148 H 1159.74 0.717676 0.167663 0
M  V30 12149 H 1162.38 1.88128 -0.266067 0
M  V30 12150 H 1160.53 3.556 1.56463 0
M  V30 12151 H 1162.2 4.53301 -0.855332 0
M  V30 12152 H 1160.44 4.24936 -0.872441 0
M  V30 12153 H 1161.11 5.51776 0.157315 0
M  V30 12154 H 1163.59 3.9569 1.28718 0
M  V30 12155 H 1162.47 5.06526 2.11476 0
M  V30 12156 H 1162.73 3.45288 2.76096 0
M  V30 12157 N 1161.79 -0.095206 1.57312 0
M  V30 12158 C 1163.03 -0.799903 1.86358 0
M  V30 12159 C 1163.37 -1.78386 0.767593 0
M  V30 12160 O 1162.64 -1.93201 -0.224439 0
M  V30 12161 C 1162.92 -1.52875 3.26039 0
M  V30 12162 C 1162.78 -0.562781 4.46265 0
M  V30 12163 C 1164.1 -2.47935 3.63616 0
M  V30 12164 H 1161.21 -0.289339 0.677829 0
M  V30 12165 H 1163.86 -0.0635369 1.89894 0
M  V30 12166 H 1162.01 -2.15645 3.23156 0
M  V30 12167 H 1163.68 0.0579068 4.61264 0
M  V30 12168 H 1161.92 0.123847 4.33623 0
M  V30 12169 H 1162.59 -1.10989 5.40727 0
M  V30 12170 H 1165.07 -1.95257 3.67442 0
M  V30 12171 H 1163.94 -2.95948 4.62283 0
M  V30 12172 H 1164.21 -3.31687 2.92294 0
M  V30 12173 N 1163.26 -1.53291 -0.366026 0
M  V30 12174 C 1164.68 -1.61144 -0.942849 0
M  V30 12175 C 1165.03 -0.478571 -1.90274 0
M  V30 12176 O 1164.15 0.395069 -2.12763 0
M  V30 12177 C 1164.75 -2.92081 -1.71681 0
M  V30 12178 C 1163.31 -3.0227 -2.24298 0
M  V30 12179 C 1162.45 -2.56436 -1.05526 0
M  V30 12180 H 1165.4 -1.58038 -0.144835 0
M  V30 12181 H 1165.42 -2.79858 -2.57798 0
M  V30 12182 H 1164.94 -3.74513 -1.01793 0
M  V30 12183 H 1163.04 -2.24425 -2.97429 0
M  V30 12184 H 1163.15 -4.07341 -2.5221 0
M  V30 12185 H 1161.51 -2.11301 -1.42211 0
M  V30 12186 H 1162.3 -3.41285 -0.371376 0
M  V30 12187 N 1164.74 0.6258 -1.44643 0
M  V30 12188 C 1165.99 1.3873 -1.47925 0
M  V30 12189 C 1166.32 1.93868 -0.113469 0
M  V30 12190 O 1165.6 1.73976 0.869639 0
M  V30 12191 C 1165.88 2.54867 -2.54391 0
M  V30 12192 C 1165.73 2.05044 -4.00346 0
M  V30 12193 C 1167.05 3.57043 -2.57309 0
M  V30 12194 H 1164.17 0.503087 -0.538584 0
M  V30 12195 H 1166.81 0.707102 -1.76352 0
M  V30 12196 H 1164.96 3.12894 -2.30281 0
M  V30 12197 H 1166.63 1.51807 -4.35606 0
M  V30 12198 H 1164.88 1.36185 -4.11869 0
M  V30 12199 H 1165.55 2.88681 -4.70497 0
M  V30 12200 H 1168.02 3.08826 -2.78865 0
M  V30 12201 H 1166.9 4.35818 -3.33698 0
M  V30 12202 H 1167.16 4.11464 -1.61708 0
M  V30 12203 N 1166.22 1.31629 0.866686 0
M  V30 12204 C 1167.18 1.1951 1.95576 0
M  V30 12205 C 1168.18 0.121319 1.60342 0
M  V30 12206 O 1169.37 0.370832 1.70207 0
M  V30 12207 C 1166.51 0.835201 3.30511 0
M  V30 12208 H 1167.7 2.16285 2.07752 0
M  V30 12209 H 1165.25 1.15288 1.05539 0
M  V30 12210 H 1165.99 -0.131245 3.24034 0
M  V30 12211 H 1165.77 1.61142 3.57457 0
M  V30 12212 H 1167.26 0.774393 4.10357 0
M  V30 12213 N 1167.7 -1.08142 1.14644 0
M  V30 12214 C 1168.93 -1.84318 0.939926 0
M  V30 12215 C 1169.34 -1.81735 -0.511636 0
M  V30 12216 O 1168.7 -1.22297 -1.35461 0
M  V30 12217 C 1168.75 -3.31744 1.43625 0
M  V30 12218 O 1168.47 -3.3435 2.83094 0
M  V30 12219 C 1169.97 -4.24717 1.27007 0
M  V30 12220 H 1167.19 -0.581781 0.334323 0
M  V30 12221 H 1169.74 -1.36561 1.52221 0
M  V30 12222 H 1167.89 -3.7688 0.896664 0
M  V30 12223 H 1168.31 -4.26399 3.05425 0
M  V30 12224 H 1169.78 -5.26262 1.66591 0
M  V30 12225 H 1170.26 -4.38682 0.213257 0
M  V30 12226 H 1170.86 -3.85409 1.79833 0
M  V30 12227 N 1169.18 -0.941978 -1.26351 0
M  V30 12228 C 1170.41 -0.605868 -1.97517 0
M  V30 12229 C 1170.82 0.823583 -1.70334 0
M  V30 12230 O 1170.16 1.56085 -0.968662 0
M  V30 12231 C 1170.22 -0.769201 -3.51175 0
M  V30 12232 C 1169.88 -2.17343 -4.02009 0
M  V30 12233 C 1170.88 -3.14898 -4.13685 0
M  V30 12234 C 1168.57 -2.49422 -4.35998 0
M  V30 12235 C 1170.56 -4.42631 -4.58646 0
M  V30 12236 C 1168.25 -3.77388 -4.80647 0
M  V30 12237 C 1169.25 -4.73806 -4.91932 0
M  V30 12238 O 1168.93 -5.99493 -5.35596 0
M  V30 12239 H 1168.67 -0.227113 -0.636707 0
M  V30 12240 H 1171.22 -1.26523 -1.61806 0
M  V30 12241 H 1169.45 -0.0527104 -3.86664 0
M  V30 12242 H 1171.14 -0.436032 -4.03551 0
M  V30 12243 H 1171.9 -2.91438 -3.87671 0
M  V30 12244 H 1167.78 -1.7511 -4.26448 0
M  V30 12245 H 1171.33 -5.17892 -4.67369 0
M  V30 12246 H 1167.22 -4.0066 -5.06105 0
M  V30 12247 H 1167.99 -6.02687 -5.53815 0
M  V30 12248 N 1170.66 1.40747 -0.709091 0
M  V30 12249 C 1171.88 2.05841 -0.253816 0
M  V30 12250 C 1172.31 1.53056 1.09341 0
M  V30 12251 O 1171.66 0.663181 1.68735 0
M  V30 12252 C 1171.71 3.59822 -0.236699 0
M  V30 12253 O 1170.82 4.04876 0.784168 0
M  V30 12254 H 1170.16 0.65295 -0.120631 0
M  V30 12255 H 1172.69 1.80266 -0.967749 0
M  V30 12256 H 1172.7 4.07936 -0.0721616 0
M  V30 12257 H 1171.37 3.97608 -1.21988 0
M  V30 12258 H 1169.95 3.68237 0.587884 0
M  V30 12259 N 1172.13 0.454803 1.50895 0
M  V30 12260 C 1173.38 -0.105927 2.02523 0
M  V30 12261 C 1173.71 -1.40825 1.33724 0
M  V30 12262 O 1172.99 -1.89038 0.457683 0
M  V30 12263 C 1173.27 -0.306635 3.58792 0
M  V30 12264 C 1173.12 1.01556 4.38185 0
M  V30 12265 C 1174.44 -1.06858 4.2693 0
M  V30 12266 H 1171.56 -0.0370232 0.736069 0
M  V30 12267 H 1174.2 0.597215 1.8037 0
M  V30 12268 H 1172.35 -0.905563 3.77799 0
M  V30 12269 H 1174.03 1.64981 4.30789 0
M  V30 12270 H 1172.27 1.61608 4.02574 0
M  V30 12271 H 1172.94 0.828959 5.4574 0
M  V30 12272 H 1175.42 -0.561086 4.123 0
M  V30 12273 H 1174.29 -1.1778 5.36115 0
M  V30 12274 H 1174.55 -2.10111 3.8898 0
M  V30 12275 N 1173.61 -1.56489 0.186789 0
M  V30 12276 C 1174.54 -2.21705 -0.732739 0
M  V30 12277 C 1175.52 -1.17751 -1.22755 0
M  V30 12278 O 1176.71 -1.46231 -1.27789 0
M  V30 12279 C 1173.84 -2.86992 -1.95584 0
M  V30 12280 C 1172.79 -3.97118 -1.59628 0
M  V30 12281 C 1172.12 -4.49529 -2.89531 0
M  V30 12282 C 1173.42 -5.15941 -0.812518 0
M  V30 12283 H 1175.11 -2.98802 -0.189094 0
M  V30 12284 H 1172.66 -1.43722 -0.0895099 0
M  V30 12285 H 1174.61 -3.31295 -2.60426 0
M  V30 12286 H 1173.33 -2.07287 -2.52388 0
M  V30 12287 H 1171.99 -3.53494 -0.971475 0
M  V30 12288 H 1171.64 -3.66596 -3.44407 0
M  V30 12289 H 1171.34 -5.23832 -2.66221 0
M  V30 12290 H 1172.87 -4.96528 -3.55376 0
M  V30 12291 H 1174.28 -5.56841 -1.36386 0
M  V30 12292 H 1172.68 -5.96259 -0.677862 0
M  V30 12293 H 1173.75 -4.84535 0.188095 0
M  V30 12294 N 1175.09 0.086862 -1.5736 0
M  V30 12295 C 1176.34 0.787281 -1.86135 0
M  V30 12296 C 1176.66 1.78866 -0.776667 0
M  V30 12297 O 1175.93 1.94915 0.19625 0
M  V30 12298 H 1174.51 0.293744 -0.686821 0
M  V30 12299 H 1177.17 0.0665326 -1.94786 0
M  V30 12300 H 1176.27 1.3128 -2.83147 0
M  V30 12301 N 1176.57 1.53483 0.357892 0
M  V30 12302 C 1177.5 1.83444 1.44466 0
M  V30 12303 C 1178.48 0.688486 1.55544 0
M  V30 12304 O 1179.66 0.93906 1.69986 0
M  V30 12305 C 1176.79 2.03122 2.81707 0
M  V30 12306 C 1175.75 3.1891 2.85448 0
M  V30 12307 C 1175.07 3.23895 4.25436 0
M  V30 12308 C 1176.37 4.57334 2.52275 0
M  V30 12309 H 1178.07 2.74456 1.19642 0
M  V30 12310 H 1175.61 1.3206 0.574112 0
M  V30 12311 H 1177.57 2.22666 3.57768 0
M  V30 12312 H 1176.29 1.08827 3.07935 0
M  V30 12313 H 1174.95 2.99199 2.11838 0
M  V30 12314 H 1174.6 2.27223 4.48753 0
M  V30 12315 H 1174.3 4.01694 4.28854 0
M  V30 12316 H 1175.82 3.45632 5.0336 0
M  V30 12317 H 1177.24 4.76988 3.1805 0
M  V30 12318 H 1175.63 5.37431 2.66998 0
M  V30 12319 H 1176.7 4.61921 1.47501 0
M  V30 12320 N 1178.05 -0.61812 1.44973 0
M  V30 12321 C 1179.29 -1.37754 1.4965 0
M  V30 12322 C 1179.65 -1.91945 0.132201 0
M  V30 12323 O 1178.94 -1.71493 -0.854439 0
M  V30 12324 C 1179.13 -2.55143 2.50274 0
M  V30 12325 C 1178.96 -2.12446 3.96354 0
M  V30 12326 C 1177.73 -1.99112 4.64416 0
M  V30 12327 C 1179.93 -1.70557 4.85196 0
M  V30 12328 N 1177.91 -1.50114 5.95264 0
M  V30 12329 C 1179.28 -1.329 6.05589 0
M  V30 12330 C 1181.34 -1.58054 4.72147 0
M  V30 12331 C 1180.04 -0.839882 7.1438 0
M  V30 12332 C 1182.07 -1.10547 5.80976 0
M  V30 12333 C 1181.43 -0.738477 7.00518 0
M  V30 12334 H 1177.53 -0.498393 0.602601 0
M  V30 12335 H 1180.11 -0.70775 1.81381 0
M  V30 12336 H 1178.28 -3.19732 2.20513 0
M  V30 12337 H 1180.02 -3.21988 2.45166 0
M  V30 12338 H 1176.77 -2.19971 4.19416 0
M  V30 12339 H 1177.19 -1.27878 6.64813 0
M  V30 12340 H 1181.84 -1.85056 3.8015 0
M  V30 12341 H 1179.55 -0.557395 8.06175 0
M  V30 12342 H 1183.14 -1.01314 5.72911 0
M  V30 12343 H 1182.02 -0.376513 7.83296 0
M  V30 12344 N 1179.52 -1.32087 -0.859693 0
M  V30 12345 C 1180.75 -1.25486 -1.6513 0
M  V30 12346 C 1181.17 0.175015 -1.87284 0
M  V30 12347 O 1180.53 1.12468 -1.42199 0
M  V30 12348 C 1180.58 -2.01469 -2.9907 0
M  V30 12349 O 1179.68 -1.35904 -3.89363 0
M  V30 12350 H 1179.02 -0.432728 -0.503629 0
M  V30 12351 H 1181.55 -1.74322 -1.07112 0
M  V30 12352 H 1181.56 -2.11452 -3.4893 0
M  V30 12353 H 1180.24 -3.05448 -2.82266 0
M  V30 12354 H 1178.82 -1.34437 -3.47823 0
M  V30 12355 N 1181 1.07532 -1.15215 0
M  V30 12356 C 1182.25 1.80093 -0.925891 0
M  V30 12357 C 1182.58 1.86648 0.547079 0
M  V30 12358 O 1181.83 1.34492 1.42164 0
M  V30 12359 C 1182.13 3.2518 -1.483 0
M  V30 12360 C 1181.8 3.38728 -2.97614 0
M  V30 12361 C 1180.46 3.42133 -3.38376 0
M  V30 12362 C 1182.81 3.41676 -3.93583 0
M  V30 12363 C 1180.14 3.46086 -4.73752 0
M  V30 12364 C 1182.49 3.47166 -5.28828 0
M  V30 12365 C 1181.15 3.48847 -5.69089 0
M  V30 12366 H 1180.42 0.659007 -0.338808 0
M  V30 12367 H 1183.07 1.26548 -1.43728 0
M  V30 12368 H 1181.38 3.81493 -0.892751 0
M  V30 12369 H 1183.07 3.79895 -1.28376 0
M  V30 12370 H 1179.66 3.36775 -2.65105 0
M  V30 12371 H 1183.85 3.38268 -3.63165 0
M  V30 12372 H 1179.1 3.45686 -5.04293 0
M  V30 12373 H 1183.28 3.48393 -6.02989 0
M  V30 12374 H 1180.9 3.51663 -6.73971 0
M  V30 12375 N 1182.48 0.948665 1.2585 0
M  V30 12376 C 1183.41 0.482036 2.2847 0
M  V30 12377 C 1184.39 -0.468553 1.63519 0
M  V30 12378 O 1185.58 -0.368796 1.90666 0
M  V30 12379 C 1182.71 -0.246603 3.46423 0
M  V30 12380 C 1181.66 0.61815 4.23513 0
M  V30 12381 C 1180.99 -0.240884 5.34157 0
M  V30 12382 C 1182.29 1.89327 4.86778 0
M  V30 12383 H 1183.98 1.33973 2.67753 0
M  V30 12384 H 1181.53 0.645645 1.28715 0
M  V30 12385 H 1183.48 -0.584135 4.17332 0
M  V30 12386 H 1182.2 -1.13849 3.06114 0
M  V30 12387 H 1180.86 0.938682 3.54379 0
M  V30 12388 H 1180.51 -1.13235 4.90089 0
M  V30 12389 H 1180.21 0.334367 5.86648 0
M  V30 12390 H 1181.73 -0.573517 6.07901 0
M  V30 12391 H 1183.15 1.62252 5.49861 0
M  V30 12392 H 1181.55 2.41369 5.49419 0
M  V30 12393 H 1182.62 2.60006 4.09298 0
M  V30 12394 N 1183.96 -1.40369 0.716545 0
M  V30 12395 C 1184.89 -2.33365 0.0793533 0
M  V30 12396 C 1185.87 -1.52943 -0.744482 0
M  V30 12397 O 1187.05 -1.81406 -0.693212 0
M  V30 12398 C 1184.18 -3.36928 -0.842429 0
M  V30 12399 C 1183.14 -4.2782 -0.124142 0
M  V30 12400 C 1182.46 -5.21928 -1.1617 0
M  V30 12401 C 1183.76 -5.12199 1.02224 0
M  V30 12402 H 1185.46 -2.86899 0.856115 0
M  V30 12403 H 1183 -1.37946 0.413138 0
M  V30 12404 H 1184.96 -4.00925 -1.29759 0
M  V30 12405 H 1183.68 -2.81791 -1.6511 0
M  V30 12406 H 1182.34 -3.65277 0.311201 0
M  V30 12407 H 1181.99 -4.63096 -1.96345 0
M  V30 12408 H 1181.69 -5.83582 -0.685978 0
M  V30 12409 H 1183.21 -5.88802 -1.61694 0
M  V30 12410 H 1184.63 -5.69644 0.646399 0
M  V30 12411 H 1183.02 -5.82901 1.4264 0
M  V30 12412 H 1184.09 -4.4812 1.85246 0
M  V30 12413 N 1185.44 -0.462799 -1.50652 0
M  V30 12414 C 1186.37 0.325724 -2.31217 0
M  V30 12415 C 1187.35 0.997942 -1.3775 0
M  V30 12416 O 1188.53 0.996707 -1.66671 0
M  V30 12417 C 1185.66 1.41283 -3.17264 0
M  V30 12418 C 1184.62 0.862687 -4.19216 0
M  V30 12419 C 1183.94 2.04746 -4.93946 0
M  V30 12420 C 1185.24 -0.120365 -5.22161 0
M  V30 12421 H 1186.94 -0.346666 -2.97386 0
M  V30 12422 H 1184.48 -0.168163 -1.43015 0
M  V30 12423 H 1186.44 1.97188 -3.72418 0
M  V30 12424 H 1185.16 2.11387 -2.48964 0
M  V30 12425 H 1183.82 0.325671 -3.65151 0
M  V30 12426 H 1183.47 2.73529 -4.22127 0
M  V30 12427 H 1183.17 1.68562 -5.62904 0
M  V30 12428 H 1184.69 2.61157 -5.51932 0
M  V30 12429 H 1186.1 0.349226 -5.72235 0
M  V30 12430 H 1184.5 -0.396061 -5.98792 0
M  V30 12431 H 1185.57 -1.04895 -4.73418 0
M  V30 12432 N 1186.91 1.56388 -0.195085 0
M  V30 12433 C 1188.16 1.97872 0.444344 0
M  V30 12434 C 1188.49 1.0819 1.61271 0
M  V30 12435 O 1187.77 0.133904 1.94039 0
M  V30 12436 C 1188.05 3.48556 0.90449 0
M  V30 12437 C 1187.9 4.49015 -0.265693 0
M  V30 12438 C 1189.22 4.02938 1.76999 0
M  V30 12439 H 1186.34 0.719413 0.160041 0
M  V30 12440 H 1188.98 1.87835 -0.286005 0
M  V30 12441 H 1187.13 3.5724 1.52682 0
M  V30 12442 H 1188.81 4.52368 -0.903363 0
M  V30 12443 H 1187.05 4.23987 -0.917462 0
M  V30 12444 H 1187.72 5.51912 0.0987834 0
M  V30 12445 H 1190.2 3.97033 1.24514 0
M  V30 12446 H 1189.07 5.08741 2.06092 0
M  V30 12447 H 1189.33 3.48197 2.72418 0
M  V30 12448 N 1188.39 -0.0785156 1.57404 0
M  V30 12449 C 1189.32 -1.09446 2.06262 0
M  V30 12450 C 1190.3 -1.40777 0.954772 0
M  V30 12451 O 1191.49 -1.5052 1.22708 0
M  V30 12452 C 1188.62 -2.40979 2.50093 0
M  V30 12453 C 1187.57 -2.24017 3.64692 0
M  V30 12454 C 1186.9 -3.60873 3.94556 0
M  V30 12455 C 1188.2 -1.66696 4.94985 0
M  V30 12456 H 1189.89 -0.687928 2.9139 0
M  V30 12457 H 1187.44 -0.329466 1.4018 0
M  V30 12458 H 1189.39 -3.12337 2.82884 0
M  V30 12459 H 1188.12 -2.83599 1.61985 0
M  V30 12460 H 1186.77 -1.55101 3.32174 0
M  V30 12461 H 1186.42 -4.01051 3.0359 0
M  V30 12462 H 1186.12 -3.50365 4.71718 0
M  V30 12463 H 1187.65 -4.33673 4.29837 0
M  V30 12464 H 1189.06 -2.27913 5.2605 0
M  V30 12465 H 1187.46 -1.66902 5.76423 0
M  V30 12466 H 1188.53 -0.627827 4.80818 0
M  V30 12467 N 1189.87 -1.5367 -0.349747 0
M  V30 12468 C 1190.83 -1.80533 -1.41211 0
M  V30 12469 C 1191.83 -0.676188 -1.45892 0
M  V30 12470 O 1193.02 -0.944453 -1.46375 0
M  V30 12471 C 1190.16 -1.94175 -2.80195 0
M  V30 12472 H 1191.35 -2.75428 -1.18658 0
M  V30 12473 H 1188.9 -1.44988 -0.583787 0
M  V30 12474 H 1189.64 -1.01402 -3.08039 0
M  V30 12475 H 1189.42 -2.76316 -2.78194 0
M  V30 12476 H 1190.91 -2.16496 -3.57098 0
M  V30 12477 N 1191.35 0.610423 -1.45298 0
M  V30 12478 C 1192.28 1.73207 -1.56594 0
M  V30 12479 C 1193.26 1.64893 -0.417651 0
M  V30 12480 O 1194.44 1.83336 -0.64043 0
M  V30 12481 C 1191.57 3.11803 -1.52959 0
M  V30 12482 C 1190.53 3.34925 -2.66475 0
M  V30 12483 C 1189.85 4.73764 -2.47894 0
M  V30 12484 C 1191.15 3.25456 -4.08504 0
M  V30 12485 H 1192.85 1.6401 -2.50482 0
M  V30 12486 H 1190.39 0.787621 -1.20551 0
M  V30 12487 H 1192.35 3.90065 -1.59458 0
M  V30 12488 H 1191.07 3.21833 -0.55599 0
M  V30 12489 H 1189.73 2.59051 -2.59399 0
M  V30 12490 H 1189.38 4.80524 -1.4868 0
M  V30 12491 H 1189.08 4.90191 -3.24016 0
M  V30 12492 H 1190.6 5.54231 -2.56243 0
M  V30 12493 H 1192.02 3.93597 -4.16839 0
M  V30 12494 H 1190.41 3.53414 -4.84994 0
M  V30 12495 H 1191.48 2.22939 -4.30612 0
M  V30 12496 N 1192.83 1.32541 0.852676 0
M  V30 12497 C 1194.24 1.20863 1.42299 0
M  V30 12498 C 1194.59 -0.178051 1.9539 0
M  V30 12499 O 1193.71 -1.07689 1.87702 0
M  V30 12500 C 1194.31 2.18811 2.58664 0
M  V30 12501 C 1192.87 2.11015 3.11689 0
M  V30 12502 C 1192.01 2.07067 1.84441 0
M  V30 12503 H 1194.97 1.44341 0.659657 0
M  V30 12504 H 1194.99 1.78779 3.35884 0
M  V30 12505 H 1194.5 3.19726 2.19993 0
M  V30 12506 H 1192.6 1.13354 3.54939 0
M  V30 12507 H 1192.71 3.00929 3.72799 0
M  V30 12508 H 1191.08 1.52335 2.04123 0
M  V30 12509 H 1191.86 3.09767 1.47984 0
M  V30 12510 N 1194.3 -1.0692 1.15784 0
M  V30 12511 C 1195.24 -2.14168 0.816375 0
M  V30 12512 C 1196.25 -1.61872 -0.17357 0
M  V30 12513 O 1197.44 -1.78429 0.0502973 0
M  V30 12514 C 1194.54 -3.38346 0.193682 0
M  V30 12515 C 1193.71 -4.19979 1.22215 0
M  V30 12516 C 1192.77 -5.2253 0.620424 0
M  V30 12517 O 1191.8 -5.54446 1.28757 0
M  V30 12518 N 1193 -5.77434 -0.595811 0
M  V30 12519 H 1195.76 -2.44062 1.73937 0
M  V30 12520 H 1193.32 -1.22865 1.05431 0
M  V30 12521 H 1195.32 -4.04092 -0.22174 0
M  V30 12522 H 1193.89 -3.06129 -0.632735 0
M  V30 12523 H 1193.11 -3.49984 1.81397 0
M  V30 12524 H 1194.39 -4.71329 1.91641 0
M  V30 12525 H 1193.79 -5.5376 -1.15611 0
M  V30 12526 H 1192.35 -6.44788 -0.953529 0
M  V30 12527 N 1195.78 -0.955326 -1.25345 0
M  V30 12528 C 1196.71 -0.4334 -2.25065 0
M  V30 12529 C 1197.73 0.451099 -1.56425 0
M  V30 12530 O 1198.92 0.259265 -1.76607 0
M  V30 12531 C 1196.02 0.394809 -3.36592 0
M  V30 12532 C 1195.19 -0.476856 -4.34793 0
M  V30 12533 C 1194.25 0.293269 -5.25382 0
M  V30 12534 O 1193.27 -0.30857 -5.68363 0
M  V30 12535 N 1194.48 1.58617 -5.58409 0
M  V30 12536 H 1197.24 -1.29073 -2.70482 0
M  V30 12537 H 1194.8 -0.825764 -1.39258 0
M  V30 12538 H 1196.79 0.917747 -3.94157 0
M  V30 12539 H 1195.36 1.153 -2.90559 0
M  V30 12540 H 1194.58 -1.18089 -3.76097 0
M  V30 12541 H 1195.87 -1.07178 -4.97384 0
M  V30 12542 H 1195.27 2.09705 -5.25395 0
M  V30 12543 H 1193.83 2.05506 -6.18555 0
M  V30 12544 N 1197.26 1.39987 -0.723979 0
M  V30 12545 C 1198.22 2.29041 -0.0854583 0
M  V30 12546 C 1199.22 1.45777 0.678657 0
M  V30 12547 O 1200.41 1.66588 0.509311 0
M  V30 12548 C 1197.55 3.29115 0.88859 0
M  V30 12549 H 1198.74 2.87006 -0.869903 0
M  V30 12550 H 1196.29 1.48449 -0.489136 0
M  V30 12551 H 1197.03 2.76184 1.69979 0
M  V30 12552 H 1196.81 3.90593 0.343454 0
M  V30 12553 H 1198.3 3.95778 1.33227 0
M  V30 12554 N 1198.74 0.470782 1.50404 0
M  V30 12555 C 1199.97 -0.0818945 2.06438 0
M  V30 12556 C 1200.38 -1.34085 1.33483 0
M  V30 12557 O 1199.72 -1.79346 0.397565 0
M  V30 12558 C 1199.78 -0.436252 3.56843 0
M  V30 12559 C 1199.45 0.720641 4.51282 0
M  V30 12560 C 1200.44 1.60258 4.94584 0
M  V30 12561 C 1198.13 0.910879 4.93972 0
M  V30 12562 C 1200.12 2.65916 5.79282 0
M  V30 12563 C 1197.81 1.97069 5.78452 0
M  V30 12564 C 1198.81 2.84319 6.21008 0
M  V30 12565 O 1198.5 3.88476 7.03805 0
M  V30 12566 H 1198.23 0.00361688 0.67599 0
M  V30 12567 H 1200.78 0.658488 1.94559 0
M  V30 12568 H 1199.01 -1.22982 3.66623 0
M  V30 12569 H 1200.7 -0.923976 3.95244 0
M  V30 12570 H 1201.47 1.46729 4.62272 0
M  V30 12571 H 1197.35 0.241225 4.60368 0
M  V30 12572 H 1200.89 3.3405 6.12419 0
M  V30 12573 H 1196.79 2.10605 6.10177 0
M  V30 12574 H 1197.55 3.8546 7.22054 0
M  V30 12575 N 1200.22 -1.56282 0.203376 0
M  V30 12576 C 1201.18 -2.18233 -0.700489 0
M  V30 12577 C 1202.18 -1.13908 -1.13497 0
M  V30 12578 O 1203.37 -1.39246 -1.04672 0
M  V30 12579 C 1200.5 -2.79107 -1.95735 0
M  V30 12580 H 1201.7 -2.99469 -0.160649 0
M  V30 12581 H 1199.25 -1.56232 -0.0462475 0
M  V30 12582 H 1199.98 -2.01691 -2.53951 0
M  V30 12583 H 1199.77 -3.55486 -1.65446 0
M  V30 12584 H 1201.26 -3.2665 -2.60172 0
M  V30 12585 N 1201.7 0.070167 -1.57444 0
M  V30 12586 C 1202.63 1.08351 -2.06839 0
M  V30 12587 C 1203.61 1.40269 -0.962224 0
M  V30 12588 O 1204.79 1.49867 -1.23505 0
M  V30 12589 C 1201.92 2.39649 -2.51368 0
M  V30 12590 C 1200.88 2.22079 -3.65875 0
M  V30 12591 C 1200.2 3.58776 -3.96464 0
M  V30 12592 C 1201.5 1.64069 -4.95862 0
M  V30 12593 H 1203.2 0.672465 -2.9175 0
M  V30 12594 H 1200.74 0.322027 -1.40353 0
M  V30 12595 H 1202.69 3.10833 -2.84537 0
M  V30 12596 H 1201.42 2.82736 -1.63487 0
M  V30 12597 H 1200.08 1.53337 -3.32992 0
M  V30 12598 H 1199.73 3.99436 -3.05712 0
M  V30 12599 H 1199.43 3.47859 -4.7357 0
M  V30 12600 H 1200.95 4.31387 -4.32131 0
M  V30 12601 H 1202.36 2.2512 -5.27251 0
M  V30 12602 H 1200.76 1.63843 -5.773 0
M  V30 12603 H 1201.83 0.60232 -4.81145 0
M  V30 12604 N 1203.17 1.53854 0.341593 0
M  V30 12605 C 1204.45 1.61823 1.09875 0
M  V30 12606 C 1204.83 0.440711 2.06448 0
M  V30 12607 O 1204.18 -0.566833 2.21358 0
M  V30 12608 C 1204.39 2.9799 1.81668 0
M  V30 12609 C 1205.74 3.53411 2.35341 0
M  V30 12610 O 1206.76 3.00177 1.91761 0
M  V30 12611 O 1205.62 4.4653 3.15076 0
M  V30 12612 H 1202.71 0.654599 0.5054 0
M  V30 12613 H 1205.26 1.66199 0.342929 0
M  V30 12614 H 1204.03 3.7513 1.11323 0
M  V30 12615 H 1203.65 2.97213 2.64103 0
M  V30 12616 N 1204.65 -0.602709 1.4562 0
M  V30 12617 C 1205.61 -1.69508 1.54271 0
M  V30 12618 C 1206.61 -1.55171 0.421727 0
M  V30 12619 O 1207.8 -1.60151 0.685375 0
M  V30 12620 C 1204.94 -3.0881 1.44392 0
M  V30 12621 H 1206.13 -1.63203 2.51605 0
M  V30 12622 H 1203.68 -0.818857 1.33133 0
M  V30 12623 H 1204.42 -3.20689 0.482614 0
M  V30 12624 H 1204.2 -3.20625 2.25704 0
M  V30 12625 H 1205.69 -3.8837 1.53488 0
M  V30 12626 N 1206.13 -1.32992 -0.845635 0
M  V30 12627 C 1207.09 -1.22607 -1.9365 0
M  V30 12628 C 1208.09 -0.146812 -1.60128 0
M  V30 12629 O 1209.28 -0.397863 -1.69596 0
M  V30 12630 C 1206.41 -0.887677 -3.2914 0
M  V30 12631 H 1207.61 -2.19563 -2.04285 0
M  V30 12632 H 1205.16 -1.16952 -1.03691 0
M  V30 12633 H 1205.9 0.0796777 -3.24202 0
M  V30 12634 H 1205.68 -1.66808 -3.54849 0
M  V30 12635 H 1207.17 -0.83958 -4.09073 0
M  V30 12636 N 1207.61 1.06304 -1.1635 0
M  V30 12637 C 1208.52 2.17296 -0.884289 0
M  V30 12638 C 1209.53 1.73408 0.143414 0
M  V30 12639 O 1210.71 2.01373 -0.0331987 0
M  V30 12640 C 1207.77 3.44509 -0.389163 0
M  V30 12641 C 1206.84 4.02906 -1.48208 0
M  V30 12642 C 1206.07 5.24047 -1.01048 0
M  V30 12643 O 1206.29 5.70229 0.139821 0
M  V30 12644 O 1205.23 5.74394 -1.79876 0
M  V30 12645 H 1209.05 2.4369 -1.81243 0
M  V30 12646 H 1206.64 1.15841 -0.943459 0
M  V30 12647 H 1208.52 4.21229 -0.120018 0
M  V30 12648 H 1207.19 3.19642 0.510968 0
M  V30 12649 H 1206.1 3.27677 -1.80496 0
M  V30 12650 H 1207.43 4.32068 -2.35751 0
M  V30 12651 N 1209.09 0.96196 1.24836 0
M  V30 12652 C 1210.02 0.445329 2.24832 0
M  V30 12653 C 1211.03 -0.442797 1.56663 0
M  V30 12654 O 1212.22 -0.249896 1.76742 0
M  V30 12655 C 1209.32 -0.376953 3.36797 0
M  V30 12656 C 1208.49 0.499908 4.34534 0
M  V30 12657 C 1207.55 -0.265402 5.2553 0
M  V30 12658 O 1206.58 0.338707 5.68191 0
M  V30 12659 N 1207.78 -1.55654 5.59243 0
M  V30 12660 H 1210.54 1.30505 2.69793 0
M  V30 12661 H 1208.11 0.833137 1.38818 0
M  V30 12662 H 1210.1 -0.896831 3.94638 0
M  V30 12663 H 1208.67 -1.13757 2.91167 0
M  V30 12664 H 1207.89 1.20082 3.75465 0
M  V30 12665 H 1209.18 1.09814 4.96808 0
M  V30 12666 H 1208.57 -2.06916 5.265 0
M  V30 12667 H 1207.13 -2.02223 6.19636 0
M  V30 12668 N 1210.56 -1.39601 0.731392 0
M  V30 12669 C 1211.81 -2.0019 0.277208 0
M  V30 12670 C 1212.13 -1.5832 -1.13841 0
M  V30 12671 O 1211.4 -0.829793 -1.77458 0
M  V30 12672 H 1209.98 -0.740344 0.0995006 0
M  V30 12673 H 1212.64 -1.70704 0.940547 0
M  V30 12674 H 1211.74 -3.10427 0.322749 0
M  V30 12675 N 1212.04 -0.478751 -1.50152 0
M  V30 12676 C 1212.95 0.316554 -2.32455 0
M  V30 12677 C 1213.97 0.98871 -1.4318 0
M  V30 12678 O 1215.14 0.974998 -1.76226 0
M  V30 12679 C 1212.21 1.3799 -3.18056 0
M  V30 12680 C 1211.27 0.723534 -4.23159 0
M  V30 12681 C 1210.5 1.73621 -5.0467 0
M  V30 12682 O 1210.73 2.96362 -4.87366 0
M  V30 12683 O 1209.66 1.30381 -5.87609 0
M  V30 12684 H 1213.49 -0.356491 -3.016 0
M  V30 12685 H 1211.07 -0.24046 -1.47452 0
M  V30 12686 H 1212.95 1.99565 -3.71149 0
M  V30 12687 H 1211.63 2.03627 -2.5163 0
M  V30 12688 H 1210.54 0.0686296 -3.74037 0
M  V30 12689 H 1211.87 0.109979 -4.92077 0
M  V30 12690 N 1213.52 1.56172 -0.211661 0
M  V30 12691 C 1214.45 2.22843 0.697375 0
M  V30 12692 C 1215.43 1.19689 1.20866 0
M  V30 12693 O 1216.62 1.48245 1.25447 0
M  V30 12694 C 1213.75 2.90067 1.90993 0
M  V30 12695 C 1212.7 3.99608 1.5329 0
M  V30 12696 C 1212.03 4.54078 2.82343 0
M  V30 12697 C 1213.33 5.17169 0.730333 0
M  V30 12698 H 1215.02 2.99065 0.141533 0
M  V30 12699 H 1212.57 1.43846 0.0666337 0
M  V30 12700 H 1214.52 3.35396 2.55123 0
M  V30 12701 H 1213.24 2.11276 2.49058 0
M  V30 12702 H 1211.9 3.54995 0.915115 0
M  V30 12703 H 1211.55 3.72029 3.38531 0
M  V30 12704 H 1211.25 5.28001 2.57853 0
M  V30 12705 H 1212.77 5.02119 3.47432 0
M  V30 12706 H 1214.19 5.5894 1.2751 0
M  V30 12707 H 1212.59 5.97262 0.582916 0
M  V30 12708 H 1213.66 4.84174 -0.265157 0
M  V30 12709 N 1215 -0.0618163 1.57479 0
M  V30 12710 C 1216.25 -0.757569 1.87364 0
M  V30 12711 C 1216.57 -1.77607 0.805025 0
M  V30 12712 O 1215.84 -1.95202 -0.165216 0
M  V30 12713 H 1214.42 -0.28278 0.691408 0
M  V30 12714 H 1217.08 -0.0355354 1.94868 0
M  V30 12715 H 1216.18 -1.26758 2.85199 0
M  V30 12716 N 1216.48 -1.54033 -0.333429 0
M  V30 12717 C 1217.41 -1.85719 -1.4153 0
M  V30 12718 C 1218.39 -0.713144 -1.54429 0
M  V30 12719 O 1219.57 -0.965984 -1.68471 0
M  V30 12720 C 1216.7 -2.07578 -2.78439 0
M  V30 12721 C 1215.66 -3.23411 -2.80338 0
M  V30 12722 C 1214.98 -3.30622 -4.2023 0
M  V30 12723 C 1216.28 -4.6129 -2.44968 0
M  V30 12724 H 1217.98 -2.76325 -1.15261 0
M  V30 12725 H 1215.52 -1.32957 -0.55303 0
M  V30 12726 H 1217.48 -2.28329 -3.5418 0
M  V30 12727 H 1216.2 -1.13713 -3.06165 0
M  V30 12728 H 1214.86 -3.02531 -2.07052 0
M  V30 12729 H 1214.51 -2.34333 -4.45081 0
M  V30 12730 H 1214.21 -4.08466 -4.22409 0
M  V30 12731 H 1215.73 -3.53596 -4.97798 0
M  V30 12732 H 1217.14 -4.81987 -3.10421 0
M  V30 12733 H 1215.54 -5.41611 -2.58414 0
M  V30 12734 H 1216.61 -4.6421 -1.40134 0
M  V30 12735 N 1217.95 0.594978 -1.45938 0
M  V30 12736 C 1218.92 1.68688 -1.55168 0
M  V30 12737 C 1219.92 1.54945 -0.429951 0
M  V30 12738 O 1221.11 1.59785 -0.693859 0
M  V30 12739 C 1218.24 3.0804 -1.46027 0
M  V30 12740 H 1219.43 1.61866 -2.52467 0
M  V30 12741 H 1216.99 0.811785 -1.33565 0
M  V30 12742 H 1217.72 3.20428 -0.499614 0
M  V30 12743 H 1217.51 3.19423 -2.27401 0
M  V30 12744 H 1219 3.8755 -1.55546 0
M  V30 12745 N 1219.43 1.33438 0.838571 0
M  V30 12746 C 1220.68 1.24259 1.58879 0
M  V30 12747 C 1220.99 -0.189957 1.94675 0
M  V30 12748 O 1222.2 -0.40376 2.68481 0
M  V30 12749 C 1220.66 2.1773 2.86569 0
M  V30 12750 C 1220.26 3.66156 2.58135 0
M  V30 12751 C 1222.01 2.17424 3.64591 0
M  V30 12752 C 1219.92 4.5154 3.81923 0
M  V30 12753 H 1218.85 0.461534 0.59624 0
M  V30 12754 H 1221.5 1.58504 0.924588 0
M  V30 12755 H 1219.88 1.76418 3.54532 0
M  V30 12756 H 1221.05 4.1591 1.98382 0
M  V30 12757 H 1219.37 3.68754 1.93416 0
M  V30 12758 H 1221.96 2.78446 4.56478 0
M  V30 12759 H 1222.31 1.16939 3.99539 0
M  V30 12760 H 1222.84 2.571 3.03553 0
M  V30 12761 H 1219.58 5.52902 3.52107 0
M  V30 12762 H 1219.1 4.06529 4.41015 0
M  V30 12763 H 1220.78 4.65359 4.495 0
M  V30 12764 N 1220.91 -1.05686 1.16912 0
M  V30 12765 C 1221.84 -2.15268 0.904532 0
M  V30 12766 C 1222.82 -1.69424 -0.151548 0
M  V30 12767 O 1224.01 -1.942 -0.00235371 0
M  V30 12768 C 1221.14 -3.44853 0.411581 0
M  V30 12769 C 1220.09 -4.04237 1.40628 0
M  V30 12770 C 1219.42 -5.29105 0.771479 0
M  V30 12771 C 1220.72 -4.42303 2.77787 0
M  V30 12772 H 1222.41 -2.37659 1.82094 0
M  V30 12773 H 1219.96 -1.14217 0.876947 0
M  V30 12774 H 1221.91 -4.20857 0.213929 0
M  V30 12775 H 1220.63 -3.22099 -0.540352 0
M  V30 12776 H 1219.29 -3.30297 1.59058 0
M  V30 12777 H 1218.94 -5.02652 -0.187133 0
M  V30 12778 H 1218.64 -5.69797 1.43545 0
M  V30 12779 H 1220.16 -6.07801 0.583988 0
M  V30 12780 H 1221.58 -5.09362 2.63103 0
M  V30 12781 H 1219.98 -4.93997 3.40716 0
M  V30 12782 H 1221.05 -3.52877 3.32575 0
M  V30 12783 N 1222.39 -0.968567 -1.24324 0
M  V30 12784 C 1223.63 -0.631863 -1.92705 0
M  V30 12785 C 1223.97 0.83096 -1.75524 0
M  V30 12786 O 1223.24 1.59795 -1.10887 0
M  V30 12787 C 1223.53 -1.00845 -3.45691 0
M  V30 12788 C 1223.38 -2.52803 -3.72036 0
M  V30 12789 C 1224.7 -0.543647 -4.36729 0
M  V30 12790 H 1221.82 -0.231027 -0.699854 0
M  V30 12791 H 1224.46 -1.20773 -1.46676 0
M  V30 12792 H 1222.61 -0.518434 -3.85025 0
M  V30 12793 H 1224.28 -3.09289 -3.42255 0
M  V30 12794 H 1222.52 -2.95963 -3.17157 0
M  V30 12795 H 1223.19 -2.74203 -4.79079 0
M  V30 12796 H 1225.67 -0.964182 -4.04775 0
M  V30 12797 H 1224.55 -0.8357 -5.42501 0
M  V30 12798 H 1224.81 0.556256 -4.38587 0
M  V30 12799 N 1223.87 1.39211 -0.738786 0
M  V30 12800 C 1225.12 1.99673 -0.285254 0
M  V30 12801 C 1225.43 1.59297 1.13507 0
M  V30 12802 O 1226.63 2.12622 1.68832 0
M  V30 12803 C 1225.09 3.5696 -0.45906 0
M  V30 12804 C 1224.7 4.06297 -1.88751 0
M  V30 12805 C 1226.44 4.24446 -0.0674954 0
M  V30 12806 C 1224.35 5.56171 -2.01067 0
M  V30 12807 H 1223.28 0.746945 -0.102901 0
M  V30 12808 H 1225.93 1.59163 -0.913209 0
M  V30 12809 H 1224.31 3.95285 0.23785 0
M  V30 12810 H 1225.49 3.79297 -2.61669 0
M  V30 12811 H 1223.8 3.51486 -2.23264 0
M  V30 12812 H 1226.4 5.34521 -0.138475 0
M  V30 12813 H 1226.74 4.04653 0.977823 0
M  V30 12814 H 1227.27 3.91309 -0.715704 0
M  V30 12815 H 1224.01 5.80849 -3.03801 0
M  V30 12816 H 1223.53 5.84961 -1.32591 0
M  V30 12817 H 1225.21 6.21642 -1.79362 0
M  V30 12818 N 1225.34 0.486708 1.49896 0
M  V30 12819 C 1226.59 -0.0646197 2.01596 0
M  V30 12820 C 1226.91 -1.39363 1.37249 0
M  V30 12821 O 1228.11 -2.03082 1.80194 0
M  V30 12822 C 1226.57 -0.16565 3.59519 0
M  V30 12823 C 1226.18 1.15586 4.32832 0
M  V30 12824 C 1227.92 -0.668103 4.1921 0
M  V30 12825 C 1225.83 1.01778 5.82576 0
M  V30 12826 H 1224.76 -0.0279241 0.753483 0
M  V30 12827 H 1227.41 0.623969 1.72566 0
M  V30 12828 H 1225.79 -0.918372 3.85204 0
M  V30 12829 H 1226.96 1.92076 4.1886 0
M  V30 12830 H 1225.28 1.59064 3.84822 0
M  V30 12831 H 1227.88 -0.788698 5.28851 0
M  V30 12832 H 1228.22 -1.66339 3.81624 0
M  V30 12833 H 1228.75 0.0276746 3.9779 0
M  V30 12834 H 1225.49 1.9869 6.24662 0
M  V30 12835 H 1225.01 0.293527 5.99081 0
M  V30 12836 H 1226.69 0.690693 6.43303 0
M  V30 12837 N 1226.82 -1.56058 0.219941 0
M  V30 12838 C 1228.05 -2.031 -0.42014 0
M  V30 12839 C 1228.47 -1.09875 -1.52673 0
M  V30 12840 O 1227.83 -0.0866458 -1.81093 0
M  V30 12841 C 1227.88 -3.48389 -0.93047 0
M  V30 12842 O 1226.98 -3.583 -2.04192 0
M  V30 12843 H 1226.32 -0.657129 -0.0952772 0
M  V30 12844 H 1228.85 -2.01787 0.338105 0
M  V30 12845 H 1228.86 -3.88678 -1.2407 0
M  V30 12846 H 1227.54 -4.15725 -0.120539 0
M  V30 12847 H 1226.12 -3.29898 -1.73845 0
M  V30 12848 N 1228.3 0.053464 -1.57509 0
M  V30 12849 C 1229.55 0.748016 -1.87317 0
M  V30 12850 C 1229.86 1.77805 -0.815161 0
M  V30 12851 O 1231.07 2.52347 -1.00167 0
M  V30 12852 C 1229.53 1.38137 -3.32334 0
M  V30 12853 C 1229.13 0.388958 -4.46308 0
M  V30 12854 C 1230.88 2.05722 -3.7132 0
M  V30 12855 C 1228.78 1.02927 -5.82374 0
M  V30 12856 H 1227.71 0.283123 -0.698826 0
M  V30 12857 H 1230.37 0.00170723 -1.835 0
M  V30 12858 H 1228.75 2.17656 -3.3082 0
M  V30 12859 H 1229.92 -0.377752 -4.59249 0
M  V30 12860 H 1228.24 -0.183447 -4.15996 0
M  V30 12861 H 1230.83 2.54437 -4.70283 0
M  V30 12862 H 1231.18 2.86475 -3.02056 0
M  V30 12863 H 1231.71 1.3301 -3.74904 0
M  V30 12864 H 1228.45 0.261674 -6.54977 0
M  V30 12865 H 1227.97 1.7664 -5.732 0
M  V30 12866 H 1229.65 1.54378 -6.28312 0
M  V30 12867 N 1229.78 1.54207 0.325255 0
M  V30 12868 C 1231.03 1.72331 1.0634 0
M  V30 12869 C 1231.35 0.496115 1.88066 0
M  V30 12870 O 1230.61 -0.52214 1.88606 0
M  V30 12871 C 1230.91 2.95 2.01766 0
M  V30 12872 C 1230.57 4.29835 1.36208 0
M  V30 12873 C 1229.24 4.66493 1.18059 0
M  V30 12874 C 1231.59 5.13521 0.891404 0
M  V30 12875 C 1228.92 5.84436 0.514894 0
M  V30 12876 C 1231.27 6.32146 0.239534 0
M  V30 12877 C 1229.93 6.67484 0.0458839 0
M  V30 12878 H 1229.2 0.630605 0.389125 0
M  V30 12879 H 1231.85 1.88445 0.34072 0
M  V30 12880 H 1230.15 2.73567 2.80479 0
M  V30 12881 H 1231.85 3.06217 2.58906 0
M  V30 12882 H 1228.44 4.00993 1.51335 0
M  V30 12883 H 1232.63 4.85718 1.01941 0
M  V30 12884 H 1227.88 6.10376 0.353644 0
M  V30 12885 H 1232.06 6.96273 -0.133185 0
M  V30 12886 H 1229.68 7.58733 -0.471978 0
M  V30 12887 N 1231.26 -0.58723 1.46251 0
M  V30 12888 C 1232.49 -1.37174 1.5489 0
M  V30 12889 C 1232.9 -1.87857 0.188445 0
M  V30 12890 O 1232.26 -1.63365 -0.813509 0
M  V30 12891 C 1232.31 -2.56237 2.55 0
M  V30 12892 O 1232.03 -2.07655 3.8576 0
M  V30 12893 C 1233.53 -3.48846 2.73535 0
M  V30 12894 H 1230.75 -0.419211 0.523931 0
M  V30 12895 H 1233.29 -0.714307 1.91619 0
M  V30 12896 H 1231.45 -3.1798 2.21287 0
M  V30 12897 H 1231.86 -2.85161 4.40208 0
M  V30 12898 H 1233.34 -4.2888 3.47514 0
M  V30 12899 H 1233.81 -4.00493 1.80282 0
M  V30 12900 H 1234.42 -2.92942 3.08326 0
M  V30 12901 N 1232.74 -1.33881 -0.831482 0
M  V30 12902 C 1233.67 -1.27384 -1.95693 0
M  V30 12903 C 1234.65 -0.152943 -1.69411 0
M  V30 12904 O 1235.83 -0.34392 -1.9113 0
M  V30 12905 C 1232.96 -1.01982 -3.31989 0
M  V30 12906 C 1231.92 -2.10445 -3.72689 0
M  V30 12907 C 1231.24 -1.70245 -5.06873 0
M  V30 12908 C 1232.54 -3.52194 -3.8569 0
M  V30 12909 H 1234.24 -2.21549 -2.01386 0
M  V30 12910 H 1231.78 -1.06653 -0.967526 0
M  V30 12911 H 1233.73 -0.960841 -4.103 0
M  V30 12912 H 1232.46 -0.0425709 -3.26572 0
M  V30 12913 H 1231.12 -2.15398 -2.96647 0
M  V30 12914 H 1230.77 -0.712036 -4.97935 0
M  V30 12915 H 1230.47 -2.42834 -5.35075 0
M  V30 12916 H 1231.99 -1.65827 -5.87651 0
M  V30 12917 H 1233.4 -3.49701 -4.54293 0
M  V30 12918 H 1231.8 -4.23331 -4.25336 0
M  V30 12919 H 1232.87 -3.9016 -2.87929 0
M  V30 12920 N 1234.21 1.05064 -1.1747 0
M  V30 12921 C 1235.44 1.81761 -0.988464 0
M  V30 12922 C 1235.86 1.83028 0.463272 0
M  V30 12923 O 1235.21 1.25846 1.32171 0
M  V30 12924 C 1235.26 3.2782 -1.5237 0
M  V30 12925 O 1234.99 3.26726 -2.91859 0
M  V30 12926 C 1236.49 4.212 -1.38223 0
M  V30 12927 H 1233.71 0.572712 -0.349631 0
M  V30 12928 H 1236.25 1.32477 -1.55789 0
M  V30 12929 H 1234.41 3.7437 -0.996272 0
M  V30 12930 H 1234.82 4.18151 -3.16623 0
M  V30 12931 H 1236.29 5.2166 -1.80485 0
M  V30 12932 H 1236.77 4.37962 -0.329491 0
M  V30 12933 H 1237.38 3.80506 -1.89988 0
M  V30 12934 N 1235.69 0.975146 1.23809 0
M  V30 12935 C 1237.1 0.678873 1.7392 0
M  V30 12936 C 1237.45 -0.805133 1.78919 0
M  V30 12937 O 1236.58 -1.62984 1.42356 0
M  V30 12938 C 1237.17 1.22562 3.15854 0
M  V30 12939 C 1235.73 0.979096 3.63443 0
M  V30 12940 C 1234.88 1.35649 2.41857 0
M  V30 12941 H 1237.83 1.14961 1.09406 0
M  V30 12942 H 1237.85 0.595489 3.75811 0
M  V30 12943 H 1237.36 2.30571 3.12184 0
M  V30 12944 H 1235.46 -0.0851407 3.72503 0
M  V30 12945 H 1235.58 1.62998 4.5052 0
M  V30 12946 H 1233.94 0.774916 2.42626 0
M  V30 12947 H 1234.72 2.44624 2.40861 0
M  V30 12948 N 1237.17 -1.38817 0.746158 0
M  V30 12949 C 1238.13 -2.28876 0.121886 0
M  V30 12950 C 1239.13 -1.46838 -0.655379 0
M  V30 12951 O 1240.32 -1.67377 -0.482744 0
M  V30 12952 C 1237.45 -3.30487 -0.836118 0
M  V30 12953 H 1238.65 -2.85586 0.915453 0
M  V30 12954 H 1236.2 -1.47652 0.512691 0
M  V30 12955 H 1236.94 -2.78853 -1.65563 0
M  V30 12956 H 1236.72 -3.9109 -0.281271 0
M  V30 12957 H 1238.21 -3.97848 -1.26914 0
M  V30 12958 N 1238.65 -0.49465 -1.49636 0
M  V30 12959 C 1239.88 0.0490417 -2.06542 0
M  V30 12960 C 1240.29 1.31945 -1.35599 0
M  V30 12961 O 1239.63 1.78691 -0.426047 0
M  V30 12962 C 1239.69 0.379426 -3.57492 0
M  V30 12963 C 1239.35 -0.792345 -4.50079 0
M  V30 12964 C 1240.35 -1.68106 -4.91972 0
M  V30 12965 C 1238.04 -0.98935 -4.9246 0
M  V30 12966 C 1240.03 -2.75099 -5.74978 0
M  V30 12967 C 1237.72 -2.06247 -5.75244 0
M  V30 12968 C 1238.72 -2.94163 -6.16407 0
M  V30 12969 O 1238.4 -3.99623 -6.97536 0
M  V30 12970 H 1238.14 -0.0143708 -0.675847 0
M  V30 12971 H 1240.69 -0.689358 -1.93486 0
M  V30 12972 H 1238.92 1.17133 -3.68533 0
M  V30 12973 H 1240.61 0.860979 -3.96664 0
M  V30 12974 H 1241.37 -1.54065 -4.59879 0
M  V30 12975 H 1237.25 -0.314435 -4.59926 0
M  V30 12976 H 1240.8 -3.4375 -6.07027 0
M  V30 12977 H 1236.69 -2.20285 -6.06749 0
M  V30 12978 H 1237.46 -3.96899 -7.15831 0
M  V30 12979 N 1240.13 1.55939 -0.228214 0
M  V30 12980 C 1241.07 2.20581 0.679157 0
M  V30 12981 C 1242.04 1.16355 1.18536 0
M  V30 12982 O 1243.23 1.44735 1.24324 0
M  V30 12983 C 1240.37 2.89477 1.87875 0
M  V30 12984 C 1239.48 4.08313 1.41083 0
M  V30 12985 C 1238.62 4.64974 2.56851 0
M  V30 12986 C 1237.65 5.76098 2.06828 0
M  V30 12987 N 1236.79 6.27021 3.15894 0
M  V30 12988 H 1241.63 2.97753 0.121203 0
M  V30 12989 H 1239.17 1.47021 0.0480688 0
M  V30 12990 H 1241.13 3.2761 2.58317 0
M  V30 12991 H 1239.76 2.14811 2.40948 0
M  V30 12992 H 1238.81 3.75621 0.601102 0
M  V30 12993 H 1240.12 4.8859 1.00408 0
M  V30 12994 H 1239.27 5.05584 3.35365 0
M  V30 12995 H 1238.01 3.83875 3.00818 0
M  V30 12996 H 1237.02 5.34984 1.26778 0
M  V30 12997 H 1238.24 6.59037 1.63852 0
M  V30 12998 H 1236.19 5.48833 3.5933 0
M  V30 12999 H 1236.11 7.02439 2.79491 0
M  V30 13000 H 1237.37 6.72289 3.94523 0
M  V30 13001 N 1241.6 -0.0451101 1.57535 0
M  V30 13002 C 1242.85 -0.738072 1.87711 0
M  V30 13003 C 1243.17 -1.7737 0.824579 0
M  V30 13004 O 1244.37 -2.51812 1.01503 0
M  V30 13005 C 1242.83 -1.36373 3.33062 0
M  V30 13006 C 1242.44 -0.365283 4.46508 0
M  V30 13007 C 1244.18 -2.0375 3.72406 0
M  V30 13008 C 1242.09 -0.998371 5.82912 0
M  V30 13009 H 1241.02 -0.279413 0.700317 0
M  V30 13010 H 1243.67 0.00802425 1.83498 0
M  V30 13011 H 1242.05 -2.15899 3.31969 0
M  V30 13012 H 1243.22 0.402102 4.59042 0
M  V30 13013 H 1241.54 0.205505 4.15893 0
M  V30 13014 H 1244.14 -2.51939 4.71625 0
M  V30 13015 H 1244.48 -2.84869 3.03571 0
M  V30 13016 H 1245.01 -1.3102 3.75604 0
M  V30 13017 H 1241.75 -0.226935 6.55107 0
M  V30 13018 H 1241.27 -1.73598 5.74129 0
M  V30 13019 H 1242.95 -1.51044 6.29122 0
M  V30 13020 N 1243.08 -1.54377 -0.317073 0
M  V30 13021 C 1244.01 -1.8721 -1.39552 0
M  V30 13022 C 1244.99 -0.729483 -1.53664 0
M  V30 13023 O 1246.18 -0.983799 -1.67437 0
M  V30 13024 C 1243.31 -2.1052 -2.76222 0
M  V30 13025 C 1242.26 -3.26366 -2.76892 0
M  V30 13026 C 1241.59 -3.35061 -4.16699 0
M  V30 13027 C 1242.89 -4.63862 -2.40061 0
M  V30 13028 H 1244.58 -2.77532 -1.12323 0
M  V30 13029 H 1242.13 -1.33536 -0.538897 0
M  V30 13030 H 1244.08 -2.32073 -3.51739 0
M  V30 13031 H 1242.81 -1.16953 -3.04942 0
M  V30 13032 H 1241.46 -3.0471 -2.03831 0
M  V30 13033 H 1241.11 -2.39041 -4.4257 0
M  V30 13034 H 1240.81 -4.12923 -4.18053 0
M  V30 13035 H 1242.34 -3.58856 -4.94019 0
M  V30 13036 H 1243.75 -4.85252 -3.05292 0
M  V30 13037 H 1242.15 -5.44321 -2.52655 0
M  V30 13038 H 1243.22 -4.6567 -1.35202 0
M  V30 13039 N 1244.56 0.579466 -1.4656 0
M  V30 13040 C 1245.49 1.69846 -1.60233 0
M  V30 13041 C 1246.47 1.6397 -0.452533 0
M  V30 13042 O 1247.66 1.81936 -0.679174 0
M  V30 13043 C 1244.79 3.08488 -1.59538 0
M  V30 13044 C 1243.74 3.29197 -2.7352 0
M  V30 13045 C 1243.07 4.684 -2.57887 0
M  V30 13046 C 1244.37 3.16718 -4.15315 0
M  V30 13047 H 1246.06 1.5866 -2.53904 0
M  V30 13048 H 1243.61 0.761873 -1.22194 0
M  V30 13049 H 1245.56 3.86595 -1.67696 0
M  V30 13050 H 1244.28 3.20581 -0.62413 0
M  V30 13051 H 1242.94 2.53491 -2.64836 0
M  V30 13052 H 1242.59 4.77262 -1.58839 0
M  V30 13053 H 1242.29 4.83208 -3.34341 0
M  V30 13054 H 1243.81 5.48671 -2.67942 0
M  V30 13055 H 1245.23 3.84666 -4.25094 0
M  V30 13056 H 1243.63 3.43047 -4.92381 0
M  V30 13057 H 1244.7 2.13755 -4.35244 0
M  V30 13058 N 1246.04 1.3432 0.824371 0
M  V30 13059 C 1247.26 1.2982 1.61745 0
M  V30 13060 C 1247.69 -0.125298 1.87682 0
M  V30 13061 O 1247.05 -1.08658 1.45131 0
M  V30 13062 C 1247.09 2.09327 2.93623 0
M  V30 13063 O 1246.2 1.4618 3.85623 0
M  V30 13064 H 1245.54 0.445929 0.491979 0
M  V30 13065 H 1248.07 1.77101 1.02452 0
M  V30 13066 H 1248.08 2.20629 3.43201 0
M  V30 13067 H 1246.75 3.12825 2.74069 0
M  V30 13068 H 1245.33 1.43611 3.44137 0
M  V30 13069 N 1247.52 -1.0444 1.18026 0
M  V30 13070 C 1248.93 -1.29766 0.929143 0
M  V30 13071 C 1249.13 -1.97338 -0.407436 0
M  V30 13072 O 1248.19 -2.25166 -1.14265 0
M  V30 13073 C 1249.5 -2.16002 2.09197 0
M  V30 13074 C 1251.05 -2.29361 2.12985 0
M  V30 13075 C 1251.52 -3.18962 3.28675 0
M  V30 13076 N 1253.02 -3.26549 3.28512 0
M  V30 13077 C 1253.75 -3.96025 4.14671 0
M  V30 13078 N 1253.25 -4.67863 5.10956 0
M  V30 13079 N 1255.04 -3.92266 4.02597 0
M  V30 13080 H 1247.19 -0.58984 2.04046 0
M  V30 13081 H 1249.45 -0.322752 0.891367 0
M  V30 13082 H 1249.16 -1.73653 3.05839 0
M  V30 13083 H 1249.03 -3.16667 2.04943 0
M  V30 13084 H 1251.42 -2.70948 1.16924 0
M  V30 13085 H 1251.5 -1.28299 2.21298 0
M  V30 13086 H 1251.15 -2.78087 4.25006 0
M  V30 13087 H 1251.08 -4.20047 3.17598 0
M  V30 13088 H 1253.57 -2.75371 2.58804 0
M  V30 13089 H 1253.88 -5.1846 5.73079 0
M  V30 13090 H 1252.22 -4.6678 5.14919 0
M  V30 13091 H 1255.42 -3.35273 3.26665 0
M  V30 13092 H 1255.59 -4.4614 4.69961 0
M  V30 13093 N 1248.99 -0.981699 -1.2329 0
M  V30 13094 C 1250.22 -0.669025 -1.96313 0
M  V30 13095 C 1250.64 0.757624 -1.72168 0
M  V30 13096 O 1250 1.51626 -0.993942 0
M  V30 13097 C 1250.05 -0.966875 -3.47396 0
M  V30 13098 O 1249.15 -0.0595933 -4.12357 0
M  V30 13099 H 1248.5 -0.251493 -0.61453 0
M  V30 13100 H 1251.03 -1.31564 -1.56691 0
M  V30 13101 H 1251.04 -0.904112 -3.97857 0
M  V30 13102 H 1249.71 -2.00651 -3.64296 0
M  V30 13103 H 1248.29 -0.176878 -3.7248 0
M  V30 13104 N 1250.47 1.3842 -0.753509 0
M  V30 13105 C 1251.72 2.00415 -0.310091 0
M  V30 13106 C 1252.05 1.59675 1.10532 0
M  V30 13107 O 1251.33 0.834261 1.757 0
M  V30 13108 C 1251.61 3.57488 -0.432897 0
M  V30 13109 C 1251.46 4.08193 -1.88941 0
M  V30 13110 C 1252.78 4.39757 0.173763 0
M  V30 13111 H 1249.9 0.728107 -0.114147 0
M  V30 13112 H 1252.54 1.64363 -0.953138 0
M  V30 13113 H 1250.69 3.88331 0.114563 0
M  V30 13114 H 1252.36 3.87993 -2.49517 0
M  V30 13115 H 1250.61 3.61063 -2.4045 0
M  V30 13116 H 1251.28 5.17291 -1.9265 0
M  V30 13117 H 1253.75 4.15066 -0.293137 0
M  V30 13118 H 1252.63 5.4887 0.057594 0
M  V30 13119 H 1252.89 4.23704 1.26205 0
M  V30 13120 N 1251.95 0.502579 1.49372 0
M  V30 13121 C 1253.2 -0.0334303 2.03373 0
M  V30 13122 C 1253.55 -1.34548 1.3753 0
M  V30 13123 O 1252.84 -1.84894 0.502484 0
M  V30 13124 C 1253.04 -0.240835 3.56588 0
M  V30 13125 C 1252.87 1.04956 4.37281 0
M  V30 13126 C 1251.64 1.6018 4.7924 0
M  V30 13127 C 1253.84 1.95323 4.75766 0
M  V30 13128 N 1251.82 2.83793 5.44366 0
M  V30 13129 C 1253.19 3.03516 5.40628 0
M  V30 13130 C 1255.24 1.95982 4.57707 0
M  V30 13131 C 1253.95 4.12396 5.89341 0
M  V30 13132 C 1255.97 3.03839 5.07382 0
M  V30 13133 C 1255.33 4.10749 5.72245 0
M  V30 13134 H 1251.43 0.0285863 0.781477 0
M  V30 13135 H 1254.02 0.677787 1.82522 0
M  V30 13136 H 1252.19 -0.921111 3.7732 0
M  V30 13137 H 1253.92 -0.773993 3.9723 0
M  V30 13138 H 1250.68 1.14674 4.59507 0
M  V30 13139 H 1251.1 3.46654 5.81515 0
M  V30 13140 H 1255.74 1.14632 4.06963 0
M  V30 13141 H 1253.46 4.94542 6.39104 0
M  V30 13142 H 1257.05 3.0537 4.95218 0
M  V30 13143 H 1255.93 4.92833 6.09988 0
M  V30 13144 N 1253.43 -1.55816 0.23648 0
M  V30 13145 C 1254.67 -1.99725 -0.384898 0
M  V30 13146 C 1255.03 -1.12169 -1.5632 0
M  V30 13147 O 1254.32 -0.17491 -1.908 0
M  V30 13148 C 1254.52 -3.47039 -0.85434 0
M  V30 13149 C 1254.35 -4.48847 0.276929 0
M  V30 13150 C 1253.12 -4.9973 0.748215 0
M  V30 13151 C 1255.31 -5.02391 1.10036 0
M  V30 13152 N 1253.3 -5.85267 1.85298 0
M  V30 13153 C 1254.67 -5.84998 2.0537 0
M  V30 13154 C 1256.72 -4.84718 1.1381 0
M  V30 13155 C 1255.42 -6.5182 3.04177 0
M  V30 13156 C 1257.45 -5.5231 2.11442 0
M  V30 13157 C 1256.81 -6.34697 3.05514 0
M  V30 13158 H 1252.91 -0.774632 -0.107094 0
M  V30 13159 H 1255.5 -1.91498 0.351673 0
M  V30 13160 H 1253.67 -3.55684 -1.56023 0
M  V30 13161 H 1255.4 -3.7784 -1.44979 0
M  V30 13162 H 1252.15 -4.7242 0.334178 0
M  V30 13163 H 1252.58 -6.32735 2.40782 0
M  V30 13164 H 1257.22 -4.20662 0.424703 0
M  V30 13165 H 1254.94 -7.15049 3.76471 0
M  V30 13166 H 1258.52 -5.40594 2.15056 0
M  V30 13167 H 1257.4 -6.86077 3.79827 0
M  V30 13168 N 1254.91 0.036755 -1.57557 0
M  V30 13169 C 1255.84 1.03939 -2.09091 0
M  V30 13170 C 1256.82 1.38196 -0.991761 0
M  V30 13171 O 1258 1.47214 -1.26656 0
M  V30 13172 C 1255.13 2.34263 -2.56394 0
M  V30 13173 C 1254.09 2.14269 -3.70504 0
M  V30 13174 C 1253.41 3.50286 -4.03985 0
M  V30 13175 C 1254.71 1.53514 -4.9923 0
M  V30 13176 H 1256.41 0.610429 -2.93111 0
M  V30 13177 H 1253.95 0.292183 -1.41005 0
M  V30 13178 H 1255.91 3.04727 -2.91066 0
M  V30 13179 H 1254.63 2.79205 -1.69447 0
M  V30 13180 H 1253.29 1.46239 -3.36169 0
M  V30 13181 H 1252.94 3.92861 -3.14116 0
M  V30 13182 H 1252.64 3.37735 -4.80842 0
M  V30 13183 H 1254.16 4.22124 -4.41184 0
M  V30 13184 H 1255.57 2.13885 -5.31908 0
M  V30 13185 H 1253.97 1.51561 -5.80646 0
M  V30 13186 H 1255.04 0.500126 -4.82314 0
M  V30 13187 N 1256.39 1.54543 0.308881 0
M  V30 13188 C 1257.61 1.77753 1.06857 0
M  V30 13189 C 1258.04 0.531616 1.80431 0
M  V30 13190 O 1257.39 -0.517513 1.73757 0
M  V30 13191 C 1257.44 2.97968 2.03094 0
M  V30 13192 O 1256.55 2.70541 3.11257 0
M  V30 13193 H 1255.89 0.588576 0.307368 0
M  V30 13194 H 1258.42 2.01607 0.348703 0
M  V30 13195 H 1258.43 3.25722 2.45702 0
M  V30 13196 H 1257.1 3.88314 1.48948 0
M  V30 13197 H 1255.68 2.53781 2.7322 0
M  V30 13198 N 1257.86 -0.571685 1.46866 0
M  V30 13199 C 1259.09 -1.35327 1.56109 0
M  V30 13200 C 1259.5 -1.88086 0.20504 0
M  V30 13201 O 1258.84 -1.64896 -0.809626 0
M  V30 13202 C 1258.91 -2.56939 2.51441 0
M  V30 13203 C 1258.57 -2.2557 3.97451 0
M  V30 13204 C 1259.57 -1.83737 4.86351 0
M  V30 13205 C 1257.25 -2.37375 4.42672 0
M  V30 13206 C 1259.25 -1.54118 6.18487 0
M  V30 13207 C 1256.93 -2.07368 5.7484 0
M  V30 13208 C 1257.93 -1.65806 6.62569 0
M  V30 13209 O 1257.62 -1.36173 7.92283 0
M  V30 13210 H 1257.35 -0.419368 0.530194 0
M  V30 13211 H 1259.91 -0.700859 1.93073 0
M  V30 13212 H 1258.14 -3.25023 2.09517 0
M  V30 13213 H 1259.82 -3.19012 2.5097 0
M  V30 13214 H 1260.59 -1.74122 4.52666 0
M  V30 13215 H 1256.47 -2.68686 3.74605 0
M  V30 13216 H 1260.01 -1.21603 6.8692 0
M  V30 13217 H 1255.91 -2.16611 6.08071 0
M  V30 13218 H 1256.68 -1.49926 8.04652 0
M  V30 13219 N 1259.34 -1.34755 -0.817236 0
M  V30 13220 C 1260.27 -1.21147 -1.93387 0
M  V30 13221 C 1261.25 -0.101788 -1.62281 0
M  V30 13222 O 1262.44 -0.267968 -1.86586 0
M  V30 13223 C 1259.56 -0.86301 -3.27521 0
M  V30 13224 C 1258.61 -1.98325 -3.77584 0
M  V30 13225 S 1259.44 -3.59751 -3.9666 0
M  V30 13226 C 1260.6 -3.26959 -5.33712 0
M  V30 13227 H 1260.83 -2.15667 -2.04634 0
M  V30 13228 H 1258.36 -1.19848 -0.973441 0
M  V30 13229 H 1260.32 -0.668754 -4.05016 0
M  V30 13230 H 1258.98 0.0639417 -3.14035 0
M  V30 13231 H 1258.18 -1.69332 -4.74703 0
M  V30 13232 H 1257.78 -2.13529 -3.07053 0
M  V30 13233 H 1260.07 -2.79126 -6.17329 0
M  V30 13234 H 1261.01 -4.23238 -5.67693 0
M  V30 13235 H 1261.42 -2.62996 -4.99493 0
M  V30 13236 N 1260.82 1.03812 -1.18578 0
M  V30 13237 C 1261.75 2.13802 -0.938665 0
M  V30 13238 C 1262.73 1.69643 0.124575 0
M  V30 13239 O 1263.92 1.94179 -0.0285421 0
M  V30 13240 C 1261.05 3.44154 -0.466392 0
M  V30 13241 C 1260 4.01949 -1.47041 0
M  V30 13242 C 1259.33 5.27811 -0.855558 0
M  V30 13243 C 1260.63 4.37827 -2.84789 0
M  V30 13244 H 1262.32 2.34732 -1.85852 0
M  V30 13245 H 1259.87 1.12808 -0.895007 0
M  V30 13246 H 1261.82 4.20463 -0.280856 0
M  V30 13247 H 1260.54 3.22918 0.489041 0
M  V30 13248 H 1259.2 3.27725 -1.64293 0
M  V30 13249 H 1258.85 5.02886 0.107142 0
M  V30 13250 H 1258.55 5.67441 -1.52592 0
M  V30 13251 H 1260.07 6.06795 -0.680609 0
M  V30 13252 H 1261.49 5.05112 -2.71173 0
M  V30 13253 H 1259.88 4.88514 -3.48532 0
M  V30 13254 H 1260.95 3.47541 -3.38147 0
M  V30 13255 N 1262.3 0.988223 1.22768 0
M  V30 13256 C 1263.54 0.662441 1.91676 0
M  V30 13257 C 1263.88 -0.802931 1.76824 0
M  V30 13258 O 1263.15 -1.58011 1.13415 0
M  V30 13259 C 1263.43 1.06332 3.44043 0
M  V30 13260 C 1263.29 2.5869 3.67967 0
M  V30 13261 C 1264.61 0.613058 4.35809 0
M  V30 13262 H 1261.73 0.242132 0.69609 0
M  V30 13263 H 1264.37 1.23091 1.44736 0
M  V30 13264 H 1262.52 0.579623 3.84152 0
M  V30 13265 H 1264.19 3.14694 3.37291 0
M  V30 13266 H 1262.43 3.00971 3.12408 0
M  V30 13267 H 1263.1 2.8179 4.74656 0
M  V30 13268 H 1265.58 1.02846 4.0319 0
M  V30 13269 H 1264.46 0.921901 5.41103 0
M  V30 13270 H 1264.72 -0.48641 4.39416 0
M  V30 13271 N 1263.78 -1.38018 0.760839 0
M  V30 13272 C 1264.71 -2.32995 0.153557 0
M  V30 13273 C 1265.69 -1.55234 -0.695448 0
M  V30 13274 O 1266.87 -1.8352 -0.635148 0
M  V30 13275 C 1264 -3.39437 -0.734811 0
M  V30 13276 C 1262.96 -4.27998 0.0120287 0
M  V30 13277 C 1262.28 -5.25359 -0.995067 0
M  V30 13278 C 1263.58 -5.08687 1.18468 0
M  V30 13279 H 1265.28 -2.8403 0.946956 0
M  V30 13280 H 1262.82 -1.36562 0.456816 0
M  V30 13281 H 1264.77 -4.0485 -1.16938 0
M  V30 13282 H 1263.5 -2.86901 -1.56061 0
M  V30 13283 H 1262.16 -3.64102 0.427254 0
M  V30 13284 H 1261.81 -4.69108 -1.81512 0
M  V30 13285 H 1261.51 -5.85469 -0.499969 0
M  V30 13286 H 1263.03 -5.93648 -1.4288 0
M  V30 13287 H 1264.44 -5.67299 0.8273 0
M  V30 13288 H 1262.84 -5.78068 1.61112 0
M  V30 13289 H 1263.91 -4.42 1.99409 0
M  V30 13290 N 1265.25 -0.510493 -1.49103 0
M  V30 13291 C 1266.22 0.251915 -2.27811 0
M  V30 13292 C 1267.22 0.885432 -1.34226 0
M  V30 13293 O 1268.41 0.748494 -1.573 0
M  V30 13294 C 1265.54 1.3624 -3.12492 0
M  V30 13295 H 1266.73 -0.438872 -2.96671 0
M  V30 13296 H 1264.28 -0.265767 -1.54024 0
M  V30 13297 H 1265.02 2.08705 -2.48219 0
M  V30 13298 H 1264.8 0.913485 -3.81311 0
M  V30 13299 H 1266.29 1.89919 -3.71915 0
M  V30 13300 N 1266.73 1.55688 -0.24474 0
M  V30 13301 C 1267.64 2.24933 0.666519 0
M  V30 13302 C 1268.66 1.26471 1.19503 0
M  V30 13303 O 1269.83 1.59342 1.23176 0
M  V30 13304 C 1266.9 2.9336 1.84772 0
M  V30 13305 C 1265.96 4.07225 1.35889 0
M  V30 13306 C 1265.19 4.72381 2.48379 0
M  V30 13307 O 1265.42 4.36605 3.67059 0
M  V30 13308 O 1264.35 5.60933 2.18261 0
M  V30 13309 H 1268.18 3.03513 0.106507 0
M  V30 13310 H 1265.76 1.49394 -0.0133309 0
M  V30 13311 H 1267.64 3.36468 2.53708 0
M  V30 13312 H 1266.32 2.17721 2.39539 0
M  V30 13313 H 1265.22 3.68639 0.636881 0
M  V30 13314 H 1266.56 4.84676 0.857333 0
M  V30 13315 N 1268.21 -0.0283989 1.57574 0
M  V30 13316 C 1269.17 -1.01346 2.05576 0
M  V30 13317 C 1270.17 -1.28999 0.960001 0
M  V30 13318 O 1271.36 -1.23991 1.2236 0
M  V30 13319 C 1268.49 -2.34611 2.47327 0
M  V30 13320 H 1269.69 -0.598809 2.93861 0
M  V30 13321 H 1267.24 -0.27524 1.53857 0
M  V30 13322 H 1267.98 -2.80823 1.622 0
M  V30 13323 H 1267.76 -2.1587 3.27326 0
M  V30 13324 H 1269.25 -3.05332 2.84889 0
M  V30 13325 N 1269.69 -1.54705 -0.300681 0
M  V30 13326 C 1270.62 -1.8205 -1.39249 0
M  V30 13327 C 1271.63 -0.703476 -1.46816 0
M  V30 13328 O 1272.82 -0.980957 -1.49129 0
M  V30 13329 C 1269.92 -1.94376 -2.77617 0
M  V30 13330 C 1269.09 -3.2478 -2.92979 0
M  V30 13331 C 1268.15 -3.27518 -4.11848 0
M  V30 13332 O 1267.18 -4.01047 -4.03918 0
M  V30 13333 N 1268.38 -2.52932 -5.22499 0
M  V30 13334 H 1271.15 -2.76279 -1.16146 0
M  V30 13335 H 1268.71 -1.54283 -0.49075 0
M  V30 13336 H 1270.7 -1.93609 -3.55384 0
M  V30 13337 H 1269.27 -1.07141 -2.93666 0
M  V30 13338 H 1268.49 -3.38319 -2.02322 0
M  V30 13339 H 1269.78 -4.10835 -3.00153 0
M  V30 13340 H 1269.18 -1.92825 -5.31822 0
M  V30 13341 H 1267.73 -2.57919 -5.98599 0
M  V30 13342 N 1271.17 0.563888 -1.47167 0
M  V30 13343 C 1272.42 1.31766 -1.5271 0
M  V30 13344 C 1272.73 1.94664 -0.191164 0
M  V30 13345 O 1273.93 2.71214 -0.124543 0
M  V30 13346 C 1272.39 2.38907 -2.69168 0
M  V30 13347 C 1272 1.8223 -4.09263 0
M  V30 13348 C 1273.74 3.15508 -2.83999 0
M  V30 13349 C 1271.65 2.87111 -5.17031 0
M  V30 13350 H 1270.58 0.495421 -0.568396 0
M  V30 13351 H 1273.23 0.599665 -1.73425 0
M  V30 13352 H 1271.61 3.13591 -2.4182 0
M  V30 13353 H 1272.79 1.13963 -4.46485 0
M  V30 13354 H 1271.1 1.18235 -3.99261 0
M  V30 13355 H 1273.7 3.93816 -3.61681 0
M  V30 13356 H 1274.04 3.69277 -1.92197 0
M  V30 13357 H 1274.57 2.47934 -3.11085 0
M  V30 13358 H 1271.31 2.38204 -6.10687 0
M  V30 13359 H 1270.83 3.53809 -4.84334 0
M  V30 13360 H 1272.51 3.50724 -5.43692 0
M  V30 13361 N 1272.64 1.35187 0.810078 0
M  V30 13362 C 1273.58 1.23673 1.92971 0
M  V30 13363 C 1274.59 0.160819 1.62004 0
M  V30 13364 O 1275.78 0.413793 1.73638 0
M  V30 13365 C 1272.88 0.880887 3.27252 0
M  V30 13366 C 1272.05 2.05444 3.86149 0
M  V30 13367 C 1271.11 1.67494 4.98831 0
M  V30 13368 O 1270.14 2.39322 5.16443 0
M  V30 13369 N 1271.34 0.596539 5.77427 0
M  V30 13370 H 1274.1 2.20133 2.03376 0
M  V30 13371 H 1271.66 1.2831 0.987322 0
M  V30 13372 H 1273.66 0.608556 4.00098 0
M  V30 13373 H 1272.23 0.00607926 3.12599 0
M  V30 13374 H 1271.45 2.49077 3.05539 0
M  V30 13375 H 1272.73 2.83898 4.22231 0
M  V30 13376 H 1272.13 -0.000312591 5.657 0
M  V30 13377 H 1270.69 0.383979 6.50668 0
M  V30 13378 N 1274.12 -1.03182 1.19127 0
M  V30 13379 C 1275.05 -2.11462 0.884098 0
M  V30 13380 C 1276.07 -1.62342 -0.121984 0
M  V30 13381 O 1277.26 -1.78179 0.107038 0
M  V30 13382 C 1274.36 -3.37559 0.301227 0
M  V30 13383 C 1273.53 -4.15878 1.35514 0
M  V30 13384 C 1272.59 -5.20291 0.786349 0
M  V30 13385 O 1271.61 -5.50069 1.46331 0
M  V30 13386 N 1272.82 -5.79038 -0.411803 0
M  V30 13387 H 1275.58 -2.38405 1.81613 0
M  V30 13388 H 1273.14 -1.19449 1.09287 0
M  V30 13389 H 1275.13 -4.04593 -0.0930685 0
M  V30 13390 H 1273.7 -3.07987 -0.535022 0
M  V30 13391 H 1272.92 -3.44036 1.9244 0
M  V30 13392 H 1274.21 -4.64993 2.06539 0
M  V30 13393 H 1273.61 -5.57158 -0.979353 0
M  V30 13394 H 1272.17 -6.47495 -0.747912 0
M  V30 13395 N 1275.6 -0.99472 -1.22242 0
M  V30 13396 C 1276.85 -0.682256 -1.91616 0
M  V30 13397 C 1277.2 0.777397 -1.75995 0
M  V30 13398 O 1276.49 1.55509 -1.11926 0
M  V30 13399 C 1276.69 -1.02561 -3.42368 0
M  V30 13400 C 1276.52 -2.5171 -3.72656 0
M  V30 13401 C 1275.29 -3.18144 -3.92571 0
M  V30 13402 C 1277.49 -3.49835 -3.76988 0
M  V30 13403 N 1275.47 -4.5675 -4.10186 0
M  V30 13404 C 1276.84 -4.73907 -3.99765 0
M  V30 13405 C 1278.89 -3.44116 -3.59845 0
M  V30 13406 C 1277.6 -5.92957 -4.07179 0
M  V30 13407 C 1279.62 -4.62545 -3.68519 0
M  V30 13408 C 1278.98 -5.85417 -3.91748 0
M  V30 13409 H 1275.08 -0.300961 -0.721766 0
M  V30 13410 H 1277.67 -1.2751 -1.47137 0
M  V30 13411 H 1275.84 -0.461327 -3.85651 0
M  V30 13412 H 1277.57 -0.66895 -3.99133 0
M  V30 13413 H 1274.33 -2.68608 -3.9006 0
M  V30 13414 H 1274.75 -5.28649 -4.22917 0
M  V30 13415 H 1279.39 -2.50134 -3.40871 0
M  V30 13416 H 1277.11 -6.87341 -4.24956 0
M  V30 13417 H 1280.7 -4.59711 -3.56591 0
M  V30 13418 H 1279.58 -6.75525 -3.98291 0
M  V30 13419 N 1277.08 1.37613 -0.768148 0
M  V30 13420 C 1278.32 2.00075 -0.331331 0
M  V30 13421 C 1278.66 1.60839 1.08833 0
M  V30 13422 O 1277.93 0.852849 1.74805 0
M  V30 13423 C 1278.22 3.57009 -0.470789 0
M  V30 13424 C 1278.07 4.06166 -1.9326 0
M  V30 13425 C 1279.39 4.39916 0.127111 0
M  V30 13426 H 1276.51 0.726855 -0.121864 0
M  V30 13427 H 1279.15 1.63343 -0.970518 0
M  V30 13428 H 1277.3 3.88431 0.0733688 0
M  V30 13429 H 1278.97 3.85325 -2.53618 0
M  V30 13430 H 1277.21 3.58492 -2.44266 0
M  V30 13431 H 1277.88 5.15219 -1.98125 0
M  V30 13432 H 1280.36 4.14732 -0.337144 0
M  V30 13433 H 1279.24 5.489 -0.000624226 0
M  V30 13434 H 1279.5 4.25018 1.21704 0
M  V30 13435 N 1278.56 0.518393 1.4883 0
M  V30 13436 C 1279.97 0.0749773 1.86549 0
M  V30 13437 C 1280.32 -1.34429 1.4291 0
M  V30 13438 O 1279.44 -2.00481 0.814648 0
M  V30 13439 C 1280.04 0.129289 3.38553 0
M  V30 13440 C 1278.6 -0.258871 3.75509 0
M  V30 13441 C 1277.74 0.494185 2.72861 0
M  V30 13442 H 1280.7 0.730266 1.409 0
M  V30 13443 H 1280.72 -0.661844 3.747 0
M  V30 13444 H 1280.23 1.16237 3.70285 0
M  V30 13445 H 1278.33 -1.29453 3.49389 0
M  V30 13446 H 1278.44 0.0726769 4.79045 0
M  V30 13447 H 1276.81 -0.0581428 2.54634 0
M  V30 13448 H 1277.59 1.52767 3.07436 0
M  V30 13449 N 1280.03 -1.55556 0.252993 0
M  V30 13450 C 1281.45 -1.85032 -0.249011 0
M  V30 13451 C 1281.8 -1.17488 -1.57134 0
M  V30 13452 O 1280.92 -0.455387 -2.11554 0
M  V30 13453 C 1281.52 -3.35682 -0.458589 0
M  V30 13454 C 1280.08 -3.65362 -0.90485 0
M  V30 13455 C 1279.22 -2.77296 0.0144927 0
M  V30 13456 H 1282.17 -1.51412 0.475394 0
M  V30 13457 H 1282.19 -3.57591 -1.30034 0
M  V30 13458 H 1281.71 -3.84814 0.503981 0
M  V30 13459 H 1279.81 -3.21713 -1.87967 0
M  V30 13460 H 1279.92 -4.73074 -0.757492 0
M  V30 13461 H 1278.28 -2.49785 -0.497954 0
M  V30 13462 H 1279.07 -3.29236 0.972546 0
M  V30 13463 N 1281.51 0.0200419 -1.57587 0
M  V30 13464 C 1282.44 1.01715 -2.10181 0
M  V30 13465 C 1283.42 1.37136 -1.00636 0
M  V30 13466 O 1284.61 1.45862 -1.2821 0
M  V30 13467 C 1281.74 2.31531 -2.58865 0
M  V30 13468 C 1280.69 2.10327 -3.72755 0
M  V30 13469 C 1280.02 3.45981 -4.07678 0
M  V30 13470 C 1281.32 1.4821 -5.0083 0
M  V30 13471 H 1283.01 0.579307 -2.93742 0
M  V30 13472 H 1280.56 0.277211 -1.41307 0
M  V30 13473 H 1282.51 3.01623 -2.94281 0
M  V30 13474 H 1281.24 2.77392 -1.72399 0
M  V30 13475 H 1279.89 1.42665 -3.37701 0
M  V30 13476 H 1279.54 3.89508 -3.18265 0
M  V30 13477 H 1279.24 3.32616 -4.84397 0
M  V30 13478 H 1280.77 4.17421 -4.45637 0
M  V30 13479 H 1282.18 2.08232 -5.34146 0
M  V30 13480 H 1280.58 1.45393 -5.82221 0
M  V30 13481 H 1281.65 0.448942 -4.82817 0
M  V30 13482 N 1282.99 1.54862 0.292472 0
M  V30 13483 C 1283.9 1.89472 1.38339 0
M  V30 13484 C 1284.92 0.789783 1.55043 0
M  V30 13485 O 1286.09 1.08705 1.69544 0
M  V30 13486 C 1283.16 2.14244 2.72581 0
M  V30 13487 C 1282.22 3.37913 2.64789 0
M  V30 13488 C 1281.45 3.61494 3.92629 0
M  V30 13489 O 1281.67 2.87931 4.92394 0
M  V30 13490 O 1280.61 4.55019 3.94007 0
M  V30 13491 H 1284.43 2.82298 1.11989 0
M  V30 13492 H 1282.02 1.41161 0.489291 0
M  V30 13493 H 1283.9 2.31689 3.51991 0
M  V30 13494 H 1282.58 1.24603 2.98757 0
M  V30 13495 H 1281.48 3.25823 1.83821 0
M  V30 13496 H 1282.82 4.27711 2.43565 0
M  V30 13497 N 1284.47 -0.556076 1.47464 0
M  V30 13498 C 1285.71 -1.31515 1.54375 0
M  V30 13499 C 1286.05 -1.93106 0.205837 0
M  V30 13500 O 1285.32 -1.77927 -0.785643 0
M  V30 13501 C 1285.61 -2.4244 2.66261 0
M  V30 13502 C 1285.46 -1.8571 4.09673 0
M  V30 13503 C 1286.78 -3.4436 2.74051 0
M  V30 13504 H 1283.9 -0.476817 0.561974 0
M  V30 13505 H 1286.54 -0.622157 1.79525 0
M  V30 13506 H 1284.69 -3.01551 2.44948 0
M  V30 13507 H 1286.36 -1.30851 4.42353 0
M  V30 13508 H 1284.6 -1.16379 4.17898 0
M  V30 13509 H 1285.27 -2.65904 4.83735 0
M  V30 13510 H 1287.75 -2.95169 2.93282 0
M  V30 13511 H 1286.63 -4.194 3.54111 0
M  V30 13512 H 1286.89 -4.03281 1.81155 0
M  V30 13513 N 1285.95 -1.35615 -0.802897 0
M  V30 13514 C 1287.36 -1.15733 -1.099 0
M  V30 13515 C 1287.56 0.0277094 -2.01481 0
M  V30 13516 O 1286.62 0.697196 -2.42684 0
M  V30 13517 C 1287.93 -2.46201 -1.72643 0
M  V30 13518 C 1289.48 -2.52442 -1.85046 0
M  V30 13519 C 1289.96 -3.82962 -2.51205 0
M  V30 13520 N 1291.45 -3.84234 -2.58686 0
M  V30 13521 C 1292.18 -4.81956 -3.10654 0
M  V30 13522 N 1291.68 -5.90068 -3.63032 0
M  V30 13523 N 1293.47 -4.69389 -3.09241 0
M  V30 13524 H 1285.62 -2.11511 -0.194177 0
M  V30 13525 H 1287.88 -0.936259 -0.148739 0
M  V30 13526 H 1287.59 -3.33114 -1.12817 0
M  V30 13527 H 1287.46 -2.6102 -2.72302 0
M  V30 13528 H 1289.85 -1.65955 -2.44014 0
M  V30 13529 H 1289.93 -2.41534 -0.842316 0
M  V30 13530 H 1289.58 -4.69848 -1.92885 0
M  V30 13531 H 1289.51 -3.9116 -3.52564 0
M  V30 13532 H 1292 -3.0612 -2.21582 0
M  V30 13533 H 1292.31 -6.60623 -4.00996 0
M  V30 13534 H 1290.66 -5.93755 -3.6122 0
M  V30 13535 H 1293.85 -3.84066 -2.67602 0
M  V30 13536 H 1294.02 -5.4571 -3.49435 0
M  V30 13537 N 1287.43 1.02549 -1.19673 0
M  V30 13538 C 1288.67 1.75656 -0.999463 0
M  V30 13539 C 1288.99 1.89238 0.470517 0
M  V30 13540 O 1288.26 1.42843 1.34062 0
M  V30 13541 H 1286.84 0.650732 -0.366821 0
M  V30 13542 H 1289.51 1.23684 -1.50627 0
M  V30 13543 H 1288.6 2.76353 -1.45035 0
M  V30 13544 N 1288.9 1.00119 1.21713 0
M  V30 13545 C 1290.15 0.680377 1.90303 0
M  V30 13546 C 1290.47 -0.790927 1.7824 0
M  V30 13547 O 1289.74 -1.5676 1.17486 0
M  V30 13548 H 1288.32 0.248665 0.704397 0
M  V30 13549 H 1290.98 1.26948 1.47886 0
M  V30 13550 H 1290.08 0.950188 2.97284 0
M  V30 13551 N 1290.38 -1.37203 0.775435 0
M  V30 13552 C 1291.8 -1.52962 0.455488 0
M  V30 13553 C 1292 -1.73284 -1.02834 0
M  V30 13554 O 1291.05 -1.75631 -1.81411 0
M  V30 13555 C 1292.37 -2.72389 1.27377 0
M  V30 13556 C 1293.91 -2.86252 1.26604 0
M  V30 13557 C 1294.39 -4.08666 2.06775 0
M  V30 13558 N 1295.88 -4.15786 2.04148 0
M  V30 13559 C 1296.62 -5.09548 2.6296 0
M  V30 13560 N 1296.11 -6.08845 3.30574 0
M  V30 13561 N 1297.9 -5.02059 2.5277 0
M  V30 13562 H 1290.06 -1.22265 1.73681 0
M  V30 13563 H 1292.32 -0.595638 0.737509 0
M  V30 13564 H 1292.02 -2.63849 2.32544 0
M  V30 13565 H 1291.9 -3.66171 0.905467 0
M  V30 13566 H 1294.29 -2.94261 0.222345 0
M  V30 13567 H 1294.37 -1.93418 1.67401 0
M  V30 13568 H 1294.01 -4.01419 3.11168 0
M  V30 13569 H 1293.94 -5.00621 1.63358 0
M  V30 13570 H 1296.43 -3.44683 1.54926 0
M  V30 13571 H 1296.74 -6.76926 3.72815 0
M  V30 13572 H 1295.09 -6.09113 3.34674 0
M  V30 13573 H 1298.28 -4.23431 1.99559 0
M  V30 13574 H 1298.45 -5.74947 2.98898 0
M  V30 13575 N 1291.86 -0.526279 -1.48553 0
M  V30 13576 C 1293.14 0.073385 -1.95462 0
M  V30 13577 C 1293.52 1.51658 -1.46843 0
M  V30 13578 O 1292.86 2.17729 -0.693293 0
M  V30 13579 C 1293.07 -0.040041 -3.48977 0
M  V30 13580 C 1294.42 0.121108 -4.24427 0
M  V30 13581 O 1295.45 0.0339335 -3.56184 0
M  V30 13582 O 1294.31 0.303297 -5.45658 0
M  V30 13583 H 1291.4 0.0813498 -0.822989 0
M  V30 13584 H 1293.95 -0.590614 -1.59091 0
M  V30 13585 H 1292.72 -1.0455 -3.77074 0
M  V30 13586 H 1292.34 0.662975 -3.92034 0
M  V30 13587 N 1293.34 1.5542 -0.261239 0
M  V30 13588 C 1294.59 1.9889 0.358777 0
M  V30 13589 C 1294.91 1.15092 1.57413 0
M  V30 13590 O 1294.18 0.237095 1.9446 0
M  V30 13591 H 1292.76 0.734599 0.13555 0
M  V30 13592 H 1295.42 1.91483 -0.363357 0
M  V30 13593 H 1294.51 3.05082 0.658142 0
M  V30 13594 N 1294.82 -0.0116844 1.57596 0
M  V30 13595 C 1296.06 -0.698089 1.89234 0
M  V30 13596 C 1296.38 -1.75581 0.862016 0
M  V30 13597 O 1297.58 -2.49602 1.06822 0
M  V30 13598 C 1296.04 -1.29277 3.3588 0
M  V30 13599 C 1295.65 -0.27049 4.47183 0
M  V30 13600 C 1297.39 -1.95805 3.76644 0
M  V30 13601 C 1295.3 -0.874502 5.84899 0
M  V30 13602 H 1294.23 -0.264495 0.706087 0
M  V30 13603 H 1296.88 0.0469451 1.8344 0
M  V30 13604 H 1295.26 -2.08809 3.36474 0
M  V30 13605 H 1296.44 0.499381 4.58086 0
M  V30 13606 H 1294.75 0.293676 4.15363 0
M  V30 13607 H 1297.35 -2.41879 4.76863 0
M  V30 13608 H 1297.69 -2.78366 3.09545 0
M  V30 13609 H 1298.22 -1.23023 3.78299 0
M  V30 13610 H 1294.96 -0.0879263 6.55441 0
M  V30 13611 H 1294.48 -1.61381 5.77682 0
M  V30 13612 H 1296.16 -1.37665 6.32185 0
M  V30 13613 N 1296.29 -1.55015 -0.284256 0
M  V30 13614 C 1297.54 -1.74297 -1.01506 0
M  V30 13615 C 1297.86 -0.545134 -1.8785 0
M  V30 13616 O 1299.06 -0.620118 -2.64323 0
M  V30 13617 C 1297.52 -3.08438 -1.85456 0
M  V30 13618 C 1297.13 -4.35753 -1.04034 0
M  V30 13619 C 1298.87 -3.37073 -2.58035 0
M  V30 13620 C 1296.78 -5.60938 -1.87358 0
M  V30 13621 H 1295.71 -0.649656 -0.382705 0
M  V30 13622 H 1298.36 -1.81484 -0.271239 0
M  V30 13623 H 1296.74 -2.95259 -2.63891 0
M  V30 13624 H 1297.91 -4.59816 -0.300954 0
M  V30 13625 H 1296.23 -4.14178 -0.429616 0
M  V30 13626 H 1298.83 -4.27806 -3.20759 0
M  V30 13627 H 1299.17 -2.56698 -3.27738 0
M  V30 13628 H 1299.7 -3.51299 -1.86638 0
M  V30 13629 H 1296.44 -6.44029 -1.22096 0
M  V30 13630 H 1295.96 -5.41035 -2.58923 0
M  V30 13631 H 1297.64 -5.98819 -2.44999 0
M  V30 13632 N 1297.77 0.548248 -1.47757 0
M  V30 13633 C 1299.02 1.30458 -1.56052 0
M  V30 13634 C 1299.37 1.91096 -0.22363 0
M  V30 13635 O 1298.67 1.75375 0.771644 0
M  V30 13636 C 1298.86 2.42911 -2.62162 0
M  V30 13637 C 1298.69 1.93293 -4.06039 0
M  V30 13638 C 1297.46 1.76727 -4.73387 0
M  V30 13639 C 1299.66 1.47214 -4.9278 0
M  V30 13640 N 1297.64 1.21543 -6.01748 0
M  V30 13641 C 1299.01 1.03855 -6.1124 0
M  V30 13642 C 1301.06 1.35348 -4.79151 0
M  V30 13643 C 1299.77 0.498086 -7.17573 0
M  V30 13644 C 1301.79 0.827023 -5.85589 0
M  V30 13645 C 1301.16 0.40341 -7.03244 0
M  V30 13646 H 1297.25 0.469075 -0.625694 0
M  V30 13647 H 1299.84 0.620405 -1.84551 0
M  V30 13648 H 1298.01 3.08847 -2.35516 0
M  V30 13649 H 1299.74 3.09924 -2.60249 0
M  V30 13650 H 1296.5 1.99709 -4.29433 0
M  V30 13651 H 1296.92 0.960132 -6.70157 0
M  V30 13652 H 1301.56 1.66708 -3.88546 0
M  V30 13653 H 1299.28 0.172123 -8.07917 0
M  V30 13654 H 1302.87 0.738641 -5.77092 0
M  V30 13655 H 1301.75 0.00236338 -7.842 0
M  V30 13656 N 1299.25 1.36039 0.795694 0
M  V30 13657 C 1300.5 1.30112 1.5556 0
M  V30 13658 C 1300.83 -0.121197 1.93821 0
M  V30 13659 O 1300.1 -1.07313 1.62216 0
M  V30 13660 C 1300.39 2.21792 2.8369 0
M  V30 13661 C 1300.24 3.72691 2.51836 0
M  V30 13662 C 1301.56 2.12365 3.85472 0
M  V30 13663 H 1298.68 0.473971 0.564376 0
M  V30 13664 H 1301.32 1.66536 0.91465 0
M  V30 13665 H 1299.47 1.9086 3.38386 0
M  V30 13666 H 1301.14 4.14115 2.0324 0
M  V30 13667 H 1299.38 3.92436 1.84869 0
M  V30 13668 H 1300.06 4.32242 3.43323 0
M  V30 13669 H 1302.53 2.3958 3.40207 0
M  V30 13670 H 1301.41 2.78695 4.72885 0
M  V30 13671 H 1301.67 1.10898 4.27965 0
M  V30 13672 N 1300.73 -1.01913 1.20215 0
M  V30 13673 C 1301.69 -2.08563 0.950481 0
M  V30 13674 C 1302.69 -1.60634 -0.0729659 0
M  V30 13675 O 1303.88 -1.73437 0.162826 0
M  V30 13676 C 1301.01 -3.38171 0.430453 0
M  V30 13677 H 1302.21 -2.32323 1.89647 0
M  V30 13678 H 1299.76 -1.18674 1.01716 0
M  V30 13679 H 1300.49 -3.20086 -0.521126 0
M  V30 13680 H 1300.28 -3.74284 1.1685 0
M  V30 13681 H 1301.77 -4.16702 0.273781 0
M  V30 13682 N 1302.21 -1.00763 -1.2118 0
M  V30 13683 C 1303.45 -0.692851 -1.90598 0
M  V30 13684 C 1303.79 0.774698 -1.78079 0
M  V30 13685 O 1303.06 1.56186 -1.15914 0
M  V30 13686 C 1303.34 -1.11792 -3.42308 0
M  V30 13687 C 1303.2 -2.64511 -3.63805 0
M  V30 13688 C 1304.52 -0.682314 -4.34779 0
M  V30 13689 H 1301.63 -0.253175 -0.69215 0
M  V30 13690 H 1304.28 -1.25378 -1.4276 0
M  V30 13691 H 1302.43 -0.640665 -3.83181 0
M  V30 13692 H 1304.1 -3.20021 -3.32242 0
M  V30 13693 H 1302.34 -3.05903 -3.0758 0
M  V30 13694 H 1303.01 -2.89306 -4.70113 0
M  V30 13695 H 1305.49 -1.09247 -4.01503 0
M  V30 13696 H 1304.36 -1.00787 -5.39568 0
M  V30 13697 H 1304.63 0.416441 -4.40134 0
M  V30 13698 N 1303.68 1.3679 -0.7827 0
M  V30 13699 C 1304.93 1.98664 -0.348634 0
M  V30 13700 C 1305.25 1.62827 1.08382 0
M  V30 13701 O 1306.45 2.17886 1.61982 0
M  V30 13702 C 1304.91 3.55319 -0.572392 0
M  V30 13703 C 1304.52 4.00086 -2.01582 0
M  V30 13704 C 1306.26 4.24017 -0.202496 0
M  V30 13705 C 1304.17 5.49493 -2.18659 0
M  V30 13706 H 1303.1 0.743294 -0.126612 0
M  V30 13707 H 1305.75 1.56177 -0.963383 0
M  V30 13708 H 1304.13 3.95842 0.111973 0
M  V30 13709 H 1305.3 3.7078 -2.73603 0
M  V30 13710 H 1303.62 3.44205 -2.34333 0
M  V30 13711 H 1306.22 5.3381 -0.308459 0
M  V30 13712 H 1306.56 4.07559 0.84859 0
M  V30 13713 H 1307.09 3.88834 -0.839834 0
M  V30 13714 H 1303.83 5.7089 -3.22126 0
M  V30 13715 H 1303.35 5.80447 -1.51134 0
M  V30 13716 H 1305.03 6.15621 -1.99048 0
M  V30 13717 N 1305.16 0.53415 1.48272 0
M  V30 13718 C 1306.09 -0.215037 2.32508 0
M  V30 13719 C 1307.07 -0.931083 1.42355 0
M  V30 13720 O 1308.26 -0.916051 1.71237 0
M  V30 13721 C 1305.39 -1.25985 3.23643 0
M  V30 13722 C 1304.34 -0.661692 4.22854 0
M  V30 13723 C 1303.67 -1.80946 5.03153 0
M  V30 13724 C 1304.97 0.369358 5.20992 0
M  V30 13725 H 1306.66 0.488158 2.95394 0
M  V30 13726 H 1304.21 0.236206 1.4205 0
M  V30 13727 H 1306.16 -1.79195 3.81402 0
M  V30 13728 H 1304.89 -1.99268 2.58766 0
M  V30 13729 H 1303.54 -0.151082 3.66289 0
M  V30 13730 H 1303.19 -2.53077 4.34696 0
M  V30 13731 H 1302.89 -1.41513 5.70305 0
M  V30 13732 H 1304.42 -2.34526 5.63764 0
M  V30 13733 H 1305.83 -0.0758076 5.7325 0
M  V30 13734 H 1304.23 0.681301 5.9622 0
M  V30 13735 H 1305.3 1.27363 4.67875 0
M  V30 13736 N 1306.64 -1.55279 0.269478 0
M  V30 13737 C 1307.59 -2.18984 -0.634838 0
M  V30 13738 C 1308.57 -1.15269 -1.12258 0
M  V30 13739 O 1309.77 -1.41103 -1.0686 0
M  V30 13740 C 1306.9 -2.91014 -1.82114 0
M  V30 13741 C 1305.98 -4.02011 -1.35084 0
M  V30 13742 N 1306.37 -5.02273 -0.596299 0
M  V30 13743 C 1304.67 -4.14979 -1.63427 0
M  V30 13744 C 1305.37 -5.80647 -0.349781 0
M  V30 13745 N 1304.35 -5.35749 -0.92057 0
M  V30 13746 H 1308.15 -2.93857 -0.0504516 0
M  V30 13747 H 1305.66 -1.62237 0.0727843 0
M  V30 13748 H 1307.66 -3.35098 -2.48022 0
M  V30 13749 H 1306.32 -2.1765 -2.40953 0
M  V30 13750 H 1307.33 -5.17324 -0.244188 0
M  V30 13751 H 1304.01 -3.52802 -2.23242 0
M  V30 13752 H 1305.4 -6.71419 0.254139 0
M  V30 13753 N 1308.12 0.00332656 -1.576 0
M  V30 13754 C 1309.53 0.546581 -1.7852 0
M  V30 13755 C 1309.88 1.74147 -0.903722 0
M  V30 13756 O 1309.01 2.16144 -0.105314 0
M  V30 13757 C 1309.6 0.998344 -3.23757 0
M  V30 13758 C 1308.16 1.48693 -3.45785 0
M  V30 13759 C 1307.31 0.436617 -2.73841 0
M  V30 13760 H 1310.26 -0.222852 -1.57128 0
M  V30 13761 H 1310.28 1.86452 -3.31686 0
M  V30 13762 H 1309.79 0.128479 -3.87887 0
M  V30 13763 H 1307.89 2.3778 -2.86865 0
M  V30 13764 H 1308 1.51668 -4.5446 0
M  V30 13765 H 1306.37 0.897506 -2.38363 0
M  V30 13766 H 1307.15 -0.424225 -3.40669 0
M  V30 13767 N 1309.6 1.55164 0.276031 0
M  V30 13768 C 1311.01 1.46936 0.623061 0
M  V30 13769 C 1311.21 0.680977 1.89644 0
M  V30 13770 O 1310.27 0.198618 2.51718 0
M  V30 13771 C 1311.58 2.91123 0.752839 0
M  V30 13772 C 1313.13 3.01319 0.847093 0
M  V30 13773 C 1313.6 4.46755 1.00867 0
M  V30 13774 N 1315.1 4.5057 1.07427 0
M  V30 13775 C 1315.83 5.60314 1.21804 0
M  V30 13776 N 1315.33 6.7993 1.32919 0
M  V30 13777 N 1317.12 5.4805 1.2489 0
M  V30 13778 H 1309.27 2.04877 -0.560282 0
M  V30 13779 H 1311.53 0.928925 -0.189217 0
M  V30 13780 H 1311.24 3.51521 -0.112333 0
M  V30 13781 H 1311.11 3.39967 1.63408 0
M  V30 13782 H 1313.5 2.41021 1.70274 0
M  V30 13783 H 1313.58 2.55733 -0.0586896 0
M  V30 13784 H 1313.23 5.07655 0.1577 0
M  V30 13785 H 1313.16 4.89995 1.92906 0
M  V30 13786 H 1315.65 3.64404 1.00089 0
M  V30 13787 H 1315.96 7.59319 1.43714 0
M  V30 13788 H 1314.3 6.82747 1.29929 0
M  V30 13789 H 1317.5 4.53542 1.15834 0
M  V30 13790 H 1317.67 6.33621 1.3575 0
M  V30 13791 N 1311.07 -0.540404 1.48045 0
M  V30 13792 C 1312 -1.65538 1.6468 0
M  V30 13793 C 1312.99 -1.62713 0.495847 0
M  V30 13794 O 1314.17 -1.80072 0.727172 0
M  V30 13795 C 1311.3 -3.0415 1.67661 0
M  V30 13796 C 1310.25 -3.2183 2.82152 0
M  V30 13797 C 1309.58 -4.61397 2.70216 0
M  V30 13798 C 1310.88 -3.05596 4.23567 0
M  V30 13799 H 1312.57 -1.51873 2.58021 0
M  V30 13800 H 1310.12 -0.729208 1.24171 0
M  V30 13801 H 1312.07 -3.82013 1.77887 0
M  V30 13802 H 1310.8 -3.18814 0.708907 0
M  V30 13803 H 1309.46 -2.4638 2.71463 0
M  V30 13804 H 1309.1 -4.72883 1.71437 0
M  V30 13805 H 1308.8 -4.74174 3.47035 0
M  V30 13806 H 1310.33 -5.41374 2.82395 0
M  V30 13807 H 1311.74 -3.73261 4.35143 0
M  V30 13808 H 1310.14 -3.29871 5.01303 0
M  V30 13809 H 1311.21 -2.0214 4.40758 0
M  V30 13810 N 1312.55 -1.36459 -0.788468 0
M  V30 13811 C 1313.8 -1.30935 -1.54867 0
M  V30 13812 C 1314.13 0.110916 -1.93883 0
M  V30 13813 O 1313.41 1.06452 -1.62783 0
M  V30 13814 C 1313.69 -2.23294 -2.8251 0
M  V30 13815 C 1313.54 -3.74022 -2.49856 0
M  V30 13816 C 1314.86 -2.14407 -3.84341 0
M  V30 13817 H 1311.98 -0.476958 -0.561854 0
M  V30 13818 H 1314.62 -1.67018 -0.905805 0
M  V30 13819 H 1312.77 -1.92652 -3.37369 0
M  V30 13820 H 1314.44 -4.15187 -2.01041 0
M  V30 13821 H 1312.69 -3.93411 -1.82785 0
M  V30 13822 H 1313.36 -4.34057 -3.41026 0
M  V30 13823 H 1315.83 -2.41381 -3.38932 0
M  V30 13824 H 1314.71 -2.81199 -4.71401 0
M  V30 13825 H 1314.97 -1.13166 -4.27371 0
M  V30 13826 N 1314.03 1.01274 -1.20754 0
M  V30 13827 C 1315.28 1.74932 -1.02005 0
M  V30 13828 C 1315.61 1.89285 0.447372 0
M  V30 13829 O 1314.86 1.41838 1.34835 0
M  V30 13830 C 1315.16 3.16862 -1.65329 0
M  V30 13831 C 1314.83 3.22476 -3.15151 0
M  V30 13832 C 1313.49 3.23715 -3.56036 0
M  V30 13833 C 1315.84 3.20332 -4.11141 0
M  V30 13834 C 1313.17 3.20487 -4.91431 0
M  V30 13835 C 1315.52 3.18646 -5.46487 0
M  V30 13836 C 1314.18 3.18191 -5.8678 0
M  V30 13837 H 1313.45 0.640121 -0.373264 0
M  V30 13838 H 1316.1 1.18751 -1.50234 0
M  V30 13839 H 1314.41 3.76225 -1.09372 0
M  V30 13840 H 1316.1 3.72556 -1.48333 0
M  V30 13841 H 1312.69 3.22249 -2.82584 0
M  V30 13842 H 1316.88 3.18541 -3.80585 0
M  V30 13843 H 1312.13 3.18468 -5.21908 0
M  V30 13844 H 1316.31 3.1594 -6.20609 0
M  V30 13845 H 1313.93 3.15443 -6.91664 0
M  V30 13846 N 1315.51 1.01404 1.20644 0
M  V30 13847 C 1316.42 0.591693 2.27016 0
M  V30 13848 C 1317.44 -0.36958 1.7003 0
M  V30 13849 O 1318.61 -0.231165 2.00069 0
M  V30 13850 C 1315.68 -0.0659827 3.46637 0
M  V30 13851 C 1314.74 0.940911 4.18862 0
M  V30 13852 C 1313.97 0.314526 5.32772 0
M  V30 13853 O 1314.19 -0.886404 5.63471 0
M  V30 13854 O 1313.13 1.02998 5.93022 0
M  V30 13855 H 1316.95 1.4772 2.65353 0
M  V30 13856 H 1314.54 0.783399 1.27213 0
M  V30 13857 H 1316.42 -0.433412 4.19165 0
M  V30 13858 H 1315.1 -0.925729 3.10181 0
M  V30 13859 H 1314 1.35966 3.48517 0
M  V30 13860 H 1315.34 1.77054 4.59252 0
M  V30 13861 N 1316.99 -1.36373 0.789944 0
M  V30 13862 C 1318.23 -1.99523 0.363119 0
M  V30 13863 C 1318.57 -1.6255 -1.0626 0
M  V30 13864 O 1317.84 -0.880551 -1.73426 0
M  V30 13865 C 1318.12 -3.56215 0.527526 0
M  V30 13866 C 1317.98 -4.0304 1.99697 0
M  V30 13867 C 1319.3 -4.40063 -0.0571079 0
M  V30 13868 H 1316.42 -0.724824 0.133412 0
M  V30 13869 H 1319.06 -1.61778 0.996381 0
M  V30 13870 H 1317.21 -3.88498 -0.0115636 0
M  V30 13871 H 1318.88 -3.81241 2.59717 0
M  V30 13872 H 1317.12 -3.54561 2.49939 0
M  V30 13873 H 1317.79 -5.12001 2.06297 0
M  V30 13874 H 1320.27 -4.14143 0.403082 0
M  V30 13875 H 1319.15 -5.4883 0.0879494 0
M  V30 13876 H 1319.41 -4.26901 -1.14926 0
M  V30 13877 N 1318.47 -0.542005 -1.47987 0
M  V30 13878 C 1319.69 -0.016717 -2.06893 0
M  V30 13879 C 1320.11 1.27015 -1.39687 0
M  V30 13880 O 1319.47 1.75845 -0.488326 0
M  V30 13881 C 1319.52 0.198437 -3.60955 0
M  V30 13882 O 1319.24 -1.03746 -4.25639 0
M  V30 13883 C 1320.74 0.762741 -4.36689 0
M  V30 13884 H 1317.96 -0.0389497 -0.669869 0
M  V30 13885 H 1320.5 -0.751082 -1.90208 0
M  V30 13886 H 1318.66 0.882884 -3.77205 0
M  V30 13887 H 1319.07 -0.82568 -5.1796 0
M  V30 13888 H 1320.55 0.862649 -5.45218 0
M  V30 13889 H 1321.02 1.77049 -4.01933 0
M  V30 13890 H 1321.63 0.114478 -4.25146 0
M  V30 13891 N 1319.94 1.55134 -0.277709 0
M  V30 13892 C 1320.89 2.2263 0.608637 0
M  V30 13893 C 1321.86 1.20067 1.14774 0
M  V30 13894 O 1323.05 1.48617 1.19657 0
M  V30 13895 C 1320.19 2.95308 1.78571 0
M  V30 13896 C 1319.3 4.12595 1.28021 0
M  V30 13897 C 1318.43 4.7291 2.41929 0
M  V30 13898 C 1317.47 5.82386 1.88395 0
M  V30 13899 N 1316.61 6.36754 2.95786 0
M  V30 13900 H 1321.45 2.97988 0.0264138 0
M  V30 13901 H 1318.99 1.471 0.00127068 0
M  V30 13902 H 1320.94 3.35662 2.47764 0
M  V30 13903 H 1319.57 2.22368 2.33992 0
M  V30 13904 H 1318.63 3.77343 0.481297 0
M  V30 13905 H 1319.94 4.91537 0.848128 0
M  V30 13906 H 1319.09 5.15997 3.1911 0
M  V30 13907 H 1317.83 3.93251 2.88453 0
M  V30 13908 H 1316.84 5.38746 1.09694 0
M  V30 13909 H 1318.06 6.63916 1.42803 0
M  V30 13910 H 1316.01 5.59987 3.41687 0
M  V30 13911 H 1315.92 7.10975 2.57002 0
M  V30 13912 H 1317.19 6.845 3.72935 0
M  V30 13913 N 1321.42 0.00503138 1.57599 0
M  V30 13914 C 1322.67 -0.674107 1.91905 0
M  V30 13915 C 1323.02 -1.71101 0.8799 0
M  V30 13916 O 1322.32 -1.913 -0.107261 0
M  V30 13917 C 1322.51 -1.35485 3.30724 0
M  V30 13918 C 1322.34 -0.385403 4.48045 0
M  V30 13919 C 1321.11 0.00602574 5.053 0
M  V30 13920 C 1323.31 0.350442 5.13105 0
M  V30 13921 N 1321.29 0.97316 6.06138 0
M  V30 13922 C 1322.66 1.1721 6.0882 0
M  V30 13923 C 1324.71 0.413738 4.96178 0
M  V30 13924 C 1323.42 2.05129 6.89431 0
M  V30 13925 C 1325.44 1.28018 5.77378 0
M  V30 13926 C 1324.81 2.08967 6.7269 0
M  V30 13927 H 1320.9 -0.219721 0.750498 0
M  V30 13928 H 1323.49 0.0665598 1.94586 0
M  V30 13929 H 1321.66 -2.06578 3.28907 0
M  V30 13930 H 1323.39 -1.98909 3.52445 0
M  V30 13931 H 1320.15 -0.363403 4.72204 0
M  V30 13932 H 1320.57 1.45225 6.6124 0
M  V30 13933 H 1325.21 -0.19783 4.22337 0
M  V30 13934 H 1322.93 2.67351 7.62594 0
M  V30 13935 H 1326.52 1.33313 5.66321 0
M  V30 13936 H 1325.4 2.74926 7.34428 0
M  V30 13937 N 1322.9 -1.55308 -0.267798 0
M  V30 13938 C 1323.83 -1.91555 -1.33525 0
M  V30 13939 C 1324.81 -0.778001 -1.51265 0
M  V30 13940 O 1326 -1.03657 -1.64222 0
M  V30 13941 C 1323.13 -2.19201 -2.69385 0
M  V30 13942 C 1322.08 -3.3501 -2.66369 0
M  V30 13943 C 1321.41 -3.48148 -4.05829 0
M  V30 13944 C 1322.71 -4.71265 -2.25182 0
M  V30 13945 H 1324.4 -2.80965 -1.03437 0
M  V30 13946 H 1321.95 -1.35183 -0.496141 0
M  V30 13947 H 1323.9 -2.43146 -3.44177 0
M  V30 13948 H 1322.62 -1.26596 -3.01067 0
M  V30 13949 H 1321.28 -3.11041 -1.94034 0
M  V30 13950 H 1320.93 -2.53 -4.34741 0
M  V30 13951 H 1320.63 -4.26014 -4.04704 0
M  V30 13952 H 1322.15 -3.74391 -4.82352 0
M  V30 13953 H 1323.57 -4.94719 -2.89699 0
M  V30 13954 H 1321.96 -5.52084 -2.3521 0
M  V30 13955 H 1323.03 -4.69735 -1.20319 0
M  V30 13956 N 1324.38 0.532545 -1.4833 0
M  V30 13957 C 1325.31 1.64662 -1.65555 0
M  V30 13958 C 1326.29 1.62447 -0.50447 0
M  V30 13959 O 1327.47 1.79684 -0.736712 0
M  V30 13960 C 1324.6 3.03256 -1.69272 0
M  V30 13961 C 1323.56 3.20329 -2.83854 0
M  V30 13962 C 1322.88 4.59958 -2.72659 0
M  V30 13963 C 1324.18 3.03345 -4.25181 0
M  V30 13964 H 1325.88 1.50502 -2.58823 0
M  V30 13965 H 1323.42 0.722612 -1.24556 0
M  V30 13966 H 1325.38 3.81064 -1.79911 0
M  V30 13967 H 1324.1 3.18433 -0.725805 0
M  V30 13968 H 1322.76 2.44937 -2.72766 0
M  V30 13969 H 1322.41 4.71967 -1.73942 0
M  V30 13970 H 1322.11 4.72327 -3.49544 0
M  V30 13971 H 1323.63 5.39869 -2.85262 0
M  V30 13972 H 1325.05 3.70948 -4.37116 0
M  V30 13973 H 1323.44 3.27208 -5.03045 0
M  V30 13974 H 1324.51 1.998 -4.41824 0
M  V30 13975 N 1325.86 1.36875 0.78122 0
M  V30 13976 C 1326.82 1.31706 1.8758 0
M  V30 13977 C 1327.82 0.223044 1.59246 0
M  V30 13978 O 1329.01 0.478327 1.67504 0
M  V30 13979 C 1326.14 1.0437 3.2453 0
M  V30 13980 H 1327.33 2.29059 1.93576 0
M  V30 13981 H 1324.89 1.21766 0.979931 0
M  V30 13982 H 1325.62 0.0750941 3.24213 0
M  V30 13983 H 1325.41 1.83548 3.46486 0
M  V30 13984 H 1326.9 1.0338 4.04602 0
M  V30 13985 N 1327.33 -1.00632 1.21289 0
M  V30 13986 C 1328.58 -1.73802 1.02351 0
M  V30 13987 C 1328.9 -1.90503 -0.443611 0
M  V30 13988 O 1330.1 -2.60868 -0.752356 0
M  V30 13989 C 1328.56 -3.12647 1.78269 0
M  V30 13990 C 1328.17 -3.03923 3.29142 0
M  V30 13991 C 1329.91 -3.89956 1.67735 0
M  V30 13992 C 1327.82 -4.3784 3.97556 0
M  V30 13993 H 1326.75 -0.651616 0.379358 0
M  V30 13994 H 1329.4 -1.12446 1.45011 0
M  V30 13995 H 1327.78 -3.74605 1.28401 0
M  V30 13996 H 1328.95 -2.51211 3.86303 0
M  V30 13997 H 1327.27 -2.40103 3.40205 0
M  V30 13998 H 1329.87 -4.89051 2.1618 0
M  V30 13999 H 1330.21 -4.11423 0.635338 0
M  V30 14000 H 1330.74 -3.34647 2.15072 0
M  V30 14001 H 1327.48 -4.21573 5.01952 0
M  V30 14002 H 1327 -4.90518 3.45184 0
M  V30 14003 H 1328.68 -5.06644 4.02393 0
M  V30 14004 N 1328.81 -1.02043 -1.20104 0
M  V30 14005 C 1329.74 -0.614421 -2.25271 0
M  V30 14006 C 1330.72 0.37242 -1.65973 0
M  V30 14007 O 1331.91 0.257005 -1.92492 0
M  V30 14008 C 1329.04 0.0442085 -3.47272 0
M  V30 14009 C 1327.99 -0.864019 -4.19188 0
M  V30 14010 C 1327.32 -0.0709551 -5.34653 0
M  V30 14011 C 1328.62 -2.17385 -4.74912 0
M  V30 14012 H 1330.31 -1.49355 -2.59487 0
M  V30 14013 H 1327.86 -0.719591 -1.24731 0
M  V30 14014 H 1329.81 0.339825 -4.20028 0
M  V30 14015 H 1328.53 0.958082 -3.12231 0
M  V30 14016 H 1327.19 -1.1437 -3.48303 0
M  V30 14017 H 1326.84 0.844688 -4.95857 0
M  V30 14018 H 1326.54 -0.67583 -5.83701 0
M  V30 14019 H 1328.07 0.218118 -6.1021 0
M  V30 14020 H 1329.48 -1.94034 -5.39466 0
M  V30 14021 H 1327.88 -2.72991 -5.34412 0
M  V30 14022 H 1328.95 -2.83427 -3.93443 0
M  V30 14023 N 1330.29 1.35952 -0.797165 0
M  V30 14024 C 1331.54 1.98639 -0.372405 0
M  V30 14025 C 1331.86 1.63571 1.06158 0
M  V30 14026 O 1331.13 0.913516 1.73297 0
M  V30 14027 H 1329.71 0.734753 -0.13471 0
M  V30 14028 H 1332.37 1.66022 -1.02092 0
M  V30 14029 H 1331.47 3.08533 -0.47049 0
M  V30 14030 N 1331.77 0.549846 1.47697 0
M  V30 14031 C 1333.18 0.11453 1.86348 0
M  V30 14032 C 1333.53 -1.31368 1.45729 0
M  V30 14033 O 1332.66 -1.98707 0.856989 0
M  V30 14034 C 1333.25 0.201072 3.38203 0
M  V30 14035 C 1331.81 -0.179162 3.75973 0
M  V30 14036 C 1330.96 0.551951 2.71751 0
M  V30 14037 H 1333.91 0.759989 1.39319 0
M  V30 14038 H 1333.93 -0.582216 3.76019 0
M  V30 14039 H 1333.44 1.24065 3.67736 0
M  V30 14040 H 1331.54 -1.22013 3.52056 0
M  V30 14041 H 1331.65 0.174273 4.78783 0
M  V30 14042 H 1330.02 -0.00411819 2.547 0
M  V30 14043 H 1330.8 1.59254 3.04127 0
M  V30 14044 N 1333.25 -1.54984 0.285932 0
M  V30 14045 C 1334.21 -2.2164 -0.583824 0
M  V30 14046 C 1335.21 -1.19764 -1.073 0
M  V30 14047 O 1336.4 -1.44598 -0.971439 0
M  V30 14048 C 1333.53 -2.8909 -1.80665 0
M  V30 14049 H 1334.72 -2.999 -0.00168109 0
M  V30 14050 H 1332.28 -1.56257 0.0366325 0
M  V30 14051 H 1333.01 -2.14869 -2.42903 0
M  V30 14052 H 1332.8 -3.63756 -1.4637 0
M  V30 14053 H 1334.29 -3.39982 -2.42491 0
M  V30 14054 N 1334.72 -0.0133892 -1.57594 0
M  V30 14055 C 1335.95 0.67827 -1.95149 0
M  V30 14056 C 1336.36 1.67089 -0.887572 0
M  V30 14057 O 1335.71 1.8316 0.140774 0
M  V30 14058 C 1335.77 1.45441 -3.28766 0
M  V30 14059 C 1335.43 0.621889 -4.52749 0
M  V30 14060 C 1336.43 -0.0961541 -5.19811 0
M  V30 14061 C 1334.11 0.563917 -4.99124 0
M  V30 14062 C 1336.11 -0.86101 -6.31558 0
M  V30 14063 C 1333.79 -0.204654 -6.10757 0
M  V30 14064 C 1334.79 -0.915839 -6.76832 0
M  V30 14065 O 1334.48 -1.67184 -7.86323 0
M  V30 14066 H 1334.21 0.192983 -0.647869 0
M  V30 14067 H 1336.77 -0.0646816 -2.05298 0
M  V30 14068 H 1335 2.24215 -3.15063 0
M  V30 14069 H 1336.69 2.03268 -3.51336 0
M  V30 14070 H 1337.45 -0.0606029 -4.84962 0
M  V30 14071 H 1333.33 1.10702 -4.47511 0
M  V30 14072 H 1336.87 -1.41664 -6.83064 0
M  V30 14073 H 1332.77 -0.241979 -6.45046 0
M  V30 14074 H 1333.54 -1.58996 -8.02909 0
M  V30 14075 N 1336.2 1.55448 0.259558 0
M  V30 14076 C 1337.13 1.9226 1.32508 0
M  V30 14077 C 1338.11 0.786012 1.5085 0
M  V30 14078 O 1339.3 1.04526 1.6367 0
M  V30 14079 C 1336.43 2.20627 2.68218 0
M  V30 14080 C 1335.38 3.36418 2.64589 0
M  V30 14081 C 1334.71 3.50295 4.03977 0
M  V30 14082 C 1336.01 4.72452 2.2268 0
M  V30 14083 H 1337.7 2.81509 1.01945 0
M  V30 14084 H 1335.25 1.35444 0.488965 0
M  V30 14085 H 1337.2 2.44968 3.42883 0
M  V30 14086 H 1335.93 1.28191 3.00391 0
M  V30 14087 H 1334.58 3.12065 1.92382 0
M  V30 14088 H 1334.23 2.55302 4.33394 0
M  V30 14089 H 1333.93 4.28155 4.02439 0
M  V30 14090 H 1335.46 3.76944 4.8036 0
M  V30 14091 H 1336.87 4.96249 2.87071 0
M  V30 14092 H 1335.27 5.53323 2.32279 0
M  V30 14093 H 1336.34 4.70367 1.17826 0
M  V30 14094 N 1337.68 -0.524672 1.4861 0
M  V30 14095 C 1338.61 -1.63782 1.66426 0
M  V30 14096 C 1339.59 -1.62177 0.513077 0
M  V30 14097 O 1340.78 -1.7929 0.74623 0
M  V30 14098 C 1337.91 -3.02354 1.70877 0
M  V30 14099 C 1336.86 -3.18819 2.85549 0
M  V30 14100 C 1336.19 -4.58506 2.75094 0
M  V30 14101 C 1337.49 -3.01086 4.26784 0
M  V30 14102 H 1339.18 -1.49127 2.59618 0
M  V30 14103 H 1336.73 -0.715997 1.24938 0
M  V30 14104 H 1338.68 -3.80105 1.81929 0
M  V30 14105 H 1337.4 -3.18044 0.742682 0
M  V30 14106 H 1336.06 -2.43487 2.74061 0
M  V30 14107 H 1335.71 -4.71038 1.76443 0
M  V30 14108 H 1335.41 -4.70466 3.52044 0
M  V30 14109 H 1336.93 -5.38348 2.88121 0
M  V30 14110 H 1338.35 -3.68624 4.39077 0
M  V30 14111 H 1336.75 -3.24536 5.04774 0
M  V30 14112 H 1337.82 -1.97454 4.42877 0
M  V30 14113 N 1339.16 -1.37287 -0.77395 0
M  V30 14114 C 1340.11 -1.32872 -1.88716 0
M  V30 14115 C 1341.08 -0.194655 -1.64955 0
M  V30 14116 O 1342.26 -0.383662 -1.86903 0
M  V30 14117 C 1339.4 -1.13934 -3.2575 0
M  V30 14118 C 1338.51 -2.36552 -3.61479 0
M  V30 14119 C 1337.65 -2.10504 -4.87711 0
M  V30 14120 C 1336.69 -3.28999 -5.16165 0
M  V30 14121 N 1335.82 -3.02517 -6.33584 0
M  V30 14122 H 1340.66 -2.28051 -1.91825 0
M  V30 14123 H 1338.2 -1.13325 -0.93786 0
M  V30 14124 H 1340.16 -1.00976 -4.04796 0
M  V30 14125 H 1338.79 -0.22404 -3.22022 0
M  V30 14126 H 1337.84 -2.60257 -2.77435 0
M  V30 14127 H 1339.15 -3.24931 -3.78446 0
M  V30 14128 H 1338.31 -1.94564 -5.74656 0
M  V30 14129 H 1337.05 -1.19459 -4.72843 0
M  V30 14130 H 1336.05 -3.4548 -4.27696 0
M  V30 14131 H 1337.28 -4.20892 -5.32942 0
M  V30 14132 H 1335.22 -2.14099 -6.20079 0
M  V30 14133 H 1335.14 -3.84439 -6.50955 0
M  V30 14134 H 1336.41 -2.9019 -7.23471 0
M  V30 14135 N 1340.64 0.999871 -1.21821 0
M  V30 14136 C 1341.6 2.07024 -0.983541 0
M  V30 14137 C 1342.6 1.6073 0.0474011 0
M  V30 14138 O 1343.79 1.73156 -0.190398 0
M  V30 14139 C 1340.92 3.37444 -0.484199 0
M  V30 14140 H 1342.11 2.29276 -1.9332 0
M  V30 14141 H 1339.67 1.1704 -1.03592 0
M  V30 14142 H 1340.4 3.20874 0.470138 0
M  V30 14143 H 1340.19 3.72378 -1.2279 0
M  V30 14144 H 1341.68 4.16213 -0.34004 0
M  V30 14145 N 1342.11 1.02678 1.19562 0
M  V30 14146 C 1343.34 0.741424 1.93695 0
M  V30 14147 C 1343.76 -0.693203 1.74861 0
M  V30 14148 O 1343.12 -1.47833 1.04953 0
M  V30 14149 C 1343.17 1.09514 3.43568 0
M  V30 14150 O 1342.27 0.212596 4.11852 0
M  V30 14151 H 1341.62 0.274128 0.604773 0
M  V30 14152 H 1344.15 1.37289 1.517 0
M  V30 14153 H 1344.16 1.05115 3.94227 0
M  V30 14154 H 1342.83 2.14034 3.56598 0
M  V30 14155 H 1341.41 0.315 3.71567 0
M  V30 14156 N 1343.59 -1.35528 0.804364 0
M  V30 14157 C 1344.52 -2.32388 0.227604 0
M  V30 14158 C 1345.5 -1.57368 -0.645709 0
M  V30 14159 O 1346.69 -1.85448 -0.576441 0
M  V30 14160 C 1343.82 -3.41603 -0.62645 0
M  V30 14161 C 1342.77 -4.27743 0.148187 0
M  V30 14162 C 1342.1 -5.28259 -0.827425 0
M  V30 14163 C 1343.4 -5.04661 1.34591 0
M  V30 14164 H 1345.09 -2.80874 1.03684 0
M  V30 14165 H 1342.64 -1.3504 0.500031 0
M  V30 14166 H 1344.59 -4.08365 -1.03999 0
M  V30 14167 H 1343.32 -2.91721 -1.46855 0
M  V30 14168 H 1341.97 -3.62558 0.542874 0
M  V30 14169 H 1341.62 -4.74645 -1.66496 0
M  V30 14170 H 1341.32 -5.86763 -0.313453 0
M  V30 14171 H 1342.85 -5.97893 -1.23921 0
M  V30 14172 H 1344.26 -5.6438 1.00736 0
M  V30 14173 H 1342.66 -5.7265 1.79422 0
M  V30 14174 H 1343.73 -4.35432 2.1337 0
M  V30 14175 N 1345.07 -0.557671 -1.47404 0
M  V30 14176 C 1346 0.178019 -2.3282 0
M  V30 14177 C 1346.98 0.908318 -1.43818 0
M  V30 14178 O 1348.17 0.888693 -1.72673 0
M  V30 14179 C 1345.3 1.2082 -3.25607 0
M  V30 14180 C 1344.25 0.594335 -4.23853 0
M  V30 14181 C 1343.58 1.72919 -5.05968 0
M  V30 14182 C 1344.88 -0.452196 -5.20339 0
M  V30 14183 H 1346.57 -0.535091 -2.9458 0
M  V30 14184 H 1344.12 -0.258775 -1.41656 0
M  V30 14185 H 1346.07 1.73104 -3.84204 0
M  V30 14186 H 1344.79 1.95126 -2.61903 0
M  V30 14187 H 1343.45 0.0927898 -3.66483 0
M  V30 14188 H 1343.1 2.4613 -4.38668 0
M  V30 14189 H 1342.8 1.32422 -5.72484 0
M  V30 14190 H 1344.33 2.25527 -5.67424 0
M  V30 14191 H 1345.74 -0.0154011 -5.73298 0
M  V30 14192 H 1344.14 -0.776068 -5.95061 0
M  V30 14193 H 1345.21 -1.34791 -4.65789 0
M  V30 14194 N 1346.55 1.54831 -0.294147 0
M  V30 14195 C 1347.97 1.59489 0.0594489 0
M  V30 14196 C 1348.17 1.31121 1.53002 0
M  V30 14197 O 1347.22 1.08129 2.28176 0
M  V30 14198 C 1348.53 2.98858 -0.332323 0
M  V30 14199 C 1350.08 3.1174 -0.280518 0
M  V30 14200 C 1350.56 4.53407 -0.64701 0
M  V30 14201 N 1352.05 4.59307 -0.599284 0
M  V30 14202 C 1352.78 5.66983 -0.85542 0
M  V30 14203 N 1352.28 6.82726 -1.17717 0
M  V30 14204 N 1354.07 5.56621 -0.78294 0
M  V30 14205 H 1346.22 1.71532 -1.25262 0
M  V30 14206 H 1348.49 0.800801 -0.507368 0
M  V30 14207 H 1348.19 3.24517 -1.35578 0
M  V30 14208 H 1348.07 3.75862 0.317443 0
M  V30 14209 H 1350.45 2.85834 0.733683 0
M  V30 14210 H 1350.53 2.36907 -0.96481 0
M  V30 14211 H 1350.18 4.80042 -1.65899 0
M  V30 14212 H 1350.11 5.26567 0.0592796 0
M  V30 14213 H 1352.6 3.76169 -0.361259 0
M  V30 14214 H 1352.91 7.60761 -1.35877 0
M  V30 14215 H 1351.26 6.84295 -1.21513 0
M  V30 14216 H 1354.45 4.65075 -0.531282 0
M  V30 14217 H 1354.62 6.40456 -0.985929 0
M  V30 14218 N 1348.03 0.0217466 1.57585 0
M  V30 14219 C 1349.28 -0.657793 1.90672 0
M  V30 14220 C 1349.59 -1.73713 0.899066 0
M  V30 14221 O 1350.8 -2.4728 1.12092 0
M  V30 14222 C 1349.25 -1.22124 3.38547 0
M  V30 14223 C 1348.86 -0.175575 4.47656 0
M  V30 14224 C 1350.6 -1.87771 3.80713 0
M  V30 14225 C 1348.51 -0.750239 5.86622 0
M  V30 14226 H 1347.44 -0.249459 0.711538 0
M  V30 14227 H 1350.09 0.0858449 1.83299 0
M  V30 14228 H 1348.47 -2.01625 3.40828 0
M  V30 14229 H 1349.65 0.596436 4.56924 0
M  V30 14230 H 1347.96 0.381715 4.14647 0
M  V30 14231 H 1350.56 -2.3171 4.81887 0
M  V30 14232 H 1350.9 -2.71737 3.1538 0
M  V30 14233 H 1351.44 -1.14971 3.80823 0
M  V30 14234 H 1348.17 0.0511222 6.5548 0
M  V30 14235 H 1347.69 -1.49091 5.80975 0
M  V30 14236 H 1349.37 -1.24225 6.34962 0
M  V30 14237 N 1349.51 -1.55583 -0.251311 0
M  V30 14238 C 1350.92 -1.67693 -0.820719 0
M  V30 14239 C 1351.27 -0.618393 -1.862 0
M  V30 14240 O 1350.39 0.236158 -2.15108 0
M  V30 14241 C 1350.99 -3.04011 -1.49542 0
M  V30 14242 C 1349.55 -3.18075 -2.01259 0
M  V30 14243 C 1348.69 -2.63557 -0.862138 0
M  V30 14244 H 1351.64 -1.58677 -0.0272072 0
M  V30 14245 H 1351.67 -2.9821 -2.36328 0
M  V30 14246 H 1351.18 -3.81032 -0.737323 0
M  V30 14247 H 1349.28 -2.45869 -2.79963 0
M  V30 14248 H 1349.39 -4.24927 -2.213 0
M  V30 14249 H 1347.76 -2.21268 -1.26145 0
M  V30 14250 H 1348.54 -3.431 -0.117196 0
M  V30 14251 N 1350.98 0.516783 -1.48886 0
M  V30 14252 C 1352.21 1.2944 -1.61024 0
M  V30 14253 C 1352.62 1.87195 -0.274705 0
M  V30 14254 O 1351.96 1.67787 0.747868 0
M  V30 14255 C 1352.03 2.4743 -2.60804 0
M  V30 14256 C 1351.69 2.10663 -4.05549 0
M  V30 14257 C 1352.69 1.65559 -4.92835 0
M  V30 14258 C 1350.37 2.20782 -4.51177 0
M  V30 14259 C 1352.37 1.31057 -6.23781 0
M  V30 14260 C 1350.05 1.85891 -5.82141 0
M  V30 14261 C 1351.05 1.41101 -6.68266 0
M  V30 14262 O 1350.74 1.06674 -7.96791 0
M  V30 14263 H 1350.47 0.399402 -0.545394 0
M  V30 14264 H 1353.03 0.628719 -1.95541 0
M  V30 14265 H 1351.26 3.17023 -2.21435 0
M  V30 14266 H 1352.94 3.09478 -2.62637 0
M  V30 14267 H 1353.71 1.57201 -4.58817 0
M  V30 14268 H 1349.59 2.54598 -3.84319 0
M  V30 14269 H 1353.13 0.960245 -6.9096 0
M  V30 14270 H 1349.03 1.93894 -6.15691 0
M  V30 14271 H 1349.8 1.19958 -8.09662 0
M  V30 14272 N 1352.46 1.37696 0.766659 0
M  V30 14273 C 1353.71 1.33185 1.52539 0
M  V30 14274 C 1354.04 -0.0821239 1.94327 0
M  V30 14275 O 1353.29 -1.05645 1.64735 0
M  V30 14276 C 1353.59 2.22154 2.79968 0
M  V30 14277 C 1353.26 3.70344 2.57208 0
M  V30 14278 C 1351.92 4.10729 2.50709 0
M  V30 14279 C 1354.27 4.64205 2.36988 0
M  V30 14280 C 1351.6 5.43082 2.21988 0
M  V30 14281 C 1353.95 5.96801 2.0979 0
M  V30 14282 C 1352.61 6.36284 2.01739 0
M  V30 14283 H 1351.88 0.487357 0.558179 0
M  V30 14284 H 1354.53 1.69945 0.882662 0
M  V30 14285 H 1352.84 1.78406 3.48825 0
M  V30 14286 H 1354.53 2.15975 3.37869 0
M  V30 14287 H 1351.12 3.38319 2.63131 0
M  V30 14288 H 1355.31 4.3386 2.40996 0
M  V30 14289 H 1350.56 5.7263 2.14254 0
M  V30 14290 H 1354.74 6.6908 1.93145 0
M  V30 14291 H 1352.36 7.38765 1.79248 0
M  V30 14292 N 1353.94 -0.993397 1.22349 0
M  V30 14293 C 1355.19 -1.73544 1.04931 0
M  V30 14294 C 1355.52 -1.89721 -0.414661 0
M  V30 14295 O 1354.79 -1.44001 -1.30743 0
M  V30 14296 C 1355.08 -3.14131 1.7605 0
M  V30 14297 C 1354.93 -3.05604 3.30039 0
M  V30 14298 C 1356.25 -4.13294 1.51249 0
M  V30 14299 H 1353.37 -0.629915 0.382591 0
M  V30 14300 H 1356.01 -1.15737 1.50682 0
M  V30 14301 H 1354.16 -3.63483 1.37157 0
M  V30 14302 H 1355.83 -2.63876 3.78374 0
M  V30 14303 H 1354.07 -2.42421 3.59742 0
M  V30 14304 H 1354.75 -4.05086 3.74979 0
M  V30 14305 H 1357.22 -3.72696 1.85033 0
M  V30 14306 H 1356.1 -5.09781 2.03507 0
M  V30 14307 H 1356.36 -4.39855 0.444973 0
M  V30 14308 N 1355.42 -1.03311 -1.19015 0
M  V30 14309 C 1356.83 -0.750946 -1.4083 0
M  V30 14310 C 1357.03 0.662704 -1.90291 0
M  V30 14311 O 1356.09 1.42806 -2.08237 0
M  V30 14312 C 1357.4 -1.79064 -2.41571 0
M  V30 14313 C 1358.95 -1.81068 -2.55311 0
M  V30 14314 C 1359.43 -2.84008 -3.59309 0
M  V30 14315 N 1360.92 -2.82852 -3.6681 0
M  V30 14316 C 1361.65 -3.59156 -4.46984 0
M  V30 14317 N 1361.15 -4.45188 -5.30829 0
M  V30 14318 N 1362.94 -3.47679 -4.41674 0
M  V30 14319 H 1355.09 -1.94548 -0.852329 0
M  V30 14320 H 1357.35 -0.841344 -0.436858 0
M  V30 14321 H 1357.06 -2.80425 -2.12261 0
M  V30 14322 H 1356.93 -1.61646 -3.40809 0
M  V30 14323 H 1359.32 -0.803825 -2.83941 0
M  V30 14324 H 1359.4 -2.02562 -1.56212 0
M  V30 14325 H 1359.05 -3.84867 -3.3142 0
M  V30 14326 H 1358.98 -2.59771 -4.58069 0
M  V30 14327 H 1361.47 -2.20457 -3.06932 0
M  V30 14328 H 1361.78 -5.00139 -5.89135 0
M  V30 14329 H 1360.13 -4.49259 -5.30275 0
M  V30 14330 H 1363.32 -2.79876 -3.75216 0
M  V30 14331 H 1363.49 -4.07396 -5.03917 0
M  V30 14332 N 1356.9 1.35099 -0.81154 0
M  V30 14333 C 1357.86 2.28033 -0.230947 0
M  V30 14334 C 1358.86 1.49798 0.584575 0
M  V30 14335 O 1360.05 1.6949 0.402336 0
M  V30 14336 C 1357.18 3.341 0.677486 0
M  V30 14337 H 1358.37 2.80893 -1.05067 0
M  V30 14338 H 1355.93 1.45038 -0.582554 0
M  V30 14339 H 1356.66 2.86435 1.5207 0
M  V30 14340 H 1356.45 3.91986 0.0943563 0
M  V30 14341 H 1357.94 4.0345 1.07787 0
M  V30 14342 N 1358.37 0.56548 1.47106 0
M  V30 14343 C 1359.32 -0.198133 2.27137 0
M  V30 14344 C 1360.31 -0.877743 1.3485 0
M  V30 14345 O 1361.5 -0.774683 1.59147 0
M  V30 14346 C 1358.63 -1.22223 3.20806 0
M  V30 14347 C 1357.71 -0.545616 4.20576 0
M  V30 14348 N 1358.11 0.389029 5.04302 0
M  V30 14349 C 1356.4 -0.798517 4.38793 0
M  V30 14350 C 1357.1 0.782852 5.76408 0
M  V30 14351 N 1356.08 0.13583 5.4343 0
M  V30 14352 H 1359.88 0.520354 2.89257 0
M  V30 14353 H 1357.4 0.386013 1.57746 0
M  V30 14354 H 1359.39 -1.78332 3.76833 0
M  V30 14355 H 1358.05 -1.94172 2.60244 0
M  V30 14356 H 1359.06 0.763644 5.12239 0
M  V30 14357 H 1355.74 -1.50589 3.89396 0
M  V30 14358 H 1357.13 1.55133 6.53746 0
M  V30 14359 N 1359.85 -1.54672 0.302354 0
M  V30 14360 C 1360.82 -2.22246 -0.560283 0
M  V30 14361 C 1361.82 -1.20895 -1.06023 0
M  V30 14362 O 1363.01 -1.45621 -0.956047 0
M  V30 14363 C 1360.14 -2.9099 -1.77589 0
M  V30 14364 H 1361.33 -2.99885 0.0301274 0
M  V30 14365 H 1358.88 -1.56209 0.0532036 0
M  V30 14366 H 1359.62 -2.17433 -2.4061 0
M  V30 14367 H 1359.4 -3.65288 -1.42503 0
M  V30 14368 H 1360.89 -3.42535 -2.38871 0
M  V30 14369 N 1361.33 -0.0301034 -1.57571 0
M  V30 14370 C 1362.26 0.94977 -2.13311 0
M  V30 14371 C 1363.24 1.33865 -1.04948 0
M  V30 14372 O 1364.43 1.4171 -1.32786 0
M  V30 14373 C 1361.56 2.23178 -2.66099 0
M  V30 14374 C 1360.51 1.98362 -3.79258 0
M  V30 14375 C 1359.84 3.32836 -4.18479 0
M  V30 14376 C 1361.14 1.32201 -5.05292 0
M  V30 14377 H 1362.83 0.485562 -2.95436 0
M  V30 14378 H 1360.38 0.232116 -1.42117 0
M  V30 14379 H 1362.33 2.92108 -3.03728 0
M  V30 14380 H 1361.05 2.71766 -1.81137 0
M  V30 14381 H 1359.71 1.31849 -3.42069 0
M  V30 14382 H 1359.36 3.79185 -3.30496 0
M  V30 14383 H 1359.06 3.17037 -4.94733 0
M  V30 14384 H 1360.58 4.03032 -4.58691 0
M  V30 14385 H 1362 1.91133 -5.40501 0
M  V30 14386 H 1360.4 1.26797 -5.86551 0
M  V30 14387 H 1361.47 0.29511 -4.84001 0
M  V30 14388 N 1362.81 1.55714 0.243056 0
M  V30 14389 C 1363.74 1.93655 1.30461 0
M  V30 14390 C 1364.72 0.801968 1.50008 0
M  V30 14391 O 1365.9 1.06256 1.62552 0
M  V30 14392 C 1363.03 2.23459 2.65863 0
M  V30 14393 C 1361.99 3.39205 2.61006 0
M  V30 14394 C 1361.31 3.5456 4.00239 0
M  V30 14395 C 1362.61 4.74787 2.17656 0
M  V30 14396 H 1364.31 2.82575 0.98954 0
M  V30 14397 H 1361.85 1.35955 0.474572 0
M  V30 14398 H 1363.81 2.48591 3.40266 0
M  V30 14399 H 1362.53 1.31369 2.99014 0
M  V30 14400 H 1361.19 3.14088 1.89061 0
M  V30 14401 H 1360.84 2.59884 4.30661 0
M  V30 14402 H 1360.54 4.32399 3.97876 0
M  V30 14403 H 1362.06 3.82017 4.76335 0
M  V30 14404 H 1363.48 4.99266 2.81792 0
M  V30 14405 H 1361.87 5.55756 2.26397 0
M  V30 14406 H 1362.94 4.7159 1.12831 0
M  V30 14407 N 1364.29 -0.50888 1.49158 0
M  V30 14408 C 1365.7 -0.839353 1.35746 0
M  V30 14409 C 1365.9 -1.97797 0.38453 0
M  V30 14410 O 1364.96 -2.51809 -0.186651 0
M  V30 14411 C 1366.27 -1.18698 2.76281 0
M  V30 14412 C 1367.82 -1.29565 2.84924 0
M  V30 14413 C 1368.29 -1.67661 4.26209 0
M  V30 14414 N 1369.79 -1.74725 4.28982 0
M  V30 14415 C 1370.52 -2.05631 5.3526 0
M  V30 14416 N 1370.02 -2.34814 6.51793 0
M  V30 14417 N 1371.81 -2.06815 5.2267 0
M  V30 14418 H 1363.96 0.242065 2.11016 0
M  V30 14419 H 1366.22 0.0456901 0.946898 0
M  V30 14420 H 1365.93 -0.423769 3.49138 0
M  V30 14421 H 1365.8 -2.13227 3.11149 0
M  V30 14422 H 1368.19 -2.0496 2.1231 0
M  V30 14423 H 1368.27 -0.331059 2.53649 0
M  V30 14424 H 1367.92 -0.928198 4.99346 0
M  V30 14425 H 1367.85 -2.65207 4.54943 0
M  V30 14426 H 1370.34 -1.54364 3.44935 0
M  V30 14427 H 1370.65 -2.57562 7.28616 0
M  V30 14428 H 1368.99 -2.32288 6.55032 0
M  V30 14429 H 1372.19 -1.83487 4.30639 0
M  V30 14430 H 1372.36 -2.30568 6.05593 0
M  V30 14431 N 1365.76 -1.381 -0.759346 0
M  V30 14432 C 1367.01 -1.3419 -1.52055 0
M  V30 14433 C 1367.34 0.0697657 -1.94075 0
M  V30 14434 O 1366.62 1.02975 -1.65004 0
M  V30 14435 C 1366.9 -2.29236 -2.7771 0
M  V30 14436 C 1366.75 -3.79237 -2.41866 0
M  V30 14437 C 1368.07 -2.22511 -3.79706 0
M  V30 14438 H 1365.19 -0.488768 -0.551611 0
M  V30 14439 H 1367.83 -1.68902 -0.870174 0
M  V30 14440 H 1365.98 -1.99764 -3.33206 0
M  V30 14441 H 1367.66 -4.19358 -1.92189 0
M  V30 14442 H 1365.9 -3.97199 -1.74399 0
M  V30 14443 H 1366.57 -4.41193 -3.31742 0
M  V30 14444 H 1369.05 -2.48516 -3.33735 0
M  V30 14445 H 1367.92 -2.91134 -4.6533 0
M  V30 14446 H 1368.18 -1.22206 -4.24874 0
M  V30 14447 N 1367.24 0.986894 -1.22875 0
M  V30 14448 C 1368.48 1.74243 -1.06859 0
M  V30 14449 C 1368.85 1.88024 0.388736 0
M  V30 14450 O 1370.05 2.60318 0.669907 0
M  V30 14451 C 1368.32 3.10668 -1.76692 0
M  V30 14452 S 1369.88 4.01884 -1.76166 0
M  V30 14453 H 1366.7 0.59931 -0.382555 0
M  V30 14454 H 1369.3 1.17951 -1.55909 0
M  V30 14455 H 1368 2.98285 -2.81877 0
M  V30 14456 H 1367.53 3.7203 -1.27897 0
M  V30 14457 H 1369.55 4.89451 -0.815627 0
M  V30 14458 N 1368.72 1.0394 1.18466 0
M  V30 14459 C 1369.95 0.762014 1.92356 0
M  V30 14460 C 1370.36 -0.680652 1.76104 0
M  V30 14461 O 1369.72 -1.46385 1.08985 0
M  V30 14462 C 1369.77 1.11717 3.43805 0
M  V30 14463 O 1369.49 2.50319 3.59544 0
M  V30 14464 C 1370.99 0.864099 4.34797 0
M  V30 14465 H 1368.21 0.277999 0.610702 0
M  V30 14466 H 1370.76 1.38672 1.503 0
M  V30 14467 H 1368.91 0.537445 3.83654 0
M  V30 14468 H 1369.33 2.63875 4.53288 0
M  V30 14469 H 1370.8 1.16247 5.39621 0
M  V30 14470 H 1371.28 -0.20117 4.38739 0
M  V30 14471 H 1371.88 1.42706 4.00643 0
M  V30 14472 N 1370.2 -1.34667 0.818693 0
M  V30 14473 C 1371.13 -2.32134 0.252239 0
M  V30 14474 C 1372.11 -1.58044 -0.628982 0
M  V30 14475 O 1373.29 -1.86049 -0.55674 0
M  V30 14476 C 1370.42 -3.42249 -0.590183 0
M  V30 14477 C 1369.38 -4.27562 0.193547 0
M  V30 14478 C 1368.7 -5.29107 -0.771349 0
M  V30 14479 C 1370 -5.03205 1.39936 0
M  V30 14480 H 1371.7 -2.79758 1.06657 0
M  V30 14481 H 1369.24 -1.34502 0.514325 0
M  V30 14482 H 1371.2 -4.09445 -0.996616 0
M  V30 14483 H 1369.92 -2.93262 -1.43752 0
M  V30 14484 H 1368.58 -3.61962 0.581297 0
M  V30 14485 H 1368.23 -4.76384 -1.61453 0
M  V30 14486 H 1367.93 -5.87063 -0.251201 0
M  V30 14487 H 1369.45 -5.99174 -1.17573 0
M  V30 14488 H 1370.87 -5.6328 1.06717 0
M  V30 14489 H 1369.26 -5.70715 1.85485 0
M  V30 14490 H 1370.33 -4.33145 2.17976 0
M  V30 14491 N 1371.68 -0.573274 -1.46804 0
M  V30 14492 C 1372.92 -0.0553432 -2.02724 0
M  V30 14493 C 1373.26 1.29753 -1.44492 0
M  V30 14494 O 1372.53 1.84804 -0.606455 0
M  V30 14495 C 1372.81 0.0205511 -3.60094 0
M  V30 14496 C 1372.67 -1.36055 -4.2873 0
M  V30 14497 C 1373.99 0.725944 -4.34071 0
M  V30 14498 H 1371.1 -0.0215858 -0.736684 0
M  V30 14499 H 1373.75 -0.738657 -1.75054 0
M  V30 14500 H 1371.9 0.602481 -3.838 0
M  V30 14501 H 1373.57 -1.98692 -4.16316 0
M  V30 14502 H 1371.81 -1.93087 -3.88458 0
M  V30 14503 H 1372.48 -1.26001 -5.37427 0
M  V30 14504 H 1374.96 0.231677 -4.15455 0
M  V30 14505 H 1373.83 0.74805 -5.43779 0
M  V30 14506 H 1374.1 1.78536 -4.04447 0
M  V30 14507 N 1373.15 1.5451 -0.310553 0
M  V30 14508 C 1374.1 2.23871 0.561277 0
M  V30 14509 C 1375.07 1.22475 1.12202 0
M  V30 14510 O 1376.26 1.51121 1.16477 0
M  V30 14511 C 1373.4 2.99029 1.72267 0
M  V30 14512 C 1372.51 4.15218 1.19241 0
M  V30 14513 C 1371.64 4.77935 2.31843 0
M  V30 14514 C 1370.68 5.86251 1.75999 0
M  V30 14515 N 1369.82 6.42885 2.82212 0
M  V30 14516 H 1374.66 2.97977 -0.0367998 0
M  V30 14517 H 1372.2 1.4707 -0.0299317 0
M  V30 14518 H 1374.16 3.40842 2.40588 0
M  V30 14519 H 1372.79 2.27281 2.29223 0
M  V30 14520 H 1371.84 3.78279 0.401148 0
M  V30 14521 H 1373.15 4.93225 0.743675 0
M  V30 14522 H 1372.3 5.2265 3.08094 0
M  V30 14523 H 1371.04 3.99281 2.80047 0
M  V30 14524 H 1370.05 5.40952 0.982415 0
M  V30 14525 H 1371.27 6.66795 1.28688 0
M  V30 14526 H 1369.22 5.67109 3.29732 0
M  V30 14527 H 1369.14 7.16267 2.41864 0
M  V30 14528 H 1370.4 6.92256 3.58332 0
M  V30 14529 N 1374.63 0.0384594 1.57553 0
M  V30 14530 C 1375.58 -0.949625 2.07283 0
M  V30 14531 C 1376.57 -1.27973 0.975284 0
M  V30 14532 O 1377.76 -1.26428 1.23875 0
M  V30 14533 C 1374.89 -2.22887 2.61106 0
M  V30 14534 C 1373.97 -1.92672 3.77807 0
M  V30 14535 N 1374.37 -1.32764 4.88065 0
M  V30 14536 C 1372.66 -2.22612 3.86471 0
M  V30 14537 C 1373.36 -1.19892 5.69211 0
M  V30 14538 N 1372.34 -1.69757 5.16414 0
M  V30 14539 H 1376.14 -0.481562 2.89928 0
M  V30 14540 H 1373.66 -0.166321 1.61546 0
M  V30 14541 H 1375.65 -2.94556 2.9503 0
M  V30 14542 H 1374.31 -2.70311 1.79895 0
M  V30 14543 H 1375.32 -1.00146 5.08125 0
M  V30 14544 H 1372 -2.72645 3.16182 0
M  V30 14545 H 1373.39 -0.734892 6.67869 0
M  V30 14546 N 1376.11 -1.55841 -0.234795 0
M  V30 14547 C 1377.04 -1.94344 -1.29432 0
M  V30 14548 C 1378.02 -0.809912 -1.49581 0
M  V30 14549 O 1379.21 -1.07117 -1.61986 0
M  V30 14550 C 1376.34 -2.24866 -2.64675 0
M  V30 14551 C 1375.29 -3.40584 -2.59203 0
M  V30 14552 C 1374.62 -3.56678 -3.98353 0
M  V30 14553 C 1375.92 -4.75935 -2.15135 0
M  V30 14554 H 1377.61 -2.83096 -0.97454 0
M  V30 14555 H 1375.16 -1.36205 -0.467355 0
M  V30 14556 H 1377.11 -2.50392 -3.38942 0
M  V30 14557 H 1375.83 -1.32953 -2.98314 0
M  V30 14558 H 1374.49 -3.15087 -1.87393 0
M  V30 14559 H 1374.14 -2.62164 -4.29277 0
M  V30 14560 H 1373.84 -4.34503 -3.95577 0
M  V30 14561 H 1375.37 -3.84538 -4.74302 0
M  V30 14562 H 1376.78 -5.00753 -2.7914 0
M  V30 14563 H 1375.18 -5.56949 -2.23446 0
M  V30 14564 H 1376.25 -4.72182 -1.10328 0
M  V30 14565 N 1377.59 0.500963 -1.49426 0
M  V30 14566 C 1378.55 1.58478 -1.65582 0
M  V30 14567 C 1379.55 1.51897 -0.52762 0
M  V30 14568 O 1380.74 1.55049 -0.794071 0
M  V30 14569 C 1377.87 2.9813 -1.65322 0
M  V30 14570 H 1379.07 1.45483 -2.6225 0
M  V30 14571 H 1376.62 0.725199 -1.38458 0
M  V30 14572 H 1377.36 3.16602 -0.702384 0
M  V30 14573 H 1377.14 3.04315 -2.47255 0
M  V30 14574 H 1378.63 3.76874 -1.79878 0
M  V30 14575 N 1379.07 1.38501 0.752011 0
M  V30 14576 C 1380.32 1.34529 1.50819 0
M  V30 14577 C 1380.64 -0.0636155 1.94896 0
M  V30 14578 O 1379.91 -1.01161 1.6776 0
M  V30 14579 H 1378.49 0.49501 0.559441 0
M  V30 14580 H 1381.15 1.73196 0.893822 0
M  V30 14581 H 1380.24 1.99713 2.39835 0
M  V30 14582 N 1380.55 -0.980364 1.23396 0
M  V30 14583 C 1381.51 -2.05433 1.01635 0
M  V30 14584 C 1382.51 -1.60785 -0.0218244 0
M  V30 14585 O 1383.7 -1.72832 0.217922 0
M  V30 14586 C 1380.83 -3.36631 0.537822 0
M  V30 14587 H 1382.02 -2.26172 1.96943 0
M  V30 14588 H 1379.58 -1.15378 1.05441 0
M  V30 14589 H 1380.31 -3.21581 -0.41903 0
M  V30 14590 H 1380.1 -3.70377 1.28698 0
M  V30 14591 H 1381.59 -4.1562 0.406213 0
M  V30 14592 N 1382.02 -1.04567 -1.17913 0
M  V30 14593 C 1383.44 -0.76584 -1.40025 0
M  V30 14594 C 1383.64 0.642484 -1.90983 0
M  V30 14595 O 1382.7 1.40589 -2.0974 0
M  V30 14596 C 1384.01 -1.81616 -2.39658 0
M  V30 14597 C 1385.56 -1.83765 -2.53376 0
M  V30 14598 C 1386.03 -2.87803 -3.56277 0
M  V30 14599 N 1387.52 -2.86726 -3.63789 0
M  V30 14600 C 1388.26 -3.63876 -4.4315 0
M  V30 14601 N 1387.75 -4.50793 -5.26077 0
M  V30 14602 N 1389.55 -3.52344 -4.37962 0
M  V30 14603 H 1381.7 -1.95442 -0.831647 0
M  V30 14604 H 1383.96 -0.84593 -0.42791 0
M  V30 14605 H 1383.67 -2.8266 -2.09275 0
M  V30 14606 H 1383.54 -1.65251 -3.39075 0
M  V30 14607 H 1385.93 -0.833896 -2.83073 0
M  V30 14608 H 1386.01 -2.04208 -1.54055 0
M  V30 14609 H 1385.65 -3.88361 -3.2732 0
M  V30 14610 H 1385.58 -2.64614 -4.55288 0
M  V30 14611 H 1388.07 -2.237 -3.04576 0
M  V30 14612 H 1388.39 -5.0636 -5.83798 0
M  V30 14613 H 1386.73 -4.54858 -5.2548 0
M  V30 14614 H 1389.92 -2.8384 -3.72226 0
M  V30 14615 H 1390.1 -4.12718 -4.99568 0
M  V30 14616 N 1383.5 1.34231 -0.825823 0
M  V30 14617 C 1384.73 2.02124 -0.427727 0
M  V30 14618 C 1385.14 1.62331 0.971869 0
M  V30 14619 O 1384.48 0.825946 1.64085 0
M  V30 14620 C 1384.54 3.56626 -0.453698 0
M  V30 14621 C 1384.21 4.19752 -1.80713 0
M  V30 14622 C 1385.21 4.40062 -2.76842 0
M  V30 14623 C 1382.89 4.5646 -2.09641 0
M  V30 14624 C 1384.88 4.9621 -4.00069 0
M  V30 14625 C 1382.57 5.12318 -3.33127 0
M  V30 14626 C 1383.57 5.32137 -4.28158 0
M  V30 14627 O 1383.26 5.86811 -5.49462 0
M  V30 14628 H 1382.99 0.654389 -0.169563 0
M  V30 14629 H 1385.54 1.72421 -1.11624 0
M  V30 14630 H 1383.77 3.856 0.291527 0
M  V30 14631 H 1385.46 4.0583 -0.075249 0
M  V30 14632 H 1386.23 4.12064 -2.5579 0
M  V30 14633 H 1382.11 4.40337 -1.36473 0
M  V30 14634 H 1385.65 5.11594 -4.74254 0
M  V30 14635 H 1381.55 5.39746 -3.54041 0
M  V30 14636 H 1382.32 6.05242 -5.51022 0
M  V30 14637 N 1384.98 0.581051 1.46498 0
M  V30 14638 C 1386.23 0.0637189 2.01599 0
M  V30 14639 C 1386.54 -1.30353 1.45834 0
M  V30 14640 O 1387.75 -1.91211 1.92745 0
M  V30 14641 C 1386.2 0.0633254 3.59844 0
M  V30 14642 C 1385.81 1.42879 4.24605 0
M  V30 14643 C 1387.56 -0.400149 4.2261 0
M  V30 14644 C 1385.46 1.38621 5.74924 0
M  V30 14645 H 1384.39 0.0200512 0.753733 0
M  V30 14646 H 1387.04 0.732451 1.68248 0
M  V30 14647 H 1385.43 -0.671538 3.90264 0
M  V30 14648 H 1386.6 2.18325 4.05796 0
M  V30 14649 H 1384.91 1.83215 3.73927 0
M  V30 14650 H 1387.51 -0.450771 5.32797 0
M  V30 14651 H 1387.85 -1.41733 3.9143 0
M  V30 14652 H 1388.39 0.280598 3.96809 0
M  V30 14653 H 1385.13 2.38014 6.10761 0
M  V30 14654 H 1384.65 0.673926 5.96002 0
M  V30 14655 H 1386.33 1.09841 6.37608 0
M  V30 14656 N 1386.46 -1.54343 0.318742 0
M  V30 14657 C 1387.39 -2.21652 -0.583351 0
M  V30 14658 C 1388.4 -1.21494 -1.08366 0
M  V30 14659 O 1389.59 -1.4799 -0.998064 0
M  V30 14660 C 1386.69 -2.86349 -1.81266 0
M  V30 14661 C 1385.86 -4.12601 -1.45186 0
M  V30 14662 C 1384.92 -4.60937 -2.53818 0
M  V30 14663 O 1383.95 -5.25731 -2.18164 0
M  V30 14664 N 1385.15 -4.34755 -3.84667 0
M  V30 14665 H 1387.92 -2.99699 -0.00703539 0
M  V30 14666 H 1385.48 -1.61278 0.141728 0
M  V30 14667 H 1387.47 -3.15611 -2.53321 0
M  V30 14668 H 1386.04 -2.12037 -2.29693 0
M  V30 14669 H 1385.26 -3.90157 -0.563143 0
M  V30 14670 H 1386.55 -4.94774 -1.18642 0
M  V30 14671 H 1385.95 -3.82883 -4.16434 0
M  V30 14672 H 1384.5 -4.68683 -4.52967 0
M  V30 14673 N 1387.94 -0.0468143 -1.5753 0
M  V30 14674 C 1388.87 0.96433 -2.06823 0
M  V30 14675 C 1389.85 1.30663 -0.967783 0
M  V30 14676 O 1391.03 1.42025 -1.2394 0
M  V30 14677 C 1388.16 2.27954 -2.50509 0
M  V30 14678 C 1387.2 2.0906 -3.71748 0
M  V30 14679 S 1388.04 1.373 -5.17599 0
M  V30 14680 C 1389.19 2.70153 -5.64596 0
M  V30 14681 H 1389.43 0.544801 -2.92266 0
M  V30 14682 H 1386.96 0.16534 -1.53512 0
M  V30 14683 H 1388.92 3.03555 -2.76342 0
M  V30 14684 H 1387.58 2.67036 -1.65381 0
M  V30 14685 H 1386.77 3.06333 -4.0022 0
M  V30 14686 H 1386.37 1.41599 -3.46158 0
M  V30 14687 H 1388.66 3.66337 -5.69915 0
M  V30 14688 H 1389.61 2.46322 -6.63876 0
M  V30 14689 H 1390.02 2.76212 -4.92308 0
M  V30 14690 N 1389.41 1.55964 0.226527 0
M  V30 14691 C 1390.34 1.95028 1.284 0
M  V30 14692 C 1391.33 0.817833 1.49149 0
M  V30 14693 O 1392.51 1.07975 1.61416 0
M  V30 14694 C 1389.64 2.26266 2.63478 0
M  V30 14695 C 1388.59 3.41954 2.57393 0
M  V30 14696 C 1387.92 3.58786 3.96456 0
M  V30 14697 C 1389.22 4.77069 2.12608 0
M  V30 14698 H 1390.91 2.83608 0.959513 0
M  V30 14699 H 1388.46 1.36451 0.460125 0
M  V30 14700 H 1390.41 2.52186 3.3761 0
M  V30 14701 H 1389.14 1.34533 2.97604 0
M  V30 14702 H 1387.8 3.16076 1.85719 0
M  V30 14703 H 1387.44 2.64437 4.27881 0
M  V30 14704 H 1387.14 4.36595 3.93267 0
M  V30 14705 H 1388.67 3.87048 4.72256 0
M  V30 14706 H 1390.08 5.02226 2.76481 0
M  V30 14707 H 1388.48 5.58126 2.2049 0
M  V30 14708 H 1389.55 4.7276 1.07823 0
M  V30 14709 N 1390.89 -0.493031 1.4969 0
M  V30 14710 C 1391.82 -1.60215 1.69863 0
M  V30 14711 C 1392.8 -1.61053 0.547362 0
M  V30 14712 O 1393.99 -1.77667 0.784093 0
M  V30 14713 C 1391.12 -2.98662 1.77252 0
M  V30 14714 C 1390.07 -3.1269 2.92248 0
M  V30 14715 C 1389.4 -4.52567 2.84758 0
M  V30 14716 C 1390.7 -2.91965 4.33074 0
M  V30 14717 H 1392.39 -1.43587 2.62723 0
M  V30 14718 H 1389.94 -0.689334 1.26429 0
M  V30 14719 H 1391.89 -3.7616 1.89951 0
M  V30 14720 H 1390.62 -3.16397 0.809976 0
M  V30 14721 H 1389.27 -2.37619 2.79164 0
M  V30 14722 H 1388.92 -4.6719 1.86394 0
M  V30 14723 H 1388.62 -4.62893 3.61944 0
M  V30 14724 H 1390.15 -5.32116 2.99475 0
M  V30 14725 H 1391.56 -3.59228 4.46798 0
M  V30 14726 H 1389.96 -3.13756 5.11544 0
M  V30 14727 H 1391.03 -1.88015 4.46966 0
M  V30 14728 N 1392.37 -1.38898 -0.744656 0
M  V30 14729 C 1393.62 -1.34909 -1.49941 0
M  V30 14730 C 1393.93 0.0553979 -1.95522 0
M  V30 14731 O 1395.14 0.21785 -2.70625 0
M  V30 14732 C 1393.59 -2.36954 -2.70889 0
M  V30 14733 C 1393.2 -3.83069 -2.32298 0
M  V30 14734 C 1394.95 -2.42024 -3.48747 0
M  V30 14735 C 1392.85 -4.76777 -3.4991 0
M  V30 14736 H 1391.78 -0.501512 -0.563029 0
M  V30 14737 H 1394.43 -1.64497 -0.813201 0
M  V30 14738 H 1392.82 -2.00421 -3.41537 0
M  V30 14739 H 1393.99 -4.28588 -1.69259 0
M  V30 14740 H 1392.31 -3.81202 -1.67554 0
M  V30 14741 H 1394.9 -3.0923 -4.36212 0
M  V30 14742 H 1395.25 -1.44184 -3.90534 0
M  V30 14743 H 1395.78 -2.774 -2.85121 0
M  V30 14744 H 1392.52 -5.75844 -3.13183 0
M  V30 14745 H 1392.04 -4.35944 -4.11962 0
M  V30 14746 H 1393.72 -4.95219 -4.16374 0
M  V30 14747 N 1393.85 0.973806 -1.23914 0
M  V30 14748 C 1395.08 1.75107 -1.10206 0
M  V30 14749 C 1395.49 1.85604 0.345935 0
M  V30 14750 O 1394.85 1.33996 1.239 0
M  V30 14751 C 1394.9 3.17466 -1.72909 0
M  V30 14752 O 1394.62 3.07504 -3.12047 0
M  V30 14753 C 1396.12 4.11557 -1.6473 0
M  V30 14754 H 1393.34 0.549318 -0.385345 0
M  V30 14755 H 1395.89 1.22301 -1.63898 0
M  V30 14756 H 1394.04 3.67277 -1.23234 0
M  V30 14757 H 1394.45 3.97169 -3.42575 0
M  V30 14758 H 1395.93 5.09126 -2.13295 0
M  V30 14759 H 1396.41 4.3498 -0.607352 0
M  V30 14760 H 1397.01 3.67653 -2.13802 0
M  V30 14761 N 1395.33 1.05191 1.17357 0
M  V30 14762 C 1396.58 0.757104 1.86951 0
M  V30 14763 C 1396.89 -0.718637 1.8192 0
M  V30 14764 O 1398.09 -1.12739 2.46986 0
M  V30 14765 C 1396.55 1.30409 3.35442 0
M  V30 14766 C 1396.16 2.80928 3.48975 0
M  V30 14767 C 1397.9 1.08633 4.10365 0
M  V30 14768 C 1395.81 3.28927 4.91488 0
M  V30 14769 H 1394.74 0.279525 0.700273 0
M  V30 14770 H 1397.39 1.2692 1.32528 0
M  V30 14771 H 1395.77 0.719812 3.89403 0
M  V30 14772 H 1396.95 3.45211 3.05231 0
M  V30 14773 H 1395.26 3.01245 2.87473 0
M  V30 14774 H 1397.86 1.41996 5.15501 0
M  V30 14775 H 1398.2 0.0240903 4.16293 0
M  V30 14776 H 1398.73 1.63581 3.6261 0
M  V30 14777 H 1395.47 4.34581 4.90734 0
M  V30 14778 H 1394.99 2.69386 5.35902 0
M  V30 14779 H 1396.67 3.23605 5.60258 0
M  V30 14780 N 1396.8 -1.33791 0.83293 0
M  V30 14781 C 1398.05 -1.97582 0.42494 0
M  V30 14782 C 1398.37 -1.66328 -1.01784 0
M  V30 14783 O 1397.64 -0.959141 -1.70814 0
M  V30 14784 H 1396.22 -0.730923 0.154143 0
M  V30 14785 H 1398.89 -1.63257 1.06458 0
M  V30 14786 H 1397.98 -3.07177 0.552127 0
M  V30 14787 N 1398.28 -0.588812 -1.46187 0
M  V30 14788 C 1399.7 -0.250962 -1.57615 0
M  V30 14789 C 1399.9 1.2467 -1.58302 0
M  V30 14790 O 1398.95 2.02876 -1.50325 0
M  V30 14791 C 1400.27 -0.905561 -2.8674 0
M  V30 14792 C 1401.82 -0.879721 -3.00383 0
M  V30 14793 C 1402.29 -1.51398 -4.32253 0
M  V30 14794 N 1403.78 -1.4786 -4.38967 0
M  V30 14795 C 1404.52 -1.93868 -5.39632 0
M  V30 14796 N 1404.01 -2.47876 -6.46938 0
M  V30 14797 N 1405.81 -1.84748 -5.30872 0
M  V30 14798 H 1397.96 -1.56148 -1.43985 0
M  V30 14799 H 1400.22 -0.653028 -0.68721 0
M  V30 14800 H 1399.93 -1.95935 -2.92066 0
M  V30 14801 H 1399.8 -0.417456 -3.74883 0
M  V30 14802 H 1402.19 0.165466 -2.94636 0
M  V30 14803 H 1402.27 -1.40591 -2.137 0
M  V30 14804 H 1401.91 -2.55839 -4.38758 0
M  V30 14805 H 1401.84 -0.962965 -5.17721 0
M  V30 14806 H 1404.33 -1.08387 -3.62023 0
M  V30 14807 H 1404.65 -2.80824 -7.1997 0
M  V30 14808 H 1402.99 -2.51905 -6.47741 0
M  V30 14809 H 1406.18 -1.42307 -4.45944 0
M  V30 14810 H 1406.35 -2.20919 -6.09179 0
M  V30 14811 N 1399.76 1.54172 -0.326923 0
M  V30 14812 C 1401.01 2.01629 0.267798 0
M  V30 14813 C 1401.36 1.21092 1.49514 0
M  V30 14814 O 1400.65 0.285854 1.89456 0
M  V30 14815 C 1400.85 3.51429 0.650553 0
M  V30 14816 C 1400.68 4.46468 -0.538148 0
M  V30 14817 C 1399.45 4.94517 -1.0383 0
M  V30 14818 C 1401.65 4.95121 -1.3914 0
M  V30 14819 N 1399.63 5.73468 -2.19106 0
M  V30 14820 C 1401 5.7203 -2.39128 0
M  V30 14821 C 1403.05 4.77258 -1.41877 0
M  V30 14822 C 1401.76 6.32977 -3.41662 0
M  V30 14823 C 1403.78 5.39043 -2.43284 0
M  V30 14824 C 1403.14 6.15805 -3.41999 0
M  V30 14825 H 1399.24 0.779558 0.0617482 0
M  V30 14826 H 1401.83 1.89122 -0.462723 0
M  V30 14827 H 1400 3.64176 1.3502 0
M  V30 14828 H 1401.73 3.8565 1.22703 0
M  V30 14829 H 1398.49 4.69668 -0.609043 0
M  V30 14830 H 1398.91 6.1762 -2.77262 0
M  V30 14831 H 1403.55 4.1747 -0.669238 0
M  V30 14832 H 1401.27 6.91883 -4.1752 0
M  V30 14833 H 1404.86 5.27136 -2.46208 0
M  V30 14834 H 1403.74 6.62764 -4.19181 0
M  V30 14835 N 1401.24 0.0551678 1.57503 0
M  V30 14836 C 1402.47 -0.6272 1.97164 0
M  V30 14837 C 1402.88 -1.64143 0.932876 0
M  V30 14838 O 1402.24 -1.82314 -0.0824465 0
M  V30 14839 C 1402.29 -1.31057 3.36907 0
M  V30 14840 O 1402.01 -0.336951 4.36802 0
M  V30 14841 C 1403.51 -2.08232 3.91349 0
M  V30 14842 H 1400.73 -0.171196 0.648793 0
M  V30 14843 H 1403.28 0.122651 2.04132 0
M  V30 14844 H 1401.43 -2.01162 3.31078 0
M  V30 14845 H 1401.84 -0.825204 5.17968 0
M  V30 14846 H 1403.32 -2.51463 4.91397 0
M  V30 14847 H 1403.8 -2.93212 3.26991 0
M  V30 14848 H 1404.4 -1.43029 4.00528 0
M  V30 14849 N 1402.72 -1.56081 -0.218252 0
M  V30 14850 C 1403.96 -1.78893 -0.940296 0
M  V30 14851 C 1404.29 -0.62425 -1.84738 0
M  V30 14852 O 1403.56 0.358686 -1.92588 0
M  V30 14853 H 1402.14 -0.659828 -0.350193 0
M  V30 14854 H 1404.8 -1.93546 -0.229316 0
M  V30 14855 H 1403.89 -2.71167 -1.54516 0
M  V30 14856 N 1404.2 0.485086 -1.49949 0
M  V30 14857 C 1405.42 1.26179 -1.63971 0
M  V30 14858 C 1405.84 1.86113 -0.317408 0
M  V30 14859 O 1405.2 1.68581 0.699038 0
M  V30 14860 C 1405.25 2.38062 -2.72046 0
M  V30 14861 O 1404.97 1.80588 -3.99149 0
M  V30 14862 C 1406.47 3.29174 -2.96916 0
M  V30 14863 H 1403.69 0.382122 -0.551565 0
M  V30 14864 H 1406.23 0.580607 -1.96085 0
M  V30 14865 H 1404.39 3.0198 -2.42666 0
M  V30 14866 H 1404.8 2.54159 -4.58807 0
M  V30 14867 H 1406.28 4.03922 -3.76233 0
M  V30 14868 H 1406.75 3.87123 -2.07443 0
M  V30 14869 H 1407.36 2.71006 -3.27774 0
M  V30 14870 N 1405.67 1.39291 0.737279 0
M  V30 14871 C 1406.9 1.39457 1.52431 0
M  V30 14872 C 1407.31 -0.0132866 1.89195 0
M  V30 14873 O 1406.65 -0.99443 1.54456 0
M  V30 14874 C 1406.72 2.20125 2.84227 0
M  V30 14875 C 1406.38 3.68778 2.6991 0
M  V30 14876 C 1407.38 4.6191 2.38611 0
M  V30 14877 C 1405.06 4.12336 2.86853 0
M  V30 14878 C 1407.06 5.96581 2.24432 0
M  V30 14879 C 1404.74 5.47083 2.72292 0
M  V30 14880 C 1405.74 6.3902 2.41127 0
M  V30 14881 O 1405.43 7.71287 2.26654 0
M  V30 14882 H 1405.16 0.478281 0.477727 0
M  V30 14883 H 1407.72 1.837 0.918891 0
M  V30 14884 H 1405.95 1.70627 3.47021 0
M  V30 14885 H 1407.63 2.12497 3.45832 0
M  V30 14886 H 1408.4 4.29559 2.25175 0
M  V30 14887 H 1404.28 3.41111 3.10103 0
M  V30 14888 H 1407.82 6.68307 2.00028 0
M  V30 14889 H 1403.72 5.79026 2.85306 0
M  V30 14890 H 1404.49 7.81987 2.41742 0
M  V30 14891 N 1407.15 -0.967221 1.24429 0
M  V30 14892 C 1408.4 -1.70458 1.07829 0
M  V30 14893 C 1408.71 -1.91818 -0.38278 0
M  V30 14894 O 1409.92 -2.63129 -0.668982 0
M  V30 14895 C 1408.38 -3.06817 1.88125 0
M  V30 14896 C 1407.98 -2.93298 3.38645 0
M  V30 14897 C 1409.73 -3.84422 1.80056 0
M  V30 14898 C 1407.63 -4.2497 4.11284 0
M  V30 14899 H 1406.56 -0.639217 0.399897 0
M  V30 14900 H 1409.22 -1.07776 1.48515 0
M  V30 14901 H 1407.6 -3.70331 1.40254 0
M  V30 14902 H 1408.77 -2.38793 3.94099 0
M  V30 14903 H 1407.09 -2.29159 3.47671 0
M  V30 14904 H 1409.68 -4.81925 2.31629 0
M  V30 14905 H 1410.03 -4.09194 0.765908 0
M  V30 14906 H 1410.56 -3.27636 2.2561 0
M  V30 14907 H 1407.3 -4.05391 5.1511 0
M  V30 14908 H 1406.82 -4.79288 3.60615 0
M  V30 14909 H 1408.5 -4.93586 4.18308 0
M  V30 14910 N 1408.63 -1.05812 -1.16797 0
M  V30 14911 C 1409.86 -0.79137 -1.90843 0
M  V30 14912 C 1410.27 0.657481 -1.77409 0
M  V30 14913 O 1409.61 1.46142 -1.11302 0
M  V30 14914 C 1409.67 -1.10042 -3.42244 0
M  V30 14915 C 1409.34 -2.54671 -3.79463 0
M  V30 14916 C 1410.33 -3.52894 -3.81788 0
M  V30 14917 C 1408.02 -2.89843 -4.10239 0
M  V30 14918 C 1410.01 -4.84332 -4.14369 0
M  V30 14919 C 1407.7 -4.21482 -4.42488 0
M  V30 14920 C 1408.7 -5.18537 -4.44532 0
M  V30 14921 O 1408.39 -6.47814 -4.76018 0
M  V30 14922 H 1408.12 -0.286766 -0.612161 0
M  V30 14923 H 1410.67 -1.41369 -1.4901 0
M  V30 14924 H 1408.9 -0.421015 -3.84401 0
M  V30 14925 H 1410.59 -0.818688 -3.97558 0
M  V30 14926 H 1411.36 -3.27062 -3.58128 0
M  V30 14927 H 1407.24 -2.14959 -4.07816 0
M  V30 14928 H 1410.78 -5.60081 -4.15879 0
M  V30 14929 H 1406.68 -4.47075 -4.65612 0
M  V30 14930 H 1407.44 -6.52729 -4.93849 0
M  V30 14931 N 1410.11 1.33347 -0.840014 0
M  V30 14932 C 1411.38 1.92293 -0.358158 0
M  V30 14933 C 1411.76 1.76594 1.15662 0
M  V30 14934 O 1411.11 1.15503 1.97158 0
M  V30 14935 C 1411.32 3.39558 -0.806329 0
M  V30 14936 C 1412.67 4.16705 -0.81501 0
M  V30 14937 O 1413.69 3.48214 -0.75001 0
M  V30 14938 O 1412.55 5.38974 -0.903818 0
M  V30 14939 H 1409.65 0.820737 -0.101585 0
M  V30 14940 H 1412.19 1.42213 -0.925942 0
M  V30 14941 H 1410.97 3.44861 -1.84897 0
M  V30 14942 H 1410.59 3.97017 -0.215181 0
M  V30 14943 N 1411.59 0.596556 1.45873 0
M  V30 14944 C 1412.54 -0.14991 2.27507 0
M  V30 14945 C 1413.52 -0.848942 1.36681 0
M  V30 14946 O 1414.71 -0.740752 1.60754 0
M  V30 14947 C 1411.84 -1.15391 3.23326 0
M  V30 14948 C 1410.93 -0.456283 4.21638 0
M  V30 14949 N 1411.32 0.495911 5.03363 0
M  V30 14950 C 1409.62 -0.705263 4.40389 0
M  V30 14951 C 1410.32 0.904941 5.74618 0
M  V30 14952 N 1409.29 0.251069 5.4302 0
M  V30 14953 H 1413.09 0.581593 2.88088 0
M  V30 14954 H 1410.61 0.419386 1.56891 0
M  V30 14955 H 1412.61 -1.70299 3.80531 0
M  V30 14956 H 1411.27 -1.88609 2.64305 0
M  V30 14957 H 1412.28 0.872126 5.10504 0
M  V30 14958 H 1408.95 -1.42296 3.92502 0
M  V30 14959 H 1410.34 1.68965 6.50308 0
M  V30 14960 N 1413.06 -1.53996 0.335095 0
M  V30 14961 C 1413.99 -2.2768 -0.518087 0
M  V30 14962 C 1414.97 -1.28915 -1.10972 0
M  V30 14963 O 1416.16 -1.57745 -1.1327 0
M  V30 14964 C 1413.29 -3.04327 -1.67339 0
M  V30 14965 C 1412.24 -4.10525 -1.2105 0
M  V30 14966 C 1411.57 -4.75078 -2.45366 0
M  V30 14967 C 1412.87 -5.21337 -0.317055 0
M  V30 14968 H 1414.56 -2.99244 0.0965669 0
M  V30 14969 H 1412.11 -1.4392 0.0478842 0
M  V30 14970 H 1414.06 -3.54608 -2.27664 0
M  V30 14971 H 1412.79 -2.30399 -2.31481 0
M  V30 14972 H 1411.45 -3.61144 -0.630124 0
M  V30 14973 H 1411.09 -3.97754 -3.07897 0
M  V30 14974 H 1410.79 -5.46822 -2.1508 0
M  V30 14975 H 1412.32 -5.2814 -3.06432 0
M  V30 14976 H 1413.73 -5.67305 -0.826905 0
M  V30 14977 H 1412.13 -6.00006 -0.106458 0
M  V30 14978 H 1413.2 -4.80536 0.649068 0
M  V30 14979 N 1414.54 -0.0635198 -1.57472 0
M  V30 14980 C 1415.77 0.620205 -1.9791 0
M  V30 14981 C 1416.19 1.62851 -0.941335 0
M  V30 14982 O 1415.55 1.81056 0.0940313 0
M  V30 14983 C 1415.6 1.27261 -3.37397 0
M  V30 14984 O 1414.7 2.38841 -3.36197 0
M  V30 14985 H 1414.04 0.16021 -0.644382 0
M  V30 14986 H 1416.57 -0.135582 -2.0415 0
M  V30 14987 H 1416.58 1.6214 -3.74399 0
M  V30 14988 H 1415.26 0.533723 -4.12461 0
M  V30 14989 H 1413.83 2.05817 -3.10956 0
M  V30 14990 N 1416.02 1.56195 0.209972 0
M  V30 14991 C 1417.43 1.69811 0.775969 0
M  V30 14992 C 1417.78 0.667543 1.84495 0
M  V30 14993 O 1416.91 -0.179043 2.15658 0
M  V30 14994 C 1417.5 3.07869 1.41429 0
M  V30 14995 C 1416.06 3.233 1.92755 0
M  V30 14996 C 1415.21 2.6575 0.791958 0
M  V30 14997 H 1418.16 1.58693 -0.0148727 0
M  V30 14998 H 1418.18 3.04371 2.28339 0
M  V30 14999 H 1417.69 3.82853 0.63604 0
M  V30 15000 H 1415.79 2.53206 2.73345 0
M  V30 15001 H 1415.91 4.30645 2.09956 0
M  V30 15002 H 1414.27 2.24535 1.20234 0
M  V30 15003 H 1415.05 3.4329 0.0261877 0
M  V30 15004 N 1417.5 -0.477127 1.50204 0
M  V30 15005 C 1418.43 -1.58405 1.71552 0
M  V30 15006 C 1419.41 -1.60463 0.564413 0
M  V30 15007 O 1420.59 -1.76826 0.802893 0
M  V30 15008 C 1417.72 -2.96765 1.8041 0
M  V30 15009 C 1416.68 -3.09573 2.95548 0
M  V30 15010 C 1416 -4.49522 2.89542 0
M  V30 15011 C 1417.3 -2.87356 4.36147 0
M  V30 15012 H 1419 -1.40792 2.64231 0
M  V30 15013 H 1416.54 -0.675886 1.27153 0
M  V30 15014 H 1418.5 -3.74125 1.9393 0
M  V30 15015 H 1417.22 -3.1552 0.843489 0
M  V30 15016 H 1415.88 -2.34645 2.81669 0
M  V30 15017 H 1415.53 -4.65186 1.91339 0
M  V30 15018 H 1415.23 -4.59028 3.66834 0
M  V30 15019 H 1416.75 -5.28909 3.05102 0
M  V30 15020 H 1418.17 -3.54469 4.50583 0
M  V30 15021 H 1416.56 -3.08313 5.14843 0
M  V30 15022 H 1417.63 -1.83264 4.48935 0
M  V30 15023 N 1418.98 -1.3968 -0.729882 0
M  V30 15024 C 1420.2 -1.40654 -1.52418 0
M  V30 15025 C 1420.63 -0.00428997 -1.881 0
M  V30 15026 O 1419.98 0.984023 -1.52272 0
M  V30 15027 C 1420.03 -2.29057 -2.78506 0
M  V30 15028 O 1419.14 -1.72397 -3.74637 0
M  V30 15029 H 1418.48 -0.478761 -0.460091 0
M  V30 15030 H 1421.01 -1.83738 -0.900087 0
M  V30 15031 H 1421.02 -2.43748 -3.27187 0
M  V30 15032 H 1419.69 -3.30961 -2.51868 0
M  V30 15033 H 1418.27 -1.66977 -3.33426 0
M  V30 15034 N 1420.45 0.960609 -1.2494 0
M  V30 15035 C 1421.68 1.73928 -1.12057 0
M  V30 15036 C 1422.1 1.8596 0.32623 0
M  V30 15037 O 1421.45 1.35303 1.22472 0
M  V30 15038 C 1421.51 3.15614 -1.76267 0
M  V30 15039 O 1421.23 3.04177 -3.15291 0
M  V30 15040 C 1422.73 4.09786 -1.69086 0
M  V30 15041 H 1419.95 0.5452 -0.39115 0
M  V30 15042 H 1422.49 1.20556 -1.65186 0
M  V30 15043 H 1420.65 3.65949 -1.27123 0
M  V30 15044 H 1421.06 3.93513 -3.46768 0
M  V30 15045 H 1422.53 5.06835 -2.18683 0
M  V30 15046 H 1423.01 4.34312 -0.653453 0
M  V30 15047 H 1423.62 3.65365 -2.1769 0
M  V30 15048 N 1421.93 1.0643 1.16234 0
M  V30 15049 C 1423.18 0.792814 1.87313 0
M  V30 15050 C 1423.53 -0.673464 1.80228 0
M  V30 15051 O 1422.83 -1.48719 1.20803 0
M  V30 15052 C 1423.02 1.22348 3.35806 0
M  V30 15053 C 1422.85 2.73008 3.57347 0
M  V30 15054 C 1421.62 3.40491 3.73355 0
M  V30 15055 C 1423.82 3.7122 3.5595 0
M  V30 15056 N 1421.8 4.79888 3.82859 0
M  V30 15057 C 1423.17 4.96408 3.71455 0
M  V30 15058 C 1425.23 3.6451 3.3917 0
M  V30 15059 C 1423.93 6.15688 3.71915 0
M  V30 15060 C 1425.95 4.83243 3.40925 0
M  V30 15061 C 1425.32 6.07261 3.5695 0
M  V30 15062 H 1421.42 0.342531 0.702991 0
M  V30 15063 H 1424 1.35872 1.39452 0
M  V30 15064 H 1422.17 0.685388 3.82305 0
M  V30 15065 H 1423.9 0.900518 3.94554 0
M  V30 15066 H 1420.66 2.90893 3.73735 0
M  V30 15067 H 1421.08 5.52407 3.91376 0
M  V30 15068 H 1425.72 2.69582 3.25708 0
M  V30 15069 H 1423.44 7.10948 3.8416 0
M  V30 15070 H 1427.03 4.79719 3.29182 0
M  V30 15071 H 1425.91 6.97597 3.58228 0
M  V30 15072 N 1423.41 -1.329 0.847073 0
M  V30 15073 C 1424.37 -2.27341 0.291324 0
M  V30 15074 C 1425.37 -1.51295 -0.544653 0
M  V30 15075 O 1426.56 -1.70497 -0.357258 0
M  V30 15076 C 1423.7 -3.35779 -0.588668 0
M  V30 15077 H 1424.89 -2.78009 1.12477 0
M  V30 15078 H 1422.44 -1.43442 0.620803 0
M  V30 15079 H 1423.18 -2.90366 -1.44423 0
M  V30 15080 H 1422.96 -3.92099 0.00960515 0
M  V30 15081 H 1424.45 -4.06166 -0.970526 0
M  V30 15082 N 1424.89 -0.604284 -1.45555 0
M  V30 15083 C 1425.85 0.106526 -2.28952 0
M  V30 15084 C 1426.85 0.798277 -1.39586 0
M  V30 15085 O 1428.04 0.646943 -1.61741 0
M  V30 15086 C 1425.17 1.16091 -3.20524 0
M  V30 15087 H 1426.37 -0.626655 -2.9328 0
M  V30 15088 H 1423.92 -0.363183 -1.52022 0
M  V30 15089 H 1424.65 1.92496 -2.6099 0
M  V30 15090 H 1424.44 0.669137 -3.86348 0
M  V30 15091 H 1425.93 1.65882 -3.8324 0
M  V30 15092 N 1426.37 1.53816 -0.343257 0
M  V30 15093 C 1427.3 2.22552 0.548015 0
M  V30 15094 C 1428.31 1.23202 1.06419 0
M  V30 15095 O 1429.5 1.49559 0.974394 0
M  V30 15096 C 1426.6 2.89197 1.76687 0
M  V30 15097 C 1425.77 4.14859 1.38603 0
M  V30 15098 C 1424.83 4.64917 2.46453 0
M  V30 15099 O 1423.86 5.29135 2.09773 0
M  V30 15100 N 1425.06 4.4082 3.77701 0
M  V30 15101 H 1427.83 2.99672 -0.040645 0
M  V30 15102 H 1425.39 1.61033 -0.167368 0
M  V30 15103 H 1427.38 3.19601 2.48268 0
M  V30 15104 H 1425.95 2.15664 2.26291 0
M  V30 15105 H 1425.17 3.91003 0.501001 0
M  V30 15106 H 1426.46 4.96599 1.10756 0
M  V30 15107 H 1425.85 3.8946 4.1029 0
M  V30 15108 H 1424.41 4.7583 4.45453 0
M  V30 15109 N 1427.84 0.0718701 1.57436 0
M  V30 15110 C 1429.09 -0.596052 1.9311 0
M  V30 15111 C 1429.41 -1.70146 0.952652 0
M  V30 15112 O 1428.68 -1.959 0.000812941 0
M  V30 15113 H 1427.26 -0.223165 0.712886 0
M  V30 15114 H 1429.93 0.129744 1.94468 0
M  V30 15115 H 1429.02 -1.02132 2.94916 0
M  V30 15116 N 1429.32 -1.56304 -0.201686 0
M  V30 15117 C 1430.25 -1.97046 -1.25281 0
M  V30 15118 C 1431.23 -0.841458 -1.47829 0
M  V30 15119 O 1432.42 -1.10529 -1.59678 0
M  V30 15120 C 1429.55 -2.30429 -2.59845 0
M  V30 15121 C 1428.5 -3.46006 -2.5192 0
M  V30 15122 C 1427.83 -3.65047 -3.90697 0
M  V30 15123 C 1429.13 -4.80391 -2.04992 0
M  V30 15124 H 1430.82 -2.85099 -0.914272 0
M  V30 15125 H 1428.37 -1.37166 -0.438359 0
M  V30 15126 H 1430.32 -2.57525 -3.33555 0
M  V30 15127 H 1429.05 -1.39251 -2.95426 0
M  V30 15128 H 1427.7 -3.18991 -1.80667 0
M  V30 15129 H 1427.35 -2.71211 -4.2362 0
M  V30 15130 H 1427.05 -4.42796 -3.86271 0
M  V30 15131 H 1428.58 -3.94512 -4.66039 0
M  V30 15132 H 1429.99 -5.06561 -2.68456 0
M  V30 15133 H 1428.39 -5.61563 -2.11582 0
M  V30 15134 H 1429.46 -4.74416 -1.00288 0
M  V30 15135 N 1430.8 0.469154 -1.50455 0
M  V30 15136 C 1432.22 0.803067 -1.37924 0
M  V30 15137 C 1432.42 1.96708 -0.436837 0
M  V30 15138 O 1431.47 2.52216 0.119823 0
M  V30 15139 C 1432.79 1.11332 -2.79331 0
M  V30 15140 C 1434.33 1.21965 -2.88259 0
M  V30 15141 C 1434.81 1.56302 -4.30504 0
M  V30 15142 N 1436.3 1.6329 -4.33464 0
M  V30 15143 C 1437.03 1.91367 -5.40524 0
M  V30 15144 N 1436.53 2.17451 -6.57789 0
M  V30 15145 N 1438.32 1.92885 -5.2797 0
M  V30 15146 H 1430.47 -0.297928 -2.103 0
M  V30 15147 H 1432.74 -0.0707794 -0.945354 0
M  V30 15148 H 1432.44 0.331052 -3.50138 0
M  V30 15149 H 1432.32 2.04903 -3.16693 0
M  V30 15150 H 1434.7 1.99259 -2.17669 0
M  V30 15151 H 1434.79 0.263692 -2.54437 0
M  V30 15152 H 1434.43 0.795479 -5.01632 0
M  V30 15153 H 1434.36 2.53052 -4.61814 0
M  V30 15154 H 1436.85 1.45164 -3.48907 0
M  V30 15155 H 1437.16 2.38154 -7.35189 0
M  V30 15156 H 1435.51 2.14839 -6.60961 0
M  V30 15157 H 1438.7 1.72005 -4.35353 0
M  V30 15158 H 1438.87 2.1443 -6.11493 0
M  V30 15159 N 1432.28 1.40065 0.722464 0
M  V30 15160 C 1433.56 1.28473 1.47493 0
M  V30 15161 C 1433.94 -0.100058 2.10863 0
M  V30 15162 O 1433.28 -1.11232 1.99599 0
M  V30 15163 C 1433.49 2.41842 2.51621 0
M  V30 15164 C 1434.84 2.81753 3.17648 0
M  V30 15165 O 1435.87 2.41385 2.61939 0
M  V30 15166 O 1434.72 3.51473 4.18484 0
M  V30 15167 H 1431.82 0.504158 0.655556 0
M  V30 15168 H 1434.36 1.51969 0.755223 0
M  V30 15169 H 1433.14 3.34365 2.03263 0
M  V30 15170 H 1432.76 2.20079 3.31136 0
M  V30 15171 N 1433.76 -0.95397 1.25448 0
M  V30 15172 C 1434.69 -2.06828 1.08372 0
M  V30 15173 C 1435.67 -1.70098 -0.00741585 0
M  V30 15174 O 1436.85 -1.93521 0.16224 0
M  V30 15175 C 1433.98 -3.40124 0.702365 0
M  V30 15176 C 1432.94 -3.90865 1.74381 0
M  V30 15177 C 1432.26 -5.20663 1.21712 0
M  V30 15178 C 1433.56 -4.17169 3.14273 0
M  V30 15179 H 1435.26 -2.21372 2.01581 0
M  V30 15180 H 1432.8 -1.06374 0.970592 0
M  V30 15181 H 1434.76 -4.17529 0.569837 0
M  V30 15182 H 1433.48 -3.2552 -0.265428 0
M  V30 15183 H 1432.14 -3.15628 1.86479 0
M  V30 15184 H 1431.79 -5.02429 0.23954 0
M  V30 15185 H 1431.49 -5.55581 1.91319 0
M  V30 15186 H 1433.01 -6.00665 1.097 0
M  V30 15187 H 1434.43 -4.85231 3.05325 0
M  V30 15188 H 1432.82 -4.63344 3.81356 0
M  V30 15189 H 1433.89 -3.23421 3.61285 0
M  V30 15190 N 1435.24 -1.07045 -1.15668 0
M  V30 15191 C 1436.2 -0.69198 -2.18505 0
M  V30 15192 C 1437.2 0.266185 -1.58582 0
M  V30 15193 O 1438.39 0.0475566 -1.74135 0
M  V30 15194 C 1435.52 -0.0194196 -3.40894 0
M  V30 15195 H 1436.71 -1.60241 -2.53501 0
M  V30 15196 H 1434.27 -0.866598 -1.30076 0
M  V30 15197 H 1435 0.903398 -3.11463 0
M  V30 15198 H 1434.79 -0.708519 -3.85645 0
M  V30 15199 H 1436.28 0.230829 -4.16962 0
M  V30 15200 N 1436.71 1.32449 -0.85411 0
M  V30 15201 C 1437.96 1.96537 -0.453451 0
M  V30 15202 C 1438.28 1.68344 0.995982 0
M  V30 15203 O 1439.48 2.26166 1.50204 0
M  V30 15204 C 1437.94 3.51785 -0.759934 0
M  V30 15205 C 1437.55 3.88838 -2.22506 0
M  V30 15206 C 1439.29 4.22347 -0.426973 0
M  V30 15207 C 1437.2 5.37129 -2.47479 0
M  V30 15208 H 1436.13 0.735537 -0.165835 0
M  V30 15209 H 1438.78 1.50851 -1.04481 0
M  V30 15210 H 1437.16 3.95879 -0.0980116 0
M  V30 15211 H 1438.33 3.55756 -2.92873 0
M  V30 15212 H 1436.65 3.31299 -2.52249 0
M  V30 15213 H 1439.25 5.31424 -0.590986 0
M  V30 15214 H 1439.59 4.11485 0.631359 0
M  V30 15215 H 1440.12 3.83835 -1.04477 0
M  V30 15216 H 1436.86 5.53012 -3.51935 0
M  V30 15217 H 1436.38 5.71619 -1.8169 0
M  V30 15218 H 1438.06 6.04204 -2.31401 0
M  V30 15219 N 1438.19 0.611994 1.45232 0
M  V30 15220 C 1439.15 -0.0943825 2.29006 0
M  V30 15221 C 1440.15 -0.790863 1.40007 0
M  V30 15222 O 1441.34 -0.638356 1.62082 0
M  V30 15223 C 1438.48 -1.1439 3.21135 0
M  V30 15224 H 1439.67 0.6422 2.92943 0
M  V30 15225 H 1437.22 0.37124 1.51827 0
M  V30 15226 H 1437.96 -1.9111 2.62007 0
M  V30 15227 H 1437.74 -0.648638 3.86698 0
M  V30 15228 H 1439.23 -1.63848 3.84114 0
M  V30 15229 N 1439.67 -1.53632 0.351409 0
M  V30 15230 C 1440.92 -2.01338 -0.243047 0
M  V30 15231 C 1441.25 -1.23864 -1.4957 0
M  V30 15232 O 1440.52 -0.328412 -1.91707 0
M  V30 15233 C 1440.81 -3.55886 -0.549284 0
M  V30 15234 C 1440.66 -4.44064 0.716016 0
M  V30 15235 C 1441.98 -4.18699 -1.35569 0
M  V30 15236 H 1439.1 -0.731863 -0.0868627 0
M  V30 15237 H 1441.74 -1.84005 0.473501 0
M  V30 15238 H 1439.89 -3.70787 -1.15972 0
M  V30 15239 H 1441.56 -4.40987 1.35383 0
M  V30 15240 H 1439.8 -4.12608 1.3393 0
M  V30 15241 H 1440.48 -5.50106 0.456895 0
M  V30 15242 H 1442.95 -4.07545 -0.839441 0
M  V30 15243 H 1441.83 -5.26892 -1.53871 0
M  V30 15244 H 1442.09 -3.73834 -2.3601 0
M  V30 15245 N 1441.15 -0.0802183 -1.57396 0
M  V30 15246 C 1442.06 0.898597 -2.16708 0
M  V30 15247 C 1443.07 1.321 -1.1325 0
M  V30 15248 O 1444.25 1.39197 -1.45554 0
M  V30 15249 C 1441.31 2.14501 -2.72379 0
M  V30 15250 C 1440.38 1.77822 -3.9074 0
M  V30 15251 C 1439.61 2.96521 -4.43747 0
M  V30 15252 O 1439.83 4.10797 -3.9573 0
M  V30 15253 O 1438.77 2.75849 -5.34968 0
M  V30 15254 H 1442.59 0.424027 -3.00725 0
M  V30 15255 H 1440.18 0.14332 -1.48711 0
M  V30 15256 H 1442.06 2.87575 -3.08024 0
M  V30 15257 H 1440.73 2.61039 -1.91416 0
M  V30 15258 H 1439.64 1.01974 -3.59934 0
M  V30 15259 H 1440.97 1.36059 -4.73021 0
M  V30 15260 N 1442.63 1.56409 0.193394 0
M  V30 15261 C 1444.04 1.70624 0.757915 0
M  V30 15262 C 1444.39 0.687074 1.83776 0
M  V30 15263 O 1443.51 -0.15616 2.15836 0
M  V30 15264 C 1444.11 3.09352 1.38156 0
M  V30 15265 C 1442.67 3.25326 1.89315 0
M  V30 15266 C 1441.81 2.66576 0.763727 0
M  V30 15267 H 1444.76 1.58668 -0.0317034 0
M  V30 15268 H 1444.79 3.06776 2.25098 0
M  V30 15269 H 1444.3 3.83506 0.595398 0
M  V30 15270 H 1442.4 2.5609 2.70644 0
M  V30 15271 H 1442.51 4.32848 2.05376 0
M  V30 15272 H 1440.88 2.25797 1.17846 0
M  V30 15273 H 1441.66 3.43298 -0.0102243 0
M  V30 15274 N 1444.1 -0.461169 1.50702 0
M  V30 15275 C 1445.35 -1.21431 1.62427 0
M  V30 15276 C 1445.68 -1.91406 0.328228 0
M  V30 15277 O 1444.96 -1.82563 -0.670898 0
M  V30 15278 C 1445.24 -2.25016 2.8114 0
M  V30 15279 C 1445.09 -1.5928 4.20654 0
M  V30 15280 C 1446.41 -3.26234 2.95397 0
M  V30 15281 H 1443.53 -0.440113 0.59116 0
M  V30 15282 H 1446.17 -0.506726 1.83118 0
M  V30 15283 H 1444.32 -2.85363 2.63629 0
M  V30 15284 H 1446 -1.02454 4.49779 0
M  V30 15285 H 1444.24 -0.895665 4.24453 0
M  V30 15286 H 1444.91 -2.34602 4.99666 0
M  V30 15287 H 1447.39 -2.7592 3.1146 0
M  V30 15288 H 1446.26 -3.96031 3.80067 0
M  V30 15289 H 1446.52 -3.90943 2.06436 0
M  V30 15290 N 1445.58 -1.40446 -0.715026 0
M  V30 15291 C 1446.83 -1.3896 -1.47709 0
M  V30 15292 C 1447.16 0.00798698 -1.94198 0
M  V30 15293 O 1446.44 0.976732 -1.68197 0
M  V30 15294 C 1446.72 -2.37955 -2.70277 0
M  V30 15295 C 1446.57 -3.8674 -2.29678 0
M  V30 15296 C 1447.89 -2.34478 -3.72435 0
M  V30 15297 H 1445.01 -0.50607 -0.535782 0
M  V30 15298 H 1447.65 -1.71585 -0.815999 0
M  V30 15299 H 1445.8 -2.10264 -3.26682 0
M  V30 15300 H 1447.47 -4.2526 -1.7875 0
M  V30 15301 H 1445.72 -4.02547 -1.61674 0
M  V30 15302 H 1446.39 -4.51524 -3.17538 0
M  V30 15303 H 1448.86 -2.59007 -3.2566 0
M  V30 15304 H 1447.74 -3.05791 -4.55832 0
M  V30 15305 H 1448 -1.35661 -4.20771 0
M  V30 15306 N 1447.06 0.947303 -1.25952 0
M  V30 15307 C 1448.31 1.69279 -1.11135 0
M  V30 15308 C 1448.63 1.9139 0.346407 0
M  V30 15309 O 1447.89 1.48786 1.27126 0
M  V30 15310 C 1448.19 3.07652 -1.81892 0
M  V30 15311 C 1447.85 3.05317 -3.31802 0
M  V30 15312 C 1446.52 3.04387 -3.72695 0
M  V30 15313 C 1448.87 2.98088 -4.27543 0
M  V30 15314 C 1446.2 2.93987 -5.07729 0
M  V30 15315 C 1448.55 2.89229 -5.62609 0
M  V30 15316 C 1447.21 2.86639 -6.02822 0
M  V30 15317 H 1446.48 0.619435 -0.40667 0
M  V30 15318 H 1449.13 1.10621 -1.56318 0
M  V30 15319 H 1447.43 3.69898 -1.29161 0
M  V30 15320 H 1449.13 3.6417 -1.67873 0
M  V30 15321 H 1445.72 3.06817 -2.99268 0
M  V30 15322 H 1449.91 2.9792 -3.96935 0
M  V30 15323 H 1445.16 2.90355 -5.38056 0
M  V30 15324 H 1449.34 2.82598 -6.36483 0
M  V30 15325 H 1446.96 2.78336 -7.07413 0
M  V30 15326 N 1448.54 1.07657 1.15099 0
M  V30 15327 C 1449.76 0.82291 1.90376 0
M  V30 15328 C 1450.19 -0.618415 1.77644 0
M  V30 15329 O 1449.55 -1.43248 1.11129 0
M  V30 15330 C 1449.59 1.23988 3.38614 0
M  V30 15331 O 1448.7 0.387085 4.10579 0
M  V30 15332 H 1448.04 0.299532 0.592602 0
M  V30 15333 H 1450.57 1.436 1.4574 0
M  V30 15334 H 1450.58 1.21741 3.89414 0
M  V30 15335 H 1449.25 2.28966 3.472 0
M  V30 15336 H 1447.83 0.472311 3.69897 0
M  V30 15337 N 1450.02 -1.31994 0.861122 0
M  V30 15338 C 1451.43 -1.79271 0.521437 0
M  V30 15339 C 1451.78 -1.71046 -0.96113 0
M  V30 15340 O 1450.9 -1.2729 -1.75003 0
M  V30 15341 C 1451.5 -3.25507 0.939731 0
M  V30 15342 C 1450.06 -3.70713 0.651845 0
M  V30 15343 C 1449.2 -2.52967 1.13592 0
M  V30 15344 H 1452.16 -1.19201 1.0477 0
M  V30 15345 H 1452.18 -3.79619 0.258754 0
M  V30 15346 H 1451.69 -3.3146 2.0188 0
M  V30 15347 H 1449.79 -3.70268 -0.416232 0
M  V30 15348 H 1449.9 -4.63236 1.22267 0
M  V30 15349 H 1448.27 -2.48558 0.555971 0
M  V30 15350 H 1449.05 -2.61671 2.22223 0
M  V30 15351 N 1451.49 -0.619688 -1.44906 0
M  V30 15352 C 1452.43 0.141137 -2.27763 0
M  V30 15353 C 1453.41 0.862176 -1.3786 0
M  V30 15354 O 1454.59 0.868593 -1.67295 0
M  V30 15355 C 1451.72 1.20547 -3.16522 0
M  V30 15356 C 1450.76 0.586228 -4.22452 0
M  V30 15357 S 1451.6 -0.615067 -5.31956 0
M  V30 15358 C 1452.75 0.449556 -6.24283 0
M  V30 15359 H 1452.98 -0.561806 -2.91944 0
M  V30 15360 H 1450.52 -0.407535 -1.48925 0
M  V30 15361 H 1452.48 1.81463 -3.68214 0
M  V30 15362 H 1451.14 1.88054 -2.51584 0
M  V30 15363 H 1450.33 1.38744 -4.84527 0
M  V30 15364 H 1449.93 0.0519375 -3.73964 0
M  V30 15365 H 1452.22 1.32531 -6.64411 0
M  V30 15366 H 1453.17 -0.135328 -7.07971 0
M  V30 15367 H 1453.57 0.770319 -5.59219 0
M  V30 15368 N 1452.97 1.53444 -0.359552 0
M  V30 15369 C 1453.88 2.29257 0.497834 0
M  V30 15370 C 1454.9 1.34987 1.09793 0
M  V30 15371 O 1456.07 1.68039 1.11017 0
M  V30 15372 C 1453.14 3.06258 1.62502 0
M  V30 15373 C 1452.2 4.16183 1.05308 0
M  V30 15374 C 1451.43 4.89503 2.12655 0
M  V30 15375 O 1451.66 4.6263 3.33661 0
M  V30 15376 O 1450.59 5.75578 1.76051 0
M  V30 15377 H 1454.42 3.03467 -0.118925 0
M  V30 15378 H 1452 1.48884 -0.124111 0
M  V30 15379 H 1453.88 3.5436 2.2805 0
M  V30 15380 H 1452.56 2.3489 2.22729 0
M  V30 15381 H 1451.47 3.72348 0.361679 0
M  V30 15382 H 1452.8 4.897 0.49545 0
M  V30 15383 N 1454.45 0.0885642 1.57351 0
M  V30 15384 C 1455.4 -0.872723 2.13664 0
M  V30 15385 C 1456.37 -1.28418 1.05347 0
M  V30 15386 O 1457.55 -1.36709 1.33099 0
M  V30 15387 C 1454.69 -2.12886 2.71613 0
M  V30 15388 C 1453.81 -1.76852 3.94141 0
M  V30 15389 C 1452.94 -2.97203 4.40277 0
M  V30 15390 C 1451.98 -2.57265 5.55411 0
M  V30 15391 N 1451.12 -3.70429 5.96428 0
M  V30 15392 H 1455.96 -0.385644 2.95494 0
M  V30 15393 H 1453.49 -0.178688 1.46011 0
M  V30 15394 H 1455.45 -2.86441 3.03327 0
M  V30 15395 H 1454.08 -2.59105 1.92521 0
M  V30 15396 H 1453.13 -0.932921 3.68783 0
M  V30 15397 H 1454.45 -1.43481 4.77718 0
M  V30 15398 H 1453.6 -3.79019 4.7374 0
M  V30 15399 H 1452.34 -3.3378 3.55587 0
M  V30 15400 H 1451.34 -1.73875 5.21582 0
M  V30 15401 H 1452.57 -2.21839 6.41844 0
M  V30 15402 H 1450.51 -4.06737 5.14686 0
M  V30 15403 H 1450.43 -3.40881 6.74786 0
M  V30 15404 H 1451.7 -4.52774 6.3452 0
M  V30 15405 N 1455.93 -1.56509 -0.185096 0
M  V30 15406 C 1456.88 -1.95336 -1.22934 0
M  V30 15407 C 1457.85 -0.81532 -1.44713 0
M  V30 15408 O 1459.03 -1.07431 -1.57681 0
M  V30 15409 C 1456.17 -2.30671 -2.56681 0
M  V30 15410 C 1455.28 -3.57586 -2.42397 0
M  V30 15411 C 1454.42 -3.82197 -3.68916 0
M  V30 15412 C 1453.46 -5.02505 -3.49507 0
M  V30 15413 N 1452.59 -5.23319 -4.68062 0
M  V30 15414 H 1457.43 -2.84361 -0.89123 0
M  V30 15415 H 1454.97 -1.40715 -0.428689 0
M  V30 15416 H 1456.93 -2.49176 -3.34615 0
M  V30 15417 H 1455.56 -1.44773 -2.88514 0
M  V30 15418 H 1454.61 -3.47072 -1.55709 0
M  V30 15419 H 1455.92 -4.45677 -2.23994 0
M  V30 15420 H 1455.08 -4.00996 -4.55288 0
M  V30 15421 H 1453.82 -2.92455 -3.90284 0
M  V30 15422 H 1452.82 -4.83619 -2.6152 0
M  V30 15423 H 1454.05 -5.93765 -3.29574 0
M  V30 15424 H 1451.99 -4.36526 -4.89674 0
M  V30 15425 H 1451.91 -6.05608 -4.52521 0
M  V30 15426 H 1453.18 -5.46585 -5.55757 0
M  V30 15427 N 1457.41 0.45317 -1.50944 0
M  V30 15428 C 1458.65 1.20568 -1.63068 0
M  V30 15429 C 1458.99 1.91229 -0.338375 0
M  V30 15430 O 1458.26 1.82916 0.661207 0
M  V30 15431 C 1458.54 2.23522 -2.8233 0
M  V30 15432 C 1458.4 1.57047 -4.21493 0
M  V30 15433 C 1459.72 3.24663 -2.97123 0
M  V30 15434 H 1456.83 0.436971 -0.593486 0
M  V30 15435 H 1459.48 0.497008 -1.83384 0
M  V30 15436 H 1457.63 2.83961 -2.65139 0
M  V30 15437 H 1459.3 1.00067 -4.50316 0
M  V30 15438 H 1457.54 0.873143 -4.24922 0
M  V30 15439 H 1458.21 2.31949 -5.00903 0
M  V30 15440 H 1460.69 2.74264 -3.12919 0
M  V30 15441 H 1459.56 3.9401 -3.82161 0
M  V30 15442 H 1459.83 3.89843 -2.08506 0
M  V30 15443 N 1458.88 1.40823 0.707568 0
M  V30 15444 C 1460.13 1.38837 1.46312 0
M  V30 15445 C 1460.45 -0.00353939 1.956 0
M  V30 15446 O 1461.65 -0.146022 2.71107 0
M  V30 15447 C 1460.11 2.44052 2.64512 0
M  V30 15448 C 1459.72 3.89093 2.2206 0
M  V30 15449 C 1461.46 2.51185 3.42208 0
M  V30 15450 C 1459.37 4.85887 3.37147 0
M  V30 15451 H 1458.3 0.516263 0.549535 0
M  V30 15452 H 1460.95 1.66595 0.769302 0
M  V30 15453 H 1459.33 2.09406 3.36103 0
M  V30 15454 H 1460.5 4.32925 1.57837 0
M  V30 15455 H 1458.82 3.8551 1.57388 0
M  V30 15456 H 1461.42 3.20687 4.2786 0
M  V30 15457 H 1461.76 1.54488 3.86574 0
M  V30 15458 H 1462.29 2.84862 2.77666 0
M  V30 15459 H 1459.03 5.83946 2.97805 0
M  V30 15460 H 1458.55 4.46713 4.00259 0
M  V30 15461 H 1460.23 5.06084 4.03098 0
M  V30 15462 N 1460.36 -0.94061 1.26453 0
M  V30 15463 C 1461.61 -1.68937 1.12197 0
M  V30 15464 C 1461.94 -1.91309 -0.33382 0
M  V30 15465 O 1461.22 -1.49417 -1.24518 0
M  V30 15466 C 1461.5 -3.06381 1.89215 0
M  V30 15467 C 1461.35 -2.91331 3.42704 0
M  V30 15468 C 1462.67 -4.06507 1.68642 0
M  V30 15469 H 1459.79 -0.613121 0.408964 0
M  V30 15470 H 1462.43 -1.09242 1.55455 0
M  V30 15471 H 1460.58 -3.57339 1.5245 0
M  V30 15472 H 1462.25 -2.47591 3.89226 0
M  V30 15473 H 1460.5 -2.26945 3.697 0
M  V30 15474 H 1461.17 -3.88818 3.91822 0
M  V30 15475 H 1463.64 -3.64512 2.00674 0
M  V30 15476 H 1462.52 -5.0069 2.24945 0
M  V30 15477 H 1462.78 -4.37572 0.631131 0
M  V30 15478 N 1461.84 -1.08266 -1.14527 0
M  V30 15479 C 1463.09 -0.822513 -1.86028 0
M  V30 15480 C 1463.44 0.644706 -1.81277 0
M  V30 15481 O 1462.73 1.46778 -1.23153 0
M  V30 15482 C 1462.93 -1.27675 -3.33817 0
M  V30 15483 C 1462.76 -2.78659 -3.52958 0
M  V30 15484 C 1461.53 -3.46388 -3.67891 0
M  V30 15485 C 1463.73 -3.76835 -3.49999 0
M  V30 15486 N 1461.71 -4.85918 -3.75176 0
M  V30 15487 C 1463.08 -5.02255 -3.63511 0
M  V30 15488 C 1465.13 -3.6986 -3.33328 0
M  V30 15489 C 1463.84 -6.21527 -3.62073 0
M  V30 15490 C 1465.86 -4.88606 -3.33194 0
M  V30 15491 C 1465.22 -6.12863 -3.47244 0
M  V30 15492 H 1461.32 -0.353671 -0.697453 0
M  V30 15493 H 1463.91 -1.38073 -1.37273 0
M  V30 15494 H 1462.08 -0.746122 -3.81166 0
M  V30 15495 H 1463.81 -0.963174 -3.93071 0
M  V30 15496 H 1460.57 -2.96802 -3.6906 0
M  V30 15497 H 1460.99 -5.58564 -3.82538 0
M  V30 15498 H 1465.63 -2.7473 -3.21377 0
M  V30 15499 H 1463.35 -7.1697 -3.728 0
M  V30 15500 H 1466.94 -4.84895 -3.21509 0
M  V30 15501 H 1465.82 -7.03208 -3.47085 0
M  V30 15502 N 1463.32 1.31536 -0.86811 0
M  V30 15503 C 1464.57 1.96386 -0.477176 0
M  V30 15504 C 1464.89 1.68968 0.973381 0
M  V30 15505 O 1464.16 1.00409 1.68211 0
M  V30 15506 H 1462.74 0.726579 -0.173468 0
M  V30 15507 H 1465.4 1.60377 -1.10749 0
M  V30 15508 H 1464.5 3.05606 -0.633376 0
M  V30 15509 N 1464.8 0.627364 1.44575 0
M  V30 15510 C 1465.76 -0.0700881 2.29093 0
M  V30 15511 C 1466.76 -0.775969 1.40838 0
M  V30 15512 O 1467.95 -0.621129 1.6275 0
M  V30 15513 C 1465.08 -1.10977 3.2233 0
M  V30 15514 H 1466.28 0.673234 2.92246 0
M  V30 15515 H 1463.83 0.387322 1.51425 0
M  V30 15516 H 1464.56 -1.8832 2.64019 0
M  V30 15517 H 1464.35 -0.607587 3.87364 0
M  V30 15518 H 1465.84 -1.59764 3.8583 0
M  V30 15519 N 1466.28 -1.53251 0.367684 0
M  V30 15520 C 1467.19 -2.29518 -0.485669 0
M  V30 15521 C 1468.2 -1.35568 -1.09075 0
M  V30 15522 O 1469.38 -1.68626 -1.10124 0
M  V30 15523 C 1466.44 -3.07115 -1.60876 0
M  V30 15524 C 1465.5 -4.16736 -1.031 0
M  V30 15525 C 1464.74 -4.90624 -2.10056 0
M  V30 15526 O 1464.96 -4.64393 -3.31203 0
M  V30 15527 O 1463.89 -5.76503 -1.72996 0
M  V30 15528 H 1467.72 -3.034 0.135017 0
M  V30 15529 H 1465.3 -1.48816 0.132005 0
M  V30 15530 H 1467.19 -3.55564 -2.26168 0
M  V30 15531 H 1465.86 -2.36068 -2.21481 0
M  V30 15532 H 1464.77 -3.72534 -0.341928 0
M  V30 15533 H 1466.1 -4.89956 -0.469473 0
M  V30 15534 N 1467.75 -0.0969077 -1.57302 0
M  V30 15535 C 1468.98 0.574705 -1.98758 0
M  V30 15536 C 1469.4 1.61612 -0.976067 0
M  V30 15537 O 1468.75 1.82468 0.0340803 0
M  V30 15538 C 1468.8 1.22078 -3.40263 0
M  V30 15539 O 1468.53 0.221022 -4.37542 0
M  V30 15540 C 1470.03 1.97783 -3.96732 0
M  V30 15541 H 1467.25 0.153934 -0.653104 0
M  V30 15542 H 1469.79 -0.17673 -2.03735 0
M  V30 15543 H 1467.95 1.92314 -3.36295 0
M  V30 15544 H 1468.36 0.687583 -5.19974 0
M  V30 15545 H 1469.83 2.38346 -4.97891 0
M  V30 15546 H 1470.31 2.8444 -3.3465 0
M  V30 15547 H 1470.92 1.3236 -4.04179 0
M  V30 15548 N 1469.23 1.56605 0.176793 0
M  V30 15549 C 1470.48 1.81952 0.895627 0
M  V30 15550 C 1470.81 0.673893 1.82133 0
M  V30 15551 O 1470.09 -0.324494 1.91774 0
M  V30 15552 C 1470.37 3.17658 1.69604 0
M  V30 15553 C 1470.22 4.4274 0.793834 0
M  V30 15554 C 1471.54 3.50246 2.66488 0
M  V30 15555 H 1468.66 0.661884 0.324159 0
M  V30 15556 H 1471.3 1.89307 0.162092 0
M  V30 15557 H 1469.45 3.11518 2.3214 0
M  V30 15558 H 1471.12 4.60942 0.181775 0
M  V30 15559 H 1469.37 4.33681 0.101566 0
M  V30 15560 H 1470.04 5.34231 1.38927 0
M  V30 15561 H 1472.51 3.56804 2.1408 0
M  V30 15562 H 1471.39 4.46286 3.19562 0
M  V30 15563 H 1471.65 2.7467 3.46423 0
M  V30 15564 N 1470.71 -0.445159 1.51182 0
M  V30 15565 C 1471.67 -1.52224 1.71349 0
M  V30 15566 C 1472.67 -1.49834 0.583632 0
M  V30 15567 O 1473.86 -1.51995 0.85107 0
M  V30 15568 C 1470.99 -2.91789 1.76273 0
M  V30 15569 H 1472.19 -1.35649 2.67468 0
M  V30 15570 H 1469.74 -0.673312 1.41054 0
M  V30 15571 H 1470.48 -3.13777 0.819405 0
M  V30 15572 H 1470.26 -2.94928 2.58379 0
M  V30 15573 H 1471.75 -3.69938 1.93741 0
M  V30 15574 N 1472.19 -1.41197 -0.700089 0
M  V30 15575 C 1473.43 -1.41775 -1.47239 0
M  V30 15576 C 1473.79 -0.0239874 -1.91985 0
M  V30 15577 O 1474.99 0.0954207 -2.68631 0
M  V30 15578 C 1473.26 -2.39268 -2.65491 0
M  V30 15579 S 1474.82 -2.58337 -3.54693 0
M  V30 15580 H 1471.64 -0.502298 -0.503207 0
M  V30 15581 H 1474.24 -1.77596 -0.817296 0
M  V30 15582 H 1472.95 -3.39342 -2.30815 0
M  V30 15583 H 1472.48 -2.04784 -3.35897 0
M  V30 15584 H 1474.49 -1.84739 -4.60528 0
M  V30 15585 N 1473.67 0.933891 -1.2695 0
M  V30 15586 C 1474.91 1.67759 -1.12701 0
M  V30 15587 C 1475.23 1.92207 0.328848 0
M  V30 15588 O 1474.5 1.52394 1.23097 0
M  V30 15589 H 1473.08 0.621729 -0.41408 0
M  V30 15590 H 1475.75 1.1217 -1.59386 0
M  V30 15591 H 1474.84 2.64834 -1.65135 0
M  V30 15592 N 1475.14 1.08871 1.13951 0
M  V30 15593 C 1476.42 0.73388 1.81311 0
M  V30 15594 C 1476.8 -0.781824 1.96089 0
M  V30 15595 O 1476.15 -1.70211 1.52448 0
M  V30 15596 C 1476.36 1.46631 3.16702 0
M  V30 15597 C 1477.71 1.62843 3.92132 0
M  V30 15598 O 1478.73 1.42836 3.26307 0
M  V30 15599 O 1477.59 1.95893 5.10185 0
M  V30 15600 H 1474.68 0.262976 0.784074 0
M  V30 15601 H 1477.23 1.19057 1.20927 0
M  V30 15602 H 1476 2.49863 3.01138 0
M  V30 15603 H 1475.62 1.00141 3.84782 0
M  V30 15604 N 1476.62 -1.31073 0.875073 0
M  V30 15605 C 1477.87 -1.95791 0.484661 0
M  V30 15606 C 1478.18 -1.69907 -0.969074 0
M  V30 15607 O 1479.39 -2.28527 -1.46587 0
M  V30 15608 C 1477.85 -3.50532 0.815804 0
M  V30 15609 C 1477.45 -3.85249 2.28664 0
M  V30 15610 C 1479.2 -4.21615 0.494111 0
M  V30 15611 C 1477.1 -5.33124 2.55993 0
M  V30 15612 H 1476.03 -0.732806 0.177516 0
M  V30 15613 H 1478.69 -1.49169 1.06868 0
M  V30 15614 H 1477.07 -3.95673 0.16098 0
M  V30 15615 H 1478.24 -3.51051 2.98496 0
M  V30 15616 H 1476.56 -3.27244 2.57488 0
M  V30 15617 H 1479.15 -5.30417 0.675456 0
M  V30 15618 H 1479.5 -4.12437 -0.565815 0
M  V30 15619 H 1480.03 -3.82125 1.1057 0
M  V30 15620 H 1476.77 -5.47343 3.60688 0
M  V30 15621 H 1476.29 -5.68657 1.90761 0
M  V30 15622 H 1477.97 -6.00446 2.40984 0
M  V30 15623 N 1478.1 -0.635022 -1.4424 0
M  V30 15624 C 1479.03 0.0543561 -2.33437 0
M  V30 15625 C 1480.01 0.830807 -1.48431 0
M  V30 15626 O 1481.2 0.795913 -1.77141 0
M  V30 15627 C 1478.33 1.03391 -3.31553 0
M  V30 15628 C 1477.28 0.368824 -4.26408 0
M  V30 15629 C 1476.61 1.45855 -5.14422 0
M  V30 15630 C 1477.91 -0.727381 -5.1721 0
M  V30 15631 H 1479.6 -0.690489 -2.91329 0
M  V30 15632 H 1477.15 -0.3335 -1.40085 0
M  V30 15633 H 1479.1 1.52495 -3.9284 0
M  V30 15634 H 1477.82 1.80969 -2.71878 0
M  V30 15635 H 1476.48 -0.101605 -3.66459 0
M  V30 15636 H 1476.13 2.22531 -4.51098 0
M  V30 15637 H 1475.83 1.0189 -5.78699 0
M  V30 15638 H 1477.35 1.95132 -5.78581 0
M  V30 15639 H 1478.77 -0.319272 -5.7241 0
M  V30 15640 H 1477.17 -1.09041 -5.9011 0
M  V30 15641 H 1478.24 -1.59292 -4.57989 0
M  V30 15642 N 1479.58 1.53054 -0.375806 0
M  V30 15643 C 1480.53 2.22837 0.482477 0
M  V30 15644 C 1481.51 1.22728 1.04051 0
M  V30 15645 O 1482.7 1.48129 0.968854 0
M  V30 15646 C 1479.83 3.02869 1.61634 0
M  V30 15647 C 1478.92 4.10362 1.07069 0
M  V30 15648 N 1479.31 5.05187 0.248878 0
M  V30 15649 C 1477.61 4.25251 1.34452 0
M  V30 15650 C 1478.31 5.81678 -0.0510458 0
M  V30 15651 N 1477.29 5.40817 0.549318 0
M  V30 15652 H 1481.09 2.93506 -0.1521 0
M  V30 15653 H 1478.6 1.6135 -0.184373 0
M  V30 15654 H 1480.6 3.51387 2.24349 0
M  V30 15655 H 1479.26 2.33732 2.25387 0
M  V30 15656 H 1480.27 5.17777 -0.112766 0
M  V30 15657 H 1476.95 3.67342 1.98408 0
M  V30 15658 H 1478.34 6.68073 -0.716061 0
M  V30 15659 N 1481.06 0.105248 1.57248 0
M  V30 15660 C 1482.3 -0.554956 1.94331 0
M  V30 15661 C 1482.63 -1.68087 0.988528 0
M  V30 15662 O 1481.9 -1.95854 0.042366 0
M  V30 15663 H 1480.48 -0.207994 0.717459 0
M  V30 15664 H 1483.14 0.170964 1.94149 0
M  V30 15665 H 1482.23 -0.95853 2.97016 0
M  V30 15666 N 1482.53 -1.56697 -0.168486 0
M  V30 15667 C 1483.46 -1.99659 -1.21073 0
M  V30 15668 C 1484.45 -0.872625 -1.46011 0
M  V30 15669 O 1485.63 -1.13891 -1.57297 0
M  V30 15670 C 1482.76 -2.35889 -2.54899 0
M  V30 15671 C 1481.71 -3.51272 -2.44524 0
M  V30 15672 C 1481.04 -3.73253 -3.82866 0
M  V30 15673 C 1482.34 -4.84631 -1.94756 0
M  V30 15674 H 1484.03 -2.86974 -0.853593 0
M  V30 15675 H 1481.58 -1.38065 -0.409165 0
M  V30 15676 H 1483.53 -2.64542 -3.28017 0
M  V30 15677 H 1482.26 -1.45486 -2.92406 0
M  V30 15678 H 1480.92 -3.22751 -1.7386 0
M  V30 15679 H 1480.56 -2.80136 -4.17772 0
M  V30 15680 H 1480.26 -4.5089 -3.76792 0
M  V30 15681 H 1481.79 -4.04309 -4.57566 0
M  V30 15682 H 1483.2 -5.12142 -2.5765 0
M  V30 15683 H 1481.6 -5.65925 -1.99623 0
M  V30 15684 H 1482.67 -4.76436 -0.902021 0
M  V30 15685 N 1484.01 0.437135 -1.51416 0
M  V30 15686 C 1485.42 1.01699 -1.5657 0
M  V30 15687 C 1485.77 1.92299 -0.389291 0
M  V30 15688 O 1484.9 2.10689 0.49389 0
M  V30 15689 C 1485.49 1.85119 -2.83754 0
M  V30 15690 C 1484.05 2.38154 -2.91478 0
M  V30 15691 C 1483.2 1.17374 -2.51234 0
M  V30 15692 H 1486.15 0.218399 -1.5719 0
M  V30 15693 H 1486.17 2.70572 -2.67528 0
M  V30 15694 H 1485.68 1.19153 -3.69357 0
M  V30 15695 H 1483.79 3.07575 -2.10306 0
M  V30 15696 H 1483.9 2.70937 -3.95133 0
M  V30 15697 H 1482.26 1.51913 -2.04437 0
M  V30 15698 H 1483.05 0.530176 -3.39181 0
M  V30 15699 N 1485.49 1.41566 0.692592 0
M  V30 15700 C 1486.74 1.41292 1.4548 0
M  V30 15701 C 1487.07 0.0229093 1.94186 0
M  V30 15702 O 1486.34 -0.949849 1.6973 0
M  V30 15703 C 1486.63 2.42225 2.66457 0
M  V30 15704 C 1486.48 3.90345 2.23496 0
M  V30 15705 C 1487.8 2.40374 3.68658 0
M  V30 15706 H 1484.92 0.51453 0.527663 0
M  V30 15707 H 1487.56 1.72862 0.788598 0
M  V30 15708 H 1485.71 2.15435 3.23296 0
M  V30 15709 H 1487.38 4.2805 1.71962 0
M  V30 15710 H 1485.63 4.05068 1.55249 0
M  V30 15711 H 1486.3 4.56518 3.10314 0
M  V30 15712 H 1488.77 2.64156 3.21498 0
M  V30 15713 H 1487.65 3.13004 4.5091 0
M  V30 15714 H 1487.91 1.42338 4.1856 0
M  V30 15715 N 1486.97 -0.927146 1.27443 0
M  V30 15716 C 1488.19 -1.71426 1.16739 0
M  V30 15717 C 1488.62 -1.86122 -0.272063 0
M  V30 15718 O 1487.98 -1.36165 -1.19703 0
M  V30 15719 C 1488.02 -3.09131 1.85661 0
M  V30 15720 O 1487.13 -3.95897 1.15495 0
M  V30 15721 H 1486.47 -0.525428 0.405983 0
M  V30 15722 H 1489 -1.16022 1.68523 0
M  V30 15723 H 1489.01 -3.59442 1.93042 0
M  V30 15724 H 1487.68 -2.97752 2.90373 0
M  V30 15725 H 1486.26 -3.54337 1.16187 0
M  V30 15726 N 1488.45 -1.09474 -1.13372 0
M  V30 15727 C 1489.41 -0.738173 -2.16988 0
M  V30 15728 C 1490.41 0.232488 -1.5911 0
M  V30 15729 O 1491.6 0.0106093 -1.74197 0
M  V30 15730 C 1488.73 -0.091724 -3.40777 0
M  V30 15731 H 1489.92 -1.65582 -2.50045 0
M  V30 15732 H 1487.48 -0.893994 -1.28209 0
M  V30 15733 H 1488.21 0.837129 -3.13309 0
M  V30 15734 H 1488 -0.790161 -3.84056 0
M  V30 15735 H 1489.49 0.142334 -4.17357 0
M  V30 15736 N 1489.92 1.30607 -0.882012 0
M  V30 15737 C 1491.34 1.48859 -0.575599 0
M  V30 15738 C 1491.54 1.80908 0.887388 0
M  V30 15739 O 1490.6 1.89492 1.6688 0
M  V30 15740 C 1491.91 2.61405 -1.48619 0
M  V30 15741 C 1493.46 2.75286 -1.48951 0
M  V30 15742 C 1493.93 3.90942 -2.38596 0
M  V30 15743 N 1495.42 3.98248 -2.36543 0
M  V30 15744 C 1496.16 4.87041 -3.0262 0
M  V30 15745 N 1495.65 5.80651 -3.77911 0
M  V30 15746 N 1497.45 4.80385 -2.91867 0
M  V30 15747 H 1489.6 1.08076 -1.82848 0
M  V30 15748 H 1491.86 0.535148 -0.782509 0
M  V30 15749 H 1491.57 2.44535 -2.52775 0
M  V30 15750 H 1491.44 3.57818 -1.19358 0
M  V30 15751 H 1493.83 2.91564 -0.455477 0
M  V30 15752 H 1493.91 1.79504 -1.82242 0
M  V30 15753 H 1493.55 3.75422 -3.42083 0
M  V30 15754 H 1493.48 4.86057 -2.02623 0
M  V30 15755 H 1495.97 3.31282 -1.81827 0
M  V30 15756 H 1496.29 6.45159 -4.25428 0
M  V30 15757 H 1494.63 5.80592 -3.82019 0
M  V30 15758 H 1497.82 4.06234 -2.32576 0
M  V30 15759 H 1498 5.49377 -3.43641 0
M  V30 15760 N 1491.4 0.642663 1.43901 0
M  V30 15761 C 1492.33 -0.0419756 2.33462 0
M  V30 15762 C 1493.31 -0.822923 1.48869 0
M  V30 15763 O 1494.5 -0.786508 1.7756 0
M  V30 15764 C 1491.63 -1.01631 3.32097 0
M  V30 15765 C 1490.58 -0.346206 4.26597 0
M  V30 15766 C 1489.91 -1.43125 5.15189 0
M  V30 15767 C 1491.21 0.754799 5.16817 0
M  V30 15768 H 1492.9 0.705929 2.90959 0
M  V30 15769 H 1490.45 0.340924 1.39906 0
M  V30 15770 H 1492.4 -1.5041 3.93643 0
M  V30 15771 H 1491.13 -1.79525 2.72834 0
M  V30 15772 H 1489.78 0.121038 3.664 0
M  V30 15773 H 1489.43 -2.20135 4.52271 0
M  V30 15774 H 1489.13 -0.988194 5.79231 0
M  V30 15775 H 1490.66 -1.92061 5.79607 0
M  V30 15776 H 1492.07 0.349624 5.72233 0
M  V30 15777 H 1490.47 1.12169 5.89524 0
M  V30 15778 H 1491.54 1.61718 4.57138 0
M  V30 15779 N 1492.88 -1.52852 0.383918 0
M  V30 15780 C 1494.13 -2.01112 -0.199594 0
M  V30 15781 C 1494.45 -1.27237 -1.47769 0
M  V30 15782 O 1493.72 -0.390873 -1.91961 0
M  V30 15783 H 1492.3 -0.743047 -0.0767466 0
M  V30 15784 H 1494.96 -1.8799 0.51437 0
M  V30 15785 H 1494.06 -3.09347 -0.413627 0
M  V30 15786 N 1494.36 -0.113586 -1.5719 0
M  V30 15787 C 1495.78 0.243023 -1.57739 0
M  V30 15788 C 1495.98 1.67105 -1.12597 0
M  V30 15789 O 1495.03 2.39126 -0.810874 0
M  V30 15790 C 1496.34 0.014629 -3.00696 0
M  V30 15791 C 1497.89 0.0809485 -3.12895 0
M  V30 15792 C 1498.37 -0.119685 -4.57844 0
M  V30 15793 N 1499.86 -0.0654711 -4.63154 0
M  V30 15794 C 1500.59 -0.195692 -5.73066 0
M  V30 15795 N 1500.09 -0.381782 -6.91747 0
M  V30 15796 N 1501.88 -0.13565 -5.61936 0
M  V30 15797 H 1494.03 -1.04639 -1.84836 0
M  V30 15798 H 1496.3 -0.411609 -0.85398 0
M  V30 15799 H 1496 -0.972399 -3.3799 0
M  V30 15800 H 1495.88 0.748882 -3.69691 0
M  V30 15801 H 1498.26 1.0585 -2.75463 0
M  V30 15802 H 1498.34 -0.685097 -2.46455 0
M  V30 15803 H 1497.99 -1.09418 -4.95974 0
M  V30 15804 H 1497.92 0.666281 -5.22368 0
M  V30 15805 H 1500.41 0.0750649 -3.77825 0
M  V30 15806 H 1500.72 -0.472157 -7.71356 0
M  V30 15807 H 1499.07 -0.417686 -6.93744 0
M  V30 15808 H 1502.26 0.0087301 -4.68099 0
M  V30 15809 H 1502.43 -0.240579 -6.47553 0
M  V30 15810 N 1495.84 1.56784 0.160173 0
M  V30 15811 C 1496.75 2.00514 1.21783 0
M  V30 15812 C 1497.76 0.918341 1.47792 0
M  V30 15813 O 1498.94 1.22683 1.59721 0
M  V30 15814 C 1496 2.36575 2.53443 0
M  V30 15815 C 1495.07 3.59138 2.35198 0
M  V30 15816 C 1494.3 3.93469 3.6058 0
M  V30 15817 O 1494.52 3.28625 4.6622 0
M  V30 15818 O 1493.46 4.86774 3.54027 0
M  V30 15819 H 1497.28 2.90774 0.876607 0
M  V30 15820 H 1494.87 1.44799 0.367897 0
M  V30 15821 H 1496.75 2.60687 3.31089 0
M  V30 15822 H 1495.42 1.49474 2.87122 0
M  V30 15823 H 1494.33 3.4023 1.55546 0
M  V30 15824 H 1495.66 4.46815 2.0644 0
M  V30 15825 N 1497.32 -0.429099 1.51646 0
M  V30 15826 C 1498.56 -1.17958 1.64966 0
M  V30 15827 C 1498.89 -1.90667 0.368755 0
M  V30 15828 O 1498.17 -1.83945 -0.632023 0
M  V30 15829 C 1498.45 -2.19002 2.8585 0
M  V30 15830 C 1498.31 -1.50321 4.23938 0
M  V30 15831 C 1499.62 -3.19895 3.0225 0
M  V30 15832 H 1496.74 -0.427474 0.600362 0
M  V30 15833 H 1499.39 -0.46777 1.84152 0
M  V30 15834 H 1497.54 -2.79707 2.69623 0
M  V30 15835 H 1499.21 -0.928902 4.51851 0
M  V30 15836 H 1497.45 -0.805431 4.26257 0
M  V30 15837 H 1498.12 -2.2395 5.0453 0
M  V30 15838 H 1500.6 -2.69251 3.17243 0
M  V30 15839 H 1499.47 -3.8788 3.88381 0
M  V30 15840 H 1499.73 -3.86477 2.14682 0
M  V30 15841 N 1498.79 -1.41931 -0.685074 0
M  V30 15842 C 1499.72 -1.47385 -1.81107 0
M  V30 15843 C 1500.7 -0.331433 -1.6684 0
M  V30 15844 O 1501.89 -0.544331 -1.86415 0
M  V30 15845 C 1499.02 -1.36555 -3.19327 0
M  V30 15846 C 1497.97 -2.48718 -3.48315 0
M  V30 15847 C 1497.3 -2.2295 -4.86002 0
M  V30 15848 C 1498.6 -3.91047 -3.46237 0
M  V30 15849 H 1500.29 -2.41624 -1.768 0
M  V30 15850 H 1497.84 -1.16297 -0.849178 0
M  V30 15851 H 1499.79 -1.38981 -3.97822 0
M  V30 15852 H 1498.52 -0.388063 -3.24286 0
M  V30 15853 H 1497.18 -2.45592 -2.72176 0
M  V30 15854 H 1496.82 -1.23518 -4.87598 0
M  V30 15855 H 1496.52 -2.98116 -5.0636 0
M  V30 15856 H 1498.05 -2.27108 -5.66793 0
M  V30 15857 H 1499.46 -3.95831 -4.14718 0
M  V30 15858 H 1497.86 -4.65981 -3.7813 0
M  V30 15859 H 1498.93 -4.1845 -2.45006 0
M  V30 15860 N 1500.27 0.920374 -1.27933 0
M  V30 15861 C 1501.2 2.03882 -1.13817 0
M  V30 15862 C 1502.18 1.70058 -0.0376853 0
M  V30 15863 O 1503.37 1.93023 -0.213492 0
M  V30 15864 C 1500.5 3.38142 -0.792296 0
M  V30 15865 C 1499.45 3.86104 -1.84683 0
M  V30 15866 C 1498.78 5.17253 -1.35474 0
M  V30 15867 C 1500.08 4.0869 -3.25223 0
M  V30 15868 H 1501.77 2.15949 -2.07379 0
M  V30 15869 H 1499.32 1.03764 -0.998454 0
M  V30 15870 H 1501.27 4.15872 -0.680337 0
M  V30 15871 H 1499.99 3.26109 0.179029 0
M  V30 15872 H 1498.65 3.10573 -1.94782 0
M  V30 15873 H 1498.3 5.01618 -0.372666 0
M  V30 15874 H 1498 5.50314 -2.05982 0
M  V30 15875 H 1499.53 5.97545 -1.25587 0
M  V30 15876 H 1500.94 4.76965 -3.18083 0
M  V30 15877 H 1499.34 4.5307 -3.93507 0
M  V30 15878 H 1500.41 3.13729 -3.69733 0
M  V30 15879 N 1501.75 1.10074 1.1279 0
M  V30 15880 C 1503 0.839212 1.83852 0
M  V30 15881 C 1503.32 -0.637023 1.84301 0
M  V30 15882 O 1502.59 -1.46239 1.30349 0
M  V30 15883 H 1501.17 0.307468 0.680788 0
M  V30 15884 H 1503.83 1.39025 1.36595 0
M  V30 15885 H 1502.93 1.19872 2.88162 0
M  V30 15886 N 1503.23 -1.30138 0.888926 0
M  V30 15887 C 1504.64 -1.78124 0.559346 0
M  V30 15888 C 1504.99 -1.73046 -0.924633 0
M  V30 15889 O 1504.11 -1.30974 -1.72264 0
M  V30 15890 C 1504.71 -3.2344 1.00856 0
M  V30 15891 C 1503.27 -3.69247 0.730332 0
M  V30 15892 C 1502.42 -2.505 1.18933 0
M  V30 15893 H 1505.37 -1.16952 1.07275 0
M  V30 15894 H 1505.39 -3.78985 0.339219 0
M  V30 15895 H 1504.9 -3.27104 2.08865 0
M  V30 15896 H 1503 -3.71067 -0.337599 0
M  V30 15897 H 1503.11 -4.60538 1.32066 0
M  V30 15898 H 1501.48 -2.47323 0.608568 0
M  V30 15899 H 1502.26 -2.56899 2.27724 0
M  V30 15900 N 1504.71 -0.650285 -1.43559 0
M  V30 15901 C 1505.67 0.0336325 -2.29175 0
M  V30 15902 C 1506.67 0.753465 -1.42055 0
M  V30 15903 O 1507.86 0.595158 -1.63718 0
M  V30 15904 C 1504.99 1.05835 -3.24055 0
M  V30 15905 H 1506.18 -0.719643 -2.91138 0
M  V30 15906 H 1503.74 -0.411363 -1.5079 0
M  V30 15907 H 1504.47 1.84096 -2.66982 0
M  V30 15908 H 1504.26 0.545884 -3.88281 0
M  V30 15909 H 1505.75 1.53606 -3.88323 0
M  V30 15910 N 1506.18 1.52647 -0.392018 0
M  V30 15911 C 1507.46 1.94034 0.247004 0
M  V30 15912 C 1507.84 1.32767 1.64122 0
M  V30 15913 O 1507.19 0.496822 2.23033 0
M  V30 15914 C 1507.4 3.47949 0.270615 0
M  V30 15915 C 1508.75 4.21666 0.498256 0
M  V30 15916 O 1509.77 3.54469 0.350708 0
M  V30 15917 O 1508.63 5.40795 0.787586 0
M  V30 15918 H 1505.72 0.812487 0.154251 0
M  V30 15919 H 1508.27 1.63715 -0.446723 0
M  V30 15920 H 1507.04 3.84881 -0.705862 0
M  V30 15921 H 1506.66 3.8458 1.00915 0
M  V30 15922 N 1507.66 0.121921 1.57128 0
M  V30 15923 C 1508.91 -0.534313 1.94909 0
M  V30 15924 C 1509.23 -1.67029 1.0063 0
M  V30 15925 O 1508.5 -1.95798 0.0631366 0
M  V30 15926 H 1507.08 -0.200372 0.719625 0
M  V30 15927 H 1509.74 0.191546 1.93956 0
M  V30 15928 H 1508.84 -0.926974 2.98016 0
M  V30 15929 N 1509.14 -1.56867 -0.151857 0
M  V30 15930 C 1510.37 -1.86965 -0.879066 0
M  V30 15931 C 1510.78 -0.70756 -1.75471 0
M  V30 15932 O 1510.12 0.331966 -1.80676 0
M  V30 15933 C 1510.18 -3.11712 -1.79098 0
M  V30 15934 C 1509.85 -4.43737 -1.09298 0
M  V30 15935 C 1510.84 -5.17956 -0.449181 0
M  V30 15936 C 1508.53 -4.90465 -1.08394 0
M  V30 15937 C 1510.52 -6.37104 0.194342 0
M  V30 15938 C 1508.21 -6.09538 -0.436597 0
M  V30 15939 C 1509.21 -6.82703 0.201419 0
M  V30 15940 O 1508.9 -7.99515 0.838504 0
M  V30 15941 H 1508.63 -0.624074 -0.259822 0
M  V30 15942 H 1511.18 -2.04845 -0.150844 0
M  V30 15943 H 1509.41 -2.89828 -2.56002 0
M  V30 15944 H 1511.1 -3.28097 -2.38972 0
M  V30 15945 H 1511.87 -4.82926 -0.448012 0
M  V30 15946 H 1507.75 -4.33444 -1.56995 0
M  V30 15947 H 1511.29 -6.9415 0.69293 0
M  V30 15948 H 1507.19 -6.4403 -0.435417 0
M  V30 15949 H 1507.96 -8.15151 0.739688 0
M  V30 15950 N 1510.62 0.421051 -1.51871 0
M  V30 15951 C 1511.85 1.1911 -1.69175 0
M  V30 15952 C 1512.26 1.84599 -0.39606 0
M  V30 15953 O 1511.62 1.71395 0.626907 0
M  V30 15954 C 1511.67 2.26309 -2.81898 0
M  V30 15955 O 1511.39 1.63496 -4.06449 0
M  V30 15956 C 1512.89 3.16285 -3.10611 0
M  V30 15957 H 1510.11 0.358385 -0.567275 0
M  V30 15958 H 1512.66 0.496919 -1.98371 0
M  V30 15959 H 1510.81 2.91416 -2.55255 0
M  V30 15960 H 1511.22 2.3447 -4.69174 0
M  V30 15961 H 1512.7 3.87601 -3.93026 0
M  V30 15962 H 1513.18 3.77976 -2.23676 0
M  V30 15963 H 1513.78 2.5686 -3.38973 0
M  V30 15964 N 1512.1 1.42293 0.677538 0
M  V30 15965 C 1513.32 1.46214 1.47092 0
M  V30 15966 C 1513.75 0.0740989 1.87954 0
M  V30 15967 O 1513.1 -0.926831 1.55819 0
M  V30 15968 C 1513.15 2.39236 2.69812 0
M  V30 15969 O 1512.26 1.86183 3.6798 0
M  V30 15970 H 1511.6 0.495507 0.442006 0
M  V30 15971 H 1514.13 1.86952 0.831274 0
M  V30 15972 H 1514.14 2.55723 3.17915 0
M  V30 15973 H 1512.81 3.40081 2.39411 0
M  V30 15974 H 1511.39 1.79237 3.26999 0
M  V30 15975 N 1513.57 -0.913576 1.28419 0
M  V30 15976 C 1514.52 -2.01603 1.12361 0
M  V30 15977 C 1515.49 -1.66087 0.0206953 0
M  V30 15978 O 1516.68 -1.89895 0.185659 0
M  V30 15979 C 1513.82 -3.35897 0.791655 0
M  V30 15980 C 1512.93 -3.84281 1.97363 0
M  V30 15981 C 1512.06 -5.07087 1.58228 0
M  V30 15982 C 1511.1 -5.47804 2.73089 0
M  V30 15983 N 1510.24 -6.618 2.34446 0
M  V30 15984 H 1515.08 -2.1467 2.0669 0
M  V30 15985 H 1512.62 -1.05147 1.02871 0
M  V30 15986 H 1514.58 -4.13149 0.579943 0
M  V30 15987 H 1513.21 -3.22596 -0.114699 0
M  V30 15988 H 1512.26 -3.03184 2.29746 0
M  V30 15989 H 1513.57 -4.10417 2.83477 0
M  V30 15990 H 1512.72 -5.91883 1.33264 0
M  V30 15991 H 1511.46 -4.82759 0.692429 0
M  V30 15992 H 1510.47 -4.61549 2.98751 0
M  V30 15993 H 1511.69 -5.74119 3.62717 0
M  V30 15994 H 1509.64 -6.39103 1.4793 0
M  V30 15995 H 1509.56 -6.87663 3.14096 0
M  V30 15996 H 1510.82 -7.49901 2.12766 0
M  V30 15997 N 1515.05 -1.1067 -1.12204 0
M  V30 15998 C 1516.3 -0.84895 -1.83405 0
M  V30 15999 C 1516.62 0.62724 -1.84637 0
M  V30 16000 O 1515.89 1.45546 -1.31123 0
M  V30 16001 H 1514.47 -0.311074 -0.679148 0
M  V30 16002 H 1517.13 -1.39747 -1.35856 0
M  V30 16003 H 1516.23 -1.21398 -2.87522 0
M  V30 16004 N 1516.53 1.29665 -0.895815 0
M  V30 16005 C 1517.78 1.96376 -0.529921 0
M  V30 16006 C 1518.13 1.69358 0.912991 0
M  V30 16007 O 1517.42 0.993893 1.63806 0
M  V30 16008 C 1517.62 3.49355 -0.754025 0
M  V30 16009 C 1517.45 3.91244 -2.21717 0
M  V30 16010 C 1516.22 4.16307 -2.86386 0
M  V30 16011 C 1518.42 4.03256 -3.19201 0
M  V30 16012 N 1516.4 4.44735 -4.23184 0
M  V30 16013 C 1517.77 4.35691 -4.41105 0
M  V30 16014 C 1519.82 3.85718 -3.14843 0
M  V30 16015 C 1518.53 4.52416 -5.59207 0
M  V30 16016 C 1520.55 4.0365 -4.32227 0
M  V30 16017 C 1519.91 4.36441 -5.529 0
M  V30 16018 H 1516.01 0.743141 -0.243445 0
M  V30 16019 H 1518.6 1.56681 -1.15581 0
M  V30 16020 H 1516.77 3.8808 -0.157541 0
M  V30 16021 H 1518.5 4.03149 -0.353953 0
M  V30 16022 H 1515.26 4.09919 -2.37199 0
M  V30 16023 H 1515.68 4.63064 -4.93863 0
M  V30 16024 H 1520.32 3.59433 -2.22638 0
M  V30 16025 H 1518.04 4.77539 -6.51907 0
M  V30 16026 H 1521.63 3.91537 -4.30337 0
M  V30 16027 H 1520.51 4.50029 -6.42218 0
M  V30 16028 N 1518.01 0.657889 1.43212 0
M  V30 16029 C 1518.96 -0.0308596 2.30779 0
M  V30 16030 C 1519.93 -0.809951 1.45014 0
M  V30 16031 O 1521.11 -0.785615 1.73876 0
M  V30 16032 C 1518.25 -0.988048 3.30653 0
M  V30 16033 C 1517.36 -0.204567 4.31515 0
M  V30 16034 C 1516.5 -1.15598 5.1847 0
M  V30 16035 C 1515.54 -0.363197 6.11022 0
M  V30 16036 N 1514.67 -1.26644 6.90584 0
M  V30 16037 H 1519.51 0.721745 2.89128 0
M  V30 16038 H 1517.05 0.367677 1.42431 0
M  V30 16039 H 1519.01 -1.55666 3.87071 0
M  V30 16040 H 1517.64 -1.70747 2.73944 0
M  V30 16041 H 1516.69 0.48041 3.77354 0
M  V30 16042 H 1518 0.411684 4.97098 0
M  V30 16043 H 1517.16 -1.79507 5.79536 0
M  V30 16044 H 1515.9 -1.80613 4.53023 0
M  V30 16045 H 1514.9 0.28922 5.49039 0
M  V30 16046 H 1516.13 0.28262 6.78512 0
M  V30 16047 H 1514.07 -1.90331 6.27782 0
M  V30 16048 H 1513.99 -0.70486 7.52707 0
M  V30 16049 H 1515.26 -1.89353 7.56152 0
M  V30 16050 N 1519.49 -1.52437 0.400108 0
M  V30 16051 C 1520.42 -2.29672 -0.421054 0
M  V30 16052 C 1521.4 -1.33506 -1.05405 0
M  V30 16053 O 1522.58 -1.62408 -1.06477 0
M  V30 16054 C 1519.71 -3.1115 -1.54281 0
M  V30 16055 C 1518.67 -4.1529 -1.0353 0
M  V30 16056 C 1517.99 -4.85058 -2.24996 0
M  V30 16057 C 1519.29 -5.22212 -0.0956529 0
M  V30 16058 H 1520.99 -2.98565 0.2234 0
M  V30 16059 H 1518.53 -1.43588 0.108883 0
M  V30 16060 H 1520.49 -3.63945 -2.12419 0
M  V30 16061 H 1519.21 -2.4001 -2.21501 0
M  V30 16062 H 1517.87 -3.63492 -0.476383 0
M  V30 16063 H 1517.52 -4.10455 -2.9075 0
M  V30 16064 H 1517.22 -5.55452 -1.91694 0
M  V30 16065 H 1518.74 -5.40661 -2.83756 0
M  V30 16066 H 1520.15 -5.70302 -0.585548 0
M  V30 16067 H 1518.55 -5.99917 0.148121 0
M  V30 16068 H 1519.62 -4.77351 0.852296 0
M  V30 16069 N 1520.96 -0.130252 -1.57061 0
M  V30 16070 C 1521.89 0.812189 -2.18919 0
M  V30 16071 C 1522.88 1.2692 -1.13249 0
M  V30 16072 O 1524.06 1.32978 -1.41529 0
M  V30 16073 C 1521.19 2.05803 -2.79754 0
M  V30 16074 C 1520.14 1.73841 -3.91105 0
M  V30 16075 C 1519.47 3.05549 -4.38799 0
M  V30 16076 C 1520.77 0.997991 -5.12677 0
M  V30 16077 H 1522.46 0.296692 -2.97926 0
M  V30 16078 H 1520.01 0.141265 -1.43305 0
M  V30 16079 H 1521.96 2.72201 -3.21691 0
M  V30 16080 H 1520.69 2.59697 -1.98053 0
M  V30 16081 H 1519.35 1.09828 -3.49762 0
M  V30 16082 H 1518.99 3.57399 -3.53942 0
M  V30 16083 H 1518.69 2.84932 -5.13894 0
M  V30 16084 H 1520.22 3.73045 -4.83394 0
M  V30 16085 H 1521.63 1.56372 -5.51562 0
M  V30 16086 H 1520.03 0.892378 -5.93428 0
M  V30 16087 H 1521.1 -0.0132936 -4.84898 0
M  V30 16088 N 1522.44 1.56945 0.143535 0
M  V30 16089 C 1523.41 1.97616 1.16106 0
M  V30 16090 C 1524.41 0.863113 1.35672 0
M  V30 16091 O 1525.6 1.12966 1.32606 0
M  V30 16092 C 1522.73 2.29511 2.52067 0
M  V30 16093 H 1523.92 2.88696 0.812066 0
M  V30 16094 H 1521.47 1.51433 0.386999 0
M  V30 16095 H 1522.21 1.41233 2.91931 0
M  V30 16096 H 1521.99 3.10667 2.39225 0
M  V30 16097 H 1523.48 2.61802 3.25345 0
M  V30 16098 N 1523.92 -0.412991 1.52093 0
M  V30 16099 C 1525.33 -0.991955 1.58168 0
M  V30 16100 C 1525.68 -1.91655 0.419834 0
M  V30 16101 O 1524.81 -2.11448 -0.460308 0
M  V30 16102 C 1525.4 -1.80581 2.86663 0
M  V30 16103 C 1523.96 -2.33487 2.9523 0
M  V30 16104 C 1523.11 -1.13362 2.5307 0
M  V30 16105 H 1526.06 -0.193364 1.57518 0
M  V30 16106 H 1526.08 -2.66282 2.71798 0
M  V30 16107 H 1525.59 -1.13262 3.71205 0
M  V30 16108 H 1523.69 -3.0419 2.15173 0
M  V30 16109 H 1523.81 -2.64617 3.99393 0
M  V30 16110 H 1522.17 -1.48641 2.06828 0
M  V30 16111 H 1522.95 -0.476148 3.39982 0
M  V30 16112 N 1525.4 -1.4265 -0.669982 0
M  V30 16113 C 1526.65 -1.42667 -1.42579 0
M  V30 16114 C 1526.96 -0.0483217 -1.9554 0
M  V30 16115 O 1528.17 0.0740917 -2.71399 0
M  V30 16116 C 1526.62 -2.5098 -2.57948 0
M  V30 16117 C 1526.23 -3.94844 -2.11666 0
M  V30 16118 C 1527.98 -2.6017 -3.35428 0
M  V30 16119 C 1525.88 -4.94655 -3.24146 0
M  V30 16120 H 1524.81 -0.530651 -0.535654 0
M  V30 16121 H 1527.46 -1.68576 -0.724861 0
M  V30 16122 H 1525.85 -2.18244 -3.30432 0
M  V30 16123 H 1527.02 -4.36958 -1.46303 0
M  V30 16124 H 1525.33 -3.89547 -1.47111 0
M  V30 16125 H 1527.93 -3.31918 -4.19207 0
M  V30 16126 H 1528.27 -1.64683 -3.82342 0
M  V30 16127 H 1528.81 -2.92124 -2.70016 0
M  V30 16128 H 1525.55 -5.91636 -2.82218 0
M  V30 16129 H 1525.07 -4.57168 -3.88275 0
M  V30 16130 H 1526.75 -5.16593 -3.89538 0
M  V30 16131 N 1526.88 0.906753 -1.28902 0
M  V30 16132 C 1528.11 1.69019 -1.19333 0
M  V30 16133 C 1528.52 1.87176 0.247065 0
M  V30 16134 O 1527.88 1.40376 1.16623 0
M  V30 16135 C 1527.93 3.07854 -1.89495 0
M  V30 16136 O 1527.65 2.90531 -3.27908 0
M  V30 16137 C 1529.15 4.02246 -1.86314 0
M  V30 16138 H 1526.37 0.528119 -0.413922 0
M  V30 16139 H 1528.91 1.13441 -1.70151 0
M  V30 16140 H 1527.07 3.60228 -1.42529 0
M  V30 16141 H 1527.48 3.78451 -3.63146 0
M  V30 16142 H 1528.96 4.97104 -2.39983 0
M  V30 16143 H 1529.43 4.31149 -0.837071 0
M  V30 16144 H 1530.04 3.55803 -2.3299 0
M  V30 16145 N 1528.36 1.11264 1.11616 0
M  V30 16146 C 1529.32 0.7726 2.15786 0
M  V30 16147 C 1530.32 -0.207145 1.5946 0
M  V30 16148 O 1531.51 0.0171053 1.74192 0
M  V30 16149 C 1528.64 0.145927 3.40588 0
M  V30 16150 H 1529.83 1.69539 2.47379 0
M  V30 16151 H 1527.39 0.914278 1.2677 0
M  V30 16152 H 1528.12 -0.787178 3.14601 0
M  V30 16153 H 1527.91 0.851161 3.8275 0
M  V30 16154 H 1529.4 -0.0759176 4.17531 0
M  V30 16155 N 1529.83 -1.29188 0.902679 0
M  V30 16156 C 1531.06 -1.99286 0.544844 0
M  V30 16157 C 1531.47 -1.67721 -0.875572 0
M  V30 16158 O 1530.81 -0.920207 -1.5899 0
M  V30 16159 C 1530.88 -3.53374 0.660849 0
M  V30 16160 C 1530.54 -4.08502 2.04878 0
M  V30 16161 C 1531.54 -4.23173 3.02028 0
M  V30 16162 C 1529.22 -4.43461 2.35897 0
M  V30 16163 C 1531.22 -4.7204 4.28318 0
M  V30 16164 C 1528.9 -4.92024 3.6243 0
M  V30 16165 C 1529.9 -5.06269 4.58455 0
M  V30 16166 O 1529.59 -5.53778 5.8274 0
M  V30 16167 H 1529.32 -0.64339 0.207427 0
M  V30 16168 H 1531.88 -1.6562 1.21487 0
M  V30 16169 H 1530.11 -3.86643 -0.066216 0
M  V30 16170 H 1531.79 -4.04701 0.311732 0
M  V30 16171 H 1532.56 -3.96449 2.79379 0
M  V30 16172 H 1528.44 -4.31631 1.61913 0
M  V30 16173 H 1531.98 -4.83074 5.03275 0
M  V30 16174 H 1527.88 -5.18186 3.84907 0
M  V30 16175 H 1528.65 -5.72086 5.85372 0
M  V30 16176 N 1531.31 -0.665475 -1.42861 0
M  V30 16177 C 1532.54 -0.192 -2.06007 0
M  V30 16178 C 1532.95 1.1472 -1.49949 0
M  V30 16179 O 1532.31 1.71074 -0.635599 0
M  V30 16180 C 1532.36 -0.108189 -3.61338 0
M  V30 16181 O 1532.08 -1.39446 -4.15315 0
M  V30 16182 C 1533.58 0.3899 -4.41582 0
M  V30 16183 H 1530.8 -0.0955812 -0.664158 0
M  V30 16184 H 1533.35 -0.909582 -1.83158 0
M  V30 16185 H 1531.5 0.560024 -3.83331 0
M  V30 16186 H 1531.92 -1.26168 -5.09099 0
M  V30 16187 H 1533.39 0.39747 -5.50567 0
M  V30 16188 H 1533.87 1.42348 -4.15492 0
M  V30 16189 H 1534.47 -0.246248 -4.24587 0
M  V30 16190 N 1532.79 1.52222 -0.408187 0
M  V30 16191 C 1533.72 2.24676 0.453129 0
M  V30 16192 C 1534.73 1.27605 1.01098 0
M  V30 16193 O 1535.92 1.53557 0.910084 0
M  V30 16194 C 1533.02 2.96431 1.64262 0
M  V30 16195 C 1532.2 4.20364 1.20883 0
M  V30 16196 C 1531.26 4.74951 2.26512 0
M  V30 16197 O 1530.28 5.37556 1.87142 0
M  V30 16198 N 1531.48 4.56443 3.58665 0
M  V30 16199 H 1534.25 2.9923 -0.16771 0
M  V30 16200 H 1531.81 1.60178 -0.235517 0
M  V30 16201 H 1533.8 3.29844 2.3449 0
M  V30 16202 H 1532.37 2.25068 2.1694 0
M  V30 16203 H 1531.59 3.92776 0.334712 0
M  V30 16204 H 1532.88 5.0085 0.895939 0
M  V30 16205 H 1532.28 4.06511 3.93402 0
M  V30 16206 H 1530.83 4.94295 4.24871 0
M  V30 16207 N 1534.27 0.138579 1.5699 0
M  V30 16208 C 1535.2 -0.835134 2.13444 0
M  V30 16209 C 1536.21 -1.21657 1.08183 0
M  V30 16210 O 1537.4 -1.16211 1.35489 0
M  V30 16211 C 1534.5 -2.13086 2.63529 0
M  V30 16212 C 1533.67 -1.9181 3.931 0
M  V30 16213 C 1532.73 -3.05293 4.28582 0
M  V30 16214 O 1531.76 -2.77351 4.97056 0
M  V30 16215 N 1532.96 -4.32248 3.87482 0
M  V30 16216 H 1535.73 -0.352693 2.97617 0
M  V30 16217 H 1533.29 -0.0452536 1.61837 0
M  V30 16218 H 1535.28 -2.88036 2.84284 0
M  V30 16219 H 1533.85 -2.52619 1.84127 0
M  V30 16220 H 1533.07 -1.00943 3.81057 0
M  V30 16221 H 1534.36 -1.74923 4.77786 0
M  V30 16222 H 1533.76 -4.5782 3.32292 0
M  V30 16223 H 1532.31 -5.04006 4.13305 0
M  V30 16224 N 1535.75 -1.57019 -0.13521 0
M  V30 16225 C 1536.97 -1.8816 -0.860434 0
M  V30 16226 C 1537.39 -0.728081 -1.74196 0
M  V30 16227 O 1536.75 0.301745 -1.79988 0
M  V30 16228 C 1536.8 -3.1864 -1.70737 0
M  V30 16229 O 1536.52 -4.29549 -0.861347 0
M  V30 16230 C 1538.02 -3.63376 -2.53915 0
M  V30 16231 H 1535.24 -0.623408 -0.248201 0
M  V30 16232 H 1537.78 -2.04121 -0.124461 0
M  V30 16233 H 1535.94 -3.04397 -2.39627 0
M  V30 16234 H 1536.35 -5.04233 -1.44393 0
M  V30 16235 H 1537.83 -4.57478 -3.08897 0
M  V30 16236 H 1538.3 -2.89238 -3.30512 0
M  V30 16237 H 1538.91 -3.80352 -1.90296 0
M  V30 16238 N 1537.22 0.404919 -1.52309 0
M  V30 16239 C 1538.64 0.743846 -1.41206 0
M  V30 16240 C 1538.84 1.94678 -0.519874 0
M  V30 16241 O 1537.9 2.52497 0.0127417 0
M  V30 16242 C 1539.21 0.99384 -2.83802 0
M  V30 16243 C 1540.76 1.0963 -2.93173 0
M  V30 16244 C 1541.23 1.37902 -4.36746 0
M  V30 16245 N 1542.72 1.44758 -4.39999 0
M  V30 16246 C 1543.46 1.68269 -5.48154 0
M  V30 16247 N 1542.95 1.89356 -6.6642 0
M  V30 16248 N 1544.75 1.70318 -5.35675 0
M  V30 16249 H 1536.9 -0.386855 -2.08847 0
M  V30 16250 H 1539.16 -0.110811 -0.941501 0
M  V30 16251 H 1538.87 0.182249 -3.51227 0
M  V30 16252 H 1538.74 1.91287 -3.25099 0
M  V30 16253 H 1541.13 1.89847 -2.25925 0
M  V30 16254 H 1541.21 0.155539 -2.55327 0
M  V30 16255 H 1540.85 0.582004 -5.04554 0
M  V30 16256 H 1540.78 2.33237 -4.72132 0
M  V30 16257 H 1543.27 1.30235 -3.5475 0
M  V30 16258 H 1543.59 2.06758 -7.44628 0
M  V30 16259 H 1541.93 1.86612 -6.69478 0
M  V30 16260 H 1545.12 1.53385 -4.42256 0
M  V30 16261 H 1545.3 1.88302 -6.20037 0
M  V30 16262 N 1538.7 1.43003 0.662408 0
M  V30 16263 C 1539.95 1.43848 1.41958 0
M  V30 16264 C 1540.27 0.06046 1.94906 0
M  V30 16265 O 1539.54 -0.90287 1.73854 0
M  V30 16266 H 1538.12 0.529587 0.526827 0
M  V30 16267 H 1540.78 1.7853 0.781867 0
M  V30 16268 H 1539.88 2.14562 2.26649 0
M  V30 16269 N 1540.18 -0.899904 1.29381 0
M  V30 16270 C 1541.11 -2.02045 1.17047 0
M  V30 16271 C 1542.09 -1.69977 0.0647354 0
M  V30 16272 O 1543.28 -1.92659 0.244173 0
M  V30 16273 C 1540.41 -3.36839 0.845991 0
M  V30 16274 C 1539.36 -3.83117 1.90802 0
M  V30 16275 C 1538.69 -5.15032 1.43686 0
M  V30 16276 C 1539.99 -4.03464 3.31684 0
M  V30 16277 H 1541.68 -2.12623 2.10789 0
M  V30 16278 H 1539.23 -1.02162 1.01484 0
M  V30 16279 H 1541.18 -4.14737 0.746413 0
M  V30 16280 H 1539.9 -3.26352 -0.127125 0
M  V30 16281 H 1538.56 -3.07435 1.99698 0
M  V30 16282 H 1538.21 -5.00961 0.452422 0
M  V30 16283 H 1537.91 -5.46967 2.14711 0
M  V30 16284 H 1539.43 -5.95472 1.35078 0
M  V30 16285 H 1540.85 -4.71845 3.25631 0
M  V30 16286 H 1539.25 -4.46752 4.00665 0
M  V30 16287 H 1540.32 -3.07807 3.74677 0
M  V30 16288 N 1541.66 -1.11854 -1.11024 0
M  V30 16289 C 1542.59 -0.803129 -2.19253 0
M  V30 16290 C 1543.57 0.230417 -1.68532 0
M  V30 16291 O 1544.75 0.0929421 -1.93977 0
M  V30 16292 C 1541.88 -0.250265 -3.46397 0
M  V30 16293 C 1540.84 -1.21617 -4.10357 0
M  V30 16294 C 1540.16 -0.523821 -5.32128 0
M  V30 16295 C 1541.46 -2.56852 -4.54779 0
M  V30 16296 H 1543.16 -1.7081 -2.45895 0
M  V30 16297 H 1540.7 -0.822712 -1.18184 0
M  V30 16298 H 1542.66 -0.0173732 -4.21396 0
M  V30 16299 H 1541.38 0.690018 -3.19228 0
M  V30 16300 H 1540.04 -1.43477 -3.37357 0
M  V30 16301 H 1539.69 0.421408 -5.01232 0
M  V30 16302 H 1539.39 -1.16809 -5.75873 0
M  V30 16303 H 1540.91 -0.299823 -6.09863 0
M  V30 16304 H 1542.33 -2.39056 -5.21081 0
M  V30 16305 H 1540.72 -3.17301 -5.09353 0
M  V30 16306 H 1541.79 -3.15751 -3.68007 0
M  V30 16307 N 1543.14 1.28707 -0.909517 0
M  V30 16308 C 1544.38 1.94768 -0.539413 0
M  V30 16309 C 1544.71 1.7198 0.919133 0
M  V30 16310 O 1543.98 1.0571 1.64931 0
M  V30 16311 H 1542.56 0.720693 -0.196496 0
M  V30 16312 H 1545.22 1.56772 -1.15795 0
M  V30 16313 H 1544.31 3.03436 -0.730281 0
M  V30 16314 N 1544.61 0.673042 1.42506 0
M  V30 16315 C 1545.58 0.00283156 2.292 0
M  V30 16316 C 1546.58 -0.73077 1.43235 0
M  V30 16317 O 1547.77 -0.569037 1.64644 0
M  V30 16318 C 1544.9 -1.00666 3.25698 0
M  V30 16319 H 1546.09 0.765869 2.89956 0
M  V30 16320 H 1543.65 0.435301 1.50116 0
M  V30 16321 H 1544.38 -1.79825 2.69877 0
M  V30 16322 H 1544.17 -0.484043 3.89101 0
M  V30 16323 H 1545.66 -1.47409 3.90718 0
M  V30 16324 N 1546.09 -1.52004 0.416254 0
M  V30 16325 C 1547.34 -2.01076 -0.158591 0
M  V30 16326 C 1547.65 -1.30598 -1.45614 0
M  V30 16327 O 1548.86 -1.70525 -2.11267 0
M  V30 16328 C 1547.32 -3.58354 -0.333179 0
M  V30 16329 C 1546.92 -4.37753 0.952696 0
M  V30 16330 C 1548.67 -4.15637 -0.86293 0
M  V30 16331 C 1546.58 -5.8669 0.744905 0
M  V30 16332 H 1545.51 -0.75136 -0.0630423 0
M  V30 16333 H 1548.16 -1.75288 0.542791 0
M  V30 16334 H 1546.54 -3.805 -1.09706 0
M  V30 16335 H 1547.71 -4.27364 1.72328 0
M  V30 16336 H 1546.03 -3.91823 1.40939 0
M  V30 16337 H 1548.62 -5.24596 -1.03454 0
M  V30 16338 H 1548.97 -3.73449 -1.8396 0
M  V30 16339 H 1549.5 -3.97486 -0.157918 0
M  V30 16340 H 1546.24 -6.3325 1.69334 0
M  V30 16341 H 1545.76 -5.99798 0.0137458 0
M  V30 16342 H 1547.44 -6.45824 0.389851 0
M  V30 16343 N 1547.57 -0.146903 -1.56914 0
M  V30 16344 C 1548.82 0.504981 -1.96412 0
M  V30 16345 C 1549.15 1.64522 -1.0318 0
M  V30 16346 O 1548.42 1.94359 -0.0741728 0
M  V30 16347 C 1548.71 1.01125 -3.45609 0
M  V30 16348 C 1548.56 -0.127493 -4.49619 0
M  V30 16349 C 1549.88 1.89306 -3.97305 0
M  V30 16350 H 1547 0.182088 -0.714152 0
M  V30 16351 H 1549.64 -0.22811 -1.88626 0
M  V30 16352 H 1547.79 1.63595 -3.52376 0
M  V30 16353 H 1549.46 -0.763829 -4.54932 0
M  V30 16354 H 1547.71 -0.786649 -4.26608 0
M  V30 16355 H 1548.38 0.268453 -5.51347 0
M  V30 16356 H 1550.85 1.36664 -3.93017 0
M  V30 16357 H 1549.73 2.21638 -5.02163 0
M  V30 16358 H 1549.99 2.82996 -3.39655 0
M  V30 16359 N 1549.05 1.57088 0.126881 0
M  V30 16360 C 1550.29 1.84709 0.837287 0
M  V30 16361 C 1550.63 0.731496 1.79897 0
M  V30 16362 O 1549.9 -0.263319 1.92709 0
M  V30 16363 C 1550.19 3.22893 1.59412 0
M  V30 16364 C 1550.04 4.45041 0.652578 0
M  V30 16365 C 1551.36 3.58547 2.5521 0
M  V30 16366 H 1548.48 0.671862 0.302937 0
M  V30 16367 H 1551.12 1.89727 0.101783 0
M  V30 16368 H 1549.27 3.18746 2.22112 0
M  V30 16369 H 1550.94 4.61287 0.0350382 0
M  V30 16370 H 1549.18 4.33785 -0.0364578 0
M  V30 16371 H 1549.85 5.38381 1.21861 0
M  V30 16372 H 1552.33 3.63434 2.0262 0
M  V30 16373 H 1551.21 4.56227 3.05202 0
M  V30 16374 H 1551.47 2.85552 3.37509 0
M  V30 16375 N 1550.53 -0.396836 1.52522 0
M  V30 16376 C 1551.75 -1.16857 1.71345 0
M  V30 16377 C 1552.18 -1.83178 0.427465 0
M  V30 16378 O 1551.53 -1.7051 -0.616123 0
M  V30 16379 C 1551.58 -2.19817 2.85855 0
M  V30 16380 O 1550.69 -3.26233 2.52281 0
M  V30 16381 H 1550.03 -0.340554 0.570017 0
M  V30 16382 H 1552.56 -0.463532 1.9928 0
M  V30 16383 H 1552.57 -2.63944 3.11123 0
M  V30 16384 H 1551.24 -1.70931 3.79151 0
M  V30 16385 H 1549.82 -2.87299 2.37726 0
M  V30 16386 N 1552.01 -1.43353 -0.654814 0
M  V30 16387 C 1552.94 -1.51194 -1.7794 0
M  V30 16388 C 1553.92 -0.366747 -1.66099 0
M  V30 16389 O 1555.1 -0.58375 -1.85219 0
M  V30 16390 C 1552.23 -1.43298 -3.16359 0
M  V30 16391 C 1551.19 -2.5605 -3.42961 0
M  V30 16392 C 1550.51 -2.33208 -4.81163 0
M  V30 16393 C 1551.81 -3.98303 -3.37864 0
M  V30 16394 H 1553.51 -2.4532 -1.71635 0
M  V30 16395 H 1551.05 -1.18072 -0.824319 0
M  V30 16396 H 1553 -1.47388 -3.94784 0
M  V30 16397 H 1551.73 -0.456761 -3.2339 0
M  V30 16398 H 1550.39 -2.5131 -2.66906 0
M  V30 16399 H 1550.04 -1.33833 -4.84869 0
M  V30 16400 H 1549.74 -3.08789 -4.99923 0
M  V30 16401 H 1551.26 -2.39079 -5.61848 0
M  V30 16402 H 1552.67 -4.04538 -4.06229 0
M  V30 16403 H 1551.07 -4.73897 -3.6816 0
M  V30 16404 H 1552.14 -4.23552 -2.36075 0
M  V30 16405 N 1553.48 0.89303 -1.29857 0
M  V30 16406 C 1554.71 1.67744 -1.21119 0
M  V30 16407 C 1555.13 1.87428 0.227198 0
M  V30 16408 O 1554.48 1.41605 1.15128 0
M  V30 16409 C 1554.53 3.05827 -1.92749 0
M  V30 16410 O 1554.26 2.87036 -3.30971 0
M  V30 16411 C 1555.76 4.00248 -1.9057 0
M  V30 16412 H 1552.98 0.523699 -0.4195 0
M  V30 16413 H 1555.52 1.1163 -1.71344 0
M  V30 16414 H 1553.68 3.58696 -1.46342 0
M  V30 16415 H 1554.09 3.74578 -3.6714 0
M  V30 16416 H 1555.56 4.9453 -2.45242 0
M  V30 16417 H 1556.04 4.30237 -0.882753 0
M  V30 16418 H 1556.65 3.53312 -2.36751 0
M  V30 16419 N 1554.96 1.12442 1.10429 0
M  V30 16420 C 1556.21 0.878021 1.82031 0
M  V30 16421 C 1556.53 -0.597787 1.85611 0
M  V30 16422 O 1555.8 -1.43442 1.33422 0
M  V30 16423 H 1554.38 0.321839 0.674113 0
M  V30 16424 H 1557.04 1.41891 1.33615 0
M  V30 16425 H 1556.14 1.25957 2.85554 0
M  V30 16426 N 1556.44 -1.28223 0.91633 0
M  V30 16427 C 1557.86 -1.47281 0.614864 0
M  V30 16428 C 1558.06 -1.83197 -0.839111 0
M  V30 16429 O 1557.11 -1.9385 -1.61798 0
M  V30 16430 C 1558.42 -2.57373 1.55498 0
M  V30 16431 C 1559.97 -2.71241 1.56197 0
M  V30 16432 C 1560.45 -3.84479 2.48877 0
M  V30 16433 N 1561.94 -3.91837 2.47019 0
M  V30 16434 C 1562.67 -4.78846 3.15427 0
M  V30 16435 N 1562.17 -5.70427 3.93173 0
M  V30 16436 N 1563.96 -4.72478 3.04501 0
M  V30 16437 H 1556.11 -1.03191 1.85649 0
M  V30 16438 H 1558.38 -0.514213 0.796422 0
M  V30 16439 H 1558.08 -2.37747 2.5917 0
M  V30 16440 H 1557.96 -3.54527 1.28803 0
M  V30 16441 H 1560.34 -2.90254 0.532619 0
M  V30 16442 H 1560.42 -1.74609 1.86937 0
M  V30 16443 H 1560.07 -3.6622 3.51916 0
M  V30 16444 H 1560 -4.80514 2.15439 0
M  V30 16445 H 1562.49 -3.26344 1.90546 0
M  V30 16446 H 1562.8 -6.33653 4.42384 0
M  V30 16447 H 1561.15 -5.70259 3.97278 0
M  V30 16448 H 1564.34 -3.99925 2.43265 0
M  V30 16449 H 1564.51 -5.40073 3.58086 0
M  V30 16450 N 1557.92 -0.68059 -1.42147 0
M  V30 16451 C 1559.19 -0.133957 -1.95141 0
M  V30 16452 C 1559.57 1.3526 -1.62074 0
M  V30 16453 O 1558.92 2.09165 -0.919898 0
M  V30 16454 C 1559.13 -0.409266 -3.46592 0
M  V30 16455 C 1560.48 -0.328899 -4.23324 0
M  V30 16456 O 1561.5 -0.343337 -3.54541 0
M  V30 16457 O 1560.36 -0.276076 -5.45802 0
M  V30 16458 H 1557.46 -0.00623443 -0.826977 0
M  V30 16459 H 1560 -0.755719 -1.51944 0
M  V30 16460 H 1558.78 -1.43883 -3.63887 0
M  V30 16461 H 1558.4 0.244216 -3.96849 0
M  V30 16462 N 1559.4 1.51781 -0.424309 0
M  V30 16463 C 1560.34 2.27418 0.393668 0
M  V30 16464 C 1561.31 1.3046 1.02808 0
M  V30 16465 O 1562.5 1.59345 1.04946 0
M  V30 16466 C 1559.64 3.10983 1.49611 0
M  V30 16467 C 1558.75 4.22919 0.881123 0
M  V30 16468 C 1557.89 4.93816 1.95752 0
M  V30 16469 C 1556.92 5.97691 1.32028 0
M  V30 16470 N 1556.06 6.62047 2.33747 0
M  V30 16471 H 1560.9 2.96883 -0.257731 0
M  V30 16472 H 1558.44 1.46442 -0.138942 0
M  V30 16473 H 1560.4 3.57749 2.14642 0
M  V30 16474 H 1559.03 2.43658 2.11732 0
M  V30 16475 H 1558.08 3.80212 0.119445 0
M  V30 16476 H 1559.39 4.97383 0.375764 0
M  V30 16477 H 1558.54 5.44064 2.68476 0
M  V30 16478 H 1557.28 4.18954 2.49658 0
M  V30 16479 H 1556.29 5.46749 0.578444 0
M  V30 16480 H 1557.51 6.74504 0.788722 0
M  V30 16481 H 1555.46 5.90005 2.86757 0
M  V30 16482 H 1555.38 7.32234 1.88066 0
M  V30 16483 H 1556.64 7.16929 3.05995 0
M  V30 16484 N 1560.87 0.155222 1.56834 0
M  V30 16485 C 1561.82 -0.798342 2.1847 0
M  V30 16486 C 1562.82 -1.24931 1.14405 0
M  V30 16487 O 1564.02 -1.21684 1.32639 0
M  V30 16488 H 1560.4 -0.275681 0.699646 0
M  V30 16489 H 1562.37 -0.254371 2.97314 0
M  V30 16490 C 1561.12 -2.02407 2.82713 0
M  V30 16491 H 1560.44 -1.68606 3.62508 0
M  V30 16492 H 1561.88 -2.67053 3.29331 0
M  V30 16493 C 1560.34 -2.83737 1.81645 0
M  V30 16494 O 1560.87 -3.80356 1.29198 0
M  V30 16495 N 1559.07 -2.48433 1.50764 0
M  V30 16496 H 1558.62 -1.69925 1.93606 0
M  V30 16497 H 1558.58 -3.03139 0.833899 0
M  V30 16498 N 1562.35 -1.57153 -0.118549 0
M  V30 16499 C 1563.26 -2.03673 -1.16424 0
M  V30 16500 C 1564.28 -0.957203 -1.45305 0
M  V30 16501 O 1565.45 -1.26874 -1.56413 0
M  V30 16502 C 1562.52 -2.43211 -2.47082 0
M  V30 16503 C 1561.58 -3.65248 -2.25593 0
M  V30 16504 C 1560.81 -4.02891 -3.50021 0
M  V30 16505 O 1561.04 -3.40871 -4.57344 0
M  V30 16506 O 1559.97 -4.95989 -3.40996 0
M  V30 16507 H 1563.8 -2.92996 -0.799206 0
M  V30 16508 H 1561.38 -1.45724 -0.329376 0
M  V30 16509 H 1563.26 -2.69374 -3.24061 0
M  V30 16510 H 1561.94 -1.57034 -2.83058 0
M  V30 16511 H 1560.84 -3.44234 -1.46471 0
M  V30 16512 H 1562.18 -4.52131 -1.94521 0
M  V30 16513 N 1563.83 0.388742 -1.5273 0
M  V30 16514 C 1564.76 1.49441 -1.73781 0
M  V30 16515 C 1565.77 1.50602 -0.618285 0
M  V30 16516 O 1566.96 1.545 -0.893986 0
M  V30 16517 C 1564.06 2.88288 -1.78166 0
M  V30 16518 C 1563.24 3.11089 -3.07478 0
M  V30 16519 C 1562.3 4.2992 -3.03407 0
M  V30 16520 O 1561.32 4.26212 -3.77269 0
M  V30 16521 N 1562.52 5.36121 -2.2261 0
M  V30 16522 H 1565.29 1.3177 -2.69178 0
M  V30 16523 H 1562.85 0.578258 -1.51221 0
M  V30 16524 H 1564.84 3.65884 -1.72949 0
M  V30 16525 H 1563.41 2.99317 -0.901553 0
M  V30 16526 H 1562.63 2.21356 -3.26183 0
M  V30 16527 H 1563.92 3.23177 -3.92981 0
M  V30 16528 H 1563.32 5.41988 -1.62067 0
M  V30 16529 H 1561.87 6.12381 -2.23232 0
M  V30 16530 N 1565.31 1.43698 0.647203 0
M  V30 16531 C 1566.27 1.48986 1.74172 0
M  V30 16532 C 1567.27 0.373812 1.56395 0
M  V30 16533 O 1568.46 0.635804 1.62183 0
M  V30 16534 C 1565.59 1.34827 3.13104 0
M  V30 16535 H 1566.79 2.46467 1.70863 0
M  V30 16536 H 1564.34 1.30552 0.859409 0
M  V30 16537 H 1565.07 0.383772 3.22021 0
M  V30 16538 H 1564.86 2.15738 3.27414 0
M  V30 16539 H 1566.35 1.41473 3.92906 0
M  V30 16540 N 1566.79 -0.886131 1.30328 0
M  V30 16541 C 1568.03 -1.6346 1.18849 0
M  V30 16542 C 1568.36 -1.93295 -0.257285 0
M  V30 16543 O 1567.63 -1.56858 -1.17356 0
M  V30 16544 H 1566.21 -0.605932 0.43687 0
M  V30 16545 H 1568.87 -1.06177 1.63439 0
M  V30 16546 H 1567.96 -2.58522 1.7485 0
M  V30 16547 N 1568.26 -1.13026 -1.09832 0
M  V30 16548 C 1569.2 -0.761606 -2.16176 0
M  V30 16549 C 1570.21 0.214709 -1.61378 0
M  V30 16550 O 1571.4 -0.00487178 -1.78499 0
M  V30 16551 C 1568.5 -0.107513 -3.38729 0
M  V30 16552 C 1567.67 -1.11487 -4.22953 0
M  V30 16553 C 1566.73 -0.487243 -5.23939 0
M  V30 16554 O 1565.76 -1.14605 -5.57543 0
M  V30 16555 N 1566.96 0.742571 -5.75731 0
M  V30 16556 H 1569.72 -1.67669 -2.48409 0
M  V30 16557 H 1567.28 -1.0227 -1.25509 0
M  V30 16558 H 1569.28 0.324507 -4.03397 0
M  V30 16559 H 1567.85 0.710438 -3.0442 0
M  V30 16560 H 1567.07 -1.72432 -3.54487 0
M  V30 16561 H 1568.35 -1.79584 -4.76053 0
M  V30 16562 H 1567.75 1.29667 -5.50639 0
M  V30 16563 H 1566.31 1.11731 -6.42152 0
M  V30 16564 N 1569.74 1.27735 -0.923117 0
M  V30 16565 C 1570.99 1.94858 -0.56198 0
M  V30 16566 C 1571.32 1.72414 0.893698 0
M  V30 16567 O 1570.6 1.05054 1.63689 0
M  V30 16568 C 1570.88 3.49102 -0.883173 0
M  V30 16569 C 1570.73 3.80908 -2.39227 0
M  V30 16570 C 1572.05 4.38405 -0.385848 0
M  V30 16571 H 1569.17 0.707728 -0.205646 0
M  V30 16572 H 1571.81 1.50935 -1.15406 0
M  V30 16573 H 1569.96 3.86644 -0.379292 0
M  V30 16574 H 1571.63 3.53182 -2.96749 0
M  V30 16575 H 1569.88 3.2762 -2.84337 0
M  V30 16576 H 1570.55 4.88653 -2.56754 0
M  V30 16577 H 1573.02 4.07988 -0.817631 0
M  V30 16578 H 1571.9 5.45161 -0.63958 0
M  V30 16579 H 1572.16 4.36296 0.714009 0
M  V30 16580 N 1571.22 0.688118 1.41784 0
M  V30 16581 C 1572.15 -0.02099 2.2919 0
M  V30 16582 C 1573.17 -0.752005 1.44391 0
M  V30 16583 O 1574.35 -0.603947 1.67972 0
M  V30 16584 C 1571.45 -1.0537 3.22103 0
M  V30 16585 C 1570.63 -0.393817 4.35624 0
M  V30 16586 C 1569.69 -1.32812 5.09163 0
M  V30 16587 O 1568.71 -0.823341 5.63214 0
M  V30 16588 N 1569.91 -2.66083 5.15927 0
M  V30 16589 H 1572.68 0.729389 2.90689 0
M  V30 16590 H 1570.24 0.533564 1.52855 0
M  V30 16591 H 1572.23 -1.6803 3.68169 0
M  V30 16592 H 1570.8 -1.70568 2.61964 0
M  V30 16593 H 1570.02 0.41253 3.92035 0
M  V30 16594 H 1571.31 0.065338 5.08758 0
M  V30 16595 H 1570.71 -3.09619 4.73448 0
M  V30 16596 H 1569.27 -3.23956 5.65593 0
M  V30 16597 N 1572.7 -1.51554 0.432352 0
M  V30 16598 C 1573.94 -2.02344 -0.13598 0
M  V30 16599 C 1574.28 -1.31619 -1.42794 0
M  V30 16600 O 1573.55 -0.42957 -1.89697 0
M  V30 16601 C 1573.84 -3.58297 -0.359865 0
M  V30 16602 C 1573.69 -4.39645 0.950399 0
M  V30 16603 C 1575.01 -4.25297 -1.13184 0
M  V30 16604 H 1572.13 -0.735439 -0.0479461 0
M  V30 16605 H 1574.77 -1.81237 0.570373 0
M  V30 16606 H 1572.92 -3.76413 -0.961547 0
M  V30 16607 H 1574.59 -4.3319 1.58568 0
M  V30 16608 H 1572.83 -4.04928 1.55614 0
M  V30 16609 H 1573.5 -5.46911 0.747852 0
M  V30 16610 H 1575.98 -4.11421 -0.622231 0
M  V30 16611 H 1574.86 -5.34307 -1.25726 0
M  V30 16612 H 1575.12 -3.85818 -2.15862 0
M  V30 16613 N 1574.18 -0.163538 -1.56749 0
M  V30 16614 C 1575.11 0.765571 -2.20593 0
M  V30 16615 C 1576.09 1.24489 -1.15916 0
M  V30 16616 O 1577.27 1.29946 -1.44318 0
M  V30 16617 C 1574.4 1.99823 -2.84057 0
M  V30 16618 C 1573.36 1.65506 -3.94705 0
M  V30 16619 C 1572.68 2.96172 -4.45181 0
M  V30 16620 C 1573.98 0.88902 -5.14678 0
M  V30 16621 H 1575.68 0.233431 -2.98489 0
M  V30 16622 H 1573.22 0.110836 -1.43573 0
M  V30 16623 H 1575.18 2.65316 -3.27392 0
M  V30 16624 H 1573.9 2.55437 -2.03517 0
M  V30 16625 H 1572.56 1.02384 -3.52013 0
M  V30 16626 H 1572.21 3.49811 -3.61443 0
M  V30 16627 H 1571.91 2.73968 -5.19823 0
M  V30 16628 H 1573.43 3.62708 -4.91198 0
M  V30 16629 H 1574.84 1.44637 -5.54755 0
M  V30 16630 H 1573.24 0.766302 -5.95187 0
M  V30 16631 H 1574.31 -0.116145 -4.84761 0
M  V30 16632 N 1575.65 1.57214 0.110213 0
M  V30 16633 C 1576.88 1.8988 0.834297 0
M  V30 16634 C 1577.3 0.756347 1.72224 0
M  V30 16635 O 1576.66 -0.292768 1.78921 0
M  V30 16636 C 1576.71 3.21338 1.63629 0
M  V30 16637 O 1575.81 3.07862 2.74399 0
M  V30 16638 H 1575.16 0.62283 0.23017 0
M  V30 16639 H 1577.69 2.04402 0.0899726 0
M  V30 16640 H 1577.7 3.54275 2.02369 0
M  V30 16641 H 1576.37 4.04079 0.984521 0
M  V30 16642 H 1574.95 2.8641 2.38797 0
M  V30 16643 N 1577.13 -0.380637 1.52934 0
M  V30 16644 C 1578.36 -1.15033 1.72575 0
M  V30 16645 C 1578.78 -1.82715 0.446869 0
M  V30 16646 O 1578.14 -1.71154 -0.598004 0
M  V30 16647 C 1578.19 -2.16773 2.8817 0
M  V30 16648 O 1577.29 -3.23539 2.55727 0
M  V30 16649 H 1576.63 -0.334489 0.573597 0
M  V30 16650 H 1579.16 -0.442369 1.9976 0
M  V30 16651 H 1579.17 -2.60629 3.13905 0
M  V30 16652 H 1577.85 -1.669 3.80943 0
M  V30 16653 H 1576.43 -2.84761 2.4076 0
M  V30 16654 N 1578.61 -1.44039 -0.639573 0
M  V30 16655 C 1579.86 -1.46594 -1.40136 0
M  V30 16656 C 1580.19 -0.0949646 -1.93968 0
M  V30 16657 O 1579.46 0.886201 -1.73138 0
M  V30 16658 C 1579.75 -2.51947 -2.57283 0
M  V30 16659 C 1579.6 -3.98371 -2.08855 0
M  V30 16660 C 1580.92 -2.53891 -3.59482 0
M  V30 16661 H 1578.04 -0.533759 -0.508203 0
M  V30 16662 H 1580.68 -1.75669 -0.723898 0
M  V30 16663 H 1578.83 -2.27285 -3.15077 0
M  V30 16664 H 1580.5 -4.34137 -1.55956 0
M  V30 16665 H 1578.75 -4.10551 -1.40109 0
M  V30 16666 H 1579.42 -4.67721 -2.93157 0
M  V30 16667 H 1581.89 -2.75906 -3.11473 0
M  V30 16668 H 1580.77 -3.29524 -4.38982 0
M  V30 16669 H 1581.03 -1.57774 -4.12989 0
M  V30 16670 N 1580.09 0.879207 -1.30796 0
M  V30 16671 C 1581.32 1.66449 -1.22891 0
M  V30 16672 C 1581.73 1.87658 0.207306 0
M  V30 16673 O 1581.09 1.42818 1.13619 0
M  V30 16674 C 1581.14 3.03765 -1.95982 0
M  V30 16675 O 1580.86 2.8351 -3.33997 0
M  V30 16676 C 1582.36 3.98204 -1.94804 0
M  V30 16677 H 1579.58 0.51922 -0.425031 0
M  V30 16678 H 1582.13 1.09807 -1.72519 0
M  V30 16679 H 1580.28 3.57124 -1.50138 0
M  V30 16680 H 1580.69 3.70663 -3.71092 0
M  V30 16681 H 1582.17 4.91901 -2.50474 0
M  V30 16682 H 1582.65 4.29277 -0.928336 0
M  V30 16683 H 1583.25 3.50781 -2.40485 0
M  V30 16684 N 1581.57 1.13606 1.09231 0
M  V30 16685 C 1582.5 0.77306 2.15769 0
M  V30 16686 C 1583.51 -0.206148 1.6149 0
M  V30 16687 O 1584.7 0.014338 1.78494 0
M  V30 16688 C 1581.8 0.125475 3.38668 0
M  V30 16689 C 1580.97 1.13728 4.22356 0
M  V30 16690 C 1580.03 0.515021 5.23674 0
M  V30 16691 O 1579.06 1.1756 5.56928 0
M  V30 16692 N 1580.26 -0.712028 5.76117 0
M  V30 16693 H 1583.03 1.68984 2.47517 0
M  V30 16694 H 1580.59 1.02935 1.24964 0
M  V30 16695 H 1582.58 -0.303109 4.03563 0
M  V30 16696 H 1581.15 -0.694284 3.04792 0
M  V30 16697 H 1580.37 1.74309 3.53568 0
M  V30 16698 H 1581.66 1.82106 4.75094 0
M  V30 16699 H 1581.06 -1.26745 5.51319 0
M  V30 16700 H 1579.61 -1.08324 6.42736 0
M  V30 16701 N 1583.05 -1.27244 0.929878 0
M  V30 16702 C 1584.27 -1.98373 0.587845 0
M  V30 16703 C 1584.69 -1.69349 -0.834638 0
M  V30 16704 O 1584.05 -0.955281 -1.55501 0
M  V30 16705 C 1584.1 -3.52381 0.806843 0
M  V30 16706 O 1583.82 -3.8039 2.17337 0
M  V30 16707 C 1585.32 -4.40761 0.473818 0
M  V30 16708 H 1582.54 -0.633015 0.22256 0
M  V30 16709 H 1585.08 -1.62043 1.2475 0
M  V30 16710 H 1583.24 -3.86914 0.193963 0
M  V30 16711 H 1583.65 -4.74968 2.22498 0
M  V30 16712 H 1585.13 -5.47824 0.677736 0
M  V30 16713 H 1585.6 -4.35209 -0.590734 0
M  V30 16714 H 1586.21 -4.11751 1.06493 0
M  V30 16715 N 1584.52 -0.695628 -1.41417 0
M  V30 16716 C 1585.77 -0.226618 -2.01228 0
M  V30 16717 C 1586.1 1.17376 -1.5509 0
M  V30 16718 O 1585.35 1.80635 -0.752964 0
M  V30 16719 C 1585.65 -0.232664 -3.56642 0
M  V30 16720 C 1585.32 -1.58057 -4.2229 0
M  V30 16721 C 1583.98 -1.94959 -4.39937 0
M  V30 16722 C 1586.33 -2.46735 -4.59098 0
M  V30 16723 C 1583.66 -3.20123 -4.91669 0
M  V30 16724 C 1586.01 -3.71232 -5.1222 0
M  V30 16725 C 1584.68 -4.08277 -5.28078 0
M  V30 16726 H 1583.95 -0.0829255 -0.736345 0
M  V30 16727 H 1586.59 -0.894729 -1.69313 0
M  V30 16728 H 1584.9 0.518995 -3.88347 0
M  V30 16729 H 1586.6 0.147754 -4.00728 0
M  V30 16730 H 1583.19 -1.28356 -4.08929 0
M  V30 16731 H 1587.37 -2.19506 -4.45119 0
M  V30 16732 H 1582.63 -3.48819 -5.02131 0
M  V30 16733 H 1586.8 -4.40132 -5.39682 0
M  V30 16734 H 1584.43 -5.05335 -5.67927 0
M  V30 16735 N 1586 1.51322 -0.440383 0
M  V30 16736 C 1586.93 2.30708 0.360013 0
M  V30 16737 C 1587.91 1.36254 1.01828 0
M  V30 16738 O 1589.1 1.65174 1.02134 0
M  V30 16739 C 1586.23 3.15132 1.45977 0
M  V30 16740 C 1585.18 4.17889 0.924825 0
M  V30 16741 C 1584.51 4.90853 2.12056 0
M  V30 16742 C 1585.81 5.22282 -0.0428362 0
M  V30 16743 H 1587.5 2.97868 -0.30248 0
M  V30 16744 H 1585.05 1.43249 -0.146914 0
M  V30 16745 H 1587 3.69449 2.02695 0
M  V30 16746 H 1585.72 2.45798 2.1506 0
M  V30 16747 H 1584.38 3.64627 0.379842 0
M  V30 16748 H 1584.03 4.1802 2.79765 0
M  V30 16749 H 1583.73 5.60339 1.769 0
M  V30 16750 H 1585.26 5.47995 2.69322 0
M  V30 16751 H 1586.67 5.71654 0.434137 0
M  V30 16752 H 1585.07 5.99314 -0.307126 0
M  V30 16753 H 1586.14 4.74923 -0.978557 0
M  V30 16754 N 1587.48 0.171848 1.5666 0
M  V30 16755 C 1588.73 -0.472034 1.9651 0
M  V30 16756 C 1589.05 -1.63743 1.05893 0
M  V30 16757 O 1588.32 -1.95498 0.125396 0
M  V30 16758 H 1586.9 -0.177377 0.725635 0
M  V30 16759 H 1589.56 0.253155 1.93249 0
M  V30 16760 H 1588.66 -0.831693 3.00814 0
M  V30 16761 N 1588.96 -1.5727 -0.101874 0
M  V30 16762 C 1590.19 -1.89943 -0.820329 0
M  V30 16763 C 1590.6 -0.764867 -1.72613 0
M  V30 16764 O 1589.96 0.263499 -1.80588 0
M  V30 16765 C 1590.01 -3.2219 -1.63939 0
M  V30 16766 O 1589.73 -4.31279 -0.770039 0
M  V30 16767 C 1591.23 -3.6868 -2.46151 0
M  V30 16768 H 1588.45 -0.628532 -0.234922 0
M  V30 16769 H 1590.99 -2.04339 -0.0811362 0
M  V30 16770 H 1589.15 -3.09411 -2.33117 0
M  V30 16771 H 1589.56 -5.07182 -1.33665 0
M  V30 16772 H 1591.04 -4.63928 -2.99124 0
M  V30 16773 H 1591.51 -2.96183 -3.24303 0
M  V30 16774 H 1592.12 -3.84303 -1.82185 0
M  V30 16775 N 1590.44 0.372521 -1.53134 0
M  V30 16776 C 1591.66 1.14116 -1.73183 0
M  V30 16777 C 1592.09 1.82475 -0.456553 0
M  V30 16778 O 1591.44 1.71468 0.588919 0
M  V30 16779 C 1591.49 2.15241 -2.89316 0
M  V30 16780 O 1590.6 3.22178 -2.57439 0
M  V30 16781 H 1589.94 0.331442 -0.575362 0
M  V30 16782 H 1592.47 0.431769 -1.99992 0
M  V30 16783 H 1592.48 2.58961 -3.15283 0
M  V30 16784 H 1591.15 1.64877 -3.81822 0
M  V30 16785 H 1589.73 2.83481 -2.42267 0
M  V30 16786 N 1591.91 1.44376 0.631925 0
M  V30 16787 C 1593.16 1.46398 1.38747 0
M  V30 16788 C 1593.48 0.100149 1.95343 0
M  V30 16789 O 1594.68 -0.00210908 2.715 0
M  V30 16790 C 1593.14 2.57731 2.51203 0
M  V30 16791 C 1592.75 4.00317 2.01123 0
M  V30 16792 C 1594.49 2.68972 3.28412 0
M  V30 16793 C 1592.4 5.03075 3.10917 0
M  V30 16794 H 1591.33 0.544667 0.521396 0
M  V30 16795 H 1593.98 1.70439 0.679912 0
M  V30 16796 H 1592.36 2.26928 3.2453 0
M  V30 16797 H 1593.53 4.40683 1.34666 0
M  V30 16798 H 1591.85 3.93311 1.36732 0
M  V30 16799 H 1594.45 3.42916 4.10259 0
M  V30 16800 H 1594.79 1.74762 3.77841 0
M  V30 16801 H 1595.32 2.9918 2.62176 0
M  V30 16802 H 1592.06 5.98911 2.66433 0
M  V30 16803 H 1591.58 4.67302 3.76017 0
M  V30 16804 H 1593.26 5.2674 3.75705 0
M  V30 16805 N 1593.39 -0.872258 1.31261 0
M  V30 16806 C 1594.62 -1.6632 1.23905 0
M  V30 16807 C 1595.04 -1.87109 -0.192878 0
M  V30 16808 O 1594.4 -1.4112 -1.1382 0
M  V30 16809 C 1594.45 -3.00979 1.98606 0
M  V30 16810 O 1593.55 -3.90642 1.32183 0
M  V30 16811 H 1592.89 -0.507736 0.427902 0
M  V30 16812 H 1595.42 -1.0877 1.73292 0
M  V30 16813 H 1595.43 -3.50931 2.08113 0
M  V30 16814 H 1594.11 -2.85168 3.02741 0
M  V30 16815 H 1592.68 -3.4909 1.31112 0
M  V30 16816 N 1594.87 -1.14184 -1.08627 0
M  V30 16817 C 1596.12 -0.906869 -1.80611 0
M  V30 16818 C 1596.44 0.568182 -1.86539 0
M  V30 16819 O 1595.71 1.41301 -1.35687 0
M  V30 16820 H 1594.29 -0.332523 -0.668908 0
M  V30 16821 H 1596.95 -1.43998 -1.31341 0
M  V30 16822 H 1596.05 -1.30484 -2.83514 0
M  V30 16823 N 1596.35 1.26749 -0.936613 0
M  V30 16824 C 1597.59 1.94251 -0.582616 0
M  V30 16825 C 1597.93 1.73352 0.875361 0
M  V30 16826 O 1597.2 1.06784 1.62565 0
M  V30 16827 C 1597.49 3.48145 -0.920151 0
M  V30 16828 C 1597.34 3.78349 -2.43253 0
M  V30 16829 C 1598.66 4.37971 -0.432326 0
M  V30 16830 H 1595.78 0.705507 -0.213141 0
M  V30 16831 H 1598.42 1.49703 -1.17001 0
M  V30 16832 H 1596.57 3.8622 -0.420279 0
M  V30 16833 H 1598.24 3.50015 -3.00478 0
M  V30 16834 H 1596.48 3.24586 -2.87795 0
M  V30 16835 H 1597.15 4.85902 -2.61922 0
M  V30 16836 H 1599.63 4.07098 -0.860857 0
M  V30 16837 H 1598.51 5.44452 -0.697366 0
M  V30 16838 H 1598.77 4.37029 0.667694 0
M  V30 16839 N 1597.83 0.703118 1.41046 0
M  V30 16840 C 1598.76 0.0570815 2.3343 0
M  V30 16841 C 1599.74 -0.759042 1.52225 0
M  V30 16842 O 1600.92 -0.710491 1.80736 0
M  V30 16843 C 1598.05 -0.874541 3.36109 0
M  V30 16844 C 1597.01 -0.16496 4.27682 0
M  V30 16845 C 1596.33 -1.21145 5.20795 0
M  V30 16846 C 1597.63 0.97332 5.13151 0
M  V30 16847 H 1599.33 0.828699 2.87703 0
M  V30 16848 H 1596.87 0.399956 1.38334 0
M  V30 16849 H 1598.83 -1.33579 3.99668 0
M  V30 16850 H 1597.55 -1.67791 2.80203 0
M  V30 16851 H 1596.21 0.276332 3.65557 0
M  V30 16852 H 1595.86 -2.00755 4.61201 0
M  V30 16853 H 1595.56 -0.741633 5.82901 0
M  V30 16854 H 1597.08 -1.67305 5.87232 0
M  V30 16855 H 1598.49 0.592013 5.70235 0
M  V30 16856 H 1596.89 1.37071 5.84236 0
M  V30 16857 H 1597.96 1.80961 4.49868 0
M  V30 16858 N 1599.3 -1.51086 0.448402 0
M  V30 16859 C 1600.55 -2.0312 -0.106726 0
M  V30 16860 C 1600.91 -1.3259 -1.39419 0
M  V30 16861 O 1600.2 -0.435501 -1.86585 0
M  V30 16862 C 1600.39 -3.55488 -0.369232 0
M  V30 16863 C 1600.22 -4.4078 0.891233 0
M  V30 16864 C 1598.99 -4.84703 1.42798 0
M  V30 16865 C 1601.19 -4.82498 1.78044 0
M  V30 16866 N 1599.17 -5.54243 2.63984 0
M  V30 16867 C 1600.54 -5.51218 2.83828 0
M  V30 16868 C 1602.6 -4.64474 1.79354 0
M  V30 16869 C 1601.3 -6.03825 3.90881 0
M  V30 16870 C 1603.33 -5.18005 2.8535 0
M  V30 16871 C 1602.69 -5.86681 3.89853 0
M  V30 16872 H 1598.79 -0.782 0.000394759 0
M  V30 16873 H 1601.37 -1.84846 0.611546 0
M  V30 16874 H 1599.54 -3.73754 -1.05654 0
M  V30 16875 H 1601.27 -3.94181 -0.916694 0
M  V30 16876 H 1598.03 -4.63343 0.980339 0
M  V30 16877 H 1598.45 -5.93634 3.25465 0
M  V30 16878 H 1603.1 -4.10832 0.998865 0
M  V30 16879 H 1600.81 -6.56517 4.7118 0
M  V30 16880 H 1604.4 -5.05905 2.87318 0
M  V30 16881 H 1603.28 -6.27358 4.70522 0
M  V30 16882 N 1600.78 -0.180154 -1.56567 0
M  V30 16883 C 1602.01 0.46854 -2.01525 0
M  V30 16884 C 1602.43 1.56211 -1.06036 0
M  V30 16885 O 1601.78 1.82392 -0.06269 0
M  V30 16886 C 1601.83 1.0387 -3.46256 0
M  V30 16887 O 1601.55 -0.0112203 -4.38099 0
M  V30 16888 C 1603.06 1.76475 -4.06659 0
M  V30 16889 H 1600.28 0.119098 -0.660346 0
M  V30 16890 H 1602.82 -0.284477 -2.02512 0
M  V30 16891 H 1600.97 1.74217 -3.46016 0
M  V30 16892 H 1601.39 0.41099 -5.22887 0
M  V30 16893 H 1602.86 2.11618 -5.09825 0
M  V30 16894 H 1603.34 2.66301 -3.49257 0
M  V30 16895 H 1603.95 1.10749 -4.10627 0
M  V30 16896 N 1602.26 1.57322 0.0935319 0
M  V30 16897 C 1603.51 1.86443 0.797919 0
M  V30 16898 C 1603.84 0.769491 1.78304 0
M  V30 16899 O 1603.11 -0.222383 1.93225 0
M  V30 16900 C 1603.4 3.26201 1.52528 0
M  V30 16901 C 1603.25 4.46325 0.558031 0
M  V30 16902 C 1604.57 3.63879 2.47548 0
M  V30 16903 H 1601.69 0.678136 0.288618 0
M  V30 16904 H 1604.33 1.899 0.0615161 0
M  V30 16905 H 1602.48 3.23385 2.15301 0
M  V30 16906 H 1604.15 4.61257 -0.0628154 0
M  V30 16907 H 1602.4 4.3361 -0.128462 0
M  V30 16908 H 1603.07 5.40845 1.10413 0
M  V30 16909 H 1605.54 3.6765 1.94866 0
M  V30 16910 H 1604.42 4.62598 2.95456 0
M  V30 16911 H 1604.68 2.92647 3.31376 0
M  V30 16912 N 1603.74 -0.364395 1.53329 0
M  V30 16913 C 1604.97 -1.12586 1.73228 0
M  V30 16914 C 1605.38 -1.83482 0.461614 0
M  V30 16915 O 1604.72 -1.74459 -0.575295 0
M  V30 16916 C 1604.78 -2.1994 2.84371 0
M  V30 16917 C 1604.45 -1.688 4.24683 0
M  V30 16918 C 1605.44 -1.15145 5.06989 0
M  V30 16919 C 1603.13 -1.74277 4.71097 0
M  V30 16920 C 1605.12 -0.676447 6.338 0
M  V30 16921 C 1602.81 -1.26389 5.97887 0
M  V30 16922 C 1603.81 -0.731632 6.7907 0
M  V30 16923 O 1603.49 -0.259825 8.0348 0
M  V30 16924 H 1603.23 -0.342514 0.582804 0
M  V30 16925 H 1605.78 -0.428832 2.00874 0
M  V30 16926 H 1604.01 -2.9314 2.52202 0
M  V30 16927 H 1605.7 -2.81489 2.92436 0
M  V30 16928 H 1606.47 -1.10251 4.72303 0
M  V30 16929 H 1602.34 -2.14647 4.0798 0
M  V30 16930 H 1605.89 -0.260327 6.97114 0
M  V30 16931 H 1601.79 -1.30977 6.32072 0
M  V30 16932 H 1602.55 -0.379044 8.17622 0
M  V30 16933 N 1605.22 -1.44709 -0.62426 0
M  V30 16934 C 1606.17 -1.48536 -1.72977 0
M  V30 16935 C 1607.15 -0.350388 -1.57039 0
M  V30 16936 O 1608.34 -0.596153 -1.66658 0
M  V30 16937 C 1605.47 -1.439 -3.11685 0
M  V30 16938 C 1604.56 -2.62537 -3.33069 0
M  V30 16939 N 1604.95 -3.87745 -3.24788 0
M  V30 16940 C 1603.25 -2.57879 -3.63888 0
M  V30 16941 C 1603.95 -4.66833 -3.47048 0
M  V30 16942 N 1602.92 -3.98016 -3.70248 0
M  V30 16943 H 1606.73 -2.43183 -1.65042 0
M  V30 16944 H 1604.24 -1.39768 -0.826962 0
M  V30 16945 H 1606.24 -1.44725 -3.90973 0
M  V30 16946 H 1604.9 -0.502961 -3.20781 0
M  V30 16947 H 1605.91 -4.19613 -3.03555 0
M  V30 16948 H 1602.58 -1.73104 -3.79923 0
M  V30 16949 H 1603.97 -5.75855 -3.4618 0
M  V30 16950 N 1606.69 0.865285 -1.31722 0
M  V30 16951 C 1607.94 1.61549 -1.21435 0
M  V30 16952 C 1608.26 1.9368 0.226501 0
M  V30 16953 O 1607.53 1.58705 1.14846 0
M  V30 16954 H 1606.11 0.598905 -0.446454 0
M  V30 16955 H 1608.78 1.03563 -1.65108 0
M  V30 16956 H 1607.87 2.55708 -1.78941 0
M  V30 16957 N 1608.17 1.14759 1.0802 0
M  V30 16958 C 1609.14 0.840859 2.13219 0
M  V30 16959 C 1610.14 -0.156309 1.60038 0
M  V30 16960 O 1611.33 0.0725143 1.74049 0
M  V30 16961 C 1608.46 0.254208 3.39951 0
M  V30 16962 H 1609.65 1.77323 2.4186 0
M  V30 16963 H 1607.2 0.954146 1.23797 0
M  V30 16964 H 1607.94 -0.686692 3.16946 0
M  V30 16965 H 1607.72 0.972499 3.79848 0
M  V30 16966 H 1609.21 0.0569551 4.17561 0
M  V30 16967 N 1609.65 -1.26251 0.943322 0
M  V30 16968 C 1610.9 -1.9327 0.590863 0
M  V30 16969 C 1611.22 -1.74356 -0.873212 0
M  V30 16970 O 1610.49 -1.10046 -1.6207 0
M  V30 16971 H 1609.07 -0.71523 0.215535 0
M  V30 16972 H 1611.73 -1.53647 1.19911 0
M  V30 16973 H 1610.83 -3.01393 0.810475 0
M  V30 16974 N 1611.13 -0.710588 -1.40671 0
M  V30 16975 C 1612.08 -0.043614 -2.32559 0
M  V30 16976 C 1613.07 0.752425 -1.51773 0
M  V30 16977 O 1614.28 0.656356 -1.67607 0
M  V30 16978 H 1610.65 0.00469865 -0.751985 0
M  V30 16979 H 1612.62 -0.835399 -2.86468 0
M  V30 16980 C 1611.37 0.867796 -3.36697 0
M  V30 16981 H 1610.7 0.264667 -3.98923 0
M  V30 16982 H 1612.14 1.30252 -4.03498 0
M  V30 16983 C 1610.59 1.99094 -2.71778 0
M  V30 16984 O 1611.12 3.08129 -2.5772 0
M  V30 16985 N 1609.33 1.77309 -2.30239 0
M  V30 16986 H 1608.88 0.886325 -2.41872 0
M  V30 16987 H 1608.84 2.52639 -1.87139 0
M  V30 16988 N 1612.61 1.50847 -0.456408 0
M  V30 16989 C 1613.55 2.28202 0.345341 0
M  V30 16990 C 1614.52 1.32611 1.00017 0
M  V30 16991 O 1615.71 1.61535 1.01543 0
M  V30 16992 C 1612.85 3.14087 1.42981 0
M  V30 16993 C 1611.96 4.24693 0.791217 0
M  V30 16994 C 1611.1 4.97857 1.85234 0
M  V30 16995 C 1610.14 6.00357 1.1932 0
M  V30 16996 N 1609.27 6.66856 2.19652 0
M  V30 16997 H 1614.11 2.9627 -0.320646 0
M  V30 16998 H 1611.65 1.46115 -0.169973 0
M  V30 16999 H 1613.61 3.62222 2.07006 0
M  V30 17000 H 1612.24 2.48095 2.06516 0
M  V30 17001 H 1611.29 3.8038 0.0387694 0
M  V30 17002 H 1612.6 4.98068 0.270177 0
M  V30 17003 H 1611.76 5.49636 2.56875 0
M  V30 17004 H 1610.5 4.24155 2.40715 0
M  V30 17005 H 1609.5 5.47853 0.462341 0
M  V30 17006 H 1610.73 6.76025 0.645473 0
M  V30 17007 H 1608.67 5.95955 2.74178 0
M  V30 17008 H 1608.59 7.36059 1.72492 0
M  V30 17009 H 1609.86 7.23259 2.90719 0
M  V30 17010 N 1614.09 0.188454 1.56469 0
M  V30 17011 C 1615.31 -0.457846 2.01771 0
M  V30 17012 C 1615.73 -1.55646 1.06863 0
M  V30 17013 O 1615.09 -1.82356 0.0723619 0
M  V30 17014 C 1615.14 -1.02032 3.46802 0
M  V30 17015 O 1614.86 0.0344536 4.38086 0
M  V30 17016 C 1616.36 -1.74316 4.07589 0
M  V30 17017 H 1613.58 -0.115594 0.660968 0
M  V30 17018 H 1616.12 0.295213 2.02358 0
M  V30 17019 H 1614.28 -1.7238 3.46935 0
M  V30 17020 H 1614.69 -0.383254 5.23098 0
M  V30 17021 H 1616.17 -2.08912 5.1094 0
M  V30 17022 H 1616.64 -2.64445 3.50665 0
M  V30 17023 H 1617.25 -1.0857 4.11209 0
M  V30 17024 N 1615.56 -1.5737 -0.0851874 0
M  V30 17025 C 1616.49 -2.05796 -1.10319 0
M  V30 17026 C 1617.47 -0.948796 -1.4118 0
M  V30 17027 O 1618.66 -1.22069 -1.51039 0
M  V30 17028 C 1615.79 -2.49069 -2.42037 0
M  V30 17029 C 1614.74 -3.6374 -2.25561 0
M  V30 17030 C 1614.07 -3.93023 -3.62543 0
M  V30 17031 C 1615.37 -4.94274 -1.68793 0
M  V30 17032 H 1617.06 -2.91095 -0.700274 0
M  V30 17033 H 1614.61 -1.40039 -0.335405 0
M  V30 17034 H 1616.56 -2.81558 -3.13534 0
M  V30 17035 H 1615.29 -1.60781 -2.84283 0
M  V30 17036 H 1613.95 -3.31513 -1.56507 0
M  V30 17037 H 1613.59 -3.01887 -4.02335 0
M  V30 17038 H 1613.29 -4.70229 -3.52362 0
M  V30 17039 H 1614.82 -4.27995 -4.35491 0
M  V30 17040 H 1616.23 -5.25079 -2.30141 0
M  V30 17041 H 1614.63 -5.75711 -1.69344 0
M  V30 17042 H 1615.7 -4.80548 -0.648204 0
M  V30 17043 N 1617.04 0.356258 -1.53521 0
M  V30 17044 C 1618 1.41975 -1.79933 0
M  V30 17045 C 1619 1.46177 -0.669997 0
M  V30 17046 O 1620.19 1.46774 -0.938239 0
M  V30 17047 C 1617.33 2.81015 -1.92985 0
M  V30 17048 H 1618.52 1.19824 -2.74922 0
M  V30 17049 H 1616.07 0.589928 -1.4474 0
M  V30 17050 H 1616.81 3.08466 -1.00095 0
M  V30 17051 H 1616.59 2.79363 -2.75135 0
M  V30 17052 H 1618.08 3.58013 -2.1498 0
M  V30 17053 N 1618.52 1.45038 0.616577 0
M  V30 17054 C 1619.77 1.48292 1.3731 0
M  V30 17055 C 1620.09 0.122437 1.94615 0
M  V30 17056 O 1619.36 -0.847103 1.76638 0
M  V30 17057 H 1617.94 0.546079 0.509712 0
M  V30 17058 H 1620.6 1.80927 0.724673 0
M  V30 17059 H 1619.7 2.21664 2.19708 0
M  V30 17060 N 1620 -0.858287 1.32179 0
M  V30 17061 C 1621.41 -1.4281 1.20259 0
M  V30 17062 C 1621.76 -1.95313 -0.186332 0
M  V30 17063 O 1620.88 -1.87244 -1.08484 0
M  V30 17064 C 1621.48 -2.59589 2.17713 0
M  V30 17065 C 1620.04 -3.1258 2.09691 0
M  V30 17066 C 1619.19 -1.85317 2.06283 0
M  V30 17067 H 1622.14 -0.665769 1.4406 0
M  V30 17068 H 1622.16 -3.36639 1.77354 0
M  V30 17069 H 1621.67 -2.21346 3.18791 0
M  V30 17070 H 1619.77 -3.55416 1.11849 0
M  V30 17071 H 1619.88 -3.74071 2.99346 0
M  V30 17072 H 1618.25 -2.04766 1.51469 0
M  V30 17073 H 1619.03 -1.49296 3.09137 0
M  V30 17074 N 1621.48 -1.1533 -1.07409 0
M  V30 17075 C 1622.42 -0.849527 -2.14597 0
M  V30 17076 C 1623.39 0.197288 -1.64924 0
M  V30 17077 O 1624.58 0.0649694 -1.90689 0
M  V30 17078 C 1621.72 -0.344327 -3.43378 0
M  V30 17079 C 1620.83 -1.45264 -4.06844 0
M  V30 17080 C 1619.97 -0.90363 -5.23458 0
M  V30 17081 C 1619 -1.98892 -5.78885 0
M  V30 17082 N 1618.14 -1.45633 -6.8683 0
M  V30 17083 H 1622.98 -1.76753 -2.39922 0
M  V30 17084 H 1620.52 -0.881942 -1.17729 0
M  V30 17085 H 1622.48 -0.0331352 -4.17187 0
M  V30 17086 H 1621.11 0.536757 -3.18306 0
M  V30 17087 H 1620.16 -1.88003 -3.30695 0
M  V30 17088 H 1621.47 -2.27207 -4.44048 0
M  V30 17089 H 1620.62 -0.544945 -6.04248 0
M  V30 17090 H 1619.36 -0.0533648 -4.87671 0
M  V30 17091 H 1618.37 -2.35644 -4.96741 0
M  V30 17092 H 1619.59 -2.84295 -6.16728 0
M  V30 17093 H 1617.54 -0.628417 -6.52983 0
M  V30 17094 H 1617.46 -2.21204 -7.22914 0
M  V30 17095 H 1618.72 -1.12587 -7.71326 0
M  V30 17096 N 1622.95 1.25748 -0.950004 0
M  V30 17097 C 1624.2 1.92954 -0.601104 0
M  V30 17098 C 1624.52 1.74817 0.863953 0
M  V30 17099 O 1623.79 1.10904 1.61484 0
M  V30 17100 H 1622.37 0.714077 -0.219325 0
M  V30 17101 H 1625.03 1.53009 -1.20724 0
M  V30 17102 H 1624.13 3.00959 -0.826447 0
M  V30 17103 N 1624.43 0.718038 1.40292 0
M  V30 17104 C 1625.84 0.330675 1.83748 0
M  V30 17105 C 1626.19 -1.13511 1.6003 0
M  V30 17106 O 1625.32 -1.87381 1.08247 0
M  V30 17107 C 1625.91 0.593398 3.33563 0
M  V30 17108 C 1624.47 0.259717 3.75503 0
M  V30 17109 C 1623.62 0.864537 2.63479 0
M  V30 17110 H 1626.57 0.917 1.29525 0
M  V30 17111 H 1626.59 -0.140544 3.8024 0
M  V30 17112 H 1626.1 1.66028 3.50794 0
M  V30 17113 H 1624.2 -0.802011 3.63866 0
M  V30 17114 H 1624.32 0.730427 4.73499 0
M  V30 17115 H 1622.68 0.292399 2.53016 0
M  V30 17116 H 1623.46 1.93574 2.83521 0
M  V30 17117 N 1625.91 -1.50602 0.464402 0
M  V30 17118 C 1627.16 -2.02587 -0.0930295 0
M  V30 17119 C 1627.49 -1.34618 -1.3997 0
M  V30 17120 O 1626.76 -0.469711 -1.88743 0
M  V30 17121 C 1627.05 -3.5898 -0.283783 0
M  V30 17122 C 1626.9 -4.3753 1.04344 0
M  V30 17123 C 1628.22 -4.27602 -1.04138 0
M  V30 17124 H 1625.34 -0.73629 -0.0323356 0
M  V30 17125 H 1627.98 -1.79986 0.608687 0
M  V30 17126 H 1626.13 -3.78368 -0.881488 0
M  V30 17127 H 1627.8 -4.29729 1.67721 0
M  V30 17128 H 1626.05 -4.01536 1.64168 0
M  V30 17129 H 1626.72 -5.45201 0.863691 0
M  V30 17130 H 1629.19 -4.12649 -0.534822 0
M  V30 17131 H 1628.07 -5.36854 -1.14364 0
M  V30 17132 H 1628.33 -3.9031 -2.0763 0
M  V30 17133 N 1627.39 -0.19675 -1.56367 0
M  V30 17134 C 1628.62 0.447139 -2.02011 0
M  V30 17135 C 1629.03 1.55077 -1.07687 0
M  V30 17136 O 1628.39 1.82316 -0.0820316 0
M  V30 17137 C 1628.44 1.00192 -3.47338 0
M  V30 17138 O 1628.16 -0.0576859 -4.38062 0
M  V30 17139 C 1629.66 1.72152 -4.08508 0
M  V30 17140 H 1626.88 0.112088 -0.661572 0
M  V30 17141 H 1629.43 -0.30594 -2.02199 0
M  V30 17142 H 1627.58 1.70537 -3.47844 0
M  V30 17143 H 1627.99 0.355508 -5.23294 0
M  V30 17144 H 1629.47 2.06199 -5.12041 0
M  V30 17145 H 1629.95 2.62581 -3.52062 0
M  V30 17146 H 1630.55 1.06388 -4.11779 0
M  V30 17147 N 1628.87 1.57413 0.0768405 0
M  V30 17148 C 1629.8 2.00058 1.11845 0
M  V30 17149 C 1630.81 0.905783 1.35275 0
M  V30 17150 O 1632 1.18372 1.33605 0
M  V30 17151 C 1629.1 2.32002 2.47039 0
M  V30 17152 C 1628.27 3.63265 2.43634 0
M  V30 17153 C 1627.33 3.82937 3.60896 0
M  V30 17154 O 1626.36 4.54582 3.42555 0
M  V30 17155 N 1627.56 3.24904 4.81059 0
M  V30 17156 H 1630.33 2.90026 0.75533 0
M  V30 17157 H 1627.89 1.59707 0.265567 0
M  V30 17158 H 1629.88 2.4234 3.24119 0
M  V30 17159 H 1628.45 1.4795 2.75372 0
M  V30 17160 H 1627.67 3.63727 1.51974 0
M  V30 17161 H 1628.96 4.49462 2.38455 0
M  V30 17162 H 1628.35 2.66742 4.98864 0
M  V30 17163 H 1626.91 3.40699 5.55669 0
M  V30 17164 N 1630.34 -0.348112 1.53707 0
M  V30 17165 C 1631.28 -1.45032 1.76184 0
M  V30 17166 C 1632.26 -1.50693 0.610775 0
M  V30 17167 O 1633.44 -1.68479 0.845406 0
M  V30 17168 C 1630.57 -2.83296 1.85637 0
M  V30 17169 C 1629.61 -2.95281 3.07752 0
M  V30 17170 S 1630.45 -2.62222 4.66904 0
M  V30 17171 C 1631.6 -4.02603 4.79231 0
M  V30 17172 H 1631.83 -1.25749 2.69397 0
M  V30 17173 H 1629.37 -0.543506 1.44518 0
M  V30 17174 H 1631.33 -3.62953 1.91769 0
M  V30 17175 H 1629.99 -2.99878 0.934458 0
M  V30 17176 H 1629.18 -3.96582 3.11028 0
M  V30 17177 H 1628.78 -2.23567 2.99823 0
M  V30 17178 H 1631.07 -4.97067 4.60359 0
M  V30 17179 H 1632.02 -4.04323 5.81316 0
M  V30 17180 H 1632.42 -3.90415 4.07721 0
M  V30 17181 N 1631.82 -1.45363 -0.608876 0
M  V30 17182 C 1633.05 -1.52614 -1.39257 0
M  V30 17183 C 1633.46 -0.157106 -1.88547 0
M  V30 17184 O 1632.8 0.851329 -1.62782 0
M  V30 17185 C 1632.87 -2.44821 -2.63255 0
M  V30 17186 C 1632.53 -3.91582 -2.35612 0
M  V30 17187 C 1633.53 -4.81517 -1.96054 0
M  V30 17188 C 1631.21 -4.36488 -2.48564 0
M  V30 17189 C 1633.21 -6.14365 -1.69808 0
M  V30 17190 C 1630.89 -5.69377 -2.21931 0
M  V30 17191 C 1631.89 -6.58135 -1.82614 0
M  V30 17192 O 1631.58 -7.88561 -1.56292 0
M  V30 17193 H 1631.31 -0.51935 -0.432726 0
M  V30 17194 H 1633.86 -1.91227 -0.749768 0
M  V30 17195 H 1632.09 -2.01177 -3.30249 0
M  V30 17196 H 1633.78 -2.4277 -3.25296 0
M  V30 17197 H 1634.55 -4.48088 -1.85585 0
M  V30 17198 H 1630.43 -3.67646 -2.78133 0
M  V30 17199 H 1633.97 -6.83602 -1.39045 0
M  V30 17200 H 1629.87 -6.02361 -2.32016 0
M  V30 17201 H 1630.64 -8.00576 -1.70355 0
M  V30 17202 N 1633.3 0.851265 -1.32632 0
M  V30 17203 C 1634.53 1.63805 -1.26394 0
M  V30 17204 C 1634.94 1.88056 0.167454 0
M  V30 17205 O 1634.3 1.45196 1.10564 0
M  V30 17206 C 1634.35 2.9954 -2.02381 0
M  V30 17207 O 1634.07 2.76361 -3.39935 0
M  V30 17208 C 1635.57 3.93982 -2.03207 0
M  V30 17209 H 1632.79 0.510088 -0.435948 0
M  V30 17210 H 1635.34 1.06123 -1.74809 0
M  V30 17211 H 1633.49 3.53859 -1.5768 0
M  V30 17212 H 1633.91 3.62708 -3.78871 0
M  V30 17213 H 1635.38 4.86478 -2.60851 0
M  V30 17214 H 1635.86 4.27211 -1.01918 0
M  V30 17215 H 1636.46 3.45601 -2.47871 0
M  V30 17216 N 1634.78 1.15898 1.06796 0
M  V30 17217 C 1636 0.961859 1.83747 0
M  V30 17218 C 1636.43 -0.48494 1.81741 0
M  V30 17219 O 1635.79 -1.3461 1.21449 0
M  V30 17220 C 1635.83 1.48764 3.28484 0
M  V30 17221 O 1634.94 0.690576 4.06577 0
M  V30 17222 H 1634.28 0.342664 0.568751 0
M  V30 17223 H 1636.81 1.54015 1.34687 0
M  V30 17224 H 1636.82 1.50291 3.79311 0
M  V30 17225 H 1635.49 2.54089 3.29259 0
M  V30 17226 H 1634.07 0.74539 3.65374 0
M  V30 17227 N 1636.26 -1.25243 0.956659 0
M  V30 17228 C 1637.22 -2.24054 0.482949 0
M  V30 17229 C 1638.22 -1.55367 -0.41447 0
M  V30 17230 O 1639.41 -1.72912 -0.211475 0
M  V30 17231 C 1636.54 -3.3956 -0.301975 0
M  V30 17232 H 1637.73 -2.67476 1.35634 0
M  V30 17233 H 1635.29 -1.37665 0.740138 0
M  V30 17234 H 1636.02 -3.01561 -1.19294 0
M  V30 17235 H 1635.81 -3.90607 0.341876 0
M  V30 17236 H 1637.3 -4.1293 -0.622807 0
M  V30 17237 N 1637.73 -0.725468 -1.3991 0
M  V30 17238 C 1638.64 -0.0805887 -2.34462 0
M  V30 17239 C 1639.66 0.732689 -1.57822 0
M  V30 17240 O 1640.84 0.663362 -1.90162 0
M  V30 17241 C 1637.9 0.822908 -3.36792 0
M  V30 17242 C 1636.96 -0.00153812 -4.293 0
M  V30 17243 C 1636.2 0.85893 -5.26743 0
M  V30 17244 O 1636.42 2.09793 -5.30418 0
M  V30 17245 O 1635.35 0.292659 -6.01188 0
M  V30 17246 H 1639.18 -0.860746 -2.91247 0
M  V30 17247 H 1636.76 -0.48604 -1.41273 0
M  V30 17248 H 1638.65 1.34014 -3.99522 0
M  V30 17249 H 1637.32 1.58204 -2.82406 0
M  V30 17250 H 1636.23 -0.564072 -3.69823 0
M  V30 17251 H 1637.56 -0.722675 -4.86866 0
M  V30 17252 N 1639.21 1.50354 -0.472382 0
M  V30 17253 C 1640.46 2.01934 0.0820006 0
M  V30 17254 C 1640.78 1.35636 1.401 0
M  V30 17255 O 1640.05 0.502127 1.89355 0
M  V30 17256 H 1638.63 0.746258 0.0332943 0
M  V30 17257 H 1641.29 1.84671 -0.623099 0
M  V30 17258 H 1640.39 3.11232 0.232565 0
M  V30 17259 N 1640.69 0.205039 1.56261 0
M  V30 17260 C 1641.97 -0.479238 1.89638 0
M  V30 17261 C 1642.35 -1.78938 1.12002 0
M  V30 17262 O 1641.7 -2.27398 0.224179 0
M  V30 17263 C 1641.91 -0.688324 3.42145 0
M  V30 17264 C 1643.25 -1.00322 4.12578 0
M  V30 17265 O 1644.28 -0.775697 3.47651 0
M  V30 17266 O 1643.14 -1.43412 5.27347 0
M  V30 17267 H 1640.23 -0.251125 0.78795 0
M  V30 17268 H 1642.78 0.245994 1.67908 0
M  V30 17269 H 1641.55 0.236479 3.90585 0
M  V30 17270 H 1641.17 -1.46565 3.696 0
M  V30 17271 N 1642.17 -1.57451 -0.0684915 0
M  V30 17272 C 1643.1 -2.06954 -1.0813 0
M  V30 17273 C 1644.08 -0.963716 -1.40166 0
M  V30 17274 O 1645.27 -1.23664 -1.49736 0
M  V30 17275 C 1642.4 -2.51622 -2.39381 0
M  V30 17276 C 1641.35 -3.66111 -2.2169 0
M  V30 17277 C 1640.68 -3.96846 -3.58354 0
M  V30 17278 C 1641.98 -4.96036 -1.63541 0
M  V30 17279 H 1643.67 -2.91822 -0.66936 0
M  V30 17280 H 1641.22 -1.40387 -0.320533 0
M  V30 17281 H 1643.17 -2.84867 -3.1053 0
M  V30 17282 H 1641.89 -1.63788 -2.82562 0
M  V30 17283 H 1640.55 -3.33155 -1.52982 0
M  V30 17284 H 1640.2 -3.06137 -3.9911 0
M  V30 17285 H 1639.9 -4.73939 -3.47354 0
M  V30 17286 H 1641.42 -4.3259 -4.30927 0
M  V30 17287 H 1642.84 -5.27491 -2.24559 0
M  V30 17288 H 1641.23 -5.77474 -1.63228 0
M  V30 17289 H 1642.3 -4.81208 -0.597199 0
M  V30 17290 N 1643.65 0.339955 -1.5389 0
M  V30 17291 C 1644.89 1.08139 -1.71563 0
M  V30 17292 C 1645.23 1.88193 -0.479292 0
M  V30 17293 O 1644.5 1.87317 0.523702 0
M  V30 17294 C 1644.78 2.01963 -2.98132 0
M  V30 17295 C 1644.64 1.25349 -4.31981 0
M  V30 17296 C 1645.96 3.01729 -3.20387 0
M  V30 17297 H 1643.08 0.391744 -0.624264 0
M  V30 17298 H 1645.72 0.359609 -1.86566 0
M  V30 17299 H 1643.87 2.63511 -2.85472 0
M  V30 17300 H 1645.54 0.66388 -4.56498 0
M  V30 17301 H 1643.78 0.555541 -4.30228 0
M  V30 17302 H 1644.45 1.94154 -5.16728 0
M  V30 17303 H 1646.93 2.50297 -3.32401 0
M  V30 17304 H 1645.81 3.64577 -4.10335 0
M  V30 17305 H 1646.07 3.73303 -2.36849 0
M  V30 17306 N 1645.13 1.45684 0.601159 0
M  V30 17307 C 1646.37 1.4974 1.35729 0
M  V30 17308 C 1646.69 0.143072 1.94474 0
M  V30 17309 O 1645.96 -0.82832 1.77527 0
M  V30 17310 H 1644.54 0.551455 0.503892 0
M  V30 17311 H 1647.21 1.81685 0.705443 0
M  V30 17312 H 1646.3 2.23982 2.17344 0
M  V30 17313 N 1646.6 -0.84422 1.33082 0
M  V30 17314 C 1647.85 -1.60123 1.25429 0
M  V30 17315 C 1648.2 -1.91559 -0.179646 0
M  V30 17316 O 1647.5 -1.55436 -1.12028 0
M  V30 17317 C 1647.69 -2.92225 2.05765 0
M  V30 17318 C 1647.52 -2.73691 3.56824 0
M  V30 17319 C 1646.29 -2.71528 4.26146 0
M  V30 17320 C 1648.49 -2.46706 4.51266 0
M  V30 17321 N 1646.47 -2.44314 5.63191 0
M  V30 17322 C 1647.84 -2.28994 5.76161 0
M  V30 17323 C 1649.9 -2.32259 4.40409 0
M  V30 17324 C 1648.6 -1.98301 6.91425 0
M  V30 17325 C 1650.63 -2.02959 5.55483 0
M  V30 17326 C 1649.99 -1.86055 6.79384 0
M  V30 17327 H 1646.09 -0.589203 0.514163 0
M  V30 17328 H 1648.67 -0.991494 1.67563 0
M  V30 17329 H 1646.84 -3.51158 1.65959 0
M  V30 17330 H 1648.57 -3.57367 1.89924 0
M  V30 17331 H 1645.33 -2.84843 3.78367 0
M  V30 17332 H 1645.75 -2.33606 6.35419 0
M  V30 17333 H 1650.39 -2.44043 3.45258 0
M  V30 17334 H 1648.11 -1.85254 7.86579 0
M  V30 17335 H 1651.7 -1.92543 5.49016 0
M  V30 17336 H 1650.58 -1.63707 7.66922 0
M  V30 17337 N 1648.08 -1.16463 -1.0618 0
M  V30 17338 C 1649.49 -0.95436 -1.60465 0
M  V30 17339 C 1649.84 0.501455 -1.89684 0
M  V30 17340 O 1648.97 1.37488 -1.67111 0
M  V30 17341 C 1649.56 -1.72603 -2.91537 0
M  V30 17342 C 1648.12 -1.56071 -3.42518 0
M  V30 17343 C 1647.27 -1.73403 -2.16395 0
M  V30 17344 H 1650.22 -1.31316 -0.891166 0
M  V30 17345 H 1650.24 -1.20252 -3.60998 0
M  V30 17346 H 1649.75 -2.78554 -2.70239 0
M  V30 17347 H 1647.85 -0.525652 -3.68874 0
M  V30 17348 H 1647.97 -2.34533 -4.17769 0
M  V30 17349 H 1646.33 -1.16155 -2.26672 0
M  V30 17350 H 1647.11 -2.80745 -1.97578 0
M  V30 17351 N 1649.56 1.24734 -0.963288 0
M  V30 17352 C 1650.78 1.97285 -0.639808 0
M  V30 17353 C 1651.21 1.71024 0.783099 0
M  V30 17354 O 1650.57 0.971324 1.53085 0
M  V30 17355 C 1650.62 3.48793 -0.915197 0
M  V30 17356 O 1649.72 4.124 0.00162805 0
M  V30 17357 H 1649.06 0.618196 -0.242343 0
M  V30 17358 H 1651.59 1.58627 -1.29224 0
M  V30 17359 H 1651.6 3.99155 -0.84495 0
M  V30 17360 H 1650.28 3.67235 -1.95221 0
M  V30 17361 H 1648.85 3.72702 -0.121563 0
M  V30 17362 N 1651.04 0.732878 1.39523 0
M  V30 17363 C 1652.45 0.350145 1.83387 0
M  V30 17364 C 1652.8 -1.11807 1.61225 0
M  V30 17365 O 1651.92 -1.86222 1.10229 0
M  V30 17366 C 1652.52 0.628743 3.32915 0
M  V30 17367 C 1651.08 0.299529 3.75206 0
M  V30 17368 C 1650.23 0.892434 2.62547 0
M  V30 17369 H 1653.18 0.930687 1.28545 0
M  V30 17370 H 1653.2 -0.100206 3.80368 0
M  V30 17371 H 1652.71 1.6974 3.49013 0
M  V30 17372 H 1650.81 -0.763373 3.64696 0
M  V30 17373 H 1650.92 0.780607 4.72698 0
M  V30 17374 H 1649.29 0.319218 2.52692 0
M  V30 17375 H 1650.07 1.9657 2.81452 0
M  V30 17376 N 1652.52 -1.50101 0.480349 0
M  V30 17377 C 1653.93 -1.8668 0.0274773 0
M  V30 17378 C 1654.28 -1.39442 -1.38023 0
M  V30 17379 O 1653.4 -0.763363 -2.02489 0
M  V30 17380 C 1654 -3.38773 0.043087 0
M  V30 17381 C 1652.56 -3.74728 -0.354352 0
M  V30 17382 C 1651.7 -2.7403 0.424583 0
M  V30 17383 H 1654.65 -1.42713 0.694172 0
M  V30 17384 H 1654.68 -3.72894 -0.756989 0
M  V30 17385 H 1654.19 -3.73123 1.06775 0
M  V30 17386 H 1652.29 -3.45981 -1.38303 0
M  V30 17387 H 1652.4 -4.79075 -0.0492608 0
M  V30 17388 H 1650.77 -2.54403 -0.122927 0
M  V30 17389 H 1651.55 -3.11225 1.44894 0
M  V30 17390 N 1653.99 -0.213323 -1.5615 0
M  V30 17391 C 1655.24 0.419767 -1.97693 0
M  V30 17392 C 1655.56 1.60878 -1.10197 0
M  V30 17393 O 1654.83 1.95097 -0.177185 0
M  V30 17394 H 1653.41 0.158075 -0.730083 0
M  V30 17395 H 1656.07 -0.304303 -1.9251 0
M  V30 17396 H 1655.17 0.751645 -3.02914 0
M  V30 17397 N 1655.47 1.57485 0.0601405 0
M  V30 17398 C 1656.7 1.92051 0.769681 0
M  V30 17399 C 1657.12 0.810364 1.70524 0
M  V30 17400 O 1656.47 -0.215527 1.81223 0
M  V30 17401 C 1656.52 3.26423 1.55339 0
M  V30 17402 O 1656.24 4.3317 0.655423 0
M  V30 17403 C 1657.75 3.75076 2.36289 0
M  V30 17404 H 1654.97 0.63454 0.218175 0
M  V30 17405 H 1657.51 2.04482 0.0269308 0
M  V30 17406 H 1655.66 3.15483 2.24831 0
M  V30 17407 H 1656.08 5.10548 1.20171 0
M  V30 17408 H 1657.55 4.71695 2.86719 0
M  V30 17409 H 1658.03 3.04677 3.16336 0
M  V30 17410 H 1658.64 3.88998 1.71932 0
M  V30 17411 N 1656.95 -0.331789 1.54068 0
M  V30 17412 C 1657.9 -1.40798 1.82879 0
M  V30 17413 C 1658.87 -1.51753 0.675292 0
M  V30 17414 O 1660.05 -1.67105 0.920905 0
M  V30 17415 C 1657.19 -2.7728 2.0545 0
M  V30 17416 C 1656.31 -2.75022 3.33147 0
M  V30 17417 C 1655.44 -4.03297 3.45723 0
M  V30 17418 C 1654.48 -3.95314 4.67326 0
M  V30 17419 N 1653.62 -5.15303 4.76872 0
M  V30 17420 H 1658.46 -1.15529 2.74695 0
M  V30 17421 H 1655.99 -0.559411 1.36048 0
M  V30 17422 H 1657.95 -3.56611 2.16528 0
M  V30 17423 H 1656.58 -3.00875 1.16935 0
M  V30 17424 H 1655.63 -1.87729 3.30851 0
M  V30 17425 H 1656.95 -2.65003 4.22581 0
M  V30 17426 H 1656.1 -4.91057 3.56297 0
M  V30 17427 H 1654.84 -4.16112 2.54367 0
M  V30 17428 H 1653.84 -3.05939 4.56817 0
M  V30 17429 H 1655.07 -3.84072 5.60058 0
M  V30 17430 H 1653.01 -5.28639 3.88429 0
M  V30 17431 H 1652.93 -5.07588 5.60259 0
M  V30 17432 H 1654.2 -6.04801 4.91769 0
M  V30 17433 N 1658.43 -1.46001 -0.593424 0
M  V30 17434 C 1659.65 -1.54541 -1.38318 0
M  V30 17435 C 1660.08 -0.183555 -1.87202 0
M  V30 17436 O 1659.44 0.834407 -1.60958 0
M  V30 17437 C 1659.48 -2.54559 -2.55405 0
M  V30 17438 O 1658.59 -2.07321 -3.56499 0
M  V30 17439 H 1657.93 -0.520434 -0.412364 0
M  V30 17440 H 1660.46 -1.9148 -0.720862 0
M  V30 17441 H 1660.47 -2.73823 -3.02465 0
M  V30 17442 H 1659.14 -3.53461 -2.19176 0
M  V30 17443 H 1657.72 -1.97997 -3.15993 0
M  V30 17444 N 1659.91 0.83715 -1.33527 0
M  V30 17445 C 1660.84 1.96231 -1.26553 0
M  V30 17446 C 1661.82 1.69474 -0.14576 0
M  V30 17447 O 1663 1.91274 -0.335815 0
M  V30 17448 C 1660.13 3.32419 -1.00574 0
M  V30 17449 C 1659.09 3.73577 -2.08864 0
M  V30 17450 C 1658.41 5.07591 -1.68095 0
M  V30 17451 C 1659.71 3.87179 -3.50556 0
M  V30 17452 H 1661.41 2.02324 -2.20693 0
M  V30 17453 H 1658.95 0.972038 -1.06242 0
M  V30 17454 H 1660.91 4.10703 -0.943439 0
M  V30 17455 H 1659.63 3.26587 -0.0287268 0
M  V30 17456 H 1658.29 2.97557 -2.14139 0
M  V30 17457 H 1657.94 4.98232 -0.690922 0
M  V30 17458 H 1657.64 5.361 -2.40563 0
M  V30 17459 H 1659.16 5.88349 -1.63334 0
M  V30 17460 H 1660.57 4.55771 -3.47772 0
M  V30 17461 H 1658.97 4.27127 -4.21524 0
M  V30 17462 H 1660.04 2.8958 -3.88936 0
M  V30 17463 N 1661.38 1.17024 1.05561 0
M  V30 17464 C 1662.66 0.86635 1.75367 0
M  V30 17465 C 1663.04 -0.634217 2.01348 0
M  V30 17466 O 1662.39 -1.58434 1.64654 0
M  V30 17467 C 1662.6 1.69719 3.04953 0
M  V30 17468 C 1663.95 1.91482 3.78972 0
M  V30 17469 O 1664.97 1.66647 3.14813 0
M  V30 17470 O 1663.83 2.33197 4.94248 0
M  V30 17471 H 1660.92 0.320412 0.762407 0
M  V30 17472 H 1663.47 1.277 1.11763 0
M  V30 17473 H 1662.24 2.71512 2.81775 0
M  V30 17474 H 1661.87 1.28408 3.76294 0
M  V30 17475 N 1662.86 -1.24221 0.969889 0
M  V30 17476 C 1664.27 -1.74206 0.671494 0
M  V30 17477 C 1664.62 -1.78576 -0.81271 0
M  V30 17478 O 1663.75 -1.41664 -1.63586 0
M  V30 17479 C 1664.34 -3.16371 1.21222 0
M  V30 17480 C 1662.9 -3.63855 0.96368 0
M  V30 17481 C 1662.05 -2.42429 1.34623 0
M  V30 17482 H 1665 -1.09893 1.14496 0
M  V30 17483 H 1665.02 -3.7606 0.579552 0
M  V30 17484 H 1664.53 -3.13159 2.29245 0
M  V30 17485 H 1662.64 -3.72463 -0.100931 0
M  V30 17486 H 1662.75 -4.51207 1.61087 0
M  V30 17487 H 1661.11 -2.42952 0.764624 0
M  V30 17488 H 1661.9 -2.41896 2.436 0
M  V30 17489 N 1664.34 -0.740267 -1.39132 0
M  V30 17490 C 1665.58 -0.295271 -2.02256 0
M  V30 17491 C 1665.94 1.09839 -1.57478 0
M  V30 17492 O 1667.15 1.64176 -2.12838 0
M  V30 17493 C 1665.42 -0.399327 -3.55162 0
M  V30 17494 S 1666.98 -0.0349493 -4.38786 0
M  V30 17495 H 1663.79 -0.115356 -0.70158 0
M  V30 17496 H 1666.4 -0.967946 -1.69856 0
M  V30 17497 H 1665.1 -1.41482 -3.85241 0
M  V30 17498 H 1664.63 0.290988 -3.92322 0
M  V30 17499 H 1666.65 1.17965 -4.81974 0
M  V30 17500 N 1665.82 1.49844 -0.488302 0
M  V30 17501 C 1667.05 2.06819 0.0578807 0
M  V30 17502 C 1667.46 1.35018 1.31969 0
M  V30 17503 O 1666.82 0.424614 1.77492 0
M  V30 17504 C 1666.87 3.60005 0.328435 0
M  V30 17505 O 1666.59 4.29102 -0.883338 0
M  V30 17506 C 1668.09 4.33655 0.919675 0
M  V30 17507 H 1665.31 0.670837 -0.014775 0
M  V30 17508 H 1667.86 1.92792 -0.682022 0
M  V30 17509 H 1666.01 3.73777 1.0183 0
M  V30 17510 H 1666.42 5.206 -0.638414 0
M  V30 17511 H 1667.9 5.41753 1.05864 0
M  V30 17512 H 1668.38 3.95289 1.91424 0
M  V30 17513 H 1668.98 4.24457 0.267672 0
M  V30 17514 N 1667.3 0.221601 1.56034 0
M  V30 17515 C 1668.54 -0.411933 2.00206 0
M  V30 17516 C 1668.9 -1.56945 1.10599 0
M  V30 17517 O 1670.1 -2.269 1.44118 0
M  V30 17518 C 1668.37 -0.835387 3.475 0
M  V30 17519 S 1669.93 -1.46302 4.13692 0
M  V30 17520 H 1666.75 -0.130732 0.698878 0
M  V30 17521 H 1669.35 0.330901 1.92679 0
M  V30 17522 H 1668.06 0.0167339 4.10397 0
M  V30 17523 H 1667.59 -1.61103 3.589 0
M  V30 17524 H 1669.6 -2.75209 4.12885 0
M  V30 17525 N 1668.77 -1.57515 -0.0517878 0
M  V30 17526 C 1670.02 -1.87843 -0.745624 0
M  V30 17527 C 1670.34 -0.816318 -1.77091 0
M  V30 17528 O 1669.61 0.152784 -1.95303 0
M  V30 17529 H 1668.19 -0.693194 -0.278372 0
M  V30 17530 H 1670.86 -1.94886 -0.0231267 0
M  V30 17531 H 1669.95 -2.86001 -1.2494 0
M  V30 17532 N 1670.25 0.323614 -1.54242 0
M  V30 17533 C 1671.22 1.38126 -1.82904 0
M  V30 17534 C 1672.22 1.44723 -0.700853 0
M  V30 17535 O 1673.41 1.44751 -0.969161 0
M  V30 17536 C 1670.54 2.76858 -1.98903 0
M  V30 17537 H 1671.73 1.13966 -2.77402 0
M  V30 17538 H 1669.28 0.559094 -1.45958 0
M  V30 17539 H 1670.02 3.06274 -1.06616 0
M  V30 17540 H 1669.8 2.73464 -2.80998 0
M  V30 17541 H 1671.29 3.53372 -2.22526 0
M  V30 17542 N 1671.73 1.46313 0.585673 0
M  V30 17543 C 1672.98 1.51694 1.34598 0
M  V30 17544 C 1673.31 0.166889 1.93482 0
M  V30 17545 O 1672.59 -0.821331 1.76308 0
M  V30 17546 C 1672.87 2.61322 2.47755 0
M  V30 17547 C 1672.72 4.05848 1.93926 0
M  V30 17548 C 1674.04 2.67058 3.49812 0
M  V30 17549 H 1671.16 0.552253 0.488043 0
M  V30 17550 H 1673.8 1.78235 0.658201 0
M  V30 17551 H 1671.95 2.38822 3.06425 0
M  V30 17552 H 1673.62 4.39626 1.39736 0
M  V30 17553 H 1671.87 4.15468 1.24775 0
M  V30 17554 H 1672.54 4.78279 2.75596 0
M  V30 17555 H 1675.01 2.87276 3.01018 0
M  V30 17556 H 1673.89 3.45589 4.2645 0
M  V30 17557 H 1674.15 1.72993 4.06849 0
M  V30 17558 N 1673.21 -0.830057 1.33969 0
M  V30 17559 C 1674.49 -1.57112 1.16513 0
M  V30 17560 C 1674.87 -2.09429 -0.265075 0
M  V30 17561 O 1674.21 -1.90263 -1.26539 0
M  V30 17562 C 1674.42 -2.69808 2.2137 0
M  V30 17563 C 1675.77 -3.38761 2.55981 0
M  V30 17564 O 1676.8 -2.80058 2.20104 0
M  V30 17565 O 1675.66 -4.44753 3.1758 0
M  V30 17566 H 1672.75 -0.693066 0.451207 0
M  V30 17567 H 1675.3 -0.872048 1.4558 0
M  V30 17568 H 1674.07 -2.28852 3.17399 0
M  V30 17569 H 1673.69 -3.47372 1.93439 0
M  V30 17570 N 1674.69 -1.17582 -1.04939 0
M  V30 17571 C 1675.62 -0.918221 -2.14688 0
M  V30 17572 C 1676.6 0.140757 -1.69517 0
M  V30 17573 O 1677.78 -0.0100118 -1.94197 0
M  V30 17574 C 1674.91 -0.433531 -3.44584 0
M  V30 17575 C 1673.87 -1.43199 -4.03334 0
M  V30 17576 C 1673.19 -0.805154 -5.28603 0
M  V30 17577 C 1674.49 -2.80598 -4.40525 0
M  V30 17578 H 1676.19 -1.83604 -2.36495 0
M  V30 17579 H 1673.73 -0.884202 -1.13657 0
M  V30 17580 H 1675.69 -0.240722 -4.20712 0
M  V30 17581 H 1674.41 0.519832 -3.22437 0
M  V30 17582 H 1673.07 -1.61158 -3.29277 0
M  V30 17583 H 1672.72 0.155124 -5.02761 0
M  V30 17584 H 1672.42 -1.4717 -5.68871 0
M  V30 17585 H 1673.94 -0.622677 -6.07417 0
M  V30 17586 H 1675.36 -2.66341 -5.07676 0
M  V30 17587 H 1673.75 -3.43854 -4.91817 0
M  V30 17588 H 1674.82 -3.34815 -3.50752 0
M  V30 17589 N 1676.17 1.23705 -0.976463 0
M  V30 17590 C 1677.4 1.95771 -0.660107 0
M  V30 17591 C 1677.8 1.72541 0.776297 0
M  V30 17592 O 1677.15 1.01134 1.53355 0
M  V30 17593 C 1677.21 3.4892 -0.865752 0
M  V30 17594 C 1676.87 3.95862 -2.28347 0
M  V30 17595 C 1677.87 4.04844 -3.26186 0
M  V30 17596 C 1675.55 4.28953 -2.61351 0
M  V30 17597 C 1677.55 4.46265 -4.55111 0
M  V30 17598 C 1675.24 4.70057 -3.905 0
M  V30 17599 C 1676.23 4.78679 -4.87192 0
M  V30 17600 O 1675.92 5.1886 -6.14035 0
M  V30 17601 H 1675.65 0.630202 -0.244585 0
M  V30 17602 H 1678.21 1.58255 -1.30937 0
M  V30 17603 H 1676.44 3.86372 -0.159321 0
M  V30 17604 H 1678.13 4.02195 -0.547154 0
M  V30 17605 H 1678.89 3.79486 -3.02018 0
M  V30 17606 H 1674.77 4.21456 -1.86803 0
M  V30 17607 H 1678.32 4.5291 -5.30583 0
M  V30 17608 H 1674.21 4.94863 -4.14464 0
M  V30 17609 H 1674.98 5.36984 -6.1773 0
M  V30 17610 N 1677.64 0.747635 1.38738 0
M  V30 17611 C 1678.57 0.131317 2.3313 0
M  V30 17612 C 1679.55 -0.710229 1.54563 0
M  V30 17613 O 1680.74 -0.652631 1.82905 0
M  V30 17614 C 1677.87 -0.767168 3.38721 0
M  V30 17615 C 1676.82 -0.0288124 4.2799 0
M  V30 17616 C 1676.15 -1.04515 5.24386 0
M  V30 17617 C 1677.45 1.13608 5.09795 0
M  V30 17618 H 1679.14 0.91981 2.84921 0
M  V30 17619 H 1676.69 0.443764 1.36992 0
M  V30 17620 H 1678.64 -1.20796 4.03716 0
M  V30 17621 H 1677.37 -1.58792 2.85399 0
M  V30 17622 H 1676.03 0.392491 3.64493 0
M  V30 17623 H 1675.67 -1.8598 4.67355 0
M  V30 17624 H 1675.37 -0.555813 5.84965 0
M  V30 17625 H 1676.9 -1.48538 5.92257 0
M  V30 17626 H 1678.31 0.773129 5.68063 0
M  V30 17627 H 1676.71 1.55589 5.79579 0
M  V30 17628 H 1677.78 1.95182 4.43883 0
M  V30 17629 N 1679.12 -1.49583 0.496242 0
M  V30 17630 C 1680.37 -2.02738 -0.050037 0
M  V30 17631 C 1680.7 -1.37556 -1.37083 0
M  V30 17632 O 1679.98 -0.50964 -1.87704 0
M  V30 17633 C 1680.26 -3.59501 -0.207575 0
M  V30 17634 C 1680.11 -4.35218 1.13601 0
M  V30 17635 C 1681.43 -4.29715 -0.950443 0
M  V30 17636 H 1678.55 -0.736811 -0.0167105 0
M  V30 17637 H 1681.19 -1.78654 0.646728 0
M  V30 17638 H 1679.34 -3.80152 -0.801033 0
M  V30 17639 H 1681.01 -4.26075 1.76798 0
M  V30 17640 H 1679.26 -3.97964 1.72648 0
M  V30 17641 H 1679.93 -5.43247 0.979142 0
M  V30 17642 H 1682.4 -4.1369 -0.447173 0
M  V30 17643 H 1681.28 -5.39159 -1.02951 0
M  V30 17644 H 1681.54 -3.94627 -1.99304 0
M  V30 17645 N 1680.6 -0.229873 -1.55915 0
M  V30 17646 C 1681.83 0.404189 -2.02914 0
M  V30 17647 C 1682.24 1.52758 -1.10952 0
M  V30 17648 O 1681.6 1.82101 -0.120685 0
M  V30 17649 C 1681.65 0.928016 -3.49385 0
M  V30 17650 O 1681.37 -0.150592 -4.37841 0
M  V30 17651 C 1682.87 1.63448 -4.12067 0
M  V30 17652 H 1680.09 0.0980294 -0.663801 0
M  V30 17653 H 1682.64 -0.34876 -2.01504 0
M  V30 17654 H 1680.79 1.63121 -3.51384 0
M  V30 17655 H 1681.21 0.244429 -5.2393 0
M  V30 17656 H 1682.68 1.95292 -5.16299 0
M  V30 17657 H 1683.16 2.55055 -3.57553 0
M  V30 17658 H 1683.76 0.976292 -4.13943 0
M  V30 17659 N 1682.08 1.5754 0.0434337 0
M  V30 17660 C 1683.49 1.54537 0.398819 0
M  V30 17661 C 1683.69 0.954055 1.77483 0
M  V30 17662 O 1682.75 0.568839 2.46009 0
M  V30 17663 C 1684.06 2.99058 0.313848 0
M  V30 17664 C 1685.61 3.10536 0.39198 0
M  V30 17665 C 1686.09 4.56761 0.336614 0
M  V30 17666 N 1687.58 4.61505 0.395844 0
M  V30 17667 C 1688.31 5.72168 0.375669 0
M  V30 17668 N 1687.81 6.92112 0.30863 0
M  V30 17669 N 1689.6 5.60496 0.424335 0
M  V30 17670 H 1681.75 1.94333 -0.857225 0
M  V30 17671 H 1684.01 0.890708 -0.324566 0
M  V30 17672 H 1683.72 3.4599 -0.631159 0
M  V30 17673 H 1683.59 3.60402 1.11313 0
M  V30 17674 H 1685.98 2.6356 1.32742 0
M  V30 17675 H 1686.06 2.5205 -0.436391 0
M  V30 17676 H 1685.71 5.04402 -0.595093 0
M  V30 17677 H 1685.64 5.13142 1.1829 0
M  V30 17678 H 1688.13 3.75202 0.450753 0
M  V30 17679 H 1688.44 7.72225 0.29794 0
M  V30 17680 H 1686.79 6.94456 0.274891 0
M  V30 17681 H 1689.98 4.65688 0.474599 0
M  V30 17682 H 1690.15 6.46732 0.405143 0
M  V30 17683 N 1683.56 -0.31543 1.54411 0
M  V30 17684 C 1684.5 -1.4086 1.85098 0
M  V30 17685 C 1685.5 -1.53172 0.723518 0
M  V30 17686 O 1686.7 -1.55461 0.907303 0
M  V30 17687 H 1683.08 -0.47022 0.586853 0
M  V30 17688 H 1685.05 -1.12207 2.765 0
M  V30 17689 C 1683.8 -2.76948 2.10227 0
M  V30 17690 H 1683.12 -2.68251 2.96448 0
M  V30 17691 H 1684.56 -3.52486 2.35647 0
M  V30 17692 C 1683.02 -3.24758 0.896312 0
M  V30 17693 O 1683.55 -4.0155 0.109609 0
M  V30 17694 N 1681.76 -2.81901 0.705685 0
M  V30 17695 H 1681.3 -2.19571 1.34708 0
M  V30 17696 H 1681.26 -3.14242 -0.0996804 0
M  V30 17697 N 1685.03 -1.46622 -0.577906 0
M  V30 17698 C 1686 -1.57126 -1.66865 0
M  V30 17699 C 1687 -0.448004 -1.54433 0
M  V30 17700 O 1688.19 -0.712459 -1.58964 0
M  V30 17701 C 1685.32 -1.49612 -3.06315 0
M  V30 17702 H 1686.51 -2.54338 -1.58909 0
M  V30 17703 H 1684.07 -1.34504 -0.796142 0
M  V30 17704 H 1684.8 -0.536976 -3.19823 0
M  V30 17705 H 1684.59 -2.31113 -3.16748 0
M  V30 17706 H 1686.08 -1.60058 -3.85709 0
M  V30 17707 N 1686.51 0.822941 -1.34408 0
M  V30 17708 C 1687.79 1.56492 -1.17345 0
M  V30 17709 C 1688.17 2.09567 0.253965 0
M  V30 17710 O 1687.52 1.90931 1.25529 0
M  V30 17711 C 1687.73 2.6863 -2.22797 0
M  V30 17712 C 1689.08 3.37399 -2.57773 0
M  V30 17713 O 1690.1 2.78887 -2.21587 0
M  V30 17714 O 1688.96 4.43063 -3.19934 0
M  V30 17715 H 1686.05 0.690664 -0.454876 0
M  V30 17716 H 1688.6 0.864315 -1.4604 0
M  V30 17717 H 1687.37 2.27166 -3.18608 0
M  V30 17718 H 1686.99 3.46341 -1.95279 0
M  V30 17719 N 1687.99 1.18137 1.04314 0
M  V30 17720 C 1689.24 0.976648 1.77734 0
M  V30 17721 C 1689.57 -0.492756 1.87844 0
M  V30 17722 O 1688.84 -1.36586 1.38472 0
M  V30 17723 C 1689.13 1.62911 3.21142 0
M  V30 17724 C 1688.98 3.1712 3.1899 0
M  V30 17725 C 1690.3 1.34029 4.19195 0
M  V30 17726 H 1687.42 0.356217 0.645197 0
M  V30 17727 H 1690.06 1.45767 1.21868 0
M  V30 17728 H 1688.21 1.22009 3.68844 0
M  V30 17729 H 1689.88 3.67139 2.79296 0
M  V30 17730 H 1688.13 3.4941 2.57089 0
M  V30 17731 H 1688.8 3.57907 4.20245 0
M  V30 17732 H 1691.27 1.69463 3.80028 0
M  V30 17733 H 1690.15 1.82253 5.1776 0
M  V30 17734 H 1690.41 0.262712 4.41319 0
M  V30 17735 N 1689.47 -1.23186 0.98301 0
M  V30 17736 C 1690.72 -1.90979 0.648851 0
M  V30 17737 C 1691.03 -1.77508 -0.82159 0
M  V30 17738 O 1692.24 -2.40128 -1.26692 0
M  V30 17739 C 1690.69 -3.42357 1.10995 0
M  V30 17740 C 1690.3 -3.64483 2.60492 0
M  V30 17741 C 1692.04 -4.1591 0.849653 0
M  V30 17742 C 1689.95 -5.09511 3.00255 0
M  V30 17743 H 1688.88 -0.715125 0.238983 0
M  V30 17744 H 1691.53 -1.39575 1.19126 0
M  V30 17745 H 1689.91 -3.92885 0.495735 0
M  V30 17746 H 1691.09 -3.24491 3.27173 0
M  V30 17747 H 1689.4 -3.04245 2.84296 0
M  V30 17748 H 1692 -5.22784 1.12256 0
M  V30 17749 H 1692.34 -4.15748 -0.214237 0
M  V30 17750 H 1692.88 -3.71379 1.42557 0
M  V30 17751 H 1689.62 -5.14805 4.05778 0
M  V30 17752 H 1689.14 -5.50443 2.38269 0
M  V30 17753 H 1690.81 -5.77862 2.91005 0
M  V30 17754 N 1690.95 -0.754982 -1.38339 0
M  V30 17755 C 1692.36 -0.379276 -1.82807 0
M  V30 17756 C 1692.71 1.09228 -1.62984 0
M  V30 17757 O 1691.83 1.84445 -1.13177 0
M  V30 17758 C 1692.43 -0.681628 -3.31872 0
M  V30 17759 C 1690.99 -0.359183 -3.74682 0
M  V30 17760 C 1690.13 -0.93409 -2.61094 0
M  V30 17761 H 1693.09 -0.951019 -1.27048 0
M  V30 17762 H 1693.11 0.0396803 -3.80479 0
M  V30 17763 H 1692.62 -1.75271 -3.46268 0
M  V30 17764 H 1690.72 0.705257 -3.65865 0
M  V30 17765 H 1690.83 -0.85571 -4.71396 0
M  V30 17766 H 1689.2 -0.359379 -2.52152 0
M  V30 17767 H 1689.98 -2.01023 -2.78289 0
M  V30 17768 N 1692.42 1.49318 -0.504168 0
M  V30 17769 C 1693.67 2.02762 0.0392846 0
M  V30 17770 C 1694 1.38282 1.36352 0
M  V30 17771 O 1693.28 0.519587 1.87431 0
M  V30 17772 C 1693.56 3.59606 0.188507 0
M  V30 17773 C 1693.41 4.3461 -1.15908 0
M  V30 17774 C 1694.73 4.30213 0.927641 0
M  V30 17775 H 1691.85 0.736889 0.0128028 0
M  V30 17776 H 1694.49 1.78309 -0.656193 0
M  V30 17777 H 1692.64 3.80572 0.780861 0
M  V30 17778 H 1694.32 4.25132 -1.79055 0
M  V30 17779 H 1692.56 3.97043 -1.74756 0
M  V30 17780 H 1693.23 5.4272 -1.00794 0
M  V30 17781 H 1695.71 4.13922 0.425228 0
M  V30 17782 H 1694.58 5.39697 1.0009 0
M  V30 17783 H 1694.84 3.95678 1.97209 0
M  V30 17784 N 1693.9 0.238138 1.5579 0
M  V30 17785 C 1695.32 -0.116908 1.59171 0
M  V30 17786 C 1695.52 -1.57629 1.2552 0
M  V30 17787 O 1694.57 -2.31926 0.998332 0
M  V30 17788 C 1695.89 0.224366 2.99862 0
M  V30 17789 C 1697.44 0.16795 3.12549 0
M  V30 17790 C 1697.91 0.483132 4.55445 0
M  V30 17791 N 1699.4 0.43331 4.61169 0
M  V30 17792 C 1700.14 0.650461 5.69699 0
M  V30 17793 N 1699.63 0.930272 6.86526 0
M  V30 17794 N 1701.43 0.581764 5.59081 0
M  V30 17795 H 1693.58 1.18996 1.75936 0
M  V30 17796 H 1695.84 0.478169 0.818571 0
M  V30 17797 H 1695.55 1.23791 3.29194 0
M  V30 17798 H 1695.42 -0.452738 3.74473 0
M  V30 17799 H 1697.81 -0.836252 2.83003 0
M  V30 17800 H 1697.89 0.878776 2.40231 0
M  V30 17801 H 1697.53 1.48485 4.8571 0
M  V30 17802 H 1697.46 -0.249073 5.26011 0
M  V30 17803 H 1699.95 0.225412 3.77227 0
M  V30 17804 H 1700.27 1.08362 7.65165 0
M  V30 17805 H 1698.61 0.96765 6.88231 0
M  V30 17806 H 1701.8 0.363273 4.66688 0
M  V30 17807 H 1701.97 0.754398 6.43594 0
M  V30 17808 N 1695.38 -1.57561 -0.0350783 0
M  V30 17809 C 1696.8 -1.54746 -0.390618 0
M  V30 17810 C 1697 -0.963454 -1.76974 0
M  V30 17811 O 1696.05 -0.581878 -2.45704 0
M  V30 17812 C 1697.37 -2.9922 -0.297984 0
M  V30 17813 C 1698.91 -3.10739 -0.375506 0
M  V30 17814 C 1699.39 -4.56933 -0.312387 0
M  V30 17815 N 1700.88 -4.61709 -0.371364 0
M  V30 17816 C 1701.61 -5.72359 -0.34532 0
M  V30 17817 N 1701.11 -6.92266 -0.271921 0
M  V30 17818 N 1702.9 -5.60713 -0.394605 0
M  V30 17819 H 1695.05 -1.93876 0.867519 0
M  V30 17820 H 1697.32 -0.888974 0.329285 0
M  V30 17821 H 1697.02 -3.45651 0.649499 0
M  V30 17822 H 1696.9 -3.60987 -1.094 0
M  V30 17823 H 1699.28 -2.6426 -1.31342 0
M  V30 17824 H 1699.37 -2.51815 0.449752 0
M  V30 17825 H 1699.01 -5.04079 0.621834 0
M  V30 17826 H 1698.94 -5.13762 -1.15567 0
M  V30 17827 H 1701.43 -3.75436 -0.430848 0
M  V30 17828 H 1701.74 -7.72373 -0.256983 0
M  V30 17829 H 1700.09 -6.94592 -0.238058 0
M  V30 17830 H 1703.28 -4.65933 -0.449896 0
M  V30 17831 H 1703.45 -6.46938 -0.37084 0
M  V30 17832 N 1696.86 0.307236 -1.54576 0
M  V30 17833 C 1697.81 1.3787 -1.85096 0
M  V30 17834 C 1698.78 1.5066 -0.69935 0
M  V30 17835 O 1699.96 1.65618 -0.947373 0
M  V30 17836 C 1697.1 2.73976 -2.09836 0
M  V30 17837 C 1696.21 2.69687 -3.3748 0
M  V30 17838 C 1695.35 3.97746 -3.52096 0
M  V30 17839 C 1694.39 3.87829 -4.73556 0
M  V30 17840 N 1693.52 5.07651 -4.8501 0
M  V30 17841 H 1698.36 1.11144 -2.76498 0
M  V30 17842 H 1695.9 0.537696 -1.36921 0
M  V30 17843 H 1697.86 3.53121 -2.22174 0
M  V30 17844 H 1696.49 2.98977 -1.21707 0
M  V30 17845 H 1695.54 1.82441 -3.33795 0
M  V30 17846 H 1696.85 2.58247 -4.26743 0
M  V30 17847 H 1696.01 4.85327 -3.64065 0
M  V30 17848 H 1694.75 4.12012 -2.60955 0
M  V30 17849 H 1693.75 2.98633 -4.61626 0
M  V30 17850 H 1694.98 3.75114 -5.66098 0
M  V30 17851 H 1692.92 5.22393 -3.9679 0
M  V30 17852 H 1692.84 4.9861 -5.68264 0
M  V30 17853 H 1694.11 5.969 -5.01328 0
M  V30 17854 N 1698.34 1.46926 0.570122 0
M  V30 17855 C 1699.61 1.43365 1.33063 0
M  V30 17856 C 1699.99 0.123738 2.10737 0
M  V30 17857 O 1699.34 -0.894766 2.10253 0
M  V30 17858 C 1699.55 2.67122 2.24604 0
M  V30 17859 C 1700.9 3.13798 2.86035 0
M  V30 17860 O 1701.92 2.67759 2.34912 0
M  V30 17861 O 1700.78 3.93801 3.78923 0
M  V30 17862 H 1697.88 0.570726 0.598499 0
M  V30 17863 H 1700.42 1.5911 0.590095 0
M  V30 17864 H 1699.19 3.54005 1.66722 0
M  V30 17865 H 1698.82 2.53899 3.05976 0
M  V30 17866 N 1699.82 -0.815801 1.34842 0
M  V30 17867 C 1701.09 -1.55867 1.18173 0
M  V30 17868 C 1701.47 -2.09698 -0.242848 0
M  V30 17869 O 1700.82 -1.91594 -1.24514 0
M  V30 17870 C 1701.03 -2.67445 2.24219 0
M  V30 17871 C 1702.38 -3.36027 2.59559 0
M  V30 17872 O 1703.4 -2.77708 2.23062 0
M  V30 17873 O 1702.26 -4.4136 3.22279 0
M  V30 17874 H 1699.36 -0.688242 0.458533 0
M  V30 17875 H 1701.9 -0.856558 1.46496 0
M  V30 17876 H 1700.67 -2.25473 3.19809 0
M  V30 17877 H 1700.3 -3.453 1.97113 0
M  V30 17878 N 1701.29 -1.18689 -1.03686 0
M  V30 17879 C 1702.71 -0.937386 -1.29171 0
M  V30 17880 C 1702.91 0.394863 -1.97593 0
M  V30 17881 O 1701.97 1.12829 -2.25889 0
M  V30 17882 C 1703.28 -2.10568 -2.14666 0
M  V30 17883 C 1704.83 -2.14441 -2.28 0
M  V30 17884 C 1705.3 -3.30699 -3.16863 0
M  V30 17885 N 1706.79 -3.30584 -3.24451 0
M  V30 17886 C 1707.53 -4.17184 -3.93376 0
M  V30 17887 N 1707.02 -5.13924 -4.646 0
M  V30 17888 N 1708.82 -4.05086 -3.89694 0
M  V30 17889 H 1700.97 -2.04417 -0.576836 0
M  V30 17890 H 1703.23 -0.893404 -0.31707 0
M  V30 17891 H 1702.94 -3.06938 -1.71702 0
M  V30 17892 H 1702.81 -2.06955 -3.15356 0
M  V30 17893 H 1705.2 -1.18647 -2.70198 0
M  V30 17894 H 1705.28 -2.22111 -1.26888 0
M  V30 17895 H 1704.92 -4.26768 -2.75375 0
M  V30 17896 H 1704.85 -3.20266 -4.18016 0
M  V30 17897 H 1707.34 -2.60552 -2.73717 0
M  V30 17898 H 1707.66 -5.76368 -5.14801 0
M  V30 17899 H 1706 -5.1788 -4.63492 0
M  V30 17900 H 1709.19 -3.28793 -3.33186 0
M  V30 17901 H 1709.37 -4.72792 -4.43139 0
M  V30 17902 N 1702.77 1.22662 -0.989529 0
M  V30 17903 C 1704.19 1.43445 -0.699687 0
M  V30 17904 C 1704.39 1.87778 0.730875 0
M  V30 17905 O 1703.44 2.02953 1.5022 0
M  V30 17906 C 1704.76 2.47869 -1.70239 0
M  V30 17907 C 1706.3 2.61672 -1.71746 0
M  V30 17908 C 1706.78 3.69315 -2.7087 0
M  V30 17909 N 1708.27 3.76768 -2.69444 0
M  V30 17910 C 1709.01 4.59641 -3.42808 0
M  V30 17911 N 1708.5 5.46533 -4.25762 0
M  V30 17912 N 1710.29 4.53921 -3.3153 0
M  V30 17913 H 1702.45 0.921912 -1.91349 0
M  V30 17914 H 1704.71 0.466905 -0.825048 0
M  V30 17915 H 1704.41 2.22233 -2.7259 0
M  V30 17916 H 1704.29 3.46415 -1.49254 0
M  V30 17917 H 1706.68 2.86655 -0.70094 0
M  V30 17918 H 1706.76 1.63413 -1.96799 0
M  V30 17919 H 1706.4 3.4508 -3.72669 0
M  V30 17920 H 1706.33 4.67136 -2.43088 0
M  V30 17921 H 1708.82 3.1468 -2.09249 0
M  V30 17922 H 1709.13 6.06783 -4.78575 0
M  V30 17923 H 1707.48 5.46126 -4.2985 0
M  V30 17924 H 1710.67 3.85062 -2.66168 0
M  V30 17925 H 1710.84 5.18277 -3.88964 0
M  V30 17926 N 1704.25 0.762308 1.37937 0
M  V30 17927 C 1705.5 0.321732 1.99523 0
M  V30 17928 C 1705.82 -1.10286 1.60816 0
M  V30 17929 O 1705.09 -1.75565 0.869117 0
M  V30 17930 H 1703.67 0.115967 0.737943 0
M  V30 17931 H 1706.33 0.978339 1.68566 0
M  V30 17932 H 1705.43 0.391818 3.09631 0
M  V30 17933 N 1705.73 -1.49049 0.51208 0
M  V30 17934 C 1706.69 -2.27838 -0.249491 0
M  V30 17935 C 1707.69 -1.34321 -0.884004 0
M  V30 17936 O 1708.88 -1.57379 -0.74682 0
M  V30 17937 C 1706.01 -3.12637 -1.35908 0
M  V30 17938 H 1707.21 -2.96625 0.442029 0
M  V30 17939 H 1704.76 -1.53996 0.267406 0
M  V30 17940 H 1705.49 -2.48441 -2.0844 0
M  V30 17941 H 1705.28 -3.81408 -0.909427 0
M  V30 17942 H 1706.77 -3.72117 -1.89523 0
M  V30 17943 N 1707.21 -0.246397 -1.55662 0
M  V30 17944 C 1708.14 0.647563 -2.24341 0
M  V30 17945 C 1709.12 1.1817 -1.22352 0
M  V30 17946 O 1710.3 1.22114 -1.51003 0
M  V30 17947 C 1707.43 1.84485 -2.94249 0
M  V30 17948 C 1706.39 1.4435 -4.02923 0
M  V30 17949 C 1705.71 2.72158 -4.60255 0
M  V30 17950 C 1707.01 0.614951 -5.18667 0
M  V30 17951 H 1708.71 0.0748803 -2.99306 0
M  V30 17952 H 1706.25 0.034575 -1.43958 0
M  V30 17953 H 1708.2 2.47588 -3.40995 0
M  V30 17954 H 1706.93 2.4429 -2.16772 0
M  V30 17955 H 1705.59 0.835811 -3.56945 0
M  V30 17956 H 1705.24 3.3016 -3.79478 0
M  V30 17957 H 1704.94 2.46028 -5.33614 0
M  V30 17958 H 1706.46 3.36161 -5.09734 0
M  V30 17959 H 1707.87 1.15028 -5.61642 0
M  V30 17960 H 1706.27 0.449729 -5.98412 0
M  V30 17961 H 1707.34 -0.372943 -4.83464 0
M  V30 17962 N 1708.68 1.57577 0.026722 0
M  V30 17963 C 1709.61 2.09748 1.02605 0
M  V30 17964 C 1710.59 1.00054 1.37562 0
M  V30 17965 O 1711.78 1.2759 1.46405 0
M  V30 17966 C 1708.91 2.57881 2.32626 0
M  V30 17967 C 1707.86 3.7186 2.11905 0
M  V30 17968 C 1707.19 4.06208 3.47706 0
M  V30 17969 C 1708.49 5.00198 1.50332 0
M  V30 17970 H 1710.18 2.93494 0.591753 0
M  V30 17971 H 1707.73 1.41188 0.283199 0
M  V30 17972 H 1709.68 2.93 3.02868 0
M  V30 17973 H 1708.41 1.71222 2.7812 0
M  V30 17974 H 1707.07 3.37094 1.44096 0
M  V30 17975 H 1706.71 3.16611 3.90853 0
M  V30 17976 H 1706.41 4.82982 3.34667 0
M  V30 17977 H 1707.94 4.43863 4.19306 0
M  V30 17978 H 1709.35 5.33259 2.10494 0
M  V30 17979 H 1707.75 5.81599 1.4786 0
M  V30 17980 H 1708.82 4.82623 0.469405 0
M  V30 17981 N 1710.16 -0.299034 1.54737 0
M  V30 17982 C 1711.39 -1.05723 1.7843 0
M  V30 17983 C 1711.81 -1.80089 0.543094 0
M  V30 17984 O 1711.17 -1.74083 -0.506438 0
M  V30 17985 C 1711.22 -2.01193 2.99255 0
M  V30 17986 O 1710.32 -3.09528 2.72518 0
M  V30 17987 H 1709.66 -0.303614 0.590521 0
M  V30 17988 H 1712.19 -0.335859 2.01825 0
M  V30 17989 H 1712.2 -2.43623 3.27279 0
M  V30 17990 H 1710.88 -1.46472 3.89254 0
M  V30 17991 H 1709.45 -2.71599 2.55516 0
M  V30 17992 N 1711.64 -1.47227 -0.562322 0
M  V30 17993 C 1713.05 -1.47509 -1.14446 0
M  V30 17994 C 1713.4 -0.22699 -1.94883 0
M  V30 17995 O 1712.53 0.668483 -2.05816 0
M  V30 17996 C 1713.12 -2.67266 -2.08217 0
M  V30 17997 C 1711.68 -2.70524 -2.61713 0
M  V30 17998 C 1710.83 -2.4053 -1.37988 0
M  V30 17999 H 1713.78 -1.54811 -0.349185 0
M  V30 18000 H 1713.8 -2.43945 -2.92012 0
M  V30 18001 H 1713.31 -3.58089 -1.49646 0
M  V30 18002 H 1711.41 -1.83827 -3.24096 0
M  V30 18003 H 1711.53 -3.71072 -3.03056 0
M  V30 18004 H 1709.89 -1.91007 -1.68489 0
M  V30 18005 H 1710.67 -3.33554 -0.812177 0
M  V30 18006 N 1713.12 0.808639 -1.35273 0
M  V30 18007 C 1714.53 1.10389 -1.15267 0
M  V30 18008 C 1714.73 2.01467 0.0362501 0
M  V30 18009 O 1713.79 2.42386 0.707477 0
M  V30 18010 C 1715.1 1.73685 -2.45467 0
M  V30 18011 C 1716.65 1.86115 -2.51655 0
M  V30 18012 C 1717.13 2.52826 -3.81894 0
M  V30 18013 N 1718.62 2.60313 -3.83134 0
M  V30 18014 C 1719.35 3.12694 -4.80635 0
M  V30 18015 N 1718.85 3.6553 -5.88523 0
M  V30 18016 N 1720.64 3.11228 -4.68074 0
M  V30 18017 H 1712.79 0.203141 -2.11426 0
M  V30 18018 H 1715.05 0.152706 -0.93562 0
M  V30 18019 H 1714.76 1.14228 -3.32633 0
M  V30 18020 H 1714.63 2.73406 -2.59864 0
M  V30 18021 H 1717.02 2.44715 -1.64919 0
M  V30 18022 H 1717.1 0.852547 -2.41175 0
M  V30 18023 H 1716.75 1.94875 -4.69027 0
M  V30 18024 H 1716.68 3.54219 -3.89662 0
M  V30 18025 H 1719.17 2.22878 -3.05178 0
M  V30 18026 H 1719.48 4.03793 -6.58917 0
M  V30 18027 H 1717.83 3.63734 -5.92218 0
M  V30 18028 H 1721.02 2.69228 -3.82928 0
M  V30 18029 H 1721.19 3.51745 -5.44224 0
M  V30 18030 N 1714.6 1.19237 1.03055 0
M  V30 18031 C 1716.01 0.996569 1.57878 0
M  V30 18032 C 1716.36 -0.450987 1.90946 0
M  V30 18033 O 1715.48 -1.33009 1.70697 0
M  V30 18034 C 1716.08 1.80272 2.86858 0
M  V30 18035 C 1714.64 1.65097 3.3826 0
M  V30 18036 C 1713.78 1.79079 2.11721 0
M  V30 18037 H 1716.74 1.33633 0.856037 0
M  V30 18038 H 1716.76 1.29781 3.57683 0
M  V30 18039 H 1716.27 2.85621 2.62759 0
M  V30 18040 H 1714.37 0.623267 3.6735 0
M  V30 18041 H 1714.48 2.45527 4.11404 0
M  V30 18042 H 1712.85 1.22124 2.23512 0
M  V30 18043 H 1713.63 2.85885 1.90065 0
M  V30 18044 N 1716.07 -1.22136 0.99602 0
M  V30 18045 C 1717 -2.26463 0.568909 0
M  V30 18046 C 1717.99 -1.65189 -0.405783 0
M  V30 18047 O 1719.17 -1.91935 -0.295735 0
M  V30 18048 C 1716.3 -3.47112 -0.114166 0
M  V30 18049 C 1715.25 -4.20844 0.779387 0
M  V30 18050 C 1714.58 -5.34687 -0.0367787 0
M  V30 18051 C 1715.88 -4.79195 2.07773 0
M  V30 18052 H 1717.57 -2.62443 1.44097 0
M  V30 18053 H 1715.12 -1.26156 0.694314 0
M  V30 18054 H 1717.07 -4.19258 -0.424381 0
M  V30 18055 H 1715.8 -3.10238 -1.02079 0
M  V30 18056 H 1714.46 -3.50537 1.07329 0
M  V30 18057 H 1714.1 -4.94054 -0.94442 0
M  V30 18058 H 1713.8 -5.84944 0.558092 0
M  V30 18059 H 1715.33 -6.09647 -0.341016 0
M  V30 18060 H 1716.74 -5.43266 1.83126 0
M  V30 18061 H 1715.14 -5.39803 2.62169 0
M  V30 18062 H 1716.21 -3.99073 2.75442 0
M  V30 18063 N 1717.55 -0.769612 -1.37531 0
M  V30 18064 C 1718.78 -0.343069 -2.04543 0
M  V30 18065 C 1719.2 1.02583 -1.57665 0
M  V30 18066 O 1718.56 1.65692 -0.735915 0
M  V30 18067 C 1718.61 -0.392914 -3.58453 0
M  V30 18068 O 1717.71 0.607401 -4.07902 0
M  V30 18069 H 1717.05 -0.148905 -0.647088 0
M  V30 18070 H 1719.58 -1.04521 -1.75888 0
M  V30 18071 H 1719.59 -0.24945 -4.07237 0
M  V30 18072 H 1718.27 -1.39159 -3.91928 0
M  V30 18073 H 1716.85 0.427231 -3.70445 0
M  V30 18074 N 1719.03 1.48775 -0.519977 0
M  V30 18075 C 1720.26 2.06895 0.0139983 0
M  V30 18076 C 1720.67 1.37786 1.29075 0
M  V30 18077 O 1720.03 0.462168 1.76551 0
M  V30 18078 C 1720.08 3.60621 0.251999 0
M  V30 18079 O 1719.8 4.27132 -0.974158 0
M  V30 18080 C 1721.3 4.35508 0.827483 0
M  V30 18081 H 1718.52 0.670373 -0.0290011 0
M  V30 18082 H 1721.07 1.91302 -0.722762 0
M  V30 18083 H 1719.22 3.75853 0.938783 0
M  V30 18084 H 1719.64 5.19129 -0.748697 0
M  V30 18085 H 1721.11 5.43877 0.943492 0
M  V30 18086 H 1721.59 3.99261 1.82996 0
M  V30 18087 H 1722.19 4.24929 0.177578 0
M  V30 18088 N 1720.51 0.254649 1.55529 0
M  V30 18089 C 1721.44 -0.635656 2.24681 0
M  V30 18090 C 1722.42 -1.17519 1.22977 0
M  V30 18091 O 1723.6 -1.21311 1.51649 0
M  V30 18092 C 1720.73 -1.82922 2.95224 0
M  V30 18093 C 1719.69 -1.42212 4.03683 0
M  V30 18094 C 1719.01 -2.69713 4.61691 0
M  V30 18095 C 1720.31 -0.587436 5.18986 0
M  V30 18096 H 1722.01 -0.0590063 2.99342 0
M  V30 18097 H 1719.55 -0.02694 1.43975 0
M  V30 18098 H 1721.51 -2.45777 3.42304 0
M  V30 18099 H 1720.23 -2.43137 2.18064 0
M  V30 18100 H 1718.89 -0.81687 3.57383 0
M  V30 18101 H 1718.54 -3.28143 3.81223 0
M  V30 18102 H 1718.24 -2.43194 5.34911 0
M  V30 18103 H 1719.76 -3.33453 5.11509 0
M  V30 18104 H 1721.18 -1.12048 5.62244 0
M  V30 18105 H 1719.57 -0.417988 5.98643 0
M  V30 18106 H 1720.64 0.398577 4.83259 0
M  V30 18107 N 1721.99 -1.57589 -0.0183649 0
M  V30 18108 C 1722.93 -2.07252 -1.01563 0
M  V30 18109 C 1723.9 -0.963941 -1.35268 0
M  V30 18110 O 1725.09 -1.2352 -1.45421 0
M  V30 18111 C 1722.23 -2.56548 -2.30818 0
M  V30 18112 C 1721.34 -3.81238 -2.03178 0
M  V30 18113 C 1720.48 -4.19105 -3.26381 0
M  V30 18114 C 1719.52 -5.36682 -2.94344 0
M  V30 18115 N 1718.65 -5.6993 -4.1003 0
M  V30 18116 H 1723.49 -2.92198 -0.585179 0
M  V30 18117 H 1721.03 -1.44462 -0.27731 0
M  V30 18118 H 1722.99 -2.832 -3.06355 0
M  V30 18119 H 1721.62 -1.74504 -2.71566 0
M  V30 18120 H 1720.67 -3.61606 -1.1809 0
M  V30 18121 H 1721.98 -4.66886 -1.75552 0
M  V30 18122 H 1721.14 -4.46942 -4.10278 0
M  V30 18123 H 1719.87 -3.32129 -3.57129 0
M  V30 18124 H 1718.88 -5.08587 -2.08851 0
M  V30 18125 H 1720.1 -6.2532 -2.64862 0
M  V30 18126 H 1718.05 -4.85913 -4.40709 0
M  V30 18127 H 1717.97 -6.50111 -3.85865 0
M  V30 18128 H 1719.24 -6.02349 -4.94768 0
M  V30 18129 N 1723.46 0.290824 -1.54893 0
M  V30 18130 C 1724.71 1.02272 -1.74312 0
M  V30 18131 C 1725.03 1.87449 -0.537393 0
M  V30 18132 O 1724.3 1.90705 0.448135 0
M  V30 18133 H 1722.88 0.380592 -0.642774 0
M  V30 18134 H 1725.55 0.319353 -1.92266 0
M  V30 18135 H 1724.64 1.66997 -2.63663 0
M  V30 18136 N 1724.94 1.47523 0.554506 0
M  V30 18137 C 1726.17 1.58154 1.34172 0
M  V30 18138 C 1726.59 0.233124 1.8665 0
M  V30 18139 O 1725.95 -0.791439 1.63113 0
M  V30 18140 C 1726 2.61242 2.48566 0
M  V30 18141 O 1725.1 2.167 3.50877 0
M  V30 18142 H 1724.44 0.531184 0.398421 0
M  V30 18143 H 1726.97 1.93324 0.669841 0
M  V30 18144 H 1726.98 2.81746 2.95098 0
M  V30 18145 H 1725.66 3.59148 2.09727 0
M  V30 18146 H 1724.24 2.06305 3.10632 0
M  V30 18147 N 1726.42 -0.801453 1.357 0
M  V30 18148 C 1727.65 -1.59518 1.32547 0
M  V30 18149 C 1728.07 -1.87868 -0.0934243 0
M  V30 18150 O 1727.43 -1.46955 -1.06179 0
M  V30 18151 C 1727.48 -2.90028 2.14281 0
M  V30 18152 O 1726.58 -3.83086 1.52704 0
M  V30 18153 H 1725.92 -0.48434 0.454215 0
M  V30 18154 H 1728.45 -0.994315 1.78814 0
M  V30 18155 H 1728.46 -3.39406 2.26423 0
M  V30 18156 H 1727.14 -2.6872 3.17431 0
M  V30 18157 H 1725.71 -3.4165 1.49432 0
M  V30 18158 N 1727.9 -1.19782 -1.02421 0
M  V30 18159 C 1729.15 -1.00133 -1.7555 0
M  V30 18160 C 1729.47 0.468503 -1.89288 0
M  V30 18161 O 1728.74 1.3391 -1.42986 0
M  V30 18162 H 1727.32 -0.367513 -0.650341 0
M  V30 18163 H 1729.98 -1.50758 -1.23523 0
M  V30 18164 H 1729.08 -1.45329 -2.76199 0
M  V30 18165 N 1729.38 1.21606 -1.00248 0
M  V30 18166 C 1730.63 1.90231 -0.682401 0
M  V30 18167 C 1730.95 1.78324 0.78903 0
M  V30 18168 O 1730.22 1.17653 1.56635 0
M  V30 18169 H 1728.8 0.704132 -0.249414 0
M  V30 18170 H 1731.46 1.47751 -1.27105 0
M  V30 18171 H 1730.55 2.97183 -0.953351 0
M  V30 18172 N 1730.86 0.776895 1.37121 0
M  V30 18173 C 1732.27 0.408311 1.8218 0
M  V30 18174 C 1732.62 -1.06621 1.64701 0
M  V30 18175 O 1731.74 -1.82621 1.16097 0
M  V30 18176 C 1732.34 0.734339 3.30746 0
M  V30 18177 C 1730.9 0.418746 3.74063 0
M  V30 18178 C 1730.04 0.97551 2.59575 0
M  V30 18179 H 1732.99 0.971111 1.25519 0
M  V30 18180 H 1733.02 0.0208557 3.80494 0
M  V30 18181 H 1732.53 1.80757 3.43436 0
M  V30 18182 H 1730.63 -0.646961 3.6694 0
M  V30 18183 H 1730.74 0.930597 4.69975 0
M  V30 18184 H 1729.11 0.399449 2.51548 0
M  V30 18185 H 1729.89 2.05425 2.75056 0
M  V30 18186 N 1732.33 -1.48497 0.527859 0
M  V30 18187 C 1733.58 -2.02799 -0.00702196 0
M  V30 18188 C 1733.91 -1.40433 -1.34135 0
M  V30 18189 O 1733.19 -0.54934 -1.86581 0
M  V30 18190 C 1733.47 -3.59861 -0.131272 0
M  V30 18191 C 1733.32 -4.32711 1.22807 0
M  V30 18192 C 1734.64 -4.31634 -0.85908 0
M  V30 18193 H 1731.76 -0.736999 -0.00107787 0
M  V30 18194 H 1734.4 -1.77242 0.684478 0
M  V30 18195 H 1732.55 -3.81766 -0.720216 0
M  V30 18196 H 1734.23 -4.22229 1.85796 0
M  V30 18197 H 1732.47 -3.94212 1.8105 0
M  V30 18198 H 1733.14 -5.41047 1.09415 0
M  V30 18199 H 1735.62 -4.14546 -0.359322 0
M  V30 18200 H 1734.49 -5.41221 -0.914911 0
M  V30 18201 H 1734.75 -3.98765 -1.90889 0
M  V30 18202 N 1733.81 -0.262893 -1.55392 0
M  V30 18203 C 1734.74 0.623732 -2.25015 0
M  V30 18204 C 1735.72 1.16865 -1.23598 0
M  V30 18205 O 1736.91 1.20505 -1.5229 0
M  V30 18206 C 1734.04 1.81353 -2.9619 0
M  V30 18207 C 1732.99 1.40069 -4.04431 0
M  V30 18208 C 1732.32 2.67261 -4.63115 0
M  V30 18209 C 1733.62 0.559905 -5.1929 0
M  V30 18210 H 1735.31 0.0431306 -2.99369 0
M  V30 18211 H 1732.86 0.0193043 -1.43987 0
M  V30 18212 H 1734.81 2.43958 -3.43602 0
M  V30 18213 H 1733.53 2.41977 -2.1935 0
M  V30 18214 H 1732.19 0.797905 -3.57811 0
M  V30 18215 H 1731.84 3.26117 -3.82958 0
M  V30 18216 H 1731.54 2.40354 -5.36194 0
M  V30 18217 H 1733.07 3.30735 -5.1327 0
M  V30 18218 H 1734.48 1.09064 -5.6283 0
M  V30 18219 H 1732.88 0.386234 -5.98856 0
M  V30 18220 H 1733.95 -0.424199 -4.83041 0
M  V30 18221 N 1735.29 1.57597 0.0100073 0
M  V30 18222 C 1736.53 1.91983 0.701555 0
M  V30 18223 C 1736.89 0.863453 1.71489 0
M  V30 18224 O 1738.09 1.09225 2.45608 0
M  V30 18225 C 1736.37 3.31459 1.33678 0
M  V30 18226 S 1737.92 3.87714 2.05484 0
M  V30 18227 H 1734.74 0.672093 0.231975 0
M  V30 18228 H 1737.34 1.9545 -0.0442772 0
M  V30 18229 H 1736.05 4.06191 0.586295 0
M  V30 18230 H 1735.58 3.31342 2.12076 0
M  V30 18231 H 1737.59 3.6798 3.32874 0
M  V30 18232 N 1736.77 -0.282606 1.55045 0
M  V30 18233 C 1737.99 -1.03825 1.79542 0
M  V30 18234 C 1738.42 -1.79503 0.562165 0
M  V30 18235 O 1737.78 -1.7461 -0.487946 0
M  V30 18236 C 1737.82 -1.98007 3.01373 0
M  V30 18237 O 1736.93 -3.06621 2.75785 0
M  V30 18238 H 1736.27 -0.297333 0.593708 0
M  V30 18239 H 1738.8 -0.314434 2.02169 0
M  V30 18240 H 1738.81 -2.40138 3.29845 0
M  V30 18241 H 1737.48 -1.42335 3.90786 0
M  V30 18242 H 1736.06 -2.68874 2.58382 0
M  V30 18243 N 1738.25 -1.47815 -0.546675 0
M  V30 18244 C 1739.66 -1.33566 -0.873628 0
M  V30 18245 C 1739.86 -0.334067 -1.98711 0
M  V30 18246 O 1738.92 0.250675 -2.51253 0
M  V30 18247 C 1740.23 -2.73171 -1.25691 0
M  V30 18248 C 1741.78 -2.81535 -1.36774 0
M  V30 18249 C 1742.25 -4.21804 -1.78454 0
M  V30 18250 N 1743.74 -4.24396 -1.85586 0
M  V30 18251 C 1744.48 -5.29854 -2.19186 0
M  V30 18252 N 1743.98 -6.45606 -2.51326 0
M  V30 18253 N 1745.77 -5.17237 -2.2005 0
M  V30 18254 H 1737.92 -2.11564 0.188285 0
M  V30 18255 H 1740.18 -0.947754 0.0215773 0
M  V30 18256 H 1739.89 -3.47946 -0.512485 0
M  V30 18257 H 1739.76 -3.05622 -2.21077 0
M  V30 18258 H 1742.15 -2.07025 -2.10297 0
M  V30 18259 H 1742.23 -2.52724 -0.395504 0
M  V30 18260 H 1741.87 -4.96823 -1.05498 0
M  V30 18261 H 1741.8 -4.48046 -2.76699 0
M  V30 18262 H 1744.3 -3.40895 -1.63092 0
M  V30 18263 H 1744.61 -7.21825 -2.76022 0
M  V30 18264 H 1742.95 -6.48909 -2.48883 0
M  V30 18265 H 1746.14 -4.2583 -1.94387 0
M  V30 18266 H 1746.32 -5.99529 -2.45905 0
M  V30 18267 N 1739.72 0.794246 -1.36123 0
M  V30 18268 C 1740.97 1.54885 -1.29827 0
M  V30 18269 C 1741.29 1.94608 0.123517 0
M  V30 18270 O 1740.56 1.6457 1.06272 0
M  V30 18271 H 1739.14 0.574398 -0.477573 0
M  V30 18272 H 1741.8 0.946658 -1.70365 0
M  V30 18273 H 1740.9 2.45863 -1.92244 0
M  V30 18274 N 1741.2 1.20323 1.01785 0
M  V30 18275 C 1742.15 0.918588 2.08677 0
M  V30 18276 C 1743.14 -0.121089 1.60444 0
M  V30 18277 O 1744.33 0.086115 1.7679 0
M  V30 18278 C 1741.46 0.471136 3.40052 0
M  V30 18279 C 1740.54 1.54417 3.94989 0
M  V30 18280 N 1740.93 2.76628 4.23451 0
M  V30 18281 C 1739.23 1.41004 4.23124 0
M  V30 18282 C 1739.93 3.45834 4.67733 0
M  V30 18283 N 1738.91 2.73245 4.69934 0
M  V30 18284 H 1742.71 1.84727 2.28589 0
M  V30 18285 H 1740.22 1.09705 1.19744 0
M  V30 18286 H 1742.22 0.248624 4.16158 0
M  V30 18287 H 1740.88 -0.450936 3.21553 0
M  V30 18288 H 1741.89 3.13291 4.12395 0
M  V30 18289 H 1738.57 0.552281 4.13831 0
M  V30 18290 H 1739.96 4.50404 4.98584 0
M  V30 18291 N 1742.68 -1.21073 1.00892 0
M  V30 18292 C 1743.64 -2.21804 0.577543 0
M  V30 18293 C 1744.64 -1.56985 -0.348201 0
M  V30 18294 O 1745.83 -1.73653 -0.137947 0
M  V30 18295 C 1742.96 -3.40535 -0.157685 0
M  V30 18296 H 1744.16 -2.61483 1.46856 0
M  V30 18297 H 1741.71 -1.34402 0.79786 0
M  V30 18298 H 1742.45 -3.0635 -1.06397 0
M  V30 18299 H 1742.23 -3.88805 0.507238 0
M  V30 18300 H 1743.72 -4.152 -0.447109 0
M  V30 18301 N 1744.16 -0.784156 -1.36707 0
M  V30 18302 C 1745.4 -0.354658 -1.99675 0
M  V30 18303 C 1745.74 1.06948 -1.62098 0
M  V30 18304 O 1745.01 1.73798 -0.873192 0
M  V30 18305 C 1745.3 -0.512421 -3.56435 0
M  V30 18306 C 1745.15 -1.97987 -4.03883 0
M  V30 18307 C 1746.47 0.075762 -4.40035 0
M  V30 18308 H 1743.59 -0.130338 -0.725383 0
M  V30 18309 H 1746.23 -0.989515 -1.62199 0
M  V30 18310 H 1744.38 0.0280323 -3.8849 0
M  V30 18311 H 1746.05 -2.58098 -3.82339 0
M  V30 18312 H 1744.29 -2.48433 -3.55617 0
M  V30 18313 H 1744.96 -2.04125 -5.12871 0
M  V30 18314 H 1747.44 -0.385522 -4.1431 0
M  V30 18315 H 1746.32 -0.0646832 -5.48862 0
M  V30 18316 H 1746.58 1.16735 -4.2641 0
M  V30 18317 N 1745.64 1.48215 -0.535727 0
M  V30 18318 C 1746.88 2.021 -0.00372016 0
M  V30 18319 C 1747.21 1.41456 1.34221 0
M  V30 18320 O 1746.48 0.581987 1.87055 0
M  V30 18321 H 1745.06 0.746998 0.00161295 0
M  V30 18322 H 1747.72 1.81862 -0.700863 0
M  V30 18323 H 1746.81 3.11939 0.100352 0
M  V30 18324 N 1747.11 0.27113 1.5525 0
M  V30 18325 C 1748.04 -0.61179 2.25343 0
M  V30 18326 C 1749.03 -1.16208 1.24216 0
M  V30 18327 O 1750.21 -1.19696 1.52927 0
M  V30 18328 C 1747.34 -1.7978 2.97147 0
M  V30 18329 C 1746.29 -1.37922 4.05169 0
M  V30 18330 C 1745.62 -2.64801 4.64526 0
M  V30 18331 C 1746.92 -0.532357 5.1958 0
M  V30 18332 H 1748.61 -0.0272538 2.99388 0
M  V30 18333 H 1746.16 -0.0116681 1.43995 0
M  V30 18334 H 1748.11 -2.42132 3.44891 0
M  V30 18335 H 1746.84 -2.40811 2.20631 0
M  V30 18336 H 1745.5 -0.778918 3.5823 0
M  V30 18337 H 1745.14 -3.24081 3.84682 0
M  V30 18338 H 1744.84 -2.37507 5.37461 0
M  V30 18339 H 1746.37 -3.28009 5.15017 0
M  V30 18340 H 1747.78 -1.06078 5.63401 0
M  V30 18341 H 1746.18 -0.35447 5.99052 0
M  V30 18342 H 1747.25 0.44981 4.82809 0
M  V30 18343 N 1748.59 -1.576 -0.00164943 0
M  V30 18344 C 1749.84 -1.90496 -0.686842 0
M  V30 18345 C 1750.17 -0.871747 -1.7387 0
M  V30 18346 O 1749.42 0.123698 -1.95309 0
M  V30 18347 C 1749.72 -3.30147 -1.36886 0
M  V30 18348 C 1749.39 -4.48645 -0.450358 0
M  V30 18349 C 1748.05 -4.80795 -0.197461 0
M  V30 18350 C 1750.4 -5.20882 0.18214 0
M  V30 18351 C 1747.73 -5.82554 0.696255 0
M  V30 18352 C 1750.08 -6.23593 1.06372 0
M  V30 18353 C 1748.75 -6.54201 1.32581 0
M  V30 18354 H 1748.02 -0.697074 -0.251333 0
M  V30 18355 H 1750.66 -1.91425 0.0535238 0
M  V30 18356 H 1748.97 -3.25334 -2.18323 0
M  V30 18357 H 1750.66 -3.52859 -1.90504 0
M  V30 18358 H 1747.25 -4.23525 -0.657635 0
M  V30 18359 H 1751.44 -4.963 -0.000231234 0
M  V30 18360 H 1746.69 -6.0463 0.907337 0
M  V30 18361 H 1750.87 -6.78698 1.56018 0
M  V30 18362 H 1748.5 -7.3287 2.02002 0
M  V30 18363 N 1750.07 0.274379 -1.55193 0
M  V30 18364 C 1751.49 0.621497 -1.47002 0
M  V30 18365 C 1751.69 1.89572 -0.682995 0
M  V30 18366 O 1750.74 2.51696 -0.201296 0
M  V30 18367 C 1752.06 0.749741 -2.91203 0
M  V30 18368 C 1753.6 0.843886 -3.01409 0
M  V30 18369 C 1754.08 1.00392 -4.46862 0
M  V30 18370 N 1755.57 1.06947 -4.50684 0
M  V30 18371 C 1756.3 1.21207 -5.60443 0
M  V30 18372 N 1755.8 1.32195 -6.80071 0
M  V30 18373 N 1757.59 1.24307 -5.48183 0
M  V30 18374 H 1749.74 -0.562462 -2.04817 0
M  V30 18375 H 1752.01 -0.190205 -0.928723 0
M  V30 18376 H 1751.71 -0.116074 -3.51508 0
M  V30 18377 H 1751.59 1.63046 -3.40141 0
M  V30 18378 H 1753.97 1.70017 -2.41202 0
M  V30 18379 H 1754.06 -0.061411 -2.55726 0
M  V30 18380 H 1753.7 0.152298 -5.07672 0
M  V30 18381 H 1753.63 1.92384 -4.902 0
M  V30 18382 H 1756.12 0.997012 -3.64511 0
M  V30 18383 H 1756.43 1.42906 -7.59472 0
M  V30 18384 H 1754.78 1.29202 -6.82885 0
M  V30 18385 H 1757.97 1.15352 -4.53665 0
M  V30 18386 H 1758.14 1.35076 -6.33765 0
M  V30 18387 N 1751.55 1.48103 0.538828 0
M  V30 18388 C 1752.51 1.61495 1.62641 0
M  V30 18389 C 1753.51 0.488792 1.53191 0
M  V30 18390 O 1754.7 0.754355 1.57019 0
M  V30 18391 C 1751.83 1.57681 3.02241 0
M  V30 18392 H 1753.03 2.58462 1.5211 0
M  V30 18393 H 1750.58 1.36567 0.760201 0
M  V30 18394 H 1751.31 0.621583 3.18287 0
M  V30 18395 H 1751.1 2.3943 3.10509 0
M  V30 18396 H 1752.59 1.70228 3.81329 0
M  V30 18397 N 1753.03 -0.787016 1.36542 0
M  V30 18398 C 1753.99 -1.88136 1.3091 0
M  V30 18399 C 1754.99 -1.59339 0.216292 0
M  V30 18400 O 1756.18 -1.67706 0.471222 0
M  V30 18401 C 1753.31 -3.24969 1.02994 0
M  V30 18402 H 1754.5 -1.94546 2.28237 0
M  V30 18403 H 1752.06 -0.985084 1.2135 0
M  V30 18404 H 1752.79 -3.24242 0.0613497 0
M  V30 18405 H 1752.58 -3.47261 1.82078 0
M  V30 18406 H 1754.07 -4.05036 1.01664 0
M  V30 18407 N 1754.5 -1.20861 -1.01145 0
M  V30 18408 C 1755.75 -1.02343 -1.75082 0
M  V30 18409 C 1756.08 0.44278 -1.89085 0
M  V30 18410 O 1755.36 1.32867 -1.42045 0
M  V30 18411 C 1755.64 -1.71368 -3.1671 0
M  V30 18412 C 1755.49 -3.25466 -3.1047 0
M  V30 18413 C 1756.81 -1.45097 -4.15494 0
M  V30 18414 H 1753.93 -0.373198 -0.635525 0
M  V30 18415 H 1756.57 -1.48947 -1.17961 0
M  V30 18416 H 1754.72 -1.31746 -3.6548 0
M  V30 18417 H 1756.4 -3.74415 -2.69464 0
M  V30 18418 H 1754.64 -3.56104 -2.47735 0
M  V30 18419 H 1755.31 -3.68924 -4.10608 0
M  V30 18420 H 1757.79 -1.7948 -3.75401 0
M  V30 18421 H 1756.66 -1.95917 -5.12745 0
M  V30 18422 H 1756.92 -0.379628 -4.40467 0
M  V30 18423 N 1755.98 1.20536 -1.01532 0
M  V30 18424 C 1757.22 1.91582 -0.712451 0
M  V30 18425 C 1757.59 1.76995 0.744089 0
M  V30 18426 O 1758.79 2.4251 1.15942 0
M  V30 18427 C 1757.06 3.38914 -1.13454 0
M  V30 18428 S 1758.62 4.28316 -0.953443 0
M  V30 18429 H 1755.44 0.661843 -0.259779 0
M  V30 18430 H 1758.04 1.45808 -1.30232 0
M  V30 18431 H 1756.74 3.47051 -2.19052 0
M  V30 18432 H 1756.27 3.89712 -0.537396 0
M  V30 18433 H 1758.29 4.95992 0.143722 0
M  V30 18434 N 1757.46 0.791395 1.36289 0
M  V30 18435 C 1758.42 0.197069 2.28351 0
M  V30 18436 C 1759.42 -0.606748 1.48913 0
M  V30 18437 O 1760.61 -0.427453 1.68874 0
M  V30 18438 C 1757.75 -0.727009 3.33058 0
M  V30 18439 H 1758.94 1.00885 2.82422 0
M  V30 18440 H 1756.49 0.560959 1.45887 0
M  V30 18441 H 1757.23 -1.56306 2.84146 0
M  V30 18442 H 1757.01 -0.152537 3.91803 0
M  V30 18443 H 1758.5 -1.13765 4.01805 0
M  V30 18444 N 1758.94 -1.47929 0.54358 0
M  V30 18445 C 1760.36 -1.58312 0.202376 0
M  V30 18446 C 1760.56 -1.54394 -1.29479 0
M  V30 18447 O 1759.61 -1.44015 -2.07403 0
M  V30 18448 C 1760.92 -2.89389 0.816958 0
M  V30 18449 C 1762.47 -3.02946 0.786935 0
M  V30 18450 C 1762.95 -4.36704 1.38034 0
M  V30 18451 N 1764.44 -4.43306 1.34291 0
M  V30 18452 C 1765.17 -5.45339 1.77182 0
M  V30 18453 N 1764.67 -6.54255 2.27866 0
M  V30 18454 N 1766.46 -5.36302 1.68336 0
M  V30 18455 H 1758.61 -1.48719 1.51646 0
M  V30 18456 H 1760.88 -0.706966 0.631587 0
M  V30 18457 H 1760.58 -2.97953 1.86861 0
M  V30 18458 H 1760.46 -3.75989 0.30198 0
M  V30 18459 H 1762.84 -2.93988 -0.25599 0
M  V30 18460 H 1762.92 -2.17923 1.33953 0
M  V30 18461 H 1762.57 -4.46418 2.42226 0
M  V30 18462 H 1762.5 -5.20437 0.803308 0
M  V30 18463 H 1764.99 -3.65185 0.972033 0
M  V30 18464 H 1765.3 -7.28265 2.58552 0
M  V30 18465 H 1763.65 -6.55181 2.31868 0
M  V30 18466 H 1766.84 -4.50109 1.28527 0
M  V30 18467 H 1767.01 -6.15684 2.02082 0
M  V30 18468 N 1760.42 -0.27936 -1.55104 0
M  V30 18469 C 1761.67 0.335541 -1.99295 0
M  V30 18470 C 1761.99 1.56059 -1.16921 0
M  V30 18471 O 1761.26 1.9417 -0.259773 0
M  V30 18472 H 1759.84 0.126968 -0.736131 0
M  V30 18473 H 1762.5 -0.385679 -1.91046 0
M  V30 18474 H 1761.59 0.622493 -3.05829 0
M  V30 18475 N 1761.9 1.57599 -0.0067085 0
M  V30 18476 C 1763.14 1.9114 0.677733 0
M  V30 18477 C 1763.47 0.881328 1.7305 0
M  V30 18478 O 1762.75 -0.099049 1.94248 0
M  V30 18479 C 1763.03 3.35241 1.31474 0
M  V30 18480 C 1762.89 4.4897 0.273055 0
M  V30 18481 C 1764.2 3.78886 2.23905 0
M  V30 18482 H 1761.32 0.695119 0.244907 0
M  V30 18483 H 1763.97 1.89907 -0.059378 0
M  V30 18484 H 1762.12 3.36423 1.94299 0
M  V30 18485 H 1763.79 4.59924 -0.356031 0
M  V30 18486 H 1762.03 4.31915 -0.403961 0
M  V30 18487 H 1762.7 5.46772 0.757941 0
M  V30 18488 H 1765.18 3.79299 1.7109 0
M  V30 18489 H 1764.05 4.80451 2.65439 0
M  V30 18490 H 1764.31 3.13129 3.12094 0
M  V30 18491 N 1763.37 -0.266145 1.55336 0
M  V30 18492 C 1764.34 -1.31242 1.87904 0
M  V30 18493 C 1765.34 -1.42022 0.754083 0
M  V30 18494 O 1766.53 -1.41054 1.02222 0
M  V30 18495 C 1763.66 -2.69285 2.09041 0
M  V30 18496 H 1764.85 -1.03592 2.81441 0
M  V30 18497 H 1762.4 -0.504537 1.47933 0
M  V30 18498 H 1763.14 -3.02106 1.17909 0
M  V30 18499 H 1762.92 -2.62846 2.90954 0
M  V30 18500 H 1764.41 -3.4487 2.35488 0
M  V30 18501 N 1764.85 -1.48386 -0.530967 0
M  V30 18502 C 1765.8 -1.62835 -1.63564 0
M  V30 18503 C 1766.77 -0.470453 -1.59298 0
M  V30 18504 O 1767.95 -0.693813 -1.77738 0
M  V30 18505 C 1765.09 -1.67314 -3.01828 0
M  V30 18506 C 1764.21 -2.94204 -3.16335 0
M  V30 18507 C 1763.34 -2.8985 -4.45152 0
M  V30 18508 C 1762.38 -4.11449 -4.53185 0
M  V30 18509 N 1761.52 -4.05178 -5.7339 0
M  V30 18510 H 1766.36 -2.57172 -1.50554 0
M  V30 18511 H 1763.89 -1.27537 -0.732991 0
M  V30 18512 H 1765.85 -1.67892 -3.81927 0
M  V30 18513 H 1764.48 -0.764688 -3.13612 0
M  V30 18514 H 1763.53 -3.03375 -2.29495 0
M  V30 18515 H 1764.85 -3.84179 -3.18132 0
M  V30 18516 H 1764 -2.88824 -5.33541 0
M  V30 18517 H 1762.74 -1.97602 -4.45875 0
M  V30 18518 H 1761.74 -4.12751 -3.63203 0
M  V30 18519 H 1762.97 -5.04855 -4.54201 0
M  V30 18520 H 1760.92 -3.15749 -5.75012 0
M  V30 18521 H 1760.83 -4.88857 -5.76676 0
M  V30 18522 H 1762.1 -4.08209 -6.64067 0
M  V30 18523 N 1766.33 0.779763 -1.36958 0
M  V30 18524 C 1767.55 1.57389 -1.35068 0
M  V30 18525 C 1767.98 1.87993 0.0635244 0
M  V30 18526 O 1767.34 1.48625 1.03828 0
M  V30 18527 C 1767.39 2.86582 -2.18868 0
M  V30 18528 O 1766.49 3.80609 -1.58779 0
M  V30 18529 H 1765.83 0.477052 -0.461863 0
M  V30 18530 H 1768.36 0.965741 -1.80373 0
M  V30 18531 H 1768.37 3.35761 -2.31794 0
M  V30 18532 H 1767.05 2.63635 -3.21666 0
M  V30 18533 H 1765.62 3.39229 -1.54848 0
M  V30 18534 N 1767.81 1.21396 1.00503 0
M  V30 18535 C 1769.06 1.02536 1.73693 0
M  V30 18536 C 1769.37 -0.441584 1.9055 0
M  V30 18537 O 1770.58 -0.749579 2.60947 0
M  V30 18538 C 1769.03 1.78602 3.12457 0
M  V30 18539 C 1768.64 3.29466 3.03573 0
M  V30 18540 C 1770.38 1.68149 3.89777 0
M  V30 18541 C 1768.29 3.98021 4.37416 0
M  V30 18542 H 1767.22 0.380052 0.651212 0
M  V30 18543 H 1769.87 1.4513 1.12292 0
M  V30 18544 H 1768.25 1.288 3.74468 0
M  V30 18545 H 1769.43 3.8657 2.50799 0
M  V30 18546 H 1767.74 3.4046 2.39741 0
M  V30 18547 H 1770.34 2.167 4.8882 0
M  V30 18548 H 1770.68 0.639716 4.11355 0
M  V30 18549 H 1771.22 2.15428 3.34418 0
M  V30 18550 H 1767.95 5.02401 4.21039 0
M  V30 18551 H 1767.47 3.45706 4.9015 0
M  V30 18552 H 1769.15 4.02932 5.06216 0
M  V30 18553 N 1769.29 -1.19996 1.0217 0
M  V30 18554 C 1770.56 -1.85214 0.628894 0
M  V30 18555 C 1770.94 -1.91292 -0.892784 0
M  V30 18556 O 1770.29 -1.42455 -1.78658 0
M  V30 18557 C 1770.5 -3.24576 1.28262 0
M  V30 18558 C 1771.85 -4.0081 1.4013 0
M  V30 18559 O 1772.87 -3.33948 1.23923 0
M  V30 18560 O 1771.73 -5.20561 1.66368 0
M  V30 18561 H 1768.83 -0.797842 0.217664 0
M  V30 18562 H 1771.37 -1.27544 1.1194 0
M  V30 18563 H 1770.14 -3.14947 2.32216 0
M  V30 18564 H 1769.77 -3.89884 0.77952 0
M  V30 18565 N 1770.76 -0.798611 -1.35867 0
M  V30 18566 C 1772.01 -0.37526 -1.98993 0
M  V30 18567 C 1772.34 1.05549 -1.6337 0
M  V30 18568 O 1771.59 1.74552 -0.88488 0
M  V30 18569 C 1771.89 -0.496572 -3.53934 0
M  V30 18570 C 1771.56 -1.88946 -4.09402 0
M  V30 18571 C 1770.22 -2.27056 -4.24263 0
M  V30 18572 C 1772.57 -2.8011 -4.39531 0
M  V30 18573 C 1769.9 -3.55712 -4.66568 0
M  V30 18574 C 1772.25 -4.08205 -4.83272 0
M  V30 18575 C 1770.92 -4.46323 -4.96338 0
M  V30 18576 H 1770.19 -0.137317 -0.728165 0
M  V30 18577 H 1772.83 -1.01786 -1.6221 0
M  V30 18578 H 1771.14 0.229499 -3.91127 0
M  V30 18579 H 1772.84 -0.149903 -4.0072 0
M  V30 18580 H 1769.43 -1.58336 -3.98281 0
M  V30 18581 H 1773.61 -2.51919 -4.2761 0
M  V30 18582 H 1768.87 -3.85105 -4.74873 0
M  V30 18583 H 1773.04 -4.78952 -5.05547 0
M  V30 18584 H 1770.67 -5.4607 -5.28877 0
M  V30 18585 N 1772.24 1.47639 -0.551417 0
M  V30 18586 C 1773.49 2.01687 -0.0230887 0
M  V30 18587 C 1773.8 1.43178 1.33265 0
M  V30 18588 O 1775.01 1.88853 1.95056 0
M  V30 18589 C 1773.47 3.59899 0.00918719 0
M  V30 18590 C 1773.07 4.27398 -1.34295 0
M  V30 18591 C 1774.82 4.21718 0.485213 0
M  V30 18592 C 1772.72 5.77601 -1.2701 0
M  V30 18593 H 1771.65 0.753984 -0.00486122 0
M  V30 18594 H 1774.31 1.6969 -0.698405 0
M  V30 18595 H 1772.69 3.88832 0.75003 0
M  V30 18596 H 1773.86 4.10113 -2.10105 0
M  V30 18597 H 1772.18 3.77542 -1.75644 0
M  V30 18598 H 1774.77 5.3178 0.558025 0
M  V30 18599 H 1775.12 3.88495 1.4959 0
M  V30 18600 H 1775.65 3.97294 -0.200594 0
M  V30 18601 H 1772.39 6.15433 -2.2566 0
M  V30 18602 H 1771.91 5.97239 -0.553709 0
M  V30 18603 H 1773.59 6.39692 -0.969726 0
M  V30 18604 N 1773.72 0.287581 1.54954 0
M  V30 18605 C 1775.13 -0.207733 1.85541 0
M  V30 18606 C 1775.48 -1.54478 1.20959 0
M  V30 18607 O 1774.61 -2.10487 0.502399 0
M  V30 18608 C 1775.2 -0.383701 3.3662 0
M  V30 18609 C 1773.76 -0.82324 3.67287 0
M  V30 18610 C 1772.91 0.0762579 2.77195 0
M  V30 18611 H 1775.86 0.509004 1.50316 0
M  V30 18612 H 1775.88 -1.22036 3.60399 0
M  V30 18613 H 1775.39 0.589575 3.83596 0
M  V30 18614 H 1773.49 -1.80754 3.2582 0
M  V30 18615 H 1773.61 -0.651925 4.74644 0
M  V30 18616 H 1771.97 -0.44219 2.50832 0
M  V30 18617 H 1772.75 1.04564 3.26988 0
M  V30 18618 N 1775.2 -1.57593 0.0150662 0
M  V30 18619 C 1776.44 -1.91497 -0.667587 0
M  V30 18620 C 1776.78 -0.890493 -1.7258 0
M  V30 18621 O 1776.05 0.0887462 -1.94297 0
M  V30 18622 C 1776.34 -3.35934 -1.29694 0
M  V30 18623 C 1776.19 -4.49109 -0.249242 0
M  V30 18624 C 1777.51 -3.80068 -2.21893 0
M  V30 18625 H 1774.63 -0.696408 -0.241217 0
M  V30 18626 H 1777.27 -1.89873 0.0694484 0
M  V30 18627 H 1775.42 -3.37448 -1.92512 0
M  V30 18628 H 1777.09 -4.59729 0.380417 0
M  V30 18629 H 1775.33 -4.31695 0.426861 0
M  V30 18630 H 1776 -5.47166 -0.728934 0
M  V30 18631 H 1778.48 -3.80201 -1.69076 0
M  V30 18632 H 1777.36 -4.81852 -2.62887 0
M  V30 18633 H 1777.62 -3.1478 -3.10429 0
M  V30 18634 N 1776.68 0.257904 -1.55475 0
M  V30 18635 C 1777.59 1.34084 -1.92506 0
M  V30 18636 C 1778.6 1.53246 -0.824123 0
M  V30 18637 O 1779.78 1.67081 -1.12455 0
M  V30 18638 C 1776.84 2.67741 -2.20263 0
M  V30 18639 C 1775.9 2.57196 -3.43728 0
M  V30 18640 C 1775.14 3.84479 -3.7015 0
M  V30 18641 O 1775.36 4.85858 -2.98827 0
M  V30 18642 O 1774.29 3.83774 -4.63682 0
M  V30 18643 H 1778.12 1.05672 -2.84723 0
M  V30 18644 H 1775.71 0.457726 -1.42215 0
M  V30 18645 H 1777.59 3.46743 -2.39473 0
M  V30 18646 H 1776.26 2.95907 -1.31227 0
M  V30 18647 H 1775.17 1.76518 -3.29837 0
M  V30 18648 H 1776.5 2.33977 -4.33031 0
M  V30 18649 N 1778.15 1.48666 0.52309 0
M  V30 18650 C 1779.38 1.60965 1.30787 0
M  V30 18651 C 1779.8 0.272663 1.86113 0
M  V30 18652 O 1779.16 -0.756662 1.64755 0
M  V30 18653 C 1779.21 2.66455 2.42969 0
M  V30 18654 O 1778.31 2.24094 3.46202 0
M  V30 18655 H 1777.66 0.539516 0.387064 0
M  V30 18656 H 1780.19 1.94702 0.628683 0
M  V30 18657 H 1780.2 2.87942 2.89056 0
M  V30 18658 H 1778.87 3.63516 2.02062 0
M  V30 18659 H 1777.45 2.12848 3.06186 0
M  V30 18660 N 1779.63 -0.772489 1.37369 0
M  V30 18661 C 1780.56 -1.89969 1.35772 0
M  V30 18662 C 1781.54 -1.68586 0.226452 0
M  V30 18663 O 1782.73 -1.89454 0.426692 0
M  V30 18664 C 1779.86 -3.27242 1.16319 0
M  V30 18665 C 1778.81 -3.63187 2.2645 0
M  V30 18666 C 1778.14 -4.98992 1.92121 0
M  V30 18667 C 1779.44 -3.70013 3.6863 0
M  V30 18668 H 1781.13 -1.91564 2.30095 0
M  V30 18669 H 1778.68 -0.920241 1.10759 0
M  V30 18670 H 1780.63 -4.05734 1.13832 0
M  V30 18671 H 1779.36 -3.26078 0.184513 0
M  V30 18672 H 1778.01 -2.87001 2.28091 0
M  V30 18673 H 1777.66 -4.94368 0.927848 0
M  V30 18674 H 1777.36 -5.24012 2.65867 0
M  V30 18675 H 1778.89 -5.79886 1.91219 0
M  V30 18676 H 1780.3 -4.38659 3.69122 0
M  V30 18677 H 1778.7 -4.06529 4.41423 0
M  V30 18678 H 1779.77 -2.70694 4.02309 0
M  V30 18679 N 1781.11 -1.21927 -0.998575 0
M  V30 18680 C 1782.39 -0.949034 -1.71034 0
M  V30 18681 C 1782.77 0.537429 -2.04144 0
M  V30 18682 O 1782.12 1.50398 -1.72026 0
M  V30 18683 C 1782.33 -1.84076 -2.96508 0
M  V30 18684 C 1783.67 -2.09345 -3.69405 0
M  V30 18685 O 1784.7 -1.81477 -3.06504 0
M  V30 18686 O 1783.56 -2.56513 -4.82559 0
M  V30 18687 H 1780.65 -0.356423 -0.746252 0
M  V30 18688 H 1783.2 -1.32886 -1.05543 0
M  V30 18689 H 1781.97 -2.84647 -2.68499 0
M  V30 18690 H 1781.59 -1.46215 -3.69739 0
M  V30 18691 N 1782.59 1.19452 -1.02805 0
M  V30 18692 C 1783.83 1.89394 -0.725101 0
M  V30 18693 C 1784.17 1.79368 0.744361 0
M  V30 18694 O 1783.44 1.18548 1.54196 0
M  V30 18695 C 1783.73 3.40361 -1.17586 0
M  V30 18696 C 1783.58 3.59263 -2.70648 0
M  V30 18697 C 1784.9 4.33558 -0.756011 0
M  V30 18698 H 1782.02 0.687753 -0.264887 0
M  V30 18699 H 1784.66 1.40611 -1.27783 0
M  V30 18700 H 1782.81 3.82038 -0.70561 0
M  V30 18701 H 1784.48 3.26762 -3.25614 0
M  V30 18702 H 1782.72 3.02344 -3.1108 0
M  V30 18703 H 1783.39 4.65135 -2.97244 0
M  V30 18704 H 1785.87 3.9959 -1.16046 0
M  V30 18705 H 1784.75 5.37779 -1.09931 0
M  V30 18706 H 1785.01 4.40778 0.341677 0
M  V30 18707 N 1784.07 0.805805 1.35442 0
M  V30 18708 C 1785.03 0.221278 2.28129 0
M  V30 18709 C 1786.03 -0.590919 1.49549 0
M  V30 18710 O 1787.22 -0.409518 1.69318 0
M  V30 18711 C 1784.35 -0.691643 3.3381 0
M  V30 18712 H 1785.54 1.03875 2.81336 0
M  V30 18713 H 1783.1 0.5764 1.45284 0
M  V30 18714 H 1783.83 -1.53283 2.85788 0
M  V30 18715 H 1783.62 -0.110972 3.91943 0
M  V30 18716 H 1785.11 -1.09497 4.02989 0
M  V30 18717 N 1785.54 -1.47344 0.559239 0
M  V30 18718 C 1786.77 -2.0686 0.0408612 0
M  V30 18719 C 1787.19 -1.4116 -1.25376 0
M  V30 18720 O 1786.54 -0.508814 -1.75264 0
M  V30 18721 C 1786.6 -3.61162 -0.156298 0
M  V30 18722 O 1786.32 -4.24399 1.08706 0
M  V30 18723 C 1787.82 -4.37549 -0.711725 0
M  V30 18724 H 1785.04 -0.669368 0.0467647 0
M  V30 18725 H 1787.58 -1.89318 0.773229 0
M  V30 18726 H 1785.74 -3.7821 -0.838802 0
M  V30 18727 H 1786.15 -5.16961 0.886072 0
M  V30 18728 H 1787.62 -5.46187 -0.798961 0
M  V30 18729 H 1788.1 -4.03972 -1.72346 0
M  V30 18730 H 1788.71 -4.25251 -0.0648534 0
M  V30 18731 N 1787.02 -0.295795 -1.54799 0
M  V30 18732 C 1788.44 0.0577516 -1.59495 0
M  V30 18733 C 1788.64 1.52862 -1.31284 0
M  V30 18734 O 1787.69 2.28061 -1.08372 0
M  V30 18735 C 1789.01 -0.335503 -2.98822 0
M  V30 18736 C 1790.56 -0.283835 -3.1171 0
M  V30 18737 C 1791.03 -0.651835 -4.53338 0
M  V30 18738 N 1792.52 -0.604171 -4.59243 0
M  V30 18739 C 1793.26 -0.861453 -5.66892 0
M  V30 18740 N 1792.75 -1.18443 -6.826 0
M  V30 18741 N 1794.55 -0.788863 -5.56537 0
M  V30 18742 H 1786.7 -1.25444 -1.71399 0
M  V30 18743 H 1788.96 -0.50822 -0.80026 0
M  V30 18744 H 1788.67 -1.35923 -3.24373 0
M  V30 18745 H 1788.54 0.313443 -3.75895 0
M  V30 18746 H 1790.93 0.730641 -2.85912 0
M  V30 18747 H 1791.01 -0.967331 -2.36804 0
M  V30 18748 H 1790.65 -1.66409 -4.79865 0
M  V30 18749 H 1790.58 0.053676 -5.26573 0
M  V30 18750 H 1793.07 -0.365262 -3.76131 0
M  V30 18751 H 1793.39 -1.36686 -7.60616 0
M  V30 18752 H 1791.73 -1.22242 -6.84165 0
M  V30 18753 H 1794.92 -0.536231 -4.65018 0
M  V30 18754 H 1795.09 -0.992744 -6.4035 0
M  V30 18755 N 1788.5 1.57583 -0.0234236 0
M  V30 18756 C 1789.73 1.95861 0.666797 0
M  V30 18757 C 1790.14 0.899616 1.65989 0
M  V30 18758 O 1789.5 -0.119162 1.82111 0
M  V30 18759 C 1789.55 3.34198 1.37818 0
M  V30 18760 O 1789.27 4.36035 0.424887 0
M  V30 18761 C 1790.77 3.87074 2.16075 0
M  V30 18762 H 1787.99 0.645213 0.184233 0
M  V30 18763 H 1790.54 2.04338 -0.0814987 0
M  V30 18764 H 1788.69 3.26958 2.07792 0
M  V30 18765 H 1789.11 5.162 0.929394 0
M  V30 18766 H 1790.58 4.8623 2.61312 0
M  V30 18767 H 1791.06 3.21017 2.99741 0
M  V30 18768 H 1791.66 3.97565 1.5107 0
M  V30 18769 N 1789.98 -0.249655 1.5561 0
M  V30 18770 C 1791.39 -0.818934 1.67781 0
M  V30 18771 C 1791.74 -1.86134 0.620374 0
M  V30 18772 O 1790.87 -2.15133 -0.233869 0
M  V30 18773 C 1791.46 -1.49219 3.0417 0
M  V30 18774 C 1790.02 -2.0092 3.18289 0
M  V30 18775 C 1789.17 -0.859333 2.63649 0
M  V30 18776 H 1792.12 -0.0255186 1.58679 0
M  V30 18777 H 1792.14 -2.36011 2.98461 0
M  V30 18778 H 1791.65 -0.733268 3.8111 0
M  V30 18779 H 1789.75 -2.79701 2.46167 0
M  V30 18780 H 1789.87 -2.20848 4.25163 0
M  V30 18781 H 1788.23 -1.2591 2.21402 0
M  V30 18782 H 1789.01 -0.113545 3.43112 0
M  V30 18783 N 1791.46 -1.48941 -0.515198 0
M  V30 18784 C 1792.68 -1.61656 -1.29931 0
M  V30 18785 C 1793.11 -0.282529 -1.85966 0
M  V30 18786 O 1792.47 0.747914 -1.65154 0
M  V30 18787 C 1792.51 -2.6774 -2.41553 0
M  V30 18788 O 1791.62 -2.25926 -3.45009 0
M  V30 18789 H 1790.96 -0.541561 -0.384197 0
M  V30 18790 H 1793.49 -1.95032 -0.618349 0
M  V30 18791 H 1793.5 -2.89471 -2.87525 0
M  V30 18792 H 1792.17 -3.64582 -2.00131 0
M  V30 18793 H 1790.75 -2.14469 -3.05053 0
M  V30 18794 N 1792.94 0.765193 -1.37777 0
M  V30 18795 C 1794.18 1.52397 -1.33347 0
M  V30 18796 C 1794.51 1.94335 0.0800559 0
M  V30 18797 O 1793.77 1.64847 1.05469 0
M  V30 18798 C 1794.06 2.79732 -2.22452 0
M  V30 18799 C 1793.73 2.56814 -3.70618 0
M  V30 18800 C 1792.39 2.50272 -4.10996 0
M  V30 18801 C 1794.74 2.36494 -4.64457 0
M  V30 18802 C 1792.07 2.2141 -5.43318 0
M  V30 18803 C 1794.42 2.09155 -5.97024 0
M  V30 18804 C 1793.09 2.01062 -6.36499 0
M  V30 18805 H 1792.36 0.55766 -0.487951 0
M  V30 18806 H 1795.01 0.880853 -1.70039 0
M  V30 18807 H 1793.31 3.48635 -1.78777 0
M  V30 18808 H 1795.01 3.37639 -2.16335 0
M  V30 18809 H 1791.6 2.62771 -3.38599 0
M  V30 18810 H 1795.78 2.40534 -4.34117 0
M  V30 18811 H 1791.04 2.13644 -5.72858 0
M  V30 18812 H 1795.21 1.92433 -6.69285 0
M  V30 18813 H 1792.84 1.78462 -7.38956 0
M  V30 18814 N 1794.41 1.22455 0.992094 0
M  V30 18815 C 1795.64 1.07677 1.77258 0
M  V30 18816 C 1796.06 -0.368377 1.84458 0
M  V30 18817 O 1795.42 -1.26614 1.29763 0
M  V30 18818 C 1795.47 1.69353 3.18358 0
M  V30 18819 O 1794.57 0.947746 4.01362 0
M  V30 18820 H 1793.91 0.378141 0.545807 0
M  V30 18821 H 1796.44 1.62269 1.2462 0
M  V30 18822 H 1796.45 1.7411 3.68985 0
M  V30 18823 H 1795.13 2.74515 3.12433 0
M  V30 18824 H 1793.71 0.976245 3.59894 0
M  V30 18825 N 1795.89 -1.18905 1.03437 0
M  V30 18826 C 1797.17 -1.84537 0.648503 0
M  V30 18827 C 1797.55 -1.92228 -0.872445 0
M  V30 18828 O 1796.9 -1.44342 -1.77137 0
M  V30 18829 C 1797.11 -3.23198 1.31698 0
M  V30 18830 C 1798.45 -3.99301 1.44374 0
M  V30 18831 O 1799.48 -3.32615 1.27458 0
M  V30 18832 O 1798.34 -5.18767 1.7188 0
M  V30 18833 H 1795.43 -0.795488 0.226114 0
M  V30 18834 H 1797.98 -1.2635 1.13287 0
M  V30 18835 H 1796.75 -3.12466 2.35543 0
M  V30 18836 H 1796.37 -3.89035 0.820829 0
M  V30 18837 N 1797.37 -0.812977 -1.35013 0
M  V30 18838 C 1798.32 -0.216001 -2.31595 0
M  V30 18839 C 1799.31 0.637771 -1.56936 0
M  V30 18840 O 1800.52 0.530221 -1.72014 0
M  V30 18841 H 1796.89 -0.0510947 -0.750262 0
M  V30 18842 H 1798.86 -1.04559 -2.79482 0
M  V30 18843 C 1797.61 0.615651 -3.42206 0
M  V30 18844 H 1796.94 -0.0319737 -3.99787 0
M  V30 18845 H 1798.38 0.99963 -4.12048 0
M  V30 18846 C 1796.83 1.78386 -2.85797 0
M  V30 18847 O 1797.36 2.88163 -2.79866 0
M  V30 18848 N 1795.57 1.59742 -2.42757 0
M  V30 18849 H 1795.12 0.704468 -2.4778 0
M  V30 18850 H 1795.08 2.38061 -2.05364 0
M  V30 18851 N 1798.85 1.47045 -0.567045 0
M  V30 18852 C 1800.07 2.0734 -0.0498828 0
M  V30 18853 C 1800.5 1.41545 1.23881 0
M  V30 18854 O 1799.86 0.493798 1.74446 0
M  V30 18855 C 1799.9 3.60404 0.118782 0
M  V30 18856 O 1799.01 3.95186 1.17905 0
M  V30 18857 H 1798.35 0.661656 -0.055746 0
M  V30 18858 H 1800.88 1.8892 -0.78553 0
M  V30 18859 H 1800.89 4.06664 0.3299 0
M  V30 18860 H 1799.56 4.07688 -0.822409 0
M  V30 18861 H 1798.14 3.60658 0.947644 0
M  V30 18862 N 1800.33 0.304 1.5464 0
M  V30 18863 C 1801.55 -0.306916 2.04611 0
M  V30 18864 C 1801.97 -1.4729 1.18114 0
M  V30 18865 O 1801.33 -1.81317 0.20743 0
M  V30 18866 C 1801.38 -0.760263 3.53415 0
M  V30 18867 O 1801.1 0.359321 4.36624 0
M  V30 18868 C 1802.6 -1.43602 4.19396 0
M  V30 18869 H 1799.82 -0.066247 0.667722 0
M  V30 18870 H 1802.36 0.444504 1.99611 0
M  V30 18871 H 1800.52 -1.4617 3.58766 0
M  V30 18872 H 1800.93 0.00582275 5.245 0
M  V30 18873 H 1802.41 -1.70436 5.25029 0
M  V30 18874 H 1802.88 -2.37705 3.69314 0
M  V30 18875 H 1803.49 -0.777683 4.18129 0
M  V30 18876 N 1801.8 -1.57568 0.0317802 0
M  V30 18877 C 1803.21 -1.79693 -0.506679 0
M  V30 18878 C 1803.57 -0.94229 -1.72091 0
M  V30 18879 O 1802.69 -0.153435 -2.15855 0
M  V30 18880 C 1803.29 -3.259 -0.925978 0
M  V30 18881 C 1801.84 -3.49012 -1.40953 0
M  V30 18882 C 1800.99 -2.74746 -0.375509 0
M  V30 18883 H 1803.94 -1.56592 0.257798 0
M  V30 18884 H 1803.96 -3.35757 -1.79017 0
M  V30 18885 H 1803.48 -3.88077 -0.0420441 0
M  V30 18886 H 1801.58 -2.9209 -2.31331 0
M  V30 18887 H 1801.69 -4.57725 -1.41508 0
M  V30 18888 H 1800.05 -2.40303 -0.844187 0
M  V30 18889 H 1800.84 -3.39639 0.500005 0
M  V30 18890 N 1803.28 0.241399 -1.5574 0
M  V30 18891 C 1804.69 0.810024 -1.68213 0
M  V30 18892 C 1805.04 1.85802 -0.630237 0
M  V30 18893 O 1804.17 2.15254 0.222457 0
M  V30 18894 C 1804.76 1.47603 -3.04957 0
M  V30 18895 C 1803.32 1.99229 -3.1935 0
M  V30 18896 C 1802.47 0.845339 -2.64101 0
M  V30 18897 H 1805.42 0.0171031 -1.58691 0
M  V30 18898 H 1805.44 2.34425 -2.99709 0
M  V30 18899 H 1804.95 0.713047 -3.81493 0
M  V30 18900 H 1803.06 2.78391 -2.47647 0
M  V30 18901 H 1803.17 2.1859 -4.26328 0
M  V30 18902 H 1801.53 1.24734 -2.22067 0
M  V30 18903 H 1802.32 0.0953468 -3.43168 0
M  V30 18904 N 1804.76 1.49212 0.507292 0
M  V30 18905 C 1805.72 1.64908 1.59179 0
M  V30 18906 C 1806.72 0.521176 1.5212 0
M  V30 18907 O 1807.91 0.787492 1.55384 0
M  V30 18908 C 1805.05 1.64057 2.98828 0
M  V30 18909 H 1806.24 2.6163 1.46593 0
M  V30 18910 H 1803.79 1.38149 0.731062 0
M  V30 18911 H 1804.53 0.688956 3.16897 0
M  V30 18912 H 1804.31 2.45963 3.0536 0
M  V30 18913 H 1805.8 1.78279 3.77633 0
M  V30 18914 N 1806.24 -0.757876 1.38181 0
M  V30 18915 C 1807.48 -1.51912 1.34352 0
M  V30 18916 C 1807.82 -1.94082 -0.0677003 0
M  V30 18917 O 1807.09 -1.65114 -1.02799 0
M  V30 18918 C 1807.38 -2.77466 2.29531 0
M  V30 18919 C 1807.23 -2.41462 3.79495 0
M  V30 18920 C 1808.55 -3.79469 2.22915 0
M  V30 18921 H 1805.67 -0.551091 0.489355 0
M  V30 18922 H 1808.31 -0.868376 1.68995 0
M  V30 18923 H 1806.46 -3.32994 2.00119 0
M  V30 18924 H 1808.13 -1.91742 4.19562 0
M  V30 18925 H 1806.37 -1.73976 3.97385 0
M  V30 18926 H 1807.04 -3.31272 4.41546 0
M  V30 18927 H 1809.52 -3.33471 2.48871 0
M  V30 18928 H 1808.4 -4.6502 2.91629 0
M  V30 18929 H 1808.66 -4.24744 1.22658 0
M  V30 18930 N 1807.72 -1.22979 -0.985586 0
M  V30 18931 C 1809.13 -1.05448 -1.5407 0
M  V30 18932 C 1809.48 0.379808 -1.92489 0
M  V30 18933 O 1808.6 1.26582 -1.75516 0
M  V30 18934 C 1809.2 -1.90794 -2.7997 0
M  V30 18935 C 1807.76 -1.77538 -3.31899 0
M  V30 18936 C 1806.9 -1.86814 -2.04929 0
M  V30 18937 H 1809.86 -1.36718 -0.80585 0
M  V30 18938 H 1809.88 -1.42967 -3.5262 0
M  V30 18939 H 1809.39 -2.95177 -2.51977 0
M  V30 18940 H 1807.49 -0.759177 -3.64784 0
M  V30 18941 H 1807.6 -2.60627 -4.02008 0
M  V30 18942 H 1805.97 -1.30336 -2.18826 0
M  V30 18943 H 1806.75 -2.92742 -1.79324 0
M  V30 18944 N 1809.19 1.18355 -1.04066 0
M  V30 18945 C 1810.13 2.21482 -0.58977 0
M  V30 18946 C 1811.14 1.59198 0.340576 0
M  V30 18947 O 1812.33 1.77988 0.135094 0
M  V30 18948 C 1809.43 3.3853 0.158397 0
M  V30 18949 C 1808.6 4.30392 -0.779824 0
M  V30 18950 C 1807.66 5.26147 -0.0749517 0
M  V30 18951 O 1806.69 5.64812 -0.705381 0
M  V30 18952 N 1807.89 5.68137 1.19168 0
M  V30 18953 H 1810.65 2.60791 -1.47676 0
M  V30 18954 H 1808.21 1.33141 -0.921151 0
M  V30 18955 H 1810.21 3.99611 0.639788 0
M  V30 18956 H 1808.78 2.97913 0.946929 0
M  V30 18957 H 1808 3.66915 -1.44107 0
M  V30 18958 H 1809.28 4.88668 -1.41707 0
M  V30 18959 H 1808.68 5.38777 1.7244 0
M  V30 18960 H 1807.24 6.31415 1.61735 0
M  V30 18961 N 1810.67 0.820125 1.3458 0
M  V30 18962 C 1811.9 0.418747 2.03129 0
M  V30 18963 C 1812.32 -0.966605 1.61364 0
M  V30 18964 O 1811.68 -1.62847 0.796903 0
M  V30 18965 C 1811.73 0.525681 3.56748 0
M  V30 18966 O 1810.83 -0.455592 4.09876 0
M  V30 18967 H 1810.17 0.172819 0.641116 0
M  V30 18968 H 1812.7 1.10977 1.71888 0
M  V30 18969 H 1812.71 0.400422 4.0603 0
M  V30 18970 H 1811.39 1.53609 3.86493 0
M  V30 18971 H 1809.97 -0.289449 3.71775 0
M  V30 18972 N 1812.15 -1.46743 0.574835 0
M  V30 18973 C 1813.38 -2.06505 0.0627081 0
M  V30 18974 C 1813.79 -1.42535 -1.2442 0
M  V30 18975 O 1813.13 -0.522043 -1.76126 0
M  V30 18976 C 1813.19 -3.59021 -0.185574 0
M  V30 18977 C 1812.86 -4.45136 1.03455 0
M  V30 18978 C 1813.85 -4.82163 1.94461 0
M  V30 18979 C 1811.54 -4.8639 1.25418 0
M  V30 18980 C 1813.53 -5.59262 3.05786 0
M  V30 18981 C 1811.22 -5.63251 2.37049 0
M  V30 18982 C 1812.22 -5.99599 3.27062 0
M  V30 18983 O 1811.91 -6.74908 4.36755 0
M  V30 18984 H 1811.64 -0.674082 0.0508932 0
M  V30 18985 H 1814.19 -1.89476 0.792968 0
M  V30 18986 H 1812.42 -3.74327 -0.970354 0
M  V30 18987 H 1814.11 -4.00739 -0.645242 0
M  V30 18988 H 1814.88 -4.50876 1.78705 0
M  V30 18989 H 1810.76 -4.57553 0.56266 0
M  V30 18990 H 1814.3 -5.87552 3.7607 0
M  V30 18991 H 1810.2 -5.93951 2.5277 0
M  V30 18992 H 1810.97 -6.93323 4.35024 0
M  V30 18993 N 1813.63 -0.312197 -1.54477 0
M  V30 18994 C 1814.56 0.592742 -2.21403 0
M  V30 18995 C 1815.57 1.0888 -1.21033 0
M  V30 18996 O 1816.76 1.00433 -1.47565 0
M  V30 18997 C 1813.86 1.82478 -2.85578 0
M  V30 18998 C 1813.04 1.46933 -4.11982 0
M  V30 18999 C 1812.09 2.5577 -4.59857 0
M  V30 19000 O 1811.12 2.20391 -5.24801 0
M  V30 19001 N 1812.32 3.86506 -4.3312 0
M  V30 19002 H 1815.09 0.0197398 -2.99693 0
M  V30 19003 H 1812.65 -0.13489 -1.61337 0
M  V30 19004 H 1814.64 2.54657 -3.14534 0
M  V30 19005 H 1813.21 2.3059 -2.11062 0
M  V30 19006 H 1812.43 0.579677 -3.89915 0
M  V30 19007 H 1813.72 1.20739 -4.94267 0
M  V30 19008 H 1813.12 4.18053 -3.81114 0
M  V30 19009 H 1811.67 4.5495 -4.66759 0
M  V30 19010 N 1815.11 1.57549 -0.040136 0
M  V30 19011 C 1816.35 1.92535 0.637037 0
M  V30 19012 C 1816.69 0.917836 1.71141 0
M  V30 19013 O 1815.96 -0.057824 1.94414 0
M  V30 19014 C 1816.24 3.37955 1.24333 0
M  V30 19015 C 1816.1 4.49449 0.177761 0
M  V30 19016 C 1817.42 3.8355 2.15818 0
M  V30 19017 H 1814.53 0.700157 0.230107 0
M  V30 19018 H 1817.18 1.89739 -0.0996468 0
M  V30 19019 H 1815.33 3.40468 1.87119 0
M  V30 19020 H 1817 4.59065 -0.453507 0
M  V30 19021 H 1815.24 4.30961 -0.495486 0
M  V30 19022 H 1815.91 5.48256 0.641792 0
M  V30 19023 H 1818.39 3.82842 1.63006 0
M  V30 19024 H 1817.26 4.85974 2.55188 0
M  V30 19025 H 1817.53 3.19678 3.05382 0
M  V30 19026 N 1816.58 -0.233136 1.55866 0
M  V30 19027 C 1817.83 -0.957324 1.77988 0
M  V30 19028 C 1818.15 -1.85325 0.606593 0
M  V30 19029 O 1817.42 -1.92237 -0.377047 0
M  V30 19030 H 1816 -0.356474 0.656457 0
M  V30 19031 H 1818.67 -0.247774 1.93319 0
M  V30 19032 H 1817.76 -1.57096 2.6968 0
M  V30 19033 N 1818.06 -1.49479 -0.499372 0
M  V30 19034 C 1819.29 -1.62524 -1.27552 0
M  V30 19035 C 1819.7 -0.296533 -1.86862 0
M  V30 19036 O 1819.04 0.728236 -1.68649 0
M  V30 19037 C 1819.11 -2.63674 -2.44369 0
M  V30 19038 C 1818.77 -4.0798 -2.05916 0
M  V30 19039 C 1819.77 -4.94733 -1.59797 0
M  V30 19040 C 1817.45 -4.53723 -2.15501 0
M  V30 19041 C 1819.45 -6.25268 -1.23768 0
M  V30 19042 C 1817.13 -5.84271 -1.79084 0
M  V30 19043 C 1818.13 -6.69867 -1.33292 0
M  V30 19044 O 1817.82 -7.97982 -0.97368 0
M  V30 19045 H 1817.55 -0.550018 -0.393009 0
M  V30 19046 H 1820.11 -1.96261 -0.605856 0
M  V30 19047 H 1818.34 -2.2512 -3.14417 0
M  V30 19048 H 1820.02 -2.66231 -3.06392 0
M  V30 19049 H 1820.79 -4.6062 -1.51836 0
M  V30 19050 H 1816.67 -3.87264 -2.50095 0
M  V30 19051 H 1820.21 -6.92033 -0.879542 0
M  V30 19052 H 1816.11 -6.17912 -1.86695 0
M  V30 19053 H 1816.88 -8.11007 -1.10501 0
M  V30 19054 N 1819.54 0.750537 -1.38581 0
M  V30 19055 C 1820.47 1.87785 -1.38777 0
M  V30 19056 C 1821.45 1.68204 -0.253244 0
M  V30 19057 O 1822.64 1.88752 -0.456779 0
M  V30 19058 C 1819.77 3.2535 -1.21511 0
M  V30 19059 C 1818.72 3.59538 -2.32199 0
M  V30 19060 C 1818.05 4.95873 -2.00036 0
M  V30 19061 C 1819.35 3.64102 -3.74469 0
M  V30 19062 H 1821.04 1.87879 -2.33113 0
M  V30 19063 H 1818.59 0.902504 -1.12209 0
M  V30 19064 H 1820.54 4.03872 -1.20272 0
M  V30 19065 H 1819.26 3.25744 -0.236366 0
M  V30 19066 H 1817.92 2.83336 -2.32629 0
M  V30 19067 H 1817.57 4.9283 -1.00638 0
M  V30 19068 H 1817.27 5.19716 -2.7417 0
M  V30 19069 H 1818.8 5.7677 -2.00421 0
M  V30 19070 H 1820.21 4.32731 -3.76054 0
M  V30 19071 H 1818.61 3.99455 -4.47834 0
M  V30 19072 H 1819.68 2.64259 -4.06565 0
M  V30 19073 N 1821.02 1.235 0.979051 0
M  V30 19074 C 1821.97 0.984512 2.05649 0
M  V30 19075 C 1822.95 -0.0699833 1.60748 0
M  V30 19076 O 1824.15 0.142316 1.76427 0
M  V30 19077 C 1821.27 0.579082 3.38381 0
M  V30 19078 C 1820.36 1.66905 3.89876 0
M  V30 19079 N 1820.75 2.8996 4.14436 0
M  V30 19080 C 1819.05 1.54394 4.18424 0
M  V30 19081 C 1819.75 3.60539 4.56493 0
M  V30 19082 N 1818.73 2.88058 4.61003 0
M  V30 19083 H 1822.53 1.91906 2.22597 0
M  V30 19084 H 1820.04 1.13459 1.16193 0
M  V30 19085 H 1822.04 0.380896 4.15156 0
M  V30 19086 H 1820.7 -0.348408 3.22825 0
M  V30 19087 H 1821.71 3.26252 4.02219 0
M  V30 19088 H 1818.39 0.683659 4.11864 0
M  V30 19089 H 1819.78 4.66038 4.84002 0
M  V30 19090 N 1822.5 -1.17802 1.04693 0
M  V30 19091 C 1823.46 -2.19854 0.647816 0
M  V30 19092 C 1824.46 -1.58013 -0.298081 0
M  V30 19093 O 1825.65 -1.74004 -0.0826309 0
M  V30 19094 C 1822.78 -3.40864 -0.0492661 0
M  V30 19095 H 1823.98 -2.56678 1.55101 0
M  V30 19096 H 1821.53 -1.31796 0.840215 0
M  V30 19097 H 1822.26 -3.0958 -0.965967 0
M  V30 19098 H 1822.05 -3.86995 0.630677 0
M  V30 19099 H 1823.54 -4.16412 -0.31479 0
M  V30 19100 N 1823.98 -0.827251 -1.34143 0
M  V30 19101 C 1825.39 -0.475645 -1.80539 0
M  V30 19102 C 1825.74 1.00435 -1.68545 0
M  V30 19103 O 1824.86 1.78186 -1.22795 0
M  V30 19104 C 1825.46 -0.856588 -3.27793 0
M  V30 19105 C 1824.02 -0.557289 -3.72252 0
M  V30 19106 C 1823.16 -1.07118 -2.55775 0
M  V30 19107 H 1826.11 -1.01703 -1.21829 0
M  V30 19108 H 1826.14 -0.162059 -3.80155 0
M  V30 19109 H 1825.65 -1.93379 -3.36491 0
M  V30 19110 H 1823.75 0.510328 -3.69089 0
M  V30 19111 H 1823.86 -1.10438 -4.66198 0
M  V30 19112 H 1822.23 -0.492534 -2.49892 0
M  V30 19113 H 1823.01 -2.15492 -2.67242 0
M  V30 19114 N 1825.45 1.46436 -0.582609 0
M  V30 19115 C 1826.68 2.06768 -0.0737657 0
M  V30 19116 C 1827.1 1.43137 1.23115 0
M  V30 19117 O 1826.45 0.536633 1.74432 0
M  V30 19118 C 1826.5 3.61365 0.0988205 0
M  V30 19119 O 1826.23 4.22616 -1.15444 0
M  V30 19120 C 1827.73 4.38626 0.642025 0
M  V30 19121 H 1824.95 0.66854 -0.0574078 0
M  V30 19122 H 1827.49 1.88064 -0.80325 0
M  V30 19123 H 1825.65 3.79497 0.778526 0
M  V30 19124 H 1826.06 5.15486 -0.968204 0
M  V30 19125 H 1827.53 5.47389 0.711966 0
M  V30 19126 H 1828.01 4.06663 1.65897 0
M  V30 19127 H 1828.62 4.253 -0.00280852 0
M  V30 19128 N 1826.93 0.320385 1.54309 0
M  V30 19129 C 1828.18 -0.282584 2.00115 0
M  V30 19130 C 1828.5 -1.52904 1.21018 0
M  V30 19131 O 1827.77 -1.93413 0.311163 0
M  V30 19132 H 1826.35 -0.107406 0.739238 0
M  V30 19133 H 1829.01 0.436196 1.89956 0
M  V30 19134 H 1828.11 -0.541189 3.07372 0
M  V30 19135 N 1828.41 -1.57525 0.0484906 0
M  V30 19136 C 1829.63 -1.97309 -0.639062 0
M  V30 19137 C 1830.06 -0.925753 -1.63742 0
M  V30 19138 O 1829.42 0.111304 -1.80958 0
M  V30 19139 C 1829.47 -3.36168 -1.30475 0
M  V30 19140 O 1828.57 -3.33903 -2.42038 0
M  V30 19141 H 1827.91 -0.642824 -0.166351 0
M  V30 19142 H 1830.44 -2.0427 0.116095 0
M  V30 19143 H 1830.45 -3.72835 -1.65705 0
M  V30 19144 H 1829.13 -4.11933 -0.573057 0
M  V30 19145 H 1827.7 -3.08978 -2.08775 0
M  V30 19146 N 1829.89 0.224867 -1.55988 0
M  V30 19147 C 1831.14 0.947871 -1.78493 0
M  V30 19148 C 1831.46 1.85001 -0.616413 0
M  V30 19149 O 1830.73 1.92435 0.366847 0
M  V30 19150 H 1829.31 0.352987 -0.658338 0
M  V30 19151 H 1831.97 0.237519 -1.93447 0
M  V30 19152 H 1831.06 1.55664 -2.70509 0
M  V30 19153 N 1831.37 1.49742 0.491438 0
M  V30 19154 C 1832.31 1.67115 1.59189 0
M  V30 19155 C 1833.28 0.512523 1.57995 0
M  V30 19156 O 1834.47 0.740693 1.75836 0
M  V30 19157 C 1831.61 1.75258 2.97286 0
M  V30 19158 C 1830.72 3.02488 3.08424 0
M  V30 19159 C 1829.86 3.0155 4.37311 0
M  V30 19160 C 1828.89 4.2332 4.42116 0
M  V30 19161 N 1828.03 4.20238 5.62445 0
M  V30 19162 H 1832.87 2.61073 1.43683 0
M  V30 19163 H 1830.41 1.29435 0.69892 0
M  V30 19164 H 1832.37 1.77959 3.77341 0
M  V30 19165 H 1831 0.847568 3.11474 0
M  V30 19166 H 1830.05 3.09353 2.21371 0
M  V30 19167 H 1831.36 3.92479 3.07834 0
M  V30 19168 H 1830.51 3.02868 5.25695 0
M  V30 19169 H 1829.25 2.09354 4.4048 0
M  V30 19170 H 1828.26 4.22236 3.52132 0
M  V30 19171 H 1829.48 5.1672 4.40656 0
M  V30 19172 H 1827.43 3.30884 5.66438 0
M  V30 19173 H 1827.35 5.03974 5.63512 0
M  V30 19174 H 1828.61 4.25672 6.53011 0
M  V30 19175 N 1832.84 -0.743177 1.38977 0
M  V30 19176 C 1834.07 -1.53753 1.39193 0
M  V30 19177 C 1834.49 -1.88095 -0.0136591 0
M  V30 19178 O 1833.85 -1.51326 -0.998508 0
M  V30 19179 C 1833.9 -2.80679 2.26389 0
M  V30 19180 O 1833 -3.76265 1.68815 0
M  V30 19181 H 1832.35 -0.464639 0.474349 0
M  V30 19182 H 1834.88 -0.917579 1.82871 0
M  V30 19183 H 1834.89 -3.29498 2.40614 0
M  V30 19184 H 1833.56 -2.55014 3.28543 0
M  V30 19185 H 1832.14 -3.35004 1.63788 0
M  V30 19186 N 1834.32 -1.24018 -0.972487 0
M  V30 19187 C 1835.55 -1.10392 -1.74989 0
M  V30 19188 C 1835.97 0.34396 -1.8564 0
M  V30 19189 O 1835.32 1.23757 -1.34128 0
M  V30 19190 C 1835.37 -1.73247 -3.17282 0
M  V30 19191 O 1835.09 -3.12374 -3.07171 0
M  V30 19192 C 1836.6 -1.65168 -4.11381 0
M  V30 19193 H 1833.82 -0.38593 -0.548907 0
M  V30 19194 H 1836.36 -1.64028 -1.22127 0
M  V30 19195 H 1834.51 -1.23625 -3.67145 0
M  V30 19196 H 1834.93 -3.42997 -3.96804 0
M  V30 19197 H 1836.4 -2.13837 -5.08898 0
M  V30 19198 H 1836.88 -0.61198 -4.34915 0
M  V30 19199 H 1837.49 -2.14194 -3.67425 0
M  V30 19200 N 1835.8 1.17245 -1.05316 0
M  V30 19201 C 1836.75 2.21304 -0.655223 0
M  V30 19202 C 1837.72 1.62515 0.343244 0
M  V30 19203 O 1838.9 1.89355 0.234375 0
M  V30 19204 C 1836.04 3.4508 -0.037446 0
M  V30 19205 C 1835.16 4.18155 -1.0849 0
M  V30 19206 C 1834.29 5.29422 -0.434307 0
M  V30 19207 C 1833.33 5.94286 -1.46598 0
M  V30 19208 N 1832.47 6.97063 -0.839461 0
M  V30 19209 H 1837.31 2.54696 -1.54705 0
M  V30 19210 H 1834.84 1.25109 -0.773697 0
M  V30 19211 H 1836.8 4.15827 0.338182 0
M  V30 19212 H 1835.43 3.12268 0.817837 0
M  V30 19213 H 1834.48 3.46111 -1.57834 0
M  V30 19214 H 1835.8 4.62502 -1.86798 0
M  V30 19215 H 1834.95 6.067 -0.00516288 0
M  V30 19216 H 1833.69 4.86212 0.380745 0
M  V30 19217 H 1832.69 5.15737 -1.90513 0
M  V30 19218 H 1833.92 6.39576 -2.28295 0
M  V30 19219 H 1831.86 6.55985 -0.0449421 0
M  V30 19220 H 1831.78 7.39728 -1.56006 0
M  V30 19221 H 1833.05 7.78285 -0.435132 0
M  V30 19222 N 1837.28 0.834353 1.33702 0
M  V30 19223 C 1838.52 0.428521 1.98221 0
M  V30 19224 C 1838.86 -1.00858 1.65956 0
M  V30 19225 O 1838.13 -1.70437 0.937094 0
M  V30 19226 C 1838.42 0.644357 3.54288 0
M  V30 19227 C 1838.27 2.1284 3.96256 0
M  V30 19228 C 1839.59 0.0876063 4.40013 0
M  V30 19229 H 1836.71 0.15717 0.720046 0
M  V30 19230 H 1839.35 1.04903 1.58415 0
M  V30 19231 H 1837.5 0.116173 3.88326 0
M  V30 19232 H 1839.17 2.72111 3.72496 0
M  V30 19233 H 1837.41 2.61461 3.46151 0
M  V30 19234 H 1838.08 2.23019 5.04942 0
M  V30 19235 H 1840.56 0.539025 4.12594 0
M  V30 19236 H 1839.44 0.268345 5.48244 0
M  V30 19237 H 1839.7 -1.00829 4.30449 0
M  V30 19238 N 1838.76 -1.46125 0.590367 0
M  V30 19239 C 1840.17 -1.85962 0.165876 0
M  V30 19240 C 1840.52 -1.49296 -1.27299 0
M  V30 19241 O 1839.64 -0.911461 -1.96269 0
M  V30 19242 C 1840.24 -3.3752 0.294262 0
M  V30 19243 C 1838.8 -3.76324 -0.0754118 0
M  V30 19244 C 1837.94 -2.70126 0.626682 0
M  V30 19245 H 1840.9 -1.3717 0.79812 0
M  V30 19246 H 1840.92 -3.77482 -0.4783 0
M  V30 19247 H 1840.43 -3.64175 1.34159 0
M  V30 19248 H 1838.53 -3.55287 -1.12258 0
M  V30 19249 H 1838.64 -4.7812 0.306241 0
M  V30 19250 H 1837.01 -2.54614 0.0661219 0
M  V30 19251 H 1837.79 -2.99619 1.6758 0
M  V30 19252 N 1840.23 -0.328564 -1.54137 0
M  V30 19253 C 1841.2 0.52248 -2.23165 0
M  V30 19254 C 1842.2 1.03956 -1.22677 0
M  V30 19255 O 1843.39 0.931193 -1.47222 0
M  V30 19256 C 1840.52 1.72624 -2.93962 0
M  V30 19257 H 1841.71 -0.081023 -2.99791 0
M  V30 19258 H 1839.27 -0.0797096 -1.56097 0
M  V30 19259 H 1840 2.36885 -2.21486 0
M  V30 19260 H 1839.79 1.36283 -3.67654 0
M  V30 19261 H 1841.28 2.33023 -3.4654 0
M  V30 19262 N 1841.71 1.57497 -0.0568439 0
M  V30 19263 C 1842.68 2.10755 0.900823 0
M  V30 19264 C 1843.68 1.02835 1.23619 0
M  V30 19265 O 1844.87 1.28885 1.17194 0
M  V30 19266 C 1842 2.5965 2.20895 0
M  V30 19267 H 1843.19 2.96669 0.439041 0
M  V30 19268 H 1840.74 1.55121 0.191646 0
M  V30 19269 H 1841.48 1.77147 2.71642 0
M  V30 19270 H 1841.26 3.3852 1.97855 0
M  V30 19271 H 1842.75 3.00982 2.89482 0
M  V30 19272 N 1843.19 -0.216591 1.56105 0
M  V30 19273 C 1844.42 -0.955625 1.8317 0
M  V30 19274 C 1844.83 -1.78247 0.634397 0
M  V30 19275 O 1844.17 -1.79148 -0.406391 0
M  V30 19276 C 1844.23 -1.91834 3.04039 0
M  V30 19277 C 1843.9 -1.27553 4.38838 0
M  V30 19278 C 1844.89 -0.662972 5.15656 0
M  V30 19279 C 1842.58 -1.28582 4.85564 0
M  V30 19280 C 1844.57 -0.0692674 6.37362 0
M  V30 19281 C 1842.26 -0.688269 6.07212 0
M  V30 19282 C 1843.26 -0.0810524 6.82952 0
M  V30 19283 O 1842.95 0.507186 8.02298 0
M  V30 19284 H 1842.68 -0.285405 0.612797 0
M  V30 19285 H 1845.23 -0.235419 2.04046 0
M  V30 19286 H 1843.46 -2.67767 2.78994 0
M  V30 19287 H 1845.15 -2.52334 3.17934 0
M  V30 19288 H 1845.92 -0.647319 4.80661 0
M  V30 19289 H 1841.8 -1.74784 4.26581 0
M  V30 19290 H 1845.34 0.405305 6.96422 0
M  V30 19291 H 1841.24 -0.701352 6.41679 0
M  V30 19292 H 1842.01 0.401989 8.17512 0
M  V30 19293 N 1844.67 -1.5 -0.48349 0
M  V30 19294 C 1845.63 -1.6742 -1.56535 0
M  V30 19295 C 1846.63 -0.545311 -1.51271 0
M  V30 19296 O 1847.82 -0.812112 -1.54112 0
M  V30 19297 C 1844.95 -1.6879 -2.9618 0
M  V30 19298 H 1846.15 -2.6393 -1.42412 0
M  V30 19299 H 1843.7 -1.39295 -0.708991 0
M  V30 19300 H 1844.43 -0.739285 -3.15761 0
M  V30 19301 H 1844.22 -2.50789 -3.01408 0
M  V30 19302 H 1845.71 -1.84264 -3.74749 0
M  V30 19303 N 1846.15 0.735796 -1.39369 0
M  V30 19304 C 1847.37 1.53013 -1.40007 0
M  V30 19305 C 1847.8 1.881 0.00368376 0
M  V30 19306 O 1847.15 1.51853 0.990469 0
M  V30 19307 C 1847.2 2.79474 -2.27874 0
M  V30 19308 O 1846.31 3.75364 -1.70808 0
M  V30 19309 H 1845.65 0.462117 -0.476806 0
M  V30 19310 H 1848.18 0.907868 -1.83355 0
M  V30 19311 H 1848.19 3.28217 -2.42358 0
M  V30 19312 H 1846.86 2.53268 -3.29891 0
M  V30 19313 H 1845.44 3.34131 -1.65562 0
M  V30 19314 N 1847.63 1.24532 0.965897 0
M  V30 19315 C 1848.56 0.997143 2.06373 0
M  V30 19316 C 1849.57 -0.0340261 1.62764 0
M  V30 19317 O 1850.76 0.203223 1.77339 0
M  V30 19318 C 1847.86 0.483305 3.35436 0
M  V30 19319 C 1847.03 1.57803 4.07942 0
M  V30 19320 C 1846.09 1.06652 5.15278 0
M  V30 19321 O 1845.12 1.75859 5.41352 0
M  V30 19322 N 1846.32 -0.0981119 5.80417 0
M  V30 19323 H 1849.08 1.94238 2.28236 0
M  V30 19324 H 1846.65 1.15586 1.13365 0
M  V30 19325 H 1848.64 0.125833 4.04504 0
M  V30 19326 H 1847.21 -0.367709 3.1043 0
M  V30 19327 H 1846.43 2.1076 3.33127 0
M  V30 19328 H 1847.72 2.3138 4.53146 0
M  V30 19329 H 1847.11 -0.676662 5.61638 0
M  V30 19330 H 1845.67 -0.396714 6.50592 0
M  V30 19331 N 1849.1 -1.16685 1.05936 0
M  V30 19332 C 1850.35 -1.86758 0.772386 0
M  V30 19333 C 1850.67 -1.81885 -0.703051 0
M  V30 19334 O 1849.94 -1.24992 -1.50844 0
M  V30 19335 H 1848.52 -0.69143 0.282725 0
M  V30 19336 H 1851.18 -1.41518 1.3401 0
M  V30 19337 H 1850.28 -2.92296 1.09405 0
M  V30 19338 N 1850.58 -0.841432 -1.33258 0
M  V30 19339 C 1851.81 -0.451287 -2.01611 0
M  V30 19340 C 1852.22 0.952858 -1.63454 0
M  V30 19341 O 1851.56 1.6311 -0.845039 0
M  V30 19342 C 1851.62 -0.495287 -3.56072 0
M  V30 19343 C 1851.29 -1.856 -4.17614 0
M  V30 19344 C 1852.29 -2.81959 -4.36801 0
M  V30 19345 C 1849.97 -2.14953 -4.53983 0
M  V30 19346 C 1851.96 -4.05832 -4.91507 0
M  V30 19347 C 1849.65 -3.39083 -5.08395 0
M  V30 19348 C 1850.65 -4.34339 -5.27104 0
M  V30 19349 O 1850.34 -5.56273 -5.80359 0
M  V30 19350 H 1850.07 -0.177188 -0.652365 0
M  V30 19351 H 1852.62 -1.13629 -1.71107 0
M  V30 19352 H 1850.85 0.246506 -3.85914 0
M  V30 19353 H 1852.54 -0.122606 -4.05715 0
M  V30 19354 H 1853.31 -2.60582 -4.0905 0
M  V30 19355 H 1849.19 -1.41602 -4.38714 0
M  V30 19356 H 1852.73 -4.80192 -5.06025 0
M  V30 19357 H 1848.63 -3.60316 -5.35577 0
M  V30 19358 H 1849.4 -5.58047 -5.9877 0
M  V30 19359 N 1852.06 1.4581 -0.598108 0
M  V30 19360 C 1853.01 2.30454 0.126261 0
M  V30 19361 C 1853.98 1.41541 0.869221 0
M  V30 19362 O 1855.16 1.70478 0.856841 0
M  V30 19363 C 1852.3 3.26285 1.12393 0
M  V30 19364 C 1851.41 4.303 0.382824 0
M  V30 19365 C 1850.55 5.13246 1.36937 0
M  V30 19366 C 1849.59 6.08997 0.615545 0
M  V30 19367 N 1848.73 6.84756 1.55091 0
M  V30 19368 H 1853.57 2.91865 -0.601573 0
M  V30 19369 H 1851.1 1.43829 -0.308467 0
M  V30 19370 H 1853.06 3.80303 1.71539 0
M  V30 19371 H 1851.69 2.66649 1.81929 0
M  V30 19372 H 1850.74 3.79018 -0.323962 0
M  V30 19373 H 1852.05 4.98375 -0.205781 0
M  V30 19374 H 1851.21 5.71618 2.03318 0
M  V30 19375 H 1849.95 4.45168 1.99191 0
M  V30 19376 H 1848.95 5.49765 -0.0619441 0
M  V30 19377 H 1850.18 6.791 -0.00181251 0
M  V30 19378 H 1848.12 6.19375 2.16127 0
M  V30 19379 H 1848.04 7.49149 1.0155 0
M  V30 19380 H 1849.31 7.47675 2.20458 0
M  V30 19381 N 1853.54 0.336733 1.53961 0
M  V30 19382 C 1854.78 -0.262248 2.01097 0
M  V30 19383 C 1855.12 -1.50745 1.22431 0
M  V30 19384 O 1854.39 -1.92012 0.310103 0
M  V30 19385 C 1854.67 -0.583219 3.55346 0
M  V30 19386 C 1854.53 0.67361 4.44727 0
M  V30 19387 C 1855.85 -1.39558 4.17386 0
M  V30 19388 H 1852.97 -0.0938423 0.731001 0
M  V30 19389 H 1855.61 0.455921 1.84449 0
M  V30 19390 H 1853.76 -1.19505 3.69663 0
M  V30 19391 H 1855.43 1.31168 4.42258 0
M  V30 19392 H 1853.67 1.29987 4.13867 0
M  V30 19393 H 1854.34 0.404382 5.50517 0
M  V30 19394 H 1856.82 -0.878292 4.06725 0
M  V30 19395 H 1855.7 -1.58892 5.25399 0
M  V30 19396 H 1855.96 -2.39567 3.71564 0
M  V30 19397 N 1855.02 -1.57465 0.0651956 0
M  V30 19398 C 1855.95 -2.15374 -0.902018 0
M  V30 19399 C 1856.93 -1.07904 -1.31494 0
M  V30 19400 O 1858.11 -1.35909 -1.38717 0
M  V30 19401 C 1855.24 -2.71005 -2.17195 0
M  V30 19402 C 1854.2 -3.83583 -1.89864 0
M  V30 19403 C 1853.52 -4.25789 -3.23432 0
M  V30 19404 C 1854.82 -5.08112 -1.20913 0
M  V30 19405 H 1856.52 -2.96445 -0.419631 0
M  V30 19406 H 1854.06 -1.42599 -0.200401 0
M  V30 19407 H 1856.01 -3.1016 -2.8527 0
M  V30 19408 H 1854.74 -1.87146 -2.67664 0
M  V30 19409 H 1853.4 -3.44921 -1.24197 0
M  V30 19410 H 1853.05 -3.38861 -3.71729 0
M  V30 19411 H 1852.75 -5.01673 -3.05938 0
M  V30 19412 H 1854.27 -4.67555 -3.92715 0
M  V30 19413 H 1855.68 -5.44624 -1.79046 0
M  V30 19414 H 1854.08 -5.8923 -1.137 0
M  V30 19415 H 1855.15 -4.84538 -0.187224 0
M  V30 19416 N 1856.49 0.20831 -1.56217 0
M  V30 19417 C 1857.74 0.932104 -1.8011 0
M  V30 19418 C 1858.07 1.83453 -0.637061 0
M  V30 19419 O 1857.35 1.91081 0.363066 0
M  V30 19420 C 1857.63 1.7597 -3.14176 0
M  V30 19421 C 1857.48 0.882874 -4.4105 0
M  V30 19422 C 1858.8 2.7349 -3.44806 0
M  V30 19423 H 1855.92 0.337428 -0.655218 0
M  V30 19424 H 1858.56 0.2002 -1.88942 0
M  V30 19425 H 1856.71 2.38369 -3.06778 0
M  V30 19426 H 1858.39 0.274607 -4.60482 0
M  V30 19427 H 1856.63 0.188921 -4.33388 0
M  V30 19428 H 1857.3 1.49662 -5.31324 0
M  V30 19429 H 1859.78 2.21225 -3.52418 0
M  V30 19430 H 1858.65 3.28489 -4.39757 0
M  V30 19431 H 1858.91 3.51887 -2.67635 0
M  V30 19432 N 1857.97 1.50255 0.475528 0
M  V30 19433 C 1858.9 1.71721 1.58222 0
M  V30 19434 C 1859.88 0.56612 1.60403 0
M  V30 19435 O 1861.07 0.804774 1.7674 0
M  V30 19436 C 1858.2 1.80726 2.96573 0
M  V30 19437 C 1857.15 2.95877 3.09258 0
M  V30 19438 C 1856.48 2.9002 4.49213 0
M  V30 19439 C 1857.78 4.36452 2.86891 0
M  V30 19440 H 1859.47 2.6438 1.40511 0
M  V30 19441 H 1857.02 1.27224 0.674533 0
M  V30 19442 H 1858.97 1.94328 3.73918 0
M  V30 19443 H 1857.69 0.846846 3.1543 0
M  V30 19444 H 1856.35 2.81918 2.34345 0
M  V30 19445 H 1856 1.91834 4.64982 0
M  V30 19446 H 1855.7 3.67322 4.58637 0
M  V30 19447 H 1857.23 3.05665 5.28584 0
M  V30 19448 H 1858.64 4.5096 3.53989 0
M  V30 19449 H 1857.04 5.15171 3.07765 0
M  V30 19450 H 1858.11 4.49129 1.82786 0
M  V30 19451 N 1859.45 -0.728395 1.39758 0
M  V30 19452 C 1860.4 -1.8638 1.39158 0
M  V30 19453 C 1861.39 -1.67173 0.273806 0
M  V30 19454 O 1862.6 -1.74433 0.444184 0
M  V30 19455 H 1858.97 -0.61363 0.434698 0
M  V30 19456 H 1860.94 -1.84002 2.34917 0
M  V30 19457 C 1859.69 -3.24127 1.25845 0
M  V30 19458 H 1859.02 -3.39507 2.11129 0
M  V30 19459 H 1860.46 -4.03745 1.29484 0
M  V30 19460 C 1858.91 -3.36884 -0.0325277 0
M  V30 19461 O 1859.44 -3.89047 -1.00026 0
M  V30 19462 N 1857.65 -2.90435 -0.0977834 0
M  V30 19463 H 1857.2 -2.48175 0.690438 0
M  V30 19464 H 1857.16 -2.99351 -0.961066 0
M  V30 19465 N 1860.93 -1.25042 -0.959279 0
M  V30 19466 C 1862.34 -1.08692 -1.51799 0
M  V30 19467 C 1862.69 0.338893 -1.93251 0
M  V30 19468 O 1861.81 1.22831 -1.78162 0
M  V30 19469 C 1862.41 -1.9669 -2.7586 0
M  V30 19470 C 1860.97 -1.84538 -3.28059 0
M  V30 19471 C 1860.12 -1.91119 -2.0092 0
M  V30 19472 H 1863.07 -1.38396 -0.776669 0
M  V30 19473 H 1863.09 -1.50414 -3.49508 0
M  V30 19474 H 1862.6 -3.00455 -2.45659 0
M  V30 19475 H 1860.7 -0.836383 -3.63091 0
M  V30 19476 H 1860.81 -2.69095 -3.96389 0
M  V30 19477 H 1859.18 -1.34948 -2.16012 0
M  V30 19478 H 1859.96 -2.9648 -1.73074 0
M  V30 19479 N 1862.41 1.16121 -1.06553 0
M  V30 19480 C 1863.63 1.91152 -0.804706 0
M  V30 19481 C 1864.06 1.77045 0.635338 0
M  V30 19482 O 1863.41 1.09757 1.44302 0
M  V30 19483 C 1863.46 3.39782 -1.20751 0
M  V30 19484 O 1862.57 4.1093 -0.347889 0
M  V30 19485 H 1861.91 0.595433 -0.293863 0
M  V30 19486 H 1864.44 1.47104 -1.42203 0
M  V30 19487 H 1864.45 3.90558 -1.1802 0
M  V30 19488 H 1863.12 3.49369 -2.25642 0
M  V30 19489 H 1861.7 3.70331 -0.436993 0
M  V30 19490 N 1863.88 0.848487 1.3281 0
M  V30 19491 C 1865.13 0.449521 1.97755 0
M  V30 19492 C 1865.46 -0.990923 1.67016 0
M  V30 19493 O 1864.74 -1.69434 0.955119 0
M  V30 19494 C 1865.02 0.681898 3.53585 0
M  V30 19495 C 1864.87 2.17031 3.93976 0
M  V30 19496 C 1866.19 0.134271 4.39895 0
M  V30 19497 H 1863.31 0.164799 0.718339 0
M  V30 19498 H 1865.95 1.06578 1.57293 0
M  V30 19499 H 1864.1 0.157353 3.88181 0
M  V30 19500 H 1865.78 2.76046 3.69589 0
M  V30 19501 H 1864.02 2.65117 3.43359 0
M  V30 19502 H 1864.69 2.28362 5.02548 0
M  V30 19503 H 1867.17 0.582756 4.11999 0
M  V30 19504 H 1866.04 0.326479 5.47928 0
M  V30 19505 H 1866.3 -0.962576 4.31494 0
M  V30 19506 N 1865.36 -1.4549 0.605832 0
M  V30 19507 C 1866.33 -2.28964 -0.104089 0
M  V30 19508 C 1867.33 -1.39671 -0.796791 0
M  V30 19509 O 1868.52 -1.6181 -0.645221 0
M  V30 19510 C 1865.65 -3.20647 -1.1575 0
M  V30 19511 H 1866.84 -2.93213 0.629776 0
M  V30 19512 H 1864.39 -1.51983 0.3648 0
M  V30 19513 H 1865.13 -2.61194 -1.92219 0
M  V30 19514 H 1864.91 -3.86419 -0.665025 0
M  V30 19515 H 1866.4 -3.83416 -1.65474 0
M  V30 19516 N 1866.84 -0.344893 -1.5378 0
M  V30 19517 C 1867.8 0.498781 -2.23707 0
M  V30 19518 C 1868.8 1.02649 -1.23773 0
M  V30 19519 O 1869.99 0.915526 -1.48202 0
M  V30 19520 C 1867.13 1.69497 -2.95776 0
M  V30 19521 H 1868.32 -0.112815 -2.99688 0
M  V30 19522 H 1865.87 -0.0962613 -1.56003 0
M  V30 19523 H 1866.61 2.34522 -2.23986 0
M  V30 19524 H 1866.39 1.32376 -3.69079 0
M  V30 19525 H 1867.88 2.29334 -3.48992 0
M  V30 19526 N 1868.32 1.57428 -0.0735454 0
M  V30 19527 C 1869.55 1.97883 0.604148 0
M  V30 19528 C 1869.96 0.951968 1.63043 0
M  V30 19529 O 1869.32 -0.0611641 1.82397 0
M  V30 19530 C 1869.37 3.38414 1.27116 0
M  V30 19531 O 1869.09 4.37166 0.285951 0
M  V30 19532 C 1870.59 3.93753 2.03651 0
M  V30 19533 H 1867.81 0.650747 0.163613 0
M  V30 19534 H 1870.36 2.03975 -0.146466 0
M  V30 19535 H 1868.51 3.33403 1.97285 0
M  V30 19536 H 1868.92 5.18896 0.764698 0
M  V30 19537 H 1870.4 4.94298 2.45711 0
M  V30 19538 H 1870.88 3.30391 2.89376 0
M  V30 19539 H 1871.48 4.0217 1.38345 0
M  V30 19540 N 1869.8 -0.200022 1.56326 0
M  V30 19541 C 1870.73 -1.25071 1.97179 0
M  V30 19542 C 1871.71 -1.4774 0.84303 0
M  V30 19543 O 1872.89 -1.5956 1.10699 0
M  V30 19544 C 1870.02 -2.596 2.30706 0
M  V30 19545 C 1868.98 -2.51552 3.46274 0
M  V30 19546 C 1868.3 -3.90309 3.65463 0
M  V30 19547 C 1869.6 -2.0448 4.80609 0
M  V30 19548 H 1871.3 -0.911238 2.85196 0
M  V30 19549 H 1868.84 -0.436899 1.37212 0
M  V30 19550 H 1870.8 -3.33281 2.5788 0
M  V30 19551 H 1869.52 -2.95278 1.39565 0
M  V30 19552 H 1868.18 -1.80327 3.19183 0
M  V30 19553 H 1867.83 -4.23331 2.71662 0
M  V30 19554 H 1867.53 -3.858 4.43207 0
M  V30 19555 H 1869.05 -4.65619 3.95008 0
M  V30 19556 H 1870.46 -2.67917 5.06847 0
M  V30 19557 H 1868.86 -2.10985 5.61788 0
M  V30 19558 H 1869.93 -0.997828 4.74522 0
M  V30 19559 N 1871.27 -1.50505 -0.467553 0
M  V30 19560 C 1872.52 -1.61352 -1.21697 0
M  V30 19561 C 1872.84 -0.317583 -1.92396 0
M  V30 19562 O 1872.11 0.665123 -1.84263 0
M  V30 19563 H 1870.69 -0.594582 -0.452196 0
M  V30 19564 H 1873.36 -1.87299 -0.539 0
M  V30 19565 H 1872.45 -2.4264 -1.96296 0
M  V30 19566 N 1872.75 0.720973 -1.40142 0
M  V30 19567 C 1874 1.48078 -1.38128 0
M  V30 19568 C 1874.33 1.94491 0.0181891 0
M  V30 19569 O 1873.58 1.68119 1.00172 0
M  V30 19570 C 1873.88 2.72513 -2.31239 0
M  V30 19571 C 1873.55 2.44893 -3.78601 0
M  V30 19572 C 1872.21 2.3707 -4.1875 0
M  V30 19573 C 1874.56 2.21598 -4.71745 0
M  V30 19574 C 1871.89 2.04013 -5.50087 0
M  V30 19575 C 1874.24 1.90055 -6.03375 0
M  V30 19576 C 1872.91 1.8071 -6.42573 0
M  V30 19577 H 1872.18 0.541854 -0.505446 0
M  V30 19578 H 1874.82 0.826311 -1.72755 0
M  V30 19579 H 1873.13 3.4277 -1.89778 0
M  V30 19580 H 1874.82 3.30586 -2.26967 0
M  V30 19581 H 1871.41 2.51866 -3.46788 0
M  V30 19582 H 1875.6 2.26601 -4.41549 0
M  V30 19583 H 1870.85 1.95311 -5.79365 0
M  V30 19584 H 1875.03 1.71042 -6.75069 0
M  V30 19585 H 1872.66 1.54862 -7.44259 0
M  V30 19586 N 1874.23 1.25549 0.952634 0
M  V30 19587 C 1875.48 1.10198 1.69413 0
M  V30 19588 C 1875.8 -0.357345 1.91698 0
M  V30 19589 O 1875.07 -1.25345 1.5055 0
M  V30 19590 H 1873.65 0.404804 0.627808 0
M  V30 19591 H 1876.31 1.57703 1.14524 0
M  V30 19592 H 1875.41 1.61185 2.67256 0
M  V30 19593 N 1875.71 -1.15554 1.07168 0
M  V30 19594 C 1876.67 -2.18431 0.694305 0
M  V30 19595 C 1877.67 -1.5861 -0.264497 0
M  V30 19596 O 1878.86 -1.7414 -0.0457035 0
M  V30 19597 C 1875.99 -3.40892 0.0230473 0
M  V30 19598 H 1877.19 -2.53331 1.60511 0
M  V30 19599 H 1874.74 -1.29984 0.867982 0
M  V30 19600 H 1875.47 -3.11559 -0.900083 0
M  V30 19601 H 1875.26 -3.8557 0.712622 0
M  V30 19602 H 1876.75 -4.16986 -0.226392 0
M  V30 19603 N 1877.19 -0.855519 -1.32358 0
M  V30 19604 C 1878.42 -0.472645 -2.01121 0
M  V30 19605 C 1878.83 0.935468 -1.64456 0
M  V30 19606 O 1878.17 1.62204 -0.862292 0
M  V30 19607 C 1878.23 -0.533025 -3.55527 0
M  V30 19608 C 1877.89 -1.90018 -4.15622 0
M  V30 19609 C 1878.89 -2.86576 -4.33786 0
M  V30 19610 C 1876.58 -2.19756 -4.51677 0
M  V30 19611 C 1878.57 -4.11023 -4.87175 0
M  V30 19612 C 1876.26 -3.44456 -5.0477 0
M  V30 19613 C 1877.26 -4.39905 -5.22468 0
M  V30 19614 O 1876.94 -5.62397 -5.74426 0
M  V30 19615 H 1876.68 -0.184097 -0.650449 0
M  V30 19616 H 1879.23 -1.15437 -1.69892 0
M  V30 19617 H 1877.46 0.205561 -3.86153 0
M  V30 19618 H 1879.15 -0.165631 -4.05562 0
M  V30 19619 H 1879.91 -2.64905 -4.06264 0
M  V30 19620 H 1875.79 -1.46247 -4.37187 0
M  V30 19621 H 1879.34 -4.85532 -5.00903 0
M  V30 19622 H 1875.23 -3.65976 -5.31725 0
M  V30 19623 H 1876 -5.64367 -5.92817 0
M  V30 19624 N 1878.67 1.45167 -0.61354 0
M  V30 19625 C 1879.6 2.27701 0.150791 0
M  V30 19626 C 1880.58 1.37493 0.868012 0
M  V30 19627 O 1881.76 1.66926 0.875677 0
M  V30 19628 C 1878.89 3.16008 1.21887 0
M  V30 19629 C 1877.93 4.222 0.604131 0
M  V30 19630 S 1878.77 5.32212 -0.592512 0
M  V30 19631 C 1879.92 6.24087 0.476016 0
M  V30 19632 H 1880.16 2.92179 -0.549425 0
M  V30 19633 H 1877.69 1.49096 -0.401218 0
M  V30 19634 H 1879.65 3.67441 1.83022 0
M  V30 19635 H 1878.31 2.50784 1.89119 0
M  V30 19636 H 1877.5 4.83934 1.40797 0
M  V30 19637 H 1877.1 3.73939 0.0677896 0
M  V30 19638 H 1879.39 6.63843 1.35346 0
M  V30 19639 H 1880.34 7.08022 -0.105315 0
M  V30 19640 H 1880.75 5.58888 0.794018 0
M  V30 19641 N 1880.14 0.353044 1.53595 0
M  V30 19642 C 1881.37 -0.244309 2.05956 0
M  V30 19643 C 1881.79 -1.42681 1.22571 0
M  V30 19644 O 1881.15 -1.79681 0.241723 0
M  V30 19645 C 1881.2 -0.628083 3.55088 0
M  V30 19646 O 1880.3 -1.72693 3.74501 0
M  V30 19647 H 1879.64 -0.038537 0.662881 0
M  V30 19648 H 1882.17 0.510013 1.98141 0
M  V30 19649 H 1882.18 -0.902597 3.97891 0
M  V30 19650 H 1880.86 0.236643 4.15226 0
M  V30 19651 H 1879.44 -1.44895 3.43599 0
M  V30 19652 N 1881.62 -1.57387 0.0818932 0
M  V30 19653 C 1882.57 -2.13292 -0.881772 0
M  V30 19654 C 1883.54 -1.04801 -1.28864 0
M  V30 19655 O 1884.72 -1.32519 -1.37272 0
M  V30 19656 C 1881.86 -2.70708 -2.14035 0
M  V30 19657 C 1880.98 -3.93388 -1.78522 0
M  V30 19658 C 1880.11 -4.39013 -2.99067 0
M  V30 19659 C 1879.15 -5.54315 -2.59617 0
M  V30 19660 N 1878.29 -5.94853 -3.72954 0
M  V30 19661 H 1883.13 -2.95328 -0.398167 0
M  V30 19662 H 1880.66 -1.45934 -0.184876 0
M  V30 19663 H 1882.62 -3.0211 -2.87724 0
M  V30 19664 H 1881.25 -1.91421 -2.59919 0
M  V30 19665 H 1880.3 -3.68384 -0.948546 0
M  V30 19666 H 1881.62 -4.77106 -1.45505 0
M  V30 19667 H 1880.77 -4.72129 -3.81023 0
M  V30 19668 H 1879.51 -3.54169 -3.35284 0
M  V30 19669 H 1878.51 -5.2084 -1.76084 0
M  V30 19670 H 1879.74 -6.40898 -2.24558 0
M  V30 19671 H 1877.69 -5.12957 -4.08915 0
M  V30 19672 H 1877.6 -6.73335 -3.43739 0
M  V30 19673 H 1878.87 -6.32595 -4.5546 0
M  V30 19674 N 1883.1 0.191729 -1.56429 0
M  V30 19675 C 1884.06 1.22128 -1.93952 0
M  V30 19676 C 1885.06 1.38262 -0.820984 0
M  V30 19677 O 1886.25 1.36017 -1.08835 0
M  V30 19678 C 1883.38 2.59005 -2.21651 0
M  V30 19679 H 1884.58 0.900458 -2.86063 0
M  V30 19680 H 1882.13 0.433382 -1.50172 0
M  V30 19681 H 1882.87 2.96136 -1.32189 0
M  V30 19682 H 1882.65 2.48665 -3.03164 0
M  V30 19683 H 1884.14 3.33242 -2.51674 0
M  V30 19684 N 1884.58 1.50751 0.459565 0
M  V30 19685 C 1885.53 1.6684 1.55397 0
M  V30 19686 C 1886.51 0.522747 1.52171 0
M  V30 19687 O 1887.7 0.777681 1.59 0
M  V30 19688 C 1884.83 1.77648 2.93762 0
M  V30 19689 C 1883.92 2.97927 3.01828 0
M  V30 19690 N 1884.31 4.2144 2.79682 0
M  V30 19691 C 1882.61 2.96724 3.32973 0
M  V30 19692 C 1883.31 5.02511 2.93015 0
M  V30 19693 N 1882.28 4.367 3.2372 0
M  V30 19694 H 1886.09 2.60019 1.36993 0
M  V30 19695 H 1883.6 1.48093 0.666502 0
M  V30 19696 H 1885.6 1.87281 3.72467 0
M  V30 19697 H 1884.26 0.856356 3.13204 0
M  V30 19698 H 1885.27 4.5075 2.55039 0
M  V30 19699 H 1881.95 2.14256 3.5833 0
M  V30 19700 H 1883.34 6.10762 2.80035 0
M  V30 19701 N 1886.06 -0.713531 1.40522 0
M  V30 19702 C 1887.3 -1.47052 1.38637 0
M  V30 19703 C 1887.62 -1.94998 -0.00984474 0
M  V30 19704 O 1886.89 -1.70486 -0.964959 0
M  V30 19705 H 1885.47 -0.545577 0.51025 0
M  V30 19706 H 1888.14 -0.84572 1.75595 0
M  V30 19707 H 1887.23 -2.34237 2.06251 0
M  V30 19708 N 1887.53 -1.26053 -0.945962 0
M  V30 19709 C 1888.78 -1.10706 -1.68603 0
M  V30 19710 C 1889.1 0.350167 -1.9244 0
M  V30 19711 O 1890.3 0.624224 -2.64227 0
M  V30 19712 C 1888.76 -1.93306 -3.0358 0
M  V30 19713 C 1888.37 -3.43574 -2.87508 0
M  V30 19714 C 1890.11 -1.86555 -3.8131 0
M  V30 19715 C 1888.02 -4.18438 -4.17928 0
M  V30 19716 H 1886.95 -0.410689 -0.632337 0
M  V30 19717 H 1889.6 -1.50322 -1.0524 0
M  V30 19718 H 1887.98 -1.4652 -3.67897 0
M  V30 19719 H 1889.15 -3.98096 -2.3207 0
M  V30 19720 H 1887.47 -3.51511 -2.23224 0
M  V30 19721 H 1890.07 -2.39775 -4.77925 0
M  V30 19722 H 1890.41 -0.83525 -4.07835 0
M  V30 19723 H 1890.94 -2.31138 -3.23759 0
M  V30 19724 H 1887.68 -5.21917 -3.96589 0
M  V30 19725 H 1887.2 -3.68698 -4.73098 0
M  V30 19726 H 1888.88 -4.26626 -4.86415 0
M  V30 19727 N 1889.01 1.14984 -1.07779 0
M  V30 19728 C 1889.96 2.2193 -0.696405 0
M  V30 19729 C 1890.95 1.66815 0.294832 0
M  V30 19730 O 1892.16 1.79305 0.158081 0
M  V30 19731 H 1888.53 0.722908 -0.207143 0
M  V30 19732 H 1890.51 2.51374 -1.60791 0
M  V30 19733 C 1889.25 3.4751 -0.114943 0
M  V30 19734 H 1888.58 3.90245 -0.86883 0
M  V30 19735 H 1890.02 4.23846 0.114195 0
M  V30 19736 C 1888.48 3.16827 1.14552 0
M  V30 19737 O 1889.01 3.34026 2.23135 0
M  V30 19738 N 1887.21 2.70836 1.05339 0
M  V30 19739 H 1886.76 2.5704 0.169728 0
M  V30 19740 H 1886.72 2.50681 1.89754 0
M  V30 19741 N 1890.49 0.862526 1.31902 0
M  V30 19742 C 1891.9 0.523345 1.79215 0
M  V30 19743 C 1892.25 -0.95931 1.71148 0
M  V30 19744 O 1891.38 -1.74868 1.27476 0
M  V30 19745 C 1891.97 0.943195 3.25406 0
M  V30 19746 C 1890.53 0.655789 3.70643 0
M  V30 19747 C 1889.68 1.13861 2.52846 0
M  V30 19748 H 1892.63 1.04897 1.19089 0
M  V30 19749 H 1892.65 0.262794 3.79591 0
M  V30 19750 H 1892.16 2.02233 3.31245 0
M  V30 19751 H 1890.26 -0.412291 3.70312 0
M  V30 19752 H 1890.38 1.2276 4.63106 0
M  V30 19753 H 1888.74 0.558615 2.48499 0
M  V30 19754 H 1889.52 2.22501 2.61434 0
M  V30 19755 N 1891.97 -1.4484 0.62123 0
M  V30 19756 C 1892.92 -2.32377 -0.1019 0
M  V30 19757 C 1893.91 -1.4677 -0.845862 0
M  V30 19758 O 1895.12 -1.63174 -0.759882 0
M  V30 19759 H 1891.49 -0.75022 -0.0517143 0
M  V30 19760 H 1893.46 -2.91131 0.654623 0
M  V30 19761 C 1892.21 -3.30611 -1.07665 0
M  V30 19762 H 1891.53 -3.96487 -0.513612 0
M  V30 19763 H 1892.97 -3.94563 -1.5523 0
M  V30 19764 C 1891.43 -2.58795 -2.157 0
M  V30 19765 O 1891.96 -2.37947 -3.23642 0
M  V30 19766 N 1890.17 -2.187 -1.9136 0
M  V30 19767 H 1889.72 -2.35856 -1.03584 0
M  V30 19768 H 1889.67 -1.70975 -2.63847 0
M  V30 19769 N 1893.45 -0.361184 -1.53405 0
M  V30 19770 C 1894.7 0.230977 -2.00373 0
M  V30 19771 C 1895.01 1.50228 -1.25264 0
M  V30 19772 O 1896.21 2.17277 -1.62798 0
M  V30 19773 C 1894.67 0.462153 -3.5692 0
M  V30 19774 C 1894.28 -0.794263 -4.40903 0
M  V30 19775 C 1896.02 1.01221 -4.12255 0
M  V30 19776 C 1893.93 -0.532914 -5.88994 0
M  V30 19777 H 1892.86 0.0900886 -0.748599 0
M  V30 19778 H 1895.51 -0.479245 -1.77131 0
M  V30 19779 H 1893.89 1.23352 -3.76298 0
M  V30 19780 H 1895.07 -1.56809 -4.33298 0
M  V30 19781 H 1893.38 -1.26722 -3.96649 0
M  V30 19782 H 1895.98 1.22299 -5.20526 0
M  V30 19783 H 1896.32 1.97304 -3.66575 0
M  V30 19784 H 1896.85 0.301113 -3.96659 0
M  V30 19785 H 1893.59 -1.46395 -6.38943 0
M  V30 19786 H 1893.11 0.202496 -5.99458 0
M  V30 19787 H 1894.79 -0.156772 -6.4681 0
M  V30 19788 N 1894.92 1.57341 -0.0902386 0
M  V30 19789 C 1896.34 1.57361 0.266413 0
M  V30 19790 C 1896.54 1.10104 1.68758 0
M  V30 19791 O 1895.6 0.775287 2.40303 0
M  V30 19792 C 1896.91 3.00642 0.0592661 0
M  V30 19793 C 1898.46 3.12741 0.127389 0
M  V30 19794 C 1898.93 4.57971 -0.0517042 0
M  V30 19795 N 1900.42 4.632 0.0032917 0
M  V30 19796 C 1901.16 5.73293 -0.110598 0
M  V30 19797 N 1900.65 6.92238 -0.279049 0
M  V30 19798 N 1902.45 5.62076 -0.0522147 0
M  V30 19799 H 1894.6 1.86369 -1.01884 0
M  V30 19800 H 1896.86 0.859996 -0.398886 0
M  V30 19801 H 1896.57 3.39396 -0.922117 0
M  V30 19802 H 1896.44 3.68539 0.80368 0
M  V30 19803 H 1898.83 2.73861 1.09927 0
M  V30 19804 H 1898.91 2.47445 -0.648435 0
M  V30 19805 H 1898.55 4.97544 -1.02043 0
M  V30 19806 H 1898.48 5.21321 0.743753 0
M  V30 19807 H 1900.97 3.77672 0.131145 0
M  V30 19808 H 1901.29 7.71972 -0.357596 0
M  V30 19809 H 1899.63 6.94287 -0.314653 0
M  V30 19810 H 1902.82 4.68035 0.0782189 0
M  V30 19811 H 1903 6.47839 -0.144423 0
M  V30 19812 N 1896.4 -0.183431 1.56529 0
M  V30 19813 C 1897.63 -0.917888 1.85425 0
M  V30 19814 C 1898.05 -1.76353 0.674171 0
M  V30 19815 O 1897.4 -1.78975 -0.35695 0
M  V30 19816 C 1897.45 -1.80454 3.13239 0
M  V30 19817 O 1897.17 -0.993028 4.26697 0
M  V30 19818 C 1898.68 -2.64969 3.55396 0
M  V30 19819 H 1895.9 -0.267254 0.61548 0
M  V30 19820 H 1898.44 -0.187171 2.03642 0
M  V30 19821 H 1896.59 -2.48874 2.96884 0
M  V30 19822 H 1897.01 -1.59831 4.99554 0
M  V30 19823 H 1898.48 -3.22819 4.47763 0
M  V30 19824 H 1898.96 -3.3925 2.78937 0
M  V30 19825 H 1899.57 -2.01902 3.74321 0
M  V30 19826 N 1897.88 -1.50992 -0.451564 0
M  V30 19827 C 1899.13 -1.62633 -1.19978 0
M  V30 19828 C 1899.45 -0.337971 -1.92049 0
M  V30 19829 O 1898.72 0.645542 -1.84958 0
M  V30 19830 H 1897.3 -0.599345 -0.445864 0
M  V30 19831 H 1899.96 -1.8786 -0.519104 0
M  V30 19832 H 1899.06 -2.44709 -1.93711 0
M  V30 19833 N 1899.36 0.706069 -1.40899 0
M  V30 19834 C 1900.6 1.46821 -1.39898 0
M  V30 19835 C 1900.94 1.942 -0.00437855 0
M  V30 19836 O 1900.21 1.68815 0.966002 0
M  V30 19837 C 1900.5 2.68756 -2.39671 0
M  V30 19838 C 1900.35 2.27211 -3.88195 0
M  V30 19839 C 1901.67 3.70935 -2.36845 0
M  V30 19840 H 1898.79 0.532549 -0.509471 0
M  V30 19841 H 1901.43 0.805057 -1.72101 0
M  V30 19842 H 1899.58 3.25337 -2.1234 0
M  V30 19843 H 1901.25 1.76038 -4.2639 0
M  V30 19844 H 1899.49 1.59108 -4.03568 0
M  V30 19845 H 1900.16 3.14656 -4.53537 0
M  V30 19846 H 1902.64 3.24004 -2.61076 0
M  V30 19847 H 1901.52 4.53876 -3.08687 0
M  V30 19848 H 1901.78 4.19899 -1.38337 0
M  V30 19849 N 1900.84 1.26553 0.939264 0
M  V30 19850 C 1902.25 1.03707 1.21314 0
M  V30 19851 C 1902.45 -0.236596 2.00106 0
M  V30 19852 O 1901.51 -0.945218 2.34141 0
M  V30 19853 C 1902.82 2.26961 1.97254 0
M  V30 19854 C 1904.37 2.31881 2.10238 0
M  V30 19855 C 1904.84 3.54833 2.89582 0
M  V30 19856 N 1906.34 3.55321 2.97155 0
M  V30 19857 C 1907.07 4.47125 3.58981 0
M  V30 19858 N 1906.57 5.49219 4.22292 0
M  V30 19859 N 1908.36 4.34772 3.56272 0
M  V30 19860 H 1900.51 2.08355 0.412571 0
M  V30 19861 H 1902.77 0.915775 0.245073 0
M  V30 19862 H 1902.48 3.19612 1.46769 0
M  V30 19863 H 1902.35 2.3136 2.97913 0
M  V30 19864 H 1904.74 1.39743 2.59915 0
M  V30 19865 H 1904.82 2.31492 1.08836 0
M  V30 19866 H 1904.47 4.47301 2.40591 0
M  V30 19867 H 1904.4 3.52471 3.91244 0
M  V30 19868 H 1906.89 2.81479 2.52147 0
M  V30 19869 H 1907.2 6.15454 4.67371 0
M  V30 19870 H 1905.54 5.53074 4.20873 0
M  V30 19871 H 1908.74 3.5423 3.06005 0
M  V30 19872 H 1908.91 5.06511 4.04167 0
M  V30 19873 N 1902.31 -1.14411 1.08387 0
M  V30 19874 C 1903.54 -1.89307 0.834895 0
M  V30 19875 C 1903.96 -1.78574 -0.612923 0
M  V30 19876 O 1903.31 -1.14494 -1.42118 0
M  V30 19877 C 1903.37 -3.39289 1.24761 0
M  V30 19878 O 1903.09 -3.49725 2.63863 0
M  V30 19879 C 1904.59 -4.31181 1.02947 0
M  V30 19880 H 1901.81 -0.599644 0.301112 0
M  V30 19881 H 1904.35 -1.44897 1.44309 0
M  V30 19882 H 1902.51 -3.81322 0.683524 0
M  V30 19883 H 1902.92 -4.42884 2.80988 0
M  V30 19884 H 1904.39 -5.34789 1.36763 0
M  V30 19885 H 1904.87 -4.39187 -0.0335224 0
M  V30 19886 H 1905.48 -3.94903 1.57898 0
M  V30 19887 N 1903.79 -0.869509 -1.31443 0
M  V30 19888 C 1905.04 -0.480925 -1.97015 0
M  V30 19889 C 1905.37 0.964227 -1.68571 0
M  V30 19890 O 1904.65 1.67893 -0.981953 0
M  V30 19891 C 1904.93 -0.738064 -3.52455 0
M  V30 19892 C 1904.78 -2.23272 -3.90474 0
M  V30 19893 C 1906.1 -0.204237 -4.39626 0
M  V30 19894 H 1903.22 -0.176206 -0.715626 0
M  V30 19895 H 1905.86 -1.09066 -1.55578 0
M  V30 19896 H 1904.01 -0.21909 -3.87882 0
M  V30 19897 H 1905.68 -2.81891 -3.65151 0
M  V30 19898 H 1903.93 -2.70546 -3.39098 0
M  V30 19899 H 1904.6 -2.36328 -4.98852 0
M  V30 19900 H 1907.07 -0.648228 -4.1102 0
M  V30 19901 H 1905.95 -0.413608 -5.47339 0
M  V30 19902 H 1906.21 0.893807 -4.32971 0
M  V30 19903 N 1905.27 1.44508 -0.628902 0
M  V30 19904 C 1906.5 2.06429 -0.13951 0
M  V30 19905 C 1906.91 1.46981 1.18499 0
M  V30 19906 O 1906.27 0.591856 1.72636 0
M  V30 19907 C 1906.32 3.61496 -0.016195 0
M  V30 19908 O 1906.04 4.18729 -1.28831 0
M  V30 19909 C 1907.54 4.40447 0.502154 0
M  V30 19910 H 1904.76 0.666375 -0.0786479 0
M  V30 19911 H 1907.31 1.85414 -0.862674 0
M  V30 19912 H 1905.46 3.81781 0.657398 0
M  V30 19913 H 1905.88 5.12145 -1.13171 0
M  V30 19914 H 1907.35 5.49377 0.537458 0
M  V30 19915 H 1907.83 4.11735 1.52876 0
M  V30 19916 H 1908.43 4.25076 -0.138113 0
M  V30 19917 N 1906.75 0.369315 1.53212 0
M  V30 19918 C 1907.98 -0.219858 2.05729 0
M  V30 19919 C 1908.39 -1.42148 1.24255 0
M  V30 19920 O 1907.75 -1.80274 0.284146 0
M  V30 19921 C 1907.8 -0.609683 3.56322 0
M  V30 19922 O 1907.52 0.544184 4.34707 0
M  V30 19923 C 1909.02 -1.25685 4.2511 0
M  V30 19924 H 1906.24 -0.037867 0.669931 0
M  V30 19925 H 1908.79 0.528765 1.97546 0
M  V30 19926 H 1906.94 -1.30822 3.64643 0
M  V30 19927 H 1907.36 0.228276 5.24003 0
M  V30 19928 H 1908.83 -1.48014 5.31785 0
M  V30 19929 H 1909.31 -2.21827 3.79064 0
M  V30 19930 H 1909.91 -0.59964 4.21052 0
M  V30 19931 N 1908.23 -1.57291 0.0985816 0
M  V30 19932 C 1909.48 -1.94094 -0.563189 0
M  V30 19933 C 1909.8 -0.981394 -1.68504 0
M  V30 19934 O 1909.07 -0.0340632 -1.9587 0
M  V30 19935 H 1907.65 -0.716571 -0.211033 0
M  V30 19936 H 1910.31 -1.94219 0.162732 0
M  V30 19937 H 1909.4 -2.96607 -0.971113 0
M  V30 19938 N 1909.71 0.175127 -1.56624 0
M  V30 19939 C 1910.98 0.919424 -1.72644 0
M  V30 19940 C 1911.36 2.00553 -0.658929 0
M  V30 19941 O 1910.71 2.2615 0.326897 0
M  V30 19942 C 1910.92 1.48764 -3.15706 0
M  V30 19943 C 1912.27 1.96204 -3.76549 0
M  V30 19944 O 1913.29 1.58565 -3.1896 0
M  V30 19945 O 1912.15 2.65525 -4.7766 0
M  V30 19946 H 1909.25 0.43251 -0.704886 0
M  V30 19947 H 1911.79 0.163255 -1.68913 0
M  V30 19948 H 1910.56 0.705743 -3.84883 0
M  V30 19949 H 1910.19 2.3081 -3.23748 0
M  V30 19950 N 1911.18 1.5123 0.44355 0
M  V30 19951 C 1912.41 1.67671 1.2207 0
M  V30 19952 C 1912.83 0.370934 1.84406 0
M  V30 19953 O 1912.19 -0.668265 1.68535 0
M  V30 19954 C 1912.24 2.7896 2.28503 0
M  V30 19955 O 1911.34 2.4213 3.33837 0
M  V30 19956 H 1910.68 0.559275 0.357921 0
M  V30 19957 H 1913.21 1.9776 0.524592 0
M  V30 19958 H 1913.22 3.0286 2.73386 0
M  V30 19959 H 1911.9 3.73716 1.82509 0
M  V30 19960 H 1910.48 2.28779 2.94473 0
M  V30 19961 N 1912.66 -0.698586 1.41271 0
M  V30 19962 C 1913.91 -1.45425 1.39766 0
M  V30 19963 C 1914.22 -1.95598 0.00891528 0
M  V30 19964 O 1915.43 -2.71195 -0.128757 0
M  V30 19965 C 1913.89 -2.62952 2.45732 0
M  V30 19966 C 1913.49 -2.19578 3.90499 0
M  V30 19967 C 1915.24 -3.40602 2.53359 0
M  V30 19968 C 1913.14 -3.34046 4.88024 0
M  V30 19969 H 1912.07 -0.546236 0.519752 0
M  V30 19970 H 1914.73 -0.758678 1.67082 0
M  V30 19971 H 1913.11 -3.34762 2.11542 0
M  V30 19972 H 1914.28 -1.55077 4.33921 0
M  V30 19973 H 1912.6 -1.5493 3.86504 0
M  V30 19974 H 1915.19 -4.25809 3.23405 0
M  V30 19975 H 1915.54 -3.85582 1.56946 0
M  V30 19976 H 1916.07 -2.75846 2.86625 0
M  V30 19977 H 1912.81 -2.94081 5.8583 0
M  V30 19978 H 1912.33 -3.97407 4.49253 0
M  V30 19979 H 1914.01 -3.99867 5.0864 0
M  V30 19980 N 1914.14 -1.27049 -0.93254 0
M  V30 19981 C 1915.37 -1.15903 -1.71389 0
M  V30 19982 C 1915.78 0.284726 -1.86641 0
M  V30 19983 O 1915.14 1.19428 -1.37997 0
M  V30 19984 C 1915.19 -1.83254 -3.11609 0
M  V30 19985 O 1914.91 -3.21988 -2.97078 0
M  V30 19986 C 1916.41 -1.78172 -4.05918 0
M  V30 19987 H 1913.63 -0.403197 -0.536352 0
M  V30 19988 H 1916.18 -1.67831 -1.16846 0
M  V30 19989 H 1914.33 -1.35243 -3.63026 0
M  V30 19990 H 1914.75 -3.55447 -3.85691 0
M  V30 19991 H 1916.22 -2.29919 -5.01838 0
M  V30 19992 H 1916.7 -0.750036 -4.32748 0
M  V30 19993 H 1917.3 -2.25774 -3.60425 0
M  V30 19994 N 1915.62 1.13835 -1.08993 0
M  V30 19995 C 1916.85 1.88588 -0.843698 0
M  V30 19996 C 1917.26 1.79154 0.608307 0
M  V30 19997 O 1916.6 1.1529 1.43017 0
M  V30 19998 C 1916.66 3.39079 -1.19438 0
M  V30 19999 C 1916.32 3.72295 -2.65038 0
M  V30 20000 C 1917.32 3.71911 -3.63288 0
M  V30 20001 C 1915.01 4.0209 -3.01046 0
M  V30 20002 C 1917 4.00855 -4.95574 0
M  V30 20003 C 1914.69 4.30697 -4.33525 0
M  V30 20004 C 1915.69 4.30063 -5.30598 0
M  V30 20005 O 1915.37 4.57972 -6.60694 0
M  V30 20006 H 1915.11 0.60402 -0.303539 0
M  V30 20007 H 1917.66 1.45055 -1.45424 0
M  V30 20008 H 1915.89 3.83094 -0.526861 0
M  V30 20009 H 1917.58 3.95149 -0.928011 0
M  V30 20010 H 1918.34 3.48972 -3.36814 0
M  V30 20011 H 1914.22 4.01733 -2.26123 0
M  V30 20012 H 1917.77 4.00276 -5.71336 0
M  V30 20013 H 1913.66 4.53106 -4.59745 0
M  V30 20014 H 1914.43 4.75661 -6.661 0
M  V30 20015 N 1917.1 0.876467 1.3098 0
M  V30 20016 C 1918.32 0.504524 2.0117 0
M  V30 20017 C 1918.75 -0.897295 1.65319 0
M  V30 20018 O 1918.1 -1.59321 0.865255 0
M  V30 20019 C 1918.15 0.676516 3.54197 0
M  V30 20020 O 1917.26 -0.28134 4.11439 0
M  V30 20021 H 1916.6 0.199855 0.633209 0
M  V30 20022 H 1919.13 1.18167 1.67026 0
M  V30 20023 H 1919.14 0.572273 4.03967 0
M  V30 20024 H 1917.81 1.69864 3.7963 0
M  V30 20025 H 1916.39 -0.131506 3.72668 0
M  V30 20026 N 1918.57 -1.44173 0.636557 0
M  V30 20027 C 1919.8 -2.06352 0.150456 0
M  V30 20028 C 1920.22 -1.47608 -1.17718 0
M  V30 20029 O 1919.57 -0.601003 -1.7232 0
M  V30 20030 C 1919.62 -3.61483 0.0353658 0
M  V30 20031 O 1919.35 -4.1804 1.3105 0
M  V30 20032 C 1920.85 -4.40707 -0.478789 0
M  V30 20033 H 1918.07 -0.665948 0.0821807 0
M  V30 20034 H 1920.61 -1.84953 0.872495 0
M  V30 20035 H 1918.77 -3.82125 -0.637142 0
M  V30 20036 H 1919.18 -5.11538 1.15886 0
M  V30 20037 H 1920.65 -5.49655 -0.508315 0
M  V30 20038 H 1921.13 -4.1254 -1.5069 0
M  V30 20039 H 1921.74 -4.24996 0.160654 0
M  V30 20040 N 1920.05 -0.377435 -1.53014 0
M  V30 20041 C 1921.28 0.208641 -2.05544 0
M  V30 20042 C 1921.69 1.42037 -1.24988 0
M  V30 20043 O 1921.03 1.81451 -0.286565 0
M  V30 20044 C 1921.09 0.654786 -3.53487 0
M  V30 20045 C 1920.76 -0.441865 -4.54859 0
M  V30 20046 C 1921.76 -1.29552 -5.035 0
M  V30 20047 C 1919.44 -0.605501 -4.98637 0
M  V30 20048 C 1921.43 -2.29804 -5.94533 0
M  V30 20049 C 1919.12 -1.61137 -5.89473 0
M  V30 20050 C 1920.12 -2.45607 -6.37312 0
M  V30 20051 O 1919.81 -3.44477 -7.26355 0
M  V30 20052 H 1919.54 0.0379445 -0.674934 0
M  V30 20053 H 1922.09 -0.537644 -1.98239 0
M  V30 20054 H 1920.32 1.45286 -3.5837 0
M  V30 20055 H 1922.01 1.16519 -3.88816 0
M  V30 20056 H 1922.78 -1.18035 -4.70418 0
M  V30 20057 H 1918.66 0.042229 -4.60981 0
M  V30 20058 H 1922.2 -2.95771 -6.31795 0
M  V30 20059 H 1918.1 -1.72697 -6.21969 0
M  V30 20060 H 1918.87 -3.40345 -7.44384 0
M  V30 20061 N 1921.53 1.57237 -0.106922 0
M  V30 20062 C 1922.78 1.9439 0.552888 0
M  V30 20063 C 1923.1 0.990316 1.67981 0
M  V30 20064 O 1922.37 0.0444502 1.9585 0
M  V30 20065 H 1920.95 0.71768 0.20723 0
M  V30 20066 H 1923.61 1.9413 -0.17303 0
M  V30 20067 H 1922.71 2.97118 0.955369 0
M  V30 20068 N 1923.01 -0.166818 1.56715 0
M  V30 20069 C 1923.96 -1.20646 1.96757 0
M  V30 20070 C 1924.93 -1.43751 0.832153 0
M  V30 20071 O 1926.11 -1.56416 1.09264 0
M  V30 20072 C 1923.25 -2.53971 2.3365 0
M  V30 20073 C 1922.36 -2.38207 3.60391 0
M  V30 20074 C 1921.5 -3.6443 3.86476 0
M  V30 20075 C 1920.54 -3.43618 5.0655 0
M  V30 20076 N 1919.67 -4.61923 5.28746 0
M  V30 20077 H 1924.51 -0.857983 2.85382 0
M  V30 20078 H 1922.05 -0.412238 1.41206 0
M  V30 20079 H 1924.01 -3.31684 2.53064 0
M  V30 20080 H 1922.64 -2.86805 1.48131 0
M  V30 20081 H 1921.69 -1.51648 3.48866 0
M  V30 20082 H 1923 -2.18777 4.48261 0
M  V30 20083 H 1922.16 -4.50578 4.06282 0
M  V30 20084 H 1920.9 -3.86844 2.9699 0
M  V30 20085 H 1919.9 -2.55858 4.86638 0
M  V30 20086 H 1921.13 -3.22623 5.97571 0
M  V30 20087 H 1919.07 -4.84547 4.42211 0
M  V30 20088 H 1918.99 -4.45423 6.10848 0
M  V30 20089 H 1920.26 -5.4934 5.53033 0
M  V30 20090 N 1924.49 -1.51463 -0.435524 0
M  V30 20091 C 1925.73 -1.64221 -1.18481 0
M  V30 20092 C 1926.06 -0.359315 -1.91152 0
M  V30 20093 O 1925.32 0.656683 -1.84353 0
M  V30 20094 C 1925.62 -2.79695 -2.22498 0
M  V30 20095 C 1925.28 -4.18903 -1.66826 0
M  V30 20096 C 1923.94 -4.56773 -1.51366 0
M  V30 20097 C 1926.3 -5.05763 -1.2591 0
M  V30 20098 C 1923.62 -5.79207 -0.93467 0
M  V30 20099 C 1925.98 -6.28777 -0.694404 0
M  V30 20100 C 1924.64 -6.65419 -0.52672 0
M  V30 20101 H 1923.91 -0.600927 -0.433552 0
M  V30 20102 H 1926.56 -1.855 -0.475618 0
M  V30 20103 H 1924.86 -2.52646 -2.99462 0
M  V30 20104 H 1926.56 -2.86766 -2.80297 0
M  V30 20105 H 1923.15 -3.89046 -1.79835 0
M  V30 20106 H 1927.33 -4.7711 -1.36674 0
M  V30 20107 H 1922.59 -6.06242 -0.792531 0
M  V30 20108 H 1926.76 -6.95422 -0.36886 0
M  V30 20109 H 1924.39 -7.60162 -0.0759538 0
M  V30 20110 N 1925.96 0.691085 -1.4164 0
M  V30 20111 C 1927.21 1.44682 -1.40535 0
M  V30 20112 C 1927.53 1.9559 -0.0192882 0
M  V30 20113 O 1928.73 2.71259 0.114373 0
M  V30 20114 C 1927.19 2.61645 -2.47123 0
M  V30 20115 C 1926.8 2.17504 -3.91658 0
M  V30 20116 C 1928.54 3.39253 -2.55162 0
M  V30 20117 C 1926.45 3.31453 -4.89789 0
M  V30 20118 H 1925.38 0.543472 -0.522641 0
M  V30 20119 H 1928.03 0.749807 -1.67482 0
M  V30 20120 H 1926.41 3.33636 -2.13314 0
M  V30 20121 H 1927.58 1.52774 -4.34738 0
M  V30 20122 H 1925.9 1.52878 -3.87321 0
M  V30 20123 H 1928.5 4.24088 -3.25659 0
M  V30 20124 H 1928.84 3.84744 -1.58989 0
M  V30 20125 H 1929.37 2.74322 -2.88083 0
M  V30 20126 H 1926.11 2.9097 -5.87381 0
M  V30 20127 H 1925.63 3.95019 -4.51354 0
M  V30 20128 H 1927.31 3.97164 -5.10754 0
M  V30 20129 N 1927.44 1.27542 0.925789 0
M  V30 20130 C 1928.41 1.10471 2.0082 0
M  V30 20131 C 1929.41 0.0481002 1.60728 0
M  V30 20132 O 1930.6 0.292857 1.71721 0
M  V30 20133 C 1927.73 0.683669 3.33974 0
M  V30 20134 H 1928.92 2.0659 2.17395 0
M  V30 20135 H 1926.47 1.10357 1.10684 0
M  V30 20136 H 1927.21 -0.278821 3.23099 0
M  V30 20137 H 1926.99 1.44679 3.64431 0
M  V30 20138 H 1928.48 0.586526 4.13461 0
M  V30 20139 N 1928.92 -1.13255 1.09595 0
M  V30 20140 C 1930.2 -1.8084 0.74541 0
M  V30 20141 C 1930.58 -1.96582 -0.769323 0
M  V30 20142 O 1929.93 -1.53529 -1.69237 0
M  V30 20143 C 1930.14 -3.15762 1.48645 0
M  V30 20144 C 1931.48 -3.91087 1.65337 0
M  V30 20145 O 1932.51 -3.25391 1.4491 0
M  V30 20146 O 1931.37 -5.08927 1.99137 0
M  V30 20147 H 1928.46 -0.782384 0.267963 0
M  V30 20148 H 1931.01 -1.20167 1.19825 0
M  V30 20149 H 1929.78 -2.99541 2.51775 0
M  V30 20150 H 1929.4 -3.84137 1.02589 0
M  V30 20151 N 1930.4 -0.883401 -1.30514 0
M  V30 20152 C 1931.65 -0.500062 -1.95816 0
M  V30 20153 C 1931.97 0.953596 -1.70093 0
M  V30 20154 O 1931.24 1.67027 -1.02365 0
M  V30 20155 H 1929.82 -0.181936 -0.724506 0
M  V30 20156 H 1932.48 -1.12613 -1.59073 0
M  V30 20157 H 1931.58 -0.668998 -3.04846 0
M  V30 20158 N 1931.88 1.43833 -0.644194 0
M  V30 20159 C 1933.12 2.01515 -0.153623 0
M  V30 20160 C 1933.45 1.51022 1.23358 0
M  V30 20161 O 1932.72 0.719137 1.82223 0
M  V30 20162 H 1931.3 0.74506 -0.053802 0
M  V30 20163 H 1933.96 1.76163 -0.833833 0
M  V30 20164 H 1933.05 3.11824 -0.131313 0
M  V30 20165 N 1933.35 0.385544 1.52811 0
M  V30 20166 C 1934.59 -0.197667 2.03442 0
M  V30 20167 C 1934.96 -1.44354 1.26593 0
M  V30 20168 O 1936.16 -2.10367 1.67329 0
M  V30 20169 C 1934.43 -0.462806 3.54391 0
M  V30 20170 S 1935.99 -1.01684 4.26856 0
M  V30 20171 H 1932.81 -0.0560094 0.70879 0
M  V30 20172 H 1935.41 0.533024 1.88093 0
M  V30 20173 H 1934.11 0.451113 4.07913 0
M  V30 20174 H 1933.64 -1.22202 3.73939 0
M  V30 20175 H 1935.66 -2.29952 4.39701 0
M  V30 20176 N 1934.83 -1.57178 0.115259 0
M  V30 20177 C 1935.8 -2.13953 -0.821982 0
M  V30 20178 C 1936.8 -1.07352 -1.19717 0
M  V30 20179 O 1937.99 -1.33146 -1.12329 0
M  V30 20180 C 1935.12 -2.6767 -2.11106 0
M  V30 20181 H 1936.31 -2.98094 -0.328631 0
M  V30 20182 H 1933.86 -1.55725 -0.133942 0
M  V30 20183 H 1934.6 -1.87106 -2.6488 0
M  V30 20184 H 1934.38 -3.4563 -1.85155 0
M  V30 20185 H 1935.87 -3.11519 -2.78111 0
M  V30 20186 N 1936.31 0.158505 -1.56801 0
M  V30 20187 C 1937.27 1.17986 -1.96499 0
M  V30 20188 C 1938.27 1.3649 -0.850127 0
M  V30 20189 O 1939.46 1.33678 -1.11696 0
M  V30 20190 C 1936.6 2.54245 -2.27095 0
M  V30 20191 H 1937.79 0.839577 -2.87908 0
M  V30 20192 H 1935.34 0.401431 -1.51057 0
M  V30 20193 H 1936.08 2.93266 -1.38441 0
M  V30 20194 H 1935.86 2.42179 -3.0837 0
M  V30 20195 H 1937.35 3.27829 -2.58686 0
M  V30 20196 N 1937.79 1.51692 0.427485 0
M  V30 20197 C 1939.04 1.64521 1.17376 0
M  V30 20198 C 1939.36 0.368482 1.91487 0
M  V30 20199 O 1938.63 -0.616035 1.85962 0
M  V30 20200 H 1937.21 0.606362 0.436273 0
M  V30 20201 H 1939.87 1.88662 0.489152 0
M  V30 20202 H 1938.97 2.47759 1.89794 0
M  V30 20203 N 1939.27 -0.683564 1.42004 0
M  V30 20204 C 1940.23 -1.77907 1.44505 0
M  V30 20205 C 1941.23 -1.57295 0.333889 0
M  V30 20206 O 1942.42 -1.63748 0.594323 0
M  V30 20207 C 1939.55 -3.16434 1.26815 0
M  V30 20208 H 1940.75 -1.7708 2.42039 0
M  V30 20209 H 1938.3 -0.892355 1.28323 0
M  V30 20210 H 1939.03 -3.22894 0.301695 0
M  V30 20211 H 1938.82 -3.32798 2.07335 0
M  V30 20212 H 1940.31 -3.96379 1.31428 0
M  V30 20213 N 1940.75 -1.28031 -0.919012 0
M  V30 20214 C 1941.98 -1.17544 -1.69903 0
M  V30 20215 C 1942.38 0.269221 -1.87275 0
M  V30 20216 O 1941.73 1.19432 -1.39577 0
M  V30 20217 C 1941.79 -1.79632 -3.11404 0
M  V30 20218 C 1941.45 -3.28856 -3.17337 0
M  V30 20219 C 1942.45 -4.25367 -2.9893 0
M  V30 20220 C 1940.13 -3.69719 -3.40019 0
M  V30 20221 C 1942.13 -5.60718 -3.03108 0
M  V30 20222 C 1939.82 -5.05198 -3.43829 0
M  V30 20223 C 1940.81 -6.00507 -3.25393 0
M  V30 20224 O 1940.5 -7.33515 -3.28955 0
M  V30 20225 H 1940.23 -0.409225 -0.538062 0
M  V30 20226 H 1942.79 -1.69573 -1.15906 0
M  V30 20227 H 1941.02 -1.22091 -3.66921 0
M  V30 20228 H 1942.71 -1.63737 -3.7141 0
M  V30 20229 H 1943.47 -3.95132 -2.81239 0
M  V30 20230 H 1939.35 -2.96003 -3.53416 0
M  V30 20231 H 1942.9 -6.35087 -2.88636 0
M  V30 20232 H 1938.79 -5.35085 -3.61047 0
M  V30 20233 H 1939.56 -7.42074 -3.45352 0
M  V30 20234 N 1942.22 1.12672 -1.10194 0
M  V30 20235 C 1943.5 1.80442 -0.75499 0
M  V30 20236 C 1943.88 1.96988 0.758887 0
M  V30 20237 O 1943.23 1.54424 1.6842 0
M  V30 20238 C 1943.44 3.14969 -1.50317 0
M  V30 20239 C 1944.79 3.90205 -1.67409 0
M  V30 20240 O 1945.81 3.24618 -1.46634 0
M  V30 20241 O 1944.67 5.07864 -2.01833 0
M  V30 20242 H 1941.76 0.780952 -0.272109 0
M  V30 20243 H 1944.31 1.1953 -1.20461 0
M  V30 20244 H 1943.08 2.98202 -2.5336 0
M  V30 20245 H 1942.7 3.83587 -1.04625 0
M  V30 20246 N 1943.7 0.89031 1.30043 0
M  V30 20247 C 1944.95 0.507478 1.95212 0
M  V30 20248 C 1945.26 -0.949179 1.71026 0
M  V30 20249 O 1946.47 -1.4391 2.30222 0
M  V30 20250 C 1944.93 0.856657 3.49556 0
M  V30 20251 C 1944.53 2.33145 3.82554 0
M  V30 20252 C 1946.28 0.543281 4.21009 0
M  V30 20253 C 1944.18 2.62198 5.301 0
M  V30 20254 H 1943.11 0.186056 0.730684 0
M  V30 20255 H 1945.77 1.08602 1.47912 0
M  V30 20256 H 1944.15 0.207146 3.95458 0
M  V30 20257 H 1945.32 3.02572 3.47544 0
M  V30 20258 H 1943.64 2.61289 3.24217 0
M  V30 20259 H 1946.23 0.737312 5.29592 0
M  V30 20260 H 1946.58 -0.517644 4.13069 0
M  V30 20261 H 1947.11 1.15022 3.80808 0
M  V30 20262 H 1943.85 3.67052 5.43096 0
M  V30 20263 H 1943.37 1.97385 5.66392 0
M  V30 20264 H 1945.05 2.47975 5.97593 0
M  V30 20265 N 1945.18 -1.43489 0.651812 0
M  V30 20266 C 1946.43 -2.01049 0.161972 0
M  V30 20267 C 1946.74 -1.52018 -1.23085 0
M  V30 20268 O 1947.95 -2.01842 -1.81583 0
M  V30 20269 C 1946.4 -3.59107 0.238761 0
M  V30 20270 C 1946.01 -4.17131 1.63419 0
M  V30 20271 C 1947.76 -4.24059 -0.193548 0
M  V30 20272 C 1945.66 -5.67479 1.66498 0
M  V30 20273 H 1944.59 -0.751858 0.0567901 0
M  V30 20274 H 1947.24 -1.64475 0.813641 0
M  V30 20275 H 1945.63 -3.93075 -0.48039 0
M  V30 20276 H 1946.8 -3.94665 2.37858 0
M  V30 20277 H 1945.11 -3.64546 2.01235 0
M  V30 20278 H 1947.71 -5.34361 -0.190368 0
M  V30 20279 H 1948.05 -3.97877 -1.22472 0
M  V30 20280 H 1948.59 -3.94968 0.473805 0
M  V30 20281 H 1945.33 -5.98426 2.6752 0
M  V30 20282 H 1944.85 -5.92006 0.963819 0
M  V30 20283 H 1946.53 -6.31492 1.40809 0
M  V30 20284 N 1946.66 -0.393643 -1.52605 0
M  V30 20285 C 1947.91 0.188423 -2.00818 0
M  V30 20286 C 1948.22 1.47537 -1.28422 0
M  V30 20287 O 1949.43 2.13775 -1.6737 0
M  V30 20288 C 1947.88 0.386341 -3.5782 0
M  V30 20289 C 1947.49 -0.887606 -4.39119 0
M  V30 20290 C 1949.23 0.924537 -4.1431 0
M  V30 20291 C 1947.14 -0.657729 -5.87731 0
M  V30 20292 H 1946.07 0.0741894 -0.750341 0
M  V30 20293 H 1948.72 -0.516709 -1.76075 0
M  V30 20294 H 1947.1 1.15343 -3.7883 0
M  V30 20295 H 1948.28 -1.65965 -4.29875 0
M  V30 20296 H 1946.59 -1.35107 -3.93872 0
M  V30 20297 H 1949.19 1.1123 -5.23003 0
M  V30 20298 H 1949.53 1.89484 -3.70677 0
M  V30 20299 H 1950.07 0.216908 -3.97208 0
M  V30 20300 H 1946.8 -1.59915 -6.35694 0
M  V30 20301 H 1946.32 0.0752963 -5.99753 0
M  V30 20302 H 1948 -0.293935 -6.46332 0
M  V30 20303 N 1948.14 1.57115 -0.123593 0
M  V30 20304 C 1949.38 1.97238 0.536324 0
M  V30 20305 C 1949.74 1.00568 1.63554 0
M  V30 20306 O 1950.94 1.29647 2.35468 0
M  V30 20307 C 1949.21 3.41596 1.05106 0
M  V30 20308 S 1950.77 4.03734 1.71886 0
M  V30 20309 H 1947.59 0.689335 0.17418 0
M  V30 20310 H 1950.19 1.94371 -0.209763 0
M  V30 20311 H 1948.89 4.09698 0.239937 0
M  V30 20312 H 1948.43 3.48123 1.83231 0
M  V30 20313 H 1950.44 3.94867 3.0049 0
M  V30 20314 N 1949.61 -0.150187 1.56883 0
M  V30 20315 C 1950.89 -0.891842 1.74085 0
M  V30 20316 C 1951.27 -1.99479 0.690751 0
M  V30 20317 O 1950.62 -2.26641 -0.290877 0
M  V30 20318 C 1950.83 -1.43722 3.18033 0
M  V30 20319 C 1952.18 -1.90188 3.79623 0
M  V30 20320 O 1953.2 -1.53471 3.21442 0
M  V30 20321 O 1952.06 -2.57892 4.81824 0
M  V30 20322 H 1949.15 -0.421241 0.711678 0
M  V30 20323 H 1951.7 -0.136362 1.69151 0
M  V30 20324 H 1950.47 -0.644422 3.85957 0
M  V30 20325 H 1950.09 -2.2563 3.27379 0
M  V30 20326 N 1951.09 -1.51916 -0.419434 0
M  V30 20327 C 1952 -1.77393 -1.53522 0
M  V30 20328 C 1953.02 -0.65897 -1.61039 0
M  V30 20329 O 1954.19 -0.943237 -1.77947 0
M  V30 20330 C 1951.26 -1.90988 -2.89352 0
M  V30 20331 C 1950.32 -3.14878 -2.91805 0
M  V30 20332 C 1949.55 -3.27815 -4.21157 0
M  V30 20333 O 1949.78 -2.4626 -5.14502 0
M  V30 20334 O 1948.71 -4.20906 -4.30258 0
M  V30 20335 H 1952.54 -2.72079 -1.34932 0
M  V30 20336 H 1950.12 -1.36635 -0.604259 0
M  V30 20337 H 1952 -2.01812 -3.69932 0
M  V30 20338 H 1950.68 -0.994906 -3.08031 0
M  V30 20339 H 1949.59 -3.0952 -2.10115 0
M  V30 20340 H 1950.92 -4.06123 -2.78073 0
M  V30 20341 N 1952.57 0.676023 -1.42365 0
M  V30 20342 C 1953.81 1.44811 -1.44253 0
M  V30 20343 C 1954.17 1.91917 -0.0565699 0
M  V30 20344 O 1955.38 2.68754 0.0498119 0
M  V30 20345 C 1953.65 2.61392 -2.4374 0
M  V30 20346 S 1955.21 3.50257 -2.6432 0
M  V30 20347 H 1952.02 0.494609 -0.510767 0
M  V30 20348 H 1954.63 0.787035 -1.78958 0
M  V30 20349 H 1953.33 2.25022 -3.4321 0
M  V30 20350 H 1952.86 3.32373 -2.10456 0
M  V30 20351 H 1954.88 4.57326 -1.92529 0
M  V30 20352 N 1954.05 1.28517 0.912209 0
M  V30 20353 C 1955 1.09214 2.00141 0
M  V30 20354 C 1955.98 0.015324 1.60893 0
M  V30 20355 O 1957.17 0.235636 1.75425 0
M  V30 20356 C 1954.3 0.757636 3.34835 0
M  V30 20357 C 1953.39 1.87337 3.80481 0
M  V30 20358 N 1953.78 3.11521 3.98483 0
M  V30 20359 C 1952.08 1.76357 4.09651 0
M  V30 20360 C 1952.78 3.8423 4.3674 0
M  V30 20361 N 1951.76 3.12089 4.45086 0
M  V30 20362 H 1955.56 2.03436 2.12111 0
M  V30 20363 H 1953.07 1.19458 1.10016 0
M  V30 20364 H 1955.07 0.600426 4.12554 0
M  V30 20365 H 1953.73 -0.176796 3.24218 0
M  V30 20366 H 1954.74 3.47114 3.84359 0
M  V30 20367 H 1951.42 0.901018 4.07662 0
M  V30 20368 H 1952.81 4.91039 4.58618 0
M  V30 20369 N 1955.53 -1.12086 1.1079 0
M  V30 20370 C 1956.75 -1.88034 0.875097 0
M  V30 20371 C 1957.18 -1.79281 -0.569191 0
M  V30 20372 O 1956.53 -1.15037 -1.40129 0
M  V30 20373 C 1956.58 -3.35066 1.33278 0
M  V30 20374 O 1955.69 -4.09356 0.500163 0
M  V30 20375 H 1955.03 -0.584116 0.31576 0
M  V30 20376 H 1957.56 -1.41725 1.47564 0
M  V30 20377 H 1957.57 -3.85908 1.32434 0
M  V30 20378 H 1956.24 -3.40753 2.38453 0
M  V30 20379 H 1954.82 -3.68454 0.574137 0
M  V30 20380 N 1957 -0.897194 -1.29569 0
M  V30 20381 C 1958.25 -0.522607 -1.95951 0
M  V30 20382 C 1958.58 0.928254 -1.70579 0
M  V30 20383 O 1957.86 1.65772 -1.01734 0
M  V30 20384 C 1958.14 -0.812659 -3.5081 0
M  V30 20385 C 1957.99 -2.31504 -3.8565 0
M  V30 20386 C 1959.31 -0.297442 -4.39094 0
M  V30 20387 H 1956.43 -0.191346 -0.711727 0
M  V30 20388 H 1959.07 -1.12342 -1.5323 0
M  V30 20389 H 1957.22 -0.301316 -3.8733 0
M  V30 20390 H 1958.9 -2.89573 -3.59089 0
M  V30 20391 H 1957.14 -2.77678 -3.33283 0
M  V30 20392 H 1957.81 -2.46857 -4.93726 0
M  V30 20393 H 1960.29 -0.735265 -4.09552 0
M  V30 20394 H 1959.16 -0.529614 -5.46339 0
M  V30 20395 H 1959.42 0.801767 -4.34769 0
M  V30 20396 N 1958.48 1.43142 -0.659413 0
M  V30 20397 C 1959.76 1.95318 -0.104973 0
M  V30 20398 C 1960.14 1.60048 1.37651 0
M  V30 20399 O 1959.49 0.888746 2.10508 0
M  V30 20400 C 1959.7 3.47161 -0.357769 0
M  V30 20401 C 1961.05 4.23766 -0.26602 0
M  V30 20402 O 1962.07 3.55012 -0.290667 0
M  V30 20403 O 1960.93 5.46152 -0.195021 0
M  V30 20404 H 1958.02 0.826978 0.0060428 0
M  V30 20405 H 1960.57 1.53049 -0.733079 0
M  V30 20406 H 1959.34 3.65983 -1.38465 0
M  V30 20407 H 1958.96 3.96443 0.303102 0
M  V30 20408 N 1959.96 0.40173 1.52394 0
M  V30 20409 C 1960.92 -0.41541 2.25404 0
M  V30 20410 C 1961.92 -0.979848 1.27498 0
M  V30 20411 O 1963.11 -0.859891 1.51498 0
M  V30 20412 C 1960.25 -1.58403 3.01863 0
M  V30 20413 H 1961.44 0.223965 2.99063 0
M  V30 20414 H 1958.99 0.154095 1.55539 0
M  V30 20415 H 1959.73 -2.26048 2.32536 0
M  V30 20416 H 1959.51 -1.18586 3.73737 0
M  V30 20417 H 1961 -2.16224 3.57263 0
M  V30 20418 N 1961.44 -1.57047 0.131923 0
M  V30 20419 C 1962.67 -1.99989 -0.530289 0
M  V30 20420 C 1963.08 -1.01182 -1.59397 0
M  V30 20421 O 1962.44 -0.00657368 -1.82499 0
M  V30 20422 C 1962.49 -3.42898 -1.14469 0
M  V30 20423 O 1962.21 -4.37926 -0.123503 0
M  V30 20424 C 1963.71 -4.0104 -1.88897 0
M  V30 20425 H 1960.93 -0.656371 -0.139348 0
M  V30 20426 H 1963.48 -2.03291 0.222069 0
M  V30 20427 H 1961.63 -3.40495 -1.84775 0
M  V30 20428 H 1962.04 -5.21376 -0.571587 0
M  V30 20429 H 1963.52 -5.03077 -2.27196 0
M  V30 20430 H 1964 -3.40903 -2.76915 0
M  V30 20431 H 1964.6 -4.07027 -1.23324 0
M  V30 20432 N 1962.92 0.141865 -1.5696 0
M  V30 20433 C 1964.14 0.868403 -1.87793 0
M  V30 20434 C 1964.56 1.74504 -0.720691 0
M  V30 20435 O 1963.92 1.79859 0.309372 0
M  V30 20436 C 1963.97 1.72086 -3.17913 0
M  V30 20437 O 1963.69 0.879548 -4.2918 0
M  V30 20438 C 1965.19 2.55454 -3.62296 0
M  V30 20439 H 1962.41 0.250842 -0.62235 0
M  V30 20440 H 1964.95 0.133113 -2.04066 0
M  V30 20441 H 1963.11 2.40915 -3.03379 0
M  V30 20442 H 1963.52 1.4653 -5.03616 0
M  V30 20443 H 1965 3.10834 -4.56165 0
M  V30 20444 H 1965.47 3.31735 -2.87834 0
M  V30 20445 H 1966.08 1.91906 -3.79542 0
M  V30 20446 N 1964.39 1.52136 0.411372 0
M  V30 20447 C 1965.64 1.65314 1.15561 0
M  V30 20448 C 1965.96 0.38805 1.91712 0
M  V30 20449 O 1967.16 0.399588 2.68543 0
M  V30 20450 C 1965.62 2.92059 2.10308 0
M  V30 20451 C 1965.23 4.25667 1.39684 0
M  V30 20452 C 1966.97 3.14599 2.85005 0
M  V30 20453 C 1964.88 5.43538 2.33067 0
M  V30 20454 H 1963.81 0.615812 0.435077 0
M  V30 20455 H 1966.46 1.78622 0.420271 0
M  V30 20456 H 1964.84 2.72444 2.87385 0
M  V30 20457 H 1966.01 4.55757 0.679869 0
M  V30 20458 H 1964.33 4.09212 0.77038 0
M  V30 20459 H 1966.93 3.99839 3.55011 0
M  V30 20460 H 1967.27 2.28739 3.47828 0
M  V30 20461 H 1967.8 3.34676 2.15028 0
M  V30 20462 H 1964.54 6.31738 1.74894 0
M  V30 20463 H 1964.06 5.1779 3.02744 0
M  V30 20464 H 1965.74 5.76527 2.93641 0
M  V30 20465 N 1965.87 -0.668464 1.42721 0
M  V30 20466 C 1966.8 -1.79375 1.49489 0
M  V30 20467 C 1967.78 -1.66442 0.350881 0
M  V30 20468 O 1968.97 -1.85767 0.566049 0
M  V30 20469 C 1966.1 -3.17712 1.40273 0
M  V30 20470 C 1965.05 -3.45389 2.52766 0
M  V30 20471 C 1964.38 -4.83367 2.28606 0
M  V30 20472 C 1965.68 -3.4165 3.95061 0
M  V30 20473 H 1967.37 -1.73968 2.43671 0
M  V30 20474 H 1964.92 -0.835548 1.1728 0
M  V30 20475 H 1966.87 -3.96173 1.43614 0
M  V30 20476 H 1965.6 -3.23811 0.425882 0
M  V30 20477 H 1964.26 -2.69292 2.48752 0
M  V30 20478 H 1963.9 -4.86124 1.292 0
M  V30 20479 H 1963.6 -5.02847 3.04005 0
M  V30 20480 H 1965.13 -5.64104 2.33707 0
M  V30 20481 H 1966.54 -4.1007 4.00644 0
M  V30 20482 H 1964.94 -3.72666 4.70362 0
M  V30 20483 H 1966.01 -2.40106 4.2128 0
M  V30 20484 N 1967.35 -1.28999 -0.905381 0
M  V30 20485 C 1968.6 -1.1641 -1.65207 0
M  V30 20486 C 1968.92 0.285952 -1.92892 0
M  V30 20487 O 1968.19 1.19672 -1.55098 0
M  V30 20488 H 1966.77 -0.427826 -0.612351 0
M  V30 20489 H 1969.43 -1.61845 -1.08592 0
M  V30 20490 H 1968.53 -1.70993 -2.6109 0
M  V30 20491 N 1968.83 1.11497 -1.11383 0
M  V30 20492 C 1970.08 1.82584 -0.857082 0
M  V30 20493 C 1970.39 1.8554 0.61922 0
M  V30 20494 O 1971.6 2.52721 0.992197 0
M  V30 20495 C 1970.05 3.279 -1.48356 0
M  V30 20496 C 1969.66 3.33275 -2.99386 0
M  V30 20497 C 1971.41 4.0389 -1.30663 0
M  V30 20498 C 1969.31 4.72984 -3.55021 0
M  V30 20499 H 1968.24 0.684134 -0.31698 0
M  V30 20500 H 1970.89 1.25471 -1.339 0
M  V30 20501 H 1969.28 3.84941 -0.929311 0
M  V30 20502 H 1970.45 2.86119 -3.6121 0
M  V30 20503 H 1968.76 2.70764 -3.16348 0
M  V30 20504 H 1971.36 5.07069 -1.69662 0
M  V30 20505 H 1971.7 4.15554 -0.249147 0
M  V30 20506 H 1972.24 3.53235 -1.82949 0
M  V30 20507 H 1968.98 4.66518 -4.60479 0
M  V30 20508 H 1968.5 5.20553 -2.97968 0
M  V30 20509 H 1970.18 5.41941 -3.53425 0
M  V30 20510 N 1970.31 0.904053 1.29092 0
M  V30 20511 C 1971.56 0.531152 1.94995 0
M  V30 20512 C 1971.88 -0.926415 1.71588 0
M  V30 20513 O 1971.15 -1.65378 1.0501 0
M  V30 20514 H 1969.73 0.193439 0.721519 0
M  V30 20515 H 1972.39 1.1513 1.57262 0
M  V30 20516 H 1971.48 0.717412 3.03743 0
M  V30 20517 N 1971.79 -1.4279 0.666995 0
M  V30 20518 C 1973.01 -2.05987 0.194192 0
M  V30 20519 C 1973.43 -1.50071 -1.1456 0
M  V30 20520 O 1972.79 -0.637419 -1.71006 0
M  V30 20521 C 1972.84 -3.61326 0.112034 0
M  V30 20522 O 1972.56 -4.15166 1.39888 0
M  V30 20523 C 1974.06 -4.41623 -0.385201 0
M  V30 20524 H 1971.28 -0.664055 0.096288 0
M  V30 20525 H 1973.82 -1.83061 0.91153 0
M  V30 20526 H 1971.98 -3.8339 -0.555944 0
M  V30 20527 H 1972.39 -5.08964 1.2671 0
M  V30 20528 H 1973.87 -5.50609 -0.391611 0
M  V30 20529 H 1974.34 -4.15643 -1.41906 0
M  V30 20530 H 1974.95 -4.2456 0.250766 0
M  V30 20531 N 1973.26 -0.409806 -1.52179 0
M  V30 20532 C 1974.51 0.166003 -2.02119 0
M  V30 20533 C 1974.84 1.44732 -1.29484 0
M  V30 20534 O 1974.12 1.90314 -0.401362 0
M  V30 20535 C 1974.4 0.413015 -3.57724 0
M  V30 20536 C 1974.25 -0.885028 -4.41007 0
M  V30 20537 C 1975.57 1.19486 -4.2357 0
M  V30 20538 H 1972.69 0.0588585 -0.734646 0
M  V30 20539 H 1975.33 -0.543405 -1.82063 0
M  V30 20540 H 1973.48 1.01732 -3.74944 0
M  V30 20541 H 1975.16 -1.5212 -4.35497 0
M  V30 20542 H 1973.4 -1.49585 -4.07194 0
M  V30 20543 H 1974.07 -0.66658 -5.47961 0
M  V30 20544 H 1976.55 0.683238 -4.10452 0
M  V30 20545 H 1975.42 1.33644 -5.32382 0
M  V30 20546 H 1975.68 2.21566 -3.82571 0
M  V30 20547 N 1974.74 1.56975 -0.14025 0
M  V30 20548 C 1975.67 2.19432 0.798233 0
M  V30 20549 C 1976.65 1.14055 1.26196 0
M  V30 20550 O 1977.84 1.42373 1.32074 0
M  V30 20551 C 1974.97 2.81059 2.04018 0
M  V30 20552 C 1973.92 3.92204 1.71347 0
M  V30 20553 C 1973.25 4.40735 3.02748 0
M  V30 20554 C 1974.55 5.13302 0.965327 0
M  V30 20555 H 1976.24 2.98109 0.277716 0
M  V30 20556 H 1973.79 1.43392 0.132137 0
M  V30 20557 H 1975.74 3.23417 2.70147 0
M  V30 20558 H 1974.46 1.99703 2.5843 0
M  V30 20559 H 1973.12 3.50454 1.07599 0
M  V30 20560 H 1972.77 3.5621 3.55138 0
M  V30 20561 H 1972.47 5.15698 2.81654 0
M  V30 20562 H 1974 4.85759 3.6996 0
M  V30 20563 H 1975.41 5.52547 1.52857 0
M  V30 20564 H 1973.81 5.93984 0.854574 0
M  V30 20565 H 1974.88 4.8488 -0.0441688 0
M  V30 20566 N 1976.22 -0.133539 1.57033 0
M  V30 20567 C 1977.5 -0.873327 1.75021 0
M  V30 20568 C 1977.88 -1.98735 0.71187 0
M  V30 20569 O 1977.22 -2.26937 -0.266823 0
M  V30 20570 C 1977.43 -1.40341 3.19539 0
M  V30 20571 C 1978.78 -1.86151 3.81619 0
M  V30 20572 O 1979.81 -1.50053 3.23052 0
M  V30 20573 O 1978.67 -2.52767 4.84532 0
M  V30 20574 H 1975.76 -0.413669 0.716105 0
M  V30 20575 H 1978.31 -0.118413 1.69286 0
M  V30 20576 H 1977.08 -0.60345 3.86619 0
M  V30 20577 H 1976.7 -2.22145 3.29754 0
M  V30 20578 N 1977.7 -1.52352 -0.403298 0
M  V30 20579 C 1978.63 -1.72347 -1.51093 0
M  V30 20580 C 1979.64 -0.603886 -1.51186 0
M  V30 20581 O 1980.83 -0.879203 -1.55346 0
M  V30 20582 C 1977.93 -1.75407 -2.89975 0
M  V30 20583 C 1977.1 -3.04495 -3.14009 0
M  V30 20584 C 1976.16 -2.9929 -4.32795 0
M  V30 20585 O 1975.19 -3.73185 -4.29792 0
M  V30 20586 N 1976.39 -2.17484 -5.3822 0
M  V30 20587 H 1979.16 -2.67908 -1.34333 0
M  V30 20588 H 1976.72 -1.50662 -0.592661 0
M  V30 20589 H 1978.71 -1.6945 -3.67517 0
M  V30 20590 H 1977.28 -0.87295 -3.00164 0
M  V30 20591 H 1976.5 -3.24056 -2.24458 0
M  V30 20592 H 1977.79 -3.89879 -3.26913 0
M  V30 20593 H 1977.19 -1.56888 -5.4351 0
M  V30 20594 H 1975.74 -2.17378 -6.14484 0
M  V30 20595 N 1979.18 0.660885 -1.43074 0
M  V30 20596 C 1980.14 1.75586 -1.47317 0
M  V30 20597 C 1981.14 1.56744 -0.358871 0
M  V30 20598 O 1982.33 1.62782 -0.620299 0
M  V30 20599 C 1979.46 3.14377 -1.31833 0
M  V30 20600 H 1980.65 1.73207 -2.44825 0
M  V30 20601 H 1978.21 0.871828 -1.29726 0
M  V30 20602 H 1978.94 3.22373 -0.353027 0
M  V30 20603 H 1978.73 3.29457 -2.12604 0
M  V30 20604 H 1980.22 3.94238 -1.37718 0
M  V30 20605 N 1980.65 1.29477 0.898527 0
M  V30 20606 C 1981.56 1.16595 2.03575 0
M  V30 20607 C 1982.58 0.0889285 1.73773 0
M  V30 20608 O 1983.76 0.301228 1.99135 0
M  V30 20609 C 1980.82 0.844745 3.36251 0
M  V30 20610 C 1979.88 2.00573 3.79564 0
M  V30 20611 C 1979.12 1.69975 5.05909 0
M  V30 20612 O 1979.34 0.621246 5.67007 0
M  V30 20613 O 1978.27 2.54809 5.45303 0
M  V30 20614 H 1982.1 2.12098 2.17367 0
M  V30 20615 H 1979.68 1.0894 1.02237 0
M  V30 20616 H 1981.57 0.680229 4.15874 0
M  V30 20617 H 1980.24 -0.080494 3.236 0
M  V30 20618 H 1979.15 2.22549 3.00704 0
M  V30 20619 H 1980.48 2.91221 3.96801 0
M  V30 20620 N 1982.13 -1.10905 1.11972 0
M  V30 20621 C 1983.36 -1.86555 0.894699 0
M  V30 20622 C 1983.78 -1.80434 -0.555801 0
M  V30 20623 O 1983.13 -1.18957 -1.38403 0
M  V30 20624 C 1983.18 -3.35148 1.35492 0
M  V30 20625 O 1982.9 -3.41154 2.74856 0
M  V30 20626 C 1984.41 -4.27687 1.16612 0
M  V30 20627 H 1981.63 -0.589761 0.320037 0
M  V30 20628 H 1984.17 -1.40232 1.48846 0
M  V30 20629 H 1982.32 -3.78955 0.804493 0
M  V30 20630 H 1982.74 -4.3372 2.94936 0
M  V30 20631 H 1984.21 -5.30168 1.53708 0
M  V30 20632 H 1984.69 -4.39072 0.106219 0
M  V30 20633 H 1985.3 -3.8968 1.70381 0
M  V30 20634 N 1983.61 -0.910886 -1.2861 0
M  V30 20635 C 1984.57 -0.401862 -2.2565 0
M  V30 20636 C 1985.57 0.470212 -1.53771 0
M  V30 20637 O 1986.76 0.273674 -1.72037 0
M  V30 20638 C 1983.9 0.424193 -3.38251 0
M  V30 20639 H 1985.09 -1.25903 -2.72192 0
M  V30 20640 H 1982.64 -0.690027 -1.40244 0
M  V30 20641 H 1983.38 1.30088 -2.97065 0
M  V30 20642 H 1983.16 -0.200837 -3.91585 0
M  V30 20643 H 1984.65 0.771267 -4.10416 0
M  V30 20644 N 1985.09 1.42434 -0.674558 0
M  V30 20645 C 1986.34 2.01144 -0.196332 0
M  V30 20646 C 1986.66 1.53605 1.20127 0
M  V30 20647 O 1985.93 0.757627 1.80657 0
M  V30 20648 H 1984.51 0.743751 -0.0695937 0
M  V30 20649 H 1987.17 1.74354 -0.871013 0
M  V30 20650 H 1986.27 3.11475 -0.197426 0
M  V30 20651 N 1986.57 0.417871 1.51959 0
M  V30 20652 C 1987.81 -0.155282 2.02205 0
M  V30 20653 C 1988.15 -1.44044 1.3025 0
M  V30 20654 O 1987.42 -1.90098 0.411449 0
M  V30 20655 C 1987.7 -0.394038 3.57938 0
M  V30 20656 C 1987.56 0.908404 4.40532 0
M  V30 20657 C 1988.88 -1.17238 4.24197 0
M  V30 20658 H 1985.99 -0.0549616 0.734948 0
M  V30 20659 H 1988.64 0.553053 1.81773 0
M  V30 20660 H 1986.79 -0.997422 3.75478 0
M  V30 20661 H 1988.46 1.54427 4.34684 0
M  V30 20662 H 1986.7 1.51743 4.06395 0
M  V30 20663 H 1987.37 0.69563 5.47599 0
M  V30 20664 H 1989.85 -0.661461 4.10809 0
M  V30 20665 H 1988.72 -1.30818 5.33083 0
M  V30 20666 H 1988.99 -2.19534 3.83741 0
M  V30 20667 N 1988.04 -1.56898 0.148573 0
M  V30 20668 C 1989.46 -1.58241 -0.207826 0
M  V30 20669 C 1989.66 -1.16291 -1.64556 0
M  V30 20670 O 1988.72 -0.863939 -2.3726 0
M  V30 20671 C 1990.03 -3.00654 0.0523559 0
M  V30 20672 C 1991.58 -3.12998 -0.0112297 0
M  V30 20673 C 1992.05 -4.57463 0.221641 0
M  V30 20674 N 1993.54 -4.62893 0.168624 0
M  V30 20675 C 1994.28 -5.72488 0.323296 0
M  V30 20676 N 1993.77 -6.90725 0.535776 0
M  V30 20677 N 1995.57 -5.61495 0.26079 0
M  V30 20678 H 1987.72 -1.82459 1.08731 0
M  V30 20679 H 1989.98 -0.8446 0.430529 0
M  V30 20680 H 1989.69 -3.3574 1.04745 0
M  V30 20681 H 1989.56 -3.71268 -0.666346 0
M  V30 20682 H 1991.95 -2.77752 -0.996873 0
M  V30 20683 H 1992.03 -2.44868 0.739826 0
M  V30 20684 H 1991.67 -4.93413 1.20439 0
M  V30 20685 H 1991.6 -5.23722 -0.549756 0
M  V30 20686 H 1994.09 -3.77899 0.00911581 0
M  V30 20687 H 1994.41 -7.70113 0.643862 0
M  V30 20688 H 1992.75 -6.92641 0.572117 0
M  V30 20689 H 1995.94 -4.68002 0.095543 0
M  V30 20690 H 1996.12 -6.46857 0.384765 0
M  V30 20691 N 1989.52 0.125209 -1.57102 0
M  V30 20692 C 1990.45 1.15521 -2.02922 0
M  V30 20693 C 1991.43 1.43549 -0.912559 0
M  V30 20694 O 1992.62 1.54097 -1.18185 0
M  V30 20695 C 1989.75 2.48297 -2.42829 0
M  V30 20696 C 1988.7 2.34744 -3.57881 0
M  V30 20697 C 1988.03 3.72427 -3.83669 0
M  V30 20698 C 1989.33 1.81317 -4.89818 0
M  V30 20699 H 1991.02 0.774129 -2.89219 0
M  V30 20700 H 1988.57 0.370935 -1.3914 0
M  V30 20701 H 1990.52 3.20597 -2.73487 0
M  V30 20702 H 1989.25 2.88283 -1.53495 0
M  V30 20703 H 1987.9 1.64893 -3.27423 0
M  V30 20704 H 1987.55 4.09887 -2.9155 0
M  V30 20705 H 1987.25 3.64215 -4.61109 0
M  V30 20706 H 1988.78 4.46242 -4.16773 0
M  V30 20707 H 1990.19 2.43429 -5.19052 0
M  V30 20708 H 1988.59 1.83941 -5.71214 0
M  V30 20709 H 1989.66 0.770291 -4.78743 0
M  V30 20710 N 1991 1.52564 0.395213 0
M  V30 20711 C 1992.25 1.67552 1.14254 0
M  V30 20712 C 1992.58 0.411135 1.89798 0
M  V30 20713 O 1991.85 -0.590891 1.85307 0
M  V30 20714 C 1992.14 2.90657 2.1258 0
M  V30 20715 C 1991.99 4.27181 1.40841 0
M  V30 20716 C 1993.31 3.09301 3.13083 0
M  V30 20717 H 1990.43 0.609735 0.413995 0
M  V30 20718 H 1993.07 1.85148 0.426634 0
M  V30 20719 H 1991.22 2.75787 2.73631 0
M  V30 20720 H 1992.89 4.53808 0.82802 0
M  V30 20721 H 1991.14 4.27946 0.71028 0
M  V30 20722 H 1991.81 5.09393 2.12656 0
M  V30 20723 H 1994.28 3.23162 2.62118 0
M  V30 20724 H 1993.16 3.96925 3.79133 0
M  V30 20725 H 1993.42 2.23237 3.81599 0
M  V30 20726 N 1992.48 -0.653289 1.43422 0
M  V30 20727 C 1993.72 -1.41528 1.4525 0
M  V30 20728 C 1994.06 -1.94049 0.0764514 0
M  V30 20729 O 1993.33 -1.72284 -0.902682 0
M  V30 20730 C 1993.62 -2.59676 2.49481 0
M  V30 20731 C 1993.47 -2.12647 3.9636 0
M  V30 20732 C 1994.79 -3.61889 2.50449 0
M  V30 20733 H 1991.91 -0.513273 0.528885 0
M  V30 20734 H 1994.55 -0.740628 1.74971 0
M  V30 20735 H 1992.7 -3.17232 2.24268 0
M  V30 20736 H 1994.37 -1.60092 4.32629 0
M  V30 20737 H 1992.61 -1.4402 4.09195 0
M  V30 20738 H 1993.28 -2.97607 4.64902 0
M  V30 20739 H 1995.76 -3.14091 2.72921 0
M  V30 20740 H 1994.64 -4.42106 3.2532 0
M  V30 20741 H 1994.9 -4.14475 1.53826 0
M  V30 20742 N 1993.96 -1.29952 -0.891648 0
M  V30 20743 C 1994.89 -1.18331 -2.01296 0
M  V30 20744 C 1995.87 -0.0755571 -1.69932 0
M  V30 20745 O 1997.05 -0.256435 -1.92499 0
M  V30 20746 C 1994.18 -0.867421 -3.36293 0
M  V30 20747 C 1993.14 -1.93237 -3.81894 0
M  V30 20748 C 1992.46 -1.46962 -5.14107 0
M  V30 20749 C 1993.76 -3.34246 -4.01344 0
M  V30 20750 H 1995.46 -2.12138 -2.11276 0
M  V30 20751 H 1993 -1.02132 -1.01514 0
M  V30 20752 H 1994.96 -0.772806 -4.14253 0
M  V30 20753 H 1993.68 0.106342 -3.26427 0
M  V30 20754 H 1992.34 -2.01651 -3.06157 0
M  V30 20755 H 1991.99 -0.484311 -5.00663 0
M  V30 20756 H 1991.69 -2.1819 -5.45589 0
M  V30 20757 H 1993.21 -1.38866 -5.94599 0
M  V30 20758 H 1994.62 -3.28629 -4.69762 0
M  V30 20759 H 1993.02 -4.03502 -4.44192 0
M  V30 20760 H 1994.09 -3.76629 -3.05415 0
M  V30 20761 N 1995.44 1.1031 -1.12559 0
M  V30 20762 C 1996.4 2.14869 -0.79773 0
M  V30 20763 C 1997.4 1.59691 0.188521 0
M  V30 20764 O 1998.59 1.7416 -0.037433 0
M  V30 20765 C 1995.72 3.40394 -0.185665 0
M  V30 20766 H 1996.91 2.45384 -1.72415 0
M  V30 20767 H 1994.47 1.25694 -0.929011 0
M  V30 20768 H 1995.2 3.15499 0.750409 0
M  V30 20769 H 1994.99 3.81731 -0.895771 0
M  V30 20770 H 1996.48 4.17591 0.0271848 0
M  V30 20771 N 1996.91 0.917694 1.28125 0
M  V30 20772 C 1998.14 0.568889 1.98925 0
M  V30 20773 C 1998.56 -0.85076 1.68545 0
M  V30 20774 O 1997.91 -1.56406 0.940399 0
M  V30 20775 C 1997.96 0.773181 3.53135 0
M  V30 20776 O 1997.69 2.13697 3.82446 0
M  V30 20777 C 1999.19 0.431738 4.41193 0
M  V30 20778 H 1996.41 0.21651 0.63511 0
M  V30 20779 H 1998.95 1.23198 1.63226 0
M  V30 20780 H 1997.11 0.157034 3.87082 0
M  V30 20781 H 1997.52 2.17956 4.7707 0
M  V30 20782 H 1998.99 0.625431 5.48445 0
M  V30 20783 H 1999.47 -0.632236 4.34626 0
M  V30 20784 H 2000.08 1.02559 4.12749 0
M  V30 20785 N 1998.39 -1.42074 0.682102 0
M  V30 20786 C 1999.35 -2.29193 0.0174256 0
M  V30 20787 C 2000.35 -1.43698 -0.721635 0
M  V30 20788 O 2001.54 -1.65003 -0.558542 0
M  V30 20789 C 1998.68 -3.26332 -0.985903 0
M  V30 20790 H 1999.87 -2.89462 0.784316 0
M  V30 20791 H 1997.42 -1.49836 0.44485 0
M  V30 20792 H 1998.16 -2.71016 -1.78103 0
M  V30 20793 H 1997.94 -3.89401 -0.459258 0
M  V30 20794 H 1999.43 -3.91649 -1.44918 0
M  V30 20795 N 1999.87 -0.425924 -1.51735 0
M  V30 20796 C 2001.1 0.143351 -2.06403 0
M  V30 20797 C 2001.51 1.37439 -1.29445 0
M  V30 20798 O 2000.87 1.79096 -0.350858 0
M  V30 20799 C 2000.92 0.477017 -3.58339 0
M  V30 20800 O 2000.64 -0.705148 -4.32388 0
M  V30 20801 C 2002.14 1.09821 -4.29481 0
M  V30 20802 H 1999.36 0.0129769 -0.670875 0
M  V30 20803 H 2001.91 -0.601719 -1.95447 0
M  V30 20804 H 2000.06 1.17198 -3.69247 0
M  V30 20805 H 2000.48 -0.422599 -5.22795 0
M  V30 20806 H 2001.95 1.28175 -5.36913 0
M  V30 20807 H 2002.43 2.07605 -3.87036 0
M  V30 20808 H 2003.03 0.442957 -4.22987 0
M  V30 20809 N 2001.35 1.56817 -0.156891 0
M  V30 20810 C 2002.76 1.83151 0.362283 0
M  V30 20811 C 2003.11 1.07606 1.64059 0
M  V30 20812 O 2002.23 0.324479 2.13953 0
M  V30 20813 C 2002.83 3.32228 0.664072 0
M  V30 20814 C 2001.39 3.59109 1.12773 0
M  V30 20815 C 2000.54 2.76861 0.155995 0
M  V30 20816 H 2003.49 1.54048 -0.381419 0
M  V30 20817 H 2003.51 3.48921 1.5177 0
M  V30 20818 H 2003.02 3.87184 -0.266475 0
M  V30 20819 H 2001.12 3.0955 2.07388 0
M  V30 20820 H 2001.23 4.67523 1.04687 0
M  V30 20821 H 1999.6 2.46251 0.650561 0
M  V30 20822 H 2000.38 3.34592 -0.768318 0
M  V30 20823 N 2002.83 -0.116876 1.57166 0
M  V30 20824 C 2004.24 -0.673792 1.74118 0
M  V30 20825 C 2004.59 -1.80206 0.775892 0
M  V30 20826 O 2003.71 -2.16341 -0.0507019 0
M  V30 20827 C 2004.31 -1.22903 3.15722 0
M  V30 20828 C 2002.87 -1.73222 3.34172 0
M  V30 20829 C 2002.01 -0.632798 2.69983 0
M  V30 20830 H 2004.96 0.109055 1.58325 0
M  V30 20831 H 2004.99 -2.09867 3.1739 0
M  V30 20832 H 2004.5 -0.407637 3.85953 0
M  V30 20833 H 2002.6 -2.57832 2.68986 0
M  V30 20834 H 2002.71 -1.8402 4.4235 0
M  V30 20835 H 2001.08 -1.06693 2.31276 0
M  V30 20836 H 2001.86 0.177653 3.4284 0
M  V30 20837 N 2004.3 -1.52772 -0.387116 0
M  V30 20838 C 2005.55 -1.67576 -1.12973 0
M  V30 20839 C 2005.87 -0.419122 -1.90443 0
M  V30 20840 O 2005.14 0.566514 -1.8753 0
M  V30 20841 H 2003.72 -0.617716 -0.420043 0
M  V30 20842 H 2006.38 -1.89892 -0.43896 0
M  V30 20843 H 2005.48 -2.52704 -1.83158 0
M  V30 20844 N 2005.78 0.645673 -1.43767 0
M  V30 20845 C 2007.01 1.43303 -1.49237 0
M  V30 20846 C 2007.42 1.88464 -0.11261 0
M  V30 20847 O 2006.78 1.59955 0.878664 0
M  V30 20848 C 2006.83 2.66302 -2.4447 0
M  V30 20849 O 2006.55 2.23028 -3.77081 0
M  V30 20850 C 2008.05 3.59583 -2.59259 0
M  V30 20851 H 2005.27 0.439978 -0.506617 0
M  V30 20852 H 2007.82 0.790924 -1.88586 0
M  V30 20853 H 2005.97 3.26636 -2.08296 0
M  V30 20854 H 2006.39 3.02664 -4.28363 0
M  V30 20855 H 2007.86 4.42532 -3.29953 0
M  V30 20856 H 2008.34 4.07431 -1.64001 0
M  V30 20857 H 2008.94 3.05126 -2.96274 0
M  V30 20858 N 2007.26 1.30423 0.884744 0
M  V30 20859 C 2008.51 1.19435 1.63899 0
M  V30 20860 C 2008.84 -0.25033 1.9258 0
M  V30 20861 O 2008.11 -1.17904 1.5469 0
M  V30 20862 C 2008.4 2.02357 2.97865 0
M  V30 20863 C 2008.25 3.55046 2.76156 0
M  V30 20864 C 2009.57 1.86156 3.98791 0
M  V30 20865 H 2006.69 0.435234 0.594761 0
M  V30 20866 H 2009.33 1.60058 1.0238 0
M  V30 20867 H 2007.48 1.67842 3.50373 0
M  V30 20868 H 2009.15 3.99622 2.30434 0
M  V30 20869 H 2007.39 3.79218 2.10657 0
M  V30 20870 H 2008.07 4.08356 3.71415 0
M  V30 20871 H 2010.54 2.16332 3.55443 0
M  V30 20872 H 2009.42 2.46501 4.90437 0
M  V30 20873 H 2009.68 0.820775 4.34414 0
M  V30 20874 N 2008.74 -1.09711 1.13142 0
M  V30 20875 C 2009.97 -1.85595 0.914436 0
M  V30 20876 C 2010.38 -1.81013 -0.536632 0
M  V30 20877 O 2009.74 -1.20419 -1.37134 0
M  V30 20878 C 2009.79 -3.33692 1.39039 0
M  V30 20879 O 2009.51 -3.38219 2.78459 0
M  V30 20880 C 2011.01 -4.26427 1.21142 0
M  V30 20881 H 2008.23 -0.586333 0.326274 0
M  V30 20882 H 2010.77 -1.38646 1.50325 0
M  V30 20883 H 2008.93 -3.7808 0.844641 0
M  V30 20884 H 2009.34 -4.30567 2.9952 0
M  V30 20885 H 2010.82 -5.28508 1.59323 0
M  V30 20886 H 2011.29 -4.38934 0.152782 0
M  V30 20887 H 2011.9 -3.87851 1.74505 0
M  V30 20888 N 2010.22 -0.924476 -1.27637 0
M  V30 20889 C 2011.44 -0.579431 -1.98621 0
M  V30 20890 C 2011.86 0.84181 -1.68994 0
M  V30 20891 O 2011.22 1.55905 -0.948681 0
M  V30 20892 C 2011.27 -0.791898 -3.5272 0
M  V30 20893 O 2010.99 -2.15722 -3.81308 0
M  V30 20894 C 2012.49 -0.45513 -4.40957 0
M  V30 20895 H 2009.71 -0.219875 -0.633953 0
M  V30 20896 H 2012.25 -1.24062 -1.6257 0
M  V30 20897 H 2010.41 -0.17756 -3.86993 0
M  V30 20898 H 2010.82 -2.20483 -4.75907 0
M  V30 20899 H 2012.3 -0.654507 -5.48106 0
M  V30 20900 H 2012.77 0.609177 -4.34955 0
M  V30 20901 H 2013.38 -1.04747 -4.12199 0
M  V30 20902 N 2011.69 1.41711 -0.689627 0
M  V30 20903 C 2013.11 1.84377 -0.293587 0
M  V30 20904 C 2013.46 1.57711 1.16712 0
M  V30 20905 O 2012.58 1.0445 1.89523 0
M  V30 20906 C 2013.18 3.34691 -0.526073 0
M  V30 20907 C 2011.74 3.7595 -0.184009 0
M  V30 20908 C 2010.88 2.65167 -0.811277 0
M  V30 20909 H 2013.83 1.31347 -0.890718 0
M  V30 20910 H 2013.85 3.7988 0.217124 0
M  V30 20911 H 2013.37 3.54068 -1.58927 0
M  V30 20912 H 2011.47 3.62176 0.875158 0
M  V30 20913 H 2011.58 4.74875 -0.63488 0
M  V30 20914 H 2009.94 2.53554 -0.241363 0
M  V30 20915 H 2010.73 2.87363 -1.87822 0
M  V30 20916 N 2013.17 0.433965 1.51507 0
M  V30 20917 C 2014.12 -0.397051 2.24516 0
M  V30 20918 C 2015.11 -0.992896 1.26611 0
M  V30 20919 O 2016.3 -0.911595 1.5172 0
M  V30 20920 C 2013.43 -1.49953 3.08819 0
M  V30 20921 C 2012.51 -0.913247 4.1415 0
M  V30 20922 N 2012.9 -0.0558268 5.05769 0
M  V30 20923 C 2011.2 -1.18118 4.30074 0
M  V30 20924 C 2011.9 0.27308 5.81059 0
M  V30 20925 N 2010.88 -0.342445 5.4252 0
M  V30 20926 H 2014.68 0.264043 2.92712 0
M  V30 20927 H 2012.2 0.245838 1.60528 0
M  V30 20928 H 2014.19 -2.1077 3.59696 0
M  V30 20929 H 2012.85 -2.163 2.42166 0
M  V30 20930 H 2013.86 0.310359 5.16969 0
M  V30 20931 H 2010.54 -1.84239 3.74649 0
M  V30 20932 H 2011.93 0.970595 6.64853 0
M  V30 20933 N 2014.65 -1.56732 0.165206 0
M  V30 20934 C 2015.88 -2.01506 -0.490943 0
M  V30 20935 C 2016.3 -1.04466 -1.56424 0
M  V30 20936 O 2015.66 -0.0232331 -1.81285 0
M  V30 20937 C 2015.71 -3.4492 -1.05179 0
M  V30 20938 O 2014.81 -3.50937 -2.16603 0
M  V30 20939 H 2014.15 -0.653393 -0.11821 0
M  V30 20940 H 2016.68 -2.02846 0.267298 0
M  V30 20941 H 2016.69 -3.84099 -1.37593 0
M  V30 20942 H 2015.37 -4.15049 -0.265916 0
M  V30 20943 H 2013.94 -3.23613 -1.85281 0
M  V30 20944 N 2016.13 0.10854 -1.57226 0
M  V30 20945 C 2017.08 1.15155 -2.02094 0
M  V30 20946 C 2018.07 1.42263 -0.919651 0
M  V30 20947 O 2019.28 1.42102 -1.10485 0
M  V30 20948 H 2015.65 0.388515 -0.643863 0
M  V30 20949 H 2017.62 0.746707 -2.88906 0
M  V30 20950 C 2016.37 2.46727 -2.44992 0
M  V30 20951 H 2015.69 2.26708 -3.29307 0
M  V30 20952 H 2017.13 3.18242 -2.80175 0
M  V30 20953 C 2015.59 3.10059 -1.31776 0
M  V30 20954 O 2016.12 3.96577 -0.639471 0
M  V30 20955 N 2014.33 2.70099 -1.07215 0
M  V30 20956 H 2013.88 1.99837 -1.62552 0
M  V30 20957 H 2013.83 3.12802 -0.316602 0
M  V30 20958 N 2017.61 1.52975 0.379009 0
M  V30 20959 C 2018.86 1.67728 1.12028 0
M  V30 20960 C 2019.17 0.428628 1.90846 0
M  V30 20961 O 2020.37 0.456461 2.67635 0
M  V30 20962 C 2018.83 2.96454 2.04066 0
M  V30 20963 C 2018.44 4.28534 1.30624 0
M  V30 20964 C 2020.18 3.20574 2.78267 0
M  V30 20965 C 2018.09 5.4836 2.21485 0
M  V30 20966 H 2017.02 0.624902 0.421917 0
M  V30 20967 H 2019.67 1.79474 0.382288 0
M  V30 20968 H 2018.05 2.78478 2.81542 0
M  V30 20969 H 2019.23 4.57097 0.583043 0
M  V30 20970 H 2017.54 4.10754 0.683407 0
M  V30 20971 H 2020.14 4.07279 3.4645 0
M  V30 20972 H 2020.48 2.36066 3.42898 0
M  V30 20973 H 2021.01 3.39162 2.0788 0
M  V30 20974 H 2017.75 6.35305 1.61455 0
M  V30 20975 H 2017.27 5.24095 2.91692 0
M  V30 20976 H 2018.95 5.82626 2.81346 0
M  V30 20977 N 2019.08 -0.63804 1.44107 0
M  V30 20978 C 2019.99 -1.77914 1.52917 0
M  V30 20979 C 2021.01 -1.68972 0.415266 0
M  V30 20980 O 2022.19 -1.89872 0.671613 0
M  V30 20981 C 2019.25 -3.14268 1.46412 0
M  V30 20982 C 2018.31 -3.34893 2.68598 0
M  V30 20983 C 2017.55 -4.64742 2.62394 0
M  V30 20984 O 2017.77 -5.45095 1.68011 0
M  V30 20985 O 2016.7 -4.87419 3.53138 0
M  V30 20986 H 2020.53 -1.73435 2.49307 0
M  V30 20987 H 2018.11 -0.798412 1.26276 0
M  V30 20988 H 2020 -3.95564 1.45282 0
M  V30 20989 H 2018.67 -3.19304 0.531634 0
M  V30 20990 H 2017.58 -2.53302 2.75297 0
M  V30 20991 H 2018.91 -3.34714 3.6087 0
M  V30 20992 N 2020.56 -1.3089 -0.877815 0
M  V30 20993 C 2021.47 -1.19819 -2.01694 0
M  V30 20994 C 2022.49 -0.116563 -1.73609 0
M  V30 20995 O 2023.66 -0.332871 -1.9863 0
M  V30 20996 C 2020.73 -0.898133 -3.34865 0
M  V30 20997 C 2019.79 -2.06586 -3.76325 0
M  V30 20998 C 2019.02 -1.78002 -5.03141 0
M  V30 20999 O 2019.25 -0.711373 -5.65947 0
M  V30 21000 O 2018.18 -2.63452 -5.41181 0
M  V30 21001 H 2022.01 -2.15529 -2.13965 0
M  V30 21002 H 2019.59 -1.10553 -1.00491 0
M  V30 21003 H 2021.47 -0.746305 -4.14739 0
M  V30 21004 H 2020.15 0.0290018 -3.23687 0
M  V30 21005 H 2019.06 -2.27305 -2.97125 0
M  V30 21006 H 2020.39 -2.97497 -3.92118 0
M  V30 21007 N 2022.04 1.0911 -1.13723 0
M  V30 21008 C 2023.29 1.81621 -0.902319 0
M  V30 21009 C 2023.62 1.85646 0.570009 0
M  V30 21010 O 2022.89 1.32706 1.42195 0
M  V30 21011 C 2023.18 3.27604 -1.49492 0
M  V30 21012 C 2023.03 3.3183 -3.03659 0
M  V30 21013 C 2024.35 4.24378 -1.16581 0
M  V30 21014 H 2021.47 0.659374 -0.329233 0
M  V30 21015 H 2024.11 1.27792 -1.40603 0
M  V30 21016 H 2022.26 3.73574 -1.06653 0
M  V30 21017 H 2023.93 2.94239 -3.55276 0
M  V30 21018 H 2022.18 2.71317 -3.38481 0
M  V30 21019 H 2022.85 4.34686 -3.40224 0
M  V30 21020 H 2025.32 3.8671 -1.53604 0
M  V30 21021 H 2024.2 5.24853 -1.60688 0
M  V30 21022 H 2024.46 4.42028 -0.0800013 0
M  V30 21023 N 2023.52 0.931232 1.27145 0
M  V30 21024 C 2024.48 0.43771 2.24982 0
M  V30 21025 C 2025.48 -0.445689 1.545 0
M  V30 21026 O 2026.67 -0.24627 1.7245 0
M  V30 21027 C 2023.8 -0.370327 3.38883 0
M  V30 21028 H 2025 1.30217 2.70154 0
M  V30 21029 H 2022.55 0.712252 1.39128 0
M  V30 21030 H 2023.28 -1.25346 2.99097 0
M  V30 21031 H 2023.07 0.263109 3.91216 0
M  V30 21032 H 2024.56 -0.705876 4.11591 0
M  V30 21033 N 2025 -1.41343 0.697132 0
M  V30 21034 C 2025.93 -2.33452 0.0471857 0
M  V30 21035 C 2026.91 -1.51902 -0.765488 0
M  V30 21036 O 2028.09 -1.80434 -0.718146 0
M  V30 21037 C 2025.22 -3.35735 -0.888781 0
M  V30 21038 C 2024.18 -4.27608 -0.183088 0
M  V30 21039 C 2023.5 -5.20277 -1.23352 0
M  V30 21040 C 2024.8 -5.13559 0.951558 0
M  V30 21041 H 2026.5 -2.88052 0.816496 0
M  V30 21042 H 2024.04 -1.38502 0.394089 0
M  V30 21043 H 2026 -3.99098 -1.35272 0
M  V30 21044 H 2024.72 -2.79489 -1.68977 0
M  V30 21045 H 2023.38 -3.65671 0.260833 0
M  V30 21046 H 2023.03 -4.60346 -2.02708 0
M  V30 21047 H 2022.73 -5.82581 -0.766336 0
M  V30 21048 H 2024.25 -5.86517 -1.69793 0
M  V30 21049 H 2025.67 -5.70481 0.567835 0
M  V30 21050 H 2024.06 -5.84812 1.34593 0
M  V30 21051 H 2025.13 -4.50631 1.79053 0
M  V30 21052 N 2026.48 -0.441993 -1.51275 0
M  V30 21053 C 2027.72 0.122669 -2.01727 0
M  V30 21054 C 2028.04 1.42804 -1.32786 0
M  V30 21055 O 2027.31 1.90329 -0.463874 0
M  V30 21056 H 2025.89 0.0483227 -0.745435 0
M  V30 21057 H 2028.56 -0.585765 -1.85889 0
M  V30 21058 H 2027.65 0.295224 -3.10701 0
M  V30 21059 N 2027.95 1.56642 -0.173515 0
M  V30 21060 C 2028.9 2.14667 0.768251 0
M  V30 21061 C 2029.89 1.0815 1.19132 0
M  V30 21062 O 2031.08 1.34267 1.15331 0
M  V30 21063 C 2028.21 2.79269 1.99659 0
M  V30 21064 C 2027.29 3.92947 1.59541 0
M  V30 21065 N 2027.69 4.97657 0.903929 0
M  V30 21066 C 2025.98 4.04148 1.88627 0
M  V30 21067 C 2026.68 5.77399 0.706055 0
M  V30 21068 N 2025.66 5.29076 1.24817 0
M  V30 21069 H 2029.46 2.92991 0.230996 0
M  V30 21070 H 2026.98 1.62377 0.0270838 0
M  V30 21071 H 2028.97 3.19217 2.68153 0
M  V30 21072 H 2027.63 2.02427 2.53877 0
M  V30 21073 H 2028.64 5.14845 0.561736 0
M  V30 21074 H 2025.32 3.38411 2.44508 0
M  V30 21075 H 2026.71 6.71712 0.159077 0
M  V30 21076 N 2029.43 -0.1002 1.57281 0
M  V30 21077 C 2030.34 -1.14039 2.05018 0
M  V30 21078 C 2031.36 -1.44178 0.974096 0
M  V30 21079 O 2032.53 -1.54921 1.28691 0
M  V30 21080 C 2029.6 -2.44226 2.46078 0
M  V30 21081 C 2028.66 -2.21315 3.67856 0
M  V30 21082 C 2027.89 -3.45295 4.06948 0
M  V30 21083 O 2028.12 -4.53334 3.46185 0
M  V30 21084 O 2027.05 -3.35185 4.99935 0
M  V30 21085 H 2030.88 -0.764957 2.93908 0
M  V30 21086 H 2028.46 -0.312347 1.46098 0
M  V30 21087 H 2030.34 -3.20895 2.73138 0
M  V30 21088 H 2029.02 -2.81206 1.60327 0
M  V30 21089 H 2027.92 -1.42444 3.4592 0
M  V30 21090 H 2029.26 -1.89231 4.54371 0
M  V30 21091 N 2030.91 -1.53174 -0.370891 0
M  V30 21092 C 2032.16 -1.68764 -1.11189 0
M  V30 21093 C 2032.48 -0.439297 -1.89987 0
M  V30 21094 O 2031.75 0.546592 -1.8812 0
M  V30 21095 H 2030.33 -0.622136 -0.413467 0
M  V30 21096 H 2032.99 -1.90347 -0.418794 0
M  V30 21097 H 2032.09 -2.54633 -1.80468 0
M  V30 21098 N 2032.39 0.630389 -1.44443 0
M  V30 21099 C 2033.3 1.77101 -1.53859 0
M  V30 21100 C 2034.31 1.68749 -0.424221 0
M  V30 21101 O 2035.49 1.89513 -0.681673 0
M  V30 21102 C 2032.55 3.13487 -1.48077 0
M  V30 21103 C 2031.62 3.33464 -2.7037 0
M  V30 21104 C 2030.85 4.63344 -2.64855 0
M  V30 21105 O 2031.07 5.44196 -1.70899 0
M  V30 21106 O 2030.01 4.85539 -3.55718 0
M  V30 21107 H 2033.83 1.7211 -2.50223 0
M  V30 21108 H 2031.42 0.791704 -1.26698 0
M  V30 21109 H 2033.3 3.94788 -1.47378 0
M  V30 21110 H 2031.97 3.19018 -0.54856 0
M  V30 21111 H 2030.88 2.51839 -2.76637 0
M  V30 21112 H 2032.21 3.32795 -3.6264 0
M  V30 21113 N 2033.87 1.31354 0.870861 0
M  V30 21114 C 2035.11 1.20348 1.61862 0
M  V30 21115 C 2035.43 -0.237373 1.94154 0
M  V30 21116 O 2036.63 -0.469111 2.67417 0
M  V30 21117 C 2035.09 2.10677 2.91793 0
M  V30 21118 C 2034.7 3.59752 2.66987 0
M  V30 21119 C 2036.44 2.08469 3.69785 0
M  V30 21120 C 2034.35 4.42092 3.92821 0
M  V30 21121 H 2033.28 0.446857 0.607317 0
M  V30 21122 H 2035.93 1.56203 0.962965 0
M  V30 21123 H 2034.31 1.6772 3.58728 0
M  V30 21124 H 2035.49 4.10949 2.08465 0
M  V30 21125 H 2033.8 3.63927 2.02351 0
M  V30 21126 H 2036.4 2.67232 4.63132 0
M  V30 21127 H 2036.74 1.07161 4.02271 0
M  V30 21128 H 2037.27 2.49621 3.09732 0
M  V30 21129 H 2034.01 5.44151 3.65486 0
M  V30 21130 H 2033.53 3.95654 4.50797 0
M  V30 21131 H 2035.21 4.54259 4.60714 0
M  V30 21132 N 2035.34 -1.08505 1.143 0
M  V30 21133 C 2036.75 -1.62355 0.921836 0
M  V30 21134 C 2037.11 -1.88635 -0.539569 0
M  V30 21135 O 2036.23 -1.64307 -1.40827 0
M  V30 21136 C 2036.83 -2.94955 1.66694 0
M  V30 21137 C 2035.38 -3.45593 1.49139 0
M  V30 21138 C 2034.53 -2.19845 1.69008 0
M  V30 21139 H 2037.48 -0.917442 1.29494 0
M  V30 21140 H 2037.5 -3.63348 1.12954 0
M  V30 21141 H 2037.02 -2.75796 2.73053 0
M  V30 21142 H 2035.12 -3.69858 0.451226 0
M  V30 21143 H 2035.23 -4.2241 2.26068 0
M  V30 21144 H 2033.59 -2.28966 1.11565 0
M  V30 21145 H 2034.38 -2.03194 2.76707 0
M  V30 21146 N 2036.82 -0.937962 -1.26649 0
M  V30 21147 C 2038.07 -0.583818 -1.93902 0
M  V30 21148 C 2038.4 0.876602 -1.73626 0
M  V30 21149 O 2037.65 1.64203 -1.0647 0
M  V30 21150 C 2037.95 -0.868478 -3.46687 0
M  V30 21151 C 2037.62 -2.31227 -3.87098 0
M  V30 21152 C 2036.28 -2.70695 -3.97841 0
M  V30 21153 C 2038.63 -3.25068 -4.07407 0
M  V30 21154 C 2035.96 -4.03107 -4.26288 0
M  V30 21155 C 2038.31 -4.57073 -4.37341 0
M  V30 21156 C 2036.97 -4.96361 -4.46298 0
M  V30 21157 H 2036.24 -0.213634 -0.709536 0
M  V30 21158 H 2038.89 -1.18386 -1.50522 0
M  V30 21159 H 2037.2 -0.185864 -3.91359 0
M  V30 21160 H 2038.89 -0.573289 -3.96881 0
M  V30 21161 H 2035.48 -1.99611 -3.7928 0
M  V30 21162 H 2039.67 -2.95773 -3.98537 0
M  V30 21163 H 2034.92 -4.33214 -4.31434 0
M  V30 21164 H 2039.1 -5.29781 -4.52001 0
M  V30 21165 H 2036.72 -5.98992 -4.68095 0
M  V30 21166 N 2038.3 1.40971 -0.704618 0
M  V30 21167 C 2039.53 2.05102 -0.248377 0
M  V30 21168 C 2039.94 1.53158 1.11082 0
M  V30 21169 O 2039.28 0.678495 1.70711 0
M  V30 21170 C 2039.34 3.59233 -0.138419 0
M  V30 21171 C 2039.01 4.34014 -1.43112 0
M  V30 21172 C 2040 4.62696 -2.37082 0
M  V30 21173 C 2037.69 4.73123 -1.687 0
M  V30 21174 C 2039.68 5.2946 -3.54896 0
M  V30 21175 C 2037.37 5.39621 -2.86797 0
M  V30 21176 C 2038.37 5.67718 -3.79718 0
M  V30 21177 O 2038.06 6.32844 -4.95745 0
M  V30 21178 H 2037.79 0.666762 -0.111376 0
M  V30 21179 H 2040.34 1.81567 -0.96034 0
M  V30 21180 H 2038.57 3.81544 0.629393 0
M  V30 21181 H 2040.26 4.0492 0.281822 0
M  V30 21182 H 2041.03 4.32956 -2.18574 0
M  V30 21183 H 2036.91 4.50629 -0.972326 0
M  V30 21184 H 2040.45 5.51307 -4.27442 0
M  V30 21185 H 2036.35 5.68781 -3.05219 0
M  V30 21186 H 2037.11 6.51341 -4.95679 0
M  V30 21187 N 2039.78 0.45001 1.51039 0
M  V30 21188 C 2041.03 -0.111969 2.0179 0
M  V30 21189 C 2041.35 -1.42098 1.33541 0
M  V30 21190 O 2040.62 -1.9008 0.473962 0
M  V30 21191 H 2039.2 -0.0443688 0.745681 0
M  V30 21192 H 2041.86 0.595615 1.85576 0
M  V30 21193 H 2040.96 -0.278742 3.10853 0
M  V30 21194 N 2041.26 -1.56548 0.18182 0
M  V30 21195 C 2042.2 -2.18468 -0.744342 0
M  V30 21196 C 2043.17 -1.12785 -1.21938 0
M  V30 21197 O 2044.36 -1.4098 -1.28566 0
M  V30 21198 C 2041.5 -2.83772 -1.96386 0
M  V30 21199 C 2040.61 -4.03945 -1.53142 0
M  V30 21200 C 2039.75 -4.57144 -2.70542 0
M  V30 21201 C 2038.79 -5.69704 -2.23839 0
M  V30 21202 N 2037.92 -6.17367 -3.34369 0
M  V30 21203 H 2042.76 -2.97262 -0.209544 0
M  V30 21204 H 2040.3 -1.46814 -0.0916937 0
M  V30 21205 H 2042.26 -3.19797 -2.67929 0
M  V30 21206 H 2040.89 -2.07564 -2.47219 0
M  V30 21207 H 2039.94 -3.73671 -0.712347 0
M  V30 21208 H 2041.25 -4.85393 -1.14868 0
M  V30 21209 H 2040.41 -4.95405 -3.50226 0
M  V30 21210 H 2039.14 -3.74775 -3.12082 0
M  V30 21211 H 2038.15 -5.30984 -1.42604 0
M  V30 21212 H 2039.37 -6.53882 -1.83345 0
M  V30 21213 H 2037.32 -5.37924 -3.75465 0
M  V30 21214 H 2037.24 -6.93832 -3.00221 0
M  V30 21215 H 2038.51 -6.6028 -4.14307 0
M  V30 21216 N 2042.73 0.0918577 -1.57332 0
M  V30 21217 C 2043.7 1.09546 -2.01326 0
M  V30 21218 C 2044.7 1.32761 -0.907252 0
M  V30 21219 O 2045.89 1.2882 -1.17265 0
M  V30 21220 C 2043.02 2.44385 -2.37674 0
M  V30 21221 H 2044.21 0.71671 -2.9121 0
M  V30 21222 H 2041.77 0.337001 -1.52624 0
M  V30 21223 H 2042.5 2.8713 -1.50755 0
M  V30 21224 H 2042.29 2.28882 -3.18364 0
M  V30 21225 H 2043.78 3.16562 -2.72357 0
M  V30 21226 N 2044.21 1.53368 0.362763 0
M  V30 21227 C 2045.46 1.68906 1.10243 0
M  V30 21228 C 2045.77 0.448846 1.90381 0
M  V30 21229 O 2046.98 0.484821 2.67136 0
M  V30 21230 C 2045.44 2.98602 2.0091 0
M  V30 21231 C 2045.04 4.29895 1.26071 0
M  V30 21232 C 2046.79 3.23507 2.74852 0
M  V30 21233 C 2044.7 5.50678 2.15657 0
M  V30 21234 H 2043.63 0.629342 0.415265 0
M  V30 21235 H 2046.28 1.79869 0.363231 0
M  V30 21236 H 2044.66 2.81449 2.78572 0
M  V30 21237 H 2045.83 4.57689 0.534529 0
M  V30 21238 H 2044.15 4.11455 0.639803 0
M  V30 21239 H 2046.74 4.10931 3.42111 0
M  V30 21240 H 2047.09 2.39689 3.40374 0
M  V30 21241 H 2047.62 3.41347 2.04271 0
M  V30 21242 H 2044.36 6.36982 1.54707 0
M  V30 21243 H 2043.88 5.27159 2.86117 0
M  V30 21244 H 2045.56 5.85578 2.75151 0
M  V30 21245 N 2045.69 -0.62272 1.44776 0
M  V30 21246 C 2047.1 -1.20448 1.42651 0
M  V30 21247 C 2047.45 -1.95654 0.146211 0
M  V30 21248 O 2046.58 -2.02876 -0.753016 0
M  V30 21249 C 2047.17 -2.19091 2.58428 0
M  V30 21250 C 2045.73 -2.72675 2.59471 0
M  V30 21251 C 2044.88 -1.47816 2.34618 0
M  V30 21252 H 2047.83 -0.412901 1.53235 0
M  V30 21253 H 2047.85 -3.0185 2.31662 0
M  V30 21254 H 2047.36 -1.64325 3.51595 0
M  V30 21255 H 2045.46 -3.3142 1.70269 0
M  V30 21256 H 2045.58 -3.1814 3.58223 0
M  V30 21257 H 2043.94 -1.76243 1.83876 0
M  V30 21258 H 2044.72 -0.949408 3.29911 0
M  V30 21259 N 2047.17 -1.31814 -0.863883 0
M  V30 21260 C 2048.1 -1.22574 -1.98741 0
M  V30 21261 C 2049.08 -0.111585 -1.69734 0
M  V30 21262 O 2050.26 -0.29721 -1.91912 0
M  V30 21263 C 2047.39 -0.938559 -3.34378 0
M  V30 21264 C 2046.35 -2.01295 -3.7771 0
M  V30 21265 C 2045.67 -1.57834 -5.10874 0
M  V30 21266 C 2046.97 -3.42684 -3.94164 0
M  V30 21267 H 2048.67 -2.16572 -2.06729 0
M  V30 21268 H 2046.21 -1.04262 -0.993246 0
M  V30 21269 H 2048.17 -0.860501 -4.12521 0
M  V30 21270 H 2046.89 0.0370783 -3.26579 0
M  V30 21271 H 2045.55 -2.081 -3.01811 0
M  V30 21272 H 2045.2 -0.5904 -4.99523 0
M  V30 21273 H 2044.9 -2.29713 -5.40838 0
M  V30 21274 H 2046.42 -1.51448 -5.9152 0
M  V30 21275 H 2047.84 -3.38519 -4.62685 0
M  V30 21276 H 2046.23 -4.12833 -4.35533 0
M  V30 21277 H 2047.3 -3.83023 -2.97358 0
M  V30 21278 N 2048.65 1.07897 -1.14873 0
M  V30 21279 C 2049.61 2.13129 -0.843128 0
M  V30 21280 C 2050.61 1.60055 0.154606 0
M  V30 21281 O 2051.8 1.74041 -0.0743665 0
M  V30 21282 C 2048.93 3.39924 -0.257826 0
M  V30 21283 H 2050.12 2.41671 -1.77581 0
M  V30 21284 H 2047.68 1.23696 -0.955463 0
M  V30 21285 H 2048.41 3.17019 0.683318 0
M  V30 21286 H 2048.2 3.79745 -0.97654 0
M  V30 21287 H 2049.69 4.17555 -0.0613986 0
M  V30 21288 N 2050.12 0.944665 1.2615 0
M  V30 21289 C 2051.37 0.594093 1.93589 0
M  V30 21290 C 2051.7 -0.867382 1.74088 0
M  V30 21291 O 2050.95 -1.63636 1.07339 0
M  V30 21292 C 2051.25 0.886852 3.46222 0
M  V30 21293 C 2050.92 2.33276 3.85867 0
M  V30 21294 C 2049.58 2.72801 3.964 0
M  V30 21295 C 2051.93 3.27224 4.05677 0
M  V30 21296 C 2049.26 4.05362 4.24144 0
M  V30 21297 C 2051.61 4.59386 4.34911 0
M  V30 21298 C 2050.28 4.98721 4.4366 0
M  V30 21299 H 2049.55 0.217394 0.708393 0
M  V30 21300 H 2052.19 1.19183 1.49892 0
M  V30 21301 H 2050.5 0.206616 3.91255 0
M  V30 21302 H 2052.2 0.594328 3.96571 0
M  V30 21303 H 2048.79 2.01619 3.78216 0
M  V30 21304 H 2052.97 2.97883 3.96963 0
M  V30 21305 H 2048.23 4.35496 4.29131 0
M  V30 21306 H 2052.4 5.32171 4.49185 0
M  V30 21307 H 2050.03 6.01466 4.64911 0
M  V30 21308 N 2051.6 -1.40596 0.712085 0
M  V30 21309 C 2052.85 -2.00181 0.247097 0
M  V30 21310 C 2053.16 -1.57102 -1.16526 0
M  V30 21311 O 2054.37 -2.09361 -1.72858 0
M  V30 21312 C 2052.83 -3.57771 0.390856 0
M  V30 21313 C 2052.43 -4.09825 1.80964 0
M  V30 21314 C 2054.18 -4.24498 -0.0135164 0
M  V30 21315 C 2052.09 -5.59907 1.90417 0
M  V30 21316 H 2051.02 -0.748773 0.0886278 0
M  V30 21317 H 2053.67 -1.60876 0.882669 0
M  V30 21318 H 2052.05 -3.94759 -0.313241 0
M  V30 21319 H 2053.22 -3.84221 2.54383 0
M  V30 21320 H 2051.54 -3.55682 2.16516 0
M  V30 21321 H 2054.13 -5.34688 0.0364444 0
M  V30 21322 H 2054.48 -4.02714 -1.05487 0
M  V30 21323 H 2055.01 -3.92603 0.640898 0
M  V30 21324 H 2051.75 -5.86541 2.92661 0
M  V30 21325 H 2051.27 -5.87385 1.21404 0
M  V30 21326 H 2052.95 -6.24951 1.67466 0
M  V30 21327 N 2053.08 -0.458013 -1.50798 0
M  V30 21328 C 2054.03 0.342913 -2.28238 0
M  V30 21329 C 2055 0.99876 -1.32718 0
M  V30 21330 O 2056.18 1.01371 -1.61643 0
M  V30 21331 C 2053.32 1.42646 -3.14239 0
M  V30 21332 C 2052.44 0.786698 -4.24776 0
M  V30 21333 C 2051.57 1.84704 -4.98054 0
M  V30 21334 C 2050.61 1.18681 -6.00484 0
M  V30 21335 N 2049.75 2.18942 -6.6709 0
M  V30 21336 H 2054.59 -0.323799 -2.96236 0
M  V30 21337 H 2052.12 -0.171528 -1.46097 0
M  V30 21338 H 2054.08 2.0662 -3.62442 0
M  V30 21339 H 2052.71 2.06252 -2.48314 0
M  V30 21340 H 2051.76 0.0347215 -3.80384 0
M  V30 21341 H 2053.08 0.264877 -4.98096 0
M  V30 21342 H 2052.23 2.5629 -5.49909 0
M  V30 21343 H 2050.97 2.40263 -4.24411 0
M  V30 21344 H 2049.97 0.45651 -5.47901 0
M  V30 21345 H 2051.2 0.638278 -6.76094 0
M  V30 21346 H 2049.14 2.73543 -5.96247 0
M  V30 21347 H 2049.06 1.71709 -7.36242 0
M  V30 21348 H 2050.33 2.89949 -7.23568 0
M  V30 21349 N 2054.56 1.56449 -0.190119 0
M  V30 21350 C 2055.81 1.97048 0.449068 0
M  V30 21351 C 2056.13 1.07797 1.62496 0
M  V30 21352 O 2055.4 0.148203 1.95339 0
M  V30 21353 H 2053.98 0.727656 0.168896 0
M  V30 21354 H 2056.64 1.9294 -0.275691 0
M  V30 21355 H 2055.74 3.01764 0.79653 0
M  V30 21356 N 2056.04 -0.0835127 1.57379 0
M  V30 21357 C 2057.29 -0.783318 1.86302 0
M  V30 21358 C 2057.61 -1.787 0.780472 0
M  V30 21359 O 2056.88 -1.94956 -0.192101 0
M  V30 21360 H 2055.46 -0.292281 0.687445 0
M  V30 21361 H 2058.12 -0.0623868 1.948 0
M  V30 21362 H 2057.21 -1.30677 2.83425 0
M  V30 21363 N 2057.52 -1.53558 -0.354624 0
M  V30 21364 C 2058.93 -1.43575 -0.697019 0
M  V30 21365 C 2059.13 -0.583599 -1.92864 0
M  V30 21366 O 2058.19 -0.0702807 -2.52402 0
M  V30 21367 C 2059.5 -2.86916 -0.899995 0
M  V30 21368 C 2061.05 -2.96619 -0.999314 0
M  V30 21369 C 2061.52 -4.41044 -1.23468 0
M  V30 21370 N 2063.01 -4.44521 -1.30214 0
M  V30 21371 C 2063.75 -5.5339 -1.50156 0
M  V30 21372 N 2063.25 -6.72286 -1.67343 0
M  V30 21373 N 2065.04 -5.40985 -1.52614 0
M  V30 21374 H 2057.19 -2.07462 0.45531 0
M  V30 21375 H 2059.45 -0.937349 0.141706 0
M  V30 21376 H 2059.16 -3.51637 -0.066674 0
M  V30 21377 H 2059.03 -3.31212 -1.80495 0
M  V30 21378 H 2061.42 -2.32044 -1.82317 0
M  V30 21379 H 2061.5 -2.557 -0.0715092 0
M  V30 21380 H 2061.14 -5.06195 -0.415803 0
M  V30 21381 H 2061.07 -4.79545 -2.17588 0
M  V30 21382 H 2063.57 -3.5884 -1.18501 0
M  V30 21383 H 2063.88 -7.51023 -1.82164 0
M  V30 21384 H 2062.22 -6.75252 -1.645 0
M  V30 21385 H 2065.41 -4.4706 -1.38762 0
M  V30 21386 H 2065.59 -6.25893 -1.67815 0
M  V30 21387 N 2058.99 0.615033 -1.45104 0
M  V30 21388 C 2059.94 1.72028 -1.49635 0
M  V30 21389 C 2060.93 1.56812 -0.36038 0
M  V30 21390 O 2062.12 1.66275 -0.606753 0
M  V30 21391 C 2059.25 3.10763 -1.45881 0
M  V30 21392 C 2058.33 3.31391 -2.64653 0
M  V30 21393 N 2058.73 3.22312 -3.89806 0
M  V30 21394 C 2057.02 3.62238 -2.60191 0
M  V30 21395 C 2057.72 3.44068 -4.69033 0
M  V30 21396 N 2056.7 3.67706 -4.00366 0
M  V30 21397 H 2060.5 1.63491 -2.44229 0
M  V30 21398 H 2058.02 0.818045 -1.40292 0
M  V30 21399 H 2060.01 3.90044 -1.47212 0
M  V30 21400 H 2058.67 3.20454 -0.523376 0
M  V30 21401 H 2059.68 3.00877 -4.21537 0
M  V30 21402 H 2056.36 3.78813 -1.7552 0
M  V30 21403 H 2057.75 3.42506 -5.78048 0
M  V30 21404 N 2060.47 1.3227 0.85688 0
M  V30 21405 C 2061.4 1.23626 1.98088 0
M  V30 21406 C 2062.38 0.120585 1.69672 0
M  V30 21407 O 2063.57 0.307383 1.91752 0
M  V30 21408 C 2060.7 0.956279 3.33875 0
M  V30 21409 C 2059.65 2.03295 3.76637 0
M  V30 21410 C 2058.98 1.60541 5.1003 0
M  V30 21411 C 2060.28 3.4477 3.92341 0
M  V30 21412 H 2061.97 2.17665 2.05578 0
M  V30 21413 H 2059.52 1.04788 0.987703 0
M  V30 21414 H 2061.47 0.882366 4.12059 0
M  V30 21415 H 2060.19 -0.0197585 3.26594 0
M  V30 21416 H 2058.85 2.09698 3.00703 0
M  V30 21417 H 2058.5 0.616883 4.99203 0
M  V30 21418 H 2058.2 2.32578 5.39612 0
M  V30 21419 H 2059.73 1.54582 5.90709 0
M  V30 21420 H 2061.14 3.40968 4.60884 0
M  V30 21421 H 2059.54 4.15137 4.33338 0
M  V30 21422 H 2060.61 3.84594 2.95322 0
M  V30 21423 N 2061.95 -1.07287 1.15444 0
M  V30 21424 C 2063.2 -1.79277 0.924257 0
M  V30 21425 C 2063.51 -1.8771 -0.549932 0
M  V30 21426 O 2064.72 -2.56229 -0.897718 0
M  V30 21427 C 2063.17 -3.22168 1.60424 0
M  V30 21428 C 2062.78 -3.21934 3.11549 0
M  V30 21429 C 2064.53 -3.98763 1.45563 0
M  V30 21430 C 2062.43 -4.59482 3.72331 0
M  V30 21431 H 2061.36 -0.671898 0.342153 0
M  V30 21432 H 2064.01 -1.20415 1.38465 0
M  V30 21433 H 2062.4 -3.81227 1.07154 0
M  V30 21434 H 2063.57 -2.72516 3.7158 0
M  V30 21435 H 2061.88 -2.58836 3.26179 0
M  V30 21436 H 2064.48 -5.00423 1.88364 0
M  V30 21437 H 2064.82 -4.14343 0.403205 0
M  V30 21438 H 2065.36 -3.46201 1.95933 0
M  V30 21439 H 2062.1 -4.49106 4.77476 0
M  V30 21440 H 2061.62 -5.09135 3.17083 0
M  V30 21441 H 2063.3 -5.2845 3.73296 0
M  V30 21442 N 2063.43 -0.951342 -1.25647 0
M  V30 21443 C 2064.67 -0.604351 -1.93271 0
M  V30 21444 C 2065 0.858137 -1.74546 0
M  V30 21445 O 2064.26 1.63065 -1.08206 0
M  V30 21446 C 2064.56 -0.9052 -3.45747 0
M  V30 21447 C 2064.22 -2.35319 -3.84624 0
M  V30 21448 C 2062.88 -2.74899 -3.94948 0
M  V30 21449 C 2065.24 -3.29371 -4.03936 0
M  V30 21450 C 2062.56 -4.07606 -4.21989 0
M  V30 21451 C 2064.92 -4.61686 -4.32468 0
M  V30 21452 C 2063.58 -5.01067 -4.41009 0
M  V30 21453 H 2062.85 -0.221148 -0.70723 0
M  V30 21454 H 2065.5 -1.19976 -1.49258 0
M  V30 21455 H 2063.8 -0.227362 -3.9114 0
M  V30 21456 H 2065.5 -0.615351 -3.9625 0
M  V30 21457 H 2062.09 -2.03622 -3.77142 0
M  V30 21458 H 2066.27 -2.99984 -3.95378 0
M  V30 21459 H 2061.53 -4.37766 -4.26815 0
M  V30 21460 H 2065.7 -5.34545 -4.46357 0
M  V30 21461 H 2063.33 -6.03923 -4.61715 0
M  V30 21462 N 2064.91 1.40216 -0.719531 0
M  V30 21463 C 2066.15 2.02672 -0.265214 0
M  V30 21464 C 2066.51 1.55831 1.12164 0
M  V30 21465 O 2067.71 2.10377 1.67317 0
M  V30 21466 C 2065.98 3.55716 -0.346559 0
M  V30 21467 S 2067.54 4.3879 0.0301928 0
M  V30 21468 H 2064.36 0.703215 -0.104928 0
M  V30 21469 H 2066.96 1.71274 -0.942624 0
M  V30 21470 H 2065.66 3.87299 -1.35748 0
M  V30 21471 H 2065.2 3.91847 0.349197 0
M  V30 21472 H 2067.21 4.80169 1.25107 0
M  V30 21473 N 2066.38 0.466004 1.50553 0
M  V30 21474 C 2067.33 -0.349338 2.25308 0
M  V30 21475 C 2068.32 -0.965816 1.28689 0
M  V30 21476 O 2069.51 -0.879208 1.53619 0
M  V30 21477 C 2066.64 -1.43369 3.1193 0
M  V30 21478 C 2065.72 -0.825194 4.15994 0
M  V30 21479 N 2066.12 0.0514669 5.05774 0
M  V30 21480 C 2064.41 -1.08969 4.32483 0
M  V30 21481 C 2065.11 0.39627 5.80349 0
M  V30 21482 N 2064.09 -0.227292 5.43125 0
M  V30 21483 H 2067.89 0.326072 2.92086 0
M  V30 21484 H 2065.41 0.279833 1.59971 0
M  V30 21485 H 2067.4 -2.03093 3.64086 0
M  V30 21486 H 2066.06 -2.11114 2.467 0
M  V30 21487 H 2067.07 0.419946 5.16195 0
M  V30 21488 H 2063.75 -1.76251 3.78473 0
M  V30 21489 H 2065.14 1.1114 6.62644 0
M  V30 21490 N 2067.86 -1.56346 0.198413 0
M  V30 21491 C 2069.09 -2.02502 -0.44809 0
M  V30 21492 C 2069.51 -1.07761 -1.54173 0
M  V30 21493 O 2068.87 -0.0616812 -1.81195 0
M  V30 21494 C 2068.92 -3.47073 -0.978394 0
M  V30 21495 O 2068.02 -3.55452 -2.09111 0
M  V30 21496 H 2067.36 -0.655753 -0.104324 0
M  V30 21497 H 2069.89 -2.02234 0.310265 0
M  V30 21498 H 2069.9 -3.86931 -1.29415 0
M  V30 21499 H 2068.58 -4.1552 -0.177819 0
M  V30 21500 H 2067.15 -3.27471 -1.78375 0
M  V30 21501 N 2069.34 0.0751653 -1.57421 0
M  V30 21502 C 2070.29 1.08969 -2.03456 0
M  V30 21503 C 2071.26 1.38655 -0.914549 0
M  V30 21504 O 2072.44 1.4978 -1.18197 0
M  V30 21505 C 2069.58 2.39917 -2.4806 0
M  V30 21506 C 2068.7 2.1679 -3.73666 0
M  V30 21507 C 2067.83 3.41278 -4.07066 0
M  V30 21508 C 2066.87 3.13501 -5.25722 0
M  V30 21509 N 2066.01 4.30309 -5.54778 0
M  V30 21510 H 2070.85 0.690138 -2.89898 0
M  V30 21511 H 2068.38 0.32921 -1.43369 0
M  V30 21512 H 2070.34 3.16366 -2.71972 0
M  V30 21513 H 2068.97 2.77681 -1.646 0
M  V30 21514 H 2068.02 1.3105 -3.57114 0
M  V30 21515 H 2069.34 1.9227 -4.60254 0
M  V30 21516 H 2068.49 4.26124 -4.31861 0
M  V30 21517 H 2067.23 3.68871 -3.19039 0
M  V30 21518 H 2066.23 2.2705 -5.00728 0
M  V30 21519 H 2067.46 2.87234 -6.15365 0
M  V30 21520 H 2065.4 4.5794 -4.69709 0
M  V30 21521 H 2065.32 4.09051 -6.35778 0
M  V30 21522 H 2066.59 5.16162 -5.84121 0
M  V30 21523 N 2070.82 1.53744 0.346476 0
M  V30 21524 C 2071.77 1.81527 1.42536 0
M  V30 21525 C 2072.74 0.660781 1.52391 0
M  V30 21526 O 2073.92 0.904918 1.67976 0
M  V30 21527 C 2071.06 2.02795 2.79228 0
M  V30 21528 C 2070.17 3.30508 2.78188 0
M  V30 21529 C 2069.31 3.41859 4.06578 0
M  V30 21530 C 2068.35 4.63532 3.99755 0
M  V30 21531 N 2067.48 4.71933 5.1983 0
M  V30 21532 H 2072.32 2.7358 1.18144 0
M  V30 21533 H 2069.86 1.35508 0.572368 0
M  V30 21534 H 2071.82 2.13115 3.58661 0
M  V30 21535 H 2070.45 1.14059 3.01978 0
M  V30 21536 H 2069.5 3.29044 1.90877 0
M  V30 21537 H 2070.81 4.20033 2.69024 0
M  V30 21538 H 2069.97 3.51595 4.94435 0
M  V30 21539 H 2068.71 2.50385 4.1852 0
M  V30 21540 H 2067.71 4.53876 3.10284 0
M  V30 21541 H 2068.94 5.56368 3.89399 0
M  V30 21542 H 2066.88 3.83367 5.32321 0
M  V30 21543 H 2066.8 5.5539 5.12911 0
M  V30 21544 H 2068.07 4.85975 6.09466 0
M  V30 21545 N 2072.3 -0.607329 1.45428 0
M  V30 21546 C 2073.24 -1.71802 1.54119 0
M  V30 21547 C 2074.21 -1.61527 0.387071 0
M  V30 21548 O 2075.4 -1.81102 0.60055 0
M  V30 21549 C 2072.54 -3.10112 1.5141 0
M  V30 21550 C 2071.65 -3.31191 2.77375 0
M  V30 21551 C 2070.79 -4.59608 2.66335 0
M  V30 21552 C 2069.83 -4.73946 3.87353 0
M  V30 21553 N 2068.96 -5.93662 3.74846 0
M  V30 21554 H 2073.8 -1.6371 2.49004 0
M  V30 21555 H 2071.34 -0.798251 1.23557 0
M  V30 21556 H 2073.3 -3.90132 1.47826 0
M  V30 21557 H 2071.93 -3.17161 0.600749 0
M  V30 21558 H 2070.98 -2.44944 2.91044 0
M  V30 21559 H 2072.29 -3.37658 3.67135 0
M  V30 21560 H 2071.45 -5.47823 2.60719 0
M  V30 21561 H 2070.18 -4.55538 1.74174 0
M  V30 21562 H 2069.19 -3.84153 3.93327 0
M  V30 21563 H 2070.41 -4.79812 4.8058 0
M  V30 21564 H 2068.36 -5.90637 2.85454 0
M  V30 21565 H 2068.28 -6.01291 4.58241 0
M  V30 21566 H 2069.55 -6.84375 3.73163 0
M  V30 21567 N 2073.77 -1.32722 -0.849853 0
M  V30 21568 C 2075.01 -1.24877 -1.61818 0
M  V30 21569 C 2075.38 0.185464 -1.91102 0
M  V30 21570 O 2076.58 0.387721 -2.65989 0
M  V30 21571 C 2074.85 -2.08897 -2.89994 0
M  V30 21572 S 2076.41 -2.18128 -3.80744 0
M  V30 21573 H 2073.23 -0.444443 -0.55497 0
M  V30 21574 H 2075.83 -1.67627 -1.00605 0
M  V30 21575 H 2074.53 -3.12155 -2.66435 0
M  V30 21576 H 2074.06 -1.66943 -3.56221 0
M  V30 21577 H 2076.08 -1.33429 -4.77924 0
M  V30 21578 N 2075.25 1.06673 -1.16011 0
M  V30 21579 C 2076.53 1.76186 -0.849577 0
M  V30 21580 C 2076.91 2.00733 0.653401 0
M  V30 21581 O 2076.26 1.63135 1.59998 0
M  V30 21582 C 2076.47 3.06559 -1.66802 0
M  V30 21583 C 2077.82 3.80782 -1.87857 0
M  V30 21584 O 2078.84 3.16389 -1.63635 0
M  V30 21585 O 2077.7 4.96451 -2.2847 0
M  V30 21586 H 2074.79 0.76543 -0.313123 0
M  V30 21587 H 2077.34 1.12976 -1.26627 0
M  V30 21588 H 2076.11 2.84353 -2.68811 0
M  V30 21589 H 2075.73 3.77502 -1.24811 0
M  V30 21590 N 2076.73 0.957992 1.25141 0
M  V30 21591 C 2077.64 0.487592 2.29477 0
M  V30 21592 C 2078.66 -0.446704 1.68168 0
M  V30 21593 O 2079.83 -0.322127 1.98807 0
M  V30 21594 C 2076.9 -0.22393 3.45976 0
M  V30 21595 C 2075.96 0.748994 4.22716 0
M  V30 21596 C 2075.19 0.0713329 5.33652 0
M  V30 21597 O 2075.41 -1.14234 5.58844 0
M  V30 21598 O 2074.35 0.758575 5.97101 0
M  V30 21599 H 2078.17 1.35471 2.71811 0
M  V30 21600 H 2075.76 0.724594 1.30652 0
M  V30 21601 H 2077.64 -0.624039 4.16754 0
M  V30 21602 H 2076.32 -1.06616 3.05638 0
M  V30 21603 H 2075.22 1.19938 3.54353 0
M  V30 21604 H 2076.56 1.55935 4.66846 0
M  V30 21605 N 2078.21 -1.39832 0.726957 0
M  V30 21606 C 2079.14 -2.333 0.0966938 0
M  V30 21607 C 2080.12 -1.53492 -0.733095 0
M  V30 21608 O 2081.3 -1.81916 -0.679712 0
M  V30 21609 C 2078.43 -3.37545 -0.817367 0
M  V30 21610 C 2077.39 -4.279 -0.0923447 0
M  V30 21611 C 2076.71 -5.22777 -1.12288 0
M  V30 21612 C 2078.01 -5.11425 1.06028 0
M  V30 21613 H 2079.71 -2.86255 0.877412 0
M  V30 21614 H 2077.25 -1.37635 0.423378 0
M  V30 21615 H 2079.21 -4.01878 -1.26776 0
M  V30 21616 H 2077.93 -2.83011 -1.63011 0
M  V30 21617 H 2076.59 -3.65035 0.338339 0
M  V30 21618 H 2076.24 -4.64542 -1.92898 0
M  V30 21619 H 2075.94 -5.84076 -0.64259 0
M  V30 21620 H 2077.46 -5.89987 -1.57314 0
M  V30 21621 H 2078.88 -5.69148 0.688715 0
M  V30 21622 H 2077.27 -5.81825 1.46968 0
M  V30 21623 H 2078.34 -4.46731 1.88571 0
M  V30 21624 N 2079.69 -0.473982 -1.50304 0
M  V30 21625 C 2080.65 0.307394 -2.27129 0
M  V30 21626 C 2081.65 0.917901 -1.32027 0
M  V30 21627 O 2082.84 0.78663 -1.55428 0
M  V30 21628 C 2079.97 1.4382 -3.09077 0
M  V30 21629 H 2081.16 -0.366396 -2.97653 0
M  V30 21630 H 2078.72 -0.228128 -1.54626 0
M  V30 21631 H 2079.45 2.14696 -2.43056 0
M  V30 21632 H 2079.24 1.0062 -3.7897 0
M  V30 21633 H 2080.73 1.98932 -3.67173 0
M  V30 21634 N 2081.16 1.56239 -0.206702 0
M  V30 21635 C 2082.13 2.18382 0.695843 0
M  V30 21636 C 2083.13 1.14149 1.13255 0
M  V30 21637 O 2084.32 1.39468 1.04376 0
M  V30 21638 C 2081.45 2.79522 1.95141 0
M  V30 21639 H 2082.64 2.99503 0.154275 0
M  V30 21640 H 2080.2 1.56241 0.0429222 0
M  V30 21641 H 2080.93 2.02231 2.53521 0
M  V30 21642 H 2080.72 3.55837 1.64689 0
M  V30 21643 H 2082.21 3.27203 2.59476 0
M  V30 21644 N 2082.64 -0.0668159 1.57458 0
M  V30 21645 C 2083.61 -1.06329 2.03044 0
M  V30 21646 C 2084.61 -1.31301 0.928259 0
M  V30 21647 O 2085.8 -1.26938 1.193 0
M  V30 21648 C 2082.93 -2.40573 2.41532 0
M  V30 21649 H 2084.12 -0.67029 2.92313 0
M  V30 21650 H 2081.67 -0.312678 1.53141 0
M  V30 21651 H 2082.41 -2.84695 1.55303 0
M  V30 21652 H 2082.19 -2.23788 3.21965 0
M  V30 21653 H 2083.68 -3.12189 2.77359 0
M  V30 21654 N 2084.12 -1.53926 -0.338317 0
M  V30 21655 C 2085.05 -1.85269 -1.42119 0
M  V30 21656 C 2086.03 -0.708238 -1.54654 0
M  V30 21657 O 2087.22 -0.960631 -1.68777 0
M  V30 21658 C 2084.35 -2.06693 -2.79097 0
M  V30 21659 C 2083.3 -3.22519 -2.81364 0
M  V30 21660 C 2082.63 -3.29286 -4.21277 0
M  V30 21661 C 2083.93 -4.6051 -2.46431 0
M  V30 21662 H 2085.62 -2.75957 -1.16137 0
M  V30 21663 H 2083.17 -1.32781 -0.557249 0
M  V30 21664 H 2085.12 -2.27204 -3.54903 0
M  V30 21665 H 2083.84 -1.1274 -3.06524 0
M  V30 21666 H 2082.5 -3.01872 -2.08011 0
M  V30 21667 H 2082.15 -2.32919 -4.45823 0
M  V30 21668 H 2081.85 -4.07123 -4.23704 0
M  V30 21669 H 2083.38 -3.52014 -4.98918 0
M  V30 21670 H 2084.79 -4.80999 -3.1195 0
M  V30 21671 H 2083.19 -5.40788 -2.60132 0
M  V30 21672 H 2084.26 -4.63762 -1.41607 0
M  V30 21673 N 2085.6 0.599608 -1.45748 0
M  V30 21674 C 2087.02 0.921212 -1.3033 0
M  V30 21675 C 2087.22 1.99787 -0.262213 0
M  V30 21676 O 2086.27 2.50186 0.34109 0
M  V30 21677 C 2087.58 1.35457 -2.68462 0
M  V30 21678 C 2089.13 1.46835 -2.76421 0
M  V30 21679 C 2089.61 1.93544 -4.15096 0
M  V30 21680 N 2091.1 2.00765 -4.1743 0
M  V30 21681 C 2091.83 2.38145 -5.21608 0
M  V30 21682 N 2091.33 2.74437 -6.36126 0
M  V30 21683 N 2093.12 2.38554 -5.08968 0
M  V30 21684 H 2085.27 -0.111892 -2.12105 0
M  V30 21685 H 2087.54 0.0126042 -0.947916 0
M  V30 21686 H 2087.24 0.63759 -3.45872 0
M  V30 21687 H 2087.12 2.31951 -2.97453 0
M  V30 21688 H 2089.5 2.17623 -1.99309 0
M  V30 21689 H 2089.58 0.486356 -2.51134 0
M  V30 21690 H 2089.23 1.2334 -4.92696 0
M  V30 21691 H 2089.16 2.92672 -4.3778 0
M  V30 21692 H 2091.65 1.75275 -3.34794 0
M  V30 21693 H 2091.96 3.01865 -7.11405 0
M  V30 21694 H 2090.31 2.72115 -6.39514 0
M  V30 21695 H 2093.5 2.09612 -4.18546 0
M  V30 21696 H 2093.67 2.67359 -5.90274 0
M  V30 21697 N 2087.08 1.33171 0.842803 0
M  V30 21698 C 2088.33 1.24159 1.59464 0
M  V30 21699 C 2088.65 -0.193595 1.94037 0
M  V30 21700 O 2087.92 -1.12135 1.60632 0
M  V30 21701 H 2086.5 0.456555 0.591241 0
M  V30 21702 H 2089.16 1.66842 1.00746 0
M  V30 21703 H 2088.25 1.83255 2.52634 0
M  V30 21704 N 2088.56 -1.06056 1.16576 0
M  V30 21705 C 2089.49 -2.13035 0.817996 0
M  V30 21706 C 2090.47 -1.6122 -0.211409 0
M  V30 21707 O 2091.65 -1.88261 -0.0949392 0
M  V30 21708 C 2088.78 -3.37993 0.218692 0
M  V30 21709 C 2087.82 -4.08616 1.22209 0
M  V30 21710 S 2088.66 -4.58305 2.76978 0
M  V30 21711 C 2089.81 -5.86521 2.18503 0
M  V30 21712 H 2090.05 -2.42205 1.72406 0
M  V30 21713 H 2087.58 -1.18527 0.989482 0
M  V30 21714 H 2089.54 -4.10323 -0.120616 0
M  V30 21715 H 2088.2 -3.06976 -0.665173 0
M  V30 21716 H 2087.39 -4.9837 0.75124 0
M  V30 21717 H 2086.99 -3.42312 1.50661 0
M  V30 21718 H 2089.28 -6.59409 1.55519 0
M  V30 21719 H 2090.23 -6.3834 3.06476 0
M  V30 21720 H 2090.64 -5.40668 1.62292 0
M  V30 21721 N 2090.03 -0.964615 -1.24631 0
M  V30 21722 C 2091.28 -0.623582 -1.92239 0
M  V30 21723 C 2091.6 0.843493 -1.75813 0
M  V30 21724 O 2090.87 1.60179 -1.12781 0
M  V30 21725 H 2089.45 -0.227644 -0.711468 0
M  V30 21726 H 2092.11 -1.22502 -1.51589 0
M  V30 21727 H 2091.21 -0.861514 -2.99974 0
M  V30 21728 N 2091.51 1.39445 -0.734362 0
M  V30 21729 C 2092.76 2.00824 -0.282443 0
M  V30 21730 C 2093.09 1.58137 1.12722 0
M  V30 21731 O 2092.37 0.809969 1.76833 0
M  V30 21732 C 2092.65 3.58051 -0.38359 0
M  V30 21733 C 2092.5 4.10758 -1.83298 0
M  V30 21734 C 2093.82 4.39476 0.234349 0
M  V30 21735 H 2090.94 0.729611 -0.104103 0
M  V30 21736 H 2093.58 1.65661 -0.930397 0
M  V30 21737 H 2091.73 3.88136 0.168068 0
M  V30 21738 H 2093.4 3.91395 -2.44147 0
M  V30 21739 H 2091.65 3.64342 -2.35451 0
M  V30 21740 H 2092.32 5.19897 -1.85503 0
M  V30 21741 H 2094.79 4.15431 -0.235909 0
M  V30 21742 H 2093.67 5.48738 0.133228 0
M  V30 21743 H 2093.93 4.21924 1.32032 0
M  V30 21744 N 2092.99 0.481946 1.5005 0
M  V30 21745 C 2093.94 -0.320472 2.30382 0
M  V30 21746 C 2094.93 -0.980434 1.38144 0
M  V30 21747 O 2096.14 -0.910298 1.55285 0
M  V30 21748 H 2092.51 -0.122196 0.742006 0
M  V30 21749 H 2094.48 0.377305 2.96005 0
M  V30 21750 C 2093.23 -1.38347 3.18991 0
M  V30 21751 H 2092.56 -0.885033 3.89881 0
M  V30 21752 H 2094 -1.91728 3.78175 0
M  V30 21753 C 2092.45 -2.39133 2.37313 0
M  V30 21754 O 2092.98 -3.44629 2.06383 0
M  V30 21755 N 2091.19 -2.11122 1.9969 0
M  V30 21756 H 2090.74 -1.25354 2.25043 0
M  V30 21757 H 2090.7 -2.78787 1.45345 0
M  V30 21758 N 2094.47 -1.56127 0.214985 0
M  V30 21759 C 2095.43 -2.18748 -0.684252 0
M  V30 21760 C 2096.43 -1.14748 -1.12648 0
M  V30 21761 O 2097.62 -1.4002 -1.03634 0
M  V30 21762 C 2094.75 -2.80553 -1.93656 0
M  V30 21763 H 2095.95 -2.99581 -0.13839 0
M  V30 21764 H 2093.5 -1.56262 -0.0346358 0
M  V30 21765 H 2094.23 -2.03573 -2.52445 0
M  V30 21766 H 2094.02 -3.56705 -1.628 0
M  V30 21767 H 2095.51 -3.28575 -2.57737 0
M  V30 21768 N 2095.95 0.0584645 -1.57492 0
M  V30 21769 C 2097.19 0.75619 -1.88174 0
M  V30 21770 C 2097.52 1.76546 -0.809018 0
M  V30 21771 O 2096.8 1.93672 0.179286 0
M  V30 21772 C 2097.08 1.45223 -3.29518 0
M  V30 21773 C 2096.94 0.458472 -4.47457 0
M  V30 21774 C 2098.25 2.39381 -3.69303 0
M  V30 21775 H 2095.37 0.27344 -0.684397 0
M  V30 21776 H 2098.02 0.0191997 -1.8999 0
M  V30 21777 H 2096.17 2.08044 -3.28101 0
M  V30 21778 H 2097.84 -0.165547 -4.61003 0
M  V30 21779 H 2096.08 -0.225018 -4.33216 0
M  V30 21780 H 2096.75 0.983384 -5.4317 0
M  V30 21781 H 2099.23 1.86628 -3.719 0
M  V30 21782 H 2098.1 2.85078 -4.69065 0
M  V30 21783 H 2098.36 3.24775 -2.99956 0
M  V30 21784 N 2097.42 1.54103 0.330149 0
M  V30 21785 C 2098.39 1.82317 1.389 0
M  V30 21786 C 2099.39 0.694711 1.45019 0
M  V30 21787 O 2100.58 0.963016 1.45161 0
M  V30 21788 C 2097.71 1.97727 2.77699 0
M  V30 21789 H 2098.9 2.76916 1.15141 0
M  V30 21790 H 2096.45 1.4572 0.565276 0
M  V30 21791 H 2097.19 1.05316 3.06723 0
M  V30 21792 H 2096.97 2.79837 2.74652 0
M  V30 21793 H 2098.46 2.21026 3.54313 0
M  V30 21794 N 2098.9 -0.59187 1.46064 0
M  V30 21795 C 2100.13 -1.37466 1.54229 0
M  V30 21796 C 2100.54 -1.8835 0.1791 0
M  V30 21797 O 2099.88 -1.63765 -0.832274 0
M  V30 21798 C 2099.95 -2.60379 2.47877 0
M  V30 21799 C 2099.61 -2.31026 3.94305 0
M  V30 21800 C 2100.61 -1.90422 4.83772 0
M  V30 21801 C 2098.29 -2.43453 4.39359 0
M  V30 21802 C 2100.29 -1.62626 6.16305 0
M  V30 21803 C 2097.97 -2.15271 5.71928 0
M  V30 21804 C 2098.97 -1.74921 6.60221 0
M  V30 21805 O 2098.66 -1.47079 7.90331 0
M  V30 21806 H 2098.39 -0.426635 0.524365 0
M  V30 21807 H 2100.94 -0.7274 1.92089 0
M  V30 21808 H 2099.17 -3.27879 2.05018 0
M  V30 21809 H 2100.86 -3.2244 2.4655 0
M  V30 21810 H 2101.63 -1.80343 4.50224 0
M  V30 21811 H 2097.51 -2.73823 3.70866 0
M  V30 21812 H 2101.05 -1.31058 6.85179 0
M  V30 21813 H 2096.95 -2.2497 6.05028 0
M  V30 21814 H 2097.72 -1.61 8.02509 0
M  V30 21815 N 2100.38 -1.33616 -0.835729 0
M  V30 21816 C 2101.61 -1.28111 -1.62084 0
M  V30 21817 C 2102.02 0.149577 -1.88608 0
M  V30 21818 O 2101.36 1.10314 -1.4689 0
M  V30 21819 C 2101.42 -1.99073 -2.9935 0
M  V30 21820 C 2101.09 -3.48371 -2.95781 0
M  V30 21821 C 2102.08 -4.43516 -2.71273 0
M  V30 21822 C 2099.77 -3.90595 -3.15818 0
M  V30 21823 C 2101.76 -5.78859 -2.66835 0
M  V30 21824 C 2099.45 -5.26041 -3.11004 0
M  V30 21825 C 2100.45 -6.19985 -2.86544 0
M  V30 21826 O 2100.14 -7.5295 -2.8164 0
M  V30 21827 H 2099.87 -0.442615 -0.510948 0
M  V30 21828 H 2102.42 -1.76601 -1.04887 0
M  V30 21829 H 2100.65 -1.45179 -3.58413 0
M  V30 21830 H 2102.34 -1.87026 -3.60245 0
M  V30 21831 H 2103.11 -4.12218 -2.55541 0
M  V30 21832 H 2098.99 -3.1788 -3.33876 0
M  V30 21833 H 2102.53 -6.52157 -2.47663 0
M  V30 21834 H 2098.43 -5.56963 -3.26286 0
M  V30 21835 H 2099.2 -7.62535 -2.97459 0
M  V30 21836 N 2101.86 1.05436 -1.17136 0
M  V30 21837 C 2103.27 1.30549 -0.918108 0
M  V30 21838 C 2103.47 1.96985 0.424152 0
M  V30 21839 O 2102.53 2.24189 1.1617 0
M  V30 21840 C 2103.84 2.17768 -2.07358 0
M  V30 21841 C 2105.39 2.31158 -2.11033 0
M  V30 21842 C 2105.87 3.21737 -3.25959 0
M  V30 21843 N 2107.36 3.29322 -3.25731 0
M  V30 21844 C 2108.09 3.99526 -4.11299 0
M  V30 21845 N 2107.59 4.72178 -5.06971 0
M  V30 21846 N 2109.38 3.95665 -3.99256 0
M  V30 21847 H 2101.53 0.607118 -2.03538 0
M  V30 21848 H 2103.8 0.330298 -0.888599 0
M  V30 21849 H 2103.5 1.7624 -3.04356 0
M  V30 21850 H 2103.38 3.18394 -2.02251 0
M  V30 21851 H 2105.76 2.71929 -1.14623 0
M  V30 21852 H 2105.84 1.30171 -2.20203 0
M  V30 21853 H 2105.49 2.8168 -4.22633 0
M  V30 21854 H 2105.42 4.22724 -3.14025 0
M  V30 21855 H 2107.91 2.77555 -2.5646 0
M  V30 21856 H 2108.22 5.233 -5.68662 0
M  V30 21857 H 2106.57 4.71129 -5.10943 0
M  V30 21858 H 2109.76 3.3803 -3.2381 0
M  V30 21859 H 2109.93 4.50108 -4.66161 0
M  V30 21860 N 2103.34 0.971211 1.24118 0
M  V30 21861 C 2104.58 0.633768 1.91906 0
M  V30 21862 C 2104.91 -0.834157 1.76258 0
M  V30 21863 O 2104.18 -1.59579 1.13628 0
M  V30 21864 H 2102.76 0.231413 0.710251 0
M  V30 21865 H 2105.42 1.23304 1.50938 0
M  V30 21866 H 2104.51 0.877411 2.99513 0
M  V30 21867 N 2104.81 -1.39054 0.741747 0
M  V30 21868 C 2105.74 -2.33184 0.121433 0
M  V30 21869 C 2106.73 -1.54261 -0.716774 0
M  V30 21870 O 2107.91 -1.82627 -0.660379 0
M  V30 21871 C 2105.04 -3.38393 -0.78152 0
M  V30 21872 C 2103.99 -4.27974 -0.046955 0
M  V30 21873 C 2103.32 -5.23938 -1.06737 0
M  V30 21874 C 2104.62 -5.10272 1.11446 0
M  V30 21875 H 2106.31 -2.85308 0.907724 0
M  V30 21876 H 2103.86 -1.37179 0.437953 0
M  V30 21877 H 2105.81 -4.032 -1.22506 0
M  V30 21878 H 2104.54 -2.84724 -1.6 0
M  V30 21879 H 2103.2 -3.64656 0.377036 0
M  V30 21880 H 2102.84 -4.66562 -1.8796 0
M  V30 21881 H 2102.54 -5.84725 -0.580605 0
M  V30 21882 H 2104.07 -5.91622 -1.51048 0
M  V30 21883 H 2105.48 -5.68386 0.749042 0
M  V30 21884 H 2103.88 -5.80234 1.53131 0
M  V30 21885 H 2104.95 -4.44706 1.93299 0
M  V30 21886 N 2106.29 -0.489897 -1.49792 0
M  V30 21887 C 2107.57 0.121028 -1.95225 0
M  V30 21888 C 2107.95 1.55194 -1.43101 0
M  V30 21889 O 2107.3 2.19354 -0.639992 0
M  V30 21890 C 2107.51 0.045071 -3.48971 0
M  V30 21891 C 2108.86 0.224571 -4.24006 0
M  V30 21892 O 2109.88 0.120781 -3.55995 0
M  V30 21893 O 2108.74 0.436269 -5.44756 0
M  V30 21894 H 2105.83 0.101395 -0.820761 0
M  V30 21895 H 2108.38 -0.551643 -1.60484 0
M  V30 21896 H 2107.15 -0.953242 -3.79512 0
M  V30 21897 H 2106.77 0.758377 -3.903 0
M  V30 21898 N 2107.77 1.56011 -0.223262 0
M  V30 21899 C 2109.02 1.98642 0.408581 0
M  V30 21900 C 2109.35 1.11082 1.59294 0
M  V30 21901 O 2108.62 0.168881 1.93765 0
M  V30 21902 C 2108.91 3.5013 0.841473 0
M  V30 21903 C 2108.76 4.48462 -0.346639 0
M  V30 21904 C 2110.08 4.06065 1.69703 0
M  V30 21905 H 2107.2 0.722183 0.147039 0
M  V30 21906 H 2109.84 1.87289 -0.319839 0
M  V30 21907 H 2107.99 3.59936 1.46214 0
M  V30 21908 H 2109.66 4.50665 -0.98481 0
M  V30 21909 H 2107.91 4.22263 -0.993788 0
M  V30 21910 H 2108.58 5.52 -0.00078187 0
M  V30 21911 H 2111.05 3.99215 1.17332 0
M  V30 21912 H 2109.93 5.12376 1.96882 0
M  V30 21913 H 2110.19 3.53054 2.66093 0
M  V30 21914 N 2109.25 -0.0501116 1.5752 0
M  V30 21915 C 2110.47 -0.761197 1.92926 0
M  V30 21916 C 2110.9 -1.69211 0.821546 0
M  V30 21917 O 2110.26 -1.79908 -0.224247 0
M  V30 21918 C 2110.3 -1.51241 3.27351 0
M  V30 21919 O 2109.41 -2.62445 3.18114 0
M  V30 21920 H 2108.75 -0.206224 0.631164 0
M  V30 21921 H 2111.28 -0.0118709 2.04597 0
M  V30 21922 H 2111.29 -1.88696 3.61743 0
M  V30 21923 H 2109.96 -0.829535 4.07543 0
M  V30 21924 H 2108.54 -2.27688 2.95318 0
M  V30 21925 N 2110.73 -1.54276 -0.321972 0
M  V30 21926 C 2111.97 -1.72813 -1.0613 0
M  V30 21927 C 2112.31 -0.501222 -1.8762 0
M  V30 21928 O 2111.58 0.501806 -1.87915 0
M  V30 21929 C 2111.86 -3.00469 -1.9847 0
M  V30 21930 C 2111.72 -4.33415 -1.20299 0
M  V30 21931 C 2113.04 -3.23886 -2.97969 0
M  V30 21932 H 2110.15 -0.628793 -0.384432 0
M  V30 21933 H 2112.8 -1.86973 -0.337811 0
M  V30 21934 H 2110.95 -2.88528 -2.60161 0
M  V30 21935 H 2112.62 -4.57242 -0.610559 0
M  V30 21936 H 2110.86 -4.30847 -0.505293 0
M  V30 21937 H 2111.53 -5.18959 -1.8811 0
M  V30 21938 H 2114.01 -3.353 -2.46401 0
M  V30 21939 H 2112.88 -4.14562 -3.59763 0
M  V30 21940 H 2113.15 -2.4119 -3.70513 0
M  V30 21941 N 2112.2 0.584116 -1.46376 0
M  V30 21942 C 2113.45 1.33858 -1.5088 0
M  V30 21943 C 2113.77 1.94909 -0.164319 0
M  V30 21944 O 2114.97 2.7136 -0.0871554 0
M  V30 21945 C 2113.43 2.42594 -2.6585 0
M  V30 21946 C 2113.04 1.87853 -4.06713 0
M  V30 21947 C 2114.78 3.19391 -2.79624 0
M  V30 21948 C 2112.69 2.94209 -5.13026 0
M  V30 21949 H 2111.62 0.503207 -0.561515 0
M  V30 21950 H 2114.27 0.623507 -1.72582 0
M  V30 21951 H 2112.65 3.16894 -2.37475 0
M  V30 21952 H 2113.82 1.20105 -4.44872 0
M  V30 21953 H 2112.14 1.23726 -3.97594 0
M  V30 21954 H 2114.74 3.98763 -3.56219 0
M  V30 21955 H 2115.08 3.71891 -1.8709 0
M  V30 21956 H 2115.61 2.52197 -3.07638 0
M  V30 21957 H 2112.35 2.46598 -6.07347 0
M  V30 21958 H 2111.87 3.6045 -4.79412 0
M  V30 21959 H 2113.55 3.58184 -5.38807 0
M  V30 21960 N 2113.68 1.34058 0.828631 0
M  V30 21961 C 2115.09 1.2341 1.40095 0
M  V30 21962 C 2115.45 -0.142779 1.9568 0
M  V30 21963 O 2114.57 -1.04286 1.89614 0
M  V30 21964 C 2115.17 2.23441 2.54675 0
M  V30 21965 C 2113.72 2.16602 3.07832 0
M  V30 21966 C 2112.87 2.1036 1.80676 0
M  V30 21967 H 2115.82 1.45507 0.633514 0
M  V30 21968 H 2115.84 1.84809 3.32605 0
M  V30 21969 H 2115.36 3.23642 2.1419 0
M  V30 21970 H 2113.46 1.19738 3.52836 0
M  V30 21971 H 2113.57 3.07604 3.6731 0
M  V30 21972 H 2111.93 1.55992 2.01342 0
M  V30 21973 H 2112.72 3.12386 1.42373 0
M  V30 21974 N 2115.16 -1.04814 1.17694 0
M  V30 21975 C 2116.39 -1.8155 0.99233 0
M  V30 21976 C 2116.8 -1.83126 -0.459376 0
M  V30 21977 O 2116.16 -1.26127 -1.31903 0
M  V30 21978 C 2116.21 -3.27495 1.53067 0
M  V30 21979 O 2115.93 -3.26104 2.92554 0
M  V30 21980 C 2117.43 -4.20905 1.39119 0
M  V30 21981 H 2114.65 -0.571967 0.350849 0
M  V30 21982 H 2117.2 -1.32145 1.5607 0
M  V30 21983 H 2115.35 -3.74157 1.00424 0
M  V30 21984 H 2115.77 -4.17476 3.17512 0
M  V30 21985 H 2117.24 -5.21275 1.81595 0
M  V30 21986 H 2117.72 -4.37891 0.338812 0
M  V30 21987 H 2118.32 -3.801 1.90798 0
M  V30 21988 N 2116.64 -0.977779 -1.23601 0
M  V30 21989 C 2117.57 -0.473925 -2.24247 0
M  V30 21990 C 2118.58 0.422811 -1.57214 0
M  V30 21991 O 2119.77 0.227368 -1.77046 0
M  V30 21992 C 2116.87 0.334033 -3.3725 0
M  V30 21993 C 2116.05 -0.555203 -4.33862 0
M  V30 21994 C 2115.11 0.198457 -5.25826 0
M  V30 21995 O 2114.13 -0.411037 -5.67714 0
M  V30 21996 N 2115.33 1.48519 -5.61179 0
M  V30 21997 H 2118.1 -1.3393 -2.6811 0
M  V30 21998 H 2115.66 -0.850748 -1.37746 0
M  V30 21999 H 2117.65 0.846503 -3.95748 0
M  V30 22000 H 2116.22 1.1004 -2.92592 0
M  V30 22001 H 2115.44 -1.24853 -3.73905 0
M  V30 22002 H 2116.73 -1.16132 -4.95369 0
M  V30 22003 H 2116.13 2.00194 -5.29092 0
M  V30 22004 H 2114.68 1.94316 -6.22161 0
M  V30 22005 N 2118.12 1.38658 -0.749111 0
M  V30 22006 C 2119.37 1.99821 -0.302678 0
M  V30 22007 C 2119.69 1.59757 1.11816 0
M  V30 22008 O 2118.96 0.852324 1.76387 0
M  V30 22009 H 2117.54 0.739016 -0.108921 0
M  V30 22010 H 2120.2 1.69492 -0.962209 0
M  V30 22011 H 2119.29 3.09991 -0.362255 0
M  V30 22012 N 2119.6 0.497834 1.49531 0
M  V30 22013 C 2120.87 -0.110673 1.95287 0
M  V30 22014 C 2121.25 -1.54433 1.43923 0
M  V30 22015 O 2120.6 -2.19012 0.651616 0
M  V30 22016 C 2120.81 -0.0265636 3.4899 0
M  V30 22017 C 2122.16 -0.202082 4.24119 0
M  V30 22018 O 2123.18 -0.1019 3.56054 0
M  V30 22019 O 2122.04 -0.407373 5.4498 0
M  V30 22020 H 2119.14 -0.0970406 0.821287 0
M  V30 22021 H 2121.68 0.560146 1.60189 0
M  V30 22022 H 2120.45 0.973355 3.79001 0
M  V30 22023 H 2120.08 -0.737668 3.90697 0
M  V30 22024 N 2121.07 -1.5589 0.231532 0
M  V30 22025 C 2122.32 -1.98855 -0.398041 0
M  V30 22026 C 2122.65 -1.11925 -1.58702 0
M  V30 22027 O 2121.93 -0.179155 -1.93673 0
M  V30 22028 C 2122.21 -3.50572 -0.822893 0
M  V30 22029 C 2122.06 -4.48272 0.370417 0
M  V30 22030 C 2123.38 -4.0696 -1.67547 0
M  V30 22031 H 2120.5 -0.722953 -0.143207 0
M  V30 22032 H 2123.14 -1.87116 0.329767 0
M  V30 22033 H 2121.29 -3.60706 -1.44303 0
M  V30 22034 H 2122.97 -4.50137 1.0087 0
M  V30 22035 H 2121.21 -4.2173 1.01617 0
M  V30 22036 H 2121.88 -5.51992 0.0300558 0
M  V30 22037 H 2124.36 -3.99831 -1.15214 0
M  V30 22038 H 2123.23 -5.13412 -1.94162 0
M  V30 22039 H 2123.49 -3.5446 -2.64217 0
M  V30 22040 N 2122.55 0.0417572 -1.57545 0
M  V30 22041 C 2123.8 0.736189 -1.88966 0
M  V30 22042 C 2124.13 1.75678 -0.827697 0
M  V30 22043 O 2123.41 1.93851 0.158734 0
M  V30 22044 C 2123.69 1.4172 -3.3104 0
M  V30 22045 C 2123.54 0.410987 -4.47918 0
M  V30 22046 C 2124.86 2.3545 -3.71822 0
M  V30 22047 H 2121.98 0.266166 -0.687259 0
M  V30 22048 H 2124.62 -0.000952352 -1.9 0
M  V30 22049 H 2122.77 2.04552 -3.30289 0
M  V30 22050 H 2124.44 -0.214433 -4.60801 0
M  V30 22051 H 2122.69 -0.270954 -4.32953 0
M  V30 22052 H 2123.36 0.925718 -5.44182 0
M  V30 22053 H 2125.83 1.82673 -3.73858 0
M  V30 22054 H 2124.71 2.80087 -4.72062 0
M  V30 22055 H 2124.97 3.21575 -3.03384 0
M  V30 22056 N 2124.03 1.54445 0.313786 0
M  V30 22057 C 2125.28 1.73373 1.05212 0
M  V30 22058 C 2125.61 0.511165 1.87352 0
M  V30 22059 O 2124.88 -0.491833 1.88179 0
M  V30 22060 C 2125.17 3.01517 1.96874 0
M  V30 22061 C 2125.02 4.34046 1.17999 0
M  V30 22062 C 2126.34 3.25462 2.96248 0
M  V30 22063 H 2123.46 0.630823 0.381092 0
M  V30 22064 H 2126.1 1.87149 0.327891 0
M  V30 22065 H 2124.25 2.89903 2.58628 0
M  V30 22066 H 2125.92 4.57559 0.586302 0
M  V30 22067 H 2124.16 4.31109 0.482437 0
M  V30 22068 H 2124.84 5.19949 1.85355 0
M  V30 22069 H 2127.31 3.36602 2.44619 0
M  V30 22070 H 2126.19 4.16464 3.57559 0
M  V30 22071 H 2126.45 2.43151 3.69229 0
M  V30 22072 N 2125.51 -0.576345 1.46683 0
M  V30 22073 C 2126.75 -1.3363 1.52548 0
M  V30 22074 C 2127.09 -1.93371 0.179205 0
M  V30 22075 O 2126.36 -1.76827 -0.810088 0
M  V30 22076 C 2126.64 -2.46086 2.62895 0
M  V30 22077 C 2126.5 -1.91338 4.07075 0
M  V30 22078 C 2127.82 -3.48104 2.6928 0
M  V30 22079 H 2124.94 -0.484517 0.555349 0
M  V30 22080 H 2127.58 -0.646838 1.78651 0
M  V30 22081 H 2125.73 -3.04898 2.40769 0
M  V30 22082 H 2127.4 -1.36934 4.40507 0
M  V30 22083 H 2125.64 -1.22127 4.16254 0
M  V30 22084 H 2126.31 -2.72545 4.80024 0
M  V30 22085 H 2128.79 -2.99183 2.89187 0
M  V30 22086 H 2127.67 -4.2424 3.48298 0
M  V30 22087 H 2127.93 -4.05739 1.7558 0
M  V30 22088 N 2126.99 -1.34495 -0.82151 0
M  V30 22089 C 2127.95 -1.2608 -1.91407 0
M  V30 22090 C 2128.95 -0.175671 -1.59838 0
M  V30 22091 O 2130.14 -0.428389 -1.6885 0
M  V30 22092 C 2127.27 -0.9469 -3.27485 0
M  V30 22093 H 2128.46 -2.23212 -2.00291 0
M  V30 22094 H 2126.02 -1.18804 -1.01565 0
M  V30 22095 H 2126.75 0.0211878 -3.24293 0
M  V30 22096 H 2126.54 -1.73181 -3.51782 0
M  V30 22097 H 2128.03 -0.913228 -4.07492 0
M  V30 22098 N 2128.46 1.04188 -1.18248 0
M  V30 22099 C 2129.69 1.81021 -1.00194 0
M  V30 22100 C 2130.11 1.83367 0.449658 0
M  V30 22101 O 2129.46 1.26824 1.31232 0
M  V30 22102 C 2129.52 3.26678 -1.54802 0
M  V30 22103 O 2129.24 3.24548 -2.94279 0
M  V30 22104 C 2130.74 4.20161 -1.41349 0
M  V30 22105 H 2127.96 0.570098 -0.353877 0
M  V30 22106 H 2130.5 1.31316 -1.56769 0
M  V30 22107 H 2128.66 3.7362 -1.02407 0
M  V30 22108 H 2129.07 4.15787 -3.19721 0
M  V30 22109 H 2130.54 5.20304 -1.84357 0
M  V30 22110 H 2131.02 4.37705 -0.362029 0
M  V30 22111 H 2131.63 3.79083 -1.92811 0
M  V30 22112 N 2129.94 0.98432 1.23081 0
M  V30 22113 C 2131.22 0.571642 1.8706 0
M  V30 22114 C 2131.6 -0.951185 1.88456 0
M  V30 22115 O 2130.95 -1.82954 1.36894 0
M  V30 22116 C 2131.16 1.18221 3.28367 0
M  V30 22117 C 2132.51 1.27739 4.04929 0
M  V30 22118 O 2133.53 1.13596 3.37601 0
M  V30 22119 O 2132.39 1.50282 5.25431 0
M  V30 22120 H 2129.48 0.193027 0.804158 0
M  V30 22121 H 2132.03 1.07965 1.30926 0
M  V30 22122 H 2130.8 2.22421 3.21939 0
M  V30 22123 H 2130.42 0.65926 3.92096 0
M  V30 22124 N 2131.42 -1.38259 0.756453 0
M  V30 22125 C 2132.38 -2.28779 0.138891 0
M  V30 22126 C 2133.38 -1.47321 -0.644449 0
M  V30 22127 O 2134.57 -1.67732 -0.470292 0
M  V30 22128 C 2131.71 -3.311 -0.811535 0
M  V30 22129 H 2132.9 -2.84898 0.936651 0
M  V30 22130 H 2130.45 -1.47267 0.52365 0
M  V30 22131 H 2131.19 -2.80076 -1.63487 0
M  V30 22132 H 2130.97 -3.91288 -0.252199 0
M  V30 22133 H 2132.46 -3.9878 -1.23953 0
M  V30 22134 N 2132.9 -0.505757 -1.49264 0
M  V30 22135 C 2133.83 0.259368 -2.32055 0
M  V30 22136 C 2134.81 0.95808 -1.40552 0
M  V30 22137 O 2135.99 0.948562 -1.69458 0
M  V30 22138 C 2133.12 1.32138 -3.2118 0
M  V30 22139 C 2132.08 0.742267 -4.21514 0
M  V30 22140 C 2131.4 1.90515 -4.99608 0
M  V30 22141 C 2132.7 -0.269866 -5.21602 0
M  V30 22142 H 2134.4 -0.431697 -2.96271 0
M  V30 22143 H 2131.94 -0.209055 -1.42474 0
M  V30 22144 H 2133.9 1.86441 -3.77912 0
M  V30 22145 H 2132.62 2.0417 -2.54916 0
M  V30 22146 H 2131.28 0.220956 -3.65934 0
M  V30 22147 H 2130.93 2.61327 -4.29788 0
M  V30 22148 H 2130.63 1.52371 -5.67501 0
M  V30 22149 H 2132.15 2.45242 -5.59186 0
M  V30 22150 H 2133.57 0.18519 -5.73001 0
M  V30 22151 H 2131.96 -0.567397 -5.97412 0
M  V30 22152 H 2133.03 -1.18411 -4.7022 0
M  V30 22153 N 2134.38 1.55765 -0.239796 0
M  V30 22154 C 2135.31 2.17095 0.703207 0
M  V30 22155 C 2136.29 1.12083 1.17797 0
M  V30 22156 O 2137.47 1.40434 1.2574 0
M  V30 22157 C 2134.6 2.76592 1.95486 0
M  V30 22158 C 2133.64 3.94595 1.61855 0
M  V30 22159 S 2134.48 5.30537 0.727373 0
M  V30 22160 C 2135.63 5.93483 1.98818 0
M  V30 22161 H 2135.87 2.96742 0.181988 0
M  V30 22162 H 2133.4 1.54381 -0.0243142 0
M  V30 22163 H 2135.36 3.11508 2.67345 0
M  V30 22164 H 2134.02 1.96904 2.4472 0
M  V30 22165 H 2133.21 4.34791 2.54898 0
M  V30 22166 H 2132.81 3.6092 0.98045 0
M  V30 22167 H 2135.11 6.10567 2.93622 0
M  V30 22168 H 2136.05 6.89088 1.62983 0
M  V30 22169 H 2136.46 5.22486 2.13703 0
M  V30 22170 N 2135.85 -0.0334016 1.57565 0
M  V30 22171 C 2137.08 -0.736973 1.9333 0
M  V30 22172 C 2137.5 -1.69124 0.83919 0
M  V30 22173 O 2136.85 -1.81563 -0.184737 0
M  V30 22174 C 2136.91 -1.49777 3.29012 0
M  V30 22175 O 2136.63 -0.581806 4.3422 0
M  V30 22176 C 2138.13 -2.29889 3.79033 0
M  V30 22177 H 2135.35 -0.207374 0.638151 0
M  V30 22178 H 2137.89 0.0077802 2.04499 0
M  V30 22179 H 2136.05 -2.19444 3.19254 0
M  V30 22180 H 2136.46 -1.11488 5.12514 0
M  V30 22181 H 2137.93 -2.78671 4.76494 0
M  V30 22182 H 2138.41 -3.11119 3.10003 0
M  V30 22183 H 2139.02 -1.65304 3.9186 0
M  V30 22184 N 2137.33 -1.54609 -0.305591 0
M  V30 22185 C 2138.58 -1.73328 -1.03931 0
M  V30 22186 C 2138.9 -0.519482 -1.87953 0
M  V30 22187 O 2138.17 0.466312 -1.90269 0
M  V30 22188 H 2136.75 -0.639113 -0.386708 0
M  V30 22189 H 2139.41 -1.91952 -0.337684 0
M  V30 22190 H 2138.51 -2.62058 -1.69505 0
M  V30 22191 N 2138.81 0.568558 -1.46987 0
M  V30 22192 C 2140.04 1.34995 -1.56397 0
M  V30 22193 C 2140.45 1.88042 -0.209042 0
M  V30 22194 O 2139.79 1.65068 0.806115 0
M  V30 22195 C 2139.85 2.56403 -2.51988 0
M  V30 22196 C 2139.52 2.24724 -3.9793 0
M  V30 22197 C 2140.51 1.82701 -4.86741 0
M  V30 22198 C 2138.2 2.36432 -4.43176 0
M  V30 22199 C 2140.19 1.52801 -6.18814 0
M  V30 22200 C 2137.88 2.06144 -5.75281 0
M  V30 22201 C 2138.88 1.64395 -6.6292 0
M  V30 22202 O 2138.57 1.34486 -7.92571 0
M  V30 22203 H 2138.3 0.418239 -0.531086 0
M  V30 22204 H 2140.85 0.696749 -1.93222 0
M  V30 22205 H 2139.08 3.24576 -2.10208 0
M  V30 22206 H 2140.77 3.18477 -2.51649 0
M  V30 22207 H 2141.54 1.73158 -4.53036 0
M  V30 22208 H 2137.42 2.67888 -3.75176 0
M  V30 22209 H 2140.96 1.20141 -6.87177 0
M  V30 22210 H 2136.86 2.15316 -6.0853 0
M  V30 22211 H 2137.63 1.48213 -8.04969 0
M  V30 22212 N 2140.29 1.34929 0.814366 0
M  V30 22213 C 2141.52 1.30863 1.60257 0
M  V30 22214 C 2141.93 -0.11553 1.88446 0
M  V30 22215 O 2141.29 -1.06518 1.4819 0
M  V30 22216 C 2141.34 2.10565 2.93845 0
M  V30 22217 O 2141.06 3.47427 2.66882 0
M  V30 22218 C 2142.56 2.13994 3.88228 0
M  V30 22219 H 2139.78 0.449849 0.497872 0
M  V30 22220 H 2142.33 1.77669 1.01262 0
M  V30 22221 H 2140.48 1.67378 3.49376 0
M  V30 22222 H 2140.89 3.88729 3.52122 0
M  V30 22223 H 2142.37 2.74168 4.79099 0
M  V30 22224 H 2142.85 1.13661 4.24238 0
M  V30 22225 H 2143.45 2.57308 3.38634 0
M  V30 22226 N 2141.77 -1.0356 1.18799 0
M  V30 22227 C 2143.01 -1.76497 0.984535 0
M  V30 22228 C 2143.34 -1.88833 -0.486544 0
M  V30 22229 O 2142.61 -1.41702 -1.35268 0
M  V30 22230 H 2141.19 -0.653818 0.36129 0
M  V30 22231 H 2143.85 -1.24956 1.49573 0
M  V30 22232 H 2142.94 -2.77573 1.42687 0
M  V30 22233 N 2143.25 -0.990834 -1.22557 0
M  V30 22234 C 2144.52 -0.581554 -1.86755 0
M  V30 22235 C 2144.9 0.941178 -1.88958 0
M  V30 22236 O 2144.25 1.82226 -1.37862 0
M  V30 22237 C 2144.46 -1.19961 -3.27735 0
M  V30 22238 C 2145.81 -1.29885 -4.04246 0
M  V30 22239 O 2146.83 -1.15385 -3.36994 0
M  V30 22240 O 2145.69 -1.53066 -5.24626 0
M  V30 22241 H 2142.79 -0.197289 -0.803123 0
M  V30 22242 H 2145.33 -1.08658 -1.30351 0
M  V30 22243 H 2144.1 -2.24125 -3.20755 0
M  V30 22244 H 2143.73 -0.680045 -3.91741 0
M  V30 22245 N 2144.72 1.37856 -0.763775 0
M  V30 22246 C 2145.97 1.99883 -0.324496 0
M  V30 22247 C 2146.3 1.60631 1.09672 0
M  V30 22248 O 2145.55 0.840171 1.76747 0
M  V30 22249 C 2145.85 3.55083 -0.406337 0
M  V30 22250 C 2145.52 4.14078 -1.78466 0
M  V30 22251 C 2144.18 4.29904 -2.16185 0
M  V30 22252 C 2146.53 4.46517 -2.68834 0
M  V30 22253 C 2143.86 4.7547 -3.43723 0
M  V30 22254 C 2146.21 4.93504 -3.95774 0
M  V30 22255 C 2144.88 5.07536 -4.33547 0
M  V30 22256 H 2144.15 0.731424 -0.118741 0
M  V30 22257 H 2146.79 1.64747 -0.976245 0
M  V30 22258 H 2145.1 3.90417 0.328964 0
M  V30 22259 H 2146.8 4.00971 -0.0478734 0
M  V30 22260 H 2143.39 4.02182 -1.48149 0
M  V30 22261 H 2147.57 4.33883 -2.40955 0
M  V30 22262 H 2142.83 4.8452 -3.72895 0
M  V30 22263 H 2147 5.17572 -4.65931 0
M  V30 22264 H 2144.63 5.42603 -5.32434 0
M  V30 22265 N 2146.2 0.513665 1.48994 0
M  V30 22266 C 2147.48 -0.0899538 1.95393 0
M  V30 22267 C 2147.86 -1.52898 1.45552 0
M  V30 22268 O 2147.21 -2.18308 0.674808 0
M  V30 22269 C 2147.42 0.010453 3.48998 0
M  V30 22270 C 2148.76 -0.157087 4.24309 0
M  V30 22271 O 2149.79 -0.0641299 3.56142 0
M  V30 22272 O 2148.65 -0.349548 5.45381 0
M  V30 22273 H 2145.74 -0.0883243 0.82227 0
M  V30 22274 H 2148.29 0.577105 1.59586 0
M  V30 22275 H 2147.06 1.0135 3.77947 0
M  V30 22276 H 2146.68 -0.696188 3.91458 0
M  V30 22277 N 2147.68 -1.55636 0.248053 0
M  V30 22278 C 2148.9 -2.03825 -0.383439 0
M  V30 22279 C 2149.33 -1.12611 -1.50666 0
M  V30 22280 O 2148.69 -0.119296 -1.80907 0
M  V30 22281 C 2148.74 -3.5001 -0.86748 0
M  V30 22282 O 2147.84 -3.61925 -1.97696 0
M  V30 22283 H 2147.18 -0.65874 -0.0834089 0
M  V30 22284 H 2149.71 -2.01144 0.374447 0
M  V30 22285 H 2149.72 -3.90853 -1.17039 0
M  V30 22286 H 2148.4 -4.15875 -0.0455341 0
M  V30 22287 H 2146.97 -3.3298 -1.67866 0
M  V30 22288 N 2149.16 0.0250451 -1.5758 0
M  V30 22289 C 2150.4 0.716105 -1.89736 0
M  V30 22290 C 2150.74 1.7479 -0.846284 0
M  V30 22291 O 2150.01 1.94009 0.138165 0
M  V30 22292 C 2150.29 1.38201 -3.32524 0
M  V30 22293 C 2150.15 0.363457 -4.48329 0
M  V30 22294 C 2151.47 2.31493 -3.74298 0
M  V30 22295 H 2148.59 0.258862 -0.690043 0
M  V30 22296 H 2151.23 -0.0211043 -1.89988 0
M  V30 22297 H 2149.38 2.01037 -3.3244 0
M  V30 22298 H 2151.05 -0.263295 -4.60548 0
M  V30 22299 H 2149.29 -0.316859 -4.32641 0
M  V30 22300 H 2149.96 0.867948 -5.45134 0
M  V30 22301 H 2152.44 1.78697 -3.75774 0
M  V30 22302 H 2151.32 2.75065 -4.75006 0
M  V30 22303 H 2151.58 3.1834 -3.06777 0
M  V30 22304 N 2150.64 1.54769 0.297388 0
M  V30 22305 C 2151.88 1.7343 1.0298 0
M  V30 22306 C 2152.2 0.529189 1.88305 0
M  V30 22307 O 2153.4 0.597687 2.64839 0
M  V30 22308 C 2151.86 3.06854 1.88065 0
M  V30 22309 C 2151.47 4.34856 1.07724 0
M  V30 22310 C 2153.21 3.34873 2.60883 0
M  V30 22311 C 2151.12 5.59329 1.92107 0
M  V30 22312 H 2150.05 0.646388 0.388199 0
M  V30 22313 H 2152.7 1.81248 0.286615 0
M  V30 22314 H 2151.08 2.93011 2.66385 0
M  V30 22315 H 2152.26 4.59544 0.339927 0
M  V30 22316 H 2150.57 4.13799 0.464715 0
M  V30 22317 H 2153.17 4.25071 3.24374 0
M  V30 22318 H 2153.51 2.5391 3.29902 0
M  V30 22319 H 2154.04 3.49704 1.8961 0
M  V30 22320 H 2150.78 6.4297 1.27551 0
M  V30 22321 H 2150.3 5.3882 2.63501 0
M  V30 22322 H 2151.98 5.96721 2.50067 0
M  V30 22323 N 2152.11 -0.560755 1.47286 0
M  V30 22324 C 2153.39 -1.32148 1.4421 0
M  V30 22325 C 2153.77 -2.10654 0.137154 0
M  V30 22326 O 2153.12 -2.10818 -0.88136 0
M  V30 22327 C 2153.33 -2.22899 2.68546 0
M  V30 22328 C 2154.68 -2.84031 3.15613 0
M  V30 22329 O 2155.7 -2.33202 2.69249 0
M  V30 22330 O 2154.56 -3.76408 3.96206 0
M  V30 22331 H 2151.65 -0.594853 0.574525 0
M  V30 22332 H 2154.2 -0.579952 1.59482 0
M  V30 22333 H 2152.97 -1.64465 3.55059 0
M  V30 22334 H 2152.59 -3.04353 2.55842 0
M  V30 22335 N 2153.59 -1.35359 -0.807199 0
M  V30 22336 C 2154.83 -1.29962 -1.57763 0
M  V30 22337 C 2155.2 0.124572 -1.91595 0
M  V30 22338 O 2156.4 0.302903 -2.67088 0
M  V30 22339 C 2154.67 -2.18018 -2.83202 0
M  V30 22340 S 2156.23 -2.3013 -3.73611 0
M  V30 22341 H 2153.04 -0.461874 -0.540549 0
M  V30 22342 H 2155.65 -1.70743 -0.952207 0
M  V30 22343 H 2154.35 -3.20473 -2.56369 0
M  V30 22344 H 2153.88 -1.78191 -3.5073 0
M  V30 22345 H 2155.9 -1.48567 -4.73437 0
M  V30 22346 N 2155.07 1.02928 -1.19346 0
M  V30 22347 C 2156.02 2.1331 -0.927441 0
M  V30 22348 C 2157.01 1.68998 0.116575 0
M  V30 22349 O 2158.22 1.7997 -0.0326311 0
M  V30 22350 H 2154.59 0.696916 -0.282511 0
M  V30 22351 H 2156.56 2.32939 -1.865 0
M  V30 22352 C 2155.31 3.4434 -0.482194 0
M  V30 22353 H 2154.64 3.78854 -1.27709 0
M  V30 22354 H 2156.08 4.22673 -0.335159 0
M  V30 22355 C 2154.53 3.27174 0.803669 0
M  V30 22356 O 2155.06 3.55772 1.86519 0
M  V30 22357 N 2153.27 2.80466 0.760745 0
M  V30 22358 H 2152.82 2.57393 -0.103346 0
M  V30 22359 H 2152.78 2.69361 1.62149 0
M  V30 22360 N 2156.55 0.997319 1.2203 0
M  V30 22361 C 2157.79 0.676667 1.91178 0
M  V30 22362 C 2158.13 -0.789768 1.77416 0
M  V30 22363 O 2157.4 -1.57163 1.14586 0
M  V30 22364 C 2157.68 1.08886 3.43243 0
M  V30 22365 C 2157.54 2.61418 3.66034 0
M  V30 22366 C 2158.86 0.645428 4.35342 0
M  V30 22367 H 2155.98 0.247298 0.694271 0
M  V30 22368 H 2158.62 1.24163 1.43818 0
M  V30 22369 H 2156.77 0.608155 3.8371 0
M  V30 22370 H 2158.44 3.17192 3.34943 0
M  V30 22371 H 2156.68 3.03284 3.10163 0
M  V30 22372 H 2157.35 2.8531 4.72549 0
M  V30 22373 H 2159.83 1.05839 4.02414 0
M  V30 22374 H 2158.71 0.962088 5.40403 0
M  V30 22375 H 2158.97 -0.453741 4.39765 0
M  V30 22376 N 2158.03 -1.37449 0.771075 0
M  V30 22377 C 2158.99 -2.28619 0.163149 0
M  V30 22378 C 2159.99 -1.47996 -0.628787 0
M  V30 22379 O 2161.18 -1.68221 -0.452475 0
M  V30 22380 C 2158.31 -3.31942 -0.776372 0
M  V30 22381 H 2159.5 -2.83888 0.966816 0
M  V30 22382 H 2157.06 -1.46703 0.53924 0
M  V30 22383 H 2157.79 -2.81794 -1.60507 0
M  V30 22384 H 2157.58 -3.91534 -0.210683 0
M  V30 22385 H 2159.07 -4.00072 -1.19717 0
M  V30 22386 N 2159.5 -0.52156 -1.4872 0
M  V30 22387 C 2160.75 0.0156187 -2.02794 0
M  V30 22388 C 2161.08 1.34729 -1.39863 0
M  V30 22389 O 2160.36 1.86812 -0.541426 0
M  V30 22390 C 2160.64 0.146526 -3.59802 0
M  V30 22391 C 2160.49 -1.20972 -4.33227 0
M  V30 22392 C 2161.81 0.87737 -4.31266 0
M  V30 22393 H 2158.93 0.00420207 -0.736988 0
M  V30 22394 H 2161.57 -0.676958 -1.77531 0
M  V30 22395 H 2159.72 0.736393 -3.81457 0
M  V30 22396 H 2161.4 -1.84005 -4.23013 0
M  V30 22397 H 2159.64 -1.79378 -3.94976 0
M  V30 22398 H 2160.31 -1.07121 -5.41506 0
M  V30 22399 H 2162.79 0.376892 -4.1439 0
M  V30 22400 H 2161.66 0.937846 -5.40829 0
M  V30 22401 H 2161.92 1.92578 -3.97953 0
M  V30 22402 N 2160.98 1.55502 -0.256304 0
M  V30 22403 C 2162.21 2.04025 0.372624 0
M  V30 22404 C 2162.63 1.13408 1.50067 0
M  V30 22405 O 2161.99 0.128888 1.80841 0
M  V30 22406 C 2162.04 3.50465 0.848906 0
M  V30 22407 O 2161.14 3.62969 1.95774 0
M  V30 22408 H 2160.48 0.659174 0.0799143 0
M  V30 22409 H 2163.01 2.00943 -0.385109 0
M  V30 22410 H 2163.02 3.91468 1.14965 0
M  V30 22411 H 2161.7 4.15893 0.0234786 0
M  V30 22412 H 2160.28 3.33865 1.66098 0
M  V30 22413 N 2162.46 -0.0166879 1.57591 0
M  V30 22414 C 2163.39 -1.04126 2.04182 0
M  V30 22415 C 2164.41 -1.31719 0.956768 0
M  V30 22416 O 2165.59 -1.28988 1.23387 0
M  V30 22417 C 2162.69 -2.38001 2.41265 0
M  V30 22418 C 2161.87 -2.29588 3.72301 0
M  V30 22419 C 2160.93 -3.46013 3.96436 0
M  V30 22420 O 2159.95 -3.2495 4.67328 0
M  V30 22421 N 2161.15 -4.68304 3.43033 0
M  V30 22422 H 2163.92 -0.644054 2.92698 0
M  V30 22423 H 2161.48 -0.204401 1.60605 0
M  V30 22424 H 2163.47 -3.14631 2.54538 0
M  V30 22425 H 2162.04 -2.69522 1.58355 0
M  V30 22426 H 2161.26 -1.37977 3.69264 0
M  V30 22427 H 2162.55 -2.21122 4.58238 0
M  V30 22428 H 2161.95 -4.88316 2.85593 0
M  V30 22429 H 2160.51 -5.42256 3.61665 0
M  V30 22430 N 2163.94 -1.54924 -0.289176 0
M  V30 22431 C 2165.19 -1.73974 -1.02059 0
M  V30 22432 C 2165.5 -0.539167 -1.88022 0
M  V30 22433 O 2166.71 -0.611723 -2.64519 0
M  V30 22434 C 2165.16 -3.07847 -1.86435 0
M  V30 22435 C 2164.77 -4.35421 -1.05417 0
M  V30 22436 C 2166.51 -3.36252 -2.59104 0
M  V30 22437 C 2164.42 -5.6034 -1.89138 0
M  V30 22438 H 2163.35 -0.648438 -0.384766 0
M  V30 22439 H 2166 -1.81397 -0.276999 0
M  V30 22440 H 2164.38 -2.94419 -2.64827 0
M  V30 22441 H 2165.56 -4.59718 -0.315551 0
M  V30 22442 H 2163.87 -4.14039 -0.442763 0
M  V30 22443 H 2166.47 -4.26785 -3.22115 0
M  V30 22444 H 2166.81 -2.55656 -3.28551 0
M  V30 22445 H 2167.35 -3.50705 -1.87753 0
M  V30 22446 H 2164.09 -6.43638 -1.2414 0
M  V30 22447 H 2163.61 -5.4021 -2.6064 0
M  V30 22448 H 2165.28 -5.98038 -2.46899 0
M  V30 22449 N 2165.42 0.552936 -1.47582 0
M  V30 22450 C 2166.66 1.31186 -1.54655 0
M  V30 22451 C 2167 1.93062 -0.209946 0
M  V30 22452 O 2166.27 1.78093 0.781854 0
M  V30 22453 C 2166.55 2.41873 -2.66776 0
M  V30 22454 C 2166.41 1.84837 -4.10067 0
M  V30 22455 C 2167.73 3.43776 -2.74784 0
M  V30 22456 H 2164.84 0.47562 -0.562987 0
M  V30 22457 H 2167.49 0.618335 -1.79657 0
M  V30 22458 H 2165.64 3.01029 -2.45589 0
M  V30 22459 H 2167.31 1.29909 -4.4263 0
M  V30 22460 H 2165.55 1.15489 -4.18144 0
M  V30 22461 H 2166.22 2.64874 -4.84299 0
M  V30 22462 H 2168.7 2.94544 -2.9391 0
M  V30 22463 H 2167.57 4.18646 -3.55003 0
M  V30 22464 H 2167.84 4.02894 -1.82013 0
M  V30 22465 N 2166.89 1.35785 0.800009 0
M  V30 22466 C 2168.17 1.19984 1.54477 0
M  V30 22467 C 2168.55 -0.218358 2.09968 0
M  V30 22468 O 2167.9 -1.2227 1.93035 0
M  V30 22469 C 2168.11 2.27325 2.6481 0
M  V30 22470 C 2169.46 2.63463 3.32975 0
M  V30 22471 O 2170.48 2.26288 2.75086 0
M  V30 22472 O 2169.34 3.27408 4.37569 0
M  V30 22473 H 2166.43 0.466534 0.682844 0
M  V30 22474 H 2168.98 1.47486 0.839403 0
M  V30 22475 H 2167.75 3.22418 2.21725 0
M  V30 22476 H 2167.38 2.01129 3.42976 0
M  V30 22477 N 2168.37 -1.02294 1.19891 0
M  V30 22478 C 2169.62 -1.7579 1.00519 0
M  V30 22479 C 2169.95 -1.88899 -0.463403 0
M  V30 22480 O 2169.2 -1.4069 -1.36032 0
M  V30 22481 C 2169.5 -3.18252 1.62636 0
M  V30 22482 C 2169.17 -3.25136 3.12406 0
M  V30 22483 C 2167.83 -3.26722 3.53279 0
M  V30 22484 C 2170.18 -3.23806 4.0841 0
M  V30 22485 C 2167.51 -3.24642 4.88697 0
M  V30 22486 C 2169.86 -3.23267 5.43766 0
M  V30 22487 C 2168.53 -3.23154 5.84061 0
M  V30 22488 H 2167.8 -0.643263 0.367823 0
M  V30 22489 H 2170.44 -1.20021 1.49222 0
M  V30 22490 H 2168.75 -3.77138 1.06178 0
M  V30 22491 H 2170.44 -3.738 1.4517 0
M  V30 22492 H 2167.03 -3.24633 2.79841 0
M  V30 22493 H 2171.22 -3.21757 3.77871 0
M  V30 22494 H 2166.47 -3.22881 5.19189 0
M  V30 22495 H 2170.65 -3.2119 6.17908 0
M  V30 22496 H 2168.28 -3.21296 6.88965 0
M  V30 22497 N 2169.85 -1.00378 -1.21499 0
M  V30 22498 C 2171.08 -0.704325 -1.95074 0
M  V30 22499 C 2171.5 0.726447 -1.73506 0
M  V30 22500 O 2170.86 1.49809 -1.02113 0
M  V30 22501 C 2170.91 -1.02938 -3.45595 0
M  V30 22502 O 2170.01 -0.133961 -4.12182 0
M  V30 22503 H 2169.35 -0.262537 -0.609894 0
M  V30 22504 H 2171.88 -1.34369 -1.54292 0
M  V30 22505 H 2171.89 -0.975727 -3.96161 0
M  V30 22506 H 2170.57 -2.0719 -3.60618 0
M  V30 22507 H 2169.14 -0.244034 -3.72101 0
M  V30 22508 N 2171.33 1.37038 -0.778354 0
M  V30 22509 C 2172.26 2.3278 -0.183215 0
M  V30 22510 C 2173.24 1.56107 0.675623 0
M  V30 22511 O 2174.42 1.84314 0.611726 0
M  V30 22512 C 2171.55 3.40346 0.691526 0
M  V30 22513 C 2170.51 4.27948 -0.0665313 0
M  V30 22514 C 2169.83 5.26584 0.928085 0
M  V30 22515 C 2171.13 5.07137 -1.24936 0
M  V30 22516 H 2172.83 2.82801 -0.983049 0
M  V30 22517 H 2170.37 1.35969 -0.474169 0
M  V30 22518 H 2172.33 4.06306 1.11773 0
M  V30 22519 H 2171.05 2.88866 1.52395 0
M  V30 22520 H 2169.71 3.63528 -0.473586 0
M  V30 22521 H 2169.36 4.71381 1.75524 0
M  V30 22522 H 2169.06 5.86058 0.425371 0
M  V30 22523 H 2170.58 5.95419 1.35309 0
M  V30 22524 H 2172 5.662 -0.899476 0
M  V30 22525 H 2170.39 5.7597 -1.68461 0
M  V30 22526 H 2171.46 4.39425 -2.05021 0
M  V30 22527 N 2172.81 0.529439 1.48441 0
M  V30 22528 C 2174.08 -0.0692247 1.95477 0
M  V30 22529 C 2174.46 -1.51345 1.47166 0
M  V30 22530 O 2173.81 -2.1758 0.697925 0
M  V30 22531 C 2174.02 0.0474683 3.48968 0
M  V30 22532 C 2175.37 -0.112074 4.24452 0
M  V30 22533 O 2176.39 -0.0263527 3.5619 0
M  V30 22534 O 2175.25 -0.291683 5.45721 0
M  V30 22535 H 2172.35 -0.079598 0.82316 0
M  V30 22536 H 2174.89 0.593999 1.58965 0
M  V30 22537 H 2173.67 1.05353 3.76851 0
M  V30 22538 H 2173.29 -0.65463 3.92174 0
M  V30 22539 N 2174.29 -1.55364 0.264547 0
M  V30 22540 C 2175.7 -1.85212 -0.235254 0
M  V30 22541 C 2176.05 -1.18652 -1.56256 0
M  V30 22542 O 2175.17 -0.471096 -2.1121 0
M  V30 22543 C 2175.77 -3.36014 -0.43363 0
M  V30 22544 C 2174.33 -3.66024 -0.877673 0
M  V30 22545 C 2173.47 -2.77278 0.0350996 0
M  V30 22546 H 2176.42 -1.51055 0.486633 0
M  V30 22547 H 2176.45 -3.58548 -1.27373 0
M  V30 22548 H 2175.96 -3.84429 0.532565 0
M  V30 22549 H 2174.06 -3.23101 -1.85571 0
M  V30 22550 H 2174.17 -4.73624 -0.722315 0
M  V30 22551 H 2172.54 -2.50148 -0.479378 0
M  V30 22552 H 2173.32 -3.28504 0.996986 0
M  V30 22553 N 2175.76 0.00833021 -1.57598 0
M  V30 22554 C 2176.99 0.706123 -1.94478 0
M  V30 22555 C 2177.41 1.67768 -0.86599 0
M  V30 22556 O 2176.76 1.81834 0.155828 0
M  V30 22557 C 2176.81 1.44523 -3.31354 0
M  V30 22558 O 2176.54 0.512651 -4.3509 0
M  V30 22559 C 2178.04 2.2383 -3.82642 0
M  V30 22560 H 2175.26 0.197195 -0.64137 0
M  V30 22561 H 2177.8 -0.0403132 -2.0446 0
M  V30 22562 H 2175.96 2.14337 -3.22705 0
M  V30 22563 H 2176.37 1.03321 -5.14223 0
M  V30 22564 H 2177.84 2.71055 -4.80867 0
M  V30 22565 H 2178.32 3.06148 -3.14913 0
M  V30 22566 H 2178.93 1.59049 -3.94441 0
M  V30 22567 N 2177.24 1.55075 0.280956 0
M  V30 22568 C 2178.49 1.75306 1.01361 0
M  V30 22569 C 2178.82 0.549775 1.86568 0
M  V30 22570 O 2178.07 -0.467908 1.90024 0
M  V30 22571 C 2178.37 3.00658 1.93234 0
M  V30 22572 C 2178.04 4.3356 1.23841 0
M  V30 22573 C 2176.7 4.69683 1.0465 0
M  V30 22574 C 2179.05 5.15863 0.743962 0
M  V30 22575 C 2176.38 5.85671 0.347296 0
M  V30 22576 C 2178.73 6.32573 0.0583841 0
M  V30 22577 C 2177.39 6.67342 -0.145308 0
M  V30 22578 H 2176.66 0.641491 0.370905 0
M  V30 22579 H 2179.31 1.89343 0.286608 0
M  V30 22580 H 2177.62 2.81488 2.72529 0
M  V30 22581 H 2179.31 3.13507 2.50029 0
M  V30 22582 H 2175.9 4.05163 1.39788 0
M  V30 22583 H 2180.09 4.88438 0.879877 0
M  V30 22584 H 2175.34 6.11139 0.178683 0
M  V30 22585 H 2179.52 6.95606 -0.332548 0
M  V30 22586 H 2177.14 7.5707 -0.689091 0
M  V30 22587 N 2178.72 -0.545102 1.47873 0
M  V30 22588 C 2179.95 -1.32682 1.58755 0
M  V30 22589 C 2180.36 -1.8724 0.242172 0
M  V30 22590 O 2179.72 -1.65628 -0.766386 0
M  V30 22591 C 2179.77 -2.48828 2.62234 0
M  V30 22592 O 2179.49 -1.96522 3.91549 0
M  V30 22593 C 2180.99 -3.40869 2.83414 0
M  V30 22594 H 2178.21 -0.404033 0.535722 0
M  V30 22595 H 2180.76 -0.659132 1.93586 0
M  V30 22596 H 2178.91 -3.11511 2.30303 0
M  V30 22597 H 2179.33 -2.72436 4.48195 0
M  V30 22598 H 2180.8 -4.18751 3.59655 0
M  V30 22599 H 2181.28 -3.95166 1.91679 0
M  V30 22600 H 2181.88 -2.83991 3.1659 0
M  V30 22601 N 2180.2 -1.36208 -0.792797 0
M  V30 22602 C 2181.45 -1.2958 -1.5457 0
M  V30 22603 C 2181.76 0.123772 -1.95208 0
M  V30 22604 O 2182.97 0.312401 -2.69697 0
M  V30 22605 C 2181.42 -2.27331 -2.79014 0
M  V30 22606 C 2181.03 -3.74707 -2.45558 0
M  V30 22607 C 2182.77 -2.29674 -3.57002 0
M  V30 22608 C 2180.68 -4.64243 -3.66377 0
M  V30 22609 H 2179.61 -0.481506 -0.580231 0
M  V30 22610 H 2182.26 -1.61551 -0.870256 0
M  V30 22611 H 2180.64 -1.88349 -3.4834 0
M  V30 22612 H 2181.82 -4.22404 -1.84151 0
M  V30 22613 H 2180.13 -3.75106 -1.80788 0
M  V30 22614 H 2182.73 -2.93779 -4.46764 0
M  V30 22615 H 2183.07 -1.30432 -3.95339 0
M  V30 22616 H 2183.61 -2.67255 -2.94652 0
M  V30 22617 H 2180.34 -5.64534 -3.33138 0
M  V30 22618 H 2179.86 -4.21264 -4.26963 0
M  V30 22619 H 2181.54 -4.80348 -4.33446 0
M  V30 22620 N 2181.68 1.01656 -1.20431 0
M  V30 22621 C 2182.9 1.78855 -1.04012 0
M  V30 22622 C 2183.32 1.8428 0.410661 0
M  V30 22623 O 2182.68 1.29579 1.28512 0
M  V30 22624 C 2182.73 3.23321 -1.61696 0
M  V30 22625 O 2182.45 3.18233 -3.01097 0
M  V30 22626 C 2183.95 4.17068 -1.5023 0
M  V30 22627 H 2181.17 0.562464 -0.36589 0
M  V30 22628 H 2183.71 1.27961 -1.59519 0
M  V30 22629 H 2181.87 3.71363 -1.10309 0
M  V30 22630 H 2182.28 4.08911 -3.28469 0
M  V30 22631 H 2183.76 5.16277 -1.95352 0
M  V30 22632 H 2184.23 4.36839 -0.454792 0
M  V30 22633 H 2184.84 3.74908 -2.00808 0
M  V30 22634 N 2183.15 1.01021 1.20965 0
M  V30 22635 C 2184.38 0.71488 1.94157 0
M  V30 22636 C 2184.8 -0.723393 1.74392 0
M  V30 22637 O 2184.15 -1.48999 1.05383 0
M  V30 22638 C 2184.2 1.033 3.46427 0
M  V30 22639 O 2183.93 2.41477 3.65541 0
M  V30 22640 C 2185.43 0.757815 4.36775 0
M  V30 22641 H 2182.65 0.263024 0.6173 0
M  V30 22642 H 2185.19 1.34966 1.53637 0
M  V30 22643 H 2183.35 0.443729 3.8485 0
M  V30 22644 H 2183.76 2.52743 4.59588 0
M  V30 22645 H 2185.23 1.03053 5.42295 0
M  V30 22646 H 2185.71 -0.308099 4.38118 0
M  V30 22647 H 2186.32 1.32894 4.04004 0
M  V30 22648 N 2184.63 -1.36623 0.78561 0
M  V30 22649 C 2185.56 -2.28776 0.139379 0
M  V30 22650 C 2186.58 -1.49297 -0.649162 0
M  V30 22651 O 2187.77 -1.71786 -0.484971 0
M  V30 22652 C 2184.87 -3.28685 -0.825808 0
M  V30 22653 C 2184.04 -4.37311 -0.0881363 0
M  V30 22654 C 2183.1 -5.17206 -0.96871 0
M  V30 22655 O 2182.12 -5.67593 -0.427359 0
M  V30 22656 N 2183.33 -5.33275 -2.29342 0
M  V30 22657 H 2186.09 -2.84875 0.930938 0
M  V30 22658 H 2183.65 -1.48748 0.639179 0
M  V30 22659 H 2185.64 -3.7902 -1.41865 0
M  V30 22660 H 2184.21 -2.73254 -1.51826 0
M  V30 22661 H 2183.43 -3.8819 0.685747 0
M  V30 22662 H 2184.72 -5.07055 0.421052 0
M  V30 22663 H 2184.12 -4.93946 -2.75743 0
M  V30 22664 H 2182.68 -5.86868 -2.83599 0
M  V30 22665 N 2186.11 -0.537304 -1.48158 0
M  V30 22666 C 2187.34 -0.0101482 -2.06898 0
M  V30 22667 C 2187.75 1.27458 -1.39283 0
M  V30 22668 O 2187.11 1.76 -0.48274 0
M  V30 22669 C 2187.16 0.209896 -3.6089 0
M  V30 22670 O 2186.88 -1.02394 -4.25966 0
M  V30 22671 C 2188.38 0.776601 -4.36444 0
M  V30 22672 H 2185.6 -0.0368227 -0.669989 0
M  V30 22673 H 2188.15 -0.745039 -1.90445 0
M  V30 22674 H 2186.3 0.894855 -3.76923 0
M  V30 22675 H 2186.72 -0.809231 -5.1822 0
M  V30 22676 H 2188.19 0.879955 -5.44941 0
M  V30 22677 H 2188.67 1.78324 -4.01369 0
M  V30 22678 H 2189.27 0.127975 -4.25107 0
M  V30 22679 N 2187.59 1.55221 -0.272782 0
M  V30 22680 C 2188.83 1.99841 0.345178 0
M  V30 22681 C 2189.17 1.16093 1.55679 0
M  V30 22682 O 2188.44 0.230441 1.9313 0
M  V30 22683 C 2188.73 3.5263 0.729656 0
M  V30 22684 C 2188.58 4.47133 -0.489138 0
M  V30 22685 C 2189.9 4.11259 1.56698 0
M  V30 22686 H 2187.02 0.726495 0.123989 0
M  V30 22687 H 2189.66 1.86176 -0.379262 0
M  V30 22688 H 2187.81 3.64405 1.34689 0
M  V30 22689 H 2189.48 4.47304 -1.12769 0
M  V30 22690 H 2187.72 4.18888 -1.12762 0
M  V30 22691 H 2188.39 5.51718 -0.176396 0
M  V30 22692 H 2190.87 4.02745 1.04572 0
M  V30 22693 H 2189.75 5.1838 1.80481 0
M  V30 22694 H 2190.01 3.61341 2.54726 0
M  V30 22695 N 2189.07 2.77022e-05 1.576 0
M  V30 22696 C 2190.48 -0.54278 1.78636 0
M  V30 22697 C 2190.83 -1.73955 0.907427 0
M  V30 22698 O 2189.95 -2.16121 0.109914 0
M  V30 22699 C 2190.55 -0.991451 3.23969 0
M  V30 22700 C 2189.11 -1.47957 3.46101 0
M  V30 22701 C 2188.25 -0.430787 2.73933 0
M  V30 22702 H 2191.21 0.226196 1.5708 0
M  V30 22703 H 2191.23 -1.85746 3.32083 0
M  V30 22704 H 2190.74 -0.120224 3.87914 0
M  V30 22705 H 2188.84 -2.37169 2.8737 0
M  V30 22706 H 2188.95 -1.50701 4.54781 0
M  V30 22707 H 2187.32 -0.892431 2.38553 0
M  V30 22708 H 2188.1 0.431474 3.40578 0
M  V30 22709 N 2190.54 -1.55222 -0.272728 0
M  V30 22710 C 2191.48 -1.84532 -1.35943 0
M  V30 22711 C 2192.49 -0.729843 -1.45524 0
M  V30 22712 O 2193.68 -1.0077 -1.47335 0
M  V30 22713 C 2190.78 -1.99352 -2.74066 0
M  V30 22714 C 2189.95 -3.30012 -2.87073 0
M  V30 22715 C 2189.01 -3.34893 -4.05873 0
M  V30 22716 O 2188.04 -4.08268 -3.96618 0
M  V30 22717 N 2189.24 -2.62316 -5.17852 0
M  V30 22718 H 2192 -2.78329 -1.11144 0
M  V30 22719 H 2189.56 -1.55143 -0.462842 0
M  V30 22720 H 2191.56 -1.99987 -3.51834 0
M  V30 22721 H 2190.13 -1.1242 -2.91686 0
M  V30 22722 H 2189.35 -3.41913 -1.96187 0
M  V30 22723 H 2190.63 -4.16182 -2.92694 0
M  V30 22724 H 2190.03 -2.02386 -5.28258 0
M  V30 22725 H 2188.59 -2.68674 -5.9385 0
M  V30 22726 N 2192.02 0.537252 -1.4816 0
M  V30 22727 C 2193.3 1.29837 -1.46294 0
M  V30 22728 C 2193.68 2.10409 -0.17065 0
M  V30 22729 O 2193.03 2.12194 0.847709 0
M  V30 22730 C 2193.24 2.18598 -2.72058 0
M  V30 22731 C 2194.59 2.78974 -3.20092 0
M  V30 22732 O 2195.61 2.28889 -2.72925 0
M  V30 22733 O 2194.47 3.70057 -4.02144 0
M  V30 22734 H 2191.56 0.585637 -0.583916 0
M  V30 22735 H 2194.11 0.554506 -1.60385 0
M  V30 22736 H 2192.88 1.58795 -3.57631 0
M  V30 22737 H 2192.5 3.00244 -2.60651 0
M  V30 22738 N 2193.5 1.36626 0.785562 0
M  V30 22739 C 2194.46 1.3111 1.87997 0
M  V30 22740 C 2195.46 0.217987 1.59316 0
M  V30 22741 O 2196.65 0.473006 1.67655 0
M  V30 22742 C 2193.79 1.03339 3.2486 0
M  V30 22743 H 2194.98 2.28444 1.94303 0
M  V30 22744 H 2192.53 1.21455 0.983792 0
M  V30 22745 H 2193.27 0.0648002 3.24235 0
M  V30 22746 H 2193.05 1.82447 3.47067 0
M  V30 22747 H 2194.54 1.02095 4.04928 0
M  V30 22748 N 2194.98 -1.01016 1.20969 0
M  V30 22749 C 2196.22 -1.74973 1.02529 0
M  V30 22750 C 2196.56 -1.89132 -0.440767 0
M  V30 22751 O 2195.83 -1.42186 -1.32715 0
M  V30 22752 C 2196.12 -3.16527 1.71705 0
M  V30 22753 C 2195.97 -3.10124 3.25797 0
M  V30 22754 C 2197.29 -4.15339 1.45539 0
M  V30 22755 H 2194.41 -0.635128 0.373874 0
M  V30 22756 H 2197.05 -1.17802 1.49073 0
M  V30 22757 H 2195.2 -3.65339 1.32135 0
M  V30 22758 H 2196.87 -2.69066 3.74702 0
M  V30 22759 H 2195.11 -2.47356 3.56367 0
M  V30 22760 H 2195.78 -4.10216 3.6936 0
M  V30 22761 H 2198.26 -3.7521 1.79879 0
M  V30 22762 H 2197.14 -5.12537 1.96462 0
M  V30 22763 H 2197.4 -4.40426 0.384315 0
M  V30 22764 N 2196.46 -1.01661 -1.20428 0
M  V30 22765 C 2197.68 -0.724976 -1.94316 0
M  V30 22766 C 2198.11 0.708003 -1.74267 0
M  V30 22767 O 2197.46 1.48717 -1.03696 0
M  V30 22768 C 2197.51 -1.06597 -3.44484 0
M  V30 22769 O 2196.62 -0.177671 -4.12017 0
M  V30 22770 H 2195.96 -0.268991 -0.607075 0
M  V30 22771 H 2198.49 -1.35998 -1.52858 0
M  V30 22772 H 2198.5 -1.01769 -3.95104 0
M  V30 22773 H 2197.17 -2.11003 -3.584 0
M  V30 22774 H 2195.75 -0.283486 -3.71821 0
M  V30 22775 N 2197.93 1.36205 -0.792844 0
M  V30 22776 C 2199.35 1.5237 -0.47493 0
M  V30 22777 C 2199.55 1.7458 1.00619 0
M  V30 22778 O 2198.61 1.77927 1.79159 0
M  V30 22779 C 2199.92 2.70745 -1.30835 0
M  V30 22780 C 2201.47 2.84617 -1.30239 0
M  V30 22781 C 2201.94 4.06 -2.11963 0
M  V30 22782 N 2203.43 4.13152 -2.09427 0
M  V30 22783 C 2204.17 5.06158 -2.69428 0
M  V30 22784 N 2203.66 6.04586 -3.38301 0
M  V30 22785 N 2205.46 4.988 -2.59143 0
M  V30 22786 H 2197.61 1.20043 -1.75224 0
M  V30 22787 H 2199.87 0.586198 -0.745034 0
M  V30 22788 H 2199.58 2.60866 -2.35885 0
M  V30 22789 H 2199.45 3.64988 -0.952024 0
M  V30 22790 H 2201.84 2.93954 -0.259799 0
M  V30 22791 H 2201.92 1.91271 -1.6985 0
M  V30 22792 H 2201.56 3.97423 -3.16255 0
M  V30 22793 H 2201.49 4.985 -1.6972 0
M  V30 22794 H 2203.98 3.42682 -1.59303 0
M  V30 22795 H 2204.3 6.72123 -3.81405 0
M  V30 22796 H 2202.64 6.04801 -3.42404 0
M  V30 22797 H 2205.83 4.20855 -2.04935 0
M  V30 22798 H 2206.01 5.71094 -3.06195 0
M  V30 22799 N 2199.41 0.545154 1.47871 0
M  V30 22800 C 2200.64 0.0190975 2.07391 0
M  V30 22801 C 2201.06 -1.25969 1.39691 0
M  V30 22802 O 2200.42 -1.7516 0.467847 0
M  V30 22803 C 2200.47 -0.172272 3.60188 0
M  V30 22804 O 2199.57 -1.23759 3.93392 0
M  V30 22805 H 2198.91 0.0459176 0.66241 0
M  V30 22806 H 2201.44 0.757399 1.90065 0
M  V30 22807 H 2201.45 -0.390233 4.0613 0
M  V30 22808 H 2200.13 0.761796 4.08864 0
M  V30 22809 H 2198.71 -1.00108 3.59211 0
M  V30 22810 N 2200.89 -1.55074 0.28101 0
M  V30 22811 C 2201.82 -2.20164 -0.637229 0
M  V30 22812 C 2202.84 -1.18815 -1.11296 0
M  V30 22813 O 2204.02 -1.45512 -1.03386 0
M  V30 22814 C 2201.12 -2.81844 -1.88195 0
M  V30 22815 C 2200.3 -4.08938 -1.55204 0
M  V30 22816 C 2199.36 -4.5461 -2.64983 0
M  V30 22817 O 2198.38 -5.20254 -2.3092 0
M  V30 22818 N 2199.58 -4.25245 -3.95154 0
M  V30 22819 H 2202.35 -2.99593 -0.0801167 0
M  V30 22820 H 2199.91 -1.61576 0.102357 0
M  V30 22821 H 2201.9 -3.0934 -2.60942 0
M  V30 22822 H 2200.47 -2.06373 -2.34796 0
M  V30 22823 H 2199.69 -3.88668 -0.658117 0
M  V30 22824 H 2200.98 -4.91734 -1.30673 0
M  V30 22825 H 2200.38 -3.72614 -4.25647 0
M  V30 22826 H 2198.94 -4.57498 -4.64261 0
M  V30 22827 N 2202.37 -0.00838561 -1.57598 0
M  V30 22828 C 2203.79 0.347795 -1.55764 0
M  V30 22829 C 2203.99 1.7425 -1.01189 0
M  V30 22830 O 2203.04 2.44006 -0.649414 0
M  V30 22831 C 2204.35 0.215355 -2.99928 0
M  V30 22832 C 2205.9 0.289671 -3.11657 0
M  V30 22833 C 2206.38 0.186259 -4.57621 0
M  V30 22834 N 2207.87 0.243897 -4.62557 0
M  V30 22835 C 2208.6 0.187349 -5.73094 0
M  V30 22836 N 2208.1 0.0809113 -6.92753 0
M  V30 22837 N 2209.89 0.239827 -5.61588 0
M  V30 22838 H 2202.04 -0.920654 -1.9141 0
M  V30 22839 H 2204.31 -0.353675 -0.879556 0
M  V30 22840 H 2204.01 -0.744572 -3.43728 0
M  V30 22841 H 2203.89 0.994033 -3.63866 0
M  V30 22842 H 2206.27 1.24005 -2.67781 0
M  V30 22843 H 2206.35 -0.519024 -2.50479 0
M  V30 22844 H 2206 -0.760608 -5.02172 0
M  V30 22845 H 2205.93 1.01355 -5.16754 0
M  V30 22846 H 2208.42 0.327151 -3.76481 0
M  V30 22847 H 2208.73 0.0438883 -7.72788 0
M  V30 22848 H 2207.08 0.0464198 -6.94984 0
M  V30 22849 H 2210.27 0.321234 -4.66996 0
M  V30 22850 H 2210.44 0.192293 -6.47715 0
M  V30 22851 N 2203.85 1.55365 0.264492 0
M  V30 22852 C 2205.26 1.47395 0.612125 0
M  V30 22853 C 2205.46 0.695052 1.89133 0
M  V30 22854 O 2204.52 0.217319 2.51563 0
M  V30 22855 C 2205.83 2.91675 0.731184 0
M  V30 22856 C 2207.38 3.01941 0.824677 0
M  V30 22857 C 2207.86 4.47492 0.975443 0
M  V30 22858 N 2209.35 4.51356 1.04075 0
M  V30 22859 C 2210.08 5.61203 1.17636 0
M  V30 22860 N 2209.58 6.80899 1.27862 0
M  V30 22861 N 2211.37 5.48963 1.20814 0
M  V30 22862 H 2203.52 2.04455 -0.575492 0
M  V30 22863 H 2205.78 0.927493 -0.196115 0
M  V30 22864 H 2205.49 3.51427 -0.138454 0
M  V30 22865 H 2205.36 3.41172 1.60877 0
M  V30 22866 H 2207.75 2.42279 1.68478 0
M  V30 22867 H 2207.83 2.55682 -0.0776929 0
M  V30 22868 H 2207.48 5.07758 0.119969 0
M  V30 22869 H 2207.41 4.91415 1.89259 0
M  V30 22870 H 2209.9 3.65138 0.973782 0
M  V30 22871 H 2210.21 7.60367 1.38067 0
M  V30 22872 H 2208.56 6.83694 1.24851 0
M  V30 22873 H 2211.75 4.5439 1.12461 0
M  V30 22874 H 2211.92 6.34613 1.31038 0
M  V30 22875 N 2205.33 -0.529387 1.48443 0
M  V30 22876 C 2206.57 -1.28264 1.56181 0
M  V30 22877 C 2206.89 -1.93545 0.237755 0
M  V30 22878 O 2206.16 -1.81355 -0.740747 0
M  V30 22879 H 2204.74 -0.476395 0.575375 0
M  V30 22880 H 2207.41 -0.615988 1.8491 0
M  V30 22881 H 2206.5 -2.06161 2.34316 0
M  V30 22882 N 2206.8 -1.37041 -0.778305 0
M  V30 22883 C 2208.22 -1.17697 -1.07794 0
M  V30 22884 C 2208.42 -0.00863657 -2.01498 0
M  V30 22885 O 2207.48 0.653309 -2.43902 0
M  V30 22886 C 2208.79 -2.49275 -1.68174 0
M  V30 22887 C 2210.34 -2.55739 -1.80463 0
M  V30 22888 C 2210.81 -3.87431 -2.44257 0
M  V30 22889 N 2212.3 -3.88837 -2.51714 0
M  V30 22890 C 2213.04 -4.87481 -3.01911 0
M  V30 22891 N 2212.53 -5.9652 -3.5233 0
M  V30 22892 N 2214.33 -4.74891 -3.00725 0
M  V30 22893 H 2206.48 -2.11826 -0.155995 0
M  V30 22894 H 2208.74 -0.938789 -0.131827 0
M  V30 22895 H 2208.45 -3.35095 -1.0679 0
M  V30 22896 H 2208.32 -2.65889 -2.67549 0
M  V30 22897 H 2210.71 -1.70329 -2.40981 0
M  V30 22898 H 2210.79 -2.43014 -0.798613 0
M  V30 22899 H 2210.43 -4.73251 -1.84379 0
M  V30 22900 H 2210.36 -3.97456 -3.45451 0
M  V30 22901 H 2212.85 -3.10067 -2.16025 0
M  V30 22902 H 2213.17 -6.67748 -3.89015 0
M  V30 22903 H 2211.51 -6.00174 -3.50452 0
M  V30 22904 H 2214.7 -3.8883 -2.60631 0
M  V30 22905 H 2214.88 -5.51924 -3.39535 0
M  V30 22906 N 2208.28 1.00373 -1.21503 0
M  V30 22907 C 2209.51 1.77742 -1.05903 0
M  V30 22908 C 2209.92 1.84705 0.391093 0
M  V30 22909 O 2209.28 1.30935 1.27131 0
M  V30 22910 C 2209.33 3.21588 -1.65116 0
M  V30 22911 O 2209.05 3.15022 -3.04455 0
M  V30 22912 C 2210.55 4.15451 -1.54645 0
M  V30 22913 H 2207.77 0.558551 -0.371835 0
M  V30 22914 H 2210.32 1.26262 -1.60867 0
M  V30 22915 H 2208.47 3.70173 -1.14241 0
M  V30 22916 H 2208.89 4.05404 -3.32788 0
M  V30 22917 H 2210.36 5.14176 -2.00817 0
M  V30 22918 H 2210.84 4.36332 -0.501099 0
M  V30 22919 H 2211.44 3.72757 -2.04773 0
M  V30 22920 N 2209.76 1.02298 1.19887 0
M  V30 22921 C 2211.01 0.714591 1.89045 0
M  V30 22922 C 2211.33 -0.758649 1.79637 0
M  V30 22923 O 2210.6 -1.54616 1.20294 0
M  V30 22924 H 2209.18 0.261329 0.699797 0
M  V30 22925 H 2211.84 1.29595 1.45572 0
M  V30 22926 H 2210.94 1.00365 2.95522 0
M  V30 22927 N 2211.24 -1.35782 0.800057 0
M  V30 22928 C 2212.65 -1.52116 0.483004 0
M  V30 22929 C 2212.85 -1.75111 -0.996917 0
M  V30 22930 O 2211.91 -1.78875 -1.78213 0
M  V30 22931 C 2213.22 -2.70047 1.32269 0
M  V30 22932 C 2214.77 -2.83922 1.31747 0
M  V30 22933 C 2215.25 -4.0487 2.14113 0
M  V30 22934 N 2216.74 -4.12036 2.11615 0
M  V30 22935 C 2217.47 -5.04722 2.72108 0
M  V30 22936 N 2216.97 -6.02783 3.41503 0
M  V30 22937 N 2218.76 -4.97419 2.61785 0
M  V30 22938 H 2210.91 -1.19112 1.75858 0
M  V30 22939 H 2213.17 -0.582239 0.748132 0
M  V30 22940 H 2212.88 -2.59611 2.37265 0
M  V30 22941 H 2212.75 -3.64478 0.971367 0
M  V30 22942 H 2215.14 -2.93812 0.275385 0
M  V30 22943 H 2215.22 -1.90367 1.70862 0
M  V30 22944 H 2214.87 -3.95741 3.18358 0
M  V30 22945 H 2214.8 -4.97593 1.72361 0
M  V30 22946 H 2217.29 -3.41832 1.61118 0
M  V30 22947 H 2217.6 -6.70091 3.84964 0
M  V30 22948 H 2215.95 -6.02977 3.45606 0
M  V30 22949 H 2219.14 -4.19763 2.07164 0
M  V30 22950 H 2219.31 -5.69462 3.0922 0
M  V30 22951 N 2212.72 -0.552988 -1.4758 0
M  V30 22952 C 2213.96 -0.0273058 -2.02082 0
M  V30 22953 C 2214.28 1.32561 -1.43013 0
M  V30 22954 O 2213.55 1.86363 -0.603778 0
M  V30 22955 H 2212.13 -0.00710495 -0.746966 0
M  V30 22956 H 2214.8 -0.72204 -1.81032 0
M  V30 22957 H 2213.89 0.0639403 -3.12034 0
M  V30 22958 N 2214.19 1.54923 -0.28923 0
M  V30 22959 C 2215.61 1.5947 0.0645122 0
M  V30 22960 C 2215.81 1.30635 1.53417 0
M  V30 22961 O 2214.87 1.07404 2.28518 0
M  V30 22962 C 2216.18 2.98962 -0.322833 0
M  V30 22963 C 2217.73 3.11828 -0.270619 0
M  V30 22964 C 2218.2 4.5361 -0.632611 0
M  V30 22965 N 2219.69 4.59495 -0.584698 0
M  V30 22966 C 2220.43 5.67252 -0.837414 0
M  V30 22967 N 2219.92 6.83096 -1.15548 0
M  V30 22968 N 2221.72 5.56866 -0.765264 0
M  V30 22969 H 2213.87 1.71929 -1.24717 0
M  V30 22970 H 2216.13 0.802407 -0.504823 0
M  V30 22971 H 2215.84 3.24946 -1.34547 0
M  V30 22972 H 2215.71 3.75759 0.329374 0
M  V30 22973 H 2218.1 2.856 0.742755 0
M  V30 22974 H 2218.18 2.37212 -0.957284 0
M  V30 22975 H 2217.82 4.80566 -1.64374 0
M  V30 22976 H 2217.75 5.26545 0.0759974 0
M  V30 22977 H 2220.24 3.76282 -0.349314 0
M  V30 22978 H 2220.56 7.61189 -1.33461 0
M  V30 22979 H 2218.9 6.84677 -1.1934 0
M  V30 22980 H 2222.09 4.65242 -0.516514 0
M  V30 22981 H 2222.27 6.40765 -0.96559 0
M  V30 22982 N 2215.67 0.0167433 1.57591 0
M  V30 22983 C 2216.6 -0.96782 2.12498 0
M  V30 22984 C 2217.58 -1.3475 1.03809 0
M  V30 22985 O 2218.77 -1.4283 1.31579 0
M  V30 22986 C 2215.9 -2.25426 2.64198 0
M  V30 22987 C 2214.85 -2.0157 3.77563 0
M  V30 22988 C 2214.18 -3.36372 4.15642 0
M  V30 22989 C 2215.48 -1.36481 5.04153 0
M  V30 22990 H 2217.17 -0.510591 2.95014 0
M  V30 22991 H 2214.72 -0.244156 1.41915 0
M  V30 22992 H 2216.67 -2.94672 3.01241 0
M  V30 22993 H 2215.39 -2.73292 1.78826 0
M  V30 22994 H 2214.05 -1.34745 3.40939 0
M  V30 22995 H 2213.7 -3.81973 3.27269 0
M  V30 22996 H 2213.4 -3.2122 4.92028 0
M  V30 22997 H 2214.93 -4.06907 4.55258 0
M  V30 22998 H 2216.34 -1.95708 5.38861 0
M  V30 22999 H 2214.74 -1.31765 5.85455 0
M  V30 23000 H 2215.81 -0.336134 4.83734 0
M  V30 23001 N 2217.15 -1.55503 -0.256249 0
M  V30 23002 C 2218.4 -1.76547 -0.983641 0
M  V30 23003 C 2218.72 -0.579015 -1.86205 0
M  V30 23004 O 2217.99 0.405543 -1.91656 0
M  V30 23005 H 2216.57 -0.651093 -0.36618 0
M  V30 23006 H 2219.23 -1.92929 -0.276445 0
M  V30 23007 H 2218.33 -2.67318 -1.61082 0
M  V30 23008 N 2218.63 0.521507 -1.48721 0
M  V30 23009 C 2219.87 1.27876 -1.57403 0
M  V30 23010 C 2220.21 1.92573 -0.25085 0
M  V30 23011 O 2219.48 1.79712 0.743902 0
M  V30 23012 C 2219.77 2.36159 -2.71847 0
M  V30 23013 C 2219.62 1.76098 -4.13896 0
M  V30 23014 C 2220.94 3.3787 -2.82014 0
M  V30 23015 H 2218.06 0.463571 -0.572949 0
M  V30 23016 H 2220.7 0.580088 -1.80928 0
M  V30 23017 H 2218.85 2.95752 -2.51919 0
M  V30 23018 H 2220.52 1.20491 -4.45286 0
M  V30 23019 H 2218.76 1.06594 -4.205 0
M  V30 23020 H 2219.43 2.54541 -4.89809 0
M  V30 23021 H 2221.91 2.88244 -3.00091 0
M  V30 23022 H 2220.79 4.11021 -3.63803 0
M  V30 23023 H 2221.05 3.98943 -1.90518 0
M  V30 23024 N 2220.11 1.37452 0.771027 0
M  V30 23025 C 2221.34 1.35698 1.55787 0
M  V30 23026 C 2221.74 -0.059419 1.89107 0
M  V30 23027 O 2221.09 -1.0318 1.51985 0
M  V30 23028 C 2221.15 2.13128 2.89511 0
M  V30 23029 C 2220.81 3.62087 2.78823 0
M  V30 23030 C 2221.81 4.55954 2.49804 0
M  V30 23031 C 2219.5 4.05218 2.96822 0
M  V30 23032 C 2221.49 5.90931 2.38913 0
M  V30 23033 C 2219.18 5.40281 2.85552 0
M  V30 23034 C 2220.17 6.3295 2.56638 0
M  V30 23035 O 2219.86 7.6553 2.45395 0
M  V30 23036 H 2219.59 0.466489 0.489248 0
M  V30 23037 H 2222.15 1.81404 0.963414 0
M  V30 23038 H 2220.38 1.62114 3.51078 0
M  V30 23039 H 2222.07 2.04 3.50911 0
M  V30 23040 H 2222.83 4.23941 2.35583 0
M  V30 23041 H 2218.71 3.33448 3.18329 0
M  V30 23042 H 2222.26 6.63231 2.16265 0
M  V30 23043 H 2218.15 5.71896 2.99341 0
M  V30 23044 H 2218.92 7.75859 2.60739 0
M  V30 23045 N 2221.58 -0.997276 1.22033 0
M  V30 23046 C 2223 -1.2602 0.979348 0
M  V30 23047 C 2223.2 -1.98785 -0.329685 0
M  V30 23048 O 2222.26 -2.29477 -1.05341 0
M  V30 23049 C 2223.57 -2.07627 2.17512 0
M  V30 23050 C 2225.12 -2.20826 2.21821 0
M  V30 23051 C 2225.59 -3.05819 3.40938 0
M  V30 23052 N 2227.08 -3.13406 3.41073 0
M  V30 23053 C 2227.82 -3.79447 4.29892 0
M  V30 23054 N 2227.31 -4.47453 5.28922 0
M  V30 23055 N 2229.11 -3.76165 4.17679 0
M  V30 23056 H 2221.26 -0.509316 2.06203 0
M  V30 23057 H 2223.52 -0.287525 0.903346 0
M  V30 23058 H 2223.23 -1.61518 3.12418 0
M  V30 23059 H 2223.1 -3.08381 2.17211 0
M  V30 23060 H 2225.49 -2.66151 1.27466 0
M  V30 23061 H 2225.57 -1.19516 2.26162 0
M  V30 23062 H 2225.21 -2.61195 4.35591 0
M  V30 23063 H 2225.14 -4.0726 3.33836 0
M  V30 23064 H 2227.63 -2.65003 2.6941 0
M  V30 23065 H 2227.95 -4.95572 5.92982 0
M  V30 23066 H 2226.29 -4.46215 5.32839 0
M  V30 23067 H 2229.48 -3.22196 3.3957 0
M  V30 23068 H 2229.66 -4.27355 4.87106 0
M  V30 23069 N 2223.06 -1.02932 -1.19343 0
M  V30 23070 C 2224.29 -0.744597 -1.92716 0
M  V30 23071 C 2224.7 0.700548 -1.75753 0
M  V30 23072 O 2224.04 1.48813 -1.07705 0
M  V30 23073 C 2224.11 -1.01663 -3.44826 0
M  V30 23074 C 2223.77 -2.45342 -3.8556 0
M  V30 23075 C 2224.77 -3.43479 -3.9028 0
M  V30 23076 C 2222.45 -2.79753 -4.17185 0
M  V30 23077 C 2224.45 -4.74083 -4.26056 0
M  V30 23078 C 2222.13 -4.10567 -4.52635 0
M  V30 23079 C 2223.13 -5.07542 -4.57045 0
M  V30 23080 O 2222.82 -6.36013 -4.91673 0
M  V30 23081 H 2222.55 -0.271753 -0.618972 0
M  V30 23082 H 2225.1 -1.37693 -1.52413 0
M  V30 23083 H 2223.33 -0.327151 -3.85314 0
M  V30 23084 H 2225.02 -0.721497 -3.99436 0
M  V30 23085 H 2225.79 -3.18231 -3.65997 0
M  V30 23086 H 2221.67 -2.0495 -4.12936 0
M  V30 23087 H 2225.21 -5.49773 -4.29414 0
M  V30 23088 H 2221.11 -4.35587 -4.76376 0
M  V30 23089 H 2221.88 -6.40492 -5.09619 0
M  V30 23090 N 2224.54 1.35356 -0.807246 0
M  V30 23091 C 2225.79 1.99044 -0.388498 0
M  V30 23092 C 2226.12 1.6389 1.04181 0
M  V30 23093 O 2225.39 0.902565 1.7229 0
M  V30 23094 C 2225.68 3.55514 -0.572846 0
M  V30 23095 C 2225.53 4.00464 -2.04814 0
M  V30 23096 C 2226.85 4.401 0.00106328 0
M  V30 23097 H 2223.97 0.723067 -0.142631 0
M  V30 23098 H 2226.61 1.60496 -1.0169 0
M  V30 23099 H 2224.76 3.88482 -0.0379108 0
M  V30 23100 H 2226.43 3.77903 -2.6455 0
M  V30 23101 H 2224.68 3.51349 -2.54433 0
M  V30 23102 H 2225.35 5.09333 -2.128 0
M  V30 23103 H 2227.82 4.13596 -0.455788 0
M  V30 23104 H 2226.7 5.48673 -0.157833 0
M  V30 23105 H 2226.96 4.2833 1.09481 0
M  V30 23106 N 2226.02 0.560807 1.47284 0
M  V30 23107 C 2227.24 0.0410931 2.07359 0
M  V30 23108 C 2227.67 -1.2448 1.41019 0
M  V30 23109 O 2227.03 -1.74654 0.486398 0
M  V30 23110 C 2227.07 -0.134059 3.60351 0
M  V30 23111 O 2226.18 -1.1958 3.94683 0
M  V30 23112 H 2225.52 0.0529407 0.661886 0
M  V30 23113 H 2228.05 0.777515 1.89251 0
M  V30 23114 H 2228.06 -0.347136 4.06521 0
M  V30 23115 H 2226.73 0.805119 4.08033 0
M  V30 23116 H 2225.31 -0.962924 3.60253 0
M  V30 23117 N 2227.5 -1.54768 0.297442 0
M  V30 23118 C 2228.72 -2.04941 -0.318399 0
M  V30 23119 C 2229.15 -1.17347 -1.47007 0
M  V30 23120 O 2228.5 -0.17679 -1.80436 0
M  V30 23121 C 2228.55 -3.52593 -0.755687 0
M  V30 23122 O 2227.66 -3.68032 -1.86082 0
M  V30 23123 H 2227 -0.661061 -0.0624094 0
M  V30 23124 H 2229.53 -1.99851 0.43825 0
M  V30 23125 H 2229.54 -3.94378 -1.04545 0
M  V30 23126 H 2228.21 -4.15809 0.0867964 0
M  V30 23127 H 2226.79 -3.38152 -1.57188 0
M  V30 23128 N 2228.97 -0.0251005 -1.5758 0
M  V30 23129 C 2230.22 0.653118 -1.91256 0
M  V30 23130 C 2230.54 1.72899 -0.901721 0
M  V30 23131 O 2229.81 1.95816 0.0573441 0
M  V30 23132 H 2228.39 0.24423 -0.705947 0
M  V30 23133 H 2231.06 -0.0719551 -1.94767 0
M  V30 23134 H 2230.15 1.10842 -2.91754 0
M  V30 23135 N 2230.45 1.55637 0.247999 0
M  V30 23136 C 2231.36 1.93356 1.32855 0
M  V30 23137 C 2232.38 0.833865 1.52718 0
M  V30 23138 O 2233.55 1.13516 1.66361 0
M  V30 23139 C 2230.62 2.21963 2.66333 0
M  V30 23140 C 2229.68 3.45358 2.55002 0
M  V30 23141 C 2228.91 3.72591 3.82115 0
M  V30 23142 O 2229.14 3.01915 4.83946 0
M  V30 23143 O 2228.07 4.66117 3.80813 0
M  V30 23144 H 2231.9 2.8539 1.03857 0
M  V30 23145 H 2229.48 1.42504 0.448661 0
M  V30 23146 H 2231.36 2.41676 3.45211 0
M  V30 23147 H 2230.04 1.33108 2.95066 0
M  V30 23148 H 2228.95 3.30954 1.74414 0
M  V30 23149 H 2230.28 4.34512 2.31215 0
M  V30 23150 N 2231.93 -0.513613 1.48996 0
M  V30 23151 C 2233.35 -0.843658 1.35479 0
M  V30 23152 C 2233.55 -1.97918 0.378248 0
M  V30 23153 O 2232.6 -2.51749 -0.194645 0
M  V30 23154 C 2233.92 -1.19575 2.75903 0
M  V30 23155 C 2235.46 -1.30469 2.84512 0
M  V30 23156 C 2235.94 -1.69014 4.25674 0
M  V30 23157 N 2237.43 -1.76086 4.28425 0
M  V30 23158 C 2238.17 -2.07329 5.34605 0
M  V30 23159 N 2237.66 -2.36883 6.51044 0
M  V30 23160 N 2239.45 -2.08473 5.22011 0
M  V30 23161 H 2231.61 0.235365 2.11092 0
M  V30 23162 H 2233.87 0.0426835 0.947039 0
M  V30 23163 H 2233.57 -0.434852 3.49001 0
M  V30 23164 H 2233.45 -2.14214 3.10471 0
M  V30 23165 H 2235.84 -2.05633 2.11658 0
M  V30 23166 H 2235.92 -0.33911 2.53542 0
M  V30 23167 H 2235.56 -0.944047 4.99049 0
M  V30 23168 H 2235.49 -2.6665 4.54098 0
M  V30 23169 H 2237.98 -1.55458 3.44443 0
M  V30 23170 H 2238.29 -2.59874 7.27795 0
M  V30 23171 H 2236.64 -2.34366 6.54292 0
M  V30 23172 H 2239.83 -1.84853 4.30055 0
M  V30 23173 H 2240 -2.32489 6.04858 0
M  V30 23174 N 2233.41 -1.37859 -0.763727 0
M  V30 23175 C 2234.82 -1.29954 -1.34048 0
M  V30 23176 C 2235.17 0.0492554 -1.96138 0
M  V30 23177 O 2234.3 0.951205 -1.94373 0
M  V30 23178 C 2234.89 -2.35338 -2.43725 0
M  V30 23179 C 2233.45 -2.31043 -2.97147 0
M  V30 23180 C 2232.6 -2.18741 -1.70434 0
M  V30 23181 H 2235.55 -1.48364 -0.56337 0
M  V30 23182 H 2235.57 -2.00467 -3.23409 0
M  V30 23183 H 2235.08 -3.33493 -1.98505 0
M  V30 23184 H 2233.18 -1.36436 -3.46722 0
M  V30 23185 H 2233.3 -3.24778 -3.52215 0
M  V30 23186 H 2231.66 -1.65421 -1.9367 0
M  V30 23187 H 2232.44 -3.18823 -1.27306 0
M  V30 23188 N 2234.89 0.990791 -1.22561 0
M  V30 23189 C 2236.11 1.77144 -1.07865 0
M  V30 23190 C 2236.54 1.84497 0.366414 0
M  V30 23191 O 2235.9 1.29898 1.26476 0
M  V30 23192 C 2235.94 3.18178 -1.69691 0
M  V30 23193 O 2235.05 4.01261 -0.952017 0
M  V30 23194 H 2234.39 0.545404 -0.378722 0
M  V30 23195 H 2236.92 1.24447 -1.62401 0
M  V30 23196 H 2236.93 3.68799 -1.74502 0
M  V30 23197 H 2235.6 3.12141 -2.74847 0
M  V30 23198 H 2234.18 3.5979 -0.980075 0
M  V30 23199 N 2236.37 1.03564 1.18795 0
M  V30 23200 C 2237.61 0.734602 1.88276 0
M  V30 23201 C 2237.93 -0.739554 1.80432 0
M  V30 23202 O 2237.2 -1.53331 1.21928 0
M  V30 23203 H 2235.78 0.268737 0.696986 0
M  V30 23204 H 2238.45 1.31131 1.44189 0
M  V30 23205 H 2237.54 1.03494 2.94441 0
M  V30 23206 N 2237.84 -1.34926 0.814413 0
M  V30 23207 C 2238.78 -2.27523 0.175681 0
M  V30 23208 C 2239.75 -1.48472 -0.662927 0
M  V30 23209 O 2240.94 -1.77713 -0.628514 0
M  V30 23210 C 2238.07 -3.30167 -0.755458 0
M  V30 23211 C 2237.11 -4.265 0.00452802 0
M  V30 23212 S 2237.94 -5.1831 1.34591 0
M  V30 23213 C 2239.1 -6.24493 0.419424 0
M  V30 23214 H 2239.33 -2.81349 0.96074 0
M  V30 23215 H 2236.87 -1.41845 0.609871 0
M  V30 23216 H 2238.82 -3.89798 -1.28716 0
M  V30 23217 H 2237.49 -2.75205 -1.51397 0
M  V30 23218 H 2236.68 -4.99073 -0.70299 0
M  V30 23219 H 2236.28 -3.71079 0.466512 0
M  V30 23220 H 2238.57 -6.76363 -0.392313 0
M  V30 23221 H 2239.52 -6.99273 1.11458 0
M  V30 23222 H 2239.92 -5.64499 0.0116381 0
M  V30 23223 N 2239.32 -0.56861 -1.46985 0
M  V30 23224 C 2240.57 -0.0488342 -2.02441 0
M  V30 23225 C 2240.9 1.30556 -1.44171 0
M  V30 23226 O 2240.15 1.86555 -0.591246 0
M  V30 23227 C 2240.45 0.0817731 -3.57306 0
M  V30 23228 C 2240.12 -1.2032 -4.3455 0
M  V30 23229 C 2238.78 -1.55528 -4.55373 0
M  V30 23230 C 2241.13 -2.05419 -4.79012 0
M  V30 23231 C 2238.46 -2.7566 -5.17908 0
M  V30 23232 C 2240.81 -3.24764 -5.42873 0
M  V30 23233 C 2239.47 -3.60271 -5.61926 0
M  V30 23234 H 2238.74 -0.0178697 -0.740784 0
M  V30 23235 H 2241.39 -0.742415 -1.76523 0
M  V30 23236 H 2239.7 0.858396 -3.82281 0
M  V30 23237 H 2241.39 0.499476 -3.97877 0
M  V30 23238 H 2237.98 -0.919088 -4.1863 0
M  V30 23239 H 2242.17 -1.79524 -4.62693 0
M  V30 23240 H 2237.42 -3.03324 -5.30852 0
M  V30 23241 H 2241.6 -3.90983 -5.76286 0
M  V30 23242 H 2239.22 -4.5345 -6.10153 0
M  V30 23243 N 2240.8 1.54608 -0.305646 0
M  V30 23244 C 2242.08 1.9234 0.355618 0
M  V30 23245 C 2242.46 1.23338 1.71321 0
M  V30 23246 O 2241.8 0.370742 2.25472 0
M  V30 23247 C 2242.01 3.45879 0.465659 0
M  V30 23248 C 2243.36 4.18201 0.734353 0
M  V30 23249 O 2244.39 3.51939 0.549288 0
M  V30 23250 O 2243.25 5.35517 1.09015 0
M  V30 23251 H 2240.34 0.802539 0.199652 0
M  V30 23252 H 2242.89 1.65966 -0.354046 0
M  V30 23253 H 2241.66 3.88238 -0.488529 0
M  V30 23254 H 2241.28 3.78304 1.22361 0
M  V30 23255 N 2242.28 0.033457 1.57564 0
M  V30 23256 C 2243.5 -0.657861 1.9669 0
M  V30 23257 C 2243.93 -1.64618 0.910086 0
M  V30 23258 O 2243.29 -1.80844 -0.128566 0
M  V30 23259 C 2243.33 -1.33677 3.34907 0
M  V30 23260 O 2242.44 -2.45213 3.31578 0
M  V30 23261 H 2241.78 -0.172478 0.641208 0
M  V30 23262 H 2244.31 0.096598 2.04372 0
M  V30 23263 H 2244.32 -1.69256 3.71236 0
M  V30 23264 H 2242.99 -0.612339 4.11368 0
M  V30 23265 H 2241.57 -2.11714 3.06972 0
M  V30 23266 N 2243.76 -1.55766 -0.239741 0
M  V30 23267 C 2245 -1.78196 -0.968202 0
M  V30 23268 C 2245.33 -0.599971 -1.847 0
M  V30 23269 O 2244.61 0.401491 -1.90311 0
M  V30 23270 C 2244.89 -3.10567 -1.82264 0
M  V30 23271 C 2244.75 -4.39182 -0.971555 0
M  V30 23272 C 2246.06 -3.39226 -2.80382 0
M  V30 23273 H 2243.18 -0.648287 -0.350561 0
M  V30 23274 H 2245.83 -1.88501 -0.238226 0
M  V30 23275 H 2243.98 -3.01913 -2.44501 0
M  V30 23276 H 2245.65 -4.59835 -0.367327 0
M  V30 23277 H 2243.89 -4.3292 -0.2762 0
M  V30 23278 H 2244.56 -5.28201 -1.60337 0
M  V30 23279 H 2247.04 -3.47889 -2.28281 0
M  V30 23280 H 2245.91 -4.3305 -3.37282 0
M  V30 23281 H 2246.17 -2.60491 -3.57207 0
M  V30 23282 N 2245.23 0.505704 -1.49266 0
M  V30 23283 C 2246.48 1.26199 -1.5875 0
M  V30 23284 C 2246.81 1.92296 -0.271261 0
M  V30 23285 O 2246.09 1.80491 0.724799 0
M  V30 23286 C 2246.37 2.33263 -2.74336 0
M  V30 23287 C 2246.22 1.71698 -4.1574 0
M  V30 23288 C 2247.54 3.3486 -2.85581 0
M  V30 23289 H 2244.66 0.457468 -0.577834 0
M  V30 23290 H 2247.3 0.560865 -1.81533 0
M  V30 23291 H 2245.45 2.93063 -2.55042 0
M  V30 23292 H 2247.13 1.15761 -4.46539 0
M  V30 23293 H 2245.37 1.02128 -4.21607 0
M  V30 23294 H 2246.04 2.49332 -4.92481 0
M  V30 23295 H 2248.52 2.85045 -3.03132 0
M  V30 23296 H 2247.39 4.0714 -3.68142 0
M  V30 23297 H 2247.65 3.969 -1.94739 0
M  V30 23298 N 2246.71 1.38262 0.756405 0
M  V30 23299 C 2247.64 1.37979 1.88372 0
M  V30 23300 C 2248.62 0.246111 1.6831 0
M  V30 23301 O 2249.81 0.448773 1.88944 0
M  V30 23302 C 2246.94 1.2013 3.25862 0
M  V30 23303 C 2245.89 2.30673 3.60519 0
M  V30 23304 C 2245.22 1.97932 4.96716 0
M  V30 23305 C 2246.52 3.72923 3.65686 0
M  V30 23306 H 2248.21 2.32315 1.88865 0
M  V30 23307 H 2245.76 1.11825 0.907253 0
M  V30 23308 H 2247.71 1.18559 4.04378 0
M  V30 23309 H 2246.44 0.222555 3.25841 0
M  V30 23310 H 2245.09 2.31425 2.8432 0
M  V30 23311 H 2244.74 0.98548 4.93252 0
M  V30 23312 H 2244.44 2.71965 5.20873 0
M  V30 23313 H 2245.97 1.97974 5.77615 0
M  V30 23314 H 2247.38 3.74216 4.34322 0
M  V30 23315 H 2245.78 4.46137 4.0135 0
M  V30 23316 H 2246.85 4.05441 2.6598 0
M  V30 23317 N 2248.19 -0.984277 1.23084 0
M  V30 23318 C 2249.43 -1.74015 1.07229 0
M  V30 23319 C 2249.79 -1.88106 -0.384733 0
M  V30 23320 O 2251 -2.6046 -0.664365 0
M  V30 23321 C 2249.27 -3.10291 1.77353 0
M  V30 23322 S 2250.83 -4.01508 1.77021 0
M  V30 23323 H 2247.64 -0.598495 0.383829 0
M  V30 23324 H 2250.25 -1.17619 1.5616 0
M  V30 23325 H 2248.95 -2.97684 2.82511 0
M  V30 23326 H 2248.48 -3.71756 1.28688 0
M  V30 23327 H 2250.5 -4.89276 0.826042 0
M  V30 23328 N 2249.67 -1.04192 -1.18244 0
M  V30 23329 C 2250.58 -0.644516 -2.25573 0
M  V30 23330 C 2251.59 0.329796 -1.70846 0
M  V30 23331 O 2252.77 0.184408 -2.00554 0
M  V30 23332 C 2249.84 -0.0149379 -3.46697 0
M  V30 23333 C 2248.9 -1.03841 -4.16552 0
M  V30 23334 C 2248.13 -0.438785 -5.31893 0
M  V30 23335 O 2248.35 0.754653 -5.65386 0
M  V30 23336 O 2247.29 -1.1681 -5.90457 0
M  V30 23337 H 2251.11 -1.53873 -2.61833 0
M  V30 23338 H 2248.7 -0.812876 -1.2535 0
M  V30 23339 H 2250.58 0.335464 -4.20063 0
M  V30 23340 H 2249.25 0.853083 -3.12257 0
M  V30 23341 H 2248.16 -1.44063 -3.45249 0
M  V30 23342 H 2249.49 -1.87724 -4.54995 0
M  V30 23343 N 2251.15 1.34492 -0.821557 0
M  V30 23344 C 2252.39 2.00146 -0.41482 0
M  V30 23345 C 2252.75 1.63721 1.00296 0
M  V30 23346 O 2253.95 2.22209 1.51251 0
M  V30 23347 C 2252.22 3.52165 -0.609465 0
M  V30 23348 S 2253.78 4.37805 -0.295374 0
M  V30 23349 H 2250.6 0.693494 -0.156802 0
M  V30 23350 H 2253.2 1.6381 -1.06707 0
M  V30 23351 H 2251.91 3.76163 -1.64103 0
M  V30 23352 H 2251.44 3.93358 0.0575723 0
M  V30 23353 H 2253.45 4.88127 0.891445 0
M  V30 23354 N 2252.62 0.576397 1.46681 0
M  V30 23355 C 2253.85 0.0649056 2.06498 0
M  V30 23356 C 2254.26 -1.24268 1.42668 0
M  V30 23357 O 2253.61 -1.7607 0.523917 0
M  V30 23358 C 2253.67 -0.181753 3.5904 0
M  V30 23359 C 2253.33 1.03928 4.45026 0
M  V30 23360 C 2254.33 1.94974 4.81955 0
M  V30 23361 C 2252.01 1.25935 4.86257 0
M  V30 23362 C 2254.01 3.06381 5.58936 0
M  V30 23363 C 2251.69 2.37648 5.62998 0
M  V30 23364 C 2252.69 3.277 5.99251 0
M  V30 23365 O 2252.38 4.37473 6.74442 0
M  V30 23366 H 2252.11 0.0516105 0.674027 0
M  V30 23367 H 2254.67 0.794984 1.89392 0
M  V30 23368 H 2252.9 -0.96637 3.7443 0
M  V30 23369 H 2254.59 -0.640977 4.00807 0
M  V30 23370 H 2255.35 1.79185 4.50686 0
M  V30 23371 H 2251.23 0.567529 4.57493 0
M  V30 23372 H 2254.77 3.76695 5.87151 0
M  V30 23373 H 2250.67 2.53402 5.93681 0
M  V30 23374 H 2251.44 4.35761 6.9286 0
M  V30 23375 N 2254.1 -1.54444 0.313841 0
M  V30 23376 C 2255.38 -1.92526 -0.345413 0
M  V30 23377 C 2255.76 -1.24245 -1.70665 0
M  V30 23378 O 2255.11 -0.382694 -2.25273 0
M  V30 23379 C 2255.32 -3.46122 -0.447309 0
M  V30 23380 C 2256.67 -4.18585 -0.712164 0
M  V30 23381 O 2257.69 -3.52226 -0.530616 0
M  V30 23382 O 2256.55 -5.36087 -1.06173 0
M  V30 23383 H 2253.64 -0.803586 -0.195393 0
M  V30 23384 H 2256.19 -1.65776 0.362842 0
M  V30 23385 H 2254.96 -3.87974 0.509111 0
M  V30 23386 H 2254.58 -3.78947 -1.20353 0
M  V30 23387 N 2255.58 -0.0418125 -1.57545 0
M  V30 23388 C 2256.54 0.920893 -2.09886 0
M  V30 23389 C 2257.54 1.24595 -1.0165 0
M  V30 23390 O 2258.73 1.18418 -1.27761 0
M  V30 23391 C 2255.87 2.23363 -2.57531 0
M  V30 23392 H 2257.06 0.467329 -2.96236 0
M  V30 23393 H 2254.61 0.20644 -1.54931 0
M  V30 23394 H 2255.35 2.7332 -1.74547 0
M  V30 23395 H 2255.13 2.01077 -3.36616 0
M  V30 23396 H 2256.62 2.9234 -2.98206 0
M  V30 23397 N 2257.06 1.55891 0.231477 0
M  V30 23398 C 2258.31 1.7809 0.955429 0
M  V30 23399 C 2258.63 0.608565 1.85261 0
M  V30 23400 O 2257.9 -0.375001 1.92277 0
M  V30 23401 H 2256.48 0.656836 0.355775 0
M  V30 23402 H 2259.14 1.93345 0.245717 0
M  V30 23403 H 2258.24 2.69847 1.56809 0
M  V30 23404 N 2258.54 -0.497781 1.49532 0
M  V30 23405 C 2259.5 -1.58125 1.65919 0
M  V30 23406 C 2260.5 -1.51785 0.530851 0
M  V30 23407 O 2261.69 -1.54879 0.79737 0
M  V30 23408 C 2258.82 -2.97777 1.65956 0
M  V30 23409 H 2260.01 -1.44924 2.62559 0
M  V30 23410 H 2257.57 -0.722251 1.38612 0
M  V30 23411 H 2258.3 -3.16452 0.70912 0
M  V30 23412 H 2258.09 -3.03788 2.47902 0
M  V30 23413 H 2259.58 -3.7649 1.80679 0
M  V30 23414 N 2260.01 -1.38661 -0.749062 0
M  V30 23415 C 2260.98 -1.36048 -1.84455 0
M  V30 23416 C 2261.98 -0.26015 -1.58682 0
M  V30 23417 O 2263.17 -0.517291 -1.66342 0
M  V30 23418 C 2260.3 -1.11916 -3.22006 0
M  V30 23419 H 2261.49 -2.33515 -1.88178 0
M  V30 23420 H 2259.05 -1.2402 -0.951244 0
M  V30 23421 H 2259.78 -0.150743 -3.23949 0
M  V30 23422 H 2259.57 -1.91585 -3.42108 0
M  V30 23423 H 2261.06 -1.12795 -4.02078 0
M  V30 23424 N 2261.49 0.977736 -1.23605 0
M  V30 23425 C 2262.74 1.72272 -1.08139 0
M  V30 23426 C 2263.09 1.88662 0.37742 0
M  V30 23427 O 2262.39 1.42974 1.2755 0
M  V30 23428 C 2262.58 3.11996 -1.74336 0
M  V30 23429 C 2262.41 3.09234 -3.26503 0
M  V30 23430 C 2261.18 3.14275 -3.95675 0
M  V30 23431 C 2263.38 2.92193 -4.23235 0
M  V30 23432 N 2261.36 3.01427 -5.34804 0
M  V30 23433 C 2262.73 2.87535 -5.49294 0
M  V30 23434 C 2264.79 2.76698 -4.13936 0
M  V30 23435 C 2263.49 2.68966 -6.6712 0
M  V30 23436 C 2265.52 2.59495 -5.31429 0
M  V30 23437 C 2264.88 2.55537 -6.56415 0
M  V30 23438 H 2260.98 0.639368 -0.450259 0
M  V30 23439 H 2263.56 1.15999 -1.56372 0
M  V30 23440 H 2261.73 3.66481 -1.28631 0
M  V30 23441 H 2263.46 3.75143 -1.51822 0
M  V30 23442 H 2260.22 3.22561 -3.46773 0
M  V30 23443 H 2260.64 2.9827 -6.07753 0
M  V30 23444 H 2265.28 2.78546 -3.18075 0
M  V30 23445 H 2263 2.65862 -7.63114 0
M  V30 23446 H 2266.59 2.48465 -5.26077 0
M  V30 23447 H 2265.47 2.42392 -7.45799 0
M  V30 23448 N 2262.97 1.04818 1.1769 0
M  V30 23449 C 2264.2 0.775162 1.91507 0
M  V30 23450 C 2264.61 -0.672498 1.76845 0
M  V30 23451 O 2263.95 -1.4708 1.10059 0
M  V30 23452 C 2264.01 1.07136 3.43165 0
M  V30 23453 C 2263.68 2.51445 3.81608 0
M  V30 23454 C 2264.68 3.49644 3.84766 0
M  V30 23455 C 2262.36 2.86355 4.12682 0
M  V30 23456 C 2264.35 4.80801 4.1846 0
M  V30 23457 C 2262.04 4.17716 4.46046 0
M  V30 23458 C 2263.04 5.14749 4.48912 0
M  V30 23459 O 2262.73 6.43755 4.81493 0
M  V30 23460 H 2262.46 0.281566 0.61457 0
M  V30 23461 H 2265.01 1.40101 1.50203 0
M  V30 23462 H 2263.24 0.38841 3.84744 0
M  V30 23463 H 2264.93 0.784953 3.98238 0
M  V30 23464 H 2265.7 3.24014 3.60888 0
M  V30 23465 H 2261.58 2.11494 4.09624 0
M  V30 23466 H 2265.12 5.56535 4.20613 0
M  V30 23467 H 2261.02 4.43111 4.69386 0
M  V30 23468 H 2261.79 6.48519 4.99365 0
M  V30 23469 N 2264.45 -1.34055 0.828678 0
M  V30 23470 C 2265.36 -2.33191 0.256766 0
M  V30 23471 C 2266.38 -1.62887 -0.611869 0
M  V30 23472 O 2267.55 -1.94614 -0.518406 0
M  V30 23473 C 2264.62 -3.42029 -0.567178 0
M  V30 23474 C 2263.68 -4.28072 0.324534 0
M  V30 23475 C 2262.91 -5.31712 -0.460181 0
M  V30 23476 O 2263.13 -5.44699 -1.6929 0
M  V30 23477 O 2262.07 -6.01686 0.160497 0
M  V30 23478 H 2265.89 -2.83945 1.07744 0
M  V30 23479 H 2263.48 -1.37216 0.590954 0
M  V30 23480 H 2265.36 -4.08473 -1.03575 0
M  V30 23481 H 2264.04 -2.93509 -1.36508 0
M  V30 23482 H 2262.94 -3.64531 0.840723 0
M  V30 23483 H 2264.28 -4.80048 1.08694 0
M  V30 23484 N 2265.93 -0.584167 -1.46374 0
M  V30 23485 C 2266.86 0.135996 -2.33104 0
M  V30 23486 C 2267.84 0.88223 -1.45433 0
M  V30 23487 O 2269.02 0.857403 -1.74248 0
M  V30 23488 C 2266.15 1.14928 -3.27733 0
M  V30 23489 C 2265.11 0.517788 -4.24856 0
M  V30 23490 C 2264.43 1.63764 -5.09004 0
M  V30 23491 C 2265.73 -0.545977 -5.19439 0
M  V30 23492 H 2267.43 -0.588137 -2.93567 0
M  V30 23493 H 2264.97 -0.284284 -1.41166 0
M  V30 23494 H 2266.93 1.66146 -3.87264 0
M  V30 23495 H 2265.65 1.9037 -2.6538 0
M  V30 23496 H 2264.31 0.0266716 -3.6659 0
M  V30 23497 H 2263.96 2.38177 -4.43036 0
M  V30 23498 H 2263.66 1.22075 -5.7478 0
M  V30 23499 H 2265.18 2.15256 -5.71399 0
M  V30 23500 H 2266.6 -0.118805 -5.73177 0
M  V30 23501 H 2264.99 -0.883274 -5.93564 0
M  V30 23502 H 2266.06 -1.4317 -4.63282 0
M  V30 23503 N 2267.41 1.54275 -0.322027 0
M  V30 23504 C 2268.63 2.04955 0.283016 0
M  V30 23505 C 2269.05 1.19825 1.45902 0
M  V30 23506 O 2268.41 0.228576 1.81063 0
M  V30 23507 C 2268.46 3.54278 0.718966 0
M  V30 23508 O 2268.18 4.36175 -0.410252 0
M  V30 23509 C 2269.68 4.21044 1.38698 0
M  V30 23510 H 2266.9 0.668449 0.0584499 0
M  V30 23511 H 2269.44 1.99078 -0.467769 0
M  V30 23512 H 2267.6 3.60448 1.41973 0
M  V30 23513 H 2268.01 5.24457 -0.0670338 0
M  V30 23514 H 2269.49 5.26982 1.64297 0
M  V30 23515 H 2269.96 3.72063 2.33379 0
M  V30 23516 H 2270.57 4.19008 0.728833 0
M  V30 23517 N 2268.88 0.0501669 1.5752 0
M  V30 23518 C 2270.29 -0.485673 1.80272 0
M  V30 23519 C 2270.65 -1.7098 0.96231 0
M  V30 23520 O 2269.77 -2.15662 0.178615 0
M  V30 23521 C 2270.37 -0.887881 3.26959 0
M  V30 23522 C 2268.92 -1.36871 3.50633 0
M  V30 23523 C 2268.07 -0.34342 2.75165 0
M  V30 23524 H 2271.02 0.276055 1.56281 0
M  V30 23525 H 2271.04 -1.75087 3.37824 0
M  V30 23526 H 2270.56 0.00324912 3.881 0
M  V30 23527 H 2268.66 -2.27906 2.9477 0
M  V30 23528 H 2268.77 -1.36156 4.59346 0
M  V30 23529 H 2267.13 -0.816086 2.41272 0
M  V30 23530 H 2267.92 0.539608 3.39033 0
M  V30 23531 N 2270.36 -1.56011 -0.223207 0
M  V30 23532 C 2271.32 -1.91452 -1.26011 0
M  V30 23533 C 2272.32 -0.792961 -1.39888 0
M  V30 23534 O 2273.51 -1.06073 -1.38182 0
M  V30 23535 C 2270.65 -2.16388 -2.63418 0
M  V30 23536 H 2271.84 -2.8419 -0.95791 0
M  V30 23537 H 2269.39 -1.49268 -0.46355 0
M  V30 23538 H 2270.13 -1.26196 -2.98739 0
M  V30 23539 H 2269.91 -2.98092 -2.54723 0
M  V30 23540 H 2271.4 -2.44909 -3.38245 0
M  V30 23541 N 2271.84 0.489844 -1.49794 0
M  V30 23542 C 2272.75 1.6163 -1.70038 0
M  V30 23543 C 2273.77 1.63938 -0.583131 0
M  V30 23544 O 2274.94 1.82153 -0.859201 0
M  V30 23545 C 2272.01 2.97946 -1.77282 0
M  V30 23546 C 2271.07 3.06176 -3.00923 0
M  V30 23547 C 2270.3 4.3599 -3.07812 0
M  V30 23548 O 2270.52 5.2543 -2.21991 0
M  V30 23549 O 2269.46 4.49424 -4.00377 0
M  V30 23550 H 2273.28 1.47477 -2.65489 0
M  V30 23551 H 2270.87 0.667339 -1.33667 0
M  V30 23552 H 2272.75 3.78944 -1.84336 0
M  V30 23553 H 2271.43 3.12337 -0.850131 0
M  V30 23554 H 2270.33 2.24325 -2.99381 0
M  V30 23555 H 2271.67 2.96716 -3.92709 0
M  V30 23556 N 2273.32 1.39056 0.741698 0
M  V30 23557 C 2274.55 1.39174 1.53095 0
M  V30 23558 C 2274.96 -0.0154767 1.88794 0
M  V30 23559 O 2274.32 -0.985132 1.53627 0
M  V30 23560 C 2274.37 2.25845 2.8227 0
M  V30 23561 O 2274.09 3.61086 2.4809 0
M  V30 23562 C 2275.59 2.34273 3.76339 0
M  V30 23563 H 2272.81 0.475608 0.473327 0
M  V30 23564 H 2275.35 1.82787 0.917013 0
M  V30 23565 H 2273.51 1.85662 3.40012 0
M  V30 23566 H 2273.92 4.06848 3.31021 0
M  V30 23567 H 2275.4 2.99178 4.63893 0
M  V30 23568 H 2275.87 1.35989 4.17617 0
M  V30 23569 H 2276.48 2.74896 3.24518 0
M  V30 23570 N 2274.8 -0.971167 1.24121 0
M  V30 23571 C 2276.02 -1.74872 1.10578 0
M  V30 23572 C 2276.44 -1.85677 -0.341984 0
M  V30 23573 O 2275.8 -1.3426 -1.23615 0
M  V30 23574 C 2275.85 -3.17097 1.73585 0
M  V30 23575 O 2275.57 -3.06839 3.127 0
M  V30 23576 C 2277.07 -4.11205 1.65605 0
M  V30 23577 H 2274.29 -0.548496 0.386513 0
M  V30 23578 H 2276.83 -1.21952 1.64158 0
M  V30 23579 H 2274.99 -3.67014 1.24015 0
M  V30 23580 H 2275.4 -3.96439 3.43419 0
M  V30 23581 H 2276.88 -5.08671 2.14379 0
M  V30 23582 H 2277.35 -4.3485 0.616608 0
M  V30 23583 H 2277.96 -3.67197 2.14584 0
M  V30 23584 N 2276.27 -1.05441 -1.17133 0
M  V30 23585 C 2277.52 -0.76711 -1.87732 0
M  V30 23586 C 2277.85 0.704221 -1.80982 0
M  V30 23587 O 2277.13 1.51517 -1.21954 0
M  V30 23588 C 2277.41 -1.25139 -3.37657 0
M  V30 23589 C 2277.26 -2.78584 -3.53145 0
M  V30 23590 C 2278.58 -0.8524 -4.31766 0
M  V30 23591 H 2275.7 -0.280141 -0.681682 0
M  V30 23592 H 2278.34 -1.30883 -1.3773 0
M  V30 23593 H 2276.49 -0.790536 -3.80372 0
M  V30 23594 H 2278.17 -3.32812 -3.19428 0
M  V30 23595 H 2276.41 -3.17737 -2.9534 0
M  V30 23596 H 2277.08 -3.07531 -4.58398 0
M  V30 23597 H 2279.56 -1.24918 -3.96906 0
M  V30 23598 H 2278.43 -1.21883 -5.35197 0
M  V30 23599 H 2278.69 0.243407 -4.41429 0
M  V30 23600 N 2277.75 1.33613 -0.835776 0
M  V30 23601 C 2279.17 1.50782 -0.523165 0
M  V30 23602 C 2279.37 1.77692 0.950139 0
M  V30 23603 O 2278.42 1.83537 1.73408 0
M  V30 23604 C 2279.74 2.66445 -1.39383 0
M  V30 23605 C 2281.29 2.80329 -1.39228 0
M  V30 23606 C 2281.76 3.99051 -2.24772 0
M  V30 23607 N 2283.25 4.0628 -2.22465 0
M  V30 23608 C 2283.99 4.9733 -2.85394 0
M  V30 23609 N 2283.48 5.93517 -3.57364 0
M  V30 23610 N 2285.28 4.90303 -2.74881 0
M  V30 23611 H 2277.43 1.14408 -1.78954 0
M  V30 23612 H 2279.69 0.562199 -0.763306 0
M  V30 23613 H 2279.4 2.5323 -2.44065 0
M  V30 23614 H 2279.27 3.61775 -1.06766 0
M  V30 23615 H 2281.66 2.92979 -0.353187 0
M  V30 23616 H 2281.74 1.8577 -1.7585 0
M  V30 23617 H 2281.38 3.87161 -3.28738 0
M  V30 23618 H 2281.31 4.92849 -1.85494 0
M  V30 23619 H 2283.8 3.3744 -1.70125 0
M  V30 23620 H 2284.12 6.59649 -4.02595 0
M  V30 23621 H 2282.46 5.93602 -3.61472 0
M  V30 23622 H 2285.65 4.14123 -2.1822 0
M  V30 23623 H 2285.82 5.61064 -3.24209 0
M  V30 23624 N 2279.23 0.591922 1.46062 0
M  V30 23625 C 2280.16 -0.123632 2.33172 0
M  V30 23626 C 2281.14 -0.874505 1.45899 0
M  V30 23627 O 2282.33 -0.84815 1.747 0
M  V30 23628 C 2279.46 -1.13188 3.28338 0
M  V30 23629 C 2278.41 -0.495249 4.25125 0
M  V30 23630 C 2277.74 -1.61063 5.09866 0
M  V30 23631 C 2279.04 0.573516 5.19142 0
M  V30 23632 H 2280.73 0.603698 2.9325 0
M  V30 23633 H 2278.28 0.291766 1.41013 0
M  V30 23634 H 2280.23 -1.6409 3.8814 0
M  V30 23635 H 2278.95 -1.8896 2.66386 0
M  V30 23636 H 2277.61 -0.00723008 3.66599 0
M  V30 23637 H 2277.26 -2.35824 4.44293 0
M  V30 23638 H 2276.96 -1.19025 5.75419 0
M  V30 23639 H 2278.48 -2.12223 5.72533 0
M  V30 23640 H 2279.9 0.149201 5.73106 0
M  V30 23641 H 2278.3 0.91474 5.93087 0
M  V30 23642 H 2279.37 1.45625 4.62516 0
M  V30 23643 N 2280.71 -1.54102 0.330204 0
M  V30 23644 C 2282.12 -1.59585 -0.022209 0
M  V30 23645 C 2282.32 -1.34656 -1.499 0
M  V30 23646 O 2281.38 -1.13425 -2.2559 0
M  V30 23647 C 2282.69 -2.98001 0.401984 0
M  V30 23648 C 2284.24 -3.11001 0.353199 0
M  V30 23649 C 2284.72 -4.51773 0.752656 0
M  V30 23650 N 2286.21 -4.57783 0.706319 0
M  V30 23651 C 2286.94 -5.64832 0.987516 0
M  V30 23652 N 2286.44 -6.79792 1.33619 0
M  V30 23653 N 2288.23 -5.54642 0.912638 0
M  V30 23654 H 2280.38 -1.68562 1.29231 0
M  V30 23655 H 2282.65 -0.788741 0.52592 0
M  V30 23656 H 2282.35 -3.21265 1.43115 0
M  V30 23657 H 2282.23 -3.765 -0.229633 0
M  V30 23658 H 2284.61 -2.87469 -0.666772 0
M  V30 23659 H 2284.69 -2.34591 1.01984 0
M  V30 23660 H 2284.34 -4.76039 1.77057 0
M  V30 23661 H 2284.27 -5.26562 0.0636335 0
M  V30 23662 H 2286.76 -3.75224 0.448956 0
M  V30 23663 H 2287.07 -7.57383 1.53595 0
M  V30 23664 H 2285.42 -6.81272 1.37451 0
M  V30 23665 H 2288.61 -4.63709 0.639683 0
M  V30 23666 H 2288.78 -6.3798 1.13514 0
M  V30 23667 N 2282.19 -0.0585199 -1.57491 0
M  V30 23668 C 2283.15 0.89858 -2.10851 0
M  V30 23669 C 2284.15 1.2351 -1.02966 0
M  V30 23670 O 2285.34 1.17056 -1.29009 0
M  V30 23671 C 2282.47 2.20618 -2.59885 0
M  V30 23672 H 2283.66 0.435883 -2.96715 0
M  V30 23673 H 2281.22 0.189995 -1.55141 0
M  V30 23674 H 2281.95 2.71454 -1.77436 0
M  V30 23675 H 2281.74 1.97495 -3.3873 0
M  V30 23676 H 2283.23 2.89161 -3.0129 0
M  V30 23677 N 2283.66 1.56128 0.21493 0
M  V30 23678 C 2284.89 1.83272 0.953675 0
M  V30 23679 C 2285.3 0.636294 1.7818 0
M  V30 23680 O 2284.65 -0.404485 1.79192 0
M  V30 23681 C 2284.71 3.04243 1.9151 0
M  V30 23682 C 2284.37 4.38974 1.27086 0
M  V30 23683 C 2285.37 5.15726 0.657485 0
M  V30 23684 C 2283.05 4.857 1.28065 0
M  V30 23685 C 2285.05 6.37369 0.0624847 0
M  V30 23686 C 2282.73 6.07285 0.681807 0
M  V30 23687 C 2283.73 6.8296 0.0737846 0
M  V30 23688 O 2283.42 8.02244 -0.515724 0
M  V30 23689 H 2283.15 0.6131 0.284753 0
M  V30 23690 H 2285.71 2.04071 0.233248 0
M  V30 23691 H 2283.94 2.79279 2.6747 0
M  V30 23692 H 2285.63 3.18203 2.51996 0
M  V30 23693 H 2286.39 4.80729 0.642204 0
M  V30 23694 H 2282.27 4.26767 1.7433 0
M  V30 23695 H 2285.81 6.96378 -0.412716 0
M  V30 23696 H 2281.71 6.41753 0.694523 0
M  V30 23697 H 2282.48 8.17469 -0.410688 0
M  V30 23698 N 2285.14 -0.481893 1.50052 0
M  V30 23699 C 2286.39 -1.23475 1.605 0
M  V30 23700 C 2286.72 -1.92167 0.300364 0
M  V30 23701 O 2285.97 -1.82247 -0.713062 0
M  V30 23702 C 2286.27 -2.30993 2.72721 0
M  V30 23703 C 2285.94 -1.79628 4.13575 0
M  V30 23704 C 2284.6 -1.6534 4.51903 0
M  V30 23705 C 2286.95 -1.41403 5.01652 0
M  V30 23706 C 2284.28 -1.11234 5.76059 0
M  V30 23707 C 2286.63 -0.887428 6.26345 0
M  V30 23708 C 2285.3 -0.731091 6.63484 0
M  V30 23709 H 2284.57 -0.451826 0.587311 0
M  V30 23710 H 2287.21 -0.532435 1.83949 0
M  V30 23711 H 2285.52 -3.07089 2.43317 0
M  V30 23712 H 2287.21 -2.88983 2.78011 0
M  V30 23713 H 2283.8 -1.91714 3.83332 0
M  V30 23714 H 2287.99 -1.51281 4.72681 0
M  V30 23715 H 2283.24 -0.978579 6.03518 0
M  V30 23716 H 2287.42 -0.582532 6.93959 0
M  V30 23717 H 2285.05 -0.309672 7.59569 0
M  V30 23718 N 2286.62 -1.39448 -0.734313 0
M  V30 23719 C 2287.57 -1.38367 -1.86969 0
M  V30 23720 C 2288.56 -0.266717 -1.67287 0
M  V30 23721 O 2289.77 -0.436786 -1.7462 0
M  V30 23722 H 2286.14 -0.432093 -0.615467 0
M  V30 23723 H 2288.11 -2.34135 -1.84996 0
M  V30 23724 C 2286.86 -1.2447 -3.24657 0
M  V30 23725 H 2286.19 -2.09688 -3.40399 0
M  V30 23726 H 2287.63 -1.27771 -4.0429 0
M  V30 23727 C 2286.09 0.0468082 -3.36867 0
M  V30 23728 O 2286.62 1.01675 -3.8862 0
M  V30 23729 N 2284.82 0.110094 -2.90391 0
M  V30 23730 H 2284.37 -0.679912 -2.48465 0
M  V30 23731 H 2284.33 0.973747 -2.98941 0
M  V30 23732 N 2288.1 0.964571 -1.24635 0
M  V30 23733 C 2289.33 1.74283 -1.11504 0
M  V30 23734 C 2289.74 1.85856 0.332133 0
M  V30 23735 O 2289.1 1.34913 1.22901 0
M  V30 23736 C 2289.15 3.16172 -1.75264 0
M  V30 23737 O 2288.87 3.05176 -3.14323 0
M  V30 23738 C 2290.37 4.10321 -1.67784 0
M  V30 23739 H 2287.59 0.546439 -0.389417 0
M  V30 23740 H 2290.14 1.2108 -1.64803 0
M  V30 23741 H 2288.29 3.66351 -1.2596 0
M  V30 23742 H 2288.7 3.94612 -3.45517 0
M  V30 23743 H 2290.18 5.07527 -2.17073 0
M  V30 23744 H 2290.66 4.34517 -0.639661 0
M  V30 23745 H 2291.26 3.66054 -2.16529 0
M  V30 23746 N 2289.58 1.0606 1.16572 0
M  V30 23747 C 2290.99 0.800661 1.6866 0
M  V30 23748 C 2291.34 -0.676048 1.84185 0
M  V30 23749 O 2290.46 -1.52464 1.5357 0
M  V30 23750 C 2291.06 1.44682 3.06354 0
M  V30 23751 C 2289.62 1.23471 3.55573 0
M  V30 23752 C 2288.76 1.52481 2.31613 0
M  V30 23753 H 2291.72 1.22439 1.00967 0
M  V30 23754 H 2291.74 0.860853 3.70634 0
M  V30 23755 H 2291.25 2.52157 2.95023 0
M  V30 23756 H 2289.35 0.179592 3.72167 0
M  V30 23757 H 2289.46 1.94578 4.37808 0
M  V30 23758 H 2287.83 0.945251 2.3651 0
M  V30 23759 H 2288.61 2.6111 2.22882 0
M  V30 23760 N 2291.06 -1.33168 0.84285 0
M  V30 23761 C 2292.3 -1.97261 0.439612 0
M  V30 23762 C 2292.62 -1.6708 -1.00545 0
M  V30 23763 O 2291.89 -0.971809 -1.70096 0
M  V30 23764 H 2290.47 -0.729758 0.159571 0
M  V30 23765 H 2293.14 -1.62461 1.07668 0
M  V30 23766 H 2292.23 -3.06759 0.57494 0
M  V30 23767 N 2292.53 -0.599659 -1.45746 0
M  V30 23768 C 2293.46 0.111265 -2.33235 0
M  V30 23769 C 2294.44 0.866755 -1.4636 0
M  V30 23770 O 2295.63 0.838873 -1.75147 0
M  V30 23771 C 2292.76 1.11445 -3.28934 0
M  V30 23772 C 2291.71 0.472697 -4.25382 0
M  V30 23773 C 2291.04 1.58356 -5.10713 0
M  V30 23774 C 2292.34 -0.60104 -5.1883 0
M  V30 23775 H 2294.03 -0.619241 -2.92926 0
M  V30 23776 H 2291.58 -0.29924 -1.40857 0
M  V30 23777 H 2293.53 1.62029 -3.89004 0
M  V30 23778 H 2292.26 1.87545 -2.67384 0
M  V30 23779 H 2290.92 -0.0122117 -3.66598 0
M  V30 23780 H 2290.56 2.33465 -4.45537 0
M  V30 23781 H 2290.26 1.15971 -5.76042 0
M  V30 23782 H 2291.79 2.09183 -5.7365 0
M  V30 23783 H 2293.2 -0.179592 -5.73019 0
M  V30 23784 H 2291.6 -0.94618 -5.92594 0
M  V30 23785 H 2292.67 -1.48076 -4.61738 0
M  V30 23786 N 2294.01 1.53925 -0.338371 0
M  V30 23787 C 2295.42 1.86123 0.146619 0
M  V30 23788 C 2295.77 1.25972 1.50417 0
M  V30 23789 O 2294.9 0.571331 2.08722 0
M  V30 23790 C 2295.49 3.377 0.27282 0
M  V30 23791 C 2294.05 3.69795 0.702038 0
M  V30 23792 C 2293.2 2.76795 -0.167352 0
M  V30 23793 H 2296.15 1.48561 -0.558149 0
M  V30 23794 H 2296.17 3.64216 1.10121 0
M  V30 23795 H 2295.68 3.8145 -0.715374 0
M  V30 23796 H 2293.78 3.31587 1.69944 0
M  V30 23797 H 2293.9 4.76531 0.49552 0
M  V30 23798 H 2292.26 2.5215 0.359483 0
M  V30 23799 H 2293.04 3.23373 -1.15258 0
M  V30 23800 N 2295.49 0.0668712 1.57458 0
M  V30 23801 C 2296.74 -0.604266 1.93588 0
M  V30 23802 C 2297.07 -1.69559 0.946752 0
M  V30 23803 O 2296.34 -1.94484 -0.0248174 0
M  V30 23804 C 2296.63 -1.18579 3.40016 0
M  V30 23805 C 2296.48 -0.10145 4.49686 0
M  V30 23806 C 2297.8 -2.09277 3.87158 0
M  V30 23807 H 2294.92 -0.21819 0.703962 0
M  V30 23808 H 2297.56 0.131837 1.89542 0
M  V30 23809 H 2295.71 -1.81313 3.43595 0
M  V30 23810 H 2297.38 0.53136 4.58229 0
M  V30 23811 H 2295.62 0.568562 4.30058 0
M  V30 23812 H 2296.3 -0.548643 5.49267 0
M  V30 23813 H 2298.77 -1.56485 3.85554 0
M  V30 23814 H 2297.65 -2.46903 4.90235 0
M  V30 23815 H 2297.91 -2.99912 3.24816 0
M  V30 23816 N 2296.97 -1.56239 -0.206647 0
M  V30 23817 C 2298.21 -1.81725 -0.935708 0
M  V30 23818 C 2298.57 -0.642641 -1.80926 0
M  V30 23819 O 2299.77 -0.777126 -2.57321 0
M  V30 23820 C 2298.04 -3.1218 -1.74006 0
M  V30 23821 S 2299.6 -3.59032 -2.52273 0
M  V30 23822 H 2296.42 -0.63788 -0.314053 0
M  V30 23823 H 2299.02 -1.94474 -0.200037 0
M  V30 23824 H 2297.73 -3.95695 -1.08873 0
M  V30 23825 H 2297.26 -3.02278 -2.51777 0
M  V30 23826 H 2299.27 -3.23551 -3.76203 0
M  V30 23827 N 2298.45 0.473929 -1.50305 0
M  V30 23828 C 2299.38 1.58968 -1.65112 0
M  V30 23829 C 2300.39 1.53838 -0.532703 0
M  V30 23830 O 2301.58 1.59278 -0.805779 0
M  V30 23831 C 2298.68 2.97842 -1.61689 0
M  V30 23832 C 2297.85 3.27871 -2.89516 0
M  V30 23833 C 2296.91 4.46285 -2.78775 0
M  V30 23834 O 2295.94 4.46733 -3.5273 0
M  V30 23835 N 2297.14 5.4778 -1.9214 0
M  V30 23836 H 2299.9 1.46684 -2.6135 0
M  V30 23837 H 2297.47 0.662298 -1.47734 0
M  V30 23838 H 2299.46 3.75022 -1.52121 0
M  V30 23839 H 2298.03 3.03909 -0.731979 0
M  V30 23840 H 2297.25 2.39331 -3.13232 0
M  V30 23841 H 2298.54 3.44744 -3.74205 0
M  V30 23842 H 2297.93 5.50237 -1.31363 0
M  V30 23843 H 2296.49 6.23955 -1.88477 0
M  V30 23844 N 2299.92 1.39835 0.726907 0
M  V30 23845 C 2301.2 1.28004 1.479 0
M  V30 23846 C 2301.58 -0.106752 2.1083 0
M  V30 23847 O 2300.93 -1.11866 1.99244 0
M  V30 23848 C 2301.14 2.41042 2.52388 0
M  V30 23849 C 2302.49 2.80743 3.18541 0
M  V30 23850 O 2303.51 2.40552 2.62704 0
M  V30 23851 O 2302.37 3.50142 4.19598 0
M  V30 23852 H 2299.46 0.502074 0.657154 0
M  V30 23853 H 2302.01 1.51728 0.760044 0
M  V30 23854 H 2300.78 3.33718 2.04323 0
M  V30 23855 H 2300.4 2.19027 3.31833 0
M  V30 23856 N 2301.4 -0.957948 1.25144 0
M  V30 23857 C 2302.35 -2.03948 1.01928 0
M  V30 23858 C 2303.34 -1.60843 -0.0426892 0
M  V30 23859 O 2304.53 -1.7616 0.172241 0
M  V30 23860 C 2301.66 -3.37349 0.636432 0
M  V30 23861 C 2300.74 -3.86987 1.73498 0
M  V30 23862 N 2301.13 -4.09454 2.96953 0
M  V30 23863 C 2299.43 -4.15743 1.61474 0
M  V30 23864 C 2300.13 -4.50308 3.68235 0
M  V30 23865 N 2299.11 -4.56047 2.95841 0
M  V30 23866 H 2302.91 -2.19307 1.95657 0
M  V30 23867 H 2300.42 -1.14251 1.15415 0
M  V30 23868 H 2302.42 -4.1445 0.451306 0
M  V30 23869 H 2301.08 -3.2337 -0.293565 0
M  V30 23870 H 2302.09 -3.96623 3.33032 0
M  V30 23871 H 2298.77 -4.10645 0.753467 0
M  V30 23872 H 2300.16 -4.76022 4.74186 0
M  V30 23873 N 2302.88 -1.06677 -1.16008 0
M  V30 23874 C 2303.81 -0.702346 -2.22687 0
M  V30 23875 C 2304.79 0.307003 -1.67307 0
M  V30 23876 O 2305.98 0.181271 -1.93352 0
M  V30 23877 C 2303.11 -0.092099 -3.47178 0
M  V30 23878 C 2302.06 -1.02785 -4.15475 0
M  V30 23879 C 2301.39 -0.280704 -5.33963 0
M  V30 23880 C 2302.69 -2.35854 -4.66015 0
M  V30 23881 H 2304.38 -1.59423 -2.53426 0
M  V30 23882 H 2301.93 -0.767982 -1.21811 0
M  V30 23883 H 2303.88 0.17474 -4.21038 0
M  V30 23884 H 2302.6 0.834821 -3.1575 0
M  V30 23885 H 2301.26 -1.2795 -3.43547 0
M  V30 23886 H 2300.91 0.649458 -4.9879 0
M  V30 23887 H 2300.61 -0.90436 -5.80599 0
M  V30 23888 H 2302.13 -0.0215033 -6.10596 0
M  V30 23889 H 2303.55 -2.15054 -5.31436 0
M  V30 23890 H 2301.94 -2.93752 -5.23288 0
M  V30 23891 H 2303.01 -2.98648 -3.82018 0
M  V30 23892 N 2304.36 1.32719 -0.8499 0
M  V30 23893 C 2305.27 2.32753 -0.293832 0
M  V30 23894 C 2306.28 1.6384 0.585878 0
M  V30 23895 O 2307.46 1.95414 0.487379 0
M  V30 23896 C 2304.52 3.42888 0.512692 0
M  V30 23897 C 2303.59 4.27501 -0.392595 0
M  V30 23898 C 2302.82 5.32377 0.375532 0
M  V30 23899 O 2303.04 5.47323 1.60603 0
M  V30 23900 O 2301.98 6.01354 -0.2562 0
M  V30 23901 H 2305.8 2.82195 -1.12247 0
M  V30 23902 H 2303.39 1.36258 -0.612709 0
M  V30 23903 H 2305.27 4.10069 0.970632 0
M  V30 23904 H 2303.94 2.95643 1.31821 0
M  V30 23905 H 2302.85 3.63147 -0.89861 0
M  V30 23906 H 2304.18 4.78258 -1.16317 0
M  V30 23907 N 2305.84 0.60738 1.45426 0
M  V30 23908 C 2307.08 0.102491 2.0224 0
M  V30 23909 C 2307.41 -1.26688 1.47582 0
M  V30 23910 O 2306.67 -1.84922 0.6405 0
M  V30 23911 C 2306.97 0.0129891 3.57398 0
M  V30 23912 C 2306.63 1.318 4.31207 0
M  V30 23913 C 2305.29 1.67547 4.51089 0
M  V30 23914 C 2307.65 2.18047 4.73397 0
M  V30 23915 C 2304.97 2.89294 5.10417 0
M  V30 23916 C 2307.33 3.39043 5.34072 0
M  V30 23917 C 2305.99 3.75043 5.52177 0
M  V30 23918 H 2305.26 0.037504 0.74005 0
M  V30 23919 H 2307.91 0.788956 1.74493 0
M  V30 23920 H 2306.21 -0.756739 3.84423 0
M  V30 23921 H 2307.91 -0.393811 3.99062 0
M  V30 23922 H 2304.5 1.02976 4.16046 0
M  V30 23923 H 2308.68 1.91729 4.5777 0
M  V30 23924 H 2303.94 3.17292 5.22624 0
M  V30 23925 H 2308.11 4.06125 5.65717 0
M  V30 23926 H 2305.74 4.69468 5.97916 0
M  V30 23927 N 2307.31 -1.53743 0.34653 0
M  V30 23928 C 2308.56 -2.01954 -0.2421 0
M  V30 23929 C 2308.92 -1.22986 -1.4796 0
M  V30 23930 O 2308.21 -0.309957 -1.89076 0
M  V30 23931 C 2308.4 -3.52229 -0.605747 0
M  V30 23932 C 2308.23 -4.45747 0.59496 0
M  V30 23933 C 2307 -4.93155 1.10119 0
M  V30 23934 C 2309.2 -4.93309 1.45434 0
M  V30 23935 N 2307.18 -5.70632 2.26391 0
M  V30 23936 C 2308.55 -5.68938 2.46393 0
M  V30 23937 C 2310.61 -4.75413 1.47943 0
M  V30 23938 C 2309.31 -6.28574 3.49695 0
M  V30 23939 C 2311.34 -5.35901 2.50128 0
M  V30 23940 C 2310.7 -6.114 3.49813 0
M  V30 23941 H 2306.8 -0.780281 -0.0518159 0
M  V30 23942 H 2309.38 -1.88517 0.48677 0
M  V30 23943 H 2307.55 -3.65866 -1.30372 0
M  V30 23944 H 2309.28 -3.87181 -1.17782 0
M  V30 23945 H 2306.04 -4.68854 0.668804 0
M  V30 23946 H 2306.46 -6.14039 2.85105 0
M  V30 23947 H 2311.11 -4.16584 0.722347 0
M  V30 23948 H 2308.82 -6.8651 4.26297 0
M  V30 23949 H 2312.41 -5.23958 2.52901 0
M  V30 23950 H 2311.29 -6.57373 4.27587 0
M  V30 23951 N 2308.79 -0.0752207 -1.5742 0
M  V30 23952 C 2309.7 0.905473 -2.16422 0
M  V30 23953 C 2310.72 1.32459 -1.1283 0
M  V30 23954 O 2311.89 1.39659 -1.45112 0
M  V30 23955 C 2308.96 2.15365 -2.71696 0
M  V30 23956 C 2308.02 1.79061 -3.90174 0
M  V30 23957 C 2307.25 2.97928 -4.42803 0
M  V30 23958 O 2307.48 4.12051 -3.94423 0
M  V30 23959 O 2306.41 2.77546 -5.3409 0
M  V30 23960 H 2310.24 0.433573 -3.00589 0
M  V30 23961 H 2307.82 0.148041 -1.48665 0
M  V30 23962 H 2309.7 2.88551 -3.07109 0
M  V30 23963 H 2308.38 2.61646 -1.90587 0
M  V30 23964 H 2307.29 1.03116 -3.59608 0
M  V30 23965 H 2308.62 1.3756 -4.72587 0
M  V30 23966 N 2310.27 1.56347 0.198358 0
M  V30 23967 C 2311.23 1.93433 1.22949 0
M  V30 23968 C 2312.23 0.815116 1.38609 0
M  V30 23969 O 2313.42 1.08258 1.36477 0
M  V30 23970 C 2310.56 2.20551 2.59942 0
M  V30 23971 H 2311.75 2.85678 0.912576 0
M  V30 23972 H 2309.3 1.49986 0.439744 0
M  V30 23973 H 2310.04 1.30932 2.96694 0
M  V30 23974 H 2309.82 3.02107 2.49948 0
M  V30 23975 H 2311.31 2.50259 3.34306 0
M  V30 23976 N 2311.75 -0.465951 1.50554 0
M  V30 23977 C 2312.99 -1.21946 1.6204 0
M  V30 23978 C 2313.33 -1.91509 0.32215 0
M  V30 23979 O 2312.6 -1.82349 -0.676691 0
M  V30 23980 C 2312.89 -2.25907 2.80425 0
M  V30 23981 C 2312.74 -1.60615 4.20146 0
M  V30 23982 C 2314.06 -3.27171 2.94359 0
M  V30 23983 H 2311.18 -0.441987 0.589759 0
M  V30 23984 H 2313.82 -0.512538 1.82956 0
M  V30 23985 H 2311.97 -2.86198 2.62722 0
M  V30 23986 H 2313.64 -1.03881 4.49451 0
M  V30 23987 H 2311.88 -0.909137 4.24166 0
M  V30 23988 H 2312.55 -2.36187 4.98919 0
M  V30 23989 H 2315.03 -2.76907 3.10583 0
M  V30 23990 H 2313.91 -3.97236 3.78807 0
M  V30 23991 H 2314.17 -3.91597 2.05193 0
M  V30 23992 N 2313.23 -1.40218 -0.719481 0
M  V30 23993 C 2314.47 -1.38285 -1.4793 0
M  V30 23994 C 2314.8 0.0161194 -1.94493 0
M  V30 23995 O 2314.06 0.999926 -1.68226 0
M  V30 23996 C 2314.36 -2.31529 -2.72267 0
M  V30 23997 C 2314.02 -3.78861 -2.4449 0
M  V30 23998 C 2312.68 -4.19002 -2.36624 0
M  V30 23999 C 2315.04 -4.71981 -2.21096 0
M  V30 24000 C 2312.36 -5.50304 -2.03427 0
M  V30 24001 C 2314.72 -6.03577 -1.89413 0
M  V30 24002 C 2313.38 -6.42765 -1.80026 0
M  V30 24003 H 2312.65 -0.506022 -0.541316 0
M  V30 24004 H 2315.3 -1.72843 -0.824472 0
M  V30 24005 H 2313.6 -1.90143 -3.42568 0
M  V30 24006 H 2315.3 -2.27318 -3.30344 0
M  V30 24007 H 2311.89 -3.47055 -2.51497 0
M  V30 24008 H 2316.07 -4.4179 -2.26131 0
M  V30 24009 H 2311.33 -5.79572 -1.94695 0
M  V30 24010 H 2315.5 -6.7525 -1.70324 0
M  V30 24011 H 2313.13 -7.44424 -1.5407 0
M  V30 24012 N 2314.7 0.951297 -1.25651 0
M  V30 24013 C 2315.93 1.7309 -1.13346 0
M  V30 24014 C 2316.35 1.86197 0.312401 0
M  V30 24015 O 2315.7 1.36209 1.21463 0
M  V30 24016 C 2315.76 3.14295 -1.78607 0
M  V30 24017 O 2315.48 3.01825 -3.17542 0
M  V30 24018 C 2316.98 4.08519 -1.72126 0
M  V30 24019 H 2314.2 0.542278 -0.395191 0
M  V30 24020 H 2316.74 1.19325 -1.66078 0
M  V30 24021 H 2314.9 3.64994 -1.29839 0
M  V30 24022 H 2315.31 3.90925 -3.49683 0
M  V30 24023 H 2316.78 5.05196 -2.22444 0
M  V30 24024 H 2317.26 4.33814 -0.685711 0
M  V30 24025 H 2317.87 3.63737 -2.20399 0
M  V30 24026 N 2316.18 1.07291 1.1544 0
M  V30 24027 C 2317.43 0.794129 1.85844 0
M  V30 24028 C 2317.75 -0.681776 1.82693 0
M  V30 24029 O 2317.02 -1.49375 1.26744 0
M  V30 24030 H 2315.6 0.290775 0.688083 0
M  V30 24031 H 2318.26 1.35652 1.39945 0
M  V30 24032 H 2317.36 1.12809 2.90999 0
M  V30 24033 N 2317.66 -1.32267 0.856927 0
M  V30 24034 C 2318.59 -2.31316 0.318621 0
M  V30 24035 C 2319.57 -1.5978 -0.583459 0
M  V30 24036 O 2320.76 -1.87567 -0.503226 0
M  V30 24037 C 2317.89 -3.43799 -0.491918 0
M  V30 24038 C 2316.84 -4.26832 0.315924 0
M  V30 24039 C 2316.17 -5.31099 -0.619492 0
M  V30 24040 C 2317.47 -4.98991 1.54291 0
M  V30 24041 H 2319.16 -2.76589 1.14626 0
M  V30 24042 H 2316.71 -1.32973 0.552637 0
M  V30 24043 H 2318.66 -4.12132 -0.878939 0
M  V30 24044 H 2317.38 -2.97259 -1.35294 0
M  V30 24045 H 2316.04 -3.60149 0.684728 0
M  V30 24046 H 2315.69 -4.80813 -1.47742 0
M  V30 24047 H 2315.39 -5.87541 -0.0829589 0
M  V30 24048 H 2316.91 -6.02295 -1.00364 0
M  V30 24049 H 2318.33 -5.59993 1.22806 0
M  V30 24050 H 2316.73 -5.65168 2.01755 0
M  V30 24051 H 2317.8 -4.26724 2.30292 0
M  V30 24052 N 2319.14 -0.615084 -1.45102 0
M  V30 24053 C 2320.37 -0.119806 -2.06553 0
M  V30 24054 C 2320.78 1.19896 -1.45844 0
M  V30 24055 O 2320.14 1.73193 -0.575355 0
M  V30 24056 C 2320.19 0.0183005 -3.61495 0
M  V30 24057 O 2319.91 -1.2483 -4.19939 0
M  V30 24058 C 2321.41 0.54416 -4.39947 0
M  V30 24059 H 2318.63 -0.0722856 -0.667095 0
M  V30 24060 H 2321.18 -0.844942 -1.86228 0
M  V30 24061 H 2319.33 0.693798 -3.81137 0
M  V30 24062 H 2319.74 -1.08279 -5.13202 0
M  V30 24063 H 2321.22 0.589856 -5.48839 0
M  V30 24064 H 2321.7 1.56798 -4.10257 0
M  V30 24065 H 2322.3 -0.0975451 -4.25188 0
M  V30 24066 N 2320.62 1.53557 -0.354678 0
M  V30 24067 C 2321.57 2.22151 0.51314 0
M  V30 24068 C 2322.55 1.21283 1.05732 0
M  V30 24069 O 2323.74 1.4678 0.989176 0
M  V30 24070 C 2320.87 3.00612 1.65792 0
M  V30 24071 C 2319.96 4.08847 1.12714 0
M  V30 24072 N 2320.35 5.04796 0.318474 0
M  V30 24073 C 2318.65 4.23358 1.40299 0
M  V30 24074 C 2319.35 5.81693 0.0291202 0
M  V30 24075 N 2318.32 5.40009 0.623796 0
M  V30 24076 H 2322.13 2.93688 -0.111637 0
M  V30 24077 H 2319.64 1.61589 -0.16212 0
M  V30 24078 H 2321.64 3.48262 2.2917 0
M  V30 24079 H 2320.3 2.30604 2.28587 0
M  V30 24080 H 2321.31 5.17883 -0.0414001 0
M  V30 24081 H 2317.99 3.64573 2.03452 0
M  V30 24082 H 2319.38 6.68997 -0.623926 0
M  V30 24083 N 2322.1 0.083568 1.57378 0
M  V30 24084 C 2323.34 -0.582464 1.93107 0
M  V30 24085 C 2323.66 -1.70051 0.96654 0
M  V30 24086 O 2324.86 -2.42691 1.2171 0
M  V30 24087 C 2323.32 -1.08745 3.43078 0
M  V30 24088 C 2322.93 0.000225151 4.48 0
M  V30 24089 C 2324.67 -1.72687 3.87788 0
M  V30 24090 C 2322.58 -0.519464 5.89114 0
M  V30 24091 H 2321.51 -0.221345 0.720779 0
M  V30 24092 H 2324.16 0.157707 1.82821 0
M  V30 24093 H 2322.54 -1.88095 3.48477 0
M  V30 24094 H 2323.72 0.775279 4.54231 0
M  V30 24095 H 2322.03 0.544133 4.12829 0
M  V30 24096 H 2324.63 -2.12621 4.90608 0
M  V30 24097 H 2324.97 -2.59152 3.258 0
M  V30 24098 H 2325.5 -0.999389 3.85042 0
M  V30 24099 H 2322.24 0.308301 6.54775 0
M  V30 24100 H 2321.76 -1.26178 5.86378 0
M  V30 24101 H 2323.44 -0.992125 6.39348 0
M  V30 24102 N 2323.57 -1.5645 -0.190064 0
M  V30 24103 C 2324.85 -1.71759 -0.935856 0
M  V30 24104 C 2325.23 -0.639761 -2.01172 0
M  V30 24105 O 2324.58 0.348462 -2.25827 0
M  V30 24106 C 2324.79 -3.14272 -1.51769 0
M  V30 24107 C 2326.14 -3.7466 -1.99788 0
M  V30 24108 O 2327.16 -3.17432 -1.61602 0
M  V30 24109 O 2326.02 -4.75104 -2.7007 0
M  V30 24110 H 2323.11 -0.700727 -0.439216 0
M  V30 24111 H 2325.66 -1.68749 -0.179365 0
M  V30 24112 H 2324.43 -3.84192 -0.742438 0
M  V30 24113 H 2324.05 -3.21531 -2.33888 0
M  V30 24114 N 2325.05 0.45796 -1.50799 0
M  V30 24115 C 2326.01 1.53671 -1.70053 0
M  V30 24116 C 2327.01 1.50324 -0.570908 0
M  V30 24117 O 2328.2 1.52711 -0.838153 0
M  V30 24118 C 2325.34 2.93273 -1.73793 0
M  V30 24119 H 2326.53 1.37912 -2.66309 0
M  V30 24120 H 2324.08 0.685246 -1.40478 0
M  V30 24121 H 2324.82 3.14461 -0.792773 0
M  V30 24122 H 2324.6 2.97108 -2.55869 0
M  V30 24123 H 2326.09 3.71567 -1.90598 0
M  V30 24124 N 2326.53 1.40598 0.712035 0
M  V30 24125 C 2327.48 1.37622 1.81781 0
M  V30 24126 C 2328.46 0.25319 1.58895 0
M  V30 24127 O 2329.66 0.492577 1.70008 0
M  V30 24128 C 2326.78 1.24468 3.19942 0
M  V30 24129 C 2325.87 2.41566 3.48578 0
M  V30 24130 N 2326.26 3.67047 3.48009 0
M  V30 24131 C 2324.56 2.35023 3.79052 0
M  V30 24132 C 2325.26 4.44616 3.75089 0
M  V30 24133 N 2324.24 3.74504 3.94015 0
M  V30 24134 H 2328.04 2.32578 1.79679 0
M  V30 24135 H 2325.55 1.3442 0.911316 0
M  V30 24136 H 2327.55 1.20418 3.99131 0
M  V30 24137 H 2326.21 0.304819 3.23266 0
M  V30 24138 H 2327.22 4.00159 3.28775 0
M  V30 24139 H 2323.9 1.49422 3.89845 0
M  V30 24140 H 2325.29 5.53486 3.80924 0
M  V30 24141 N 2328.01 -0.94462 1.26153 0
M  V30 24142 C 2329.25 -1.69042 1.11495 0
M  V30 24143 C 2329.58 -1.91464 -0.342333 0
M  V30 24144 O 2328.84 -1.49056 -1.2681 0
M  V30 24145 C 2329.14 -3.07265 1.82547 0
M  V30 24146 C 2328.8 -3.0461 3.32451 0
M  V30 24147 C 2327.46 -3.03593 3.73342 0
M  V30 24148 C 2329.82 -2.97178 4.28176 0
M  V30 24149 C 2327.14 -2.92906 5.08353 0
M  V30 24150 C 2329.5 -2.88031 5.63223 0
M  V30 24151 C 2328.16 -2.85356 6.03431 0
M  V30 24152 H 2327.43 -0.618568 0.407988 0
M  V30 24153 H 2330.08 -1.10288 1.56553 0
M  V30 24154 H 2328.38 -3.69623 1.29948 0
M  V30 24155 H 2330.08 -3.63812 1.68648 0
M  V30 24156 H 2326.67 -3.06179 2.9992 0
M  V30 24157 H 2330.85 -2.97074 3.97568 0
M  V30 24158 H 2326.11 -2.89209 5.38672 0
M  V30 24159 H 2330.28 -2.81243 6.37083 0
M  V30 24160 H 2327.91 -2.7683 7.08004 0
M  V30 24161 N 2329.49 -1.07901 -1.1487 0
M  V30 24162 C 2330.42 -0.725926 -2.21929 0
M  V30 24163 C 2331.4 0.289241 -1.67623 0
M  V30 24164 O 2332.58 0.160753 -1.93534 0
M  V30 24165 C 2329.71 -0.128917 -3.47061 0
M  V30 24166 C 2328.67 -1.07186 -4.14361 0
M  V30 24167 C 2327.99 -0.337322 -5.33635 0
M  V30 24168 C 2329.29 -2.40783 -4.63488 0
M  V30 24169 H 2330.99 -1.62102 -2.51721 0
M  V30 24170 H 2328.53 -0.780859 -1.2099 0
M  V30 24171 H 2330.48 0.130073 -4.21199 0
M  V30 24172 H 2329.21 0.801285 -3.16618 0
M  V30 24173 H 2327.87 -1.31586 -3.42171 0
M  V30 24174 H 2327.52 0.596518 -4.9945 0
M  V30 24175 H 2327.22 -0.96589 -5.79607 0
M  V30 24176 H 2328.74 -0.086264 -6.10539 0
M  V30 24177 H 2330.15 -2.20678 -5.29126 0
M  V30 24178 H 2328.55 -2.99285 -5.20143 0
M  V30 24179 H 2329.62 -3.02683 -3.78829 0
M  V30 24180 N 2330.96 1.31811 -0.863929 0
M  V30 24181 C 2332.19 2.01642 -0.485305 0
M  V30 24182 C 2332.61 1.64455 0.913029 0
M  V30 24183 O 2331.97 0.850013 1.60139 0
M  V30 24184 C 2332.02 3.54827 -0.642687 0
M  V30 24185 O 2331.12 4.11152 0.320587 0
M  V30 24186 H 2330.46 0.635087 -0.193804 0
M  V30 24187 H 2332.99 1.68146 -1.16568 0
M  V30 24188 H 2333 4.04494 -0.533699 0
M  V30 24189 H 2331.68 3.81234 -1.66233 0
M  V30 24190 H 2330.26 3.72526 0.167061 0
M  V30 24191 N 2332.44 0.62277 1.44773 0
M  V30 24192 C 2333.37 -0.125445 2.28856 0
M  V30 24193 C 2334.39 -0.817044 1.40813 0
M  V30 24194 O 2335.58 -0.679889 1.65045 0
M  V30 24195 C 2332.68 -1.19944 3.16965 0
M  V30 24196 C 2331.85 -0.591988 4.33375 0
M  V30 24197 C 2330.91 -1.55884 5.0258 0
M  V30 24198 O 2329.93 -1.07923 5.58875 0
M  V30 24199 N 2331.14 -2.89325 5.03261 0
M  V30 24200 H 2333.9 0.596119 2.93712 0
M  V30 24201 H 2331.46 0.46333 1.55129 0
M  V30 24202 H 2333.45 -1.84638 3.60126 0
M  V30 24203 H 2332.02 -1.82333 2.53916 0
M  V30 24204 H 2331.24 0.233391 3.93508 0
M  V30 24205 H 2332.53 -0.166649 5.08527 0
M  V30 24206 H 2331.93 -3.30879 4.58842 0
M  V30 24207 H 2330.49 -3.49402 5.50238 0
M  V30 24208 N 2333.92 -1.53367 0.362817 0
M  V30 24209 C 2335.15 -2.05634 -0.228577 0
M  V30 24210 C 2335.56 -1.23651 -1.42674 0
M  V30 24211 O 2334.92 -0.276502 -1.80393 0
M  V30 24212 C 2334.97 -3.5606 -0.624783 0
M  V30 24213 O 2334.69 -4.34934 0.525752 0
M  V30 24214 C 2336.19 -4.24573 -1.27486 0
M  V30 24215 H 2333.41 -0.669764 -0.0407066 0
M  V30 24216 H 2335.96 -1.97768 0.520386 0
M  V30 24217 H 2334.11 -3.64085 -1.32366 0
M  V30 24218 H 2334.53 -5.24095 0.206061 0
M  V30 24219 H 2336 -5.31153 -1.50267 0
M  V30 24220 H 2336.48 -3.7812 -2.23432 0
M  V30 24221 H 2337.08 -4.20794 -0.617484 0
M  V30 24222 N 2335.4 -0.091913 -1.57332 0
M  V30 24223 C 2336.35 0.868173 -2.13849 0
M  V30 24224 C 2337.32 1.28194 -1.0562 0
M  V30 24225 O 2338.5 1.36425 -1.3339 0
M  V30 24226 C 2335.64 2.12307 -2.72065 0
M  V30 24227 C 2334.75 1.76013 -3.94517 0
M  V30 24228 C 2333.89 2.96265 -4.40908 0
M  V30 24229 C 2332.93 2.56082 -5.55957 0
M  V30 24230 N 2332.06 3.69159 -5.97215 0
M  V30 24231 H 2336.9 0.379354 -2.95576 0
M  V30 24232 H 2334.44 0.17558 -1.46048 0
M  V30 24233 H 2336.4 2.85795 -3.03936 0
M  V30 24234 H 2335.03 2.58695 -1.93072 0
M  V30 24235 H 2334.08 0.92507 -3.68981 0
M  V30 24236 H 2335.39 1.42464 -4.78022 0
M  V30 24237 H 2334.55 3.78009 -4.74546 0
M  V30 24238 H 2333.29 3.33022 -3.56297 0
M  V30 24239 H 2332.29 1.72764 -5.21951 0
M  V30 24240 H 2333.52 2.20473 -6.42315 0
M  V30 24241 H 2331.46 4.0564 -5.1555 0
M  V30 24242 H 2331.38 3.39444 -6.7551 0
M  V30 24243 H 2332.65 4.51423 -6.35482 0
M  V30 24244 N 2336.88 1.56548 0.181765 0
M  V30 24245 C 2337.81 1.92144 1.24953 0
M  V30 24246 C 2338.82 0.813446 1.41021 0
M  V30 24247 O 2340.01 1.09188 1.4121 0
M  V30 24248 C 2337.11 2.14991 2.61977 0
M  V30 24249 C 2336.28 3.46188 2.67344 0
M  V30 24250 C 2335.34 3.57987 3.85657 0
M  V30 24251 O 2334.37 4.30697 3.72141 0
M  V30 24252 N 2335.57 2.92062 5.01677 0
M  V30 24253 H 2338.34 2.84336 0.947279 0
M  V30 24254 H 2335.9 1.57578 0.371602 0
M  V30 24255 H 2337.89 2.2016 3.39576 0
M  V30 24256 H 2336.46 1.29235 2.84635 0
M  V30 24257 H 2335.68 3.52769 1.75919 0
M  V30 24258 H 2336.97 4.32539 2.67931 0
M  V30 24259 H 2336.36 2.32841 5.1556 0
M  V30 24260 H 2334.92 3.0284 5.77175 0
M  V30 24261 N 2338.35 -0.449957 1.5104 0
M  V30 24262 C 2339.6 -1.19805 1.62761 0
M  V30 24263 C 2339.92 -1.92013 0.340015 0
M  V30 24264 O 2339.19 -1.85027 -0.643573 0
M  V30 24265 H 2337.77 -0.445226 0.599819 0
M  V30 24266 H 2340.44 -0.517105 1.87915 0
M  V30 24267 H 2339.53 -1.93451 2.44915 0
M  V30 24268 N 2339.83 -1.40974 -0.704569 0
M  V30 24269 C 2341.08 -1.3957 -1.46166 0
M  V30 24270 C 2341.4 -0.00257172 -1.95 0
M  V30 24271 O 2340.67 0.954084 -1.71097 0
M  V30 24272 H 2339.25 -0.513713 -0.542317 0
M  V30 24273 H 2341.91 -1.7613 -0.834522 0
M  V30 24274 H 2341.01 -2.07739 -2.32919 0
M  V30 24275 N 2341.31 0.937917 -1.26653 0
M  V30 24276 C 2342.22 2.07064 -1.10279 0
M  V30 24277 C 2343.24 1.73964 -0.0354503 0
M  V30 24278 O 2344.41 1.99967 -0.239851 0
M  V30 24279 C 2341.48 3.3869 -0.740946 0
M  V30 24280 C 2340.54 3.85553 -1.88806 0
M  V30 24281 C 2339.77 5.10897 -1.54338 0
M  V30 24282 O 2339.99 5.68649 -0.446594 0
M  V30 24283 O 2338.93 5.52881 -2.3792 0
M  V30 24284 H 2342.75 2.23786 -2.05313 0
M  V30 24285 H 2340.34 1.05538 -1.05745 0
M  V30 24286 H 2342.22 4.17769 -0.552024 0
M  V30 24287 H 2340.9 3.23199 0.179965 0
M  V30 24288 H 2339.8 3.07405 -2.13197 0
M  V30 24289 H 2341.14 4.05569 -2.78881 0
M  V30 24290 N 2342.79 1.08509 1.14296 0
M  V30 24291 C 2343.74 0.710522 2.21482 0
M  V30 24292 C 2344.73 -0.284205 1.66999 0
M  V30 24293 O 2345.94 -0.146661 1.79402 0
M  V30 24294 H 2342.31 0.211742 0.721574 0
M  V30 24295 H 2344.28 1.62388 2.50345 0
M  V30 24296 C 2343.03 0.137068 3.4743 0
M  V30 24297 H 2342.35 0.893661 3.89684 0
M  V30 24298 H 2343.79 -0.0872044 4.2391 0
M  V30 24299 C 2342.25 -1.12532 3.1755 0
M  V30 24300 O 2342.78 -2.21004 3.35441 0
M  V30 24301 N 2340.99 -1.03612 2.71501 0
M  V30 24302 H 2340.54 -0.153358 2.57143 0
M  V30 24303 H 2340.49 -1.88154 2.51884 0
M  V30 24304 N 2344.27 -1.31351 0.870907 0
M  V30 24305 C 2345.51 -1.96672 0.482307 0
M  V30 24306 C 2345.84 -1.68838 -0.965608 0
M  V30 24307 O 2345.1 -0.977967 -1.69512 0
M  V30 24308 C 2345.4 -3.50731 0.687219 0
M  V30 24309 C 2345.06 -3.98587 2.10807 0
M  V30 24310 C 2343.72 -4.11366 2.49663 0
M  V30 24311 C 2346.08 -4.23742 3.03466 0
M  V30 24312 C 2343.4 -4.46652 3.80419 0
M  V30 24313 C 2345.76 -4.60493 4.33738 0
M  V30 24314 C 2344.42 -4.71479 4.72508 0
M  V30 24315 H 2343.69 -0.719675 0.176489 0
M  V30 24316 H 2346.34 -1.56469 1.10407 0
M  V30 24317 H 2344.64 -3.91796 -0.0176787 0
M  V30 24318 H 2346.34 -3.99323 0.366355 0
M  V30 24319 H 2342.93 -3.89137 1.79639 0
M  V30 24320 H 2347.11 -4.13363 2.74672 0
M  V30 24321 H 2342.37 -4.53355 4.10218 0
M  V30 24322 H 2346.54 -4.7891 5.05587 0
M  V30 24323 H 2344.17 -4.98577 5.73868 0
M  V30 24324 N 2345.74 -0.630439 -1.44441 0
M  V30 24325 C 2346.71 0.065212 -2.29107 0
M  V30 24326 C 2347.71 0.77297 -1.41003 0
M  V30 24327 O 2348.9 0.617664 -1.62882 0
M  V30 24328 C 2346.03 1.10291 -3.22566 0
M  V30 24329 H 2347.22 -0.679453 -2.92102 0
M  V30 24330 H 2344.78 -0.390544 -1.51342 0
M  V30 24331 H 2345.51 1.87758 -2.64419 0
M  V30 24332 H 2345.3 0.599342 -3.87492 0
M  V30 24333 H 2346.79 1.58943 -3.8617 0
M  V30 24334 N 2347.22 1.53172 -0.370945 0
M  V30 24335 C 2348.45 2.05453 0.217352 0
M  V30 24336 C 2348.86 1.24385 1.42566 0
M  V30 24337 O 2348.2 0.278871 1.81571 0
M  V30 24338 C 2348.27 3.53206 0.669765 0
M  V30 24339 C 2347.93 4.55042 -0.42258 0
M  V30 24340 C 2348.93 5.04045 -1.27416 0
M  V30 24341 C 2346.61 4.98889 -0.584358 0
M  V30 24342 C 2348.61 5.95501 -2.27282 0
M  V30 24343 C 2346.29 5.9015 -1.58637 0
M  V30 24344 C 2347.29 6.38347 -2.42903 0
M  V30 24345 O 2346.98 7.27808 -3.41394 0
M  V30 24346 H 2346.71 0.674767 0.0408053 0
M  V30 24347 H 2349.26 1.98465 -0.529235 0
M  V30 24348 H 2347.49 3.57751 1.46804 0
M  V30 24349 H 2349.18 3.88319 1.18166 0
M  V30 24350 H 2349.95 4.70914 -1.1604 0
M  V30 24351 H 2345.83 4.60959 0.06177 0
M  V30 24352 H 2349.37 6.33043 -2.9309 0
M  V30 24353 H 2345.27 6.22696 -1.70059 0
M  V30 24354 H 2346.04 7.4582 -3.37187 0
M  V30 24355 N 2348.7 0.100255 1.57281 0
M  V30 24356 C 2349.63 -0.853819 2.1733 0
M  V30 24357 C 2350.61 -1.29058 1.10806 0
M  V30 24358 O 2351.8 -1.35655 1.38966 0
M  V30 24359 C 2348.93 -2.11104 2.75776 0
M  V30 24360 C 2347.88 -1.81273 3.87717 0
M  V30 24361 C 2347.21 -3.13867 4.32888 0
M  V30 24362 C 2348.51 -1.09565 5.10679 0
M  V30 24363 H 2350.2 -0.353493 2.97306 0
M  V30 24364 H 2347.75 -0.168587 1.4301 0
M  V30 24365 H 2349.7 -2.7829 3.16437 0
M  V30 24366 H 2348.42 -2.63429 1.93061 0
M  V30 24367 H 2347.08 -1.16483 3.47602 0
M  V30 24368 H 2346.73 -3.64089 3.47057 0
M  V30 24369 H 2346.43 -2.94687 5.08363 0
M  V30 24370 H 2347.95 -3.82202 4.76187 0
M  V30 24371 H 2349.37 -1.66869 5.48477 0
M  V30 24372 H 2347.77 -1.00546 5.91617 0
M  V30 24373 H 2348.84 -0.0792447 4.84835 0
M  V30 24374 N 2350.18 -1.56643 -0.17346 0
M  V30 24375 C 2351.41 -1.86006 -0.906062 0
M  V30 24376 C 2351.82 -0.685386 -1.7592 0
M  V30 24377 O 2351.18 0.345547 -1.79199 0
M  V30 24378 C 2351.23 -3.14381 -1.78456 0
M  V30 24379 O 2350.95 -4.27321 -0.965839 0
M  V30 24380 C 2352.45 -3.57076 -2.62701 0
M  V30 24381 H 2349.67 -0.61717 -0.26333 0
M  V30 24382 H 2352.22 -2.03757 -0.1742 0
M  V30 24383 H 2350.37 -2.98463 -2.46979 0
M  V30 24384 H 2350.79 -5.00562 -1.56646 0
M  V30 24385 H 2352.26 -4.4981 -3.19961 0
M  V30 24386 H 2352.74 -2.81092 -3.37467 0
M  V30 24387 H 2353.34 -3.75599 -1.99514 0
M  V30 24388 N 2351.66 0.44194 -1.51277 0
M  V30 24389 C 2352.62 1.51859 -1.71673 0
M  V30 24390 C 2353.62 1.4971 -0.58682 0
M  V30 24391 O 2354.81 1.51813 -0.854303 0
M  V30 24392 C 2351.94 2.91413 -1.76894 0
M  V30 24393 H 2353.14 1.3508 -2.67756 0
M  V30 24394 H 2350.69 0.670308 -1.41197 0
M  V30 24395 H 2351.42 3.13602 -0.826081 0
M  V30 24396 H 2351.21 2.94378 -2.59006 0
M  V30 24397 H 2352.7 3.69525 -1.94528 0
M  V30 24398 N 2353.14 1.41345 0.697083 0
M  V30 24399 C 2354.37 1.43765 1.48375 0
M  V30 24400 C 2354.77 0.0409058 1.89156 0
M  V30 24401 O 2354.12 -0.949785 1.57241 0
M  V30 24402 C 2354.18 2.28175 2.77806 0
M  V30 24403 C 2353.84 3.76357 2.59238 0
M  V30 24404 C 2354.84 4.68555 2.25283 0
M  V30 24405 C 2352.52 4.20382 2.74925 0
M  V30 24406 C 2354.52 6.02764 2.07253 0
M  V30 24407 C 2352.21 5.54658 2.56512 0
M  V30 24408 C 2353.2 6.45664 2.22726 0
M  V30 24409 O 2352.89 7.77462 2.04471 0
M  V30 24410 H 2352.62 0.491767 0.463833 0
M  V30 24411 H 2355.18 1.86256 0.865901 0
M  V30 24412 H 2353.41 1.80496 3.41992 0
M  V30 24413 H 2355.1 2.22315 3.39604 0
M  V30 24414 H 2355.86 4.35832 2.12779 0
M  V30 24415 H 2351.74 3.49853 3.00207 0
M  V30 24416 H 2355.29 6.73762 1.80805 0
M  V30 24417 H 2351.18 5.86959 2.68605 0
M  V30 24418 H 2351.95 7.8859 2.19246 0
M  V30 24419 N 2354.61 -0.931187 1.27148 0
M  V30 24420 C 2355.55 -2.03544 1.05368 0
M  V30 24421 C 2356.56 -1.62796 0.0108724 0
M  V30 24422 O 2357.75 -1.76711 0.252051 0
M  V30 24423 C 2354.85 -3.33976 0.575625 0
M  V30 24424 C 2354.02 -4.03436 1.68992 0
M  V30 24425 C 2353.08 -5.12141 1.20822 0
M  V30 24426 O 2352.11 -5.36297 1.90721 0
M  V30 24427 N 2353.31 -5.80467 0.0619871 0
M  V30 24428 H 2356.07 -2.22793 2.00458 0
M  V30 24429 H 2353.63 -1.10134 1.18668 0
M  V30 24430 H 2355.63 -4.04003 0.237335 0
M  V30 24431 H 2354.2 -3.11326 -0.281961 0
M  V30 24432 H 2353.42 -3.27188 2.19867 0
M  V30 24433 H 2354.7 -4.46592 2.43788 0
M  V30 24434 H 2354.1 -5.63291 -0.521522 0
M  V30 24435 H 2352.66 -6.51438 -0.21715 0
M  V30 24436 N 2356.09 -1.09114 -1.13719 0
M  V30 24437 C 2357.05 -0.73128 -2.17221 0
M  V30 24438 C 2358.05 0.237538 -1.59036 0
M  V30 24439 O 2359.24 0.0161398 -1.74193 0
M  V30 24440 C 2356.38 -0.0809042 -3.40804 0
M  V30 24441 H 2357.57 -1.64787 -2.5057 0
M  V30 24442 H 2355.12 -0.889919 -1.28492 0
M  V30 24443 H 2355.86 0.847072 -3.13042 0
M  V30 24444 H 2355.64 -0.777963 -3.84305 0
M  V30 24445 H 2357.13 0.155584 -4.1731 0
M  V30 24446 N 2357.57 1.30887 -0.877861 0
M  V30 24447 C 2358.8 2.00581 -0.507449 0
M  V30 24448 C 2359.21 1.65849 0.902186 0
M  V30 24449 O 2358.57 0.891859 1.59224 0
M  V30 24450 C 2358.62 3.55345 -0.664224 0
M  V30 24451 O 2358.34 3.88837 -2.01836 0
M  V30 24452 C 2359.84 4.42312 -0.295865 0
M  V30 24453 H 2357.06 0.641467 -0.196878 0
M  V30 24454 H 2359.61 1.66937 -1.1812 0
M  V30 24455 H 2357.76 3.87381 -0.03793 0
M  V30 24456 H 2358.18 4.83546 -2.03182 0
M  V30 24457 H 2359.65 5.50109 -0.456485 0
M  V30 24458 H 2360.13 4.32476 0.765586 0
M  V30 24459 H 2360.73 4.15707 -0.898186 0
M  V30 24460 N 2359.05 0.638091 1.44105 0
M  V30 24461 C 2360.29 0.145581 2.02277 0
M  V30 24462 C 2360.63 -1.23189 1.50127 0
M  V30 24463 O 2359.9 -1.81919 0.688165 0
M  V30 24464 C 2360.18 0.139854 3.59828 0
M  V30 24465 C 2360.04 1.55016 4.22244 0
M  V30 24466 C 2361.36 -0.531889 4.36874 0
M  V30 24467 H 2358.48 0.0543761 0.734991 0
M  V30 24468 H 2361.12 0.815893 1.7159 0
M  V30 24469 H 2359.27 -0.430939 3.86103 0
M  V30 24470 H 2360.94 2.17038 4.07053 0
M  V30 24471 H 2359.18 2.10197 3.79473 0
M  V30 24472 H 2359.85 1.49813 5.31282 0
M  V30 24473 H 2362.33 -0.046405 4.16074 0
M  V30 24474 H 2361.21 -0.50511 5.46571 0
M  V30 24475 H 2361.47 -1.60345 4.11997 0
M  V30 24476 N 2360.53 -1.52973 0.379063 0
M  V30 24477 C 2361.77 -2.03356 -0.206289 0
M  V30 24478 C 2362.13 -1.2598 -1.4489 0
M  V30 24479 O 2363.33 -1.66436 -2.11075 0
M  V30 24480 C 2361.6 -3.54191 -0.477825 0
M  V30 24481 S 2363.16 -4.26421 -1.03492 0
M  V30 24482 H 2359.98 -0.708547 -0.0590135 0
M  V30 24483 H 2362.58 -1.88318 0.525046 0
M  V30 24484 H 2361.28 -4.08101 0.433817 0
M  V30 24485 H 2360.82 -3.73417 -1.23786 0
M  V30 24486 H 2362.83 -4.38722 -2.31814 0
M  V30 24487 N 2362 -0.108595 -1.57225 0
M  V30 24488 C 2362.97 0.831044 -2.13603 0
M  V30 24489 C 2363.97 1.20171 -1.06843 0
M  V30 24490 O 2365.16 1.12893 -1.32668 0
M  V30 24491 C 2362.29 2.12239 -2.66772 0
M  V30 24492 H 2363.48 0.341265 -2.97952 0
M  V30 24493 H 2361.03 0.140542 -1.55667 0
M  V30 24494 H 2361.77 2.65671 -1.85982 0
M  V30 24495 H 2361.55 1.86619 -3.44842 0
M  V30 24496 H 2363.04 2.79429 -3.10337 0
M  V30 24497 N 2363.48 1.56732 0.16515 0
M  V30 24498 C 2364.9 1.50989 0.517148 0
M  V30 24499 C 2365.1 0.813926 1.8433 0
M  V30 24500 O 2364.15 0.376864 2.49672 0
M  V30 24501 C 2365.47 2.95734 0.544209 0
M  V30 24502 C 2367.01 3.06574 0.630985 0
M  V30 24503 C 2367.49 4.5279 0.688881 0
M  V30 24504 N 2368.98 4.57061 0.751602 0
M  V30 24505 C 2369.72 5.67549 0.817077 0
M  V30 24506 N 2369.21 6.87652 0.843008 0
M  V30 24507 N 2371 5.55535 0.856571 0
M  V30 24508 H 2363.16 2.00381 -0.704353 0
M  V30 24509 H 2365.42 0.913143 -0.254703 0
M  V30 24510 H 2365.12 3.49835 -0.361668 0
M  V30 24511 H 2365 3.50713 1.38854 0
M  V30 24512 H 2367.39 2.52503 1.52729 0
M  V30 24513 H 2367.47 2.5467 -0.24014 0
M  V30 24514 H 2367.11 5.07493 -0.203189 0
M  V30 24515 H 2367.04 5.02456 1.57624 0
M  V30 24516 H 2369.53 3.70592 0.739596 0
M  V30 24517 H 2369.84 7.67608 0.894313 0
M  V30 24518 H 2368.19 6.9025 0.811183 0
M  V30 24519 H 2371.38 4.60622 0.833356 0
M  V30 24520 H 2371.55 6.41661 0.904134 0
M  V30 24521 N 2364.96 -0.433911 1.51509 0
M  V30 24522 C 2365.92 -1.50946 1.72476 0
M  V30 24523 C 2366.92 -1.49397 0.594751 0
M  V30 24524 O 2368.11 -1.51358 0.862342 0
M  V30 24525 C 2365.24 -2.90471 1.78437 0
M  V30 24526 H 2366.44 -1.33658 2.68469 0
M  V30 24527 H 2363.99 -0.662811 1.4155 0
M  V30 24528 H 2364.73 -3.1316 0.8427 0
M  V30 24529 H 2364.51 -2.93 2.60563 0
M  V30 24530 H 2366 -3.68488 1.96485 0
M  V30 24531 N 2366.44 -1.41713 -0.689577 0
M  V30 24532 C 2367.39 -1.44033 -1.80342 0
M  V30 24533 C 2368.36 -0.293977 -1.63478 0
M  V30 24534 O 2369.54 -0.495902 -1.84243 0
M  V30 24535 C 2366.68 -1.3341 -3.1827 0
M  V30 24536 C 2365.79 -2.57963 -3.46525 0
M  V30 24537 C 2364.93 -2.3959 -4.74099 0
M  V30 24538 C 2363.97 -3.59589 -4.95341 0
M  V30 24539 N 2363.1 -3.4025 -6.14145 0
M  V30 24540 H 2367.94 -2.39225 -1.77694 0
M  V30 24541 H 2365.48 -1.18785 -0.867667 0
M  V30 24542 H 2367.44 -1.25253 -3.97954 0
M  V30 24543 H 2366.07 -0.41822 -3.20079 0
M  V30 24544 H 2365.12 -2.76546 -2.61202 0
M  V30 24545 H 2366.43 -3.47206 -3.5812 0
M  V30 24546 H 2365.59 -2.28934 -5.61849 0
M  V30 24547 H 2364.33 -1.47813 -4.64761 0
M  V30 24548 H 2363.33 -3.70693 -4.06038 0
M  V30 24549 H 2364.56 -4.52327 -5.06534 0
M  V30 24550 H 2362.5 -2.51177 -6.06008 0
M  V30 24551 H 2362.42 -4.23072 -6.26535 0
M  V30 24552 H 2363.69 -3.33377 -7.04613 0
M  V30 24553 N 2367.92 0.924431 -1.2764 0
M  V30 24554 C 2368.88 2.00703 -1.10684 0
M  V30 24555 C 2369.88 1.60723 -0.0498106 0
M  V30 24556 O 2371.07 1.71689 -0.294684 0
M  V30 24557 C 2368.2 3.33901 -0.687223 0
M  V30 24558 H 2369.39 2.17175 -2.06821 0
M  V30 24559 H 2366.95 1.10567 -1.10475 0
M  V30 24560 H 2367.68 3.23129 0.275382 0
M  V30 24561 H 2367.47 3.64277 -1.45067 0
M  V30 24562 H 2368.96 4.13398 -0.590925 0
M  V30 24563 N 2369.39 1.09715 1.13139 0
M  V30 24564 C 2370.81 0.853914 1.66028 0
M  V30 24565 C 2371.16 -0.617109 1.86242 0
M  V30 24566 O 2370.28 -1.47501 1.58343 0
M  V30 24567 C 2370.88 1.54355 3.01596 0
M  V30 24568 C 2369.44 1.34721 3.51465 0
M  V30 24569 C 2368.58 1.59773 2.26645 0
M  V30 24570 H 2371.53 1.2559 0.970204 0
M  V30 24571 H 2371.55 0.978331 3.67708 0
M  V30 24572 H 2371.07 2.61415 2.86851 0
M  V30 24573 H 2369.17 0.297903 3.71407 0
M  V30 24574 H 2369.28 2.08408 4.31396 0
M  V30 24575 H 2367.64 1.02002 2.33383 0
M  V30 24576 H 2368.43 2.68069 2.14462 0
M  V30 24577 N 2370.87 -1.30419 0.88479 0
M  V30 24578 C 2372.28 -1.78301 0.553688 0
M  V30 24579 C 2372.63 -1.72752 -0.930122 0
M  V30 24580 O 2371.76 -1.30426 -1.72679 0
M  V30 24581 C 2372.35 -3.23759 0.998291 0
M  V30 24582 C 2370.91 -3.69477 0.718605 0
M  V30 24583 C 2370.06 -2.50876 1.18137 0
M  V30 24584 H 2373.01 -1.17292 1.06903 0
M  V30 24585 H 2373.03 -3.79091 0.327184 0
M  V30 24586 H 2372.54 -3.27765 2.07826 0
M  V30 24587 H 2370.65 -3.70958 -0.349378 0
M  V30 24588 H 2370.76 -4.60955 1.30603 0
M  V30 24589 H 2369.12 -2.47515 0.600713 0
M  V30 24590 H 2369.91 -2.5762 2.26907 0
M  V30 24591 N 2372.35 -0.645724 -1.43764 0
M  V30 24592 C 2373.76 -0.236751 -1.85193 0
M  V30 24593 C 2374.11 1.21506 -1.54047 0
M  V30 24594 O 2373.24 1.92646 -0.985727 0
M  V30 24595 C 2373.83 -0.422904 -3.3615 0
M  V30 24596 C 2372.39 -0.0683154 -3.76338 0
M  V30 24597 C 2371.54 -0.729353 -2.67536 0
M  V30 24598 H 2374.49 -0.849907 -1.34023 0
M  V30 24599 H 2374.51 0.333837 -3.79033 0
M  V30 24600 H 2374.02 -1.47964 -3.58787 0
M  V30 24601 H 2372.12 0.986116 -3.59314 0
M  V30 24602 H 2372.24 -0.488553 -4.76603 0
M  V30 24603 H 2370.6 -0.16328 -2.54176 0
M  V30 24604 H 2371.38 -1.78897 -2.93003 0
M  V30 24605 N 2373.83 1.5277 -0.38717 0
M  V30 24606 C 2375.05 2.06449 0.198371 0
M  V30 24607 C 2375.48 1.25719 1.39916 0
M  V30 24608 O 2374.84 0.281688 1.79098 0
M  V30 24609 C 2374.88 3.56399 0.54883 0
M  V30 24610 O 2373.99 3.78255 1.64308 0
M  V30 24611 H 2373.33 0.663575 0.0237615 0
M  V30 24612 H 2375.86 1.96956 -0.554023 0
M  V30 24613 H 2375.87 3.99803 0.813742 0
M  V30 24614 H 2374.54 4.14596 -0.329078 0
M  V30 24615 H 2373.12 3.46741 1.37205 0
M  V30 24616 N 2375.31 0.116931 1.57166 0
M  V30 24617 C 2376.55 -0.536132 1.96207 0
M  V30 24618 C 2376.91 -1.64421 0.999179 0
M  V30 24619 O 2376.2 -1.91578 0.0288532 0
M  V30 24620 C 2376.39 -1.11658 3.3951 0
M  V30 24621 C 2376.22 -0.0662684 4.49651 0
M  V30 24622 C 2374.99 0.364829 5.03981 0
M  V30 24623 C 2377.19 0.713918 5.09321 0
M  V30 24624 N 2375.17 1.40113 5.97697 0
M  V30 24625 C 2376.54 1.60147 5.9896 0
M  V30 24626 C 2378.6 0.765034 4.91987 0
M  V30 24627 C 2377.3 2.53568 6.73124 0
M  V30 24628 C 2379.33 1.68695 5.6683 0
M  V30 24629 C 2378.69 2.56208 6.56153 0
M  V30 24630 H 2374.79 -0.165872 0.764206 0
M  V30 24631 H 2377.37 0.204569 1.93622 0
M  V30 24632 H 2375.54 -1.82701 3.42746 0
M  V30 24633 H 2377.28 -1.73379 3.6568 0
M  V30 24634 H 2374.03 -0.0271687 4.73592 0
M  V30 24635 H 2374.46 1.91814 6.49258 0
M  V30 24636 H 2379.1 0.102575 4.22676 0
M  V30 24637 H 2376.82 3.20829 7.41684 0
M  V30 24638 H 2380.4 1.73191 5.55424 0
M  V30 24639 H 2379.28 3.26385 7.13052 0
M  V30 24640 N 2376.78 -1.56818 -0.156836 0
M  V30 24641 C 2378.06 -1.73705 -0.899213 0
M  V30 24642 C 2378.44 -0.682289 -1.9977 0
M  V30 24643 O 2377.79 0.300482 -2.26516 0
M  V30 24644 C 2378 -3.17421 -1.45069 0
M  V30 24645 C 2379.35 -3.78813 -1.91796 0
M  V30 24646 O 2380.37 -3.20789 -1.54832 0
M  V30 24647 O 2379.23 -4.80726 -2.59932 0
M  V30 24648 H 2376.32 -0.709886 -0.424254 0
M  V30 24649 H 2378.87 -1.69092 -0.143531 0
M  V30 24650 H 2377.64 -3.8568 -0.660778 0
M  V30 24651 H 2377.27 -3.2642 -2.27016 0
M  V30 24652 N 2378.26 0.425871 -1.51737 0
M  V30 24653 C 2379.51 1.17607 -1.65217 0
M  V30 24654 C 2379.84 1.90588 -0.372812 0
M  V30 24655 O 2379.12 1.84079 0.628106 0
M  V30 24656 C 2379.4 2.18393 -2.86315 0
M  V30 24657 C 2379.25 1.49419 -4.24257 0
M  V30 24658 C 2380.57 3.19251 -3.0293 0
M  V30 24659 H 2377.69 0.426195 -0.601271 0
M  V30 24660 H 2380.33 0.46385 -1.84251 0
M  V30 24661 H 2378.48 2.79132 -2.70218 0
M  V30 24662 H 2380.15 0.919283 -4.52047 0
M  V30 24663 H 2378.4 0.796357 -4.26428 0
M  V30 24664 H 2379.07 2.22876 -5.05005 0
M  V30 24665 H 2381.54 2.68575 -3.17815 0
M  V30 24666 H 2380.42 3.87053 -3.89206 0
M  V30 24667 H 2380.68 3.86019 -2.15504 0
M  V30 24668 N 2379.74 1.42077 0.682052 0
M  V30 24669 C 2380.67 1.39413 1.80663 0
M  V30 24670 C 2381.65 0.259418 1.60517 0
M  V30 24671 O 2382.84 0.448488 1.83087 0
M  V30 24672 C 2379.96 1.17801 3.17554 0
M  V30 24673 C 2379.01 2.3417 3.56464 0
M  V30 24674 S 2379.84 3.96687 3.59722 0
M  V30 24675 C 2381 3.77404 4.99317 0
M  V30 24676 H 2381.23 2.34579 1.82648 0
M  V30 24677 H 2378.76 1.28762 0.852039 0
M  V30 24678 H 2380.72 1.06019 3.96573 0
M  V30 24679 H 2379.38 0.242334 3.13164 0
M  V30 24680 H 2378.58 2.14778 4.55946 0
M  V30 24681 H 2378.18 2.4243 2.84787 0
M  V30 24682 H 2380.47 3.37946 5.87196 0
M  V30 24683 H 2381.41 4.76536 5.23755 0
M  V30 24684 H 2381.82 3.10411 4.71493 0
M  V30 24685 N 2381.22 -0.917649 1.28129 0
M  V30 24686 C 2382.47 -1.66916 1.16235 0
M  V30 24687 C 2382.82 -1.90248 -0.286977 0
M  V30 24688 O 2382.11 -1.48897 -1.20583 0
M  V30 24689 C 2382.31 -3.03323 1.89023 0
M  V30 24690 C 2382.14 -2.93304 3.40885 0
M  V30 24691 C 2380.91 -2.95039 4.10219 0
M  V30 24692 C 2383.1 -2.71667 4.36694 0
M  V30 24693 N 2381.09 -2.75567 5.48576 0
M  V30 24694 C 2382.46 -2.61 5.62387 0
M  V30 24695 C 2384.51 -2.56633 4.26666 0
M  V30 24696 C 2383.22 -2.36831 6.79193 0
M  V30 24697 C 2385.24 -2.33844 5.43204 0
M  V30 24698 C 2384.6 -2.23927 6.67859 0
M  V30 24699 H 2380.7 -0.617157 0.480251 0
M  V30 24700 H 2383.29 -1.08406 1.61729 0
M  V30 24701 H 2381.46 -3.59927 1.4597 0
M  V30 24702 H 2383.19 -3.67472 1.69548 0
M  V30 24703 H 2379.94 -3.05649 3.61768 0
M  V30 24704 H 2380.37 -2.68934 6.21292 0
M  V30 24705 H 2385.01 -2.63053 3.31003 0
M  V30 24706 H 2382.73 -2.2915 7.7493 0
M  V30 24707 H 2386.31 -2.23082 5.37332 0
M  V30 24708 H 2385.19 -2.06533 7.56514 0
M  V30 24709 N 2382.7 -1.10314 -1.12555 0
M  V30 24710 C 2383.64 -0.750819 -2.18246 0
M  V30 24711 C 2384.61 0.272264 -1.63853 0
M  V30 24712 O 2385.8 0.151828 -1.90195 0
M  V30 24713 C 2382.94 -0.18744 -3.44591 0
M  V30 24714 C 2382.05 -1.26567 -4.13043 0
M  V30 24715 C 2381.19 -0.664071 -5.27033 0
M  V30 24716 C 2380.23 -1.72297 -5.8735 0
M  V30 24717 N 2379.36 -1.14173 -6.92755 0
M  V30 24718 H 2384.2 -1.65632 -2.47729 0
M  V30 24719 H 2381.74 -0.827358 -1.21627 0
M  V30 24720 H 2383.7 0.157075 -4.16904 0
M  V30 24721 H 2382.33 0.6813 -3.15528 0
M  V30 24722 H 2381.38 -1.72733 -3.38921 0
M  V30 24723 H 2382.69 -2.06729 -4.53943 0
M  V30 24724 H 2381.85 -0.26893 -6.06104 0
M  V30 24725 H 2380.59 0.168997 -4.87407 0
M  V30 24726 H 2379.59 -2.12755 -5.06967 0
M  V30 24727 H 2380.82 -2.55886 -6.29046 0
M  V30 24728 H 2378.76 -0.330099 -6.55169 0
M  V30 24729 H 2378.68 -1.8802 -7.32246 0
M  V30 24730 H 2379.95 -0.773092 -7.75657 0
M  V30 24731 N 2384.18 1.29948 -0.891694 0
M  V30 24732 C 2385.42 1.97666 -0.52033 0
M  V30 24733 C 2385.78 1.68808 0.914767 0
M  V30 24734 O 2386.98 2.29914 1.39259 0
M  V30 24735 C 2385.25 3.48439 -0.795283 0
M  V30 24736 S 2386.81 4.35624 -0.527029 0
M  V30 24737 H 2383.63 0.684207 -0.193342 0
M  V30 24738 H 2386.23 1.57924 -1.15241 0
M  V30 24739 H 2384.93 3.66935 -1.83812 0
M  V30 24740 H 2384.47 3.9311 -0.151019 0
M  V30 24741 H 2386.48 4.92166 0.631446 0
M  V30 24742 N 2385.65 0.653339 1.4342 0
M  V30 24743 C 2386.58 -0.0246246 2.33487 0
M  V30 24744 C 2387.56 -0.811837 1.49476 0
M  V30 24745 O 2388.75 -0.773291 1.7814 0
M  V30 24746 C 2385.88 -0.991601 3.32843 0
M  V30 24747 C 2384.83 -0.314493 4.26843 0
M  V30 24748 C 2384.16 -1.39292 5.16238 0
M  V30 24749 C 2385.46 0.793186 5.16242 0
M  V30 24750 H 2387.15 0.727532 2.90426 0
M  V30 24751 H 2384.7 0.351312 1.39649 0
M  V30 24752 H 2386.65 -1.4748 3.9475 0
M  V30 24753 H 2385.38 -1.77492 2.74161 0
M  V30 24754 H 2384.04 0.148264 3.663 0
M  V30 24755 H 2383.68 -2.16768 4.53895 0
M  V30 24756 H 2383.38 -0.945121 5.79949 0
M  V30 24757 H 2384.91 -1.87749 5.81019 0
M  V30 24758 H 2386.32 0.39214 5.71957 0
M  V30 24759 H 2384.72 1.16547 5.88674 0
M  V30 24760 H 2385.79 1.65111 4.55924 0
M  V30 24761 N 2387.13 -1.52563 0.395266 0
M  V30 24762 C 2388.36 -2.06072 -0.184907 0
M  V30 24763 C 2388.77 -1.2665 -1.40019 0
M  V30 24764 O 2388.13 -0.314704 -1.79766 0
M  V30 24765 C 2388.18 -3.57305 -0.549116 0
M  V30 24766 O 2387.9 -4.33721 0.617889 0
M  V30 24767 C 2389.4 -4.27182 -1.18451 0
M  V30 24768 H 2386.62 -0.670477 -0.0264907 0
M  V30 24769 H 2389.17 -1.9662 0.562219 0
M  V30 24770 H 2387.32 -3.66811 -1.24614 0
M  V30 24771 H 2387.74 -5.2354 0.317183 0
M  V30 24772 H 2389.21 -5.34221 -1.38967 0
M  V30 24773 H 2389.69 -3.82774 -2.15361 0
M  V30 24774 H 2390.29 -4.22009 -0.528088 0
M  V30 24775 N 2388.61 -0.125265 -1.57101 0
M  V30 24776 C 2390.03 0.231294 -1.57915 0
M  V30 24777 C 2390.23 1.66264 -1.13836 0
M  V30 24778 O 2389.28 2.38516 -0.828623 0
M  V30 24779 C 2390.59 -0.00771775 -3.00699 0
M  V30 24780 C 2392.14 0.0576933 -3.12947 0
M  V30 24781 C 2392.62 -0.153706 -4.57742 0
M  V30 24782 N 2394.11 -0.0998887 -4.63092 0
M  V30 24783 C 2394.84 -0.238274 -5.72905 0
M  V30 24784 N 2394.34 -0.433179 -6.91444 0
M  V30 24785 N 2396.13 -0.177406 -5.6182 0
M  V30 24786 H 2388.28 -1.0601 -1.84053 0
M  V30 24787 H 2390.55 -0.417944 -0.850898 0
M  V30 24788 H 2390.25 -0.99749 -3.37258 0
M  V30 24789 H 2390.13 0.721387 -3.70238 0
M  V30 24790 H 2392.51 1.038 -2.76242 0
M  V30 24791 H 2392.59 -0.703393 -2.45939 0
M  V30 24792 H 2392.24 -1.13101 -4.95147 0
M  V30 24793 H 2392.17 0.627442 -5.22849 0
M  V30 24794 H 2394.66 0.0469846 -3.77871 0
M  V30 24795 H 2394.97 -0.529468 -7.70984 0
M  V30 24796 H 2393.32 -0.469231 -6.93414 0
M  V30 24797 H 2396.51 -0.0260571 -4.68093 0
M  V30 24798 H 2396.68 -0.288696 -6.47357 0
M  V30 24799 N 2390.09 1.56899 0.148518 0
M  V30 24800 C 2391.02 2.01184 1.18521 0
M  V30 24801 C 2392 0.891148 1.44888 0
M  V30 24802 O 2393.18 1.15885 1.55834 0
M  V30 24803 C 2390.31 2.39116 2.51874 0
M  V30 24804 C 2389.27 3.54357 2.40031 0
M  V30 24805 C 2388.59 3.78098 3.78082 0
M  V30 24806 C 2389.89 4.87072 1.88568 0
M  V30 24807 H 2391.59 2.88038 0.816979 0
M  V30 24808 H 2389.13 1.38574 0.39155 0
M  V30 24809 H 2391.09 2.68698 3.24622 0
M  V30 24810 H 2389.81 1.49198 2.9053 0
M  V30 24811 H 2388.47 3.24939 1.69736 0
M  V30 24812 H 2388.12 2.85433 4.1417 0
M  V30 24813 H 2387.82 4.55651 3.7102 0
M  V30 24814 H 2389.34 4.10103 4.5238 0
M  V30 24815 H 2390.76 5.15381 2.51108 0
M  V30 24816 H 2389.15 5.68421 1.924 0
M  V30 24817 H 2390.22 4.77546 0.841276 0
M  V30 24818 N 2391.57 -0.417818 1.51961 0
M  V30 24819 C 2392.51 -1.50849 1.7468 0
M  V30 24820 C 2393.48 -1.55307 0.588974 0
M  V30 24821 O 2394.67 -1.72014 0.825575 0
M  V30 24822 C 2391.81 -2.88384 1.89549 0
M  V30 24823 C 2390.92 -2.93303 3.17171 0
M  V30 24824 C 2390.06 -4.22083 3.22521 0
M  V30 24825 C 2389.09 -4.20943 4.4438 0
M  V30 24826 N 2388.23 -5.41279 4.4717 0
M  V30 24827 H 2393.07 -1.30778 2.67771 0
M  V30 24828 H 2390.61 -0.634957 1.3269 0
M  V30 24829 H 2392.57 -3.68212 1.96152 0
M  V30 24830 H 2391.2 -3.06969 0.998478 0
M  V30 24831 H 2390.25 -2.06019 3.19782 0
M  V30 24832 H 2391.56 -2.88325 4.07026 0
M  V30 24833 H 2390.71 -5.10298 3.28148 0
M  V30 24834 H 2389.45 -4.29744 2.30589 0
M  V30 24835 H 2388.46 -3.31119 4.38908 0
M  V30 24836 H 2389.68 -4.14929 5.37597 0
M  V30 24837 H 2387.63 -5.49625 3.58117 0
M  V30 24838 H 2387.55 -5.38261 5.30859 0
M  V30 24839 H 2388.81 -6.31472 4.57016 0
M  V30 24840 N 2393.04 -1.42436 -0.674508 0
M  V30 24841 C 2394.45 -1.38216 -1.25512 0
M  V30 24842 C 2394.81 -0.0755809 -1.96054 0
M  V30 24843 O 2393.93 0.825665 -2.00029 0
M  V30 24844 C 2394.53 -2.50361 -2.28265 0
M  V30 24845 C 2393.08 -2.49472 -2.81852 0
M  V30 24846 C 2392.23 -2.29137 -1.56178 0
M  V30 24847 H 2395.18 -1.51646 -0.467875 0
M  V30 24848 H 2395.2 -2.20629 -3.10005 0
M  V30 24849 H 2394.72 -3.45442 -1.76894 0
M  V30 24850 H 2392.82 -1.5821 -3.37343 0
M  V30 24851 H 2392.93 -3.46521 -3.30848 0
M  V30 24852 H 2391.29 -1.77403 -1.82758 0
M  V30 24853 H 2392.08 -3.26274 -1.06773 0
M  V30 24854 N 2394.52 0.910841 -1.28614 0
M  V30 24855 C 2395.75 1.69397 -1.18795 0
M  V30 24856 C 2396.16 1.87097 0.253006 0
M  V30 24857 O 2395.52 1.40005 1.17068 0
M  V30 24858 C 2395.57 3.08454 -1.88516 0
M  V30 24859 O 2395.29 2.9157 -3.26984 0
M  V30 24860 C 2396.79 4.02836 -1.85036 0
M  V30 24861 H 2394.01 0.529431 -0.412243 0
M  V30 24862 H 2396.56 1.13981 -1.6979 0
M  V30 24863 H 2394.71 3.60679 -1.41385 0
M  V30 24864 H 2395.13 3.79602 -3.61943 0
M  V30 24865 H 2396.6 4.97863 -2.38404 0
M  V30 24866 H 2397.08 4.31413 -0.823379 0
M  V30 24867 H 2397.68 3.56541 -2.31859 0
M  V30 24868 N 2396 1.10909 1.11969 0
M  V30 24869 C 2396.93 0.784511 2.19927 0
M  V30 24870 C 2397.91 -0.244697 1.68331 0
M  V30 24871 O 2399.1 -0.109384 1.93892 0
M  V30 24872 C 2396.23 0.220888 3.46597 0
M  V30 24873 C 2395.18 1.18134 4.11374 0
M  V30 24874 C 2394.51 0.478688 5.32553 0
M  V30 24875 C 2395.81 2.52987 4.56941 0
M  V30 24876 H 2397.5 1.68719 2.47334 0
M  V30 24877 H 2395.05 0.812663 1.18877 0
M  V30 24878 H 2397 -0.0183538 4.21396 0
M  V30 24879 H 2395.72 -0.717057 3.18631 0
M  V30 24880 H 2394.38 1.40612 3.38561 0
M  V30 24881 H 2394.03 -0.463888 5.00856 0
M  V30 24882 H 2393.73 1.11922 5.76842 0
M  V30 24883 H 2395.25 0.248107 6.10096 0
M  V30 24884 H 2396.67 2.3463 5.23089 0
M  V30 24885 H 2395.07 3.12971 5.12025 0
M  V30 24886 H 2396.14 3.1262 3.70671 0
M  V30 24887 N 2397.48 -1.29474 0.898573 0
M  V30 24888 C 2398.71 -1.99748 0.539296 0
M  V30 24889 C 2399.12 -1.67264 -0.875687 0
M  V30 24890 O 2398.48 -0.917077 -1.57784 0
M  V30 24891 C 2398.53 -3.54244 0.720673 0
M  V30 24892 O 2398.25 -3.85577 2.07996 0
M  V30 24893 C 2399.75 -4.41785 0.366195 0
M  V30 24894 H 2396.97 -0.638254 0.207058 0
M  V30 24895 H 2399.52 -1.65036 1.20761 0
M  V30 24896 H 2397.67 -3.87272 0.0995543 0
M  V30 24897 H 2398.08 -4.80253 2.10849 0
M  V30 24898 H 2399.56 -5.49313 0.543945 0
M  V30 24899 H 2400.04 -4.33639 -0.696686 0
M  V30 24900 H 2400.64 -4.14226 0.964208 0
M  V30 24901 N 2398.96 -0.660936 -1.43071 0
M  V30 24902 C 2400.2 -0.17713 -2.01322 0
M  V30 24903 C 2400.53 1.21587 -1.52452 0
M  V30 24904 O 2399.8 1.81371 -0.740354 0
M  V30 24905 H 2398.38 -0.0624935 -0.744381 0
M  V30 24906 H 2401.04 -0.854336 -1.75177 0
M  V30 24907 H 2400.13 -0.167695 -3.11649 0
M  V30 24908 N 2400.43 1.52351 -0.403352 0
M  V30 24909 C 2401.85 1.86578 0.0675454 0
M  V30 24910 C 2402.2 1.32239 1.44939 0
M  V30 24911 O 2401.32 0.659343 2.06111 0
M  V30 24912 C 2401.92 3.38553 0.129344 0
M  V30 24913 C 2400.48 3.7244 0.544564 0
M  V30 24914 C 2399.62 2.75836 -0.2846 0
M  V30 24915 H 2402.57 1.4606 -0.620657 0
M  V30 24916 H 2402.59 3.68559 0.945746 0
M  V30 24917 H 2402.11 3.78072 -0.876516 0
M  V30 24918 H 2400.21 3.38496 1.55728 0
M  V30 24919 H 2400.32 4.78203 0.292961 0
M  V30 24920 H 2398.68 2.53448 0.252214 0
M  V30 24921 H 2399.47 3.18194 -1.2887 0
M  V30 24922 N 2401.91 0.133594 1.57033 0
M  V30 24923 C 2403.14 -0.52816 2.00045 0
M  V30 24924 C 2403.56 -1.5929 1.01352 0
M  V30 24925 O 2402.91 -1.82498 0.00851577 0
M  V30 24926 C 2402.96 -1.14104 3.4302 0
M  V30 24927 O 2402.68 -0.118843 4.37939 0
M  V30 24928 C 2404.19 -1.8847 4.01241 0
M  V30 24929 H 2401.41 -0.138649 0.656519 0
M  V30 24930 H 2403.95 0.224232 2.03267 0
M  V30 24931 H 2402.1 -1.84412 3.40692 0
M  V30 24932 H 2402.52 -0.566038 5.21437 0
M  V30 24933 H 2403.99 -2.2666 5.03318 0
M  V30 24934 H 2404.47 -2.76552 3.41198 0
M  V30 24935 H 2405.08 -1.22891 4.07158 0
M  V30 24936 N 2403.39 -1.56975 -0.140195 0
M  V30 24937 C 2404.8 -1.73098 -0.699566 0
M  V30 24938 C 2405.15 -0.749054 -1.81338 0
M  V30 24939 O 2404.28 0.0828122 -2.16241 0
M  V30 24940 C 2404.87 -3.13862 -1.27577 0
M  V30 24941 C 2403.43 -3.31564 -1.78164 0
M  V30 24942 C 2402.58 -2.69014 -0.672807 0
M  V30 24943 H 2405.53 -1.58469 0.0855394 0
M  V30 24944 H 2405.55 -3.14239 -2.14556 0
M  V30 24945 H 2405.06 -3.85306 -0.464887 0
M  V30 24946 H 2403.16 -2.65129 -2.61796 0
M  V30 24947 H 2403.28 -4.39569 -1.90567 0
M  V30 24948 H 2401.64 -2.29667 -1.10114 0
M  V30 24949 H 2402.42 -3.43066 0.126739 0
M  V30 24950 N 2404.87 0.409753 -1.5218 0
M  V30 24951 C 2405.8 1.50606 -1.78438 0
M  V30 24952 C 2406.78 1.5779 -0.635323 0
M  V30 24953 O 2407.96 1.73074 -0.880853 0
M  V30 24954 C 2405.09 2.88435 -1.93449 0
M  V30 24955 C 2404.05 2.96102 -3.09043 0
M  V30 24956 C 2403.37 4.36179 -3.09276 0
M  V30 24957 C 2404.67 2.67645 -4.48513 0
M  V30 24958 H 2406.37 1.28884 -2.70239 0
M  V30 24959 H 2403.91 0.618582 -1.30037 0
M  V30 24960 H 2405.87 3.65116 -2.10401 0
M  V30 24961 H 2404.59 3.1145 -0.983184 0
M  V30 24962 H 2403.25 2.21866 -2.9184 0
M  V30 24963 H 2402.9 4.56202 -2.11869 0
M  V30 24964 H 2402.6 4.42234 -3.86915 0
M  V30 24965 H 2404.12 5.14795 -3.28357 0
M  V30 24966 H 2405.54 3.34048 -4.65924 0
M  V30 24967 H 2403.93 2.85076 -5.28064 0
M  V30 24968 H 2405 1.63087 -4.56652 0
M  V30 24969 N 2406.35 1.42792 0.666944 0
M  V30 24970 C 2407.28 1.4968 1.79216 0
M  V30 24971 C 2408.26 0.352652 1.66404 0
M  V30 24972 O 2409.44 0.568026 1.85707 0
M  V30 24973 C 2406.57 1.40611 3.17562 0
M  V30 24974 C 2405.53 2.53133 3.45119 0
M  V30 24975 C 2404.85 2.2912 4.83123 0
M  V30 24976 C 2406.15 3.95424 3.41229 0
M  V30 24977 H 2407.85 2.43856 1.73709 0
M  V30 24978 H 2405.39 1.17369 0.834299 0
M  V30 24979 H 2407.35 1.44036 3.9602 0
M  V30 24980 H 2406.07 0.429327 3.23766 0
M  V30 24981 H 2404.73 2.49039 2.69027 0
M  V30 24982 H 2404.38 1.29717 4.85986 0
M  V30 24983 H 2404.08 3.0454 5.02523 0
M  V30 24984 H 2405.6 2.34307 5.63855 0
M  V30 24985 H 2407.01 4.0108 4.09644 0
M  V30 24986 H 2405.41 4.70758 3.72165 0
M  V30 24987 H 2406.48 4.21536 2.39657 0
M  V30 24988 N 2407.82 -0.904008 1.29095 0
M  V30 24989 C 2409.05 -1.6852 1.19519 0
M  V30 24990 C 2409.46 -1.87576 -0.247347 0
M  V30 24991 O 2408.81 -1.40961 -1.17795 0
M  V30 24992 C 2408.87 -3.09286 1.83254 0
M  V30 24993 C 2408.53 -3.13478 3.32537 0
M  V30 24994 C 2409.53 -2.93946 4.28826 0
M  V30 24995 C 2407.21 -3.35681 3.73662 0
M  V30 24996 C 2409.21 -2.96543 5.64217 0
M  V30 24997 C 2406.89 -3.3791 5.09176 0
M  V30 24998 C 2407.89 -3.18363 6.04263 0
M  V30 24999 O 2407.58 -3.20372 7.37304 0
M  V30 25000 H 2407.31 -0.53325 0.415476 0
M  V30 25001 H 2409.87 -1.13919 1.70914 0
M  V30 25002 H 2408.1 -3.65471 1.26365 0
M  V30 25003 H 2409.79 -3.69473 1.6806 0
M  V30 25004 H 2410.55 -2.76609 3.98387 0
M  V30 25005 H 2406.43 -3.49938 3.00108 0
M  V30 25006 H 2409.97 -2.81205 6.38412 0
M  V30 25007 H 2405.87 -3.54777 5.39262 0
M  V30 25008 H 2406.64 -3.36668 7.46054 0
M  V30 25009 N 2409.3 -1.11501 -1.11379 0
M  V30 25010 C 2410.72 -0.849054 -1.35142 0
M  V30 25011 C 2410.92 0.525904 -1.94516 0
M  V30 25012 O 2409.97 1.27659 -2.17852 0
M  V30 25013 C 2411.29 -1.95766 -2.28246 0
M  V30 25014 C 2412.84 -1.9874 -2.41808 0
M  V30 25015 C 2413.31 -3.08806 -3.38235 0
M  V30 25016 N 2414.8 -3.08185 -3.45798 0
M  V30 25017 C 2415.54 -3.8999 -4.20352 0
M  V30 25018 N 2415.03 -4.81759 -4.97876 0
M  V30 25019 N 2416.83 -3.78165 -4.1587 0
M  V30 25020 H 2408.98 -2.0011 -0.712027 0
M  V30 25021 H 2411.24 -0.870242 -0.37601 0
M  V30 25022 H 2410.95 -2.9479 -1.91812 0
M  V30 25023 H 2410.82 -1.85439 -3.2847 0
M  V30 25024 H 2413.21 -1.00343 -2.77516 0
M  V30 25025 H 2413.29 -2.13144 -1.41434 0
M  V30 25026 H 2412.93 -4.0743 -3.03254 0
M  V30 25027 H 2412.86 -2.91643 -4.38466 0
M  V30 25028 H 2415.35 -2.41696 -2.90502 0
M  V30 25029 H 2415.67 -5.40712 -5.52133 0
M  V30 25030 H 2414.01 -4.8578 -4.97034 0
M  V30 25031 H 2417.2 -3.05814 -3.54394 0
M  V30 25032 H 2417.37 -4.42151 -4.73716 0
M  V30 25033 N 2410.78 1.28995 -0.905426 0
M  V30 25034 C 2411.71 2.29974 -0.404253 0
M  V30 25035 C 2412.69 1.61836 0.523755 0
M  V30 25036 O 2413.88 1.89305 0.433265 0
M  V30 25037 C 2411.01 3.45387 0.363981 0
M  V30 25038 C 2409.96 4.25366 -0.474123 0
M  V30 25039 C 2409.29 5.33033 0.421952 0
M  V30 25040 C 2410.59 4.9292 -1.72704 0
M  V30 25041 H 2412.28 2.72144 -1.24812 0
M  V30 25042 H 2409.83 1.30831 -0.601608 0
M  V30 25043 H 2411.78 4.1511 0.725374 0
M  V30 25044 H 2410.5 3.02076 1.24168 0
M  V30 25045 H 2409.16 3.57359 -0.817923 0
M  V30 25046 H 2408.81 4.85965 1.29796 0
M  V30 25047 H 2408.51 5.87445 -0.13516 0
M  V30 25048 H 2410.04 6.05605 0.77941 0
M  V30 25049 H 2411.45 5.55049 -1.43505 0
M  V30 25050 H 2409.85 5.57291 -2.22592 0
M  V30 25051 H 2410.92 4.17883 -2.45971 0
M  V30 25052 N 2412.26 0.668514 1.42719 0
M  V30 25053 C 2413.51 0.187804 2.01226 0
M  V30 25054 C 2413.83 -1.20777 1.53094 0
M  V30 25055 O 2413.1 -1.80976 0.749962 0
M  V30 25056 H 2411.68 0.0664403 0.744039 0
M  V30 25057 H 2414.34 0.863614 1.74722 0
M  V30 25058 H 2413.44 0.184221 3.11556 0
M  V30 25059 N 2413.74 -1.52135 0.411426 0
M  V30 25060 C 2414.7 -2.25664 -0.401049 0
M  V30 25061 C 2415.7 -1.28119 -0.97171 0
M  V30 25062 O 2416.89 -1.52042 -0.850227 0
M  V30 25063 C 2414.02 -3.02866 -1.56477 0
M  V30 25064 H 2415.22 -2.98914 0.243003 0
M  V30 25065 H 2412.77 -1.55437 0.163995 0
M  V30 25066 H 2413.5 -2.33971 -2.24562 0
M  V30 25067 H 2413.29 -3.74485 -1.16204 0
M  V30 25068 H 2414.78 -3.58633 -2.13945 0
M  V30 25069 N 2415.22 -0.14192 -1.5696 0
M  V30 25070 C 2416.46 0.511214 -1.96251 0
M  V30 25071 C 2416.79 1.64849 -1.02657 0
M  V30 25072 O 2416.07 1.94381 -0.0680017 0
M  V30 25073 C 2416.35 1.02221 -3.45287 0
M  V30 25074 C 2416.21 -0.113217 -4.49657 0
M  V30 25075 C 2417.52 1.90567 -3.96702 0
M  V30 25076 H 2414.64 0.184355 -0.71357 0
M  V30 25077 H 2417.29 -0.22212 -1.88697 0
M  V30 25078 H 2415.44 1.64713 -3.51855 0
M  V30 25079 H 2417.11 -0.749382 -4.55172 0
M  V30 25080 H 2415.35 -0.773101 -4.26855 0
M  V30 25081 H 2416.02 0.285956 -5.51259 0
M  V30 25082 H 2418.5 1.37911 -3.92581 0
M  V30 25083 H 2417.37 2.23232 -5.01457 0
M  V30 25084 H 2417.63 2.84073 -3.38755 0
M  V30 25085 N 2416.69 1.57047 0.131868 0
M  V30 25086 C 2417.92 1.88343 0.856428 0
M  V30 25087 C 2418.34 0.731787 1.74041 0
M  V30 25088 O 2417.69 -0.297914 1.80052 0
M  V30 25089 C 2417.74 3.19002 1.70058 0
M  V30 25090 O 2417.47 4.29731 0.852203 0
M  V30 25091 C 2418.97 3.63915 2.53141 0
M  V30 25092 H 2416.19 0.623934 0.246874 0
M  V30 25093 H 2418.73 2.04147 0.120117 0
M  V30 25094 H 2416.89 3.04906 2.38979 0
M  V30 25095 H 2417.3 5.04539 1.4332 0
M  V30 25096 H 2418.77 4.58135 3.07923 0
M  V30 25097 H 2419.25 2.8994 3.29896 0
M  V30 25098 H 2419.86 3.80756 1.89486 0
M  V30 25099 N 2418.17 -0.401677 1.52395 0
M  V30 25100 C 2419.12 -1.51036 1.76892 0
M  V30 25101 C 2420.11 -1.56994 0.636326 0
M  V30 25102 O 2421.32 -1.60312 0.818535 0
M  V30 25103 H 2417.69 -0.502446 0.559511 0
M  V30 25104 H 2419.67 -1.27563 2.6976 0
M  V30 25105 C 2418.41 -2.8832 1.94336 0
M  V30 25106 H 2417.74 -2.84481 2.8091 0
M  V30 25107 H 2419.18 -3.65168 2.15473 0
M  V30 25108 C 2417.64 -3.29281 0.712454 0
M  V30 25109 O 2418.17 -4.01532 -0.116147 0
M  V30 25110 N 2416.37 -2.85421 0.546204 0
M  V30 25111 H 2415.92 -2.26792 1.2216 0
M  V30 25112 H 2415.88 -3.13186 -0.276058 0
M  V30 25113 N 2419.65 -1.43144 -0.659362 0
M  V30 25114 C 2420.56 -1.50259 -1.80165 0
M  V30 25115 C 2421.58 -0.390136 -1.6957 0
M  V30 25116 O 2422.75 -0.643352 -1.90848 0
M  V30 25117 C 2419.82 -1.41731 -3.16407 0
M  V30 25118 C 2418.88 -2.63597 -3.38844 0
M  V30 25119 C 2418.11 -2.55466 -4.68586 0
M  V30 25120 O 2418.33 -1.59901 -5.47529 0
M  V30 25121 O 2417.27 -3.45863 -4.92608 0
M  V30 25122 H 2421.09 -2.46705 -1.77117 0
M  V30 25123 H 2418.68 -1.25077 -0.81707 0
M  V30 25124 H 2420.56 -1.39394 -3.97677 0
M  V30 25125 H 2419.24 -0.484174 -3.20058 0
M  V30 25126 H 2418.14 -2.71507 -2.57361 0
M  V30 25127 H 2419.48 -3.55862 -3.40034 0
M  V30 25128 N 2421.13 0.897149 -1.29572 0
M  V30 25129 C 2422.37 1.65032 -1.17866 0
M  V30 25130 C 2422.71 1.92332 0.268695 0
M  V30 25131 O 2421.98 1.53557 1.19375 0
M  V30 25132 C 2422.26 2.99783 -1.99505 0
M  V30 25133 C 2422.12 2.79532 -3.52395 0
M  V30 25134 C 2423.44 4.00549 -1.82342 0
M  V30 25135 H 2420.56 0.598887 -0.429538 0
M  V30 25136 H 2423.2 1.03902 -1.59073 0
M  V30 25137 H 2421.35 3.51959 -1.64491 0
M  V30 25138 H 2423.02 2.34237 -3.97405 0
M  V30 25139 H 2421.26 2.14266 -3.7719 0
M  V30 25140 H 2421.93 3.75295 -4.04794 0
M  V30 25141 H 2424.41 3.57491 -2.1293 0
M  V30 25142 H 2423.29 4.92767 -2.4181 0
M  V30 25143 H 2423.55 4.35178 -0.779285 0
M  V30 25144 N 2422.61 1.1209 1.10786 0
M  V30 25145 C 2423.83 0.896684 1.8646 0
M  V30 25146 C 2424.25 -0.55388 1.80493 0
M  V30 25147 O 2423.61 -1.38276 1.19105 0
M  V30 25148 C 2423.66 1.35849 3.35004 0
M  V30 25149 O 2423.38 2.75219 3.40861 0
M  V30 25150 C 2424.88 1.17067 4.27563 0
M  V30 25151 H 2422.1 0.320664 0.58942 0
M  V30 25152 H 2424.64 1.48995 1.40074 0
M  V30 25153 H 2422.8 0.808525 3.78869 0
M  V30 25154 H 2423.21 2.95397 4.33406 0
M  V30 25155 H 2424.69 1.54272 5.30004 0
M  V30 25156 H 2425.16 0.110891 4.3906 0
M  V30 25157 H 2425.77 1.70796 3.89498 0
M  V30 25158 N 2424.08 -1.28513 0.912254 0
M  V30 25159 C 2425.01 -2.29756 0.416443 0
M  V30 25160 C 2425.99 -1.62111 -0.515166 0
M  V30 25161 O 2427.18 -1.89532 -0.423219 0
M  V30 25162 C 2424.31 -3.45576 -0.345659 0
M  V30 25163 C 2423.26 -4.25108 0.496674 0
M  V30 25164 C 2422.59 -5.33249 -0.393678 0
M  V30 25165 C 2423.89 -4.91998 1.75316 0
M  V30 25166 H 2425.58 -2.71478 1.26254 0
M  V30 25167 H 2423.13 -1.3051 0.608538 0
M  V30 25168 H 2425.08 -4.15489 -0.703349 0
M  V30 25169 H 2423.81 -3.0273 -1.22565 0
M  V30 25170 H 2422.47 -3.5692 0.836863 0
M  V30 25171 H 2422.11 -4.86647 -1.27217 0
M  V30 25172 H 2421.81 -5.87365 0.166312 0
M  V30 25173 H 2423.34 -6.0601 -0.747283 0
M  V30 25174 H 2424.75 -5.5428 1.46446 0
M  V30 25175 H 2423.15 -5.56102 2.25544 0
M  V30 25176 H 2424.22 -4.16573 2.48184 0
M  V30 25177 N 2425.56 -0.676073 -1.42362 0
M  V30 25178 C 2426.79 -0.207304 -2.05859 0
M  V30 25179 C 2427.21 1.13602 -1.50798 0
M  V30 25180 O 2426.56 1.70597 -0.648295 0
M  V30 25181 C 2426.61 -0.135039 -3.61248 0
M  V30 25182 O 2426.33 -1.42528 -4.14267 0
M  V30 25183 C 2427.84 0.357073 -4.4186 0
M  V30 25184 H 2425.06 -0.100514 -0.663429 0
M  V30 25185 H 2427.6 -0.923168 -1.82477 0
M  V30 25186 H 2425.75 0.531521 -3.83736 0
M  V30 25187 H 2426.17 -1.29948 -5.08147 0
M  V30 25188 H 2427.64 0.356544 -5.50847 0
M  V30 25189 H 2428.12 1.39256 -4.16539 0
M  V30 25190 H 2428.73 -0.277794 -4.24392 0
M  V30 25191 N 2427.04 1.51915 -0.419488 0
M  V30 25192 C 2427.99 2.24127 0.418457 0
M  V30 25193 C 2428.97 1.25658 1.00493 0
M  V30 25194 O 2430.17 1.50843 0.926031 0
M  V30 25195 C 2427.3 3.07374 1.52893 0
M  V30 25196 C 2426.38 4.1326 0.952724 0
M  V30 25197 N 2426.77 5.05693 0.104086 0
M  V30 25198 C 2425.07 4.28928 1.22217 0
M  V30 25199 C 2425.77 5.81293 -0.217622 0
M  V30 25200 N 2424.75 5.42169 0.394198 0
M  V30 25201 H 2428.55 2.9295 -0.2361 0
M  V30 25202 H 2426.06 1.60756 -0.230509 0
M  V30 25203 H 2428.06 3.57669 2.14193 0
M  V30 25204 H 2426.72 2.40091 2.18601 0
M  V30 25205 H 2427.73 5.17242 -0.261015 0
M  V30 25206 H 2424.41 3.72874 1.87806 0
M  V30 25207 H 2425.8 6.65749 -0.907109 0
M  V30 25208 N 2428.52 0.150242 1.56882 0
M  V30 25209 C 2429.93 -0.370044 1.82996 0
M  V30 25210 C 2430.28 -1.64514 1.0691 0
M  V30 25211 O 2429.41 -2.14089 0.315407 0
M  V30 25212 C 2430 -0.67815 3.31944 0
M  V30 25213 C 2428.56 -1.14295 3.58627 0
M  V30 25214 C 2427.71 -0.167729 2.76792 0
M  V30 25215 H 2430.66 0.374885 1.54209 0
M  V30 25216 H 2430.68 -1.53248 3.48275 0
M  V30 25217 H 2430.19 0.25006 3.87294 0
M  V30 25218 H 2428.29 -2.08699 3.08668 0
M  V30 25219 H 2428.4 -1.06668 4.67075 0
M  V30 25220 H 2426.77 -0.660994 2.45974 0
M  V30 25221 H 2427.55 0.754128 3.34915 0
M  V30 25222 N 2430 -1.57115 -0.123538 0
M  V30 25223 C 2431.24 -1.84887 -0.833354 0
M  V30 25224 C 2431.58 -0.735324 -1.7974 0
M  V30 25225 O 2430.85 0.259216 -1.92765 0
M  V30 25226 C 2431.13 -3.23231 -1.58725 0
M  V30 25227 C 2430.99 -4.45179 -0.643104 0
M  V30 25228 C 2432.31 -3.59089 -2.54447 0
M  V30 25229 H 2429.42 -0.672505 -0.301507 0
M  V30 25230 H 2432.07 -1.89748 -0.0977447 0
M  V30 25231 H 2430.22 -3.19218 -2.21433 0
M  V30 25232 H 2431.89 -4.61293 -0.0252204 0
M  V30 25233 H 2430.13 -4.33776 0.0456901 0
M  V30 25234 H 2430.8 -5.38639 -1.20714 0
M  V30 25235 H 2433.28 -3.63864 -2.01846 0
M  V30 25236 H 2432.15 -4.56875 -3.0423 0
M  V30 25237 H 2432.42 -2.8627 -3.36901 0
M  V30 25238 N 2431.47 0.393589 -1.52606 0
M  V30 25239 C 2432.7 1.1604 -1.71296 0
M  V30 25240 C 2433.12 1.83855 -0.429292 0
M  V30 25241 O 2432.47 1.72498 0.595891 0
M  V30 25242 C 2432.53 2.21188 -2.85934 0
M  V30 25243 O 2432.25 1.56138 -4.09332 0
M  V30 25244 C 2433.75 3.10631 -3.16265 0
M  V30 25245 H 2430.97 0.348094 -0.573647 0
M  V30 25246 H 2433.51 0.461057 -1.99235 0
M  V30 25247 H 2431.67 2.86765 -2.6047 0
M  V30 25248 H 2432.08 2.2597 -4.73326 0
M  V30 25249 H 2433.55 3.80449 -3.99953 0
M  V30 25250 H 2434.03 3.7388 -2.30457 0
M  V30 25251 H 2434.64 2.50704 -3.43551 0
M  V30 25252 N 2432.95 1.43492 0.651762 0
M  V30 25253 C 2433.9 1.48763 1.7646 0
M  V30 25254 C 2434.87 0.337217 1.62641 0
M  V30 25255 O 2436.05 0.544576 1.82863 0
M  V30 25256 C 2433.19 1.41802 3.14621 0
M  V30 25257 C 2432.31 2.67059 3.39563 0
M  V30 25258 C 2431.44 2.52076 4.6758 0
M  V30 25259 C 2430.48 3.72595 4.85633 0
M  V30 25260 N 2429.62 3.56413 6.04908 0
M  V30 25261 H 2434.46 2.43852 1.71289 0
M  V30 25262 H 2432 1.21044 0.835868 0
M  V30 25263 H 2433.95 1.3576 3.94494 0
M  V30 25264 H 2432.58 0.502936 3.18858 0
M  V30 25265 H 2431.64 2.83374 2.53778 0
M  V30 25266 H 2432.95 3.56578 3.48788 0
M  V30 25267 H 2432.1 2.4375 5.55582 0
M  V30 25268 H 2430.84 1.60084 4.60678 0
M  V30 25269 H 2429.85 3.81328 3.96067 0
M  V30 25270 H 2431.07 4.65598 4.94364 0
M  V30 25271 H 2429.02 2.67156 5.99136 0
M  V30 25272 H 2428.93 4.39534 6.15098 0
M  V30 25273 H 2430.2 3.51941 6.95527 0
M  V30 25274 N 2434.43 -0.890264 1.30046 0
M  V30 25275 C 2435.66 -1.67242 1.21299 0
M  V30 25276 C 2436.07 -1.87828 -0.227438 0
M  V30 25277 O 2435.41 -1.42202 -1.16293 0
M  V30 25278 C 2435.47 -3.07325 1.86524 0
M  V30 25279 C 2435.14 -3.09933 3.35843 0
M  V30 25280 C 2436.13 -2.89381 4.3192 0
M  V30 25281 C 2433.82 -3.31699 3.77202 0
M  V30 25282 C 2435.81 -2.90543 5.6733 0
M  V30 25283 C 2433.5 -3.3249 5.12731 0
M  V30 25284 C 2434.5 -3.11936 6.07606 0
M  V30 25285 O 2434.19 -3.12534 7.4066 0
M  V30 25286 H 2433.92 -0.528813 0.421109 0
M  V30 25287 H 2436.47 -1.121 1.72113 0
M  V30 25288 H 2434.7 -3.6411 1.30234 0
M  V30 25289 H 2436.39 -3.6767 1.71969 0
M  V30 25290 H 2437.16 -2.72368 4.01299 0
M  V30 25291 H 2433.04 -3.46735 3.03802 0
M  V30 25292 H 2436.58 -2.74418 6.41359 0
M  V30 25293 H 2432.48 -3.49038 5.42994 0
M  V30 25294 H 2433.25 -3.28736 7.49583 0
M  V30 25295 N 2435.91 -1.12676 -1.1019 0
M  V30 25296 C 2437.16 -0.878332 -1.81572 0
M  V30 25297 C 2437.47 0.597525 -1.8625 0
M  V30 25298 O 2438.68 0.962636 -2.53861 0
M  V30 25299 C 2437.13 -1.52173 -3.26146 0
M  V30 25300 C 2436.74 -3.03255 -3.29758 0
M  V30 25301 C 2438.48 -1.35367 -4.02338 0
M  V30 25302 C 2436.39 -3.60517 -4.68809 0
M  V30 25303 H 2435.32 -0.324942 -0.680388 0
M  V30 25304 H 2437.97 -1.35355 -1.239 0
M  V30 25305 H 2436.35 -0.974172 -3.83831 0
M  V30 25306 H 2437.53 -3.64525 -2.81884 0
M  V30 25307 H 2435.84 -3.19486 -2.67053 0
M  V30 25308 H 2438.44 -1.75568 -5.05054 0
M  V30 25309 H 2438.78 -0.297627 -4.15235 0
M  V30 25310 H 2439.32 -1.87059 -3.51075 0
M  V30 25311 H 2436.06 -4.65892 -4.61112 0
M  V30 25312 H 2435.58 -3.04023 -5.1704 0
M  V30 25313 H 2437.25 -3.59726 -5.37779 0
M  V30 25314 N 2437.39 1.28028 -0.919057 0
M  V30 25315 C 2438.35 2.25389 -0.416221 0
M  V30 25316 C 2439.35 1.54068 0.460411 0
M  V30 25317 O 2440.54 1.72208 0.262714 0
M  V30 25318 C 2437.67 3.38514 0.402647 0
M  V30 25319 H 2438.86 2.71385 -1.27634 0
M  V30 25320 H 2436.42 1.39802 -0.698943 0
M  V30 25321 H 2437.15 2.97887 1.28194 0
M  V30 25322 H 2436.94 3.91449 -0.225767 0
M  V30 25323 H 2438.43 4.10899 0.745118 0
M  V30 25324 N 2438.86 0.683613 1.42002 0
M  V30 25325 C 2440.09 0.218218 2.05746 0
M  V30 25326 C 2440.51 -1.12801 1.51398 0
M  V30 25327 O 2439.86 -1.70251 0.657333 0
M  V30 25328 C 2439.92 0.154194 3.61171 0
M  V30 25329 O 2439.64 1.44723 4.13505 0
M  V30 25330 C 2441.14 -0.333635 4.42043 0
M  V30 25331 H 2438.36 0.104031 0.662886 0
M  V30 25332 H 2440.9 0.932832 1.81985 0
M  V30 25333 H 2439.06 -0.511163 3.84013 0
M  V30 25334 H 2439.47 1.32641 5.07451 0
M  V30 25335 H 2440.94 -0.327326 5.51029 0
M  V30 25336 H 2441.42 -1.37045 4.17271 0
M  V30 25337 H 2442.03 0.300297 4.24239 0
M  V30 25338 N 2440.34 -1.5169 0.427538 0
M  V30 25339 C 2441.58 -2.0391 -0.141488 0
M  V30 25340 C 2441.95 -1.30526 -1.40808 0
M  V30 25341 O 2443.15 -1.73067 -2.05673 0
M  V30 25342 C 2441.42 -3.55532 -0.3649 0
M  V30 25343 S 2442.98 -4.29498 -0.898737 0
M  V30 25344 H 2439.8 -0.710065 -0.0364417 0
M  V30 25345 H 2442.4 -1.86552 0.584692 0
M  V30 25346 H 2441.1 -4.06514 0.563431 0
M  V30 25347 H 2440.63 -3.77166 -1.11844 0
M  V30 25348 H 2442.65 -4.45875 -2.17739 0
M  V30 25349 N 2441.82 -0.15856 -1.568 0
M  V30 25350 C 2442.75 0.815028 -2.13149 0
M  V30 25351 C 2443.73 1.2346 -1.05812 0
M  V30 25352 O 2444.92 1.32865 -1.33713 0
M  V30 25353 C 2442.04 2.09589 -2.66064 0
M  V30 25354 C 2441.09 1.82134 -3.85655 0
M  V30 25355 S 2441.92 1.00198 -5.26042 0
M  V30 25356 C 2443.08 2.29378 -5.82354 0
M  V30 25357 H 2443.31 0.335885 -2.95397 0
M  V30 25358 H 2440.84 0.055912 -1.54299 0
M  V30 25359 H 2442.8 2.83165 -2.972 0
M  V30 25360 H 2441.46 2.54618 -1.83926 0
M  V30 25361 H 2440.66 2.77139 -4.20963 0
M  V30 25362 H 2440.26 1.16661 -3.5534 0
M  V30 25363 H 2442.55 3.24942 -5.94491 0
M  V30 25364 H 2443.49 1.98558 -6.79691 0
M  V30 25365 H 2443.9 2.40555 -5.10679 0
M  V30 25366 N 2443.3 1.57178 0.115204 0
M  V30 25367 C 2444.23 1.97271 1.16691 0
M  V30 25368 C 2445.24 0.872526 1.37444 0
M  V30 25369 O 2446.43 1.15079 1.36452 0
M  V30 25370 C 2443.53 2.25909 2.52623 0
M  V30 25371 C 2442.71 3.57215 2.5242 0
M  V30 25372 C 2441.77 3.74022 3.70127 0
M  V30 25373 O 2440.79 4.46093 3.53538 0
M  V30 25374 N 2441.99 3.13077 4.88839 0
M  V30 25375 H 2444.76 2.88097 0.82583 0
M  V30 25376 H 2442.32 1.59012 0.304433 0
M  V30 25377 H 2444.31 2.34364 3.29932 0
M  V30 25378 H 2442.88 1.41191 2.78898 0
M  V30 25379 H 2442.1 3.59913 1.60798 0
M  V30 25380 H 2443.39 4.43514 2.49345 0
M  V30 25381 H 2442.79 2.54498 5.0522 0
M  V30 25382 H 2441.34 3.27047 5.63811 0
M  V30 25383 N 2444.78 -0.38549 1.52813 0
M  V30 25384 C 2445.74 -1.45382 1.77191 0
M  V30 25385 C 2446.74 -1.47429 0.641979 0
M  V30 25386 O 2447.93 -1.48538 0.910059 0
M  V30 25387 C 2445.06 -2.84647 1.87587 0
M  V30 25388 H 2446.26 -1.25049 2.72585 0
M  V30 25389 H 2443.81 -0.617442 1.43587 0
M  V30 25390 H 2444.54 -3.1032 0.941903 0
M  V30 25391 H 2444.33 -2.84562 2.69753 0
M  V30 25392 H 2445.82 -3.6205 2.08109 0
M  V30 25393 N 2446.26 -1.43835 -0.644143 0
M  V30 25394 C 2447.53 -1.36409 -1.40186 0
M  V30 25395 C 2447.91 -0.0163495 -2.11094 0
M  V30 25396 O 2447.26 1.00059 -2.05428 0
M  V30 25397 C 2447.47 -2.55347 -2.37905 0
M  V30 25398 C 2448.82 -2.98837 -3.01631 0
M  V30 25399 O 2449.84 -2.55459 -2.48232 0
M  V30 25400 O 2448.7 -3.7401 -3.9847 0
M  V30 25401 H 2445.8 -0.539534 -0.626764 0
M  V30 25402 H 2448.34 -1.55901 -0.670289 0
M  V30 25403 H 2447.11 -3.45063 -1.84519 0
M  V30 25404 H 2446.74 -2.38001 -3.18498 0
M  V30 25405 N 2447.73 0.883355 -1.30517 0
M  V30 25406 C 2448.66 2.00538 -1.1961 0
M  V30 25407 C 2449.64 1.69881 -0.0863759 0
M  V30 25408 O 2450.83 1.92332 -0.268687 0
M  V30 25409 C 2447.96 3.35734 -0.888817 0
M  V30 25410 C 2446.91 3.80656 -1.95665 0
M  V30 25411 C 2446.24 5.13161 -1.50233 0
M  V30 25412 C 2447.54 3.99207 -3.36795 0
M  V30 25413 H 2449.23 2.09921 -2.13479 0
M  V30 25414 H 2446.78 1.00861 -1.02776 0
M  V30 25415 H 2448.73 4.13753 -0.799167 0
M  V30 25416 H 2447.46 3.26488 0.0855552 0
M  V30 25417 H 2446.12 3.04867 -2.03597 0
M  V30 25418 H 2445.76 5.00344 -0.51618 0
M  V30 25419 H 2445.46 5.44188 -2.21659 0
M  V30 25420 H 2446.99 5.93703 -1.4265 0
M  V30 25421 H 2448.4 4.6766 -3.31613 0
M  V30 25422 H 2446.8 4.41614 -4.06322 0
M  V30 25423 H 2447.87 3.03011 -3.78566 0
M  V30 25424 N 2449.21 1.13259 1.09591 0
M  V30 25425 C 2450.12 0.82173 2.19738 0
M  V30 25426 C 2451.14 -0.19299 1.72926 0
M  V30 25427 O 2452.31 -0.0244541 2.01385 0
M  V30 25428 C 2449.38 0.290394 3.45482 0
M  V30 25429 C 2448.44 1.36614 4.06983 0
M  V30 25430 C 2447.67 0.860067 5.26724 0
M  V30 25431 O 2447.9 -0.302981 5.69595 0
M  V30 25432 O 2446.83 1.63362 5.79307 0
M  V30 25433 H 2450.66 1.74193 2.48778 0
M  V30 25434 H 2448.24 0.909915 1.18494 0
M  V30 25435 H 2450.12 -0.00059995 4.214 0
M  V30 25436 H 2448.8 -0.60225 3.18048 0
M  V30 25437 H 2447.7 1.71043 3.32709 0
M  V30 25438 H 2449.04 2.23287 4.38639 0
M  V30 25439 N 2450.69 -1.27539 0.925834 0
M  V30 25440 C 2451.94 -1.93738 0.561118 0
M  V30 25441 C 2452.25 -1.73579 -0.901654 0
M  V30 25442 O 2453.46 -2.34103 -1.37507 0
M  V30 25443 C 2451.91 -3.47061 0.952729 0
M  V30 25444 C 2451.52 -3.75979 2.43606 0
M  V30 25445 C 2453.27 -4.19351 0.659176 0
M  V30 25446 C 2451.17 -5.22668 2.76716 0
M  V30 25447 H 2450.1 -0.725275 0.206135 0
M  V30 25448 H 2452.75 -1.44861 1.12639 0
M  V30 25449 H 2451.14 -3.94736 0.316123 0
M  V30 25450 H 2452.31 -3.39068 3.12041 0
M  V30 25451 H 2450.62 -3.16888 2.70131 0
M  V30 25452 H 2453.22 -5.27357 0.883077 0
M  V30 25453 H 2453.56 -4.1434 -0.403535 0
M  V30 25454 H 2454.1 -3.77491 1.2548 0
M  V30 25455 H 2450.84 -5.32767 3.81889 0
M  V30 25456 H 2450.36 -5.60733 2.12929 0
M  V30 25457 H 2452.04 -5.90527 2.64361 0
M  V30 25458 N 2452.17 -0.691135 -1.41637 0
M  V30 25459 C 2453.1 0.0274512 -2.28183 0
M  V30 25460 C 2454.08 0.792399 -1.41985 0
M  V30 25461 O 2455.26 0.784139 -1.71416 0
M  V30 25462 C 2452.39 1.04622 -3.22136 0
M  V30 25463 C 2451.44 0.374962 -4.24849 0
M  V30 25464 S 2452.27 -0.879414 -5.2823 0
M  V30 25465 C 2453.42 0.137873 -6.25748 0
M  V30 25466 H 2453.66 -0.706604 -2.88781 0
M  V30 25467 H 2451.19 -0.481248 -1.46708 0
M  V30 25468 H 2453.15 1.62887 -3.768 0
M  V30 25469 H 2451.81 1.75282 -2.60643 0
M  V30 25470 H 2451 1.14424 -4.90839 0
M  V30 25471 H 2450.6 -0.1345 -3.73758 0
M  V30 25472 H 2452.9 0.992541 -6.7019 0
M  V30 25473 H 2453.84 -0.487991 -7.06416 0
M  V30 25474 H 2454.25 0.490663 -5.62364 0
M  V30 25475 N 2453.65 1.51461 -0.435577 0
M  V30 25476 C 2454.87 2.0649 0.130206 0
M  V30 25477 C 2455.29 1.30318 1.36612 0
M  V30 25478 O 2454.65 0.362255 1.78869 0
M  V30 25479 C 2454.7 3.58635 0.45419 0
M  V30 25480 O 2454.42 4.3193 -0.732666 0
M  V30 25481 C 2455.92 4.30172 1.07084 0
M  V30 25482 H 2453.14 0.670944 0.0087049 0
M  V30 25483 H 2455.68 1.9506 -0.614151 0
M  V30 25484 H 2453.84 3.69986 1.14845 0
M  V30 25485 H 2454.25 5.22515 -0.455879 0
M  V30 25486 H 2455.73 5.37718 1.24754 0
M  V30 25487 H 2456.2 3.8835 2.05137 0
M  V30 25488 H 2456.81 4.2326 0.416015 0
M  V30 25489 N 2455.12 0.166873 1.56714 0
M  V30 25490 C 2456.35 -0.488798 2.01558 0
M  V30 25491 C 2456.77 -1.56313 1.04633 0
M  V30 25492 O 2456.13 -1.81283 0.0251623 0
M  V30 25493 C 2456.18 -1.04812 3.45032 0
M  V30 25494 O 2455.28 -2.1623 3.51167 0
M  V30 25495 H 2454.63 -0.117515 0.653518 0
M  V30 25496 H 2457.16 0.269457 2.02818 0
M  V30 25497 H 2457.17 -1.37184 3.84245 0
M  V30 25498 H 2455.84 -0.261499 4.15077 0
M  V30 25499 H 2454.42 -1.84936 3.2381 0
M  V30 25500 N 2456.6 -1.57237 -0.106866 0
M  V30 25501 C 2457.83 -1.90057 -0.830254 0
M  V30 25502 C 2458.25 -0.76001 -1.72062 0
M  V30 25503 O 2457.61 0.288959 -1.78982 0
M  V30 25504 C 2457.66 -3.21685 -1.62944 0
M  V30 25505 O 2456.76 -3.08446 -2.73743 0
M  V30 25506 H 2456.1 -0.623319 -0.228844 0
M  V30 25507 H 2458.63 -2.04421 -0.0856221 0
M  V30 25508 H 2458.64 -3.54705 -2.01615 0
M  V30 25509 H 2457.32 -4.04288 -0.975918 0
M  V30 25510 H 2455.9 -2.86917 -2.38186 0
M  V30 25511 N 2458.08 0.377381 -1.53015 0
M  V30 25512 C 2459.33 1.11945 -1.69823 0
M  V30 25513 C 2459.68 1.87334 -0.438614 0
M  V30 25514 O 2458.97 1.82985 0.568062 0
M  V30 25515 C 2459.17 2.11657 -2.87986 0
M  V30 25516 C 2459 1.46064 -4.25318 0
M  V30 25517 C 2457.77 1.21978 -4.90357 0
M  V30 25518 C 2459.97 0.904575 -5.06282 0
M  V30 25519 N 2457.95 0.526107 -6.11641 0
M  V30 25520 C 2459.32 0.339617 -6.19069 0
M  V30 25521 C 2461.37 0.802113 -4.91397 0
M  V30 25522 C 2460.08 -0.317795 -7.18598 0
M  V30 25523 C 2462.1 0.158502 -5.91188 0
M  V30 25524 C 2461.46 -0.395633 -7.03288 0
M  V30 25525 H 2457.56 0.395195 -0.674792 0
M  V30 25526 H 2460.15 0.407403 -1.9039 0
M  V30 25527 H 2458.32 2.80187 -2.68979 0
M  V30 25528 H 2460.05 2.78456 -2.93674 0
M  V30 25529 H 2456.81 1.4979 -4.49288 0
M  V30 25530 H 2457.23 0.194979 -6.76719 0
M  V30 25531 H 2461.87 1.21631 -4.04927 0
M  V30 25532 H 2459.59 -0.743978 -8.04668 0
M  V30 25533 H 2463.18 0.0803115 -5.81745 0
M  V30 25534 H 2462.06 -0.885785 -7.79181 0
M  V30 25535 N 2459.56 1.44175 0.636506 0
M  V30 25536 C 2460.8 1.46892 1.39823 0
M  V30 25537 C 2461.14 0.0990926 1.93947 0
M  V30 25538 O 2460.41 -0.882514 1.73326 0
M  V30 25539 C 2460.7 2.52494 2.56746 0
M  V30 25540 C 2460.55 3.98815 2.08007 0
M  V30 25541 C 2461.87 2.54655 3.58941 0
M  V30 25542 H 2458.99 0.534839 0.507066 0
M  V30 25543 H 2461.63 1.75823 0.720157 0
M  V30 25544 H 2459.78 2.27955 3.14593 0
M  V30 25545 H 2461.45 4.34468 1.55032 0
M  V30 25546 H 2459.69 4.10848 1.39235 0
M  V30 25547 H 2460.36 4.68344 2.92161 0
M  V30 25548 H 2462.84 2.76568 3.10885 0
M  V30 25549 H 2461.72 3.30457 4.3828 0
M  V30 25550 H 2461.98 1.58653 4.12652 0
M  V30 25551 N 2461.04 -0.876421 1.30983 0
M  V30 25552 C 2461.97 -1.99901 1.20672 0
M  V30 25553 C 2462.95 -1.69832 0.0953838 0
M  V30 25554 O 2464.13 -1.92187 0.278884 0
M  V30 25555 C 2461.26 -3.35258 0.906609 0
M  V30 25556 C 2460.22 -3.79613 1.97681 0
M  V30 25557 C 2459.54 -5.12357 1.52952 0
M  V30 25558 C 2460.84 -3.97416 3.38907 0
M  V30 25559 H 2462.54 -2.08786 2.1459 0
M  V30 25560 H 2460.08 -1.00315 1.0331 0
M  V30 25561 H 2462.04 -4.13323 0.821098 0
M  V30 25562 H 2460.76 -3.26529 -0.0682395 0
M  V30 25563 H 2459.42 -3.03783 2.05211 0
M  V30 25564 H 2459.07 -5.00064 0.542707 0
M  V30 25565 H 2458.77 -5.43005 2.24542 0
M  V30 25566 H 2460.29 -5.92938 1.45796 0
M  V30 25567 H 2461.7 -4.65894 3.34089 0
M  V30 25568 H 2460.1 -4.39453 4.08658 0
M  V30 25569 H 2461.17 -3.00999 3.80168 0
M  V30 25570 N 2462.51 -1.13839 -1.08989 0
M  V30 25571 C 2463.48 -0.822752 -2.13924 0
M  V30 25572 C 2464.48 0.169872 -1.599 0
M  V30 25573 O 2465.67 -0.0577557 -1.74104 0
M  V30 25574 C 2462.8 -0.225378 -3.40154 0
M  V30 25575 H 2463.99 -1.75267 -2.43355 0
M  V30 25576 H 2461.55 -0.943616 -1.24602 0
M  V30 25577 H 2462.28 0.713538 -3.16353 0
M  V30 25578 H 2462.07 -0.94026 -3.80659 0
M  V30 25579 H 2463.56 -0.0215518 -4.17594 0
M  V30 25580 N 2463.99 1.27046 -0.932584 0
M  V30 25581 C 2465.24 1.93764 -0.574456 0
M  V30 25582 C 2465.56 1.73609 0.887963 0
M  V30 25583 O 2464.83 1.08668 1.62997 0
M  V30 25584 H 2463.41 0.717031 -0.209463 0
M  V30 25585 H 2466.07 1.54658 -1.18604 0
M  V30 25586 H 2465.17 3.02069 -0.784894 0
M  V30 25587 N 2465.47 0.698636 1.41269 0
M  V30 25588 C 2466.72 0.230445 2.00782 0
M  V30 25589 C 2467.04 -1.17503 1.55622 0
M  V30 25590 O 2466.31 -1.79345 0.788181 0
M  V30 25591 H 2464.89 0.0822075 0.742463 0
M  V30 25592 H 2467.55 0.90048 1.72851 0
M  V30 25593 H 2466.65 0.250265 3.11095 0
M  V30 25594 N 2466.95 -1.51228 0.443603 0
M  V30 25595 C 2468.19 -2.02439 -0.120939 0
M  V30 25596 C 2468.53 -1.32676 -1.41812 0
M  V30 25597 O 2467.8 -0.443655 -1.89373 0
M  V30 25598 C 2468.09 -3.58555 -0.333228 0
M  V30 25599 C 2467.94 -4.38926 0.983045 0
M  V30 25600 C 2469.26 -4.26126 -1.10021 0
M  V30 25601 H 2466.38 -0.735775 -0.0424793 0
M  V30 25602 H 2469.02 -1.80808 0.583826 0
M  V30 25603 H 2467.17 -3.77117 -0.933548 0
M  V30 25604 H 2468.84 -4.32 1.61783 0
M  V30 25605 H 2467.08 -4.03761 1.58618 0
M  V30 25606 H 2467.75 -5.4634 0.788475 0
M  V30 25607 H 2470.23 -4.11872 -0.591638 0
M  V30 25608 H 2469.11 -5.35227 -1.21751 0
M  V30 25609 H 2469.37 -3.87412 -2.12989 0
M  V30 25610 N 2468.43 -0.175182 -1.56623 0
M  V30 25611 C 2469.36 0.749156 -2.21156 0
M  V30 25612 C 2470.34 1.23624 -1.16838 0
M  V30 25613 O 2471.52 1.2887 -1.4528 0
M  V30 25614 C 2468.65 1.97706 -2.85534 0
M  V30 25615 C 2467.61 1.62568 -3.95924 0
M  V30 25616 C 2466.93 2.92856 -4.4737 0
M  V30 25617 C 2468.23 0.850747 -5.15325 0
M  V30 25618 H 2469.93 0.211242 -2.98654 0
M  V30 25619 H 2467.47 0.100163 -1.43651 0
M  V30 25620 H 2469.43 2.62875 -3.29355 0
M  V30 25621 H 2468.15 2.53918 -2.0541 0
M  V30 25622 H 2466.81 0.997657 -3.52764 0
M  V30 25623 H 2466.46 3.47115 -3.64033 0
M  V30 25624 H 2466.16 2.70097 -5.21844 0
M  V30 25625 H 2467.68 3.59048 -4.9388 0
M  V30 25626 H 2469.09 1.40511 -5.55814 0
M  V30 25627 H 2467.49 0.72205 -5.9574 0
M  V30 25628 H 2468.56 -0.152167 -4.84661 0
M  V30 25629 N 2469.91 1.57292 0.0985263 0
M  V30 25630 C 2470.87 2.0086 1.10398 0
M  V30 25631 C 2471.87 0.901616 1.33145 0
M  V30 25632 O 2473.06 1.16718 1.29316 0
M  V30 25633 C 2470.19 2.36636 2.4539 0
M  V30 25634 H 2471.38 2.90904 0.729048 0
M  V30 25635 H 2468.94 1.52479 0.343468 0
M  V30 25636 H 2469.67 1.49536 2.87766 0
M  V30 25637 H 2469.46 3.17391 2.30229 0
M  V30 25638 H 2470.95 2.71013 3.17713 0
M  V30 25639 N 2471.38 -0.369261 1.53213 0
M  V30 25640 C 2472.35 -1.43495 1.78723 0
M  V30 25641 C 2473.35 -1.4674 0.65758 0
M  V30 25642 O 2474.54 -1.47565 0.925762 0
M  V30 25643 C 2471.67 -2.82641 1.90596 0
M  V30 25644 H 2472.86 -1.22151 2.73896 0
M  V30 25645 H 2470.41 -0.602178 1.44234 0
M  V30 25646 H 2471.15 -3.09304 0.974764 0
M  V30 25647 H 2470.93 -2.81685 2.72756 0
M  V30 25648 H 2472.42 -3.59823 2.11937 0
M  V30 25649 N 2472.86 -1.4451 -0.628851 0
M  V30 25650 C 2474.11 -1.47632 -1.39042 0
M  V30 25651 C 2474.44 -0.109377 -1.93892 0
M  V30 25652 O 2473.72 0.87331 -1.73792 0
M  V30 25653 C 2474 -2.53852 -2.55404 0
M  V30 25654 C 2473.85 -3.99912 -2.05889 0
M  V30 25655 C 2475.17 -2.56555 -3.57586 0
M  V30 25656 H 2472.29 -0.537521 -0.504222 0
M  V30 25657 H 2474.93 -1.76202 -0.710823 0
M  V30 25658 H 2473.08 -2.2962 -3.1338 0
M  V30 25659 H 2474.75 -4.35284 -1.52726 0
M  V30 25660 H 2473 -4.11581 -1.37054 0
M  V30 25661 H 2473.67 -4.69887 -2.89673 0
M  V30 25662 H 2476.14 -2.78213 -3.09414 0
M  V30 25663 H 2475.02 -3.32777 -4.36521 0
M  V30 25664 H 2475.28 -1.60839 -4.11805 0
M  V30 25665 N 2474.34 0.869463 -1.31446 0
M  V30 25666 C 2475.3 1.95828 -1.19097 0
M  V30 25667 C 2476.3 1.60367 -0.117934 0
M  V30 25668 O 2477.49 1.70285 -0.367238 0
M  V30 25669 C 2474.62 3.30686 -0.828223 0
M  V30 25670 H 2475.82 2.08208 -2.15846 0
M  V30 25671 H 2473.37 1.05782 -1.15065 0
M  V30 25672 H 2474.11 3.24006 0.138085 0
M  V30 25673 H 2473.89 3.57797 -1.60387 0
M  V30 25674 H 2475.38 4.1052 -0.76573 0
M  V30 25675 N 2475.82 1.14415 1.08383 0
M  V30 25676 C 2476.78 0.834086 2.13485 0
M  V30 25677 C 2477.78 -0.161389 1.59988 0
M  V30 25678 O 2478.97 0.0669881 1.74071 0
M  V30 25679 C 2476.1 0.243414 3.4003 0
M  V30 25680 H 2477.3 1.76555 2.42422 0
M  V30 25681 H 2474.85 0.950211 1.24099 0
M  V30 25682 H 2475.58 -0.696751 3.16727 0
M  V30 25683 H 2475.37 0.960434 3.80155 0
M  V30 25684 H 2476.86 0.0436976 4.17577 0
M  V30 25685 N 2477.3 -1.26549 0.939309 0
M  V30 25686 C 2478.53 -1.97644 0.601697 0
M  V30 25687 C 2478.93 -1.7016 -0.827176 0
M  V30 25688 O 2478.28 -0.965366 -1.56289 0
M  V30 25689 C 2478.34 -3.51336 0.761787 0
M  V30 25690 C 2478 -4.02466 2.16494 0
M  V30 25691 C 2479 -4.14349 3.14024 0
M  V30 25692 C 2476.68 -4.36523 2.48501 0
M  V30 25693 C 2478.68 -4.59579 4.41662 0
M  V30 25694 C 2476.37 -4.81442 3.76373 0
M  V30 25695 C 2477.36 -4.92931 4.72766 0
M  V30 25696 O 2477.05 -5.3686 5.98361 0
M  V30 25697 H 2476.78 -0.637185 0.225769 0
M  V30 25698 H 2479.34 -1.62073 1.26181 0
M  V30 25699 H 2477.57 -3.86674 0.0445488 0
M  V30 25700 H 2479.26 -4.03642 0.427513 0
M  V30 25701 H 2480.02 -3.88285 2.90619 0
M  V30 25702 H 2475.9 -4.26816 1.74209 0
M  V30 25703 H 2479.45 -4.68461 5.16904 0
M  V30 25704 H 2475.34 -5.06949 3.99591 0
M  V30 25705 H 2476.11 -5.55086 6.01516 0
M  V30 25706 N 2478.77 -0.706118 -1.40896 0
M  V30 25707 C 2480.01 -0.245862 -2.02916 0
M  V30 25708 C 2480.38 1.13646 -1.54753 0
M  V30 25709 O 2481.58 1.69317 -2.08771 0
M  V30 25710 C 2479.85 -0.3126 -3.5603 0
M  V30 25711 S 2481.41 0.0720617 -4.38741 0
M  V30 25712 H 2478.23 -0.0982131 -0.704184 0
M  V30 25713 H 2480.83 -0.926238 -1.72166 0
M  V30 25714 H 2479.53 -1.32046 -3.88577 0
M  V30 25715 H 2479.06 0.386572 -3.91496 0
M  V30 25716 H 2481.08 1.29683 -4.78954 0
M  V30 25717 N 2480.25 1.50991 -0.451617 0
M  V30 25718 C 2481.18 2.30969 0.342857 0
M  V30 25719 C 2482.16 1.37007 1.00813 0
M  V30 25720 O 2483.35 1.65928 1.00904 0
M  V30 25721 C 2480.48 3.16208 1.43631 0
M  V30 25722 C 2479.43 4.18564 0.893744 0
M  V30 25723 C 2478.76 4.92415 2.08403 0
M  V30 25724 C 2480.06 5.22236 -0.0816486 0
M  V30 25725 H 2481.75 2.97635 -0.324608 0
M  V30 25726 H 2479.3 1.43135 -0.157556 0
M  V30 25727 H 2481.25 3.70945 1.99944 0
M  V30 25728 H 2479.97 2.4739 2.13227 0
M  V30 25729 H 2478.63 3.64899 0.352734 0
M  V30 25730 H 2478.28 4.20087 2.76651 0
M  V30 25731 H 2477.98 5.61639 1.72731 0
M  V30 25732 H 2479.51 5.49981 2.65242 0
M  V30 25733 H 2480.92 5.71961 0.391642 0
M  V30 25734 H 2479.32 5.99069 -0.351656 0
M  V30 25735 H 2480.39 4.74183 -1.01382 0
M  V30 25736 N 2481.73 0.183486 1.56528 0
M  V30 25737 C 2482.69 -0.728185 2.17325 0
M  V30 25738 C 2483.69 -1.14937 1.12455 0
M  V30 25739 O 2484.88 -1.06434 1.37903 0
M  V30 25740 C 2482.01 -1.99269 2.76595 0
M  V30 25741 H 2483.21 -0.19872 2.99241 0
M  V30 25742 H 2480.76 -0.0661116 1.5616 0
M  V30 25743 H 2481.5 -2.56495 1.98446 0
M  V30 25744 H 2481.28 -1.69953 3.53353 0
M  V30 25745 H 2482.77 -2.64305 3.23315 0
M  V30 25746 N 2483.21 -1.57342 -0.0901833 0
M  V30 25747 C 2484.44 -1.90547 -0.806191 0
M  V30 25748 C 2484.85 -0.777674 -1.7204 0
M  V30 25749 O 2484.21 0.250071 -1.80779 0
M  V30 25750 C 2484.26 -3.23399 -1.6154 0
M  V30 25751 O 2483.98 -4.3184 -0.737967 0
M  V30 25752 C 2485.48 -3.70499 -2.43404 0
M  V30 25753 H 2482.7 -0.630261 -0.230245 0
M  V30 25754 H 2485.24 -2.04394 -0.0659484 0
M  V30 25755 H 2483.4 -3.11135 -2.30811 0
M  V30 25756 H 2483.81 -5.08162 -1.29893 0
M  V30 25757 H 2485.29 -4.66138 -2.95668 0
M  V30 25758 H 2485.76 -2.98585 -3.22093 0
M  V30 25759 H 2486.37 -3.85646 -1.79324 0
M  V30 25760 N 2484.69 0.36113 -1.53407 0
M  V30 25761 C 2485.93 1.10112 -1.69469 0
M  V30 25762 C 2486.26 1.89704 -0.451385 0
M  V30 25763 O 2485.53 1.88464 0.534602 0
M  V30 25764 H 2484.11 0.409498 -0.624757 0
M  V30 25765 H 2486.77 0.406666 -1.9061 0
M  V30 25766 H 2485.86 1.78843 -2.55777 0
M  V30 25767 N 2486.16 1.44842 0.621179 0
M  V30 25768 C 2487.4 1.49677 1.39199 0
M  V30 25769 C 2487.77 0.129798 1.91561 0
M  V30 25770 O 2488.97 0.0528286 2.68748 0
M  V30 25771 C 2487.24 2.53542 2.51896 0
M  V30 25772 S 2488.8 2.775 3.39911 0
M  V30 25773 H 2485.62 0.529277 0.474749 0
M  V30 25774 H 2488.22 1.81832 0.718139 0
M  V30 25775 H 2486.92 3.51551 2.11755 0
M  V30 25776 H 2486.45 2.22992 3.24096 0
M  V30 25777 H 2488.47 2.09848 4.49642 0
M  V30 25778 N 2487.64 -0.862479 1.31905 0
M  V30 25779 C 2488.89 -1.61092 1.21376 0
M  V30 25780 C 2489.2 -1.94302 -0.225006 0
M  V30 25781 O 2490.41 -2.6771 -0.452074 0
M  V30 25782 C 2488.87 -2.90446 2.1253 0
M  V30 25783 C 2488.47 -2.64691 3.61445 0
M  V30 25784 C 2490.22 -3.6845 2.10819 0
M  V30 25785 C 2488.13 -3.89998 4.44585 0
M  V30 25786 H 2487.06 -0.60446 0.450715 0
M  V30 25787 H 2489.71 -0.953 1.56813 0
M  V30 25788 H 2488.09 -3.57653 1.7 0
M  V30 25789 H 2489.26 -2.05844 4.12268 0
M  V30 25790 H 2487.58 -2.00029 3.65209 0
M  V30 25791 H 2490.17 -4.61421 2.70175 0
M  V30 25792 H 2490.52 -4.01581 1.0972 0
M  V30 25793 H 2491.05 -3.08137 2.51588 0
M  V30 25794 H 2487.79 -3.62013 5.46467 0
M  V30 25795 H 2487.31 -4.48269 3.98516 0
M  V30 25796 H 2488.99 -4.57812 4.57184 0
M  V30 25797 N 2489.12 -1.14988 -1.07775 0
M  V30 25798 C 2490.35 -0.946246 -1.84556 0
M  V30 25799 C 2490.77 0.50033 -1.81324 0
M  V30 25800 O 2490.13 1.35635 -1.20303 0
M  V30 25801 C 2490.18 -1.45973 -3.29733 0
M  V30 25802 O 2489.28 -0.656081 -4.07148 0
M  V30 25803 H 2488.62 -0.33783 -0.571635 0
M  V30 25804 H 2491.15 -1.52867 -1.35988 0
M  V30 25805 H 2491.16 -1.4707 -3.80571 0
M  V30 25806 H 2489.84 -2.51289 -3.31401 0
M  V30 25807 H 2488.41 -0.714386 -3.65993 0
M  V30 25808 N 2490.6 1.26049 -0.946007 0
M  V30 25809 C 2491.85 1.92821 -0.591869 0
M  V30 25810 C 2492.16 1.74991 0.873925 0
M  V30 25811 O 2493.37 2.36261 1.33765 0
M  V30 25812 C 2491.82 3.45501 -1.00782 0
M  V30 25813 C 2491.43 3.72056 -2.49556 0
M  V30 25814 C 2493.17 4.18249 -0.725808 0
M  V30 25815 C 2491.08 5.182 -2.84997 0
M  V30 25816 H 2490.01 0.721904 -0.217647 0
M  V30 25817 H 2492.66 1.4305 -1.1493 0
M  V30 25818 H 2491.04 3.94183 -0.378882 0
M  V30 25819 H 2492.22 3.3406 -3.17396 0
M  V30 25820 H 2490.53 3.12551 -2.75138 0
M  V30 25821 H 2493.13 5.25886 -0.966864 0
M  V30 25822 H 2493.47 4.14929 0.337566 0
M  V30 25823 H 2494.01 3.75447 -1.31469 0
M  V30 25824 H 2490.75 5.26624 -3.90316 0
M  V30 25825 H 2490.27 5.57274 -2.21823 0
M  V30 25826 H 2491.94 5.86247 -2.73722 0
M  V30 25827 N 2492.08 0.71358 1.4052 0
M  V30 25828 C 2493.33 0.249228 2.00154 0
M  V30 25829 C 2493.64 -1.16359 1.57226 0
M  V30 25830 O 2494.84 -1.72635 2.09545 0
M  V30 25831 C 2493.3 0.394663 3.5773 0
M  V30 25832 C 2492.91 1.814 4.09632 0
M  V30 25833 C 2494.65 -0.00899903 4.24499 0
M  V30 25834 C 2492.56 1.91012 5.59704 0
M  V30 25835 H 2491.49 0.0894246 0.748678 0
M  V30 25836 H 2494.14 0.88438 1.60782 0
M  V30 25837 H 2492.52 -0.30904 3.94792 0
M  V30 25838 H 2493.7 2.54791 3.8395 0
M  V30 25839 H 2492.01 2.16894 3.55452 0
M  V30 25840 H 2494.61 0.0421344 5.34683 0
M  V30 25841 H 2494.95 -1.05058 4.02826 0
M  V30 25842 H 2495.48 0.645076 3.92535 0
M  V30 25843 H 2492.22 2.93285 5.86229 0
M  V30 25844 H 2491.74 1.22029 5.87255 0
M  V30 25845 H 2493.42 1.68131 6.24773 0
M  V30 25846 N 2493.55 -1.50749 0.459618 0
M  V30 25847 C 2494.8 -2.01857 -0.0991177 0
M  V30 25848 C 2495.12 -1.34443 -1.41245 0
M  V30 25849 O 2494.39 -0.486055 -1.89774 0
M  V30 25850 H 2492.97 -0.745949 -0.0396199 0
M  V30 25851 H 2495.64 -1.85193 0.60742 0
M  V30 25852 H 2494.73 -3.11024 -0.258943 0
M  V30 25853 N 2495.03 -0.191784 -1.56429 0
M  V30 25854 C 2496.45 0.164109 -1.58754 0
M  V30 25855 C 2496.65 1.61286 -1.20785 0
M  V30 25856 O 2495.7 2.34787 -0.92904 0
M  V30 25857 C 2497.02 -0.135248 -3.00396 0
M  V30 25858 C 2498.57 -0.0750901 -3.1291 0
M  V30 25859 C 2499.04 -0.347712 -4.56678 0
M  V30 25860 N 2500.53 -0.296212 -4.62252 0
M  V30 25861 C 2501.27 -0.481048 -5.71379 0
M  V30 25862 N 2500.76 -0.726054 -6.88985 0
M  V30 25863 N 2502.56 -0.415534 -5.60562 0
M  V30 25864 H 2494.71 -1.13721 -1.79391 0
M  V30 25865 H 2496.97 -0.453657 -0.832406 0
M  V30 25866 H 2496.68 -1.13964 -3.32724 0
M  V30 25867 H 2496.55 0.563708 -3.72964 0
M  V30 25868 H 2498.94 0.919899 -2.80396 0
M  V30 25869 H 2499.02 -0.807071 -2.42734 0
M  V30 25870 H 2498.66 -1.34 -4.89904 0
M  V30 25871 H 2498.59 0.40512 -5.25039 0
M  V30 25872 H 2501.08 -0.113326 -3.7773 0
M  V30 25873 H 2501.4 -0.855992 -7.68045 0
M  V30 25874 H 2499.74 -0.762909 -6.908 0
M  V30 25875 H 2502.93 -0.224568 -4.67561 0
M  V30 25876 H 2503.1 -0.563002 -6.4555 0
M  V30 25877 N 2496.51 1.57387 0.0818378 0
M  V30 25878 C 2497.44 2.0603 1.09881 0
M  V30 25879 C 2498.42 0.951798 1.40978 0
M  V30 25880 O 2499.61 1.2239 1.50779 0
M  V30 25881 C 2496.74 2.49584 2.41506 0
M  V30 25882 C 2495.69 3.64219 2.24786 0
M  V30 25883 C 2495.02 3.93793 3.61705 0
M  V30 25884 C 2496.32 4.94632 1.6774 0
M  V30 25885 H 2498.01 2.91244 0.694077 0
M  V30 25886 H 2495.56 1.4011 0.332424 0
M  V30 25887 H 2497.51 2.82224 3.12934 0
M  V30 25888 H 2496.23 1.61386 2.8394 0
M  V30 25889 H 2494.89 3.31846 1.55801 0
M  V30 25890 H 2494.54 3.02743 4.01691 0
M  V30 25891 H 2494.24 4.70978 3.5136 0
M  V30 25892 H 2495.76 4.28921 4.34579 0
M  V30 25893 H 2497.18 5.25568 2.29023 0
M  V30 25894 H 2495.58 5.7607 1.68118 0
M  V30 25895 H 2496.65 4.80685 0.637975 0
M  V30 25896 N 2497.99 -0.35299 1.53596 0
M  V30 25897 C 2498.94 -1.43346 1.77302 0
M  V30 25898 C 2499.92 -1.48142 0.62791 0
M  V30 25899 O 2501.11 -1.53171 0.886996 0
M  V30 25900 C 2498.24 -2.80616 1.97762 0
M  V30 25901 C 2497.33 -2.80249 3.1831 0
M  V30 25902 N 2497.72 -2.49518 4.39971 0
M  V30 25903 C 2496.02 -3.11402 3.19288 0
M  V30 25904 C 2496.72 -2.57147 5.21776 0
M  V30 25905 N 2495.7 -2.9238 4.58274 0
M  V30 25906 H 2499.5 -1.18469 2.68965 0
M  V30 25907 H 2497.01 -0.56128 1.52392 0
M  V30 25908 H 2499.01 -3.58454 2.12876 0
M  V30 25909 H 2497.67 -3.06446 1.07334 0
M  V30 25910 H 2498.68 -2.22885 4.67486 0
M  V30 25911 H 2495.36 -3.42466 2.38796 0
M  V30 25912 H 2496.75 -2.36627 6.28854 0
M  V30 25913 N 2499.47 -1.45169 -0.613489 0
M  V30 25914 C 2500.4 -1.56228 -1.73537 0
M  V30 25915 C 2501.38 -0.414169 -1.64981 0
M  V30 25916 O 2502.56 -0.636558 -1.83471 0
M  V30 25917 C 2499.69 -1.523 -3.12125 0
M  V30 25918 C 2498.65 -2.65768 -3.35487 0
M  V30 25919 C 2497.97 -2.46893 -4.74287 0
M  V30 25920 C 2499.27 -4.07816 -3.26318 0
M  V30 25921 H 2500.97 -2.50135 -1.64538 0
M  V30 25922 H 2498.51 -1.20384 -0.790164 0
M  V30 25923 H 2500.47 -1.58635 -3.90401 0
M  V30 25924 H 2499.19 -0.549195 -3.21949 0
M  V30 25925 H 2497.85 -2.58852 -2.59598 0
M  V30 25926 H 2497.5 -1.47665 -4.80837 0
M  V30 25927 H 2497.2 -3.22981 -4.90874 0
M  V30 25928 H 2498.72 -2.55073 -5.5477 0
M  V30 25929 H 2500.14 -4.16007 -3.94476 0
M  V30 25930 H 2498.53 -4.84247 -3.54437 0
M  V30 25931 H 2499.6 -4.3014 -2.23847 0
M  V30 25932 N 2500.95 0.855472 -1.32361 0
M  V30 25933 C 2501.89 1.98538 -1.21183 0
M  V30 25934 C 2502.89 1.68997 -0.116818 0
M  V30 25935 O 2504.09 1.77814 -0.279688 0
M  V30 25936 H 2500.47 0.651471 -0.375619 0
M  V30 25937 H 2502.44 2.05094 -2.16747 0
M  V30 25938 C 2501.19 3.34444 -0.950908 0
M  V30 25939 H 2500.51 3.57705 -1.7857 0
M  V30 25940 H 2501.95 4.14055 -0.912936 0
M  V30 25941 C 2500.41 3.35115 0.346346 0
M  V30 25942 O 2500.94 3.78032 1.35848 0
M  V30 25943 N 2499.15 2.8826 0.368029 0
M  V30 25944 H 2498.69 2.53529 -0.456147 0
M  V30 25945 H 2498.65 2.89091 1.23586 0
M  V30 25946 N 2502.42 1.15558 1.07164 0
M  V30 25947 C 2503.7 0.8421 1.76545 0
M  V30 25948 C 2504.08 -0.661904 2.00455 0
M  V30 25949 O 2503.43 -1.60688 1.62455 0
M  V30 25950 C 2503.64 1.65501 3.07263 0
M  V30 25951 C 2504.99 1.86241 3.81575 0
M  V30 25952 O 2506.01 1.62293 3.1708 0
M  V30 25953 O 2504.87 2.26364 4.97415 0
M  V30 25954 H 2501.96 0.309875 0.766751 0
M  V30 25955 H 2504.51 1.26147 1.13512 0
M  V30 25956 H 2503.28 2.67603 2.85489 0
M  V30 25957 H 2502.9 1.2321 3.78028 0
M  V30 25958 N 2503.9 -1.25546 0.952678 0
M  V30 25959 C 2505.32 -1.45459 0.656794 0
M  V30 25960 C 2505.52 -1.85525 -0.786298 0
M  V30 25961 O 2504.57 -1.98404 -1.56179 0
M  V30 25962 C 2505.89 -2.52814 1.62805 0
M  V30 25963 C 2507.43 -2.66656 1.63902 0
M  V30 25964 C 2507.91 -3.77193 2.59787 0
M  V30 25965 N 2509.4 -3.84601 2.5814 0
M  V30 25966 C 2510.14 -4.69616 3.29012 0
M  V30 25967 N 2509.63 -5.58932 4.09349 0
M  V30 25968 N 2511.42 -4.63563 3.17908 0
M  V30 25969 H 2503.58 -0.978311 1.88528 0
M  V30 25970 H 2505.84 -0.491192 0.810823 0
M  V30 25971 H 2505.54 -2.30227 2.65873 0
M  V30 25972 H 2505.42 -3.50693 1.38904 0
M  V30 25973 H 2507.81 -2.88609 0.615532 0
M  V30 25974 H 2507.89 -1.69183 1.91861 0
M  V30 25975 H 2507.53 -3.55991 3.62261 0
M  V30 25976 H 2507.46 -4.74146 2.29113 0
M  V30 25977 H 2509.95 -3.20753 1.99815 0
M  V30 25978 H 2510.26 -6.20723 4.60351 0
M  V30 25979 H 2508.61 -5.58647 4.13448 0
M  V30 25980 H 2511.8 -3.92794 2.54619 0
M  V30 25981 H 2511.97 -5.29595 3.73407 0
M  V30 25982 N 2505.38 -0.721022 -1.40139 0
M  V30 25983 C 2506.63 -0.263267 -2.01084 0
M  V30 25984 C 2506.96 1.14226 -1.57054 0
M  V30 25985 O 2506.23 1.77597 -0.793058 0
M  V30 25986 C 2506.52 -0.349407 -3.58401 0
M  V30 25987 C 2506.37 -1.7937 -4.12488 0
M  V30 25988 C 2507.69 0.276274 -4.39232 0
M  V30 25989 H 2504.81 -0.0971357 -0.730571 0
M  V30 25990 H 2507.45 -0.914547 -1.66541 0
M  V30 25991 H 2505.6 0.205097 -3.87958 0
M  V30 25992 H 2507.27 -2.40401 -3.93707 0
M  V30 25993 H 2505.51 -2.31964 -3.66572 0
M  V30 25994 H 2506.19 -1.80533 -5.21643 0
M  V30 25995 H 2508.66 -0.196257 -4.15637 0
M  V30 25996 H 2507.54 0.185584 -5.48586 0
M  V30 25997 H 2507.8 1.36052 -4.20645 0
M  V30 25998 N 2506.86 1.50503 -0.467606 0
M  V30 25999 C 2508.1 2.02606 0.0887176 0
M  V30 26000 C 2508.44 1.34915 1.39683 0
M  V30 26001 O 2507.71 0.473727 1.88643 0
M  V30 26002 C 2507.99 3.5904 0.276143 0
M  V30 26003 C 2507.85 4.37307 -1.05275 0
M  V30 26004 C 2509.17 4.27823 1.03227 0
M  V30 26005 H 2506.29 0.736357 0.0307684 0
M  V30 26006 H 2508.93 1.79856 -0.612517 0
M  V30 26007 H 2507.08 3.78554 0.873433 0
M  V30 26008 H 2508.75 4.29372 -1.68635 0
M  V30 26009 H 2506.99 4.01186 -1.65022 0
M  V30 26010 H 2507.66 5.45016 -0.875293 0
M  V30 26011 H 2510.14 4.12761 0.526038 0
M  V30 26012 H 2509.02 5.37096 1.13221 0
M  V30 26013 H 2509.28 3.90751 2.06799 0
M  V30 26014 N 2508.34 0.200077 1.56325 0
M  V30 26015 C 2509.58 -0.438024 1.98013 0
M  V30 26016 C 2509.91 -1.60925 1.08705 0
M  V30 26017 O 2509.19 -1.93995 0.140098 0
M  V30 26018 C 2509.47 -0.893358 3.48843 0
M  V30 26019 C 2509.33 0.280026 4.48927 0
M  V30 26020 C 2510.64 -1.75712 4.03501 0
M  V30 26021 H 2507.76 -0.157744 0.719921 0
M  V30 26022 H 2510.41 0.292001 1.87743 0
M  V30 26023 H 2508.56 -1.51541 3.57726 0
M  V30 26024 H 2510.23 0.9178 4.52078 0
M  V30 26025 H 2508.47 0.930993 4.23692 0
M  V30 26026 H 2509.14 -0.0811631 5.5194 0
M  V30 26027 H 2511.62 -1.23246 3.97429 0
M  V30 26028 H 2510.49 -2.04467 5.09396 0
M  V30 26029 H 2510.75 -2.71305 3.49065 0
M  V30 26030 N 2509.81 -1.57429 -0.0734901 0
M  V30 26031 C 2510.78 -2.02591 -1.07189 0
M  V30 26032 C 2511.78 -0.922684 -1.31694 0
M  V30 26033 O 2512.97 -1.1876 -1.27443 0
M  V30 26034 C 2510.1 -2.4051 -2.41594 0
M  V30 26035 H 2511.29 -2.92027 -0.682676 0
M  V30 26036 H 2508.84 -1.53007 -0.319167 0
M  V30 26037 H 2509.58 -1.54095 -2.85351 0
M  V30 26038 H 2509.36 -3.21013 -2.25151 0
M  V30 26039 H 2510.85 -2.76033 -3.13362 0
M  V30 26040 N 2511.29 0.344839 -1.53781 0
M  V30 26041 C 2512.7 0.920523 -1.62429 0
M  V30 26042 C 2513.05 1.89595 -0.504781 0
M  V30 26043 O 2512.18 2.13288 0.365673 0
M  V30 26044 C 2512.77 1.67634 -2.94422 0
M  V30 26045 C 2511.33 2.20106 -3.05336 0
M  V30 26046 C 2510.48 1.01978 -2.57868 0
M  V30 26047 H 2513.43 0.123014 -1.58223 0
M  V30 26048 H 2513.45 2.53912 -2.83389 0
M  V30 26049 H 2512.96 0.966158 -3.75882 0
M  V30 26050 H 2511.06 2.94304 -2.28508 0
M  V30 26051 H 2511.18 2.46566 -4.10782 0
M  V30 26052 H 2509.54 1.39281 -2.13243 0
M  V30 26053 H 2510.32 0.324248 -3.41765 0
M  V30 26054 N 2512.77 1.45492 0.605781 0
M  V30 26055 C 2514.05 1.40078 1.3652 0
M  V30 26056 C 2514.43 0.0723115 2.10976 0
M  V30 26057 O 2513.77 -0.945771 2.08008 0
M  V30 26058 C 2513.98 2.61565 2.31051 0
M  V30 26059 C 2515.33 3.06729 2.93602 0
M  V30 26060 O 2516.36 2.61951 2.41372 0
M  V30 26061 O 2515.22 3.84444 3.88414 0
M  V30 26062 H 2512.31 0.555961 0.612238 0
M  V30 26063 H 2514.86 1.57624 0.628719 0
M  V30 26064 H 2513.63 3.49834 1.75305 0
M  V30 26065 H 2513.25 2.46362 3.12076 0
M  V30 26066 N 2514.25 -0.848441 1.32813 0
M  V30 26067 C 2515.2 -1.95752 1.22269 0
M  V30 26068 C 2516.17 -1.65778 0.103443 0
M  V30 26069 O 2517.35 -1.88733 0.280066 0
M  V30 26070 C 2514.49 -3.31534 0.958073 0
M  V30 26071 C 2513.6 -3.73968 2.16269 0
M  V30 26072 C 2512.74 -4.98571 1.83303 0
M  V30 26073 C 2511.78 -5.33513 3.00051 0
M  V30 26074 N 2510.91 -6.49294 2.67137 0
M  V30 26075 H 2515.75 -2.04103 2.17131 0
M  V30 26076 H 2513.29 -0.998894 1.07984 0
M  V30 26077 H 2515.25 -4.09746 0.785124 0
M  V30 26078 H 2513.88 -3.22767 0.0462158 0
M  V30 26079 H 2512.93 -2.91358 2.44571 0
M  V30 26080 H 2514.24 -3.9578 3.03579 0
M  V30 26081 H 2513.4 -5.84506 1.62596 0
M  V30 26082 H 2512.14 -4.78709 0.932162 0
M  V30 26083 H 2511.14 -4.46087 3.21382 0
M  V30 26084 H 2512.37 -5.55329 3.90879 0
M  V30 26085 H 2510.31 -6.30936 1.79598 0
M  V30 26086 H 2510.23 -6.71155 3.47976 0
M  V30 26087 H 2511.5 -7.38365 2.49874 0
M  V30 26088 N 2515.73 -1.16125 -1.06549 0
M  V30 26089 C 2516.64 -0.8797 -2.17482 0
M  V30 26090 C 2517.65 0.147074 -1.73377 0
M  V30 26091 O 2518.83 -0.0289482 -2.01379 0
M  V30 26092 C 2515.89 -0.38189 -3.4459 0
M  V30 26093 C 2514.95 -1.47357 -4.03218 0
M  V30 26094 C 2514.19 -0.999417 -5.24259 0
M  V30 26095 O 2514.41 0.151857 -5.70198 0
M  V30 26096 O 2513.34 -1.78663 -5.74772 0
M  V30 26097 H 2517.17 -1.80728 -2.44072 0
M  V30 26098 H 2514.76 -0.941012 -1.1604 0
M  V30 26099 H 2516.64 -0.111127 -4.21253 0
M  V30 26100 H 2515.31 0.517714 -3.19533 0
M  V30 26101 H 2514.22 -1.79804 -3.28057 0
M  V30 26102 H 2515.55 -2.34838 -4.32564 0
M  V30 26103 N 2517.2 1.25039 -0.959323 0
M  V30 26104 C 2518.45 1.92182 -0.612287 0
M  V30 26105 C 2518.77 1.75908 0.855316 0
M  V30 26106 O 2519.97 2.37666 1.31251 0
M  V30 26107 C 2518.43 3.44413 -1.04441 0
M  V30 26108 C 2518.04 3.69388 -2.53488 0
M  V30 26109 C 2519.78 4.17456 -0.770128 0
M  V30 26110 C 2517.69 5.15148 -2.90477 0
M  V30 26111 H 2516.62 0.719555 -0.225292 0
M  V30 26112 H 2519.27 1.41823 -1.16441 0
M  V30 26113 H 2517.65 3.93759 -0.420669 0
M  V30 26114 H 2518.82 3.30675 -3.20921 0
M  V30 26115 H 2517.14 3.09615 -2.78438 0
M  V30 26116 H 2519.74 5.24831 -1.02259 0
M  V30 26117 H 2520.08 4.15264 0.293538 0
M  V30 26118 H 2520.61 3.74032 -1.35444 0
M  V30 26119 H 2517.35 5.22455 -3.9588 0
M  V30 26120 H 2516.87 5.5489 -2.27721 0
M  V30 26121 H 2518.55 5.83311 -2.79925 0
M  V30 26122 N 2518.68 0.728444 1.39755 0
M  V30 26123 C 2519.61 0.0991764 2.33289 0
M  V30 26124 C 2520.59 -0.731462 1.5357 0
M  V30 26125 O 2521.78 -0.677775 1.81989 0
M  V30 26126 C 2518.91 -0.813774 3.37631 0
M  V30 26127 C 2517.86 -0.0877911 4.2791 0
M  V30 26128 C 2517.19 -1.11732 5.22896 0
M  V30 26129 C 2518.49 1.06572 5.11312 0
M  V30 26130 H 2520.18 0.880458 2.86161 0
M  V30 26131 H 2517.73 0.424843 1.3759 0
M  V30 26132 H 2519.68 -1.26348 4.02013 0
M  V30 26133 H 2518.41 -1.6271 2.83184 0
M  V30 26134 H 2517.06 0.342223 3.64999 0
M  V30 26135 H 2516.71 -1.92403 4.64747 0
M  V30 26136 H 2516.41 -0.636374 5.84144 0
M  V30 26137 H 2517.94 -1.56686 5.90154 0
M  V30 26138 H 2519.35 0.694771 5.69075 0
M  V30 26139 H 2517.75 1.47587 5.81668 0
M  V30 26140 H 2518.82 1.89046 4.46531 0
M  V30 26141 N 2520.16 -1.50253 0.475581 0
M  V30 26142 C 2521.39 -2.06463 -0.0753036 0
M  V30 26143 C 2521.8 -1.3391 -1.33659 0
M  V30 26144 O 2521.14 -0.403288 -1.79219 0
M  V30 26145 C 2521.2 -3.56981 -0.424858 0
M  V30 26146 C 2520.87 -4.5105 0.735045 0
M  V30 26147 C 2521.86 -4.9407 1.61836 0
M  V30 26148 C 2519.55 -4.93679 0.926644 0
M  V30 26149 C 2521.54 -5.7843 2.67764 0
M  V30 26150 C 2519.23 -5.7782 1.98914 0
M  V30 26151 C 2520.23 -6.20098 2.86301 0
M  V30 26152 O 2519.92 -7.02561 3.90721 0
M  V30 26153 H 2519.65 -0.675975 0.00577496 0
M  V30 26154 H 2522.2 -1.94347 0.664696 0
M  V30 26155 H 2520.43 -3.67014 -1.21811 0
M  V30 26156 H 2522.12 -3.95537 -0.911353 0
M  V30 26157 H 2522.89 -4.61801 1.48204 0
M  V30 26158 H 2518.77 -4.60289 0.255921 0
M  V30 26159 H 2522.31 -6.11349 3.36003 0
M  V30 26160 H 2518.21 -6.09502 2.12551 0
M  V30 26161 H 2518.98 -7.2082 3.87764 0
M  V30 26162 N 2521.64 -0.208365 -1.56217 0
M  V30 26163 C 2522.55 0.718796 -2.23317 0
M  V30 26164 C 2523.56 1.2242 -1.2365 0
M  V30 26165 O 2524.74 1.26858 -1.56426 0
M  V30 26166 C 2521.81 1.91563 -2.88971 0
M  V30 26167 C 2520.87 1.4535 -4.03945 0
M  V30 26168 C 2520.1 2.59329 -4.66459 0
M  V30 26169 O 2520.32 3.77141 -4.27926 0
M  V30 26170 O 2519.26 2.31283 -5.5569 0
M  V30 26171 H 2523.08 0.177262 -3.03182 0
M  V30 26172 H 2520.67 0.0215139 -1.49385 0
M  V30 26173 H 2522.55 2.61486 -3.30459 0
M  V30 26174 H 2521.22 2.44552 -2.12076 0
M  V30 26175 H 2520.13 0.722681 -3.67053 0
M  V30 26176 H 2521.46 0.970134 -4.82545 0
M  V30 26177 N 2523.12 1.57465 0.0651402 0
M  V30 26178 C 2524.08 2.03157 1.06113 0
M  V30 26179 C 2525.08 0.929655 1.31202 0
M  V30 26180 O 2526.27 1.19435 1.26811 0
M  V30 26181 C 2523.4 2.41788 2.40315 0
M  V30 26182 H 2524.59 2.92385 0.667179 0
M  V30 26183 H 2522.15 1.53174 0.311048 0
M  V30 26184 H 2522.88 1.55606 2.8453 0
M  V30 26185 H 2522.67 3.22203 2.23445 0
M  V30 26186 H 2524.16 2.77691 3.11893 0
M  V30 26187 N 2524.59 -0.336679 1.53962 0
M  V30 26188 C 2525.84 -1.07615 1.71538 0
M  V30 26189 C 2526.17 -1.88429 0.482158 0
M  V30 26190 O 2525.42 -1.88214 -0.536109 0
M  V30 26191 C 2525.72 -2.03948 2.93496 0
M  V30 26192 C 2525.39 -1.39391 4.28813 0
M  V30 26193 C 2524.05 -1.21515 4.65605 0
M  V30 26194 C 2526.4 -0.929451 5.12846 0
M  V30 26195 C 2523.73 -0.558209 5.84038 0
M  V30 26196 C 2526.08 -0.286394 6.31951 0
M  V30 26197 C 2524.75 -0.0953696 6.67432 0
M  V30 26198 H 2524.02 -0.39379 0.627703 0
M  V30 26199 H 2526.66 -0.354682 1.88187 0
M  V30 26200 H 2524.97 -2.825 2.7148 0
M  V30 26201 H 2526.67 -2.61169 3.04289 0
M  V30 26202 H 2523.26 -1.54304 3.9986 0
M  V30 26203 H 2527.44 -1.05539 4.84949 0
M  V30 26204 H 2522.7 -0.398888 6.10097 0
M  V30 26205 H 2526.87 0.08156 6.96352 0
M  V30 26206 H 2524.5 0.415713 7.59062 0
M  V30 26207 N 2526.07 -1.45812 -0.598057 0
M  V30 26208 C 2527.35 -1.408 -1.35775 0
M  V30 26209 C 2527.73 -0.083499 -2.10935 0
M  V30 26210 O 2527.08 0.934727 -2.08507 0
M  V30 26211 C 2527.29 -2.62787 -2.29661 0
M  V30 26212 C 2528.64 -3.08282 -2.91971 0
M  V30 26213 O 2529.66 -2.63227 -2.39979 0
M  V30 26214 O 2528.52 -3.86498 -3.8637 0
M  V30 26215 H 2525.61 -0.5592 -0.609281 0
M  V30 26216 H 2528.16 -1.57955 -0.620351 0
M  V30 26217 H 2526.93 -3.50759 -1.73447 0
M  V30 26218 H 2526.55 -2.48013 -3.10765 0
M  V30 26219 N 2527.55 0.841385 -1.33261 0
M  V30 26220 C 2528.46 1.98314 -1.25335 0
M  V30 26221 C 2529.48 1.73222 -0.164395 0
M  V30 26222 O 2530.65 1.97637 -0.387521 0
M  V30 26223 C 2527.72 3.32261 -0.990137 0
M  V30 26224 C 2526.78 3.70485 -2.16885 0
M  V30 26225 C 2526.01 4.98041 -1.9181 0
M  V30 26226 O 2526.23 5.6377 -0.867174 0
M  V30 26227 O 2525.17 5.3371 -2.78276 0
M  V30 26228 H 2528.99 2.0794 -2.21348 0
M  V30 26229 H 2526.58 0.974038 -1.13282 0
M  V30 26230 H 2528.46 4.12523 -0.860394 0
M  V30 26231 H 2527.14 3.23644 -0.0602724 0
M  V30 26232 H 2526.04 2.90744 -2.35412 0
M  V30 26233 H 2527.38 3.83765 -3.08197 0
M  V30 26234 N 2529.03 1.16688 1.05932 0
M  V30 26235 C 2529.96 0.820262 2.12948 0
M  V30 26236 C 2530.94 -0.209693 1.61242 0
M  V30 26237 O 2532.12 -0.0929357 1.88271 0
M  V30 26238 C 2529.25 0.222289 3.3797 0
M  V30 26239 C 2528.3 1.22644 4.08486 0
M  V30 26240 S 2529.13 2.77465 4.5801 0
M  V30 26241 C 2530.29 2.19127 5.86288 0
M  V30 26242 H 2530.52 1.72664 2.42022 0
M  V30 26243 H 2528.05 0.990743 1.18421 0
M  V30 26244 H 2530.01 -0.116249 4.10335 0
M  V30 26245 H 2528.67 -0.661906 3.07047 0
M  V30 26246 H 2527.86 0.756543 4.9829 0
M  V30 26247 H 2527.47 1.51025 3.42151 0
M  V30 26248 H 2529.76 1.5622 6.59243 0
M  V30 26249 H 2530.7 3.07155 6.38013 0
M  V30 26250 H 2531.11 1.62868 5.40495 0
M  V30 26251 N 2530.51 -1.24529 0.96594 0
M  V30 26252 C 2531.42 -2.29162 0.502194 0
M  V30 26253 C 2532.43 -1.68449 -0.435987 0
M  V30 26254 O 2533.61 -1.99008 -0.309462 0
M  V30 26255 C 2530.67 -3.46112 -0.201895 0
M  V30 26256 C 2529.74 -4.2223 0.775895 0
M  V30 26257 C 2528.97 -5.33596 0.105311 0
M  V30 26258 O 2529.19 -5.5956 -1.10674 0
M  V30 26259 O 2528.13 -5.96606 0.796579 0
M  V30 26260 H 2531.95 -2.70943 1.37199 0
M  V30 26261 H 2529.54 -1.30188 0.732898 0
M  V30 26262 H 2531.42 -4.17143 -0.59749 0
M  V30 26263 H 2530.09 -3.06311 -1.04668 0
M  V30 26264 H 2529 -3.53582 1.22191 0
M  V30 26265 H 2530.33 -4.65844 1.58904 0
M  V30 26266 N 2531.99 -0.735845 -1.39367 0
M  V30 26267 C 2532.9 -0.0980105 -2.34395 0
M  V30 26268 C 2533.91 0.72094 -1.58362 0
M  V30 26269 O 2535.09 0.649211 -1.90649 0
M  V30 26270 C 2532.15 0.797857 -3.37395 0
M  V30 26271 C 2531.21 -0.0334417 -4.29287 0
M  V30 26272 C 2530.45 0.819761 -5.27367 0
M  V30 26273 O 2530.67 2.05845 -5.31962 0
M  V30 26274 O 2529.6 0.247973 -6.01389 0
M  V30 26275 H 2533.43 -0.882366 -2.90599 0
M  V30 26276 H 2531.01 -0.496525 -1.40908 0
M  V30 26277 H 2532.9 1.31041 -4.00507 0
M  V30 26278 H 2531.57 1.56101 -2.83574 0
M  V30 26279 H 2530.48 -0.59154 -3.69394 0
M  V30 26280 H 2531.81 -0.758837 -4.86315 0
M  V30 26281 N 2533.46 1.49999 -0.483543 0
M  V30 26282 C 2534.7 2.04294 0.065711 0
M  V30 26283 C 2535.07 1.35662 1.35867 0
M  V30 26284 O 2536.27 1.80581 1.99108 0
M  V30 26285 C 2534.54 3.56642 0.232695 0
M  V30 26286 S 2536.1 4.32537 0.738712 0
M  V30 26287 H 2532.92 0.710929 0.010063 0
M  V30 26288 H 2535.52 1.84253 -0.653527 0
M  V30 26289 H 2534.22 4.04143 -0.713918 0
M  V30 26290 H 2533.75 3.81058 0.977684 0
M  V30 26291 H 2535.77 4.53649 2.0104 0
M  V30 26292 N 2534.94 0.216646 1.56104 0
M  V30 26293 C 2535.9 -0.681923 2.18821 0
M  V30 26294 C 2536.9 -1.12526 1.14868 0
M  V30 26295 O 2538.09 -1.03485 1.4013 0
M  V30 26296 C 2535.23 -1.93357 2.80759 0
M  V30 26297 H 2536.42 -0.135201 2.99595 0
M  V30 26298 H 2533.97 -0.0329729 1.56265 0
M  V30 26299 H 2534.71 -2.52228 2.03842 0
M  V30 26300 H 2534.49 -1.6242 3.56878 0
M  V30 26301 H 2535.98 -2.57387 3.28849 0
M  V30 26302 N 2536.42 -1.57498 -0.0567885 0
M  V30 26303 C 2537.64 -1.92602 -0.769368 0
M  V30 26304 C 2538.07 -0.814366 -1.69557 0
M  V30 26305 O 2537.43 0.231871 -1.79811 0
M  V30 26306 C 2537.48 -3.26706 -1.52628 0
M  V30 26307 O 2536.58 -3.16998 -2.63791 0
M  V30 26308 H 2535.92 -0.630284 -0.208898 0
M  V30 26309 H 2538.45 -2.0459 -0.0205438 0
M  V30 26310 H 2538.46 -3.6094 -1.90228 0
M  V30 26311 H 2537.14 -4.07188 -0.846803 0
M  V30 26312 H 2535.71 -2.9435 -2.28938 0
M  V30 26313 N 2537.9 0.328509 -1.54138 0
M  V30 26314 C 2538.84 1.40408 -1.83178 0
M  V30 26315 C 2539.81 1.51609 -0.678521 0
M  V30 26316 O 2541 1.66908 -0.924459 0
M  V30 26317 C 2538.14 2.76842 -2.0604 0
M  V30 26318 C 2537.25 2.74312 -3.33732 0
M  V30 26319 C 2536.39 4.02561 -3.46581 0
M  V30 26320 C 2535.43 3.94319 -4.68166 0
M  V30 26321 N 2534.56 5.14287 -4.77968 0
M  V30 26322 H 2539.4 1.14944 -2.7494 0
M  V30 26323 H 2536.94 0.556514 -1.36167 0
M  V30 26324 H 2538.9 3.5615 -2.17286 0
M  V30 26325 H 2537.53 3.00626 -1.17575 0
M  V30 26326 H 2536.58 1.87024 -3.31249 0
M  V30 26327 H 2537.89 2.64103 -4.23144 0
M  V30 26328 H 2537.05 4.90298 -3.57342 0
M  V30 26329 H 2535.79 4.15569 -2.55252 0
M  V30 26330 H 2534.79 3.04966 -4.57467 0
M  V30 26331 H 2536.02 3.8288 -5.60874 0
M  V30 26332 H 2533.96 5.27811 -3.89553 0
M  V30 26333 H 2533.88 5.06394 -5.61338 0
M  V30 26334 H 2535.15 6.03753 -4.93055 0
M  V30 26335 N 2539.38 1.46127 0.590316 0
M  V30 26336 C 2540.34 1.55706 1.68192 0
M  V30 26337 C 2541.34 0.434895 1.54807 0
M  V30 26338 O 2542.53 0.698956 1.59563 0
M  V30 26339 C 2539.66 1.4701 3.07573 0
M  V30 26340 H 2540.85 2.52982 1.61059 0
M  V30 26341 H 2538.41 1.33824 0.807517 0
M  V30 26342 H 2539.14 0.509842 3.20267 0
M  V30 26343 H 2538.93 2.2842 3.18696 0
M  V30 26344 H 2540.42 1.56782 3.87052 0
M  V30 26345 N 2540.85 -0.834306 1.33705 0
M  V30 26346 C 2541.82 -1.92601 1.24247 0
M  V30 26347 C 2542.82 -1.59998 0.160411 0
M  V30 26348 O 2544.01 -1.69252 0.412257 0
M  V30 26349 C 2541.14 -3.28374 0.915608 0
M  V30 26350 H 2542.33 -2.02412 2.2129 0
M  V30 26351 H 2539.88 -1.02694 1.17829 0
M  V30 26352 H 2540.62 -3.24258 -0.0521316 0
M  V30 26353 H 2540.4 -3.53419 1.69817 0
M  V30 26354 H 2541.89 -4.08345 0.874303 0
M  V30 26355 N 2542.33 -1.17248 -1.05312 0
M  V30 26356 C 2543.26 -0.9114 -2.14978 0
M  V30 26357 C 2544.24 0.146139 -1.69471 0
M  V30 26358 O 2545.43 -0.00384614 -1.942 0
M  V30 26359 C 2542.56 -0.422589 -3.44719 0
M  V30 26360 C 2541.51 -1.41917 -4.03786 0
M  V30 26361 C 2540.84 -0.788367 -5.28856 0
M  V30 26362 C 2542.14 -2.79198 -4.41413 0
M  V30 26363 H 2543.83 -1.82852 -2.37077 0
M  V30 26364 H 2541.38 -0.880589 -1.13937 0
M  V30 26365 H 2543.33 -0.227363 -4.20786 0
M  V30 26366 H 2542.05 0.530067 -3.2227 0
M  V30 26367 H 2540.71 -1.60112 -3.29787 0
M  V30 26368 H 2540.36 0.171085 -5.02709 0
M  V30 26369 H 2540.06 -1.45363 -5.69336 0
M  V30 26370 H 2541.59 -0.603389 -6.07611 0
M  V30 26371 H 2543 -2.64728 -5.08519 0
M  V30 26372 H 2541.4 -3.42291 -4.92907 0
M  V30 26373 H 2542.47 -3.337 -3.51813 0
M  V30 26374 N 2543.81 1.24015 -0.972531 0
M  V30 26375 C 2545.06 1.91522 -0.632636 0
M  V30 26376 C 2545.37 1.76806 0.83661 0
M  V30 26377 O 2546.58 2.39045 1.28723 0
M  V30 26378 C 2545.03 3.43286 -1.08088 0
M  V30 26379 C 2544.64 3.66679 -2.57392 0
M  V30 26380 C 2546.39 4.16615 -0.814362 0
M  V30 26381 C 2544.29 5.12038 -2.95924 0
M  V30 26382 H 2543.22 0.717125 -0.232911 0
M  V30 26383 H 2545.87 1.4058 -1.17938 0
M  V30 26384 H 2544.26 3.93291 -0.462409 0
M  V30 26385 H 2545.43 3.27253 -3.24411 0
M  V30 26386 H 2543.75 3.06644 -2.81706 0
M  V30 26387 H 2546.34 5.23717 -1.07819 0
M  V30 26388 H 2546.69 4.15552 0.249477 0
M  V30 26389 H 2547.22 3.72574 -1.39404 0
M  V30 26390 H 2543.96 5.18227 -4.01399 0
M  V30 26391 H 2543.48 5.52444 -2.33593 0
M  V30 26392 H 2545.16 5.80309 -2.86096 0
M  V30 26393 N 2545.29 0.743226 1.38974 0
M  V30 26394 C 2546.2 0.11044 2.3434 0
M  V30 26395 C 2547.21 -0.712531 1.58742 0
M  V30 26396 O 2548.39 -0.639092 1.90991 0
M  V30 26397 C 2545.46 -0.779953 3.37813 0
M  V30 26398 C 2544.52 0.0562073 4.29263 0
M  V30 26399 C 2543.75 -0.791782 5.27794 0
M  V30 26400 O 2543.97 -2.03021 5.33046 0
M  V30 26401 O 2542.91 -0.216077 6.01512 0
M  V30 26402 H 2546.73 0.897765 2.90127 0
M  V30 26403 H 2544.32 0.503991 1.40642 0
M  V30 26404 H 2546.2 -1.28916 4.01197 0
M  V30 26405 H 2544.87 -1.54595 2.84398 0
M  V30 26406 H 2543.78 0.611121 3.69075 0
M  V30 26407 H 2545.11 0.784617 4.85906 0
M  V30 26408 N 2546.77 -1.4974 0.491491 0
M  V30 26409 C 2547.68 -2.32715 -0.296794 0
M  V30 26410 C 2548.69 -1.44015 -0.97651 0
M  V30 26411 O 2549.87 -1.77048 -0.959992 0
M  V30 26412 C 2546.93 -3.19217 -1.35283 0
M  V30 26413 C 2545.99 -4.23758 -0.687557 0
M  V30 26414 C 2545.23 -5.06126 -1.69328 0
M  V30 26415 O 2545.45 -4.89866 -2.92211 0
M  V30 26416 O 2544.38 -5.88696 -1.25384 0
M  V30 26417 H 2548.21 -3.01287 0.382101 0
M  V30 26418 H 2545.8 -1.47243 0.252979 0
M  V30 26419 H 2547.68 -3.72831 -1.96404 0
M  V30 26420 H 2546.35 -2.53351 -2.01482 0
M  V30 26421 H 2545.26 -3.74082 -0.0368502 0
M  V30 26422 H 2546.59 -4.92153 -0.0681701 0
M  V30 26423 N 2548.24 -0.224922 -1.55987 0
M  V30 26424 C 2549.49 0.405064 -1.97999 0
M  V30 26425 C 2549.81 1.60054 -1.1139 0
M  V30 26426 O 2549.08 1.9496 -0.191679 0
M  V30 26427 H 2547.66 0.152645 -0.731238 0
M  V30 26428 H 2550.33 -0.318601 -1.92278 0
M  V30 26429 H 2549.42 0.729113 -3.03464 0
M  V30 26430 N 2549.72 1.57526 0.0484352 0
M  V30 26431 C 2550.65 2.02043 1.08219 0
M  V30 26432 C 2551.67 0.930036 1.3362 0
M  V30 26433 O 2552.86 1.20763 1.31448 0
M  V30 26434 C 2549.96 2.36421 2.42814 0
M  V30 26435 C 2549.13 3.676 2.37042 0
M  V30 26436 C 2548.19 3.89384 3.5393 0
M  V30 26437 O 2547.21 4.60687 3.343 0
M  V30 26438 N 2548.42 3.33528 4.7512 0
M  V30 26439 H 2551.18 2.91341 0.702895 0
M  V30 26440 H 2548.74 1.6016 0.236717 0
M  V30 26441 H 2550.73 2.48147 3.19695 0
M  V30 26442 H 2549.3 1.52893 2.72658 0
M  V30 26443 H 2548.52 3.66409 1.45388 0
M  V30 26444 H 2549.81 4.5369 2.3031 0
M  V30 26445 H 2549.21 2.75697 4.93971 0
M  V30 26446 H 2547.77 3.50666 5.49433 0
M  V30 26447 N 2551.2 -0.32033 1.5431 0
M  V30 26448 C 2552.62 -0.664864 1.45092 0
M  V30 26449 C 2552.82 -1.91516 0.626416 0
M  V30 26450 O 2551.87 -2.52183 0.126487 0
M  V30 26451 C 2553.19 -0.83586 2.88849 0
M  V30 26452 C 2554.73 -0.932993 2.98771 0
M  V30 26453 C 2555.21 -1.13613 4.43685 0
M  V30 26454 N 2556.7 -1.2028 4.47311 0
M  V30 26455 C 2557.43 -1.37792 5.56598 0
M  V30 26456 N 2556.93 -1.52326 6.75847 0
M  V30 26457 N 2558.72 -1.40526 5.44251 0
M  V30 26458 H 2550.87 0.50141 2.06397 0
M  V30 26459 H 2553.14 0.162551 0.93396 0
M  V30 26460 H 2552.84 0.011671 3.51698 0
M  V30 26461 H 2552.72 -1.73072 3.35151 0
M  V30 26462 H 2555.1 -1.77103 2.36048 0
M  V30 26463 H 2555.19 -0.0145333 2.55796 0
M  V30 26464 H 2554.83 -0.302943 5.06996 0
M  V30 26465 H 2554.76 -2.06852 4.84272 0
M  V30 26466 H 2557.25 -1.10478 3.6139 0
M  V30 26467 H 2557.56 -1.65389 7.54895 0
M  V30 26468 H 2555.91 -1.49418 6.78748 0
M  V30 26469 H 2559.1 -1.28769 4.5004 0
M  V30 26470 H 2559.27 -1.53831 6.29476 0
M  V30 26471 N 2552.68 -1.46438 -0.582558 0
M  V30 26472 C 2553.61 -1.51527 -1.7063 0
M  V30 26473 C 2554.59 -0.369379 -1.58349 0
M  V30 26474 O 2555.77 -0.573547 -1.79562 0
M  V30 26475 C 2552.9 -1.39397 -3.08684 0
M  V30 26476 C 2551.95 -2.5817 -3.39486 0
M  V30 26477 S 2552.78 -4.20525 -3.3154 0
M  V30 26478 C 2553.94 -4.10904 -4.72132 0
M  V30 26479 H 2554.17 -2.46604 -1.66054 0
M  V30 26480 H 2551.7 -1.34326 -0.761314 0
M  V30 26481 H 2553.66 -1.33086 -3.88328 0
M  V30 26482 H 2552.32 -0.45749 -3.1075 0
M  V30 26483 H 2551.51 -2.45677 -4.40067 0
M  V30 26484 H 2551.12 -2.61472 -2.6741 0
M  V30 26485 H 2553.41 -3.77594 -5.6252 0
M  V30 26486 H 2554.35 -5.11485 -4.89683 0
M  V30 26487 H 2554.76 -3.42154 -4.48989 0
M  V30 26488 N 2554.16 0.827204 -1.34146 0
M  V30 26489 C 2555.12 1.9194 -1.25267 0
M  V30 26490 C 2556.12 1.59911 -0.168894 0
M  V30 26491 O 2557.31 1.69031 -0.421227 0
M  V30 26492 C 2554.44 3.27884 -0.933009 0
M  V30 26493 H 2555.63 2.01236 -2.22361 0
M  V30 26494 H 2553.19 1.02067 -1.18372 0
M  V30 26495 H 2553.92 3.24281 0.0349347 0
M  V30 26496 H 2553.71 3.52513 -1.71689 0
M  V30 26497 H 2555.2 4.07876 -0.895946 0
M  V30 26498 N 2555.63 1.17805 1.04688 0
M  V30 26499 C 2556.54 0.914189 2.16055 0
M  V30 26500 C 2557.56 -0.119472 1.73589 0
M  V30 26501 O 2558.74 0.0609822 2.01308 0
M  V30 26502 C 2555.8 0.436663 3.43939 0
M  V30 26503 C 2554.86 1.53753 4.00822 0
M  V30 26504 C 2554.1 1.0827 5.22603 0
M  V30 26505 O 2554.32 -0.0611242 5.70367 0
M  V30 26506 O 2553.25 1.87785 5.71857 0
M  V30 26507 H 2557.08 1.84588 2.41166 0
M  V30 26508 H 2554.66 0.959354 1.14528 0
M  V30 26509 H 2556.55 0.178131 4.21023 0
M  V30 26510 H 2555.22 -0.466813 3.20316 0
M  V30 26511 H 2554.13 1.85 3.25155 0
M  V30 26512 H 2555.46 2.4169 4.28774 0
M  V30 26513 N 2557.11 -1.23497 0.979094 0
M  V30 26514 C 2558.05 -2.23452 0.463066 0
M  V30 26515 C 2559.02 -1.55686 -0.469101 0
M  V30 26516 O 2560.21 -1.84254 -0.397849 0
M  V30 26517 C 2557.33 -3.37086 -0.330249 0
M  V30 26518 C 2556.38 -4.22992 0.545869 0
M  V30 26519 S 2557.21 -4.97033 1.99294 0
M  V30 26520 C 2558.37 -6.14118 1.20873 0
M  V30 26521 H 2558.6 -2.66878 1.3101 0
M  V30 26522 H 2556.14 -1.32956 0.784989 0
M  V30 26523 H 2558.09 -4.02983 -0.781956 0
M  V30 26524 H 2556.75 -2.92196 -1.15239 0
M  V30 26525 H 2555.95 -5.0396 -0.0638042 0
M  V30 26526 H 2555.55 -3.62156 0.933768 0
M  V30 26527 H 2557.84 -6.75872 0.469403 0
M  V30 26528 H 2558.78 -6.79469 1.99319 0
M  V30 26529 H 2559.19 -5.59785 0.728091 0
M  V30 26530 N 2558.59 -0.750586 -1.38578 0
M  V30 26531 C 2559.52 -0.136278 -2.33102 0
M  V30 26532 C 2560.5 0.706937 -1.54714 0
M  V30 26533 O 2561.69 0.648737 -1.83044 0
M  V30 26534 C 2558.82 0.759957 -3.38883 0
M  V30 26535 C 2557.77 0.0197032 -4.27995 0
M  V30 26536 C 2557.1 1.03399 -5.24607 0
M  V30 26537 C 2558.4 -1.14693 -5.09552 0
M  V30 26538 H 2560.09 -0.925872 -2.84724 0
M  V30 26539 H 2557.64 -0.446678 -1.36897 0
M  V30 26540 H 2559.59 1.19936 -4.03972 0
M  V30 26541 H 2558.31 1.58184 -2.85737 0
M  V30 26542 H 2556.97 -0.400248 -3.64409 0
M  V30 26543 H 2556.62 1.84985 -4.67749 0
M  V30 26544 H 2556.32 0.543361 -5.85082 0
M  V30 26545 H 2557.85 1.47278 -5.92572 0
M  V30 26546 H 2559.26 -0.785218 -5.67897 0
M  V30 26547 H 2557.66 -1.56822 -5.79247 0
M  V30 26548 H 2558.73 -1.96126 -4.43466 0
M  V30 26549 N 2560.07 1.49477 -0.499425 0
M  V30 26550 C 2561.02 2.29097 0.279841 0
M  V30 26551 C 2561.99 1.35422 0.961781 0
M  V30 26552 O 2563.17 1.64377 0.968748 0
M  V30 26553 C 2560.31 3.18053 1.33926 0
M  V30 26554 C 2559.42 4.26784 0.669258 0
M  V30 26555 C 2558.56 5.02958 1.70899 0
M  V30 26556 C 2557.6 6.03529 1.02077 0
M  V30 26557 N 2556.74 6.72874 2.00462 0
M  V30 26558 H 2561.58 2.9523 -0.405369 0
M  V30 26559 H 2559.11 1.45568 -0.211752 0
M  V30 26560 H 2561.07 3.68002 1.96547 0
M  V30 26561 H 2559.7 2.53908 1.99326 0
M  V30 26562 H 2558.75 3.80335 -0.0701903 0
M  V30 26563 H 2560.06 4.98637 0.127416 0
M  V30 26564 H 2559.22 5.56768 2.41028 0
M  V30 26565 H 2557.96 4.30875 2.28468 0
M  V30 26566 H 2556.96 5.48952 0.305242 0
M  V30 26567 H 2558.19 6.77597 0.451589 0
M  V30 26568 H 2556.13 6.03563 2.56997 0
M  V30 26569 H 2556.05 7.40697 1.5134 0
M  V30 26570 H 2557.32 7.31288 2.69885 0
M  V30 26571 N 2561.55 0.233191 1.55865 0
M  V30 26572 C 2562.77 -0.402871 2.0345 0
M  V30 26573 C 2563.2 -1.51734 1.11168 0
M  V30 26574 O 2562.56 -1.81013 0.102028 0
M  V30 26575 C 2562.6 -0.900839 3.49167 0
M  V30 26576 O 2561.71 -2.01141 3.60022 0
M  V30 26577 H 2561.05 -0.089691 0.657915 0
M  V30 26578 H 2563.58 0.355236 2.01493 0
M  V30 26579 H 2563.59 -1.20764 3.89718 0
M  V30 26580 H 2562.26 -0.0852158 4.15813 0
M  V30 26581 H 2560.84 -1.71036 3.31363 0
M  V30 26582 N 2563.03 -1.57549 -0.0400806 0
M  V30 26583 C 2563.97 -2.05833 -1.0441 0
M  V30 26584 C 2564.94 -0.945208 -1.36583 0
M  V30 26585 O 2566.13 -1.21505 -1.4711 0
M  V30 26586 C 2563.27 -2.53343 -2.34332 0
M  V30 26587 C 2562.38 -3.78402 -2.08413 0
M  V30 26588 C 2561.52 -4.14567 -3.32126 0
M  V30 26589 C 2560.55 -5.32575 -3.01712 0
M  V30 26590 N 2559.69 -5.64225 -4.17845 0
M  V30 26591 H 2564.53 -2.91364 -0.625391 0
M  V30 26592 H 2562.07 -1.44067 -0.297192 0
M  V30 26593 H 2564.03 -2.78951 -3.10229 0
M  V30 26594 H 2562.66 -1.70745 -2.73945 0
M  V30 26595 H 2561.71 -3.59944 -1.23062 0
M  V30 26596 H 2563.02 -4.64423 -1.8197 0
M  V30 26597 H 2562.17 -4.41245 -4.16398 0
M  V30 26598 H 2560.91 -3.27176 -3.61673 0
M  V30 26599 H 2559.92 -5.05661 -2.1584 0
M  V30 26600 H 2561.14 -6.2161 -2.73455 0
M  V30 26601 H 2559.09 -4.79794 -4.47364 0
M  V30 26602 H 2559.01 -6.44732 -3.94787 0
M  V30 26603 H 2560.27 -5.95473 -5.03022 0
M  V30 26604 N 2564.5 0.312142 -1.54478 0
M  V30 26605 C 2565.75 1.0463 -1.7244 0
M  V30 26606 C 2566.07 1.88802 -0.511196 0
M  V30 26607 O 2567.27 2.65398 -0.572388 0
M  V30 26608 C 2565.73 1.90984 -3.05046 0
M  V30 26609 C 2565.34 1.11869 -4.33808 0
M  V30 26610 C 2567.08 2.64067 -3.32369 0
M  V30 26611 C 2564.99 1.97435 -5.5747 0
M  V30 26612 H 2563.92 0.394349 -0.642654 0
M  V30 26613 H 2566.57 0.303898 -1.80966 0
M  V30 26614 H 2564.95 2.69168 -2.90455 0
M  V30 26615 H 2566.12 0.383762 -4.59199 0
M  V30 26616 H 2564.44 0.504179 -4.13336 0
M  V30 26617 H 2567.04 3.28415 -4.21957 0
M  V30 26618 H 2567.38 3.3231 -2.5075 0
M  V30 26619 H 2567.91 1.92938 -3.47879 0
M  V30 26620 H 2564.65 1.33681 -6.41724 0
M  V30 26621 H 2564.17 2.68631 -5.36281 0
M  V30 26622 H 2565.85 2.55749 -5.94307 0
M  V30 26623 N 2565.98 1.46745 0.574784 0
M  V30 26624 C 2566.91 1.53949 1.69801 0
M  V30 26625 C 2567.93 0.427134 1.57097 0
M  V30 26626 O 2569.12 0.695892 1.64376 0
M  V30 26627 C 2566.22 1.41116 3.08123 0
M  V30 26628 C 2565.39 2.66611 3.46753 0
M  V30 26629 C 2564.45 2.47864 4.64166 0
M  V30 26630 O 2563.47 3.21617 4.69629 0
M  V30 26631 N 2564.68 1.54544 5.5955 0
M  V30 26632 H 2567.44 2.50799 1.64073 0
M  V30 26633 H 2565 1.42901 0.760975 0
M  V30 26634 H 2566.99 1.26334 3.84476 0
M  V30 26635 H 2565.56 0.524163 3.08174 0
M  V30 26636 H 2564.78 2.96278 2.60025 0
M  V30 26637 H 2566.07 3.4996 3.69331 0
M  V30 26638 H 2565.47 0.937402 5.57879 0
M  V30 26639 H 2564.03 1.45722 6.35302 0
M  V30 26640 N 2567.46 -0.820078 1.34583 0
M  V30 26641 C 2568.71 -1.57334 1.26848 0
M  V30 26642 C 2569.03 -1.94337 -0.160633 0
M  V30 26643 O 2568.3 -1.62512 -1.09393 0
M  V30 26644 H 2566.88 -0.583407 0.466525 0
M  V30 26645 H 2569.54 -0.978998 1.68528 0
M  V30 26646 H 2568.64 -2.49487 1.87517 0
M  V30 26647 N 2568.94 -1.18359 -1.04062 0
M  V30 26648 C 2569.87 -0.93415 -2.14 0
M  V30 26649 C 2570.85 0.128156 -1.69617 0
M  V30 26650 O 2572.03 -0.0244434 -1.94185 0
M  V30 26651 C 2569.16 -0.459127 -3.44252 0
M  V30 26652 C 2568.12 -1.46192 -4.02258 0
M  V30 26653 C 2567.44 -0.844415 -5.2799 0
M  V30 26654 C 2568.74 -2.83864 -4.38427 0
M  V30 26655 H 2570.44 -1.85356 -2.35124 0
M  V30 26656 H 2567.98 -0.892624 -1.12997 0
M  V30 26657 H 2569.94 -0.271981 -4.20521 0
M  V30 26658 H 2568.66 0.495856 -3.22814 0
M  V30 26659 H 2567.32 -1.63601 -3.28071 0
M  V30 26660 H 2566.97 0.117756 -5.02862 0
M  V30 26661 H 2566.67 -1.51394 -5.67762 0
M  V30 26662 H 2568.19 -0.6678 -6.06937 0
M  V30 26663 H 2569.61 -2.70107 -5.05683 0
M  V30 26664 H 2568 -3.475 -4.89248 0
M  V30 26665 H 2569.07 -3.37412 -3.48254 0
M  V30 26666 N 2570.42 1.22976 -0.98563 0
M  V30 26667 C 2571.35 2.26938 -0.549689 0
M  V30 26668 C 2572.33 1.64839 0.419774 0
M  V30 26669 O 2573.51 1.91677 0.311997 0
M  V30 26670 C 2570.64 3.47003 0.143591 0
M  V30 26671 C 2569.6 4.2149 -0.74368 0
M  V30 26672 C 2568.92 5.34637 0.0821087 0
M  V30 26673 C 2570.22 4.80939 -2.03703 0
M  V30 26674 H 2571.92 2.63655 -1.41867 0
M  V30 26675 H 2569.46 1.2674 -0.683594 0
M  V30 26676 H 2571.41 4.18883 0.459911 0
M  V30 26677 H 2570.14 3.09361 1.04706 0
M  V30 26678 H 2568.8 3.51434 -1.04353 0
M  V30 26679 H 2568.45 4.93236 0.986272 0
M  V30 26680 H 2568.15 5.85396 -0.50848 0
M  V30 26681 H 2569.67 6.09336 0.39269 0
M  V30 26682 H 2571.08 5.44799 -1.78513 0
M  V30 26683 H 2569.48 5.42007 -2.57583 0
M  V30 26684 H 2570.55 4.01394 -2.72049 0
M  V30 26685 N 2571.89 0.757924 1.38178 0
M  V30 26686 C 2572.83 0.0932579 2.2901 0
M  V30 26687 C 2573.84 -0.67911 1.47959 0
M  V30 26688 O 2575.03 -0.519483 1.70774 0
M  V30 26689 C 2572.13 -0.891863 3.26954 0
M  V30 26690 C 2571.3 -0.176226 4.37045 0
M  V30 26691 C 2570.36 -1.07272 5.1515 0
M  V30 26692 O 2569.39 -0.541629 5.66617 0
M  V30 26693 N 2570.59 -2.4004 5.28546 0
M  V30 26694 H 2573.35 0.873354 2.86693 0
M  V30 26695 H 2570.91 0.60908 1.50006 0
M  V30 26696 H 2572.91 -1.49473 3.76085 0
M  V30 26697 H 2571.48 -1.57301 2.70139 0
M  V30 26698 H 2570.7 0.607397 3.89492 0
M  V30 26699 H 2571.98 0.318807 5.078 0
M  V30 26700 H 2571.38 -2.85639 4.8829 0
M  V30 26701 H 2569.94 -2.95366 5.81036 0
M  V30 26702 N 2573.37 -1.4921 0.507345 0
M  V30 26703 C 2574.3 -2.27168 -0.304492 0
M  V30 26704 C 2575.32 -1.33973 -0.924932 0
M  V30 26705 O 2576.51 -1.59206 -0.807199 0
M  V30 26706 C 2573.61 -3.06585 -1.44426 0
M  V30 26707 C 2572.78 -4.274 -0.929951 0
M  V30 26708 C 2571.84 -4.88811 -1.94809 0
M  V30 26709 O 2570.86 -5.48693 -1.51409 0
M  V30 26710 N 2572.07 -4.79027 -3.27892 0
M  V30 26711 H 2574.83 -2.97481 0.364002 0
M  V30 26712 H 2572.39 -1.58284 0.340277 0
M  V30 26713 H 2574.38 -3.44541 -2.12305 0
M  V30 26714 H 2572.95 -2.38839 -2.0168 0
M  V30 26715 H 2572.17 -3.94127 -0.0758551 0
M  V30 26716 H 2573.46 -5.05655 -0.564843 0
M  V30 26717 H 2572.86 -4.31487 -3.65836 0
M  V30 26718 H 2571.42 -5.21149 -3.91467 0
M  V30 26719 N 2574.85 -0.241454 -1.55739 0
M  V30 26720 C 2575.81 0.647025 -2.19878 0
M  V30 26721 C 2576.81 1.10684 -1.16644 0
M  V30 26722 O 2578 1.01243 -1.41759 0
M  V30 26723 C 2575.14 1.88866 -2.838 0
M  V30 26724 H 2576.33 0.0875213 -2.99772 0
M  V30 26725 H 2573.88 0.00810826 -1.56298 0
M  V30 26726 H 2574.62 2.48953 -2.07829 0
M  V30 26727 H 2574.4 1.56722 -3.59417 0
M  V30 26728 H 2575.89 2.52123 -3.32902 0
M  V30 26729 N 2576.33 1.57568 0.0317248 0
M  V30 26730 C 2577.56 1.93408 0.734915 0
M  V30 26731 C 2577.97 0.84099 1.69035 0
M  V30 26732 O 2577.33 -0.182804 1.81582 0
M  V30 26733 C 2577.38 3.29172 1.49426 0
M  V30 26734 O 2577.1 4.34281 0.577184 0
M  V30 26735 C 2578.6 3.79277 2.29485 0
M  V30 26736 H 2575.82 0.638372 0.206694 0
M  V30 26737 H 2578.37 2.04498 -0.0099564 0
M  V30 26738 H 2576.52 3.19487 2.19104 0
M  V30 26739 H 2576.93 5.12632 1.10943 0
M  V30 26740 H 2578.41 4.7679 2.78164 0
M  V30 26741 H 2578.89 3.10334 3.10789 0
M  V30 26742 H 2579.49 3.92036 1.64887 0
M  V30 26743 N 2577.81 -0.303946 1.54641 0
M  V30 26744 C 2579.22 -0.649437 1.45789 0
M  V30 26745 C 2579.42 -1.90841 0.646693 0
M  V30 26746 O 2578.48 -2.52035 0.153227 0
M  V30 26747 C 2579.79 -0.805176 2.8972 0
M  V30 26748 C 2581.34 -0.901252 2.99744 0
M  V30 26749 C 2581.81 -1.08901 4.44865 0
M  V30 26750 N 2583.31 -1.15529 4.48561 0
M  V30 26751 C 2584.04 -1.31881 5.58028 0
M  V30 26752 N 2583.54 -1.45149 6.77424 0
M  V30 26753 N 2585.33 -1.34745 5.45711 0
M  V30 26754 H 2577.48 0.523273 2.05853 0
M  V30 26755 H 2579.74 0.172447 0.932183 0
M  V30 26756 H 2579.45 0.0489726 3.51666 0
M  V30 26757 H 2579.32 -1.69507 3.36967 0
M  V30 26758 H 2581.71 -1.74589 2.37913 0
M  V30 26759 H 2581.79 0.0125981 2.55797 0
M  V30 26760 H 2581.44 -0.249152 5.07289 0
M  V30 26761 H 2581.37 -2.01704 4.86439 0
M  V30 26762 H 2583.86 -1.06639 3.62542 0
M  V30 26763 H 2584.17 -1.57373 7.56607 0
M  V30 26764 H 2582.51 -1.42211 6.80295 0
M  V30 26765 H 2585.71 -1.23988 4.51381 0
M  V30 26766 H 2585.88 -1.47146 6.31072 0
M  V30 26767 N 2579.28 -1.47047 -0.566994 0
M  V30 26768 C 2580.22 -1.54847 -1.68982 0
M  V30 26769 C 2581.23 -0.435459 -1.56868 0
M  V30 26770 O 2582.42 -0.704599 -1.64005 0
M  V30 26771 C 2579.52 -1.42748 -3.0737 0
M  V30 26772 C 2578.69 -2.68446 -3.45334 0
M  V30 26773 C 2577.75 -2.50322 -4.62845 0
M  V30 26774 O 2576.78 -3.24103 -4.67916 0
M  V30 26775 N 2577.98 -1.57509 -5.58723 0
M  V30 26776 H 2580.74 -2.51666 -1.6274 0
M  V30 26777 H 2578.3 -1.43303 -0.753385 0
M  V30 26778 H 2580.3 -1.28372 -3.838 0
M  V30 26779 H 2578.87 -0.540499 -3.07892 0
M  V30 26780 H 2578.09 -2.97653 -2.5845 0
M  V30 26781 H 2579.37 -3.51914 -3.6747 0
M  V30 26782 H 2578.77 -0.966974 -5.57374 0
M  V30 26783 H 2577.33 -1.49089 -6.3452 0
M  V30 26784 N 2580.76 0.812929 -1.35016 0
M  V30 26785 C 2581.73 1.906 -1.27296 0
M  V30 26786 C 2582.73 1.59722 -0.185845 0
M  V30 26787 O 2583.92 1.68574 -0.439132 0
M  V30 26788 C 2581.05 3.26876 -0.967733 0
M  V30 26789 H 2582.24 1.98866 -2.24482 0
M  V30 26790 H 2579.79 1.00806 -1.19448 0
M  V30 26791 H 2580.53 3.243 0.000538396 0
M  V30 26792 H 2580.31 3.50672 -1.75418 0
M  V30 26793 H 2581.8 4.06902 -0.939156 0
M  V30 26794 N 2582.24 1.18909 1.03433 0
M  V30 26795 C 2583.17 0.879632 2.11649 0
M  V30 26796 C 2584.19 -0.12541 1.62316 0
M  V30 26797 O 2585.37 0.103276 1.78201 0
M  V30 26798 C 2582.47 0.294101 3.37621 0
M  V30 26799 C 2581.65 1.34636 4.16163 0
M  V30 26800 C 2580.71 0.775365 5.20456 0
M  V30 26801 O 2579.73 1.45169 5.50377 0
M  V30 26802 N 2580.93 -0.424024 5.78949 0
M  V30 26803 H 2583.7 1.81109 2.38787 0
M  V30 26804 H 2581.26 1.09034 1.19679 0
M  V30 26805 H 2583.25 -0.101608 4.04572 0
M  V30 26806 H 2581.82 -0.541521 3.07874 0
M  V30 26807 H 2581.04 1.91713 3.44441 0
M  V30 26808 H 2582.33 2.05557 4.65428 0
M  V30 26809 H 2581.73 -0.991111 5.5695 0
M  V30 26810 H 2580.29 -0.761577 6.47335 0
M  V30 26811 N 2583.72 -1.22452 0.992137 0
M  V30 26812 C 2585 -1.86693 0.583541 0
M  V30 26813 C 2585.38 -1.89058 -0.939166 0
M  V30 26814 O 2584.72 -1.38056 -1.82079 0
M  V30 26815 C 2584.93 -3.27607 1.20309 0
M  V30 26816 C 2586.28 -4.04108 1.30315 0
M  V30 26817 O 2587.31 -3.36871 1.15743 0
M  V30 26818 O 2586.16 -5.24463 1.53625 0
M  V30 26819 H 2583.26 -0.802912 0.198143 0
M  V30 26820 H 2585.8 -1.30236 1.08797 0
M  V30 26821 H 2584.58 -3.20516 2.24467 0
M  V30 26822 H 2584.2 -3.91669 0.684213 0
M  V30 26823 N 2585.2 -0.765242 -1.37774 0
M  V30 26824 C 2586.45 -0.323342 -1.99091 0
M  V30 26825 C 2586.76 1.10444 -1.61436 0
M  V30 26826 O 2587.96 1.64739 -2.15808 0
M  V30 26827 C 2586.42 -0.52716 -3.56018 0
M  V30 26828 C 2586.03 -1.96478 -4.02617 0
M  V30 26829 C 2587.77 -0.148557 -4.2424 0
M  V30 26830 C 2585.68 -2.11654 -5.52229 0
M  V30 26831 H 2584.61 -0.11715 -0.744844 0
M  V30 26832 H 2587.26 -0.943444 -1.57389 0
M  V30 26833 H 2585.64 0.162303 -3.95667 0
M  V30 26834 H 2586.82 -2.68866 -3.74229 0
M  V30 26835 H 2585.13 -2.29937 -3.47157 0
M  V30 26836 H 2587.73 -0.24055 -5.34159 0
M  V30 26837 H 2588.07 0.900351 -4.06447 0
M  V30 26838 H 2588.6 -0.790318 -3.8987 0
M  V30 26839 H 2585.34 -3.1484 -5.7494 0
M  V30 26840 H 2584.86 -1.43741 -5.82322 0
M  V30 26841 H 2586.54 -1.91203 -6.18102 0
M  V30 26842 N 2586.67 1.48939 -0.515251 0
M  V30 26843 C 2587.61 2.27327 0.292441 0
M  V30 26844 C 2588.62 1.34462 0.917814 0
M  V30 26845 O 2589.81 1.59632 0.798744 0
M  V30 26846 C 2586.91 3.07347 1.42798 0
M  V30 26847 C 2586.08 4.27887 0.907272 0
M  V30 26848 C 2585.14 4.89837 1.92214 0
M  V30 26849 O 2584.17 5.49488 1.48497 0
M  V30 26850 N 2585.37 4.80759 3.25347 0
M  V30 26851 H 2588.13 2.97284 -0.379773 0
M  V30 26852 H 2585.69 1.58101 -0.348666 0
M  V30 26853 H 2587.69 3.45662 2.10475 0
M  V30 26854 H 2586.26 2.39905 2.0041 0
M  V30 26855 H 2585.48 3.94162 0.0549525 0
M  V30 26856 H 2586.76 5.05947 0.538019 0
M  V30 26857 H 2586.16 4.33421 3.63542 0
M  V30 26858 H 2584.72 5.23218 3.88698 0
M  V30 26859 N 2588.15 0.249709 1.55609 0
M  V30 26860 C 2589.56 -0.252916 1.84979 0
M  V30 26861 C 2589.92 -1.57382 1.17156 0
M  V30 26862 O 2589.04 -2.1165 0.450921 0
M  V30 26863 C 2589.64 -0.465673 3.35584 0
M  V30 26864 C 2588.19 -0.91256 3.6517 0
M  V30 26865 C 2587.34 0.00863959 2.77299 0
M  V30 26866 H 2590.29 0.472197 1.51512 0
M  V30 26867 H 2590.31 -1.30789 3.57316 0
M  V30 26868 H 2589.83 0.495858 3.84919 0
M  V30 26869 H 2587.93 -1.88646 3.21315 0
M  V30 26870 H 2588.04 -0.767476 4.72913 0
M  V30 26871 H 2586.4 -0.503226 2.49679 0
M  V30 26872 H 2587.19 0.965594 3.29441 0
M  V30 26873 N 2589.63 -1.57583 -0.0233682 0
M  V30 26874 C 2590.59 -2.05899 -1.00689 0
M  V30 26875 C 2591.59 -0.964114 -1.28691 0
M  V30 26876 O 2592.78 -1.22755 -1.236 0
M  V30 26877 C 2589.92 -2.48074 -2.3382 0
M  V30 26878 H 2591.11 -2.94051 -0.589424 0
M  V30 26879 H 2588.66 -1.53945 -0.270327 0
M  V30 26880 H 2589.4 -1.63095 -2.80304 0
M  V30 26881 H 2589.18 -3.28014 -2.14824 0
M  V30 26882 H 2590.67 -2.85863 -3.04421 0
M  V30 26883 N 2591.11 0.29574 -1.548 0
M  V30 26884 C 2592.36 1.02795 -1.7354 0
M  V30 26885 C 2592.67 1.88249 -0.531192 0
M  V30 26886 O 2593.88 2.64776 -0.600505 0
M  V30 26887 C 2592.33 1.87738 -3.07054 0
M  V30 26888 C 2591.94 1.07262 -4.3497 0
M  V30 26889 C 2593.69 2.60527 -3.35151 0
M  V30 26890 C 2591.59 1.91511 -5.59533 0
M  V30 26891 H 2590.52 0.387511 -0.646801 0
M  V30 26892 H 2593.17 0.284687 -1.81278 0
M  V30 26893 H 2591.56 2.66073 -2.93294 0
M  V30 26894 H 2592.73 0.335036 -4.5958 0
M  V30 26895 H 2591.04 0.460311 -4.13848 0
M  V30 26896 H 2593.64 3.23922 -4.25416 0
M  V30 26897 H 2593.98 3.29632 -2.54261 0
M  V30 26898 H 2594.52 1.89238 -3.49906 0
M  V30 26899 H 2591.26 1.26867 -6.43106 0
M  V30 26900 H 2590.78 2.62928 -5.391 0
M  V30 26901 H 2592.46 2.49432 -5.96986 0
M  V30 26902 N 2592.59 1.47346 0.559187 0
M  V30 26903 C 2593.52 1.55741 1.68158 0
M  V30 26904 C 2594.53 0.443772 1.56635 0
M  V30 26905 O 2595.72 0.713287 1.63629 0
M  V30 26906 C 2592.82 1.44376 3.06609 0
M  V30 26907 C 2591.99 2.70274 3.43905 0
M  V30 26908 C 2591.05 2.52773 4.61511 0
M  V30 26909 O 2590.08 3.2658 4.66191 0
M  V30 26910 N 2591.28 1.6047 5.5788 0
M  V30 26911 H 2594.05 2.52525 1.61403 0
M  V30 26912 H 2591.61 1.437 0.745775 0
M  V30 26913 H 2593.6 1.30405 3.83114 0
M  V30 26914 H 2592.17 0.55682 3.07601 0
M  V30 26915 H 2591.39 2.99019 2.56868 0
M  V30 26916 H 2592.68 3.53858 3.65598 0
M  V30 26917 H 2592.08 0.99652 5.56854 0
M  V30 26918 H 2590.63 1.52452 6.3372 0
M  V30 26919 N 2594.07 -0.805758 1.35445 0
M  V30 26920 C 2595.29 -1.59938 1.3204 0
M  V30 26921 C 2595.72 -1.87837 -0.0993885 0
M  V30 26922 O 2595.07 -1.46617 -1.06645 0
M  V30 26923 C 2595.12 -2.90707 2.13359 0
M  V30 26924 O 2594.23 -3.83569 1.51487 0
M  V30 26925 H 2593.57 -0.485779 0.452675 0
M  V30 26926 H 2596.1 -0.999987 1.78498 0
M  V30 26927 H 2596.11 -3.40124 2.25344 0
M  V30 26928 H 2594.78 -2.69726 3.16577 0
M  V30 26929 H 2593.36 -3.42122 1.48346 0
M  V30 26930 N 2595.54 -1.19456 -1.02801 0
M  V30 26931 C 2596.77 -1.02367 -1.80377 0
M  V30 26932 C 2597.19 0.422975 -1.83283 0
M  V30 26933 O 2596.55 1.30411 -1.25947 0
M  V30 26934 C 2596.6 -1.59827 -3.23246 0
M  V30 26935 O 2595.7 -0.828176 -4.03999 0
M  V30 26936 H 2595.04 -0.361771 -0.556792 0
M  V30 26937 H 2597.57 -1.58498 -1.29382 0
M  V30 26938 H 2597.58 -1.63079 -3.73991 0
M  V30 26939 H 2596.26 -2.65118 -3.20445 0
M  V30 26940 H 2594.84 -0.868973 -3.62634 0
M  V30 26941 N 2597.02 1.21924 -0.998617 0
M  V30 26942 C 2598.27 1.91398 -0.68837 0
M  V30 26943 C 2598.62 1.76242 0.771774 0
M  V30 26944 O 2597.92 1.12422 1.55151 0
M  V30 26945 C 2598.11 3.42039 -1.03654 0
M  V30 26946 C 2597.94 3.7185 -2.52898 0
M  V30 26947 C 2596.71 3.91554 -3.19396 0
M  V30 26948 C 2598.91 3.75869 -3.51037 0
M  V30 26949 N 2596.89 4.08726 -4.58057 0
M  V30 26950 C 2598.26 3.9825 -4.75181 0
M  V30 26951 C 2600.31 3.58745 -3.45263 0
M  V30 26952 C 2599.02 4.05284 -5.94254 0
M  V30 26953 C 2601.04 3.67041 -4.63719 0
M  V30 26954 C 2600.41 3.89877 -5.86665 0
M  V30 26955 H 2596.5 0.720802 -0.303264 0
M  V30 26956 H 2599.09 1.46729 -1.27979 0
M  V30 26957 H 2597.26 3.85501 -0.473637 0
M  V30 26958 H 2598.99 3.98917 -0.681689 0
M  V30 26959 H 2595.75 3.892 -2.69852 0
M  V30 26960 H 2596.17 4.21228 -5.29997 0
M  V30 26961 H 2600.81 3.40071 -2.51221 0
M  V30 26962 H 2598.53 4.2276 -6.88694 0
M  V30 26963 H 2602.12 3.55122 -4.60847 0
M  V30 26964 H 2601 3.96132 -6.76793 0
M  V30 26965 N 2598.5 0.772537 1.37367 0
M  V30 26966 C 2599.91 0.402525 1.82309 0
M  V30 26967 C 2600.26 -1.07144 1.64362 0
M  V30 26968 O 2599.39 -1.82988 1.15517 0
M  V30 26969 C 2599.98 0.723835 3.30977 0
M  V30 26970 C 2598.54 0.406868 3.74195 0
M  V30 26971 C 2597.69 0.967264 2.59883 0
M  V30 26972 H 2600.64 0.967121 1.25827 0
M  V30 26973 H 2600.66 0.0087752 3.80499 0
M  V30 26974 H 2600.17 1.79666 3.44008 0
M  V30 26975 H 2598.27 -0.658608 3.66733 0
M  V30 26976 H 2598.39 0.915671 4.70268 0
M  V30 26977 H 2596.75 0.39146 2.51674 0
M  V30 26978 H 2597.53 2.04551 2.75706 0
M  V30 26979 N 2599.98 -1.48664 0.523142 0
M  V30 26980 C 2600.92 -2.29513 -0.243358 0
M  V30 26981 C 2601.89 -1.36934 -0.940115 0
M  V30 26982 O 2603.08 -1.65898 -0.942474 0
M  V30 26983 C 2600.22 -3.20143 -1.28849 0
M  V30 26984 C 2599.33 -4.27795 -0.601275 0
M  V30 26985 C 2598.47 -5.05614 -1.62875 0
M  V30 26986 C 2597.51 -6.05076 -0.92462 0
M  V30 26987 N 2596.64 -6.75978 -1.89732 0
M  V30 26988 H 2601.48 -2.94548 0.452286 0
M  V30 26989 H 2599.02 -1.45213 0.234884 0
M  V30 26990 H 2600.98 -3.71082 -1.90667 0
M  V30 26991 H 2599.61 -2.57047 -1.95261 0
M  V30 26992 H 2598.66 -3.80175 0.130689 0
M  V30 26993 H 2599.97 -4.98777 -0.0480708 0
M  V30 26994 H 2599.13 -5.60532 -2.32139 0
M  V30 26995 H 2597.87 -4.34456 -2.21584 0
M  V30 26996 H 2596.87 -5.49368 -0.21787 0
M  V30 26997 H 2598.1 -6.7823 -0.343732 0
M  V30 26998 H 2596.04 -6.07576 -2.47362 0
M  V30 26999 H 2595.96 -7.43011 -1.39537 0
M  V30 27000 H 2597.23 -7.35489 -2.58216 0
M  V30 27001 N 2601.46 -0.257958 -1.55475 0
M  V30 27002 C 2602.39 0.630873 -2.24816 0
M  V30 27003 C 2603.37 1.17257 -1.23226 0
M  V30 27004 O 2604.55 1.20988 -1.51906 0
M  V30 27005 C 2601.68 1.82293 -2.95612 0
M  V30 27006 C 2600.64 1.41352 -4.03985 0
M  V30 27007 C 2599.96 2.6873 -4.62264 0
M  V30 27008 C 2601.26 0.576389 -5.1911 0
M  V30 27009 H 2602.96 0.0526351 -2.99354 0
M  V30 27010 H 2600.5 0.0238757 -1.4398 0
M  V30 27011 H 2602.45 2.45047 -3.42826 0
M  V30 27012 H 2601.18 2.42672 -2.18581 0
M  V30 27013 H 2599.84 0.809261 -3.57556 0
M  V30 27014 H 2599.49 3.27331 -3.81921 0
M  V30 27015 H 2599.19 2.42055 -5.35428 0
M  V30 27016 H 2600.71 3.32363 -5.12218 0
M  V30 27017 H 2602.12 1.10851 -5.62481 0
M  V30 27018 H 2600.52 0.405246 -5.9873 0
M  V30 27019 H 2601.59 -0.408861 -4.83173 0
M  V30 27020 N 2602.93 1.57593 0.0150108 0
M  V30 27021 C 2603.84 2.10884 1.02787 0
M  V30 27022 C 2604.86 1.05063 1.387 0
M  V30 27023 O 2606.04 1.36879 1.47736 0
M  V30 27024 C 2603.1 2.58923 2.30564 0
M  V30 27025 C 2602.16 3.79284 2.01102 0
M  V30 27026 C 2601.4 4.25023 3.22786 0
M  V30 27027 O 2601.62 3.70191 4.33953 0
M  V30 27028 O 2600.55 5.17327 3.07662 0
M  V30 27029 H 2604.38 2.97615 0.604921 0
M  V30 27030 H 2601.96 1.47574 0.232894 0
M  V30 27031 H 2603.85 2.90089 3.05657 0
M  V30 27032 H 2602.52 1.75297 2.72126 0
M  V30 27033 H 2601.43 3.53116 1.23531 0
M  V30 27034 H 2602.76 4.63938 1.64386 0
M  V30 27035 N 2604.41 -0.287527 1.54955 0
M  V30 27036 C 2605.34 -1.37697 1.83227 0
M  V30 27037 C 2606.36 -1.46213 0.715924 0
M  V30 27038 O 2607.55 -1.4829 0.993591 0
M  V30 27039 C 2604.65 -2.75956 1.96727 0
M  V30 27040 C 2603.82 -2.90209 3.27258 0
M  V30 27041 C 2602.88 -4.0905 3.31005 0
M  V30 27042 O 2601.9 -4.00496 4.04464 0
M  V30 27043 N 2603.11 -5.20332 2.57362 0
M  V30 27044 H 2605.87 -1.13795 2.77256 0
M  V30 27045 H 2603.43 -0.477625 1.54694 0
M  V30 27046 H 2605.42 -3.53726 1.96621 0
M  V30 27047 H 2603.99 -2.92745 1.09632 0
M  V30 27048 H 2603.21 -1.99441 3.40025 0
M  V30 27049 H 2604.5 -2.96652 4.1337 0
M  V30 27050 H 2603.9 -5.30165 1.97336 0
M  V30 27051 H 2602.46 -5.96387 2.62995 0
M  V30 27052 N 2605.89 -1.47641 -0.551365 0
M  V30 27053 C 2607.14 -1.54565 -1.30827 0
M  V30 27054 C 2607.47 -0.210395 -1.93359 0
M  V30 27055 O 2606.72 0.797301 -1.78722 0
M  V30 27056 C 2607.02 -2.61649 -2.43464 0
M  V30 27057 C 2606.69 -4.04746 -1.98725 0
M  V30 27058 C 2605.35 -4.43698 -1.86241 0
M  V30 27059 C 2607.7 -4.94509 -1.64651 0
M  V30 27060 C 2605.03 -5.70243 -1.37985 0
M  V30 27061 C 2607.38 -6.21523 -1.17864 0
M  V30 27062 C 2606.04 -6.59352 -1.0398 0
M  V30 27063 H 2605.31 -0.565595 -0.478731 0
M  V30 27064 H 2607.96 -1.81265 -0.617665 0
M  V30 27065 H 2606.27 -2.28727 -3.18105 0
M  V30 27066 H 2607.96 -2.64228 -3.01637 0
M  V30 27067 H 2604.55 -3.73972 -2.09387 0
M  V30 27068 H 2608.74 -4.6511 -1.73166 0
M  V30 27069 H 2603.99 -5.98296 -1.25904 0
M  V30 27070 H 2608.17 -6.90486 -0.905618 0
M  V30 27071 H 2605.79 -7.57298 -0.663661 0
M  V30 27072 N 2607.37 0.798563 -1.3587 0
M  V30 27073 C 2608.61 1.55773 -1.30791 0
M  V30 27074 C 2608.97 1.92059 0.114525 0
M  V30 27075 O 2608.26 1.59149 1.06688 0
M  V30 27076 C 2608.46 2.85073 -2.15565 0
M  V30 27077 C 2608.29 2.61422 -3.65908 0
M  V30 27078 C 2607.06 2.56908 -4.35117 0
M  V30 27079 C 2609.25 2.31247 -4.59379 0
M  V30 27080 N 2607.24 2.25058 -5.71159 0
M  V30 27081 C 2608.61 2.09306 -5.83602 0
M  V30 27082 C 2610.66 2.17177 -4.48039 0
M  V30 27083 C 2609.36 1.74719 -6.97758 0
M  V30 27084 C 2611.39 1.83988 -5.62052 0
M  V30 27085 C 2610.75 1.62888 -6.85308 0
M  V30 27086 H 2606.85 0.571412 -0.533865 0
M  V30 27087 H 2609.44 0.934049 -1.70832 0
M  V30 27088 H 2607.61 3.45323 -1.77782 0
M  V30 27089 H 2609.34 3.50715 -2.01944 0
M  V30 27090 H 2606.09 2.71836 -3.87817 0
M  V30 27091 H 2606.52 2.11905 -6.42982 0
M  V30 27092 H 2611.16 2.32184 -3.53342 0
M  V30 27093 H 2608.88 1.5845 -7.92414 0
M  V30 27094 H 2612.46 1.73798 -5.55235 0
M  V30 27095 H 2611.34 1.37582 -7.72037 0
M  V30 27096 N 2608.85 1.19999 1.02166 0
M  V30 27097 C 2609.81 0.946077 2.08763 0
M  V30 27098 C 2610.81 -0.0763563 1.60619 0
M  V30 27099 O 2612 0.159165 1.73471 0
M  V30 27100 C 2609.13 0.423314 3.38262 0
M  V30 27101 H 2610.32 1.89157 2.32722 0
M  V30 27102 H 2607.88 1.01466 1.18888 0
M  V30 27103 H 2608.61 -0.527881 3.19975 0
M  V30 27104 H 2608.4 1.1606 3.7453 0
M  V30 27105 H 2609.89 0.264985 4.16758 0
M  V30 27106 N 2610.32 -1.21392 1.00507 0
M  V30 27107 C 2611.27 -2.23764 0.565535 0
M  V30 27108 C 2612.24 -1.61 -0.408438 0
M  V30 27109 O 2613.43 -1.88257 -0.31047 0
M  V30 27110 C 2610.57 -3.4495 -0.101606 0
M  V30 27111 C 2609.68 -4.22187 0.915554 0
M  V30 27112 C 2608.81 -5.30741 0.220667 0
M  V30 27113 C 2607.85 -5.99709 1.22537 0
M  V30 27114 N 2606.99 -6.99879 0.557954 0
M  V30 27115 H 2611.83 -2.60722 1.44319 0
M  V30 27116 H 2609.37 -1.28125 0.722666 0
M  V30 27117 H 2611.33 -4.14127 -0.505432 0
M  V30 27118 H 2609.96 -3.0872 -0.942976 0
M  V30 27119 H 2609.01 -3.52188 1.43762 0
M  V30 27120 H 2610.32 -4.69652 1.68013 0
M  V30 27121 H 2609.47 -6.06228 -0.239262 0
M  V30 27122 H 2608.21 -4.84283 -0.576315 0
M  V30 27123 H 2607.22 -5.22994 1.69581 0
M  V30 27124 H 2608.44 -6.48255 2.02344 0
M  V30 27125 H 2606.39 -6.55633 -0.21937 0
M  V30 27126 H 2606.31 -7.45413 1.26078 0
M  V30 27127 H 2607.57 -7.79406 0.121232 0
M  V30 27128 N 2611.8 -0.779811 -1.36955 0
M  V30 27129 C 2612.75 -0.144932 -2.27539 0
M  V30 27130 C 2613.74 0.665462 -1.46494 0
M  V30 27131 O 2614.93 0.527111 -1.68969 0
M  V30 27132 C 2612.06 0.727023 -3.35513 0
M  V30 27133 C 2611.14 -0.0916387 -4.24001 0
M  V30 27134 N 2611.53 -1.14133 -4.92755 0
M  V30 27135 C 2609.83 0.131063 -4.45807 0
M  V30 27136 C 2610.53 -1.6389 -5.58135 0
M  V30 27137 N 2609.51 -0.949714 -5.3524 0
M  V30 27138 H 2613.31 -0.948495 -2.78174 0
M  V30 27139 H 2610.83 -0.618341 -1.50168 0
M  V30 27140 H 2612.82 1.19769 -3.99326 0
M  V30 27141 H 2611.48 1.52924 -2.86434 0
M  V30 27142 H 2612.49 -1.52362 -4.94981 0
M  V30 27143 H 2609.17 0.90455 -4.07583 0
M  V30 27144 H 2610.56 -2.51472 -6.23066 0
M  V30 27145 N 2613.28 1.48384 -0.531019 0
M  V30 27146 C 2614.21 2.26495 0.278471 0
M  V30 27147 C 2615.19 1.324 0.943882 0
M  V30 27148 O 2616.38 1.61743 0.96807 0
M  V30 27149 C 2613.5 3.08662 1.39448 0
M  V30 27150 C 2612.55 4.18139 0.84036 0
M  V30 27151 S 2613.38 5.347 -0.29259 0
M  V30 27152 C 2614.54 6.20428 0.825864 0
M  V30 27153 H 2614.77 2.94804 -0.384417 0
M  V30 27154 H 2612.3 1.51114 -0.316825 0
M  V30 27155 H 2614.26 3.56579 2.03376 0
M  V30 27156 H 2612.92 2.39764 2.02909 0
M  V30 27157 H 2612.12 4.7526 1.67761 0
M  V30 27158 H 2611.72 3.72967 0.277754 0
M  V30 27159 H 2614.01 6.55191 1.72426 0
M  V30 27160 H 2614.95 7.07495 0.292604 0
M  V30 27161 H 2615.36 5.53545 1.10674 0
M  V30 27162 N 2614.76 0.2662 1.55336 0
M  V30 27163 C 2616 -0.346678 2.00424 0
M  V30 27164 C 2616.36 -1.54149 1.15135 0
M  V30 27165 O 2615.65 -1.90431 0.211323 0
M  V30 27166 C 2615.85 -0.787895 3.48607 0
M  V30 27167 C 2615.68 0.362613 4.48236 0
M  V30 27168 C 2614.45 0.843532 4.98209 0
M  V30 27169 C 2616.64 1.19612 5.00197 0
M  V30 27170 N 2614.63 1.96444 5.81621 0
M  V30 27171 C 2616 2.16507 5.80969 0
M  V30 27172 C 2618.05 1.23048 4.82456 0
M  V30 27173 C 2616.75 3.16572 6.45891 0
M  V30 27174 C 2618.78 2.21953 5.4817 0
M  V30 27175 C 2618.14 3.17582 6.28746 0
M  V30 27176 H 2614.24 -0.0922778 0.776536 0
M  V30 27177 H 2616.83 0.388187 1.90791 0
M  V30 27178 H 2615 -1.49201 3.586 0
M  V30 27179 H 2616.73 -1.37735 3.8054 0
M  V30 27180 H 2613.48 0.424354 4.71695 0
M  V30 27181 H 2613.91 2.52824 6.2802 0
M  V30 27182 H 2618.55 0.504977 4.19774 0
M  V30 27183 H 2616.27 3.90061 7.07728 0
M  V30 27184 H 2619.85 2.25342 5.36388 0
M  V30 27185 H 2618.73 3.92863 6.78696 0
M  V30 27186 N 2616.24 -1.57599 -0.0066531 0
M  V30 27187 C 2617.18 -2.09117 -1.01847 0
M  V30 27188 C 2618.18 -1.00971 -1.36019 0
M  V30 27189 O 2619.38 -1.19442 -1.34661 0
M  V30 27190 H 2615.76 -0.667637 -0.346071 0
M  V30 27191 H 2617.73 -2.9313 -0.558343 0
M  V30 27192 C 2616.48 -2.60433 -2.3037 0
M  V30 27193 H 2615.8 -3.43277 -2.04941 0
M  V30 27194 H 2617.24 -3.00166 -2.9946 0
M  V30 27195 C 2615.7 -1.51548 -3.0089 0
M  V30 27196 O 2616.23 -0.894553 -3.91613 0
M  V30 27197 N 2614.44 -1.24455 -2.62601 0
M  V30 27198 H 2613.98 -1.75133 -1.88908 0
M  V30 27199 H 2613.94 -0.518192 -3.101 0
M  V30 27200 N 2617.72 0.279305 -1.55105 0
M  V30 27201 C 2618.96 1.01174 -1.75414 0
M  V30 27202 C 2619.29 1.8651 -0.55176 0
M  V30 27203 O 2618.55 1.90074 0.465885 0
M  V30 27204 C 2618.84 1.92914 -3.00864 0
M  V30 27205 C 2618.51 1.2338 -4.33691 0
M  V30 27206 C 2617.17 1.0415 -4.69794 0
M  V30 27207 C 2619.52 0.738472 -5.15942 0
M  V30 27208 C 2616.85 0.341063 -5.85708 0
M  V30 27209 C 2619.2 0.0516524 -6.32579 0
M  V30 27210 C 2617.87 -0.152409 -6.67326 0
M  V30 27211 H 2617.14 0.370222 -0.641885 0
M  V30 27212 H 2619.79 0.284593 -1.89373 0
M  V30 27213 H 2618.09 2.72229 -2.81777 0
M  V30 27214 H 2619.79 2.49695 -3.13773 0
M  V30 27215 H 2616.38 1.39357 -4.05312 0
M  V30 27216 H 2620.56 0.874678 -4.88532 0
M  V30 27217 H 2615.82 0.172179 -6.11158 0
M  V30 27218 H 2619.99 -0.33995 -6.9557 0
M  V30 27219 H 2617.62 -0.697147 -7.56997 0
M  V30 27220 N 2619.19 1.47931 0.543528 0
M  V30 27221 C 2620.44 1.54514 1.29647 0
M  V30 27222 C 2620.76 0.218007 1.94381 0
M  V30 27223 O 2621.96 0.161955 2.71017 0
M  V30 27224 C 2620.42 2.72439 2.3517 0
M  V30 27225 C 2620.03 4.11739 1.76565 0
M  V30 27226 C 2621.77 2.88325 3.11559 0
M  V30 27227 C 2619.68 5.20944 2.79949 0
M  V30 27228 H 2618.61 0.575178 0.487531 0
M  V30 27229 H 2621.26 1.74236 0.575677 0
M  V30 27230 H 2619.64 2.46124 3.10224 0
M  V30 27231 H 2620.81 4.48015 1.07791 0
M  V30 27232 H 2619.13 4.00854 1.12715 0
M  V30 27233 H 2621.73 3.6708 3.88788 0
M  V30 27234 H 2622.07 1.97275 3.6659 0
M  V30 27235 H 2622.6 3.14476 2.43618 0
M  V30 27236 H 2619.34 6.13916 2.29755 0
M  V30 27237 H 2618.86 4.8917 3.47092 0
M  V30 27238 H 2620.54 5.4848 3.43189 0
M  V30 27239 N 2620.67 -0.791347 1.36292 0
M  V30 27240 C 2621.9 -1.58529 1.33729 0
M  V30 27241 C 2622.32 -1.87932 -0.0794603 0
M  V30 27242 O 2621.68 -1.4774 -1.05084 0
M  V30 27243 C 2621.73 -2.88427 2.1643 0
M  V30 27244 O 2620.83 -3.81941 1.55547 0
M  V30 27245 H 2620.17 -0.480951 0.457802 0
M  V30 27246 H 2622.7 -0.980999 1.79548 0
M  V30 27247 H 2622.71 -3.37714 2.28939 0
M  V30 27248 H 2621.39 -2.66353 3.1942 0
M  V30 27249 H 2619.96 -3.4053 1.51967 0
M  V30 27250 N 2622.15 -1.2054 -1.01528 0
M  V30 27251 C 2623.4 -1.01435 -1.74801 0
M  V30 27252 C 2623.72 0.454423 -1.89631 0
M  V30 27253 O 2622.99 1.32843 -1.43977 0
M  V30 27254 H 2621.57 -0.372336 -0.647592 0
M  V30 27255 H 2624.23 -1.51672 -1.224 0
M  V30 27256 H 2623.33 -1.47378 -2.75111 0
M  V30 27257 N 2623.63 1.20858 -1.01149 0
M  V30 27258 C 2624.88 1.89412 -0.693247 0
M  V30 27259 C 2625.19 1.79378 0.779937 0
M  V30 27260 O 2626.4 2.43019 1.21053 0
M  V30 27261 C 2624.85 3.39673 -1.18955 0
M  V30 27262 C 2624.46 3.58304 -2.68927 0
M  V30 27263 C 2626.2 4.13814 -0.946492 0
M  V30 27264 C 2624.11 5.02364 -3.12065 0
M  V30 27265 H 2623.04 0.709352 -0.255608 0
M  V30 27266 H 2625.69 1.36757 -1.22351 0
M  V30 27267 H 2624.07 3.91621 -0.587297 0
M  V30 27268 H 2625.25 3.16766 -3.34658 0
M  V30 27269 H 2623.56 2.97527 -2.91319 0
M  V30 27270 H 2626.16 5.20021 -1.24426 0
M  V30 27271 H 2626.5 4.16135 0.117146 0
M  V30 27272 H 2627.04 3.67951 -1.51186 0
M  V30 27273 H 2623.77 5.05194 -4.17683 0
M  V30 27274 H 2623.29 5.44733 -2.51051 0
M  V30 27275 H 2624.97 5.70913 -3.04413 0
M  V30 27276 N 2625.11 0.787064 1.3654 0
M  V30 27277 C 2626.04 0.141813 2.28761 0
M  V30 27278 C 2627.05 -0.647573 1.49366 0
M  V30 27279 O 2628.24 -0.483143 1.71837 0
M  V30 27280 C 2625.34 -0.82231 3.28772 0
M  V30 27281 C 2624.51 -0.0834825 4.3732 0
M  V30 27282 C 2623.57 -0.963205 5.17309 0
M  V30 27283 O 2622.6 -0.421319 5.67639 0
M  V30 27284 N 2623.8 -2.28774 5.33519 0
M  V30 27285 H 2626.56 0.933969 2.84776 0
M  V30 27286 H 2624.13 0.640761 1.4868 0
M  V30 27287 H 2626.12 -1.41462 3.79171 0
M  V30 27288 H 2624.69 -1.51536 2.73415 0
M  V30 27289 H 2623.91 0.689877 3.88116 0
M  V30 27290 H 2625.2 0.426447 5.0701 0
M  V30 27291 H 2624.59 -2.75217 4.94239 0
M  V30 27292 H 2623.15 -2.82975 5.8717 0
M  V30 27293 N 2626.58 -1.48101 0.53888 0
M  V30 27294 C 2627.81 -2.06596 0.0123321 0
M  V30 27295 C 2628.22 -1.39459 -1.27859 0
M  V30 27296 O 2627.56 -0.478938 -1.77347 0
M  V30 27297 C 2627.63 -3.58461 -0.273068 0
M  V30 27298 C 2627.29 -4.47527 0.925689 0
M  V30 27299 C 2628.29 -4.86761 1.82646 0
M  V30 27300 C 2625.97 -4.89304 1.1352 0
M  V30 27301 C 2627.97 -5.66552 2.92057 0
M  V30 27302 C 2625.65 -5.68864 2.23243 0
M  V30 27303 C 2626.65 -6.07397 3.12343 0
M  V30 27304 O 2626.34 -6.85357 4.20167 0
M  V30 27305 H 2626.07 -0.675122 0.0344402 0
M  V30 27306 H 2628.63 -1.91353 0.746527 0
M  V30 27307 H 2626.86 -3.7185 -1.06135 0
M  V30 27308 H 2628.54 -3.99046 -0.742772 0
M  V30 27309 H 2629.31 -4.551 1.67657 0
M  V30 27310 H 2625.19 -4.58789 0.450915 0
M  V30 27311 H 2628.73 -5.96548 3.6163 0
M  V30 27312 H 2624.63 -5.99938 2.38211 0
M  V30 27313 H 2625.4 -7.03725 4.17987 0
M  V30 27314 N 2628.06 -0.274434 -1.55192 0
M  V30 27315 C 2628.99 0.606993 -2.25473 0
M  V30 27316 C 2629.97 1.15944 -1.24463 0
M  V30 27317 O 2631.16 1.1937 -1.53181 0
M  V30 27318 C 2628.29 1.79147 -2.97529 0
M  V30 27319 C 2627.24 1.37059 -4.05461 0
M  V30 27320 C 2626.57 2.63812 -4.65089 0
M  V30 27321 C 2627.87 0.521298 -5.19692 0
M  V30 27322 H 2629.56 0.0208817 -2.99393 0
M  V30 27323 H 2627.11 0.00860334 -1.43997 0
M  V30 27324 H 2629.06 2.41398 -3.45406 0
M  V30 27325 H 2627.78 2.4034 -2.21143 0
M  V30 27326 H 2626.44 0.771292 -3.58395 0
M  V30 27327 H 2626.09 3.23262 -3.85371 0
M  V30 27328 H 2625.79 2.36363 -5.37965 0
M  V30 27329 H 2627.32 3.26912 -5.15714 0
M  V30 27330 H 2628.73 1.04879 -5.63625 0
M  V30 27331 H 2627.13 0.34172 -5.99126 0
M  V30 27332 H 2628.2 -0.460085 -4.82712 0
M  V30 27333 N 2629.54 1.576 -0.00170483 0
M  V30 27334 C 2630.5 2.07475 0.974009 0
M  V30 27335 C 2631.5 0.984466 1.27141 0
M  V30 27336 O 2632.69 1.24706 1.21631 0
M  V30 27337 C 2629.82 2.51763 2.29844 0
M  V30 27338 H 2631.02 2.94951 0.542569 0
M  V30 27339 H 2628.57 1.54355 0.245802 0
M  V30 27340 H 2629.31 1.67534 2.77674 0
M  V30 27341 H 2629.09 3.3139 2.09578 0
M  V30 27342 H 2630.58 2.9067 2.99835 0
M  V30 27343 N 2631.02 -0.271076 1.55251 0
M  V30 27344 C 2632.27 -1.00044 1.75601 0
M  V30 27345 C 2632.59 -1.86749 0.56122 0
M  V30 27346 O 2631.86 -1.91261 -0.423813 0
M  V30 27347 H 2630.44 -0.372376 0.647569 0
M  V30 27348 H 2633.1 -0.294843 1.92657 0
M  V30 27349 H 2632.19 -1.63626 2.65769 0
M  V30 27350 N 2632.5 -1.48217 -0.535675 0
M  V30 27351 C 2633.43 -1.65207 -1.65012 0
M  V30 27352 C 2634.41 -0.50104 -1.62553 0
M  V30 27353 O 2635.59 -0.732917 -1.79839 0
M  V30 27354 C 2632.72 -1.68631 -3.03613 0
M  V30 27355 C 2631.68 -2.83178 -3.20927 0
M  V30 27356 C 2631 -2.71687 -4.60532 0
M  V30 27357 C 2632.3 -4.2454 -3.04242 0
M  V30 27358 H 2634 -2.58505 -1.51048 0
M  V30 27359 H 2631.54 -1.24404 -0.72524 0
M  V30 27360 H 2633.5 -1.79106 -3.81443 0
M  V30 27361 H 2632.22 -0.719082 -3.18586 0
M  V30 27362 H 2630.88 -2.72249 -2.45512 0
M  V30 27363 H 2630.53 -1.72946 -4.72333 0
M  V30 27364 H 2630.23 -3.48547 -4.73063 0
M  V30 27365 H 2631.75 -2.84121 -5.4047 0
M  V30 27366 H 2633.16 -4.36332 -3.71869 0
M  V30 27367 H 2631.56 -5.02354 -3.28269 0
M  V30 27368 H 2632.63 -4.41401 -2.00732 0
M  V30 27369 N 2633.97 0.784108 -1.3671 0
M  V30 27370 C 2635.2 1.57817 -1.34568 0
M  V30 27371 C 2635.62 1.87972 0.0694927 0
M  V30 27372 O 2634.98 1.48295 1.04299 0
M  V30 27373 C 2635.03 2.87276 -2.17957 0
M  V30 27374 O 2634.13 3.81111 -1.5757 0
M  V30 27375 H 2633.48 0.478516 -0.460346 0
M  V30 27376 H 2636.01 0.971463 -1.80066 0
M  V30 27377 H 2636.02 3.36496 -2.30727 0
M  V30 27378 H 2634.69 2.64655 -3.20828 0
M  V30 27379 H 2633.27 3.39719 -1.5377 0
M  V30 27380 N 2635.45 1.21076 1.00888 0
M  V30 27381 C 2636.68 1.05148 1.78189 0
M  V30 27382 C 2637.1 -0.398919 1.84537 0
M  V30 27383 O 2636.45 -1.27685 1.30395 0
M  V30 27384 C 2636.5 1.63752 3.22285 0
M  V30 27385 O 2636.22 3.03117 3.1631 0
M  V30 27386 C 2637.73 1.52882 4.16103 0
M  V30 27387 H 2634.95 0.369464 0.560123 0
M  V30 27388 H 2637.49 1.60331 1.26942 0
M  V30 27389 H 2635.64 1.12671 3.70654 0
M  V30 27390 H 2636.06 3.31066 4.06811 0
M  V30 27391 H 2637.53 1.98635 5.15022 0
M  V30 27392 H 2638.01 0.482598 4.36541 0
M  V30 27393 H 2638.62 2.03191 3.73622 0
M  V30 27394 N 2636.93 -1.2032 1.01789 0
M  V30 27395 C 2637.86 -2.254 0.609664 0
M  V30 27396 C 2638.84 -1.65894 -0.375922 0
M  V30 27397 O 2640.03 -1.92437 -0.261067 0
M  V30 27398 C 2637.16 -3.47262 -0.0515384 0
M  V30 27399 C 2636.11 -4.1937 0.855169 0
M  V30 27400 C 2635.44 -5.34667 0.0596697 0
M  V30 27401 C 2636.74 -4.75369 2.16382 0
M  V30 27402 H 2638.43 -2.59801 1.48807 0
M  V30 27403 H 2635.98 -1.24883 0.716956 0
M  V30 27404 H 2637.93 -4.19955 -0.34869 0
M  V30 27405 H 2636.65 -3.12028 -0.964671 0
M  V30 27406 H 2635.31 -3.48544 1.13634 0
M  V30 27407 H 2634.96 -4.95677 -0.855153 0
M  V30 27408 H 2634.66 -5.83842 0.663508 0
M  V30 27409 H 2636.18 -6.10163 -0.230998 0
M  V30 27410 H 2637.6 -5.39874 1.92895 0
M  V30 27411 H 2636 -5.34987 2.71863 0
M  V30 27412 H 2637.07 -3.9404 2.82596 0
M  V30 27413 N 2638.41 -0.794293 -1.3612 0
M  V30 27414 C 2639.82 -0.431478 -1.81646 0
M  V30 27415 C 2640.17 1.04515 -1.66045 0
M  V30 27416 O 2639.3 1.81128 -1.18414 0
M  V30 27417 C 2639.89 -0.776399 -3.29784 0
M  V30 27418 C 2638.45 -0.466348 -3.735 0
M  V30 27419 C 2637.6 -1.00849 -2.58312 0
M  V30 27420 H 2640.55 -0.987017 -1.24273 0
M  V30 27421 H 2640.57 -0.0693082 -3.80437 0
M  V30 27422 H 2640.08 -1.85116 -3.41106 0
M  V30 27423 H 2638.18 0.600181 -3.67734 0
M  V30 27424 H 2638.29 -0.990371 -4.68752 0
M  V30 27425 H 2636.66 -0.43145 -2.51019 0
M  V30 27426 H 2637.44 -2.08911 -2.72417 0
M  V30 27427 N 2639.89 1.47813 -0.546727 0
M  V30 27428 C 2641.13 2.02091 -0.0187392 0
M  V30 27429 C 2641.46 1.42449 1.33166 0
M  V30 27430 O 2640.73 0.595872 1.86618 0
M  V30 27431 H 2639.31 0.74699 -0.00393844 0
M  V30 27432 H 2641.97 1.81336 -0.714359 0
M  V30 27433 H 2641.06 3.12005 0.0771671 0
M  V30 27434 N 2641.36 0.28266 1.55044 0
M  V30 27435 C 2642.31 -0.617438 2.24255 0
M  V30 27436 C 2643.31 -1.15181 1.24217 0
M  V30 27437 O 2644.51 -1.10456 1.42124 0
M  V30 27438 H 2640.89 -0.21768 0.719805 0
M  V30 27439 H 2642.86 -0.0109552 2.98398 0
M  V30 27440 C 2641.61 -1.78667 2.98284 0
M  V30 27441 H 2640.93 -1.38468 3.75055 0
M  V30 27442 H 2642.37 -2.39293 3.50021 0
M  V30 27443 C 2640.83 -2.67971 2.04189 0
M  V30 27444 O 2641.36 -3.68547 1.59799 0
M  V30 27445 N 2639.57 -2.35304 1.7053 0
M  V30 27446 H 2639.11 -1.53563 2.06824 0
M  V30 27447 H 2639.07 -2.95325 1.07844 0
M  V30 27448 N 2642.84 -1.57597 0.0100627 0
M  V30 27449 C 2644.25 -1.78978 -0.531394 0
M  V30 27450 C 2644.6 -0.918485 -1.73373 0
M  V30 27451 O 2643.73 -0.123673 -2.16046 0
M  V30 27452 C 2644.32 -3.24593 -0.970803 0
M  V30 27453 C 2642.88 -3.47036 -1.4575 0
M  V30 27454 C 2642.03 -2.74202 -0.413336 0
M  V30 27455 H 2644.98 -1.56933 0.236193 0
M  V30 27456 H 2645 -3.33259 -1.83627 0
M  V30 27457 H 2644.51 -3.87982 -0.0955211 0
M  V30 27458 H 2642.62 -2.88875 -2.35334 0
M  V30 27459 H 2642.73 -4.55732 -1.47802 0
M  V30 27460 H 2641.09 -2.39117 -0.877224 0
M  V30 27461 H 2641.88 -3.40296 0.453151 0
M  V30 27462 N 2644.32 0.262839 -1.55393 0
M  V30 27463 C 2645.28 1.30842 -1.88183 0
M  V30 27464 C 2646.28 1.41861 -0.757104 0
M  V30 27465 O 2647.47 1.40837 -1.02522 0
M  V30 27466 C 2644.61 2.6884 -2.09614 0
M  V30 27467 H 2645.8 1.02992 -2.8166 0
M  V30 27468 H 2643.35 0.501388 -1.4804 0
M  V30 27469 H 2644.09 3.01854 -1.18552 0
M  V30 27470 H 2643.87 2.62226 -2.91513 0
M  V30 27471 H 2645.36 3.44368 -2.36221 0
M  V30 27472 N 2645.8 1.48499 0.527807 0
M  V30 27473 C 2647.04 1.56859 1.28542 0
M  V30 27474 C 2647.38 0.242685 1.92678 0
M  V30 27475 O 2646.65 -0.751514 1.79395 0
M  V30 27476 C 2646.94 2.70843 2.3731 0
M  V30 27477 C 2646.79 4.13146 1.77851 0
M  V30 27478 C 2648.11 2.80579 3.39063 0
M  V30 27479 H 2645.23 0.570979 0.465996 0
M  V30 27480 H 2647.87 1.80681 0.587752 0
M  V30 27481 H 2646.02 2.50663 2.96817 0
M  V30 27482 H 2647.69 4.44771 1.22377 0
M  V30 27483 H 2645.93 4.20044 1.08375 0
M  V30 27484 H 2646.6 4.88725 2.56615 0
M  V30 27485 H 2649.08 2.98867 2.89513 0
M  V30 27486 H 2647.96 3.62058 4.1256 0
M  V30 27487 H 2648.22 1.88825 3.99747 0
M  V30 27488 N 2647.28 -0.776847 1.37123 0
M  V30 27489 C 2648.24 -1.87158 1.32304 0
M  V30 27490 C 2649.24 -1.59174 0.228127 0
M  V30 27491 O 2650.43 -1.67351 0.483672 0
M  V30 27492 C 2647.56 -3.24195 1.05406 0
M  V30 27493 H 2648.76 -1.92844 2.29676 0
M  V30 27494 H 2646.31 -0.976038 1.22079 0
M  V30 27495 H 2647.04 -3.24187 0.0854442 0
M  V30 27496 H 2646.83 -3.45898 1.84654 0
M  V30 27497 H 2648.32 -4.04269 1.04671 0
M  V30 27498 N 2648.76 -1.2161 -1.00244 0
M  V30 27499 C 2649.98 -1.0617 -1.78165 0
M  V30 27500 C 2650.41 0.384002 -1.84139 0
M  V30 27501 O 2649.76 1.2771 -1.28685 0
M  V30 27502 C 2649.81 -1.66648 -3.19783 0
M  V30 27503 O 2648.92 -0.913684 -4.02151 0
M  V30 27504 H 2648.26 -0.3735 -0.548993 0
M  V30 27505 H 2650.79 -1.61206 -1.25991 0
M  V30 27506 H 2650.8 -1.70975 -3.70448 0
M  V30 27507 H 2649.47 -2.71856 -3.14749 0
M  V30 27508 H 2648.05 -0.945698 -3.60709 0
M  V30 27509 N 2650.23 1.19778 -1.02425 0
M  V30 27510 C 2651.17 2.2158 -0.54568 0
M  V30 27511 C 2652.14 1.5732 0.410996 0
M  V30 27512 O 2653.33 1.85603 0.329191 0
M  V30 27513 C 2650.46 3.3808 0.204914 0
M  V30 27514 C 2649.5 4.20675 -0.702484 0
M  V30 27515 S 2650.33 4.89294 -2.17604 0
M  V30 27516 C 2651.49 6.09208 -1.43583 0
M  V30 27517 H 2651.72 2.61831 -1.40825 0
M  V30 27518 H 2649.26 1.29951 -0.833794 0
M  V30 27519 H 2651.21 4.05608 0.631853 0
M  V30 27520 H 2649.88 2.96272 1.04315 0
M  V30 27521 H 2649.07 5.03849 -0.123281 0
M  V30 27522 H 2648.67 3.58441 -1.06754 0
M  V30 27523 H 2650.96 6.73664 -0.719925 0
M  V30 27524 H 2651.91 6.71603 -2.24399 0
M  V30 27525 H 2652.31 5.56697 -0.93535 0
M  V30 27526 N 2651.71 0.801501 1.35697 0
M  V30 27527 C 2652.64 0.153962 2.2768 0
M  V30 27528 C 2653.62 -0.677064 1.47833 0
M  V30 27529 O 2654.81 -0.645443 1.77105 0
M  V30 27530 C 2651.93 -0.786929 3.29432 0
M  V30 27531 C 2650.98 -0.0361697 4.26485 0
M  V30 27532 S 2651.81 1.29639 5.19571 0
M  V30 27533 C 2652.97 0.359815 6.24865 0
M  V30 27534 H 2653.2 0.93385 2.82253 0
M  V30 27535 H 2650.73 0.596308 1.4242 0
M  V30 27536 H 2652.69 -1.32429 3.88552 0
M  V30 27537 H 2651.35 -1.54016 2.73748 0
M  V30 27538 H 2650.55 -0.75058 4.9838 0
M  V30 27539 H 2650.15 0.431082 3.71507 0
M  V30 27540 H 2652.44 -0.456835 6.75958 0
M  V30 27541 H 2653.38 1.0478 7.00305 0
M  V30 27542 H 2653.79 -0.0422281 5.64484 0
M  V30 27543 N 2653.19 -1.47521 0.554558 0
M  V30 27544 C 2654.15 -2.28459 -0.184134 0
M  V30 27545 C 2655.15 -1.36797 -0.84517 0
M  V30 27546 O 2656.34 -1.59454 -0.701439 0
M  V30 27547 C 2653.47 -3.16401 -1.26898 0
M  V30 27548 H 2654.67 -2.95237 0.526803 0
M  V30 27549 H 2652.22 -1.53167 0.311402 0
M  V30 27550 H 2652.96 -2.54309 -2.01239 0
M  V30 27551 H 2652.74 -3.83856 -0.799816 0
M  V30 27552 H 2654.23 -3.77392 -1.78788 0
M  V30 27553 N 2654.67 -0.290879 -1.54892 0
M  V30 27554 C 2655.91 0.321356 -1.99934 0
M  V30 27555 C 2656.24 1.5467 -1.1793 0
M  V30 27556 O 2655.5 1.94211 -0.240936 0
M  V30 27557 C 2655.8 0.732335 -3.49817 0
M  V30 27558 C 2655.46 -0.390135 -4.49209 0
M  V30 27559 C 2654.12 -0.698306 -4.76106 0
M  V30 27560 C 2656.48 -1.14571 -5.08451 0
M  V30 27561 C 2653.8 -1.76536 -5.59511 0
M  V30 27562 C 2656.16 -2.2026 -5.93016 0
M  V30 27563 C 2654.82 -2.51695 -6.18228 0
M  V30 27564 H 2654.09 0.117592 -0.73161 0
M  V30 27565 H 2656.74 -0.407872 -1.87106 0
M  V30 27566 H 2655.04 1.54149 -3.60202 0
M  V30 27567 H 2656.74 1.21705 -3.82085 0
M  V30 27568 H 2653.33 -0.139836 -4.28372 0
M  V30 27569 H 2657.51 -0.920887 -4.87682 0
M  V30 27570 H 2652.77 -2.01374 -5.77285 0
M  V30 27571 H 2656.94 -2.79272 -6.3795 0
M  V30 27572 H 2654.57 -3.34511 -6.82647 0
M  V30 27573 N 2656.15 1.57589 -0.0184203 0
M  V30 27574 C 2657.37 1.96053 0.676599 0
M  V30 27575 C 2657.8 0.894337 1.65479 0
M  V30 27576 O 2657.15 -0.145817 1.80713 0
M  V30 27577 C 2657.2 3.33616 1.36866 0
M  V30 27578 O 2656.31 3.29223 2.48366 0
M  V30 27579 H 2655.65 0.639533 0.178589 0
M  V30 27580 H 2658.18 2.04455 -0.077092 0
M  V30 27581 H 2658.19 3.69605 1.7279 0
M  V30 27582 H 2656.86 4.10764 0.651564 0
M  V30 27583 H 2655.44 3.04938 2.14633 0
M  V30 27584 N 2657.62 -0.254594 1.5553 0
M  V30 27585 C 2658.59 -1.29842 1.88875 0
M  V30 27586 C 2659.59 -1.41458 0.764616 0
M  V30 27587 O 2660.78 -1.40291 1.03267 0
M  V30 27588 C 2657.91 -2.67725 2.11036 0
M  V30 27589 H 2659.1 -1.01497 2.82203 0
M  V30 27590 H 2656.65 -0.49353 1.48304 0
M  V30 27591 H 2657.39 -3.01221 1.20151 0
M  V30 27592 H 2657.17 -2.60677 2.92899 0
M  V30 27593 H 2658.66 -3.4311 2.38044 0
M  V30 27594 N 2659.1 -1.48777 -0.519925 0
M  V30 27595 C 2660.06 -1.63553 -1.60571 0
M  V30 27596 C 2661.06 -0.50826 -1.52556 0
M  V30 27597 O 2662.25 -0.77429 -1.56046 0
M  V30 27598 C 2659.39 -1.61517 -3.00208 0
M  V30 27599 H 2660.58 -2.60378 -1.48806 0
M  V30 27600 H 2658.13 -1.37524 -0.742748 0
M  V30 27601 H 2658.87 -0.662065 -3.1747 0
M  V30 27602 H 2658.65 -2.43365 -3.07435 0
M  V30 27603 H 2660.14 -1.75071 -3.79131 0
M  V30 27604 N 2660.58 0.769564 -1.37534 0
M  V30 27605 C 2661.51 1.8968 -1.36176 0
M  V30 27606 C 2662.49 1.68537 -0.23004 0
M  V30 27607 O 2663.68 1.89363 -0.430723 0
M  V30 27608 C 2660.81 3.26993 -1.17016 0
M  V30 27609 C 2659.76 3.62704 -2.27222 0
M  V30 27610 C 2659.09 4.98582 -1.93183 0
M  V30 27611 C 2660.39 3.69228 -3.69416 0
M  V30 27612 H 2662.08 1.91074 -2.30502 0
M  V30 27613 H 2659.63 0.917882 -1.10955 0
M  V30 27614 H 2661.58 4.05491 -1.14695 0
M  V30 27615 H 2660.3 3.26038 -0.191453 0
M  V30 27616 H 2658.96 2.86515 -2.28702 0
M  V30 27617 H 2658.61 4.9417 -0.938368 0
M  V30 27618 H 2658.31 5.23445 -2.66982 0
M  V30 27619 H 2659.83 5.79477 -1.92453 0
M  V30 27620 H 2661.25 4.37873 -3.70055 0
M  V30 27621 H 2659.64 4.05589 -4.42287 0
M  V30 27622 H 2660.71 2.69837 -4.02885 0
M  V30 27623 N 2662.06 1.22139 0.995977 0
M  V30 27624 C 2663.29 1.07032 1.77064 0
M  V30 27625 C 2663.7 -0.379324 1.8495 0
M  V30 27626 O 2663.06 -1.26295 1.31742 0
M  V30 27627 C 2663.11 1.67161 3.2053 0
M  V30 27628 O 2662.83 3.06455 3.13077 0
M  V30 27629 C 2664.33 1.57287 4.14458 0
M  V30 27630 H 2661.55 0.375384 0.556172 0
M  V30 27631 H 2664.1 1.61668 1.25235 0
M  V30 27632 H 2662.25 1.16596 3.69438 0
M  V30 27633 H 2662.66 3.35362 4.03277 0
M  V30 27634 H 2664.14 2.04087 5.12887 0
M  V30 27635 H 2664.62 0.528871 4.36004 0
M  V30 27636 H 2665.22 2.07143 3.71446 0
M  V30 27637 N 2663.54 -1.19233 1.03059 0
M  V30 27638 C 2664.76 -1.93457 0.747604 0
M  V30 27639 C 2665.19 -1.75081 -0.687617 0
M  V30 27640 O 2664.54 -1.05425 -1.47497 0
M  V30 27641 C 2664.59 -3.43217 1.10611 0
M  V30 27642 O 2663.7 -4.11782 0.225743 0
M  V30 27643 H 2663.04 -0.603894 0.276057 0
M  V30 27644 H 2665.57 -1.51261 1.37773 0
M  V30 27645 H 2665.58 -3.93889 1.06373 0
M  V30 27646 H 2664.25 -3.55913 2.15171 0
M  V30 27647 H 2662.83 -3.71465 0.32686 0
M  V30 27648 N 2665.01 -0.808686 -1.3527 0
M  V30 27649 C 2666.43 -0.45072 -1.81178 0
M  V30 27650 C 2666.78 1.02748 -1.67144 0
M  V30 27651 O 2665.9 1.79861 -1.20328 0
M  V30 27652 C 2666.5 -0.811333 -3.28942 0
M  V30 27653 C 2665.06 -0.505936 -3.72984 0
M  V30 27654 C 2664.2 -1.03583 -2.57227 0
M  V30 27655 H 2667.15 -1.00014 -1.23219 0
M  V30 27656 H 2667.17 -0.109655 -3.80342 0
M  V30 27657 H 2666.69 -1.88724 -3.39124 0
M  V30 27658 H 2664.79 0.561144 -3.6835 0
M  V30 27659 H 2664.9 -1.04003 -4.67675 0
M  V30 27660 H 2663.26 -0.458049 -2.50547 0
M  V30 27661 H 2664.05 -2.11788 -2.70186 0
M  V30 27662 N 2666.49 1.47225 -0.562374 0
M  V30 27663 C 2667.42 2.32876 0.170586 0
M  V30 27664 C 2668.4 1.44107 0.903722 0
M  V30 27665 O 2669.59 1.72956 0.883176 0
M  V30 27666 C 2666.72 3.25991 1.1978 0
M  V30 27667 C 2665.67 4.24041 0.580801 0
M  V30 27668 C 2665 5.06517 1.71302 0
M  V30 27669 C 2666.3 5.20192 -0.468806 0
M  V30 27670 H 2667.99 2.94407 -0.544492 0
M  V30 27671 H 2665.54 1.41572 -0.263296 0
M  V30 27672 H 2667.49 3.84755 1.71877 0
M  V30 27673 H 2666.22 2.62525 1.94289 0
M  V30 27674 H 2664.87 3.6651 0.0810894 0
M  V30 27675 H 2664.52 4.39451 2.44728 0
M  V30 27676 H 2664.22 5.72904 1.30594 0
M  V30 27677 H 2665.75 5.68141 2.23715 0
M  V30 27678 H 2667.16 5.7329 -0.0337035 0
M  V30 27679 H 2665.56 5.9481 -0.795062 0
M  V30 27680 H 2666.63 4.65356 -1.36277 0
M  V30 27681 N 2667.97 0.299089 1.54736 0
M  V30 27682 C 2669.38 -0.193938 1.8569 0
M  V30 27683 C 2669.73 -1.53575 1.22104 0
M  V30 27684 O 2668.86 -2.10108 0.518027 0
M  V30 27685 C 2669.45 -0.358674 3.36896 0
M  V30 27686 C 2668.01 -0.795922 3.67889 0
M  V30 27687 C 2667.16 0.0968557 2.77131 0
M  V30 27688 H 2670.11 0.520161 1.49933 0
M  V30 27689 H 2670.13 -1.19355 3.61296 0
M  V30 27690 H 2669.64 0.618066 3.83147 0
M  V30 27691 H 2667.74 -1.78328 3.27154 0
M  V30 27692 H 2667.86 -0.616634 4.75115 0
M  V30 27693 H 2666.22 -0.423537 2.51154 0
M  V30 27694 H 2667 1.06991 3.26202 0
M  V30 27695 N 2669.45 -1.57577 0.0267774 0
M  V30 27696 C 2670.68 -1.96002 -0.662627 0
M  V30 27697 C 2671.09 -0.903146 -1.65797 0
M  V30 27698 O 2670.45 0.115285 -1.82136 0
M  V30 27699 C 2670.5 -3.34491 -1.37107 0
M  V30 27700 O 2670.22 -4.36124 -0.415606 0
M  V30 27701 C 2671.72 -3.87533 -2.15251 0
M  V30 27702 H 2668.94 -0.645603 -0.182859 0
M  V30 27703 H 2671.49 -2.0432 0.0858475 0
M  V30 27704 H 2669.64 -3.27399 -2.07096 0
M  V30 27705 H 2670.05 -5.16397 -0.918405 0
M  V30 27706 H 2671.53 -4.86786 -2.60277 0
M  V30 27707 H 2672.01 -3.21654 -2.99057 0
M  V30 27708 H 2672.61 -3.97886 -1.50224 0
M  V30 27709 N 2670.93 0.246342 -1.55663 0
M  V30 27710 C 2672.15 0.996061 -1.81916 0
M  V30 27711 C 2672.58 1.78142 -0.603906 0
M  V30 27712 O 2671.93 1.75702 0.44706 0
M  V30 27713 C 2671.98 1.9092 -3.05912 0
M  V30 27714 O 2671.09 3.001 -2.82866 0
M  V30 27715 H 2670.43 0.283396 -0.600486 0
M  V30 27716 H 2672.96 0.267163 -2.02848 0
M  V30 27717 H 2672.97 2.32374 -3.3536 0
M  V30 27718 H 2671.64 1.33176 -3.94001 0
M  V30 27719 H 2670.22 2.6277 -2.64587 0
M  V30 27720 N 2672.4 1.4905 0.512027 0
M  V30 27721 C 2673.63 1.61671 1.29113 0
M  V30 27722 C 2674.05 0.28382 1.86654 0
M  V30 27723 O 2673.4 -0.729302 1.67294 0
M  V30 27724 C 2673.46 2.67712 2.42925 0
M  V30 27725 O 2673.18 3.9583 1.87751 0
M  V30 27726 C 2674.68 2.90937 3.34471 0
M  V30 27727 H 2671.9 0.544589 0.391999 0
M  V30 27728 H 2674.44 1.95007 0.615847 0
M  V30 27729 H 2672.6 2.37185 3.06304 0
M  V30 27730 H 2673.01 4.54152 2.62385 0
M  V30 27731 H 2674.48 3.68893 4.10636 0
M  V30 27732 H 2674.96 2.00433 3.90798 0
M  V30 27733 H 2675.57 3.22837 2.76869 0
M  V30 27734 N 2673.88 -0.762259 1.3794 0
M  V30 27735 C 2675.11 -1.55145 1.36886 0
M  V30 27736 C 2675.53 -1.8875 -0.0435016 0
M  V30 27737 O 2674.88 -1.52148 -1.00783 0
M  V30 27738 C 2674.93 -2.85592 2.21629 0
M  V30 27739 O 2674.65 -2.53423 3.57363 0
M  V30 27740 C 2676.16 -3.79776 2.2866 0
M  V30 27741 H 2673.38 -0.480335 0.468529 0
M  V30 27742 H 2675.92 -0.944047 1.81406 0
M  V30 27743 H 2674.07 -3.42731 1.80594 0
M  V30 27744 H 2674.49 -3.37025 4.01889 0
M  V30 27745 H 2675.96 -4.68283 2.92259 0
M  V30 27746 H 2676.44 -4.19589 1.29774 0
M  V30 27747 H 2677.05 -3.28563 2.70049 0
M  V30 27748 N 2675.36 -1.22666 -0.989486 0
M  V30 27749 C 2676.61 -1.0474 -1.72373 0
M  V30 27750 C 2676.92 0.417282 -1.91097 0
M  V30 27751 O 2678.13 0.716288 -2.61881 0
M  V30 27752 C 2676.58 -1.82566 -3.10157 0
M  V30 27753 C 2676.19 -3.33305 -2.99352 0
M  V30 27754 C 2677.94 -1.73099 -3.87604 0
M  V30 27755 C 2675.84 -4.03559 -4.32312 0
M  V30 27756 H 2674.77 -0.388314 -0.646319 0
M  V30 27757 H 2677.42 -1.46548 -1.10435 0
M  V30 27758 H 2675.81 -1.33558 -3.72798 0
M  V30 27759 H 2676.98 -3.89732 -2.45856 0
M  V30 27760 H 2675.3 -3.43486 -2.35386 0
M  V30 27761 H 2677.89 -2.22907 -4.86021 0
M  V30 27762 H 2678.24 -0.692048 -4.10507 0
M  V30 27763 H 2678.77 -2.19669 -3.31648 0
M  V30 27764 H 2675.51 -5.07722 -4.14607 0
M  V30 27765 H 2675.03 -3.5192 -4.85708 0
M  V30 27766 H 2676.71 -4.09346 -5.01044 0
M  V30 27767 N 2676.84 1.18685 -1.0369 0
M  V30 27768 C 2677.77 2.24402 -0.645446 0
M  V30 27769 C 2678.75 1.66471 0.349482 0
M  V30 27770 O 2679.94 1.92828 0.230419 0
M  V30 27771 C 2677.07 3.473 -0.00371441 0
M  V30 27772 C 2676.02 4.17956 -0.921779 0
M  V30 27773 C 2675.35 5.34504 -0.144723 0
M  V30 27774 C 2676.65 4.71867 -2.23918 0
M  V30 27775 H 2678.34 2.57401 -1.52922 0
M  V30 27776 H 2675.89 1.23726 -0.736733 0
M  V30 27777 H 2677.84 4.20456 0.281835 0
M  V30 27778 H 2676.56 3.13524 0.914908 0
M  V30 27779 H 2675.22 3.46692 -1.19165 0
M  V30 27780 H 2674.87 4.96975 0.776186 0
M  V30 27781 H 2674.57 5.82712 -0.756308 0
M  V30 27782 H 2676.09 6.10453 0.133897 0
M  V30 27783 H 2677.51 5.36737 -2.01459 0
M  V30 27784 H 2675.9 5.30594 -2.80339 0
M  V30 27785 H 2676.97 3.89495 -2.88829 0
M  V30 27786 N 2678.32 0.815849 1.34839 0
M  V30 27787 C 2679.25 0.247339 2.32186 0
M  V30 27788 C 2680.23 -0.632316 1.57911 0
M  V30 27789 O 2681.41 -0.560665 1.85931 0
M  V30 27790 C 2678.54 -0.597406 3.42123 0
M  V30 27791 C 2677.5 0.184521 4.27602 0
M  V30 27792 C 2676.82 -0.782516 5.28943 0
M  V30 27793 C 2678.12 1.38874 5.03499 0
M  V30 27794 H 2679.82 1.06066 2.79983 0
M  V30 27795 H 2677.36 0.511485 1.3461 0
M  V30 27796 H 2679.32 -1.00526 4.09234 0
M  V30 27797 H 2678.04 -1.44371 2.92958 0
M  V30 27798 H 2676.7 0.573656 3.62084 0
M  V30 27799 H 2676.35 -1.62458 4.76043 0
M  V30 27800 H 2676.05 -0.263592 5.87008 0
M  V30 27801 H 2677.57 -1.18837 5.98924 0
M  V30 27802 H 2678.99 1.05527 5.63504 0
M  V30 27803 H 2677.38 1.8428 5.71105 0
M  V30 27804 H 2678.45 2.17061 4.33604 0
M  V30 27805 N 2679.8 -1.46924 0.570174 0
M  V30 27806 C 2680.74 -2.31878 -0.183141 0
M  V30 27807 C 2681.74 -1.43721 -0.896695 0
M  V30 27808 O 2682.94 -1.60416 -0.816508 0
M  V30 27809 H 2679.32 -0.747951 -0.0779308 0
M  V30 27810 H 2681.29 -2.93243 0.552363 0
M  V30 27811 C 2680.04 -3.26642 -1.19166 0
M  V30 27812 H 2679.36 -3.94447 -0.652018 0
M  V30 27813 H 2680.8 -3.8889 -1.6894 0
M  V30 27814 C 2679.26 -2.5109 -2.24623 0
M  V30 27815 O 2679.79 -2.26478 -3.31769 0
M  V30 27816 N 2678 -2.11871 -1.98895 0
M  V30 27817 H 2677.54 -2.32087 -1.11773 0
M  V30 27818 H 2677.5 -1.61639 -2.69667 0
M  V30 27819 N 2681.27 -0.307291 -1.54575 0
M  V30 27820 C 2682.52 0.300941 -1.99442 0
M  V30 27821 C 2682.84 1.54518 -1.19931 0
M  V30 27822 O 2684.04 2.2284 -1.55096 0
M  V30 27823 C 2682.5 0.586747 -3.55085 0
M  V30 27824 C 2682.11 -0.639516 -4.43412 0
M  V30 27825 C 2683.85 1.15583 -4.08462 0
M  V30 27826 C 2681.76 -0.326514 -5.90498 0
M  V30 27827 H 2680.69 0.116225 -0.744988 0
M  V30 27828 H 2683.34 -0.416978 -1.787 0
M  V30 27829 H 2681.72 1.36443 -3.71752 0
M  V30 27830 H 2682.89 -1.41553 -4.3852 0
M  V30 27831 H 2681.21 -1.12767 -4.0084 0
M  V30 27832 H 2683.81 1.40436 -5.15928 0
M  V30 27833 H 2684.15 2.10009 -3.59447 0
M  V30 27834 H 2684.68 0.439709 -3.95362 0
M  V30 27835 H 2681.42 -1.23951 -6.43674 0
M  V30 27836 H 2680.94 0.412107 -5.98383 0
M  V30 27837 H 2682.62 0.0696256 -6.46963 0
M  V30 27838 N 2682.75 1.57561 -0.0351337 0
M  V30 27839 C 2683.68 2.06103 0.979637 0
M  V30 27840 C 2684.66 0.958069 1.31377 0
M  V30 27841 O 2685.85 1.22884 1.4294 0
M  V30 27842 C 2682.97 2.48812 2.29805 0
M  V30 27843 C 2682.02 3.70187 2.1181 0
M  V30 27844 S 2682.85 5.16567 1.41133 0
M  V30 27845 C 2684.01 5.62577 2.74331 0
M  V30 27846 H 2684.24 2.91854 0.566455 0
M  V30 27847 H 2681.77 1.53385 0.176717 0
M  V30 27848 H 2683.73 2.74084 3.05595 0
M  V30 27849 H 2682.39 1.63396 2.68254 0
M  V30 27850 H 2681.59 3.97938 3.09292 0
M  V30 27851 H 2681.19 3.45099 1.44162 0
M  V30 27852 H 2683.48 5.67184 3.70552 0
M  V30 27853 H 2684.42 6.62031 2.51237 0
M  V30 27854 H 2684.83 4.90247 2.79854 0
M  V30 27855 N 2684.23 -0.238084 1.55791 0
M  V30 27856 C 2685.48 -0.96297 1.77683 0
M  V30 27857 C 2685.8 -1.85517 0.600706 0
M  V30 27858 O 2685.07 -1.92117 -0.383148 0
M  V30 27859 H 2683.65 -0.358556 0.655322 0
M  V30 27860 H 2686.31 -0.253911 1.93239 0
M  V30 27861 H 2685.41 -1.57952 2.6918 0
M  V30 27862 N 2685.71 -1.4932 -0.504115 0
M  V30 27863 C 2686.96 -1.58336 -1.25595 0
M  V30 27864 C 2687.28 -0.270572 -1.93114 0
M  V30 27865 O 2686.55 0.709859 -1.82586 0
M  V30 27866 H 2685.13 -0.583378 -0.466561 0
M  V30 27867 H 2687.79 -1.85929 -0.584514 0
M  V30 27868 H 2686.88 -2.37781 -2.02154 0
M  V30 27869 N 2687.19 0.754933 -1.38342 0
M  V30 27870 C 2688.43 1.51533 -1.35681 0
M  V30 27871 C 2688.79 1.92326 0.0533647 0
M  V30 27872 O 2688.08 1.62462 1.01571 0
M  V30 27873 C 2688.27 2.78071 -2.24525 0
M  V30 27874 C 2688.1 2.49648 -3.7404 0
M  V30 27875 C 2686.87 2.42935 -4.4307 0
M  V30 27876 C 2689.07 2.16515 -4.66504 0
M  V30 27877 N 2687.05 2.06773 -5.7803 0
M  V30 27878 C 2688.42 1.90633 -5.89965 0
M  V30 27879 C 2690.48 2.02813 -4.54721 0
M  V30 27880 C 2689.18 1.52432 -7.02963 0
M  V30 27881 C 2691.21 1.66013 -5.67621 0
M  V30 27882 C 2690.57 1.41003 -6.90143 0
M  V30 27883 H 2686.67 0.554138 -0.551774 0
M  V30 27884 H 2689.25 0.879228 -1.73717 0
M  V30 27885 H 2687.42 3.39492 -1.88679 0
M  V30 27886 H 2689.16 3.44112 -2.12999 0
M  V30 27887 H 2685.91 2.5936 -3.96269 0
M  V30 27888 H 2686.33 1.91341 -6.49398 0
M  V30 27889 H 2690.98 2.20825 -3.6055 0
M  V30 27890 H 2688.69 1.3316 -7.97053 0
M  V30 27891 H 2692.28 1.56046 -5.60483 0
M  V30 27892 H 2691.16 1.12951 -7.76023 0
M  V30 27893 N 2688.66 1.23189 0.982967 0
M  V30 27894 C 2689.59 1.03519 2.09299 0
M  V30 27895 C 2690.57 -0.0470837 1.70035 0
M  V30 27896 O 2691.76 0.117064 1.93847 0
M  V30 27897 C 2688.89 0.622851 3.41669 0
M  V30 27898 C 2687.84 1.65218 3.94825 0
M  V30 27899 C 2687.17 1.09536 5.2336 0
M  V30 27900 C 2688.47 3.04459 4.24385 0
M  V30 27901 H 2690.16 1.96363 2.26013 0
M  V30 27902 H 2687.71 0.94552 1.08609 0
M  V30 27903 H 2689.66 0.472307 4.18745 0
M  V30 27904 H 2688.39 -0.341272 3.24812 0
M  V30 27905 H 2687.05 1.79067 3.19891 0
M  V30 27906 H 2686.69 0.1223 5.02851 0
M  V30 27907 H 2686.39 1.7831 5.59892 0
M  V30 27908 H 2687.92 0.956617 6.0306 0
M  V30 27909 H 2689.33 2.93926 4.9222 0
M  V30 27910 H 2687.73 3.70447 4.72112 0
M  V30 27911 H 2688.8 3.53644 3.31759 0
M  V30 27912 N 2690.14 -1.18133 1.04318 0
M  V30 27913 C 2691.1 -2.20059 0.640833 0
M  V30 27914 C 2692.1 -1.57918 -0.303096 0
M  V30 27915 O 2693.29 -1.73977 -0.0881549 0
M  V30 27916 C 2690.43 -3.40847 -0.0600881 0
M  V30 27917 H 2691.62 -2.57169 1.54285 0
M  V30 27918 H 2689.17 -1.32062 0.836027 0
M  V30 27919 H 2689.91 -3.09271 -0.975791 0
M  V30 27920 H 2689.69 -3.87193 0.618387 0
M  V30 27921 H 2691.18 -4.1631 -0.328009 0
M  V30 27922 N 2691.62 -0.822988 -1.34405 0
M  V30 27923 C 2692.85 -0.42307 -2.03039 0
M  V30 27924 C 2693.27 0.963168 -1.61569 0
M  V30 27925 O 2692.63 1.62677 -0.800367 0
M  V30 27926 C 2692.68 -0.533272 -3.56635 0
M  V30 27927 O 2691.78 0.446867 -4.09972 0
M  V30 27928 H 2691.12 -0.174183 -0.640747 0
M  V30 27929 H 2693.65 -1.11342 -1.71651 0
M  V30 27930 H 2693.66 -0.409062 -4.05944 0
M  V30 27931 H 2692.34 -1.54432 -3.86165 0
M  V30 27932 H 2690.91 0.281536 -3.71836 0
M  V30 27933 N 2693.1 1.4662 -0.577957 0
M  V30 27934 C 2694.03 2.28362 0.195761 0
M  V30 27935 C 2695.04 1.38234 0.859958 0
M  V30 27936 O 2696.23 1.62876 0.73032 0
M  V30 27937 C 2693.33 3.13127 1.29634 0
M  V30 27938 C 2692.51 4.3135 0.724974 0
M  V30 27939 C 2691.56 4.97549 1.71265 0
M  V30 27940 O 2690.59 5.55292 1.25057 0
M  V30 27941 N 2691.79 4.94126 3.04663 0
M  V30 27942 H 2694.56 2.95406 -0.50552 0
M  V30 27943 H 2692.12 1.5648 -0.415408 0
M  V30 27944 H 2694.11 3.54278 1.95625 0
M  V30 27945 H 2692.68 2.48189 1.90055 0
M  V30 27946 H 2691.9 3.9404 -0.112274 0
M  V30 27947 H 2693.19 5.07774 0.322945 0
M  V30 27948 H 2692.59 4.4845 3.44832 0
M  V30 27949 H 2691.14 5.39233 3.66157 0
M  V30 27950 N 2694.58 0.315484 1.5441 0
M  V30 27951 C 2695.83 -0.29036 1.99599 0
M  V30 27952 C 2696.14 -1.5388 1.20749 0
M  V30 27953 O 2697.34 -2.22014 1.56275 0
M  V30 27954 C 2695.8 -0.567908 3.55391 0
M  V30 27955 C 2695.41 0.663023 4.43067 0
M  V30 27956 C 2697.15 -1.13415 4.09069 0
M  V30 27957 C 2695.06 0.357825 5.90317 0
M  V30 27958 H 2693.99 -0.112272 0.745594 0
M  V30 27959 H 2696.64 0.426449 1.78476 0
M  V30 27960 H 2695.02 -1.34469 3.7247 0
M  V30 27961 H 2696.2 1.43877 4.37763 0
M  V30 27962 H 2694.51 1.14891 4.00236 0
M  V30 27963 H 2697.11 -1.37698 5.16666 0
M  V30 27964 H 2697.45 -2.08099 3.60556 0
M  V30 27965 H 2697.98 -0.418736 3.9559 0
M  V30 27966 H 2694.72 1.27362 6.43008 0
M  V30 27967 H 2694.24 -0.380367 5.98593 0
M  V30 27968 H 2695.92 -0.0353146 6.4699 0
M  V30 27969 N 2696.05 -1.5754 0.0434891 0
M  V30 27970 C 2697.02 -2.09984 -0.918659 0
M  V30 27971 C 2698.02 -1.01783 -1.24486 0
M  V30 27972 O 2699.21 -1.27887 -1.18282 0
M  V30 27973 C 2696.34 -2.57768 -2.23088 0
M  V30 27974 H 2697.53 -2.96286 -0.464177 0
M  V30 27975 H 2695.09 -1.54953 -0.204791 0
M  V30 27976 H 2695.82 -1.74837 -2.73134 0
M  V30 27977 H 2695.61 -3.3683 -2.00718 0
M  V30 27978 H 2697.1 -2.98517 -2.92023 0
M  V30 27979 N 2697.53 0.229818 -1.55915 0
M  V30 27980 C 2698.94 0.797501 -1.6881 0
M  V30 27981 C 2699.29 1.85329 -0.644027 0
M  V30 27982 O 2698.42 2.15413 0.206454 0
M  V30 27983 C 2699.01 1.45333 -3.06045 0
M  V30 27984 C 2697.57 1.9685 -3.20822 0
M  V30 27985 C 2696.72 0.825689 -2.64722 0
M  V30 27986 H 2699.67 0.00530944 -1.58699 0
M  V30 27987 H 2699.69 2.32191 -3.01443 0
M  V30 27988 H 2699.2 0.684676 -3.82013 0
M  V30 27989 H 2697.31 2.76543 -2.49709 0
M  V30 27990 H 2697.42 2.15415 -4.2794 0
M  V30 27991 H 2695.78 1.2308 -2.22988 0
M  V30 27992 H 2696.57 0.0698416 -3.43229 0
M  V30 27993 N 2699.01 1.49585 0.49619 0
M  V30 27994 C 2700.42 1.5246 1.07762 0
M  V30 27995 C 2700.77 0.313564 1.93678 0
M  V30 27996 O 2699.9 -0.576149 2.08589 0
M  V30 27997 C 2700.49 2.76275 1.96107 0
M  V30 27998 C 2699.05 2.81913 2.49404 0
M  V30 27999 C 2698.2 2.46437 1.27138 0
M  V30 28000 H 2701.15 1.56212 0.279886 0
M  V30 28001 H 2701.17 2.56709 2.80857 0
M  V30 28002 H 2700.68 3.64399 1.33549 0
M  V30 28003 H 2698.78 1.9808 3.15587 0
M  V30 28004 H 2698.9 3.84201 2.86227 0
M  V30 28005 H 2697.26 1.98321 1.59815 0
M  V30 28006 H 2698.04 3.36841 0.662807 0
M  V30 28007 N 2700.49 -0.747586 1.3874 0
M  V30 28008 C 2701.45 -1.8431 1.36245 0
M  V30 28009 C 2702.45 -1.58654 0.261839 0
M  V30 28010 O 2703.64 -1.66287 0.51906 0
M  V30 28011 C 2700.77 -3.21886 1.12259 0
M  V30 28012 H 2701.97 -1.87929 2.33715 0
M  V30 28013 H 2699.52 -0.949924 1.24121 0
M  V30 28014 H 2700.25 -3.23933 0.15419 0
M  V30 28015 H 2700.04 -3.41903 1.91949 0
M  V30 28016 H 2701.53 -4.01958 1.13223 0
M  V30 28017 N 2701.97 -1.23709 -0.97642 0
M  V30 28018 C 2703.21 -1.06945 -1.71485 0
M  V30 28019 C 2703.54 0.393863 -1.90981 0
M  V30 28020 O 2702.81 1.28196 -1.48131 0
M  V30 28021 H 2701.39 -0.39275 -0.635418 0
M  V30 28022 H 2704.05 -1.55489 -1.17512 0
M  V30 28023 H 2703.14 -1.56056 -2.70283 0
M  V30 28024 N 2703.44 1.17579 -1.04943 0
M  V30 28025 C 2704.41 2.19716 -0.652494 0
M  V30 28026 C 2705.41 1.58076 0.294717 0
M  V30 28027 O 2706.6 1.74021 0.0789273 0
M  V30 28028 C 2703.73 3.40874 0.0420113 0
M  V30 28029 H 2704.92 2.56348 -1.55647 0
M  V30 28030 H 2702.48 1.31616 -0.843019 0
M  V30 28031 H 2703.21 3.09785 0.959376 0
M  V30 28032 H 2703 3.8686 -0.638912 0
M  V30 28033 H 2704.49 4.16478 0.305927 0
M  V30 28034 N 2704.92 0.830104 1.33967 0
M  V30 28035 C 2706.15 0.434808 2.0228 0
M  V30 28036 C 2706.57 -0.96139 1.62489 0
M  V30 28037 O 2705.92 -1.62335 0.833878 0
M  V30 28038 C 2705.97 0.535687 3.57509 0
M  V30 28039 O 2705.69 1.87686 3.9586 0
M  V30 28040 C 2707.2 0.136215 4.43091 0
M  V30 28041 H 2704.42 0.173624 0.648148 0
M  V30 28042 H 2706.96 1.12025 1.71087 0
M  V30 28043 H 2705.11 -0.101749 3.87266 0
M  V30 28044 H 2705.53 1.85618 4.90557 0
M  V30 28045 H 2707 0.257869 5.51397 0
M  V30 28046 H 2707.48 -0.921 4.29435 0
M  V30 28047 H 2708.09 0.747736 4.18675 0
M  V30 28048 N 2706.4 -1.46311 0.585725 0
M  V30 28049 C 2707.65 -2.01971 0.0723135 0
M  V30 28050 C 2707.97 -1.4593 -1.29342 0
M  V30 28051 O 2707.24 -0.645141 -1.84972 0
M  V30 28052 H 2705.82 -0.746623 0.0237422 0
M  V30 28053 H 2708.48 -1.79379 0.762186 0
M  V30 28054 H 2707.58 -3.121 0.00558253 0
M  V30 28055 N 2707.88 -0.323668 -1.54241 0
M  V30 28056 C 2709.13 0.278875 -2.00571 0
M  V30 28057 C 2709.45 1.52134 -1.21184 0
M  V30 28058 O 2708.71 1.93656 -0.282077 0
M  V30 28059 C 2709.01 0.657969 -3.51291 0
M  V30 28060 C 2708.67 -0.485331 -4.4828 0
M  V30 28061 C 2707.34 -0.799139 -4.74518 0
M  V30 28062 C 2709.69 -1.2533 -5.05907 0
M  V30 28063 C 2707.02 -1.88364 -5.5564 0
M  V30 28064 C 2709.37 -2.3279 -5.88211 0
M  V30 28065 C 2708.03 -2.64752 -6.1275 0
M  V30 28066 H 2707.3 0.102047 -0.73394 0
M  V30 28067 H 2709.95 -0.447468 -1.86199 0
M  V30 28068 H 2708.25 1.46474 -3.6339 0
M  V30 28069 H 2709.95 1.13573 -3.8458 0
M  V30 28070 H 2706.54 -0.230668 -4.27979 0
M  V30 28071 H 2710.73 -1.02412 -4.85619 0
M  V30 28072 H 2705.98 -2.13574 -5.72884 0
M  V30 28073 H 2710.16 -2.92741 -6.31883 0
M  V30 28074 H 2707.78 -3.48915 -6.75398 0
M  V30 28075 N 2709.36 1.57515 -0.0518432 0
M  V30 28076 C 2710.6 1.93003 0.622711 0
M  V30 28077 C 2710.94 0.930529 1.70455 0
M  V30 28078 O 2710.21 -0.0433744 1.94452 0
M  V30 28079 C 2710.49 3.38869 1.21818 0
M  V30 28080 C 2710.35 4.49568 0.144355 0
M  V30 28081 C 2711.67 3.85143 2.12962 0
M  V30 28082 H 2708.79 0.701848 0.224897 0
M  V30 28083 H 2711.43 1.89659 -0.113745 0
M  V30 28084 H 2709.58 3.4185 1.84584 0
M  V30 28085 H 2711.25 4.58716 -0.48761 0
M  V30 28086 H 2709.49 4.30581 -0.527499 0
M  V30 28087 H 2710.16 5.48718 0.601031 0
M  V30 28088 H 2712.64 3.84043 1.60157 0
M  V30 28089 H 2711.52 4.87857 2.51569 0
M  V30 28090 H 2711.78 3.21939 3.02998 0
M  V30 28091 N 2710.84 -0.221546 1.56035 0
M  V30 28092 C 2712.08 -0.94734 1.79313 0
M  V30 28093 C 2712.41 -1.83987 0.621485 0
M  V30 28094 O 2711.69 -1.90767 -0.379253 0
M  V30 28095 C 2711.97 -1.78627 3.12673 0
M  V30 28096 C 2711.83 -0.920235 4.40286 0
M  V30 28097 C 2713.14 -2.76404 3.42475 0
M  V30 28098 H 2710.26 -0.342971 0.652334 0
M  V30 28099 H 2712.91 -0.216211 1.88766 0
M  V30 28100 H 2711.06 -2.40961 3.04746 0
M  V30 28101 H 2712.73 -0.313637 4.60233 0
M  V30 28102 H 2710.97 -0.225658 4.33213 0
M  V30 28103 H 2711.64 -1.54162 5.30036 0
M  V30 28104 H 2714.12 -2.24205 3.5053 0
M  V30 28105 H 2712.99 -3.32205 4.36956 0
M  V30 28106 H 2713.25 -3.54143 2.64642 0
M  V30 28107 N 2712.31 -1.49846 -0.48825 0
M  V30 28108 C 2713.54 -1.63973 -1.26994 0
M  V30 28109 C 2713.96 -0.316026 -1.85426 0
M  V30 28110 O 2713.32 0.718003 -1.66476 0
M  V30 28111 C 2713.37 -2.72053 -2.36684 0
M  V30 28112 O 2712.47 -2.32113 -3.40877 0
M  V30 28113 H 2711.81 -0.548403 -0.374367 0
M  V30 28114 H 2714.34 -1.96116 -0.58307 0
M  V30 28115 H 2714.35 -2.9461 -2.82257 0
M  V30 28116 H 2713.03 -3.68133 -1.93523 0
M  V30 28117 H 2711.61 -2.19936 -3.01135 0
M  V30 28118 N 2713.79 0.740218 -1.39135 0
M  V30 28119 C 2715.04 1.49671 -1.35805 0
M  V30 28120 C 2715.36 1.94943 0.0470554 0
M  V30 28121 O 2714.63 1.68613 0.997318 0
M  V30 28122 H 2713.21 0.555215 -0.499745 0
M  V30 28123 H 2715.87 0.879076 -1.73949 0
M  V30 28124 H 2714.97 2.3813 -2.01744 0
M  V30 28125 N 2715.27 1.24225 0.969846 0
M  V30 28126 C 2716.2 1.05733 2.08189 0
M  V30 28127 C 2717.18 -0.0290466 1.70075 0
M  V30 28128 O 2718.37 0.137617 1.93712 0
M  V30 28129 C 2715.5 0.659055 3.40989 0
M  V30 28130 C 2714.45 1.69396 3.93051 0
M  V30 28131 C 2713.78 1.15081 5.22169 0
M  V30 28132 C 2715.08 3.08943 4.21132 0
M  V30 28133 H 2716.77 1.9875 2.23917 0
M  V30 28134 H 2714.32 0.956986 1.076 0
M  V30 28135 H 2716.27 0.516694 4.1822 0
M  V30 28136 H 2714.99 -0.306802 3.25156 0
M  V30 28137 H 2713.65 1.8245 3.17974 0
M  V30 28138 H 2713.3 0.175627 5.02693 0
M  V30 28139 H 2713 1.84238 5.57969 0
M  V30 28140 H 2714.52 1.02053 6.02011 0
M  V30 28141 H 2715.94 2.9913 4.89075 0
M  V30 28142 H 2714.33 3.75433 4.68156 0
M  V30 28143 H 2715.4 3.57142 3.2799 0
M  V30 28144 N 2716.75 -1.1702 1.05565 0
M  V30 28145 C 2717.99 -1.8765 0.769107 0
M  V30 28146 C 2718.33 -1.81057 -0.702295 0
M  V30 28147 O 2717.6 -1.22115 -1.51388 0
M  V30 28148 C 2717.88 -3.37524 1.25498 0
M  V30 28149 C 2717.74 -3.52848 2.78959 0
M  V30 28150 C 2719.06 -4.31675 0.856994 0
M  V30 28151 H 2716.18 -0.681383 0.280866 0
M  V30 28152 H 2718.82 -1.37591 1.3103 0
M  V30 28153 H 2716.97 -3.80288 0.794583 0
M  V30 28154 H 2718.64 -3.19073 3.33151 0
M  V30 28155 H 2716.88 -2.95001 3.18051 0
M  V30 28156 H 2717.55 -4.5807 3.08019 0
M  V30 28157 H 2720.03 -3.96773 1.25341 0
M  V30 28158 H 2718.91 -5.35067 1.22452 0
M  V30 28159 H 2719.17 -4.41455 -0.238709 0
M  V30 28160 N 2718.23 -0.837197 -1.33524 0
M  V30 28161 C 2719.47 -0.431246 -1.97445 0
M  V30 28162 C 2719.79 1.01252 -1.66652 0
M  V30 28163 O 2719.06 1.70507 -0.964589 0
M  V30 28164 H 2717.64 -0.156476 -0.730427 0
M  V30 28165 H 2720.31 -1.06979 -1.62916 0
M  V30 28166 H 2719.4 -0.561931 -3.07 0
M  V30 28167 N 2719.7 1.45999 -0.593476 0
M  V30 28168 C 2720.67 2.28867 0.123497 0
M  V30 28169 C 2721.67 1.3899 0.808604 0
M  V30 28170 O 2722.86 1.61257 0.658916 0
M  V30 28171 C 2719.99 3.19655 1.18464 0
M  V30 28172 H 2721.18 2.93736 -0.604894 0
M  V30 28173 H 2718.73 1.52287 -0.351902 0
M  V30 28174 H 2719.47 2.59555 1.94426 0
M  V30 28175 H 2719.25 3.85842 0.697762 0
M  V30 28176 H 2720.74 3.82 1.68719 0
M  V30 28177 N 2721.18 0.331843 1.54067 0
M  V30 28178 C 2722.15 -0.517729 2.23276 0
M  V30 28179 C 2723.15 -1.03695 1.22898 0
M  V30 28180 O 2724.34 -0.928058 1.4742 0
M  V30 28181 C 2721.47 -1.71998 2.94329 0
M  V30 28182 H 2722.66 0.0874034 2.99773 0
M  V30 28183 H 2720.21 0.0830317 1.56079 0
M  V30 28184 H 2720.95 -2.36413 2.2199 0
M  V30 28185 H 2720.73 -1.355 3.67943 0
M  V30 28186 H 2722.22 -2.32285 3.47035 0
M  V30 28187 N 2722.66 -1.57485 0.0601958 0
M  V30 28188 C 2723.91 -1.93331 -0.612467 0
M  V30 28189 C 2724.24 -0.939556 -1.69959 0
M  V30 28190 O 2723.51 0.0330616 -1.94472 0
M  V30 28191 C 2723.8 -3.39511 -1.20019 0
M  V30 28192 C 2723.65 -4.49639 -0.120511 0
M  V30 28193 C 2724.97 -3.86267 -2.10916 0
M  V30 28194 H 2722.09 -0.70303 -0.221172 0
M  V30 28195 H 2724.73 -1.89596 0.123801 0
M  V30 28196 H 2722.88 -3.42824 -1.82768 0
M  V30 28197 H 2724.55 -4.58451 0.51193 0
M  V30 28198 H 2722.8 -4.30295 0.550327 0
M  V30 28199 H 2723.47 -5.49029 -0.571922 0
M  V30 28200 H 2725.94 -3.84887 -1.58118 0
M  V30 28201 H 2724.82 -4.89184 -2.48978 0
M  V30 28202 H 2725.08 -3.23541 -3.01286 0
M  V30 28203 N 2724.14 0.213268 -1.5615 0
M  V30 28204 C 2725.39 0.93458 -1.79193 0
M  V30 28205 C 2725.71 1.84538 -0.630145 0
M  V30 28206 O 2724.98 1.92702 0.352536 0
M  V30 28207 H 2723.56 0.348085 -0.660943 0
M  V30 28208 H 2726.22 0.223136 -1.93618 0
M  V30 28209 H 2725.32 1.53649 -2.71658 0
M  V30 28210 N 2725.62 1.50103 0.480296 0
M  V30 28211 C 2726.84 1.64644 1.26123 0
M  V30 28212 C 2727.27 0.325855 1.85256 0
M  V30 28213 O 2726.62 -0.709164 1.66855 0
M  V30 28214 C 2726.67 2.73305 2.35238 0
M  V30 28215 O 2725.78 2.33917 3.39642 0
M  V30 28216 H 2725.12 0.55038 0.371453 0
M  V30 28217 H 2727.65 1.96422 0.572661 0
M  V30 28218 H 2727.66 2.96103 2.8069 0
M  V30 28219 H 2726.33 3.69154 1.91568 0
M  V30 28220 H 2724.91 2.2153 2.99965 0
M  V30 28221 N 2727.09 -0.732829 1.39526 0
M  V30 28222 C 2728.34 -1.4879 1.36178 0
M  V30 28223 C 2728.66 -1.95562 -0.0387851 0
M  V30 28224 O 2729.86 -2.708 -0.194851 0
M  V30 28225 C 2728.32 -2.68866 2.39246 0
M  V30 28226 C 2727.93 -2.29035 3.85028 0
M  V30 28227 C 2729.67 -3.46679 2.44978 0
M  V30 28228 C 2727.58 -3.45847 4.79733 0
M  V30 28229 H 2726.51 -0.558748 0.506277 0
M  V30 28230 H 2729.16 -0.799197 1.65182 0
M  V30 28231 H 2727.54 -3.39822 2.03316 0
M  V30 28232 H 2728.71 -1.65612 4.30011 0
M  V30 28233 H 2727.03 -1.64309 3.82611 0
M  V30 28234 H 2729.63 -4.33569 3.12925 0
M  V30 28235 H 2729.97 -3.89295 1.47497 0
M  V30 28236 H 2730.5 -2.82754 2.79813 0
M  V30 28237 H 2727.24 -3.08279 5.78484 0
M  V30 28238 H 2726.76 -4.08244 4.39428 0
M  V30 28239 H 2728.44 -4.12152 4.98738 0
M  V30 28240 N 2728.57 -1.24737 -0.963244 0
M  V30 28241 C 2729.82 -1.08758 -1.70341 0
M  V30 28242 C 2730.14 0.373585 -1.91388 0
M  V30 28243 O 2729.41 1.26617 -1.49482 0
M  V30 28244 H 2727.99 -0.399467 -0.631217 0
M  V30 28245 H 2730.65 -1.56727 -1.15857 0
M  V30 28246 H 2729.75 -1.58914 -2.68613 0
M  V30 28247 N 2730.05 1.16459 -1.06184 0
M  V30 28248 C 2730.98 2.22982 -0.6929 0
M  V30 28249 C 2731.96 1.67175 0.314092 0
M  V30 28250 O 2733.15 1.93274 0.189465 0
M  V30 28251 C 2730.28 3.47214 -0.077381 0
M  V30 28252 C 2729.23 4.15907 -1.01023 0
M  V30 28253 C 2728.56 5.34077 -0.258067 0
M  V30 28254 C 2729.86 4.67011 -2.33876 0
M  V30 28255 H 2731.55 2.54099 -1.58347 0
M  V30 28256 H 2729.1 1.22136 -0.762812 0
M  V30 28257 H 2731.05 4.2096 0.192586 0
M  V30 28258 H 2729.77 3.15394 0.848199 0
M  V30 28259 H 2728.43 3.44086 -1.26492 0
M  V30 28260 H 2728.08 4.9851 0.670596 0
M  V30 28261 H 2727.78 5.80977 -0.87974 0
M  V30 28262 H 2729.3 6.106 0.00438055 0
M  V30 28263 H 2730.72 5.32343 -2.12799 0
M  V30 28264 H 2729.12 5.24528 -2.91531 0
M  V30 28265 H 2730.19 3.8328 -2.97025 0
M  V30 28266 N 2731.53 0.844266 1.33079 0
M  V30 28267 C 2732.78 0.44171 1.97214 0
M  V30 28268 C 2733.1 -1.00367 1.67187 0
M  V30 28269 O 2732.37 -1.69993 0.973618 0
M  V30 28270 H 2730.95 0.160348 0.729587 0
M  V30 28271 H 2733.61 1.07841 1.62346 0
M  V30 28272 H 2732.71 0.578204 3.06697 0
M  V30 28273 N 2733.01 -1.45682 0.60121 0
M  V30 28274 C 2733.95 -2.30481 -0.121356 0
M  V30 28275 C 2734.92 -1.41725 -0.866207 0
M  V30 28276 O 2736.11 -1.7066 -0.85321 0
M  V30 28277 C 2733.25 -3.26523 -1.11698 0
M  V30 28278 C 2732.36 -4.30381 -0.373665 0
M  V30 28279 C 2731.5 -5.13536 -1.35845 0
M  V30 28280 C 2730.54 -6.09127 -0.602582 0
M  V30 28281 N 2729.67 -6.85085 -1.53633 0
M  V30 28282 H 2734.51 -2.91736 0.607783 0
M  V30 28283 H 2732.05 -1.43763 0.311527 0
M  V30 28284 H 2734.01 -3.80667 -1.70729 0
M  V30 28285 H 2732.64 -2.67036 -1.81361 0
M  V30 28286 H 2731.69 -3.78948 0.332028 0
M  V30 28287 H 2733 -4.9833 0.216388 0
M  V30 28288 H 2732.16 -5.72049 -2.02101 0
M  V30 28289 H 2730.89 -4.45591 -1.98243 0
M  V30 28290 H 2729.9 -5.49751 0.0736448 0
M  V30 28291 H 2731.12 -6.79098 0.016266 0
M  V30 28292 H 2729.07 -6.19833 -2.14808 0
M  V30 28293 H 2728.99 -7.49363 -0.999557 0
M  V30 28294 H 2730.26 -7.48143 -2.18867 0
M  V30 28295 N 2734.48 -0.340009 -1.53889 0
M  V30 28296 C 2735.73 0.258569 -2.00036 0
M  V30 28297 C 2736.05 1.5194 -1.23182 0
M  V30 28298 O 2737.25 2.195 -1.59788 0
M  V30 28299 C 2735.71 0.511296 -3.5625 0
M  V30 28300 C 2735.32 -0.733427 -4.41956 0
M  V30 28301 C 2737.06 1.06893 -4.10821 0
M  V30 28302 C 2734.97 -0.451694 -5.89673 0
M  V30 28303 H 2733.9 0.100396 -0.747286 0
M  V30 28304 H 2736.55 -0.454789 -1.77775 0
M  V30 28305 H 2734.93 1.28526 -3.74562 0
M  V30 28306 H 2736.1 -1.50823 -4.35418 0
M  V30 28307 H 2734.42 -1.21244 -3.98358 0
M  V30 28308 H 2737.02 1.29461 -5.18791 0
M  V30 28309 H 2737.36 2.02337 -3.63821 0
M  V30 28310 H 2737.89 0.355748 -3.96206 0
M  V30 28311 H 2734.63 -1.37576 -6.409 0
M  V30 28312 H 2734.15 0.285088 -5.99122 0
M  V30 28313 H 2735.83 -0.0676204 -6.46965 0
M  V30 28314 N 2735.96 1.57451 -0.0685468 0
M  V30 28315 C 2736.89 2.15565 0.897432 0
M  V30 28316 C 2737.87 1.08184 1.31264 0
M  V30 28317 O 2739.06 1.36204 1.38427 0
M  V30 28318 C 2736.19 2.71466 2.16618 0
M  V30 28319 C 2735.14 3.83986 1.89047 0
M  V30 28320 C 2734.47 4.26476 3.22525 0
M  V30 28321 C 2735.77 5.08368 1.19831 0
M  V30 28322 H 2737.46 2.96533 0.413321 0
M  V30 28323 H 2735.01 1.42641 0.197365 0
M  V30 28324 H 2736.96 3.10766 2.84609 0
M  V30 28325 H 2735.69 1.87715 2.67265 0
M  V30 28326 H 2734.35 3.45185 1.23463 0
M  V30 28327 H 2733.99 3.39651 3.71007 0
M  V30 28328 H 2733.69 5.02323 3.0487 0
M  V30 28329 H 2735.22 4.6839 3.91719 0
M  V30 28330 H 2736.63 5.45004 1.77886 0
M  V30 28331 H 2735.03 5.89471 1.12445 0
M  V30 28332 H 2736.1 4.84577 0.176911 0
M  V30 28333 N 2737.44 -0.204984 1.56261 0
M  V30 28334 C 2738.69 -0.928268 1.80308 0
M  V30 28335 C 2739.02 -1.83317 0.640964 0
M  V30 28336 O 2738.3 -1.91158 -0.358998 0
M  V30 28337 C 2738.58 -1.75301 3.1455 0
M  V30 28338 C 2738.43 -0.873485 4.41237 0
M  V30 28339 C 2739.75 -2.72756 3.45387 0
M  V30 28340 H 2736.87 -0.336033 0.655935 0
M  V30 28341 H 2739.51 -0.196178 1.88985 0
M  V30 28342 H 2737.66 -2.37716 3.07284 0
M  V30 28343 H 2739.33 -0.264806 4.60539 0
M  V30 28344 H 2737.58 -0.179697 4.33428 0
M  V30 28345 H 2738.25 -1.48531 5.31641 0
M  V30 28346 H 2740.72 -2.20475 3.52888 0
M  V30 28347 H 2739.6 -3.27552 4.40455 0
M  V30 28348 H 2739.86 -3.51316 2.68383 0
M  V30 28349 N 2738.92 -1.50356 -0.472329 0
M  V30 28350 C 2740.2 -1.518 -1.23353 0
M  V30 28351 C 2740.58 -0.261967 -2.09468 0
M  V30 28352 O 2739.92 0.754653 -2.15679 0
M  V30 28353 C 2740.13 -2.81305 -2.06563 0
M  V30 28354 C 2741.48 -3.31918 -2.64794 0
M  V30 28355 O 2742.51 -2.82618 -2.16807 0
M  V30 28356 O 2741.37 -4.17853 -3.52224 0
M  V30 28357 H 2738.46 -0.608826 -0.559697 0
M  V30 28358 H 2741.01 -1.62644 -0.484252 0
M  V30 28359 H 2739.78 -3.64197 -1.43096 0
M  V30 28360 H 2739.4 -2.73459 -2.88628 0
M  V30 28361 N 2740.4 0.725419 -1.39912 0
M  V30 28362 C 2741.64 1.48735 -1.37861 0
M  V30 28363 C 2741.98 1.94187 0.0223846 0
M  V30 28364 O 2741.25 1.67468 0.989175 0
M  V30 28365 C 2741.53 2.72033 -2.35945 0
M  V30 28366 C 2741.39 2.32539 -3.85027 0
M  V30 28367 C 2742.71 3.74163 -2.31711 0
M  V30 28368 H 2739.83 0.539519 -0.502084 0
M  V30 28369 H 2742.47 0.828697 -1.70975 0
M  V30 28370 H 2740.62 3.28232 -2.07836 0
M  V30 28371 H 2742.29 1.81898 -4.23923 0
M  V30 28372 H 2740.53 1.64654 -4.01337 0
M  V30 28373 H 2741.2 3.20877 -4.49157 0
M  V30 28374 H 2743.68 3.27571 -2.56586 0
M  V30 28375 H 2742.56 4.58087 -3.02403 0
M  V30 28376 H 2742.82 4.21766 -1.32537 0
M  V30 28377 N 2741.88 1.25246 0.956615 0
M  V30 28378 C 2742.81 1.07935 2.07056 0
M  V30 28379 C 2743.79 -0.0110062 1.70096 0
M  V30 28380 O 2744.97 0.158155 1.93555 0
M  V30 28381 C 2742.1 0.695184 3.40271 0
M  V30 28382 C 2741.06 1.73555 3.91232 0
M  V30 28383 C 2740.38 1.20613 5.20919 0
M  V30 28384 C 2741.68 3.13392 4.17831 0
M  V30 28385 H 2743.38 2.01113 2.21797 0
M  V30 28386 H 2740.92 0.968345 1.06579 0
M  V30 28387 H 2742.87 0.561023 4.17649 0
M  V30 28388 H 2741.6 -0.272298 3.25463 0
M  V30 28389 H 2740.26 1.85812 3.16021 0
M  V30 28390 H 2739.91 0.228934 5.02479 0
M  V30 28391 H 2739.61 1.90146 5.55984 0
M  V30 28392 H 2741.13 1.08432 6.00895 0
M  V30 28393 H 2742.54 3.043 4.85875 0
M  V30 28394 H 2740.94 3.80377 4.64148 0
M  V30 28395 H 2742.01 3.60601 3.24183 0
M  V30 28396 N 2743.35 -1.15894 1.068 0
M  V30 28397 C 2744.32 -2.1865 0.687366 0
M  V30 28398 C 2745.32 -1.58525 -0.269532 0
M  V30 28399 O 2746.51 -1.74125 -0.0512321 0
M  V30 28400 C 2743.64 -3.40898 0.0122241 0
M  V30 28401 H 2744.83 -2.53839 1.59705 0
M  V30 28402 H 2742.38 -1.30259 0.863851 0
M  V30 28403 H 2743.12 -3.11272 -0.90997 0
M  V30 28404 H 2742.9 -3.85794 0.700377 0
M  V30 28405 H 2744.39 -4.16912 -0.23963 0
M  V30 28406 N 2744.83 -0.851312 -1.32629 0
M  V30 28407 C 2746.08 -0.452163 -1.96977 0
M  V30 28408 C 2746.4 0.99479 -1.67717 0
M  V30 28409 O 2745.67 1.69474 -0.98262 0
M  V30 28410 H 2744.25 -0.164214 -0.728727 0
M  V30 28411 H 2746.91 -1.08701 -1.61772 0
M  V30 28412 H 2746.01 -0.594461 -3.06386 0
M  V30 28413 N 2746.31 1.45361 -0.608928 0
M  V30 28414 C 2747.54 2.06302 -0.110888 0
M  V30 28415 C 2747.95 1.454 1.21059 0
M  V30 28416 O 2747.29 0.563007 1.7486 0
M  V30 28417 C 2747.35 3.59356 0.10173 0
M  V30 28418 C 2747.02 4.426 -1.13816 0
M  V30 28419 C 2748.01 4.77493 -2.05662 0
M  V30 28420 C 2745.7 4.83331 -1.36736 0
M  V30 28421 C 2747.69 5.51973 -3.18755 0
M  V30 28422 C 2745.38 5.57565 -2.5013 0
M  V30 28423 C 2746.38 5.91803 -3.40967 0
M  V30 28424 O 2746.07 6.6453 -4.52388 0
M  V30 28425 H 2745.8 0.67271 -0.0666119 0
M  V30 28426 H 2748.35 1.87574 -0.836974 0
M  V30 28427 H 2746.58 3.7649 0.882724 0
M  V30 28428 H 2748.27 4.02135 0.551536 0
M  V30 28429 H 2749.04 4.46583 -1.8918 0
M  V30 28430 H 2744.92 4.56116 -0.669296 0
M  V30 28431 H 2748.46 5.78615 -3.8968 0
M  V30 28432 H 2744.36 5.87889 -2.66564 0
M  V30 28433 H 2745.12 6.82981 -4.51087 0
M  V30 28434 N 2747.79 0.348166 1.53706 0
M  V30 28435 C 2749.04 -0.246443 2.00592 0
M  V30 28436 C 2749.36 -1.50696 1.23756 0
M  V30 28437 O 2748.63 -1.9282 0.345998 0
M  V30 28438 H 2747.21 -0.0940548 0.741055 0
M  V30 28439 H 2749.87 0.470388 1.89138 0
M  V30 28440 H 2748.96 -0.485659 3.08298 0
M  V30 28441 N 2749.27 -1.57412 0.0768958 0
M  V30 28442 C 2750.23 -2.11885 -0.873911 0
M  V30 28443 C 2751.23 -1.04401 -1.22299 0
M  V30 28444 O 2752.42 -1.30367 -1.15543 0
M  V30 28445 C 2749.55 -2.62442 -2.1757 0
M  V30 28446 H 2750.74 -2.97204 -0.401226 0
M  V30 28447 H 2748.3 -1.55352 -0.171877 0
M  V30 28448 H 2749.03 -1.80592 -2.69364 0
M  V30 28449 H 2748.82 -3.41012 -1.93528 0
M  V30 28450 H 2750.31 -3.04644 -2.85625 0
M  V30 28451 N 2750.74 0.196695 -1.56368 0
M  V30 28452 C 2751.99 0.915522 -1.80174 0
M  V30 28453 C 2752.31 1.83859 -0.649682 0
M  V30 28454 O 2751.58 1.93065 0.332077 0
M  V30 28455 H 2750.16 0.341055 -0.664598 0
M  V30 28456 H 2752.83 0.202588 -1.93844 0
M  V30 28457 H 2751.92 1.50759 -2.73273 0
M  V30 28458 N 2752.22 1.50604 0.464349 0
M  V30 28459 C 2753.47 1.61169 1.21274 0
M  V30 28460 C 2753.78 0.320738 1.92952 0
M  V30 28461 O 2754.99 0.305388 2.69777 0
M  V30 28462 C 2753.45 2.84522 2.20398 0
M  V30 28463 C 2753.05 4.20519 1.54492 0
M  V30 28464 C 2754.8 3.04435 2.95837 0
M  V30 28465 C 2752.71 5.35051 2.51941 0
M  V30 28466 H 2751.64 0.600212 0.456356 0
M  V30 28467 H 2754.29 1.77043 0.482509 0
M  V30 28468 H 2752.67 2.62222 2.96742 0
M  V30 28469 H 2753.84 4.53099 0.83891 0
M  V30 28470 H 2752.16 4.06266 0.913081 0
M  V30 28471 H 2754.75 3.87173 3.68783 0
M  V30 28472 H 2755.1 2.16429 3.55618 0
M  V30 28473 H 2755.63 3.26948 2.26606 0
M  V30 28474 H 2752.37 6.25232 1.9689 0
M  V30 28475 H 2751.89 5.06881 3.20674 0
M  V30 28476 H 2753.57 5.65901 3.13633 0
M  V30 28477 N 2753.7 -0.717989 1.40295 0
M  V30 28478 C 2754.93 -1.51217 1.41944 0
M  V30 28479 C 2755.35 -1.88089 0.0202701 0
M  V30 28480 O 2754.71 -1.53102 -0.971051 0
M  V30 28481 C 2754.76 -2.7655 2.31415 0
M  V30 28482 O 2753.86 -3.73159 1.75574 0
M  V30 28483 H 2753.2 -0.456007 0.482652 0
M  V30 28484 H 2755.73 -0.884445 1.84496 0
M  V30 28485 H 2755.74 -3.25104 2.46518 0
M  V30 28486 H 2754.42 -2.49047 3.33089 0
M  V30 28487 H 2752.99 -3.31996 1.69804 0
M  V30 28488 N 2755.18 -1.25752 -0.94996 0
M  V30 28489 C 2756.43 -1.10558 -1.69178 0
M  V30 28490 C 2756.75 0.353265 -1.91773 0
M  V30 28491 O 2756.02 1.25025 -1.50816 0
M  V30 28492 H 2754.6 -0.40614 -0.626945 0
M  V30 28493 H 2757.26 -1.57947 -1.14188 0
M  V30 28494 H 2756.36 -1.61754 -2.66912 0
M  V30 28495 N 2756.66 1.15326 -1.07413 0
M  V30 28496 C 2757.62 2.18283 -0.698952 0
M  V30 28497 C 2758.62 1.58666 0.261121 0
M  V30 28498 O 2759.81 1.74149 0.0419971 0
M  V30 28499 C 2756.94 3.40887 -0.0303026 0
M  V30 28500 H 2758.13 2.52988 -1.61049 0
M  V30 28501 H 2755.69 1.29799 -0.870747 0
M  V30 28502 H 2756.42 3.1175 0.89345 0
M  V30 28503 H 2756.21 3.85417 -0.720827 0
M  V30 28504 H 2757.7 4.17033 0.217517 0
M  V30 28505 N 2758.13 0.858334 1.32176 0
M  V30 28506 C 2759.06 0.321082 2.31282 0
M  V30 28507 C 2760.05 -0.581758 1.59842 0
M  V30 28508 O 2761.23 -0.501229 1.8762 0
M  V30 28509 C 2758.36 -0.48826 3.43851 0
M  V30 28510 C 2757.31 0.320466 4.26799 0
M  V30 28511 C 2756.64 -0.61384 5.31165 0
M  V30 28512 C 2757.94 1.54822 4.98826 0
M  V30 28513 H 2759.63 1.1492 2.76467 0
M  V30 28514 H 2757.18 0.554051 1.32915 0
M  V30 28515 H 2759.13 -0.874553 4.12225 0
M  V30 28516 H 2757.86 -1.34978 2.97403 0
M  V30 28517 H 2756.52 0.68856 3.60076 0
M  V30 28518 H 2756.16 -1.47231 4.8097 0
M  V30 28519 H 2755.86 -0.0767064 5.8755 0
M  V30 28520 H 2757.39 -0.99723 6.02402 0
M  V30 28521 H 2758.8 1.23401 5.59862 0
M  V30 28522 H 2757.2 2.02356 5.64953 0
M  V30 28523 H 2758.27 2.30746 4.26479 0
M  V30 28524 N 2759.61 -1.45036 0.616628 0
M  V30 28525 C 2760.86 -2.02471 0.115537 0
M  V30 28526 C 2761.19 -1.48282 -1.25404 0
M  V30 28527 O 2760.47 -0.661083 -1.82921 0
M  V30 28528 C 2760.75 -3.59996 0.0864221 0
M  V30 28529 C 2760.6 -4.24499 1.4873 0
M  V30 28530 C 2761.92 -4.36036 -0.596685 0
M  V30 28531 H 2759.04 -0.735718 0.0434591 0
M  V30 28532 H 2761.68 -1.72782 0.79033 0
M  V30 28533 H 2759.83 -3.8542 -0.488209 0
M  V30 28534 H 2761.5 -4.1023 2.10971 0
M  V30 28535 H 2759.75 -3.82551 2.04541 0
M  V30 28536 H 2760.42 -5.33447 1.41909 0
M  V30 28537 H 2762.89 -4.15959 -0.108166 0
M  V30 28538 H 2761.77 -5.45761 -0.586193 0
M  V30 28539 H 2762.03 -4.09572 -1.66444 0
M  V30 28540 N 2761.09 -0.356312 -1.53519 0
M  V30 28541 C 2762.05 0.482142 -2.24071 0
M  V30 28542 C 2763.05 1.01727 -1.24532 0
M  V30 28543 O 2764.24 0.904487 -1.48878 0
M  V30 28544 C 2761.38 1.67294 -2.97028 0
M  V30 28545 H 2762.57 -0.135084 -2.99596 0
M  V30 28546 H 2760.12 -0.107852 -1.55927 0
M  V30 28547 H 2760.86 2.32851 -2.25723 0
M  V30 28548 H 2760.64 1.29629 -3.70052 0
M  V30 28549 H 2762.13 2.26734 -3.50687 0
M  V30 28550 N 2762.57 1.57369 -0.0852427 0
M  V30 28551 C 2763.82 1.93993 0.580771 0
M  V30 28552 C 2764.14 0.966281 1.68799 0
M  V30 28553 O 2763.4 -0.0158305 1.95694 0
M  V30 28554 C 2763.7 3.37192 1.18476 0
M  V30 28555 C 2763.36 4.50446 0.202321 0
M  V30 28556 C 2762.03 4.81152 -0.0679164 0
M  V30 28557 C 2764.38 5.19085 -0.469041 0
M  V30 28558 C 2761.71 5.77829 -1.01638 0
M  V30 28559 C 2764.06 6.16779 -1.40591 0
M  V30 28560 C 2762.72 6.45896 -1.68448 0
M  V30 28561 H 2761.99 0.709871 0.212519 0
M  V30 28562 H 2764.64 1.90839 -0.158981 0
M  V30 28563 H 2762.94 3.36876 2.00054 0
M  V30 28564 H 2764.64 3.62825 1.7076 0
M  V30 28565 H 2761.23 4.26506 0.423133 0
M  V30 28566 H 2765.41 4.95546 -0.273394 0
M  V30 28567 H 2760.67 5.98708 -1.23931 0
M  V30 28568 H 2764.84 6.69064 -1.932 0
M  V30 28569 H 2762.47 7.20619 -2.421 0
M  V30 28570 N 2764.05 -0.188399 1.5647 0
M  V30 28571 C 2764.99 -1.23346 1.95076 0
M  V30 28572 C 2765.96 -1.44884 0.812264 0
M  V30 28573 O 2767.15 -1.57907 1.07098 0
M  V30 28574 C 2764.29 -2.57167 2.30128 0
M  V30 28575 C 2763.4 -2.43151 3.57074 0
M  V30 28576 C 2762.54 -3.69722 3.81417 0
M  V30 28577 C 2761.58 -3.50566 5.01766 0
M  V30 28578 N 2760.71 -4.69165 5.2233 0
M  V30 28579 H 2765.55 -0.89723 2.84172 0
M  V30 28580 H 2763.09 -0.431659 1.40624 0
M  V30 28581 H 2765.05 -3.3514 2.48469 0
M  V30 28582 H 2763.68 -2.88819 1.44164 0
M  V30 28583 H 2762.73 -1.56441 3.46743 0
M  V30 28584 H 2764.04 -2.24934 4.45204 0
M  V30 28585 H 2763.2 -4.56134 4.00034 0
M  V30 28586 H 2761.93 -3.909 2.9163 0
M  V30 28587 H 2760.94 -2.6254 4.83066 0
M  V30 28588 H 2762.16 -3.30827 5.93069 0
M  V30 28589 H 2760.11 -4.90595 4.35491 0
M  V30 28590 H 2760.03 -4.53798 6.04651 0
M  V30 28591 H 2761.3 -5.56909 5.4541 0
M  V30 28592 N 2765.53 -1.50848 -0.456355 0
M  V30 28593 C 2766.77 -1.6181 -1.20418 0
M  V30 28594 C 2767.09 -0.330966 -1.9278 0
M  V30 28595 O 2768.29 -0.31969 -2.69611 0
M  V30 28596 C 2766.75 -2.85687 -2.18886 0
M  V30 28597 C 2766.36 -4.21333 -1.52259 0
M  V30 28598 C 2768.1 -3.05999 -2.94219 0
M  V30 28599 C 2766.01 -5.3638 -2.491 0
M  V30 28600 H 2764.94 -0.602624 -0.453167 0
M  V30 28601 H 2767.59 -1.77296 -0.473113 0
M  V30 28602 H 2765.97 -2.63792 -2.95347 0
M  V30 28603 H 2767.15 -4.53538 -0.81487 0
M  V30 28604 H 2765.46 -4.06744 -0.891523 0
M  V30 28605 H 2768.06 -3.89123 -3.66725 0
M  V30 28606 H 2768.4 -2.18312 -3.54465 0
M  V30 28607 H 2768.93 -3.28145 -2.24868 0
M  V30 28608 H 2765.67 -6.26267 -1.93571 0
M  V30 28609 H 2765.19 -5.08574 -3.17982 0
M  V30 28610 H 2766.87 -5.67556 -3.10627 0
M  V30 28611 N 2767 0.710538 -1.40674 0
M  V30 28612 C 2767.94 1.83435 -1.35745 0
M  V30 28613 C 2768.91 1.61007 -0.227025 0
M  V30 28614 O 2770.1 1.83953 -0.41151 0
M  V30 28615 C 2767.23 3.19863 -1.1138 0
M  V30 28616 C 2766.27 3.61109 -2.26941 0
M  V30 28617 S 2767.1 3.67641 -3.89359 0
M  V30 28618 C 2768.26 5.06819 -3.67267 0
M  V30 28619 H 2768.49 1.87337 -2.30851 0
M  V30 28620 H 2766.03 0.877809 -1.27019 0
M  V30 28621 H 2767.98 3.98629 -0.980074 0
M  V30 28622 H 2766.65 3.13588 -0.17919 0
M  V30 28623 H 2765.84 4.6018 -2.05548 0
M  V30 28624 H 2765.44 2.89614 -2.36643 0
M  V30 28625 H 2767.73 5.93885 -3.26047 0
M  V30 28626 H 2768.68 5.33249 -4.65887 0
M  V30 28627 H 2769.08 4.77651 -3.00849 0
M  V30 28628 N 2768.48 1.26254 0.943277 0
M  V30 28629 C 2769.71 1.1455 1.72896 0
M  V30 28630 C 2770.13 -0.29571 1.85761 0
M  V30 28631 O 2769.49 -1.21425 1.34632 0
M  V30 28632 C 2769.54 1.81715 3.11467 0
M  V30 28633 O 2768.64 1.10452 3.97334 0
M  V30 28634 H 2767.98 0.399268 0.530548 0
M  V30 28635 H 2770.51 1.67034 1.18156 0
M  V30 28636 H 2770.52 1.88455 3.61868 0
M  V30 28637 H 2769.2 2.86563 3.0142 0
M  V30 28638 H 2767.77 1.11672 3.55786 0
M  V30 28639 N 2769.96 -1.14755 1.08024 0
M  V30 28640 C 2771.21 -1.85335 0.805946 0
M  V30 28641 C 2771.53 -1.83124 -0.67013 0
M  V30 28642 O 2770.8 -1.27693 -1.48565 0
M  V30 28643 H 2769.38 -0.686218 0.29515 0
M  V30 28644 H 2772.04 -1.39078 1.36541 0
M  V30 28645 H 2771.14 -2.90275 1.1466 0
M  V30 28646 N 2771.44 -0.865331 -1.31719 0
M  V30 28647 C 2772.35 -0.320976 -2.32394 0
M  V30 28648 C 2773.36 0.566717 -1.64512 0
M  V30 28649 O 2774.54 0.46454 -1.95969 0
M  V30 28650 C 2771.6 0.47264 -3.43463 0
M  V30 28651 C 2770.67 -0.44246 -4.27014 0
M  V30 28652 C 2769.9 0.313375 -5.32779 0
M  V30 28653 O 2770.12 1.54205 -5.4916 0
M  V30 28654 O 2769.06 -0.326363 -6.01015 0
M  V30 28655 H 2772.88 -1.15533 -2.80866 0
M  V30 28656 H 2770.47 -0.628569 -1.35534 0
M  V30 28657 H 2772.35 0.922709 -4.11174 0
M  V30 28658 H 2771.02 1.28362 -2.97161 0
M  V30 28659 H 2769.93 -0.94093 -3.62074 0
M  V30 28660 H 2771.26 -1.21891 -4.76868 0
M  V30 28661 N 2772.92 1.44707 -0.624311 0
M  V30 28662 C 2773.86 2.30645 0.084673 0
M  V30 28663 C 2774.83 1.43085 0.84355 0
M  V30 28664 O 2776.02 1.71996 0.825952 0
M  V30 28665 C 2773.16 3.28259 1.06489 0
M  V30 28666 C 2772.27 4.30921 0.305148 0
M  V30 28667 C 2771.41 5.15633 1.27658 0
M  V30 28668 C 2770.44 6.10008 0.505599 0
M  V30 28669 N 2769.58 6.87442 1.42715 0
M  V30 28670 H 2774.42 2.90732 -0.654119 0
M  V30 28671 H 2771.96 1.4325 -0.334359 0
M  V30 28672 H 2773.92 3.83335 1.64651 0
M  V30 28673 H 2772.55 2.69887 1.7709 0
M  V30 28674 H 2771.6 3.78372 -0.392274 0
M  V30 28675 H 2772.91 4.97923 -0.29564 0
M  V30 28676 H 2772.06 5.75192 1.92974 0
M  V30 28677 H 2770.8 4.48688 1.91129 0
M  V30 28678 H 2769.81 5.49564 -0.161096 0
M  V30 28679 H 2771.03 6.78986 -0.124303 0
M  V30 28680 H 2768.98 6.23172 2.0492 0
M  V30 28681 H 2768.9 7.50858 0.880213 0
M  V30 28682 H 2770.16 7.5153 2.06937 0
M  V30 28683 N 2774.39 0.364449 1.53328 0
M  V30 28684 C 2775.8 -0.115006 1.86345 0
M  V30 28685 C 2776.16 -1.48258 1.28507 0
M  V30 28686 O 2775.28 -2.07722 0.606675 0
M  V30 28687 C 2775.88 -0.215462 3.38114 0
M  V30 28688 C 2774.43 -0.639171 3.70933 0
M  V30 28689 C 2773.58 0.214309 2.76471 0
M  V30 28690 H 2776.53 0.583284 1.47592 0
M  V30 28691 H 2776.55 -1.03924 3.66033 0
M  V30 28692 H 2776.07 0.780015 3.80181 0
M  V30 28693 H 2774.17 -1.64292 3.34423 0
M  V30 28694 H 2774.28 -0.414567 4.77303 0
M  V30 28695 H 2772.64 -0.316633 2.52724 0
M  V30 28696 H 2773.43 1.20731 3.21371 0
M  V30 28697 N 2775.87 -1.57322 0.0935872 0
M  V30 28698 C 2777.1 -1.98636 -0.578899 0
M  V30 28699 C 2777.51 -0.972654 -1.61817 0
M  V30 28700 O 2776.87 0.0379317 -1.82461 0
M  V30 28701 C 2776.92 -3.40005 -1.22796 0
M  V30 28702 O 2776.64 -4.37494 -0.230257 0
M  V30 28703 C 2778.14 -3.96314 -1.9862 0
M  V30 28704 H 2775.36 -0.652778 -0.155312 0
M  V30 28705 H 2777.91 -2.03772 0.172429 0
M  V30 28706 H 2776.06 -3.35888 -1.93023 0
M  V30 28707 H 2776.48 -5.19827 -0.698557 0
M  V30 28708 H 2777.95 -4.97387 -2.39396 0
M  V30 28709 H 2778.43 -3.34049 -2.85145 0
M  V30 28710 H 2779.03 -4.03899 -1.33213 0
M  V30 28711 N 2777.35 0.180099 -1.56568 0
M  V30 28712 C 2778.6 0.899465 -1.81762 0
M  V30 28713 C 2778.93 1.82275 -0.670048 0
M  V30 28714 O 2778.2 1.91705 0.328541 0
M  V30 28715 C 2778.49 1.70274 -3.17299 0
M  V30 28716 C 2778.34 0.803177 -4.42571 0
M  V30 28717 C 2779.66 2.67227 -3.49683 0
M  V30 28718 H 2776.78 0.325555 -0.661198 0
M  V30 28719 H 2779.42 0.166087 -1.89273 0
M  V30 28720 H 2777.57 2.32797 -3.11027 0
M  V30 28721 H 2779.24 0.191504 -4.60902 0
M  V30 28722 H 2777.48 0.11072 -4.33659 0
M  V30 28723 H 2778.16 1.40054 -5.33937 0
M  V30 28724 H 2780.63 2.14833 -3.56351 0
M  V30 28725 H 2779.51 3.20503 -4.45611 0
M  V30 28726 H 2779.77 3.47002 -2.73938 0
M  V30 28727 N 2778.83 1.51088 0.448349 0
M  V30 28728 C 2779.74 1.74431 1.56879 0
M  V30 28729 C 2780.75 0.628118 1.62267 0
M  V30 28730 O 2781.93 0.909107 1.79714 0
M  V30 28731 C 2778.99 1.85431 2.92944 0
M  V30 28732 C 2778.06 3.09252 2.97761 0
M  V30 28733 C 2777.29 3.19718 4.27336 0
M  V30 28734 O 2777.51 2.36396 5.19108 0
M  V30 28735 O 2776.45 4.12618 4.38212 0
M  V30 28736 H 2780.27 2.69455 1.40099 0
M  V30 28737 H 2777.86 1.35457 0.630223 0
M  V30 28738 H 2779.74 1.94716 3.73716 0
M  V30 28739 H 2778.41 0.935941 3.09874 0
M  V30 28740 H 2777.32 3.05454 2.15984 0
M  V30 28741 H 2778.65 4.00743 2.85773 0
M  V30 28742 N 2780.31 -0.703068 1.41049 0
M  V30 28743 C 2781.58 -1.45706 1.30496 0
M  V30 28744 C 2781.96 -2.10981 -0.0709521 0
M  V30 28745 O 2781.31 -2.01114 -1.08468 0
M  V30 28746 C 2781.52 -2.4826 2.45291 0
M  V30 28747 C 2782.87 -3.1373 2.86109 0
M  V30 28748 O 2783.89 -2.58583 2.44976 0
M  V30 28749 O 2782.75 -4.13595 3.57214 0
M  V30 28750 H 2779.85 -0.648537 0.513155 0
M  V30 28751 H 2782.39 -0.734181 1.52996 0
M  V30 28752 H 2781.16 -1.98629 3.37138 0
M  V30 28753 H 2780.79 -3.28067 2.24628 0
M  V30 28754 N 2781.78 -1.26752 -0.936569 0
M  V30 28755 C 2783.03 -1.12736 -1.68578 0
M  V30 28756 C 2783.36 0.327711 -1.91415 0
M  V30 28757 O 2782.64 1.2404 -1.49814 0
M  V30 28758 C 2782.92 -1.90193 -3.05776 0
M  V30 28759 C 2782.77 -3.43632 -2.90236 0
M  V30 28760 C 2784.09 -1.69939 -4.05967 0
M  V30 28761 H 2781.21 -0.410919 -0.611812 0
M  V30 28762 H 2783.85 -1.55803 -1.08745 0
M  V30 28763 H 2782 -1.5359 -3.56851 0
M  V30 28764 H 2783.68 -3.90014 -2.46347 0
M  V30 28765 H 2781.92 -3.70423 -2.25763 0
M  V30 28766 H 2782.59 -3.93062 -3.87565 0
M  V30 28767 H 2785.07 -2.01836 -3.6387 0
M  V30 28768 H 2783.94 -2.26543 -4.9997 0
M  V30 28769 H 2784.2 -0.645097 -4.37368 0
M  V30 28770 N 2783.26 1.1418 -1.08631 0
M  V30 28771 C 2784.51 1.85545 -0.818589 0
M  V30 28772 C 2784.84 1.82855 0.654044 0
M  V30 28773 O 2784.12 1.26086 1.48097 0
M  V30 28774 C 2784.4 3.34078 -1.34403 0
M  V30 28775 C 2784.25 3.45328 -2.88217 0
M  V30 28776 C 2785.57 4.29251 -0.971144 0
M  V30 28777 H 2782.69 0.673697 -0.298833 0
M  V30 28778 H 2785.33 1.34068 -1.34632 0
M  V30 28779 H 2783.48 3.78047 -0.89513 0
M  V30 28780 H 2785.15 3.10128 -3.41494 0
M  V30 28781 H 2783.4 2.86465 -3.25761 0
M  V30 28782 H 2784.07 4.49743 -3.20055 0
M  V30 28783 H 2786.54 3.9331 -1.35816 0
M  V30 28784 H 2785.42 5.31632 -1.36595 0
M  V30 28785 H 2785.68 4.41933 0.121581 0
M  V30 28786 N 2784.74 0.872304 1.31258 0
M  V30 28787 C 2785.69 0.318938 2.30403 0
M  V30 28788 C 2786.68 -0.567239 1.59621 0
M  V30 28789 O 2787.89 -0.45308 1.74204 0
M  V30 28790 H 2784.26 0.0844605 0.747242 0
M  V30 28791 H 2786.23 1.16903 2.74547 0
M  V30 28792 C 2784.98 -0.462623 3.44609 0
M  V30 28793 H 2784.31 0.210006 3.99248 0
M  V30 28794 H 2785.75 -0.815113 4.16091 0
M  V30 28795 C 2784.21 -1.6548 2.93459 0
M  V30 28796 O 2784.74 -2.75411 2.92423 0
M  V30 28797 N 2782.94 -1.48771 2.49631 0
M  V30 28798 H 2782.49 -0.593408 2.50672 0
M  V30 28799 H 2782.45 -2.28678 2.15763 0
M  V30 28800 N 2786.22 -1.44374 0.631976 0
M  V30 28801 C 2787.15 -2.33425 -0.0592832 0
M  V30 28802 C 2788.13 -1.48255 -0.833938 0
M  V30 28803 O 2789.31 -1.76972 -0.799651 0
M  V30 28804 C 2786.44 -3.31334 -1.0409 0
M  V30 28805 C 2785.4 -4.26329 -0.377824 0
M  V30 28806 C 2784.72 -5.14113 -1.46941 0
M  V30 28807 C 2786.02 -5.17363 0.716462 0
M  V30 28808 H 2787.72 -2.91474 0.684338 0
M  V30 28809 H 2785.26 -1.40155 0.330542 0
M  V30 28810 H 2787.22 -3.92517 -1.53324 0
M  V30 28811 H 2785.94 -2.71496 -1.81542 0
M  V30 28812 H 2784.6 -3.6648 0.0938698 0
M  V30 28813 H 2784.25 -4.50627 -2.23482 0
M  V30 28814 H 2783.95 -5.78482 -1.03111 0
M  V30 28815 H 2785.47 -5.78168 -1.96353 0
M  V30 28816 H 2786.89 -5.72476 0.307189 0
M  V30 28817 H 2785.28 -5.90339 1.07795 0
M  V30 28818 H 2786.35 -4.58325 1.58324 0
M  V30 28819 N 2787.7 -0.372575 -1.53133 0
M  V30 28820 C 2788.63 0.462372 -2.28876 0
M  V30 28821 C 2789.61 1.07793 -1.31585 0
M  V30 28822 O 2790.79 1.09387 -1.60462 0
M  V30 28823 C 2787.92 1.59863 -3.0832 0
M  V30 28824 C 2786.88 1.10996 -4.13357 0
M  V30 28825 C 2786.2 2.337 -4.80925 0
M  V30 28826 C 2787.5 0.189738 -5.21955 0
M  V30 28827 H 2789.2 -0.169563 -2.98919 0
M  V30 28828 H 2786.74 -0.0829911 -1.43761 0
M  V30 28829 H 2788.7 2.18942 -3.60059 0
M  V30 28830 H 2787.42 2.2579 -2.3598 0
M  V30 28831 H 2786.08 0.541805 -3.62574 0
M  V30 28832 H 2785.73 2.98099 -4.05149 0
M  V30 28833 H 2785.43 2.01672 -5.51908 0
M  V30 28834 H 2786.95 2.93453 -5.35461 0
M  V30 28835 H 2788.36 0.688219 -5.69154 0
M  V30 28836 H 2786.76 -0.0399942 -6.00087 0
M  V30 28837 H 2787.83 -0.766141 -4.78809 0
M  V30 28838 N 2789.17 1.5727 -0.101929 0
M  V30 28839 C 2790.59 1.81772 0.426141 0
M  V30 28840 C 2790.94 1.018 1.67723 0
M  V30 28841 O 2790.06 0.249424 2.14958 0
M  V30 28842 C 2790.66 3.29701 0.779904 0
M  V30 28843 C 2789.22 3.54943 1.25269 0
M  V30 28844 C 2788.36 2.76146 0.252765 0
M  V30 28845 H 2791.31 1.55288 -0.327288 0
M  V30 28846 H 2791.33 3.43398 1.63885 0
M  V30 28847 H 2790.85 3.87879 -0.130846 0
M  V30 28848 H 2788.95 3.02104 2.18092 0
M  V30 28849 H 2789.06 4.63574 1.2098 0
M  V30 28850 H 2787.42 2.43825 0.736319 0
M  V30 28851 H 2788.21 3.37075 -0.650783 0
M  V30 28852 N 2790.65 -0.171793 1.56661 0
M  V30 28853 C 2791.62 -1.19648 1.95492 0
M  V30 28854 C 2792.62 -1.37206 0.838525 0
M  V30 28855 O 2793.81 -1.3462 1.10558 0
M  V30 28856 C 2790.94 -2.56162 2.24931 0
M  V30 28857 H 2792.13 -0.863956 2.87186 0
M  V30 28858 H 2789.68 -0.414223 1.50711 0
M  V30 28859 H 2790.42 -2.94429 1.35949 0
M  V30 28860 H 2790.2 -2.44784 3.06306 0
M  V30 28861 H 2791.69 -3.3001 2.55897 0
M  V30 28862 N 2792.13 -1.51324 -0.44033 0
M  V30 28863 C 2793.38 -1.63078 -1.18695 0
M  V30 28864 C 2793.69 -0.351394 -1.92418 0
M  V30 28865 O 2794.9 -0.348268 -2.69257 0
M  V30 28866 C 2793.35 -2.87992 -2.15844 0
M  V30 28867 C 2792.96 -4.22924 -1.47782 0
M  V30 28868 C 2794.71 -3.09103 -2.90956 0
M  V30 28869 C 2792.61 -5.38991 -2.43397 0
M  V30 28870 H 2791.54 -0.607397 -0.44675 0
M  V30 28871 H 2794.19 -1.77788 -0.454282 0
M  V30 28872 H 2792.58 -2.6691 -2.92532 0
M  V30 28873 H 2793.75 -4.54377 -0.76672 0
M  V30 28874 H 2792.07 -4.07667 -0.848332 0
M  V30 28875 H 2794.66 -3.92991 -3.62577 0
M  V30 28876 H 2795.01 -2.2206 -3.5213 0
M  V30 28877 H 2795.54 -3.30511 -2.21375 0
M  V30 28878 H 2792.28 -6.28285 -1.86918 0
M  V30 28879 H 2791.8 -5.11918 -3.1257 0
M  V30 28880 H 2793.48 -5.70819 -3.0459 0
M  V30 28881 N 2793.61 0.695578 -1.41419 0
M  V30 28882 C 2794.54 1.82195 -1.46039 0
M  V30 28883 C 2795.52 1.67081 -0.319054 0
M  V30 28884 O 2796.7 1.86814 -0.530495 0
M  V30 28885 C 2793.83 3.20331 -1.34184 0
M  V30 28886 C 2792.79 3.50149 -2.46129 0
M  V30 28887 C 2792.11 4.87641 -2.1934 0
M  V30 28888 C 2793.41 3.49126 -3.88469 0
M  V30 28889 H 2795.11 1.78587 -2.40306 0
M  V30 28890 H 2792.65 0.857777 -1.15664 0
M  V30 28891 H 2794.61 3.98841 -1.36028 0
M  V30 28892 H 2793.33 3.24565 -0.364009 0
M  V30 28893 H 2791.99 2.7399 -2.43568 0
M  V30 28894 H 2791.64 4.88501 -1.199 0
M  V30 28895 H 2791.34 5.08557 -2.94353 0
M  V30 28896 H 2792.86 5.68461 -2.22899 0
M  V30 28897 H 2794.28 4.17641 -3.92745 0
M  V30 28898 H 2792.67 3.81574 -4.63164 0
M  V30 28899 H 2793.74 2.48102 -4.16622 0
M  V30 28900 N 2795.09 1.27247 0.929833 0
M  V30 28901 C 2796.31 1.16377 1.71672 0
M  V30 28902 C 2796.74 -0.275991 1.86064 0
M  V30 28903 O 2796.1 -1.1999 1.35912 0
M  V30 28904 C 2796.14 1.85008 3.09523 0
M  V30 28905 O 2795.25 1.1466 3.9614 0
M  V30 28906 H 2794.59 0.404873 0.526283 0
M  V30 28907 H 2797.12 1.68278 1.16378 0
M  V30 28908 H 2797.13 1.92283 3.59849 0
M  V30 28909 H 2795.8 2.89744 2.98364 0
M  V30 28910 H 2794.38 1.15439 3.54582 0
M  V30 28911 N 2796.57 -1.13603 1.09235 0
M  V30 28912 C 2797.98 -1.66388 0.846868 0
M  V30 28913 C 2798.33 -1.85979 -0.624998 0
M  V30 28914 O 2797.45 -1.57716 -1.48171 0
M  V30 28915 C 2798.05 -3.02247 1.53075 0
M  V30 28916 C 2796.61 -3.52032 1.3323 0
M  V30 28917 C 2795.75 -2.2732 1.5881 0
M  V30 28918 H 2798.7 -0.975519 1.25177 0
M  V30 28919 H 2798.73 -3.68119 0.962735 0
M  V30 28920 H 2798.24 -2.87957 2.60197 0
M  V30 28921 H 2796.34 -3.7153 0.282156 0
M  V30 28922 H 2796.45 -4.32276 2.06578 0
M  V30 28923 H 2794.82 -2.33814 1.01011 0
M  V30 28924 H 2795.6 -2.15597 2.67157 0
M  V30 28925 N 2798.04 -0.879253 -1.30793 0
M  V30 28926 C 2799.29 -0.493843 -1.95973 0
M  V30 28927 C 2799.61 0.958991 -1.69789 0
M  V30 28928 O 2798.88 1.67351 -1.01835 0
M  V30 28929 H 2797.46 -0.179635 -0.72508 0
M  V30 28930 H 2800.12 -1.12108 -1.5943 0
M  V30 28931 H 2799.22 -0.659316 -3.05056 0
M  V30 28932 N 2799.52 1.44037 -0.639624 0
M  V30 28933 C 2800.48 2.29144 0.0506226 0
M  V30 28934 C 2801.48 1.41492 0.763976 0
M  V30 28935 O 2802.67 1.63272 0.60728 0
M  V30 28936 C 2799.81 3.23262 1.08235 0
M  V30 28937 H 2801 2.91663 -0.698038 0
M  V30 28938 H 2798.55 1.5109 -0.400173 0
M  V30 28939 H 2799.29 2.65609 1.8607 0
M  V30 28940 H 2799.07 3.87866 0.574656 0
M  V30 28941 H 2800.56 3.87174 1.56481 0
M  V30 28942 N 2801 0.380691 1.52933 0
M  V30 28943 C 2801.93 -0.450227 2.29118 0
M  V30 28944 C 2802.91 -1.07094 1.32155 0
M  V30 28945 O 2804.1 -1.08534 1.6104 0
M  V30 28946 C 2801.23 -1.58226 3.09163 0
M  V30 28947 C 2800.18 -1.08802 4.1394 0
M  V30 28948 C 2799.51 -2.31146 4.82157 0
M  V30 28949 C 2800.81 -0.162055 5.22049 0
M  V30 28950 H 2802.5 0.185413 2.98825 0
M  V30 28951 H 2800.05 0.0906139 1.43715 0
M  V30 28952 H 2802 -2.1703 3.61215 0
M  V30 28953 H 2800.72 -2.24535 2.37174 0
M  V30 28954 H 2799.38 -0.52257 3.62856 0
M  V30 28955 H 2799.03 -2.95946 4.06724 0
M  V30 28956 H 2798.73 -1.98742 5.5297 0
M  V30 28957 H 2800.25 -2.90609 5.37009 0
M  V30 28958 H 2801.67 -0.658026 5.69511 0
M  V30 28959 H 2800.06 0.0718177 6.00057 0
M  V30 28960 H 2801.13 0.791522 4.78396 0
M  V30 28961 N 2802.48 -1.57214 0.110268 0
M  V30 28962 C 2803.72 -1.95181 -0.55065 0
M  V30 28963 C 2804.06 -0.993151 -1.66884 0
M  V30 28964 O 2803.33 -0.0288249 -1.94479 0
M  V30 28965 C 2803.61 -3.43157 -1.09157 0
M  V30 28966 C 2803.47 -4.49794 0.0225989 0
M  V30 28967 C 2804.79 -3.92782 -1.98521 0
M  V30 28968 H 2801.91 -0.709711 -0.198694 0
M  V30 28969 H 2804.55 -1.89106 0.184057 0
M  V30 28970 H 2802.7 -3.48465 -1.71769 0
M  V30 28971 H 2804.37 -4.5659 0.657524 0
M  V30 28972 H 2802.61 -4.28326 0.686943 0
M  V30 28973 H 2803.28 -5.50571 -0.396963 0
M  V30 28974 H 2805.76 -3.89723 -1.45793 0
M  V30 28975 H 2804.64 -4.96857 -2.33289 0
M  V30 28976 H 2804.9 -3.32963 -2.90841 0
M  V30 28977 N 2803.96 0.163482 -1.5675 0
M  V30 28978 C 2805.2 0.880136 -1.82706 0
M  V30 28979 C 2805.53 1.81554 -0.689342 0
M  V30 28980 O 2804.81 1.92043 0.30819 0
M  V30 28981 C 2805.09 1.66899 -3.19087 0
M  V30 28982 C 2804.95 0.756191 -4.43398 0
M  V30 28983 C 2806.26 2.63503 -3.52497 0
M  V30 28984 H 2803.38 0.318524 -0.664614 0
M  V30 28985 H 2806.03 0.146003 -1.89438 0
M  V30 28986 H 2804.18 2.29485 -3.13479 0
M  V30 28987 H 2805.85 0.142609 -4.6108 0
M  V30 28988 H 2804.09 0.0647181 -4.33752 0
M  V30 28989 H 2804.76 1.34383 -5.35392 0
M  V30 28990 H 2807.24 2.11041 -3.5861 0
M  V30 28991 H 2806.11 3.15759 -4.48985 0
M  V30 28992 H 2806.37 3.44077 -2.77603 0
M  V30 28993 N 2805.43 1.51555 0.432299 0
M  V30 28994 C 2806.68 1.64148 1.17898 0
M  V30 28995 C 2807 0.362401 1.91603 0
M  V30 28996 O 2806.27 -0.621936 1.85765 0
M  V30 28997 H 2804.85 0.604974 0.438196 0
M  V30 28998 H 2807.51 1.88506 0.495139 0
M  V30 28999 H 2806.61 2.47156 1.90579 0
M  V30 29000 N 2806.91 -0.688069 1.41786 0
M  V30 29001 C 2808.16 -1.45028 1.41756 0
M  V30 29002 C 2808.49 -1.94178 0.0291086 0
M  V30 29003 O 2807.77 -1.70032 -0.944426 0
M  V30 29004 C 2808.05 -2.65682 2.43074 0
M  V30 29005 C 2807.9 -2.22249 3.91057 0
M  V30 29006 C 2809.22 -3.67888 2.41549 0
M  V30 29007 H 2806.34 -0.526018 0.516212 0
M  V30 29008 H 2808.98 -0.783075 1.73112 0
M  V30 29009 H 2807.13 -3.22606 2.16466 0
M  V30 29010 H 2808.8 -1.70594 4.28597 0
M  V30 29011 H 2807.05 -1.53955 4.05562 0
M  V30 29012 H 2807.72 -3.08855 4.57507 0
M  V30 29013 H 2810.19 -3.20653 2.65181 0
M  V30 29014 H 2809.07 -4.49908 3.14442 0
M  V30 29015 H 2809.33 -4.18103 1.43673 0
M  V30 29016 N 2808.39 -1.27739 -0.923072 0
M  V30 29017 C 2809.64 -1.13729 -1.66579 0
M  V30 29018 C 2809.95 0.315399 -1.9304 0
M  V30 29019 O 2811.16 0.576464 -2.6531 0
M  V30 29020 C 2809.61 -1.9875 -3.00044 0
M  V30 29021 C 2809.22 -3.48704 -2.81264 0
M  V30 29022 C 2810.97 -1.93402 -3.77883 0
M  V30 29023 C 2808.87 -4.25908 -4.10313 0
M  V30 29024 H 2807.8 -0.422028 -0.624827 0
M  V30 29025 H 2810.45 -1.52196 -1.02511 0
M  V30 29026 H 2808.84 -1.53132 -3.65194 0
M  V30 29027 H 2810.01 -4.02217 -2.24852 0
M  V30 29028 H 2808.32 -3.5548 -2.16848 0
M  V30 29029 H 2810.92 -2.48357 -4.73522 0
M  V30 29030 H 2811.26 -0.908676 -4.06262 0
M  V30 29031 H 2811.8 -2.3694 -3.19537 0
M  V30 29032 H 2808.54 -5.28985 -3.87111 0
M  V30 29033 H 2808.06 -3.77171 -4.66371 0
M  V30 29034 H 2809.74 -4.3533 -4.78641 0
M  V30 29035 N 2809.87 1.13022 -1.09836 0
M  V30 29036 C 2811.11 1.86039 -0.846696 0
M  V30 29037 C 2811.47 1.81832 0.616525 0
M  V30 29038 O 2812.67 2.50131 0.984285 0
M  V30 29039 C 2810.94 3.30002 -1.37234 0
M  V30 29040 S 2812.5 4.20465 -1.25519 0
M  V30 29041 H 2809.32 0.641725 -0.306121 0
M  V30 29042 H 2811.92 1.36192 -1.40257 0
M  V30 29043 H 2810.63 3.3062 -2.43143 0
M  V30 29044 H 2810.16 3.84912 -0.812778 0
M  V30 29045 H 2812.17 4.9576 -0.208849 0
M  V30 29046 N 2811.35 0.886177 1.30325 0
M  V30 29047 C 2812.31 0.358726 2.26375 0
M  V30 29048 C 2813.31 -0.499471 1.52846 0
M  V30 29049 O 2814.5 -0.306455 1.71483 0
M  V30 29050 C 2811.63 -0.488666 3.37379 0
M  V30 29051 H 2812.82 1.20686 2.74545 0
M  V30 29052 H 2810.38 0.663138 1.41535 0
M  V30 29053 H 2811.11 -1.35734 2.94528 0
M  V30 29054 H 2810.9 0.126072 3.91897 0
M  V30 29055 H 2812.39 -0.849448 4.08869 0
M  V30 29056 N 2812.82 -1.43695 0.647253 0
M  V30 29057 C 2813.79 -2.29168 -0.0384698 0
M  V30 29058 C 2814.79 -1.41895 -0.756462 0
M  V30 29059 O 2815.98 -1.63592 -0.598613 0
M  V30 29060 C 2813.11 -3.23831 -1.06519 0
M  V30 29061 H 2814.3 -2.91289 0.713496 0
M  V30 29062 H 2811.86 -1.50876 0.40818 0
M  V30 29063 H 2812.59 -2.66593 -1.84659 0
M  V30 29064 H 2812.38 -3.88165 -0.554079 0
M  V30 29065 H 2813.87 -3.87998 -1.54425 0
M  V30 29066 N 2814.3 -0.388796 -1.52729 0
M  V30 29067 C 2815.55 0.194798 -2.00757 0
M  V30 29068 C 2815.86 1.47944 -1.27953 0
M  V30 29069 O 2817.07 2.14305 -1.6669 0
M  V30 29070 C 2815.53 0.397699 -3.57696 0
M  V30 29071 C 2815.13 -0.87366 -4.39399 0
M  V30 29072 C 2816.88 0.937686 -4.14014 0
M  V30 29073 C 2814.79 -0.639065 -5.87937 0
M  V30 29074 H 2813.72 0.0765713 -0.750102 0
M  V30 29075 H 2816.37 -0.511117 -1.76238 0
M  V30 29076 H 2814.75 1.16545 -3.78462 0
M  V30 29077 H 2815.92 -1.64599 -4.304 0
M  V30 29078 H 2814.24 -1.33856 -3.94299 0
M  V30 29079 H 2816.83 1.1289 -5.22647 0
M  V30 29080 H 2817.18 1.9066 -3.70074 0
M  V30 29081 H 2817.71 0.229518 -3.97137 0
M  V30 29082 H 2814.45 -1.57896 -6.36199 0
M  V30 29083 H 2813.97 0.0943376 -5.99726 0
M  V30 29084 H 2815.65 -0.273413 -6.46422 0
M  V30 29085 N 2815.78 1.57153 -0.118604 0
M  V30 29086 C 2816.71 2.18311 0.828398 0
M  V30 29087 C 2817.69 1.12305 1.27756 0
M  V30 29088 O 2818.88 1.40539 1.34024 0
M  V30 29089 C 2816.01 2.78221 2.07872 0
M  V30 29090 C 2814.96 3.89806 1.76735 0
M  V30 29091 C 2814.29 4.36521 3.08793 0
M  V30 29092 C 2815.59 5.11923 1.03597 0
M  V30 29093 H 2817.28 2.97698 0.318772 0
M  V30 29094 H 2814.83 1.43197 0.151885 0
M  V30 29095 H 2816.78 3.19664 2.74578 0
M  V30 29096 H 2815.5 1.96123 2.61158 0
M  V30 29097 H 2814.16 3.48938 1.12418 0
M  V30 29098 H 2813.81 3.51282 3.60013 0
M  V30 29099 H 2813.51 5.11768 2.88734 0
M  V30 29100 H 2815.03 4.80615 3.76619 0
M  V30 29101 H 2816.45 5.50388 1.60457 0
M  V30 29102 H 2814.85 5.9275 0.93635 0
M  V30 29103 H 2815.92 4.84895 0.0226569 0
M  V30 29104 N 2817.26 -0.155167 1.56834 0
M  V30 29105 C 2818.67 -0.507523 1.51315 0
M  V30 29106 C 2818.87 -1.83808 0.825647 0
M  V30 29107 O 2817.93 -2.49427 0.392754 0
M  V30 29108 C 2819.24 -0.525368 2.96075 0
M  V30 29109 C 2820.79 -0.611451 3.0697 0
M  V30 29110 C 2821.27 -0.660036 4.53219 0
M  V30 29111 N 2822.76 -0.722484 4.57531 0
M  V30 29112 C 2823.49 -0.780923 5.68057 0
M  V30 29113 N 2822.99 -0.799206 6.88175 0
M  V30 29114 N 2824.78 -0.82118 5.56069 0
M  V30 29115 H 2816.93 0.717098 1.99929 0
M  V30 29116 H 2819.2 0.260512 0.911503 0
M  V30 29117 H 2818.9 0.383936 3.49598 0
M  V30 29118 H 2818.78 -1.36618 3.5159 0
M  V30 29119 H 2821.16 -1.51118 2.53471 0
M  V30 29120 H 2821.24 0.256351 2.54512 0
M  V30 29121 H 2820.89 0.235499 5.07354 0
M  V30 29122 H 2820.82 -1.54421 5.0345 0
M  V30 29123 H 2823.31 -0.715984 3.71055 0
M  V30 29124 H 2823.62 -0.845418 7.68162 0
M  V30 29125 H 2821.97 -0.767216 6.90752 0
M  V30 29126 H 2825.16 -0.80401 4.61143 0
M  V30 29127 H 2825.33 -0.863259 6.42224 0
M  V30 29128 N 2818.74 -1.51782 -0.424256 0
M  V30 29129 C 2820.15 -1.40248 -0.761743 0
M  V30 29130 C 2820.35 -0.495075 -1.95323 0
M  V30 29131 O 2819.41 0.0448505 -2.5246 0
M  V30 29132 C 2820.72 -2.82515 -1.02985 0
M  V30 29133 C 2822.27 -2.91755 -1.13349 0
M  V30 29134 C 2822.74 -4.34957 -1.43445 0
M  V30 29135 N 2824.24 -4.38123 -1.50342 0
M  V30 29136 C 2824.97 -5.4597 -1.75226 0
M  V30 29137 N 2824.47 -6.63958 -1.97815 0
M  V30 29138 N 2826.26 -5.33466 -1.77117 0
M  V30 29139 H 2818.41 -2.09322 0.360265 0
M  V30 29140 H 2820.67 -0.942834 0.0988294 0
M  V30 29141 H 2820.38 -3.50967 -0.226899 0
M  V30 29142 H 2820.25 -3.2264 -1.95405 0
M  V30 29143 H 2822.64 -2.23492 -1.92705 0
M  V30 29144 H 2822.72 -2.55108 -0.187996 0
M  V30 29145 H 2822.37 -5.03773 -0.646121 0
M  V30 29146 H 2822.3 -4.69127 -2.39222 0
M  V30 29147 H 2824.79 -3.53065 -1.34736 0
M  V30 29148 H 2825.1 -7.41939 -2.1621 0
M  V30 29149 H 2823.44 -6.67051 -1.95111 0
M  V30 29150 H 2826.64 -4.4027 -1.58997 0
M  V30 29151 H 2826.81 -6.17593 -1.96172 0
M  V30 29152 N 2820.21 0.68054 -1.42149 0
M  V30 29153 C 2821.16 1.7867 -1.41637 0
M  V30 29154 C 2822.15 1.58292 -0.288522 0
M  V30 29155 O 2823.34 1.68868 -0.530325 0
M  V30 29156 C 2820.47 3.1709 -1.31564 0
M  V30 29157 C 2819.56 3.43111 -2.49271 0
M  V30 29158 N 2819.95 3.39747 -3.74708 0
M  V30 29159 C 2818.24 3.73723 -2.43408 0
M  V30 29160 C 2818.95 3.65092 -4.52861 0
M  V30 29161 N 2817.92 3.85575 -3.83188 0
M  V30 29162 H 2821.72 1.74454 -2.36523 0
M  V30 29163 H 2819.24 0.881147 -1.36417 0
M  V30 29164 H 2821.23 3.96349 -1.29279 0
M  V30 29165 H 2819.89 3.22507 -0.376752 0
M  V30 29166 H 2820.91 3.1978 -4.07383 0
M  V30 29167 H 2817.58 3.8642 -1.58069 0
M  V30 29168 H 2818.97 3.685 -5.61834 0
M  V30 29169 N 2821.69 1.28226 0.916285 0
M  V30 29170 C 2822.94 1.15403 1.66763 0
M  V30 29171 C 2823.27 -0.297217 1.91912 0
M  V30 29172 O 2822.55 -1.21641 1.51768 0
M  V30 29173 C 2822.83 1.95033 3.02711 0
M  V30 29174 C 2822.68 3.48206 2.84732 0
M  V30 29175 C 2824 1.76376 4.03212 0
M  V30 29176 H 2821.12 0.4206 0.605198 0
M  V30 29177 H 2823.76 1.57513 1.06252 0
M  V30 29178 H 2821.91 1.59248 3.54362 0
M  V30 29179 H 2823.58 3.93884 2.40111 0
M  V30 29180 H 2821.83 3.73968 2.19842 0
M  V30 29181 H 2822.5 3.99178 3.81263 0
M  V30 29182 H 2824.97 2.076 3.60613 0
M  V30 29183 H 2823.85 2.34468 4.96302 0
M  V30 29184 H 2824.11 0.714597 4.36287 0
M  V30 29185 N 2823.17 -1.12438 1.10433 0
M  V30 29186 C 2824.42 -1.83583 0.845077 0
M  V30 29187 C 2824.74 -1.84504 -0.631136 0
M  V30 29188 O 2824.01 -1.30815 -1.45823 0
M  V30 29189 H 2822.59 -0.679803 0.30964 0
M  V30 29190 H 2825.25 -1.3615 1.3946 0
M  V30 29191 H 2824.35 -2.87778 1.20791 0
M  V30 29192 N 2824.65 -0.893076 -1.29853 0
M  V30 29193 C 2825.58 -0.32315 -2.26911 0
M  V30 29194 C 2826.59 0.526831 -1.5404 0
M  V30 29195 O 2827.78 0.345065 -1.75133 0
M  V30 29196 C 2824.88 0.55845 -3.34267 0
M  V30 29197 C 2824.06 -0.264299 -4.36601 0
M  V30 29198 C 2823.12 0.549079 -5.23327 0
M  V30 29199 O 2822.14 -0.0310883 -5.69192 0
M  V30 29200 N 2823.34 1.85655 -5.50011 0
M  V30 29201 H 2826.11 -1.15731 -2.76453 0
M  V30 29202 H 2823.67 -0.756884 -1.43118 0
M  V30 29203 H 2825.66 1.10883 -3.89213 0
M  V30 29204 H 2824.23 1.29329 -2.84592 0
M  V30 29205 H 2823.45 -0.996113 -3.81407 0
M  V30 29206 H 2824.74 -0.827995 -5.02018 0
M  V30 29207 H 2824.14 2.35072 -5.14546 0
M  V30 29208 H 2822.69 2.3542 -6.078 0
M  V30 29209 N 2826.13 1.4335 -0.654865 0
M  V30 29210 C 2827.38 2.01396 -0.168594 0
M  V30 29211 C 2827.7 1.51935 1.22232 0
M  V30 29212 O 2826.97 0.732659 1.81684 0
M  V30 29213 H 2825.55 0.74464 -0.0593375 0
M  V30 29214 H 2828.21 1.75538 -0.846902 0
M  V30 29215 H 2827.3 3.11717 -0.154483 0
M  V30 29216 N 2827.61 0.39689 1.52521 0
M  V30 29217 C 2828.52 -0.44174 2.30404 0
M  V30 29218 C 2829.53 -1.06466 1.37626 0
M  V30 29219 O 2830.71 -1.06883 1.70699 0
M  V30 29220 C 2827.77 -1.5498 3.10132 0
M  V30 29221 C 2826.83 -0.951206 4.18629 0
M  V30 29222 C 2826.07 -2.00646 4.94547 0
M  V30 29223 O 2826.29 -3.22272 4.70634 0
M  V30 29224 O 2825.22 -1.61952 5.79703 0
M  V30 29225 H 2829.05 0.192946 3.03086 0
M  V30 29226 H 2826.63 0.160406 1.48536 0
M  V30 29227 H 2828.52 -2.19335 3.5982 0
M  V30 29228 H 2827.19 -2.16931 2.40255 0
M  V30 29229 H 2826.1 -0.270707 3.73119 0
M  V30 29230 H 2827.43 -0.375801 4.90763 0
M  V30 29231 N 2829.08 -1.57088 0.126936 0
M  V30 29232 C 2830.33 -1.95079 -0.528088 0
M  V30 29233 C 2830.65 -1.01163 -1.66707 0
M  V30 29234 O 2829.92 -0.0693872 -1.95777 0
M  V30 29235 H 2828.5 -0.720261 -0.198074 0
M  V30 29236 H 2831.16 -1.93894 0.197738 0
M  V30 29237 H 2830.26 -2.98311 -0.917455 0
M  V30 29238 N 2830.56 0.146848 -1.56914 0
M  V30 29239 C 2831.52 1.16523 -1.9737 0
M  V30 29240 C 2832.52 1.35854 -0.860247 0
M  V30 29241 O 2833.71 1.32844 -1.12686 0
M  V30 29242 C 2830.85 2.52551 -2.28978 0
M  V30 29243 H 2832.04 0.818158 -2.88524 0
M  V30 29244 H 2829.59 0.390194 -1.51351 0
M  V30 29245 H 2830.33 2.92229 -1.40616 0
M  V30 29246 H 2830.11 2.3988 -3.10161 0
M  V30 29247 H 2831.6 3.25897 -2.61115 0
M  V30 29248 N 2832.04 1.52005 0.4162 0
M  V30 29249 C 2833.29 1.65962 1.16552 0
M  V30 29250 C 2833.62 0.38494 1.90347 0
M  V30 29251 O 2832.89 -0.616372 1.84475 0
M  V30 29252 C 2833.18 2.877 2.16565 0
M  V30 29253 C 2833.03 4.252 1.46714 0
M  V30 29254 C 2834.35 3.04957 3.17316 0
M  V30 29255 H 2831.47 0.603972 0.422358 0
M  V30 29256 H 2834.11 1.84543 0.452109 0
M  V30 29257 H 2832.26 2.71989 2.77406 0
M  V30 29258 H 2833.93 4.52624 0.89048 0
M  V30 29259 H 2832.17 4.26926 0.769188 0
M  V30 29260 H 2832.85 5.06414 2.19656 0
M  V30 29261 H 2835.32 3.19519 2.66546 0
M  V30 29262 H 2834.2 3.91663 3.84567 0
M  V30 29263 H 2834.46 2.17957 3.84639 0
M  V30 29264 N 2833.52 -0.672992 1.42508 0
M  V30 29265 C 2834.45 -1.79852 1.42078 0
M  V30 29266 C 2835.46 -1.59632 0.319597 0
M  V30 29267 O 2836.65 -1.68718 0.582799 0
M  V30 29268 C 2833.75 -3.16984 1.19892 0
M  V30 29269 C 2832.92 -3.64037 2.42478 0
M  V30 29270 C 2831.98 -4.79909 2.1581 0
M  V30 29271 O 2831.01 -4.90361 2.89024 0
M  V30 29272 N 2832.21 -5.68744 1.16235 0
M  V30 29273 H 2834.98 -1.80706 2.39093 0
M  V30 29274 H 2832.54 -0.856147 1.37411 0
M  V30 29275 H 2834.53 -3.92159 0.99966 0
M  V30 29276 H 2833.1 -3.1102 0.313933 0
M  V30 29277 H 2832.32 -2.79521 2.77959 0
M  V30 29278 H 2833.61 -3.92217 3.24104 0
M  V30 29279 H 2833.01 -5.62953 0.556855 0
M  V30 29280 H 2831.56 -6.43723 1.02296 0
M  V30 29281 N 2835 -1.2871 -0.909472 0
M  V30 29282 C 2836.24 -1.17296 -1.66173 0
M  V30 29283 C 2836.6 0.274857 -1.90427 0
M  V30 29284 O 2835.89 1.19633 -1.49662 0
M  V30 29285 C 2836.08 -1.90951 -3.02114 0
M  V30 29286 C 2835.91 -3.42746 -2.91128 0
M  V30 29287 C 2834.68 -4.1209 -2.92421 0
M  V30 29288 C 2836.88 -4.38415 -2.68881 0
M  V30 29289 N 2834.86 -5.5032 -2.72069 0
M  V30 29290 C 2836.23 -5.64038 -2.57413 0
M  V30 29291 C 2838.29 -4.28291 -2.53911 0
M  V30 29292 C 2836.99 -6.80688 -2.32502 0
M  V30 29293 C 2839.02 -5.44682 -2.3038 0
M  V30 29294 C 2838.38 -6.69272 -2.1967 0
M  V30 29295 H 2834.48 -0.484171 -0.614087 0
M  V30 29296 H 2837.06 -1.62416 -1.07374 0
M  V30 29297 H 2835.23 -1.48259 -3.5899 0
M  V30 29298 H 2836.97 -1.71884 -3.66385 0
M  V30 29299 H 2833.72 -3.63707 -3.03339 0
M  V30 29300 H 2834.14 -6.22992 -2.64972 0
M  V30 29301 H 2838.79 -3.32671 -2.6094 0
M  V30 29302 H 2836.5 -7.76373 -2.24211 0
M  V30 29303 H 2840.09 -5.38742 -2.19656 0
M  V30 29304 H 2838.97 -7.57814 -2.01712 0
M  V30 29305 N 2836.47 1.1185 -1.11028 0
M  V30 29306 C 2837.41 2.16922 -0.708539 0
M  V30 29307 C 2838.38 1.59935 0.293168 0
M  V30 29308 O 2839.57 1.87534 0.190608 0
M  V30 29309 C 2836.7 3.38668 -0.04643 0
M  V30 29310 C 2835.74 4.14305 -1.01259 0
M  V30 29311 S 2836.57 4.71805 -2.53299 0
M  V30 29312 C 2837.73 5.96879 -1.88377 0
M  V30 29313 H 2837.96 2.50664 -1.59859 0
M  V30 29314 H 2835.5 1.23408 -0.927891 0
M  V30 29315 H 2837.45 4.09178 0.329242 0
M  V30 29316 H 2836.12 3.03194 0.820508 0
M  V30 29317 H 2835.31 5.01547 -0.496684 0
M  V30 29318 H 2834.91 3.49534 -1.33048 0
M  V30 29319 H 2837.2 6.66468 -1.21765 0
M  V30 29320 H 2838.15 6.53107 -2.73599 0
M  V30 29321 H 2838.55 5.48225 -1.34572 0
M  V30 29322 N 2837.95 0.89995 1.29378 0
M  V30 29323 C 2838.9 0.367738 2.29675 0
M  V30 29324 C 2839.89 -0.533254 1.60788 0
M  V30 29325 O 2841.1 -0.416027 1.75126 0
M  V30 29326 H 2837.47 0.100292 0.745282 0
M  V30 29327 H 2839.45 1.22701 2.72006 0
M  V30 29328 C 2838.19 -0.389422 3.45512 0
M  V30 29329 H 2837.52 0.294645 3.98713 0
M  V30 29330 H 2838.96 -0.726671 4.17727 0
M  V30 29331 C 2837.42 -1.59218 2.96903 0
M  V30 29332 O 2837.95 -2.69147 2.98199 0
M  V30 29333 N 2836.15 -1.43443 2.5273 0
M  V30 29334 H 2835.7 -0.540104 2.51874 0
M  V30 29335 H 2835.66 -2.2405 2.20565 0
M  V30 29336 N 2839.43 -1.43001 0.662458 0
M  V30 29337 C 2840.85 -1.56133 0.330862 0
M  V30 29338 C 2841.05 -1.64443 -1.16451 0
M  V30 29339 O 2840.1 -1.60456 -1.94962 0
M  V30 29340 C 2841.42 -2.81759 1.05034 0
M  V30 29341 C 2842.96 -2.95516 1.03148 0
M  V30 29342 C 2843.44 -4.23987 1.73203 0
M  V30 29343 N 2844.93 -4.30872 1.70011 0
M  V30 29344 C 2845.66 -5.29065 2.21084 0
M  V30 29345 N 2845.16 -6.33483 2.80484 0
M  V30 29346 N 2846.95 -5.2078 2.1153 0
M  V30 29347 H 2839.1 -1.35851 1.63274 0
M  V30 29348 H 2841.37 -0.65308 0.687161 0
M  V30 29349 H 2841.07 -2.81714 2.10547 0
M  V30 29350 H 2840.95 -3.72272 0.60773 0
M  V30 29351 H 2843.33 -2.95096 -0.015282 0
M  V30 29352 H 2843.42 -2.06267 1.51286 0
M  V30 29353 H 2843.06 -4.25167 2.7784 0
M  V30 29354 H 2842.99 -5.12148 1.22524 0
M  V30 29355 H 2845.48 -3.56037 1.26673 0
M  V30 29356 H 2845.79 -7.04743 3.17107 0
M  V30 29357 H 2844.14 -6.3408 2.84549 0
M  V30 29358 H 2847.33 -4.38123 1.64821 0
M  V30 29359 H 2847.5 -5.97145 2.51639 0
M  V30 29360 N 2840.91 -0.404973 -1.52308 0
M  V30 29361 C 2841.84 0.41372 -2.29806 0
M  V30 29362 C 2842.82 1.04978 -1.33842 0
M  V30 29363 O 2844 1.05958 -1.62747 0
M  V30 29364 C 2841.13 1.53287 -3.11641 0
M  V30 29365 C 2840.09 1.02203 -4.15618 0
M  V30 29366 C 2839.41 2.23446 -4.85774 0
M  V30 29367 C 2840.71 0.0789807 -5.2224 0
M  V30 29368 H 2842.41 -0.23293 -2.98493 0
M  V30 29369 H 2839.95 -0.113466 -1.43552 0
M  V30 29370 H 2841.91 2.11256 -3.64622 0
M  V30 29371 H 2840.63 2.20734 -2.40716 0
M  V30 29372 H 2839.29 0.464776 -3.63642 0
M  V30 29373 H 2838.94 2.89438 -4.11381 0
M  V30 29374 H 2838.64 1.8992 -5.56061 0
M  V30 29375 H 2840.16 2.82029 -5.41565 0
M  V30 29376 H 2841.58 0.567338 -5.70486 0
M  V30 29377 H 2839.97 -0.167272 -5.99867 0
M  V30 29378 H 2841.04 -0.867531 -4.77076 0
M  V30 29379 N 2842.39 1.57018 -0.135265 0
M  V30 29380 C 2843.64 1.94917 0.51866 0
M  V30 29381 C 2843.95 1.02193 1.66781 0
M  V30 29382 O 2845.15 1.29623 2.38558 0
M  V30 29383 C 2843.61 3.46468 0.974062 0
M  V30 29384 C 2843.22 4.47757 -0.147518 0
M  V30 29385 C 2844.96 3.93256 1.59844 0
M  V30 29386 C 2842.87 5.90504 0.325496 0
M  V30 29387 H 2841.8 0.727667 0.197528 0
M  V30 29388 H 2844.45 1.82204 -0.21773 0
M  V30 29389 H 2842.83 3.54473 1.76536 0
M  V30 29390 H 2844.01 4.51437 -0.924201 0
M  V30 29391 H 2842.32 4.10817 -0.679568 0
M  V30 29392 H 2844.92 4.97333 1.96376 0
M  V30 29393 H 2845.26 3.34145 2.483 0
M  V30 29394 H 2845.79 3.88119 0.872255 0
M  V30 29395 H 2842.53 6.53407 -0.52341 0
M  V30 29396 H 2842.05 5.90209 1.06831 0
M  V30 29397 H 2843.73 6.42264 0.781385 0
M  V30 29398 N 2843.86 -0.138524 1.5699 0
M  V30 29399 C 2844.83 -1.15474 1.97986 0
M  V30 29400 C 2845.83 -1.35396 0.86744 0
M  V30 29401 O 2847.02 -1.32244 1.13389 0
M  V30 29402 C 2844.15 -2.51333 2.30314 0
M  V30 29403 H 2845.34 -0.802845 2.88954 0
M  V30 29404 H 2842.9 -0.382162 1.51556 0
M  V30 29405 H 2843.63 -2.91479 1.42164 0
M  V30 29406 H 2843.42 -2.38232 3.11429 0
M  V30 29407 H 2844.91 -3.24508 2.62839 0
M  V30 29408 N 2845.34 -1.52224 -0.408133 0
M  V30 29409 C 2846.59 -1.66331 -1.15499 0
M  V30 29410 C 2846.92 -0.393735 -1.90473 0
M  V30 29411 O 2846.17 0.623324 -1.85508 0
M  V30 29412 C 2846.47 -2.83663 -2.17417 0
M  V30 29413 C 2846.14 -4.21844 -1.59243 0
M  V30 29414 C 2844.8 -4.59429 -1.43102 0
M  V30 29415 C 2847.15 -5.07952 -1.16767 0
M  V30 29416 C 2844.48 -5.80799 -0.830046 0
M  V30 29417 C 2846.83 -6.29927 -0.580877 0
M  V30 29418 C 2845.5 -6.6626 -0.406611 0
M  V30 29419 H 2844.77 -0.60865 -0.422642 0
M  V30 29420 H 2847.41 -1.86327 -0.442082 0
M  V30 29421 H 2845.72 -2.58006 -2.94856 0
M  V30 29422 H 2847.41 -2.91775 -2.75079 0
M  V30 29423 H 2844 -3.92227 -1.72789 0
M  V30 29424 H 2848.19 -4.79497 -1.28046 0
M  V30 29425 H 2843.44 -6.07572 -0.683054 0
M  V30 29426 H 2847.62 -6.95975 -0.243365 0
M  V30 29427 H 2845.25 -7.60175 0.0611703 0
M  V30 29428 N 2846.82 0.665425 -1.42863 0
M  V30 29429 C 2847.78 1.76053 -1.46759 0
M  V30 29430 C 2848.78 1.56857 -0.353893 0
M  V30 29431 O 2849.97 1.62978 -0.615128 0
M  V30 29432 C 2847.11 3.14794 -1.30835 0
M  V30 29433 H 2848.3 1.73983 -2.44274 0
M  V30 29434 H 2845.85 0.875942 -1.29449 0
M  V30 29435 H 2846.59 3.22483 -0.34279 0
M  V30 29436 H 2846.37 3.30131 -2.11556 0
M  V30 29437 H 2847.86 3.94673 -1.36465 0
M  V30 29438 N 2848.3 1.29191 0.902633 0
M  V30 29439 C 2849.52 1.19992 1.69164 0
M  V30 29440 C 2849.95 -0.236462 1.86608 0
M  V30 29441 O 2849.31 -1.1708 1.38427 0
M  V30 29442 C 2849.35 1.91532 3.05529 0
M  V30 29443 O 2848.46 1.23036 3.93619 0
M  V30 29444 H 2847.8 0.415945 0.517577 0
M  V30 29445 H 2850.33 1.70708 1.12782 0
M  V30 29446 H 2850.34 1.99872 3.5569 0
M  V30 29447 H 2849.01 2.96008 2.92151 0
M  V30 29448 H 2847.59 1.22935 3.52053 0
M  V30 29449 N 2849.78 -1.1126 1.1162 0
M  V30 29450 C 2851.19 -1.35051 0.850492 0
M  V30 29451 C 2851.39 -1.94572 -0.523833 0
M  V30 29452 O 2850.45 -2.17988 -1.27427 0
M  V30 29453 C 2851.76 -2.28037 1.96009 0
M  V30 29454 C 2853.31 -2.41597 1.98998 0
M  V30 29455 C 2853.78 -3.37906 3.09166 0
M  V30 29456 N 2855.28 -3.4547 3.08553 0
M  V30 29457 C 2856.01 -4.19936 3.90437 0
M  V30 29458 N 2855.51 -4.97363 4.82288 0
M  V30 29459 N 2857.3 -4.15467 3.78607 0
M  V30 29460 H 2849.45 -0.709897 2.00185 0
M  V30 29461 H 2851.71 -0.375084 0.870641 0
M  V30 29462 H 2851.42 -1.91498 2.94994 0
M  V30 29463 H 2851.29 -3.28272 1.85788 0
M  V30 29464 H 2853.68 -2.7741 1.00638 0
M  V30 29465 H 2853.76 -1.41207 2.13294 0
M  V30 29466 H 2853.41 -3.0282 4.07753 0
M  V30 29467 H 2853.34 -4.38155 2.92109 0
M  V30 29468 H 2855.83 -2.90245 2.42005 0
M  V30 29469 H 2856.14 -5.51557 5.41299 0
M  V30 29470 H 2854.48 -4.96517 4.86309 0
M  V30 29471 H 2857.68 -3.54069 3.06191 0
M  V30 29472 H 2857.85 -4.73245 4.42655 0
M  V30 29473 N 2851.25 -0.906798 -1.28899 0
M  V30 29474 C 2852.5 -0.535301 -1.94882 0
M  V30 29475 C 2852.82 0.922761 -1.71785 0
M  V30 29476 O 2852.09 1.65154 -1.05361 0
M  V30 29477 H 2850.67 -0.194974 -0.721106 0
M  V30 29478 H 2853.34 -1.15464 -1.57016 0
M  V30 29479 H 2852.43 -0.723875 -3.03589 0
M  V30 29480 N 2852.73 1.42648 -0.670032 0
M  V30 29481 C 2853.68 2.32589 0.0229697 0
M  V30 29482 C 2854.67 1.49557 0.795559 0
M  V30 29483 O 2855.88 1.65659 0.704061 0
M  V30 29484 H 2852.26 0.751543 0.0262209 0
M  V30 29485 H 2854.23 2.88741 -0.75306 0
M  V30 29486 C 2852.98 3.34075 0.963813 0
M  V30 29487 H 2852.3 3.98002 0.378743 0
M  V30 29488 H 2853.74 3.99604 1.41748 0
M  V30 29489 C 2852.2 2.65967 2.06792 0
M  V30 29490 O 2852.73 2.48795 3.15379 0
M  V30 29491 N 2850.93 2.25069 1.83827 0
M  V30 29492 H 2850.48 2.39236 0.955193 0
M  V30 29493 H 2850.44 1.79831 2.57892 0
M  V30 29494 N 2854.21 0.413044 1.52091 0
M  V30 29495 C 2855.16 -0.427954 2.23948 0
M  V30 29496 C 2856.15 -1.01025 1.25231 0
M  V30 29497 O 2857.34 -0.932417 1.50449 0
M  V30 29498 C 2854.47 -1.54195 3.06723 0
M  V30 29499 C 2853.55 -0.970234 4.12853 0
M  V30 29500 N 2853.94 -0.125522 5.05644 0
M  V30 29501 C 2852.24 -1.24034 4.28406 0
M  V30 29502 C 2852.94 0.192978 5.8138 0
M  V30 29503 N 2851.92 -0.417178 5.41997 0
M  V30 29504 H 2855.72 0.223679 2.93048 0
M  V30 29505 H 2853.23 0.223692 1.60852 0
M  V30 29506 H 2855.23 -2.15707 3.56758 0
M  V30 29507 H 2853.89 -2.19616 2.39163 0
M  V30 29508 H 2854.9 0.239086 5.17348 0
M  V30 29509 H 2851.58 -1.89385 3.72075 0
M  V30 29510 H 2852.97 0.878879 6.66127 0
M  V30 29511 N 2855.69 -1.56945 0.143591 0
M  V30 29512 C 2856.94 -1.96305 -0.509125 0
M  V30 29513 C 2857.27 -1.02833 -1.64739 0
M  V30 29514 O 2856.54 -0.0700702 -1.94374 0
M  V30 29515 C 2856.83 -3.45395 -1.01854 0
M  V30 29516 C 2856.68 -4.49645 0.118002 0
M  V30 29517 C 2858 -3.96904 -1.90144 0
M  V30 29518 H 2855.12 -0.713766 -0.183595 0
M  V30 29519 H 2857.76 -1.88673 0.224128 0
M  V30 29520 H 2855.91 -3.5203 -1.64339 0
M  V30 29521 H 2857.58 -4.55092 0.754225 0
M  V30 29522 H 2855.82 -4.26773 0.777643 0
M  V30 29523 H 2856.5 -5.51289 -0.28009 0
M  V30 29524 H 2858.97 -3.92727 -1.37493 0
M  V30 29525 H 2857.85 -5.01694 -2.22698 0
M  V30 29526 H 2858.11 -3.39057 -2.83712 0
M  V30 29527 N 2857.17 0.130197 -1.57061 0
M  V30 29528 C 2858.13 1.14423 -1.98595 0
M  V30 29529 C 2859.13 1.34934 -0.874608 0
M  V30 29530 O 2860.32 1.31641 -1.14089 0
M  V30 29531 C 2857.45 2.50108 -2.31644 0
M  V30 29532 H 2858.65 0.78751 -2.89376 0
M  V30 29533 H 2856.2 0.374119 -1.51757 0
M  V30 29534 H 2856.93 2.90721 -1.43708 0
M  V30 29535 H 2856.72 2.36577 -3.12688 0
M  V30 29536 H 2858.21 3.23109 -2.64557 0
M  V30 29537 N 2858.65 1.52438 0.400055 0
M  V30 29538 C 2860.06 1.59005 0.978482 0
M  V30 29539 C 2860.41 0.436102 1.91292 0
M  V30 29540 O 2859.53 -0.442328 2.11831 0
M  V30 29541 C 2860.13 2.88187 1.7814 0
M  V30 29542 C 2858.69 2.97203 2.3097 0
M  V30 29543 C 2857.83 2.54024 1.11208 0
M  V30 29544 H 2860.78 1.57676 0.179975 0
M  V30 29545 H 2860.81 2.74051 2.63963 0
M  V30 29546 H 2860.32 3.72154 1.10104 0
M  V30 29547 H 2858.42 2.17749 3.02351 0
M  V30 29548 H 2858.53 4.01627 2.61214 0
M  V30 29549 H 2856.9 2.08084 1.46879 0
M  V30 29550 H 2857.68 3.40374 0.447247 0
M  V30 29551 N 2860.12 -0.657839 1.43214 0
M  V30 29552 C 2861.35 -1.44563 1.48017 0
M  V30 29553 C 2861.77 -1.88553 0.0966283 0
M  V30 29554 O 2861.12 -1.59205 -0.892193 0
M  V30 29555 C 2861.17 -2.68365 2.42203 0
M  V30 29556 O 2860.9 -2.26217 3.75177 0
M  V30 29557 C 2862.4 -3.61768 2.56201 0
M  V30 29558 H 2859.62 -0.444257 0.502868 0
M  V30 29559 H 2862.16 -0.806884 1.87909 0
M  V30 29560 H 2860.32 -3.28391 2.0552 0
M  V30 29561 H 2860.73 -3.06285 4.25781 0
M  V30 29562 H 2862.2 -4.45314 3.2619 0
M  V30 29563 H 2862.68 -4.08807 1.60541 0
M  V30 29564 H 2863.29 -3.07627 2.93677 0
M  V30 29565 N 2861.6 -1.29668 -0.895769 0
M  V30 29566 C 2862.55 -1.11754 -1.98734 0
M  V30 29567 C 2863.54 -0.0358117 -1.6086 0
M  V30 29568 O 2864.73 -0.257956 -1.7511 0
M  V30 29569 C 2861.86 -0.800214 -3.33843 0
M  V30 29570 C 2860.94 -1.92167 -3.78064 0
M  V30 29571 N 2861.33 -3.1657 -3.94483 0
M  V30 29572 C 2859.63 -1.81559 -4.07372 0
M  V30 29573 C 2860.33 -3.89761 -4.31812 0
M  V30 29574 N 2859.31 -3.17732 -4.41075 0
M  V30 29575 H 2863.11 -2.0612 -2.09503 0
M  V30 29576 H 2860.62 -1.2085 -1.08486 0
M  V30 29577 H 2862.62 -0.652914 -4.11756 0
M  V30 29578 H 2861.28 0.135494 -3.24417 0
M  V30 29579 H 2862.29 -3.51981 -3.79908 0
M  V30 29580 H 2858.97 -0.952859 -4.06481 0
M  V30 29581 H 2860.36 -4.96839 -4.52328 0
M  V30 29582 N 2863.08 1.10667 -1.12208 0
M  V30 29583 C 2864.31 1.86094 -0.897365 0
M  V30 29584 C 2864.72 1.80823 0.556746 0
M  V30 29585 O 2864.06 1.19339 1.39656 0
M  V30 29586 C 2864.12 3.35519 -1.291 0
M  V30 29587 C 2863.79 3.64552 -2.75592 0
M  V30 29588 C 2864.78 3.61353 -3.73791 0
M  V30 29589 C 2862.47 3.93303 -3.12439 0
M  V30 29590 C 2864.46 3.86497 -5.06852 0
M  V30 29591 C 2862.15 4.18103 -4.45682 0
M  V30 29592 C 2863.15 4.1469 -5.42698 0
M  V30 29593 O 2862.84 4.38861 -6.7354 0
M  V30 29594 H 2862.57 0.595079 -0.320714 0
M  V30 29595 H 2865.12 1.4083 -1.49519 0
M  V30 29596 H 2863.35 3.81428 -0.636366 0
M  V30 29597 H 2865.04 3.92329 -1.0408 0
M  V30 29598 H 2865.81 3.39182 -3.4667 0
M  V30 29599 H 2861.69 3.95092 -2.37537 0
M  V30 29600 H 2865.23 3.83748 -5.82566 0
M  V30 29601 H 2861.13 4.39753 -4.72533 0
M  V30 29602 H 2861.89 4.56388 -6.7945 0
M  V30 29603 N 2864.56 0.913621 1.28416 0
M  V30 29604 C 2865.8 0.547518 1.95269 0
M  V30 29605 C 2866.14 -0.906456 1.71747 0
M  V30 29606 O 2865.41 -1.64463 1.03837 0
M  V30 29607 C 2865.69 0.857267 3.49747 0
M  V30 29608 C 2865.55 2.36396 3.82671 0
M  V30 29609 C 2866.87 0.353335 4.38679 0
M  V30 29610 H 2863.99 0.200394 0.709233 0
M  V30 29611 H 2866.63 1.14284 1.51786 0
M  V30 29612 H 2864.78 0.350616 3.86915 0
M  V30 29613 H 2866.45 2.94122 3.55373 0
M  V30 29614 H 2864.69 2.819 3.29719 0
M  V30 29615 H 2865.36 2.53124 4.90543 0
M  V30 29616 H 2867.84 0.78736 4.08583 0
M  V30 29617 H 2866.72 0.599144 5.4562 0
M  V30 29618 H 2866.98 -0.746336 4.35755 0
M  V30 29619 N 2866.04 -1.4229 0.677588 0
M  V30 29620 C 2867.28 -2.01798 0.201308 0
M  V30 29621 C 2867.61 -1.53467 -1.19002 0
M  V30 29622 O 2866.89 -0.738071 -1.79952 0
M  V30 29623 C 2867.17 -3.59306 0.239031 0
M  V30 29624 C 2867.03 -4.17809 1.66601 0
M  V30 29625 C 2868.34 -4.38175 -0.41121 0
M  V30 29626 H 2865.46 -0.733212 0.0746243 0
M  V30 29627 H 2868.11 -1.69275 0.862902 0
M  V30 29628 H 2866.26 -3.87144 -0.3243 0
M  V30 29629 H 2867.93 -4.00913 2.2818 0
M  V30 29630 H 2866.17 -3.73532 2.20582 0
M  V30 29631 H 2866.84 -5.26948 1.64407 0
M  V30 29632 H 2869.32 -4.16044 0.0683535 0
M  V30 29633 H 2868.19 -5.47756 -0.35419 0
M  V30 29634 H 2868.45 -4.16263 -1.48923 0
M  V30 29635 N 2867.51 -0.421104 -1.5187 0
M  V30 29636 C 2868.42 0.405028 -2.31077 0
M  V30 29637 C 2869.44 1.04263 -1.39303 0
M  V30 29638 O 2870.62 1.04154 -1.72377 0
M  V30 29639 C 2867.68 1.50027 -3.12559 0
M  V30 29640 C 2866.74 0.884485 -4.2009 0
M  V30 29641 C 2865.97 1.92753 -4.97677 0
M  V30 29642 O 2866.2 3.14744 -4.75702 0
M  V30 29643 O 2865.13 1.52709 -5.82206 0
M  V30 29644 H 2868.96 -0.24114 -3.02741 0
M  V30 29645 H 2866.54 -0.184017 -1.48262 0
M  V30 29646 H 2868.42 2.13583 -3.63264 0
M  V30 29647 H 2867.1 2.13081 -2.43676 0
M  V30 29648 H 2866.01 0.211313 -3.73503 0
M  V30 29649 H 2867.34 0.297677 -4.91299 0
M  V30 29650 N 2868.99 1.56866 -0.151912 0
M  V30 29651 C 2870.22 2.01082 0.508009 0
M  V30 29652 C 2870.64 1.03136 1.57304 0
M  V30 29653 O 2870 0.00786277 1.81298 0
M  V30 29654 C 2870.05 3.44016 1.081 0
M  V30 29655 O 2869.15 3.49088 2.19571 0
M  V30 29656 H 2868.49 0.652367 0.123745 0
M  V30 29657 H 2871.02 2.03066 -0.250091 0
M  V30 29658 H 2871.03 3.82919 1.40844 0
M  V30 29659 H 2869.71 4.14809 0.301095 0
M  V30 29660 H 2868.29 3.22031 1.88017 0
M  V30 29661 N 2870.47 -0.121866 1.57128 0
M  V30 29662 C 2871.75 -0.860296 1.75665 0
M  V30 29663 C 2872.13 -1.98201 0.726619 0
M  V30 29664 O 2871.48 -2.27129 -0.24995 0
M  V30 29665 C 2871.69 -1.37962 3.20573 0
M  V30 29666 C 2873.03 -1.8331 3.82992 0
M  V30 29667 O 2874.06 -1.47648 3.24158 0
M  V30 29668 O 2872.92 -2.49159 4.86397 0
M  V30 29669 H 2870.01 -0.408336 0.71916 0
M  V30 29670 H 2872.56 -0.105829 1.6937 0
M  V30 29671 H 2871.33 -0.574702 3.87057 0
M  V30 29672 H 2870.95 -2.19688 3.31395 0
M  V30 29673 N 2871.95 -1.52648 -0.391965 0
M  V30 29674 C 2872.91 -1.76573 -1.46132 0
M  V30 29675 C 2873.91 -0.635724 -1.477 0
M  V30 29676 O 2875.1 -0.903754 -1.48923 0
M  V30 29677 C 2872.23 -1.86379 -2.85439 0
M  V30 29678 H 2873.43 -2.72053 -1.26203 0
M  V30 29679 H 2870.98 -1.43324 -0.623523 0
M  V30 29680 H 2871.71 -0.92874 -3.10717 0
M  V30 29681 H 2871.5 -2.68544 -2.85703 0
M  V30 29682 H 2872.99 -2.06572 -3.62929 0
M  V30 29683 N 2873.43 0.650235 -1.43561 0
M  V30 29684 C 2874.65 1.44273 -1.48997 0
M  V30 29685 C 2875.08 1.87778 -0.109987 0
M  V30 29686 O 2874.43 1.57561 0.896898 0
M  V30 29687 C 2874.48 2.65193 -2.44346 0
M  V30 29688 O 2873.59 3.64357 -1.93178 0
M  V30 29689 H 2872.93 0.43246 -0.503859 0
M  V30 29690 H 2875.46 0.795413 -1.88506 0
M  V30 29691 H 2875.47 3.12972 -2.61749 0
M  V30 29692 H 2874.14 2.32871 -3.44592 0
M  V30 29693 H 2872.72 3.23516 -1.8545 0
M  V30 29694 N 2874.9 1.30141 0.88888 0
M  V30 29695 C 2875.84 1.12003 1.9997 0
M  V30 29696 C 2876.85 0.0643905 1.62673 0
M  V30 29697 O 2878.04 0.310013 1.75787 0
M  V30 29698 C 2875.14 0.685118 3.31903 0
M  V30 29699 C 2874.31 1.82165 3.97661 0
M  V30 29700 C 2873.37 1.37594 5.07892 0
M  V30 29701 O 2872.4 2.0825 5.29736 0
M  V30 29702 N 2873.6 0.252799 5.79949 0
M  V30 29703 H 2876.36 2.07675 2.16082 0
M  V30 29704 H 2873.92 1.22225 1.06173 0
M  V30 29705 H 2875.92 0.370035 4.03005 0
M  V30 29706 H 2874.49 -0.179452 3.12084 0
M  V30 29707 H 2873.71 2.30505 3.19783 0
M  V30 29708 H 2874.99 2.58339 4.38336 0
M  V30 29709 H 2874.39 -0.336042 5.64701 0
M  V30 29710 H 2872.95 -0.00285356 6.518 0
M  V30 29711 N 2876.38 -1.1007 1.12794 0
M  V30 29712 C 2877.8 -1.34141 0.864768 0
M  V30 29713 C 2878 -1.95117 -0.503167 0
M  V30 29714 O 2877.05 -2.19327 -1.25107 0
M  V30 29715 C 2878.37 -2.25945 1.98417 0
M  V30 29716 C 2879.92 -2.39473 2.01549 0
M  V30 29717 C 2880.39 -3.34608 3.12733 0
M  V30 29718 N 2881.88 -3.42178 3.122 0
M  V30 29719 C 2882.62 -4.15772 3.94869 0
M  V30 29720 N 2882.11 -4.92219 4.87537 0
M  V30 29721 N 2883.91 -4.11428 3.82992 0
M  V30 29722 H 2876.06 -0.688625 2.00927 0
M  V30 29723 H 2878.32 -0.365828 0.87457 0
M  V30 29724 H 2878.03 -1.88359 2.97008 0
M  V30 29725 H 2877.9 -3.26283 1.89259 0
M  V30 29726 H 2880.29 -2.76327 1.03574 0
M  V30 29727 H 2880.37 -1.38936 2.1478 0
M  V30 29728 H 2880.01 -2.98478 4.10942 0
M  V30 29729 H 2879.94 -4.35032 2.9674 0
M  V30 29730 H 2882.43 -2.87661 2.4507 0
M  V30 29731 H 2882.75 -5.45785 5.47119 0
M  V30 29732 H 2881.09 -4.91331 4.91547 0
M  V30 29733 H 2884.28 -3.50801 3.09929 0
M  V30 29734 H 2884.45 -4.68523 4.47649 0
M  V30 29735 N 2877.86 -0.920419 -1.2793 0
M  V30 29736 C 2879.11 -0.557866 -1.94976 0
M  V30 29737 C 2879.44 0.897335 -1.72225 0
M  V30 29738 O 2878.71 1.6391 -1.04708 0
M  V30 29739 C 2879 -0.875803 -3.49287 0
M  V30 29740 C 2878.85 -2.38422 -3.81412 0
M  V30 29741 C 2880.17 -0.376594 -4.38486 0
M  V30 29742 H 2877.29 -0.204152 -0.70816 0
M  V30 29743 H 2879.93 -1.15087 -1.51178 0
M  V30 29744 H 2878.08 -0.37113 -3.86723 0
M  V30 29745 H 2879.75 -2.96003 -3.53808 0
M  V30 29746 H 2878 -2.83644 -3.2822 0
M  V30 29747 H 2878.67 -2.55722 -4.89194 0
M  V30 29748 H 2881.14 -0.809017 -4.08159 0
M  V30 29749 H 2880.02 -0.628072 -5.45295 0
M  V30 29750 H 2880.28 0.723216 -4.36144 0
M  V30 29751 N 2879.34 1.41929 -0.685124 0
M  V30 29752 C 2880.57 2.05723 -0.220408 0
M  V30 29753 C 2880.98 1.51518 1.1264 0
M  V30 29754 O 2880.34 0.659144 1.70181 0
M  V30 29755 C 2880.39 3.61154 -0.158038 0
M  V30 29756 O 2880.11 4.13351 -1.45163 0
M  V30 29757 C 2881.61 4.42078 0.328931 0
M  V30 29758 H 2878.83 0.662775 -0.104737 0
M  V30 29759 H 2881.38 1.81885 -0.934768 0
M  V30 29760 H 2879.53 3.84067 0.507076 0
M  V30 29761 H 2879.94 5.0731 -1.33181 0
M  V30 29762 H 2881.42 5.51063 0.321462 0
M  V30 29763 H 2881.9 4.17417 1.36601 0
M  V30 29764 H 2882.5 4.24206 -0.304811 0
M  V30 29765 N 2880.82 0.429152 1.51644 0
M  V30 29766 C 2881.75 -0.422084 2.2528 0
M  V30 29767 C 2882.76 -0.993276 1.28988 0
M  V30 29768 O 2883.95 -0.888809 1.54798 0
M  V30 29769 C 2881.05 -1.60156 2.98669 0
M  V30 29770 C 2880.22 -1.15071 4.21992 0
M  V30 29771 C 2879.28 -2.19937 4.78031 0
M  V30 29772 O 2878.31 -1.79706 5.40087 0
M  V30 29773 N 2879.51 -3.52332 4.61348 0
M  V30 29774 H 2882.28 0.208983 2.9897 0
M  V30 29775 H 2879.84 0.257597 1.59838 0
M  V30 29776 H 2881.83 -2.29916 3.33048 0
M  V30 29777 H 2880.4 -2.13814 2.2804 0
M  V30 29778 H 2879.62 -0.280482 3.93201 0
M  V30 29779 H 2880.91 -0.826743 5.02038 0
M  V30 29780 H 2880.3 -3.87755 4.11901 0
M  V30 29781 H 2878.86 -4.1801 5.00111 0
M  V30 29782 N 2882.29 -1.56783 0.160229 0
M  V30 29783 C 2883.54 -1.96834 -0.488276 0
M  V30 29784 C 2883.87 -1.04574 -1.6364 0
M  V30 29785 O 2883.15 -0.0906822 -1.94288 0
M  V30 29786 C 2883.43 -3.46456 -0.981847 0
M  V30 29787 C 2883.28 -4.49495 0.165686 0
M  V30 29788 C 2884.6 -3.98899 -1.85924 0
M  V30 29789 H 2881.72 -0.715673 -0.176014 0
M  V30 29790 H 2884.36 -1.88425 0.244127 0
M  V30 29791 H 2882.51 -3.53753 -1.60596 0
M  V30 29792 H 2884.19 -4.54267 0.802451 0
M  V30 29793 H 2882.43 -4.25924 0.822864 0
M  V30 29794 H 2883.1 -5.51555 -0.221602 0
M  V30 29795 H 2885.58 -3.94164 -1.3332 0
M  V30 29796 H 2884.45 -5.04028 -2.17364 0
M  V30 29797 H 2884.71 -3.42047 -2.801 0
M  V30 29798 N 2883.77 0.113531 -1.57191 0
M  V30 29799 C 2884.7 1.1401 -2.03774 0
M  V30 29800 C 2885.68 1.42867 -0.923201 0
M  V30 29801 O 2886.87 1.53214 -1.19327 0
M  V30 29802 C 2884 2.46486 -2.44667 0
M  V30 29803 C 2882.95 2.32078 -3.59616 0
M  V30 29804 C 2882.28 3.69566 -3.86426 0
M  V30 29805 C 2883.58 1.77672 -4.91152 0
M  V30 29806 H 2885.27 0.752615 -2.89786 0
M  V30 29807 H 2882.82 0.360585 -1.39412 0
M  V30 29808 H 2884.77 3.18556 -2.75862 0
M  V30 29809 H 2883.5 2.87134 -1.55633 0
M  V30 29810 H 2882.16 1.62456 -3.28639 0
M  V30 29811 H 2881.8 4.07709 -2.94588 0
M  V30 29812 H 2881.5 3.60778 -4.63803 0
M  V30 29813 H 2883.03 4.43133 -4.20078 0
M  V30 29814 H 2884.44 2.39565 -5.20847 0
M  V30 29815 H 2882.84 1.79691 -5.72566 0
M  V30 29816 H 2883.91 0.734692 -4.79302 0
M  V30 29817 N 2885.25 1.52854 0.383864 0
M  V30 29818 C 2886.48 1.72332 1.15397 0
M  V30 29819 C 2886.9 0.443012 1.82809 0
M  V30 29820 O 2886.26 -0.601615 1.71027 0
M  V30 29821 C 2886.31 2.87712 2.17381 0
M  V30 29822 O 2885.41 2.55044 3.24078 0
M  V30 29823 H 2884.75 0.572889 0.335699 0
M  V30 29824 H 2887.28 1.99667 0.446585 0
M  V30 29825 H 2887.29 3.13355 2.61291 0
M  V30 29826 H 2885.97 3.8059 1.67703 0
M  V30 29827 H 2884.54 2.40158 2.85269 0
M  V30 29828 N 2886.73 -0.642612 1.43904 0
M  V30 29829 C 2887.95 -1.43481 1.4976 0
M  V30 29830 C 2888.38 -1.87717 0.119944 0
M  V30 29831 O 2887.74 -1.58034 -0.88853 0
M  V30 29832 C 2887.79 -2.63894 2.45749 0
M  V30 29833 O 2886.89 -3.63327 1.95108 0
M  V30 29834 H 2886.23 -0.429782 0.506146 0
M  V30 29835 H 2888.76 -0.785404 1.88925 0
M  V30 29836 H 2888.77 -3.1158 2.63405 0
M  V30 29837 H 2887.45 -2.3104 3.45822 0
M  V30 29838 H 2886.02 -3.22528 1.87163 0
M  V30 29839 N 2888.21 -1.30611 -0.881966 0
M  V30 29840 C 2889.14 -1.19823 -2.00411 0
M  V30 29841 C 2890.12 -0.0881836 -1.69871 0
M  V30 29842 O 2891.3 -0.270734 -1.92304 0
M  V30 29843 C 2888.43 -0.892389 -3.35639 0
M  V30 29844 C 2887.39 -1.9607 -3.80448 0
M  V30 29845 C 2886.71 -1.50779 -5.13001 0
M  V30 29846 C 2888.01 -3.3722 -3.98849 0
M  V30 29847 H 2889.71 -2.13703 -2.09694 0
M  V30 29848 H 2887.25 -1.02884 -1.00752 0
M  V30 29849 H 2889.21 -0.80357 -4.13667 0
M  V30 29850 H 2887.93 0.0820807 -3.26497 0
M  V30 29851 H 2886.59 -2.03921 -3.0465 0
M  V30 29852 H 2886.24 -0.521504 -5.00289 0
M  V30 29853 H 2885.94 -2.22238 -5.43952 0
M  V30 29854 H 2887.46 -1.43281 -5.93551 0
M  V30 29855 H 2888.88 -3.32111 -4.67306 0
M  V30 29856 H 2887.27 -4.06792 -4.41181 0
M  V30 29857 H 2888.34 -3.78889 -3.02608 0
M  V30 29858 N 2889.69 1.0947 -1.13376 0
M  V30 29859 C 2890.91 1.854 -0.918384 0
M  V30 29860 C 2891.33 1.81127 0.532778 0
M  V30 29861 O 2890.69 1.2071 1.36877 0
M  V30 29862 C 2890.74 3.33395 -1.39749 0
M  V30 29863 O 2890.46 3.37626 -2.79178 0
M  V30 29864 C 2891.96 4.26168 -1.22049 0
M  V30 29865 H 2889.18 0.585637 -0.327521 0
M  V30 29866 H 2891.72 1.38325 -1.5062 0
M  V30 29867 H 2889.88 3.779 -0.852686 0
M  V30 29868 H 2890.29 4.29929 -3.00435 0
M  V30 29869 H 2891.77 5.28167 -1.60447 0
M  V30 29870 H 2892.24 4.38901 -0.162124 0
M  V30 29871 H 2892.85 3.87478 -1.7533 0
M  V30 29872 N 2891.16 0.92719 1.2744 0
M  V30 29873 C 2892.41 0.56318 1.93678 0
M  V30 29874 C 2892.73 -0.899806 1.73675 0
M  V30 29875 O 2893.93 -1.37257 2.34249 0
M  V30 29876 C 2892.39 0.956421 3.46959 0
M  V30 29877 C 2892 2.44006 3.7572 0
M  V30 29878 C 2893.74 0.663639 4.1928 0
M  V30 29879 C 2891.65 2.77273 5.22373 0
M  V30 29880 H 2890.58 0.206907 0.725056 0
M  V30 29881 H 2893.23 1.12793 1.44741 0
M  V30 29882 H 2891.61 0.320323 3.94702 0
M  V30 29883 H 2892.78 3.12402 3.38735 0
M  V30 29884 H 2891.1 2.70468 3.16601 0
M  V30 29885 H 2893.7 0.888689 5.27263 0
M  V30 29886 H 2894.04 -0.399125 4.14382 0
M  V30 29887 H 2894.57 1.25881 3.77358 0
M  V30 29888 H 2891.31 3.82456 5.32361 0
M  V30 29889 H 2890.83 2.13526 5.60506 0
M  V30 29890 H 2892.51 2.64989 5.90246 0
M  V30 29891 N 2892.64 -1.41564 0.692641 0
M  V30 29892 C 2893.87 -2.05603 0.231315 0
M  V30 29893 C 2894.28 -1.52113 -1.11835 0
M  V30 29894 O 2893.64 -0.66816 -1.69829 0
M  V30 29895 C 2893.69 -3.61065 0.177189 0
M  V30 29896 O 2893.41 -4.12576 1.47353 0
M  V30 29897 C 2894.91 -4.42246 -0.305482 0
M  V30 29898 H 2892.13 -0.662211 0.10825 0
M  V30 29899 H 2894.68 -1.81387 0.944401 0
M  V30 29900 H 2892.83 -3.84331 -0.486701 0
M  V30 29901 H 2893.25 -5.06596 1.3587 0
M  V30 29902 H 2894.72 -5.51226 -0.292233 0
M  V30 29903 H 2895.2 -4.18135 -1.34386 0
M  V30 29904 H 2895.8 -4.24039 0.327304 0
M  V30 29905 N 2894.12 -0.437188 -1.51415 0
M  V30 29906 C 2895.34 0.130388 -2.0699 0
M  V30 29907 C 2895.77 1.35707 -1.30251 0
M  V30 29908 O 2895.13 1.78075 -0.34042 0
M  V30 29909 C 2895.18 0.431357 -3.58011 0
M  V30 29910 O 2894.28 1.51783 -3.83452 0
M  V30 29911 H 2893.62 0.00193172 -0.663997 0
M  V30 29912 H 2896.15 -0.618479 -1.95028 0
M  V30 29913 H 2896.16 0.681855 -4.02262 0
M  V30 29914 H 2894.84 -0.46521 -4.1329 0
M  V30 29915 H 2893.41 1.25731 -3.51064 0
M  V30 29916 N 2895.6 1.56696 -0.168541 0
M  V30 29917 C 2896.53 2.20836 0.758524 0
M  V30 29918 C 2897.51 1.16313 1.24118 0
M  V30 29919 O 2898.69 1.44732 1.29485 0
M  V30 29920 C 2895.82 2.84693 1.98915 0
M  V30 29921 C 2894.78 3.95231 1.64245 0
M  V30 29922 C 2894.1 4.46124 2.94749 0
M  V30 29923 C 2895.4 5.14959 0.872585 0
M  V30 29924 H 2897.1 2.98562 0.2239 0
M  V30 29925 H 2894.64 1.43607 0.106252 0
M  V30 29926 H 2896.6 3.28237 2.64269 0
M  V30 29927 H 2895.32 2.04332 2.54786 0
M  V30 29928 H 2893.98 3.52338 1.0126 0
M  V30 29929 H 2893.63 3.62558 3.48655 0
M  V30 29930 H 2893.33 5.20695 2.72307 0
M  V30 29931 H 2894.85 4.92353 3.61138 0
M  V30 29932 H 2896.27 5.55214 1.42866 0
M  V30 29933 H 2894.66 5.95429 0.747297 0
M  V30 29934 H 2895.73 4.84721 -0.13162 0
M  V30 29935 N 2897.08 -0.105193 1.57249 0
M  V30 29936 C 2898.01 -1.12927 2.04376 0
M  V30 29937 C 2898.99 -1.42375 0.930765 0
M  V30 29938 O 2900.17 -1.52579 1.20138 0
M  V30 29939 C 2897.3 -2.45185 2.45971 0
M  V30 29940 C 2896.26 -2.30168 3.60842 0
M  V30 29941 C 2895.58 -3.67511 3.88381 0
M  V30 29942 C 2896.88 -1.75065 4.92087 0
M  V30 29943 H 2898.58 -0.737236 2.90181 0
M  V30 29944 H 2896.12 -0.353187 1.39602 0
M  V30 29945 H 2898.07 -3.17089 2.77548 0
M  V30 29946 H 2896.8 -2.86305 1.57153 0
M  V30 29947 H 2895.46 -1.6071 3.29496 0
M  V30 29948 H 2895.11 -4.06141 2.96746 0
M  V30 29949 H 2894.81 -3.58313 4.6571 0
M  V30 29950 H 2896.33 -4.40899 4.22422 0
M  V30 29951 H 2897.74 -2.36799 5.2211 0
M  V30 29952 H 2896.14 -1.76652 5.7351 0
M  V30 29953 H 2897.21 -0.709263 4.79685 0
M  V30 29954 N 2898.55 -1.53055 -0.375752 0
M  V30 29955 C 2899.97 -1.42601 -0.716739 0
M  V30 29956 C 2900.17 -0.556965 -1.9365 0
M  V30 29957 O 2899.23 -0.0354904 -2.52475 0
M  V30 29958 C 2900.54 -2.85648 -0.939449 0
M  V30 29959 C 2902.09 -2.95213 -1.0401 0
M  V30 29960 C 2902.56 -4.393 -1.29535 0
M  V30 29961 N 2904.05 -4.42684 -1.36327 0
M  V30 29962 C 2904.79 -5.51268 -1.57768 0
M  V30 29963 N 2904.28 -6.69916 -1.76592 0
M  V30 29964 N 2906.08 -5.38831 -1.60055 0
M  V30 29965 H 2898.23 -2.0807 0.426677 0
M  V30 29966 H 2900.49 -0.939213 0.128775 0
M  V30 29967 H 2900.2 -3.51512 -0.115127 0
M  V30 29968 H 2900.07 -3.28693 -1.85042 0
M  V30 29969 H 2902.46 -2.2951 -1.85497 0
M  V30 29970 H 2902.54 -2.55577 -0.106741 0
M  V30 29971 H 2902.18 -5.05574 -0.485522 0
M  V30 29972 H 2902.11 -4.765 -2.24176 0
M  V30 29973 H 2904.6 -3.57173 -1.23435 0
M  V30 29974 H 2904.92 -7.48442 -1.92497 0
M  V30 29975 H 2903.26 -6.7292 -1.7379 0
M  V30 29976 H 2906.45 -4.45105 -1.44909 0
M  V30 29977 H 2906.63 -6.23521 -1.76424 0
M  V30 29978 N 2900.03 0.634971 -1.44242 0
M  V30 29979 C 2901.45 0.952719 -1.28045 0
M  V30 29980 C 2901.65 2.00367 -0.213415 0
M  V30 29981 O 2900.7 2.49279 0.401998 0
M  V30 29982 C 2902.02 1.41964 -2.65079 0
M  V30 29983 C 2903.57 1.53532 -2.72758 0
M  V30 29984 C 2904.04 2.03609 -4.10253 0
M  V30 29985 N 2905.53 2.10885 -4.1241 0
M  V30 29986 C 2906.27 2.50794 -5.15645 0
M  V30 29987 N 2905.76 2.89868 -6.29244 0
M  V30 29988 N 2907.56 2.50894 -5.03 0
M  V30 29989 H 2899.71 -0.0601353 -2.12315 0
M  V30 29990 H 2901.97 0.0357159 -0.947327 0
M  V30 29991 H 2901.68 0.721743 -3.44215 0
M  V30 29992 H 2901.55 2.39136 -2.91709 0
M  V30 29993 H 2903.94 2.22419 -1.93943 0
M  V30 29994 H 2904.02 0.547452 -2.49873 0
M  V30 29995 H 2903.66 1.35318 -4.89542 0
M  V30 29996 H 2903.59 3.0326 -4.30512 0
M  V30 29997 H 2906.08 1.83387 -3.3042 0
M  V30 29998 H 2906.4 3.19123 -7.03833 0
M  V30 29999 H 2904.74 2.87629 -6.32688 0
M  V30 30000 H 2907.93 2.19756 -4.1331 0
M  V30 30001 H 2908.1 2.81673 -5.83579 0
M  V30 30002 N 2901.51 1.31076 0.875027 0
M  V30 30003 C 2902.44 1.20885 1.99773 0
M  V30 30004 C 2903.42 0.0971911 1.69822 0
M  V30 30005 O 2904.61 0.280929 1.92157 0
M  V30 30006 C 2901.74 0.910176 3.35161 0
M  V30 30007 C 2900.69 1.98085 3.79403 0
M  V30 30008 C 2900.02 1.53497 5.12194 0
M  V30 30009 C 2901.32 3.3933 3.97055 0
M  V30 30010 H 2903.01 2.14812 2.08558 0
M  V30 30011 H 2900.56 1.03416 1.00205 0
M  V30 30012 H 2902.51 0.825496 4.13235 0
M  V30 30013 H 2901.23 -0.0647647 3.26536 0
M  V30 30014 H 2899.89 2.05534 3.03565 0
M  V30 30015 H 2899.54 0.548029 5.00006 0
M  V30 30016 H 2899.24 2.2512 5.42766 0
M  V30 30017 H 2900.76 1.46427 5.92783 0
M  V30 30018 H 2902.18 3.34584 4.65539 0
M  V30 30019 H 2900.58 4.09126 4.39017 0
M  V30 30020 H 2901.65 3.80488 3.00594 0
M  V30 30021 N 2902.99 -1.08867 1.13955 0
M  V30 30022 C 2903.94 -2.13845 0.790849 0
M  V30 30023 C 2904.92 -1.59419 -0.217791 0
M  V30 30024 O 2906.11 -1.76988 -0.0208412 0
M  V30 30025 C 2903.24 -3.42277 0.26485 0
M  V30 30026 C 2902.33 -4.03596 1.30274 0
M  V30 30027 N 2902.72 -4.39388 2.50542 0
M  V30 30028 C 2901.02 -4.30869 1.15186 0
M  V30 30029 C 2901.72 -4.8777 3.16946 0
M  V30 30030 N 2900.7 -4.85582 2.44358 0
M  V30 30031 H 2904.5 -2.39331 1.70581 0
M  V30 30032 H 2902.01 -1.26153 1.02271 0
M  V30 30033 H 2904.01 -4.169 -0.0032307 0
M  V30 30034 H 2902.67 -3.18242 -0.644363 0
M  V30 30035 H 2903.68 -4.30567 2.87806 0
M  V30 30036 H 2900.36 -4.16412 0.301278 0
M  V30 30037 H 2901.75 -5.24882 4.19462 0
M  V30 30038 N 2904.47 -0.933936 -1.26946 0
M  V30 30039 C 2905.43 -0.442497 -2.24888 0
M  V30 30040 C 2906.43 0.442399 -1.54595 0
M  V30 30041 O 2907.62 0.242599 -1.72502 0
M  V30 30042 C 2904.75 0.363114 -3.38961 0
M  V30 30043 H 2905.94 -1.30792 -2.69877 0
M  V30 30044 H 2903.5 -0.715211 -1.38976 0
M  V30 30045 H 2904.23 1.24709 -2.99363 0
M  V30 30046 H 2904.02 -0.271435 -3.91159 0
M  V30 30047 H 2905.51 0.697114 -4.1174 0
M  V30 30048 N 2905.94 1.41194 -0.700139 0
M  V30 30049 C 2907.19 2.01953 -0.242157 0
M  V30 30050 C 2907.55 1.54477 1.14694 0
M  V30 30051 O 2906.84 0.748126 1.76391 0
M  V30 30052 C 2907.03 3.56566 -0.244049 0
M  V30 30053 C 2906.86 4.1905 -1.63179 0
M  V30 30054 C 2905.63 4.53148 -2.23574 0
M  V30 30055 C 2907.83 4.44949 -2.57924 0
M  V30 30056 N 2905.81 5.00943 -3.54865 0
M  V30 30057 C 2907.18 4.94569 -3.739 0
M  V30 30058 C 2909.24 4.26967 -2.56133 0
M  V30 30059 C 2907.94 5.28096 -4.88372 0
M  V30 30060 C 2909.97 4.61585 -3.6972 0
M  V30 30061 C 2909.33 5.1138 -4.84427 0
M  V30 30062 H 2905.43 0.770416 -0.134102 0
M  V30 30063 H 2908.01 1.71667 -0.918606 0
M  V30 30064 H 2906.18 3.86315 0.401904 0
M  V30 30065 H 2907.91 4.04051 0.22919 0
M  V30 30066 H 2904.67 4.39756 -1.75816 0
M  V30 30067 H 2905.09 5.29241 -4.22176 0
M  V30 30068 H 2909.74 3.87702 -1.68663 0
M  V30 30069 H 2907.45 5.66282 -5.76498 0
M  V30 30070 H 2911.04 4.49326 -3.69591 0
M  V30 30071 H 2909.92 5.37665 -5.70864 0
M  V30 30072 N 2907.42 0.445212 1.51181 0
M  V30 30073 C 2908.67 -0.120154 2.01342 0
M  V30 30074 C 2908.98 -1.43093 1.33356 0
M  V30 30075 O 2910.19 -2.07971 1.74529 0
M  V30 30076 C 2908.65 -0.264669 3.58926 0
M  V30 30077 C 2908.25 1.03614 4.35853 0
M  V30 30078 C 2910 -0.783381 4.17209 0
M  V30 30079 C 2907.91 0.856834 5.8516 0
M  V30 30080 H 2906.84 -0.048679 0.752427 0
M  V30 30081 H 2909.49 0.576174 1.7422 0
M  V30 30082 H 2907.87 -1.02418 3.82526 0
M  V30 30083 H 2909.04 1.8046 4.23994 0
M  V30 30084 H 2907.36 1.48398 3.89059 0
M  V30 30085 H 2909.95 -0.934147 5.26477 0
M  V30 30086 H 2910.3 -1.76793 3.76895 0
M  V30 30087 H 2910.83 -0.0819647 3.97716 0
M  V30 30088 H 2907.57 1.81399 6.299 0
M  V30 30089 H 2907.09 0.128312 5.99663 0
M  V30 30090 H 2908.77 0.51314 6.44962 0
M  V30 30091 N 2908.9 -1.56605 0.176849 0
M  V30 30092 C 2910.13 -2.01426 -0.472793 0
M  V30 30093 C 2910.54 -1.05706 -1.56434 0
M  V30 30094 O 2909.9 -0.05884 -1.82405 0
M  V30 30095 C 2909.95 -3.46036 -1.04601 0
M  V30 30096 O 2909.67 -4.381 0.00197309 0
M  V30 30097 C 2911.17 -4.06285 -1.77333 0
M  V30 30098 H 2908.39 -0.660093 -0.120492 0
M  V30 30099 H 2910.94 -2.02571 0.280202 0
M  V30 30100 H 2909.09 -3.45648 -1.74947 0
M  V30 30101 H 2909.51 -5.22799 -0.422026 0
M  V30 30102 H 2910.98 -5.09377 -2.12694 0
M  V30 30103 H 2911.46 -3.48694 -2.67037 0
M  V30 30104 H 2912.06 -4.10393 -1.11616 0
M  V30 30105 N 2910.38 0.0968524 -1.57302 0
M  V30 30106 C 2911.29 1.13602 -2.0526 0
M  V30 30107 C 2912.3 1.43971 -0.977162 0
M  V30 30108 O 2913.48 1.54647 -1.2902 0
M  V30 30109 C 2910.55 2.43702 -2.46597 0
M  V30 30110 C 2909.61 2.20532 -3.68326 0
M  V30 30111 C 2908.84 3.44428 -4.07682 0
M  V30 30112 O 2909.06 4.52597 -3.47149 0
M  V30 30113 O 2908 3.3412 -5.00647 0
M  V30 30114 H 2911.82 0.7587 -2.9407 0
M  V30 30115 H 2909.41 0.309237 -1.46165 0
M  V30 30116 H 2911.29 3.20313 -2.7382 0
M  V30 30117 H 2909.96 2.80864 -1.60925 0
M  V30 30118 H 2908.87 1.41707 -3.46222 0
M  V30 30119 H 2910.2 1.88263 -4.54772 0
M  V30 30120 N 2911.86 1.53252 0.36763 0
M  V30 30121 C 2913.13 1.59937 1.12603 0
M  V30 30122 C 2913.51 0.405643 2.07166 0
M  V30 30123 O 2912.86 -0.604284 2.20365 0
M  V30 30124 C 2913.07 2.94867 1.86694 0
M  V30 30125 C 2914.42 3.4937 2.413 0
M  V30 30126 O 2915.44 2.96882 1.96823 0
M  V30 30127 O 2914.3 4.41124 3.22602 0
M  V30 30128 H 2911.4 0.645936 0.516426 0
M  V30 30129 H 2913.94 1.65594 0.371059 0
M  V30 30130 H 2912.71 3.73189 1.17668 0
M  V30 30131 H 2912.34 2.92692 2.69104 0
M  V30 30132 N 2913.34 -0.627313 1.44577 0
M  V30 30133 C 2914.58 -1.39832 1.49085 0
M  V30 30134 C 2914.94 -1.91614 0.121677 0
M  V30 30135 O 2916.14 -2.68768 0.0414357 0
M  V30 30136 C 2914.41 -2.52968 2.52472 0
M  V30 30137 S 2915.97 -3.41084 2.76056 0
M  V30 30138 H 2912.79 -0.476988 0.52726 0
M  V30 30139 H 2915.39 -0.725841 1.81526 0
M  V30 30140 H 2914.09 -2.13243 3.5065 0
M  V30 30141 H 2913.63 -3.25039 2.21616 0
M  V30 30142 H 2915.64 -4.50528 2.0794 0
M  V30 30143 N 2914.81 -1.31539 -0.868063 0
M  V30 30144 C 2916.22 -1.19197 -1.43697 0
M  V30 30145 C 2916.58 0.200808 -1.9517 0
M  V30 30146 O 2915.7 1.09869 -1.86434 0
M  V30 30147 C 2916.3 -2.15782 -2.61196 0
M  V30 30148 C 2914.85 -2.07368 -3.14126 0
M  V30 30149 C 2914 -2.04904 -1.86842 0
M  V30 30150 H 2916.95 -1.43562 -0.676432 0
M  V30 30151 H 2916.97 -1.74853 -3.37945 0
M  V30 30152 H 2916.49 -3.17141 -2.23703 0
M  V30 30153 H 2914.59 -1.09211 -3.56236 0
M  V30 30154 H 2914.7 -2.96564 -3.7628 0
M  V30 30155 H 2913.06 -1.49946 -2.05884 0
M  V30 30156 H 2913.85 -3.08022 -1.51584 0
M  V30 30157 N 2916.29 1.08262 -1.1453 0
M  V30 30158 C 2917.54 1.80945 -0.915791 0
M  V30 30159 C 2917.87 1.86065 0.556197 0
M  V30 30160 O 2917.15 1.33759 1.41205 0
M  V30 30161 C 2917.43 3.26484 -1.51922 0
M  V30 30162 C 2917.28 3.29565 -3.06116 0
M  V30 30163 C 2918.6 4.235 -1.19732 0
M  V30 30164 H 2915.72 0.656909 -0.334124 0
M  V30 30165 H 2918.36 1.26743 -1.41549 0
M  V30 30166 H 2916.51 3.72771 -1.09427 0
M  V30 30167 H 2918.18 2.9159 -3.57453 0
M  V30 30168 H 2916.43 2.68794 -3.40488 0
M  V30 30169 H 2917.1 4.32145 -3.43445 0
M  V30 30170 H 2919.57 3.85558 -1.56474 0
M  V30 30171 H 2918.45 5.23644 -1.64584 0
M  V30 30172 H 2918.71 4.41956 -0.112849 0
M  V30 30173 N 2917.77 0.940655 1.26449 0
M  V30 30174 C 2919.18 0.630683 1.75725 0
M  V30 30175 C 2919.53 -0.854136 1.76632 0
M  V30 30176 O 2918.66 -1.66845 1.3781 0
M  V30 30177 C 2919.25 1.13811 3.19112 0
M  V30 30178 C 2917.81 0.878561 3.66003 0
M  V30 30179 C 2916.96 1.28932 2.45503 0
M  V30 30180 H 2919.91 1.11902 1.12533 0
M  V30 30181 H 2919.93 0.491691 3.7731 0
M  V30 30182 H 2919.44 2.21879 3.1842 0
M  V30 30183 H 2917.54 -0.187768 3.72127 0
M  V30 30184 H 2917.66 1.5052 4.54841 0
M  V30 30185 H 2916.02 0.707756 2.44669 0
M  V30 30186 H 2916.8 2.37893 2.47512 0
M  V30 30187 N 2919.25 -1.40821 0.707617 0
M  V30 30188 C 2920.49 -2.0289 0.248021 0
M  V30 30189 C 2920.85 -1.54874 -1.13481 0
M  V30 30190 O 2922.05 -2.08951 -1.69095 0
M  V30 30191 C 2920.32 -3.55997 0.316388 0
M  V30 30192 S 2921.88 -4.38748 -0.0673927 0
M  V30 30193 H 2918.7 -0.704079 0.0989624 0
M  V30 30194 H 2921.3 -1.72067 0.928069 0
M  V30 30195 H 2920.01 -3.88436 1.32459 0
M  V30 30196 H 2919.54 -3.91537 -0.382406 0
M  V30 30197 H 2921.55 -4.79092 -1.29173 0
M  V30 30198 N 2920.73 -0.453223 -1.50943 0
M  V30 30199 C 2921.95 0.108426 -2.07116 0
M  V30 30200 C 2922.38 1.34318 -1.31683 0
M  V30 30201 O 2921.73 1.77704 -0.359288 0
M  V30 30202 C 2921.78 0.393361 -3.58448 0
M  V30 30203 O 2920.89 1.47708 -3.85041 0
M  V30 30204 H 2920.23 -0.00511097 -0.66398 0
M  V30 30205 H 2922.76 -0.639129 -1.94361 0
M  V30 30206 H 2922.77 0.639151 -4.02963 0
M  V30 30207 H 2921.44 -0.509019 -4.12773 0
M  V30 30208 H 2920.02 1.22 -3.52378 0
M  V30 30209 N 2922.2 1.56509 -0.185151 0
M  V30 30210 C 2923.45 1.96904 0.455322 0
M  V30 30211 C 2923.77 1.0728 1.62837 0
M  V30 30212 O 2923.04 0.142001 1.95385 0
M  V30 30213 H 2921.62 0.727116 0.171206 0
M  V30 30214 H 2924.28 1.93027 -0.269564 0
M  V30 30215 H 2923.38 3.0151 0.806107 0
M  V30 30216 N 2923.68 -0.0885089 1.57351 0
M  V30 30217 C 2924.91 -0.808017 1.91013 0
M  V30 30218 C 2925.33 -1.71164 0.780039 0
M  V30 30219 O 2924.69 -1.79307 -0.268051 0
M  V30 30220 C 2924.74 -1.59179 3.23565 0
M  V30 30221 O 2923.84 -2.70124 3.11619 0
M  V30 30222 H 2923.18 -0.221554 0.625947 0
M  V30 30223 H 2925.71 -0.0617594 2.04507 0
M  V30 30224 H 2925.72 -1.97461 3.57034 0
M  V30 30225 H 2924.4 -0.92867 4.05399 0
M  V30 30226 H 2922.97 -2.34822 2.89678 0
M  V30 30227 N 2925.16 -1.53445 -0.359498 0
M  V30 30228 C 2926.41 -1.71118 -1.09955 0
M  V30 30229 C 2926.76 -0.460446 -1.86809 0
M  V30 30230 O 2926.05 0.546668 -1.83636 0
M  V30 30231 C 2926.25 -2.90436 -2.08282 0
M  V30 30232 C 2926.08 -4.26994 -1.41091 0
M  V30 30233 C 2924.85 -4.91747 -1.16247 0
M  V30 30234 C 2927.04 -5.07304 -0.845428 0
M  V30 30235 N 2925.03 -6.12214 -0.45469 0
M  V30 30236 C 2926.4 -6.19423 -0.267346 0
M  V30 30237 C 2928.45 -4.92299 -0.744711 0
M  V30 30238 C 2927.16 -7.18178 0.401637 0
M  V30 30239 C 2929.18 -5.91332 -0.0894973 0
M  V30 30240 C 2928.54 -7.02778 0.477683 0
M  V30 30241 H 2924.64 -0.679359 -0.387293 0
M  V30 30242 H 2927.23 -1.90852 -0.385156 0
M  V30 30243 H 2925.4 -2.72231 -2.77029 0
M  V30 30244 H 2927.13 -2.96904 -2.75009 0
M  V30 30245 H 2923.88 -4.51006 -1.44536 0
M  V30 30246 H 2924.31 -6.76901 -0.11599 0
M  V30 30247 H 2928.95 -4.06319 -1.16897 0
M  V30 30248 H 2926.67 -8.03745 0.837835 0
M  V30 30249 H 2930.25 -5.81799 -0.0124139 0
M  V30 30250 H 2929.13 -7.78094 0.976659 0
M  V30 30251 N 2926.64 0.619637 -1.44908 0
M  V30 30252 C 2927.57 1.74198 -1.55491 0
M  V30 30253 C 2928.55 1.65155 -0.407172 0
M  V30 30254 O 2929.73 1.83739 -0.628775 0
M  V30 30255 C 2926.86 3.12768 -1.50976 0
M  V30 30256 C 2925.82 3.3661 -2.64343 0
M  V30 30257 C 2925.14 4.75329 -2.44881 0
M  V30 30258 C 2926.44 3.28044 -4.06429 0
M  V30 30259 H 2928.14 1.65597 -2.49435 0
M  V30 30260 H 2925.68 0.79526 -1.20048 0
M  V30 30261 H 2927.64 3.9107 -1.56978 0
M  V30 30262 H 2926.36 3.22179 -0.535543 0
M  V30 30263 H 2925.02 2.60693 -2.57749 0
M  V30 30264 H 2924.67 4.81458 -1.45625 0
M  V30 30265 H 2924.37 4.92239 -3.20897 0
M  V30 30266 H 2925.89 5.55847 -2.52719 0
M  V30 30267 H 2927.31 3.96236 -4.14331 0
M  V30 30268 H 2925.7 3.56486 -4.8274 0
M  V30 30269 H 2926.77 2.25669 -4.29187 0
M  V30 30270 N 2928.12 1.31997 0.861075 0
M  V30 30271 C 2929.05 1.16219 1.97549 0
M  V30 30272 C 2930.06 0.0988813 1.62499 0
M  V30 30273 O 2931.25 0.347231 1.7509 0
M  V30 30274 C 2928.35 0.755365 3.30375 0
M  V30 30275 C 2927.52 1.90559 3.93708 0
M  V30 30276 C 2926.58 1.48337 5.04859 0
M  V30 30277 O 2925.61 2.1944 5.252 0
M  V30 30278 N 2926.81 0.375758 5.79283 0
M  V30 30279 H 2929.58 2.12212 2.11628 0
M  V30 30280 H 2927.14 1.24449 1.03557 0
M  V30 30281 H 2929.13 0.455435 4.02129 0
M  V30 30282 H 2927.7 -0.113214 3.12395 0
M  V30 30283 H 2926.92 2.37237 3.14821 0
M  V30 30284 H 2928.21 2.67579 4.32757 0
M  V30 30285 H 2927.6 -0.216185 5.65287 0
M  V30 30286 H 2926.16 0.135404 6.51659 0
M  V30 30287 N 2929.59 -1.07653 1.15103 0
M  V30 30288 C 2930.87 -1.769 0.834609 0
M  V30 30289 C 2931.25 -2.00172 -0.670396 0
M  V30 30290 O 2930.6 -1.61772 -1.61375 0
M  V30 30291 C 2930.81 -3.07962 1.64197 0
M  V30 30292 C 2932.16 -3.82361 1.84622 0
M  V30 30293 O 2933.18 -3.17765 1.60947 0
M  V30 30294 O 2932.04 -4.9837 2.24253 0
M  V30 30295 H 2929.13 -0.768057 0.306622 0
M  V30 30296 H 2931.68 -1.14046 1.25665 0
M  V30 30297 H 2930.45 -2.86621 2.66391 0
M  V30 30298 H 2930.08 -3.78547 1.21606 0
M  V30 30299 N 2931.07 -0.947348 -1.25949 0
M  V30 30300 C 2932.32 -0.593921 -1.92758 0
M  V30 30301 C 2932.63 0.872062 -1.75084 0
M  V30 30302 O 2933.84 1.33513 -2.36403 0
M  V30 30303 C 2932.3 -1.0115 -3.45394 0
M  V30 30304 C 2931.9 -2.49952 -3.7179 0
M  V30 30305 C 2933.65 -0.730259 -4.18172 0
M  V30 30306 C 2931.56 -2.85548 -5.17896 0
M  V30 30307 H 2930.49 -0.218415 -0.721672 0
M  V30 30308 H 2933.14 -1.15082 -1.42928 0
M  V30 30309 H 2931.52 -0.383076 -3.94143 0
M  V30 30310 H 2932.69 -3.17751 -3.33722 0
M  V30 30311 H 2931.01 -2.75471 -3.12258 0
M  V30 30312 H 2933.6 -0.972459 -5.25783 0
M  V30 30313 H 2933.95 0.33315 -4.14965 0
M  V30 30314 H 2934.48 -1.31869 -3.75307 0
M  V30 30315 H 2931.22 -3.90877 -5.26209 0
M  V30 30316 H 2930.74 -2.22416 -5.57038 0
M  V30 30317 H 2932.42 -2.74346 -5.85955 0
M  V30 30318 N 2932.55 1.40444 -0.715075 0
M  V30 30319 C 2933.8 2.01685 -0.263563 0
M  V30 30320 C 2934.15 1.55685 1.13049 0
M  V30 30321 O 2933.44 0.766793 1.75587 0
M  V30 30322 C 2933.64 3.56287 -0.281854 0
M  V30 30323 C 2933.47 4.17295 -1.67615 0
M  V30 30324 C 2932.24 4.50751 -2.28368 0
M  V30 30325 C 2934.44 4.42188 -2.62629 0
M  V30 30326 N 2932.42 4.97151 -3.60158 0
M  V30 30327 C 2933.79 4.90576 -3.79125 0
M  V30 30328 C 2935.84 4.24226 -2.60647 0
M  V30 30329 C 2934.55 5.22886 -4.93946 0
M  V30 30330 C 2936.57 4.57638 -3.74595 0
M  V30 30331 C 2935.93 5.06214 -4.89824 0
M  V30 30332 H 2932.03 0.76895 -0.142266 0
M  V30 30333 H 2934.62 1.70684 -0.936762 0
M  V30 30334 H 2932.79 3.8672 0.360907 0
M  V30 30335 H 2934.52 4.04271 0.186322 0
M  V30 30336 H 2931.28 4.37867 -1.80471 0
M  V30 30337 H 2931.7 5.24734 -4.27766 0
M  V30 30338 H 2936.34 3.85891 -1.72766 0
M  V30 30339 H 2934.06 5.60136 -5.82472 0
M  V30 30340 H 2937.65 4.45381 -3.74336 0
M  V30 30341 H 2936.53 5.3158 -5.76535 0
M  V30 30342 N 2934.03 0.461222 1.507 0
M  V30 30343 C 2935.31 -0.158262 1.94959 0
M  V30 30344 C 2935.69 -1.57897 1.40114 0
M  V30 30345 O 2935.03 -2.20536 0.598015 0
M  V30 30346 C 2935.24 -0.111659 3.48821 0
M  V30 30347 C 2936.59 -0.305445 4.235 0
M  V30 30348 O 2937.62 -0.188696 3.557 0
M  V30 30349 O 2936.47 -0.540148 5.43824 0
M  V30 30350 H 2933.57 -0.117039 0.818676 0
M  V30 30351 H 2936.11 0.520917 1.61507 0
M  V30 30352 H 2934.89 0.880644 3.81262 0
M  V30 30353 H 2934.51 -0.832723 3.88782 0
M  V30 30354 N 2935.51 -1.56408 0.193449 0
M  V30 30355 C 2936.75 -1.98588 -0.439795 0
M  V30 30356 C 2937.11 -1.07818 -1.59352 0
M  V30 30357 O 2936.4 -0.12226 -1.9121 0
M  V30 30358 C 2936.59 -3.44552 -0.949657 0
M  V30 30359 C 2936.42 -4.49439 0.153124 0
M  V30 30360 C 2935.19 -5.01602 0.610208 0
M  V30 30361 C 2937.39 -5.05233 0.961486 0
M  V30 30362 N 2935.37 -5.90152 1.69098 0
M  V30 30363 C 2936.74 -5.90436 1.8917 0
M  V30 30364 C 2938.8 -4.8767 1.00409 0
M  V30 30365 C 2937.5 -6.59955 2.86097 0
M  V30 30366 C 2939.53 -5.57927 1.96141 0
M  V30 30367 C 2938.89 -6.42876 2.87906 0
M  V30 30368 H 2934.99 -0.771386 -0.128401 0
M  V30 30369 H 2937.57 -1.92394 0.298764 0
M  V30 30370 H 2935.74 -3.51249 -1.65766 0
M  V30 30371 H 2937.48 -3.73701 -1.55337 0
M  V30 30372 H 2934.23 -4.73161 0.203855 0
M  V30 30373 H 2934.66 -6.3913 2.23252 0
M  V30 30374 H 2939.3 -4.21672 0.30861 0
M  V30 30375 H 2937.02 -7.25153 3.56622 0
M  V30 30376 H 2940.6 -5.46316 2.00075 0
M  V30 30377 H 2939.48 -6.96284 3.60775 0
M  V30 30378 N 2936.98 0.0801629 -1.57396 0
M  V30 30379 C 2938.23 0.782051 -1.87114 0
M  V30 30380 C 2938.56 1.77644 -0.784611 0
M  V30 30381 O 2937.84 1.93406 0.205959 0
M  V30 30382 C 2938.12 1.49751 -3.27485 0
M  V30 30383 C 2937.97 0.520093 -4.46783 0
M  V30 30384 C 2939.29 2.44447 -3.65969 0
M  V30 30385 H 2936.41 0.282846 -0.680564 0
M  V30 30386 H 2939.05 0.0453805 -1.89946 0
M  V30 30387 H 2937.2 2.12545 -3.25203 0
M  V30 30388 H 2938.88 -0.102 -4.61187 0
M  V30 30389 H 2937.12 -0.165295 -4.33485 0
M  V30 30390 H 2937.79 1.05814 -5.41763 0
M  V30 30391 H 2940.27 1.91735 -3.69292 0
M  V30 30392 H 2939.14 2.91515 -4.65091 0
M  V30 30393 H 2939.4 3.28878 -2.95452 0
M  V30 30394 N 2938.46 1.53634 0.351355 0
M  V30 30395 C 2939.7 1.72213 1.10099 0
M  V30 30396 C 2940.07 0.471231 1.86127 0
M  V30 30397 O 2941.27 0.533933 2.63444 0
M  V30 30398 C 2939.54 2.94605 2.02343 0
M  V30 30399 S 2941.1 3.33959 2.84635 0
M  V30 30400 H 2937.92 0.605836 0.372134 0
M  V30 30401 H 2940.52 1.91763 0.380406 0
M  V30 30402 H 2939.22 3.83827 1.45276 0
M  V30 30403 H 2938.75 2.77498 2.78852 0
M  V30 30404 H 2940.77 2.87083 4.04719 0
M  V30 30405 N 2939.94 -0.611943 1.45234 0
M  V30 30406 C 2941.17 -1.40272 1.5277 0
M  V30 30407 C 2941.59 -1.87421 0.159734 0
M  V30 30408 O 2940.95 -1.59883 -0.854808 0
M  V30 30409 C 2941 -2.58622 2.51291 0
M  V30 30410 O 2940.1 -3.59107 2.0277 0
M  V30 30411 H 2939.44 -0.418949 0.515148 0
M  V30 30412 H 2941.97 -0.745154 1.90548 0
M  V30 30413 H 2941.98 -3.05922 2.69955 0
M  V30 30414 H 2940.66 -2.23653 3.50645 0
M  V30 30415 H 2939.23 -3.18485 1.93963 0
M  V30 30416 N 2941.42 -1.32452 -0.854063 0
M  V30 30417 C 2942.67 -1.224 -1.60316 0
M  V30 30418 C 2942.98 0.212629 -1.94441 0
M  V30 30419 O 2944.19 0.435019 -2.67992 0
M  V30 30420 C 2942.64 -2.14376 -2.89087 0
M  V30 30421 C 2942.25 -3.63123 -2.62384 0
M  V30 30422 C 2943.99 -2.13161 -3.671 0
M  V30 30423 C 2941.9 -4.47059 -3.87159 0
M  V30 30424 H 2940.83 -0.454555 -0.601578 0
M  V30 30425 H 2943.48 -1.57416 -0.942995 0
M  V30 30426 H 2941.86 -1.72274 -3.56564 0
M  V30 30427 H 2943.04 -4.1357 -2.03215 0
M  V30 30428 H 2941.35 -3.66475 -1.977 0
M  V30 30429 H 2943.95 -2.73108 -4.59691 0
M  V30 30430 H 2944.29 -1.12275 -4.00874 0
M  V30 30431 H 2944.83 -2.53545 -3.06528 0
M  V30 30432 H 2941.57 -5.48761 -3.58526 0
M  V30 30433 H 2941.09 -4.01362 -4.45722 0
M  V30 30434 H 2942.76 -4.60089 -4.54892 0
M  V30 30435 N 2942.9 1.07041 -1.15672 0
M  V30 30436 C 2943.83 2.16308 -0.879386 0
M  V30 30437 C 2944.81 1.69235 0.171281 0
M  V30 30438 O 2945.99 1.94184 0.0249834 0
M  V30 30439 C 2943.12 3.45309 -0.371368 0
M  V30 30440 C 2942.08 4.05849 -1.35907 0
M  V30 30441 C 2941.4 5.29968 -0.709771 0
M  V30 30442 C 2942.7 4.4551 -2.72614 0
M  V30 30443 H 2944.4 2.39765 -1.79313 0
M  V30 30444 H 2941.94 1.15232 -0.863578 0
M  V30 30445 H 2943.9 4.21077 -0.164872 0
M  V30 30446 H 2942.62 3.21447 0.577849 0
M  V30 30447 H 2941.28 3.32128 -1.55198 0
M  V30 30448 H 2940.93 5.024 0.245694 0
M  V30 30449 H 2940.63 5.71431 -1.36896 0
M  V30 30450 H 2942.15 6.0844 -0.513122 0
M  V30 30451 H 2943.57 5.12393 -2.5715 0
M  V30 30452 H 2941.96 4.97934 -3.34936 0
M  V30 30453 H 2943.03 3.56728 -3.2844 0
M  V30 30454 N 2944.38 0.954014 1.25445 0
M  V30 30455 C 2945.6 0.625629 1.97214 0
M  V30 30456 C 2946.02 -0.802138 1.70913 0
M  V30 30457 O 2945.38 -1.53648 0.984809 0
M  V30 30458 C 2945.43 0.874004 3.50775 0
M  V30 30459 O 2945.15 2.24563 3.76169 0
M  V30 30460 C 2946.65 0.557922 4.39775 0
M  V30 30461 H 2943.87 0.234611 0.628648 0
M  V30 30462 H 2946.41 1.27822 1.5963 0
M  V30 30463 H 2944.57 0.267833 3.86473 0
M  V30 30464 H 2944.98 2.3153 4.70632 0
M  V30 30465 H 2946.46 0.782253 5.46429 0
M  V30 30466 H 2946.93 -0.507496 4.36258 0
M  V30 30467 H 2947.54 1.14339 4.09642 0
M  V30 30468 N 2945.85 -1.40063 0.722513 0
M  V30 30469 C 2947.13 -1.94657 0.191863 0
M  V30 30470 C 2947.51 -1.6602 -1.30386 0
M  V30 30471 O 2946.86 -0.981624 -2.0634 0
M  V30 30472 C 2947.07 -3.45223 0.512039 0
M  V30 30473 C 2948.42 -4.2216 0.454501 0
M  V30 30474 O 2949.44 -3.53365 0.4485 0
M  V30 30475 O 2948.3 -5.44741 0.438082 0
M  V30 30476 H 2945.39 -0.826426 0.0307966 0
M  V30 30477 H 2947.94 -1.49632 0.800519 0
M  V30 30478 H 2946.71 -3.59452 1.54628 0
M  V30 30479 H 2946.33 -3.974 -0.126227 0
M  V30 30480 N 2947.33 -0.469207 -1.50453 0
M  V30 30481 C 2948.58 0.0864334 -2.02315 0
M  V30 30482 C 2948.91 1.39891 -1.35133 0
M  V30 30483 O 2948.16 1.90086 -0.465374 0
M  V30 30484 C 2948.46 0.320144 -3.55963 0
M  V30 30485 C 2948.13 -0.910395 -4.41614 0
M  V30 30486 C 2946.79 -1.24778 -4.64741 0
M  V30 30487 C 2949.14 -1.7298 -4.91658 0
M  V30 30488 C 2946.47 -2.40467 -5.35157 0
M  V30 30489 C 2948.82 -2.87794 -5.63345 0
M  V30 30490 C 2947.48 -3.2195 -5.84726 0
M  V30 30491 H 2946.75 0.0316282 -0.740325 0
M  V30 30492 H 2949.4 -0.622904 -1.81086 0
M  V30 30493 H 2947.71 1.11171 -3.75697 0
M  V30 30494 H 2949.4 0.764002 -3.93655 0
M  V30 30495 H 2945.99 -0.637541 -4.23832 0
M  V30 30496 H 2950.18 -1.48232 -4.73646 0
M  V30 30497 H 2945.43 -2.67206 -5.49919 0
M  V30 30498 H 2949.61 -3.51635 -6.01104 0
M  V30 30499 H 2947.23 -4.11702 -6.39066 0
M  V30 30500 N 2948.81 1.56303 -0.201741 0
M  V30 30501 C 2949.76 2.19398 0.71646 0
M  V30 30502 C 2950.73 1.14328 1.20492 0
M  V30 30503 O 2951.91 1.42606 1.2676 0
M  V30 30504 C 2949.05 2.8625 1.92757 0
M  V30 30505 C 2948.16 4.05862 1.47986 0
M  V30 30506 C 2947.3 4.60552 2.64698 0
M  V30 30507 C 2946.34 5.72508 2.16566 0
M  V30 30508 N 2945.48 6.21575 3.2648 0
M  V30 30509 H 2950.32 2.97505 0.171672 0
M  V30 30510 H 2947.85 1.46919 0.0729902 0
M  V30 30511 H 2949.81 3.23183 2.63835 0
M  V30 30512 H 2948.44 2.10695 2.44556 0
M  V30 30513 H 2947.49 3.74548 0.664704 0
M  V30 30514 H 2948.8 4.86817 1.08678 0
M  V30 30515 H 2947.96 4.99825 3.43889 0
M  V30 30516 H 2946.7 3.78719 3.07284 0
M  V30 30517 H 2945.7 5.32757 1.35831 0
M  V30 30518 H 2946.93 6.56164 1.75003 0
M  V30 30519 H 2944.87 5.42662 3.68584 0
M  V30 30520 H 2944.79 6.97599 2.91361 0
M  V30 30521 H 2946.06 6.65503 4.05865 0
M  V30 30522 N 2950.29 -0.0718147 1.57436 0
M  V30 30523 C 2951.24 -1.10407 2.04727 0
M  V30 30524 C 2952.23 -1.40078 0.952604 0
M  V30 30525 O 2953.44 -1.39485 1.13771 0
M  V30 30526 H 2949.81 -0.373382 0.652756 0
M  V30 30527 H 2951.78 -0.679075 2.9057 0
M  V30 30528 C 2950.53 -2.40941 2.50684 0
M  V30 30529 H 2949.85 -2.18961 3.34509 0
M  V30 30530 H 2951.29 -3.11616 2.87526 0
M  V30 30531 C 2949.75 -3.06899 1.38976 0
M  V30 30532 O 2950.28 -3.94977 0.731855 0
M  V30 30533 N 2948.49 -2.67523 1.1349 0
M  V30 30534 H 2948.04 -1.95989 1.67171 0
M  V30 30535 H 2947.99 -3.11978 0.389522 0
M  V30 30536 N 2951.77 -1.53818 -0.343203 0
M  V30 30537 C 2953.01 -1.72275 -1.08134 0
M  V30 30538 C 2953.37 -0.480234 -1.8631 0
M  V30 30539 O 2952.66 0.52716 -1.84205 0
M  V30 30540 C 2952.85 -2.92629 -2.0519 0
M  V30 30541 C 2952.68 -4.28466 -1.36554 0
M  V30 30542 C 2951.45 -4.92952 -1.11024 0
M  V30 30543 C 2953.65 -5.08172 -0.791574 0
M  V30 30544 N 2951.63 -6.12662 -0.389731 0
M  V30 30545 C 2953 -6.19672 -0.201633 0
M  V30 30546 C 2955.06 -4.93061 -0.692454 0
M  V30 30547 C 2953.76 -7.17711 0.477787 0
M  V30 30548 C 2955.79 -5.91394 -0.0267736 0
M  V30 30549 C 2955.15 -7.02232 0.552195 0
M  V30 30550 H 2951.25 -0.683428 -0.380066 0
M  V30 30551 H 2953.83 -1.9125 -0.364892 0
M  V30 30552 H 2952 -2.75154 -2.74126 0
M  V30 30553 H 2953.74 -2.99804 -2.71845 0
M  V30 30554 H 2950.49 -4.52513 -1.39744 0
M  V30 30555 H 2950.91 -6.76986 -0.0441886 0
M  V30 30556 H 2955.56 -4.07536 -1.12581 0
M  V30 30557 H 2953.27 -8.02811 0.923036 0
M  V30 30558 H 2956.86 -5.81779 0.0492943 0
M  V30 30559 H 2955.74 -7.77015 1.05913 0
M  V30 30560 N 2953.24 0.604233 -1.45557 0
M  V30 30561 C 2954.17 1.72539 -1.5733 0
M  V30 30562 C 2955.15 1.64714 -0.424666 0
M  V30 30563 O 2956.34 1.83062 -0.648228 0
M  V30 30564 C 2953.47 3.11149 -1.54284 0
M  V30 30565 C 2952.42 3.33788 -2.67899 0
M  V30 30566 C 2951.75 4.72705 -2.49908 0
M  V30 30567 C 2953.05 3.23715 -4.09886 0
M  V30 30568 H 2954.74 1.62942 -2.51177 0
M  V30 30569 H 2952.29 0.782483 -1.20885 0
M  V30 30570 H 2954.24 3.89383 -1.61117 0
M  V30 30571 H 2952.97 3.21593 -0.569684 0
M  V30 30572 H 2951.63 2.57945 -2.60499 0
M  V30 30573 H 2951.27 4.79887 -1.50724 0
M  V30 30574 H 2950.97 4.88807 -3.261 0
M  V30 30575 H 2952.5 5.53135 -2.586 0
M  V30 30576 H 2953.91 3.91819 -4.1851 0
M  V30 30577 H 2952.31 3.51346 -4.86494 0
M  V30 30578 H 2953.38 2.21104 -4.31557 0
M  V30 30579 N 2954.72 1.32903 0.847027 0
M  V30 30580 C 2955.95 1.27059 1.63923 0
M  V30 30581 C 2956.37 -0.157103 1.87443 0
M  V30 30582 O 2955.73 -1.11103 1.43268 0
M  V30 30583 C 2955.78 2.04318 2.9713 0
M  V30 30584 O 2954.88 1.3962 3.88046 0
M  V30 30585 H 2954.22 0.437523 0.49947 0
M  V30 30586 H 2956.75 1.75338 1.0544 0
M  V30 30587 H 2956.76 2.14778 3.46892 0
M  V30 30588 H 2955.44 3.08133 2.79333 0
M  V30 30589 H 2954.01 1.37756 3.46522 0
M  V30 30590 N 2956.2 -1.06426 1.16238 0
M  V30 30591 C 2957.42 -1.83439 0.96772 0
M  V30 30592 C 2957.85 -1.81895 -0.479135 0
M  V30 30593 O 2957.21 -1.21878 -1.34222 0
M  V30 30594 C 2957.26 -3.28007 1.49811 0
M  V30 30595 O 2956.36 -4.06354 0.703553 0
M  V30 30596 H 2955.7 -0.567654 0.344478 0
M  V30 30597 H 2958.23 -1.34195 1.54444 0
M  V30 30598 H 2958.24 -3.78829 1.51502 0
M  V30 30599 H 2956.92 -3.28446 2.55139 0
M  V30 30600 H 2955.49 -3.65134 0.757051 0
M  V30 30601 N 2957.68 -0.960653 -1.24937 0
M  V30 30602 C 2958.63 -0.484498 -2.25657 0
M  V30 30603 C 2959.6 0.466214 -1.59423 0
M  V30 30604 O 2960.78 0.378136 -1.87015 0
M  V30 30605 C 2957.92 0.225898 -3.4436 0
M  V30 30606 C 2957.03 -0.762756 -4.25213 0
M  V30 30607 C 2956.17 -0.0291865 -5.31192 0
M  V30 30608 C 2955.21 -1.00837 -6.03737 0
M  V30 30609 N 2954.34 -0.305278 -7.01436 0
M  V30 30610 H 2959.18 -1.34826 -2.65756 0
M  V30 30611 H 2956.72 -0.676006 -1.30647 0
M  V30 30612 H 2958.68 0.6544 -4.12036 0
M  V30 30613 H 2957.31 1.05366 -3.05119 0
M  V30 30614 H 2956.36 -1.30972 -3.57142 0
M  V30 30615 H 2957.67 -1.50973 -4.75404 0
M  V30 30616 H 2956.83 0.457657 -6.04971 0
M  V30 30617 H 2955.57 0.750529 -4.8189 0
M  V30 30618 H 2954.57 -1.50616 -5.28767 0
M  V30 30619 H 2955.8 -1.78842 -6.55128 0
M  V30 30620 H 2953.74 0.455589 -6.54416 0
M  V30 30621 H 2953.66 -0.991236 -7.49473 0
M  V30 30622 H 2954.93 0.159829 -7.79336 0
M  V30 30623 N 2959.16 1.39677 -0.729931 0
M  V30 30624 C 2960.09 2.33279 -0.101659 0
M  V30 30625 C 2961.07 1.53647 0.729827 0
M  V30 30626 O 2962.25 1.82061 0.675838 0
M  V30 30627 C 2959.38 3.37718 0.810181 0
M  V30 30628 C 2958.34 4.27919 0.0832374 0
M  V30 30629 C 2957.66 5.23014 1.11175 0
M  V30 30630 C 2958.96 5.11198 -1.07116 0
M  V30 30631 H 2960.66 2.86067 -0.883503 0
M  V30 30632 H 2958.2 1.37545 -0.426307 0
M  V30 30633 H 2960.16 4.02147 1.2592 0
M  V30 30634 H 2958.88 2.83357 1.62408 0
M  V30 30635 H 2957.54 3.64963 -0.346107 0
M  V30 30636 H 2957.19 4.64952 1.91909 0
M  V30 30637 H 2956.89 5.84211 0.630157 0
M  V30 30638 H 2958.41 5.9032 1.56058 0
M  V30 30639 H 2959.82 5.69 -0.700826 0
M  V30 30640 H 2958.22 5.81511 -1.48206 0
M  V30 30641 H 2959.29 4.46329 -1.89521 0
M  V30 30642 N 2960.63 0.47718 1.50202 0
M  V30 30643 C 2961.56 -0.303605 2.31518 0
M  V30 30644 C 2962.55 -0.984728 1.38698 0
M  V30 30645 O 2963.73 -0.980728 1.67617 0
M  V30 30646 C 2960.86 -1.38244 3.186 0
M  V30 30647 C 2959.81 -0.822572 4.20021 0
M  V30 30648 C 2959.14 -2.00015 4.95881 0
M  V30 30649 C 2960.44 0.170277 5.22022 0
M  V30 30650 H 2962.13 0.37508 2.97041 0
M  V30 30651 H 2959.68 0.181828 1.42847 0
M  V30 30652 H 2961.63 -1.93619 3.74286 0
M  V30 30653 H 2960.36 -2.08998 2.50973 0
M  V30 30654 H 2959.02 -0.290749 3.65445 0
M  V30 30655 H 2958.66 -2.69481 4.24722 0
M  V30 30656 H 2958.36 -1.63173 5.64489 0
M  V30 30657 H 2959.89 -2.55869 5.54404 0
M  V30 30658 H 2961.3 -0.294506 5.72543 0
M  V30 30659 H 2959.7 0.453286 5.98386 0
M  V30 30660 H 2960.77 1.09416 4.72394 0
M  V30 30661 N 2962.11 -1.56194 0.210027 0
M  V30 30662 C 2963.52 -1.84275 -0.29991 0
M  V30 30663 C 2963.87 -1.13113 -1.60312 0
M  V30 30664 O 2963 -0.396911 -2.12729 0
M  V30 30665 C 2963.59 -3.34291 -0.550927 0
M  V30 30666 C 2962.15 -3.6273 -1.0052 0
M  V30 30667 C 2961.3 -2.77231 -0.0619341 0
M  V30 30668 H 2964.25 -1.52665 0.433485 0
M  V30 30669 H 2964.27 -3.53872 -1.3984 0
M  V30 30670 H 2963.78 -3.86057 0.397737 0
M  V30 30671 H 2961.89 -3.1641 -1.96762 0
M  V30 30672 H 2962 -4.70807 -0.887581 0
M  V30 30673 H 2960.36 -2.48318 -0.566605 0
M  V30 30674 H 2961.15 -3.31791 0.881441 0
M  V30 30675 N 2963.59 0.0634645 -1.57472 0
M  V30 30676 C 2964.54 1.07454 -2.0426 0
M  V30 30677 C 2965.51 1.37972 -0.924828 0
M  V30 30678 O 2966.69 1.48897 -1.19307 0
M  V30 30679 C 2963.83 2.38067 -2.49836 0
M  V30 30680 C 2962.95 2.14007 -3.75266 0
M  V30 30681 C 2962.08 3.38243 -4.09591 0
M  V30 30682 C 2961.12 3.09585 -5.28037 0
M  V30 30683 N 2960.26 4.26175 -5.5796 0
M  V30 30684 H 2965.1 0.668575 -2.90403 0
M  V30 30685 H 2962.63 0.318546 -1.4361 0
M  V30 30686 H 2964.59 3.14336 -2.74315 0
M  V30 30687 H 2963.22 2.7645 -1.66659 0
M  V30 30688 H 2962.27 1.28392 -3.58078 0
M  V30 30689 H 2963.59 1.88844 -4.6167 0
M  V30 30690 H 2962.74 4.22903 -4.35015 0
M  V30 30691 H 2961.48 3.6649 -3.21771 0
M  V30 30692 H 2960.48 2.23323 -5.02401 0
M  V30 30693 H 2961.71 2.82653 -6.17482 0
M  V30 30694 H 2959.65 4.54437 -4.73099 0
M  V30 30695 H 2959.57 4.04315 -6.388 0
M  V30 30696 H 2960.84 5.11807 -5.8794 0
M  V30 30697 N 2965.07 1.53998 0.33504 0
M  V30 30698 C 2966 1.7741 1.4353 0
M  V30 30699 C 2966.98 0.623555 1.50168 0
M  V30 30700 O 2968.16 0.859689 1.67755 0
M  V30 30701 C 2965.29 1.88038 2.81708 0
M  V30 30702 C 2964.34 3.1025 2.92656 0
M  V30 30703 S 2965.17 4.69115 2.58246 0
M  V30 30704 C 2966.33 4.82634 3.98517 0
M  V30 30705 H 2966.56 2.70455 1.23456 0
M  V30 30706 H 2964.09 1.44974 0.531209 0
M  V30 30707 H 2966.05 1.94846 3.6131 0
M  V30 30708 H 2964.71 0.959901 2.99073 0
M  V30 30709 H 2963.9 3.14386 3.93926 0
M  V30 30710 H 2963.51 3.01712 2.21012 0
M  V30 30711 H 2965.8 4.64565 4.93138 0
M  V30 30712 H 2966.74 5.8473 3.9937 0
M  V30 30713 H 2967.15 4.11023 3.86937 0
M  V30 30714 N 2966.55 -0.596505 1.45875 0
M  V30 30715 C 2967.96 -1.17855 1.448 0
M  V30 30716 C 2968.31 -1.95359 0.181478 0
M  V30 30717 O 2967.43 -2.04201 -0.716301 0
M  V30 30718 C 2968.03 -2.14394 2.62337 0
M  V30 30719 C 2966.59 -2.67951 2.64347 0
M  V30 30720 C 2965.73 -1.4356 2.37246 0
M  V30 30721 H 2968.69 -0.385195 1.53954 0
M  V30 30722 H 2968.71 -2.97622 2.37068 0
M  V30 30723 H 2968.22 -1.57957 3.54501 0
M  V30 30724 H 2966.32 -3.28295 1.76219 0
M  V30 30725 H 2966.43 -3.11627 3.63903 0
M  V30 30726 H 2964.8 -1.72898 1.87025 0
M  V30 30727 H 2965.58 -0.889747 3.3157 0
M  V30 30728 N 2968.02 -1.3335 -0.839967 0
M  V30 30729 C 2969.27 -1.24498 -1.592 0
M  V30 30730 C 2969.59 0.189465 -1.94077 0
M  V30 30731 O 2968.86 1.11793 -1.6087 0
M  V30 30732 H 2967.44 -0.457812 -0.590268 0
M  V30 30733 H 2970.11 -1.67056 -1.00391 0
M  V30 30734 H 2969.2 -1.83793 -2.52243 0
M  V30 30735 N 2969.5 1.05808 -1.16801 0
M  V30 30736 C 2970.75 1.78086 -0.947012 0
M  V30 30737 C 2971.06 1.88395 0.525983 0
M  V30 30738 O 2972.27 2.57351 0.865016 0
M  V30 30739 C 2970.73 3.20099 -1.64513 0
M  V30 30740 C 2970.33 3.1794 -3.15623 0
M  V30 30741 C 2972.08 3.96877 -1.50629 0
M  V30 30742 C 2969.99 4.54703 -3.78152 0
M  V30 30743 H 2968.92 0.667487 -0.350681 0
M  V30 30744 H 2971.57 1.18642 -1.39987 0
M  V30 30745 H 2969.95 3.79832 -1.12 0
M  V30 30746 H 2971.12 2.67762 -3.7502 0
M  V30 30747 H 2969.44 2.54662 -3.29449 0
M  V30 30748 H 2972.03 4.97983 -1.94722 0
M  V30 30749 H 2972.38 4.13796 -0.455937 0
M  V30 30750 H 2972.91 3.43678 -2.00325 0
M  V30 30751 H 2969.65 4.4299 -4.83157 0
M  V30 30752 H 2969.17 5.05056 -3.23541 0
M  V30 30753 H 2970.85 5.23653 -3.79995 0
M  V30 30754 N 2970.98 0.967265 1.24426 0
M  V30 30755 C 2972.39 0.667815 1.74348 0
M  V30 30756 C 2972.74 -0.816478 1.78404 0
M  V30 30757 O 2971.87 -1.63884 1.41318 0
M  V30 30758 C 2972.46 1.20554 3.16626 0
M  V30 30759 C 2971.02 0.955998 3.64057 0
M  V30 30760 C 2970.17 1.34111 2.42713 0
M  V30 30761 H 2973.12 1.14263 1.10134 0
M  V30 30762 H 2973.14 0.571613 3.76182 0
M  V30 30763 H 2972.65 2.28584 3.13642 0
M  V30 30764 H 2970.75 -0.108792 3.72441 0
M  V30 30765 H 2970.87 1.60134 4.51546 0
M  V30 30766 H 2969.23 0.759495 2.43113 0
M  V30 30767 H 2970.01 2.43089 2.4241 0
M  V30 30768 N 2972.46 -1.39288 0.737328 0
M  V30 30769 C 2973.71 -2.00466 0.286292 0
M  V30 30770 C 2974.03 -1.58509 -1.12718 0
M  V30 30771 O 2973.29 -0.806288 -1.78318 0
M  V30 30772 C 2973.59 -3.55793 0.3385 0
M  V30 30773 C 2973.25 -4.17408 1.70532 0
M  V30 30774 C 2971.92 -4.33951 2.07941 0
M  V30 30775 C 2974.27 -4.51566 2.60264 0
M  V30 30776 C 2971.6 -4.81942 3.34587 0
M  V30 30777 C 2973.95 -5.00967 3.86284 0
M  V30 30778 C 2972.61 -5.15717 4.23783 0
M  V30 30779 H 2971.88 -0.733557 0.104762 0
M  V30 30780 H 2974.53 -1.6658 0.944627 0
M  V30 30781 H 2972.83 -3.89718 -0.40341 0
M  V30 30782 H 2974.53 -4.0099 -0.028655 0
M  V30 30783 H 2971.12 -4.04935 1.40447 0
M  V30 30784 H 2975.31 -4.38402 2.32631 0
M  V30 30785 H 2970.56 -4.91548 3.63581 0
M  V30 30786 H 2974.74 -5.2637 4.55969 0
M  V30 30787 H 2972.36 -5.52665 5.21982 0
M  V30 30788 N 2973.94 -0.485139 -1.49947 0
M  V30 30789 C 2975.19 0.0667296 -2.0159 0
M  V30 30790 C 2975.5 1.39507 -1.37103 0
M  V30 30791 O 2976.71 2.0327 -1.79982 0
M  V30 30792 C 2975.16 0.169413 -3.59501 0
M  V30 30793 C 2974.77 -1.15133 -4.32953 0
M  V30 30794 C 2976.51 0.67249 -4.19139 0
M  V30 30795 C 2974.42 -1.01168 -5.82683 0
M  V30 30796 H 2973.35 0.0287126 -0.753453 0
M  V30 30797 H 2976 -0.622163 -1.72631 0
M  V30 30798 H 2974.38 0.922403 -3.85107 0
M  V30 30799 H 2975.56 -1.91638 -4.1906 0
M  V30 30800 H 2973.87 -1.58661 -3.84988 0
M  V30 30801 H 2976.47 0.794232 -5.28768 0
M  V30 30802 H 2976.81 1.66739 -3.8145 0
M  V30 30803 H 2977.35 -0.0235114 -3.97793 0
M  V30 30804 H 2974.08 -1.98036 -6.24869 0
M  V30 30805 H 2973.6 -0.287257 -5.99112 0
M  V30 30806 H 2975.28 -0.68396 -6.43375 0
M  V30 30807 N 2975.42 1.56081 -0.218307 0
M  V30 30808 C 2976.64 2.03056 0.422266 0
M  V30 30809 C 2977.07 1.09715 1.52788 0
M  V30 30810 O 2976.42 0.0847505 1.81102 0
M  V30 30811 C 2976.47 3.48291 0.934116 0
M  V30 30812 O 2975.58 3.58087 2.04567 0
M  V30 30813 H 2974.92 0.657029 0.0959648 0
M  V30 30814 H 2977.45 2.01822 -0.335993 0
M  V30 30815 H 2977.46 3.88548 1.24477 0
M  V30 30816 H 2976.13 4.15712 0.12489 0
M  V30 30817 H 2974.71 3.29715 1.7419 0
M  V30 30818 N 2976.89 -0.0551124 1.57504 0
M  V30 30819 C 2978.13 -0.756219 1.89897 0
M  V30 30820 C 2978.5 -1.7389 0.814014 0
M  V30 30821 O 2979.7 -2.48634 1.0215 0
M  V30 30822 C 2977.97 -1.43111 3.27497 0
M  V30 30823 S 2979.53 -2.16497 3.81673 0
M  V30 30824 H 2976.35 -0.251117 0.665178 0
M  V30 30825 H 2978.95 -0.0116849 1.95497 0
M  V30 30826 H 2977.65 -0.702319 4.04346 0
M  V30 30827 H 2977.18 -2.21473 3.25136 0
M  V30 30828 H 2979.2 -3.4327 3.58301 0
M  V30 30829 N 2978.37 -1.54173 -0.326869 0
M  V30 30830 C 2979.3 -1.79663 -1.42316 0
M  V30 30831 C 2980.32 -0.678482 -1.47988 0
M  V30 30832 O 2981.51 -0.95553 -1.50771 0
M  V30 30833 C 2978.61 -1.89641 -2.80873 0
M  V30 30834 C 2977.78 -3.19766 -2.98443 0
M  V30 30835 C 2976.84 -3.20488 -4.17342 0
M  V30 30836 O 2975.86 -3.94141 -4.1066 0
M  V30 30837 N 2977.07 -2.44037 -5.26713 0
M  V30 30838 H 2979.83 -2.7427 -1.20814 0
M  V30 30839 H 2977.39 -1.53429 -0.516839 0
M  V30 30840 H 2979.38 -1.87555 -3.58616 0
M  V30 30841 H 2977.95 -1.02146 -2.9544 0
M  V30 30842 H 2977.17 -3.34839 -2.08029 0
M  V30 30843 H 2978.46 -4.05687 -3.07076 0
M  V30 30844 H 2977.86 -1.8378 -5.35015 0
M  V30 30845 H 2976.42 -2.47732 -6.02887 0
M  V30 30846 N 2979.85 0.58876 -1.4619 0
M  V30 30847 C 2980.8 1.69825 -1.56295 0
M  V30 30848 C 2981.77 1.61021 -0.407609 0
M  V30 30849 O 2982.95 1.80323 -0.623564 0
M  V30 30850 C 2980.09 3.08158 -1.55346 0
M  V30 30851 C 2979.2 3.27631 -2.8157 0
M  V30 30852 C 2978.34 4.56179 -2.72166 0
M  V30 30853 C 2977.38 4.68974 -3.93357 0
M  V30 30854 N 2976.52 5.88841 -3.82375 0
M  V30 30855 H 2981.36 1.60525 -2.51069 0
M  V30 30856 H 2978.89 0.782452 -1.24564 0
M  V30 30857 H 2980.85 3.88218 -1.52783 0
M  V30 30858 H 2979.48 3.1637 -0.64109 0
M  V30 30859 H 2978.53 2.41218 -2.9414 0
M  V30 30860 H 2979.84 3.32956 -3.71405 0
M  V30 30861 H 2979 5.44459 -2.67674 0
M  V30 30862 H 2977.74 4.53283 -1.79961 0
M  V30 30863 H 2976.74 3.79113 -3.98187 0
M  V30 30864 H 2977.97 4.73654 -4.86651 0
M  V30 30865 H 2975.91 5.86954 -2.92952 0
M  V30 30866 H 2975.83 5.95407 -4.65861 0
M  V30 30867 H 2977.1 6.79568 -3.81848 0
M  V30 30868 N 2981.33 1.33794 0.832883 0
M  V30 30869 C 2982.58 1.25341 1.58537 0
M  V30 30870 C 2982.9 -0.17917 1.94175 0
M  V30 30871 O 2982.17 -1.10938 1.6146 0
M  V30 30872 H 2980.75 0.460936 0.587832 0
M  V30 30873 H 2983.41 1.67586 0.995035 0
M  V30 30874 H 2982.5 1.85128 2.51265 0
M  V30 30875 N 2982.81 -1.05187 1.1736 0
M  V30 30876 C 2984.04 -1.816 0.985131 0
M  V30 30877 C 2984.44 -1.83273 -0.469839 0
M  V30 30878 O 2983.79 -1.25866 -1.33803 0
M  V30 30879 C 2983.85 -3.28978 1.44961 0
M  V30 30880 C 2983.51 -3.50987 2.92672 0
M  V30 30881 C 2984.51 -3.43108 3.90606 0
M  V30 30882 C 2982.19 -3.77948 3.30848 0
M  V30 30883 C 2984.19 -3.61874 5.24715 0
M  V30 30884 C 2981.88 -3.96363 4.65123 0
M  V30 30885 C 2982.87 -3.88325 5.61865 0
M  V30 30886 O 2982.56 -4.06226 6.93712 0
M  V30 30887 H 2982.29 -0.579099 0.348741 0
M  V30 30888 H 2984.85 -1.33536 1.56068 0
M  V30 30889 H 2983.08 -3.77957 0.817626 0
M  V30 30890 H 2984.77 -3.86916 1.2268 0
M  V30 30891 H 2985.53 -3.22256 3.62458 0
M  V30 30892 H 2981.41 -3.83309 2.56116 0
M  V30 30893 H 2984.96 -3.55516 6.00212 0
M  V30 30894 H 2980.85 -4.16707 4.92976 0
M  V30 30895 H 2981.62 -4.23451 7.00451 0
M  V30 30896 N 2984.28 -0.97385 -1.23911 0
M  V30 30897 C 2985.23 -0.508405 -2.25131 0
M  V30 30898 C 2986.2 0.449279 -1.59908 0
M  V30 30899 O 2987.39 0.35828 -1.87406 0
M  V30 30900 C 2984.53 0.189361 -3.4458 0
M  V30 30901 C 2983.64 -0.807813 -4.2438 0
M  V30 30902 C 2982.77 -0.0855248 -5.31131 0
M  V30 30903 C 2981.81 -1.07235 -6.02633 0
M  V30 30904 N 2980.95 -0.379658 -7.01073 0
M  V30 30905 H 2985.79 -1.37637 -2.64311 0
M  V30 30906 H 2983.33 -0.689825 -1.29922 0
M  V30 30907 H 2985.28 0.610661 -4.12707 0
M  V30 30908 H 2983.91 1.02124 -3.0622 0
M  V30 30909 H 2982.97 -1.34753 -3.55733 0
M  V30 30910 H 2984.28 -1.56006 -4.73776 0
M  V30 30911 H 2983.43 0.393466 -6.05423 0
M  V30 30912 H 2982.17 0.699376 -4.82659 0
M  V30 30913 H 2981.18 -1.56216 -5.2714 0
M  V30 30914 H 2982.4 -1.8578 -6.53194 0
M  V30 30915 H 2980.35 0.386154 -6.54862 0
M  V30 30916 H 2980.26 -1.07067 -7.4838 0
M  V30 30917 H 2981.53 0.0771614 -7.79462 0
M  V30 30918 N 2985.76 1.38895 -0.744705 0
M  V30 30919 C 2987.01 1.99916 -0.296333 0
M  V30 30920 C 2987.33 1.59401 1.12323 0
M  V30 30921 O 2986.6 0.84672 1.76656 0
M  V30 30922 H 2985.18 0.739359 -0.106574 0
M  V30 30923 H 2987.84 1.69797 -0.956823 0
M  V30 30924 H 2986.94 3.10104 -0.352411 0
M  V30 30925 N 2987.24 0.493084 1.49688 0
M  V30 30926 C 2988.49 -0.0543162 2.02727 0
M  V30 30927 C 2988.82 -1.37373 1.37267 0
M  V30 30928 O 2988.09 -1.87811 0.505677 0
M  V30 30929 C 2988.38 -0.215162 3.59457 0
M  V30 30930 C 2988.23 1.12682 4.35457 0
M  V30 30931 C 2989.55 -0.959511 4.29513 0
M  V30 30932 H 2986.67 -0.0182657 0.736774 0
M  V30 30933 H 2989.31 0.642956 1.78791 0
M  V30 30934 H 2987.46 -0.809055 3.79982 0
M  V30 30935 H 2989.13 1.75899 4.26447 0
M  V30 30936 H 2987.38 1.71808 3.98327 0
M  V30 30937 H 2988.05 0.967673 5.43452 0
M  V30 30938 H 2990.52 -0.455904 4.13595 0
M  V30 30939 H 2989.4 -1.04088 5.3894 0
M  V30 30940 H 2989.66 -2.00137 3.94205 0
M  V30 30941 N 2988.72 -1.55963 0.226582 0
M  V30 30942 C 2989.96 -1.99477 -0.397573 0
M  V30 30943 C 2990.32 -1.11174 -1.57029 0
M  V30 30944 O 2989.61 -0.162791 -1.90907 0
M  V30 30945 C 2989.81 -3.46489 -0.876359 0
M  V30 30946 C 2989.64 -4.49013 0.248423 0
M  V30 30947 C 2988.41 -5.00195 0.716468 0
M  V30 30948 C 2990.6 -5.03079 1.06844 0
M  V30 30949 N 2988.59 -5.86432 1.81578 0
M  V30 30950 C 2989.96 -5.86291 2.01651 0
M  V30 30951 C 2992.01 -4.85431 1.1073 0
M  V30 30952 C 2990.71 -6.53738 3.00032 0
M  V30 30953 C 2992.74 -5.53641 2.07931 0
M  V30 30954 C 2992.1 -6.36624 3.01478 0
M  V30 30955 H 2988.2 -0.773936 -0.11201 0
M  V30 30956 H 2990.79 -1.91717 0.339506 0
M  V30 30957 H 2988.96 -3.54686 -1.58278 0
M  V30 30958 H 2990.69 -3.76912 -1.47375 0
M  V30 30959 H 2987.44 -4.72622 0.304173 0
M  V30 30960 H 2987.87 -6.34251 2.36759 0
M  V30 30961 H 2992.51 -4.20923 0.397983 0
M  V30 30962 H 2990.23 -7.17425 3.71923 0
M  V30 30963 H 2993.81 -5.41949 2.11619 0
M  V30 30964 H 2992.69 -6.88475 3.75463 0
M  V30 30965 N 2990.2 0.0467589 -1.57531 0
M  V30 30966 C 2991.16 1.03735 -2.04381 0
M  V30 30967 C 2992.16 1.30108 -0.944904 0
M  V30 30968 O 2993.35 1.25408 -1.20906 0
M  V30 30969 C 2990.48 2.37477 -2.44576 0
M  V30 30970 H 2991.67 0.633011 -2.93143 0
M  V30 30971 H 2989.23 0.29315 -1.53526 0
M  V30 30972 H 2989.96 2.82694 -1.58916 0
M  V30 30973 H 2989.75 2.1967 -3.24789 0
M  V30 30974 H 2991.24 3.08631 -2.81312 0
M  V30 30975 N 2991.67 1.54344 0.318688 0
M  V30 30976 C 2992.92 1.72441 1.05397 0
M  V30 30977 C 2993.24 0.503528 1.88387 0
M  V30 30978 O 2992.51 -0.482426 1.89867 0
M  V30 30979 H 2991.09 0.635812 0.392113 0
M  V30 30980 H 2993.76 1.91659 0.353946 0
M  V30 30981 H 2992.85 2.60611 1.71721 0
M  V30 30982 N 2993.15 -0.580999 1.465 0
M  V30 30983 C 2994.38 -1.36514 1.55472 0
M  V30 30984 C 2994.8 -1.87775 0.19644 0
M  V30 30985 O 2994.15 -1.6371 -0.806548 0
M  V30 30986 C 2994.2 -2.55149 2.56088 0
M  V30 30987 O 2993.92 -2.06012 3.8664 0
M  V30 30988 C 2995.43 -3.47679 2.75017 0
M  V30 30989 H 2992.65 -0.416977 0.52571 0
M  V30 30990 H 2995.19 -0.706144 1.91922 0
M  V30 30991 H 2993.34 -3.17035 2.22638 0
M  V30 30992 H 2993.76 -2.83285 4.41418 0
M  V30 30993 H 2995.23 -4.27397 3.49336 0
M  V30 30994 H 2995.71 -3.99722 1.81985 0
M  V30 30995 H 2996.32 -2.91627 3.0957 0
M  V30 30996 N 2994.63 -1.34234 -0.825776 0
M  V30 30997 C 2995.88 -1.2618 -1.5787 0
M  V30 30998 C 2996.2 0.16887 -1.94267 0
M  V30 30999 O 2995.47 1.10081 -1.62046 0
M  V30 31000 H 2994.05 -0.464047 -0.585379 0
M  V30 31001 H 2996.71 -1.68111 -0.986133 0
M  V30 31002 H 2995.81 -1.86458 -2.5028 0
M  V30 31003 N 2996.11 1.04563 -1.17917 0
M  V30 31004 C 2997.35 1.7794 -0.972894 0
M  V30 31005 C 2997.69 1.8774 0.49672 0
M  V30 31006 O 2996.96 1.38183 1.36878 0
M  V30 31007 C 2997.25 3.21485 -1.62232 0
M  V30 31008 C 2997.1 3.19659 -3.16446 0
M  V30 31009 C 2998.42 4.19477 -1.33144 0
M  V30 31010 H 2995.54 0.645947 -0.354854 0
M  V30 31011 H 2998.18 1.22176 -1.4551 0
M  V30 31012 H 2996.33 3.69101 -1.21231 0
M  V30 31013 H 2998 2.80071 -3.66549 0
M  V30 31014 H 2996.24 2.57826 -3.48867 0
M  V30 31015 H 2996.91 4.21 -3.5702 0
M  V30 31016 H 2999.39 3.80385 -1.68661 0
M  V30 31017 H 2998.27 5.18143 -1.8116 0
M  V30 31018 H 2998.53 4.41373 -0.253396 0
M  V30 31019 N 2997.59 0.980408 1.23393 0
M  V30 31020 C 2998.52 0.465443 2.23403 0
M  V30 31021 C 2999.5 -0.467444 1.55736 0
M  V30 31022 O 3000.68 -0.395888 1.84296 0
M  V30 31023 C 2997.81 -0.326661 3.37121 0
M  V30 31024 C 2996.85 0.55037 4.22934 0
M  V30 31025 S 2997.69 1.99823 4.96821 0
M  V30 31026 C 2998.84 1.21527 6.13989 0
M  V30 31027 H 2999.08 1.31294 2.66738 0
M  V30 31028 H 2996.61 0.786403 1.32872 0
M  V30 31029 H 2998.57 -0.777667 4.03066 0
M  V30 31030 H 2997.23 -1.14928 2.92319 0
M  V30 31031 H 2996.42 -0.0584412 5.03966 0
M  V30 31032 H 2996.02 0.937622 3.62056 0
M  V30 31033 H 2998.32 0.476595 6.75822 0
M  V30 31034 H 2999.26 2.00042 6.79256 0
M  V30 31035 H 2999.67 0.734048 5.59707 0
M  V30 31036 N 2999.06 -1.38498 0.75206 0
M  V30 31037 C 3000.29 -2.04437 0.31831 0
M  V30 31038 C 3000.71 -1.5672 -1.05282 0
M  V30 31039 O 3000.06 -0.739589 -1.66842 0
M  V30 31040 C 3000.12 -3.59989 0.330169 0
M  V30 31041 O 2999.84 -4.05955 1.64719 0
M  V30 31042 C 3001.34 -4.43144 -0.117635 0
M  V30 31043 H 2998.56 -0.657024 0.136239 0
M  V30 31044 H 3001.1 -1.77218 1.02048 0
M  V30 31045 H 2999.26 -3.86049 -0.323255 0
M  V30 31046 H 2999.67 -5.00378 1.57234 0
M  V30 31047 H 3001.14 -5.51969 -0.0581764 0
M  V30 31048 H 3001.62 -4.23459 -1.1653 0
M  V30 31049 H 3002.23 -4.22269 0.506858 0
M  V30 31050 N 3000.54 -0.501015 -1.49424 0
M  V30 31051 C 3001.77 0.0403079 -2.06861 0
M  V30 31052 C 3002.19 1.30817 -1.36134 0
M  V30 31053 O 3001.54 1.77124 -0.439678 0
M  V30 31054 C 3001.59 0.297838 -3.60271 0
M  V30 31055 O 3001.31 -0.919761 -4.28336 0
M  V30 31056 C 3002.82 0.8828 -4.34421 0
M  V30 31057 H 3000.04 -0.0204737 -0.670688 0
M  V30 31058 H 3002.58 -0.698376 -1.92206 0
M  V30 31059 H 3000.73 0.986504 -3.74629 0
M  V30 31060 H 3001.15 -0.682619 -5.20039 0
M  V30 31061 H 3002.62 1.01258 -5.42633 0
M  V30 31062 H 3003.1 1.88059 -3.96901 0
M  V30 31063 H 3003.71 0.231602 -4.24669 0
M  V30 31064 N 3002.02 1.5584 -0.234849 0
M  V30 31065 C 3003.44 1.59146 0.120267 0
M  V30 31066 C 3003.64 1.25187 1.57894 0
M  V30 31067 O 3002.69 0.993434 2.32136 0
M  V30 31068 C 3004.01 2.99908 -0.218036 0
M  V30 31069 C 3005.55 3.12584 -0.161353 0
M  V30 31070 C 3006.03 4.55546 -0.473518 0
M  V30 31071 N 3007.52 4.61259 -0.423575 0
M  V30 31072 C 3008.26 5.69835 -0.638434 0
M  V30 31073 N 3007.75 6.86721 -0.915779 0
M  V30 31074 N 3009.54 5.59203 -0.569962 0
M  V30 31075 H 3001.7 1.76187 -1.18625 0
M  V30 31076 H 3003.96 0.819579 -0.47644 0
M  V30 31077 H 3003.66 3.29455 -1.23096 0
M  V30 31078 H 3003.54 3.74377 0.460641 0
M  V30 31079 H 3005.93 2.82826 0.842224 0
M  V30 31080 H 3006.01 2.40416 -0.873703 0
M  V30 31081 H 3005.65 4.86023 -1.47459 0
M  V30 31082 H 3005.58 5.25957 0.260175 0
M  V30 31083 H 3008.07 3.77274 -0.217449 0
M  V30 31084 H 3008.38 7.65392 -1.06747 0
M  V30 31085 H 3006.73 6.88433 -0.953121 0
M  V30 31086 H 3009.92 4.66764 -0.353422 0
M  V30 31087 H 3010.09 6.43751 -0.740811 0
M  V30 31088 N 3003.5 -0.038404 1.57553 0
M  V30 31089 C 3004.74 -0.736036 1.90688 0
M  V30 31090 C 3005.1 -1.73017 0.832411 0
M  V30 31091 O 3006.3 -2.47537 1.04781 0
M  V30 31092 C 3004.58 -1.39629 3.28996 0
M  V30 31093 S 3006.13 -2.12437 3.83948 0
M  V30 31094 H 3002.95 -0.244048 0.667804 0
M  V30 31095 H 3005.55 0.00905079 1.95498 0
M  V30 31096 H 3004.26 -0.659394 4.05068 0
M  V30 31097 H 3003.79 -2.18012 3.27466 0
M  V30 31098 H 3005.8 -3.39451 3.61922 0
M  V30 31099 N 3004.98 -1.54511 -0.310498 0
M  V30 31100 C 3006.39 -1.64439 -0.884113 0
M  V30 31101 C 3006.74 -0.546889 -1.88424 0
M  V30 31102 O 3005.86 0.318072 -2.1405 0
M  V30 31103 C 3006.46 -2.98083 -1.61034 0
M  V30 31104 C 3005.02 -3.10164 -2.1325 0
M  V30 31105 C 3004.17 -2.60075 -0.962084 0
M  V30 31106 H 3007.12 -1.58457 -0.0877387 0
M  V30 31107 H 3007.14 -2.88974 -2.47536 0
M  V30 31108 H 3006.65 -3.77941 -0.882189 0
M  V30 31109 H 3004.75 -2.35007 -2.89141 0
M  V30 31110 H 3004.86 -4.16173 -2.37354 0
M  V30 31111 H 3003.23 -2.16293 -1.34497 0
M  V30 31112 H 3004.01 -3.42403 -0.248038 0
M  V30 31113 N 3006.46 0.573222 -1.46806 0
M  V30 31114 C 3007.7 1.34202 -1.54172 0
M  V30 31115 C 3008.06 1.9103 -0.192709 0
M  V30 31116 O 3009.26 2.68429 -0.141159 0
M  V30 31117 C 3007.53 2.43424 -2.61686 0
M  V30 31118 S 3009.09 3.30604 -2.88525 0
M  V30 31119 H 3005.91 0.457091 -0.5446 0
M  V30 31120 H 3008.51 0.657968 -1.84095 0
M  V30 31121 H 3007.21 2.00082 -3.58323 0
M  V30 31122 H 3006.75 3.16589 -2.33527 0
M  V30 31123 H 3008.76 4.425 -2.24518 0
M  V30 31124 N 3007.93 1.3467 0.818645 0
M  V30 31125 C 3009.18 1.27015 1.57199 0
M  V30 31126 C 3009.5 -0.158565 1.94354 0
M  V30 31127 O 3008.77 -1.0922 1.62628 0
M  V30 31128 H 3007.35 0.467145 0.58291 0
M  V30 31129 H 3010.01 1.68632 0.977204 0
M  V30 31130 H 3009.11 1.87782 2.49287 0
M  V30 31131 N 3009.41 -1.03936 1.1847 0
M  V30 31132 C 3010.37 -2.10145 0.914981 0
M  V30 31133 C 3011.37 -1.60488 -0.100192 0
M  V30 31134 O 3012.56 -1.73689 0.133396 0
M  V30 31135 C 3009.7 -3.38853 0.373052 0
M  V30 31136 H 3010.89 -2.35505 1.85681 0
M  V30 31137 H 3008.44 -1.20381 0.996897 0
M  V30 31138 H 3009.18 -3.19156 -0.575324 0
M  V30 31139 H 3008.96 -3.76211 1.10487 0
M  V30 31140 H 3010.45 -4.17106 0.203087 0
M  V30 31141 N 3010.89 -0.986938 -1.22871 0
M  V30 31142 C 3011.84 -0.525082 -2.26596 0
M  V30 31143 C 3012.83 0.421223 -1.64079 0
M  V30 31144 O 3014.04 0.294398 -1.77576 0
M  V30 31145 H 3010.41 -0.151394 -0.736603 0
M  V30 31146 H 3012.38 -1.41147 -2.62907 0
M  V30 31147 C 3011.13 0.150481 -3.47374 0
M  V30 31148 H 3010.46 -0.56861 -3.95736 0
M  V30 31149 H 3011.9 0.437182 -4.2174 0
M  V30 31150 C 3010.35 1.38387 -3.07166 0
M  V30 31151 O 3010.88 2.47965 -3.16032 0
M  V30 31152 N 3009.09 1.25692 -2.62011 0
M  V30 31153 H 3008.64 0.36531 -2.54997 0
M  V30 31154 H 3008.6 2.08323 -2.35476 0
M  V30 31155 N 3012.37 1.38098 -0.759394 0
M  V30 31156 C 3013.62 1.99227 -0.314899 0
M  V30 31157 C 3013.93 1.60966 1.11127 0
M  V30 31158 O 3015.14 2.15108 1.65653 0
M  V30 31159 C 3013.59 3.56239 -0.512064 0
M  V30 31160 C 3013.2 4.03446 -1.94769 0
M  V30 31161 C 3014.94 4.24299 -0.130572 0
M  V30 31162 C 3012.85 5.53121 -2.09311 0
M  V30 31163 H 3011.78 0.745333 -0.113991 0
M  V30 31164 H 3014.43 1.57788 -0.936764 0
M  V30 31165 H 3012.81 3.95595 0.179074 0
M  V30 31166 H 3013.99 3.75366 -2.67277 0
M  V30 31167 H 3012.3 3.48129 -2.28463 0
M  V30 31168 H 3014.9 5.34256 -0.217904 0
M  V30 31169 H 3015.24 4.06062 0.917572 0
M  V30 31170 H 3015.78 3.90202 -0.773784 0
M  V30 31171 H 3012.51 5.76269 -3.124 0
M  V30 31172 H 3012.03 5.82926 -1.41271 0
M  V30 31173 H 3013.71 6.18907 -1.88581 0
M  V30 31174 N 3013.85 0.508932 1.49156 0
M  V30 31175 C 3015.07 -0.0314817 2.07376 0
M  V30 31176 C 3015.5 -1.29338 1.36577 0
M  V30 31177 O 3014.85 -1.76248 0.424994 0
M  V30 31178 C 3014.9 -0.260054 3.59661 0
M  V30 31179 O 3014.01 -1.33315 3.90257 0
M  V30 31180 H 3013.35 0.0297506 0.663333 0
M  V30 31181 H 3015.88 0.710825 1.91855 0
M  V30 31182 H 3015.89 -0.489154 4.05057 0
M  V30 31183 H 3014.56 0.661866 4.106 0
M  V30 31184 H 3013.14 -1.08838 3.56663 0
M  V30 31185 N 3015.32 -1.55714 0.243111 0
M  V30 31186 C 3016.57 -1.98458 -0.381929 0
M  V30 31187 C 3016.89 -1.1325 -1.58743 0
M  V30 31188 O 3016.16 -0.214419 -1.94723 0
M  V30 31189 H 3014.74 -0.732969 -0.144101 0
M  V30 31190 H 3017.4 -1.91893 0.341019 0
M  V30 31191 H 3016.5 -3.04294 -0.693648 0
M  V30 31192 N 3016.8 0.030048 -1.57571 0
M  V30 31193 C 3017.75 1.03881 -2.0296 0
M  V30 31194 C 3018.74 1.3209 -0.918747 0
M  V30 31195 O 3019.93 1.31692 -1.18264 0
M  V30 31196 C 3017.06 2.34023 -2.51173 0
M  V30 31197 C 3016.14 2.08909 -3.69077 0
M  V30 31198 N 3016.53 1.53849 -4.81834 0
M  V30 31199 C 3014.83 2.39197 -3.76431 0
M  V30 31200 C 3015.53 1.44516 -5.63462 0
M  V30 31201 N 3014.51 1.92039 -5.08549 0
M  V30 31202 H 3018.31 0.607107 -2.87561 0
M  V30 31203 H 3015.83 0.23637 -1.60671 0
M  V30 31204 H 3017.82 3.07099 -2.8195 0
M  V30 31205 H 3016.48 2.77874 -1.67977 0
M  V30 31206 H 3017.49 1.22134 -5.03293 0
M  V30 31207 H 3014.17 2.86128 -3.04034 0
M  V30 31208 H 3015.56 1.02445 -6.64044 0
M  V30 31209 N 3018.28 1.54674 0.3023 0
M  V30 31210 C 3019.53 1.7415 1.03921 0
M  V30 31211 C 3019.86 0.525074 1.86967 0
M  V30 31212 O 3019.13 -0.477835 1.88539 0
M  V30 31213 C 3019.42 3.02972 1.94628 0
M  V30 31214 C 3019.27 4.34911 1.1477 0
M  V30 31215 C 3020.59 3.27654 2.93821 0
M  V30 31216 H 3017.71 0.633638 0.376394 0
M  V30 31217 H 3020.35 1.87388 0.313974 0
M  V30 31218 H 3018.5 2.91817 2.56466 0
M  V30 31219 H 3020.17 4.57982 0.552282 0
M  V30 31220 H 3018.42 4.31456 0.450386 0
M  V30 31221 H 3019.09 5.21313 1.81486 0
M  V30 31222 H 3021.56 3.3841 2.42111 0
M  V30 31223 H 3020.44 4.1911 3.54455 0
M  V30 31224 H 3020.7 2.45888 3.67412 0
M  V30 31225 N 3019.76 -0.565428 1.47108 0
M  V30 31226 C 3021.17 -0.890543 1.32444 0
M  V30 31227 C 3021.37 -1.9912 0.30877 0
M  V30 31228 O 3020.43 -2.50914 -0.282606 0
M  V30 31229 C 3021.74 -1.29155 2.7155 0
M  V30 31230 C 3023.29 -1.40344 2.79773 0
M  V30 31231 C 3023.77 -1.83803 4.195 0
M  V30 31232 N 3025.26 -1.90968 4.22002 0
M  V30 31233 C 3025.99 -2.25906 5.27024 0
M  V30 31234 N 3025.49 -2.59516 6.42358 0
M  V30 31235 N 3027.28 -2.2661 5.14397 0
M  V30 31236 H 3019.43 0.161365 2.11786 0
M  V30 31237 H 3021.7 0.00952297 0.947952 0
M  V30 31238 H 3021.4 -0.556692 3.47266 0
M  V30 31239 H 3021.28 -2.24946 3.02786 0
M  V30 31240 H 3023.66 -2.12912 2.04334 0
M  V30 31241 H 3023.74 -0.427611 2.52201 0
M  V30 31242 H 3023.39 -1.11807 4.95441 0
M  V30 31243 H 3023.32 -2.82374 4.44491 0
M  V30 31244 H 3025.81 -1.67414 3.38793 0
M  V30 31245 H 3026.12 -2.85179 7.18257 0
M  V30 31246 H 3024.47 -2.57115 6.45691 0
M  V30 31247 H 3027.66 -1.99786 4.23324 0
M  V30 31248 H 3027.83 -2.53509 5.96353 0
M  V30 31249 N 3021.24 -1.35102 -0.811492 0
M  V30 31250 C 3022.17 -1.21969 -1.9287 0
M  V30 31251 C 3023.15 -0.108695 -1.62236 0
M  V30 31252 O 3024.33 -0.275908 -1.8647 0
M  V30 31253 C 3021.46 -0.876943 -3.2715 0
M  V30 31254 C 3020.5 -1.99931 -3.76736 0
M  V30 31255 S 3021.34 -3.61436 -3.95125 0
M  V30 31256 C 3022.49 -3.29227 -5.32316 0
M  V30 31257 H 3022.73 -2.16536 -2.03714 0
M  V30 31258 H 3020.26 -1.20261 -0.968331 0
M  V30 31259 H 3022.22 -0.685988 -4.04728 0
M  V30 31260 H 3020.88 0.0505737 -3.14059 0
M  V30 31261 H 3020.07 -1.71351 -4.73978 0
M  V30 31262 H 3019.67 -2.14834 -3.06141 0
M  V30 31263 H 3021.97 -2.81751 -6.16135 0
M  V30 31264 H 3022.91 -4.25651 -5.65886 0
M  V30 31265 H 3023.32 -2.65119 -4.98369 0
M  V30 31266 N 3022.71 1.03306 -1.19019 0
M  V30 31267 C 3023.96 1.76287 -0.988289 0
M  V30 31268 C 3024.28 1.88936 0.482524 0
M  V30 31269 O 3023.55 1.41989 1.34966 0
M  V30 31270 H 3022.13 0.653048 -0.362681 0
M  V30 31271 H 3024.8 1.24638 -1.49838 0
M  V30 31272 H 3023.89 2.77269 -1.43278 0
M  V30 31273 N 3024.19 0.99344 1.22346 0
M  V30 31274 C 3025.42 0.688055 1.95124 0
M  V30 31275 C 3025.84 -0.747358 1.73378 0
M  V30 31276 O 3025.19 -1.50437 1.03319 0
M  V30 31277 C 3025.24 0.985158 3.47817 0
M  V30 31278 O 3024.96 2.36417 3.68834 0
M  V30 31279 C 3026.47 0.697551 4.37777 0
M  V30 31280 H 3023.69 0.254492 0.620866 0
M  V30 31281 H 3026.23 1.32836 1.55483 0
M  V30 31282 H 3024.38 0.390651 3.85425 0
M  V30 31283 H 3024.8 2.46385 4.63028 0
M  V30 31284 H 3026.27 0.955699 5.43664 0
M  V30 31285 H 3026.75 -0.368447 4.37652 0
M  V30 31286 H 3027.36 1.27313 4.05797 0
M  V30 31287 N 3025.67 -1.37693 0.766707 0
M  V30 31288 C 3026.6 -2.27998 0.0959689 0
M  V30 31289 C 3027.58 -1.46062 -0.714468 0
M  V30 31290 O 3028.77 -1.75405 -0.690306 0
M  V30 31291 C 3025.89 -3.27322 -0.870512 0
M  V30 31292 C 3024.94 -4.26254 -0.144696 0
M  V30 31293 S 3025.77 -5.22702 1.16374 0
M  V30 31294 C 3026.93 -6.25578 0.200674 0
M  V30 31295 H 3027.16 -2.84538 0.861716 0
M  V30 31296 H 3024.69 -1.43892 0.55987 0
M  V30 31297 H 3026.65 -3.85056 -1.42275 0
M  V30 31298 H 3025.31 -2.6974 -1.60933 0
M  V30 31299 H 3024.51 -4.96308 -0.877172 0
M  V30 31300 H 3024.11 -3.72484 0.336396 0
M  V30 31301 H 3026.4 -6.74576 -0.628714 0
M  V30 31302 H 3027.34 -7.02744 0.86924 0
M  V30 31303 H 3027.75 -5.64194 -0.185872 0
M  V30 31304 N 3027.15 -0.516835 -1.48884 0
M  V30 31305 C 3028.1 0.253085 -2.29408 0
M  V30 31306 C 3029.07 0.945911 -1.36535 0
M  V30 31307 O 3030.25 0.949498 -1.65497 0
M  V30 31308 C 3027.39 1.30205 -3.19594 0
M  V30 31309 C 3026.5 0.619404 -4.27536 0
M  V30 31310 C 3025.64 1.65017 -5.04919 0
M  V30 31311 C 3024.68 0.950261 -6.04679 0
M  V30 31312 N 3023.81 1.92596 -6.75168 0
M  V30 31313 H 3028.65 -0.439796 -2.94737 0
M  V30 31314 H 3026.19 -0.228726 -1.45311 0
M  V30 31315 H 3028.15 1.92238 -3.7027 0
M  V30 31316 H 3026.78 1.96349 -2.56217 0
M  V30 31317 H 3025.83 -0.114572 -3.80227 0
M  V30 31318 H 3027.14 0.069214 -4.98752 0
M  V30 31319 H 3026.3 2.34514 -5.59543 0
M  V30 31320 H 3025.04 2.23424 -4.33512 0
M  V30 31321 H 3024.04 0.241156 -5.49271 0
M  V30 31322 H 3025.27 0.37248 -6.78078 0
M  V30 31323 H 3023.21 2.49935 -6.06521 0
M  V30 31324 H 3023.13 1.42686 -7.42413 0
M  V30 31325 H 3024.4 2.61332 -7.34388 0
M  V30 31326 N 3028.63 1.55583 -0.251365 0
M  V30 31327 C 3029.88 1.98228 0.372646 0
M  V30 31328 C 3030.19 1.14283 1.58741 0
M  V30 31329 O 3031.39 1.46962 2.28286 0
M  V30 31330 C 3029.85 3.52739 0.714377 0
M  V30 31331 C 3029.46 4.45429 -0.479247 0
M  V30 31332 C 3031.2 4.04029 1.30233 0
M  V30 31333 C 3029.11 5.91291 -0.113422 0
M  V30 31334 H 3028.04 0.740314 0.143007 0
M  V30 31335 H 3030.69 1.80087 -0.352284 0
M  V30 31336 H 3029.07 3.66591 1.49756 0
M  V30 31337 H 3030.25 4.43338 -1.25652 0
M  V30 31338 H 3028.56 4.04645 -0.98243 0
M  V30 31339 H 3031.16 5.1053 1.58944 0
M  V30 31340 H 3031.5 3.51642 2.2283 0
M  V30 31341 H 3032.03 3.9352 0.581955 0
M  V30 31342 H 3028.77 6.47724 -1.00665 0
M  V30 31343 H 3028.29 5.96508 0.627561 0
M  V30 31344 H 3029.97 6.46291 0.302816 0
M  V30 31345 N 3030.1 -0.0216912 1.57585 0
M  V30 31346 C 3031.33 -0.722585 1.93872 0
M  V30 31347 C 3031.75 -1.68496 0.851736 0
M  V30 31348 O 3031.1 -1.81695 -0.171239 0
M  V30 31349 C 3031.16 -1.47327 3.30116 0
M  V30 31350 O 3030.88 -0.54952 4.3464 0
M  V30 31351 C 3032.38 -2.27066 3.80731 0
M  V30 31352 H 3029.6 -0.202625 0.639675 0
M  V30 31353 H 3032.14 0.0229774 2.04487 0
M  V30 31354 H 3030.3 -2.17065 3.20876 0
M  V30 31355 H 3030.71 -1.07677 5.13328 0
M  V30 31356 H 3032.18 -2.75122 4.78552 0
M  V30 31357 H 3032.66 -3.08807 3.12306 0
M  V30 31358 H 3033.27 -1.62388 3.93078 0
M  V30 31359 N 3031.58 -1.54832 -0.294093 0
M  V30 31360 C 3032.83 -1.74096 -1.0264 0
M  V30 31361 C 3033.15 -0.533435 -1.87562 0
M  V30 31362 O 3032.42 0.452159 -1.9061 0
M  V30 31363 H 3031 -0.641969 -0.381948 0
M  V30 31364 H 3033.66 -1.92198 -0.32341 0
M  V30 31365 H 3032.76 -2.6331 -1.67553 0
M  V30 31366 N 3033.06 0.557619 -1.47405 0
M  V30 31367 C 3034.47 1.13974 -1.47874 0
M  V30 31368 C 3034.82 1.94809 -0.23321 0
M  V30 31369 O 3033.95 2.06028 0.661908 0
M  V30 31370 C 3034.54 2.07363 -2.67929 0
M  V30 31371 C 3033.1 2.60848 -2.71359 0
M  V30 31372 C 3032.25 1.37219 -2.40969 0
M  V30 31373 H 3035.2 0.344241 -1.54921 0
M  V30 31374 H 3035.22 2.91232 -2.44876 0
M  V30 31375 H 3034.73 1.48502 -3.58565 0
M  V30 31376 H 3032.83 3.23508 -1.84861 0
M  V30 31377 H 3032.95 3.01869 -3.72037 0
M  V30 31378 H 3031.31 1.67878 -1.91543 0
M  V30 31379 H 3032.09 0.801524 -3.33812 0
M  V30 31380 N 3034.54 1.35531 0.804316 0
M  V30 31381 C 3035.49 1.28638 1.91627 0
M  V30 31382 C 3036.46 0.157891 1.65348 0
M  V30 31383 O 3037.64 0.341967 1.8771 0
M  V30 31384 C 3034.78 1.06656 3.28205 0
M  V30 31385 C 3033.89 2.28447 3.66655 0
M  V30 31386 C 3033.03 1.99596 4.92275 0
M  V30 31387 C 3032.07 3.17429 5.23359 0
M  V30 31388 N 3031.21 2.8834 6.4016 0
M  V30 31389 H 3036.05 2.23724 1.96854 0
M  V30 31390 H 3033.58 1.1121 0.962852 0
M  V30 31391 H 3035.54 0.919415 4.06943 0
M  V30 31392 H 3034.17 0.15231 3.2244 0
M  V30 31393 H 3033.22 2.54018 2.83159 0
M  V30 31394 H 3034.53 3.16427 3.85585 0
M  V30 31395 H 3033.69 1.81726 5.78844 0
M  V30 31396 H 3032.43 1.08905 4.75385 0
M  V30 31397 H 3031.43 3.35875 4.35279 0
M  V30 31398 H 3032.66 4.08926 5.42178 0
M  V30 31399 H 3030.6 2.00244 6.24691 0
M  V30 31400 H 3030.52 3.69854 6.59351 0
M  V30 31401 H 3031.79 2.74015 7.29751 0
M  V30 31402 N 3036.02 -1.02674 1.19565 0
M  V30 31403 C 3037.25 -1.79731 1.02492 0
M  V30 31404 C 3037.66 -1.83925 -0.42627 0
M  V30 31405 O 3037.02 -1.28485 -1.29606 0
M  V30 31406 C 3037.07 -3.2468 1.58949 0
M  V30 31407 O 3036.79 -3.20774 2.98388 0
M  V30 31408 C 3038.29 -4.18327 1.46688 0
M  V30 31409 H 3035.51 -0.565546 0.361108 0
M  V30 31410 H 3038.05 -1.29309 1.58428 0
M  V30 31411 H 3036.21 -3.72285 1.07156 0
M  V30 31412 H 3036.62 -4.11681 3.2499 0
M  V30 31413 H 3038.1 -5.17914 1.90968 0
M  V30 31414 H 3038.57 -4.37209 0.41774 0
M  V30 31415 H 3039.18 -3.76597 1.97623 0
M  V30 31416 N 3037.5 -0.999914 -1.21817 0
M  V30 31417 C 3038.74 -0.68803 -1.92472 0
M  V30 31418 C 3039.1 0.766538 -1.76035 0
M  V30 31419 O 3040.3 1.19017 -2.41016 0
M  V30 31420 C 3038.57 -1.09135 -3.4033 0
M  V30 31421 S 3040.13 -0.898897 -4.29494 0
M  V30 31422 H 3036.95 -0.251341 -0.665093 0
M  V30 31423 H 3039.55 -1.28367 -1.47452 0
M  V30 31424 H 3038.25 -2.14621 -3.49809 0
M  V30 31425 H 3037.79 -0.487793 -3.90364 0
M  V30 31426 H 3039.8 0.206786 -4.95769 0
M  V30 31427 N 3038.97 1.37284 -0.773999 0
M  V30 31428 C 3039.9 2.32837 -0.175823 0
M  V30 31429 C 3040.88 1.55892 0.680576 0
M  V30 31430 O 3042.07 1.84119 0.617575 0
M  V30 31431 C 3039.2 3.40124 0.702328 0
M  V30 31432 C 3038.15 4.27967 -0.052944 0
M  V30 31433 C 3037.48 5.26287 0.944799 0
M  V30 31434 C 3038.78 5.07531 -1.23325 0
M  V30 31435 H 3040.47 2.83112 -0.974066 0
M  V30 31436 H 3038.02 1.36119 -0.46985 0
M  V30 31437 H 3039.97 4.05949 1.13062 0
M  V30 31438 H 3038.7 2.8838 1.53311 0
M  V30 31439 H 3037.36 3.63677 -0.462042 0
M  V30 31440 H 3037 4.70822 1.7702 0
M  V30 31441 H 3036.7 5.8592 0.443976 0
M  V30 31442 H 3038.23 5.94986 1.37199 0
M  V30 31443 H 3039.64 5.66483 -0.881495 0
M  V30 31444 H 3038.04 5.76502 -1.66631 0
M  V30 31445 H 3039.11 4.40074 -2.03625 0
M  V30 31446 N 3040.45 0.524724 1.48608 0
M  V30 31447 C 3041.4 -0.254358 2.31205 0
M  V30 31448 C 3042.39 -0.940466 1.40896 0
M  V30 31449 O 3043.6 -0.86545 1.57829 0
M  V30 31450 H 3039.97 -0.100894 0.745201 0
M  V30 31451 H 3041.95 0.461928 2.94803 0
M  V30 31452 C 3040.69 -1.29154 3.22823 0
M  V30 31453 H 3040.02 -0.773005 3.92256 0
M  V30 31454 H 3041.46 -1.80818 3.83511 0
M  V30 31455 C 3039.92 -2.32238 2.44064 0
M  V30 31456 O 3040.45 -3.38576 2.16169 0
M  V30 31457 N 3038.65 -2.05316 2.05655 0
M  V30 31458 H 3038.2 -1.18857 2.28541 0
M  V30 31459 H 3038.16 -2.7451 1.5327 0
M  V30 31460 N 3041.93 -1.55447 0.259613 0
M  V30 31461 C 3042.86 -2.24883 -0.62848 0
M  V30 31462 C 3043.84 -1.23351 -1.17126 0
M  V30 31463 O 3045.03 -1.52035 -1.20826 0
M  V30 31464 C 3042.16 -2.95806 -1.81978 0
M  V30 31465 C 3041.11 -4.04135 -1.40922 0
M  V30 31466 C 3040.44 -4.6255 -2.68238 0
M  V30 31467 C 3041.74 -5.19171 -0.570864 0
M  V30 31468 H 3043.43 -2.99359 -0.0494495 0
M  V30 31469 H 3040.98 -1.43983 -0.0223435 0
M  V30 31470 H 3042.93 -3.43087 -2.44683 0
M  V30 31471 H 3041.65 -2.18839 -2.4244 0
M  V30 31472 H 3040.31 -3.57642 -0.805456 0
M  V30 31473 H 3039.96 -3.82269 -3.26924 0
M  V30 31474 H 3039.66 -5.35685 -2.41486 0
M  V30 31475 H 3041.18 -5.12571 -3.31818 0
M  V30 31476 H 3042.6 -5.62599 -1.10252 0
M  V30 31477 H 3040.99 -5.98773 -0.398874 0
M  V30 31478 H 3042.06 -4.83129 0.414003 0
M  V30 31479 N 3043.41 0.0133338 -1.57594 0
M  V30 31480 C 3044.65 0.696423 -1.91106 0
M  V30 31481 C 3045.01 1.72115 -0.859902 0
M  V30 31482 O 3044.3 1.91162 0.129546 0
M  V30 31483 C 3044.5 1.3933 -3.29123 0
M  V30 31484 C 3044.32 0.437587 -4.47566 0
M  V30 31485 C 3043.09 0.0528565 -5.05272 0
M  V30 31486 C 3045.29 -0.290627 -5.13478 0
M  V30 31487 N 3043.27 -0.902462 -6.0723 0
M  V30 31488 C 3044.65 -1.10107 -6.10145 0
M  V30 31489 C 3046.7 -0.355891 -4.96626 0
M  V30 31490 C 3045.4 -1.97081 -6.91774 0
M  V30 31491 C 3047.43 -1.21281 -5.78831 0
M  V30 31492 C 3046.79 -2.01114 -6.7508 0
M  V30 31493 H 3042.89 0.228451 -0.747886 0
M  V30 31494 H 3045.47 -0.0438805 -1.94651 0
M  V30 31495 H 3043.65 2.10397 -3.26478 0
M  V30 31496 H 3045.38 2.03002 -3.50103 0
M  V30 31497 H 3042.13 0.418403 -4.71748 0
M  V30 31498 H 3042.56 -1.3751 -6.62888 0
M  V30 31499 H 3047.2 0.247031 -4.22078 0
M  V30 31500 H 3044.92 -2.58446 -7.65657 0
M  V30 31501 H 3048.5 -1.26704 -5.67836 0
M  V30 31502 H 3047.38 -2.6635 -7.37582 0
M  V30 31503 N 3044.89 1.54985 0.285878 0
M  V30 31504 C 3045.82 1.83373 1.37502 0
M  V30 31505 C 3046.83 0.71748 1.46137 0
M  V30 31506 O 3048.02 0.995168 1.48185 0
M  V30 31507 C 3045.12 1.97021 2.75746 0
M  V30 31508 C 3044.29 3.27566 2.8986 0
M  V30 31509 C 3043.35 3.3144 4.08698 0
M  V30 31510 O 3042.38 4.0489 4.00066 0
M  V30 31511 N 3043.58 2.57916 5.20057 0
M  V30 31512 H 3046.34 2.77377 1.135 0
M  V30 31513 H 3043.91 1.54745 0.475979 0
M  V30 31514 H 3045.9 1.96997 3.53517 0
M  V30 31515 H 3044.47 1.09943 2.92628 0
M  V30 31516 H 3043.69 3.40237 1.99079 0
M  V30 31517 H 3044.98 4.13686 2.96212 0
M  V30 31518 H 3044.37 1.979 5.29955 0
M  V30 31519 H 3042.93 2.63629 5.96106 0
M  V30 31520 N 3046.36 -0.549794 1.47699 0
M  V30 31521 C 3047.61 -1.30405 1.54399 0
M  V30 31522 C 3047.93 -1.93854 0.21106 0
M  V30 31523 O 3047.2 -1.80317 -0.765669 0
M  V30 31524 H 3045.78 -0.484279 0.568755 0
M  V30 31525 H 3048.45 -0.641412 1.84043 0
M  V30 31526 H 3047.54 -2.09371 2.31453 0
M  V30 31527 N 3047.84 -1.35955 -0.797117 0
M  V30 31528 C 3049.07 -1.32893 -1.58578 0
M  V30 31529 C 3049.49 0.0915233 -1.88578 0
M  V30 31530 O 3048.84 1.04622 -1.49534 0
M  V30 31531 C 3048.89 -2.14289 -2.9114 0
M  V30 31532 O 3048.61 -3.50798 -2.62436 0
M  V30 31533 C 3050.12 -2.18921 -3.85472 0
M  V30 31534 H 3047.34 -0.456153 -0.492103 0
M  V30 31535 H 3049.88 -1.78944 -0.989908 0
M  V30 31536 H 3048.03 -1.71814 -3.47216 0
M  V30 31537 H 3048.45 -3.93182 -3.47143 0
M  V30 31538 H 3049.92 -2.80246 -4.75569 0
M  V30 31539 H 3050.4 -1.19054 -4.22756 0
M  V30 31540 H 3051.01 -2.61599 -3.3533 0
M  V30 31541 N 3049.32 1.02038 -1.20108 0
M  V30 31542 C 3050.57 1.75576 -1.00892 0
M  V30 31543 C 3050.9 1.88997 0.459382 0
M  V30 31544 O 3050.15 1.40979 1.35732 0
M  V30 31545 C 3050.45 3.17905 -1.63313 0
M  V30 31546 C 3050.12 3.24471 -3.13097 0
M  V30 31547 C 3048.78 3.25969 -3.53974 0
M  V30 31548 C 3051.13 3.22936 -4.09098 0
M  V30 31549 C 3048.46 3.23601 -4.89386 0
M  V30 31550 C 3050.81 3.22109 -5.44452 0
M  V30 31551 C 3049.47 3.2191 -5.84748 0
M  V30 31552 H 3048.74 0.642478 -0.369192 0
M  V30 31553 H 3051.39 1.19703 -1.49477 0
M  V30 31554 H 3049.7 3.76912 -1.06981 0
M  V30 31555 H 3051.39 3.73491 -1.45965 0
M  V30 31556 H 3047.98 3.24037 -2.80532 0
M  V30 31557 H 3052.17 3.20952 -3.78555 0
M  V30 31558 H 3047.42 3.21776 -5.19875 0
M  V30 31559 H 3051.6 3.19874 -6.1859 0
M  V30 31560 H 3049.22 3.19829 -6.89647 0
M  V30 31561 N 3050.8 1.00636 1.21285 0
M  V30 31562 C 3052.21 0.722945 1.72135 0
M  V30 31563 C 3052.56 -0.759306 1.80912 0
M  V30 31564 O 3051.69 -1.59306 1.46461 0
M  V30 31565 C 3052.28 1.30566 3.12631 0
M  V30 31566 C 3050.84 1.07134 3.60831 0
M  V30 31567 C 3049.99 1.41765 2.38324 0
M  V30 31568 H 3052.94 1.17709 1.06443 0
M  V30 31569 H 3052.96 0.691003 3.74173 0
M  V30 31570 H 3052.47 2.38446 3.06211 0
M  V30 31571 H 3050.57 0.0097522 3.72599 0
M  V30 31572 H 3050.68 1.74418 4.46223 0
M  V30 31573 H 3049.05 0.836455 2.40573 0
M  V30 31574 H 3049.83 2.50678 2.34553 0
M  V30 31575 N 3052.28 -1.36872 0.781268 0
M  V30 31576 C 3053.53 -1.98701 0.346555 0
M  V30 31577 C 3053.84 -1.62714 -1.08552 0
M  V30 31578 O 3055.04 -2.17716 -1.6221 0
M  V30 31579 C 3053.5 -3.55379 0.568673 0
M  V30 31580 C 3053.11 -4.00297 2.01163 0
M  V30 31581 C 3054.85 -4.24038 0.198058 0
M  V30 31582 C 3052.76 -5.49721 2.18084 0
M  V30 31583 H 3051.69 -0.743426 0.125834 0
M  V30 31584 H 3054.34 -1.56278 0.961748 0
M  V30 31585 H 3052.72 -3.9583 -0.116116 0
M  V30 31586 H 3053.9 -3.71066 2.73215 0
M  V30 31587 H 3052.21 -3.4445 2.33973 0
M  V30 31588 H 3054.81 -5.33842 0.302872 0
M  V30 31589 H 3055.15 -4.0747 -0.852855 0
M  V30 31590 H 3055.68 -3.88921 0.835764 0
M  V30 31591 H 3052.42 -5.71226 3.21529 0
M  V30 31592 H 3051.94 -5.80605 1.50527 0
M  V30 31593 H 3053.62 -6.15829 1.98404 0
M  V30 31594 N 3053.75 -0.532597 -1.48328 0
M  V30 31595 C 3054.7 0.242093 -2.31337 0
M  V30 31596 C 3055.7 0.932981 -1.41392 0
M  V30 31597 O 3056.9 0.857068 -1.58286 0
M  V30 31598 H 3053.28 0.0969405 -0.745726 0
M  V30 31599 H 3055.25 -0.477556 -2.94554 0
M  V30 31600 C 3054 1.2744 -3.23503 0
M  V30 31601 H 3053.32 0.752192 -3.9266 0
M  V30 31602 H 3054.76 1.78782 -3.84465 0
M  V30 31603 C 3053.22 2.3094 -2.45292 0
M  V30 31604 O 3053.75 3.37425 -2.17961 0
M  V30 31605 N 3051.96 2.04222 -2.06741 0
M  V30 31606 H 3051.5 1.17643 -2.29168 0
M  V30 31607 H 3051.46 2.73693 -1.54723 0
M  V30 31608 N 3055.23 1.55307 -0.267853 0
M  V30 31609 C 3056.47 2.01341 0.352281 0
M  V30 31610 C 3056.84 1.15213 1.53591 0
M  V30 31611 O 3058.04 1.50794 2.22518 0
M  V30 31612 C 3056.31 3.49828 0.731795 0
M  V30 31613 S 3057.87 4.17855 1.33949 0
M  V30 31614 H 3054.69 0.702453 0.109914 0
M  V30 31615 H 3057.29 1.91611 -0.387989 0
M  V30 31616 H 3055.99 4.10166 -0.138633 0
M  V30 31617 H 3055.52 3.63527 1.50371 0
M  V30 31618 H 3057.54 4.20878 2.62823 0
M  V30 31619 N 3056.71 -0.00497598 1.57599 0
M  V30 31620 C 3057.94 -0.700964 1.94345 0
M  V30 31621 C 3058.35 -1.68112 0.868041 0
M  V30 31622 O 3057.69 -1.82983 -0.162108 0
M  V30 31623 C 3057.75 -1.49263 3.27049 0
M  V30 31624 C 3057.42 -0.674605 4.51993 0
M  V30 31625 C 3058.41 0.0355746 5.19888 0
M  V30 31626 C 3056.1 -0.622041 4.98433 0
M  V30 31627 C 3058.09 0.787357 6.32518 0
M  V30 31628 C 3055.78 0.13347 6.10954 0
M  V30 31629 C 3056.78 0.836907 6.77853 0
M  V30 31630 O 3056.47 1.5801 7.88218 0
M  V30 31631 H 3056.2 -0.200519 0.645576 0
M  V30 31632 H 3058.75 0.0407541 2.0536 0
M  V30 31633 H 3056.98 -2.27871 3.12428 0
M  V30 31634 H 3058.67 -2.07348 3.48943 0
M  V30 31635 H 3059.44 0.00408684 4.85 0
M  V30 31636 H 3055.32 -1.15909 4.46191 0
M  V30 31637 H 3058.86 1.33695 6.84669 0
M  V30 31638 H 3054.76 0.166796 6.45284 0
M  V30 31639 H 3055.53 1.49629 8.04707 0
M  V30 31640 N 3058.19 -1.55135 -0.277654 0
M  V30 31641 C 3059.42 -1.79541 -1.02823 0
M  V30 31642 C 3059.83 -0.566405 -1.80104 0
M  V30 31643 O 3059.19 0.464417 -1.76492 0
M  V30 31644 C 3059.24 -3.01765 -1.99047 0
M  V30 31645 O 3058.96 -4.19919 -1.24898 0
M  V30 31646 C 3060.46 -3.3874 -2.85955 0
M  V30 31647 H 3057.68 -0.598212 -0.303947 0
M  V30 31648 H 3060.23 -2.02139 -0.309849 0
M  V30 31649 H 3058.38 -2.81308 -2.66354 0
M  V30 31650 H 3058.79 -4.88987 -1.89717 0
M  V30 31651 H 3060.27 -4.27444 -3.49279 0
M  V30 31652 H 3060.75 -2.57934 -3.55481 0
M  V30 31653 H 3061.35 -3.6144 -2.24146 0
M  V30 31654 N 3059.67 0.541953 -1.47989 0
M  V30 31655 C 3060.58 1.6748 -1.64279 0
M  V30 31656 C 3061.59 1.65878 -0.525416 0
M  V30 31657 O 3062.77 1.85048 -0.794945 0
M  V30 31658 C 3059.83 3.03966 -1.6675 0
M  V30 31659 C 3058.89 3.16517 -2.90027 0
M  V30 31660 C 3058.13 4.46493 -2.92369 0
M  V30 31661 O 3058.35 5.32875 -2.03472 0
M  V30 31662 O 3057.28 4.63157 -3.84408 0
M  V30 31663 H 3061.11 1.56675 -2.60166 0
M  V30 31664 H 3058.7 0.713697 -1.31251 0
M  V30 31665 H 3060.58 3.85161 -1.70965 0
M  V30 31666 H 3059.25 3.1512 -0.740332 0
M  V30 31667 H 3058.16 2.34662 -2.91349 0
M  V30 31668 H 3059.49 3.10274 -3.82088 0
M  V30 31669 N 3061.15 1.36376 0.789896 0
M  V30 31670 C 3062.39 1.30321 1.54469 0
M  V30 31671 C 3062.71 -0.117304 1.94647 0
M  V30 31672 O 3061.98 -1.05746 1.64908 0
M  V30 31673 H 3060.56 0.479404 0.57287 0
M  V30 31674 H 3063.23 1.70667 0.941215 0
M  V30 31675 H 3062.32 1.93028 2.45248 0
M  V30 31676 N 3062.62 -1.014 1.20647 0
M  V30 31677 C 3064.03 -1.56488 1.01826 0
M  V30 31678 C 3064.39 -1.91551 -0.424596 0
M  V30 31679 O 3063.51 -1.72516 -1.30641 0
M  V30 31680 C 3064.11 -2.84343 1.84213 0
M  V30 31681 C 3062.66 -3.3595 1.69749 0
M  V30 31682 C 3061.81 -2.0923 1.81984 0
M  V30 31683 H 3064.76 -0.837516 1.34801 0
M  V30 31684 H 3064.78 -3.55858 1.34704 0
M  V30 31685 H 3064.3 -2.58792 2.8922 0
M  V30 31686 H 3062.4 -3.66455 0.673897 0
M  V30 31687 H 3062.51 -4.07977 2.5118 0
M  V30 31688 H 3060.87 -2.21806 1.25197 0
M  V30 31689 H 3061.66 -1.86102 2.8848 0
M  V30 31690 N 3064.1 -1.01278 -1.2075 0
M  V30 31691 C 3065.34 -0.708406 -1.91732 0
M  V30 31692 C 3065.71 0.747824 -1.76838 0
M  V30 31693 O 3066.91 1.16454 -2.42264 0
M  V30 31694 C 3065.18 -1.12738 -3.39153 0
M  V30 31695 S 3066.74 -0.9444 -4.28517 0
M  V30 31696 H 3063.55 -0.258381 -0.66239 0
M  V30 31697 H 3066.16 -1.29924 -1.46082 0
M  V30 31698 H 3064.86 -2.18319 -3.47513 0
M  V30 31699 H 3064.39 -0.529169 -3.89825 0
M  V30 31700 H 3066.41 0.154191 -4.9596 0
M  V30 31701 N 3065.58 1.36456 -0.788516 0
M  V30 31702 C 3066.83 1.99561 -0.361031 0
M  V30 31703 C 3067.16 1.62439 1.0643 0
M  V30 31704 O 3066.43 0.878736 1.73518 0
M  V30 31705 C 3066.72 3.5627 -0.523798 0
M  V30 31706 C 3066.57 4.03248 -1.99275 0
M  V30 31707 C 3067.89 4.40057 0.0617135 0
M  V30 31708 H 3065.01 0.724964 -0.132653 0
M  V30 31709 H 3067.65 1.61883 -0.994688 0
M  V30 31710 H 3065.8 3.88497 0.0156296 0
M  V30 31711 H 3067.47 3.81513 -2.59317 0
M  V30 31712 H 3065.71 3.54822 -2.49567 0
M  V30 31713 H 3066.39 5.12217 -2.05761 0
M  V30 31714 H 3068.86 4.14185 -0.398747 0
M  V30 31715 H 3067.74 5.48838 -0.0822053 0
M  V30 31716 H 3068 4.2678 1.15373 0
M  V30 31717 N 3067.06 0.540456 1.48043 0
M  V30 31718 C 3068.47 0.102695 1.86417 0
M  V30 31719 C 3068.82 -1.3229 1.44892 0
M  V30 31720 O 3067.94 -1.99248 0.844355 0
M  V30 31721 C 3068.54 0.179592 3.38324 0
M  V30 31722 C 3067.1 -0.203032 3.75852 0
M  V30 31723 C 3066.25 0.534684 2.72096 0
M  V30 31724 H 3069.2 0.751127 1.39799 0
M  V30 31725 H 3069.22 -0.606081 3.75642 0
M  V30 31726 H 3068.73 1.21727 3.68516 0
M  V30 31727 H 3066.83 -1.24246 3.51275 0
M  V30 31728 H 3066.94 0.143868 4.78884 0
M  V30 31729 H 3065.31 -0.0202911 2.54692 0
M  V30 31730 H 3066.09 1.5732 3.05132 0
M  V30 31731 N 3068.54 -1.55163 0.276085 0
M  V30 31732 C 3069.48 -2.22566 -0.610967 0
M  V30 31733 C 3070.45 -1.19947 -1.149 0
M  V30 31734 O 3071.64 -1.48492 -1.19812 0
M  V30 31735 C 3068.78 -2.9512 -1.7888 0
M  V30 31736 C 3067.89 -4.12461 -1.28453 0
M  V30 31737 C 3067.03 -4.72657 -2.42423 0
M  V30 31738 C 3066.06 -5.82189 -1.89004 0
M  V30 31739 N 3065.2 -6.36444 -2.96452 0
M  V30 31740 H 3070.04 -2.97985 -0.0295325 0
M  V30 31741 H 3067.58 -1.471 -0.00281021 0
M  V30 31742 H 3069.54 -3.35403 -2.48115 0
M  V30 31743 H 3068.17 -2.22123 -2.34225 0
M  V30 31744 H 3067.22 -3.77292 -0.485245 0
M  V30 31745 H 3068.53 -4.91448 -0.853272 0
M  V30 31746 H 3067.68 -5.15663 -3.1965 0
M  V30 31747 H 3066.42 -3.92948 -2.88865 0
M  V30 31748 H 3065.43 -5.38631 -1.10258 0
M  V30 31749 H 3066.65 -6.63766 -1.43498 0
M  V30 31750 H 3064.6 -5.59629 -3.42273 0
M  V30 31751 H 3064.52 -7.10706 -2.57746 0
M  V30 31752 H 3065.78 -6.84109 -3.73651 0
M  V30 31753 N 3070.01 -0.00338196 -1.576 0
M  V30 31754 C 3071.42 0.538977 -1.78751 0
M  V30 31755 C 3071.78 1.73761 -0.911127 0
M  V30 31756 O 3070.9 2.16097 -0.114514 0
M  V30 31757 C 3071.5 0.984554 -3.24179 0
M  V30 31758 C 3070.05 1.4722 -3.46415 0
M  V30 31759 C 3069.2 0.424956 -2.74024 0
M  V30 31760 H 3072.15 -0.229539 -1.57031 0
M  V30 31761 H 3072.17 1.85038 -3.32477 0
M  V30 31762 H 3071.69 0.111967 -3.87938 0
M  V30 31763 H 3069.79 2.36557 -2.87875 0
M  V30 31764 H 3069.9 1.49733 -4.55101 0
M  V30 31765 H 3068.26 0.887352 -2.38743 0
M  V30 31766 H 3069.05 -0.438722 -3.40485 0
M  V30 31767 N 3071.49 1.5528 0.269423 0
M  V30 31768 C 3072.9 1.66726 0.840204 0
M  V30 31769 C 3073.25 0.596654 1.86908 0
M  V30 31770 O 3072.38 -0.261209 2.14818 0
M  V30 31771 C 3072.97 3.02248 1.53075 0
M  V30 31772 C 3071.53 3.15709 2.04951 0
M  V30 31773 C 3070.68 2.62535 0.892792 0
M  V30 31774 H 3073.63 1.58634 0.0456957 0
M  V30 31775 H 3073.65 2.95436 2.39787 0
M  V30 31776 H 3073.16 3.80147 0.781674 0
M  V30 31777 H 3071.26 2.4259 2.82809 0
M  V30 31778 H 3071.38 4.2232 2.26236 0
M  V30 31779 H 3069.74 2.19783 1.28715 0
M  V30 31780 H 3070.52 3.4294 0.157169 0
M  V30 31781 N 3072.97 -0.534097 1.48274 0
M  V30 31782 C 3074.38 -1.11607 1.49669 0
M  V30 31783 C 3074.73 -1.94413 0.264173 0
M  V30 31784 O 3073.86 -2.07055 -0.629047 0
M  V30 31785 C 3074.45 -2.03074 2.71194 0
M  V30 31786 C 3073.01 -2.56498 2.75474 0
M  V30 31787 C 3072.16 -1.33368 2.43122 0
M  V30 31788 H 3075.11 -0.319551 1.5545 0
M  V30 31789 H 3075.13 -2.87299 2.49478 0
M  V30 31790 H 3074.64 -1.42779 3.60882 0
M  V30 31791 H 3072.74 -3.20526 1.89984 0
M  V30 31792 H 3072.86 -2.95912 3.76793 0
M  V30 31793 H 3071.22 -1.6481 1.9419 0
M  V30 31794 H 3072 -0.748316 3.35045 0
M  V30 31795 N 3074.45 -1.36793 -0.782652 0
M  V30 31796 C 3075.4 -1.31741 -1.91695 0
M  V30 31797 C 3076.39 -0.208024 -1.68118 0
M  V30 31798 O 3077.6 -0.375424 -1.76041 0
M  V30 31799 H 3073.97 -0.410295 -0.630208 0
M  V30 31800 H 3075.94 -2.27519 -1.93074 0
M  V30 31801 C 3074.69 -1.13035 -3.28814 0
M  V30 31802 H 3074.01 -1.9765 -3.47527 0
M  V30 31803 H 3075.45 -1.13548 -4.08513 0
M  V30 31804 C 3073.91 0.164641 -3.36497 0
M  V30 31805 O 3074.44 1.15209 -3.84824 0
M  V30 31806 N 3072.65 0.211627 -2.89828 0
M  V30 31807 H 3072.2 -0.592564 -2.50692 0
M  V30 31808 H 3072.15 1.07774 -2.95351 0
M  V30 31809 N 3075.93 1.00759 -1.21184 0
M  V30 31810 C 3077.16 1.77819 -1.05185 0
M  V30 31811 C 3077.56 1.84891 0.401495 0
M  V30 31812 O 3076.91 1.30746 1.2904 0
M  V30 31813 C 3076.97 3.23371 -1.57071 0
M  V30 31814 C 3076.63 3.39883 -3.05497 0
M  V30 31815 C 3077.63 3.28374 -4.03071 0
M  V30 31816 C 3075.32 3.65409 -3.44647 0
M  V30 31817 C 3077.31 3.4215 -5.37784 0
M  V30 31818 C 3075 3.78827 -4.79513 0
M  V30 31819 C 3075.99 3.67204 -5.75891 0
M  V30 31820 O 3075.68 3.80199 -7.0831 0
M  V30 31821 H 3075.41 0.565757 -0.369993 0
M  V30 31822 H 3077.97 1.27652 -1.60917 0
M  V30 31823 H 3076.2 3.74662 -0.957339 0
M  V30 31824 H 3077.89 3.82097 -1.36956 0
M  V30 31825 H 3078.65 3.08582 -3.74169 0
M  V30 31826 H 3074.53 3.73539 -2.70166 0
M  V30 31827 H 3078.08 3.32995 -6.12993 0
M  V30 31828 H 3073.97 3.98123 -5.08103 0
M  V30 31829 H 3074.74 3.97163 -7.15684 0
M  V30 31830 N 3077.4 1.01917 1.20211 0
M  V30 31831 C 3078.35 0.591611 2.23089 0
M  V30 31832 C 3079.32 -0.389621 1.61466 0
M  V30 31833 O 3080.51 -0.288478 1.88607 0
M  V30 31834 C 3077.65 -0.0613422 3.45045 0
M  V30 31835 C 3076.76 0.964762 4.21089 0
M  V30 31836 C 3075.89 0.282592 5.30448 0
M  V30 31837 C 3074.93 1.29528 5.98238 0
M  V30 31838 N 3074.07 0.639595 6.99181 0
M  V30 31839 H 3078.91 1.47352 2.5902 0
M  V30 31840 H 3076.45 0.737569 1.27273 0
M  V30 31841 H 3078.41 -0.457067 4.14689 0
M  V30 31842 H 3077.04 -0.906883 3.09799 0
M  V30 31843 H 3076.09 1.47863 3.50486 0
M  V30 31844 H 3077.4 1.73483 4.67659 0
M  V30 31845 H 3076.55 -0.168496 6.06466 0
M  V30 31846 H 3075.29 -0.519758 4.84922 0
M  V30 31847 H 3074.3 1.75673 5.20979 0
M  V30 31848 H 3075.52 2.09895 6.45849 0
M  V30 31849 H 3073.47 -0.14284 6.55844 0
M  V30 31850 H 3073.39 1.34769 7.43891 0
M  V30 31851 H 3074.65 0.212184 7.79211 0
M  V30 31852 N 3078.88 -1.36036 0.795742 0
M  V30 31853 C 3080.11 -2.03321 0.383189 0
M  V30 31854 C 3080.53 -1.5999 -1.00243 0
M  V30 31855 O 3079.88 -0.792294 -1.64405 0
M  V30 31856 C 3079.93 -3.58756 0.44453 0
M  V30 31857 O 3079.65 -4.00509 1.77551 0
M  V30 31858 C 3081.16 -4.43294 0.023407 0
M  V30 31859 H 3078.38 -0.652357 0.157073 0
M  V30 31860 H 3080.92 -1.73882 1.07635 0
M  V30 31861 H 3079.07 -3.86882 -0.200273 0
M  V30 31862 H 3079.49 -4.95122 1.73073 0
M  V30 31863 H 3080.96 -5.51875 0.117458 0
M  V30 31864 H 3081.44 -4.26952 -1.02999 0
M  V30 31865 H 3082.05 -4.20443 0.640943 0
M  V30 31866 N 3080.36 -0.5483 -1.47755 0
M  V30 31867 C 3081.32 0.193817 -2.28379 0
M  V30 31868 C 3082.32 0.850962 -1.36438 0
M  V30 31869 O 3083.51 0.708192 -1.59155 0
M  V30 31870 C 3080.65 1.28238 -3.15861 0
M  V30 31871 H 3081.84 -0.514283 -2.95458 0
M  V30 31872 H 3079.39 -0.304906 -1.53297 0
M  V30 31873 H 3080.13 2.02316 -2.53454 0
M  V30 31874 H 3079.91 0.816081 -3.83513 0
M  V30 31875 H 3081.4 1.80386 -3.76631 0
M  V30 31876 N 3081.84 1.55014 -0.28431 0
M  V30 31877 C 3083.09 1.98974 0.330515 0
M  V30 31878 C 3083.4 1.17624 1.56282 0
M  V30 31879 O 3084.61 1.51771 2.25118 0
M  V30 31880 C 3083.06 3.54175 0.639395 0
M  V30 31881 C 3082.67 4.44312 -0.573621 0
M  V30 31882 C 3084.41 4.06701 1.21634 0
M  V30 31883 C 3082.32 5.90918 -0.238818 0
M  V30 31884 H 3081.25 0.743181 0.127272 0
M  V30 31885 H 3083.9 1.79299 -0.390404 0
M  V30 31886 H 3082.28 3.69685 1.41946 0
M  V30 31887 H 3083.46 4.40573 -1.35028 0
M  V30 31888 H 3081.77 4.0247 -1.06804 0
M  V30 31889 H 3084.37 5.13787 1.48079 0
M  V30 31890 H 3084.71 3.5629 2.15321 0
M  V30 31891 H 3085.25 3.94666 0.498352 0
M  V30 31892 H 3081.99 6.45443 -1.14381 0
M  V30 31893 H 3081.51 5.97705 0.500892 0
M  V30 31894 H 3083.18 6.46788 0.16566 0
M  V30 31895 N 3083.32 0.0117398 1.57596 0
M  V30 31896 C 3084.56 -0.665932 1.9219 0
M  V30 31897 C 3084.92 -1.70725 0.887175 0
M  V30 31898 O 3084.21 -1.91343 -0.0991173 0
M  V30 31899 C 3084.4 -1.34076 3.31298 0
M  V30 31900 C 3084.23 -0.366328 4.48205 0
M  V30 31901 C 3083 0.0275346 5.05292 0
M  V30 31902 C 3085.2 0.37228 5.12951 0
M  V30 31903 N 3083.18 0.998953 6.05718 0
M  V30 31904 C 3084.55 1.198 6.08316 0
M  V30 31905 C 3086.61 0.434855 4.95997 0
M  V30 31906 C 3085.31 2.08062 6.88551 0
M  V30 31907 C 3087.34 1.30474 5.76828 0
M  V30 31908 C 3086.7 2.11828 6.71795 0
M  V30 31909 H 3082.8 -0.216524 0.751426 0
M  V30 31910 H 3085.38 0.0748421 1.94556 0
M  V30 31911 H 3083.55 -2.05176 3.29784 0
M  V30 31912 H 3085.29 -1.97407 3.53288 0
M  V30 31913 H 3082.04 -0.343299 4.72354 0
M  V30 31914 H 3082.47 1.48038 6.60616 0
M  V30 31915 H 3087.11 -0.179851 4.22417 0
M  V30 31916 H 3084.83 2.70595 7.61449 0
M  V30 31917 H 3088.41 1.35722 5.65748 0
M  V30 31918 H 3087.29 2.7805 7.33251 0
M  V30 31919 N 3084.79 -1.55421 -0.261185 0
M  V30 31920 C 3086.21 -1.47525 -0.608986 0
M  V30 31921 C 3086.41 -0.699075 -1.88985 0
M  V30 31922 O 3085.47 -0.222673 -2.51516 0
M  V30 31923 C 3086.78 -2.9183 -0.724974 0
M  V30 31924 C 3088.33 -3.02115 -0.818249 0
M  V30 31925 C 3088.8 -4.47699 -0.965917 0
M  V30 31926 N 3090.29 -4.51577 -1.03115 0
M  V30 31927 C 3091.03 -5.61453 -1.16442 0
M  V30 31928 N 3090.52 -6.81169 -1.26413 0
M  V30 31929 N 3092.32 -5.49219 -1.19645 0
M  V30 31930 H 3084.47 -2.04332 0.579843 0
M  V30 31931 H 3086.73 -0.927073 0.198089 0
M  V30 31932 H 3086.44 -3.51397 0.145933 0
M  V30 31933 H 3086.31 -3.41514 -1.6015 0
M  V30 31934 H 3088.7 -2.42637 -1.67962 0
M  V30 31935 H 3088.78 -2.55665 0.0831345 0
M  V30 31936 H 3088.42 -5.07783 -0.109162 0
M  V30 31937 H 3088.35 -4.91817 -1.88213 0
M  V30 31938 H 3090.84 -3.65345 -0.966008 0
M  V30 31939 H 3091.16 -7.60659 -1.36449 0
M  V30 31940 H 3089.5 -6.83958 -1.23396 0
M  V30 31941 H 3092.69 -4.54628 -1.11493 0
M  V30 31942 H 3092.87 -6.3489 -1.29687 0
M  V30 31943 N 3086.27 0.526227 -1.48555 0
M  V30 31944 C 3087.52 1.28375 -1.56996 0
M  V30 31945 C 3087.85 1.92652 -0.244735 0
M  V30 31946 O 3087.13 1.79475 0.749604 0
M  V30 31947 C 3087.41 2.37021 -2.71096 0
M  V30 31948 C 3087.26 1.77411 -4.13335 0
M  V30 31949 C 3088.58 3.38764 -2.8094 0
M  V30 31950 H 3085.7 0.465388 -0.571474 0
M  V30 31951 H 3088.34 0.585829 -1.80743 0
M  V30 31952 H 3086.49 2.9655 -2.50979 0
M  V30 31953 H 3088.16 1.21904 -4.44901 0
M  V30 31954 H 3086.41 1.07928 -4.20159 0
M  V30 31955 H 3087.08 2.56095 -4.88998 0
M  V30 31956 H 3089.55 2.89195 -2.99175 0
M  V30 31957 H 3088.43 4.12174 -3.62496 0
M  V30 31958 H 3088.69 3.99546 -1.89251 0
M  V30 31959 N 3087.75 1.37206 0.775387 0
M  V30 31960 C 3088.71 1.32504 1.87017 0
M  V30 31961 C 3089.71 0.229821 1.59149 0
M  V30 31962 O 3090.9 0.485452 1.67299 0
M  V30 31963 C 3088.04 1.05751 3.24083 0
M  V30 31964 H 3089.23 2.29881 1.926 0
M  V30 31965 H 3086.78 1.22182 0.974739 0
M  V30 31966 H 3087.52 0.0888941 3.24178 0
M  V30 31967 H 3087.3 1.85022 3.45701 0
M  V30 31968 H 3088.79 1.05101 4.04158 0
M  V30 31969 N 3089.23 -1.00115 1.21716 0
M  V30 31970 C 3090.19 -2.07127 0.981374 0
M  V30 31971 C 3091.19 -1.60725 -0.0490833 0
M  V30 31972 O 3092.38 -1.73176 0.188586 0
M  V30 31973 C 3089.51 -3.37494 0.480667 0
M  V30 31974 H 3090.71 -2.29478 1.93079 0
M  V30 31975 H 3088.26 -1.17149 1.03469 0
M  V30 31976 H 3088.99 -3.20825 -0.473495 0
M  V30 31977 H 3088.78 -3.72506 1.224 0
M  V30 31978 H 3090.27 -4.16249 0.335684 0
M  V30 31979 N 3090.71 -1.02553 -1.19669 0
M  V30 31980 C 3091.93 -0.739397 -1.93772 0
M  V30 31981 C 3092.36 0.695033 -1.74788 0
M  V30 31982 O 3091.72 1.47942 -1.04798 0
M  V30 31983 C 3091.76 -1.09155 -3.43682 0
M  V30 31984 O 3090.87 -0.208285 -4.11874 0
M  V30 31985 H 3090.21 -0.273495 -0.605059 0
M  V30 31986 H 3092.74 -1.3713 -1.51843 0
M  V30 31987 H 3092.75 -1.04702 -3.94337 0
M  V30 31988 H 3091.42 -2.1366 -3.56822 0
M  V30 31989 H 3090 -0.311111 -3.716 0
M  V30 31990 N 3092.19 1.35612 -0.802945 0
M  V30 31991 C 3093.1 2.33638 -0.212218 0
M  V30 31992 C 3094.11 1.6169 0.642842 0
M  V30 31993 O 3095.29 1.93589 0.555451 0
M  V30 31994 C 3092.35 3.40885 0.632346 0
M  V30 31995 C 3091.41 4.28613 -0.242783 0
M  V30 31996 C 3090.65 5.30737 0.561567 0
M  V30 31997 O 3090.87 5.41369 1.79654 0
M  V30 31998 O 3089.8 6.01883 -0.0456445 0
M  V30 31999 H 3093.63 2.8595 -1.02305 0
M  V30 32000 H 3091.21 1.38318 -0.564661 0
M  V30 32001 H 3093.1 4.06422 1.11351 0
M  V30 32002 H 3091.77 2.9085 1.42084 0
M  V30 32003 H 3090.68 3.66069 -0.771005 0
M  V30 32004 H 3092.01 4.82035 -0.99513 0
M  V30 32005 N 3093.66 0.556128 1.47462 0
M  V30 32006 C 3094.89 0.0364419 2.06568 0
M  V30 32007 C 3095.3 -1.26223 1.40942 0
M  V30 32008 O 3094.64 -1.76776 0.499603 0
M  V30 32009 C 3094.71 -0.231215 3.58756 0
M  V30 32010 C 3094.37 0.977854 4.46416 0
M  V30 32011 C 3095.37 1.88314 4.84597 0
M  V30 32012 C 3093.05 1.19222 4.87946 0
M  V30 32013 C 3095.05 2.98649 5.63105 0
M  V30 32014 C 3092.73 2.29867 5.6622 0
M  V30 32015 C 3093.73 3.19411 6.0371 0
M  V30 32016 O 3093.42 4.28137 6.80407 0
M  V30 32017 H 3093.15 0.0423168 0.674674 0
M  V30 32018 H 3095.71 0.768808 1.90469 0
M  V30 32019 H 3093.94 -1.01788 3.73063 0
M  V30 32020 H 3095.62 -0.696151 3.99886 0
M  V30 32021 H 3096.39 1.72957 4.53112 0
M  V30 32022 H 3092.27 0.504427 4.58232 0
M  V30 32023 H 3095.81 3.68567 5.92287 0
M  V30 32024 H 3091.71 2.45197 5.97117 0
M  V30 32025 H 3092.48 4.26171 6.98799 0
M  V30 32026 N 3095.14 -1.54861 0.292527 0
M  V30 32027 C 3096.39 -2.00264 -0.319701 0
M  V30 32028 C 3096.72 -1.18066 -1.54188 0
M  V30 32029 O 3096 -0.255016 -1.92821 0
M  V30 32030 C 3096.28 -3.53531 -0.684691 0
M  V30 32031 C 3096.13 -4.46473 0.546039 0
M  V30 32032 C 3097.45 -4.13221 -1.51448 0
M  V30 32033 H 3094.57 -0.728016 -0.114727 0
M  V30 32034 H 3097.21 -1.85678 0.402939 0
M  V30 32035 H 3095.36 -3.66091 -1.30037 0
M  V30 32036 H 3097.03 -4.45832 1.18456 0
M  V30 32037 H 3095.28 -4.17418 1.18088 0
M  V30 32038 H 3095.95 -5.51449 0.24664 0
M  V30 32039 H 3098.42 -4.04044 -0.99435 0
M  V30 32040 H 3097.3 -5.20636 -1.73866 0
M  V30 32041 H 3097.56 -3.64555 -2.50104 0
M  V30 32042 N 3096.62 -0.0200973 -1.57587 0
M  V30 32043 C 3097.53 0.980638 -2.13121 0
M  V30 32044 C 3098.55 1.36326 -1.08126 0
M  V30 32045 O 3099.72 1.4465 -1.40136 0
M  V30 32046 C 3096.79 2.24739 -2.63995 0
M  V30 32047 C 3095.85 1.92603 -3.8367 0
M  V30 32048 C 3095.08 3.13238 -4.32108 0
M  V30 32049 O 3095.3 4.25599 -3.79765 0
M  V30 32050 O 3094.24 2.96062 -5.24052 0
M  V30 32051 H 3098.06 0.538476 -2.98888 0
M  V30 32052 H 3095.65 0.199964 -1.48056 0
M  V30 32053 H 3097.53 2.9912 -2.96826 0
M  V30 32054 H 3096.21 2.68154 -1.81316 0
M  V30 32055 H 3095.11 1.15635 -3.5578 0
M  V30 32056 H 3096.45 1.54011 -4.67484 0
M  V30 32057 N 3098.1 1.55557 0.252939 0
M  V30 32058 C 3099.34 1.77368 0.983275 0
M  V30 32059 C 3099.68 0.58429 1.85202 0
M  V30 32060 O 3098.95 -0.417611 1.89964 0
M  V30 32061 C 3099.23 3.09011 1.84891 0
M  V30 32062 C 3099.09 4.38343 1.00875 0
M  V30 32063 C 3100.41 3.36836 2.83248 0
M  V30 32064 H 3097.53 0.645292 0.356044 0
M  V30 32065 H 3100.17 1.88292 0.254199 0
M  V30 32066 H 3098.32 2.99829 2.47052 0
M  V30 32067 H 3099.99 4.59507 0.406299 0
M  V30 32068 H 3098.23 4.3267 0.312894 0
M  V30 32069 H 3098.9 5.26822 1.64809 0
M  V30 32070 H 3101.38 3.45942 2.31222 0
M  V30 32071 H 3100.26 4.30175 3.40941 0
M  V30 32072 H 3100.52 2.57453 3.59403 0
M  V30 32073 N 3099.58 -0.518341 1.48832 0
M  V30 32074 C 3100.8 -1.29797 1.61122 0
M  V30 32075 C 3101.22 -1.86773 0.275905 0
M  V30 32076 O 3100.58 -1.66984 -0.736387 0
M  V30 32077 C 3100.63 -2.44058 2.6668 0
M  V30 32078 O 3100.35 -1.89427 3.9503 0
M  V30 32079 C 3101.85 -3.35701 2.89516 0
M  V30 32080 H 3099.07 -0.394304 0.542923 0
M  V30 32081 H 3101.61 -0.624108 1.94744 0
M  V30 32082 H 3099.77 -3.07307 2.35884 0
M  V30 32083 H 3100.18 -2.64308 4.53036 0
M  V30 32084 H 3101.66 -4.12196 3.67149 0
M  V30 32085 H 3102.13 -3.91644 1.98775 0
M  V30 32086 H 3102.74 -2.78235 3.21661 0
M  V30 32087 N 3101.05 -1.37615 -0.7681 0
M  V30 32088 C 3101.99 -1.29552 -1.89074 0
M  V30 32089 C 3103 -0.210589 -1.61432 0
M  V30 32090 O 3104.19 -0.467022 -1.72282 0
M  V30 32091 C 3101.29 -0.981159 -3.24386 0
M  V30 32092 C 3100.46 -2.17228 -3.79645 0
M  V30 32093 C 3099.52 -1.82763 -4.93441 0
M  V30 32094 O 3098.55 -2.55099 -5.08835 0
M  V30 32095 N 3099.75 -0.77392 -5.75318 0
M  V30 32096 H 3102.51 -2.26286 -1.96506 0
M  V30 32097 H 3100.07 -1.31287 -0.947376 0
M  V30 32098 H 3102.07 -0.731371 -3.98036 0
M  V30 32099 H 3100.64 -0.102257 -3.12433 0
M  V30 32100 H 3099.86 -2.5836 -2.97731 0
M  V30 32101 H 3101.14 -2.96755 -4.13296 0
M  V30 32102 H 3100.54 -0.173743 -5.65433 0
M  V30 32103 H 3099.1 -0.583996 -6.49179 0
M  V30 32104 N 3102.53 0.994677 -1.22245 0
M  V30 32105 C 3103.48 2.06884 -0.95828 0
M  V30 32106 C 3104.47 1.60646 0.0904198 0
M  V30 32107 O 3105.66 1.76594 -0.119868 0
M  V30 32108 C 3102.79 3.3909 -0.536003 0
M  V30 32109 C 3101.87 3.91967 -1.61934 0
M  V30 32110 N 3102.26 4.18089 -2.84666 0
M  V30 32111 C 3100.56 4.20353 -1.49061 0
M  V30 32112 C 3101.26 4.61042 -3.54705 0
M  V30 32113 N 3100.24 4.64629 -2.82172 0
M  V30 32114 H 3104.04 2.25019 -1.8906 0
M  V30 32115 H 3101.55 1.17627 -1.11972 0
M  V30 32116 H 3103.55 4.15607 -0.32807 0
M  V30 32117 H 3102.21 3.22356 0.389434 0
M  V30 32118 H 3103.22 4.06335 -3.21111 0
M  V30 32119 H 3099.9 4.12701 -0.631227 0
M  V30 32120 H 3101.29 4.8989 -4.59845 0
M  V30 32121 N 3104.01 1.03186 1.19123 0
M  V30 32122 C 3105.26 0.728621 1.88509 0
M  V30 32123 C 3105.58 -0.745279 1.80196 0
M  V30 32124 O 3104.85 -1.53718 1.2144 0
M  V30 32125 H 3103.43 0.266523 0.697836 0
M  V30 32126 H 3106.09 1.30673 1.44605 0
M  V30 32127 H 3105.19 1.02559 2.94768 0
M  V30 32128 N 3105.49 -1.35184 0.810125 0
M  V30 32129 C 3106.71 -2.03434 0.403676 0
M  V30 32130 C 3107.14 -1.60643 -0.978541 0
M  V30 32131 O 3106.5 -0.784808 -1.63433 0
M  V30 32132 C 3106.54 -3.57128 0.499217 0
M  V30 32133 O 3105.65 -4.09527 -0.485967 0
M  V30 32134 H 3104.99 -0.64238 0.168061 0
M  V30 32135 H 3107.52 -1.72706 1.09699 0
M  V30 32136 H 3107.53 -4.06316 0.370308 0
M  V30 32137 H 3106.2 -3.87621 1.5074 0
M  V30 32138 H 3104.78 -3.7155 -0.317004 0
M  V30 32139 N 3106.97 -0.56394 -1.47165 0
M  V30 32140 C 3108.21 -0.0424066 -2.02456 0
M  V30 32141 C 3108.54 1.31013 -1.43756 0
M  V30 32142 O 3107.8 1.86742 -0.58532 0
M  V30 32143 C 3108.1 0.0931169 -3.57279 0
M  V30 32144 C 3107.76 -1.1894 -4.3493 0
M  V30 32145 C 3106.42 -1.54081 -4.55864 0
M  V30 32146 C 3108.78 -2.03897 -4.79662 0
M  V30 32147 C 3106.1 -2.74014 -5.18781 0
M  V30 32148 C 3108.46 -3.23039 -5.43902 0
M  V30 32149 C 3107.12 -3.58485 -5.63067 0
M  V30 32150 H 3106.39 -0.0155177 -0.740838 0
M  V30 32151 H 3109.04 -0.736807 -1.76758 0
M  V30 32152 H 3107.34 0.870529 -3.82007 0
M  V30 32153 H 3109.04 0.512106 -3.97717 0
M  V30 32154 H 3105.63 -0.905792 -4.18919 0
M  V30 32155 H 3109.81 -1.78054 -4.63261 0
M  V30 32156 H 3105.07 -3.01637 -5.31813 0
M  V30 32157 H 3109.24 -3.89151 -5.77524 0
M  V30 32158 H 3106.87 -4.51511 -6.1159 0
M  V30 32159 N 3108.44 1.54704 -0.300735 0
M  V30 32160 C 3109.67 2.05009 0.314037 0
M  V30 32161 C 3110.09 1.1766 1.46757 0
M  V30 32162 O 3109.45 0.180629 1.80398 0
M  V30 32163 C 3109.5 3.52753 0.748181 0
M  V30 32164 O 3108.6 3.68427 1.85298 0
M  V30 32165 H 3107.95 0.661192 0.0610023 0
M  V30 32166 H 3110.48 1.99758 -0.442502 0
M  V30 32167 H 3110.49 3.946 1.03706 0
M  V30 32168 H 3109.16 4.1579 -0.095646 0
M  V30 32169 H 3107.74 3.38485 1.56467 0
M  V30 32170 N 3109.92 0.0284543 1.57574 0
M  V30 32171 C 3111.15 -0.659583 1.95788 0
M  V30 32172 C 3111.56 -1.66233 0.903505 0
M  V30 32173 O 3110.9 -1.83286 -0.123258 0
M  V30 32174 C 3110.97 -1.42292 3.30141 0
M  V30 32175 C 3110.63 -0.578578 4.53323 0
M  V30 32176 C 3111.63 0.145843 5.19695 0
M  V30 32177 C 3109.31 -0.516176 4.99641 0
M  V30 32178 C 3111.31 0.921346 6.30706 0
M  V30 32179 C 3108.99 0.263032 6.10534 0
M  V30 32180 C 3109.99 0.980501 6.75925 0
M  V30 32181 O 3109.68 1.74694 7.84689 0
M  V30 32182 H 3109.41 -0.18678 0.649684 0
M  V30 32183 H 3111.96 0.0843048 2.05227 0
M  V30 32184 H 3110.19 -2.21193 3.17192 0
M  V30 32185 H 3111.88 -1.999 3.53263 0
M  V30 32186 H 3112.65 0.106962 4.84882 0
M  V30 32187 H 3108.53 -1.06419 4.48549 0
M  V30 32188 H 3112.07 1.48188 6.81679 0
M  V30 32189 H 3107.97 0.303633 6.44785 0
M  V30 32190 H 3108.74 1.66664 8.01352 0
M  V30 32191 N 3111.4 -1.55689 -0.244686 0
M  V30 32192 C 3112.65 -1.77887 -0.973855 0
M  V30 32193 C 3112.98 -0.594104 -1.84889 0
M  V30 32194 O 3112.25 0.407531 -1.90183 0
M  V30 32195 C 3112.54 -3.09987 -1.83249 0
M  V30 32196 C 3112.39 -4.38871 -0.985494 0
M  V30 32197 C 3113.71 -3.38334 -2.81458 0
M  V30 32198 H 3110.83 -0.647171 -0.352617 0
M  V30 32199 H 3113.47 -1.88424 -0.24421 0
M  V30 32200 H 3111.62 -3.01135 -2.45459 0
M  V30 32201 H 3113.29 -4.59716 -0.381924 0
M  V30 32202 H 3111.54 -4.3283 -0.289944 0
M  V30 32203 H 3112.21 -5.27689 -1.62013 0
M  V30 32204 H 3114.68 -3.47163 -2.29384 0
M  V30 32205 H 3113.56 -4.31977 -3.38655 0
M  V30 32206 H 3113.82 -2.59355 -3.58033 0
M  V30 32207 N 3112.88 0.510441 -1.49105 0
M  V30 32208 C 3114.11 1.28941 -1.61808 0
M  V30 32209 C 3114.52 1.86624 -0.285806 0
M  V30 32210 O 3113.88 1.67372 0.727521 0
M  V30 32211 C 3113.93 2.4264 -2.6797 0
M  V30 32212 O 3113.65 1.8733 -3.96029 0
M  V30 32213 C 3115.15 3.34161 -2.91292 0
M  V30 32214 H 3112.37 0.391419 -0.545006 0
M  V30 32215 H 3114.92 0.613771 -1.95072 0
M  V30 32216 H 3113.07 3.06051 -2.37511 0
M  V30 32217 H 3113.48 2.61901 -4.54431 0
M  V30 32218 H 3114.96 4.10243 -3.6933 0
M  V30 32219 H 3115.44 3.90584 -2.00849 0
M  V30 32220 H 3116.04 2.76525 -3.23132 0
M  V30 32221 N 3114.36 1.38021 0.760791 0
M  V30 32222 C 3115.6 1.33568 1.5167 0
M  V30 32223 C 3115.93 -0.0759898 1.94852 0
M  V30 32224 O 3115.2 -1.02224 1.67114 0
M  V30 32225 H 3113.78 0.491448 0.562573 0
M  V30 32226 H 3116.44 1.72625 0.904802 0
M  V30 32227 H 3115.53 1.98187 2.41099 0
M  V30 32228 N 3115.83 -0.98818 1.22771 0
M  V30 32229 C 3116.76 -2.09736 1.02631 0
M  V30 32230 C 3117.75 -1.70013 -0.0542912 0
M  V30 32231 O 3118.93 -1.93895 0.108845 0
M  V30 32232 C 3116.06 -3.4193 0.608362 0
M  V30 32233 C 3115.01 -3.95522 1.63543 0
M  V30 32234 C 3114.34 -5.2382 1.07317 0
M  V30 32235 C 3115.64 -4.25671 3.02657 0
M  V30 32236 H 3117.33 -2.26843 1.95404 0
M  V30 32237 H 3114.88 -1.09009 0.940907 0
M  V30 32238 H 3116.83 -4.18941 0.454552 0
M  V30 32239 H 3115.56 -3.24665 -0.355038 0
M  V30 32240 H 3114.22 -3.20648 1.77709 0
M  V30 32241 H 3113.86 -5.02899 0.100982 0
M  V30 32242 H 3113.56 -5.60643 1.75935 0
M  V30 32243 H 3115.09 -6.0346 0.931044 0
M  V30 32244 H 3116.5 -4.93461 2.91837 0
M  V30 32245 H 3114.9 -4.73678 3.68442 0
M  V30 32246 H 3115.97 -3.33255 3.52234 0
M  V30 32247 N 3117.31 -1.03816 -1.18575 0
M  V30 32248 C 3118.54 -0.76 -1.92436 0
M  V30 32249 C 3118.96 0.682495 -1.76033 0
M  V30 32250 O 3118.31 1.46499 -1.08831 0
M  V30 32251 C 3118.36 -1.11357 -3.43921 0
M  V30 32252 O 3118.08 -2.49943 -3.59806 0
M  V30 32253 C 3119.59 -0.859548 -4.34887 0
M  V30 32254 H 3116.81 -0.27736 -0.610993 0
M  V30 32255 H 3119.35 -1.38515 -1.50446 0
M  V30 32256 H 3117.5 -0.53343 -3.8371 0
M  V30 32257 H 3117.92 -2.63401 -4.53564 0
M  V30 32258 H 3119.39 -1.15682 -5.39742 0
M  V30 32259 H 3119.87 0.205762 -4.38718 0
M  V30 32260 H 3120.48 -1.42287 -4.00793 0
M  V30 32261 N 3118.79 1.34753 -0.817283 0
M  V30 32262 C 3120.02 2.03217 -0.414459 0
M  V30 32263 C 3120.44 1.6116 0.970008 0
M  V30 32264 O 3119.8 0.793464 1.63015 0
M  V30 32265 C 3119.85 3.56858 -0.518149 0
M  V30 32266 O 3118.95 4.09779 0.464242 0
M  V30 32267 H 3118.29 0.641479 -0.171465 0
M  V30 32268 H 3120.82 1.72121 -1.10614 0
M  V30 32269 H 3120.83 4.06114 -0.39185 0
M  V30 32270 H 3119.51 3.86817 -1.52793 0
M  V30 32271 H 3118.08 3.71713 0.297296 0
M  V30 32272 N 3120.27 0.571737 1.46864 0
M  V30 32273 C 3121.55 -0.0132101 1.95596 0
M  V30 32274 C 3121.93 -1.47068 1.5144 0
M  V30 32275 O 3121.27 -2.15492 0.759955 0
M  V30 32276 C 3121.48 0.147396 3.48689 0
M  V30 32277 C 3122.83 0.00953793 4.24599 0
M  V30 32278 O 3123.86 0.0756737 3.5612 0
M  V30 32279 O 3122.72 -0.135265 5.46333 0
M  V30 32280 H 3119.81 -0.0559894 0.825103 0
M  V30 32281 H 3122.36 0.639284 1.57198 0
M  V30 32282 H 3121.13 1.16103 3.73679 0
M  V30 32283 H 3120.75 -0.542039 3.93888 0
M  V30 32284 N 3121.75 -1.54542 0.308935 0
M  V30 32285 C 3122.7 -2.25271 -0.579286 0
M  V30 32286 C 3123.69 -1.26154 -1.13056 0
M  V30 32287 O 3124.9 -1.43979 -1.08028 0
M  V30 32288 H 3121.27 -0.723396 -0.205431 0
M  V30 32289 H 3123.24 -2.98374 0.039694 0
M  V30 32290 C 3121.99 -3.01274 -1.73578 0
M  V30 32291 H 3121.31 -3.77352 -1.32083 0
M  V30 32292 H 3122.75 -3.54032 -2.33318 0
M  V30 32293 C 3121.21 -2.08708 -2.64467 0
M  V30 32294 O 3121.74 -1.66031 -3.65782 0
M  V30 32295 N 3119.95 -1.74499 -2.32376 0
M  V30 32296 H 3119.5 -2.09401 -1.5003 0
M  V30 32297 H 3119.45 -1.12841 -2.93452 0
M  V30 32298 N 3123.23 -0.0368104 -1.57557 0
M  V30 32299 C 3124.16 0.940681 -2.13713 0
M  V30 32300 C 3125.14 1.33417 -1.05517 0
M  V30 32301 O 3126.32 1.41143 -1.33388 0
M  V30 32302 C 3123.45 2.22043 -2.67047 0
M  V30 32303 C 3122.41 1.96745 -3.80099 0
M  V30 32304 C 3121.73 3.31052 -4.19892 0
M  V30 32305 C 3123.03 1.30049 -5.0585 0
M  V30 32306 H 3124.73 0.472981 -2.9564 0
M  V30 32307 H 3122.27 0.226064 -1.42214 0
M  V30 32308 H 3124.22 2.90812 -3.04969 0
M  V30 32309 H 3122.95 2.70993 -1.82292 0
M  V30 32310 H 3121.61 1.30392 -3.42627 0
M  V30 32311 H 3121.26 3.77775 -3.32107 0
M  V30 32312 H 3120.96 3.14928 -4.96078 0
M  V30 32313 H 3122.48 4.01076 -4.60402 0
M  V30 32314 H 3123.89 1.8883 -5.41309 0
M  V30 32315 H 3122.29 1.24299 -5.87086 0
M  V30 32316 H 3123.36 0.274505 -4.84122 0
M  V30 32317 N 3124.7 1.55817 0.236426 0
M  V30 32318 C 3125.65 1.9119 1.29286 0
M  V30 32319 C 3126.62 0.767327 1.47314 0
M  V30 32320 O 3127.81 1.02191 1.61126 0
M  V30 32321 C 3124.95 2.22111 2.64122 0
M  V30 32322 C 3124.06 3.49428 2.54016 0
M  V30 32323 C 3123.19 3.69868 3.81276 0
M  V30 32324 C 3122.23 4.90749 3.6583 0
M  V30 32325 N 3121.37 5.07655 4.85005 0
M  V30 32326 H 3126.21 2.81279 0.984191 0
M  V30 32327 H 3123.75 1.3923 0.474697 0
M  V30 32328 H 3125.7 2.38046 3.42622 0
M  V30 32329 H 3124.33 1.35214 2.93116 0
M  V30 32330 H 3123.39 3.41768 1.6703 0
M  V30 32331 H 3124.7 4.38076 2.38518 0
M  V30 32332 H 3123.85 3.85818 4.68219 0
M  V30 32333 H 3122.59 2.79472 3.99683 0
M  V30 32334 H 3121.6 4.74764 2.77271 0
M  V30 32335 H 3122.82 5.82615 3.48908 0
M  V30 32336 H 3120.77 4.20199 5.03754 0
M  V30 32337 H 3120.68 5.90411 4.72177 0
M  V30 32338 H 3121.95 5.28027 5.73417 0
M  V30 32339 N 3126.18 -0.502526 1.49373 0
M  V30 32340 C 3127.43 -1.25861 1.59018 0
M  V30 32341 C 3127.76 -1.92238 0.275353 0
M  V30 32342 O 3127.04 -1.80645 -0.720956 0
M  V30 32343 C 3127.32 -2.32678 2.74832 0
M  V30 32344 C 3127.17 -1.70813 4.16105 0
M  V30 32345 C 3128.49 -3.34251 2.86294 0
M  V30 32346 H 3125.61 -0.456237 0.578806 0
M  V30 32347 H 3128.25 -0.557 1.81652 0
M  V30 32348 H 3126.4 -2.9252 2.55665 0
M  V30 32349 H 3128.07 -1.1481 4.46784 0
M  V30 32350 H 3126.32 -1.0123 4.21823 0
M  V30 32351 H 3126.99 -2.48283 4.93011 0
M  V30 32352 H 3129.46 -2.84399 3.03738 0
M  V30 32353 H 3128.34 -4.06355 3.69008 0
M  V30 32354 H 3128.6 -3.96484 1.95583 0
M  V30 32355 N 3127.66 -1.38422 -0.75346 0
M  V30 32356 C 3129.07 -1.30947 -1.33078 0
M  V30 32357 C 3129.42 0.0346779 -1.96169 0
M  V30 32358 O 3128.55 0.936734 -1.95075 0
M  V30 32359 C 3129.14 -2.37142 -2.41969 0
M  V30 32360 C 3127.7 -2.33244 -2.95422 0
M  V30 32361 C 3126.85 -2.20001 -1.68804 0
M  V30 32362 H 3129.8 -1.48778 -0.552328 0
M  V30 32363 H 3129.82 -2.02865 -3.2191 0
M  V30 32364 H 3129.33 -3.34959 -1.96021 0
M  V30 32365 H 3127.43 -1.39009 -3.45698 0
M  V30 32366 H 3127.55 -3.27387 -3.49792 0
M  V30 32367 H 3125.91 -1.66856 -1.92435 0
M  V30 32368 H 3126.69 -3.1976 -1.24933 0
M  V30 32369 N 3129.14 0.981655 -1.23294 0
M  V30 32370 C 3130.38 1.73786 -1.076 0
M  V30 32371 C 3130.74 1.88187 0.380729 0
M  V30 32372 O 3131.94 2.60601 0.65882 0
M  V30 32373 C 3130.21 3.09913 -1.78013 0
M  V30 32374 S 3131.77 4.01131 -1.77875 0
M  V30 32375 H 3128.59 0.597677 -0.385102 0
M  V30 32376 H 3131.19 1.17287 -1.5641 0
M  V30 32377 H 3129.9 2.97082 -2.83144 0
M  V30 32378 H 3129.43 3.71482 -1.29479 0
M  V30 32379 H 3131.44 4.89099 -0.836454 0
M  V30 32380 N 3130.62 1.04444 1.18022 0
M  V30 32381 C 3131.55 0.596838 2.21293 0
M  V30 32382 C 3132.56 -0.335492 1.59306 0
M  V30 32383 O 3133.75 -0.129411 1.7803 0
M  V30 32384 C 3130.85 -0.147588 3.38578 0
M  V30 32385 C 3130.02 0.79356 4.30141 0
M  V30 32386 C 3129.08 0.0917486 5.2612 0
M  V30 32387 O 3128.11 0.723409 5.64584 0
M  V30 32388 N 3129.31 -1.17354 5.68514 0
M  V30 32389 H 3132.07 1.48508 2.60318 0
M  V30 32390 H 3129.64 0.925397 1.32846 0
M  V30 32391 H 3131.63 -0.627028 3.99813 0
M  V30 32392 H 3130.2 -0.937414 2.98214 0
M  V30 32393 H 3129.42 1.45278 3.66453 0
M  V30 32394 H 3130.71 1.43266 4.88213 0
M  V30 32395 H 3130.1 -1.70719 5.39325 0
M  V30 32396 H 3128.66 -1.59718 6.31928 0
M  V30 32397 N 3132.09 -1.34317 0.824418 0
M  V30 32398 C 3133.34 -1.98533 0.413814 0
M  V30 32399 C 3133.67 -1.65203 -1.02086 0
M  V30 32400 O 3132.95 -0.924432 -1.71127 0
M  V30 32401 C 3133.23 -3.54756 0.618073 0
M  V30 32402 C 3133.08 -3.97823 2.09897 0
M  V30 32403 C 3134.4 -4.40066 0.0549815 0
M  V30 32404 H 3131.52 -0.721192 0.151828 0
M  V30 32405 H 3134.16 -1.59188 1.03726 0
M  V30 32406 H 3132.31 -3.88402 0.087379 0
M  V30 32407 H 3133.99 -3.74504 2.69341 0
M  V30 32408 H 3132.23 -3.4808 2.58887 0
M  V30 32409 H 3132.9 -5.06582 2.19269 0
M  V30 32410 H 3135.38 -4.12982 0.508421 0
M  V30 32411 H 3134.25 -5.48428 0.227691 0
M  V30 32412 H 3134.51 -4.29689 -1.04017 0
M  V30 32413 N 3133.57 -0.579517 -1.46558 0
M  V30 32414 C 3134.98 -0.152084 -1.8608 0
M  V30 32415 C 3135.33 1.28402 -1.48348 0
M  V30 32416 O 3134.46 1.96939 -0.896885 0
M  V30 32417 C 3135.05 -0.26923 -3.37729 0
M  V30 32418 C 3133.61 0.10331 -3.76258 0
M  V30 32419 C 3132.76 -0.606638 -2.70583 0
M  V30 32420 H 3135.71 -0.787928 -1.37758 0
M  V30 32421 H 3135.73 0.506273 -3.77117 0
M  V30 32422 H 3135.24 -1.31455 -3.65159 0
M  V30 32423 H 3133.34 1.14889 -3.54445 0
M  V30 32424 H 3133.46 -0.270785 -4.78334 0
M  V30 32425 H 3131.82 -0.0472431 -2.54656 0
M  V30 32426 H 3132.6 -1.65354 -3.00853 0
M  V30 32427 N 3135.05 1.54376 -0.317127 0
M  V30 32428 C 3136.01 2.22772 0.539011 0
M  V30 32429 C 3137.01 1.21903 1.04863 0
M  V30 32430 O 3138.2 1.46528 0.942083 0
M  V30 32431 C 3135.34 2.92674 1.74799 0
M  V30 32432 H 3136.53 2.99842 -0.0587944 0
M  V30 32433 H 3134.08 1.56151 -0.0681345 0
M  V30 32434 H 3134.82 2.19724 2.3852 0
M  V30 32435 H 3134.6 3.66633 1.39005 0
M  V30 32436 H 3136.09 3.44803 2.35586 0
M  V30 32437 N 3136.53 0.0451655 1.57535 0
M  V30 32438 C 3137.94 -0.491395 1.80117 0
M  V30 32439 C 3138.29 -1.71284 0.956877 0
M  V30 32440 O 3137.42 -2.15717 0.171767 0
M  V30 32441 C 3138.01 -0.898257 3.26675 0
M  V30 32442 C 3136.57 -1.37983 3.50196 0
M  V30 32443 C 3135.72 -0.352154 2.75055 0
M  V30 32444 H 3138.67 0.271092 1.56367 0
M  V30 32445 H 3138.69 -1.76158 3.37266 0
M  V30 32446 H 3138.2 -0.00907278 3.88099 0
M  V30 32447 H 3136.3 -2.28841 2.94045 0
M  V30 32448 H 3136.41 -1.37614 4.58911 0
M  V30 32449 H 3134.78 -0.823742 2.41012 0
M  V30 32450 H 3135.56 0.528841 3.39202 0
M  V30 32451 N 3138.01 -1.5594 -0.228159 0
M  V30 32452 C 3138.92 -1.95032 -1.30382 0
M  V30 32453 C 3139.93 -0.853245 -1.51643 0
M  V30 32454 O 3141.11 -1.15625 -1.64902 0
M  V30 32455 C 3138.17 -2.25337 -2.63485 0
M  V30 32456 C 3137.23 -3.48578 -2.50584 0
M  V30 32457 C 3136.47 -3.77427 -3.77339 0
M  V30 32458 O 3136.69 -3.08053 -4.80062 0
M  V30 32459 O 3135.62 -4.70928 -3.74847 0
M  V30 32460 H 3139.45 -2.86689 -1.00215 0
M  V30 32461 H 3137.04 -1.43064 -0.430478 0
M  V30 32462 H 3138.92 -2.46052 -3.42106 0
M  V30 32463 H 3137.59 -1.36855 -2.93347 0
M  V30 32464 H 3136.5 -3.33148 -1.70185 0
M  V30 32465 H 3137.83 -4.37421 -2.25663 0
M  V30 32466 N 3139.48 0.494597 -1.49638 0
M  V30 32467 C 3140.73 1.24831 -1.59447 0
M  V30 32468 C 3141.06 1.92415 -0.284061 0
M  V30 32469 O 3140.31 1.81636 0.728487 0
M  V30 32470 C 3140.61 2.33297 -2.70753 0
M  V30 32471 C 3140.28 1.83128 -4.12037 0
M  V30 32472 C 3138.94 1.69165 -4.50485 0
M  V30 32473 C 3141.29 1.45651 -5.00435 0
M  V30 32474 C 3138.62 1.16114 -5.75095 0
M  V30 32475 C 3140.97 0.940498 -6.2557 0
M  V30 32476 C 3139.64 0.787315 -6.62841 0
M  V30 32477 H 3138.91 0.456789 -0.583459 0
M  V30 32478 H 3141.55 0.548012 -1.83491 0
M  V30 32479 H 3139.86 3.09141 -2.40705 0
M  V30 32480 H 3141.56 2.91329 -2.75551 0
M  V30 32481 H 3138.15 1.94957 -3.81693 0
M  V30 32482 H 3142.33 1.55283 -4.71382 0
M  V30 32483 H 3137.59 1.02971 -6.02667 0
M  V30 32484 H 3141.76 0.641345 -6.9344 0
M  V30 32485 H 3139.39 0.374058 -7.59279 0
M  V30 32486 N 3140.96 1.3882 0.746109 0
M  V30 32487 C 3142.21 1.35437 1.50542 0
M  V30 32488 C 3142.54 -0.0532327 1.94427 0
M  V30 32489 O 3141.79 -1.03185 1.66287 0
M  V30 32490 C 3142.09 2.26291 2.76635 0
M  V30 32491 C 3141.76 3.74126 2.51675 0
M  V30 32492 C 3140.42 4.1441 2.44577 0
M  V30 32493 C 3142.77 4.67676 2.30063 0
M  V30 32494 C 3140.1 5.46321 2.13892 0
M  V30 32495 C 3142.45 5.99853 2.00897 0
M  V30 32496 C 3141.12 6.39212 1.9226 0
M  V30 32497 H 3140.39 0.4956 0.550874 0
M  V30 32498 H 3143.03 1.71238 0.857307 0
M  V30 32499 H 3141.34 1.83571 3.46134 0
M  V30 32500 H 3143.03 2.20973 3.34622 0
M  V30 32501 H 3139.62 3.42193 2.58074 0
M  V30 32502 H 3143.81 4.37394 2.34521 0
M  V30 32503 H 3139.06 5.75751 2.05719 0
M  V30 32504 H 3143.24 6.71877 1.83179 0
M  V30 32505 H 3140.87 7.41348 1.68248 0
M  V30 32506 N 3142.44 -0.975103 1.23812 0
M  V30 32507 C 3143.67 -1.75756 1.10112 0
M  V30 32508 C 3144.09 -1.84948 -0.34289 0
M  V30 32509 O 3143.45 -1.31498 -1.24812 0
M  V30 32510 C 3143.5 -3.15991 1.7373 0
M  V30 32511 O 3142.6 -4.00016 1.00304 0
M  V30 32512 H 3141.94 -0.540537 0.385636 0
M  V30 32513 H 3144.47 -1.22369 1.63973 0
M  V30 32514 H 3144.48 -3.66547 1.79185 0
M  V30 32515 H 3143.16 -3.08616 2.788 0
M  V30 32516 H 3141.73 -3.58513 1.02581 0
M  V30 32517 N 3143.92 -1.05068 -1.17467 0
M  V30 32518 C 3145.16 -0.770933 -1.88224 0
M  V30 32519 C 3145.52 0.69442 -1.79431 0
M  V30 32520 O 3144.81 1.50116 -1.19061 0
M  V30 32521 C 3145.01 -1.18427 -3.37209 0
M  V30 32522 C 3144.84 -2.68826 -3.60504 0
M  V30 32523 C 3143.61 -3.36117 -3.77297 0
M  V30 32524 C 3145.8 -3.67046 -3.60252 0
M  V30 32525 N 3143.79 -4.75394 -3.88425 0
M  V30 32526 C 3145.16 -4.92046 -3.77214 0
M  V30 32527 C 3147.21 -3.60533 -3.43395 0
M  V30 32528 C 3145.91 -6.11312 -3.79065 0
M  V30 32529 C 3147.94 -4.79238 -3.46533 0
M  V30 32530 C 3147.3 -6.0306 -3.64002 0
M  V30 32531 H 3143.4 -0.334315 -0.706935 0
M  V30 32532 H 3145.99 -1.34237 -1.41026 0
M  V30 32533 H 3144.16 -0.640792 -3.83078 0
M  V30 32534 H 3145.89 -0.85448 -3.95576 0
M  V30 32535 H 3142.64 -2.86518 -3.771 0
M  V30 32536 H 3143.07 -5.47809 -3.97787 0
M  V30 32537 H 3147.71 -2.65768 -3.28827 0
M  V30 32538 H 3145.43 -7.06423 -3.92418 0
M  V30 32539 H 3149.01 -4.7585 -3.3475 0
M  V30 32540 H 3147.89 -6.93376 -3.66333 0
M  V30 32541 N 3145.4 1.33878 -0.831529 0
M  V30 32542 C 3146.64 1.98311 -0.424336 0
M  V30 32543 C 3146.98 1.65742 1.01208 0
M  V30 32544 O 3146.25 0.933494 1.70634 0
M  V30 32545 C 3146.53 3.54423 -0.636877 0
M  V30 32546 C 3146.39 3.96705 -2.12004 0
M  V30 32547 C 3147.71 4.4003 -0.0783185 0
M  V30 32548 H 3144.82 0.720376 -0.15565 0
M  V30 32549 H 3147.47 1.58636 -1.04569 0
M  V30 32550 H 3145.62 3.8835 -0.107976 0
M  V30 32551 H 3147.29 3.7307 -2.71324 0
M  V30 32552 H 3145.53 3.46703 -2.60729 0
M  V30 32553 H 3146.2 5.05412 -2.21953 0
M  V30 32554 H 3148.68 4.12707 -0.530315 0
M  V30 32555 H 3147.55 5.48299 -0.256772 0
M  V30 32556 H 3147.82 4.30235 1.01737 0
M  V30 32557 N 3146.87 0.587281 1.46249 0
M  V30 32558 C 3148.15 0.00753619 1.95599 0
M  V30 32559 C 3148.53 -1.45454 1.52991 0
M  V30 32560 O 3147.88 -2.14674 0.782768 0
M  V30 32561 C 3148.09 0.184371 3.48513 0
M  V30 32562 C 3149.44 0.0545718 4.24565 0
M  V30 32563 O 3150.46 0.113441 3.56019 0
M  V30 32564 O 3149.32 -0.0773115 5.46445 0
M  V30 32565 H 3146.41 -0.047235 0.82565 0
M  V30 32566 H 3148.96 0.655921 1.56511 0
M  V30 32567 H 3147.73 1.2006 3.72426 0
M  V30 32568 H 3147.36 -0.500232 3.94441 0
M  V30 32569 N 3148.35 -1.54206 0.325309 0
M  V30 32570 C 3149.6 -2.00204 -0.276193 0
M  V30 32571 C 3149.92 -1.21505 -1.52517 0
M  V30 32572 O 3149.19 -0.317336 -1.93313 0
M  V30 32573 H 3147.77 -0.739577 -0.105046 0
M  V30 32574 H 3150.43 -1.89816 0.442258 0
M  V30 32575 H 3149.53 -3.07543 -0.531373 0
M  V30 32576 N 3149.83 -0.0535194 -1.57509 0
M  V30 32577 C 3151.08 0.620657 -1.93069 0
M  V30 32578 C 3151.41 1.70356 -0.932343 0
M  V30 32579 O 3150.69 1.94456 0.0413051 0
M  V30 32580 C 3150.97 1.21457 -3.38999 0
M  V30 32581 C 3150.82 0.139571 -4.49583 0
M  V30 32582 C 3152.14 2.12552 -3.8537 0
M  V30 32583 H 3149.26 0.22415 -0.702087 0
M  V30 32584 H 3151.9 -0.115763 -1.89647 0
M  V30 32585 H 3150.05 1.8422 -3.42046 0
M  V30 32586 H 3151.72 -0.492492 -4.58664 0
M  V30 32587 H 3149.97 -0.532081 -4.30524 0
M  V30 32588 H 3150.64 0.595191 -5.48782 0
M  V30 32589 H 3153.11 1.59748 -3.84213 0
M  V30 32590 H 3151.99 2.5105 -4.88124 0
M  V30 32591 H 3152.25 3.02655 -3.22261 0
M  V30 32592 N 3151.31 1.56059 0.219886 0
M  V30 32593 C 3152.24 1.8904 1.29601 0
M  V30 32594 C 3153.25 0.778816 1.42963 0
M  V30 32595 O 3154.44 1.05712 1.4383 0
M  V30 32596 C 3151.54 2.08539 2.67142 0
M  V30 32597 C 3150.72 3.39566 2.75706 0
M  V30 32598 C 3149.78 3.48476 3.94273 0
M  V30 32599 O 3148.8 4.21494 3.82533 0
M  V30 32600 N 3150 2.79741 5.0865 0
M  V30 32601 H 3152.77 2.81941 1.01633 0
M  V30 32602 H 3150.33 1.56625 0.409918 0
M  V30 32603 H 3152.32 2.11814 3.44843 0
M  V30 32604 H 3150.89 1.22255 2.87702 0
M  V30 32605 H 3150.11 3.48375 1.84469 0
M  V30 32606 H 3151.4 4.25877 2.784 0
M  V30 32607 H 3150.8 2.20199 5.21084 0
M  V30 32608 H 3149.35 2.88675 5.84389 0
M  V30 32609 N 3152.79 -0.486655 1.49898 0
M  V30 32610 C 3154.04 -1.23653 1.59351 0
M  V30 32611 C 3154.35 -1.93407 0.292058 0
M  V30 32612 O 3155.56 -2.70201 0.265305 0
M  V30 32613 C 3154.01 -2.24597 2.81219 0
M  V30 32614 C 3153.62 -1.60717 4.18179 0
M  V30 32615 C 3155.36 -3.00324 3.0001 0
M  V30 32616 C 3153.27 -2.59856 5.31252 0
M  V30 32617 H 3152.2 -0.465216 0.593372 0
M  V30 32618 H 3154.85 -0.508738 1.76307 0
M  V30 32619 H 3153.23 -3.00602 2.57788 0
M  V30 32620 H 3154.41 -0.906081 4.51804 0
M  V30 32621 H 3152.72 -0.973291 4.04865 0
M  V30 32622 H 3155.32 -3.7449 3.81656 0
M  V30 32623 H 3155.66 -3.58791 2.11126 0
M  V30 32624 H 3156.2 -2.31434 3.23548 0
M  V30 32625 H 3152.93 -2.0615 6.2224 0
M  V30 32626 H 3152.45 -3.28164 5.02064 0
M  V30 32627 H 3154.13 -3.21999 5.61182 0
M  V30 32628 N 3154.27 -1.39214 -0.738737 0
M  V30 32629 C 3155.22 -1.34128 -1.84374 0
M  V30 32630 C 3156.2 -0.222821 -1.5935 0
M  V30 32631 O 3157.39 -0.460044 -1.70917 0
M  V30 32632 C 3154.52 -1.18339 -3.22259 0
M  V30 32633 C 3153.61 -2.3487 -3.53124 0
M  V30 32634 N 3154 -3.60339 -3.5495 0
M  V30 32635 C 3152.3 -2.27746 -3.83468 0
M  V30 32636 C 3153 -4.37377 -3.83505 0
M  V30 32637 N 3151.97 -3.66916 -4.0109 0
M  V30 32638 H 3155.77 -2.29107 -1.84085 0
M  V30 32639 H 3153.29 -1.32657 -0.936802 0
M  V30 32640 H 3155.29 -1.12779 -4.01356 0
M  V30 32641 H 3153.95 -0.243073 -3.23789 0
M  V30 32642 H 3154.96 -3.93812 -3.36352 0
M  V30 32643 H 3151.63 -1.41955 -3.92626 0
M  V30 32644 H 3153.02 -5.46116 -3.91417 0
M  V30 32645 N 3155.74 0.968523 -1.24328 0
M  V30 32646 C 3157.16 1.23699 -1.00849 0
M  V30 32647 C 3157.36 1.995 0.2832 0
M  V30 32648 O 3156.42 2.31873 0.999567 0
M  V30 32649 C 3157.73 2.02494 -2.22299 0
M  V30 32650 C 3159.28 2.15589 -2.26915 0
M  V30 32651 C 3159.75 2.97778 -3.47983 0
M  V30 32652 N 3161.24 3.05361 -3.48295 0
M  V30 32653 C 3161.98 3.69311 -4.38631 0
M  V30 32654 N 3161.47 4.34986 -5.39221 0
M  V30 32655 N 3163.27 3.66314 -4.26345 0
M  V30 32656 H 3155.42 0.461051 -2.07336 0
M  V30 32657 H 3157.68 0.266364 -0.90981 0
M  V30 32658 H 3157.39 1.54183 -3.16102 0
M  V30 32659 H 3157.26 3.03228 -2.2435 0
M  V30 32660 H 3159.65 2.63104 -1.33643 0
M  V30 32661 H 3159.73 1.14205 -2.2889 0
M  V30 32662 H 3159.37 2.50958 -4.41568 0
M  V30 32663 H 3159.3 3.99358 -3.43251 0
M  V30 32664 H 3161.79 2.58643 -2.75522 0
M  V30 32665 H 3162.11 4.81598 -6.04387 0
M  V30 32666 H 3160.45 4.33657 -5.43108 0
M  V30 32667 H 3163.64 3.14183 -3.46997 0
M  V30 32668 H 3163.82 4.1587 -4.96947 0
M  V30 32669 N 3157.22 1.0569 1.16908 0
M  V30 32670 C 3158.47 0.769963 1.87291 0
M  V30 32671 C 3158.8 -0.703263 1.81341 0
M  V30 32672 O 3158.05 -1.53048 1.21962 0
M  V30 32673 C 3158.35 1.20213 3.36576 0
M  V30 32674 C 3158.02 2.67842 3.62728 0
M  V30 32675 C 3156.68 3.0817 3.69574 0
M  V30 32676 C 3159.03 3.63216 3.73796 0
M  V30 32677 C 3156.36 4.42723 3.84984 0
M  V30 32678 C 3158.71 4.9751 3.90726 0
M  V30 32679 C 3157.37 5.37483 3.95813 0
M  V30 32680 H 3156.64 0.281749 0.685345 0
M  V30 32681 H 3159.29 1.32489 1.38272 0
M  V30 32682 H 3157.6 0.56629 3.87686 0
M  V30 32683 H 3159.29 0.957251 3.89407 0
M  V30 32684 H 3155.88 2.35615 3.58027 0
M  V30 32685 H 3160.07 3.33196 3.67823 0
M  V30 32686 H 3155.32 4.73188 3.87173 0
M  V30 32687 H 3159.5 5.713 3.98233 0
M  V30 32688 H 3157.12 6.4175 4.07506 0
M  V30 32689 N 3158.7 -1.33435 0.838617 0
M  V30 32690 C 3159.66 -2.27521 0.276883 0
M  V30 32691 C 3160.66 -1.50946 -0.554249 0
M  V30 32692 O 3161.85 -1.70267 -0.368077 0
M  V30 32693 C 3158.98 -3.35398 -0.609977 0
M  V30 32694 H 3160.18 -2.78717 1.1071 0
M  V30 32695 H 3157.73 -1.43834 0.611682 0
M  V30 32696 H 3158.47 -2.89443 -1.46264 0
M  V30 32697 H 3158.25 -3.92097 -0.0152926 0
M  V30 32698 H 3159.74 -4.05541 -0.996297 0
M  V30 32699 N 3160.18 -0.595029 -1.45935 0
M  V30 32700 C 3161.59 -0.171812 -1.85908 0
M  V30 32701 C 3161.94 1.26822 -1.49702 0
M  V30 32702 O 3161.06 1.95977 -0.917722 0
M  V30 32703 C 3161.66 -0.305035 -3.37424 0
M  V30 32704 C 3160.22 0.0633973 -3.76347 0
M  V30 32705 C 3159.37 -0.635303 -2.69924 0
M  V30 32706 H 3162.32 -0.802495 -1.36915 0
M  V30 32707 H 3162.34 0.466246 -3.77633 0
M  V30 32708 H 3161.85 -1.3532 -3.63744 0
M  V30 32709 H 3159.95 1.11123 -3.55644 0
M  V30 32710 H 3160.06 -0.321503 -4.7802 0
M  V30 32711 H 3158.43 -0.0742502 -2.54592 0
M  V30 32712 H 3159.21 -1.68536 -2.99083 0
M  V30 32713 N 3161.66 1.54031 -0.333483 0
M  V30 32714 C 3162.9 2.01041 0.266492 0
M  V30 32715 C 3163.23 1.22113 1.51004 0
M  V30 32716 O 3162.51 0.30605 1.92077 0
M  V30 32717 C 3162.79 3.55222 0.590718 0
M  V30 32718 C 3162.65 4.44869 -0.664222 0
M  V30 32719 C 3163.96 4.17091 1.40439 0
M  V30 32720 H 3161.08 0.730801 0.0953851 0
M  V30 32721 H 3163.73 1.84545 -0.452027 0
M  V30 32722 H 3161.88 3.6941 1.20285 0
M  V30 32723 H 3163.55 4.42534 -1.30235 0
M  V30 32724 H 3161.79 4.1414 -1.29113 0
M  V30 32725 H 3162.46 5.50601 -0.392761 0
M  V30 32726 H 3164.94 4.06539 0.886875 0
M  V30 32727 H 3163.81 5.25063 1.60001 0
M  V30 32728 H 3164.07 3.71058 2.40351 0
M  V30 32729 N 3163.13 0.0618717 1.57479 0
M  V30 32730 C 3164.54 -0.472263 1.80628 0
M  V30 32731 C 3164.9 -1.7026 0.97499 0
M  V30 32732 O 3164.02 -2.15523 0.194638 0
M  V30 32733 C 3164.62 -0.863558 3.2761 0
M  V30 32734 C 3163.17 -1.34261 3.5164 0
M  V30 32735 C 3162.32 -0.322961 2.75413 0
M  V30 32736 H 3165.27 0.287662 1.56071 0
M  V30 32737 H 3165.29 -1.72571 3.39116 0
M  V30 32738 H 3164.81 0.0320908 3.88087 0
M  V30 32739 H 3162.91 -2.25709 2.96456 0
M  V30 32740 H 3163.02 -1.32739 4.60345 0
M  V30 32741 H 3161.38 -0.798133 2.41872 0
M  V30 32742 H 3162.17 0.564788 3.38622 0
M  V30 32743 N 3164.61 -1.56173 -0.211607 0
M  V30 32744 C 3165.86 -1.79292 -0.932673 0
M  V30 32745 C 3166.18 -0.632108 -1.84471 0
M  V30 32746 O 3165.45 0.350485 -1.92739 0
M  V30 32747 H 3164.03 -0.661313 -0.347382 0
M  V30 32748 H 3166.69 -1.93642 -0.221076 0
M  V30 32749 H 3165.79 -2.71822 -1.5336 0
M  V30 32750 N 3166.09 0.478699 -1.50154 0
M  V30 32751 C 3167.5 1.05976 -1.53708 0
M  V30 32752 C 3167.85 1.93299 -0.336146 0
M  V30 32753 O 3166.98 2.09247 0.551767 0
M  V30 32754 C 3167.57 1.92869 -2.78544 0
M  V30 32755 C 3166.13 2.46097 -2.84804 0
M  V30 32756 C 3165.28 1.24253 -2.47904 0
M  V30 32757 H 3168.23 0.261637 -1.56528 0
M  V30 32758 H 3168.25 2.77842 -2.59969 0
M  V30 32759 H 3167.76 1.29287 -3.65932 0
M  V30 32760 H 3165.86 3.13254 -2.0175 0
M  V30 32761 H 3165.98 2.81724 -3.87516 0
M  V30 32762 H 3164.34 1.57489 -2.00173 0
M  V30 32763 H 3165.12 0.623451 -3.37591 0
M  V30 32764 N 3167.57 1.39603 0.731343 0
M  V30 32765 C 3168.82 1.37026 1.49098 0
M  V30 32766 C 3169.14 -0.0326082 1.94473 0
M  V30 32767 O 3168.4 -1.01415 1.67372 0
M  V30 32768 C 3168.7 2.29212 2.7422 0
M  V30 32769 C 3168.36 3.76775 2.47693 0
M  V30 32770 C 3167.03 4.16981 2.40168 0
M  V30 32771 C 3169.38 4.7009 2.25089 0
M  V30 32772 C 3166.71 5.48559 2.08086 0
M  V30 32773 C 3169.06 6.0195 1.94523 0
M  V30 32774 C 3167.72 6.41216 1.85469 0
M  V30 32775 H 3166.99 0.501414 0.545586 0
M  V30 32776 H 3169.64 1.72138 0.839096 0
M  V30 32777 H 3167.94 1.87231 3.44168 0
M  V30 32778 H 3169.64 2.2451 3.3226 0
M  V30 32779 H 3166.23 3.44911 2.5443 0
M  V30 32780 H 3170.41 4.39857 2.29868 0
M  V30 32781 H 3165.67 5.77901 1.99601 0
M  V30 32782 H 3169.84 6.73782 1.76043 0
M  V30 32783 H 3167.47 7.43091 1.60376 0
M  V30 32784 N 3169.05 -0.961916 1.2484 0
M  V30 32785 C 3170.29 -1.70562 1.09154 0
M  V30 32786 C 3170.62 -1.90974 -0.368686 0
M  V30 32787 O 3169.88 -1.47295 -1.28852 0
M  V30 32788 C 3170.18 -3.09751 1.78295 0
M  V30 32789 C 3169.84 -3.09163 3.28221 0
M  V30 32790 C 3168.5 -3.0871 3.69123 0
M  V30 32791 C 3170.86 -3.0305 4.2404 0
M  V30 32792 C 3168.18 -2.99883 5.04269 0
M  V30 32793 C 3170.54 -2.95766 5.59201 0
M  V30 32794 C 3169.2 -2.93644 5.99441 0
M  V30 32795 H 3168.47 -0.624132 0.399425 0
M  V30 32796 H 3171.12 -1.12435 1.55018 0
M  V30 32797 H 3169.42 -3.71378 1.24842 0
M  V30 32798 H 3171.12 -3.66101 1.63618 0
M  V30 32799 H 3167.71 -3.10283 2.95672 0
M  V30 32800 H 3171.89 -3.02525 3.93437 0
M  V30 32801 H 3167.15 -2.96605 5.34636 0
M  V30 32802 H 3171.32 -2.89996 6.33147 0
M  V30 32803 H 3168.95 -2.86561 7.04121 0
M  V30 32804 N 3170.52 -1.06308 -1.16346 0
M  V30 32805 C 3171.94 -0.786567 -1.38871 0
M  V30 32806 C 3172.14 0.614028 -1.91917 0
M  V30 32807 O 3171.2 1.37457 -2.11806 0
M  V30 32808 C 3172.51 -1.85158 -2.36932 0
M  V30 32809 C 3174.06 -1.87511 -2.50617 0
M  V30 32810 C 3174.53 -2.93067 -3.5196 0
M  V30 32811 N 3176.02 -2.92101 -3.59487 0
M  V30 32812 C 3176.76 -3.70423 -4.37692 0
M  V30 32813 N 3176.25 -4.58562 -5.19319 0
M  V30 32814 N 3178.05 -3.58814 -4.32677 0
M  V30 32815 H 3170.2 -1.96656 -0.802507 0
M  V30 32816 H 3172.46 -0.852196 -0.41529 0
M  V30 32817 H 3172.17 -2.8574 -2.05051 0
M  V30 32818 H 3172.04 -1.70272 -3.36582 0
M  V30 32819 H 3174.43 -0.875876 -2.81802 0
M  V30 32820 H 3174.51 -2.06475 -1.51003 0
M  V30 32821 H 3174.15 -3.93183 -3.21511 0
M  V30 32822 H 3174.08 -2.71352 -4.51304 0
M  V30 32823 H 3176.57 -2.28202 -3.01218 0
M  V30 32824 H 3176.89 -5.14981 -5.76207 0
M  V30 32825 H 3175.23 -4.62618 -5.18662 0
M  V30 32826 H 3178.42 -2.89341 -3.67966 0
M  V30 32827 H 3178.6 -4.20097 -4.93379 0
M  V30 32828 N 3172 1.32989 -0.845682 0
M  V30 32829 C 3173.28 1.92139 -0.36634 0
M  V30 32830 C 3173.66 1.77085 1.14909 0
M  V30 32831 O 3173.01 1.16341 1.96665 0
M  V30 32832 C 3173.22 3.39211 -0.820776 0
M  V30 32833 C 3174.57 4.16354 -0.83274 0
M  V30 32834 O 3175.59 3.47892 -0.764825 0
M  V30 32835 O 3174.45 5.38585 -0.926753 0
M  V30 32836 H 3171.54 0.820297 -0.105078 0
M  V30 32837 H 3174.09 1.41817 -0.931987 0
M  V30 32838 H 3172.86 3.44071 -1.86363 0
M  V30 32839 H 3172.48 3.96922 -0.232079 0
M  V30 32840 N 3173.48 0.60276 1.45618 0
M  V30 32841 C 3174.39 -0.120861 2.34288 0
M  V30 32842 C 3175.41 -0.865388 1.50954 0
M  V30 32843 O 3176.58 -0.824062 1.83769 0
M  V30 32844 C 3173.65 -1.10882 3.28491 0
M  V30 32845 C 3172.71 -0.366778 4.2773 0
M  V30 32846 C 3171.94 -1.30767 5.17432 0
M  V30 32847 O 3172.16 -2.54526 5.10463 0
M  V30 32848 O 3171.1 -0.807359 5.96461 0
M  V30 32849 H 3174.92 0.607702 2.97558 0
M  V30 32850 H 3172.51 0.363045 1.44922 0
M  V30 32851 H 3174.39 -1.67796 3.86552 0
M  V30 32852 H 3173.07 -1.81849 2.67792 0
M  V30 32853 H 3171.97 0.244709 3.73299 0
M  V30 32854 H 3173.31 0.302313 4.91271 0
M  V30 32855 N 3174.96 -1.53852 0.341647 0
M  V30 32856 C 3176.2 -2.0118 -0.255827 0
M  V30 32857 C 3176.54 -1.22912 -1.50354 0
M  V30 32858 O 3175.81 -0.316232 -1.91912 0
M  V30 32859 C 3176.1 -3.5553 -0.571871 0
M  V30 32860 C 3175.95 -4.4451 0.687805 0
M  V30 32861 C 3177.27 -4.1783 -1.38225 0
M  V30 32862 H 3174.39 -0.731297 -0.0915081 0
M  V30 32863 H 3177.03 -1.84302 0.461808 0
M  V30 32864 H 3175.18 -3.70043 -1.18324 0
M  V30 32865 H 3176.85 -4.41837 1.3258 0
M  V30 32866 H 3175.09 -4.1345 1.31308 0
M  V30 32867 H 3175.76 -5.50385 0.421955 0
M  V30 32868 H 3178.24 -4.07003 -0.865303 0
M  V30 32869 H 3177.12 -5.25904 -1.57214 0
M  V30 32870 H 3177.38 -3.72327 -2.38379 0
M  V30 32871 N 3176.44 -0.0702223 -1.57443 0
M  V30 32872 C 3177.66 0.608323 -1.97755 0
M  V30 32873 C 3178.08 1.63244 -0.948525 0
M  V30 32874 O 3177.44 1.82384 0.0650139 0
M  V30 32875 C 3177.49 1.2783 -3.38145 0
M  V30 32876 O 3177.21 0.295178 -4.37104 0
M  V30 32877 C 3178.71 2.04482 -3.93322 0
M  V30 32878 H 3175.93 0.164986 -0.6504 0
M  V30 32879 H 3178.47 -0.14216 -2.04005 0
M  V30 32880 H 3176.63 1.97988 -3.32986 0
M  V30 32881 H 3177.04 0.775649 -5.18733 0
M  V30 32882 H 3178.52 2.46753 -4.93778 0
M  V30 32883 H 3178.99 2.90073 -3.29779 0
M  V30 32884 H 3179.6 1.39194 -4.01877 0
M  V30 32885 N 3177.91 1.56283 0.203321 0
M  V30 32886 C 3179.16 1.8014 0.924979 0
M  V30 32887 C 3179.49 0.642072 1.83597 0
M  V30 32888 O 3178.74 -0.372624 1.9212 0
M  V30 32889 C 3179.04 3.09915 1.7801 0
M  V30 32890 C 3178.71 4.39193 1.0208 0
M  V30 32891 C 3177.37 4.74314 0.811125 0
M  V30 32892 C 3179.72 5.1893 0.485946 0
M  V30 32893 C 3177.05 5.86674 0.0549825 0
M  V30 32894 C 3179.4 6.32078 -0.256944 0
M  V30 32895 C 3178.07 6.65788 -0.477711 0
M  V30 32896 H 3177.34 0.659179 0.338474 0
M  V30 32897 H 3179.98 1.90536 0.191889 0
M  V30 32898 H 3178.29 2.9472 2.58162 0
M  V30 32899 H 3179.99 3.25578 2.34094 0
M  V30 32900 H 3176.58 4.11626 1.19423 0
M  V30 32901 H 3180.76 4.92216 0.63536 0
M  V30 32902 H 3176.02 6.1127 -0.126113 0
M  V30 32903 H 3180.19 6.93084 -0.678805 0
M  V30 32904 H 3177.82 7.52695 -1.06554 0
M  V30 32905 N 3179.39 -0.470729 1.50406 0
M  V30 32906 C 3180.62 -1.24605 1.6517 0
M  V30 32907 C 3181.04 -1.85801 0.335186 0
M  V30 32908 O 3180.39 -1.69242 -0.68289 0
M  V30 32909 C 3180.44 -2.3545 2.74309 0
M  V30 32910 O 3180.17 -1.76764 4.00857 0
M  V30 32911 C 3181.67 -3.26321 3.0005 0
M  V30 32912 H 3178.89 -0.376832 0.555192 0
M  V30 32913 H 3181.43 -0.561835 1.96631 0
M  V30 32914 H 3179.59 -2.99647 2.45542 0
M  V30 32915 H 3180 -2.49761 4.61215 0
M  V30 32916 H 3181.47 -4.00307 3.80077 0
M  V30 32917 H 3181.95 -3.85122 2.11134 0
M  V30 32918 H 3182.56 -2.6786 3.3035 0
M  V30 32919 N 3180.87 -1.39989 -0.72393 0
M  V30 32920 C 3182.12 -1.38019 -1.48589 0
M  V30 32921 C 3182.45 0.0203181 -1.94189 0
M  V30 32922 O 3181.73 0.987392 -1.67573 0
M  V30 32923 C 3182.01 -2.36234 -2.71782 0
M  V30 32924 C 3181.86 -3.85274 -2.32129 0
M  V30 32925 C 3183.18 -2.32109 -3.73917 0
M  V30 32926 H 3180.3 -0.502657 -0.538985 0
M  V30 32927 H 3182.94 -1.71064 -0.826878 0
M  V30 32928 H 3181.09 -2.08185 -3.28011 0
M  V30 32929 H 3182.76 -4.24117 -1.81447 0
M  V30 32930 H 3181.01 -4.01512 -1.64227 0
M  V30 32931 H 3181.68 -4.49498 -3.20398 0
M  V30 32932 H 3184.15 -2.56934 -3.27298 0
M  V30 32933 H 3183.03 -3.0289 -4.57765 0
M  V30 32934 H 3183.29 -1.32986 -4.21624 0
M  V30 32935 N 3182.35 0.955282 -1.25348 0
M  V30 32936 C 3183.6 1.69645 -1.0984 0
M  V30 32937 C 3183.92 1.91622 0.361391 0
M  V30 32938 O 3183.19 1.50285 1.25663 0
M  V30 32939 H 3181.77 0.628661 -0.403478 0
M  V30 32940 H 3184.43 1.14856 -1.57461 0
M  V30 32941 H 3183.53 2.67596 -1.60621 0
M  V30 32942 N 3183.83 1.06924 1.1578 0
M  V30 32943 C 3184.76 0.707084 2.22537 0
M  V30 32944 C 3185.74 -0.303441 1.67372 0
M  V30 32945 O 3186.92 -0.177155 1.9339 0
M  V30 32946 C 3184.05 0.0994879 3.47157 0
M  V30 32947 C 3183.01 1.03669 4.15255 0
M  V30 32948 C 3182.33 0.292068 5.33902 0
M  V30 32949 C 3183.63 2.36845 4.65512 0
M  V30 32950 H 3185.33 1.59962 2.53086 0
M  V30 32951 H 3182.87 0.770573 1.21648 0
M  V30 32952 H 3184.83 -0.165778 4.21074 0
M  V30 32953 H 3183.55 -0.828099 3.15927 0
M  V30 32954 H 3182.21 1.2868 3.43274 0
M  V30 32955 H 3181.86 -0.63884 4.98927 0
M  V30 32956 H 3181.56 0.916716 5.80405 0
M  V30 32957 H 3183.08 0.0344988 6.1059 0
M  V30 32958 H 3184.5 2.16184 5.30978 0
M  V30 32959 H 3182.89 2.94865 5.22661 0
M  V30 32960 H 3183.96 2.9946 3.81381 0
M  V30 32961 N 3185.31 -1.32538 0.852723 0
M  V30 32962 C 3186.25 -2.30851 0.284699 0
M  V30 32963 C 3187.25 -1.58761 -0.590872 0
M  V30 32964 O 3188.45 -1.73513 -0.478891 0
M  V30 32965 H 3184.83 -0.748413 0.0733583 0
M  V30 32966 H 3186.8 -2.76252 1.12815 0
M  V30 32967 C 3185.55 -3.43884 -0.513729 0
M  V30 32968 H 3184.87 -3.99516 0.150714 0
M  V30 32969 H 3186.31 -4.14835 -0.876793 0
M  V30 32970 C 3184.77 -2.9097 -1.69818 0
M  V30 32971 O 3185.3 -2.88303 -2.79722 0
M  V30 32972 N 3183.51 -2.47395 -1.52461 0
M  V30 32973 H 3183.05 -2.49763 -0.630555 0
M  V30 32974 H 3183.01 -2.12345 -2.31856 0
M  V30 32975 N 3186.78 -0.610474 -1.45296 0
M  V30 32976 C 3188.01 -0.11145 -2.071 0
M  V30 32977 C 3188.43 1.19622 -1.45163 0
M  V30 32978 O 3187.79 1.72902 -0.545398 0
M  V30 32979 C 3187.84 0.0116738 -3.60598 0
M  V30 32980 O 3186.94 1.06115 -3.98514 0
M  V30 32981 H 3186.28 -0.0753756 -0.659708 0
M  V30 32982 H 3188.81 -0.841301 -1.86503 0
M  V30 32983 H 3188.82 0.208957 -4.07465 0
M  V30 32984 H 3187.5 -0.943147 -4.05065 0
M  V30 32985 H 3186.08 0.840094 -3.63314 0
M  V30 32986 N 3188.26 1.53669 -0.349801 0
M  V30 32987 C 3189.51 2.01015 0.244791 0
M  V30 32988 C 3189.84 1.23749 1.50055 0
M  V30 32989 O 3189.09 0.314906 1.9315 0
M  V30 32990 C 3189.39 3.52357 0.598249 0
M  V30 32991 C 3189.06 4.47392 -0.561349 0
M  V30 32992 C 3187.72 4.73093 -0.879564 0
M  V30 32993 C 3190.07 5.03707 -1.33899 0
M  V30 32994 C 3187.4 5.52363 -1.97768 0
M  V30 32995 C 3189.75 5.84175 -2.4274 0
M  V30 32996 C 3188.41 6.08168 -2.75114 0
M  V30 32997 H 3187.68 0.735566 0.0895755 0
M  V30 32998 H 3190.33 1.85412 -0.479007 0
M  V30 32999 H 3188.64 3.65824 1.40285 0
M  V30 33000 H 3190.33 3.86453 1.07029 0
M  V30 33001 H 3186.92 4.27526 -0.303277 0
M  V30 33002 H 3191.11 4.8381 -1.1064 0
M  V30 33003 H 3186.36 5.69176 -2.23267 0
M  V30 33004 H 3190.54 6.26823 -3.03423 0
M  V30 33005 H 3188.16 6.69378 -3.60329 0
M  V30 33006 N 3189.74 0.0785709 1.57404 0
M  V30 33007 C 3190.99 -0.589862 1.94032 0
M  V30 33008 C 3191.32 -1.68851 0.959327 0
M  V30 33009 O 3190.59 -1.94497 -0.0103636 0
M  V30 33010 C 3190.88 -1.16049 3.40888 0
M  V30 33011 C 3190.73 -0.0680282 4.49749 0
M  V30 33012 C 3192.05 -2.06394 3.88702 0
M  V30 33013 H 3189.17 -0.212952 0.705564 0
M  V30 33014 H 3191.81 0.145919 1.89439 0
M  V30 33015 H 3189.96 -1.78755 3.44933 0
M  V30 33016 H 3191.63 0.565399 4.57822 0
M  V30 33017 H 3189.87 0.600507 4.29624 0
M  V30 33018 H 3190.55 -0.507809 5.49659 0
M  V30 33019 H 3193.02 -1.53615 3.86706 0
M  V30 33020 H 3191.9 -2.43252 4.92056 0
M  V30 33021 H 3192.16 -2.9749 3.27035 0
M  V30 33022 N 3191.22 -1.56389 -0.19503 0
M  V30 33023 C 3192.46 -1.80896 -0.916768 0
M  V30 33024 C 3192.8 -0.652624 -1.82906 0
M  V30 33025 O 3192.07 0.346819 -1.91383 0
M  V30 33026 C 3192.35 -3.1566 -1.73294 0
M  V30 33027 C 3192.21 -4.41784 -0.845372 0
M  V30 33028 C 3193.53 -3.47117 -2.70551 0
M  V30 33029 H 3190.65 -0.658062 -0.331849 0
M  V30 33030 H 3193.29 -1.89106 -0.18414 0
M  V30 33031 H 3191.44 -3.08792 -2.35754 0
M  V30 33032 H 3193.11 -4.60699 -0.235476 0
M  V30 33033 H 3191.35 -4.33533 -0.152095 0
M  V30 33034 H 3192.02 -5.32576 -1.45143 0
M  V30 33035 H 3194.5 -3.54285 -2.18223 0
M  V30 33036 H 3193.38 -4.42532 -3.24741 0
M  V30 33037 H 3193.64 -2.70614 -3.496 0
M  V30 33038 N 3192.7 0.462746 -1.50653 0
M  V30 33039 C 3193.94 1.21181 -1.61739 0
M  V30 33040 C 3194.26 1.92294 -0.323724 0
M  V30 33041 O 3193.53 1.84475 0.659237 0
M  V30 33042 H 3192.11 0.450295 -0.596023 0
M  V30 33043 H 3194.78 0.533018 -1.8747 0
M  V30 33044 H 3193.87 1.9552 -2.43266 0
M  V30 33045 N 3194.17 1.40371 0.716495 0
M  V30 33046 C 3195.4 1.42105 1.51066 0
M  V30 33047 C 3195.82 0.0222717 1.88087 0
M  V30 33048 O 3195.18 -0.969421 1.53205 0
M  V30 33049 C 3195.23 2.31709 2.76303 0
M  V30 33050 O 3194.33 1.75971 3.72972 0
M  V30 33051 H 3193.68 0.483137 0.455494 0
M  V30 33052 H 3196.21 1.8459 0.882481 0
M  V30 33053 H 3196.22 2.46864 3.24842 0
M  V30 33054 H 3194.89 3.33354 2.48692 0
M  V30 33055 H 3193.47 1.70157 3.31815 0
M  V30 33056 N 3195.65 -0.948621 1.25853 0
M  V30 33057 C 3196.58 -2.04977 1.02552 0
M  V30 33058 C 3197.6 -1.62796 -0.0115636 0
M  V30 33059 O 3198.79 -1.77042 0.227674 0
M  V30 33060 C 3195.89 -3.34737 0.529545 0
M  V30 33061 C 3195.06 -4.05726 1.63417 0
M  V30 33062 C 3194.12 -5.13758 1.13752 0
M  V30 33063 O 3193.14 -5.38874 1.83312 0
M  V30 33064 N 3194.35 -5.80497 -0.0180131 0
M  V30 33065 H 3197.11 -2.25534 1.97369 0
M  V30 33066 H 3194.67 -1.11759 1.17139 0
M  V30 33067 H 3196.66 -4.04292 0.181637 0
M  V30 33068 H 3195.23 -3.10908 -0.324839 0
M  V30 33069 H 3194.45 -3.30187 2.15337 0
M  V30 33070 H 3195.74 -4.4991 2.3761 0
M  V30 33071 H 3195.14 -5.62519 -0.599099 0
M  V30 33072 H 3193.7 -6.51077 -0.306904 0
M  V30 33073 N 3197.13 -1.07536 -1.15212 0
M  V30 33074 C 3198.06 -0.718876 -2.22159 0
M  V30 33075 C 3199.04 0.294561 -1.6753 0
M  V30 33076 O 3200.23 0.166897 -1.93482 0
M  V30 33077 C 3197.36 -0.117897 -3.471 0
M  V30 33078 C 3196.31 -1.0587 -4.14699 0
M  V30 33079 C 3195.64 -0.320378 -5.33739 0
M  V30 33080 C 3196.94 -2.39311 -4.6425 0
M  V30 33081 H 3198.63 -1.61302 -2.52234 0
M  V30 33082 H 3196.18 -0.777014 -1.21237 0
M  V30 33083 H 3198.13 0.143445 -4.21156 0
M  V30 33084 H 3196.85 0.811333 -3.16362 0
M  V30 33085 H 3195.51 -1.30499 -3.42587 0
M  V30 33086 H 3195.16 0.612372 -4.99258 0
M  V30 33087 H 3194.86 -0.947483 -5.79911 0
M  V30 33088 H 3196.38 -0.0668794 -6.10563 0
M  V30 33089 H 3197.8 -2.18997 -5.29824 0
M  V30 33090 H 3196.2 -2.97633 -5.2109 0
M  V30 33091 H 3197.27 -3.01478 -3.79788 0
M  V30 33092 N 3198.61 1.32084 -0.85974 0
M  V30 33093 C 3200.02 1.79325 -0.519561 0
M  V30 33094 C 3200.37 1.70945 0.96292 0
M  V30 33095 O 3199.5 1.27107 1.75136 0
M  V30 33096 C 3200.09 3.25605 -0.936324 0
M  V30 33097 C 3198.65 3.70781 -0.647964 0
M  V30 33098 C 3197.8 2.53085 -1.13328 0
M  V30 33099 H 3200.75 1.19311 -1.04645 0
M  V30 33100 H 3200.77 3.79646 -0.254781 0
M  V30 33101 H 3200.28 3.31672 -2.01533 0
M  V30 33102 H 3198.38 3.70224 0.420107 0
M  V30 33103 H 3198.49 4.63364 -1.21782 0
M  V30 33104 H 3196.86 2.48616 -0.553369 0
M  V30 33105 H 3197.64 2.61904 -2.21949 0
M  V30 33106 N 3200.09 0.618171 1.4497 0
M  V30 33107 C 3201.33 0.120661 2.04044 0
M  V30 33108 C 3201.69 -1.22944 1.47474 0
M  V30 33109 O 3202.89 -1.8183 1.97968 0
M  V30 33110 C 3201.16 0.0931491 3.57279 0
M  V30 33111 S 3202.72 -0.341629 4.37468 0
M  V30 33112 H 3199.54 0.0547397 0.70889 0
M  V30 33113 H 3202.14 0.818652 1.77534 0
M  V30 33114 H 3200.85 1.0791 3.95959 0
M  V30 33115 H 3200.38 -0.626502 3.88379 0
M  V30 33116 H 3202.39 -1.5888 4.70076 0
M  V30 33117 N 3201.56 -1.53481 0.357946 0
M  V30 33118 C 3202.84 -1.93436 -0.29013 0
M  V30 33119 C 3203.22 -1.29082 -1.67036 0
M  V30 33120 O 3202.57 -0.447057 -2.24084 0
M  V30 33121 C 3202.78 -3.47261 -0.347994 0
M  V30 33122 C 3204.13 -4.20453 -0.591986 0
M  V30 33123 O 3205.15 -3.53601 -0.429519 0
M  V30 33124 O 3204.01 -5.38908 -0.90776 0
M  V30 33125 H 3201.1 -0.808853 -0.172297 0
M  V30 33126 H 3203.65 -1.64668 0.410173 0
M  V30 33127 H 3202.42 -3.86357 0.620021 0
M  V30 33128 H 3202.05 -3.82239 -1.0945 0
M  V30 33129 N 3203.04 -0.0869173 -1.5736 0
M  V30 33130 C 3204.45 0.443467 -1.81357 0
M  V30 33131 C 3204.8 1.68687 -1.00195 0
M  V30 33132 O 3203.93 2.15186 -0.228901 0
M  V30 33133 C 3204.52 0.811329 -3.28942 0
M  V30 33134 C 3203.08 1.2865 -3.53732 0
M  V30 33135 C 3202.23 0.279104 -2.75892 0
M  V30 33136 H 3205.18 -0.312455 -1.55594 0
M  V30 33137 H 3205.2 1.67154 -3.41818 0
M  V30 33138 H 3204.71 -0.093828 -3.87987 0
M  V30 33139 H 3202.82 2.20964 -3.00009 0
M  V30 33140 H 3202.93 1.25398 -4.62398 0
M  V30 33141 H 3201.29 0.759552 -2.43111 0
M  V30 33142 H 3202.08 -0.618589 -3.37681 0
M  V30 33143 N 3204.52 1.5649 0.186734 0
M  V30 33144 C 3205.43 1.98421 1.25165 0
M  V30 33145 C 3206.45 0.89315 1.49328 0
M  V30 33146 O 3207.62 1.19957 1.61779 0
M  V30 33147 C 3204.69 2.32243 2.57418 0
M  V30 33148 C 3203.75 3.55099 2.41254 0
M  V30 33149 C 3202.98 3.87299 3.67199 0
M  V30 33150 O 3203.2 3.20673 4.71726 0
M  V30 33151 O 3202.14 4.80701 3.62229 0
M  V30 33152 H 3205.96 2.89245 0.925784 0
M  V30 33153 H 3203.55 1.44155 0.392395 0
M  V30 33154 H 3205.43 2.55036 3.35462 0
M  V30 33155 H 3204.11 1.44585 2.89615 0
M  V30 33156 H 3203.01 3.37543 1.61293 0
M  V30 33157 H 3204.35 4.4325 2.13986 0
M  V30 33158 N 3206 -0.45475 1.50897 0
M  V30 33159 C 3207.41 -1.03517 1.55374 0
M  V30 33160 C 3207.76 -1.9274 0.366856 0
M  V30 33161 O 3206.89 -2.10099 -0.518407 0
M  V30 33162 C 3207.48 -1.88413 2.81578 0
M  V30 33163 C 3206.04 -2.41535 2.88683 0
M  V30 33164 C 3205.19 -1.20293 2.4985 0
M  V30 33165 H 3208.14 -0.236701 1.56925 0
M  V30 33166 H 3208.16 -2.73671 2.64357 0
M  V30 33167 H 3207.67 -1.23449 3.67943 0
M  V30 33168 H 3205.77 -3.10004 2.06708 0
M  V30 33169 H 3205.88 -2.75524 3.91948 0
M  V30 33170 H 3204.25 -1.54285 2.02653 0
M  V30 33171 H 3205.03 -0.569664 3.38541 0
M  V30 33172 N 3207.48 -1.40749 -0.709041 0
M  V30 33173 C 3208.75 -1.29877 -1.46258 0
M  V30 33174 C 3209.13 0.0798951 -2.10949 0
M  V30 33175 O 3208.48 1.09319 -2.00653 0
M  V30 33176 C 3208.69 -2.44237 -2.49298 0
M  V30 33177 C 3210.04 -2.84777 -3.1494 0
M  V30 33178 O 3211.06 -2.43878 -2.59619 0
M  V30 33179 O 3209.92 -3.55457 -4.15105 0
M  V30 33180 H 3207.02 -0.510402 -0.650707 0
M  V30 33181 H 3209.56 -1.52684 -0.740661 0
M  V30 33182 H 3208.33 -3.36293 -2.00057 0
M  V30 33183 H 3207.96 -2.23235 -3.29017 0
M  V30 33184 N 3208.96 0.941933 -1.26354 0
M  V30 33185 C 3210.18 1.72243 -1.14629 0
M  V30 33186 C 3210.6 1.86424 0.298555 0
M  V30 33187 O 3209.96 1.37108 1.20447 0
M  V30 33188 C 3210.01 3.12959 -1.80938 0
M  V30 33189 O 3209.73 2.99457 -3.19777 0
M  V30 33190 C 3211.23 4.07228 -1.75157 0
M  V30 33191 H 3208.45 0.539326 -0.39921 0
M  V30 33192 H 3210.99 1.18088 -1.6696 0
M  V30 33193 H 3209.15 3.64019 -1.32548 0
M  V30 33194 H 3209.56 3.88315 -3.52578 0
M  V30 33195 H 3211.04 5.03529 -2.26192 0
M  V30 33196 H 3211.51 4.33292 -0.717931 0
M  V30 33197 H 3212.12 3.62089 -2.23096 0
M  V30 33198 N 3210.43 1.08146 1.1464 0
M  V30 33199 C 3211.34 0.720707 2.23255 0
M  V30 33200 C 3212.36 -0.271618 1.71867 0
M  V30 33201 O 3213.54 -0.116231 2.01064 0
M  V30 33202 C 3210.6 0.132603 3.46446 0
M  V30 33203 C 3209.66 1.1792 4.12787 0
M  V30 33204 C 3208.89 0.619065 5.30097 0
M  V30 33205 O 3209.12 -0.562318 5.67621 0
M  V30 33206 O 3208.05 1.36784 5.86152 0
M  V30 33207 H 3211.88 1.62672 2.5646 0
M  V30 33208 H 3209.46 0.854953 1.22519 0
M  V30 33209 H 3211.34 -0.192696 4.20959 0
M  V30 33210 H 3210.02 -0.746607 3.14972 0
M  V30 33211 H 3208.93 1.55699 3.4016 0
M  V30 33212 H 3210.26 2.03059 4.48361 0
M  V30 33213 N 3211.91 -1.31626 0.866732 0
M  V30 33214 C 3213.16 -1.97116 0.476766 0
M  V30 33215 C 3213.49 -1.68367 -0.967783 0
M  V30 33216 O 3212.77 -0.978407 -1.681 0
M  V30 33217 C 3213.05 -3.5261 0.730623 0
M  V30 33218 C 3212.9 -3.90944 2.22447 0
M  V30 33219 C 3214.22 -4.39668 0.194957 0
M  V30 33220 H 3211.34 -0.715996 0.174695 0
M  V30 33221 H 3213.98 -1.55808 1.08738 0
M  V30 33222 H 3212.13 -3.87927 0.210902 0
M  V30 33223 H 3213.8 -3.65745 2.8112 0
M  V30 33224 H 3212.05 -3.39668 2.6983 0
M  V30 33225 H 3212.72 -4.99349 2.35275 0
M  V30 33226 H 3215.19 -4.11156 0.639551 0
M  V30 33227 H 3214.07 -5.47426 0.402054 0
M  V30 33228 H 3214.33 -4.32781 -0.902944 0
M  V30 33229 N 3213.39 -0.62585 -1.4464 0
M  V30 33230 C 3214.32 0.0691778 -2.33398 0
M  V30 33231 C 3215.3 0.840215 -1.479 0
M  V30 33232 O 3216.49 0.807145 -1.76632 0
M  V30 33233 C 3213.62 1.05494 -3.3089 0
M  V30 33234 C 3212.57 0.395893 -4.26165 0
M  V30 33235 C 3211.9 1.49119 -5.13486 0
M  V30 33236 C 3213.2 -0.694524 -5.17662 0
M  V30 33237 H 3214.89 -0.671976 -2.91762 0
M  V30 33238 H 3212.44 -0.324598 -1.40294 0
M  V30 33239 H 3214.39 1.54986 -3.91864 0
M  V30 33240 H 3213.11 1.82692 -2.70724 0
M  V30 33241 H 3211.77 -0.0783336 -3.66516 0
M  V30 33242 H 3211.42 2.25391 -4.49675 0
M  V30 33243 H 3211.12 1.05562 -5.7804 0
M  V30 33244 H 3212.64 1.98802 -5.7733 0
M  V30 33245 H 3214.06 -0.282919 -5.72601 0
M  V30 33246 H 3212.45 -1.05291 -5.90791 0
M  V30 33247 H 3213.52 -1.5638 -4.58992 0
M  V30 33248 N 3214.87 1.53289 -0.36608 0
M  V30 33249 C 3215.83 2.24374 0.467865 0
M  V30 33250 C 3216.83 1.25178 1.00932 0
M  V30 33251 O 3218.02 1.49451 0.894989 0
M  V30 33252 C 3215.15 2.98087 1.65399 0
M  V30 33253 H 3216.35 2.99504 -0.154157 0
M  V30 33254 H 3213.9 1.55856 -0.117778 0
M  V30 33255 H 3214.63 2.27201 2.31409 0
M  V30 33256 H 3214.42 3.7087 1.2727 0
M  V30 33257 H 3215.91 3.52123 2.24497 0
M  V30 33258 N 3216.35 0.0952613 1.57312 0
M  V30 33259 C 3217.57 -0.580171 1.9912 0
M  V30 33260 C 3218 -1.6092 0.973983 0
M  V30 33261 O 3217.35 -1.81209 -0.057502 0
M  V30 33262 C 3217.4 -1.20432 3.39895 0
M  V30 33263 O 3216.51 -2.32013 3.40945 0
M  V30 33264 H 3215.85 -0.147183 0.647482 0
M  V30 33265 H 3218.38 0.176721 2.03835 0
M  V30 33266 H 3218.39 -1.54558 3.77592 0
M  V30 33267 H 3217.06 -0.450442 4.13454 0
M  V30 33268 H 3215.64 -1.99505 3.15043 0
M  V30 33269 N 3217.82 -1.56587 -0.178432 0
M  V30 33270 C 3218.76 -1.90948 -1.24956 0
M  V30 33271 C 3219.73 -0.771449 -1.43134 0
M  V30 33272 O 3220.92 -1.02408 -1.58256 0
M  V30 33273 C 3218.05 -2.15421 -2.61364 0
M  V30 33274 C 3217.09 -3.38115 -2.59963 0
M  V30 33275 S 3217.92 -4.92713 -2.09747 0
M  V30 33276 C 3219.08 -5.20273 -3.47946 0
M  V30 33277 H 3219.31 -2.81502 -0.956238 0
M  V30 33278 H 3216.85 -1.49582 -0.382683 0
M  V30 33279 H 3218.8 -2.30203 -3.39878 0
M  V30 33280 H 3217.47 -1.25588 -2.879 0
M  V30 33281 H 3216.66 -3.52417 -3.60303 0
M  V30 33282 H 3216.26 -3.22413 -1.89541 0
M  V30 33283 H 3218.55 -5.11815 -4.43905 0
M  V30 33284 H 3219.5 -6.21938 -3.38525 0
M  V30 33285 H 3219.9 -4.47861 -3.43629 0
M  V30 33286 N 3219.3 0.446741 -1.51136 0
M  V30 33287 C 3220.23 1.54913 -1.74712 0
M  V30 33288 C 3221.21 1.59292 -0.596656 0
M  V30 33289 O 3222.4 1.75171 -0.838386 0
M  V30 33290 C 3219.53 2.93067 -1.86358 0
M  V30 33291 C 3218.48 3.0355 -3.0173 0
M  V30 33292 C 3217.81 4.43591 -2.98548 0
M  V30 33293 C 3219.11 2.78502 -4.41853 0
M  V30 33294 H 3220.8 1.35435 -2.67016 0
M  V30 33295 H 3218.35 0.650108 -1.2849 0
M  V30 33296 H 3220.3 3.70138 -2.01435 0
M  V30 33297 H 3219.02 3.13755 -0.906942 0
M  V30 33298 H 3217.68 2.28917 -2.86343 0
M  V30 33299 H 3217.33 4.61233 -2.00681 0
M  V30 33300 H 3217.03 4.51537 -3.76015 0
M  V30 33301 H 3218.56 5.22649 -3.15705 0
M  V30 33302 H 3219.97 3.45311 -4.57639 0
M  V30 33303 H 3218.37 2.97868 -5.20955 0
M  V30 33304 H 3219.44 1.74174 -4.52539 0
M  V30 33305 N 3220.78 1.41123 0.701567 0
M  V30 33306 C 3222.01 1.43502 1.49046 0
M  V30 33307 C 3222.42 0.0386016 1.88761 0
M  V30 33308 O 3221.78 -0.940728 1.56386 0
M  V30 33309 C 3221.83 2.33836 2.75686 0
M  V30 33310 O 3221.55 3.68043 2.37647 0
M  V30 33311 C 3223.05 2.44955 3.69475 0
M  V30 33312 H 3220.27 0.488969 0.459511 0
M  V30 33313 H 3222.82 1.85338 0.864286 0
M  V30 33314 H 3220.97 1.95324 3.34555 0
M  V30 33315 H 3221.39 4.16161 3.19233 0
M  V30 33316 H 3222.86 3.12342 4.55134 0
M  V30 33317 H 3223.34 1.47894 4.1355 0
M  V30 33318 H 3223.94 2.84078 3.16512 0
M  V30 33319 N 3222.26 -0.935219 1.26852 0
M  V30 33320 C 3223.53 -1.65982 1.03486 0
M  V30 33321 C 3223.91 -2.06615 -0.432823 0
M  V30 33322 O 3223.26 -1.79458 -1.41446 0
M  V30 33323 C 3223.47 -2.86754 1.98929 0
M  V30 33324 C 3224.82 -3.5827 2.27876 0
M  V30 33325 O 3225.84 -2.96869 1.96843 0
M  V30 33326 O 3224.7 -4.68877 2.80743 0
M  V30 33327 H 3221.8 -0.727143 0.393945 0
M  V30 33328 H 3224.34 -0.986421 1.38086 0
M  V30 33329 H 3223.12 -2.53663 2.97944 0
M  V30 33330 H 3222.74 -3.61817 1.64845 0
M  V30 33331 N 3223.74 -1.08752 -1.14065 0
M  V30 33332 C 3225.15 -0.839807 -1.66746 0
M  V30 33333 C 3225.5 0.632876 -1.85712 0
M  V30 33334 O 3224.62 1.48838 -1.57087 0
M  V30 33335 C 3225.22 -1.51792 -3.02894 0
M  V30 33336 C 3223.78 -1.31736 -3.52594 0
M  V30 33337 C 3222.92 -1.57845 -2.27992 0
M  V30 33338 H 3225.88 -1.24763 -0.980816 0
M  V30 33339 H 3225.9 -0.947122 -3.68524 0
M  V30 33340 H 3225.41 -2.58974 -2.89057 0
M  V30 33341 H 3223.51 -0.266404 -3.71646 0
M  V30 33342 H 3223.62 -2.04743 -4.33148 0
M  V30 33343 H 3221.99 -1.00019 -2.3424 0
M  V30 33344 H 3222.77 -2.66241 -2.16727 0
M  V30 33345 N 3225.21 1.31165 -0.873701 0
M  V30 33346 C 3226.44 2.01276 -0.500277 0
M  V30 33347 C 3226.86 1.65129 0.900782 0
M  V30 33348 O 3226.22 0.86189 1.59503 0
M  V30 33349 C 3226.27 3.54339 -0.669039 0
M  V30 33350 O 3225.37 4.11379 0.290023 0
M  V30 33351 H 3224.72 0.63363 -0.198518 0
M  V30 33352 H 3227.25 1.67275 -1.17814 0
M  V30 33353 H 3227.26 4.04087 -0.563745 0
M  V30 33354 H 3225.93 3.79988 -1.69062 0
M  V30 33355 H 3224.51 3.72639 0.139372 0
M  V30 33356 N 3226.69 0.633512 1.44307 0
M  V30 33357 C 3227.64 -0.0919218 2.27815 0
M  V30 33358 C 3228.63 -0.813858 1.38799 0
M  V30 33359 O 3229.82 -0.699572 1.62588 0
M  V30 33360 C 3226.95 -1.07119 3.2616 0
M  V30 33361 C 3226.03 -0.348757 4.22664 0
M  V30 33362 N 3226.42 0.623942 5.01937 0
M  V30 33363 C 3224.72 -0.592881 4.42042 0
M  V30 33364 C 3225.42 1.05099 5.72127 0
M  V30 33365 N 3224.4 0.389278 5.42204 0
M  V30 33366 H 3228.2 0.654771 2.86513 0
M  V30 33367 H 3225.72 0.459206 1.55772 0
M  V30 33368 H 3227.71 -1.60553 3.84745 0
M  V30 33369 H 3226.37 -1.81816 2.69022 0
M  V30 33370 H 3227.38 1.00185 5.08117 0
M  V30 33371 H 3224.06 -1.32254 3.95999 0
M  V30 33372 H 3225.45 1.85472 6.45794 0
M  V30 33373 N 3228.17 -1.53093 0.374204 0
M  V30 33374 C 3229.42 -2.00562 -0.213946 0
M  V30 33375 C 3229.73 -1.26536 -1.49158 0
M  V30 33376 O 3230.94 -1.64638 -2.15886 0
M  V30 33377 C 3229.39 -3.573 -0.431813 0
M  V30 33378 C 3229 -4.40212 0.831692 0
M  V30 33379 C 3230.75 -4.13101 -0.977149 0
M  V30 33380 C 3228.65 -5.8852 0.582934 0
M  V30 33381 H 3227.58 -0.749337 -0.0837255 0
M  V30 33382 H 3230.23 -1.76718 0.494276 0
M  V30 33383 H 3228.62 -3.77332 -1.20151 0
M  V30 33384 H 3229.79 -4.31951 1.60484 0
M  V30 33385 H 3228.11 -3.95558 1.30087 0
M  V30 33386 H 3230.7 -5.21546 -1.17872 0
M  V30 33387 H 3231.05 -3.68238 -1.94182 0
M  V30 33388 H 3231.58 -3.969 -0.267403 0
M  V30 33389 H 3228.32 -6.37677 1.51818 0
M  V30 33390 H 3227.84 -5.99608 -0.15156 0
M  V30 33391 H 3229.52 -6.46654 0.211718 0
M  V30 33392 N 3229.65 -0.103603 -1.57259 0
M  V30 33393 C 3230.88 0.56624 -1.99001 0
M  V30 33394 C 3231.29 1.61195 -0.982938 0
M  V30 33395 O 3230.65 1.82481 0.0263129 0
M  V30 33396 C 3230.7 1.20629 -3.4078 0
M  V30 33397 O 3230.42 0.202395 -4.37632 0
M  V30 33398 C 3231.92 1.96093 -3.97571 0
M  V30 33399 H 3229.14 0.151153 -0.653754 0
M  V30 33400 H 3231.69 -0.185401 -2.03658 0
M  V30 33401 H 3229.84 1.9088 -3.3711 0
M  V30 33402 H 3230.25 0.665444 -5.20262 0
M  V30 33403 H 3231.73 2.36224 -4.98901 0
M  V30 33404 H 3232.21 2.83013 -3.35858 0
M  V30 33405 H 3232.81 1.30638 -4.04739 0
M  V30 33406 N 3231.13 1.56679 0.170126 0
M  V30 33407 C 3232.09 1.95619 1.1944 0
M  V30 33408 C 3233.09 0.839984 1.37116 0
M  V30 33409 O 3234.28 1.10702 1.34502 0
M  V30 33410 C 3231.41 2.25204 2.55922 0
M  V30 33411 H 3232.6 2.87278 0.8609 0
M  V30 33412 H 3230.16 1.50755 0.412619 0
M  V30 33413 H 3230.89 1.36263 2.94284 0
M  V30 33414 H 3230.68 3.06566 2.44458 0
M  V30 33415 H 3232.17 2.56248 3.29737 0
M  V30 33416 N 3232.6 -0.43872 1.5137 0
M  V30 33417 C 3233.51 -1.55765 1.75426 0
M  V30 33418 C 3234.53 -1.61864 0.638438 0
M  V30 33419 O 3235.71 -1.79132 0.920532 0
M  V30 33420 C 3232.77 -2.91757 1.87293 0
M  V30 33421 C 3231.83 -2.95786 3.11142 0
M  V30 33422 C 3231.07 -4.25291 3.22433 0
M  V30 33423 O 3231.29 -5.17592 2.39697 0
M  V30 33424 O 3230.22 -4.35576 4.154 0
M  V30 33425 H 3234.05 -1.38381 2.70341 0
M  V30 33426 H 3231.63 -0.621586 1.35855 0
M  V30 33427 H 3233.52 -3.72469 1.97091 0
M  V30 33428 H 3232.19 -3.09272 0.955653 0
M  V30 33429 H 3231.1 -2.14034 3.06823 0
M  V30 33430 H 3232.43 -2.83216 4.02554 0
M  V30 33431 N 3234.08 -1.41493 -0.694073 0
M  V30 33432 C 3235.05 -1.43182 -1.78974 0
M  V30 33433 C 3236.05 -0.322218 -1.57539 0
M  V30 33434 O 3237.24 -0.582167 -1.64184 0
M  V30 33435 C 3234.37 -1.24466 -3.17366 0
M  V30 33436 H 3235.56 -2.40719 -1.78869 0
M  V30 33437 H 3233.11 -1.27658 -0.901845 0
M  V30 33438 H 3233.85 -0.277748 -3.23108 0
M  V30 33439 H 3233.63 -2.04862 -3.34326 0
M  V30 33440 H 3235.12 -1.28486 -3.97343 0
M  V30 33441 N 3235.56 0.928479 -1.27346 0
M  V30 33442 C 3236.52 2.01053 -1.10047 0
M  V30 33443 C 3237.52 1.60738 -0.0447075 0
M  V30 33444 O 3238.71 1.71782 -0.289232 0
M  V30 33445 C 3235.85 3.34118 -0.676618 0
M  V30 33446 H 3237.04 2.17831 -2.0613 0
M  V30 33447 H 3234.59 1.10917 -1.10123 0
M  V30 33448 H 3235.33 3.2304 0.28564 0
M  V30 33449 H 3235.11 3.64736 -1.4391 0
M  V30 33450 H 3236.6 4.13583 -0.577797 0
M  V30 33451 N 3237.04 1.09355 1.13486 0
M  V30 33452 C 3238 0.735901 2.17065 0
M  V30 33453 C 3239 -0.234153 1.59086 0
M  V30 33454 O 3240.19 -0.0124324 1.74196 0
M  V30 33455 C 3237.32 0.0881575 3.40786 0
M  V30 33456 H 3238.52 1.6532 2.50218 0
M  V30 33457 H 3236.07 0.892652 1.28302 0
M  V30 33458 H 3236.8 -0.840407 3.13221 0
M  V30 33459 H 3236.59 0.786141 3.84138 0
M  V30 33460 H 3238.08 -0.146702 4.17342 0
M  V30 33461 N 3238.52 -1.307 0.880644 0
M  V30 33462 C 3239.93 -1.48919 0.574041 0
M  V30 33463 C 3240.13 -1.80815 -0.88928 0
M  V30 33464 O 3239.19 -1.89317 -1.67079 0
M  V30 33465 C 3240.5 -2.61561 1.48346 0
M  V30 33466 C 3242.05 -2.75442 1.48663 0
M  V30 33467 C 3242.53 -3.91192 2.38187 0
M  V30 33468 N 3244.02 -3.98495 2.36126 0
M  V30 33469 C 3244.75 -4.87357 3.0211 0
M  V30 33470 N 3244.25 -5.81046 3.77303 0
M  V30 33471 N 3246.04 -4.80691 2.91364 0
M  V30 33472 H 3238.19 -1.08268 1.82734 0
M  V30 33473 H 3240.45 -0.535967 0.781948 0
M  V30 33474 H 3240.16 -2.448 2.52519 0
M  V30 33475 H 3240.03 -3.57942 1.18984 0
M  V30 33476 H 3242.42 -2.91611 0.452425 0
M  V30 33477 H 3242.5 -1.79695 1.82054 0
M  V30 33478 H 3242.15 -3.7578 3.4169 0
M  V30 33479 H 3242.08 -4.86269 2.02115 0
M  V30 33480 H 3244.57 -3.31472 1.8148 0
M  V30 33481 H 3244.88 -6.45604 4.24753 0
M  V30 33482 H 3243.23 -5.80991 3.81411 0
M  V30 33483 H 3246.42 -4.06477 2.3215 0
M  V30 33484 H 3246.59 -5.49736 3.43066 0
M  V30 33485 N 3240 -0.641156 -1.43969 0
M  V30 33486 C 3241.41 -0.307647 -1.56607 0
M  V30 33487 C 3241.61 1.18879 -1.62696 0
M  V30 33488 O 3240.67 1.97322 -1.57544 0
M  V30 33489 C 3241.98 -1.00839 -2.83288 0
M  V30 33490 C 3243.53 -0.987492 -2.97014 0
M  V30 33491 C 3244 -1.6689 -4.26511 0
M  V30 33492 N 3245.49 -1.63596 -4.33348 0
M  V30 33493 C 3246.23 -2.13205 -5.32289 0
M  V30 33494 N 3245.73 -2.71049 -6.37577 0
M  V30 33495 N 3247.52 -2.03775 -5.23863 0
M  V30 33496 H 3239.67 -1.61239 -1.38259 0
M  V30 33497 H 3241.93 -0.67739 -0.663209 0
M  V30 33498 H 3241.64 -2.06342 -2.84809 0
M  V30 33499 H 3241.51 -0.552399 -3.73133 0
M  V30 33500 H 3243.9 0.0590876 -2.95041 0
M  V30 33501 H 3243.98 -1.48207 -2.08491 0
M  V30 33502 H 3243.62 -2.71498 -4.29245 0
M  V30 33503 H 3243.55 -1.14907 -5.1391 0
M  V30 33504 H 3246.05 -1.21374 -3.57878 0
M  V30 33505 H 3246.36 -3.0661 -7.09373 0
M  V30 33506 H 3244.7 -2.75105 -6.38234 0
M  V30 33507 H 3247.89 -1.58299 -4.40521 0
M  V30 33508 H 3248.07 -2.42747 -6.00814 0
M  V30 33509 N 3241.47 1.52892 -0.382318 0
M  V30 33510 C 3242.4 2.29166 0.447789 0
M  V30 33511 C 3243.38 1.32269 1.06953 0
M  V30 33512 O 3244.57 1.61156 1.08363 0
M  V30 33513 C 3241.7 3.09332 1.57896 0
M  V30 33514 C 3240.65 4.14055 1.08362 0
M  V30 33515 C 3239.98 4.82403 2.30633 0
M  V30 33516 C 3241.28 5.22065 0.156499 0
M  V30 33517 H 3242.97 2.98805 -0.188593 0
M  V30 33518 H 3240.52 1.43705 -0.0921432 0
M  V30 33519 H 3242.47 3.61445 2.16645 0
M  V30 33520 H 3241.2 2.37413 2.24283 0
M  V30 33521 H 3239.86 3.62912 0.518708 0
M  V30 33522 H 3239.5 4.07039 2.95513 0
M  V30 33523 H 3239.2 5.53181 1.98154 0
M  V30 33524 H 3240.73 5.37318 2.90037 0
M  V30 33525 H 3242.14 5.69581 0.651965 0
M  V30 33526 H 3240.54 6.00049 -0.0782033 0
M  V30 33527 H 3241.61 4.78312 -0.796613 0
M  V30 33528 N 3242.95 0.111941 1.57202 0
M  V30 33529 C 3243.91 -0.826496 2.1378 0
M  V30 33530 C 3244.91 -1.19944 1.07099 0
M  V30 33531 O 3246.1 -1.1261 1.32908 0
M  V30 33532 C 3243.24 -2.11671 2.67224 0
M  V30 33533 H 3244.43 -0.334923 2.98024 0
M  V30 33534 H 3241.98 -0.137229 1.55696 0
M  V30 33535 H 3242.72 -2.65275 1.86547 0
M  V30 33536 H 3242.5 -1.85884 3.45238 0
M  V30 33537 H 3243.99 -2.78768 3.10931 0
M  V30 33538 N 3244.43 -1.56767 -0.161814 0
M  V30 33539 C 3245.85 -1.51099 -0.513933 0
M  V30 33540 C 3246.05 -0.817847 -1.84156 0
M  V30 33541 O 3245.1 -0.382177 -2.49591 0
M  V30 33542 C 3246.41 -2.9585 -0.537914 0
M  V30 33543 C 3247.96 -3.06708 -0.624458 0
M  V30 33544 C 3248.44 -4.52935 -0.679242 0
M  V30 33545 N 3249.93 -4.5722 -0.741873 0
M  V30 33546 C 3250.66 -5.67721 -0.804996 0
M  V30 33547 N 3250.16 -6.8783 -0.828371 0
M  V30 33548 N 3251.95 -5.55716 -0.844745 0
M  V30 33549 H 3244.1 -2.00231 0.708616 0
M  V30 33550 H 3246.37 -0.912599 0.256646 0
M  V30 33551 H 3246.07 -3.49758 0.369113 0
M  V30 33552 H 3245.95 -3.51007 -1.38107 0
M  V30 33553 H 3248.33 -2.52828 -1.52191 0
M  V30 33554 H 3248.41 -2.54619 0.245559 0
M  V30 33555 H 3248.06 -5.07449 0.21399 0
M  V30 33556 H 3247.99 -5.02791 -1.56554 0
M  V30 33557 H 3250.48 -3.70749 -0.731707 0
M  V30 33558 H 3250.79 -7.67796 -0.877974 0
M  V30 33559 H 3249.14 -6.90421 -0.79649 0
M  V30 33560 H 3252.33 -4.60798 -0.823551 0
M  V30 33561 H 3252.5 -6.41852 -0.890475 0
M  V30 33562 N 3245.91 0.430686 -1.51601 0
M  V30 33563 C 3247.16 1.17723 -1.64273 0
M  V30 33564 C 3247.48 1.91564 -0.364439 0
M  V30 33565 O 3246.75 1.85831 0.619959 0
M  V30 33566 H 3245.33 0.437552 -0.60544 0
M  V30 33567 H 3247.99 0.493133 -1.88558 0
M  V30 33568 H 3247.08 1.90316 -2.47358 0
M  V30 33569 N 3247.39 1.4186 0.686559 0
M  V30 33570 C 3248.61 1.45277 1.48018 0
M  V30 33571 C 3249.04 0.0621627 1.87997 0
M  V30 33572 O 3248.39 -0.936706 1.55227 0
M  V30 33573 C 3248.44 2.37517 2.71326 0
M  V30 33574 O 3247.55 1.83843 3.69155 0
M  V30 33575 H 3246.89 0.49269 0.445143 0
M  V30 33576 H 3249.42 1.8642 0.843129 0
M  V30 33577 H 3249.43 2.53699 3.19532 0
M  V30 33578 H 3248.1 3.38554 2.41565 0
M  V30 33579 H 3246.68 1.77157 3.28131 0
M  V30 33580 N 3248.86 -0.921712 1.27837 0
M  V30 33581 C 3250.27 -1.48503 1.13153 0
M  V30 33582 C 3250.63 -1.94172 -0.281339 0
M  V30 33583 O 3249.75 -1.81732 -1.17484 0
M  V30 33584 C 3250.35 -2.69896 2.04797 0
M  V30 33585 C 3248.9 -3.22432 1.94202 0
M  V30 33586 C 3248.05 -1.95155 1.97002 0
M  V30 33587 H 3251 -0.735216 1.40642 0
M  V30 33588 H 3251.02 -3.44886 1.6073 0
M  V30 33589 H 3250.54 -2.36626 3.0762 0
M  V30 33590 H 3248.64 -3.60447 0.943868 0
M  V30 33591 H 3248.75 -3.88221 2.80751 0
M  V30 33592 H 3247.11 -2.11908 1.41305 0
M  V30 33593 H 3247.9 -1.64191 3.0149 0
M  V30 33594 N 3250.34 -1.09956 -1.12905 0
M  V30 33595 C 3251.75 -0.857446 -1.65846 0
M  V30 33596 C 3252.1 0.613144 -1.86373 0
M  V30 33597 O 3251.23 1.47163 -1.58657 0
M  V30 33598 C 3251.82 -1.54996 -3.01267 0
M  V30 33599 C 3250.38 -1.35468 -3.51177 0
M  V30 33600 C 3249.53 -1.60255 -2.26305 0
M  V30 33601 H 3252.48 -1.25796 -0.967528 0
M  V30 33602 H 3252.5 -0.986155 -3.67499 0
M  V30 33603 H 3252.01 -2.62025 -2.86294 0
M  V30 33604 H 3250.11 -0.305807 -3.71343 0
M  V30 33605 H 3250.23 -2.09326 -4.30952 0
M  V30 33606 H 3248.59 -1.02498 -2.33166 0
M  V30 33607 H 3249.37 -2.68524 -2.13891 0
M  V30 33608 N 3251.82 1.30231 -0.887563 0
M  V30 33609 C 3253.04 2.00734 -0.521597 0
M  V30 33610 C 3253.47 1.66075 0.883217 0
M  V30 33611 O 3252.83 0.878759 1.5858 0
M  V30 33612 C 3252.88 3.5361 -0.706583 0
M  V30 33613 O 3251.98 4.11663 0.246375 0
M  V30 33614 H 3251.32 0.631489 -0.205227 0
M  V30 33615 H 3253.85 1.66016 -1.19582 0
M  V30 33616 H 3253.86 4.03466 -0.606572 0
M  V30 33617 H 3252.54 3.78174 -1.73083 0
M  V30 33618 H 3251.11 3.72766 0.0998407 0
M  V30 33619 N 3253.3 0.648782 1.43627 0
M  V30 33620 C 3254.23 -0.0841456 2.29045 0
M  V30 33621 C 3255.24 -0.791512 1.42264 0
M  V30 33622 O 3256.43 -0.650009 1.66244 0
M  V30 33623 C 3253.53 -1.14207 3.19077 0
M  V30 33624 C 3252.71 -0.513723 4.34373 0
M  V30 33625 C 3251.76 -1.46794 5.0531 0
M  V30 33626 O 3250.79 -0.978247 5.60731 0
M  V30 33627 N 3251.99 -2.802 5.08398 0
M  V30 33628 H 3254.76 0.649 2.92589 0
M  V30 33629 H 3252.32 0.491236 1.54268 0
M  V30 33630 H 3254.31 -1.78112 3.63398 0
M  V30 33631 H 3252.88 -1.77723 2.57164 0
M  V30 33632 H 3252.1 0.304331 3.93023 0
M  V30 33633 H 3253.39 -0.0748977 5.08745 0
M  V30 33634 H 3252.79 -3.22549 4.64735 0
M  V30 33635 H 3251.34 -3.3942 5.5645 0
M  V30 33636 N 3254.78 -1.52688 0.390421 0
M  V30 33637 C 3255.74 -2.2509 -0.43211 0
M  V30 33638 C 3256.74 -1.26768 -0.989273 0
M  V30 33639 O 3257.93 -1.50856 -0.871099 0
M  V30 33640 C 3255.06 -3.00681 -1.60636 0
M  V30 33641 H 3256.25 -2.9922 0.201786 0
M  V30 33642 H 3253.81 -1.55649 0.142559 0
M  V30 33643 H 3254.54 -2.30854 -2.27765 0
M  V30 33644 H 3254.33 -3.72848 -1.21354 0
M  V30 33645 H 3255.82 -3.5565 -2.18867 0
M  V30 33646 N 3256.25 -0.120276 -1.5714 0
M  V30 33647 C 3257.48 0.548419 -2.00018 0
M  V30 33648 C 3257.9 1.5935 -0.999461 0
M  V30 33649 O 3257.26 1.81277 0.028666 0
M  V30 33650 C 3257.31 1.15009 -3.41768 0
M  V30 33651 O 3256.41 2.2656 -3.44593 0
M  V30 33652 H 3255.76 0.136864 -0.649742 0
M  V30 33653 H 3258.29 -0.209127 -2.03528 0
M  V30 33654 H 3258.3 1.48531 -3.80003 0
M  V30 33655 H 3256.97 0.384608 -4.14118 0
M  V30 33656 H 3255.55 1.94467 -3.18177 0
M  V30 33657 N 3257.73 1.56851 0.153498 0
M  V30 33658 C 3258.96 1.87508 0.88631 0
M  V30 33659 C 3259.38 0.708595 1.74243 0
M  V30 33660 O 3258.74 -0.341966 1.78046 0
M  V30 33661 C 3258.79 3.16706 1.72422 0
M  V30 33662 O 3257.89 3.00183 2.82779 0
M  V30 33663 H 3257.23 0.61625 0.247248 0
M  V30 33664 H 3259.76 2.04076 0.146271 0
M  V30 33665 H 3259.77 3.48563 2.12056 0
M  V30 33666 H 3258.45 4.01212 1.09551 0
M  V30 33667 H 3257.03 2.7972 2.46599 0
M  V30 33668 N 3259.21 -0.42264 1.51827 0
M  V30 33669 C 3260.44 -1.19745 1.69339 0
M  V30 33670 C 3260.86 -1.83877 0.396344 0
M  V30 33671 O 3260.22 -1.69441 -0.644946 0
M  V30 33672 C 3260.27 -2.24632 2.82086 0
M  V30 33673 O 3259.37 -3.30464 2.46713 0
M  V30 33674 H 3258.71 -0.35017 0.56416 0
M  V30 33675 H 3261.24 -0.497254 1.98465 0
M  V30 33676 H 3261.25 -2.69181 3.06603 0
M  V30 33677 H 3259.93 -1.77335 3.76198 0
M  V30 33678 H 3258.5 -2.91289 2.32821 0
M  V30 33679 N 3260.69 -1.42222 -0.679027 0
M  V30 33680 C 3261.65 -1.45072 -1.77445 0
M  V30 33681 C 3262.65 -0.338909 -1.57188 0
M  V30 33682 O 3263.84 -0.599548 -1.63558 0
M  V30 33683 C 3260.97 -1.27825 -3.16028 0
M  V30 33684 H 3262.17 -2.42603 -1.76306 0
M  V30 33685 H 3259.72 -1.28607 -0.888254 0
M  V30 33686 H 3260.45 -0.312002 -3.22796 0
M  V30 33687 H 3260.24 -2.08397 -3.32134 0
M  V30 33688 H 3261.73 -1.32693 -3.95957 0
M  V30 33689 N 3262.17 0.91492 -1.28324 0
M  V30 33690 C 3263.39 1.70302 -1.18373 0
M  V30 33691 C 3263.82 1.86374 0.254258 0
M  V30 33692 O 3263.17 1.37303 1.18395 0
M  V30 33693 C 3263.22 3.07342 -1.88608 0
M  V30 33694 O 3262.33 3.94775 -1.19275 0
M  V30 33695 H 3261.67 0.521522 -0.410987 0
M  V30 33696 H 3264.2 1.14406 -1.69624 0
M  V30 33697 H 3264.21 3.57581 -1.96469 0
M  V30 33698 H 3262.88 2.94962 -2.93207 0
M  V30 33699 H 3261.46 3.5321 -1.1957 0
M  V30 33700 N 3263.64 1.10553 1.1232 0
M  V30 33701 C 3264.58 0.713301 2.17818 0
M  V30 33702 C 3265.59 -0.250575 1.6086 0
M  V30 33703 O 3266.78 -0.0348595 1.78466 0
M  V30 33704 C 3263.88 0.0320921 3.38885 0
M  V30 33705 C 3263.05 1.02045 4.2533 0
M  V30 33706 C 3262.11 0.370504 5.24894 0
M  V30 33707 O 3261.14 1.02167 5.59956 0
M  V30 33708 N 3262.34 -0.870532 5.73936 0
M  V30 33709 H 3265.1 1.62098 2.5208 0
M  V30 33710 H 3262.66 0.994515 1.27754 0
M  V30 33711 H 3264.66 -0.414214 4.02575 0
M  V30 33712 H 3263.23 -0.778019 3.02763 0
M  V30 33713 H 3262.45 1.64499 3.58237 0
M  V30 33714 H 3263.73 1.68944 4.79933 0
M  V30 33715 H 3263.13 -1.41891 5.47616 0
M  V30 33716 H 3261.69 -1.25997 6.39506 0
M  V30 33717 N 3265.12 -1.29758 0.894457 0
M  V30 33718 C 3266.05 -2.30308 0.384741 0
M  V30 33719 C 3267.03 -1.61386 -0.537457 0
M  V30 33720 O 3268.22 -1.88931 -0.449299 0
M  V30 33721 C 3265.35 -3.45066 -0.39325 0
M  V30 33722 C 3264.3 -4.25752 0.438043 0
M  V30 33723 C 3263.63 -5.32656 -0.467127 0
M  V30 33724 C 3264.93 -4.94367 1.68519 0
M  V30 33725 H 3266.62 -2.73192 1.22501 0
M  V30 33726 H 3264.17 -1.31336 0.590494 0
M  V30 33727 H 3266.12 -4.1448 -0.760541 0
M  V30 33728 H 3264.85 -3.01012 -1.26725 0
M  V30 33729 H 3263.5 -3.5804 0.787596 0
M  V30 33730 H 3263.15 -4.84847 -1.33911 0
M  V30 33731 H 3262.85 -5.87538 0.0853515 0
M  V30 33732 H 3264.38 -6.04923 -0.830726 0
M  V30 33733 H 3265.79 -5.56246 1.38794 0
M  V30 33734 H 3264.19 -5.59158 2.17859 0
M  V30 33735 H 3265.26 -4.19953 2.42419 0
M  V30 33736 N 3266.6 -0.65639 -1.4328 0
M  V30 33737 C 3267.83 -0.177281 -2.06641 0
M  V30 33738 C 3268.25 1.14943 -1.48895 0
M  V30 33739 O 3267.61 1.71079 -0.60013 0
M  V30 33740 C 3267.66 -0.103054 -3.60453 0
M  V30 33741 O 3266.76 0.933825 -4.01688 0
M  V30 33742 H 3266.1 -0.0963255 -0.656976 0
M  V30 33743 H 3268.63 -0.90021 -1.83732 0
M  V30 33744 H 3268.64 0.0792193 -4.07923 0
M  V30 33745 H 3267.32 -1.07154 -4.01859 0
M  V30 33746 H 3265.89 0.724083 -3.65802 0
M  V30 33747 N 3268.08 1.52478 -0.398513 0
M  V30 33748 C 3269.04 2.25316 0.420167 0
M  V30 33749 C 3270.04 1.2729 0.982537 0
M  V30 33750 O 3271.23 1.51316 0.863087 0
M  V30 33751 C 3268.36 3.01528 1.59039 0
M  V30 33752 H 3269.56 2.99109 -0.217652 0
M  V30 33753 H 3267.11 1.55571 -0.150811 0
M  V30 33754 H 3267.85 2.32058 2.26538 0
M  V30 33755 H 3267.63 3.73486 1.19375 0
M  V30 33756 H 3269.12 3.56806 2.16977 0
M  V30 33757 N 3269.56 0.128608 1.57074 0
M  V30 33758 C 3270.97 -0.395227 1.82469 0
M  V30 33759 C 3271.32 -1.65971 1.04633 0
M  V30 33760 O 3270.44 -2.14503 0.285873 0
M  V30 33761 C 3271.04 -0.723831 3.30978 0
M  V30 33762 C 3269.6 -1.19226 3.57018 0
M  V30 33763 C 3268.75 -0.205858 2.76535 0
M  V30 33764 H 3271.7 0.353598 1.54711 0
M  V30 33765 H 3271.72 -1.58033 3.4613 0
M  V30 33766 H 3271.23 0.196663 3.87601 0
M  V30 33767 H 3269.33 -2.12932 3.05762 0
M  V30 33768 H 3269.44 -1.13094 4.6556 0
M  V30 33769 H 3267.81 -0.694829 2.45039 0
M  V30 33770 H 3268.59 0.707902 3.35922 0
M  V30 33771 N 3271.04 -1.5693 -0.145178 0
M  V30 33772 C 3272.26 -1.87976 -0.876353 0
M  V30 33773 C 3272.69 -0.717826 -1.73865 0
M  V30 33774 O 3272.04 0.332519 -1.78225 0
M  V30 33775 C 3272.09 -3.17616 -1.7074 0
M  V30 33776 O 3271.2 -3.01679 -2.81183 0
M  V30 33777 H 3270.54 -0.617553 -0.243976 0
M  V30 33778 H 3273.07 -2.04151 -0.135446 0
M  V30 33779 H 3273.08 -3.49683 -2.10204 0
M  V30 33780 H 3271.75 -4.01788 -1.07422 0
M  V30 33781 H 3270.33 -2.81024 -2.45112 0
M  V30 33782 N 3272.51 0.414582 -1.52049 0
M  V30 33783 C 3273.44 1.51172 -1.77958 0
M  V30 33784 C 3274.42 1.57991 -0.63031 0
M  V30 33785 O 3275.61 1.73353 -0.875354 0
M  V30 33786 C 3272.74 2.89048 -1.92532 0
M  V30 33787 C 3271.69 2.97082 -3.08101 0
M  V30 33788 C 3271.02 4.37159 -3.0789 0
M  V30 33789 C 3272.32 2.69067 -4.47661 0
M  V30 33790 H 3274.01 1.29741 -2.69829 0
M  V30 33791 H 3271.56 0.622707 -1.2984 0
M  V30 33792 H 3273.51 3.65782 -2.0924 0
M  V30 33793 H 3272.24 3.11761 -0.97329 0
M  V30 33794 H 3270.9 2.22792 -2.91135 0
M  V30 33795 H 3270.54 4.56873 -2.10419 0
M  V30 33796 H 3270.24 4.4346 -3.85509 0
M  V30 33797 H 3271.77 5.15835 -3.26721 0
M  V30 33798 H 3273.18 3.35526 -4.64861 0
M  V30 33799 H 3271.58 2.86751 -5.27156 0
M  V30 33800 H 3272.65 1.64536 -4.56132 0
M  V30 33801 N 3273.99 1.4258 0.671475 0
M  V30 33802 C 3274.94 1.46317 1.78493 0
M  V30 33803 C 3275.91 0.314771 1.6309 0
M  V30 33804 O 3277.09 0.519324 1.83596 0
M  V30 33805 C 3274.23 1.37453 3.16545 0
M  V30 33806 C 3273.35 2.62354 3.43211 0
M  V30 33807 C 3272.48 2.45608 4.7101 0
M  V30 33808 C 3271.52 3.65867 4.90721 0
M  V30 33809 N 3270.66 3.48043 6.09763 0
M  V30 33810 H 3275.5 2.41469 1.74633 0
M  V30 33811 H 3273.03 1.19881 0.85247 0
M  V30 33812 H 3274.99 1.3031 3.96327 0
M  V30 33813 H 3273.62 0.458947 3.19521 0
M  V30 33814 H 3272.67 2.7985 2.57659 0
M  V30 33815 H 3273.99 3.51738 3.53669 0
M  V30 33816 H 3273.14 2.3607 5.58888 0
M  V30 33817 H 3271.88 1.5372 4.62841 0
M  V30 33818 H 3270.88 3.75834 4.01284 0
M  V30 33819 H 3272.11 4.58741 5.00733 0
M  V30 33820 H 3270.06 2.58874 6.0276 0
M  V30 33821 H 3269.97 4.31016 6.21097 0
M  V30 33822 H 3271.24 3.42323 7.00311 0
M  V30 33823 N 3275.47 -0.908102 1.28807 0
M  V30 33824 C 3276.43 -1.99277 1.13231 0
M  V30 33825 C 3277.43 -1.60646 0.0702739 0
M  V30 33826 O 3278.62 -1.713 0.316524 0
M  V30 33827 C 3275.75 -3.32999 0.729688 0
M  V30 33828 H 3276.95 -2.14524 2.0957 0
M  V30 33829 H 3274.5 -1.09151 1.11874 0
M  V30 33830 H 3275.24 -3.23453 -0.234211 0
M  V30 33831 H 3275.02 -3.624 1.49694 0
M  V30 33832 H 3276.51 -4.12612 0.643522 0
M  V30 33833 N 3276.95 -1.11147 -1.11732 0
M  V30 33834 C 3278.18 -0.880844 -1.87213 0
M  V30 33835 C 3278.59 0.569163 -1.80017 0
M  V30 33836 O 3277.95 1.39281 -1.17928 0
M  V30 33837 C 3278 -1.33004 -3.36143 0
M  V30 33838 O 3277.72 -2.72319 -3.43182 0
M  V30 33839 C 3279.22 -1.13438 -4.2854 0
M  V30 33840 H 3276.44 -0.315656 -0.592117 0
M  V30 33841 H 3278.98 -1.47802 -1.41332 0
M  V30 33842 H 3277.14 -0.776375 -3.79541 0
M  V30 33843 H 3277.55 -2.91712 -4.35895 0
M  V30 33844 H 3279.03 -1.49773 -5.31293 0
M  V30 33845 H 3279.5 -0.0736631 -4.39138 0
M  V30 33846 H 3280.11 -1.67487 -3.90932 0
M  V30 33847 N 3278.43 1.29282 -0.901326 0
M  V30 33848 C 3279.67 1.97274 -0.535006 0
M  V30 33849 C 3280.03 1.69483 0.902197 0
M  V30 33850 O 3281.23 2.30942 1.37547 0
M  V30 33851 C 3279.5 3.47839 -0.821156 0
M  V30 33852 S 3281.06 4.3522 -0.559388 0
M  V30 33853 H 3277.88 0.682752 -0.198421 0
M  V30 33854 H 3280.48 1.57063 -1.16411 0
M  V30 33855 H 3279.18 3.65559 -1.86534 0
M  V30 33856 H 3278.72 3.92987 -0.180229 0
M  V30 33857 H 3280.73 4.92621 0.594853 0
M  V30 33858 N 3279.9 0.663979 1.4293 0
M  V30 33859 C 3281.13 0.189844 2.06027 0
M  V30 33860 C 3281.55 -1.14877 1.49829 0
M  V30 33861 O 3280.9 -1.71141 0.633808 0
M  V30 33862 C 3280.95 0.104407 3.61349 0
M  V30 33863 O 3280.68 1.39011 4.15461 0
M  V30 33864 C 3282.18 -0.394522 4.41541 0
M  V30 33865 H 3279.4 0.0948861 0.664257 0
M  V30 33866 H 3281.94 0.907664 1.83253 0
M  V30 33867 H 3280.1 -0.564035 3.83272 0
M  V30 33868 H 3280.51 1.25635 5.09231 0
M  V30 33869 H 3281.98 -0.403232 5.50525 0
M  V30 33870 H 3282.46 -1.42783 4.15343 0
M  V30 33871 H 3283.07 0.241804 4.24612 0
M  V30 33872 N 3281.38 -1.52265 0.406593 0
M  V30 33873 C 3282.61 -2.06204 -0.169588 0
M  V30 33874 C 3283.02 -1.27687 -1.39074 0
M  V30 33875 O 3282.38 -0.328054 -1.79527 0
M  V30 33876 C 3282.43 -3.57703 -0.522548 0
M  V30 33877 O 3282.15 -4.3325 0.650105 0
M  V30 33878 C 3283.65 -4.2805 -1.15273 0
M  V30 33879 H 3280.87 -0.670655 -0.0215073 0
M  V30 33880 H 3283.42 -1.96197 0.576815 0
M  V30 33881 H 3281.57 -3.67727 -1.21884 0
M  V30 33882 H 3281.99 -5.2329 0.356081 0
M  V30 33883 H 3283.46 -5.35239 -1.34993 0
M  V30 33884 H 3283.94 -3.84364 -2.12511 0
M  V30 33885 H 3284.54 -4.22389 -0.496712 0
M  V30 33886 N 3282.86 -0.136936 -1.57004 0
M  V30 33887 C 3283.81 0.818106 -2.12817 0
M  V30 33888 C 3284.79 1.21622 -1.05342 0
M  V30 33889 O 3285.99 1.18431 -1.31541 0
M  V30 33890 C 3283.12 2.06117 -2.74537 0
M  V30 33891 C 3282.2 1.68662 -3.89119 0
M  V30 33892 N 3282.59 1.01975 -4.95414 0
M  V30 33893 C 3280.89 1.98002 -3.99639 0
M  V30 33894 C 3281.59 0.840523 -5.75595 0
M  V30 33895 N 3280.57 1.37122 -5.26022 0
M  V30 33896 H 3284.37 0.299264 -2.92372 0
M  V30 33897 H 3281.88 0.0649456 -1.6227 0
M  V30 33898 H 3283.88 2.75524 -3.12877 0
M  V30 33899 H 3282.54 2.58529 -1.96451 0
M  V30 33900 H 3283.55 0.681654 -5.13394 0
M  V30 33901 H 3280.23 2.52333 -3.32617 0
M  V30 33902 H 3281.62 0.315689 -6.71158 0
M  V30 33903 N 3284.34 1.57005 0.136853 0
M  V30 33904 C 3285.29 1.99025 1.16865 0
M  V30 33905 C 3286.26 0.85946 1.42136 0
M  V30 33906 O 3287.44 1.12232 1.54301 0
M  V30 33907 C 3284.58 2.38459 2.49462 0
M  V30 33908 C 3283.69 3.64875 2.3128 0
M  V30 33909 C 3282.83 3.93367 3.56982 0
M  V30 33910 C 3281.87 5.13021 3.3388 0
M  V30 33911 N 3281 5.37472 4.51739 0
M  V30 33912 H 3285.84 2.86968 0.803316 0
M  V30 33913 H 3283.38 1.41967 0.385191 0
M  V30 33914 H 3285.34 2.59353 3.2679 0
M  V30 33915 H 3283.97 1.53582 2.83923 0
M  V30 33916 H 3283.02 3.51699 1.44956 0
M  V30 33917 H 3284.33 4.52358 2.10175 0
M  V30 33918 H 3283.49 4.14814 4.42735 0
M  V30 33919 H 3282.23 3.04325 3.81101 0
M  V30 33920 H 3281.23 4.91437 2.46516 0
M  V30 33921 H 3282.46 6.03625 3.11149 0
M  V30 33922 H 3280.4 4.51386 4.76011 0
M  V30 33923 H 3280.32 6.19244 4.33673 0
M  V30 33924 H 3281.59 5.63425 5.38676 0
M  V30 33925 N 3285.82 -0.406513 1.52267 0
M  V30 33926 C 3287.04 -1.17488 1.70306 0
M  V30 33927 C 3287.46 -1.84212 0.413689 0
M  V30 33928 O 3286.82 -1.71986 -0.610494 0
M  V30 33929 C 3286.87 -2.23604 2.84049 0
M  V30 33930 O 3286.59 -1.59603 4.07993 0
M  V30 33931 C 3288.09 -3.13301 3.1362 0
M  V30 33932 H 3285.31 -0.352945 0.570676 0
M  V30 33933 H 3287.85 -0.477932 1.98837 0
M  V30 33934 H 3286.01 -2.88963 2.5803 0
M  V30 33935 H 3286.42 -2.29974 4.71394 0
M  V30 33936 H 3287.9 -3.83826 3.96713 0
M  V30 33937 H 3288.37 -3.75821 2.27279 0
M  V30 33938 H 3288.98 -2.53608 3.41413 0
M  V30 33939 N 3287.29 -1.42934 -0.663904 0
M  V30 33940 C 3288.26 -1.46946 -1.75896 0
M  V30 33941 C 3289.26 -0.355562 -1.5682 0
M  V30 33942 O 3290.45 -0.616862 -1.62912 0
M  V30 33943 C 3287.58 -1.3117 -3.14654 0
M  V30 33944 H 3288.77 -2.44459 -1.73723 0
M  V30 33945 H 3286.33 -1.29542 -0.874564 0
M  V30 33946 H 3287.06 -0.346222 -3.22447 0
M  V30 33947 H 3286.85 -2.11908 -3.29905 0
M  V30 33948 H 3288.34 -1.36885 -3.94528 0
M  V30 33949 N 3288.77 0.901258 -1.29287 0
M  V30 33950 C 3290 1.68265 -1.19877 0
M  V30 33951 C 3290.41 1.87628 0.243354 0
M  V30 33952 O 3289.75 1.41211 1.17495 0
M  V30 33953 C 3289.82 3.08896 -1.83912 0
M  V30 33954 C 3289.48 3.12769 -3.33203 0
M  V30 33955 C 3290.48 2.93032 -4.29451 0
M  V30 33956 C 3288.16 3.34885 -3.74376 0
M  V30 33957 C 3290.16 2.95342 -5.64847 0
M  V30 33958 C 3287.84 3.36825 -5.09894 0
M  V30 33959 C 3288.84 3.17076 -6.0494 0
M  V30 33960 O 3288.53 3.18802 -7.37984 0
M  V30 33961 H 3288.26 0.532364 -0.41661 0
M  V30 33962 H 3290.81 1.13555 -1.71156 0
M  V30 33963 H 3289.04 3.65201 -1.27142 0
M  V30 33964 H 3290.73 3.69115 -1.68846 0
M  V30 33965 H 3291.5 2.7576 -3.98975 0
M  V30 33966 H 3287.38 3.49298 -3.00852 0
M  V30 33967 H 3290.92 2.79845 -6.39009 0
M  V30 33968 H 3286.82 3.53629 -5.40016 0
M  V30 33969 H 3287.59 3.35079 -7.46769 0
M  V30 33970 N 3290.25 1.11738 1.11141 0
M  V30 33971 C 3291.53 0.779816 1.79383 0
M  V30 33972 C 3291.91 -0.731633 1.98016 0
M  V30 33973 O 3291.26 -1.66273 1.56734 0
M  V30 33974 C 3291.47 1.54649 3.12865 0
M  V30 33975 C 3292.81 1.72777 3.87857 0
M  V30 33976 O 3293.84 1.51099 3.22564 0
M  V30 33977 O 3292.7 2.08822 5.0503 0
M  V30 33978 H 3289.79 0.282859 0.777123 0
M  V30 33979 H 3292.34 1.22098 1.17856 0
M  V30 33980 H 3291.11 2.57451 2.94677 0
M  V30 33981 H 3290.73 1.09908 3.82107 0
M  V30 33982 N 3291.73 -1.28802 0.90817 0
M  V30 33983 C 3292.97 -1.96988 0.54546 0
M  V30 33984 C 3293.33 -1.69959 -0.893196 0
M  V30 33985 O 3294.53 -2.31668 -1.3632 0
M  V30 33986 C 3292.8 -3.47398 0.839591 0
M  V30 33987 S 3294.36 -4.34917 0.582461 0
M  V30 33988 H 3291.18 -0.68169 0.202039 0
M  V30 33989 H 3293.78 -1.56443 1.17242 0
M  V30 33990 H 3292.49 -3.64565 1.8847 0
M  V30 33991 H 3292.02 -3.92886 0.201068 0
M  V30 33992 H 3294.03 -4.9293 -0.56872 0
M  V30 33993 N 3293.21 -0.67155 -1.42576 0
M  V30 33994 C 3294.48 -0.121563 -1.95222 0
M  V30 33995 C 3294.86 1.36287 -1.61212 0
M  V30 33996 O 3294.21 2.09745 -0.906598 0
M  V30 33997 C 3294.42 -0.38725 -3.46845 0
M  V30 33998 C 3295.77 -0.302012 -4.23525 0
M  V30 33999 O 3296.79 -0.320817 -3.54752 0
M  V30 34000 O 3295.65 -0.241413 -5.45967 0
M  V30 34001 H 3292.75 -0.000983152 -0.826999 0
M  V30 34002 H 3295.29 -0.746055 -1.52421 0
M  V30 34003 H 3294.06 -1.41569 -3.64793 0
M  V30 34004 H 3293.69 0.269411 -3.96686 0
M  V30 34005 N 3294.68 1.52047 -0.414663 0
M  V30 34006 C 3295.62 2.23662 0.452815 0
M  V30 34007 C 3296.6 1.24703 1.04346 0
M  V30 34008 O 3297.78 1.53771 1.09027 0
M  V30 34009 C 3294.91 2.96952 1.62903 0
M  V30 34010 C 3293.95 4.10387 1.16125 0
M  V30 34011 S 3294.79 5.35361 0.121842 0
M  V30 34012 C 3295.94 6.12182 1.30325 0
M  V30 34013 H 3296.17 2.96894 -0.155254 0
M  V30 34014 H 3293.71 1.53112 -0.198999 0
M  V30 34015 H 3295.67 3.39781 2.30345 0
M  V30 34016 H 3294.33 2.23352 2.20845 0
M  V30 34017 H 3293.52 4.60861 2.04017 0
M  V30 34018 H 3293.12 3.69702 0.565387 0
M  V30 34019 H 3295.41 6.39893 2.22584 0
M  V30 34020 H 3296.36 7.03113 0.838928 0
M  V30 34021 H 3296.76 5.43327 1.53155 0
M  V30 34022 N 3296.16 0.145261 1.56929 0
M  V30 34023 C 3297.41 -0.507036 1.96359 0
M  V30 34024 C 3297.74 -1.6463 1.03008 0
M  V30 34025 O 3297.02 -1.94366 0.0721387 0
M  V30 34026 C 3297.3 -1.01486 3.45503 0
M  V30 34027 C 3297.15 0.122787 4.49632 0
M  V30 34028 C 3298.47 -1.89722 3.97107 0
M  V30 34029 H 3295.59 -0.182835 0.713961 0
M  V30 34030 H 3298.23 0.226135 1.88649 0
M  V30 34031 H 3296.38 -1.63964 3.52205 0
M  V30 34032 H 3298.05 0.759068 4.55012 0
M  V30 34033 H 3296.3 0.782184 4.2669 0
M  V30 34034 H 3296.97 -0.274223 5.51318 0
M  V30 34035 H 3299.44 -1.37075 3.92873 0
M  V30 34036 H 3298.32 -2.22164 5.01931 0
M  V30 34037 H 3298.58 -2.83352 3.39359 0
M  V30 34038 N 3297.64 -1.57075 -0.128525 0
M  V30 34039 C 3298.92 -1.75299 -0.867735 0
M  V30 34040 C 3299.3 -0.718211 -1.98507 0
M  V30 34041 O 3298.65 0.259576 -2.27021 0
M  V30 34042 C 3298.86 -3.19986 -1.3932 0
M  V30 34043 C 3300.2 -3.82211 -1.84932 0
M  V30 34044 O 3301.23 -3.23529 -1.49021 0
M  V30 34045 O 3300.09 -4.85336 -2.51219 0
M  V30 34046 H 3297.18 -0.717422 -0.411381 0
M  V30 34047 H 3299.73 -1.69323 -0.113008 0
M  V30 34048 H 3298.5 -3.8681 -0.591104 0
M  V30 34049 H 3298.12 -3.30461 -2.21091 0
M  V30 34050 N 3299.12 0.398432 -1.5248 0
M  V30 34051 C 3300.08 1.46879 -1.75952 0
M  V30 34052 C 3301.08 1.47968 -0.629457 0
M  V30 34053 O 3302.27 1.49304 -0.897433 0
M  V30 34054 C 3299.4 2.86227 -1.85167 0
M  V30 34055 H 3300.6 1.27355 -2.71515 0
M  V30 34056 H 3298.15 0.629593 -1.43059 0
M  V30 34057 H 3298.89 3.11108 -0.91556 0
M  V30 34058 H 3298.67 2.86839 -2.67331 0
M  V30 34059 H 3300.16 3.63802 -2.05032 0
M  V30 34060 N 3300.6 1.43284 0.656314 0
M  V30 34061 C 3301.55 1.48465 1.79056 0
M  V30 34062 C 3302.54 0.358542 1.65562 0
M  V30 34063 O 3303.75 0.532395 1.71946 0
M  V30 34064 H 3300.12 0.465369 0.590708 0
M  V30 34065 H 3302.09 2.43978 1.71806 0
M  V30 34066 C 3300.84 1.4218 3.17301 0
M  V30 34067 H 3300.16 2.28136 3.2832 0
M  V30 34068 H 3301.6 1.49867 3.96631 0
M  V30 34069 C 3300.06 0.138988 3.36613 0
M  V30 34070 O 3300.59 -0.800941 3.93634 0
M  V30 34071 N 3298.8 0.0501748 2.90557 0
M  V30 34072 H 3298.35 0.815864 2.44339 0
M  V30 34073 H 3298.3 -0.807451 3.03855 0
M  V30 34074 N 3302.08 -0.894389 1.29763 0
M  V30 34075 C 3303.01 -2.01545 1.17906 0
M  V30 34076 C 3303.99 -1.69948 0.0719701 0
M  V30 34077 O 3305.17 -1.92553 0.252372 0
M  V30 34078 C 3302.3 -3.36476 0.860321 0
M  V30 34079 C 3301.26 -3.82301 1.92431 0
M  V30 34080 C 3300.58 -5.14416 1.45877 0
M  V30 34081 C 3301.88 -4.02048 3.33398 0
M  V30 34082 H 3303.58 -2.11724 2.11692 0
M  V30 34083 H 3301.12 -1.01729 1.01918 0
M  V30 34084 H 3303.07 -4.14415 0.76406 0
M  V30 34085 H 3301.8 -3.26404 -0.113232 0
M  V30 34086 H 3300.46 -3.06582 2.01005 0
M  V30 34087 H 3300.11 -5.00764 0.473742 0
M  V30 34088 H 3299.81 -5.46048 2.17038 0
M  V30 34089 H 3301.33 -5.94891 1.37611 0
M  V30 34090 H 3302.74 -4.70454 3.27636 0
M  V30 34091 H 3301.14 -4.45043 4.02563 0
M  V30 34092 H 3302.21 -3.06209 3.75984 0
M  V30 34093 N 3303.55 -1.12326 -1.10547 0
M  V30 34094 C 3304.8 -0.877849 -1.82483 0
M  V30 34095 C 3305.13 0.59634 -1.85132 0
M  V30 34096 O 3304.38 1.45677 -1.30678 0
M  V30 34097 C 3304.68 -1.39632 -3.28995 0
M  V30 34098 C 3304.35 -2.88535 -3.46495 0
M  V30 34099 C 3303.01 -3.29193 -3.50978 0
M  V30 34100 C 3305.36 -3.84391 -3.51984 0
M  V30 34101 C 3302.69 -4.64416 -3.58517 0
M  V30 34102 C 3305.04 -5.19444 -3.61055 0
M  V30 34103 C 3303.71 -5.59646 -3.63803 0
M  V30 34104 H 3302.98 -0.321228 -0.667753 0
M  V30 34105 H 3305.62 -1.40325 -1.30312 0
M  V30 34106 H 3303.93 -0.791359 -3.83725 0
M  V30 34107 H 3305.63 -1.18266 -3.83163 0
M  V30 34108 H 3302.22 -2.56088 -3.43681 0
M  V30 34109 H 3306.4 -3.54075 -3.47771 0
M  V30 34110 H 3301.66 -4.94957 -3.58926 0
M  V30 34111 H 3305.83 -5.93546 -3.64247 0
M  V30 34112 H 3303.46 -6.64417 -3.69397 0
M  V30 34113 N 3305.03 1.28319 -0.914988 0
M  V30 34114 C 3305.96 2.25519 -0.348768 0
M  V30 34115 C 3306.94 1.53098 0.54771 0
M  V30 34116 O 3308.13 1.81991 0.491087 0
M  V30 34117 C 3305.25 3.34969 0.501338 0
M  V30 34118 C 3304.3 4.25222 -0.329934 0
M  V30 34119 S 3305.13 5.0653 -1.73746 0
M  V30 34120 C 3306.29 6.19472 -0.894689 0
M  V30 34121 H 3306.52 2.73198 -1.17261 0
M  V30 34122 H 3304.05 1.36778 -0.716321 0
M  V30 34123 H 3306.01 3.98483 0.985991 0
M  V30 34124 H 3304.67 2.85954 1.29957 0
M  V30 34125 H 3303.87 5.02982 0.320148 0
M  V30 34126 H 3303.47 3.66438 -0.748285 0
M  V30 34127 H 3305.76 6.77385 -0.124895 0
M  V30 34128 H 3306.7 6.8873 -1.64488 0
M  V30 34129 H 3307.11 5.62764 -0.442316 0
M  V30 34130 N 3306.51 0.679102 1.42218 0
M  V30 34131 C 3307.76 0.202753 2.0108 0
M  V30 34132 C 3308.08 -1.19636 1.53988 0
M  V30 34133 O 3307.35 -1.80414 0.763391 0
M  V30 34134 H 3305.93 0.0719678 0.743525 0
M  V30 34135 H 3308.59 0.876574 1.74075 0
M  V30 34136 H 3307.69 0.207369 3.1141 0
M  V30 34137 N 3307.99 -1.51825 0.42272 0
M  V30 34138 C 3309.24 -2.01555 -0.148312 0
M  V30 34139 C 3309.56 -1.30959 -1.44481 0
M  V30 34140 O 3308.83 -0.439633 -1.90903 0
M  V30 34141 H 3307.41 -0.744761 -0.0577985 0
M  V30 34142 H 3310.07 -1.86619 0.562079 0
M  V30 34143 H 3309.16 -3.103 -0.334711 0
M  V30 34144 N 3309.47 -0.153581 -1.5685 0
M  V30 34145 C 3310.74 0.541295 -1.87961 0
M  V30 34146 C 3311.12 1.82521 -1.06062 0
M  V30 34147 O 3310.47 2.28011 -0.149335 0
M  V30 34148 C 3310.68 0.800382 -3.39698 0
M  V30 34149 C 3312.03 1.13825 -4.09059 0
M  V30 34150 O 3313.05 0.889517 -3.44915 0
M  V30 34151 O 3311.91 1.60664 -5.2235 0
M  V30 34152 H 3309.01 0.276881 -0.779273 0
M  V30 34153 H 3311.55 -0.190687 -1.68625 0
M  V30 34154 H 3310.32 -0.108004 -3.91151 0
M  V30 34155 H 3309.95 1.58631 -3.64585 0
M  V30 34156 N 3310.94 1.57141 0.120193 0
M  V30 34157 C 3312.19 1.85064 0.829417 0
M  V30 34158 C 3312.52 0.739147 1.79584 0
M  V30 34159 O 3311.8 -0.255113 1.9282 0
M  V30 34160 C 3312.08 3.23568 1.58037 0
M  V30 34161 C 3311.93 4.45315 0.633628 0
M  V30 34162 C 3313.25 3.5963 2.53682 0
M  V30 34163 H 3310.37 0.673145 0.300075 0
M  V30 34164 H 3313.01 1.89769 0.0937059 0
M  V30 34165 H 3311.16 3.19688 2.20753 0
M  V30 34166 H 3312.84 4.61297 0.0154025 0
M  V30 34167 H 3311.08 4.33765 -0.0549222 0
M  V30 34168 H 3311.75 5.38895 1.19568 0
M  V30 34169 H 3314.23 3.64293 2.01071 0
M  V30 34170 H 3313.1 4.57522 3.03257 0
M  V30 34171 H 3313.36 2.86986 3.36291 0
M  V30 34172 N 3312.42 -0.39034 1.5269 0
M  V30 34173 C 3313.65 -1.15675 1.71543 0
M  V30 34174 C 3314.07 -1.83763 0.433204 0
M  V30 34175 O 3313.42 -1.72624 -0.592218 0
M  V30 34176 C 3313.47 -2.20579 2.86404 0
M  V30 34177 O 3313.19 -1.55267 4.09663 0
M  V30 34178 C 3314.7 -3.09957 3.16925 0
M  V30 34179 H 3311.92 -0.346873 0.574387 0
M  V30 34180 H 3314.46 -0.456816 1.99332 0
M  V30 34181 H 3312.61 -2.8621 2.6108 0
M  V30 34182 H 3313.03 -2.24962 4.73806 0
M  V30 34183 H 3314.5 -3.79597 4.00762 0
M  V30 34184 H 3314.98 -3.73389 2.31252 0
M  V30 34185 H 3315.59 -2.49973 3.44084 0
M  V30 34186 N 3313.9 -1.4363 -0.648706 0
M  V30 34187 C 3315.32 -1.2713 -0.964894 0
M  V30 34188 C 3315.52 -0.194286 -2.00561 0
M  V30 34189 O 3314.57 0.425767 -2.48884 0
M  V30 34190 C 3315.89 -2.63712 -1.44487 0
M  V30 34191 C 3317.43 -2.7128 -1.56128 0
M  V30 34192 C 3317.91 -4.08291 -2.07514 0
M  V30 34193 N 3319.4 -4.10379 -2.1481 0
M  V30 34194 C 3320.13 -5.13229 -2.55703 0
M  V30 34195 N 3319.63 -6.2645 -2.95859 0
M  V30 34196 N 3321.42 -5.00583 -2.55682 0
M  V30 34197 H 3313.57 -2.12363 0.039873 0
M  V30 34198 H 3315.84 -0.946943 -0.0447539 0
M  V30 34199 H 3315.54 -3.4351 -0.754556 0
M  V30 34200 H 3315.42 -2.89413 -2.41908 0
M  V30 34201 H 3317.8 -1.91812 -2.24259 0
M  V30 34202 H 3317.89 -2.49339 -0.57127 0
M  V30 34203 H 3317.53 -4.88229 -1.39983 0
M  V30 34204 H 3317.46 -4.27599 -3.07354 0
M  V30 34205 H 3319.95 -3.28655 -1.86532 0
M  V30 34206 H 3320.26 -7.00755 -3.25825 0
M  V30 34207 H 3318.61 -6.29915 -2.93653 0
M  V30 34208 H 3321.8 -4.11194 -2.2369 0
M  V30 34209 H 3321.97 -5.80864 -2.87229 0
M  V30 34210 N 3315.38 0.887495 -1.30236 0
M  V30 34211 C 3316.63 1.63379 -1.1828 0
M  V30 34212 C 3316.94 1.93837 0.262045 0
M  V30 34213 O 3318.15 2.66798 0.50308 0
M  V30 34214 C 3316.6 2.94449 -2.06949 0
M  V30 34215 C 3316.21 2.71541 -3.56328 0
M  V30 34216 C 3317.95 3.72406 -2.03749 0
M  V30 34217 C 3315.86 3.98411 -4.37061 0
M  V30 34218 H 3314.79 0.612951 -0.439098 0
M  V30 34219 H 3317.44 0.982751 -1.54965 0
M  V30 34220 H 3315.82 3.60832 -1.63144 0
M  V30 34221 H 3317 2.13674 -4.08265 0
M  V30 34222 H 3315.31 2.06962 -3.61325 0
M  V30 34223 H 3317.91 4.66493 -2.61321 0
M  V30 34224 H 3318.25 4.03602 -1.02037 0
M  V30 34225 H 3318.79 3.12882 -2.45662 0
M  V30 34226 H 3315.53 3.72376 -5.39459 0
M  V30 34227 H 3315.05 4.55792 -3.89889 0
M  V30 34228 H 3316.72 4.66454 -4.48364 0
M  V30 34229 N 3316.86 1.12911 1.0995 0
M  V30 34230 C 3317.77 0.814749 2.19998 0
M  V30 34231 C 3318.78 -0.198479 1.72864 0
M  V30 34232 O 3319.96 -0.0308478 2.01376 0
M  V30 34233 C 3317.02 0.279424 3.45572 0
M  V30 34234 C 3316.08 1.35322 4.07414 0
M  V30 34235 C 3315.32 0.84334 5.26995 0
M  V30 34236 O 3315.54 -0.321064 5.69496 0
M  V30 34237 O 3314.47 1.61522 5.79823 0
M  V30 34238 H 3318.3 1.73403 2.4933 0
M  V30 34239 H 3315.89 0.906149 1.18783 0
M  V30 34240 H 3317.77 -0.0139791 4.21398 0
M  V30 34241 H 3316.44 -0.612345 3.17855 0
M  V30 34242 H 3315.35 1.69986 3.3325 0
M  V30 34243 H 3316.68 2.21893 4.39345 0
M  V30 34244 N 3318.33 -1.27832 0.92178 0
M  V30 34245 C 3319.56 -1.9928 0.574635 0
M  V30 34246 C 3319.98 -1.68358 -0.838875 0
M  V30 34247 O 3319.34 -0.920495 -1.56194 0
M  V30 34248 C 3319.39 -3.51612 0.800088 0
M  V30 34249 O 3318.49 -4.12172 -0.137143 0
M  V30 34250 H 3317.84 -0.625825 0.221898 0
M  V30 34251 H 3320.37 -1.62787 1.23941 0
M  V30 34252 H 3320.38 -4.01716 0.71333 0
M  V30 34253 H 3319.05 -3.73452 1.83048 0
M  V30 34254 H 3317.63 -3.729 -0.000973171 0
M  V30 34255 N 3319.81 -0.686634 -1.41856 0
M  V30 34256 C 3321.09 -0.142262 -1.95082 0
M  V30 34257 C 3321.47 1.34569 -1.62648 0
M  V30 34258 O 3320.82 2.08772 -0.928793 0
M  V30 34259 C 3321.03 -0.424016 -3.46415 0
M  V30 34260 C 3322.38 -0.346916 -4.2318 0
M  V30 34261 O 3323.4 -0.358425 -3.54392 0
M  V30 34262 O 3322.26 -0.299307 -5.4568 0
M  V30 34263 H 3319.35 -0.00975453 -0.826942 0
M  V30 34264 H 3321.9 -0.76218 -1.51621 0
M  V30 34265 H 3320.67 -1.4543 -3.63271 0
M  V30 34266 H 3320.29 0.227322 -3.9695 0
M  V30 34267 N 3321.29 1.51599 -0.430766 0
M  V30 34268 C 3322.52 2.06933 0.139161 0
M  V30 34269 C 3322.94 1.29674 1.36258 0
M  V30 34270 O 3322.3 0.332868 1.78218 0
M  V30 34271 C 3322.35 3.57825 0.44653 0
M  V30 34272 O 3321.45 3.82805 1.53407 0
M  V30 34273 H 3320.79 0.663983 0.00474644 0
M  V30 34274 H 3323.32 1.95289 -0.610206 0
M  V30 34275 H 3323.33 4.01969 0.698901 0
M  V30 34276 H 3322.01 4.13483 -0.447686 0
M  V30 34277 H 3320.58 3.50528 1.27218 0
M  V30 34278 N 3322.77 0.161897 1.56766 0
M  V30 34279 C 3323.72 -0.772064 2.17504 0
M  V30 34280 C 3324.69 -1.23362 1.11225 0
M  V30 34281 O 3325.87 -1.30348 1.39334 0
M  V30 34282 C 3323.01 -1.99979 2.81252 0
M  V30 34283 C 3322.12 -1.58267 4.01965 0
M  V30 34284 C 3321.26 -2.76333 4.53667 0
M  V30 34285 C 3320.3 -2.31066 5.66811 0
M  V30 34286 N 3319.43 -3.42193 6.13065 0
M  V30 34287 H 3324.27 -0.247329 2.96972 0
M  V30 34288 H 3321.81 -0.110357 1.46685 0
M  V30 34289 H 3323.77 -2.71974 3.16364 0
M  V30 34290 H 3322.4 -2.49839 2.04403 0
M  V30 34291 H 3321.45 -0.759809 3.72735 0
M  V30 34292 H 3322.76 -1.21032 4.83893 0
M  V30 34293 H 3321.92 -3.56498 4.90911 0
M  V30 34294 H 3320.66 -3.16822 3.70776 0
M  V30 34295 H 3319.66 -1.49345 5.29128 0
M  V30 34296 H 3320.89 -1.91646 6.51497 0
M  V30 34297 H 3318.83 -3.82275 5.33106 0
M  V30 34298 H 3318.75 -3.09021 6.89958 0
M  V30 34299 H 3320.02 -4.2267 6.54958 0
M  V30 34300 N 3324.25 -1.57203 -0.111858 0
M  V30 34301 C 3325.49 -1.85501 -0.819591 0
M  V30 34302 C 3325.83 -0.748661 -1.79189 0
M  V30 34303 O 3325.1 0.244884 -1.92952 0
M  V30 34304 C 3325.38 -3.24402 -1.56318 0
M  V30 34305 C 3325.24 -4.45644 -0.610003 0
M  V30 34306 C 3326.56 -3.6097 -2.51771 0
M  V30 34307 H 3323.67 -0.674727 -0.2965 0
M  V30 34308 H 3326.32 -1.89816 -0.0836407 0
M  V30 34309 H 3324.47 -3.20854 -2.19054 0
M  V30 34310 H 3326.14 -4.61299 0.00906146 0
M  V30 34311 H 3324.38 -4.3373 0.0779251 0
M  V30 34312 H 3325.05 -5.39521 -1.16708 0
M  V30 34313 H 3327.53 -3.65354 -1.99137 0
M  V30 34314 H 3326.4 -4.59124 -3.00827 0
M  V30 34315 H 3326.67 -2.88766 -3.34764 0
M  V30 34316 N 3325.72 0.382237 -1.52894 0
M  V30 34317 C 3326.97 1.12382 -1.67491 0
M  V30 34318 C 3327.29 1.90936 -0.424599 0
M  V30 34319 O 3328.49 2.67731 -0.45081 0
M  V30 34320 C 3326.95 2.04691 -2.96023 0
M  V30 34321 C 3326.56 1.31528 -4.28257 0
M  V30 34322 C 3328.3 2.78943 -3.19986 0
M  V30 34323 C 3326.21 2.22642 -5.47891 0
M  V30 34324 H 3325.14 0.423235 -0.62401 0
M  V30 34325 H 3327.79 0.386075 -1.79393 0
M  V30 34326 H 3326.17 2.82129 -2.77883 0
M  V30 34327 H 3327.34 0.59269 -4.56972 0
M  V30 34328 H 3325.66 0.692075 -4.10608 0
M  V30 34329 H 3328.26 3.47309 -4.06547 0
M  V30 34330 H 3328.6 3.43395 -2.35341 0
M  V30 34331 H 3329.13 2.08596 -3.38722 0
M  V30 34332 H 3325.87 1.62795 -6.34963 0
M  V30 34333 H 3325.39 2.92798 -5.23478 0
M  V30 34334 H 3327.07 2.82575 -5.82031 0
M  V30 34335 N 3327.2 1.43972 0.64108 0
M  V30 34336 C 3328.45 1.46448 1.40289 0
M  V30 34337 C 3328.78 0.0929345 1.93978 0
M  V30 34338 O 3328.06 -0.888012 1.73045 0
M  V30 34339 C 3328.34 2.51678 2.57547 0
M  V30 34340 C 3328.19 3.98152 2.09272 0
M  V30 34341 C 3329.51 2.53514 3.59748 0
M  V30 34342 H 3326.63 0.533227 0.508761 0
M  V30 34343 H 3329.27 1.75593 0.725736 0
M  V30 34344 H 3327.42 2.26955 3.15315 0
M  V30 34345 H 3329.1 4.33974 1.56411 0
M  V30 34346 H 3327.34 4.10404 1.40538 0
M  V30 34347 H 3328.01 4.67414 2.93646 0
M  V30 34348 H 3330.49 2.7558 3.11761 0
M  V30 34349 H 3329.36 3.29064 4.39327 0
M  V30 34350 H 3329.62 1.57342 4.13154 0
M  V30 34351 N 3328.68 -0.880575 1.30704 0
M  V30 34352 C 3329.61 -2.00283 1.20037 0
M  V30 34353 C 3330.59 -1.69862 0.0899913 0
M  V30 34354 O 3331.78 -1.92275 0.27278 0
M  V30 34355 C 3328.91 -3.35544 0.89596 0
M  V30 34356 C 3327.86 -3.80239 1.96475 0
M  V30 34357 C 3327.19 -5.1284 1.51325 0
M  V30 34358 C 3328.49 -3.9849 3.37644 0
M  V30 34359 H 3330.18 -2.09466 2.13926 0
M  V30 34360 H 3327.73 -1.00642 1.02991 0
M  V30 34361 H 3329.68 -4.13582 0.807971 0
M  V30 34362 H 3328.4 -3.26505 -0.0786062 0
M  V30 34363 H 3327.06 -3.04433 2.04245 0
M  V30 34364 H 3326.71 -5.00233 0.526828 0
M  V30 34365 H 3326.41 -5.43715 2.22817 0
M  V30 34366 H 3327.94 -5.93398 1.43913 0
M  V30 34367 H 3329.35 -4.66953 3.32608 0
M  V30 34368 H 3327.75 -4.40748 4.07261 0
M  V30 34369 H 3328.82 -3.02204 3.7921 0
M  V30 34370 N 3330.16 -1.13492 -1.09349 0
M  V30 34371 C 3331.44 -0.808256 -1.7812 0
M  V30 34372 C 3331.82 0.700037 -1.99155 0
M  V30 34373 O 3331.16 1.63759 -1.59359 0
M  V30 34374 C 3331.37 -1.59607 -3.10365 0
M  V30 34375 C 3332.72 -1.78925 -3.8506 0
M  V30 34376 O 3333.75 -1.56212 -3.20119 0
M  V30 34377 O 3332.61 -2.1683 -5.01644 0
M  V30 34378 H 3329.7 -0.295186 -0.772524 0
M  V30 34379 H 3332.25 -1.23958 -1.15899 0
M  V30 34380 H 3331.02 -2.62106 -2.90544 0
M  V30 34381 H 3330.64 -1.15973 -3.8031 0
M  V30 34382 N 3331.64 1.27341 -0.928546 0
M  V30 34383 C 3332.86 1.98973 -0.585195 0
M  V30 34384 C 3333.29 1.68801 0.829935 0
M  V30 34385 O 3332.65 0.928765 1.55704 0
M  V30 34386 C 3332.69 3.51183 -0.818724 0
M  V30 34387 O 3331.8 4.12239 0.115283 0
M  V30 34388 H 3331.14 0.62464 -0.225214 0
M  V30 34389 H 3333.67 1.62128 -1.24803 0
M  V30 34390 H 3333.68 4.01332 -0.734624 0
M  V30 34391 H 3332.35 3.72476 -1.85026 0
M  V30 34392 H 3330.93 3.72895 -0.0188026 0
M  V30 34393 N 3333.12 0.694147 1.4149 0
M  V30 34394 C 3334.05 0.042258 2.33462 0
M  V30 34395 C 3335.03 -0.768693 1.5174 0
M  V30 34396 O 3336.21 -0.721953 1.80282 0
M  V30 34397 C 3333.34 -0.895866 3.35547 0
M  V30 34398 C 3332.3 -0.192113 4.27569 0
M  V30 34399 C 3331.62 -1.2445 5.20016 0
M  V30 34400 C 3332.92 0.940716 5.13759 0
M  V30 34401 H 3334.62 0.810414 2.88223 0
M  V30 34402 H 3332.16 0.391164 1.38585 0
M  V30 34403 H 3334.11 -1.36114 3.98812 0
M  V30 34404 H 3332.84 -1.69567 2.79132 0
M  V30 34405 H 3331.5 0.253114 3.65725 0
M  V30 34406 H 3331.15 -2.03679 4.59917 0
M  V30 34407 H 3330.85 -0.778632 5.82418 0
M  V30 34408 H 3332.37 -1.71031 5.86158 0
M  V30 34409 H 3333.78 0.555792 5.706 0
M  V30 34410 H 3332.18 1.33359 5.85094 0
M  V30 34411 H 3333.25 1.78101 4.51008 0
M  V30 34412 N 3334.59 -1.51368 0.438799 0
M  V30 34413 C 3335.87 -1.94702 -0.187186 0
M  V30 34414 C 3336.25 -1.37754 -1.59959 0
M  V30 34415 O 3335.6 -0.56521 -2.21399 0
M  V30 34416 C 3335.81 -3.48617 -0.163429 0
M  V30 34417 C 3337.16 -4.23 -0.368281 0
M  V30 34418 O 3338.18 -3.55381 -0.241479 0
M  V30 34419 O 3337.04 -5.42962 -0.62082 0
M  V30 34420 H 3334.13 -0.816849 -0.12918 0
M  V30 34421 H 3336.68 -1.62263 0.496883 0
M  V30 34422 H 3335.45 -3.82527 0.823949 0
M  V30 34423 H 3335.07 -3.87503 -0.890346 0
M  V30 34424 N 3336.07 -0.170208 -1.56678 0
M  V30 34425 C 3337.3 0.484507 -2.01661 0
M  V30 34426 C 3337.72 1.5609 -1.04965 0
M  V30 34427 O 3337.08 1.81277 -0.0290205 0
M  V30 34428 C 3337.13 1.04078 -3.45254 0
M  V30 34429 O 3336.23 2.15482 -3.51627 0
M  V30 34430 H 3335.57 0.116123 -0.653767 0
M  V30 34431 H 3338.1 -0.273773 -2.0276 0
M  V30 34432 H 3338.11 1.36366 -3.84536 0
M  V30 34433 H 3336.79 0.252665 -4.15132 0
M  V30 34434 H 3335.36 1.84246 -3.24203 0
M  V30 34435 N 3337.55 1.5726 0.10352 0
M  V30 34436 C 3338.48 1.96692 1.15704 0
M  V30 34437 C 3339.46 0.838862 1.39291 0
M  V30 34438 O 3340.64 1.09842 1.5319 0
M  V30 34439 C 3337.77 2.27646 2.50789 0
M  V30 34440 C 3336.82 3.50133 2.43535 0
M  V30 34441 S 3337.65 5.02159 1.86 0
M  V30 34442 C 3338.81 5.36282 3.22727 0
M  V30 34443 H 3339.04 2.85744 0.820841 0
M  V30 34444 H 3336.57 1.51238 0.310879 0
M  V30 34445 H 3338.53 2.46156 3.28508 0
M  V30 34446 H 3337.19 1.39181 2.8158 0
M  V30 34447 H 3336.38 3.69206 3.43078 0
M  V30 34448 H 3335.99 3.31089 1.73942 0
M  V30 34449 H 3338.28 5.32411 4.18981 0
M  V30 34450 H 3339.22 6.37381 3.08466 0
M  V30 34451 H 3339.63 4.63746 3.2187 0
M  V30 34452 N 3339.03 -0.374123 1.53095 0
M  V30 34453 C 3340.26 -1.13849 1.7276 0
M  V30 34454 C 3340.67 -1.83293 0.45267 0
M  V30 34455 O 3340.03 -1.73242 -0.573876 0
M  V30 34456 C 3340.08 -2.17528 2.88728 0
M  V30 34457 O 3339.8 -1.50913 4.11287 0
M  V30 34458 C 3341.3 -3.06578 3.20195 0
M  V30 34459 H 3338.52 -0.340761 0.578034 0
M  V30 34460 H 3341.06 -0.435648 1.99806 0
M  V30 34461 H 3339.22 -2.83425 2.64101 0
M  V30 34462 H 3339.63 -2.19924 4.76166 0
M  V30 34463 H 3341.11 -3.75325 4.04766 0
M  V30 34464 H 3341.58 -3.70915 2.35199 0
M  V30 34465 H 3342.19 -2.46309 3.46716 0
M  V30 34466 N 3340.51 -1.4431 -0.633436 0
M  V30 34467 C 3341.42 -1.53485 -1.77425 0
M  V30 34468 C 3342.43 -0.420658 -1.68839 0
M  V30 34469 O 3343.61 -0.677671 -1.89656 0
M  V30 34470 C 3340.67 -1.47415 -3.13799 0
M  V30 34471 C 3339.73 -2.69666 -3.34034 0
M  V30 34472 C 3338.97 -2.63876 -4.63902 0
M  V30 34473 O 3339.19 -1.6975 -5.44556 0
M  V30 34474 O 3338.12 -3.54692 -4.86289 0
M  V30 34475 H 3341.95 -2.4986 -1.72638 0
M  V30 34476 H 3339.53 -1.26531 -0.794376 0
M  V30 34477 H 3341.42 -1.46544 -3.95098 0
M  V30 34478 H 3340.09 -0.541825 -3.19133 0
M  V30 34479 H 3339 -2.76105 -2.52422 0
M  V30 34480 H 3340.33 -3.61937 -3.3356 0
M  V30 34481 N 3341.98 0.873632 -1.3117 0
M  V30 34482 C 3343.23 1.62879 -1.20824 0
M  V30 34483 C 3343.56 1.92786 0.23396 0
M  V30 34484 O 3342.84 1.55686 1.16586 0
M  V30 34485 C 3343.12 2.96135 -2.0488 0
M  V30 34486 C 3342.97 2.7313 -3.5738 0
M  V30 34487 C 3344.29 3.97195 -1.89537 0
M  V30 34488 H 3341.41 0.591042 -0.440271 0
M  V30 34489 H 3344.05 1.01016 -1.60922 0
M  V30 34490 H 3342.2 3.48935 -1.70812 0
M  V30 34491 H 3343.88 2.27031 -4.01565 0
M  V30 34492 H 3342.12 2.07428 -3.80994 0
M  V30 34493 H 3342.79 3.67932 -4.11497 0
M  V30 34494 H 3345.27 3.53592 -2.19343 0
M  V30 34495 H 3344.14 4.88325 -2.50659 0
M  V30 34496 H 3344.4 4.33701 -0.857652 0
M  V30 34497 N 3343.46 1.1407 1.08746 0
M  V30 34498 C 3344.37 0.838037 2.19121 0
M  V30 34499 C 3345.39 -0.180133 1.73065 0
M  V30 34500 O 3346.56 -0.00948744 2.01398 0
M  V30 34501 C 3343.63 0.31606 3.45256 0
M  V30 34502 C 3342.69 1.39635 4.05956 0
M  V30 34503 C 3341.92 0.899187 5.26071 0
M  V30 34504 O 3342.15 -0.260643 5.69804 0
M  V30 34505 O 3341.08 1.67662 5.78077 0
M  V30 34506 H 3344.91 1.76037 2.47476 0
M  V30 34507 H 3342.49 0.918696 1.17815 0
M  V30 34508 H 3344.37 0.0307166 4.21389 0
M  V30 34509 H 3343.05 -0.578598 3.18487 0
M  V30 34510 H 3341.96 1.73511 3.31428 0
M  V30 34511 H 3343.29 2.2654 4.36967 0
M  V30 34512 N 3344.94 -1.26847 0.935286 0
M  V30 34513 C 3346.22 -1.89159 0.49783 0
M  V30 34514 C 3346.6 -1.8458 -1.02437 0
M  V30 34515 O 3345.95 -1.29613 -1.88183 0
M  V30 34516 C 3346.16 -3.32751 1.0525 0
M  V30 34517 C 3347.5 -4.09628 1.11758 0
M  V30 34518 O 3348.53 -3.41797 1.00266 0
M  V30 34519 O 3347.39 -5.30921 1.29557 0
M  V30 34520 H 3344.48 -0.81111 0.161336 0
M  V30 34521 H 3347.03 -1.3506 1.02747 0
M  V30 34522 H 3345.8 -3.30415 2.09622 0
M  V30 34523 H 3345.42 -3.9438 0.504959 0
M  V30 34524 N 3346.42 -0.701641 -1.4112 0
M  V30 34525 C 3347.7 -0.162945 -1.9492 0
M  V30 34526 C 3348.08 1.32836 -1.64066 0
M  V30 34527 O 3347.42 2.07775 -0.950884 0
M  V30 34528 C 3347.63 -0.460734 -3.45945 0
M  V30 34529 C 3348.98 -0.39178 -4.22789 0
M  V30 34530 O 3350.01 -0.395993 -3.53992 0
M  V30 34531 O 3348.86 -0.357167 -5.45332 0
M  V30 34532 H 3345.96 -0.0185248 -0.826792 0
M  V30 34533 H 3348.5 -0.778218 -1.50804 0
M  V30 34534 H 3347.28 -1.49275 -3.61708 0
M  V30 34535 H 3346.9 0.185207 -3.97168 0
M  V30 34536 N 3347.9 1.51133 -0.446821 0
M  V30 34537 C 3349.31 1.59289 -0.0996185 0
M  V30 34538 C 3349.51 1.45701 1.39188 0
M  V30 34539 O 3348.57 1.30307 2.16278 0
M  V30 34540 C 3349.88 2.94065 -0.628186 0
M  V30 34541 C 3351.43 3.07399 -0.589463 0
M  V30 34542 C 3351.9 4.44714 -1.09516 0
M  V30 34543 N 3353.4 4.51059 -1.05355 0
M  V30 34544 C 3354.13 5.55651 -1.4156 0
M  V30 34545 N 3353.63 6.67616 -1.85097 0
M  V30 34546 N 3355.42 5.46061 -1.33317 0
M  V30 34547 H 3347.57 1.5821 -1.41716 0
M  V30 34548 H 3349.83 0.746314 -0.584568 0
M  V30 34549 H 3349.54 3.09408 -1.6721 0
M  V30 34550 H 3349.41 3.77155 -0.0583061 0
M  V30 34551 H 3351.8 2.91718 0.44549 0
M  V30 34552 H 3351.88 2.26126 -1.19586 0
M  V30 34553 H 3351.53 4.61142 -2.12863 0
M  V30 34554 H 3351.46 5.24541 -0.465214 0
M  V30 34555 H 3353.95 3.70704 -0.733942 0
M  V30 34556 H 3354.26 7.43455 -2.10936 0
M  V30 34557 H 3352.6 6.68799 -1.89032 0
M  V30 34558 H 3355.8 4.57476 -0.991627 0
M  V30 34559 H 3355.97 6.27459 -1.61861 0
M  V30 34560 N 3349.37 0.178515 1.56586 0
M  V30 34561 C 3350.28 -0.761282 2.21905 0
M  V30 34562 C 3351.3 -1.24758 1.21291 0
M  V30 34563 O 3352.48 -1.2982 1.53976 0
M  V30 34564 C 3349.54 -1.97043 2.85263 0
M  V30 34565 C 3348.6 -1.53032 4.01098 0
M  V30 34566 C 3347.84 -2.68183 4.61426 0
M  V30 34567 O 3348.06 -3.85239 4.20651 0
M  V30 34568 O 3346.99 -2.41846 5.51175 0
M  V30 34569 H 3350.82 -0.235088 3.02789 0
M  V30 34570 H 3348.4 -0.0500179 1.49316 0
M  V30 34571 H 3350.29 -2.67744 3.25409 0
M  V30 34572 H 3348.96 -2.48555 2.0737 0
M  V30 34573 H 3347.87 -0.792596 3.65607 0
M  V30 34574 H 3349.2 -1.06204 4.80605 0
M  V30 34575 N 3350.85 -1.57312 -0.0951784 0
M  V30 34576 C 3352.26 -1.75031 -0.649702 0
M  V30 34577 C 3352.61 -0.800684 -1.79119 0
M  V30 34578 O 3351.74 0.0208451 -2.1639 0
M  V30 34579 C 3352.33 -3.17388 -1.18535 0
M  V30 34580 C 3350.89 -3.36531 -1.68594 0
M  V30 34581 C 3350.04 -2.70831 -0.595484 0
M  V30 34582 H 3352.99 -1.58159 0.130891 0
M  V30 34583 H 3353.01 -3.20255 -2.05467 0
M  V30 34584 H 3352.52 -3.86479 -0.354342 0
M  V30 34585 H 3350.63 -2.72518 -2.54096 0
M  V30 34586 H 3350.74 -4.44847 -1.77899 0
M  V30 34587 H 3349.1 -2.32727 -1.03491 0
M  V30 34588 H 3349.89 -3.42562 0.224944 0
M  V30 34589 N 3352.33 0.365999 -1.53291 0
M  V30 34590 C 3353.56 1.13378 -1.73667 0
M  V30 34591 C 3353.98 1.82279 -0.464316 0
M  V30 34592 O 3353.34 1.71718 0.581615 0
M  V30 34593 C 3353.39 2.14008 -2.90229 0
M  V30 34594 O 3352.49 3.21079 -2.58808 0
M  V30 34595 H 3351.83 0.32899 -0.576768 0
M  V30 34596 H 3354.36 0.423252 -2.00174 0
M  V30 34597 H 3354.37 2.57616 -3.16383 0
M  V30 34598 H 3353.05 1.6325 -3.82521 0
M  V30 34599 H 3351.62 2.82447 -2.43471 0
M  V30 34600 N 3353.81 1.44644 0.625774 0
M  V30 34601 C 3355.05 1.47927 1.38728 0
M  V30 34602 C 3355.39 0.113503 1.93868 0
M  V30 34603 O 3354.66 -0.869609 1.73977 0
M  V30 34604 C 3354.95 2.54395 2.54863 0
M  V30 34605 C 3354.8 4.0035 2.05037 0
M  V30 34606 C 3356.12 2.57316 3.57039 0
M  V30 34607 H 3353.24 0.538593 0.503077 0
M  V30 34608 H 3355.88 1.76353 0.707071 0
M  V30 34609 H 3354.03 2.30287 3.1289 0
M  V30 34610 H 3355.7 4.35608 1.51799 0
M  V30 34611 H 3353.94 4.11872 1.36177 0
M  V30 34612 H 3354.61 4.70502 2.88672 0
M  V30 34613 H 3357.09 2.78871 3.08821 0
M  V30 34614 H 3355.97 3.33705 4.35812 0
M  V30 34615 H 3356.23 1.61715 4.11462 0
M  V30 34616 N 3355.29 -0.866663 1.31631 0
M  V30 34617 C 3356.7 -1.4357 1.1935 0
M  V30 34618 C 3357.05 -1.95191 -0.198731 0
M  V30 34619 O 3356.17 -1.86551 -1.09671 0
M  V30 34620 C 3356.77 -2.60967 2.1606 0
M  V30 34621 C 3355.33 -3.13906 2.07702 0
M  V30 34622 C 3354.47 -1.86623 2.05102 0
M  V30 34623 H 3357.43 -0.674903 1.43634 0
M  V30 34624 H 3357.45 -3.37758 1.75213 0
M  V30 34625 H 3356.96 -2.23366 3.17379 0
M  V30 34626 H 3355.06 -3.56119 1.0959 0
M  V30 34627 H 3355.17 -3.75964 2.96964 0
M  V30 34628 H 3353.54 -2.05724 1.50165 0
M  V30 34629 H 3354.32 -1.51256 3.08183 0
M  V30 34630 N 3356.77 -1.14645 -1.0814 0
M  V30 34631 C 3357.99 -0.940382 -1.84856 0
M  V30 34632 C 3358.42 0.506085 -1.81164 0
M  V30 34633 O 3357.77 1.36016 -1.19872 0
M  V30 34634 C 3357.82 -1.44926 -3.30195 0
M  V30 34635 O 3356.93 -0.643151 -4.07354 0
M  V30 34636 H 3356.27 -0.336014 -0.572705 0
M  V30 34637 H 3358.8 -1.52435 -1.36473 0
M  V30 34638 H 3358.81 -1.45861 -3.81036 0
M  V30 34639 H 3357.48 -2.50235 -3.32197 0
M  V30 34640 H 3356.06 -0.702763 -3.66218 0
M  V30 34641 N 3358.24 1.26349 -0.942 0
M  V30 34642 C 3359.15 2.30079 -0.458371 0
M  V30 34643 C 3360.17 1.67587 0.468054 0
M  V30 34644 O 3361.35 1.98381 0.347383 0
M  V30 34645 C 3358.41 3.45663 0.267909 0
M  V30 34646 C 3357.47 4.23634 -0.695177 0
M  V30 34647 C 3356.7 5.337 -0.00346281 0
M  V30 34648 O 3356.93 5.57346 1.21332 0
M  V30 34649 O 3355.86 5.98017 -0.682581 0
M  V30 34650 H 3359.69 2.73512 -1.32003 0
M  V30 34651 H 3357.27 1.31563 -0.70792 0
M  V30 34652 H 3359.15 4.15926 0.676987 0
M  V30 34653 H 3357.83 3.04258 1.10495 0
M  V30 34654 H 3356.74 3.55849 -1.15422 0
M  V30 34655 H 3358.07 4.68791 -1.49985 0
M  V30 34656 N 3359.72 0.709115 1.40746 0
M  V30 34657 C 3360.95 0.254924 2.05021 0
M  V30 34658 C 3361.36 -1.10592 1.53512 0
M  V30 34659 O 3360.7 -1.70493 0.683942 0
M  V30 34660 C 3360.76 0.149887 3.59187 0
M  V30 34661 C 3360.43 1.44496 4.33555 0
M  V30 34662 C 3361.43 2.38558 4.61937 0
M  V30 34663 C 3359.11 1.70209 4.72582 0
M  V30 34664 C 3361.1 3.56584 5.28324 0
M  V30 34665 C 3358.79 2.88518 5.38702 0
M  V30 34666 C 3359.79 3.81528 5.66502 0
M  V30 34667 O 3359.48 4.97763 6.31258 0
M  V30 34668 H 3359.21 0.113504 0.666403 0
M  V30 34669 H 3361.76 0.966131 1.8126 0
M  V30 34670 H 3359.99 -0.617209 3.81743 0
M  V30 34671 H 3361.68 -0.268894 4.05008 0
M  V30 34672 H 3362.45 2.19955 4.32256 0
M  V30 34673 H 3358.33 0.986707 4.50317 0
M  V30 34674 H 3361.87 4.292 5.4994 0
M  V30 34675 H 3357.77 3.07033 5.67803 0
M  V30 34676 H 3358.54 4.97756 6.49755 0
M  V30 34677 N 3361.2 -1.50894 0.454829 0
M  V30 34678 C 3362.13 -2.31042 -0.337941 0
M  V30 34679 C 3363.11 -1.37221 -1.00521 0
M  V30 34680 O 3364.3 -1.66142 -1.0055 0
M  V30 34681 C 3361.43 -3.16513 -1.42958 0
M  V30 34682 C 3360.38 -4.18754 -0.884833 0
M  V30 34683 C 3359.71 -4.92857 -2.07354 0
M  V30 34684 C 3361.01 -5.22218 0.0927634 0
M  V30 34685 H 3362.7 -2.97565 0.330942 0
M  V30 34686 H 3360.25 -1.43102 0.160602 0
M  V30 34687 H 3362.2 -3.7137 -1.99154 0
M  V30 34688 H 3360.92 -2.47843 -2.127 0
M  V30 34689 H 3359.58 -3.64973 -0.344967 0
M  V30 34690 H 3359.23 -4.20675 -2.75756 0
M  V30 34691 H 3358.93 -5.62005 -1.71535 0
M  V30 34692 H 3360.45 -5.50544 -2.64071 0
M  V30 34693 H 3361.87 -5.72043 -0.379468 0
M  V30 34694 H 3360.26 -5.98993 0.364405 0
M  V30 34695 H 3361.33 -4.73966 1.02391 0
M  V30 34696 N 3362.68 -0.186817 -1.56489 0
M  V30 34697 C 3363.93 0.454295 -1.96517 0
M  V30 34698 C 3364.24 1.63331 -1.07621 0
M  V30 34699 O 3365.45 2.34168 -1.37396 0
M  V30 34700 C 3363.9 0.859624 -3.49483 0
M  V30 34701 C 3363.51 -0.294651 -4.4703 0
M  V30 34702 C 3365.25 1.46828 -3.98298 0
M  V30 34703 C 3363.16 0.131175 -5.91255 0
M  V30 34704 H 3362.09 0.173497 -0.733768 0
M  V30 34705 H 3364.74 -0.277517 -1.81389 0
M  V30 34706 H 3363.12 1.64786 -3.60085 0
M  V30 34707 H 3364.3 -1.07212 -4.48154 0
M  V30 34708 H 3362.61 -0.814268 -4.08361 0
M  V30 34709 H 3365.21 1.79919 -5.03521 0
M  V30 34710 H 3365.55 2.3718 -3.42127 0
M  V30 34711 H 3366.09 0.744178 -3.90777 0
M  V30 34712 H 3362.82 -0.737953 -6.51333 0
M  V30 34713 H 3362.34 0.873681 -5.93403 0
M  V30 34714 H 3364.02 0.5698 -6.44486 0
M  V30 34715 N 3364.16 1.57361 0.0868344 0
M  V30 34716 C 3365.1 2.02643 1.10474 0
M  V30 34717 C 3366.07 0.904244 1.39329 0
M  V30 34718 O 3367.26 1.17084 1.50652 0
M  V30 34719 C 3364.4 2.46275 2.41749 0
M  V30 34720 C 3363.51 3.72048 2.19554 0
M  V30 34721 C 3362.65 4.04525 3.44286 0
M  V30 34722 C 3361.68 5.23383 3.1739 0
M  V30 34723 N 3360.82 5.51572 4.34411 0
M  V30 34724 H 3365.66 2.89379 0.711612 0
M  V30 34725 H 3363.2 1.43121 0.33983 0
M  V30 34726 H 3365.16 2.69619 3.18373 0
M  V30 34727 H 3363.79 1.62537 2.78894 0
M  V30 34728 H 3362.84 3.56132 1.33694 0
M  V30 34729 H 3364.15 4.58816 1.95677 0
M  V30 34730 H 3363.3 4.28689 4.29314 0
M  V30 34731 H 3362.04 3.16295 3.71226 0
M  V30 34732 H 3361.05 4.9903 2.30757 0
M  V30 34733 H 3362.27 6.13218 2.91788 0
M  V30 34734 H 3360.22 4.66301 4.6141 0
M  V30 34735 H 3360.14 6.32728 4.13753 0
M  V30 34736 H 3361.4 5.80278 5.20479 0
M  V30 34737 N 3365.63 -0.357865 1.53483 0
M  V30 34738 C 3367.05 -0.700048 1.43428 0
M  V30 34739 C 3367.25 -1.92986 0.579527 0
M  V30 34740 O 3366.31 -2.52416 0.064953 0
M  V30 34741 C 3367.62 -0.906049 2.86725 0
M  V30 34742 C 3369.17 -1.00557 2.96407 0
M  V30 34743 C 3369.64 -1.24399 4.40782 0
M  V30 34744 N 3371.13 -1.31152 4.44245 0
M  V30 34745 C 3371.87 -1.51324 5.53072 0
M  V30 34746 N 3371.36 -1.68762 6.71931 0
M  V30 34747 N 3373.16 -1.53756 5.40662 0
M  V30 34748 H 3365.31 0.45093 2.07558 0
M  V30 34749 H 3367.57 0.139727 0.937646 0
M  V30 34750 H 3367.28 -0.0740961 3.51622 0
M  V30 34751 H 3367.15 -1.81193 3.30831 0
M  V30 34752 H 3369.54 -1.82806 2.31659 0
M  V30 34753 H 3369.62 -0.0769063 2.55684 0
M  V30 34754 H 3369.26 -0.426486 5.06106 0
M  V30 34755 H 3369.19 -2.186 4.79084 0
M  V30 34756 H 3371.68 -1.19258 3.58589 0
M  V30 34757 H 3372 -1.83749 7.50637 0
M  V30 34758 H 3370.34 -1.65925 6.74903 0
M  V30 34759 H 3373.53 -1.39705 4.46766 0
M  V30 34760 H 3373.71 -1.69135 6.25538 0
M  V30 34761 N 3367.11 -1.44974 -0.618094 0
M  V30 34762 C 3368.53 -1.29148 -0.937711 0
M  V30 34763 C 3368.73 -0.236785 -2.00104 0
M  V30 34764 O 3367.78 0.372879 -2.49732 0
M  V30 34765 C 3369.1 -2.66718 -1.38861 0
M  V30 34766 C 3370.64 -2.74531 -1.50338 0
M  V30 34767 C 3371.12 -4.12601 -1.98807 0
M  V30 34768 N 3372.61 -4.14843 -2.06057 0
M  V30 34769 C 3373.35 -5.18537 -2.44759 0
M  V30 34770 N 3372.84 -6.32584 -2.82505 0
M  V30 34771 N 3374.63 -5.05893 -2.45007 0
M  V30 34772 H 3366.79 -2.1223 0.0849093 0
M  V30 34773 H 3369.05 -0.947679 -0.0246577 0
M  V30 34774 H 3368.75 -3.45034 -0.681522 0
M  V30 34775 H 3368.63 -2.9448 -2.35715 0
M  V30 34776 H 3371.02 -1.96525 -2.2014 0
M  V30 34777 H 3371.1 -2.50495 -0.518253 0
M  V30 34778 H 3370.74 -4.91088 -1.29596 0
M  V30 34779 H 3370.67 -4.34022 -2.98215 0
M  V30 34780 H 3373.16 -3.32538 -1.79519 0
M  V30 34781 H 3373.47 -7.07509 -3.10887 0
M  V30 34782 H 3371.82 -6.36002 -2.80225 0
M  V30 34783 H 3375.01 -4.15846 -2.14918 0
M  V30 34784 H 3375.18 -5.86826 -2.74843 0
M  V30 34785 N 3368.59 0.85967 -1.32089 0
M  V30 34786 C 3369.54 1.96782 -1.20605 0
M  V30 34787 C 3370.51 1.65859 -0.0893841 0
M  V30 34788 O 3371.69 1.88964 -0.264055 0
M  V30 34789 C 3368.83 3.32335 -0.92993 0
M  V30 34790 C 3367.94 3.75788 -2.13091 0
M  V30 34791 C 3367.08 5.00107 -1.7907 0
M  V30 34792 C 3366.12 5.36038 -2.95517 0
M  V30 34793 N 3365.26 6.51535 -2.61622 0
M  V30 34794 H 3370.1 2.05936 -2.15393 0
M  V30 34795 H 3367.63 1.00801 -1.07133 0
M  V30 34796 H 3369.59 4.10397 -0.750357 0
M  V30 34797 H 3368.22 3.22794 -0.0188496 0
M  V30 34798 H 3367.27 2.93421 -2.42092 0
M  V30 34799 H 3368.58 3.98339 -3.00212 0
M  V30 34800 H 3367.74 5.85864 -1.57635 0
M  V30 34801 H 3366.48 4.79482 -0.891543 0
M  V30 34802 H 3365.48 4.48796 -3.17589 0
M  V30 34803 H 3366.71 5.58623 -3.86157 0
M  V30 34804 H 3364.65 6.32436 -1.74242 0
M  V30 34805 H 3364.57 6.74081 -3.42274 0
M  V30 34806 H 3365.84 7.40457 -2.43605 0
M  V30 34807 N 3370.07 1.15217 1.0753 0
M  V30 34808 C 3371.31 0.925923 1.80091 0
M  V30 34809 C 3371.64 -0.547046 1.86648 0
M  V30 34810 O 3370.9 -1.42161 1.34494 0
M  V30 34811 C 3371.2 1.48306 3.25177 0
M  V30 34812 C 3370.86 2.9762 3.38723 0
M  V30 34813 C 3369.52 3.38382 3.42127 0
M  V30 34814 C 3371.88 3.93589 3.41669 0
M  V30 34815 C 3369.2 4.73758 3.46078 0
M  V30 34816 C 3371.56 5.28834 3.47156 0
M  V30 34817 C 3370.22 5.69095 3.48837 0
M  V30 34818 H 3369.49 0.338819 0.659001 0
M  V30 34819 H 3372.14 1.43731 1.26546 0
M  V30 34820 H 3370.44 0.892818 3.81492 0
M  V30 34821 H 3372.14 1.28383 3.79893 0
M  V30 34822 H 3368.73 2.6511 3.36771 0
M  V30 34823 H 3372.91 3.63171 3.38261 0
M  V30 34824 H 3368.17 5.04299 3.45677 0
M  V30 34825 H 3372.34 6.02995 3.48382 0
M  V30 34826 H 3369.97 6.73977 3.51652 0
M  V30 34827 N 3371.55 -1.25848 0.948687 0
M  V30 34828 C 3372.96 -1.7532 0.64186 0
M  V30 34829 C 3373.31 -1.77173 -0.842872 0
M  V30 34830 O 3372.43 -1.3887 -1.65964 0
M  V30 34831 C 3373.03 -3.18381 1.1584 0
M  V30 34832 C 3371.59 -3.65436 0.901848 0
M  V30 34833 C 3370.73 -2.44677 1.30493 0
M  V30 34834 H 3373.69 -1.11818 1.12616 0
M  V30 34835 H 3373.71 -3.76989 0.515706 0
M  V30 34836 H 3373.22 -3.17001 2.23902 0
M  V30 34837 H 3371.32 -3.72239 -0.164069 0
M  V30 34838 H 3371.43 -4.53874 1.53413 0
M  V30 34839 H 3369.8 -2.44213 0.723321 0
M  V30 34840 H 3370.58 -2.45992 2.39464 0
M  V30 34841 N 3373.02 -0.716569 -1.40368 0
M  V30 34842 C 3374.44 -0.328752 -1.83783 0
M  V30 34843 C 3374.79 1.13678 -1.59912 0
M  V30 34844 O 3373.91 1.87494 -1.08051 0
M  V30 34845 C 3374.51 -0.589906 -3.33625 0
M  V30 34846 C 3373.07 -0.255786 -3.7553 0
M  V30 34847 C 3372.21 -0.861779 -2.63569 0
M  V30 34848 H 3375.16 -0.915644 -1.29621 0
M  V30 34849 H 3375.18 0.144523 -3.80225 0
M  V30 34850 H 3374.7 -1.65661 -3.50967 0
M  V30 34851 H 3372.8 0.805819 -3.63782 0
M  V30 34852 H 3372.91 -0.725471 -4.73575 0
M  V30 34853 H 3371.27 -0.289751 -2.53047 0
M  V30 34854 H 3372.06 -1.93277 -2.83723 0
M  V30 34855 N 3374.5 1.50651 -0.462825 0
M  V30 34856 C 3375.47 2.26895 0.324224 0
M  V30 34857 C 3376.47 1.31343 0.927664 0
M  V30 34858 O 3377.66 1.5484 0.798132 0
M  V30 34859 C 3374.79 3.08002 1.46107 0
M  V30 34860 H 3375.98 2.97917 -0.344318 0
M  V30 34861 H 3373.53 1.54791 -0.216658 0
M  V30 34862 H 3374.27 2.41458 2.16492 0
M  V30 34863 H 3374.05 3.78213 1.03427 0
M  V30 34864 H 3375.54 3.65688 2.01649 0
M  V30 34865 N 3375.98 0.195113 1.56388 0
M  V30 34866 C 3376.91 -0.720932 2.22092 0
M  V30 34867 C 3377.89 -1.22126 1.18403 0
M  V30 34868 O 3379.08 -1.2701 1.46909 0
M  V30 34869 C 3376.21 -1.94054 2.88028 0
M  V30 34870 C 3375.16 -1.57513 3.97962 0
M  V30 34871 C 3374.49 -2.87135 4.51063 0
M  V30 34872 C 3375.79 -0.785054 5.16366 0
M  V30 34873 H 3377.48 -0.173193 2.98899 0
M  V30 34874 H 3375.03 -0.0818615 1.43767 0
M  V30 34875 H 3376.98 -2.5866 3.32676 0
M  V30 34876 H 3375.7 -2.51281 2.08627 0
M  V30 34877 H 3374.36 -0.952653 3.54006 0
M  V30 34878 H 3374.01 -3.42451 3.68424 0
M  V30 34879 H 3373.71 -2.6343 5.25241 0
M  V30 34880 H 3375.23 -3.52729 4.98412 0
M  V30 34881 H 3376.65 -1.33421 5.57559 0
M  V30 34882 H 3375.05 -0.646126 5.96611 0
M  V30 34883 H 3376.12 0.213874 4.84428 0
M  V30 34884 N 3377.46 -1.57404 -0.0784879 0
M  V30 34885 C 3378.87 -1.7571 -0.631101 0
M  V30 34886 C 3379.22 -0.819637 -1.78259 0
M  V30 34887 O 3378.35 -0.00210716 -2.164 0
M  V30 34888 C 3378.94 -3.18627 -1.15162 0
M  V30 34889 C 3377.5 -3.383 -1.65015 0
M  V30 34890 C 3376.65 -2.71447 -0.566725 0
M  V30 34891 H 3379.6 -1.58012 0.147659 0
M  V30 34892 H 3379.62 -3.22416 -2.02059 0
M  V30 34893 H 3379.13 -3.86833 -0.313331 0
M  V30 34894 H 3377.23 -2.75198 -2.51191 0
M  V30 34895 H 3377.34 -4.46709 -1.73171 0
M  V30 34896 H 3375.71 -2.33811 -1.01017 0
M  V30 34897 H 3376.49 -3.42304 0.261264 0
M  V30 34898 N 3378.94 0.34972 -1.53671 0
M  V30 34899 C 3380.35 0.925676 -1.62136 0
M  V30 34900 C 3380.7 1.89755 -0.498759 0
M  V30 34901 O 3379.82 2.13171 0.372443 0
M  V30 34902 C 3380.42 1.68568 -2.93888 0
M  V30 34903 C 3378.98 2.21074 -3.04636 0
M  V30 34904 C 3378.12 1.02796 -2.57543 0
M  V30 34905 H 3381.08 0.128037 -1.58183 0
M  V30 34906 H 3381.1 2.5481 -2.82581 0
M  V30 34907 H 3380.61 0.978087 -3.75573 0
M  V30 34908 H 3378.71 2.95028 -2.27572 0
M  V30 34909 H 3378.82 2.47868 -4.09998 0
M  V30 34910 H 3377.19 1.39958 -2.128 0
M  V30 34911 H 3377.97 0.335097 -3.41661 0
M  V30 34912 N 3380.41 1.45299 0.610397 0
M  V30 34913 C 3381.66 1.50381 1.36956 0
M  V30 34914 C 3382.02 0.142412 1.91872 0
M  V30 34915 O 3381.31 -0.845302 1.71945 0
M  V30 34916 C 3381.5 2.51628 2.53807 0
M  V30 34917 C 3381.33 3.97479 2.10334 0
M  V30 34918 C 3380.1 4.65469 1.96638 0
M  V30 34919 C 3382.3 4.86096 1.67973 0
M  V30 34920 N 3380.28 5.96054 1.46945 0
M  V30 34921 C 3381.65 6.06287 1.29676 0
M  V30 34922 C 3383.71 4.72982 1.5554 0
M  V30 34923 C 3382.41 7.14817 0.801859 0
M  V30 34924 C 3384.44 5.81556 1.07454 0
M  V30 34925 C 3383.8 7.00901 0.701194 0
M  V30 34926 H 3379.9 0.605244 0.49518 0
M  V30 34927 H 3382.48 1.81755 0.698089 0
M  V30 34928 H 3380.65 2.22211 3.18554 0
M  V30 34929 H 3382.38 2.46875 3.20678 0
M  V30 34930 H 3379.14 4.20581 2.17736 0
M  V30 34931 H 3379.56 6.65484 1.24339 0
M  V30 34932 H 3384.21 3.81129 1.83031 0
M  V30 34933 H 3381.92 8.06461 0.514492 0
M  V30 34934 H 3385.51 5.73442 0.98264 0
M  V30 34935 H 3384.39 7.83485 0.33483 0
M  V30 34936 N 3381.89 -0.852653 1.32543 0
M  V30 34937 C 3382.86 -1.94295 1.21581 0
M  V30 34938 C 3383.86 -1.60204 0.138346 0
M  V30 34939 O 3385.05 -1.69804 0.388894 0
M  V30 34940 C 3382.18 -3.29605 0.870267 0
M  V30 34941 H 3383.37 -2.05442 2.1848 0
M  V30 34942 H 3380.92 -1.04308 1.16403 0
M  V30 34943 H 3381.66 -3.24155 -0.0968128 0
M  V30 34944 H 3381.44 -3.55725 1.6493 0
M  V30 34945 H 3382.93 -4.09511 0.817946 0
M  V30 34946 N 3383.37 -1.15786 -1.06918 0
M  V30 34947 C 3384.79 -0.901432 -1.31706 0
M  V30 34948 C 3384.99 0.449168 -1.9643 0
M  V30 34949 O 3384.04 1.19011 -2.22694 0
M  V30 34950 C 3385.36 -2.04572 -2.20388 0
M  V30 34951 C 3386.9 -2.08076 -2.33823 0
M  V30 34952 C 3387.38 -3.21841 -3.25856 0
M  V30 34953 N 3388.87 -3.21517 -3.33438 0
M  V30 34954 C 3389.6 -4.06185 -4.04724 0
M  V30 34955 N 3389.1 -5.00925 -4.78587 0
M  V30 34956 N 3390.89 -3.94193 -4.0071 0
M  V30 34957 H 3383.04 -2.0275 -0.632953 0
M  V30 34958 H 3385.31 -0.884326 -0.341571 0
M  V30 34959 H 3385.01 -3.0209 -1.80096 0
M  V30 34960 H 3384.89 -1.98185 -3.2094 0
M  V30 34961 H 3387.27 -1.11155 -2.73365 0
M  V30 34962 H 3387.36 -2.18529 -1.32961 0
M  V30 34963 H 3387 -4.19017 -2.87032 0
M  V30 34964 H 3386.93 -3.08624 -4.26683 0
M  V30 34965 H 3389.42 -2.5291 -2.80794 0
M  V30 34966 H 3389.73 -5.61962 -5.30489 0
M  V30 34967 H 3388.08 -5.0491 -4.77589 0
M  V30 34968 H 3391.27 -3.19486 -3.42121 0
M  V30 34969 H 3391.44 -4.604 -4.56 0
M  V30 34970 N 3384.85 1.25343 -0.955348 0
M  V30 34971 C 3386.26 1.74977 -0.651148 0
M  V30 34972 C 3386.61 1.77617 0.833464 0
M  V30 34973 O 3385.74 1.39748 1.65225 0
M  V30 34974 C 3386.33 3.17762 -1.17527 0
M  V30 34975 C 3384.89 3.64953 -0.921215 0
M  V30 34976 C 3384.04 2.43982 -1.31789 0
M  V30 34977 H 3386.99 1.1122 -1.13207 0
M  V30 34978 H 3387.01 3.7671 -0.535691 0
M  V30 34979 H 3386.52 3.15809 -2.2558 0
M  V30 34980 H 3384.62 3.7232 0.144326 0
M  V30 34981 H 3384.73 4.53054 -1.55818 0
M  V30 34982 H 3383.1 2.43826 -0.736262 0
M  V30 34983 H 3383.88 2.44718 -2.40765 0
M  V30 34984 N 3386.33 0.724003 1.39986 0
M  V30 34985 C 3387.6 0.193935 1.94636 0
M  V30 34986 C 3387.98 -1.30209 1.66159 0
M  V30 34987 O 3387.33 -2.06236 0.983819 0
M  V30 34988 C 3387.54 0.515712 3.45169 0
M  V30 34989 C 3388.89 0.458993 4.22112 0
M  V30 34990 O 3389.91 0.45226 3.53317 0
M  V30 34991 O 3388.77 0.443879 5.44694 0
M  V30 34992 H 3385.87 0.031676 0.826393 0
M  V30 34993 H 3388.41 0.802111 1.49547 0
M  V30 34994 H 3387.19 1.55011 3.59287 0
M  V30 34995 H 3386.81 -0.121998 3.97413 0
M  V30 34996 N 3387.81 -1.50403 0.470808 0
M  V30 34997 C 3389.04 -2.06438 -0.0818582 0
M  V30 34998 C 3389.44 -1.33485 -1.34083 0
M  V30 34999 O 3388.79 -0.397596 -1.79346 0
M  V30 35000 C 3388.85 -3.56844 -0.43619 0
M  V30 35001 C 3388.51 -4.51281 0.72072 0
M  V30 35002 C 3389.51 -4.94581 1.60267 0
M  V30 35003 C 3387.19 -4.9397 0.910965 0
M  V30 35004 C 3389.19 -5.79277 2.65927 0
M  V30 35005 C 3386.88 -5.78449 1.97079 0
M  V30 35006 C 3387.87 -6.21003 2.8433 0
M  V30 35007 O 3387.56 -7.03798 3.88488 0
M  V30 35008 H 3387.29 -0.67599 0.00362876 0
M  V30 35009 H 3389.85 -1.94558 0.658522 0
M  V30 35010 H 3388.08 -3.66625 -1.22975 0
M  V30 35011 H 3389.77 -3.95245 -0.923906 0
M  V30 35012 H 3390.53 -4.6227 1.46737 0
M  V30 35013 H 3386.41 -4.60368 0.241306 0
M  V30 35014 H 3389.96 -6.12413 3.3406 0
M  V30 35015 H 3385.85 -6.10173 2.10615 0
M  V30 35016 H 3386.62 -7.22048 3.85473 0
M  V30 35017 N 3389.28 -0.203404 -1.56282 0
M  V30 35018 C 3390.23 0.730745 -2.20823 0
M  V30 35019 C 3391.23 1.21352 -1.18195 0
M  V30 35020 O 3392.43 1.17545 -1.3632 0
M  V30 35021 H 3388.81 0.254024 -0.707797 0
M  V30 35022 H 3390.78 0.162773 -2.97956 0
M  V30 35023 C 3389.53 1.93613 -2.88807 0
M  V30 35024 H 3388.85 1.57373 -3.67524 0
M  V30 35025 H 3390.29 2.56793 -3.37392 0
M  V30 35026 C 3388.75 2.78014 -1.90289 0
M  V30 35027 O 3389.28 3.76201 -1.40839 0
M  V30 35028 N 3387.48 2.43676 -1.58336 0
M  V30 35029 H 3387.03 1.63888 -1.98743 0
M  V30 35030 H 3386.99 3.0043 -0.926774 0
M  V30 35031 N 3390.76 1.57444 0.0701393 0
M  V30 35032 C 3392.17 1.76042 0.621774 0
M  V30 35033 C 3392.52 0.829079 1.77822 0
M  V30 35034 O 3391.65 0.0135833 2.16396 0
M  V30 35035 C 3392.24 3.19233 1.13471 0
M  V30 35036 C 3390.8 3.3917 1.63219 0
M  V30 35037 C 3389.95 2.71744 0.552321 0
M  V30 35038 H 3392.9 1.57931 -0.156036 0
M  V30 35039 H 3392.92 3.23483 2.00346 0
M  V30 35040 H 3392.43 3.86994 0.292812 0
M  V30 35041 H 3390.53 2.76526 2.49728 0
M  V30 35042 H 3390.65 4.47621 1.70799 0
M  V30 35043 H 3389.01 2.34344 0.997756 0
M  V30 35044 H 3389.79 3.42161 -0.279414 0
M  V30 35045 N 3392.24 -0.341566 1.53854 0
M  V30 35046 C 3393.49 -1.08319 1.71449 0
M  V30 35047 C 3393.82 -1.88243 0.477322 0
M  V30 35048 O 3393.09 -1.87262 -0.525662 0
M  V30 35049 C 3393.38 -2.02275 2.97921 0
M  V30 35050 C 3393.23 -1.25801 4.3185 0
M  V30 35051 C 3394.55 -3.02064 3.20071 0
M  V30 35052 H 3391.67 -0.392397 0.623854 0
M  V30 35053 H 3394.31 -0.361561 1.86528 0
M  V30 35054 H 3392.46 -2.6381 2.85196 0
M  V30 35055 H 3394.13 -0.668657 4.56428 0
M  V30 35056 H 3392.37 -0.560043 4.3017 0
M  V30 35057 H 3393.05 -1.94695 5.16525 0
M  V30 35058 H 3395.52 -2.50645 3.32139 0
M  V30 35059 H 3394.4 -3.65006 4.09954 0
M  V30 35060 H 3394.66 -3.7355 2.36458 0
M  V30 35061 N 3393.72 -1.45621 -0.602683 0
M  V30 35062 C 3394.65 -1.57513 -1.72371 0
M  V30 35063 C 3395.63 -0.426418 -1.64668 0
M  V30 35064 O 3396.81 -0.650176 -1.82993 0
M  V30 35065 C 3393.94 -1.54615 -3.10984 0
M  V30 35066 C 3392.9 -2.68254 -3.33502 0
M  V30 35067 C 3392.22 -2.50411 -4.72439 0
M  V30 35068 C 3393.52 -4.1023 -3.23278 0
M  V30 35069 H 3395.22 -2.51351 -1.62675 0
M  V30 35070 H 3392.76 -1.20968 -0.781196 0
M  V30 35071 H 3394.72 -1.61532 -3.89211 0
M  V30 35072 H 3393.44 -0.573106 -3.21532 0
M  V30 35073 H 3392.1 -2.60774 -2.57668 0
M  V30 35074 H 3391.75 -1.51234 -4.79726 0
M  V30 35075 H 3391.45 -3.2662 -4.8846 0
M  V30 35076 H 3392.97 -2.59189 -5.52859 0
M  V30 35077 H 3394.39 -4.18927 -3.91373 0
M  V30 35078 H 3392.78 -4.86867 -3.50828 0
M  V30 35079 H 3393.85 -4.31792 -2.20644 0
M  V30 35080 N 3395.2 0.845612 -1.32993 0
M  V30 35081 C 3396.44 1.59533 -1.23418 0
M  V30 35082 C 3396.76 1.94572 0.200244 0
M  V30 35083 O 3397.96 2.68264 0.417946 0
M  V30 35084 C 3396.42 2.87716 -2.16212 0
M  V30 35085 C 3396.03 2.60067 -3.64787 0
M  V30 35086 C 3397.77 3.65736 -2.15494 0
M  V30 35087 C 3395.68 3.84305 -4.49515 0
M  V30 35088 H 3394.61 0.598671 -0.458376 0
M  V30 35089 H 3397.26 0.932953 -1.58013 0
M  V30 35090 H 3395.64 3.55459 -1.74541 0
M  V30 35091 H 3396.82 2.00577 -4.14856 0
M  V30 35092 H 3395.13 1.95362 -3.67726 0
M  V30 35093 H 3397.73 4.57943 -2.76029 0
M  V30 35094 H 3398.07 4.00151 -1.14825 0
M  V30 35095 H 3398.6 3.04908 -2.55492 0
M  V30 35096 H 3395.34 3.55025 -5.51033 0
M  V30 35097 H 3394.86 4.43157 -4.04192 0
M  V30 35098 H 3396.54 4.51953 -4.62977 0
M  V30 35099 N 3396.67 1.16351 1.06302 0
M  V30 35100 C 3397.58 0.884327 2.17294 0
M  V30 35101 C 3398.6 -0.143383 1.73408 0
M  V30 35102 O 3399.78 0.0332341 2.01373 0
M  V30 35103 C 3396.84 0.389223 3.44508 0
M  V30 35104 C 3395.9 1.48215 4.02903 0
M  V30 35105 C 3395.13 1.01057 5.24045 0
M  V30 35106 O 3395.36 -0.139721 5.70229 0
M  V30 35107 O 3394.29 1.79886 5.74391 0
M  V30 35108 H 3398.12 1.81247 2.43687 0
M  V30 35109 H 3395.7 0.94348 1.1584 0
M  V30 35110 H 3397.58 0.120092 4.21229 0
M  V30 35111 H 3396.26 -0.510912 3.19643 0
M  V30 35112 H 3395.17 1.80502 3.27673 0
M  V30 35113 H 3396.5 2.35758 4.32064 0
M  V30 35114 N 3398.15 -1.24835 0.961982 0
M  V30 35115 C 3399.38 -1.96812 0.638174 0
M  V30 35116 C 3399.79 -1.7142 -0.791239 0
M  V30 35117 O 3399.15 -0.994573 -1.53018 0
M  V30 35118 C 3399.2 -3.50212 0.896322 0
M  V30 35119 O 3398.92 -3.74731 2.26954 0
M  V30 35120 C 3400.42 -4.39411 0.585913 0
M  V30 35121 H 3397.64 -0.627142 0.238609 0
M  V30 35122 H 3400.19 -1.58813 1.28836 0
M  V30 35123 H 3398.34 -3.86295 0.292436 0
M  V30 35124 H 3398.76 -4.69148 2.34522 0
M  V30 35125 H 3400.23 -5.4592 0.817031 0
M  V30 35126 H 3400.71 -4.36572 -0.479708 0
M  V30 35127 H 3401.31 -4.08906 1.16945 0
M  V30 35128 N 3399.63 -0.731417 -1.396 0
M  V30 35129 C 3400.88 -0.287083 -2.01364 0
M  V30 35130 C 3401.23 1.11224 -1.56993 0
M  V30 35131 O 3400.52 1.7468 -0.787232 0
M  V30 35132 C 3400.72 -0.323415 -3.55934 0
M  V30 35133 C 3400.55 -1.72473 -4.15311 0
M  V30 35134 C 3399.32 -2.33613 -4.48055 0
M  V30 35135 C 3401.51 -2.67772 -4.39093 0
M  V30 35136 N 3399.5 -3.65936 -4.92914 0
M  V30 35137 C 3400.87 -3.84824 -4.86118 0
M  V30 35138 C 3402.92 -2.6558 -4.21155 0
M  V30 35139 C 3401.63 -5.00014 -5.17086 0
M  V30 35140 C 3403.65 -3.7991 -4.53235 0
M  V30 35141 C 3403.01 -4.95698 -5.00463 0
M  V30 35142 H 3399.11 -0.15123 -0.767238 0
M  V30 35143 H 3401.7 -0.956618 -1.69579 0
M  V30 35144 H 3399.87 0.315751 -3.87114 0
M  V30 35145 H 3401.6 0.139129 -4.04461 0
M  V30 35146 H 3398.35 -1.85569 -4.35731 0
M  V30 35147 H 3398.78 -4.33861 -5.19706 0
M  V30 35148 H 3403.42 -1.77257 -3.83849 0
M  V30 35149 H 3401.14 -5.88969 -5.533 0
M  V30 35150 H 3404.72 -3.79508 -4.40982 0
M  V30 35151 H 3403.6 -5.82699 -5.24816 0
M  V30 35152 N 3401.11 1.50152 -0.478778 0
M  V30 35153 C 3402.06 2.2869 0.311386 0
M  V30 35154 C 3403.03 1.34083 0.980352 0
M  V30 35155 O 3404.21 1.63027 0.991309 0
M  V30 35156 C 3401.35 3.16177 1.38297 0
M  V30 35157 C 3400.46 4.25822 0.728009 0
M  V30 35158 C 3399.6 5.00555 1.77814 0
M  V30 35159 C 3398.64 6.02065 1.10384 0
M  V30 35160 N 3397.77 6.70047 2.09716 0
M  V30 35161 H 3402.61 2.95761 -0.364644 0
M  V30 35162 H 3400.15 1.45846 -0.191671 0
M  V30 35163 H 3402.11 3.65258 2.01599 0
M  V30 35164 H 3400.74 2.51137 2.02806 0
M  V30 35165 H 3399.79 3.80396 -0.0177695 0
M  V30 35166 H 3401.1 4.98414 0.196121 0
M  V30 35167 H 3400.26 5.53393 2.48678 0
M  V30 35168 H 3399 4.27686 2.34384 0
M  V30 35169 H 3398 5.48479 0.380864 0
M  V30 35170 H 3399.23 6.7691 0.544926 0
M  V30 35171 H 3397.17 5.99964 2.6529 0
M  V30 35172 H 3397.09 7.38541 1.61533 0
M  V30 35173 H 3398.36 7.275 2.79937 0
M  V30 35174 N 3402.59 0.211689 1.56172 0
M  V30 35175 C 3404 -0.143879 1.5895 0
M  V30 35176 C 3404.2 -1.59735 1.22829 0
M  V30 35177 O 3403.26 -2.33585 0.958864 0
M  V30 35178 C 3404.57 0.173491 3.00199 0
M  V30 35179 C 3406.12 0.114932 3.12789 0
M  V30 35180 C 3406.59 0.405839 4.56198 0
M  V30 35181 N 3408.09 0.355054 4.61837 0
M  V30 35182 C 3408.82 0.553772 5.7072 0
M  V30 35183 N 3408.32 0.813734 6.88005 0
M  V30 35184 N 3410.11 0.486885 5.59987 0
M  V30 35185 H 3402.26 1.15996 1.77929 0
M  V30 35186 H 3404.52 0.464221 0.826561 0
M  V30 35187 H 3404.23 1.18191 3.31246 0
M  V30 35188 H 3404.1 -0.516167 3.73652 0
M  V30 35189 H 3406.49 -0.884117 2.81545 0
M  V30 35190 H 3406.57 0.837917 2.41687 0
M  V30 35191 H 3406.22 1.40228 4.88158 0
M  V30 35192 H 3406.15 -0.338225 5.25513 0
M  V30 35193 H 3408.64 0.161419 3.77555 0
M  V30 35194 H 3408.95 0.953729 7.66892 0
M  V30 35195 H 3407.29 0.850817 6.89772 0
M  V30 35196 H 3410.49 0.284091 4.67237 0
M  V30 35197 H 3410.66 0.645164 6.4478 0
M  V30 35198 N 3404.06 -1.57479 -0.0617887 0
M  V30 35199 C 3405.48 -1.76369 -0.61243 0
M  V30 35200 C 3405.83 -0.838497 -1.7738 0
M  V30 35201 O 3404.95 -0.0250591 -2.16385 0
M  V30 35202 C 3405.55 -3.19831 -1.11776 0
M  V30 35203 C 3404.11 -3.40031 -1.61418 0
M  V30 35204 C 3403.25 -2.72033 -0.537902 0
M  V30 35205 H 3406.2 -1.57846 0.16441 0
M  V30 35206 H 3406.22 -3.24541 -1.98628 0
M  V30 35207 H 3405.74 -3.87144 -0.272285 0
M  V30 35208 H 3403.84 -2.77847 -2.48258 0
M  V30 35209 H 3403.95 -4.4852 -1.68423 0
M  V30 35210 H 3402.31 -2.34869 -0.985314 0
M  V30 35211 H 3403.1 -3.42008 0.297555 0
M  V30 35212 N 3405.54 0.333401 -1.54033 0
M  V30 35213 C 3406.79 1.07037 -1.71428 0
M  V30 35214 C 3407.11 1.88859 -0.485529 0
M  V30 35215 O 3406.38 1.89398 0.500522 0
M  V30 35216 H 3404.96 0.398162 -0.632041 0
M  V30 35217 H 3407.62 0.372219 -1.91313 0
M  V30 35218 H 3406.72 1.742 -2.58961 0
M  V30 35219 N 3407.02 1.45939 0.594952 0
M  V30 35220 C 3408.25 1.53939 1.37791 0
M  V30 35221 C 3408.66 0.175124 1.88388 0
M  V30 35222 O 3408 -0.835728 1.63589 0
M  V30 35223 C 3408.06 2.47326 2.60902 0
M  V30 35224 C 3407.73 3.93816 2.31858 0
M  V30 35225 C 3408.72 4.83369 1.91442 0
M  V30 35226 C 3406.41 4.38844 2.4438 0
M  V30 35227 C 3408.4 6.1596 1.63927 0
M  V30 35228 C 3406.09 5.71472 2.16477 0
M  V30 35229 C 3407.09 6.5985 1.76314 0
M  V30 35230 O 3406.78 7.90019 1.48746 0
M  V30 35231 H 3406.51 0.523463 0.427741 0
M  V30 35232 H 3409.06 1.91935 0.731453 0
M  V30 35233 H 3407.29 2.04325 3.28311 0
M  V30 35234 H 3408.98 2.45869 3.2296 0
M  V30 35235 H 3409.75 4.49842 1.81293 0
M  V30 35236 H 3405.63 3.70288 2.74605 0
M  V30 35237 H 3409.17 6.849 1.32504 0
M  V30 35238 H 3405.07 6.04552 2.26247 0
M  V30 35239 H 3405.84 8.02168 1.62694 0
M  V30 35240 N 3408.5 -0.838547 1.3344 0
M  V30 35241 C 3409.41 -1.98046 1.25757 0
M  V30 35242 C 3410.42 -1.73186 0.168081 0
M  V30 35243 O 3411.6 -1.97554 0.391726 0
M  V30 35244 C 3408.67 -3.32049 0.997206 0
M  V30 35245 C 3407.73 -3.70023 2.17673 0
M  V30 35246 C 3406.96 -4.97631 1.92869 0
M  V30 35247 O 3407.18 -5.63584 0.879171 0
M  V30 35248 O 3406.12 -5.33116 2.79412 0
M  V30 35249 H 3409.94 -2.07468 2.2179 0
M  V30 35250 H 3407.53 -0.971625 1.13489 0
M  V30 35251 H 3409.41 -4.12339 0.869172 0
M  V30 35252 H 3408.08 -3.2363 0.0671605 0
M  V30 35253 H 3406.99 -2.90242 2.3603 0
M  V30 35254 H 3408.32 -3.83108 3.09013 0
M  V30 35255 N 3409.98 -1.16914 -1.05683 0
M  V30 35256 C 3411.39 -0.961182 -1.60057 0
M  V30 35257 C 3411.74 0.493376 -1.89895 0
M  V30 35258 O 3410.86 1.36775 -1.67695 0
M  V30 35259 C 3411.46 -1.73842 -2.908 0
M  V30 35260 C 3410.02 -1.57528 -3.41851 0
M  V30 35261 C 3409.16 -1.74322 -2.15655 0
M  V30 35262 H 3412.12 -1.31694 -0.885568 0
M  V30 35263 H 3412.14 -1.21787 -3.60483 0
M  V30 35264 H 3411.65 -2.79702 -2.69051 0
M  V30 35265 H 3409.75 -0.541349 -3.68646 0
M  V30 35266 H 3409.86 -2.36309 -4.16767 0
M  V30 35267 H 3408.23 -1.17119 -2.26175 0
M  V30 35268 H 3409.01 -2.81584 -1.96381 0
M  V30 35269 N 3411.45 1.24323 -0.968589 0
M  V30 35270 C 3412.87 1.74277 -0.66967 0
M  V30 35271 C 3413.22 1.78491 0.814579 0
M  V30 35272 O 3412.34 1.41493 1.63734 0
M  V30 35273 C 3412.94 3.16498 -1.20891 0
M  V30 35274 C 3411.5 3.63955 -0.959872 0
M  V30 35275 C 3410.64 2.4257 -1.34369 0
M  V30 35276 H 3413.59 1.10013 -1.14381 0
M  V30 35277 H 3413.61 3.76121 -0.575616 0
M  V30 35278 H 3413.13 3.13398 -2.28917 0
M  V30 35279 H 3411.23 3.72453 0.104829 0
M  V30 35280 H 3411.34 4.51375 -1.60614 0
M  V30 35281 H 3409.7 2.43032 -0.762081 0
M  V30 35282 H 3410.49 2.42151 -2.43347 0
M  V30 35283 N 3412.93 0.73881 1.3921 0
M  V30 35284 C 3414.16 0.298787 2.04731 0
M  V30 35285 C 3414.58 -1.06773 1.55708 0
M  V30 35286 O 3413.93 -1.6754 0.723635 0
M  V30 35287 C 3413.98 0.295803 3.60288 0
M  V30 35288 O 3413.7 1.60838 4.07508 0
M  V30 35289 C 3415.21 -0.159916 4.43011 0
M  V30 35290 H 3412.43 0.129964 0.658294 0
M  V30 35291 H 3414.97 1.00353 1.78184 0
M  V30 35292 H 3413.12 -0.360078 3.85723 0
M  V30 35293 H 3413.54 1.52452 5.01855 0
M  V30 35294 H 3415.01 -0.110844 5.51889 0
M  V30 35295 H 3415.49 -1.20566 4.22328 0
M  V30 35296 H 3416.1 0.466541 4.22733 0
M  V30 35297 N 3414.41 -1.49895 0.486734 0
M  V30 35298 C 3415.66 -2.02702 -0.0629095 0
M  V30 35299 C 3415.99 -1.36683 -1.37954 0
M  V30 35300 O 3415.26 -0.497711 -1.88024 0
M  V30 35301 C 3415.55 -3.59362 -0.230398 0
M  V30 35302 C 3415.4 -4.35931 1.10835 0
M  V30 35303 C 3416.72 -4.29102 -0.97771 0
M  V30 35304 H 3413.84 -0.73669 -0.0213887 0
M  V30 35305 H 3416.48 -1.79062 0.635371 0
M  V30 35306 H 3414.63 -3.79636 -0.825155 0
M  V30 35307 H 3416.3 -4.27189 1.74089 0
M  V30 35308 H 3414.55 -3.99052 1.70117 0
M  V30 35309 H 3415.22 -5.43857 0.944627 0
M  V30 35310 H 3417.69 -4.13398 -0.473432 0
M  V30 35311 H 3416.57 -5.38494 -1.06372 0
M  V30 35312 H 3416.83 -3.93353 -2.01806 0
M  V30 35313 N 3415.89 -0.219968 -1.56057 0
M  V30 35314 C 3416.82 0.685508 -2.23211 0
M  V30 35315 C 3417.8 1.20227 -1.2033 0
M  V30 35316 O 3418.99 1.24656 -1.48911 0
M  V30 35317 C 3416.12 1.89447 -2.91079 0
M  V30 35318 C 3415.07 1.51161 -4.00418 0
M  V30 35319 C 3414.4 2.79922 -4.55574 0
M  V30 35320 C 3415.7 0.702805 -5.1755 0
M  V30 35321 H 3417.39 0.125619 -2.99136 0
M  V30 35322 H 3414.94 0.058979 -1.43879 0
M  V30 35323 H 3416.89 2.53335 -3.36748 0
M  V30 35324 H 3415.61 2.4793 -2.12598 0
M  V30 35325 H 3414.27 0.896213 -3.55477 0
M  V30 35326 H 3413.92 3.36547 -3.73825 0
M  V30 35327 H 3413.62 2.5504 -5.29366 0
M  V30 35328 H 3415.14 3.44755 -5.03961 0
M  V30 35329 H 3416.56 1.24534 -5.59611 0
M  V30 35330 H 3414.95 0.551129 -5.97564 0
M  V30 35331 H 3416.02 -0.290915 -4.84027 0
M  V30 35332 N 3417.37 1.57509 0.0534363 0
M  V30 35333 C 3418.62 1.87765 0.747589 0
M  V30 35334 C 3418.94 0.814464 1.77176 0
M  V30 35335 O 3418.21 -0.154828 1.95287 0
M  V30 35336 H 3416.79 0.692902 0.279097 0
M  V30 35337 H 3419.45 1.94884 0.0251663 0
M  V30 35338 H 3418.54 2.8587 1.25239 0
M  V30 35339 N 3418.85 -0.325228 1.54208 0
M  V30 35340 C 3420.09 -1.07161 1.74057 0
M  V30 35341 C 3420.45 -1.85301 0.502754 0
M  V30 35342 O 3421.65 -2.625 0.578571 0
M  V30 35343 C 3419.92 -1.97313 2.97997 0
M  V30 35344 S 3421.48 -2.78925 3.38742 0
M  V30 35345 H 3418.3 -0.361797 0.612065 0
M  V30 35346 H 3420.9 -0.347803 1.92381 0
M  V30 35347 H 3419.6 -1.3874 3.86237 0
M  V30 35348 H 3419.14 -2.74101 2.82191 0
M  V30 35349 H 3421.15 -3.99788 2.93911 0
M  V30 35350 N 3420.32 -1.46252 -0.587204 0
M  V30 35351 C 3421.29 -1.56063 -1.6786 0
M  V30 35352 C 3422.29 -0.438189 -1.54714 0
M  V30 35353 O 3423.48 -0.702351 -1.59414 0
M  V30 35354 C 3420.61 -1.47664 -3.07259 0
M  V30 35355 H 3421.8 -2.53324 -1.60521 0
M  V30 35356 H 3419.35 -1.33996 -0.804667 0
M  V30 35357 H 3420.09 -0.516657 -3.20158 0
M  V30 35358 H 3419.87 -2.29097 -3.18209 0
M  V30 35359 H 3421.36 -1.57606 -3.86717 0
M  V30 35360 N 3421.8 0.831459 -1.33883 0
M  V30 35361 C 3422.73 1.9569 -1.27387 0
M  V30 35362 C 3423.71 1.69411 -0.152972 0
M  V30 35363 O 3424.9 1.9113 -0.343954 0
M  V30 35364 C 3422.03 3.31988 -1.01988 0
M  V30 35365 C 3420.98 3.72685 -2.10452 0
M  V30 35366 C 3420.31 5.0687 -1.70254 0
M  V30 35367 C 3421.61 3.85684 -3.52201 0
M  V30 35368 H 3423.3 2.01382 -2.21552 0
M  V30 35369 H 3420.85 0.967507 -1.06655 0
M  V30 35370 H 3422.8 4.10298 -0.960913 0
M  V30 35371 H 3421.52 3.26572 -0.0426283 0
M  V30 35372 H 3420.18 2.96643 -2.15403 0
M  V30 35373 H 3419.83 4.97934 -0.712124 0
M  V30 35374 H 3419.53 5.35071 -2.42843 0
M  V30 35375 H 3421.06 5.87648 -1.65837 0
M  V30 35376 H 3422.47 4.54287 -3.49709 0
M  V30 35377 H 3420.87 4.25329 -4.23338 0
M  V30 35378 H 3421.94 2.87922 -3.90165 0
M  V30 35379 N 3423.28 1.17472 1.05062 0
M  V30 35380 C 3424.69 0.969656 1.59545 0
M  V30 35381 C 3425.04 -0.483298 1.90154 0
M  V30 35382 O 3424.17 -1.35884 1.68418 0
M  V30 35383 C 3424.76 1.75382 2.89874 0
M  V30 35384 C 3423.32 1.59338 3.41011 0
M  V30 35385 C 3422.47 1.75464 2.14727 0
M  V30 35386 H 3425.42 1.32162 0.878572 0
M  V30 35387 H 3425.44 1.23697 3.59832 0
M  V30 35388 H 3424.95 2.81125 2.67564 0
M  V30 35389 H 3423.05 0.560891 3.68354 0
M  V30 35390 H 3423.17 2.38516 4.15508 0
M  V30 35391 H 3421.53 1.18317 2.25551 0
M  V30 35392 H 3422.31 2.82621 1.94885 0
M  V30 35393 N 3424.76 -1.23807 0.975168 0
M  V30 35394 C 3426.17 -1.73919 0.678903 0
M  V30 35395 C 3426.52 -1.78921 -0.805101 0
M  V30 35396 O 3425.64 -1.42359 -1.62981 0
M  V30 35397 C 3426.24 -3.15852 1.22567 0
M  V30 35398 C 3424.8 -3.63441 0.97916 0
M  V30 35399 C 3423.95 -2.41854 1.35653 0
M  V30 35400 H 3426.9 -1.09404 1.14962 0
M  V30 35401 H 3426.92 -3.7581 0.595555 0
M  V30 35402 H 3426.43 -3.1218 2.30576 0
M  V30 35403 H 3424.53 -3.72503 -0.0850752 0
M  V30 35404 H 3424.64 -4.50517 1.63006 0
M  V30 35405 H 3423.01 -2.42624 0.774959 0
M  V30 35406 H 3423.79 -2.40857 2.44628 0
M  V30 35407 N 3426.24 -0.746182 -1.38816 0
M  V30 35408 C 3427.46 -0.309641 -2.0457 0
M  V30 35409 C 3427.88 1.05946 -1.56272 0
M  V30 35410 O 3427.24 1.67154 -0.73251 0
M  V30 35411 C 3427.29 -0.314906 -3.60126 0
M  V30 35412 O 3427.01 -1.62997 -4.06649 0
M  V30 35413 C 3428.51 0.13642 -4.4309 0
M  V30 35414 H 3425.73 -0.133453 -0.657595 0
M  V30 35415 H 3428.27 -1.01296 -1.77649 0
M  V30 35416 H 3426.43 0.339617 -3.85908 0
M  V30 35417 H 3426.84 -1.55111 -5.0104 0
M  V30 35418 H 3428.32 0.0815744 -5.5194 0
M  V30 35419 H 3428.79 1.18324 -4.22961 0
M  V30 35420 H 3429.4 -0.488953 -4.2248 0
M  V30 35421 N 3427.71 1.49635 -0.494676 0
M  V30 35422 C 3429.12 1.86645 -0.0453222 0
M  V30 35423 C 3429.48 1.40755 1.36683 0
M  V30 35424 O 3428.6 0.782685 2.0175 0
M  V30 35425 C 3429.2 3.38716 -0.075471 0
M  V30 35426 C 3427.75 3.7505 0.318513 0
M  V30 35427 C 3426.9 2.73612 -0.45076 0
M  V30 35428 H 3429.85 1.42043 -0.707783 0
M  V30 35429 H 3429.87 3.73601 0.721306 0
M  V30 35430 H 3429.39 3.72085 -1.10337 0
M  V30 35431 H 3427.49 3.47288 1.34989 0
M  V30 35432 H 3427.6 4.791 0.00345995 0
M  V30 35433 H 3425.96 2.54509 0.0986007 0
M  V30 35434 H 3426.75 3.09825 -1.47862 0
M  V30 35435 N 3429.19 0.228241 1.55939 0
M  V30 35436 C 3430.12 -0.71155 2.17875 0
M  V30 35437 C 3431.14 -1.15263 1.14971 0
M  V30 35438 O 3432.33 -1.08262 1.41921 0
M  V30 35439 C 3429.43 -1.97647 2.75297 0
M  V30 35440 C 3428.6 -1.68987 4.03438 0
M  V30 35441 C 3427.66 -2.80252 4.45359 0
M  V30 35442 O 3426.68 -2.48436 5.12121 0
M  V30 35443 N 3427.89 -4.09352 4.11596 0
M  V30 35444 H 3430.65 -0.181704 2.99149 0
M  V30 35445 H 3428.21 0.0474852 1.6183 0
M  V30 35446 H 3430.2 -2.71286 3.0031 0
M  V30 35447 H 3428.77 -2.41661 1.98289 0
M  V30 35448 H 3427.99 -0.789589 3.86211 0
M  V30 35449 H 3429.28 -1.47279 4.87018 0
M  V30 35450 H 3428.68 -4.38042 3.5796 0
M  V30 35451 H 3427.24 -4.79514 4.41485 0
M  V30 35452 N 3430.67 -1.57536 -0.0450825 0
M  V30 35453 C 3431.9 -1.92778 -0.751286 0
M  V30 35454 C 3432.31 -0.826628 -1.69742 0
M  V30 35455 O 3431.67 0.198192 -1.81421 0
M  V30 35456 C 3431.72 -3.27893 -1.52212 0
M  V30 35457 O 3431.44 -4.33776 -0.613982 0
M  V30 35458 C 3432.94 -3.77318 -2.32693 0
M  V30 35459 H 3430.16 -0.636596 -0.212099 0
M  V30 35460 H 3432.71 -2.04499 -0.00738146 0
M  V30 35461 H 3430.86 -3.17618 -2.21805 0
M  V30 35462 H 3431.28 -5.11673 -1.15285 0
M  V30 35463 H 3432.75 -4.74415 -2.82196 0
M  V30 35464 H 3433.23 -3.07687 -3.13409 0
M  V30 35465 H 3433.83 -3.90624 -1.68205 0
M  V30 35466 N 3432.15 0.317045 -1.54378 0
M  V30 35467 C 3433.56 0.891076 -1.64063 0
M  V30 35468 C 3433.91 1.88654 -0.538896 0
M  V30 35469 O 3433.04 2.13913 0.327143 0
M  V30 35470 C 3433.63 1.62297 -2.97398 0
M  V30 35471 C 3432.19 2.14563 -3.09257 0
M  V30 35472 C 3431.34 0.973101 -2.59665 0
M  V30 35473 H 3434.29 0.0944551 -1.58419 0
M  V30 35474 H 3434.31 2.48759 -2.87923 0
M  V30 35475 H 3433.82 0.898202 -3.77563 0
M  V30 35476 H 3431.92 2.90135 -2.33779 0
M  V30 35477 H 3432.03 2.39116 -4.15163 0
M  V30 35478 H 3430.4 1.35412 -2.15721 0
M  V30 35479 H 3431.18 0.262551 -3.42295 0
M  V30 35480 N 3433.63 1.46561 0.57944 0
M  V30 35481 C 3434.87 1.52266 1.33951 0
M  V30 35482 C 3435.21 0.175123 1.93409 0
M  V30 35483 O 3434.48 -0.813819 1.76656 0
M  V30 35484 C 3434.76 2.62375 2.4664 0
M  V30 35485 C 3434.62 4.0667 1.92197 0
M  V30 35486 C 3435.94 2.68544 3.48672 0
M  V30 35487 H 3433.05 0.554325 0.485688 0
M  V30 35488 H 3435.7 1.78514 0.650608 0
M  V30 35489 H 3433.85 2.40125 3.05405 0
M  V30 35490 H 3435.52 4.40217 1.37864 0
M  V30 35491 H 3433.76 4.15995 1.23005 0
M  V30 35492 H 3434.43 4.79448 2.73557 0
M  V30 35493 H 3436.91 2.88554 2.99792 0
M  V30 35494 H 3435.78 3.47401 4.24975 0
M  V30 35495 H 3436.05 1.74724 4.06108 0
M  V30 35496 N 3435.1 -0.824347 1.34322 0
M  V30 35497 C 3436.52 -1.39701 1.23857 0
M  V30 35498 C 3436.87 -1.95724 -0.136532 0
M  V30 35499 O 3435.99 -1.89946 -1.0368 0
M  V30 35500 C 3436.59 -2.53961 2.24253 0
M  V30 35501 C 3435.15 -3.07139 2.17584 0
M  V30 35502 C 3434.29 -1.80004 2.10936 0
M  V30 35503 H 3437.24 -0.628866 1.45709 0
M  V30 35504 H 3437.26 -3.32013 1.8587 0
M  V30 35505 H 3436.78 -2.13156 3.24324 0
M  V30 35506 H 3434.88 -3.52452 1.20864 0
M  V30 35507 H 3434.99 -3.66326 3.08775 0
M  V30 35508 H 3433.35 -2.00843 1.56634 0
M  V30 35509 H 3434.14 -1.41375 3.12839 0
M  V30 35510 N 3436.58 -1.18028 -1.04437 0
M  V30 35511 C 3437.99 -0.978104 -1.59028 0
M  V30 35512 C 3438.34 0.473207 -1.90408 0
M  V30 35513 O 3437.47 1.34989 -1.69136 0
M  V30 35514 C 3438.06 -1.76917 -2.88939 0
M  V30 35515 C 3436.62 -1.61145 -3.40161 0
M  V30 35516 C 3435.77 -1.766 -2.13794 0
M  V30 35517 H 3438.72 -1.32626 -0.871551 0
M  V30 35518 H 3438.74 -1.25604 -3.59171 0
M  V30 35519 H 3438.25 -2.8254 -2.66069 0
M  V30 35520 H 3436.36 -0.580418 -3.68052 0
M  V30 35521 H 3436.47 -2.40716 -4.14237 0
M  V30 35522 H 3434.83 -1.19511 -2.2492 0
M  V30 35523 H 3435.62 -2.83651 -1.93384 0
M  V30 35524 N 3438.06 1.23288 -0.98172 0
M  V30 35525 C 3439.47 1.73556 -0.688117 0
M  V30 35526 C 3439.82 1.79345 0.795601 0
M  V30 35527 O 3438.95 1.43221 1.62224 0
M  V30 35528 C 3439.54 3.15198 -1.24241 0
M  V30 35529 C 3438.1 3.62917 -0.99842 0
M  V30 35530 C 3437.25 2.41131 -1.36934 0
M  V30 35531 H 3440.2 1.08793 -1.15541 0
M  V30 35532 H 3440.22 3.75489 -0.615476 0
M  V30 35533 H 3439.73 3.10953 -2.32228 0
M  V30 35534 H 3437.83 3.72543 0.0653193 0
M  V30 35535 H 3437.95 4.49647 -1.65393 0
M  V30 35536 H 3436.31 2.4221 -0.787815 0
M  V30 35537 H 3437.09 2.39556 -2.45902 0
M  V30 35538 N 3439.54 0.753533 1.38418 0
M  V30 35539 C 3440.95 0.431122 1.53667 0
M  V30 35540 C 3441.15 -1.05575 1.71628 0
M  V30 35541 O 3440.21 -1.84179 1.72726 0
M  V30 35542 C 3441.52 1.23032 2.74379 0
M  V30 35543 C 3443.07 1.22039 2.88228 0
M  V30 35544 C 3443.55 2.00255 4.119 0
M  V30 35545 N 3445.04 1.97515 4.18977 0
M  V30 35546 C 3445.77 2.54829 5.13663 0
M  V30 35547 N 3445.27 3.20857 6.14022 0
M  V30 35548 N 3447.06 2.4476 5.06013 0
M  V30 35549 H 3439.21 1.71716 1.25009 0
M  V30 35550 H 3441.48 0.72795 0.607283 0
M  V30 35551 H 3441.18 2.28322 2.67511 0
M  V30 35552 H 3441.06 0.847163 3.67564 0
M  V30 35553 H 3443.44 0.175554 2.94577 0
M  V30 35554 H 3443.52 1.64306 1.96054 0
M  V30 35555 H 3443.17 3.0475 4.06313 0
M  V30 35556 H 3443.1 1.55382 5.03154 0
M  V30 35557 H 3445.59 1.49429 3.47101 0
M  V30 35558 H 3445.9 3.62011 6.82765 0
M  V30 35559 H 3444.25 3.24952 6.14354 0
M  V30 35560 H 3447.44 1.92805 4.26549 0
M  V30 35561 H 3447.61 2.89723 5.79624 0
M  V30 35562 N 3441.02 -1.49371 0.502605 0
M  V30 35563 C 3442.43 -1.58809 0.158669 0
M  V30 35564 C 3442.63 -1.50767 -1.33685 0
M  V30 35565 O 3441.69 -1.38245 -2.11293 0
M  V30 35566 C 3443 -2.91531 0.736894 0
M  V30 35567 C 3444.55 -3.05 0.703146 0
M  V30 35568 C 3445.02 -4.40343 1.25946 0
M  V30 35569 N 3446.52 -4.46838 1.22023 0
M  V30 35570 C 3447.25 -5.50014 1.62086 0
M  V30 35571 N 3446.75 -6.60286 2.09748 0
M  V30 35572 N 3448.54 -5.40737 1.53492 0
M  V30 35573 H 3440.69 -1.52841 1.4749 0
M  V30 35574 H 3442.95 -0.724104 0.611864 0
M  V30 35575 H 3442.66 -3.02989 1.78579 0
M  V30 35576 H 3442.53 -3.76679 0.198244 0
M  V30 35577 H 3444.92 -2.9317 -0.336914 0
M  V30 35578 H 3445 -2.21532 1.27896 0
M  V30 35579 H 3444.65 -4.52924 2.29831 0
M  V30 35580 H 3444.58 -5.22453 0.659573 0
M  V30 35581 H 3447.07 -3.67725 0.871021 0
M  V30 35582 H 3447.38 -7.35114 2.38383 0
M  V30 35583 H 3445.72 -6.61322 2.13723 0
M  V30 35584 H 3448.92 -4.53481 1.16073 0
M  V30 35585 H 3449.09 -6.2102 1.85037 0
M  V30 35586 N 3442.49 -0.236508 -1.55815 0
M  V30 35587 C 3443.91 0.118573 -1.59159 0
M  V30 35588 C 3444.11 1.57761 -1.25355 0
M  V30 35589 O 3443.17 2.3203 -0.995904 0
M  V30 35590 C 3444.48 -0.221228 -2.99885 0
M  V30 35591 C 3446.03 -0.164679 -3.12566 0
M  V30 35592 C 3446.5 -0.478365 -4.55495 0
M  V30 35593 N 3447.99 -0.428483 -4.61214 0
M  V30 35594 C 3448.73 -0.644498 -5.69766 0
M  V30 35595 N 3448.22 -0.923087 -6.86623 0
M  V30 35596 N 3450.02 -0.575913 -5.59142 0
M  V30 35597 H 3442.17 -1.18812 -1.76061 0
M  V30 35598 H 3444.43 -0.477312 -0.819071 0
M  V30 35599 H 3444.14 -1.23446 -3.29323 0
M  V30 35600 H 3444.01 0.456657 -3.74426 0
M  V30 35601 H 3446.4 0.839214 -2.82916 0
M  V30 35602 H 3446.48 -0.876261 -2.40323 0
M  V30 35603 H 3446.12 -1.47976 -4.85866 0
M  V30 35604 H 3446.05 0.254578 -5.25984 0
M  V30 35605 H 3448.54 -0.221464 -3.77251 0
M  V30 35606 H 3448.86 -1.07561 -7.65278 0
M  V30 35607 H 3447.2 -0.960446 -6.88332 0
M  V30 35608 H 3450.39 -0.358389 -4.66726 0
M  V30 35609 H 3450.57 -0.747662 -6.43672 0
M  V30 35610 N 3443.97 1.57557 0.0367273 0
M  V30 35611 C 3445.39 1.54705 0.392237 0
M  V30 35612 C 3445.59 0.961601 1.77075 0
M  V30 35613 O 3444.64 0.579306 2.45765 0
M  V30 35614 C 3445.96 2.99189 0.301115 0
M  V30 35615 C 3447.51 3.107 0.378758 0
M  V30 35616 C 3447.98 4.569 0.317169 0
M  V30 35617 N 3449.47 4.6167 0.376196 0
M  V30 35618 C 3450.21 5.72323 0.35131 0
M  V30 35619 N 3449.7 6.92237 0.279166 0
M  V30 35620 N 3451.5 5.60672 0.400473 0
M  V30 35621 H 3443.65 1.93967 -0.865489 0
M  V30 35622 H 3445.91 0.889319 -0.328354 0
M  V30 35623 H 3445.62 3.45718 -0.645881 0
M  V30 35624 H 3445.49 3.60872 1.09778 0
M  V30 35625 H 3447.88 2.64122 1.31619 0
M  V30 35626 H 3447.96 2.51862 -0.447116 0
M  V30 35627 H 3447.6 5.04144 -0.616558 0
M  V30 35628 H 3447.53 5.13641 1.16105 0
M  V30 35629 H 3450.02 3.75391 0.434777 0
M  V30 35630 H 3450.34 7.72345 0.265067 0
M  V30 35631 H 3448.68 6.94567 0.245327 0
M  V30 35632 H 3451.87 4.65886 0.454772 0
M  V30 35633 H 3452.04 6.46899 0.37761 0
M  V30 35634 N 3445.45 -0.308854 1.54544 0
M  V30 35635 C 3446.41 -1.36371 1.84216 0
M  V30 35636 C 3447.41 -1.44046 0.714656 0
M  V30 35637 O 3448.6 -1.43818 0.982955 0
M  V30 35638 C 3445.74 -2.74944 2.0154 0
M  V30 35639 H 3446.93 -1.11309 2.78479 0
M  V30 35640 H 3444.48 -0.545115 1.46486 0
M  V30 35641 H 3445.22 -3.0524 1.09539 0
M  V30 35642 H 3445 -2.70765 2.836 0
M  V30 35643 H 3446.49 -3.51229 2.25894 0
M  V30 35644 N 3446.93 -1.46867 -0.571659 0
M  V30 35645 C 3447.88 -1.58266 -1.6799 0
M  V30 35646 C 3448.85 -0.426373 -1.60534 0
M  V30 35647 O 3450.03 -0.644566 -1.79583 0
M  V30 35648 C 3447.17 -1.58932 -3.06324 0
M  V30 35649 C 3446.28 -2.85374 -3.24323 0
M  V30 35650 C 3445.42 -2.77472 -4.52971 0
M  V30 35651 C 3444.46 -3.98803 -4.64352 0
M  V30 35652 N 3443.6 -3.89221 -5.84338 0
M  V30 35653 H 3448.44 -2.52925 -1.57584 0
M  V30 35654 H 3445.97 -1.25468 -0.767861 0
M  V30 35655 H 3447.93 -1.57303 -3.86409 0
M  V30 35656 H 3446.56 -0.677968 -3.156 0
M  V30 35657 H 3445.61 -2.96935 -2.37768 0
M  V30 35658 H 3446.92 -3.75266 -3.28599 0
M  V30 35659 H 3446.08 -2.7401 -5.41298 0
M  V30 35660 H 3444.82 -1.85239 -4.51152 0
M  V30 35661 H 3443.82 -4.02585 -3.7444 0
M  V30 35662 H 3445.05 -4.92146 -4.67942 0
M  V30 35663 H 3442.99 -2.99782 -5.83495 0
M  V30 35664 H 3442.91 -4.72778 -5.8993 0
M  V30 35665 H 3444.18 -3.89753 -6.75065 0
M  V30 35666 N 3448.41 0.817212 -1.34757 0
M  V30 35667 C 3449.65 1.57608 -1.27623 0
M  V30 35668 C 3449.99 1.93604 0.151983 0
M  V30 35669 O 3449.26 1.6049 1.09878 0
M  V30 35670 C 3449.54 2.87179 -2.17256 0
M  V30 35671 C 3449.4 2.57726 -3.68642 0
M  V30 35672 C 3450.72 3.88798 -2.06213 0
M  V30 35673 H 3447.84 0.571837 -0.464943 0
M  V30 35674 H 3450.48 0.940999 -1.65061 0
M  V30 35675 H 3448.63 3.41376 -1.85458 0
M  V30 35676 H 3450.3 2.09795 -4.10833 0
M  V30 35677 H 3448.54 1.91082 -3.89449 0
M  V30 35678 H 3449.21 3.50148 -4.26732 0
M  V30 35679 H 3451.69 3.43971 -2.34143 0
M  V30 35680 H 3450.57 4.77254 -2.71145 0
M  V30 35681 H 3450.83 4.29673 -1.04083 0
M  V30 35682 N 3449.89 1.1858 1.0381 0
M  V30 35683 C 3450.82 0.938703 2.138 0
M  V30 35684 C 3451.8 -0.124546 1.69643 0
M  V30 35685 O 3452.98 0.0285762 1.94179 0
M  V30 35686 C 3450.11 0.466453 3.44153 0
M  V30 35687 C 3449.07 1.47048 4.01946 0
M  V30 35688 C 3448.39 0.855651 5.27809 0
M  V30 35689 C 3449.69 2.84796 4.37822 0
M  V30 35690 H 3451.39 1.85856 2.34729 0
M  V30 35691 H 3448.93 0.895027 1.12806 0
M  V30 35692 H 3450.88 0.28093 4.20463 0
M  V30 35693 H 3449.61 -0.488984 3.22919 0
M  V30 35694 H 3448.27 1.64299 3.27722 0
M  V30 35695 H 3447.92 -0.107054 5.02886 0
M  V30 35696 H 3447.62 1.52602 5.67438 0
M  V30 35697 H 3449.14 0.680716 6.06794 0
M  V30 35698 H 3450.55 2.71182 5.05107 0
M  V30 35699 H 3448.95 3.4854 4.88508 0
M  V30 35700 H 3450.02 3.38153 3.47535 0
M  V30 35701 N 3451.36 -1.22766 0.988245 0
M  V30 35702 C 3452.59 -1.95414 0.679777 0
M  V30 35703 C 3453.01 -1.7306 -0.754701 0
M  V30 35704 O 3452.36 -1.02681 -1.50874 0
M  V30 35705 C 3452.41 -3.48232 0.970405 0
M  V30 35706 O 3452.14 -3.69833 2.34851 0
M  V30 35707 C 3453.64 -4.38069 0.678987 0
M  V30 35708 H 3450.86 -0.621939 0.251858 0
M  V30 35709 H 3453.4 -1.56044 1.32176 0
M  V30 35710 H 3451.56 -3.85587 0.374309 0
M  V30 35711 H 3451.97 -4.64068 2.4442 0
M  V30 35712 H 3453.44 -5.44064 0.932645 0
M  V30 35713 H 3453.92 -4.37492 -0.386996 0
M  V30 35714 H 3454.53 -4.06333 1.25592 0
M  V30 35715 N 3452.84 -0.760864 -1.38017 0
M  V30 35716 C 3453.77 -0.0981318 -2.2899 0
M  V30 35717 C 3454.79 0.675959 -1.48103 0
M  V30 35718 O 3455.98 0.515848 -1.70884 0
M  V30 35719 C 3453.08 0.884902 -3.27143 0
M  V30 35720 C 3452.25 0.166924 -4.37081 0
M  V30 35721 C 3451.31 1.06175 -5.15377 0
M  V30 35722 O 3450.33 0.529568 -5.66731 0
M  V30 35723 N 3451.54 2.38914 -5.29056 0
M  V30 35724 H 3454.3 -0.879453 -2.86506 0
M  V30 35725 H 3451.86 -0.612271 -1.49876 0
M  V30 35726 H 3453.85 1.48672 -3.76402 0
M  V30 35727 H 3452.42 1.56726 -2.70473 0
M  V30 35728 H 3451.64 -0.615685 -3.89362 0
M  V30 35729 H 3452.93 -0.329614 -5.07731 0
M  V30 35730 H 3452.33 2.84599 -4.88897 0
M  V30 35731 H 3450.89 2.94128 -5.81663 0
M  V30 35732 N 3454.32 1.49102 -0.510519 0
M  V30 35733 C 3455.6 1.95374 0.0940779 0
M  V30 35734 C 3455.98 1.45229 1.53205 0
M  V30 35735 O 3455.32 0.670199 2.1845 0
M  V30 35736 C 3455.53 3.49 -0.00308641 0
M  V30 35737 C 3456.88 4.24275 0.166043 0
M  V30 35738 O 3457.91 3.56128 0.0716471 0
M  V30 35739 O 3456.77 5.45306 0.361059 0
M  V30 35740 H 3453.86 0.822082 0.0900597 0
M  V30 35741 H 3456.41 1.59707 -0.573735 0
M  V30 35742 H 3455.18 3.7816 -1.00552 0
M  V30 35743 H 3454.8 3.9131 0.704449 0
M  V30 35744 N 3455.8 0.244768 1.55688 0
M  V30 35745 C 3456.75 -0.671941 2.22683 0
M  V30 35746 C 3457.74 -1.18176 1.21371 0
M  V30 35747 O 3458.95 -1.13889 1.39389 0
M  V30 35748 H 3455.32 -0.235168 0.714283 0
M  V30 35749 H 3457.29 -0.083718 2.98283 0
M  V30 35750 C 3456.04 -1.85888 2.93838 0
M  V30 35751 H 3455.36 -1.47573 3.71567 0
M  V30 35752 H 3456.8 -2.47758 3.44082 0
M  V30 35753 C 3455.26 -2.72871 1.97594 0
M  V30 35754 O 3455.79 -3.72335 1.50764 0
M  V30 35755 N 3454 -2.39393 1.64741 0
M  V30 35756 H 3453.55 -1.58561 2.03018 0
M  V30 35757 H 3453.5 -2.97867 1.0061 0
M  V30 35758 N 3457.28 -1.57574 -0.0283712 0
M  V30 35759 C 3458.52 -1.89584 -0.720109 0
M  V30 35760 C 3458.85 -0.842592 -1.74969 0
M  V30 35761 O 3458.13 0.14226 -1.93979 0
M  V30 35762 C 3458.41 -3.32232 -1.38903 0
M  V30 35763 C 3458.27 -4.48251 -0.372919 0
M  V30 35764 C 3459.58 -3.73808 -2.32283 0
M  V30 35765 H 3456.7 -0.689495 -0.260318 0
M  V30 35766 H 3459.35 -1.89992 0.0170941 0
M  V30 35767 H 3457.5 -3.32015 -2.01739 0
M  V30 35768 H 3459.17 -4.60603 0.253573 0
M  V30 35769 H 3457.41 -4.32707 0.307726 0
M  V30 35770 H 3458.08 -5.44949 -0.879453 0
M  V30 35771 H 3460.56 -3.75396 -1.7949 0
M  V30 35772 H 3459.43 -4.74424 -2.76067 0
M  V30 35773 H 3459.69 -3.06105 -3.18986 0
M  V30 35774 N 3458.75 0.300654 -1.54706 0
M  V30 35775 C 3459.66 1.39338 -1.88738 0
M  V30 35776 C 3460.68 1.55459 -0.781577 0
M  V30 35777 O 3461.86 1.70116 -1.07807 0
M  V30 35778 C 3458.92 2.7371 -2.128 0
M  V30 35779 C 3457.98 2.66571 -3.36509 0
M  V30 35780 C 3457.21 3.94534 -3.59414 0
M  V30 35781 O 3457.44 4.93909 -2.85324 0
M  V30 35782 O 3456.37 3.96407 -4.5293 0
M  V30 35783 H 3460.2 1.13479 -2.81702 0
M  V30 35784 H 3457.78 0.496746 -1.409 0
M  V30 35785 H 3459.66 3.53211 -2.29826 0
M  V30 35786 H 3458.34 2.99412 -1.23022 0
M  V30 35787 H 3457.25 1.85541 -3.24847 0
M  V30 35788 H 3458.58 2.45822 -4.26418 0
M  V30 35789 N 3460.23 1.47168 0.563863 0
M  V30 35790 C 3461.48 1.53148 1.31872 0
M  V30 35791 C 3461.8 0.192552 1.94047 0
M  V30 35792 O 3461.07 -0.782841 1.79578 0
M  V30 35793 H 3459.65 0.564108 0.489684 0
M  V30 35794 H 3462.31 1.83423 0.658944 0
M  V30 35795 H 3461.41 2.29444 2.1157 0
M  V30 35796 N 3461.71 -0.810054 1.35188 0
M  V30 35797 C 3462.96 -1.56929 1.28457 0
M  V30 35798 C 3463.29 -1.93682 -0.141713 0
M  V30 35799 O 3462.56 -1.61071 -1.09025 0
M  V30 35800 C 3462.85 -2.86023 2.18776 0
M  V30 35801 C 3462.7 -2.55768 3.70004 0
M  V30 35802 C 3464.02 -3.87699 2.08272 0
M  V30 35803 H 3461.14 -0.569363 0.467969 0
M  V30 35804 H 3463.78 -0.932232 1.65558 0
M  V30 35805 H 3461.93 -3.40388 1.87266 0
M  V30 35806 H 3463.6 -2.07613 4.1194 0
M  V30 35807 H 3461.85 -1.89014 3.90456 0
M  V30 35808 H 3462.52 -3.4788 4.28583 0
M  V30 35809 H 3464.99 -3.42725 2.35964 0
M  V30 35810 H 3463.87 -4.7581 2.73672 0
M  V30 35811 H 3464.13 -4.29115 1.0636 0
M  V30 35812 N 3463.19 -1.19129 -1.0318 0
M  V30 35813 C 3464.12 -0.950028 -2.133 0
M  V30 35814 C 3465.1 0.115547 -1.69707 0
M  V30 35815 O 3466.28 -0.0388736 -1.94161 0
M  V30 35816 C 3463.41 -0.484697 -3.43901 0
M  V30 35817 C 3462.37 -1.49177 -4.01161 0
M  V30 35818 C 3461.69 -0.883629 -5.27348 0
M  V30 35819 C 3462.99 -2.87114 -4.36306 0
M  V30 35820 H 3464.69 -1.87099 -2.3374 0
M  V30 35821 H 3462.23 -0.900997 -1.1233 0
M  V30 35822 H 3464.19 -0.303224 -4.20308 0
M  V30 35823 H 3462.91 0.471852 -3.23174 0
M  V30 35824 H 3461.57 -1.66034 -3.26846 0
M  V30 35825 H 3461.22 0.0803828 -5.02936 0
M  V30 35826 H 3460.92 -1.55609 -5.66621 0
M  V30 35827 H 3462.44 -0.712886 -6.06424 0
M  V30 35828 H 3463.86 -2.73857 -5.03662 0
M  V30 35829 H 3462.25 -3.51126 -4.86652 0
M  V30 35830 H 3463.32 -3.39991 -3.45737 0
M  V30 35831 N 3464.67 1.2224 -0.994741 0
M  V30 35832 C 3466.08 1.43146 -0.705787 0
M  V30 35833 C 3466.28 1.88087 0.722875 0
M  V30 35834 O 3465.34 2.03591 1.49355 0
M  V30 35835 C 3466.65 2.47142 -1.71293 0
M  V30 35836 C 3468.2 2.60939 -1.72858 0
M  V30 35837 C 3468.67 3.68158 -2.7244 0
M  V30 35838 N 3470.17 3.75618 -2.71045 0
M  V30 35839 C 3470.9 4.58178 -3.44762 0
M  V30 35840 N 3470.4 5.44716 -4.28084 0
M  V30 35841 N 3472.19 4.52506 -3.33459 0
M  V30 35842 H 3464.34 0.913758 -1.9174 0
M  V30 35843 H 3466.6 0.463389 -0.827028 0
M  V30 35844 H 3466.31 2.2107 -2.73534 0
M  V30 35845 H 3466.18 3.45776 -1.50727 0
M  V30 35846 H 3468.57 2.86354 -0.713135 0
M  V30 35847 H 3468.65 1.62574 -1.97493 0
M  V30 35848 H 3468.3 3.4349 -3.74135 0
M  V30 35849 H 3468.23 4.66097 -2.45074 0
M  V30 35850 H 3470.72 3.13786 -2.10586 0
M  V30 35851 H 3471.03 6.0474 -4.81154 0
M  V30 35852 H 3469.37 5.44292 -4.32171 0
M  V30 35853 H 3472.57 3.83925 -2.67804 0
M  V30 35854 H 3472.74 5.16616 -3.91167 0
M  V30 35855 N 3466.14 0.768172 1.37611 0
M  V30 35856 C 3467.05 0.15269 2.34103 0
M  V30 35857 C 3468.07 -0.683783 1.60001 0
M  V30 35858 O 3469.25 -0.604538 1.92113 0
M  V30 35859 C 3466.31 -0.718894 3.39165 0
M  V30 35860 C 3465.37 0.133625 4.29092 0
M  V30 35861 C 3464.61 -0.696454 5.29136 0
M  V30 35862 O 3464.83 -1.93374 5.36622 0
M  V30 35863 O 3463.76 -0.107546 6.01804 0
M  V30 35864 H 3467.59 0.94995 2.88461 0
M  V30 35865 H 3465.17 0.529277 1.3971 0
M  V30 35866 H 3467.06 -1.21658 4.03457 0
M  V30 35867 H 3465.73 -1.4944 2.8714 0
M  V30 35868 H 3464.64 0.677592 3.67912 0
M  V30 35869 H 3465.97 0.872133 4.84412 0
M  V30 35870 N 3467.62 -1.48829 0.518419 0
M  V30 35871 C 3468.56 -2.2625 -0.297663 0
M  V30 35872 C 3469.53 -1.31595 -0.955073 0
M  V30 35873 O 3470.72 -1.60916 -0.981748 0
M  V30 35874 C 3467.84 -3.07468 -1.42059 0
M  V30 35875 C 3466.89 -4.17411 -0.87578 0
M  V30 35876 S 3467.72 -5.34929 0.247247 0
M  V30 35877 C 3468.88 -6.19705 -0.878435 0
M  V30 35878 H 3469.11 -2.9512 0.35941 0
M  V30 35879 H 3466.65 -1.51378 0.304002 0
M  V30 35880 H 3468.6 -3.54842 -2.06391 0
M  V30 35881 H 3467.26 -2.38035 -2.04934 0
M  V30 35882 H 3466.46 -4.73821 -1.71784 0
M  V30 35883 H 3466.06 -3.72718 -0.309364 0
M  V30 35884 H 3468.35 -6.53706 -1.77975 0
M  V30 35885 H 3469.29 -7.07222 -0.352576 0
M  V30 35886 H 3469.7 -5.52586 -1.15363 0
M  V30 35887 N 3469.1 -0.253021 -1.55556 0
M  V30 35888 C 3470.06 0.630667 -2.20353 0
M  V30 35889 C 3471.06 1.09814 -1.17463 0
M  V30 35890 O 3472.25 1.00187 -1.42507 0
M  V30 35891 C 3469.39 1.86752 -2.85196 0
M  V30 35892 H 3470.58 0.0652412 -2.99829 0
M  V30 35893 H 3468.13 -0.0035073 -1.563 0
M  V30 35894 H 3468.87 2.47402 -2.09673 0
M  V30 35895 H 3468.65 1.54046 -3.60572 0
M  V30 35896 H 3470.14 2.49642 -3.34767 0
M  V30 35897 N 3470.58 1.57587 0.0200142 0
M  V30 35898 C 3471.86 1.8086 0.744914 0
M  V30 35899 C 3472.24 0.853252 1.93088 0
M  V30 35900 O 3471.58 -0.10257 2.2827 0
M  V30 35901 C 3471.79 3.28823 1.16946 0
M  V30 35902 C 3473.14 3.94043 1.58163 0
M  V30 35903 O 3474.17 3.33026 1.2638 0
M  V30 35904 O 3473.02 5.01489 2.17188 0
M  V30 35905 H 3470.12 0.744057 0.360982 0
M  V30 35906 H 3472.66 1.697 -0.00390357 0
M  V30 35907 H 3471.44 3.89963 0.323235 0
M  V30 35908 H 3471.06 3.44907 1.97801 0
M  V30 35909 N 3472.06 -0.292445 1.54863 0
M  V30 35910 C 3473 -1.36095 1.86405 0
M  V30 35911 C 3473.97 -1.49984 0.71372 0
M  V30 35912 O 3475.16 -1.64705 0.963163 0
M  V30 35913 C 3472.3 -2.71958 2.12445 0
M  V30 35914 C 3471.41 -2.66448 3.40043 0
M  V30 35915 C 3470.55 -3.94362 3.55882 0
M  V30 35916 C 3469.59 -3.83284 4.77241 0
M  V30 35917 N 3468.72 -5.02992 4.89841 0
M  V30 35918 H 3473.56 -1.08495 2.77548 0
M  V30 35919 H 3471.1 -0.524582 1.37428 0
M  V30 35920 H 3473.06 -3.50981 2.25539 0
M  V30 35921 H 3471.69 -2.978 1.2456 0
M  V30 35922 H 3470.74 -1.79242 3.35524 0
M  V30 35923 H 3472.05 -2.54156 4.29193 0
M  V30 35924 H 3471.21 -4.81824 3.68688 0
M  V30 35925 H 3469.94 -4.09499 2.64881 0
M  V30 35926 H 3468.95 -2.94206 4.6446 0
M  V30 35927 H 3470.17 -3.69685 5.69658 0
M  V30 35928 H 3468.12 -5.18575 4.01766 0
M  V30 35929 H 3468.04 -4.93155 5.73004 0
M  V30 35930 H 3469.31 -5.92081 5.07012 0
M  V30 35931 N 3473.53 -1.47465 -0.55605 0
M  V30 35932 C 3474.78 -1.54378 -1.31512 0
M  V30 35933 C 3475.11 -0.205871 -1.93106 0
M  V30 35934 O 3474.39 0.785612 -1.77928 0
M  V30 35935 C 3474.67 -2.66265 -2.42435 0
M  V30 35936 C 3474.52 -4.09676 -1.85702 0
M  V30 35937 C 3475.84 -2.74057 -3.44355 0
M  V30 35938 H 3472.96 -0.561982 -0.476807 0
M  V30 35939 H 3475.6 -1.79526 -0.622125 0
M  V30 35940 H 3473.75 -2.44953 -3.01547 0
M  V30 35941 H 3475.43 -4.42355 -1.30843 0
M  V30 35942 H 3473.67 -4.179 -1.16371 0
M  V30 35943 H 3474.34 -4.83739 -2.65895 0
M  V30 35944 H 3476.82 -2.93287 -2.95164 0
M  V30 35945 H 3475.69 -3.54119 -4.19394 0
M  V30 35946 H 3475.95 -1.81162 -4.03277 0
M  V30 35947 N 3475.01 0.802873 -1.35616 0
M  V30 35948 C 3475.94 1.92944 -1.3151 0
M  V30 35949 C 3476.92 1.69048 -0.188872 0
M  V30 35950 O 3478.11 1.90357 -0.384418 0
M  V30 35951 C 3475.24 3.2975 -1.09007 0
M  V30 35952 C 3474.19 3.68137 -2.1831 0
M  V30 35953 C 3473.52 5.03145 -1.80967 0
M  V30 35954 C 3474.82 3.78126 -3.60303 0
M  V30 35955 H 3476.51 1.96638 -2.25774 0
M  V30 35956 H 3474.06 0.944666 -1.08683 0
M  V30 35957 H 3476.01 4.08167 -1.04773 0
M  V30 35958 H 3474.74 3.26408 -0.11189 0
M  V30 35959 H 3473.4 2.92007 -2.21647 0
M  V30 35960 H 3473.04 4.96311 -0.817582 0
M  V30 35961 H 3472.74 5.298 -2.54138 0
M  V30 35962 H 3474.27 5.83998 -1.78265 0
M  V30 35963 H 3475.68 4.46766 -3.59267 0
M  V30 35964 H 3474.08 4.16254 -4.32265 0
M  V30 35965 H 3475.15 2.79581 -3.96185 0
M  V30 35966 N 3476.49 1.19674 1.02547 0
M  V30 35967 C 3477.72 1.02751 1.80158 0
M  V30 35968 C 3478.14 -0.419073 1.83372 0
M  V30 35969 O 3477.5 -1.30142 1.26225 0
M  V30 35970 C 3477.55 1.60515 3.22905 0
M  V30 35971 O 3476.65 0.836773 4.03822 0
M  V30 35972 H 3475.99 0.362955 0.556021 0
M  V30 35973 H 3478.52 1.58773 1.29044 0
M  V30 35974 H 3478.53 1.63875 3.73643 0
M  V30 35975 H 3477.21 2.658 3.1988 0
M  V30 35976 H 3475.78 0.87669 3.62448 0
M  V30 35977 N 3477.97 -1.21711 1.00121 0
M  V30 35978 C 3479.38 -1.7244 0.715641 0
M  V30 35979 C 3479.73 -1.80588 -0.766968 0
M  V30 35980 O 3478.86 -1.45784 -1.59925 0
M  V30 35981 C 3479.45 -3.13181 1.2924 0
M  V30 35982 C 3478.01 -3.61282 1.05603 0
M  V30 35983 C 3477.16 -2.38922 1.40753 0
M  V30 35984 H 3480.11 -1.06941 1.17257 0
M  V30 35985 H 3480.13 -3.74463 0.675136 0
M  V30 35986 H 3479.64 -3.07219 2.37146 0
M  V30 35987 H 3477.74 -3.726 -0.00604267 0
M  V30 35988 H 3477.86 -4.46958 1.72525 0
M  V30 35989 H 3476.22 -2.40926 0.826249 0
M  V30 35990 H 3477 -2.35614 2.49682 0
M  V30 35991 N 3479.45 -0.775459 -1.37202 0
M  V30 35992 C 3480.38 -0.178301 -2.32818 0
M  V30 35993 C 3481.36 0.678916 -1.55964 0
M  V30 35994 O 3482.54 0.615615 -1.84184 0
M  V30 35995 C 3479.67 0.698708 -3.40199 0
M  V30 35996 C 3478.63 -0.0574982 -4.27961 0
M  V30 35997 C 3477.95 0.939198 -5.26387 0
M  V30 35998 C 3479.25 -1.23865 -5.074 0
M  V30 35999 H 3480.95 -0.977078 -2.83008 0
M  V30 36000 H 3478.49 -0.471298 -1.36069 0
M  V30 36001 H 3480.45 1.1263 -4.06069 0
M  V30 36002 H 3479.17 1.53004 -2.88543 0
M  V30 36003 H 3477.83 -0.465912 -3.63627 0
M  V30 36004 H 3477.48 1.76518 -4.7101 0
M  V30 36005 H 3477.18 0.437741 -5.85967 0
M  V30 36006 H 3478.7 1.36565 -5.95132 0
M  V30 36007 H 3480.12 -0.887523 -5.66388 0
M  V30 36008 H 3478.51 -1.67245 -5.76324 0
M  V30 36009 H 3479.58 -2.04093 -4.39857 0
M  V30 36010 N 3480.93 1.48552 -0.526305 0
M  V30 36011 C 3481.86 2.27538 0.275539 0
M  V30 36012 C 3482.87 1.3514 0.907796 0
M  V30 36013 O 3484.06 1.60221 0.786859 0
M  V30 36014 C 3481.16 3.08399 1.4051 0
M  V30 36015 C 3480.33 4.28549 0.875448 0
M  V30 36016 C 3479.39 4.91252 1.88568 0
M  V30 36017 O 3478.42 5.50577 1.44409 0
M  V30 36018 N 3479.62 4.83164 3.21765 0
M  V30 36019 H 3482.38 2.96994 -0.401855 0
M  V30 36020 H 3479.95 1.57838 -0.360406 0
M  V30 36021 H 3481.94 3.47217 2.079 0
M  V30 36022 H 3480.51 2.41388 1.98622 0
M  V30 36023 H 3479.73 3.94192 0.0256587 0
M  V30 36024 H 3481.02 5.06333 0.500404 0
M  V30 36025 H 3480.41 4.3611 3.60311 0
M  V30 36026 H 3478.97 5.26092 3.84799 0
M  V30 36027 N 3482.4 0.261267 1.55419 0
M  V30 36028 C 3483.68 -0.410526 1.91243 0
M  V30 36029 C 3484.06 -1.74781 1.18383 0
M  V30 36030 O 3483.41 -2.26441 0.306052 0
M  V30 36031 C 3483.62 -0.56447 3.44405 0
M  V30 36032 C 3484.97 -0.853754 4.15928 0
M  V30 36033 O 3485.99 -0.6498 3.50223 0
M  V30 36034 O 3484.85 -1.24299 5.32177 0
M  V30 36035 H 3481.94 -0.222541 0.796495 0
M  V30 36036 H 3484.49 0.306396 1.66911 0
M  V30 36037 H 3483.26 0.377203 3.89478 0
M  V30 36038 H 3482.88 -1.33139 3.74646 0
M  V30 36039 N 3483.88 -1.57596 -0.0116567 0
M  V30 36040 C 3484.83 -2.08793 -1.02511 0
M  V30 36041 C 3485.82 -1.00539 -1.36339 0
M  V30 36042 O 3487.03 -1.19014 -1.3504 0
M  V30 36043 H 3483.4 -0.666535 -0.348189 0
M  V30 36044 H 3485.38 -2.92951 -0.567646 0
M  V30 36045 C 3484.12 -2.597 -2.31195 0
M  V30 36046 H 3483.45 -3.42625 -2.0603 0
M  V30 36047 H 3484.89 -2.99214 -3.00412 0
M  V30 36048 C 3483.35 -1.50592 -3.0137 0
M  V30 36049 O 3483.88 -0.882115 -3.91895 0
M  V30 36050 N 3482.08 -1.2362 -2.62995 0
M  V30 36051 H 3481.63 -1.74532 -1.89463 0
M  V30 36052 H 3481.59 -0.508344 -3.10263 0
M  V30 36053 N 3485.36 0.284228 -1.55016 0
M  V30 36054 C 3486.31 1.37099 -1.87901 0
M  V30 36055 C 3487.3 1.51682 -0.754258 0
M  V30 36056 O 3488.51 1.53599 -0.938467 0
M  V30 36057 H 3484.88 0.458291 -0.596216 0
M  V30 36058 H 3486.85 1.06608 -2.78706 0
M  V30 36059 C 3485.6 2.72652 -2.15769 0
M  V30 36060 H 3484.93 2.62219 -3.01797 0
M  V30 36061 H 3486.37 3.47663 -2.42707 0
M  V30 36062 C 3484.82 3.22885 -0.961617 0
M  V30 36063 O 3485.35 4.01248 -0.19056 0
M  V30 36064 N 3483.56 2.80421 -0.762388 0
M  V30 36065 H 3483.11 2.1681 -1.39108 0
M  V30 36066 H 3483.07 3.14379 0.0362929 0
M  V30 36067 N 3486.84 1.47758 0.548222 0
M  V30 36068 C 3488.11 1.45327 1.30918 0
M  V30 36069 C 3488.49 0.155045 2.1053 0
M  V30 36070 O 3487.84 -0.863418 2.11559 0
M  V30 36071 C 3488.05 2.7043 2.20609 0
M  V30 36072 C 3489.4 3.18014 2.8134 0
M  V30 36073 O 3490.42 2.71221 2.30907 0
M  V30 36074 O 3489.28 3.99389 3.73029 0
M  V30 36075 H 3486.38 0.579558 0.58995 0
M  V30 36076 H 3488.92 1.59969 0.566382 0
M  V30 36077 H 3487.7 3.56444 1.61442 0
M  V30 36078 H 3487.32 2.58418 3.02168 0
M  V30 36079 N 3488.32 -0.79567 1.3604 0
M  V30 36080 C 3489.54 -1.58953 1.33225 0
M  V30 36081 C 3489.97 -1.87906 -0.0854266 0
M  V30 36082 O 3489.32 -1.47405 -1.05553 0
M  V30 36083 C 3489.37 -2.89113 2.15513 0
M  V30 36084 O 3488.48 -3.82433 1.54333 0
M  V30 36085 H 3487.82 -0.482402 0.456272 0
M  V30 36086 H 3490.35 -0.986695 1.79236 0
M  V30 36087 H 3490.36 -3.3844 2.27865 0
M  V30 36088 H 3489.03 -2.67366 3.18572 0
M  V30 36089 H 3487.61 -3.41011 1.50885 0
M  V30 36090 N 3489.79 -1.20217 -1.0191 0
M  V30 36091 C 3491.04 -1.0088 -1.75122 0
M  V30 36092 C 3491.36 0.460441 -1.89486 0
M  V30 36093 O 3490.63 1.333 -1.43555 0
M  V30 36094 H 3489.21 -0.370278 -0.648771 0
M  V30 36095 H 3491.88 -1.51282 -1.22881 0
M  V30 36096 H 3490.97 -1.46504 -2.75578 0
M  V30 36097 N 3491.27 1.21178 -1.00765 0
M  V30 36098 C 3492.22 2.21482 -0.541257 0
M  V30 36099 C 3493.21 1.55885 0.398569 0
M  V30 36100 O 3494.4 1.7559 0.22299 0
M  V30 36101 C 3491.53 3.43061 0.128085 0
M  V30 36102 C 3490.61 4.1584 -0.832918 0
M  V30 36103 N 3491 4.65144 -1.98682 0
M  V30 36104 C 3489.3 4.41211 -0.651856 0
M  V30 36105 C 3490 5.20799 -2.59121 0
M  V30 36106 N 3488.98 5.10329 -1.87258 0
M  V30 36107 H 3492.78 2.57259 -1.42109 0
M  V30 36108 H 3490.3 1.37015 -0.87182 0
M  V30 36109 H 3492.29 4.14131 0.479698 0
M  V30 36110 H 3490.95 3.08792 1.00387 0
M  V30 36111 H 3491.96 4.6064 -2.36709 0
M  V30 36112 H 3488.64 4.17126 0.176627 0
M  V30 36113 H 3490.03 5.69384 -3.56723 0
M  V30 36114 N 3492.75 0.782725 1.36789 0
M  V30 36115 C 3493.98 0.362607 2.04206 0
M  V30 36116 C 3494.4 -1.01071 1.58639 0
M  V30 36117 O 3493.76 -1.64981 0.751721 0
M  V30 36118 C 3493.81 0.427163 3.58061 0
M  V30 36119 O 3492.91 -0.568378 4.08464 0
M  V30 36120 H 3492.25 0.155084 0.645635 0
M  V30 36121 H 3494.78 1.06197 1.74881 0
M  V30 36122 H 3494.79 0.28837 4.0698 0
M  V30 36123 H 3493.47 1.42899 3.9058 0
M  V30 36124 H 3492.04 -0.391798 3.70836 0
M  V30 36125 N 3494.23 -1.48271 0.534176 0
M  V30 36126 C 3495.46 -2.06899 0.00578112 0
M  V30 36127 C 3495.87 -1.39014 -1.27752 0
M  V30 36128 O 3495.23 -0.479024 -1.76101 0
M  V30 36129 C 3495.28 -3.60845 -0.217513 0
M  V30 36130 O 3495 -4.26181 1.01495 0
M  V30 36131 C 3496.5 -4.3628 -0.785812 0
M  V30 36132 H 3493.72 -0.670065 0.0354084 0
M  V30 36133 H 3496.27 -1.90602 0.741017 0
M  V30 36134 H 3494.42 -3.76733 -0.902809 0
M  V30 36135 H 3494.83 -5.18389 0.798291 0
M  V30 36136 H 3496.31 -5.44754 -0.891455 0
M  V30 36137 H 3496.79 -4.00992 -1.79171 0
M  V30 36138 H 3497.39 -4.25079 -0.136948 0
M  V30 36139 N 3495.71 -0.269505 -1.55279 0
M  V30 36140 C 3496.95 0.348189 -1.99078 0
M  V30 36141 C 3497.28 1.56798 -1.15928 0
M  V30 36142 O 3496.55 1.94331 -0.247438 0
M  V30 36143 H 3495.13 0.13164 -0.735309 0
M  V30 36144 H 3497.79 -0.37354 -1.91287 0
M  V30 36145 H 3496.88 0.6419 -3.05428 0
M  V30 36146 N 3497.18 1.576 0.00329885 0
M  V30 36147 C 3498.15 2.07164 0.980592 0
M  V30 36148 C 3499.15 0.980424 1.27453 0
M  V30 36149 O 3500.34 1.24319 1.22027 0
M  V30 36150 C 3497.47 2.51032 2.30642 0
M  V30 36151 H 3498.66 2.94777 0.55193 0
M  V30 36152 H 3496.22 1.54276 0.250701 0
M  V30 36153 H 3496.95 1.66652 2.78204 0
M  V30 36154 H 3496.74 3.30723 2.10629 0
M  V30 36155 H 3498.23 2.89716 3.00756 0
M  V30 36156 N 3498.66 -0.276003 1.55164 0
M  V30 36157 C 3499.94 -1.0291 1.6634 0
M  V30 36158 C 3500.32 -2.04393 0.527912 0
M  V30 36159 O 3499.67 -2.23564 -0.472398 0
M  V30 36160 C 3499.88 -1.6886 3.0543 0
M  V30 36161 C 3501.23 -2.20134 3.63079 0
M  V30 36162 O 3502.25 -1.78852 3.08043 0
M  V30 36163 O 3501.11 -2.95845 4.59497 0
M  V30 36164 H 3498.2 -0.47717 0.675454 0
M  V30 36165 H 3500.75 -0.2721 1.67504 0
M  V30 36166 H 3499.52 -0.953058 3.79516 0
M  V30 36167 H 3499.14 -2.51254 3.08151 0
M  V30 36168 N 3500.14 -1.48046 -0.540378 0
M  V30 36169 C 3501.37 -1.59178 -1.32175 0
M  V30 36170 C 3501.78 -0.248148 -1.87162 0
M  V30 36171 O 3501.14 0.761095 -1.65872 0
M  V30 36172 C 3501.19 -2.63027 -2.4799 0
M  V30 36173 O 3500.91 -3.92175 -1.95271 0
M  V30 36174 C 3502.41 -2.84501 -3.39962 0
M  V30 36175 H 3499.63 -0.53701 -0.40232 0
M  V30 36176 H 3502.18 -1.93796 -0.652949 0
M  V30 36177 H 3500.33 -2.31296 -3.10775 0
M  V30 36178 H 3500.75 -4.49062 -2.71004 0
M  V30 36179 H 3502.22 -3.6099 -4.17601 0
M  V30 36180 H 3502.7 -1.92939 -3.94552 0
M  V30 36181 H 3503.3 -3.17495 -2.82979 0
M  V30 36182 N 3501.62 0.788444 -1.3646 0
M  V30 36183 C 3502.87 1.54331 -1.30486 0
M  V30 36184 C 3503.19 1.94659 0.115232 0
M  V30 36185 O 3502.46 1.65021 1.0557 0
M  V30 36186 H 3501.04 0.57236 -0.480014 0
M  V30 36187 H 3503.7 0.939398 -1.70767 0
M  V30 36188 H 3502.8 2.45043 -1.93289 0
M  V30 36189 N 3503.1 1.20755 1.01271 0
M  V30 36190 C 3504.34 1.01807 1.74585 0
M  V30 36191 C 3504.67 -0.450386 1.89728 0
M  V30 36192 O 3503.94 -1.32537 1.4426 0
M  V30 36193 H 3502.52 0.373713 0.646798 0
M  V30 36194 H 3505.18 1.51932 1.22076 0
M  V30 36195 H 3504.27 1.47963 2.74797 0
M  V30 36196 N 3504.58 -1.20642 1.01406 0
M  V30 36197 C 3505.85 -1.8561 0.61712 0
M  V30 36198 C 3506.23 -1.90721 -0.904913 0
M  V30 36199 O 3505.58 -1.41318 -1.79559 0
M  V30 36200 C 3505.79 -3.25384 1.26199 0
M  V30 36201 C 3507.14 -4.01692 1.37583 0
M  V30 36202 O 3508.16 -3.34728 1.218 0
M  V30 36203 O 3507.02 -5.21607 1.63059 0
M  V30 36204 H 3504.12 -0.799208 0.212593 0
M  V30 36205 H 3506.66 -1.28252 1.11128 0
M  V30 36206 H 3505.43 -3.16415 2.30211 0
M  V30 36207 H 3505.06 -3.90371 0.754748 0
M  V30 36208 N 3506.05 -0.789968 -1.36372 0
M  V30 36209 C 3507.3 -0.3592 -1.98476 0
M  V30 36210 C 3507.62 1.07514 -1.63402 0
M  V30 36211 O 3508.82 1.6082 -2.18745 0
M  V30 36212 C 3507.28 -0.59129 -3.5501 0
M  V30 36213 C 3506.89 -2.03708 -3.99008 0
M  V30 36214 C 3508.63 -0.225054 -4.23903 0
M  V30 36215 C 3506.54 -2.2158 -5.48321 0
M  V30 36216 H 3505.47 -0.130566 -0.742609 0
M  V30 36217 H 3508.12 -0.971679 -1.55662 0
M  V30 36218 H 3506.5 0.0909092 -3.95896 0
M  V30 36219 H 3507.67 -2.75572 -3.69319 0
M  V30 36220 H 3505.99 -2.36161 -3.42953 0
M  V30 36221 H 3508.59 -0.336858 -5.33638 0
M  V30 36222 H 3508.93 0.826893 -4.08005 0
M  V30 36223 H 3509.46 -0.860511 -3.88381 0
M  V30 36224 H 3506.2 -3.25159 -5.69168 0
M  V30 36225 H 3505.72 -1.54221 -5.79634 0
M  V30 36226 H 3507.4 -2.02321 -6.14553 0
M  V30 36227 N 3507.53 1.47986 -0.542031 0
M  V30 36228 C 3508.78 2.02796 -0.0123655 0
M  V30 36229 C 3509.11 1.41709 1.32786 0
M  V30 36230 O 3508.39 0.567152 1.86047 0
M  V30 36231 C 3508.67 3.5997 0.0968645 0
M  V30 36232 C 3508.52 4.31517 -1.26938 0
M  V30 36233 C 3509.84 4.32435 0.817778 0
M  V30 36234 H 3506.96 0.736976 -0.00596774 0
M  V30 36235 H 3509.6 1.7658 -0.701391 0
M  V30 36236 H 3507.75 3.82437 0.683687 0
M  V30 36237 H 3509.42 4.20434 -1.89824 0
M  V30 36238 H 3507.67 3.92463 -1.84811 0
M  V30 36239 H 3508.34 5.39977 -1.14583 0
M  V30 36240 H 3510.81 4.1487 0.319676 0
M  V30 36241 H 3509.69 5.42071 0.86313 0
M  V30 36242 H 3509.95 4.00572 1.87068 0
M  V30 36243 N 3509.01 0.277736 1.55133 0
M  V30 36244 C 3509.94 -0.641875 2.20029 0
M  V30 36245 C 3510.95 -1.11547 1.1858 0
M  V30 36246 O 3512.14 -1.03692 1.45293 0
M  V30 36247 C 3509.24 -1.88789 2.81446 0
M  V30 36248 C 3508.42 -1.56067 4.0861 0
M  V30 36249 C 3507.48 -2.65942 4.5405 0
M  V30 36250 O 3506.5 -2.32017 5.19766 0
M  V30 36251 N 3507.7 -3.96051 4.2441 0
M  V30 36252 H 3510.47 -0.0864402 2.99575 0
M  V30 36253 H 3508.03 0.0989462 1.61597 0
M  V30 36254 H 3510.02 -2.61595 3.08788 0
M  V30 36255 H 3508.59 -2.35231 2.05877 0
M  V30 36256 H 3507.81 -0.666319 3.88528 0
M  V30 36257 H 3509.1 -1.3171 4.91457 0
M  V30 36258 H 3508.5 -4.26432 3.71715 0
M  V30 36259 H 3507.05 -4.65226 4.56517 0
M  V30 36260 N 3510.49 -1.57599 0.00505908 0
M  V30 36261 C 3511.42 -2.056 -1.01299 0
M  V30 36262 C 3512.43 -0.974852 -1.30386 0
M  V30 36263 O 3513.62 -1.25155 -1.27273 0
M  V30 36264 C 3510.72 -2.44526 -2.34649 0
M  V30 36265 C 3509.89 -3.75434 -2.24429 0
M  V30 36266 C 3508.95 -4.01172 -3.4051 0
M  V30 36267 O 3507.98 -4.71768 -3.18471 0
M  V30 36268 N 3509.18 -3.49462 -4.63526 0
M  V30 36269 H 3511.95 -2.93559 -0.603604 0
M  V30 36270 H 3509.51 -1.60871 -0.18222 0
M  V30 36271 H 3511.5 -2.58855 -3.11089 0
M  V30 36272 H 3510.07 -1.62059 -2.67312 0
M  V30 36273 H 3509.29 -3.71133 -1.32868 0
M  V30 36274 H 3510.58 -4.61246 -2.14778 0
M  V30 36275 H 3509.98 -2.92304 -4.84329 0
M  V30 36276 H 3508.53 -3.69113 -5.37214 0
M  V30 36277 N 3511.97 0.267771 -1.55309 0
M  V30 36278 C 3513.38 0.838429 -1.66815 0
M  V30 36279 C 3513.73 1.86844 -0.598642 0
M  V30 36280 O 3512.85 2.14845 0.258922 0
M  V30 36281 C 3513.45 1.52753 -3.0241 0
M  V30 36282 C 3512.01 2.04615 -3.15927 0
M  V30 36283 C 3511.15 0.889998 -2.6263 0
M  V30 36284 H 3514.1 0.0440076 -1.58639 0
M  V30 36285 H 3514.13 2.39473 -2.95691 0
M  V30 36286 H 3513.64 0.777628 -3.8023 0
M  V30 36287 H 3511.74 2.8255 -2.42891 0
M  V30 36288 H 3511.85 2.25787 -4.2256 0
M  V30 36289 H 3510.22 1.28481 -2.1992 0
M  V30 36290 H 3511 0.153519 -3.42957 0
M  V30 36291 N 3513.44 1.48331 0.532519 0
M  V30 36292 C 3514.67 1.60131 1.31806 0
M  V30 36293 C 3515.09 0.26084 1.86283 0
M  V30 36294 O 3514.45 -0.767108 1.64272 0
M  V30 36295 C 3514.5 2.64907 2.44656 0
M  V30 36296 O 3513.6 2.21891 3.47618 0
M  V30 36297 H 3512.94 0.537047 0.390482 0
M  V30 36298 H 3515.47 1.94299 0.641034 0
M  V30 36299 H 3515.48 2.86101 2.90878 0
M  V30 36300 H 3514.16 3.62225 2.04366 0
M  V30 36301 H 3512.74 2.10899 3.07532 0
M  V30 36302 N 3514.92 -0.781196 1.36876 0
M  V30 36303 C 3516.2 -1.52807 1.22104 0
M  V30 36304 C 3516.58 -2.10249 -0.189365 0
M  V30 36305 O 3515.93 -1.94703 -1.19595 0
M  V30 36306 C 3516.14 -2.61648 2.30957 0
M  V30 36307 C 3517.48 -3.29308 2.68033 0
M  V30 36308 O 3518.51 -2.71937 2.30062 0
M  V30 36309 O 3517.37 -4.33009 3.33415 0
M  V30 36310 H 3514.46 -0.676341 0.475911 0
M  V30 36311 H 3517.01 -0.818972 1.4863 0
M  V30 36312 H 3515.78 -2.17255 3.25447 0
M  V30 36313 H 3515.4 -3.40168 2.05843 0
M  V30 36314 N 3516.4 -1.21291 -1.0063 0
M  V30 36315 C 3517.31 -0.986994 -2.12828 0
M  V30 36316 C 3518.33 0.0604846 -1.73895 0
M  V30 36317 O 3519.5 -0.129274 -2.00985 0
M  V30 36318 C 3516.57 -0.553149 -3.42259 0
M  V30 36319 C 3515.63 -1.67269 -3.95373 0
M  V30 36320 C 3514.86 -1.25945 -5.18627 0
M  V30 36321 O 3515.08 -0.132502 -5.70246 0
M  V30 36322 O 3514.02 -2.07086 -5.65154 0
M  V30 36323 H 3517.84 -1.92667 -2.34762 0
M  V30 36324 H 3515.43 -0.997674 -1.11206 0
M  V30 36325 H 3517.31 -0.320929 -4.20176 0
M  V30 36326 H 3515.99 0.357824 -3.21716 0
M  V30 36327 H 3514.89 -1.9593 -3.18688 0
M  V30 36328 H 3516.23 -2.56104 -4.20323 0
M  V30 36329 N 3517.88 1.20103 -1.02045 0
M  V30 36330 C 3519.11 1.93543 -0.731349 0
M  V30 36331 C 3519.52 1.75 0.708552 0
M  V30 36332 O 3518.88 1.06645 1.48098 0
M  V30 36333 C 3518.93 3.45537 -1.06239 0
M  V30 36334 O 3518.65 3.63476 -2.44574 0
M  V30 36335 C 3520.15 4.36115 -0.794894 0
M  V30 36336 H 3517.37 0.615043 -0.268259 0
M  V30 36337 H 3519.91 1.52485 -1.36266 0
M  V30 36338 H 3518.07 3.84459 -0.476409 0
M  V30 36339 H 3518.48 4.57424 -2.56638 0
M  V30 36340 H 3519.96 5.414 -1.07657 0
M  V30 36341 H 3520.43 4.38364 0.270867 0
M  V30 36342 H 3521.04 4.02861 -1.36321 0
M  V30 36343 N 3519.36 0.797189 1.35951 0
M  V30 36344 C 3520.32 0.206788 2.28265 0
M  V30 36345 C 3521.32 -0.600404 1.4917 0
M  V30 36346 O 3522.51 -0.420261 1.69055 0
M  V30 36347 C 3519.64 -0.712826 3.33364 0
M  V30 36348 H 3520.83 1.02087 2.8199 0
M  V30 36349 H 3518.39 0.567163 1.45647 0
M  V30 36350 H 3519.12 -1.55095 2.84809 0
M  V30 36351 H 3518.91 -0.135858 3.91865 0
M  V30 36352 H 3520.4 -1.12053 4.02286 0
M  V30 36353 N 3520.83 -1.47696 0.549872 0
M  V30 36354 C 3521.8 -2.284 -0.191386 0
M  V30 36355 C 3522.8 -1.36528 -0.849509 0
M  V30 36356 O 3523.99 -1.5923 -0.706498 0
M  V30 36357 C 3521.12 -3.15997 -1.27902 0
M  V30 36358 H 3522.31 -2.95403 0.517427 0
M  V30 36359 H 3519.87 -1.53265 0.306537 0
M  V30 36360 H 3520.6 -2.53669 -2.02046 0
M  V30 36361 H 3520.39 -3.836 -0.811999 0
M  V30 36362 H 3521.88 -3.76822 -1.79985 0
M  V30 36363 N 3522.31 -0.285959 -1.54984 0
M  V30 36364 C 3523.54 0.333585 -2.047 0
M  V30 36365 C 3523.96 1.47873 -1.16254 0
M  V30 36366 O 3523.32 1.80562 -0.163407 0
M  V30 36367 C 3523.37 0.781808 -3.52023 0
M  V30 36368 O 3522.47 1.88805 -3.66642 0
M  V30 36369 H 3521.81 0.0673087 -0.66058 0
M  V30 36370 H 3524.34 -0.423421 -2.00171 0
M  V30 36371 H 3524.35 1.07466 -3.93592 0
M  V30 36372 H 3523.03 -0.0559661 -4.15862 0
M  V30 36373 H 3521.61 1.5969 -3.36977 0
M  V30 36374 N 3523.79 1.57594 -0.0134169 0
M  V30 36375 C 3524.7 2.12704 0.989664 0
M  V30 36376 C 3525.72 1.07548 1.36783 0
M  V30 36377 O 3526.89 1.39522 1.45243 0
M  V30 36378 C 3523.96 2.6304 2.25856 0
M  V30 36379 C 3523.02 3.8285 1.94228 0
M  V30 36380 C 3522.25 4.30776 3.15067 0
M  V30 36381 O 3522.47 3.77958 4.27205 0
M  V30 36382 O 3521.41 5.22792 2.98281 0
M  V30 36383 H 3525.23 2.98657 0.551141 0
M  V30 36384 H 3522.82 1.4797 0.206238 0
M  V30 36385 H 3524.7 2.95555 3.00375 0
M  V30 36386 H 3523.38 1.80177 2.6892 0
M  V30 36387 H 3522.28 3.55287 1.17142 0
M  V30 36388 H 3523.62 4.66827 1.55991 0
M  V30 36389 N 3525.27 -0.259531 1.55448 0
M  V30 36390 C 3526.23 -1.30441 1.88461 0
M  V30 36391 C 3527.23 -1.417 0.760121 0
M  V30 36392 O 3528.42 -1.40618 1.02821 0
M  V30 36393 C 3525.55 -2.68393 2.10185 0
M  V30 36394 H 3526.75 -1.02393 2.81879 0
M  V30 36395 H 3524.3 -0.498236 1.48146 0
M  V30 36396 H 3525.03 -3.01601 1.19194 0
M  V30 36397 H 3524.82 -2.61605 2.9207 0
M  V30 36398 H 3526.31 -3.43865 2.36953 0
M  V30 36399 N 3526.75 -1.48611 -0.524645 0
M  V30 36400 C 3527.99 -1.5659 -1.27765 0
M  V30 36401 C 3528.32 -0.243933 -1.93468 0
M  V30 36402 O 3527.59 0.734953 -1.81591 0
M  V30 36403 H 3526.17 -0.576893 -0.474556 0
M  V30 36404 H 3528.83 -1.85105 -0.610081 0
M  V30 36405 H 3527.92 -2.34973 -2.05412 0
M  V30 36406 N 3528.22 0.773926 -1.37289 0
M  V30 36407 C 3529.45 1.56813 -1.35737 0
M  V30 36408 C 3529.87 1.88018 0.0555216 0
M  V30 36409 O 3529.23 1.49066 1.03194 0
M  V30 36410 C 3529.28 2.85648 -2.20085 0
M  V30 36411 O 3528.38 3.79929 -1.60398 0
M  V30 36412 H 3527.73 0.475082 -0.463889 0
M  V30 36413 H 3530.26 0.958055 -1.80783 0
M  V30 36414 H 3530.27 3.34772 -2.33221 0
M  V30 36415 H 3528.94 2.62264 -3.22786 0
M  V30 36416 H 3527.52 3.38567 -1.56291 0
M  V30 36417 N 3529.7 1.21823 0.99985 0
M  V30 36418 C 3530.63 1.00625 2.10706 0
M  V30 36419 C 3531.61 -0.0705118 1.69954 0
M  V30 36420 O 3532.8 0.0903383 1.9399 0
M  V30 36421 C 3529.93 0.575706 3.42495 0
M  V30 36422 C 3528.88 1.59761 3.97065 0
M  V30 36423 C 3528.21 1.02314 5.2482 0
M  V30 36424 C 3529.51 2.98581 4.2854 0
M  V30 36425 H 3531.2 1.9323 2.28697 0
M  V30 36426 H 3528.75 0.930462 1.09902 0
M  V30 36427 H 3530.7 0.414555 4.19356 0
M  V30 36428 H 3529.43 -0.386002 3.24311 0
M  V30 36429 H 3528.08 1.74642 3.22329 0
M  V30 36430 H 3527.73 0.05299 5.02972 0
M  V30 36431 H 3527.43 1.70577 5.62296 0
M  V30 36432 H 3528.96 0.873418 6.04321 0
M  V30 36433 H 3530.37 2.87115 4.96224 0
M  V30 36434 H 3528.77 3.63905 4.77172 0
M  V30 36435 H 3529.84 3.49038 3.36601 0
M  V30 36436 N 3531.18 -1.1956 1.0268 0
M  V30 36437 C 3532.41 -1.93693 0.741458 0
M  V30 36438 C 3532.83 -1.74862 -0.693173 0
M  V30 36439 O 3532.19 -1.04956 -1.47831 0
M  V30 36440 C 3532.24 -3.43566 1.0952 0
M  V30 36441 O 3531.34 -4.11851 0.212668 0
M  V30 36442 H 3530.68 -0.604768 0.274139 0
M  V30 36443 H 3533.21 -1.51697 1.37292 0
M  V30 36444 H 3533.22 -3.94225 1.05122 0
M  V30 36445 H 3531.9 -3.56595 2.1404 0
M  V30 36446 H 3530.47 -3.71567 0.315065 0
M  V30 36447 N 3532.66 -0.804387 -1.35526 0
M  V30 36448 C 3533.88 -0.395049 -2.03603 0
M  V30 36449 C 3534.31 0.985342 -1.60227 0
M  V30 36450 O 3533.67 1.63765 -0.777873 0
M  V30 36451 C 3533.71 -0.484074 -3.57336 0
M  V30 36452 O 3532.82 0.503323 -4.09317 0
M  V30 36453 H 3532.16 -0.165336 -0.643086 0
M  V30 36454 H 3534.69 -1.08966 -1.73169 0
M  V30 36455 H 3534.7 -0.35308 -4.06469 0
M  V30 36456 H 3533.37 -1.49095 -3.88257 0
M  V30 36457 H 3531.95 0.332752 -3.71412 0
M  V30 36458 N 3534.14 1.47403 -0.557697 0
M  V30 36459 C 3535.07 2.2696 0.237572 0
M  V30 36460 C 3536.05 1.3408 0.919847 0
M  V30 36461 O 3537.23 1.63462 0.938738 0
M  V30 36462 C 3534.36 3.11127 1.33857 0
M  V30 36463 C 3533.41 4.19587 0.764803 0
M  V30 36464 S 3534.24 5.34085 -0.388987 0
M  V30 36465 C 3535.39 6.21816 0.713822 0
M  V30 36466 H 3535.63 2.94063 -0.437529 0
M  V30 36467 H 3533.16 1.50518 -0.344031 0
M  V30 36468 H 3535.12 3.60189 1.96911 0
M  V30 36469 H 3533.78 2.43385 1.98551 0
M  V30 36470 H 3532.97 4.78209 1.59161 0
M  V30 36471 H 3532.57 3.73408 0.210436 0
M  V30 36472 H 3534.87 6.58195 1.6058 0
M  V30 36473 H 3535.81 7.07908 0.164944 0
M  V30 36474 H 3536.22 5.55451 1.00671 0
M  V30 36475 N 3535.62 0.294175 1.5483 0
M  V30 36476 C 3537.03 -0.199833 1.85627 0
M  V30 36477 C 3537.38 -1.53962 1.21615 0
M  V30 36478 O 3536.5 -2.10272 0.511354 0
M  V30 36479 C 3537.1 -0.369368 3.36781 0
M  V30 36480 C 3535.66 -0.807598 3.67634 0
M  V30 36481 C 3534.8 0.0880565 2.7716 0
M  V30 36482 H 3537.75 0.515398 1.50098 0
M  V30 36483 H 3537.78 -1.20501 3.60915 0
M  V30 36484 H 3537.29 0.605898 3.83341 0
M  V30 36485 H 3535.39 -1.79366 3.26586 0
M  V30 36486 H 3535.5 -0.631715 4.74917 0
M  V30 36487 H 3533.87 -0.431509 2.51018 0
M  V30 36488 H 3534.65 1.05955 3.2654 0
M  V30 36489 N 3537.09 -1.57585 0.0217743 0
M  V30 36490 C 3538.5 -1.79368 -0.518079 0
M  V30 36491 C 3538.86 -0.931344 -1.72686 0
M  V30 36492 O 3537.98 -0.139725 -2.15948 0
M  V30 36493 C 3538.58 -3.25306 -0.946653 0
M  V30 36494 C 3537.13 -3.4811 -1.43167 0
M  V30 36495 C 3536.28 -2.74502 -0.392947 0
M  V30 36496 H 3539.23 -1.56753 0.247849 0
M  V30 36497 H 3539.25 -3.34614 -1.81146 0
M  V30 36498 H 3538.77 -3.88043 -0.0666854 0
M  V30 36499 H 3536.87 -2.90616 -2.33181 0
M  V30 36500 H 3536.98 -4.56818 -1.44411 0
M  V30 36501 H 3535.34 -2.39762 -0.859429 0
M  V30 36502 H 3536.13 -3.3995 0.478428 0
M  V30 36503 N 3538.57 0.251283 -1.55584 0
M  V30 36504 C 3539.5 1.31483 -1.92962 0
M  V30 36505 C 3540.48 1.5043 -0.794027 0
M  V30 36506 O 3541.67 1.63112 -1.05396 0
M  V30 36507 C 3538.8 2.67041 -2.22051 0
M  V30 36508 C 3537.75 2.62795 -3.37821 0
M  V30 36509 C 3537.08 4.02107 -3.5244 0
M  V30 36510 C 3538.38 2.20163 -4.7363 0
M  V30 36511 H 3540.07 1.00446 -2.82048 0
M  V30 36512 H 3537.62 0.481751 -1.35702 0
M  V30 36513 H 3539.57 3.41575 -2.46789 0
M  V30 36514 H 3538.29 2.99705 -1.29787 0
M  V30 36515 H 3536.95 1.90718 -3.13085 0
M  V30 36516 H 3536.6 4.32029 -2.57604 0
M  V30 36517 H 3536.3 4.00155 -4.3029 0
M  V30 36518 H 3537.83 4.78348 -3.79494 0
M  V30 36519 H 3539.24 2.84427 -4.97769 0
M  V30 36520 H 3537.64 2.29331 -5.54551 0
M  V30 36521 H 3538.71 1.15322 -4.70987 0
M  V30 36522 N 3540.05 1.48887 0.516757 0
M  V30 36523 C 3540.96 1.67098 1.64667 0
M  V30 36524 C 3541.98 0.553495 1.64962 0
M  V30 36525 O 3543.15 0.826239 1.83672 0
M  V30 36526 C 3540.22 1.71885 3.01092 0
M  V30 36527 C 3539.28 2.95357 3.11549 0
M  V30 36528 C 3538.51 2.99906 4.41466 0
M  V30 36529 O 3538.73 2.12487 5.29344 0
M  V30 36530 O 3537.67 3.92213 4.56566 0
M  V30 36531 H 3541.49 2.62788 1.52237 0
M  V30 36532 H 3539.08 1.32443 0.691317 0
M  V30 36533 H 3540.96 1.77477 3.82204 0
M  V30 36534 H 3539.64 0.793711 3.13818 0
M  V30 36535 H 3538.54 2.9529 2.29683 0
M  V30 36536 H 3539.88 3.87299 3.03744 0
M  V30 36537 N 3541.53 -0.766635 1.37697 0
M  V30 36538 C 3542.78 -1.52235 1.32924 0
M  V30 36539 C 3543.1 -1.94818 -0.084249 0
M  V30 36540 O 3542.37 -1.66679 -1.02931 0
M  V30 36541 H 3540.95 -0.564651 0.489059 0
M  V30 36542 H 3543.61 -0.912112 1.7224 0
M  V30 36543 H 3542.7 -2.41937 1.97163 0
M  V30 36544 N 3543.01 -1.22351 -0.993375 0
M  V30 36545 C 3543.92 -1.00951 -2.11769 0
M  V30 36546 C 3544.93 0.0420373 -1.73949 0
M  V30 36547 O 3546.11 -0.150584 -2.00836 0
M  V30 36548 C 3543.17 -0.589419 -3.41653 0
M  V30 36549 C 3542.23 -1.71453 -3.93576 0
M  V30 36550 C 3541.47 -1.31439 -5.17262 0
M  V30 36551 O 3541.69 -0.192977 -5.70073 0
M  V30 36552 O 3540.62 -2.13069 -5.62926 0
M  V30 36553 H 3544.45 -1.95146 -2.32705 0
M  V30 36554 H 3542.03 -1.00941 -1.10142 0
M  V30 36555 H 3543.92 -0.365477 -4.19812 0
M  V30 36556 H 3542.59 0.323682 -3.22078 0
M  V30 36557 H 3541.5 -1.99299 -3.16592 0
M  V30 36558 H 3542.83 -2.60548 -4.17583 0
M  V30 36559 N 3544.48 1.19014 -1.03313 0
M  V30 36560 C 3545.89 1.70482 -0.761109 0
M  V30 36561 C 3546.25 1.82558 0.718819 0
M  V30 36562 O 3545.37 1.49973 1.56004 0
M  V30 36563 C 3545.97 3.09645 -1.37498 0
M  V30 36564 C 3544.52 3.58355 -1.15145 0
M  V30 36565 C 3543.67 2.35107 -1.47038 0
M  V30 36566 H 3546.62 1.03795 -1.20051 0
M  V30 36567 H 3546.64 3.72541 -0.77418 0
M  V30 36568 H 3546.16 3.00823 -2.45208 0
M  V30 36569 H 3544.26 3.72485 -0.0927476 0
M  V30 36570 H 3544.37 4.42227 -1.84315 0
M  V30 36571 H 3542.73 2.3865 -0.889836 0
M  V30 36572 H 3543.52 2.28911 -2.55841 0
M  V30 36573 N 3545.96 0.811563 1.35098 0
M  V30 36574 C 3547.21 0.393487 1.98232 0
M  V30 36575 C 3547.53 -1.04414 1.6469 0
M  V30 36576 O 3546.8 -1.72316 0.931875 0
M  V30 36577 H 3545.38 0.142508 0.733281 0
M  V30 36578 H 3548.04 1.0385 1.64928 0
M  V30 36579 H 3547.14 0.503242 3.08016 0
M  V30 36580 N 3547.44 -1.47105 0.565506 0
M  V30 36581 C 3548.72 -1.95588 -0.0215014 0
M  V30 36582 C 3549.1 -1.50815 -1.47709 0
M  V30 36583 O 3548.44 -0.750814 -2.15813 0
M  V30 36584 C 3548.65 -3.48748 0.132613 0
M  V30 36585 C 3550 -4.24599 -0.00846127 0
M  V30 36586 O 3551.03 -3.56148 0.0605769 0
M  V30 36587 O 3549.89 -5.4627 -0.158423 0
M  V30 36588 H 3546.98 -0.824858 -0.0594866 0
M  V30 36589 H 3549.53 -1.57468 0.632614 0
M  V30 36590 H 3548.3 -3.74168 1.14518 0
M  V30 36591 H 3547.92 -3.93655 -0.558732 0
M  V30 36592 N 3548.92 -0.302382 -1.54672 0
M  V30 36593 C 3550.33 0.189986 -1.85731 0
M  V30 36594 C 3550.68 1.53314 -1.2243 0
M  V30 36595 O 3549.81 2.09997 -0.522498 0
M  V30 36596 C 3550.4 0.351503 -3.36972 0
M  V30 36597 C 3548.96 0.78809 -3.68057 0
M  V30 36598 C 3548.11 -0.102754 -2.7711 0
M  V30 36599 H 3551.06 -0.52335 -1.49822 0
M  V30 36600 H 3551.08 1.18586 -3.61549 0
M  V30 36601 H 3550.59 -0.626219 -3.83015 0
M  V30 36602 H 3548.69 1.77631 -3.27533 0
M  V30 36603 H 3548.8 0.606521 -4.75245 0
M  V30 36604 H 3547.17 0.418191 -2.51243 0
M  V30 36605 H 3547.95 -1.07685 -3.25974 0
M  V30 36606 N 3550.4 1.57571 -0.0301311 0
M  V30 36607 C 3551.67 1.83138 0.686998 0
M  V30 36608 C 3552.05 0.914249 1.90275 0
M  V30 36609 O 3551.4 -0.0298956 2.2848 0
M  V30 36610 C 3551.61 3.32377 1.06426 0
M  V30 36611 C 3552.96 3.98875 1.45547 0
M  V30 36612 O 3553.98 3.36879 1.15721 0
M  V30 36613 O 3552.84 5.08145 2.01124 0
M  V30 36614 H 3549.94 0.755165 0.337127 0
M  V30 36615 H 3552.48 1.69601 -0.0578902 0
M  V30 36616 H 3551.25 3.90794 0.199008 0
M  V30 36617 H 3550.88 3.51025 1.86728 0
M  V30 36618 N 3551.87 -0.243029 1.55715 0
M  V30 36619 C 3552.8 -1.30458 1.93657 0
M  V30 36620 C 3553.79 -1.50007 0.801994 0
M  V30 36621 O 3554.97 -1.6255 1.06259 0
M  V30 36622 C 3552.1 -2.65859 2.23464 0
M  V30 36623 C 3551.05 -2.61 3.3921 0
M  V30 36624 C 3550.38 -4.00232 3.54568 0
M  V30 36625 C 3551.68 -2.17648 4.74791 0
M  V30 36626 H 3553.37 -0.98949 2.82576 0
M  V30 36627 H 3550.92 -0.474548 1.35956 0
M  V30 36628 H 3552.87 -3.40261 2.48597 0
M  V30 36629 H 3551.6 -2.99012 1.31375 0
M  V30 36630 H 3550.26 -1.89055 3.14092 0
M  V30 36631 H 3549.9 -4.30657 2.59892 0
M  V30 36632 H 3549.6 -3.97868 4.32406 0
M  V30 36633 H 3551.13 -4.76328 3.82026 0
M  V30 36634 H 3552.54 -2.81783 4.99271 0
M  V30 36635 H 3550.94 -2.26387 5.5576 0
M  V30 36636 H 3552.01 -1.12822 4.71592 0
M  V30 36637 N 3553.35 -1.49159 -0.508854 0
M  V30 36638 C 3554.26 -1.67969 -1.63779 0
M  V30 36639 C 3555.28 -0.562236 -1.64666 0
M  V30 36640 O 3556.45 -0.835968 -1.83231 0
M  V30 36641 C 3553.52 -1.73479 -3.00176 0
M  V30 36642 C 3552.58 -2.97005 -3.09978 0
M  V30 36643 C 3551.81 -3.02243 -4.39869 0
M  V30 36644 O 3552.04 -2.15291 -5.2821 0
M  V30 36645 O 3550.97 -3.94629 -4.54479 0
M  V30 36646 H 3554.8 -2.63592 -1.50841 0
M  V30 36647 H 3552.38 -1.32808 -0.684283 0
M  V30 36648 H 3554.26 -1.79502 -3.81257 0
M  V30 36649 H 3552.94 -0.810343 -3.13393 0
M  V30 36650 H 3551.85 -2.96504 -2.28114 0
M  V30 36651 H 3553.18 -3.88904 -3.01686 0
M  V30 36652 N 3554.83 0.759322 -1.38102 0
M  V30 36653 C 3556.08 1.51828 -1.33994 0
M  V30 36654 C 3556.41 1.94367 0.071783 0
M  V30 36655 O 3555.66 1.65295 1.04767 0
M  V30 36656 C 3555.96 2.78782 -2.23641 0
M  V30 36657 C 3555.63 2.55234 -3.71708 0
M  V30 36658 C 3554.29 2.4852 -4.12057 0
M  V30 36659 C 3556.64 2.34515 -4.65459 0
M  V30 36660 C 3553.97 2.19095 -5.44256 0
M  V30 36661 C 3556.32 2.06611 -5.97908 0
M  V30 36662 C 3554.98 1.98351 -6.37349 0
M  V30 36663 H 3554.25 0.555578 -0.49032 0
M  V30 36664 H 3556.9 0.873607 -1.70412 0
M  V30 36665 H 3555.21 3.4787 -1.80259 0
M  V30 36666 H 3556.9 3.36715 -2.1777 0
M  V30 36667 H 3553.49 2.61327 -3.39715 0
M  V30 36668 H 3557.68 2.38684 -4.35136 0
M  V30 36669 H 3552.93 2.11204 -5.73762 0
M  V30 36670 H 3557.11 1.89582 -6.70098 0
M  V30 36671 H 3554.73 1.75315 -7.39709 0
M  V30 36672 N 3556.31 1.22876 0.986873 0
M  V30 36673 C 3557.22 1.02073 2.1123 0
M  V30 36674 C 3558.23 -0.0328118 1.73969 0
M  V30 36675 O 3559.41 0.161232 2.00754 0
M  V30 36676 C 3556.48 0.60753 3.41336 0
M  V30 36677 C 3555.54 1.73538 3.92662 0
M  V30 36678 C 3554.77 1.3418 5.16557 0
M  V30 36679 O 3554.99 0.223206 5.69963 0
M  V30 36680 O 3553.93 2.16051 5.61788 0
M  V30 36681 H 3557.75 1.96378 2.31667 0
M  V30 36682 H 3555.34 1.01524 1.09605 0
M  V30 36683 H 3557.22 0.387735 4.19612 0
M  V30 36684 H 3555.89 -0.306597 3.22245 0
M  V30 36685 H 3554.8 2.00975 3.15531 0
M  V30 36686 H 3556.13 2.62759 4.16196 0
M  V30 36687 N 3557.79 -1.18464 1.03942 0
M  V30 36688 C 3559.2 -1.70076 0.770139 0
M  V30 36689 C 3559.55 -1.82937 -0.709128 0
M  V30 36690 O 3558.67 -1.50798 -1.55206 0
M  V30 36691 C 3559.27 -3.08911 1.39138 0
M  V30 36692 C 3557.83 -3.5774 1.17044 0
M  V30 36693 C 3556.97 -2.34323 1.48283 0
M  V30 36694 H 3559.93 -1.03157 1.206 0
M  V30 36695 H 3559.95 -3.72125 0.793926 0
M  V30 36696 H 3559.46 -2.99519 2.468 0
M  V30 36697 H 3557.56 -3.7243 0.1125 0
M  V30 36698 H 3557.67 -4.41243 1.86658 0
M  V30 36699 H 3556.04 -2.38175 0.902479 0
M  V30 36700 H 3556.82 -2.27551 2.57051 0
M  V30 36701 N 3559.26 -0.818716 -1.34665 0
M  V30 36702 C 3560.51 -0.405394 -1.98707 0
M  V30 36703 C 3560.84 1.02785 -1.64769 0
M  V30 36704 O 3560.12 1.71517 -0.91717 0
M  V30 36705 C 3560.4 -0.603029 -3.55015 0
M  V30 36706 C 3560.25 -2.08208 -3.98709 0
M  V30 36707 C 3561.57 -0.0363262 -4.40085 0
M  V30 36708 H 3558.69 -0.148769 -0.721829 0
M  V30 36709 H 3561.33 -1.0305 -1.59627 0
M  V30 36710 H 3559.48 -0.0709135 -3.88435 0
M  V30 36711 H 3561.16 -2.67751 -3.75642 0
M  V30 36712 H 3559.4 -2.57409 -3.49175 0
M  V30 36713 H 3560.07 -2.1712 -5.07507 0
M  V30 36714 H 3562.55 -0.49091 -4.13194 0
M  V30 36715 H 3561.42 -0.204441 -5.48519 0
M  V30 36716 H 3561.68 1.05838 -4.29244 0
M  V30 36717 N 3560.74 1.46803 -0.573299 0
M  V30 36718 C 3561.99 2.02025 -0.0551877 0
M  V30 36719 C 3562.31 1.44828 1.30575 0
M  V30 36720 O 3561.58 0.629436 1.85513 0
M  V30 36721 H 3560.16 0.746797 -0.0174114 0
M  V30 36722 H 3562.82 1.80018 -0.746951 0
M  V30 36723 H 3561.92 3.12093 0.0208778 0
M  V30 36724 N 3562.22 0.31058 1.54509 0
M  V30 36725 C 3563.45 -0.300977 2.05205 0
M  V30 36726 C 3563.87 -1.46005 1.18592 0
M  V30 36727 O 3563.23 -1.80279 0.192112 0
M  V30 36728 C 3563.28 -0.725705 3.53222 0
M  V30 36729 O 3562.38 -1.82949 3.69599 0
M  V30 36730 H 3561.72 -0.056791 0.661567 0
M  V30 36731 H 3564.25 0.455213 1.99472 0
M  V30 36732 H 3564.26 -1.01191 3.95252 0
M  V30 36733 H 3562.94 0.122119 4.15721 0
M  V30 36734 H 3561.51 -1.54309 3.39475 0
M  V30 36735 N 3563.7 -1.57553 0.0384871 0
M  V30 36736 C 3564.66 -2.09691 -0.925321 0
M  V30 36737 C 3565.66 -1.01387 -1.24809 0
M  V30 36738 O 3566.85 -1.2751 -1.18688 0
M  V30 36739 C 3563.98 -2.57059 -2.23906 0
M  V30 36740 H 3565.18 -2.96137 -0.473581 0
M  V30 36741 H 3562.73 -1.54887 -0.209709 0
M  V30 36742 H 3563.47 -1.73969 -2.73688 0
M  V30 36743 H 3563.25 -3.36191 -2.01787 0
M  V30 36744 H 3564.74 -2.97588 -2.92969 0
M  V30 36745 N 3565.18 0.234767 -1.55842 0
M  V30 36746 C 3566.59 0.802857 -1.68556 0
M  V30 36747 C 3566.94 1.85532 -0.63814 0
M  V30 36748 O 3566.06 2.15346 0.213292 0
M  V30 36749 C 3566.66 1.46304 -3.05582 0
M  V30 36750 C 3565.22 1.97868 -3.20196 0
M  V30 36751 C 3564.37 0.83409 -2.64458 0
M  V30 36752 H 3567.32 0.010348 -1.58697 0
M  V30 36753 H 3567.34 2.33147 -3.00704 0
M  V30 36754 H 3566.85 0.696801 -3.81794 0
M  V30 36755 H 3564.95 2.77335 -2.4883 0
M  V30 36756 H 3565.06 2.16773 -4.27254 0
M  V30 36757 H 3563.43 1.23787 -2.22596 0
M  V30 36758 H 3564.21 0.0807385 -3.43205 0
M  V30 36759 N 3566.66 1.49427 0.500936 0
M  V30 36760 C 3568.07 1.52118 1.08246 0
M  V30 36761 C 3568.42 0.307414 1.93777 0
M  V30 36762 O 3567.54 -0.582769 2.08405 0
M  V30 36763 C 3568.14 2.75651 1.96983 0
M  V30 36764 C 3566.7 2.81119 2.50298 0
M  V30 36765 C 3565.84 2.46032 1.2792 0
M  V30 36766 H 3568.79 1.56123 0.284845 0
M  V30 36767 H 3568.82 2.55816 2.81671 0
M  V30 36768 H 3568.33 3.63973 1.34705 0
M  V30 36769 H 3566.43 1.97077 3.16214 0
M  V30 36770 H 3566.54 3.83291 2.87446 0
M  V30 36771 H 3564.91 1.97813 1.60443 0
M  V30 36772 H 3565.69 3.36629 0.673498 0
M  V30 36773 N 3568.13 -0.751987 1.38502 0
M  V30 36774 C 3569.36 -1.54634 1.38214 0
M  V30 36775 C 3569.78 -1.88083 -0.0256025 0
M  V30 36776 O 3569.14 -1.50689 -1.0081 0
M  V30 36777 C 3569.19 -2.8211 2.24602 0
M  V30 36778 O 3568.29 -3.77329 1.66422 0
M  V30 36779 H 3567.63 -0.467642 0.471389 0
M  V30 36780 H 3570.16 -0.929173 1.82284 0
M  V30 36781 H 3570.17 -3.31019 2.38517 0
M  V30 36782 H 3568.85 -2.57095 3.26917 0
M  V30 36783 H 3567.43 -3.36038 1.61657 0
M  V30 36784 N 3569.61 -1.23398 -0.980343 0
M  V30 36785 C 3570.52 -1.03192 -2.10686 0
M  V30 36786 C 3571.54 0.0235853 -1.73984 0
M  V30 36787 O 3572.71 -0.171876 -2.00665 0
M  V30 36788 C 3569.78 -0.625623 -3.41009 0
M  V30 36789 C 3568.84 -1.75618 -3.91736 0
M  V30 36790 C 3568.07 -1.36918 -5.15838 0
M  V30 36791 O 3568.3 -0.25343 -5.69837 0
M  V30 36792 O 3567.23 -2.19028 -5.60634 0
M  V30 36793 H 3571.06 -1.97603 -2.30622 0
M  V30 36794 H 3568.64 -1.02104 -1.09065 0
M  V30 36795 H 3570.52 -0.409983 -4.19401 0
M  V30 36796 H 3569.2 0.289503 -3.22403 0
M  V30 36797 H 3568.1 -2.02646 -3.14461 0
M  V30 36798 H 3569.44 -2.64962 -4.14796 0
M  V30 36799 N 3571.09 1.17911 -1.04569 0
M  V30 36800 C 3572.34 1.87646 -0.750571 0
M  V30 36801 C 3572.66 1.81053 0.724198 0
M  V30 36802 O 3571.93 1.23226 1.5229 0
M  V30 36803 H 3570.51 0.694678 -0.274649 0
M  V30 36804 H 3573.17 1.4307 -1.32352 0
M  V30 36805 H 3572.27 2.93551 -1.05992 0
M  V30 36806 N 3572.57 0.825847 1.34229 0
M  V30 36807 C 3573.48 0.251844 2.33244 0
M  V30 36808 C 3574.49 -0.615306 1.62757 0
M  V30 36809 O 3575.67 -0.522513 1.94504 0
M  V30 36810 C 3572.73 -0.574396 3.41909 0
M  V30 36811 C 3571.8 0.315497 4.28139 0
M  V30 36812 C 3571.03 -0.471403 5.31614 0
M  V30 36813 O 3571.25 -1.7044 5.4434 0
M  V30 36814 O 3570.19 0.147796 6.01719 0
M  V30 36815 H 3574.01 1.07144 2.84172 0
M  V30 36816 H 3571.6 0.588056 1.3734 0
M  V30 36817 H 3573.48 -1.04437 4.08254 0
M  V30 36818 H 3572.15 -1.37127 2.9322 0
M  V30 36819 H 3571.06 0.833027 3.64707 0
M  V30 36820 H 3572.39 1.0768 4.80277 0
M  V30 36821 N 3574.05 -1.46497 0.581077 0
M  V30 36822 C 3575.29 -2.04285 0.0686936 0
M  V30 36823 C 3575.65 -1.44298 -1.26658 0
M  V30 36824 O 3576.85 -1.93276 -1.86809 0
M  V30 36825 C 3575.12 -3.574 0.00219362 0
M  V30 36826 S 3576.68 -4.36457 -0.452851 0
M  V30 36827 H 3573.5 -0.710053 0.0366811 0
M  V30 36828 H 3576.1 -1.7956 0.773205 0
M  V30 36829 H 3574.8 -3.98577 0.977978 0
M  V30 36830 H 3574.34 -3.86659 -0.725139 0
M  V30 36831 H 3576.35 -4.6588 -1.70792 0
M  V30 36832 N 3575.52 -0.31877 -1.54343 0
M  V30 36833 C 3576.43 0.558402 -2.27857 0
M  V30 36834 C 3577.45 1.13331 -1.32031 0
M  V30 36835 O 3578.63 1.1543 -1.65039 0
M  V30 36836 C 3575.69 1.7056 -3.01845 0
M  V30 36837 C 3574.75 1.16298 -4.13247 0
M  V30 36838 C 3573.98 2.2555 -4.83697 0
M  V30 36839 O 3574.21 3.45802 -4.53627 0
M  V30 36840 O 3573.14 1.91239 -5.70711 0
M  V30 36841 H 3576.97 -0.0384781 -3.03676 0
M  V30 36842 H 3574.55 -0.0846198 -1.4916 0
M  V30 36843 H 3576.43 2.37359 -3.48193 0
M  V30 36844 H 3575.11 2.28875 -2.28906 0
M  V30 36845 H 3574.02 0.460208 -3.71259 0
M  V30 36846 H 3575.35 0.625026 -4.88215 0
M  V30 36847 N 3577 1.5753 -0.0468419 0
M  V30 36848 C 3578.25 1.92804 0.628835 0
M  V30 36849 C 3578.58 0.925113 1.70749 0
M  V30 36850 O 3577.86 -0.0495479 1.94437 0
M  V30 36851 C 3578.14 3.38481 1.22893 0
M  V30 36852 C 3577.99 4.4952 0.158628 0
M  V30 36853 C 3579.31 3.84465 2.14183 0
M  V30 36854 H 3576.43 0.70113 0.227125 0
M  V30 36855 H 3579.07 1.89694 -0.107722 0
M  V30 36856 H 3577.22 3.41262 1.85668 0
M  V30 36857 H 3578.89 4.58868 -0.473044 0
M  V30 36858 H 3577.14 4.30746 -0.513826 0
M  V30 36859 H 3577.81 5.48525 0.618449 0
M  V30 36860 H 3580.28 3.83533 1.61375 0
M  V30 36861 H 3579.16 4.87056 2.53117 0
M  V30 36862 H 3579.42 3.20975 3.04018 0
M  V30 36863 N 3578.48 -0.226499 1.55964 0
M  V30 36864 C 3579.73 -0.949639 1.77946 0
M  V30 36865 C 3580.04 -1.85696 0.614511 0
M  V30 36866 O 3581.25 -2.61838 0.717839 0
M  V30 36867 C 3579.7 -1.73876 3.15111 0
M  V30 36868 C 3579.31 -0.877817 4.39316 0
M  V30 36869 C 3581.06 -2.45341 3.46422 0
M  V30 36870 C 3578.96 -1.664 5.67508 0
M  V30 36871 H 3577.89 -0.358318 0.663419 0
M  V30 36872 H 3580.54 -0.203663 1.82366 0
M  V30 36873 H 3578.93 -2.52745 3.04854 0
M  V30 36874 H 3580.1 -0.130008 4.60617 0
M  V30 36875 H 3578.42 -0.275527 4.15487 0
M  V30 36876 H 3581.01 -3.04652 4.39421 0
M  V30 36877 H 3581.36 -3.1798 2.6869 0
M  V30 36878 H 3581.89 -1.73465 3.57987 0
M  V30 36879 H 3578.63 -0.980975 6.48118 0
M  V30 36880 H 3578.15 -2.38655 5.50276 0
M  V30 36881 H 3579.83 -2.22595 6.07504 0
M  V30 36882 N 3579.96 -1.4969 -0.493005 0
M  V30 36883 C 3581.24 -1.50086 -1.25434 0
M  V30 36884 C 3581.62 -0.233075 -2.09809 0
M  V30 36885 O 3580.96 0.784304 -2.14618 0
M  V30 36886 C 3581.17 -2.78432 -2.1042 0
M  V30 36887 C 3582.52 -3.28237 -2.69343 0
M  V30 36888 O 3583.55 -2.79604 -2.20681 0
M  V30 36889 O 3582.4 -4.12959 -3.57949 0
M  V30 36890 H 3579.5 -0.601054 -0.568034 0
M  V30 36891 H 3582.04 -1.61961 -0.50662 0
M  V30 36892 H 3580.82 -3.6219 -1.48102 0
M  V30 36893 H 3580.44 -2.69455 -2.92369 0
M  V30 36894 N 3581.44 0.744631 -1.38899 0
M  V30 36895 C 3582.66 1.53899 -1.39032 0
M  V30 36896 C 3583.09 1.88094 0.0156277 0
M  V30 36897 O 3582.44 1.51221 1.00009 0
M  V30 36898 C 3582.49 2.80915 -2.26095 0
M  V30 36899 O 3581.6 3.76441 -1.68421 0
M  V30 36900 H 3580.94 0.465135 -0.473862 0
M  V30 36901 H 3583.47 0.919493 -1.82774 0
M  V30 36902 H 3583.48 3.29749 -2.40269 0
M  V30 36903 H 3582.15 2.55358 -3.28276 0
M  V30 36904 H 3580.73 3.35176 -1.63437 0
M  V30 36905 N 3582.91 1.23916 0.973785 0
M  V30 36906 C 3584.19 0.98333 1.69086 0
M  V30 36907 C 3584.57 -0.496153 2.05187 0
M  V30 36908 O 3583.92 -1.46898 1.75023 0
M  V30 36909 C 3584.13 1.90017 2.92736 0
M  V30 36910 C 3585.48 2.16752 3.65108 0
M  V30 36911 O 3586.5 1.87621 3.02782 0
M  V30 36912 O 3585.36 2.66192 4.77289 0
M  V30 36913 H 3582.45 0.371399 0.738913 0
M  V30 36914 H 3585 1.34988 1.02842 0
M  V30 36915 H 3583.77 2.90003 2.62705 0
M  V30 36916 H 3583.4 1.53641 3.66715 0
M  V30 36917 N 3584.39 -1.17355 1.05193 0
M  V30 36918 C 3585.62 -1.92077 0.782377 0
M  V30 36919 C 3586.04 -1.76293 -0.655926 0
M  V30 36920 O 3585.4 -1.08068 -1.45571 0
M  V30 36921 C 3585.45 -3.41166 1.16783 0
M  V30 36922 O 3584.55 -4.11308 0.29998 0
M  V30 36923 H 3583.89 -0.598817 0.286905 0
M  V30 36924 H 3586.42 -1.48751 1.40479 0
M  V30 36925 H 3586.43 -3.91907 1.1346 0
M  V30 36926 H 3585.11 -3.51974 2.21556 0
M  V30 36927 H 3583.69 -3.70815 0.393809 0
M  V30 36928 N 3585.87 -0.832954 -1.3379 0
M  V30 36929 C 3586.82 -0.25993 -2.29332 0
M  V30 36930 C 3587.79 0.620938 -1.54057 0
M  V30 36931 O 3588.97 0.56046 -1.82383 0
M  V30 36932 C 3586.11 0.563905 -3.40462 0
M  V30 36933 C 3585.23 -0.340325 -4.30657 0
M  V30 36934 C 3584.36 0.494041 -5.28898 0
M  V30 36935 C 3583.4 -0.40895 -6.10732 0
M  V30 36936 N 3582.54 0.386937 -7.01033 0
M  V30 36937 H 3587.38 -1.08 -2.77741 0
M  V30 36938 H 3584.91 -0.544067 -1.36669 0
M  V30 36939 H 3586.87 1.05697 -4.03589 0
M  V30 36940 H 3585.5 1.349 -2.93261 0
M  V30 36941 H 3584.55 -0.951665 -3.68304 0
M  V30 36942 H 3585.87 -1.03424 -4.8796 0
M  V30 36943 H 3585.02 1.05117 -5.97524 0
M  V30 36944 H 3583.76 1.22142 -4.72157 0
M  V30 36945 H 3582.76 -0.978141 -5.41029 0
M  V30 36946 H 3583.99 -1.1346 -6.69555 0
M  V30 36947 H 3581.93 1.0978 -6.46749 0
M  V30 36948 H 3581.85 -0.248382 -7.55592 0
M  V30 36949 H 3583.12 0.926495 -7.73974 0
M  V30 36950 N 3587.35 1.46186 -0.588837 0
M  V30 36951 C 3588.57 2.07243 -0.0806936 0
M  V30 36952 C 3589 1.43371 1.21764 0
M  V30 36953 O 3588.36 0.519671 1.73693 0
M  V30 36954 C 3588.4 3.60541 0.0652036 0
M  V30 36955 O 3587.51 3.96895 1.12019 0
M  V30 36956 H 3586.85 0.660754 -0.0655739 0
M  V30 36957 H 3589.38 1.87731 -0.813522 0
M  V30 36958 H 3589.39 4.07109 0.269422 0
M  V30 36959 H 3588.06 4.0642 -0.882911 0
M  V30 36960 H 3586.64 3.62027 0.893936 0
M  V30 36961 N 3588.83 0.32695 1.54171 0
M  V30 36962 C 3590.07 -0.267763 2.0163 0
M  V30 36963 C 3590.43 -1.49512 1.21095 0
M  V30 36964 O 3589.72 -1.89455 0.285887 0
M  V30 36965 C 3589.91 -0.650491 3.5143 0
M  V30 36966 C 3589.74 0.538227 4.46467 0
M  V30 36967 C 3588.51 1.03839 4.94516 0
M  V30 36968 C 3590.71 1.39148 4.95118 0
M  V30 36969 N 3588.69 2.19116 5.73464 0
M  V30 36970 C 3590.06 2.39138 5.72025 0
M  V30 36971 C 3592.12 1.41886 4.77256 0
M  V30 36972 C 3590.82 3.41673 6.32971 0
M  V30 36973 C 3592.85 2.43293 5.39038 0
M  V30 36974 C 3592.21 3.4201 6.15799 0
M  V30 36975 H 3588.31 -0.0617345 0.779559 0
M  V30 36976 H 3590.89 0.462757 1.89121 0
M  V30 36977 H 3589.06 -1.35014 3.64178 0
M  V30 36978 H 3590.8 -1.22696 3.85652 0
M  V30 36979 H 3587.55 0.609126 4.69666 0
M  V30 36980 H 3587.98 2.77273 6.17615 0
M  V30 36981 H 3592.62 0.669312 4.17469 0
M  V30 36982 H 3590.34 4.17532 6.91876 0
M  V30 36983 H 3593.92 2.46217 5.27132 0
M  V30 36984 H 3592.8 4.19193 6.62757 0
M  V30 36985 N 3590.3 -1.57503 0.0551955 0
M  V30 36986 C 3591.53 -1.97579 -0.630657 0
M  V30 36987 C 3591.95 -0.932715 -1.63346 0
M  V30 36988 O 3591.31 0.1036 -1.81004 0
M  V30 36989 C 3591.36 -3.3672 -1.29043 0
M  V30 36990 O 3590.46 -3.3493 -2.40615 0
M  V30 36991 H 3589.81 -0.643527 -0.163614 0
M  V30 36992 H 3592.34 -2.04219 0.124789 0
M  V30 36993 H 3592.35 -3.73537 -1.64117 0
M  V30 36994 H 3591.02 -4.12173 -0.555517 0
M  V30 36995 H 3589.6 -3.09864 -2.07458 0
M  V30 36996 N 3591.78 0.218225 -1.56082 0
M  V30 36997 C 3593.01 0.958932 -1.83336 0
M  V30 36998 C 3593.43 1.7781 -0.634751 0
M  V30 36999 O 3592.78 1.78136 0.396697 0
M  V30 37000 C 3592.83 1.87382 -3.09145 0
M  V30 37001 O 3592.55 1.08776 -4.24381 0
M  V30 37002 C 3594.06 2.72814 -3.4941 0
M  V30 37003 H 3591.28 0.280887 -0.60938 0
M  V30 37004 H 3593.82 0.232451 -2.03175 0
M  V30 37005 H 3591.97 2.55421 -2.91272 0
M  V30 37006 H 3592.39 1.7091 -4.95873 0
M  V30 37007 H 3593.86 3.32705 -4.40467 0
M  V30 37008 H 3594.34 3.45375 -2.71317 0
M  V30 37009 H 3594.95 2.10183 -3.69734 0
M  V30 37010 N 3593.26 1.4995 0.485059 0
M  V30 37011 C 3594.51 1.60476 1.23997 0
M  V30 37012 C 3594.84 0.29777 1.91904 0
M  V30 37013 O 3594.12 -0.699825 1.81474 0
M  V30 37014 C 3594.4 2.77529 2.29455 0
M  V30 37015 C 3594.25 4.1807 1.65945 0
M  V30 37016 C 3595.57 2.90175 3.30887 0
M  V30 37017 H 3592.69 0.584091 0.449451 0
M  V30 37018 H 3595.33 1.8229 0.535763 0
M  V30 37019 H 3593.48 2.59061 2.89516 0
M  V30 37020 H 3595.15 4.48094 1.09588 0
M  V30 37021 H 3593.4 4.22976 0.963004 0
M  V30 37022 H 3594.07 4.95875 2.42513 0
M  V30 37023 H 3596.54 3.07036 2.80835 0
M  V30 37024 H 3595.42 3.73725 4.02021 0
M  V30 37025 H 3595.68 2.00197 3.94175 0
M  V30 37026 N 3594.74 -0.737255 1.39292 0
M  V30 37027 C 3595.96 -1.53159 1.39847 0
M  V30 37028 C 3596.39 -1.88099 -0.0056524 0
M  V30 37029 O 3595.75 -1.51749 -0.992058 0
M  V30 37030 C 3595.8 -2.79712 2.27582 0
M  V30 37031 O 3594.9 -3.75543 1.70415 0
M  V30 37032 H 3594.24 -0.462616 0.476322 0
M  V30 37033 H 3596.77 -0.909787 1.83259 0
M  V30 37034 H 3596.78 -3.2847 2.42015 0
M  V30 37035 H 3595.46 -2.53614 3.29626 0
M  V30 37036 H 3594.03 -3.34304 1.65212 0
M  V30 37037 N 3596.22 -1.24431 -0.967199 0
M  V30 37038 C 3597.49 -0.992283 -1.68562 0
M  V30 37039 C 3597.87 0.485265 -2.05447 0
M  V30 37040 O 3597.22 1.45968 -1.758 0
M  V30 37041 C 3597.43 -1.91567 -2.91724 0
M  V30 37042 C 3598.78 -2.18685 -3.63953 0
M  V30 37043 O 3599.8 -1.89224 -3.01783 0
M  V30 37044 O 3598.66 -2.68719 -4.7587 0
M  V30 37045 H 3595.76 -0.375312 -0.736933 0
M  V30 37046 H 3598.3 -1.35531 -1.02124 0
M  V30 37047 H 3597.08 -2.91392 -2.61163 0
M  V30 37048 H 3596.7 -1.55584 -3.65895 0
M  V30 37049 N 3597.7 1.16795 -1.05814 0
M  V30 37050 C 3598.63 2.20581 -0.622623 0
M  V30 37051 C 3599.64 1.59686 0.316877 0
M  V30 37052 O 3600.83 1.78169 0.108626 0
M  V30 37053 C 3597.93 3.38728 0.108065 0
M  V30 37054 C 3597.1 4.29186 -0.843705 0
M  V30 37055 C 3596.16 5.25977 -0.153143 0
M  V30 37056 O 3595.19 5.63702 -0.78925 0
M  V30 37057 N 3596.39 5.69845 1.10711 0
M  V30 37058 H 3599.15 2.58567 -1.51536 0
M  V30 37059 H 3596.72 1.31757 -0.940838 0
M  V30 37060 H 3598.71 4.00518 0.580325 0
M  V30 37061 H 3597.28 2.99287 0.902547 0
M  V30 37062 H 3596.5 3.64733 -1.49545 0
M  V30 37063 H 3597.79 4.86508 -1.48954 0
M  V30 37064 H 3597.18 5.41281 1.64413 0
M  V30 37065 H 3595.74 6.33749 1.52333 0
M  V30 37066 N 3599.17 0.840037 1.33346 0
M  V30 37067 C 3600.08 0.276568 2.32964 0
M  V30 37068 C 3601.1 -0.598008 1.63401 0
M  V30 37069 O 3602.28 -0.501854 1.95047 0
M  V30 37070 C 3599.34 -0.538099 3.42499 0
M  V30 37071 C 3598.4 0.36089 4.2778 0
M  V30 37072 C 3597.63 -0.414992 5.32084 0
M  V30 37073 O 3597.86 -1.64657 5.46118 0
M  V30 37074 O 3596.79 0.211608 6.01528 0
M  V30 37075 H 3600.62 1.10152 2.8302 0
M  V30 37076 H 3598.2 0.60259 1.36708 0
M  V30 37077 H 3600.08 -1.00101 4.09338 0
M  V30 37078 H 3598.76 -1.34009 2.94658 0
M  V30 37079 H 3597.67 0.871662 3.63803 0
M  V30 37080 H 3599 1.12768 4.79108 0
M  V30 37081 N 3600.65 -1.45872 0.596582 0
M  V30 37082 C 3601.93 -1.9559 0.0199906 0
M  V30 37083 C 3602.31 -1.53915 -1.44477 0
M  V30 37084 O 3601.66 -0.796422 -2.14171 0
M  V30 37085 C 3601.87 -3.48388 0.206558 0
M  V30 37086 C 3603.21 -4.24522 0.0816044 0
M  V30 37087 O 3604.24 -3.5594 0.136108 0
M  V30 37088 O 3603.1 -5.46483 -0.0425156 0
M  V30 37089 H 3600.19 -0.825934 -0.0419768 0
M  V30 37090 H 3602.74 -1.5609 0.665873 0
M  V30 37091 H 3601.51 -3.71654 1.22429 0
M  V30 37092 H 3601.13 -3.94751 -0.475106 0
M  V30 37093 N 3602.13 -0.335122 -1.53996 0
M  V30 37094 C 3603.35 0.268292 -2.05657 0
M  V30 37095 C 3603.78 1.441 -1.209 0
M  V30 37096 O 3603.14 1.79951 -0.220769 0
M  V30 37097 C 3603.19 0.669419 -3.54332 0
M  V30 37098 O 3602.29 1.77045 -3.72463 0
M  V30 37099 H 3601.63 0.0462588 -0.662387 0
M  V30 37100 H 3604.16 -0.486889 -1.98722 0
M  V30 37101 H 3604.17 0.948902 -3.96812 0
M  V30 37102 H 3602.85 -0.188241 -4.15474 0
M  V30 37103 H 3601.42 1.48889 -3.41887 0
M  V30 37104 N 3603.61 1.57472 -0.0635475 0
M  V30 37105 C 3604.85 1.9346 0.60835 0
M  V30 37106 C 3605.19 0.943171 1.69758 0
M  V30 37107 O 3604.46 -0.0289225 1.94478 0
M  V30 37108 C 3604.74 3.39765 1.19296 0
M  V30 37109 C 3604.6 4.49663 0.110941 0
M  V30 37110 C 3605.92 3.86715 2.10094 0
M  V30 37111 H 3603.04 0.7035 0.219675 0
M  V30 37112 H 3605.68 1.89569 -0.127836 0
M  V30 37113 H 3603.83 3.43212 1.82038 0
M  V30 37114 H 3605.5 4.58341 -0.521686 0
M  V30 37115 H 3603.74 4.30177 -0.559484 0
M  V30 37116 H 3604.41 5.4915 0.560236 0
M  V30 37117 H 3606.89 3.85223 1.57298 0
M  V30 37118 H 3605.77 4.89713 2.47937 0
M  V30 37119 H 3606.03 3.24182 3.00597 0
M  V30 37120 N 3605.09 -0.209945 1.56195 0
M  V30 37121 C 3606.33 -0.930712 1.78943 0
M  V30 37122 C 3606.65 -1.85034 0.634172 0
M  V30 37123 O 3607.85 -2.61062 0.74557 0
M  V30 37124 C 3606.31 -1.70524 3.16938 0
M  V30 37125 C 3605.92 -0.831172 4.40222 0
M  V30 37126 C 3607.66 -2.41653 3.49005 0
M  V30 37127 C 3605.57 -1.60371 5.69241 0
M  V30 37128 H 3604.5 -0.351261 0.667182 0
M  V30 37129 H 3607.15 -0.184309 1.82572 0
M  V30 37130 H 3605.53 -2.49498 3.07517 0
M  V30 37131 H 3606.71 -0.081146 4.60729 0
M  V30 37132 H 3605.02 -0.231444 4.15756 0
M  V30 37133 H 3607.62 -2.99974 4.42628 0
M  V30 37134 H 3607.96 -3.15112 2.72048 0
M  V30 37135 H 3608.49 -1.69658 3.59807 0
M  V30 37136 H 3605.23 -0.912178 6.49122 0
M  V30 37137 H 3604.75 -2.32805 5.52776 0
M  V30 37138 H 3606.43 -2.16139 6.0983 0
M  V30 37139 N 3606.56 -1.50205 -0.4771 0
M  V30 37140 C 3607.8 -1.62527 -1.23953 0
M  V30 37141 C 3608.17 -0.315823 -1.89385 0
M  V30 37142 O 3609.37 -0.314425 -2.66955 0
M  V30 37143 C 3607.64 -2.76878 -2.25994 0
M  V30 37144 S 3609.2 -3.09298 -3.11256 0
M  V30 37145 H 3606.02 -0.573015 -0.420921 0
M  V30 37146 H 3608.62 -1.87964 -0.537559 0
M  V30 37147 H 3607.32 -3.7051 -1.76495 0
M  V30 37148 H 3606.85 -2.53508 -3.00828 0
M  V30 37149 H 3608.87 -2.52659 -4.27057 0
M  V30 37150 N 3608.04 0.729857 -1.39681 0
M  V30 37151 C 3609.28 1.50211 -1.38622 0
M  V30 37152 C 3609.65 1.91993 0.0167071 0
M  V30 37153 O 3610.85 2.68368 0.152333 0
M  V30 37154 C 3609.12 2.70502 -2.33588 0
M  V30 37155 S 3610.68 3.60089 -2.50762 0
M  V30 37156 H 3607.5 0.51374 -0.49152 0
M  V30 37157 H 3610.1 0.854752 -1.75824 0
M  V30 37158 H 3608.8 2.37955 -3.34373 0
M  V30 37159 H 3608.33 3.40162 -1.97619 0
M  V30 37160 H 3610.35 4.6434 -1.74937 0
M  V30 37161 N 3609.52 1.24942 0.960587 0
M  V30 37162 C 3610.75 1.12156 1.74458 0
M  V30 37163 C 3611.17 -0.321282 1.85336 0
M  V30 37164 O 3610.53 -1.23268 1.32946 0
M  V30 37165 C 3610.58 1.77405 3.13942 0
M  V30 37166 O 3609.68 1.04965 3.98818 0
M  V30 37167 H 3609.02 0.391919 0.536 0
M  V30 37168 H 3611.55 1.6539 1.20447 0
M  V30 37169 H 3611.56 1.8345 3.64431 0
M  V30 37170 H 3610.24 2.82382 3.05341 0
M  V30 37171 H 3608.81 1.06758 3.57291 0
M  V30 37172 N 3611 -1.16233 1.06432 0
M  V30 37173 C 3611.93 -2.196 0.620573 0
M  V30 37174 C 3612.91 -1.58624 -0.357362 0
M  V30 37175 O 3614.09 -1.86614 -0.266005 0
M  V30 37176 C 3611.22 -3.3858 -0.0900466 0
M  V30 37177 C 3610.27 -4.18048 0.844862 0
M  V30 37178 S 3611.1 -4.81626 2.34086 0
M  V30 37179 C 3612.26 -6.03984 1.64177 0
M  V30 37180 H 3612.49 -2.56901 1.4963 0
M  V30 37181 H 3610.02 -1.27046 0.87742 0
M  V30 37182 H 3611.98 -4.07519 -0.493819 0
M  V30 37183 H 3610.64 -2.99642 -0.94199 0
M  V30 37184 H 3609.83 -5.0314 0.294224 0
M  V30 37185 H 3609.44 -3.54611 1.18858 0
M  V30 37186 H 3611.73 -6.70832 0.948161 0
M  V30 37187 H 3612.67 -6.636 2.47065 0
M  V30 37188 H 3613.08 -5.53201 1.12376 0
M  V30 37189 N 3612.48 -0.847097 -1.32899 0
M  V30 37190 C 3613.7 -0.459623 -2.02243 0
M  V30 37191 C 3614.13 0.933869 -1.6328 0
M  V30 37192 O 3613.48 1.61207 -0.82958 0
M  V30 37193 C 3613.53 -0.597512 -3.55615 0
M  V30 37194 O 3612.64 0.372847 -4.10711 0
M  V30 37195 H 3611.98 -0.185712 -0.637501 0
M  V30 37196 H 3614.51 -1.1442 -1.69615 0
M  V30 37197 H 3614.52 -0.482217 -4.0514 0
M  V30 37198 H 3613.19 -1.61372 -3.83317 0
M  V30 37199 H 3611.77 0.214421 -3.72283 0
M  V30 37200 N 3613.95 1.45554 -0.604309 0
M  V30 37201 C 3615.18 2.06336 -0.104337 0
M  V30 37202 C 3615.59 1.45015 1.2152 0
M  V30 37203 O 3614.94 0.557453 1.75038 0
M  V30 37204 C 3615 3.59322 0.113139 0
M  V30 37205 C 3614.66 4.42959 -1.1241 0
M  V30 37206 C 3615.66 4.78143 -2.04145 0
M  V30 37207 C 3613.34 4.83762 -1.352 0
M  V30 37208 C 3615.34 5.52982 -3.17001 0
M  V30 37209 C 3613.02 5.58356 -2.48358 0
M  V30 37210 C 3614.02 5.92882 -3.39087 0
M  V30 37211 O 3613.71 6.65963 -4.50276 0
M  V30 37212 H 3613.44 0.672918 -0.0644758 0
M  V30 37213 H 3616 1.87838 -0.831015 0
M  V30 37214 H 3614.23 3.76208 0.894673 0
M  V30 37215 H 3615.92 4.01958 0.564301 0
M  V30 37216 H 3616.68 4.47181 -1.87761 0
M  V30 37217 H 3612.56 4.56326 -0.654812 0
M  V30 37218 H 3616.1 5.79849 -3.87841 0
M  V30 37219 H 3612 5.88733 -2.64696 0
M  V30 37220 H 3612.77 6.8441 -4.48916 0
M  V30 37221 N 3615.43 0.343284 1.53816 0
M  V30 37222 C 3616.66 -0.257382 2.05797 0
M  V30 37223 C 3617.08 -1.43457 1.21662 0
M  V30 37224 O 3616.44 -1.79831 0.230309 0
M  V30 37225 C 3616.49 -0.650618 3.54682 0
M  V30 37226 O 3615.59 -1.75068 3.73397 0
M  V30 37227 H 3614.93 -0.0427454 0.662623 0
M  V30 37228 H 3617.46 0.497421 1.98461 0
M  V30 37229 H 3617.47 -0.927844 3.9731 0
M  V30 37230 H 3616.15 0.210272 4.15368 0
M  V30 37231 H 3614.73 -1.47074 3.42672 0
M  V30 37232 N 3616.91 -1.57436 0.0718977 0
M  V30 37233 C 3618.16 -1.94592 -0.592073 0
M  V30 37234 C 3618.51 -0.951707 -1.67213 0
M  V30 37235 O 3617.8 0.0259944 -1.91582 0
M  V30 37236 C 3618 -3.36175 -1.2133 0
M  V30 37237 C 3617.83 -4.49277 -0.194946 0
M  V30 37238 C 3616.6 -5.04819 0.220424 0
M  V30 37239 C 3618.8 -5.11156 0.567842 0
M  V30 37240 N 3616.78 -6.01463 1.22947 0
M  V30 37241 C 3618.15 -6.03298 1.42937 0
M  V30 37242 C 3620.2 -4.93976 0.623898 0
M  V30 37243 C 3618.91 -6.80106 2.34197 0
M  V30 37244 C 3620.93 -5.71426 1.52401 0
M  V30 37245 C 3620.29 -6.63218 2.37321 0
M  V30 37246 H 3616.39 -0.759145 -0.187678 0
M  V30 37247 H 3618.98 -1.94129 0.149065 0
M  V30 37248 H 3617.15 -3.37376 -1.92436 0
M  V30 37249 H 3618.88 -3.60567 -1.83775 0
M  V30 37250 H 3615.64 -4.7332 -0.162715 0
M  V30 37251 H 3616.06 -6.54483 1.73151 0
M  V30 37252 H 3620.7 -4.22796 -0.01845 0
M  V30 37253 H 3618.42 -7.50563 2.99468 0
M  V30 37254 H 3622.01 -5.60154 1.57222 0
M  V30 37255 H 3620.89 -7.22102 3.05841 0
M  V30 37256 N 3618.39 0.201658 -1.56305 0
M  V30 37257 C 3619.62 0.939433 -1.84343 0
M  V30 37258 C 3620.03 1.77127 -0.653575 0
M  V30 37259 O 3619.39 1.78547 0.377781 0
M  V30 37260 C 3619.44 1.84092 -3.11115 0
M  V30 37261 O 3619.16 1.04268 -4.25511 0
M  V30 37262 C 3620.66 2.69093 -3.52284 0
M  V30 37263 H 3617.88 0.274408 -0.612324 0
M  V30 37264 H 3620.43 0.210888 -2.0341 0
M  V30 37265 H 3618.58 2.52317 -2.93964 0
M  V30 37266 H 3618.99 1.65641 -4.97658 0
M  V30 37267 H 3620.47 3.28015 -4.43971 0
M  V30 37268 H 3620.95 3.42477 -2.74965 0
M  V30 37269 H 3621.55 2.0625 -3.71942 0
M  V30 37270 N 3619.87 1.50456 0.469128 0
M  V30 37271 C 3621.11 1.61224 1.21865 0
M  V30 37272 C 3621.44 0.315569 1.9243 0
M  V30 37273 O 3620.71 -0.667051 1.84193 0
M  V30 37274 H 3619.29 0.594109 0.452818 0
M  V30 37275 H 3621.95 1.87242 0.54096 0
M  V30 37276 H 3621.04 2.42435 1.9655 0
M  V30 37277 N 3621.34 -0.722439 1.40066 0
M  V30 37278 C 3622.31 -1.81822 1.39547 0
M  V30 37279 C 3623.31 -1.58156 0.290413 0
M  V30 37280 O 3624.5 -1.65324 0.54897 0
M  V30 37281 C 3621.63 -3.19809 1.18046 0
M  V30 37282 H 3622.82 -1.83683 2.37067 0
M  V30 37283 H 3620.38 -0.927382 1.25815 0
M  V30 37284 H 3621.11 -3.23602 0.212593 0
M  V30 37285 H 3620.9 -3.38386 1.98085 0
M  V30 37286 H 3622.39 -3.99851 1.20454 0
M  V30 37287 N 3622.82 -1.2545 -0.953947 0
M  V30 37288 C 3623.75 -1.08376 -2.06826 0
M  V30 37289 C 3624.73 0.00738595 -1.70098 0
M  V30 37290 O 3625.92 -0.162274 -1.93521 0
M  V30 37291 C 3623.05 -0.702424 -3.40122 0
M  V30 37292 C 3622 -1.74388 -3.90862 0
M  V30 37293 C 3621.33 -1.21721 -5.20661 0
M  V30 37294 C 3622.63 -3.1428 -4.17163 0
M  V30 37295 H 3624.32 -2.01585 -2.21368 0
M  V30 37296 H 3621.87 -0.970611 -1.06373 0
M  V30 37297 H 3623.82 -0.56991 -4.17528 0
M  V30 37298 H 3622.55 0.265371 -3.2552 0
M  V30 37299 H 3621.21 -1.86484 -3.15625 0
M  V30 37300 H 3620.85 -0.239628 -5.02429 0
M  V30 37301 H 3620.55 -1.91329 -5.55578 0
M  V30 37302 H 3622.08 -1.09711 -6.00663 0
M  V30 37303 H 3623.49 -3.05334 -4.85226 0
M  V30 37304 H 3621.89 -3.81364 -4.63337 0
M  V30 37305 H 3622.96 -3.6129 -3.23415 0
M  V30 37306 N 3624.3 1.15667 -1.07047 0
M  V30 37307 C 3625.55 1.85722 -0.786783 0
M  V30 37308 C 3625.86 1.83042 0.689572 0
M  V30 37309 O 3627.07 2.4875 1.08791 0
M  V30 37310 C 3625.53 3.33323 -1.35735 0
M  V30 37311 C 3625.13 3.44457 -2.8645 0
M  V30 37312 C 3626.88 4.08582 -1.15155 0
M  V30 37313 C 3624.78 4.86187 -3.36713 0
M  V30 37314 H 3623.71 0.695732 -0.290642 0
M  V30 37315 H 3626.37 1.3049 -1.29014 0
M  V30 37316 H 3624.75 3.88207 -0.78174 0
M  V30 37317 H 3625.92 2.99694 -3.50029 0
M  V30 37318 H 3624.24 2.82639 -3.05785 0
M  V30 37319 H 3626.83 5.13174 -1.50188 0
M  V30 37320 H 3627.18 4.16202 -0.0903891 0
M  V30 37321 H 3627.71 3.59959 -1.69336 0
M  V30 37322 H 3624.45 4.8375 -4.42341 0
M  V30 37323 H 3623.97 5.31544 -2.77887 0
M  V30 37324 H 3625.65 5.55033 -3.32487 0
M  V30 37325 N 3625.78 0.854133 1.32447 0
M  V30 37326 C 3627.01 0.471223 2.01462 0
M  V30 37327 C 3627.42 -0.931925 1.64197 0
M  V30 37328 O 3626.78 -1.60805 0.863023 0
M  V30 37329 C 3626.83 0.600085 3.56485 0
M  V30 37330 O 3626.55 1.94796 3.92411 0
M  V30 37331 C 3628.05 0.216114 4.42773 0
M  V30 37332 H 3625.27 0.185287 0.644911 0
M  V30 37333 H 3627.82 1.15093 1.69038 0
M  V30 37334 H 3625.97 -0.0318807 3.87387 0
M  V30 37335 H 3626.39 1.94436 4.87129 0
M  V30 37336 H 3627.86 0.357283 5.50843 0
M  V30 37337 H 3628.34 -0.843393 4.31026 0
M  V30 37338 H 3628.94 0.823132 4.17258 0
M  V30 37339 N 3627.26 -1.45231 0.61202 0
M  V30 37340 C 3628.67 -1.85695 0.193497 0
M  V30 37341 C 3629.02 -1.51172 -1.25066 0
M  V30 37342 O 3628.14 -0.940531 -1.94892 0
M  V30 37343 C 3628.74 -3.37045 0.344393 0
M  V30 37344 C 3627.3 -3.76395 -0.0194717 0
M  V30 37345 C 3626.45 -2.69165 0.666761 0
M  V30 37346 H 3629.4 -1.35969 0.818419 0
M  V30 37347 H 3629.42 -3.78151 -0.422143 0
M  V30 37348 H 3628.93 -3.6214 1.39556 0
M  V30 37349 H 3627.03 -3.56916 -1.06965 0
M  V30 37350 H 3627.14 -4.77612 0.377268 0
M  V30 37351 H 3625.51 -2.54488 0.103957 0
M  V30 37352 H 3626.29 -2.97095 1.72015 0
M  V30 37353 N 3628.74 -0.351436 -1.53632 0
M  V30 37354 C 3629.98 0.242899 -2.02952 0
M  V30 37355 C 3630.34 1.47136 -1.23349 0
M  V30 37356 O 3631.54 2.14039 -1.62606 0
M  V30 37357 C 3629.81 0.541571 -3.53273 0
M  V30 37358 S 3631.37 1.11159 -4.24487 0
M  V30 37359 H 3628.19 0.0717716 -0.707368 0
M  V30 37360 H 3630.79 -0.491027 -1.89233 0
M  V30 37361 H 3629.49 -0.360208 -4.08816 0
M  V30 37362 H 3629.03 1.30495 -3.71126 0
M  V30 37363 H 3631.04 2.39682 -4.34473 0
M  V30 37364 N 3630.21 1.57396 -0.0802459 0
M  V30 37365 C 3631.46 1.93425 0.585768 0
M  V30 37366 C 3631.78 0.961691 1.69636 0
M  V30 37367 O 3631.05 0.0112364 1.95897 0
M  V30 37368 H 3629.63 0.714063 0.219369 0
M  V30 37369 H 3632.29 1.94396 -0.140089 0
M  V30 37370 H 3631.39 2.95455 1.00561 0
M  V30 37371 N 3631.69 -0.193366 1.56409 0
M  V30 37372 C 3633.1 -0.757885 1.70625 0
M  V30 37373 C 3633.45 -1.83775 0.687106 0
M  V30 37374 O 3632.58 -2.15836 -0.156122 0
M  V30 37375 C 3633.17 -1.38151 3.09354 0
M  V30 37376 C 3631.73 -1.89309 3.25329 0
M  V30 37377 C 3630.88 -0.76368 2.66577 0
M  V30 37378 H 3633.83 0.0317313 1.58668 0
M  V30 37379 H 3633.85 -2.25092 3.0678 0
M  V30 37380 H 3633.36 -0.59533 3.83507 0
M  V30 37381 H 3631.46 -2.7064 2.56095 0
M  V30 37382 H 3631.58 -2.05369 4.32852 0
M  V30 37383 H 3629.94 -1.17842 2.25799 0
M  V30 37384 H 3630.72 0.0102846 3.43298 0
M  V30 37385 N 3633.17 -1.50702 -0.461142 0
M  V30 37386 C 3634.08 -1.73095 -1.58352 0
M  V30 37387 C 3635.1 -0.614339 -1.62794 0
M  V30 37388 O 3636.27 -0.893838 -1.80479 0
M  V30 37389 C 3633.34 -1.82941 -2.94505 0
M  V30 37390 C 3632.4 -3.06717 -3.00372 0
M  V30 37391 C 3631.63 -3.16084 -4.30031 0
M  V30 37392 O 3631.85 -2.31987 -5.21093 0
M  V30 37393 O 3630.79 -4.08888 -4.41694 0
M  V30 37394 H 3634.61 -2.68257 -1.42379 0
M  V30 37395 H 3632.2 -1.34918 -0.641685 0
M  V30 37396 H 3634.08 -1.9154 -3.75353 0
M  V30 37397 H 3632.76 -0.909636 -3.10656 0
M  V30 37398 H 3631.66 -3.03611 -2.18566 0
M  V30 37399 H 3633 -3.98305 -2.8916 0
M  V30 37400 N 3634.65 0.715001 -1.40447 0
M  V30 37401 C 3635.56 1.8592 -1.43077 0
M  V30 37402 C 3636.57 1.7097 -0.323324 0
M  V30 37403 O 3637.75 1.93225 -0.568 0
M  V30 37404 C 3634.81 3.21722 -1.29211 0
M  V30 37405 C 3633.88 3.48922 -2.50103 0
M  V30 37406 C 3633.11 4.78246 -2.3689 0
M  V30 37407 O 3633.33 5.53379 -1.38301 0
M  V30 37408 O 3632.27 5.05795 -3.26275 0
M  V30 37409 H 3636.09 1.86657 -2.39568 0
M  V30 37410 H 3633.68 0.865501 -1.21776 0
M  V30 37411 H 3635.56 4.02839 -1.23688 0
M  V30 37412 H 3634.23 3.21711 -0.358263 0
M  V30 37413 H 3633.14 2.67813 -2.61203 0
M  V30 37414 H 3634.47 3.53731 -3.42251 0
M  V30 37415 N 3636.13 1.25954 0.947281 0
M  V30 37416 C 3637.04 1.08741 2.07876 0
M  V30 37417 C 3638.05 0.0225517 1.73985 0
M  V30 37418 O 3639.23 0.225019 2.00139 0
M  V30 37419 C 3636.29 0.715816 3.3923 0
M  V30 37420 C 3635.35 1.85942 3.86942 0
M  V30 37421 C 3634.59 1.50546 5.12027 0
M  V30 37422 O 3634.81 0.404423 5.68964 0
M  V30 37423 O 3633.74 2.33815 5.5463 0
M  V30 37424 H 3637.57 2.03649 2.25302 0
M  V30 37425 H 3635.15 1.0496 1.0632 0
M  V30 37426 H 3637.04 0.521035 4.18166 0
M  V30 37427 H 3635.71 -0.203922 3.23057 0
M  V30 37428 H 3634.62 2.10912 3.08977 0
M  V30 37429 H 3635.95 2.75867 4.07625 0
M  V30 37430 N 3637.6 -1.15097 1.07659 0
M  V30 37431 C 3638.55 -2.19938 0.699716 0
M  V30 37432 C 3639.52 -1.63174 -0.310403 0
M  V30 37433 O 3640.71 -1.89789 -0.196144 0
M  V30 37434 C 3637.85 -3.44934 0.107024 0
M  V30 37435 C 3636.96 -4.15883 1.169 0
M  V30 37436 C 3636.09 -5.28438 0.540977 0
M  V30 37437 C 3635.13 -5.91209 1.58552 0
M  V30 37438 N 3634.27 -6.95229 0.979854 0
M  V30 37439 H 3639.11 -2.51525 1.5981 0
M  V30 37440 H 3636.65 -1.23524 0.798768 0
M  V30 37441 H 3638.61 -4.16424 -0.254262 0
M  V30 37442 H 3637.24 -3.13854 -0.754701 0
M  V30 37443 H 3636.29 -3.42857 1.64781 0
M  V30 37444 H 3637.6 -4.58641 1.96086 0
M  V30 37445 H 3636.75 -6.06566 0.127504 0
M  V30 37446 H 3635.49 -4.8688 -0.282622 0
M  V30 37447 H 3634.5 -5.11791 2.00874 0
M  V30 37448 H 3635.72 -6.34843 2.41146 0
M  V30 37449 H 3633.67 -6.55761 0.177213 0
M  V30 37450 H 3633.59 -7.36432 1.70891 0
M  V30 37451 H 3634.85 -7.77249 0.591986 0
M  V30 37452 N 3639.08 -0.861145 -1.31993 0
M  V30 37453 C 3640.01 -0.326004 -2.31213 0
M  V30 37454 C 3640.99 0.578355 -1.59966 0
M  V30 37455 O 3642.18 0.497235 -1.87726 0
M  V30 37456 C 3639.31 0.48094 -3.43954 0
M  V30 37457 C 3638.26 -0.329549 -4.26729 0
M  V30 37458 C 3637.59 0.602534 -5.31294 0
M  V30 37459 C 3638.89 -1.55883 -4.98495 0
M  V30 37460 H 3640.58 -1.15508 -2.76221 0
M  V30 37461 H 3638.13 -0.556879 -1.32796 0
M  V30 37462 H 3640.08 0.865778 -4.1241 0
M  V30 37463 H 3638.81 1.34344 -2.9769 0
M  V30 37464 H 3637.46 -0.696222 -3.59928 0
M  V30 37465 H 3637.11 1.46207 -4.81282 0
M  V30 37466 H 3636.81 0.0642012 -5.87565 0
M  V30 37467 H 3638.34 0.984406 -6.02612 0
M  V30 37468 H 3639.75 -1.24593 -5.59598 0
M  V30 37469 H 3638.15 -2.03558 -5.64521 0
M  V30 37470 H 3639.22 -2.31653 -4.25987 0
M  V30 37471 N 3640.56 1.44905 -0.619713 0
M  V30 37472 C 3641.97 1.85589 -0.203342 0
M  V30 37473 C 3642.32 1.51833 1.24263 0
M  V30 37474 O 3641.45 0.950853 1.94391 0
M  V30 37475 C 3642.04 3.36858 -0.362263 0
M  V30 37476 C 3640.6 3.764 -0.000489737 0
M  V30 37477 C 3639.75 2.68807 -0.681026 0
M  V30 37478 H 3642.7 1.35533 -0.825618 0
M  V30 37479 H 3642.72 3.7837 0.402083 0
M  V30 37480 H 3642.23 3.61395 -1.41475 0
M  V30 37481 H 3640.33 3.57479 1.0507 0
M  V30 37482 H 3640.45 4.77405 -0.402592 0
M  V30 37483 H 3638.81 2.54429 -0.117452 0
M  V30 37484 H 3639.59 2.96179 -1.73588 0
M  V30 37485 N 3642.04 0.359579 1.53443 0
M  V30 37486 C 3643.29 -0.233074 2.00349 0
M  V30 37487 C 3643.6 -1.50359 1.25107 0
M  V30 37488 O 3644.81 -2.17447 1.6257 0
M  V30 37489 C 3643.26 -0.465888 3.56872 0
M  V30 37490 C 3642.87 0.789648 4.40986 0
M  V30 37491 C 3644.61 -1.01652 4.12149 0
M  V30 37492 C 3642.52 0.52675 5.89049 0
M  V30 37493 H 3641.45 -0.090872 0.748504 0
M  V30 37494 H 3644.1 0.477391 1.77181 0
M  V30 37495 H 3642.48 -1.23746 3.76169 0
M  V30 37496 H 3643.66 1.56355 4.33462 0
M  V30 37497 H 3641.97 1.26307 3.96781 0
M  V30 37498 H 3644.57 -1.22844 5.20397 0
M  V30 37499 H 3644.91 -1.97687 3.66368 0
M  V30 37500 H 3645.45 -0.305264 3.96627 0
M  V30 37501 H 3642.19 1.45726 6.39096 0
M  V30 37502 H 3641.71 -0.20877 5.99437 0
M  V30 37503 H 3643.38 0.150003 6.46826 0
M  V30 37504 N 3643.52 -1.57351 0.0885919 0
M  V30 37505 C 3644.46 -2.14889 -0.890247 0
M  V30 37506 C 3645.46 -1.09006 -1.29669 0
M  V30 37507 O 3646.66 -1.27361 -1.27198 0
M  V30 37508 H 3643.04 -0.687329 -0.305095 0
M  V30 37509 H 3645.01 -2.95968 -0.380191 0
M  V30 37510 C 3643.76 -2.73877 -2.14211 0
M  V30 37511 H 3643.08 -3.55034 -1.83824 0
M  V30 37512 H 3644.52 -3.17713 -2.80775 0
M  V30 37513 C 3642.98 -1.69453 -2.91183 0
M  V30 37514 O 3643.51 -1.12956 -3.85492 0
M  V30 37515 N 3641.72 -1.40095 -2.54601 0
M  V30 37516 H 3641.26 -1.86228 -1.7798 0
M  V30 37517 H 3641.22 -0.704631 -3.06402 0
M  V30 37518 N 3644.99 0.185069 -1.5651 0
M  V30 37519 C 3646.41 0.748826 -1.71025 0
M  V30 37520 C 3646.76 1.83408 -0.696843 0
M  V30 37521 O 3645.88 2.15916 0.144674 0
M  V30 37522 C 3646.48 1.36508 -3.10082 0
M  V30 37523 C 3645.04 1.87581 -3.26329 0
M  V30 37524 C 3644.18 0.749532 -2.66978 0
M  V30 37525 H 3647.13 -0.0401454 -1.58649 0
M  V30 37526 H 3647.15 2.23462 -3.07969 0
M  V30 37527 H 3646.67 0.574984 -3.83817 0
M  V30 37528 H 3644.77 2.69278 -2.57527 0
M  V30 37529 H 3644.88 2.0307 -4.33935 0
M  V30 37530 H 3643.24 1.16643 -2.26421 0
M  V30 37531 H 3644.03 -0.0284905 -3.43288 0
M  V30 37532 N 3646.47 1.50945 0.453144 0
M  V30 37533 C 3647.4 1.74054 1.55652 0
M  V30 37534 C 3648.38 0.589898 1.59544 0
M  V30 37535 O 3649.57 0.830953 1.75524 0
M  V30 37536 C 3646.7 1.85114 2.93854 0
M  V30 37537 C 3645.65 3.00441 3.04827 0
M  V30 37538 C 3644.98 2.96665 4.44853 0
M  V30 37539 C 3646.28 4.40668 2.80373 0
M  V30 37540 H 3647.97 2.6644 1.36566 0
M  V30 37541 H 3645.52 1.28213 0.655549 0
M  V30 37542 H 3647.47 1.99864 3.70988 0
M  V30 37543 H 3646.2 0.893634 3.14137 0
M  V30 37544 H 3644.85 2.8537 2.30129 0
M  V30 37545 H 3644.5 1.98724 4.6208 0
M  V30 37546 H 3644.2 3.74098 4.53127 0
M  V30 37547 H 3645.73 3.13487 5.23983 0
M  V30 37548 H 3647.14 4.56171 3.47247 0
M  V30 37549 H 3645.54 5.19688 3.00074 0
M  V30 37550 H 3646.61 4.51797 1.76091 0
M  V30 37551 N 3647.95 -0.707543 1.40825 0
M  V30 37552 C 3649.18 -1.50158 1.43064 0
M  V30 37553 C 3649.6 -1.88069 0.0342475 0
M  V30 37554 O 3648.96 -1.5382 -0.959646 0
M  V30 37555 C 3649.01 -2.74822 2.33463 0
M  V30 37556 O 3648.11 -3.71844 1.78342 0
M  V30 37557 H 3647.45 -0.452408 0.486028 0
M  V30 37558 H 3649.98 -0.87071 1.85148 0
M  V30 37559 H 3649.99 -3.23263 2.48928 0
M  V30 37560 H 3648.67 -2.46565 3.34931 0
M  V30 37561 H 3647.24 -3.30725 1.72266 0
M  V30 37562 N 3649.43 -1.26454 -0.940588 0
M  V30 37563 C 3650.38 -1.07877 -2.06071 0
M  V30 37564 C 3651.37 -0.00552988 -1.69399 0
M  V30 37565 O 3652.58 -0.162255 -1.79267 0
M  V30 37566 H 3648.95 -0.332004 -0.674742 0
M  V30 37567 H 3650.92 -2.02803 -2.18892 0
M  V30 37568 C 3649.67 -0.729114 -3.39969 0
M  V30 37569 H 3648.99 -1.54682 -3.68665 0
M  V30 37570 H 3650.43 -0.638918 -4.19158 0
M  V30 37571 C 3648.89 0.565777 -3.32115 0
M  V30 37572 O 3649.42 1.60392 -3.6829 0
M  V30 37573 N 3647.63 0.556628 -2.85219 0
M  V30 37574 H 3647.18 -0.288586 -2.55978 0
M  V30 37575 H 3647.13 1.42313 -2.80347 0
M  V30 37576 N 3650.91 1.14525 -1.08268 0
M  V30 37577 C 3652.13 1.89935 -0.833028 0
M  V30 37578 C 3652.56 1.7797 0.608954 0
M  V30 37579 O 3651.91 1.1189 1.42655 0
M  V30 37580 C 3651.96 3.37949 -1.25788 0
M  V30 37581 O 3651.07 4.10368 -0.408926 0
M  V30 37582 H 3650.41 0.590999 -0.302681 0
M  V30 37583 H 3652.94 1.44974 -1.44373 0
M  V30 37584 H 3652.95 3.88761 -1.23811 0
M  V30 37585 H 3651.62 3.45976 -2.3081 0
M  V30 37586 H 3650.2 3.6964 -0.491985 0
M  V30 37587 N 3652.39 0.868133 1.31534 0
M  V30 37588 C 3653.32 0.338261 2.31037 0
M  V30 37589 C 3654.3 -0.569863 1.6027 0
M  V30 37590 O 3655.48 -0.487272 1.87987 0
M  V30 37591 C 3652.61 -0.462693 3.44204 0
M  V30 37592 C 3651.57 0.352175 4.26549 0
M  V30 37593 C 3650.89 -0.57435 5.31606 0
M  V30 37594 C 3652.19 1.58525 4.97662 0
M  V30 37595 H 3653.89 1.16971 2.75605 0
M  V30 37596 H 3651.43 0.563914 1.32499 0
M  V30 37597 H 3653.38 -0.843894 4.12864 0
M  V30 37598 H 3652.11 -1.32764 2.98398 0
M  V30 37599 H 3650.77 0.7153 3.59554 0
M  V30 37600 H 3650.42 -1.43652 4.82051 0
M  V30 37601 H 3650.12 -0.0330403 5.87591 0
M  V30 37602 H 3651.64 -0.952435 6.03126 0
M  V30 37603 H 3653.05 1.27559 5.58929 0
M  V30 37604 H 3651.45 2.06549 5.63434 0
M  V30 37605 H 3652.52 2.33909 4.24752 0
M  V30 37606 N 3653.86 -1.44574 0.627389 0
M  V30 37607 C 3654.8 -2.27835 -0.129016 0
M  V30 37608 C 3655.77 -1.38316 -0.854828 0
M  V30 37609 O 3656.96 -1.67755 -0.859679 0
M  V30 37610 C 3654.09 -3.17159 -1.18861 0
M  V30 37611 C 3653.13 -4.22758 -0.563742 0
M  V30 37612 S 3653.96 -5.31621 0.643363 0
M  V30 37613 C 3655.12 -6.24514 -0.416333 0
M  V30 37614 H 3655.35 -2.9164 0.577332 0
M  V30 37615 H 3652.89 -1.48706 0.415453 0
M  V30 37616 H 3654.84 -3.69174 -1.79501 0
M  V30 37617 H 3653.51 -2.52581 -1.86713 0
M  V30 37618 H 3652.7 -4.85258 -1.36164 0
M  V30 37619 H 3652.3 -3.73986 -0.0320388 0
M  V30 37620 H 3654.59 -6.65107 -1.28994 0
M  V30 37621 H 3655.54 -7.07889 0.172996 0
M  V30 37622 H 3655.94 -5.59621 -0.740553 0
M  V30 37623 N 3655.34 -0.367711 -1.5325 0
M  V30 37624 C 3656.76 -0.0167413 -1.59591 0
M  V30 37625 C 3656.96 1.46569 -1.38274 0
M  V30 37626 O 3656.01 2.22755 -1.18897 0
M  V30 37627 C 3657.33 -0.474586 -2.96931 0
M  V30 37628 C 3658.87 -0.428988 -3.10046 0
M  V30 37629 C 3659.35 -0.862679 -4.49802 0
M  V30 37630 N 3660.84 -0.817823 -4.55923 0
M  V30 37631 C 3661.58 -1.12506 -5.62254 0
M  V30 37632 N 3661.07 -1.50168 -6.76329 0
M  V30 37633 N 3662.86 -1.04772 -5.52249 0
M  V30 37634 H 3655.02 -1.33306 -1.65358 0
M  V30 37635 H 3657.28 -0.545011 -0.775672 0
M  V30 37636 H 3656.98 -1.50912 -3.17676 0
M  V30 37637 H 3656.86 0.137686 -3.76949 0
M  V30 37638 H 3659.25 0.596422 -2.8901 0
M  V30 37639 H 3659.33 -1.07678 -2.32032 0
M  V30 37640 H 3658.97 -1.88621 -4.71576 0
M  V30 37641 H 3658.9 -0.192112 -5.26249 0
M  V30 37642 H 3661.39 -0.540389 -3.74016 0
M  V30 37643 H 3661.7 -1.72032 -7.53409 0
M  V30 37644 H 3660.05 -1.54036 -6.77715 0
M  V30 37645 H 3663.24 -0.752652 -4.62009 0
M  V30 37646 H 3663.41 -1.29049 -6.3502 0
M  V30 37647 N 3656.82 1.57302 -0.0969353 0
M  V30 37648 C 3658.07 1.94419 0.566339 0
M  V30 37649 C 3658.39 0.978799 1.68077 0
M  V30 37650 O 3657.65 -0.001287 1.957 0
M  V30 37651 C 3657.95 3.38063 1.15966 0
M  V30 37652 C 3657.61 4.50584 0.16884 0
M  V30 37653 C 3656.28 4.81088 -0.103671 0
M  V30 37654 C 3658.63 5.18722 -0.507604 0
M  V30 37655 C 3655.96 5.77058 -1.05929 0
M  V30 37656 C 3658.31 6.15718 -1.45171 0
M  V30 37657 C 3656.97 6.44626 -1.73243 0
M  V30 37658 H 3656.24 0.711431 0.207238 0
M  V30 37659 H 3658.89 1.90716 -0.173159 0
M  V30 37660 H 3657.19 3.38354 1.97545 0
M  V30 37661 H 3658.89 3.64084 1.68059 0
M  V30 37662 H 3655.48 4.26809 0.391426 0
M  V30 37663 H 3659.67 4.9533 -0.310214 0
M  V30 37664 H 3654.92 5.9777 -1.28377 0
M  V30 37665 H 3659.1 6.6761 -1.98167 0
M  V30 37666 H 3656.72 7.188 -2.47449 0
M  V30 37667 N 3658.3 -0.176766 1.56606 0
M  V30 37668 C 3659.25 -1.22344 1.92395 0
M  V30 37669 C 3660.23 -1.40078 0.791646 0
M  V30 37670 O 3661.42 -1.4214 1.05476 0
M  V30 37671 C 3658.55 -2.56413 2.2827 0
M  V30 37672 C 3657.64 -2.42396 3.48002 0
M  V30 37673 N 3658.03 -1.98084 4.65399 0
M  V30 37674 C 3656.33 -2.73238 3.52501 0
M  V30 37675 C 3657.03 -1.96399 5.47542 0
M  V30 37676 N 3656 -2.38598 4.88439 0
M  V30 37677 H 3659.81 -0.872457 2.80652 0
M  V30 37678 H 3657.32 -0.385079 1.57769 0
M  V30 37679 H 3659.32 -3.32039 2.52103 0
M  V30 37680 H 3657.98 -2.92319 1.4135 0
M  V30 37681 H 3658.99 -1.68507 4.8972 0
M  V30 37682 H 3655.67 -3.13218 2.76045 0
M  V30 37683 H 3657.06 -1.63884 6.51607 0
M  V30 37684 N 3659.78 -1.51183 -0.445132 0
M  V30 37685 C 3660.72 -1.72497 -1.56037 0
M  V30 37686 C 3661.72 -0.591129 -1.58751 0
M  V30 37687 O 3662.92 -0.772313 -1.62589 0
M  V30 37688 H 3659.3 -0.5449 -0.518255 0
M  V30 37689 H 3661.27 -2.65998 -1.35232 0
M  V30 37690 C 3660.02 -1.86004 -2.93765 0
M  V30 37691 H 3659.34 -2.72652 -2.92405 0
M  V30 37692 H 3660.78 -2.04932 -3.71186 0
M  V30 37693 C 3659.24 -0.617911 -3.31185 0
M  V30 37694 O 3659.77 0.231031 -4.01035 0
M  V30 37695 N 3657.98 -0.464284 -2.86867 0
M  V30 37696 H 3657.52 -1.15618 -2.30196 0
M  V30 37697 H 3657.48 0.365589 -3.12267 0
M  V30 37698 N 3661.25 0.700065 -1.41198 0
M  V30 37699 C 3662.2 1.81405 -1.42692 0
M  V30 37700 C 3663.17 1.63691 -0.281849 0
M  V30 37701 O 3664.36 1.84606 -0.482228 0
M  V30 37702 C 3661.5 3.1925 -1.31047 0
M  V30 37703 C 3660.61 3.48428 -2.55386 0
M  V30 37704 C 3659.74 4.75862 -2.36069 0
M  V30 37705 C 3658.78 4.97993 -3.55906 0
M  V30 37706 N 3657.92 6.16651 -3.35687 0
M  V30 37707 H 3662.76 1.79463 -2.37901 0
M  V30 37708 H 3660.3 0.87645 -1.18139 0
M  V30 37709 H 3662.25 3.98872 -1.22299 0
M  V30 37710 H 3660.88 3.20381 -0.394478 0
M  V30 37711 H 3659.94 2.63245 -2.74602 0
M  V30 37712 H 3661.25 3.60684 -3.44541 0
M  V30 37713 H 3660.4 5.63531 -2.24762 0
M  V30 37714 H 3659.14 4.65844 -1.44363 0
M  V30 37715 H 3658.15 4.08775 -3.67673 0
M  V30 37716 H 3659.37 5.09874 -4.48559 0
M  V30 37717 H 3657.32 6.07854 -2.46678 0
M  V30 37718 H 3657.23 6.29655 -4.18415 0
M  V30 37719 H 3658.5 7.07066 -3.28144 0
M  V30 37720 N 3662.73 1.26951 0.933869 0
M  V30 37721 C 3663.98 1.13094 1.68338 0
M  V30 37722 C 3664.31 -0.323637 1.91484 0
M  V30 37723 O 3663.59 -1.23721 1.50078 0
M  V30 37724 C 3663.87 1.90843 3.0537 0
M  V30 37725 C 3663.72 3.44249 2.89504 0
M  V30 37726 C 3665.04 1.70802 4.05604 0
M  V30 37727 H 3662.16 0.41222 0.610937 0
M  V30 37728 H 3664.8 1.56034 1.08413 0
M  V30 37729 H 3662.95 1.54349 3.56523 0
M  V30 37730 H 3664.62 3.90537 2.45516 0
M  V30 37731 H 3662.87 3.70903 2.24975 0
M  V30 37732 H 3663.54 3.93886 3.86728 0
M  V30 37733 H 3666.01 2.0261 3.6344 0
M  V30 37734 H 3664.89 2.27606 4.99486 0
M  V30 37735 H 3665.15 0.654404 4.3723 0
M  V30 37736 N 3664.21 -1.13949 1.08873 0
M  V30 37737 C 3665.44 -1.88676 0.841724 0
M  V30 37738 C 3665.85 -1.79091 -0.610182 0
M  V30 37739 O 3665.19 -1.1514 -1.43138 0
M  V30 37740 C 3665.25 -3.39204 1.19083 0
M  V30 37741 C 3664.92 -3.72572 2.64649 0
M  V30 37742 C 3665.91 -3.72291 3.62899 0
M  V30 37743 C 3663.6 -4.02405 3.00625 0
M  V30 37744 C 3665.59 -4.01373 4.95155 0
M  V30 37745 C 3663.28 -4.3115 4.33074 0
M  V30 37746 C 3664.28 -4.30618 5.30148 0
M  V30 37747 O 3663.97 -4.58663 6.60215 0
M  V30 37748 H 3663.7 -0.604337 0.302907 0
M  V30 37749 H 3666.25 -1.45207 1.45273 0
M  V30 37750 H 3664.48 -3.83149 0.522852 0
M  V30 37751 H 3666.17 -3.95246 0.923875 0
M  V30 37752 H 3666.94 -3.49325 3.36448 0
M  V30 37753 H 3662.82 -4.01969 2.25703 0
M  V30 37754 H 3666.36 -4.00874 5.70917 0
M  V30 37755 H 3662.26 -4.53587 4.5927 0
M  V30 37756 H 3663.02 -4.76358 6.65602 0
M  V30 37757 N 3665.69 -0.875096 -1.31072 0
M  V30 37758 C 3666.91 -0.502419 -2.01223 0
M  V30 37759 C 3667.34 0.899024 -1.65225 0
M  V30 37760 O 3666.7 1.59411 -0.863587 0
M  V30 37761 C 3666.74 -0.672809 -3.54268 0
M  V30 37762 O 3665.85 0.285645 -4.1141 0
M  V30 37763 H 3665.19 -0.199192 -0.633418 0
M  V30 37764 H 3667.72 -1.17992 -1.6715 0
M  V30 37765 H 3667.73 -0.568044 -4.04026 0
M  V30 37766 H 3666.4 -1.69466 -3.79808 0
M  V30 37767 H 3664.98 0.135406 -3.72654 0
M  V30 37768 N 3667.17 1.44239 -0.635047 0
M  V30 37769 C 3668.39 2.06368 -0.148296 0
M  V30 37770 C 3668.81 1.47484 1.17872 0
M  V30 37771 O 3668.17 0.599199 1.72383 0
M  V30 37772 C 3668.22 3.61486 -0.0315826 0
M  V30 37773 O 3667.94 4.18177 -1.30612 0
M  V30 37774 C 3669.44 4.40656 0.483401 0
M  V30 37775 H 3666.66 0.666034 -0.0814837 0
M  V30 37776 H 3669.2 1.85045 -0.870559 0
M  V30 37777 H 3667.36 3.82058 0.641141 0
M  V30 37778 H 3667.77 5.11659 -1.1535 0
M  V30 37779 H 3669.25 5.49601 0.514068 0
M  V30 37780 H 3669.72 4.12382 1.51122 0
M  V30 37781 H 3670.33 4.25013 -0.156206 0
M  V30 37782 N 3668.64 0.375833 1.53053 0
M  V30 37783 C 3669.87 -0.211098 2.0582 0
M  V30 37784 C 3670.29 -1.41618 1.24859 0
M  V30 37785 O 3669.64 -1.80152 0.291817 0
M  V30 37786 C 3669.7 -0.59451 3.56578 0
M  V30 37787 O 3669.42 0.562683 4.34471 0
M  V30 37788 C 3670.92 -1.23874 4.25641 0
M  V30 37789 H 3668.14 -0.035015 0.670086 0
M  V30 37790 H 3670.68 0.537169 1.97319 0
M  V30 37791 H 3668.84 -1.29269 3.65196 0
M  V30 37792 H 3669.25 0.250579 5.23901 0
M  V30 37793 H 3670.72 -1.45749 5.32411 0
M  V30 37794 H 3671.2 -2.20211 3.80005 0
M  V30 37795 H 3671.81 -0.581712 4.21303 0
M  V30 37796 N 3670.12 -1.57248 0.105276 0
M  V30 37797 C 3671.35 -1.99485 -0.56748 0
M  V30 37798 C 3671.77 -0.98421 -1.60296 0
M  V30 37799 O 3671.13 0.0459626 -1.81242 0
M  V30 37800 C 3671.18 -3.40655 -1.18265 0
M  V30 37801 O 3670.28 -3.42416 -2.29837 0
M  V30 37802 H 3669.62 -0.648406 -0.143058 0
M  V30 37803 H 3672.15 -2.03719 0.189697 0
M  V30 37804 H 3672.16 -3.78569 -1.5215 0
M  V30 37805 H 3670.84 -4.13732 -0.424106 0
M  V30 37806 H 3669.42 -3.16307 -1.97495 0
M  V30 37807 N 3671.6 0.168458 -1.56697 0
M  V30 37808 C 3673.02 0.520334 -1.5088 0
M  V30 37809 C 3673.22 1.84501 -0.810033 0
M  V30 37810 O 3672.27 2.49751 -0.371593 0
M  V30 37811 C 3673.59 0.55045 -2.95619 0
M  V30 37812 C 3675.13 0.637454 -3.0644 0
M  V30 37813 C 3675.61 0.698436 -4.52643 0
M  V30 37814 N 3677.1 0.761248 -4.56902 0
M  V30 37815 C 3677.83 0.829055 -5.67375 0
M  V30 37816 N 3677.33 0.857521 -6.87472 0
M  V30 37817 N 3679.12 0.868295 -5.55353 0
M  V30 37818 H 3671.27 -0.700122 -2.00529 0
M  V30 37819 H 3673.54 -0.252775 -0.913679 0
M  V30 37820 H 3673.24 -0.354283 -3.49911 0
M  V30 37821 H 3673.12 1.39594 -3.50419 0
M  V30 37822 H 3675.5 1.53261 -2.5218 0
M  V30 37823 H 3675.59 -0.234764 -2.5472 0
M  V30 37824 H 3675.23 -0.192477 -5.07535 0
M  V30 37825 H 3675.16 1.58684 -5.02122 0
M  V30 37826 H 3677.65 0.747417 -3.70435 0
M  V30 37827 H 3677.96 0.910513 -7.67417 0
M  V30 37828 H 3676.31 0.825751 -6.90077 0
M  V30 37829 H 3679.5 0.843077 -4.60445 0
M  V30 37830 H 3679.67 0.917676 -6.41469 0
M  V30 37831 N 3673.08 1.51417 0.437109 0
M  V30 37832 C 3674.3 1.68189 1.21356 0
M  V30 37833 C 3674.73 0.37878 1.84247 0
M  V30 37834 O 3674.09 -0.661085 1.68818 0
M  V30 37835 C 3674.13 2.7993 2.27314 0
M  V30 37836 O 3673.24 2.43549 3.32803 0
M  V30 37837 H 3672.58 0.560793 0.355537 0
M  V30 37838 H 3675.11 1.97982 0.516169 0
M  V30 37839 H 3675.12 3.04021 2.72094 0
M  V30 37840 H 3673.79 3.74489 1.80916 0
M  V30 37841 H 3672.37 2.3003 2.93497 0
M  V30 37842 N 3674.56 -0.692567 1.41567 0
M  V30 37843 C 3675.52 -1.78821 1.43372 0
M  V30 37844 C 3676.52 -1.57504 0.323895 0
M  V30 37845 O 3677.71 -1.64122 0.583914 0
M  V30 37846 C 3674.84 -3.17233 1.24803 0
M  V30 37847 H 3676.03 -1.78613 2.40909 0
M  V30 37848 H 3673.59 -0.900486 1.27753 0
M  V30 37849 H 3674.32 -3.23079 0.281186 0
M  V30 37850 H 3674.11 -3.34108 2.05218 0
M  V30 37851 H 3675.6 -3.97206 1.28909 0
M  V30 37852 N 3676.03 -1.27445 -0.927123 0
M  V30 37853 C 3677.26 -1.16742 -1.71424 0
M  V30 37854 C 3677.68 0.27203 -1.86123 0
M  V30 37855 O 3677.04 1.197 -1.36167 0
M  V30 37856 C 3677.09 -1.85667 -3.09128 0
M  V30 37857 O 3676.19 -1.15502 -3.95895 0
M  V30 37858 H 3675.54 -0.405992 -0.52542 0
M  V30 37859 H 3678.07 -1.68525 -1.16019 0
M  V30 37860 H 3678.08 -1.93048 -3.59439 0
M  V30 37861 H 3676.75 -2.90379 -2.97747 0
M  V30 37862 H 3675.33 -1.16194 -3.54335 0
M  V30 37863 N 3677.51 1.1337 -1.09476 0
M  V30 37864 C 3678.44 2.20906 -0.75648 0
M  V30 37865 C 3679.42 1.68006 0.266083 0
M  V30 37866 O 3680.61 1.93737 0.134033 0
M  V30 37867 C 3677.74 3.4685 -0.176794 0
M  V30 37868 C 3676.69 4.12843 -1.12893 0
M  V30 37869 C 3676.02 5.33119 -0.410924 0
M  V30 37870 C 3677.32 4.60121 -2.47156 0
M  V30 37871 H 3679.01 2.4946 -1.6556 0
M  V30 37872 H 3676.56 1.19901 -0.797479 0
M  V30 37873 H 3678.51 4.21339 0.071941 0
M  V30 37874 H 3677.24 3.17694 0.75752 0
M  V30 37875 H 3675.89 3.40322 -1.36295 0
M  V30 37876 H 3675.54 5.00226 0.527544 0
M  V30 37877 H 3675.24 5.78219 -1.04578 0
M  V30 37878 H 3676.77 6.10362 -0.170502 0
M  V30 37879 H 3678.18 5.2603 -2.27959 0
M  V30 37880 H 3676.58 5.15963 -3.06434 0
M  V30 37881 H 3677.65 3.74616 -3.07881 0
M  V30 37882 N 3678.99 0.882035 1.30606 0
M  V30 37883 C 3680.41 0.575626 1.48858 0
M  V30 37884 C 3680.61 -0.887356 1.80909 0
M  V30 37885 O 3679.66 -1.66877 1.89495 0
M  V30 37886 C 3680.98 1.48624 2.61403 0
M  V30 37887 C 3682.52 1.48956 2.75284 0
M  V30 37888 C 3683 2.38603 3.90938 0
M  V30 37889 N 3684.49 2.3655 3.98244 0
M  V30 37890 C 3685.22 3.02628 4.87035 0
M  V30 37891 N 3684.72 3.77921 5.80644 0
M  V30 37892 N 3686.51 2.91875 4.8038 0
M  V30 37893 H 3678.66 1.82849 1.08073 0
M  V30 37894 H 3680.93 0.782518 0.535135 0
M  V30 37895 H 3680.63 2.5278 2.44531 0
M  V30 37896 H 3680.51 1.19364 3.57816 0
M  V30 37897 H 3682.89 0.455528 2.91563 0
M  V30 37898 H 3682.98 1.82245 1.79501 0
M  V30 37899 H 3682.62 3.42089 3.75416 0
M  V30 37900 H 3682.55 2.02632 4.86053 0
M  V30 37901 H 3685.04 1.81832 3.31278 0
M  V30 37902 H 3685.35 4.2544 6.45152 0
M  V30 37903 H 3683.7 3.82029 5.80585 0
M  V30 37904 H 3686.89 2.32583 4.0623 0
M  V30 37905 H 3687.06 3.4365 5.49371 0
M  V30 37906 N 3680.47 -1.439 0.642688 0
M  V30 37907 C 3681.43 -2.29154 -0.0457455 0
M  V30 37908 C 3682.43 -1.41654 -0.760963 0
M  V30 37909 O 3683.62 -1.63401 -0.603804 0
M  V30 37910 C 3680.75 -3.23491 -1.07546 0
M  V30 37911 H 3681.95 -2.91514 0.704244 0
M  V30 37912 H 3679.5 -1.51005 0.403387 0
M  V30 37913 H 3680.23 -2.66005 -1.85504 0
M  V30 37914 H 3680.02 -3.87988 -0.5664 0
M  V30 37915 H 3681.51 -3.87506 -1.55656 0
M  V30 37916 N 3681.95 -0.383945 -1.52852 0
M  V30 37917 C 3682.89 0.453786 -2.26295 0
M  V30 37918 C 3683.86 1.06228 -1.2769 0
M  V30 37919 O 3685.05 1.09132 -1.56509 0
M  V30 37920 C 3682.19 1.57798 -3.0691 0
M  V30 37921 C 3681.3 0.992869 -4.20436 0
M  V30 37922 C 3680.44 2.08767 -4.88456 0
M  V30 37923 C 3679.48 1.47818 -5.93983 0
M  V30 37924 N 3678.61 2.51207 -6.55622 0
M  V30 37925 H 3683.45 -0.178979 -2.97462 0
M  V30 37926 H 3680.99 -0.100092 -1.46759 0
M  V30 37927 H 3682.95 2.24046 -3.51936 0
M  V30 37928 H 3681.58 2.18114 -2.37963 0
M  V30 37929 H 3680.63 0.220143 -3.79762 0
M  V30 37930 H 3681.94 0.507417 -4.96212 0
M  V30 37931 H 3681.1 2.82797 -5.3676 0
M  V30 37932 H 3679.84 2.60671 -4.12192 0
M  V30 37933 H 3678.84 0.723106 -5.45024 0
M  V30 37934 H 3680.07 0.96716 -6.72178 0
M  V30 37935 H 3678.01 3.02289 -5.822 0
M  V30 37936 H 3677.93 2.07401 -7.26994 0
M  V30 37937 H 3679.2 3.24883 -7.0857 0
M  V30 37938 N 3683.43 1.5719 -0.113614 0
M  V30 37939 C 3684.37 2.15027 0.838582 0
M  V30 37940 C 3685.34 1.07379 1.26724 0
M  V30 37941 O 3686.53 1.3526 1.34571 0
M  V30 37942 C 3683.67 2.74969 2.08533 0
M  V30 37943 C 3682.78 3.96908 1.70553 0
M  V30 37944 C 3681.92 4.44955 2.90153 0
M  V30 37945 C 3680.95 5.59438 2.48387 0
M  V30 37946 N 3680.09 6.02252 3.60883 0
M  V30 37947 H 3684.93 2.96071 0.338533 0
M  V30 37948 H 3682.47 1.46277 0.155411 0
M  V30 37949 H 3684.43 3.07851 2.81574 0
M  V30 37950 H 3683.06 1.96624 2.56006 0
M  V30 37951 H 3682.11 3.70222 0.874068 0
M  V30 37952 H 3683.42 4.79943 1.35854 0
M  V30 37953 H 3682.57 4.79717 3.71425 0
M  V30 37954 H 3681.31 3.60858 3.28074 0
M  V30 37955 H 3680.32 5.24285 1.65546 0
M  V30 37956 H 3681.54 6.45296 2.11589 0
M  V30 37957 H 3679.49 5.21098 3.98488 0
M  V30 37958 H 3679.41 6.80129 3.30091 0
M  V30 37959 H 3680.67 6.41651 4.42611 0
M  V30 37960 N 3684.9 -0.160146 1.56784 0
M  V30 37961 C 3686.15 -0.876246 1.82893 0
M  V30 37962 C 3686.48 -1.81406 0.693205 0
M  V30 37963 O 3685.76 -1.92108 -0.304102 0
M  V30 37964 C 3686.04 -1.6622 3.19442 0
M  V30 37965 C 3685.89 -0.746753 4.43558 0
M  V30 37966 C 3687.21 -2.62752 3.53057 0
M  V30 37967 H 3684.33 -0.317108 0.66529 0
M  V30 37968 H 3686.97 -0.141971 1.89469 0
M  V30 37969 H 3685.12 -2.28817 3.13966 0
M  V30 37970 H 3686.8 -0.132795 4.61109 0
M  V30 37971 H 3685.04 -0.0554863 4.33765 0
M  V30 37972 H 3685.71 -1.33244 5.35677 0
M  V30 37973 H 3688.19 -2.10277 3.59058 0
M  V30 37974 H 3687.06 -3.14803 4.49656 0
M  V30 37975 H 3687.32 -3.43485 2.78335 0
M  V30 37976 N 3686.38 -1.51647 -0.429072 0
M  V30 37977 C 3687.61 -1.68543 -1.20003 0
M  V30 37978 C 3688.02 -0.386297 -1.84806 0
M  V30 37979 O 3687.38 0.635958 -1.71061 0
M  V30 37980 C 3687.43 -2.80698 -2.27796 0
M  V30 37981 O 3687.15 -4.05579 -1.65642 0
M  V30 37982 C 3688.65 -3.08934 -3.17922 0
M  V30 37983 H 3685.87 -0.565373 -0.361378 0
M  V30 37984 H 3688.42 -1.98105 -0.507397 0
M  V30 37985 H 3686.57 -2.53712 -2.92761 0
M  V30 37986 H 3686.99 -4.67928 -2.36947 0
M  V30 37987 H 3688.46 -3.90972 -3.89673 0
M  V30 37988 H 3688.94 -2.21675 -3.79153 0
M  V30 37989 H 3689.54 -3.37611 -2.58648 0
M  V30 37990 N 3687.86 0.685049 -1.41932 0
M  V30 37991 C 3689.11 1.44512 -1.41854 0
M  V30 37992 C 3689.43 1.94475 -0.0313479 0
M  V30 37993 O 3688.69 1.70616 0.958576 0
M  V30 37994 C 3688.99 2.66535 -2.38104 0
M  V30 37995 C 3688.65 2.35171 -3.84714 0
M  V30 37996 C 3687.32 2.26329 -4.24651 0
M  V30 37997 C 3689.67 2.09512 -4.77236 0
M  V30 37998 C 3687 1.89938 -5.55104 0
M  V30 37999 C 3689.35 1.74627 -6.0802 0
M  V30 38000 C 3688.01 1.64287 -6.46967 0
M  V30 38001 H 3687.28 0.528806 -0.519081 0
M  V30 38002 H 3689.93 0.782047 -1.74804 0
M  V30 38003 H 3688.23 3.37826 -1.98446 0
M  V30 38004 H 3689.93 3.24699 -2.35312 0
M  V30 38005 H 3686.52 2.42952 -3.53089 0
M  V30 38006 H 3690.71 2.15283 -4.47177 0
M  V30 38007 H 3685.96 1.80493 -5.84151 0
M  V30 38008 H 3690.14 1.53795 -6.79205 0
M  V30 38009 H 3687.76 1.35858 -7.47962 0
M  V30 38010 N 3689.34 1.27935 0.920351 0
M  V30 38011 C 3690.61 1.05416 1.64763 0
M  V30 38012 C 3690.99 -0.40868 2.07106 0
M  V30 38013 O 3690.34 -1.39342 1.81096 0
M  V30 38014 C 3690.55 2.02262 2.84413 0
M  V30 38015 C 3691.9 2.32042 3.55586 0
M  V30 38016 O 3692.92 2.00294 2.94552 0
M  V30 38017 O 3691.78 2.86195 4.65569 0
M  V30 38018 H 3688.88 0.402404 0.722496 0
M  V30 38019 H 3691.42 1.39228 0.970239 0
M  V30 38020 H 3690.2 3.00884 2.50168 0
M  V30 38021 H 3689.82 1.69056 3.59869 0
M  V30 38022 N 3690.82 -1.12788 1.10076 0
M  V30 38023 C 3692.23 -1.3621 0.8318 0
M  V30 38024 C 3692.43 -1.93832 -0.550598 0
M  V30 38025 O 3691.49 -2.16211 -1.30419 0
M  V30 38026 C 3692.8 -2.30717 1.92848 0
M  V30 38027 C 3694.35 -2.44316 1.95649 0
M  V30 38028 C 3694.82 -3.42134 3.0448 0
M  V30 38029 N 3696.31 -3.49689 3.03763 0
M  V30 38030 C 3697.05 -4.25277 3.84613 0
M  V30 38031 N 3696.55 -5.03962 4.75388 0
M  V30 38032 N 3698.34 -4.20646 3.72845 0
M  V30 38033 H 3690.49 -0.737417 1.99188 0
M  V30 38034 H 3692.75 -0.387047 0.865389 0
M  V30 38035 H 3692.46 -1.95545 2.92327 0
M  V30 38036 H 3692.33 -3.30801 1.81247 0
M  V30 38037 H 3694.72 -2.7877 0.968053 0
M  V30 38038 H 3694.8 -1.44133 2.11328 0
M  V30 38039 H 3694.44 -3.08411 4.03541 0
M  V30 38040 H 3694.37 -4.42139 2.86043 0
M  V30 38041 H 3696.87 -2.93552 2.37982 0
M  V30 38042 H 3697.18 -5.58964 5.33647 0
M  V30 38043 H 3695.52 -5.03171 4.7942 0
M  V30 38044 H 3698.71 -3.58255 3.01283 0
M  V30 38045 H 3698.89 -4.793 4.36091 0
M  V30 38046 N 3692.29 -0.888949 -1.30136 0
M  V30 38047 C 3693.54 -0.510154 -1.96279 0
M  V30 38048 C 3693.87 0.939066 -1.69986 0
M  V30 38049 O 3693.15 1.66415 -1.0068 0
M  V30 38050 C 3693.43 -0.790366 -3.51319 0
M  V30 38051 C 3693.28 -2.2905 -3.87112 0
M  V30 38052 C 3694.6 -0.269555 -4.39274 0
M  V30 38053 H 3691.72 -0.186822 -0.712928 0
M  V30 38054 H 3694.36 -1.11367 -1.5394 0
M  V30 38055 H 3692.51 -0.276715 -3.87513 0
M  V30 38056 H 3694.19 -2.87287 -3.60921 0
M  V30 38057 H 3692.43 -2.75556 -3.35039 0
M  V30 38058 H 3693.1 -2.43716 -4.95284 0
M  V30 38059 H 3695.58 -0.709245 -4.10011 0
M  V30 38060 H 3694.45 -0.494912 -5.46664 0
M  V30 38061 H 3694.71 0.829358 -4.34251 0
M  V30 38062 N 3693.77 1.43557 -0.65031 0
M  V30 38063 C 3694.7 2.29054 0.0817081 0
M  V30 38064 C 3695.72 1.42348 0.789998 0
M  V30 38065 O 3696.91 1.66313 0.64824 0
M  V30 38066 C 3694.01 3.19198 1.13867 0
M  V30 38067 C 3693.18 4.34427 0.5091 0
M  V30 38068 C 3692.24 5.05466 1.46256 0
M  V30 38069 O 3691.26 5.60835 0.972279 0
M  V30 38070 N 3692.47 5.08695 2.79659 0
M  V30 38071 H 3695.23 2.92519 -0.652113 0
M  V30 38072 H 3692.79 1.54215 -0.492877 0
M  V30 38073 H 3694.78 3.63587 1.77726 0
M  V30 38074 H 3693.35 2.57353 1.7745 0
M  V30 38075 H 3692.57 3.92991 -0.308513 0
M  V30 38076 H 3693.86 5.08753 0.0694837 0
M  V30 38077 H 3693.26 4.65078 3.22054 0
M  V30 38078 H 3691.82 5.56811 3.38828 0
M  V30 38079 N 3695.25 0.392045 1.52646 0
M  V30 38080 C 3696.5 -0.189545 2.01912 0
M  V30 38081 C 3696.83 -1.46231 1.27789 0
M  V30 38082 O 3696.1 -1.90769 0.379157 0
M  V30 38083 C 3696.39 -0.454672 3.57218 0
M  V30 38084 C 3696.24 0.833578 4.42008 0
M  V30 38085 C 3697.56 -1.24413 4.22149 0
M  V30 38086 H 3694.68 -0.0674152 0.73391 0
M  V30 38087 H 3697.32 0.522153 1.82684 0
M  V30 38088 H 3695.47 -1.06094 3.73733 0
M  V30 38089 H 3697.14 1.47035 4.3724 0
M  V30 38090 H 3695.38 1.4483 4.08909 0
M  V30 38091 H 3696.06 0.602681 5.487 0
M  V30 38092 H 3698.53 -0.731021 4.09628 0
M  V30 38093 H 3697.41 -1.39838 5.30789 0
M  V30 38094 H 3697.67 -2.26009 3.79964 0
M  V30 38095 N 3696.73 -1.57127 0.121948 0
M  V30 38096 C 3697.66 -2.18487 -0.823749 0
M  V30 38097 C 3698.64 -1.12577 -1.27517 0
M  V30 38098 O 3699.82 -1.40824 -1.33724 0
M  V30 38099 C 3696.95 -2.78662 -2.07279 0
M  V30 38100 C 3695.91 -3.90181 -1.75905 0
M  V30 38101 C 3695.23 -4.37177 -3.07864 0
M  V30 38102 C 3696.53 -5.12142 -1.02508 0
M  V30 38103 H 3698.23 -2.97765 -0.312435 0
M  V30 38104 H 3695.77 -1.43229 -0.148837 0
M  V30 38105 H 3697.73 -3.20247 -2.73897 0
M  V30 38106 H 3696.45 -1.96678 -2.6074 0
M  V30 38107 H 3695.11 -3.49176 -1.11675 0
M  V30 38108 H 3694.76 -3.52048 -3.59265 0
M  V30 38109 H 3694.46 -5.12381 -2.87644 0
M  V30 38110 H 3695.98 -4.81415 -3.75595 0
M  V30 38111 H 3697.4 -5.50728 -1.59285 0
M  V30 38112 H 3695.79 -5.92948 -0.923732 0
M  V30 38113 H 3696.86 -4.84898 -0.0123366 0
M  V30 38114 N 3698.21 0.151829 -1.56867 0
M  V30 38115 C 3699.48 0.893663 -1.73991 0
M  V30 38116 C 3699.86 1.99551 -0.688663 0
M  V30 38117 O 3699.21 2.2661 0.293249 0
M  V30 38118 C 3699.42 1.44055 -3.17882 0
M  V30 38119 C 3700.77 1.90585 -3.79424 0
M  V30 38120 O 3701.79 1.53807 -3.21281 0
M  V30 38121 O 3700.65 2.58396 -4.81554 0
M  V30 38122 H 3697.75 0.421986 -0.711236 0
M  V30 38123 H 3700.29 0.138132 -1.69137 0
M  V30 38124 H 3699.06 0.648461 -3.85889 0
M  V30 38125 H 3698.69 2.25972 -3.27143 0
M  V30 38126 N 3699.68 1.51872 0.421024 0
M  V30 38127 C 3700.65 1.73752 1.49475 0
M  V30 38128 C 3701.65 0.607422 1.48886 0
M  V30 38129 O 3702.84 0.87517 1.5062 0
M  V30 38130 C 3699.97 1.80898 2.88944 0
M  V30 38131 H 3701.16 2.69595 1.31372 0
M  V30 38132 H 3698.72 1.42108 0.650761 0
M  V30 38133 H 3699.45 0.869275 3.12433 0
M  V30 38134 H 3699.24 2.63043 2.90776 0
M  V30 38135 H 3700.73 1.99609 3.66805 0
M  V30 38136 N 3701.16 -0.677513 1.42294 0
M  V30 38137 C 3702.11 -1.78368 1.42017 0
M  V30 38138 C 3703.1 -1.5823 0.29189 0
M  V30 38139 O 3704.29 -1.68755 0.533918 0
M  V30 38140 C 3701.42 -3.16809 1.32238 0
M  V30 38141 C 3700.5 -3.42579 2.50001 0
M  V30 38142 N 3700.89 -3.38948 3.7543 0
M  V30 38143 C 3699.19 -3.73204 2.44203 0
M  V30 38144 C 3699.89 -3.64127 4.53637 0
M  V30 38145 N 3698.87 -3.84759 3.84008 0
M  V30 38146 H 3702.67 -1.7395 2.36894 0
M  V30 38147 H 3700.19 -0.878242 1.36604 0
M  V30 38148 H 3702.18 -3.96073 1.30122 0
M  V30 38149 H 3700.84 -3.22426 0.383615 0
M  V30 38150 H 3701.85 -3.18912 4.08063 0
M  V30 38151 H 3698.53 -3.86083 1.58891 0
M  V30 38152 H 3699.92 -3.67304 5.62617 0
M  V30 38153 N 3702.64 -1.28421 -0.913554 0
M  V30 38154 C 3703.87 -1.18266 -1.69401 0
M  V30 38155 C 3704.28 0.261247 -1.87388 0
M  V30 38156 O 3703.62 1.18837 -1.40084 0
M  V30 38157 C 3703.68 -1.80956 -3.10637 0
M  V30 38158 C 3703.35 -3.30203 -3.15935 0
M  V30 38159 C 3704.34 -4.26635 -2.97117 0
M  V30 38160 C 3702.03 -3.71163 -3.38442 0
M  V30 38161 C 3704.02 -5.62003 -3.00718 0
M  V30 38162 C 3701.71 -5.06657 -3.41676 0
M  V30 38163 C 3702.71 -6.01886 -3.22834 0
M  V30 38164 O 3702.4 -7.34908 -3.25829 0
M  V30 38165 H 3702.13 -0.411511 -0.536315 0
M  V30 38166 H 3704.68 -1.70065 -1.15183 0
M  V30 38167 H 3702.91 -1.23652 -3.66398 0
M  V30 38168 H 3704.6 -1.65316 -3.70709 0
M  V30 38169 H 3705.37 -3.96326 -2.79555 0
M  V30 38170 H 3701.25 -2.97505 -3.52153 0
M  V30 38171 H 3704.79 -6.3631 -2.8593 0
M  V30 38172 H 3700.69 -5.36617 -3.58766 0
M  V30 38173 H 3701.46 -7.43538 -3.4219 0
M  V30 38174 N 3704.12 1.12202 -1.10672 0
M  V30 38175 C 3705.4 1.80119 -0.762664 0
M  V30 38176 C 3705.78 1.97309 0.750495 0
M  V30 38177 O 3705.12 1.5514 1.67761 0
M  V30 38178 C 3705.33 3.14327 -1.51656 0
M  V30 38179 C 3706.68 3.89488 -1.69068 0
M  V30 38180 O 3707.71 3.23991 -1.48015 0
M  V30 38181 O 3706.56 5.07 -2.03993 0
M  V30 38182 H 3703.66 0.779787 -0.27543 0
M  V30 38183 H 3706.2 1.19016 -1.20968 0
M  V30 38184 H 3704.98 2.97121 -2.54627 0
M  V30 38185 H 3704.6 3.83139 -1.06257 0
M  V30 38186 N 3705.6 0.895838 1.29663 0
M  V30 38187 C 3706.82 0.534368 2.00398 0
M  V30 38188 C 3707.25 -0.872625 1.66634 0
M  V30 38189 O 3706.6 -1.58017 0.888839 0
M  V30 38190 C 3706.65 0.729085 3.53153 0
M  V30 38191 O 3705.76 -0.220158 4.11812 0
M  V30 38192 H 3705.1 0.209244 0.630169 0
M  V30 38193 H 3707.63 1.20637 1.65251 0
M  V30 38194 H 3707.64 0.63225 4.03071 0
M  V30 38195 H 3706.31 1.75487 3.77064 0
M  V30 38196 H 3704.89 -0.0761031 3.72822 0
M  V30 38197 N 3707.07 -1.43211 0.657914 0
M  V30 38198 C 3708.32 -2.02057 0.173479 0
M  V30 38199 C 3708.65 -1.51813 -1.21105 0
M  V30 38200 O 3707.93 -0.713201 -1.80952 0
M  V30 38201 C 3708.21 -3.59601 0.189492 0
M  V30 38202 C 3708.06 -4.20065 1.60827 0
M  V30 38203 C 3709.38 -4.37566 -0.471556 0
M  V30 38204 H 3706.5 -0.734171 0.0645128 0
M  V30 38205 H 3709.14 -1.70448 0.839492 0
M  V30 38206 H 3707.29 -3.8666 -0.377621 0
M  V30 38207 H 3708.97 -4.0402 2.22634 0
M  V30 38208 H 3707.21 -3.76536 2.15413 0
M  V30 38209 H 3707.88 -5.29164 1.5713 0
M  V30 38210 H 3710.36 -4.16099 0.0110119 0
M  V30 38211 H 3709.23 -5.47216 -0.429643 0
M  V30 38212 H 3709.49 -4.14171 -1.54645 0
M  V30 38213 N 3708.55 -0.400135 -1.52436 0
M  V30 38214 C 3709.48 0.421014 -2.29673 0
M  V30 38215 C 3710.46 1.05403 -1.33508 0
M  V30 38216 O 3711.65 1.06475 -1.62409 0
M  V30 38217 C 3708.78 1.54276 -3.11153 0
M  V30 38218 C 3707.73 1.03522 -4.15292 0
M  V30 38219 C 3707.06 2.24987 -4.85062 0
M  V30 38220 C 3708.36 0.0955611 -5.22213 0
M  V30 38221 H 3710.05 -0.223452 -2.98565 0
M  V30 38222 H 3707.6 -0.108908 -1.43588 0
M  V30 38223 H 3709.55 2.12412 -3.63949 0
M  V30 38224 H 3708.28 2.21497 -2.40014 0
M  V30 38225 H 3706.93 0.476319 -3.63492 0
M  V30 38226 H 3706.58 2.90743 -4.1046 0
M  V30 38227 H 3706.28 1.91684 -5.55456 0
M  V30 38228 H 3707.81 2.83747 -5.40666 0
M  V30 38229 H 3709.22 0.585448 -5.70303 0
M  V30 38230 H 3707.62 -0.148226 -5.99917 0
M  V30 38231 H 3708.69 -0.85238 -4.77349 0
M  V30 38232 N 3710.03 1.57061 -0.13028 0
M  V30 38233 C 3710.96 2.12999 0.846404 0
M  V30 38234 C 3711.98 1.07538 1.22227 0
M  V30 38235 O 3713.16 1.34873 1.16925 0
M  V30 38236 C 3710.26 2.62399 2.14476 0
M  V30 38237 C 3709.44 3.92081 1.93885 0
M  V30 38238 C 3708.5 4.26962 3.07554 0
M  V30 38239 O 3707.52 4.95583 2.79975 0
M  V30 38240 N 3708.72 3.85191 4.3429 0
M  V30 38241 H 3711.49 2.97427 0.368419 0
M  V30 38242 H 3709.05 1.61811 0.0538071 0
M  V30 38243 H 3711.04 2.82757 2.89535 0
M  V30 38244 H 3709.61 1.82789 2.53588 0
M  V30 38245 H 3708.83 3.80518 1.02956 0
M  V30 38246 H 3710.12 4.76855 1.77446 0
M  V30 38247 H 3709.52 3.29867 4.5957 0
M  V30 38248 H 3708.08 4.10635 5.06184 0
M  V30 38249 N 3711.51 -0.143508 1.56945 0
M  V30 38250 C 3712.79 -0.884423 1.74463 0
M  V30 38251 C 3713.17 -1.99183 0.699236 0
M  V30 38252 O 3712.51 -2.26763 -0.281227 0
M  V30 38253 C 3712.72 -1.42367 3.18642 0
M  V30 38254 C 3714.07 -1.88571 3.80429 0
M  V30 38255 O 3715.1 -1.52101 3.22093 0
M  V30 38256 O 3713.96 -2.55838 4.82917 0
M  V30 38257 H 3711.05 -0.418208 0.713464 0
M  V30 38258 H 3713.6 -0.12916 1.69208 0
M  V30 38259 H 3712.37 -0.627988 3.86228 0
M  V30 38260 H 3711.99 -2.24234 3.28336 0
M  V30 38261 N 3712.99 -1.52093 -0.412964 0
M  V30 38262 C 3714.23 -1.6621 -1.16199 0
M  V30 38263 C 3714.57 -0.38899 -1.90264 0
M  V30 38264 O 3713.84 0.612445 -1.84606 0
M  V30 38265 C 3714.12 -2.88161 -2.15953 0
M  V30 38266 C 3713.98 -4.25511 -1.45809 0
M  V30 38267 C 3715.3 -3.05632 -3.16666 0
M  V30 38268 H 3712.42 -0.60487 -0.421072 0
M  V30 38269 H 3715.06 -1.84638 -0.44818 0
M  V30 38270 H 3713.21 -2.72579 -2.76826 0
M  V30 38271 H 3714.88 -4.52812 -0.880845 0
M  V30 38272 H 3713.12 -4.27089 -0.7601 0
M  V30 38273 H 3713.79 -5.0688 -2.18578 0
M  V30 38274 H 3716.27 -3.20085 -2.65866 0
M  V30 38275 H 3715.15 -3.9248 -3.83732 0
M  V30 38276 H 3715.41 -2.18775 -3.84174 0
M  V30 38277 N 3714.47 0.669957 -1.42651 0
M  V30 38278 C 3715.41 1.78337 -1.46507 0
M  V30 38279 C 3716.38 1.63057 -0.316507 0
M  V30 38280 O 3717.57 1.83541 -0.521277 0
M  V30 38281 C 3714.71 3.16399 -1.37789 0
M  V30 38282 C 3713.82 3.42932 -2.6272 0
M  V30 38283 C 3712.96 4.70748 -2.46109 0
M  V30 38284 C 3711.99 4.90332 -3.66389 0
M  V30 38285 N 3711.13 6.09392 -3.48692 0
M  V30 38286 H 3715.97 1.74376 -2.41654 0
M  V30 38287 H 3713.51 0.851194 -1.19971 0
M  V30 38288 H 3715.47 3.96188 -1.30732 0
M  V30 38289 H 3714.1 3.19472 -0.462347 0
M  V30 38290 H 3713.15 2.57361 -2.80124 0
M  V30 38291 H 3714.46 3.53295 -3.52114 0
M  V30 38292 H 3713.61 5.58636 -2.36665 0
M  V30 38293 H 3712.35 4.62677 -1.54212 0
M  V30 38294 H 3711.36 4.00884 -3.76261 0
M  V30 38295 H 3712.58 5.00245 -4.59273 0
M  V30 38296 H 3710.53 6.02485 -2.59516 0
M  V30 38297 H 3710.45 6.20638 -4.31677 0
M  V30 38298 H 3711.71 6.99946 -3.43068 0
M  V30 38299 N 3715.94 1.28904 0.90673 0
M  V30 38300 C 3717.36 1.06763 1.18633 0
M  V30 38301 C 3717.56 -0.185559 2.00644 0
M  V30 38302 O 3716.62 -0.885283 2.36472 0
M  V30 38303 C 3717.93 2.31911 1.9141 0
M  V30 38304 C 3719.48 2.3716 2.04265 0
M  V30 38305 C 3719.95 3.62093 2.80451 0
M  V30 38306 N 3721.44 3.62774 2.88009 0
M  V30 38307 C 3722.18 4.56122 3.47477 0
M  V30 38308 N 3721.67 5.59795 4.08168 0
M  V30 38309 N 3723.47 4.43704 3.45084 0
M  V30 38310 H 3715.62 2.09338 0.359376 0
M  V30 38311 H 3717.88 0.921719 0.221671 0
M  V30 38312 H 3717.59 3.23246 1.38581 0
M  V30 38313 H 3717.46 2.38872 2.91924 0
M  V30 38314 H 3719.85 1.46317 2.56272 0
M  V30 38315 H 3719.93 2.34188 1.02905 0
M  V30 38316 H 3719.57 4.53283 2.29122 0
M  V30 38317 H 3719.5 3.6232 3.82141 0
M  V30 38318 H 3721.99 2.87809 2.44896 0
M  V30 38319 H 3722.31 6.27157 4.51546 0
M  V30 38320 H 3720.65 5.63613 4.06651 0
M  V30 38321 H 3723.84 3.61908 2.96884 0
M  V30 38322 H 3724.02 5.16639 3.91136 0
M  V30 38323 N 3717.42 -1.11614 1.11266 0
M  V30 38324 C 3718.38 -2.15784 0.772638 0
M  V30 38325 C 3719.38 -1.59461 -0.207117 0
M  V30 38326 O 3720.57 -1.74192 0.0171359 0
M  V30 38327 C 3717.71 -3.40587 0.145987 0
M  V30 38328 H 3718.9 -2.47376 1.69543 0
M  V30 38329 H 3716.45 -1.26768 0.9143 0
M  V30 38330 H 3717.19 -3.14603 -0.787123 0
M  V30 38331 H 3716.97 -3.82749 0.851228 0
M  V30 38332 H 3718.46 -4.17531 -0.0758442 0
M  V30 38333 N 3718.9 -0.902701 -1.29186 0
M  V30 38334 C 3719.86 -0.387525 -2.259 0
M  V30 38335 C 3720.86 0.479967 -1.5347 0
M  V30 38336 O 3722.05 0.284592 -1.7186 0
M  V30 38337 C 3719.18 0.445663 -3.37974 0
M  V30 38338 H 3720.38 -1.24172 -2.72986 0
M  V30 38339 H 3717.93 -0.681108 -1.40679 0
M  V30 38340 H 3718.67 1.31972 -2.96233 0
M  V30 38341 H 3718.45 -0.175968 -3.91705 0
M  V30 38342 H 3719.94 0.797312 -4.09918 0
M  V30 38343 N 3720.38 1.4286 -0.6655 0
M  V30 38344 C 3721.6 2.06524 -0.190435 0
M  V30 38345 C 3722.03 1.49624 1.13993 0
M  V30 38346 O 3721.39 0.611011 1.70694 0
M  V30 38347 C 3721.43 3.6038 -0.126003 0
M  V30 38348 O 3720.54 4.02275 0.908229 0
M  V30 38349 H 3719.88 0.656349 -0.100507 0
M  V30 38350 H 3722.41 1.83155 -0.911891 0
M  V30 38351 H 3722.42 4.07965 0.0532436 0
M  V30 38352 H 3721.09 4.01169 -1.0971 0
M  V30 38353 H 3719.67 3.66256 0.700777 0
M  V30 38354 N 3721.86 0.408213 1.52221 0
M  V30 38355 C 3722.8 -0.417727 2.26988 0
M  V30 38356 C 3723.77 -1.04183 1.29364 0
M  V30 38357 O 3724.96 -1.06628 1.58225 0
M  V30 38358 C 3722.1 -1.52895 3.09382 0
M  V30 38359 C 3721.21 -0.925855 4.21962 0
M  V30 38360 C 3720.35 -2.0097 4.91716 0
M  V30 38361 C 3719.38 -1.38349 5.9626 0
M  V30 38362 N 3718.52 -2.40745 6.59535 0
M  V30 38363 H 3723.36 0.22628 2.9714 0
M  V30 38364 H 3720.9 0.123428 1.46581 0
M  V30 38365 H 3722.86 -2.18419 3.55456 0
M  V30 38366 H 3721.49 -2.143 2.41403 0
M  V30 38367 H 3720.54 -0.159698 3.80065 0
M  V30 38368 H 3721.85 -0.428409 4.96957 0
M  V30 38369 H 3721 -2.74222 5.41191 0
M  V30 38370 H 3719.74 -2.5408 4.16287 0
M  V30 38371 H 3718.75 -0.636306 5.46105 0
M  V30 38372 H 3719.97 -0.8601 6.73631 0
M  V30 38373 H 3717.92 -2.92989 5.86936 0
M  V30 38374 H 3717.84 -1.95809 7.30202 0
M  V30 38375 H 3719.1 -3.13569 7.13649 0
M  V30 38376 N 3723.33 -1.56989 0.138607 0
M  V30 38377 C 3724.58 -1.96143 -0.515355 0
M  V30 38378 C 3724.91 -1.02309 -1.65065 0
M  V30 38379 O 3724.19 -0.0638987 -1.94395 0
M  V30 38380 C 3724.47 -3.4507 -1.0295 0
M  V30 38381 C 3724.32 -4.4968 0.103725 0
M  V30 38382 C 3725.64 -3.96299 -1.91404 0
M  V30 38383 H 3722.76 -0.713179 -0.18586 0
M  V30 38384 H 3725.4 -1.88744 0.218136 0
M  V30 38385 H 3723.55 -3.51506 -1.65456 0
M  V30 38386 H 3725.23 -4.5533 0.739773 0
M  V30 38387 H 3723.47 -4.27018 0.764089 0
M  V30 38388 H 3724.14 -5.51197 -0.297591 0
M  V30 38389 H 3726.62 -3.92289 -1.3874 0
M  V30 38390 H 3725.49 -5.00984 -2.2429 0
M  V30 38391 H 3725.75 -3.38154 -2.84788 0
M  V30 38392 N 3724.81 0.135183 -1.57019 0
M  V30 38393 C 3726.04 0.864366 -1.8853 0
M  V30 38394 C 3726.46 1.73404 -0.728882 0
M  V30 38395 O 3725.82 1.78433 0.321164 0
M  V30 38396 C 3725.87 1.68715 -3.18697 0
M  V30 38397 O 3724.97 2.79256 -3.03463 0
M  V30 38398 H 3724.31 0.240039 -0.619094 0
M  V30 38399 H 3726.84 0.122444 -2.04233 0
M  V30 38400 H 3726.85 2.07973 -3.51014 0
M  V30 38401 H 3725.53 1.04861 -4.02464 0
M  V30 38402 H 3724.1 2.43318 -2.82579 0
M  V30 38403 N 3726.29 1.5231 0.404892 0
M  V30 38404 C 3727.25 1.75328 1.47624 0
M  V30 38405 C 3728.25 0.623179 1.48233 0
M  V30 38406 O 3729.44 0.891096 1.49683 0
M  V30 38407 C 3726.58 1.83952 2.87009 0
M  V30 38408 H 3727.77 2.70973 1.28505 0
M  V30 38409 H 3725.32 1.42791 0.635652 0
M  V30 38410 H 3726.06 0.902364 3.11493 0
M  V30 38411 H 3725.84 2.66113 2.8797 0
M  V30 38412 H 3727.33 2.03488 3.64668 0
M  V30 38413 N 3727.77 -0.662382 1.43004 0
M  V30 38414 C 3729.18 -0.976981 1.26203 0
M  V30 38415 C 3729.38 -2.00737 0.175139 0
M  V30 38416 O 3728.44 -2.48467 -0.449496 0
M  V30 38417 C 3729.75 -1.46997 2.62321 0
M  V30 38418 C 3731.3 -1.58709 2.69778 0
M  V30 38419 C 3731.78 -2.11401 4.06293 0
M  V30 38420 N 3733.27 -2.18716 4.0831 0
M  V30 38421 C 3734 -2.60589 5.10765 0
M  V30 38422 N 3733.5 -3.01824 6.23598 0
M  V30 38423 N 3735.29 -2.60447 4.9812 0
M  V30 38424 H 3727.44 0.0196071 2.12391 0
M  V30 38425 H 3729.71 -0.0537878 0.946473 0
M  V30 38426 H 3729.41 -0.7873 3.42775 0
M  V30 38427 H 3729.29 -2.44659 2.87092 0
M  V30 38428 H 3731.67 -2.26079 1.89663 0
M  V30 38429 H 3731.75 -0.595037 2.48783 0
M  V30 38430 H 3731.4 -1.44636 4.86871 0
M  V30 38431 H 3731.33 -3.11421 4.24647 0
M  V30 38432 H 3733.82 -1.8966 3.2686 0
M  V30 38433 H 3734.13 -3.32496 6.97614 0
M  V30 38434 H 3732.48 -2.9965 6.27084 0
M  V30 38435 H 3735.67 -2.27604 4.09041 0
M  V30 38436 H 3735.84 -2.92759 5.78097 0
M  V30 38437 N 3729.25 -1.29383 -0.899882 0
M  V30 38438 C 3730.18 -1.1705 -2.02043 0
M  V30 38439 C 3731.16 -0.0647652 -1.69977 0
M  V30 38440 O 3732.34 -0.244207 -1.92658 0
M  V30 38441 C 3729.47 -0.84605 -3.36837 0
M  V30 38442 C 3728.43 -1.90809 -3.83114 0
M  V30 38443 C 3727.75 -1.43695 -5.1503 0
M  V30 38444 C 3729.05 -3.31691 -4.03458 0
M  V30 38445 H 3730.75 -2.10792 -2.12619 0
M  V30 38446 H 3728.29 -1.01485 -1.0216 0
M  V30 38447 H 3730.25 -0.746486 -4.14736 0
M  V30 38448 H 3728.97 0.127068 -3.26353 0
M  V30 38449 H 3727.63 -1.99703 -3.07432 0
M  V30 38450 H 3727.28 -0.45251 -5.0096 0
M  V30 38451 H 3726.98 -2.14721 -5.46963 0
M  V30 38452 H 3728.5 -1.35088 -5.95469 0
M  V30 38453 H 3729.91 -3.25639 -4.71839 0
M  V30 38454 H 3728.31 -4.00673 -4.46745 0
M  V30 38455 H 3729.38 -3.74682 -3.07801 0
M  V30 38456 N 3730.72 1.11022 -1.11856 0
M  V30 38457 C 3731.65 2.19252 -0.803167 0
M  V30 38458 C 3732.64 1.68533 0.230387 0
M  V30 38459 O 3733.82 1.93978 0.092908 0
M  V30 38460 C 3730.95 3.46397 -0.250326 0
M  V30 38461 C 3729.9 4.10355 -1.21625 0
M  V30 38462 C 3729.23 5.32127 -0.523914 0
M  V30 38463 C 3730.53 4.54775 -2.5686 0
M  V30 38464 H 3732.22 2.45892 -1.70814 0
M  V30 38465 H 3729.77 1.18183 -0.822733 0
M  V30 38466 H 3731.72 4.21396 -0.0174473 0
M  V30 38467 H 3730.45 3.19229 0.689962 0
M  V30 38468 H 3729.11 3.37355 -1.43483 0
M  V30 38469 H 3728.75 5.01232 0.42132 0
M  V30 38470 H 3728.45 5.75871 -1.16819 0
M  V30 38471 H 3729.98 6.09863 -0.29993 0
M  V30 38472 H 3731.39 5.21077 -2.39065 0
M  V30 38473 H 3729.79 5.09347 -3.1731 0
M  V30 38474 H 3730.86 3.68001 -3.15758 0
M  V30 38475 N 3732.2 0.90954 1.28706 0
M  V30 38476 C 3733.43 0.556246 1.99282 0
M  V30 38477 C 3733.85 -0.861445 1.68002 0
M  V30 38478 O 3733.2 -1.57 0.930449 0
M  V30 38479 C 3733.25 0.750742 3.53619 0
M  V30 38480 O 3732.97 2.11264 3.83796 0
M  V30 38481 C 3734.48 0.403715 4.41458 0
M  V30 38482 H 3731.7 0.212473 0.636472 0
M  V30 38483 H 3734.24 1.22159 1.64005 0
M  V30 38484 H 3732.39 0.132452 3.87174 0
M  V30 38485 H 3732.81 2.14922 4.78444 0
M  V30 38486 H 3734.28 0.590593 5.48831 0
M  V30 38487 H 3734.76 -0.659821 4.34215 0
M  V30 38488 H 3735.37 0.999364 4.13392 0
M  V30 38489 N 3733.68 -1.42505 0.673067 0
M  V30 38490 C 3734.93 -2.01861 0.1949 0
M  V30 38491 C 3735.26 -1.53089 -1.19488 0
M  V30 38492 O 3734.53 -0.732354 -1.80186 0
M  V30 38493 C 3734.82 -3.5938 0.227622 0
M  V30 38494 C 3734.67 -4.18336 1.65274 0
M  V30 38495 C 3735.99 -4.38042 -0.42512 0
M  V30 38496 H 3733.11 -0.733445 0.072296 0
M  V30 38497 H 3735.75 -1.69548 0.857523 0
M  V30 38498 H 3733.9 -3.87039 -0.33659 0
M  V30 38499 H 3735.57 -4.01636 2.26906 0
M  V30 38500 H 3733.82 -3.7423 2.19395 0
M  V30 38501 H 3734.49 -5.27467 1.62733 0
M  V30 38502 H 3736.96 -4.16063 0.0551441 0
M  V30 38503 H 3735.84 -5.47641 -0.371579 0
M  V30 38504 H 3736.1 -4.15788 -1.50243 0
M  V30 38505 N 3735.16 -0.41628 -1.52003 0
M  V30 38506 C 3736.07 0.412363 -2.30947 0
M  V30 38507 C 3737.08 1.04705 -1.38971 0
M  V30 38508 O 3738.26 1.047 -1.72046 0
M  V30 38509 C 3735.33 1.51018 -3.12081 0
M  V30 38510 C 3734.39 0.897818 -4.19807 0
M  V30 38511 C 3733.62 1.94332 -4.97062 0
M  V30 38512 O 3733.84 3.16253 -4.747 0
M  V30 38513 O 3732.78 1.54557 -5.81718 0
M  V30 38514 H 3736.6 -0.231527 -3.02816 0
M  V30 38515 H 3734.19 -0.179309 -1.4832 0
M  V30 38516 H 3736.07 2.14735 -3.62584 0
M  V30 38517 H 3734.74 2.13854 -2.42998 0
M  V30 38518 H 3733.65 0.22317 -3.73434 0
M  V30 38519 H 3734.98 0.313274 -4.91202 0
M  V30 38520 N 3736.64 1.56914 -0.146931 0
M  V30 38521 C 3737.55 2.20326 0.805836 0
M  V30 38522 C 3738.56 1.18753 1.27176 0
M  V30 38523 O 3739.74 1.51329 1.32896 0
M  V30 38524 C 3736.8 2.81235 2.0275 0
M  V30 38525 C 3735.86 3.97933 1.61082 0
M  V30 38526 C 3735.1 4.55929 2.77425 0
M  V30 38527 O 3735.32 4.12804 3.93636 0
M  V30 38528 O 3734.25 5.46191 2.52901 0
M  V30 38529 H 3738.08 3.02254 0.296045 0
M  V30 38530 H 3735.67 1.49185 0.0800913 0
M  V30 38531 H 3737.55 3.19949 2.74246 0
M  V30 38532 H 3736.22 2.0232 2.52682 0
M  V30 38533 H 3735.13 3.63936 0.866096 0
M  V30 38534 H 3736.46 4.78368 1.15866 0
M  V30 38535 N 3738.11 -0.126854 1.57089 0
M  V30 38536 C 3739.08 -1.14 1.98838 0
M  V30 38537 C 3740.08 -1.34748 0.877478 0
M  V30 38538 O 3741.27 -1.31398 1.14369 0
M  V30 38539 C 3738.4 -2.49614 2.32176 0
M  V30 38540 H 3739.59 -0.781349 2.89543 0
M  V30 38541 H 3737.15 -0.370889 1.51836 0
M  V30 38542 H 3737.88 -2.90414 1.44326 0
M  V30 38543 H 3737.67 -2.35911 3.13191 0
M  V30 38544 H 3739.16 -3.22545 2.65244 0
M  V30 38545 N 3739.59 -1.52523 -0.396809 0
M  V30 38546 C 3740.83 -1.68869 -1.15163 0
M  V30 38547 C 3741.2 -0.415767 -1.87444 0
M  V30 38548 O 3742.4 -0.45549 -2.64913 0
M  V30 38549 C 3740.67 -2.88468 -2.11 0
M  V30 38550 S 3742.23 -3.25362 -2.94423 0
M  V30 38551 H 3739.05 -0.594522 -0.389955 0
M  V30 38552 H 3741.65 -1.90549 -0.437167 0
M  V30 38553 H 3740.35 -3.79345 -1.56607 0
M  V30 38554 H 3739.88 -2.69098 -2.86967 0
M  V30 38555 H 3741.9 -2.74942 -4.13064 0
M  V30 38556 N 3741.07 0.654789 -1.43354 0
M  V30 38557 C 3742.03 1.74957 -1.48063 0
M  V30 38558 C 3743.03 1.5659 -0.36554 0
M  V30 38559 O 3744.22 1.62516 -0.627222 0
M  V30 38560 C 3741.36 3.13813 -1.3317 0
M  V30 38561 H 3742.55 1.72163 -2.4556 0
M  V30 38562 H 3740.1 0.866298 -1.30096 0
M  V30 38563 H 3740.84 3.2222 -0.366746 0
M  V30 38564 H 3740.62 3.28549 -2.14004 0
M  V30 38565 H 3742.11 3.93648 -1.39394 0
M  V30 38566 N 3742.55 1.29858 0.893007 0
M  V30 38567 C 3743.48 1.1812 2.0142 0
M  V30 38568 C 3744.46 0.0737786 1.6994 0
M  V30 38569 O 3745.65 0.254421 1.92526 0
M  V30 38570 C 3742.78 0.863901 3.36384 0
M  V30 38571 C 3741.73 1.92838 3.82096 0
M  V30 38572 C 3741.06 1.46424 5.14261 0
M  V30 38573 C 3742.36 3.33826 4.01693 0
M  V30 38574 H 3744.05 2.11917 2.11498 0
M  V30 38575 H 3741.6 1.02026 1.01621 0
M  V30 38576 H 3743.55 0.76847 4.14334 0
M  V30 38577 H 3742.27 -0.109758 3.26416 0
M  V30 38578 H 3740.93 2.01331 3.06368 0
M  V30 38579 H 3740.58 0.479071 5.00713 0
M  V30 38580 H 3740.28 2.17618 5.45817 0
M  V30 38581 H 3741.8 1.38244 5.94744 0
M  V30 38582 H 3743.22 3.28137 4.70105 0
M  V30 38583 H 3741.61 4.03037 4.44614 0
M  V30 38584 H 3742.68 3.76309 3.05809 0
M  V30 38585 N 3744.03 -1.10427 1.12443 0
M  V30 38586 C 3745.26 -1.86172 0.902632 0
M  V30 38587 C 3745.67 -1.80669 -0.548115 0
M  V30 38588 O 3745.03 -1.19545 -1.37895 0
M  V30 38589 C 3745.08 -3.34568 1.36918 0
M  V30 38590 O 3744.8 -3.3998 2.76306 0
M  V30 38591 C 3746.3 -4.27187 1.18432 0
M  V30 38592 H 3743.52 -0.588393 0.322544 0
M  V30 38593 H 3746.06 -1.39597 1.49442 0
M  V30 38594 H 3744.22 -3.78609 0.820616 0
M  V30 38595 H 3744.63 -4.32461 2.9678 0
M  V30 38596 H 3746.11 -5.29509 1.55963 0
M  V30 38597 H 3746.58 -4.39022 0.124907 0
M  V30 38598 H 3747.19 -3.88951 1.72038 0
M  V30 38599 N 3745.51 -0.916353 -1.28221 0
M  V30 38600 C 3746.92 -0.597034 -1.76897 0
M  V30 38601 C 3747.27 0.887688 -1.7497 0
M  V30 38602 O 3746.39 1.69445 -1.34601 0
M  V30 38603 C 3746.99 -1.077 -3.21226 0
M  V30 38604 C 3745.55 -0.808555 -3.67613 0
M  V30 38605 C 3744.69 -1.24224 -2.47919 0
M  V30 38606 H 3747.64 -1.09734 -1.14648 0
M  V30 38607 H 3747.67 -0.419597 -3.78179 0
M  V30 38608 H 3747.18 -2.15762 -3.22596 0
M  V30 38609 H 3745.28 0.258749 -3.717 0
M  V30 38610 H 3745.39 -1.41813 -4.57631 0
M  V30 38611 H 3743.76 -0.660935 -2.45975 0
M  V30 38612 H 3744.54 -2.33126 -2.52006 0
M  V30 38613 N 3746.98 1.42146 -0.680615 0
M  V30 38614 C 3748.39 1.8456 -0.281874 0
M  V30 38615 C 3748.75 1.56967 1.17711 0
M  V30 38616 O 3747.87 1.03245 1.90183 0
M  V30 38617 C 3748.47 3.35018 -0.50481 0
M  V30 38618 C 3747.02 3.76059 -0.160133 0
M  V30 38619 C 3746.17 2.65677 -0.794423 0
M  V30 38620 H 3749.12 1.31909 -0.88236 0
M  V30 38621 H 3749.14 3.79734 0.241242 0
M  V30 38622 H 3748.66 3.5507 -1.56676 0
M  V30 38623 H 3746.76 3.61613 0.898138 0
M  V30 38624 H 3746.87 4.75268 -0.604714 0
M  V30 38625 H 3745.23 2.53702 -0.225258 0
M  V30 38626 H 3746.02 2.8855 -1.85994 0
M  V30 38627 N 3748.46 0.424336 1.5178 0
M  V30 38628 C 3749.41 -0.411299 2.2426 0
M  V30 38629 C 3750.4 -1.00092 1.25978 0
M  V30 38630 O 3751.59 -0.921211 1.51138 0
M  V30 38631 C 3748.72 -1.51911 3.0786 0
M  V30 38632 C 3747.8 -0.939526 4.13562 0
M  V30 38633 N 3748.19 -0.0879411 5.05724 0
M  V30 38634 C 3746.49 -1.20847 4.29316 0
M  V30 38635 C 3747.19 0.236178 5.8122 0
M  V30 38636 N 3746.17 -0.376887 5.42292 0
M  V30 38637 H 3749.97 0.245451 2.92873 0
M  V30 38638 H 3747.48 0.23564 1.60681 0
M  V30 38639 H 3749.48 -2.1305 3.58351 0
M  V30 38640 H 3748.14 -2.17833 2.40788 0
M  V30 38641 H 3749.15 0.277527 5.17156 0
M  V30 38642 H 3745.83 -1.86615 3.73472 0
M  V30 38643 H 3747.22 0.928358 6.65456 0
M  V30 38644 N 3749.94 -1.56833 0.15525 0
M  V30 38645 C 3751.16 -2.0119 -0.503728 0
M  V30 38646 C 3751.59 -1.03471 -1.57084 0
M  V30 38647 O 3750.95 -0.0117214 -1.81296 0
M  V30 38648 C 3751 -3.44245 -1.07367 0
M  V30 38649 O 3750.1 -3.49554 -2.18827 0
M  V30 38650 H 3749.44 -0.652629 -0.122357 0
M  V30 38651 H 3751.97 -2.03012 0.254412 0
M  V30 38652 H 3751.98 -3.83218 -1.40029 0
M  V30 38653 H 3750.66 -4.14872 -0.292266 0
M  V30 38654 H 3749.23 -3.2243 -1.87332 0
M  V30 38655 N 3751.42 0.118521 -1.57154 0
M  V30 38656 C 3752.38 1.12944 -1.9944 0
M  V30 38657 C 3753.38 1.34281 -0.884611 0
M  V30 38658 O 3754.57 1.3079 -1.15064 0
M  V30 38659 C 3751.7 2.4838 -2.33496 0
M  V30 38660 H 3752.9 0.765983 -2.89953 0
M  V30 38661 H 3750.45 0.362831 -1.5203 0
M  V30 38662 H 3751.18 2.89645 -1.45864 0
M  V30 38663 H 3750.97 2.34247 -3.14437 0
M  V30 38664 H 3752.46 3.21134 -2.6695 0
M  V30 38665 N 3752.9 1.52731 0.388715 0
M  V30 38666 C 3753.84 1.7753 1.47485 0
M  V30 38667 C 3754.81 0.618532 1.54154 0
M  V30 38668 O 3756 0.858281 1.70406 0
M  V30 38669 C 3753.14 1.95023 2.84711 0
M  V30 38670 C 3752.25 3.22715 2.87191 0
M  V30 38671 C 3751.39 3.30524 4.15845 0
M  V30 38672 C 3750.42 4.52339 4.12378 0
M  V30 38673 N 3749.56 4.57428 5.32639 0
M  V30 38674 H 3754.4 2.7022 1.25639 0
M  V30 38675 H 3751.94 1.33879 0.609495 0
M  V30 38676 H 3753.9 2.0315 3.64398 0
M  V30 38677 H 3752.53 1.05693 3.05006 0
M  V30 38678 H 3751.58 3.23659 1.99873 0
M  V30 38679 H 3752.89 4.12459 2.80497 0
M  V30 38680 H 3752.04 3.37836 5.03937 0
M  V30 38681 H 3750.78 2.38755 4.25261 0
M  V30 38682 H 3749.79 4.45153 3.22675 0
M  V30 38683 H 3751.01 5.45425 4.04584 0
M  V30 38684 H 3748.96 3.6855 5.42685 0
M  V30 38685 H 3748.88 5.41044 5.28022 0
M  V30 38686 H 3750.14 4.68994 6.22627 0
M  V30 38687 N 3754.37 -0.647178 1.43699 0
M  V30 38688 C 3755.6 -1.43955 1.49304 0
M  V30 38689 C 3756.02 -1.87754 0.113983 0
M  V30 38690 O 3755.38 -1.57751 -0.893543 0
M  V30 38691 C 3755.43 -2.64673 2.44909 0
M  V30 38692 O 3754.53 -3.63945 1.93953 0
M  V30 38693 H 3753.87 -0.431387 0.504779 0
M  V30 38694 H 3756.4 -0.791399 1.88674 0
M  V30 38695 H 3756.41 -3.12414 2.62414 0
M  V30 38696 H 3755.09 -2.32137 3.45087 0
M  V30 38697 H 3753.67 -3.23121 1.86138 0
M  V30 38698 N 3755.85 -1.3033 -0.886108 0
M  V30 38699 C 3757.27 -1.08637 -1.1692 0
M  V30 38700 C 3757.47 0.153614 -2.00914 0
M  V30 38701 O 3756.52 0.84755 -2.3785 0
M  V30 38702 C 3757.84 -2.34927 -1.87697 0
M  V30 38703 C 3759.39 -2.4038 -2.00466 0
M  V30 38704 C 3759.86 -3.66509 -2.74655 0
M  V30 38705 N 3761.35 -3.6731 -2.82201 0
M  V30 38706 C 3762.09 -4.61592 -3.40177 0
M  V30 38707 N 3761.58 -5.66218 -3.99211 0
M  V30 38708 N 3763.38 -4.49138 -3.37981 0
M  V30 38709 H 3755.53 -2.09883 -0.326027 0
M  V30 38710 H 3757.79 -0.925129 -0.20698 0
M  V30 38711 H 3757.5 -3.2541 -1.33421 0
M  V30 38712 H 3757.37 -2.43486 -2.88087 0
M  V30 38713 H 3759.76 -1.50376 -2.53912 0
M  V30 38714 H 3759.84 -2.35796 -0.991667 0
M  V30 38715 H 3759.48 -4.56871 -2.21882 0
M  V30 38716 H 3759.41 -3.68354 -3.76328 0
M  V30 38717 H 3761.9 -2.91669 -2.40287 0
M  V30 38718 H 3762.22 -6.34261 -4.41511 0
M  V30 38719 H 3760.56 -5.70011 -3.97633 0
M  V30 38720 H 3763.75 -3.66585 -2.91089 0
M  V30 38721 H 3763.92 -5.22797 -3.82868 0
M  V30 38722 N 3757.33 1.0983 -1.13028 0
M  V30 38723 C 3758.56 1.85422 -0.91117 0
M  V30 38724 C 3758.97 1.81232 0.543293 0
M  V30 38725 O 3758.31 1.20374 1.38766 0
M  V30 38726 C 3758.37 3.34551 -1.3159 0
M  V30 38727 C 3758.04 3.62493 -2.78294 0
M  V30 38728 C 3759.03 3.58566 -3.76466 0
M  V30 38729 C 3756.72 3.9097 -3.15353 0
M  V30 38730 C 3758.71 3.8272 -5.0971 0
M  V30 38731 C 3756.4 4.1478 -4.48777 0
M  V30 38732 C 3757.4 4.10646 -5.45765 0
M  V30 38733 O 3757.09 4.33844 -6.76783 0
M  V30 38734 H 3756.82 0.592679 -0.325127 0
M  V30 38735 H 3759.37 1.39715 -1.50562 0
M  V30 38736 H 3757.6 3.80944 -0.664695 0
M  V30 38737 H 3759.29 3.91545 -1.06993 0
M  V30 38738 H 3760.06 3.36597 -3.49181 0
M  V30 38739 H 3755.94 3.93315 -2.40466 0
M  V30 38740 H 3759.48 3.79408 -5.85402 0
M  V30 38741 H 3755.38 4.36229 -4.75788 0
M  V30 38742 H 3756.15 4.51326 -6.82823 0
M  V30 38743 N 3758.81 0.92314 1.27734 0
M  V30 38744 C 3760.06 0.560075 1.94184 0
M  V30 38745 C 3760.38 -0.90081 1.72946 0
M  V30 38746 O 3759.65 -1.63799 1.07456 0
M  V30 38747 H 3758.23 0.204142 0.718565 0
M  V30 38748 H 3760.89 1.17454 1.55533 0
M  V30 38749 H 3759.99 0.762477 3.02643 0
M  V30 38750 N 3760.29 -1.41783 0.688143 0
M  V30 38751 C 3761.53 -2.01345 0.215979 0
M  V30 38752 C 3761.86 -1.54468 -1.18194 0
M  V30 38753 O 3761.12 -0.743406 -1.8103 0
M  V30 38754 C 3761.42 -3.5676 0.21381 0
M  V30 38755 C 3761.08 -4.23119 1.55823 0
M  V30 38756 C 3759.74 -4.40961 1.92631 0
M  V30 38757 C 3762.1 -4.60396 2.44305 0
M  V30 38758 C 3759.42 -4.93354 3.1752 0
M  V30 38759 C 3761.78 -5.14175 3.6852 0
M  V30 38760 C 3760.44 -5.30229 4.0548 0
M  V30 38761 H 3759.71 -0.736773 0.0790323 0
M  V30 38762 H 3762.36 -1.69783 0.885767 0
M  V30 38763 H 3760.66 -3.88068 -0.539515 0
M  V30 38764 H 3762.36 -4.00644 -0.168933 0
M  V30 38765 H 3758.95 -4.09601 1.26193 0
M  V30 38766 H 3763.13 -4.46273 2.1715 0
M  V30 38767 H 3758.39 -5.03967 3.4616 0
M  V30 38768 H 3762.56 -5.42001 4.37274 0
M  V30 38769 H 3760.19 -5.7059 5.02326 0
M  V30 38770 N 3761.76 -0.432379 -1.51553 0
M  V30 38771 C 3763.01 0.135475 -2.01645 0
M  V30 38772 C 3763.33 1.43644 -1.31876 0
M  V30 38773 O 3762.6 1.90619 -0.45178 0
M  V30 38774 H 3761.18 0.0530552 -0.745114 0
M  V30 38775 H 3763.85 -0.57395 -1.86257 0
M  V30 38776 H 3762.94 0.314947 -3.10507 0
M  V30 38777 N 3763.24 1.56749 -0.163565 0
M  V30 38778 C 3764.21 2.16381 0.755763 0
M  V30 38779 C 3765.21 1.10985 1.16358 0
M  V30 38780 O 3766.4 1.36539 1.0818 0
M  V30 38781 C 3763.53 2.74038 2.0277 0
M  V30 38782 H 3764.72 2.98964 0.236758 0
M  V30 38783 H 3762.27 1.56063 0.0859651 0
M  V30 38784 H 3763.01 1.95168 2.58998 0
M  V30 38785 H 3762.79 3.51163 1.74433 0
M  V30 38786 H 3764.28 3.19928 2.68395 0
M  V30 38787 N 3764.72 -0.110185 1.57214 0
M  V30 38788 C 3765.67 -1.1347 2.0098 0
M  V30 38789 C 3766.64 -1.40656 0.883461 0
M  V30 38790 O 3767.82 -1.52374 1.14834 0
M  V30 38791 C 3764.96 -2.45379 2.42659 0
M  V30 38792 C 3764.08 -2.25053 3.68748 0
M  V30 38793 C 3763.21 -3.50254 3.99369 0
M  V30 38794 C 3762.25 -3.25124 5.18614 0
M  V30 38795 N 3761.39 -4.42551 5.45062 0
M  V30 38796 H 3766.23 -0.754492 2.8829 0
M  V30 38797 H 3763.76 -0.361039 1.42601 0
M  V30 38798 H 3765.72 -3.22341 2.64863 0
M  V30 38799 H 3764.35 -2.81276 1.58379 0
M  V30 38800 H 3763.4 -1.38966 3.54108 0
M  V30 38801 H 3764.72 -2.02467 4.5586 0
M  V30 38802 H 3763.87 -4.3563 4.22269 0
M  V30 38803 H 3762.61 -3.7588 3.10749 0
M  V30 38804 H 3761.61 -2.38139 4.9555 0
M  V30 38805 H 3762.84 -3.00859 6.08819 0
M  V30 38806 H 3760.78 -4.68281 4.594 0
M  V30 38807 H 3760.7 -4.231 6.26516 0
M  V30 38808 H 3761.97 -5.29035 5.72487 0
M  V30 38809 N 3766.2 -1.52935 -0.38061 0
M  V30 38810 C 3767.11 -1.81245 -1.48954 0
M  V30 38811 C 3768.12 -0.699769 -1.59309 0
M  V30 38812 O 3769.3 -0.988249 -1.75487 0
M  V30 38813 C 3766.37 -1.98295 -2.84394 0
M  V30 38814 C 3765.43 -3.22207 -2.83691 0
M  V30 38815 C 3764.66 -3.38434 -4.12672 0
M  V30 38816 O 3764.88 -2.59283 -5.08064 0
M  V30 38817 O 3763.82 -4.31727 -4.19399 0
M  V30 38818 H 3767.64 -2.75427 -1.27959 0
M  V30 38819 H 3765.23 -1.38129 -0.569266 0
M  V30 38820 H 3767.11 -2.11168 -3.64673 0
M  V30 38821 H 3765.78 -1.07303 -3.05398 0
M  V30 38822 H 3764.69 -3.1477 -2.02165 0
M  V30 38823 H 3766.02 -4.13073 -2.6764 0
M  V30 38824 N 3767.68 0.639548 -1.4404 0
M  V30 38825 C 3768.92 1.40133 -1.46597 0
M  V30 38826 C 3769.26 1.93968 -0.0949987 0
M  V30 38827 O 3768.53 1.73139 0.88617 0
M  V30 38828 C 3768.81 2.57279 -2.51952 0
M  V30 38829 C 3768.67 2.08848 -3.98375 0
M  V30 38830 C 3769.99 3.59478 -2.53897 0
M  V30 38831 H 3767.1 0.508194 -0.533768 0
M  V30 38832 H 3769.75 0.723867 -1.75671 0
M  V30 38833 H 3767.9 3.15073 -2.27291 0
M  V30 38834 H 3769.57 1.55949 -4.3414 0
M  V30 38835 H 3767.81 1.40101 -4.10553 0
M  V30 38836 H 3768.48 2.93149 -4.67726 0
M  V30 38837 H 3770.96 3.11468 -2.75911 0
M  V30 38838 H 3769.83 4.38976 -3.29532 0
M  V30 38839 H 3770.1 4.12986 -1.57781 0
M  V30 38840 N 3769.15 1.30798 0.879184 0
M  V30 38841 C 3770.57 1.09255 1.16342 0
M  V30 38842 C 3770.77 -0.142957 2.00992 0
M  V30 38843 O 3769.83 -0.834925 2.38297 0
M  V30 38844 C 3771.14 2.35919 1.86448 0
M  V30 38845 C 3772.69 2.41439 1.99188 0
M  V30 38846 C 3773.16 3.6796 2.72708 0
M  V30 38847 N 3774.65 3.68801 2.8025 0
M  V30 38848 C 3775.39 4.6339 3.37724 0
M  V30 38849 N 3774.88 5.68327 3.96202 0
M  V30 38850 N 3776.68 4.50924 3.35595 0
M  V30 38851 H 3768.83 2.10053 0.314891 0
M  V30 38852 H 3771.09 0.926214 0.20207 0
M  V30 38853 H 3770.8 3.26113 1.31694 0
M  V30 38854 H 3770.67 2.45011 2.86792 0
M  V30 38855 H 3773.06 1.5172 2.53111 0
M  V30 38856 H 3773.14 2.36318 0.979149 0
M  V30 38857 H 3772.78 4.58041 2.19456 0
M  V30 38858 H 3772.71 3.70345 3.74369 0
M  V30 38859 H 3775.2 2.92939 2.38737 0
M  V30 38860 H 3775.52 6.36594 4.38141 0
M  V30 38861 H 3773.86 5.72112 3.94605 0
M  V30 38862 H 3777.05 3.68124 2.89141 0
M  V30 38863 H 3777.23 5.2482 3.8009 0
M  V30 38864 N 3770.63 -1.09229 1.13608 0
M  V30 38865 C 3771.86 -1.85744 0.922699 0
M  V30 38866 C 3772.28 -1.80673 -0.523349 0
M  V30 38867 O 3771.64 -1.18568 -1.37154 0
M  V30 38868 C 3771.69 -3.31563 1.41768 0
M  V30 38869 O 3770.79 -4.07949 0.604252 0
M  V30 38870 H 3770.13 -0.575885 0.330533 0
M  V30 38871 H 3772.66 -1.37921 1.51126 0
M  V30 38872 H 3772.67 -3.82411 1.42219 0
M  V30 38873 H 3771.35 -3.3457 2.47054 0
M  V30 38874 H 3769.93 -3.66872 0.667785 0
M  V30 38875 N 3772.11 -0.929901 -1.27242 0
M  V30 38876 C 3773.04 -0.448106 -2.2916 0
M  V30 38877 C 3774.02 0.492747 -1.62807 0
M  V30 38878 O 3775.21 0.397026 -1.90098 0
M  V30 38879 C 3772.34 0.297942 -3.4602 0
M  V30 38880 C 3771.29 -0.555286 -4.24383 0
M  V30 38881 C 3770.62 0.320059 -5.33741 0
M  V30 38882 C 3771.92 -1.82088 -4.89532 0
M  V30 38883 H 3773.61 -1.29988 -2.6971 0
M  V30 38884 H 3771.16 -0.626488 -1.29658 0
M  V30 38885 H 3773.11 0.645951 -4.1642 0
M  V30 38886 H 3771.83 1.18376 -3.04392 0
M  V30 38887 H 3770.49 -0.886033 -3.55732 0
M  V30 38888 H 3770.14 1.20489 -4.88356 0
M  V30 38889 H 3769.84 -0.247344 -5.87079 0
M  V30 38890 H 3771.37 0.663591 -6.06983 0
M  V30 38891 H 3772.78 -1.54081 -5.52207 0
M  V30 38892 H 3771.18 -2.33196 -5.52937 0
M  V30 38893 H 3772.25 -2.53908 -4.13108 0
M  V30 38894 N 3773.59 1.41416 -0.695653 0
M  V30 38895 C 3774.81 2.06073 -0.234199 0
M  V30 38896 C 3775.24 1.52008 1.10793 0
M  V30 38897 O 3774.6 0.64708 1.69359 0
M  V30 38898 C 3774.65 3.60031 -0.202417 0
M  V30 38899 O 3773.75 4.04111 0.822696 0
M  V30 38900 H 3773.09 0.65407 -0.114406 0
M  V30 38901 H 3775.62 1.81179 -0.950535 0
M  V30 38902 H 3775.63 4.07986 -0.0333038 0
M  V30 38903 H 3774.31 3.98751 -1.18195 0
M  V30 38904 H 3772.88 3.6766 0.622931 0
M  V30 38905 N 3775.07 0.44041 1.51321 0
M  V30 38906 C 3776.48 0.0928652 1.5933 0
M  V30 38907 C 3776.68 -1.39805 1.4511 0
M  V30 38908 O 3775.74 -2.16829 1.29389 0
M  V30 38909 C 3777.05 0.615715 2.94329 0
M  V30 38910 C 3778.6 0.576427 3.07646 0
M  V30 38911 C 3779.08 1.0763 4.45174 0
M  V30 38912 N 3780.57 1.03442 4.51502 0
M  V30 38913 C 3781.3 1.39204 5.56246 0
M  V30 38914 N 3780.8 1.82266 6.68394 0
M  V30 38915 N 3782.59 1.31001 5.46622 0
M  V30 38916 H 3774.74 1.41044 1.58809 0
M  V30 38917 H 3777 0.581399 0.748785 0
M  V30 38918 H 3776.71 1.65897 3.10114 0
M  V30 38919 H 3776.58 0.0423176 3.77176 0
M  V30 38920 H 3778.97 -0.457852 2.91527 0
M  V30 38921 H 3779.05 1.18626 2.26631 0
M  V30 38922 H 3778.7 2.10906 4.6204 0
M  V30 38923 H 3778.63 0.442974 5.24734 0
M  V30 38924 H 3781.12 0.718221 3.71012 0
M  V30 38925 H 3781.43 2.07782 7.44343 0
M  V30 38926 H 3779.78 1.86195 6.69594 0
M  V30 38927 H 3782.97 0.972225 4.57892 0
M  V30 38928 H 3783.14 1.59199 6.2814 0
M  V30 38929 N 3776.55 -1.5666 0.171876 0
M  V30 38930 C 3777.96 -1.58532 -0.184284 0
M  V30 38931 C 3778.16 -1.18724 -1.62809 0
M  V30 38932 O 3777.22 -0.899107 -2.3595 0
M  V30 38933 C 3778.53 -3.00543 0.0970354 0
M  V30 38934 C 3780.08 -3.1298 0.0352914 0
M  V30 38935 C 3780.55 -4.57083 0.289608 0
M  V30 38936 N 3782.04 -4.62591 0.237404 0
M  V30 38937 C 3782.78 -5.71944 0.408347 0
M  V30 38938 N 3782.28 -6.89853 0.638377 0
M  V30 38939 N 3784.07 -5.61045 0.344214 0
M  V30 38940 H 3776.22 -1.80823 1.11431 0
M  V30 38941 H 3778.48 -0.838107 0.443035 0
M  V30 38942 H 3778.19 -3.34146 1.09723 0
M  V30 38943 H 3778.06 -3.72217 -0.611092 0
M  V30 38944 H 3780.45 -2.79203 -0.955482 0
M  V30 38945 H 3780.53 -2.43741 0.776138 0
M  V30 38946 H 3780.17 -4.91569 1.27759 0
M  V30 38947 H 3780.1 -5.24482 -0.471856 0
M  V30 38948 H 3782.6 -3.77844 0.0652807 0
M  V30 38949 H 3782.91 -7.69071 0.758251 0
M  V30 38950 H 3781.25 -6.91714 0.674999 0
M  V30 38951 H 3784.44 -4.67809 0.16509 0
M  V30 38952 H 3784.62 -6.46213 0.480862 0
M  V30 38953 N 3778.02 0.101846 -1.57271 0
M  V30 38954 C 3778.99 1.10822 -2.00627 0
M  V30 38955 C 3779.99 1.33335 -0.898804 0
M  V30 38956 O 3781.18 1.29562 -1.16445 0
M  V30 38957 C 3778.31 2.45889 -2.36117 0
M  V30 38958 H 3779.5 0.735187 -2.90749 0
M  V30 38959 H 3777.05 0.346686 -1.52407 0
M  V30 38960 H 3777.79 2.88081 -1.48928 0
M  V30 38961 H 3777.57 2.30899 -3.16904 0
M  V30 38962 H 3779.06 3.18285 -2.70342 0
M  V30 38963 N 3779.5 1.53135 0.372494 0
M  V30 38964 C 3780.75 1.69232 1.11751 0
M  V30 38965 C 3781.08 0.439299 1.89166 0
M  V30 38966 O 3780.36 -0.563284 1.86165 0
M  V30 38967 C 3780.64 2.93785 2.08237 0
M  V30 38968 C 3780.49 4.29227 1.34476 0
M  V30 38969 C 3781.81 3.1392 3.08451 0
M  V30 38970 H 3778.93 0.615821 0.404887 0
M  V30 38971 H 3781.57 1.85762 0.399069 0
M  V30 38972 H 3779.72 2.79823 2.69502 0
M  V30 38973 H 3781.39 4.54988 0.76048 0
M  V30 38974 H 3779.64 4.28954 0.646598 0
M  V30 38975 H 3780.31 5.12497 2.05062 0
M  V30 38976 H 3782.78 3.27022 2.57286 0
M  V30 38977 H 3781.66 4.02516 3.73191 0
M  V30 38978 H 3781.92 2.28884 3.78239 0
M  V30 38979 N 3780.98 -0.6319 1.44377 0
M  V30 38980 C 3781.93 -1.7651 1.51483 0
M  V30 38981 C 3782.92 -1.6493 0.386591 0
M  V30 38982 O 3784.13 -1.71018 0.561503 0
M  V30 38983 H 3780.5 -0.582724 0.475328 0
M  V30 38984 H 3782.47 -1.6764 2.46859 0
M  V30 38985 C 3781.22 -3.14842 1.47545 0
M  V30 38986 H 3780.55 -3.24401 2.33676 0
M  V30 38987 H 3781.99 -3.9403 1.56577 0
M  V30 38988 C 3780.44 -3.36329 0.196102 0
M  V30 38989 O 3780.97 -3.94937 -0.734014 0
M  V30 38990 N 3779.18 -2.9043 0.0994842 0
M  V30 38991 H 3778.73 -2.42919 0.857219 0
M  V30 38992 H 3778.69 -3.05181 -0.755761 0
M  V30 38993 N 3782.46 -1.31262 -0.872235 0
M  V30 38994 C 3783.41 -1.1532 -1.96686 0
M  V30 38995 C 3784.39 -0.0648205 -1.60769 0
M  V30 38996 O 3785.58 -0.289499 -1.74616 0
M  V30 38997 C 3782.71 -0.8603 -3.32346 0
M  V30 38998 C 3781.8 -1.98955 -3.74537 0
M  V30 38999 N 3782.19 -3.23634 -3.88709 0
M  V30 39000 C 3780.49 -1.88878 -4.04031 0
M  V30 39001 C 3781.19 -3.97486 -4.24711 0
M  V30 39002 N 3780.16 -3.25636 -4.35272 0
M  V30 39003 H 3783.97 -2.09866 -2.05751 0
M  V30 39004 H 3781.48 -1.22787 -1.06288 0
M  V30 39005 H 3783.48 -0.727076 -4.10511 0
M  V30 39006 H 3782.14 0.0769562 -3.24609 0
M  V30 39007 H 3783.15 -3.58776 -3.73497 0
M  V30 39008 H 3779.83 -1.02602 -4.04696 0
M  V30 39009 H 3781.22 -5.04917 -4.43293 0
M  V30 39010 N 3783.94 1.08625 -1.14186 0
M  V30 39011 C 3785.18 1.80342 -0.903303 0
M  V30 39012 C 3785.5 1.87057 0.571768 0
M  V30 39013 O 3786.7 2.55165 0.927515 0
M  V30 39014 C 3785.16 3.24016 -1.56659 0
M  V30 39015 C 3784.77 3.25542 -3.07776 0
M  V30 39016 C 3786.51 4.00432 -1.40906 0
M  V30 39017 C 3784.42 4.63789 -3.66951 0
M  V30 39018 H 3783.35 0.67584 -0.3343 0
M  V30 39019 H 3786 1.22021 -1.37052 0
M  V30 39020 H 3784.38 3.8245 -1.02704 0
M  V30 39021 H 3785.56 2.76827 -3.68379 0
M  V30 39022 H 3783.87 2.6262 -3.23141 0
M  V30 39023 H 3786.47 5.02584 -1.8252 0
M  V30 39024 H 3786.81 4.14785 -0.354895 0
M  V30 39025 H 3787.34 3.48461 -1.91885 0
M  V30 39026 H 3784.08 4.5464 -4.72211 0
M  V30 39027 H 3783.6 5.12795 -3.11128 0
M  V30 39028 H 3785.28 5.32764 -3.67112 0
M  V30 39029 N 3785.41 0.936635 1.26747 0
M  V30 39030 C 3786.83 0.638243 1.46283 0
M  V30 39031 C 3787.03 -0.809827 1.8451 0
M  V30 39032 O 3786.09 -1.5869 1.96402 0
M  V30 39033 C 3787.4 1.59577 2.54864 0
M  V30 39034 C 3788.95 1.60497 2.68718 0
M  V30 39035 C 3789.42 2.54969 3.80466 0
M  V30 39036 N 3790.91 2.53228 3.87853 0
M  V30 39037 C 3791.65 3.23013 4.73762 0
M  V30 39038 N 3791.14 4.02208 5.64093 0
M  V30 39039 N 3792.94 3.11987 4.67568 0
M  V30 39040 H 3785.09 1.87269 1.00221 0
M  V30 39041 H 3787.35 0.804511 0.501464 0
M  V30 39042 H 3787.06 2.62924 2.3359 0
M  V30 39043 H 3786.93 1.34433 3.52431 0
M  V30 39044 H 3789.32 0.57878 2.89369 0
M  V30 39045 H 3789.4 1.89694 1.7161 0
M  V30 39046 H 3789.04 3.57704 3.60569 0
M  V30 39047 H 3788.97 2.23065 4.77022 0
M  V30 39048 H 3791.46 1.95719 3.23268 0
M  V30 39049 H 3791.78 4.5242 6.26527 0
M  V30 39050 H 3790.12 4.0631 5.63859 0
M  V30 39051 H 3793.31 2.49603 3.96 0
M  V30 39052 H 3793.49 3.66642 5.34301 0
M  V30 39053 N 3786.89 -1.41045 0.703143 0
M  V30 39054 C 3788.12 -2.05946 0.245124 0
M  V30 39055 C 3788.54 -1.52593 -1.09986 0
M  V30 39056 O 3787.9 -0.656052 -1.69014 0
M  V30 39057 C 3787.95 -3.59919 0.221507 0
M  V30 39058 O 3787.05 -4.04541 -0.801253 0
M  V30 39059 H 3786.39 -0.653454 0.117873 0
M  V30 39060 H 3788.92 -1.80673 0.96013 0
M  V30 39061 H 3788.93 -4.07963 0.0549399 0
M  V30 39062 H 3787.61 -3.98119 1.20308 0
M  V30 39063 H 3786.19 -3.67985 -0.603424 0
M  V30 39064 N 3788.37 -0.448429 -1.51086 0
M  V30 39065 C 3789.62 0.114476 -2.02477 0
M  V30 39066 C 3789.95 1.41388 -1.33128 0
M  V30 39067 O 3789.22 1.8923 -0.449699 0
M  V30 39068 C 3789.51 0.321779 -3.58659 0
M  V30 39069 C 3789.36 -0.997053 -4.3861 0
M  V30 39070 C 3790.68 1.0866 -4.26475 0
M  V30 39071 H 3787.8 0.0401301 -0.735907 0
M  V30 39072 H 3790.44 -0.589595 -1.80621 0
M  V30 39073 H 3788.59 0.921503 -3.77413 0
M  V30 39074 H 3790.26 -1.63161 -4.31481 0
M  V30 39075 H 3788.51 -1.59907 -4.03252 0
M  V30 39076 H 3789.18 -0.805913 -5.46085 0
M  V30 39077 H 3791.65 0.578486 -4.12059 0
M  V30 39078 H 3790.53 1.20042 -5.35613 0
M  V30 39079 H 3790.79 2.11751 -3.8809 0
M  V30 39080 N 3789.85 1.56567 -0.180181 0
M  V30 39081 C 3791.09 1.98208 0.456616 0
M  V30 39082 C 3791.45 1.06464 1.6026 0
M  V30 39083 O 3790.74 0.106044 1.91306 0
M  V30 39084 C 3790.94 3.43735 0.978834 0
M  V30 39085 C 3790.77 4.49553 -0.115015 0
M  V30 39086 C 3789.54 5.02101 -0.567659 0
M  V30 39087 C 3791.73 5.0603 -0.918617 0
M  V30 39088 N 3789.72 5.91564 -1.64089 0
M  V30 39089 C 3791.09 5.92019 -1.84157 0
M  V30 39090 C 3793.14 4.88504 -0.962706 0
M  V30 39091 C 3791.84 6.62357 -2.80492 0
M  V30 39092 C 3793.87 5.5957 -1.91403 0
M  V30 39093 C 3793.23 6.45294 -2.82445 0
M  V30 39094 H 3789.33 0.77027 0.134937 0
M  V30 39095 H 3791.92 1.9264 -0.282442 0
M  V30 39096 H 3790.09 3.49831 1.68738 0
M  V30 39097 H 3791.82 3.72371 1.585 0
M  V30 39098 H 3788.57 4.73317 -0.163732 0
M  V30 39099 H 3789 6.41 -2.17826 0
M  V30 39100 H 3793.64 4.21919 -0.272849 0
M  V30 39101 H 3791.36 7.2815 -3.50461 0
M  V30 39102 H 3794.94 5.47993 -1.95437 0
M  V30 39103 H 3793.82 6.99317 -3.54859 0
M  V30 39104 N 3791.33 -0.0935042 1.57322 0
M  V30 39105 C 3792.24 -1.13165 2.05501 0
M  V30 39106 C 3793.25 -1.43762 0.980224 0
M  V30 39107 O 3794.43 -1.54372 1.29349 0
M  V30 39108 C 3791.49 -2.43177 2.47115 0
M  V30 39109 C 3790.55 -2.19748 3.68795 0
M  V30 39110 C 3789.79 -3.4356 4.08415 0
M  V30 39111 O 3790.01 -4.51857 3.48112 0
M  V30 39112 O 3788.94 -3.33053 5.01357 0
M  V30 39113 H 3792.77 -0.75244 2.94231 0
M  V30 39114 H 3790.36 -0.306126 1.4623 0
M  V30 39115 H 3792.24 -3.1973 2.74501 0
M  V30 39116 H 3790.91 -2.80521 1.61523 0
M  V30 39117 H 3789.82 -1.4097 3.46523 0
M  V30 39118 H 3791.15 -1.87295 4.55172 0
M  V30 39119 N 3792.8 -1.5333 -0.364368 0
M  V30 39120 C 3794.08 -1.60176 -1.12263 0
M  V30 39121 C 3794.46 -0.410051 -2.07079 0
M  V30 39122 O 3793.81 0.599592 -2.20493 0
M  V30 39123 C 3794.02 -2.95263 -1.86066 0
M  V30 39124 C 3795.37 -3.49883 -2.40556 0
M  V30 39125 O 3796.39 -2.97301 -1.96191 0
M  V30 39126 O 3795.25 -4.4181 -3.21662 0
M  V30 39127 H 3792.34 -0.647033 -0.515051 0
M  V30 39128 H 3794.89 -1.65672 -0.367534 0
M  V30 39129 H 3793.66 -3.73439 -1.16873 0
M  V30 39130 H 3793.29 -2.93264 -2.68481 0
M  V30 39131 N 3794.28 0.624234 -1.4471 0
M  V30 39132 C 3795.21 1.7469 -1.54937 0
M  V30 39133 C 3796.19 1.65283 -0.401926 0
M  V30 39134 O 3797.38 1.83938 -0.622938 0
M  V30 39135 C 3794.51 3.13245 -1.49982 0
M  V30 39136 C 3793.46 3.37448 -2.63273 0
M  V30 39137 C 3792.79 4.76104 -2.4337 0
M  V30 39138 C 3794.09 3.29332 -4.05386 0
M  V30 39139 H 3795.78 1.66388 -2.48908 0
M  V30 39140 H 3793.33 0.799067 -1.19795 0
M  V30 39141 H 3795.28 3.91566 -1.55736 0
M  V30 39142 H 3794.01 3.22348 -0.525311 0
M  V30 39143 H 3792.66 2.6151 -2.5692 0
M  V30 39144 H 3792.31 4.81918 -1.44096 0
M  V30 39145 H 3792.01 4.93255 -3.19332 0
M  V30 39146 H 3793.54 5.56646 -2.50953 0
M  V30 39147 H 3794.95 3.97549 -4.13071 0
M  V30 39148 H 3793.35 3.58017 -4.81605 0
M  V30 39149 H 3794.42 2.2703 -4.28469 0
M  V30 39150 N 3795.76 1.31723 0.865262 0
M  V30 39151 C 3796.69 1.22366 1.98869 0
M  V30 39152 C 3797.67 0.109809 1.69745 0
M  V30 39153 O 3798.86 0.295201 1.91943 0
M  V30 39154 C 3795.99 0.935059 3.34476 0
M  V30 39155 C 3794.94 2.00899 3.7792 0
M  V30 39156 C 3794.27 1.573 5.11039 0
M  V30 39157 C 3795.57 3.42271 3.94522 0
M  V30 39158 H 3797.26 2.16356 2.06956 0
M  V30 39159 H 3794.81 1.04158 0.994337 0
M  V30 39160 H 3796.76 0.856183 4.12611 0
M  V30 39161 H 3795.48 -0.0404962 3.26575 0
M  V30 39162 H 3794.14 2.07784 3.02029 0
M  V30 39163 H 3793.79 0.585172 4.99585 0
M  V30 39164 H 3793.49 2.29147 5.41078 0
M  V30 39165 H 3795.01 1.50828 5.91678 0
M  V30 39166 H 3796.43 3.38035 4.63039 0
M  V30 39167 H 3794.83 4.12377 4.35965 0
M  V30 39168 H 3795.9 3.82711 2.97758 0
M  V30 39169 N 3797.24 -1.08018 1.14761 0
M  V30 39170 C 3798.15 -2.18583 0.851972 0
M  V30 39171 C 3799.16 -1.73176 -0.16911 0
M  V30 39172 O 3800.34 -2.014 0.00333654 0
M  V30 39173 C 3797.41 -3.45048 0.338038 0
M  V30 39174 C 3796.47 -4.05059 1.42217 0
M  V30 39175 C 3795.7 -5.25487 0.932666 0
M  V30 39176 O 3795.92 -5.69959 -0.224356 0
M  V30 39177 O 3794.86 -5.76998 1.7134 0
M  V30 39178 H 3798.68 -2.4635 1.77609 0
M  V30 39179 H 3796.27 -1.17227 0.926179 0
M  V30 39180 H 3798.15 -4.21361 0.0575474 0
M  V30 39181 H 3796.82 -3.18849 -0.558307 0
M  V30 39182 H 3795.73 -3.30317 1.75618 0
M  V30 39183 H 3797.06 -4.35516 2.29318 0
M  V30 39184 N 3798.72 -0.943344 -1.26249 0
M  V30 39185 C 3799.99 -0.509865 -1.88838 0
M  V30 39186 C 3800.37 1.0126 -1.85229 0
M  V30 39187 O 3799.72 1.87354 -1.30808 0
M  V30 39188 C 3799.93 -1.07367 -3.32074 0
M  V30 39189 C 3801.28 -1.14364 -4.08908 0
M  V30 39190 O 3802.3 -1.02441 -3.41151 0
M  V30 39191 O 3801.16 -1.32935 -5.30085 0
M  V30 39192 H 3798.26 -0.166498 -0.810066 0
M  V30 39193 H 3800.8 -1.03605 -1.34403 0
M  V30 39194 H 3799.57 -2.11722 -3.29074 0
M  V30 39195 H 3799.2 -0.53006 -3.94051 0
M  V30 39196 N 3800.2 1.4067 -0.710613 0
M  V30 39197 C 3801.13 2.29195 -0.0155152 0
M  V30 39198 C 3802.14 1.4557 0.728913 0
M  V30 39199 O 3803.33 1.68913 0.577117 0
M  V30 39200 C 3800.43 3.2374 1.00226 0
M  V30 39201 C 3799.6 4.36195 0.324387 0
M  V30 39202 C 3798.66 5.11214 1.24686 0
M  V30 39203 O 3797.69 5.64454 0.733535 0
M  V30 39204 N 3798.89 5.20099 2.57832 0
M  V30 39205 H 3801.65 2.8949 -0.775594 0
M  V30 39206 H 3799.22 1.51986 -0.557842 0
M  V30 39207 H 3801.21 3.70798 1.62145 0
M  V30 39208 H 3799.78 2.64647 1.66375 0
M  V30 39209 H 3799 3.91329 -0.474916 0
M  V30 39210 H 3800.29 5.08589 -0.146358 0
M  V30 39211 H 3799.68 4.78319 3.02039 0
M  V30 39212 H 3798.24 5.70681 3.14907 0
M  V30 39213 N 3801.67 0.456435 1.50846 0
M  V30 39214 C 3802.62 -0.363638 2.25081 0
M  V30 39215 C 3803.61 -0.973968 1.28073 0
M  V30 39216 O 3804.8 -0.888945 1.53058 0
M  V30 39217 C 3801.93 -1.45347 3.11013 0
M  V30 39218 C 3801.01 -0.851592 4.15462 0
M  V30 39219 N 3801.41 0.0193501 5.05796 0
M  V30 39220 C 3799.7 -1.11713 4.31782 0
M  V30 39221 C 3800.4 0.359411 5.80589 0
M  V30 39222 N 3799.38 -0.261774 5.42969 0
M  V30 39223 H 3803.18 0.307519 2.92287 0
M  V30 39224 H 3800.7 0.26967 1.60145 0
M  V30 39225 H 3802.69 -2.05401 3.62789 0
M  V30 39226 H 3801.35 -2.12676 2.45354 0
M  V30 39227 H 3802.36 0.387161 5.16451 0
M  V30 39228 H 3799.04 -1.78651 3.77346 0
M  V30 39229 H 3800.43 1.0693 6.63337 0
M  V30 39230 N 3803.15 -1.56469 0.188482 0
M  V30 39231 C 3804.38 -2.01771 -0.457811 0
M  V30 39232 C 3804.79 -1.06866 -1.55644 0
M  V30 39233 O 3804.15 -0.0723939 -1.82356 0
M  V30 39234 C 3804.2 -3.46804 -1.02026 0
M  V30 39235 O 3803.92 -4.38086 0.0345306 0
M  V30 39236 C 3805.42 -4.07592 -1.74309 0
M  V30 39237 H 3802.64 -0.66097 -0.115583 0
M  V30 39238 H 3805.19 -2.02357 0.295248 0
M  V30 39239 H 3803.34 -3.46938 -1.72373 0
M  V30 39240 H 3803.76 -5.23099 -0.383162 0
M  V30 39241 H 3805.23 -5.10944 -2.08903 0
M  V30 39242 H 3805.71 -3.50669 -2.64439 0
M  V30 39243 H 3806.31 -4.11211 -1.08563 0
M  V30 39244 N 3804.63 0.0851597 -1.5737 0
M  V30 39245 C 3806.04 0.638544 -1.75441 0
M  V30 39246 C 3806.39 1.78605 -0.812073 0
M  V30 39247 O 3805.52 2.16399 0.00706624 0
M  V30 39248 C 3806.11 1.16512 -3.18136 0
M  V30 39249 C 3804.67 1.66448 -3.37597 0
M  V30 39250 C 3803.82 0.578227 -2.71204 0
M  V30 39251 H 3806.77 -0.140959 -1.58073 0
M  V30 39252 H 3806.79 2.03424 -3.21557 0
M  V30 39253 H 3806.3 0.329726 -3.86697 0
M  V30 39254 H 3804.4 2.52355 -2.74131 0
M  V30 39255 H 3804.52 1.75063 -4.45971 0
M  V30 39256 H 3802.88 1.02007 -2.33381 0
M  V30 39257 H 3803.66 -0.246751 -3.42412 0
M  V30 39258 N 3806.11 1.53521 0.356231 0
M  V30 39259 C 3807.36 1.69374 1.09523 0
M  V30 39260 C 3807.67 0.456945 1.90188 0
M  V30 39261 O 3808.88 0.496188 2.66927 0
M  V30 39262 C 3807.33 2.99454 1.99637 0
M  V30 39263 C 3806.94 4.30428 1.2424 0
M  V30 39264 C 3808.68 3.24674 2.73472 0
M  V30 39265 C 3806.59 5.51591 2.13311 0
M  V30 39266 H 3805.52 0.631104 0.412583 0
M  V30 39267 H 3808.17 1.80022 0.355571 0
M  V30 39268 H 3806.55 2.82632 2.77372 0
M  V30 39269 H 3807.73 4.57913 0.515042 0
M  V30 39270 H 3806.04 4.11724 0.622282 0
M  V30 39271 H 3808.64 4.12383 3.40359 0
M  V30 39272 H 3808.98 2.41136 3.39351 0
M  V30 39273 H 3809.52 3.42214 2.02817 0
M  V30 39274 H 3806.25 6.37635 1.51994 0
M  V30 39275 H 3805.77 5.28373 2.83871 0
M  V30 39276 H 3807.45 5.86743 2.72656 0
M  V30 39277 N 3807.59 -0.616551 1.45039 0
M  V30 39278 C 3808.86 -1.37554 1.39062 0
M  V30 39279 C 3809.24 -2.11024 0.0566678 0
M  V30 39280 O 3808.59 -2.07301 -0.961167 0
M  V30 39281 C 3808.8 -2.32984 2.59845 0
M  V30 39282 C 3810.15 -2.95868 3.04544 0
M  V30 39283 O 3811.17 -2.43307 2.60154 0
M  V30 39284 O 3810.03 -3.91253 3.81553 0
M  V30 39285 H 3807.13 -0.616343 0.551407 0
M  V30 39286 H 3809.67 -0.640388 1.57153 0
M  V30 39287 H 3808.44 -1.77894 3.48525 0
M  V30 39288 H 3808.07 -3.13894 2.44041 0
M  V30 39289 N 3809.06 -1.3218 -0.858264 0
M  V30 39290 C 3810.29 -1.25526 -1.64471 0
M  V30 39291 C 3810.71 0.177392 -1.87965 0
M  V30 39292 O 3810.06 1.1133 -1.44609 0
M  V30 39293 C 3810.11 -2.00795 -3.00605 0
M  V30 39294 O 3809.84 -3.3847 -2.78154 0
M  V30 39295 C 3811.34 -2.01122 -3.95051 0
M  V30 39296 H 3808.56 -0.433246 -0.512385 0
M  V30 39297 H 3811.1 -1.74246 -1.07045 0
M  V30 39298 H 3809.26 -1.55807 -3.54687 0
M  V30 39299 H 3809.67 -3.76948 -3.64706 0
M  V30 39300 H 3811.14 -2.58276 -4.8785 0
M  V30 39301 H 3811.62 -0.996588 -4.27744 0
M  V30 39302 H 3812.23 -2.46041 -3.46906 0
M  V30 39303 N 3810.54 1.07407 -1.15332 0
M  V30 39304 C 3811.77 1.83714 -0.951675 0
M  V30 39305 C 3812.18 1.82058 0.500022 0
M  V30 39306 O 3811.54 1.23159 1.34677 0
M  V30 39307 C 3811.59 3.3082 -1.4574 0
M  V30 39308 O 3811.31 3.32535 -2.85223 0
M  V30 39309 C 3812.81 4.23897 -1.29716 0
M  V30 39310 H 3810.03 0.579634 -0.338031 0
M  V30 39311 H 3812.58 1.35586 -1.5309 0
M  V30 39312 H 3810.73 3.763 -0.920709 0
M  V30 39313 H 3811.15 4.2444 -3.08141 0
M  V30 39314 H 3812.62 5.25187 -1.69948 0
M  V30 39315 H 3813.1 4.38537 -0.241263 0
M  V30 39316 H 3813.7 3.84253 -1.8229 0
M  V30 39317 N 3812.02 0.950026 1.25747 0
M  V30 39318 C 3813.27 0.598022 1.92631 0
M  V30 39319 C 3813.58 -0.868334 1.75269 0
M  V30 39320 O 3814.79 -1.3301 2.36687 0
M  V30 39321 C 3813.24 1.01885 3.45178 0
M  V30 39322 C 3812.85 2.50743 3.71257 0
M  V30 39323 C 3814.6 0.739157 4.18015 0
M  V30 39324 C 3812.5 2.8665 5.17287 0
M  V30 39325 H 3811.43 0.219951 0.721206 0
M  V30 39326 H 3814.08 1.15386 1.42683 0
M  V30 39327 H 3812.47 0.391464 3.9406 0
M  V30 39328 H 3813.64 3.18461 3.33045 0
M  V30 39329 H 3811.95 2.76135 3.11671 0
M  V30 39330 H 3814.55 0.983648 5.25574 0
M  V30 39331 H 3814.89 -0.324317 4.15035 0
M  V30 39332 H 3815.43 1.32667 3.75026 0
M  V30 39333 H 3812.17 3.91996 5.25376 0
M  V30 39334 H 3811.69 2.23601 5.56563 0
M  V30 39335 H 3813.37 2.75592 5.8537 0
M  V30 39336 N 3813.5 -1.40291 0.718063 0
M  V30 39337 C 3814.43 -2.28194 0.0161395 0
M  V30 39338 C 3815.41 -1.43473 -0.765134 0
M  V30 39339 O 3816.59 -1.72883 -0.751253 0
M  V30 39340 C 3813.72 -3.24076 -0.984501 0
M  V30 39341 C 3812.77 -4.25487 -0.293743 0
M  V30 39342 S 3813.6 -5.26453 0.980152 0
M  V30 39343 C 3814.75 -6.25897 -0.0183226 0
M  V30 39344 H 3814.99 -2.87378 0.761636 0
M  V30 39345 H 3812.52 -1.45762 0.509183 0
M  V30 39346 H 3814.48 -3.79842 -1.5566 0
M  V30 39347 H 3813.14 -2.63944 -1.70272 0
M  V30 39348 H 3812.33 -4.92935 -1.05028 0
M  V30 39349 H 3811.93 -3.73433 0.205867 0
M  V30 39350 H 3814.23 -6.71964 -0.864346 0
M  V30 39351 H 3815.17 -7.05355 0.622836 0
M  V30 39352 H 3815.58 -5.63198 -0.383155 0
M  V30 39353 N 3814.98 -0.464428 -1.50602 0
M  V30 39354 C 3815.94 0.32181 -2.2693 0
M  V30 39355 C 3816.94 0.926266 -1.31442 0
M  V30 39356 O 3818.13 0.796484 -1.54925 0
M  V30 39357 C 3815.26 1.4578 -3.08158 0
M  V30 39358 H 3816.45 -0.347488 -2.9788 0
M  V30 39359 H 3814.01 -0.218305 -1.54768 0
M  V30 39360 H 3814.74 2.16235 -2.41688 0
M  V30 39361 H 3814.53 1.03024 -3.78323 0
M  V30 39362 H 3816.02 2.01259 -3.65902 0
M  V30 39363 N 3816.45 1.56367 -0.196777 0
M  V30 39364 C 3817.4 2.19169 0.723422 0
M  V30 39365 C 3818.37 1.13945 1.20854 0
M  V30 39366 O 3819.56 1.42203 1.27212 0
M  V30 39367 C 3816.7 2.85636 1.93664 0
M  V30 39368 C 3815.81 4.0539 1.49274 0
M  V30 39369 C 3814.94 4.59709 2.66159 0
M  V30 39370 C 3813.98 5.71818 2.18383 0
M  V30 39371 N 3813.12 6.20535 3.28452 0
M  V30 39372 H 3817.96 2.97449 0.181116 0
M  V30 39373 H 3815.5 1.46895 0.0776544 0
M  V30 39374 H 3817.46 3.22343 2.6486 0
M  V30 39375 H 3816.09 2.09917 2.45223 0
M  V30 39376 H 3815.14 3.74335 0.676592 0
M  V30 39377 H 3816.45 4.86469 1.10223 0
M  V30 39378 H 3815.6 4.98731 3.45474 0
M  V30 39379 H 3814.34 3.77741 3.08485 0
M  V30 39380 H 3813.35 5.32323 1.37522 0
M  V30 39381 H 3814.57 6.55605 1.77086 0
M  V30 39382 H 3812.52 5.41489 3.70305 0
M  V30 39383 H 3812.44 6.96671 2.93575 0
M  V30 39384 H 3813.7 6.64211 4.07976 0
M  V30 39385 N 3817.93 -0.0768128 1.57413 0
M  V30 39386 C 3818.88 -1.11057 2.04375 0
M  V30 39387 C 3819.87 -1.4038 0.948152 0
M  V30 39388 O 3821.08 -1.39846 1.13328 0
M  V30 39389 H 3817.46 -0.375453 0.651567 0
M  V30 39390 H 3819.43 -0.688297 2.90353 0
M  V30 39391 C 3818.18 -2.41736 2.49918 0
M  V30 39392 H 3817.5 -2.20022 3.33812 0
M  V30 39393 H 3818.94 -3.12527 2.86536 0
M  V30 39394 C 3817.4 -3.07339 1.38001 0
M  V30 39395 O 3817.93 -3.95207 0.719312 0
M  V30 39396 N 3816.13 -2.67882 1.1264 0
M  V30 39397 H 3815.68 -1.96518 1.66548 0
M  V30 39398 H 3815.64 -3.121 0.379615 0
M  V30 39399 N 3819.41 -1.53708 -0.348084 0
M  V30 39400 C 3820.32 -1.84364 -1.45076 0
M  V30 39401 C 3821.34 -0.733403 -1.57788 0
M  V30 39402 O 3822.51 -1.02525 -1.73351 0
M  V30 39403 C 3819.58 -2.04283 -2.80124 0
M  V30 39404 C 3818.64 -3.28152 -2.76793 0
M  V30 39405 C 3817.87 -3.47112 -4.054 0
M  V30 39406 O 3818.09 -2.70001 -5.0245 0
M  V30 39407 O 3817.03 -4.40526 -4.10147 0
M  V30 39408 H 3820.85 -2.7808 -1.22088 0
M  V30 39409 H 3818.44 -1.39306 -0.539838 0
M  V30 39410 H 3820.32 -2.18856 -3.60111 0
M  V30 39411 H 3819 -1.13757 -3.03053 0
M  V30 39412 H 3817.9 -3.18988 -1.95442 0
M  V30 39413 H 3819.24 -4.18657 -2.58818 0
M  V30 39414 N 3820.89 0.608851 -1.45364 0
M  V30 39415 C 3822.13 1.36992 -1.49536 0
M  V30 39416 C 3822.47 1.93722 -0.136121 0
M  V30 39417 O 3821.74 1.7498 0.849246 0
M  V30 39418 C 3822.03 2.51877 -2.57352 0
M  V30 39419 C 3821.88 2.00351 -4.02715 0
M  V30 39420 C 3823.2 3.54011 -2.61465 0
M  V30 39421 H 3820.32 0.496757 -0.544427 0
M  V30 39422 H 3822.96 0.686442 -1.77167 0
M  V30 39423 H 3821.11 3.10181 -2.33923 0
M  V30 39424 H 3822.78 1.46705 -4.3735 0
M  V30 39425 H 3821.02 1.31361 -4.13433 0
M  V30 39426 H 3821.69 2.83162 -4.73839 0
M  V30 39427 H 3824.17 3.05545 -2.82456 0
M  V30 39428 H 3823.05 4.31888 -3.38769 0
M  V30 39429 H 3823.31 4.09546 -1.66506 0
M  V30 39430 N 3822.37 1.32633 0.851242 0
M  V30 39431 C 3823.61 1.23388 1.60567 0
M  V30 39432 C 3823.94 -0.20345 1.93433 0
M  V30 39433 O 3823.2 -1.15737 1.57808 0
M  V30 39434 C 3823.5 2.04217 2.93309 0
M  V30 39435 C 3823.16 3.5354 2.79857 0
M  V30 39436 C 3821.82 3.94252 2.75896 0
M  V30 39437 C 3824.18 4.48481 2.65545 0
M  V30 39438 C 3821.5 5.28142 2.55506 0
M  V30 39439 C 3823.86 5.82518 2.46689 0
M  V30 39440 C 3822.52 6.22428 2.41123 0
M  V30 39441 H 3821.79 0.451509 0.587555 0
M  V30 39442 H 3824.44 1.64095 0.98718 0
M  V30 39443 H 3822.74 1.56249 3.59296 0
M  V30 39444 H 3824.44 1.9443 3.50711 0
M  V30 39445 H 3821.03 3.21207 2.83767 0
M  V30 39446 H 3825.21 4.17945 2.67648 0
M  V30 39447 H 3820.47 5.58116 2.49634 0
M  V30 39448 H 3824.64 6.55697 2.34596 0
M  V30 39449 H 3822.27 7.26114 2.25083 0
M  V30 39450 N 3823.84 -1.06794 1.159 0
M  V30 39451 C 3825.08 -1.81088 0.947977 0
M  V30 39452 C 3825.45 -1.84955 -0.515337 0
M  V30 39453 O 3826.65 -2.55177 -0.844883 0
M  V30 39454 C 3824.92 -3.21934 1.5522 0
M  V30 39455 S 3826.48 -4.12905 1.48509 0
M  V30 39456 H 3823.3 -0.623871 0.341036 0
M  V30 39457 H 3825.9 -1.28252 1.47552 0
M  V30 39458 H 3824.6 -3.16712 2.61002 0
M  V30 39459 H 3824.13 -3.79846 1.02376 0
M  V30 39460 H 3826.15 -4.93855 0.481859 0
M  V30 39461 N 3825.32 -0.956681 -1.25241 0
M  V30 39462 C 3826.57 -0.608229 -1.92311 0
M  V30 39463 C 3826.88 0.859027 -1.75727 0
M  V30 39464 O 3828.09 1.31753 -2.37389 0
M  V30 39465 C 3826.55 -1.03714 -3.44632 0
M  V30 39466 C 3826.15 -2.52708 -3.69922 0
M  V30 39467 C 3827.9 -0.761315 -4.17617 0
M  V30 39468 C 3825.81 -2.89389 -5.1576 0
M  V30 39469 H 3824.74 -0.223773 -0.720029 0
M  V30 39470 H 3827.39 -1.16141 -1.42069 0
M  V30 39471 H 3825.77 -0.412356 -3.93847 0
M  V30 39472 H 3826.94 -3.20223 -3.31352 0
M  V30 39473 H 3825.26 -2.77784 -3.10202 0
M  V30 39474 H 3827.85 -1.01151 -5.25045 0
M  V30 39475 H 3828.2 0.302302 -4.15201 0
M  V30 39476 H 3828.73 -1.34654 -3.74317 0
M  V30 39477 H 3825.47 -3.94776 -5.23289 0
M  V30 39478 H 3824.99 -2.26549 -5.5537 0
M  V30 39479 H 3826.67 -2.78693 -5.839 0
M  V30 39480 N 3826.8 1.39908 -0.725493 0
M  V30 39481 C 3828.08 1.94615 -0.196006 0
M  V30 39482 C 3828.46 1.66297 1.30033 0
M  V30 39483 O 3827.81 0.986013 2.06131 0
M  V30 39484 C 3828.02 3.45114 -0.519385 0
M  V30 39485 C 3829.36 4.22063 -0.463485 0
M  V30 39486 O 3830.39 3.53269 -0.45602 0
M  V30 39487 O 3829.25 5.44647 -0.449675 0
M  V30 39488 H 3826.34 0.826359 -0.0325554 0
M  V30 39489 H 3828.89 1.49461 -0.803702 0
M  V30 39490 H 3827.66 3.59122 -1.55393 0
M  V30 39491 H 3827.28 3.97426 0.117768 0
M  V30 39492 N 3828.28 0.472408 1.50353 0
M  V30 39493 C 3829.69 0.0176096 1.86692 0
M  V30 39494 C 3830.04 -1.38758 1.38711 0
M  V30 39495 O 3829.17 -2.0289 0.752649 0
M  V30 39496 C 3829.76 0.02518 3.38791 0
M  V30 39497 C 3828.32 -0.374154 3.74536 0
M  V30 39498 C 3827.47 0.410093 2.74251 0
M  V30 39499 H 3830.42 0.686619 1.43078 0
M  V30 39500 H 3830.44 -0.776688 3.72489 0
M  V30 39501 H 3829.95 1.04802 3.73682 0
M  V30 39502 H 3828.05 -1.40129 3.45246 0
M  V30 39503 H 3828.16 -0.0745824 4.79042 0
M  V30 39504 H 3826.53 -0.136372 2.54335 0
M  V30 39505 H 3827.31 1.43247 3.11986 0
M  V30 39506 N 3829.76 -1.5626 0.205067 0
M  V30 39507 C 3830.99 -2.02246 -0.436384 0
M  V30 39508 C 3831.4 -1.08511 -1.54502 0
M  V30 39509 O 3830.76 -0.0917312 -1.82269 0
M  V30 39510 C 3830.81 -3.47866 -0.983422 0
M  V30 39511 O 3830.53 -4.38025 0.0809936 0
M  V30 39512 C 3832.03 -4.09418 -1.69976 0
M  V30 39513 H 3829.25 -0.662159 -0.108566 0
M  V30 39514 H 3831.79 -2.02033 0.316694 0
M  V30 39515 H 3829.95 -3.48747 -1.68684 0
M  V30 39516 H 3830.36 -5.23476 -0.327659 0
M  V30 39517 H 3831.84 -5.13131 -2.03472 0
M  V30 39518 H 3832.31 -3.53454 -2.60704 0
M  V30 39519 H 3832.92 -4.12339 -1.04195 0
M  V30 39520 N 3831.24 0.0684638 -1.57451 0
M  V30 39521 C 3832.18 1.08102 -2.03918 0
M  V30 39522 C 3833.15 1.38264 -0.920443 0
M  V30 39523 O 3834.34 1.49275 -1.18834 0
M  V30 39524 C 3831.48 2.38859 -2.49079 0
M  V30 39525 C 3830.59 2.15198 -3.74585 0
M  V30 39526 C 3829.73 3.39542 -4.08515 0
M  V30 39527 C 3828.76 3.1126 -5.27052 0
M  V30 39528 N 3827.9 4.27944 -5.56604 0
M  V30 39529 H 3832.74 0.677792 -2.9019 0
M  V30 39530 H 3830.28 0.323104 -1.43508 0
M  V30 39531 H 3832.24 3.15205 -2.73316 0
M  V30 39532 H 3830.87 2.76978 -1.65781 0
M  V30 39533 H 3829.92 1.29529 -3.57668 0
M  V30 39534 H 3831.23 1.90309 -4.61068 0
M  V30 39535 H 3830.38 4.24282 -4.3367 0
M  V30 39536 H 3829.12 3.67509 -3.20606 0
M  V30 39537 H 3828.13 2.24917 -5.0169 0
M  V30 39538 H 3829.35 2.84612 -6.16582 0
M  V30 39539 H 3827.3 4.55937 -4.71654 0
M  V30 39540 H 3827.22 4.06341 -6.37513 0
M  V30 39541 H 3828.48 5.13671 -5.86313 0
M  V30 39542 N 3832.71 1.5389 0.339928 0
M  V30 39543 C 3833.96 1.70972 1.07763 0
M  V30 39544 C 3834.28 0.477519 1.89063 0
M  V30 39545 O 3833.55 -0.508546 1.89184 0
M  V30 39546 H 3832.13 0.630348 0.400838 0
M  V30 39547 H 3834.79 1.91153 0.380325 0
M  V30 39548 H 3833.89 2.5822 1.75296 0
M  V30 39549 N 3834.19 -0.601133 1.45685 0
M  V30 39550 C 3835.44 -1.35727 1.49742 0
M  V30 39551 C 3835.76 -1.94474 0.143106 0
M  V30 39552 O 3835.03 -1.77528 -0.828289 0
M  V30 39553 H 3833.61 -0.503882 0.551463 0
M  V30 39554 H 3836.27 -0.705411 1.81686 0
M  V30 39555 H 3835.37 -2.17341 2.23985 0
M  V30 39556 N 3835.67 -1.33083 -0.844196 0
M  V30 39557 C 3836.62 -1.22893 -1.95361 0
M  V30 39558 C 3837.59 -0.108735 -1.65744 0
M  V30 39559 O 3838.77 -0.28609 -1.88643 0
M  V30 39560 C 3835.91 -0.968652 -3.31227 0
M  V30 39561 C 3835.02 -2.17462 -3.73275 0
M  V30 39562 C 3834.16 -1.84894 -4.97984 0
M  V30 39563 C 3833.2 -3.01752 -5.32552 0
M  V30 39564 N 3832.34 -2.69208 -6.48438 0
M  V30 39565 H 3837.18 -2.17782 -2.03409 0
M  V30 39566 H 3834.71 -1.08302 -0.995442 0
M  V30 39567 H 3836.67 -0.798201 -4.09493 0
M  V30 39568 H 3835.3 -0.0565199 -3.22751 0
M  V30 39569 H 3834.35 -2.455 -2.90576 0
M  V30 39570 H 3835.66 -3.04841 -3.94808 0
M  V30 39571 H 3834.82 -1.64461 -5.83984 0
M  V30 39572 H 3833.56 -0.94744 -4.78409 0
M  V30 39573 H 3832.56 -3.22805 -4.45059 0
M  V30 39574 H 3833.79 -3.9265 -5.54079 0
M  V30 39575 H 3831.73 -1.81611 -6.3036 0
M  V30 39576 H 3831.65 -3.50117 -6.7004 0
M  V30 39577 H 3832.92 -2.5223 -7.37564 0
M  V30 39578 N 3837.15 1.06178 -1.16464 0
M  V30 39579 C 3838.09 2.13682 -0.872277 0
M  V30 39580 C 3839.06 1.65124 0.179755 0
M  V30 39581 O 3840.25 1.90748 0.0447071 0
M  V30 39582 C 3837.39 3.42993 -0.380788 0
M  V30 39583 C 3836.5 4.05278 -1.49578 0
M  V30 39584 C 3835.64 5.22468 -0.959191 0
M  V30 39585 C 3834.68 5.7674 -2.05031 0
M  V30 39586 N 3833.81 6.85244 -1.52922 0
M  V30 39587 H 3838.65 2.3803 -1.79292 0
M  V30 39588 H 3836.19 1.16786 -0.8944 0
M  V30 39589 H 3838.15 4.17128 -0.0774549 0
M  V30 39590 H 3836.78 3.18858 0.50291 0
M  V30 39591 H 3835.83 3.28679 -1.91506 0
M  V30 39592 H 3837.14 4.41609 -2.31912 0
M  V30 39593 H 3836.3 6.03635 -0.609109 0
M  V30 39594 H 3835.04 4.87587 -0.105172 0
M  V30 39595 H 3834.04 4.9421 -2.40908 0
M  V30 39596 H 3835.27 6.13672 -2.90831 0
M  V30 39597 H 3833.21 6.52279 -0.697754 0
M  V30 39598 H 3833.13 7.20523 -2.28872 0
M  V30 39599 H 3834.4 7.70087 -1.20776 0
M  V30 39600 N 3838.63 0.96331 1.24732 0
M  V30 39601 C 3840.04 0.662277 1.74559 0
M  V30 39602 C 3840.39 -0.822138 1.78144 0
M  V30 39603 O 3839.51 -1.64332 1.40797 0
M  V30 39604 C 3840.11 1.19548 3.17007 0
M  V30 39605 C 3838.67 0.944435 3.64359 0
M  V30 39606 C 3837.81 1.33339 2.43138 0
M  V30 39607 H 3840.76 1.13913 1.10496 0
M  V30 39608 H 3840.79 0.559667 3.76362 0
M  V30 39609 H 3840.3 2.27587 3.14366 0
M  V30 39610 H 3838.4 -0.120616 3.72405 0
M  V30 39611 H 3838.51 1.58699 4.52052 0
M  V30 39612 H 3836.88 0.751772 2.43353 0
M  V30 39613 H 3837.66 2.42318 2.4318 0
M  V30 39614 N 3840.1 -1.39522 0.732902 0
M  V30 39615 C 3841.07 -2.28981 0.100081 0
M  V30 39616 C 3842.07 -1.46207 -0.669335 0
M  V30 39617 O 3843.26 -1.6691 -0.498664 0
M  V30 39618 C 3840.39 -3.29676 -0.867558 0
M  V30 39619 H 3841.58 -2.86445 0.888211 0
M  V30 39620 H 3839.13 -1.48134 0.498604 0
M  V30 39621 H 3839.87 -2.77264 -1.68212 0
M  V30 39622 H 3839.65 -3.90804 -0.318508 0
M  V30 39623 H 3841.14 -3.96621 -1.30697 0
M  V30 39624 N 3841.58 -0.480375 -1.501 0
M  V30 39625 C 3843 -0.135076 -1.59027 0
M  V30 39626 C 3843.2 1.35908 -1.48765 0
M  V30 39627 O 3842.25 2.13322 -1.35093 0
M  V30 39628 C 3843.57 -0.693535 -2.92593 0
M  V30 39629 C 3845.11 -0.657791 -3.0601 0
M  V30 39630 C 3845.59 -1.19395 -4.42164 0
M  V30 39631 N 3847.08 -1.15376 -4.48601 0
M  V30 39632 C 3847.82 -1.53903 -5.5236 0
M  V30 39633 N 3847.31 -1.99923 -6.63327 0
M  V30 39634 N 3849.1 -1.45447 -5.42956 0
M  V30 39635 H 3841.26 -1.45205 -1.55014 0
M  V30 39636 H 3843.52 -0.601047 -0.733107 0
M  V30 39637 H 3843.22 -1.74061 -3.05607 0
M  V30 39638 H 3843.1 -0.142304 -3.76931 0
M  V30 39639 H 3845.49 0.380398 -2.92638 0
M  V30 39640 H 3845.57 -1.24593 -2.23406 0
M  V30 39641 H 3845.21 -2.23082 -4.56286 0
M  V30 39642 H 3845.14 -0.581942 -5.23375 0
M  V30 39643 H 3847.63 -0.816336 -3.68977 0
M  V30 39644 H 3847.94 -2.27444 -7.38572 0
M  V30 39645 H 3846.29 -2.03882 -6.64422 0
M  V30 39646 H 3849.48 -1.09329 -4.55154 0
M  V30 39647 H 3849.65 -1.75797 -6.23698 0
M  V30 39648 N 3843.06 1.56149 -0.213351 0
M  V30 39649 C 3843.99 2.22918 0.694964 0
M  V30 39650 C 3844.97 1.1982 1.20736 0
M  V30 39651 O 3846.16 1.48381 1.25286 0
M  V30 39652 C 3843.29 2.90273 1.9068 0
M  V30 39653 C 3842.24 3.99773 1.52858 0
M  V30 39654 C 3841.57 4.54383 2.81851 0
M  V30 39655 C 3842.87 5.17247 0.724738 0
M  V30 39656 H 3844.56 2.9908 0.138298 0
M  V30 39657 H 3842.11 1.43853 0.0650777 0
M  V30 39658 H 3844.06 3.35672 2.5476 0
M  V30 39659 H 3842.78 2.11545 2.48829 0
M  V30 39660 H 3841.44 3.55093 0.911274 0
M  V30 39661 H 3841.09 3.72395 3.38128 0
M  V30 39662 H 3840.79 5.2828 2.57282 0
M  V30 39663 H 3842.31 5.02495 3.46888 0
M  V30 39664 H 3843.73 5.59078 1.26905 0
M  V30 39665 H 3842.12 5.97325 0.576455 0
M  V30 39666 H 3843.19 4.84146 -0.270394 0
M  V30 39667 N 3844.54 -0.0601128 1.57485 0
M  V30 39668 C 3845.79 -0.755917 1.86999 0
M  V30 39669 C 3846.1 -1.78147 0.807648 0
M  V30 39670 O 3847.31 -2.52767 0.991004 0
M  V30 39671 C 3845.76 -1.39539 3.31748 0
M  V30 39672 C 3845.37 -0.407795 4.4614 0
M  V30 39673 C 3847.11 -2.07288 3.70449 0
M  V30 39674 C 3845.02 -1.05385 5.81935 0
M  V30 39675 H 3843.95 -0.286071 0.697624 0
M  V30 39676 H 3846.6 -0.00945368 1.83498 0
M  V30 39677 H 3844.98 -2.19051 3.29898 0
M  V30 39678 H 3846.16 0.358362 4.59404 0
M  V30 39679 H 3844.47 0.165884 4.16069 0
M  V30 39680 H 3847.07 -2.5642 4.69204 0
M  V30 39681 H 3847.41 -2.87748 3.00844 0
M  V30 39682 H 3847.95 -1.34591 3.74339 0
M  V30 39683 H 3844.69 -0.289322 6.54861 0
M  V30 39684 H 3844.21 -1.79058 5.72449 0
M  V30 39685 H 3845.88 -1.57029 6.27655 0
M  V30 39686 N 3846.02 -1.54068 -0.331762 0
M  V30 39687 C 3847.26 -1.72135 -1.07225 0
M  V30 39688 C 3847.6 -0.489298 -1.87935 0
M  V30 39689 O 3846.87 0.513728 -1.87593 0
M  V30 39690 C 3847.15 -2.99203 -2.00374 0
M  V30 39691 C 3847.01 -4.32642 -1.23049 0
M  V30 39692 C 3848.33 -3.21988 -3.0002 0
M  V30 39693 H 3845.44 -0.62634 -0.388417 0
M  V30 39694 H 3848.09 -1.86755 -0.349677 0
M  V30 39695 H 3846.24 -2.8687 -2.61988 0
M  V30 39696 H 3847.91 -4.56845 -0.639581 0
M  V30 39697 H 3846.15 -4.30518 -0.532641 0
M  V30 39698 H 3846.82 -5.17754 -1.91402 0
M  V30 39699 H 3849.3 -3.33728 -2.48525 0
M  V30 39700 H 3848.17 -4.12269 -3.62388 0
M  V30 39701 H 3848.44 -2.38832 -3.72037 0
M  V30 39702 N 3847.49 0.593399 -1.46002 0
M  V30 39703 C 3848.72 1.37627 -1.54085 0
M  V30 39704 C 3849.13 1.88369 -0.177129 0
M  V30 39705 O 3848.48 1.63678 0.833987 0
M  V30 39706 C 3848.54 2.60639 -2.47604 0
M  V30 39707 C 3848.2 2.31438 -3.94063 0
M  V30 39708 C 3849.2 1.90928 -4.83573 0
M  V30 39709 C 3846.88 2.43912 -4.39104 0
M  V30 39710 C 3848.88 1.63271 -6.16134 0
M  V30 39711 C 3846.56 2.15869 -5.71703 0
M  V30 39712 C 3847.56 1.75612 -6.60037 0
M  V30 39713 O 3847.25 1.47906 -7.90177 0
M  V30 39714 H 3846.98 0.427184 -0.523918 0
M  V30 39715 H 3849.54 0.72941 -1.92012 0
M  V30 39716 H 3847.77 3.28093 -2.04674 0
M  V30 39717 H 3849.46 3.22698 -2.46213 0
M  V30 39718 H 3850.22 1.80815 -4.50035 0
M  V30 39719 H 3846.1 2.74211 -3.7058 0
M  V30 39720 H 3849.64 1.31775 -6.85041 0
M  V30 39721 H 3845.54 2.25603 -6.04792 0
M  V30 39722 H 3846.31 1.6184 -8.0234 0
M  V30 39723 N 3848.97 1.33529 0.837127 0
M  V30 39724 C 3850.38 1.22518 1.40876 0
M  V30 39725 C 3850.73 -0.155202 1.95585 0
M  V30 39726 O 3849.86 -1.05488 1.88948 0
M  V30 39727 C 3850.45 2.21819 2.56089 0
M  V30 39728 C 3849.01 2.14643 3.09201 0
M  V30 39729 C 3848.16 2.09209 1.82008 0
M  V30 39730 H 3851.11 1.45102 0.642741 0
M  V30 39731 H 3851.13 1.82693 3.33772 0
M  V30 39732 H 3850.64 3.22276 2.16241 0
M  V30 39733 H 3848.75 1.17495 3.5359 0
M  V30 39734 H 3848.86 3.05265 3.69256 0
M  V30 39735 H 3847.22 1.54711 2.02328 0
M  V30 39736 H 3848.01 3.11475 1.44353 0
M  V30 39737 N 3850.45 -1.05559 1.17026 0
M  V30 39738 C 3851.73 -1.75366 0.866381 0
M  V30 39739 C 3852.11 -2.01349 -0.634181 0
M  V30 39740 O 3851.46 -1.64657 -1.58431 0
M  V30 39741 C 3851.67 -3.0495 1.69725 0
M  V30 39742 C 3853.01 -3.78969 1.91489 0
M  V30 39743 O 3854.04 -3.1481 1.66652 0
M  V30 39744 O 3852.9 -4.94244 2.33206 0
M  V30 39745 H 3849.99 -0.762402 0.320426 0
M  V30 39746 H 3852.54 -1.11761 1.27701 0
M  V30 39747 H 3851.31 -2.8177 2.71517 0
M  V30 39748 H 3850.93 -3.76292 1.28414 0
M  V30 39749 N 3851.93 -0.969911 -1.2422 0
M  V30 39750 C 3852.86 -0.520785 -2.27618 0
M  V30 39751 C 3853.84 0.440702 -1.64292 0
M  V30 39752 O 3855.02 0.336347 -1.91265 0
M  V30 39753 C 3852.15 0.187707 -3.46792 0
M  V30 39754 C 3851.11 -0.690019 -4.22401 0
M  V30 39755 C 3850.43 0.150092 -5.34489 0
M  V30 39756 C 3851.73 -1.9757 -4.83491 0
M  V30 39757 H 3853.43 -1.38503 -2.65438 0
M  V30 39758 H 3850.97 -0.667421 -1.27599 0
M  V30 39759 H 3852.93 0.513143 -4.18264 0
M  V30 39760 H 3851.65 1.08632 -3.08004 0
M  V30 39761 H 3850.31 -0.998758 -3.52733 0
M  V30 39762 H 3849.96 1.04892 -4.91942 0
M  V30 39763 H 3849.66 -0.433994 -5.85995 0
M  V30 39764 H 3851.18 0.470148 -6.08787 0
M  V30 39765 H 3852.6 -1.71571 -5.47025 0
M  V30 39766 H 3850.99 -2.50669 -5.45238 0
M  V30 39767 H 3852.06 -2.66922 -4.04821 0
M  V30 39768 N 3853.41 1.39131 -0.740291 0
M  V30 39769 C 3854.65 2.00009 -0.289984 0
M  V30 39770 C 3854.98 1.59044 1.12828 0
M  V30 39771 O 3854.25 0.841107 1.76924 0
M  V30 39772 H 3852.83 0.739693 -0.104226 0
M  V30 39773 H 3855.49 1.701 -0.951428 0
M  V30 39774 H 3854.58 3.10214 -0.342563 0
M  V30 39775 N 3854.88 0.488329 1.49844 0
M  V30 39776 C 3856.13 -0.0607524 2.02709 0
M  V30 39777 C 3856.46 -1.37809 1.3683 0
M  V30 39778 O 3855.74 -1.87971 0.499712 0
M  V30 39779 C 3856.02 -0.226574 3.59386 0
M  V30 39780 C 3855.87 1.11299 4.35812 0
M  V30 39781 C 3857.19 -0.973143 4.29206 0
M  V30 39782 H 3854.31 -0.0206048 0.736712 0
M  V30 39783 H 3856.95 0.637276 1.78994 0
M  V30 39784 H 3855.1 -0.821115 3.79724 0
M  V30 39785 H 3856.78 1.74544 4.27004 0
M  V30 39786 H 3855.02 1.70542 3.98871 0
M  V30 39787 H 3855.69 0.950414 5.43756 0
M  V30 39788 H 3858.17 -0.469033 4.13448 0
M  V30 39789 H 3857.04 -1.05799 5.38607 0
M  V30 39790 H 3857.3 -2.01387 3.93568 0
M  V30 39791 N 3856.36 -1.56034 0.221629 0
M  V30 39792 C 3857.78 -1.59039 -0.133755 0
M  V30 39793 C 3857.98 -1.23844 -1.58949 0
M  V30 39794 O 3857.03 -0.973718 -2.3297 0
M  V30 39795 C 3858.35 -3.00083 0.192602 0
M  V30 39796 C 3859.9 -3.12709 0.134846 0
M  V30 39797 C 3860.37 -4.55931 0.434879 0
M  V30 39798 N 3861.86 -4.61602 0.384453 0
M  V30 39799 C 3862.6 -5.70355 0.5901 0
M  V30 39800 N 3862.09 -6.87472 0.857526 0
M  V30 39801 N 3863.89 -5.59666 0.522532 0
M  V30 39802 H 3856.04 -1.77187 1.17127 0
M  V30 39803 H 3858.3 -0.823588 0.469474 0
M  V30 39804 H 3858.01 -3.30486 1.20298 0
M  V30 39805 H 3857.88 -3.73973 -0.492364 0
M  V30 39806 H 3860.27 -2.82102 -0.866172 0
M  V30 39807 H 3860.35 -2.41149 0.853289 0
M  V30 39808 H 3859.99 -4.87255 1.43334 0
M  V30 39809 H 3859.92 -5.25717 -0.304757 0
M  V30 39810 H 3862.41 -3.77445 0.185456 0
M  V30 39811 H 3862.73 -7.6627 1.00254 0
M  V30 39812 H 3861.07 -6.89217 0.894721 0
M  V30 39813 H 3864.26 -4.67047 0.313836 0
M  V30 39814 H 3864.43 -6.44356 0.686207 0
M  V30 39815 N 3857.84 0.0517601 -1.57515 0
M  V30 39816 C 3859.09 0.748173 -1.88495 0
M  V30 39817 C 3859.42 1.762 -0.816525 0
M  V30 39818 O 3858.69 1.93746 0.17104 0
M  V30 39819 C 3858.98 1.43819 -3.30133 0
M  V30 39820 C 3858.83 0.439421 -4.47648 0
M  V30 39821 C 3860.15 2.37806 -3.70319 0
M  V30 39822 H 3857.27 0.270525 -0.685555 0
M  V30 39823 H 3859.91 0.0111123 -1.89997 0
M  V30 39824 H 3858.06 2.06645 -3.28983 0
M  V30 39825 H 3859.73 -0.185169 -4.60928 0
M  V30 39826 H 3857.98 -0.243457 -4.33116 0
M  V30 39827 H 3858.65 0.960254 -5.43584 0
M  V30 39828 H 3861.12 1.85043 -3.72691 0
M  V30 39829 H 3860 2.83079 -4.70274 0
M  V30 39830 H 3860.26 3.23495 -3.01336 0
M  V30 39831 N 3859.32 1.54242 0.323587 0
M  V30 39832 C 3860.56 1.74171 1.06975 0
M  V30 39833 C 3860.92 0.504726 1.85247 0
M  V30 39834 O 3862.12 0.581364 2.62438 0
M  V30 39835 C 3860.4 2.98207 1.96996 0
M  V30 39836 S 3861.95 3.39039 2.78565 0
M  V30 39837 H 3858.77 0.61245 0.361146 0
M  V30 39838 H 3861.37 1.92418 0.345756 0
M  V30 39839 H 3860.08 3.86385 1.38329 0
M  V30 39840 H 3859.61 2.82483 2.73801 0
M  V30 39841 H 3861.62 2.94336 3.99475 0
M  V30 39842 N 3860.8 -0.585648 1.46314 0
M  V30 39843 C 3861.71 -1.72283 1.59235 0
M  V30 39844 C 3862.72 -1.67364 0.475941 0
M  V30 39845 O 3863.9 -1.87326 0.73966 0
M  V30 39846 C 3860.96 -3.08783 1.57652 0
M  V30 39847 C 3860.03 -3.24988 2.80502 0
M  V30 39848 C 3859.26 -4.54975 2.78986 0
M  V30 39849 O 3859.48 -5.3868 1.87562 0
M  V30 39850 O 3858.42 -4.74365 3.70488 0
M  V30 39851 H 3862.24 -1.6433 2.554 0
M  V30 39852 H 3859.83 -0.752346 1.29074 0
M  V30 39853 H 3861.71 -3.90067 1.59455 0
M  V30 39854 H 3860.38 -3.17179 0.646456 0
M  V30 39855 H 3859.29 -2.43208 2.84255 0
M  V30 39856 H 3860.62 -3.2148 3.72708 0
M  V30 39857 N 3862.28 -1.33971 -0.830033 0
M  V30 39858 C 3863.22 -1.24958 -1.94047 0
M  V30 39859 C 3864.19 -0.126308 -1.65619 0
M  V30 39860 O 3865.38 -0.306082 -1.88329 0
M  V30 39861 C 3862.52 -1.00373 -3.30181 0
M  V30 39862 C 3861.63 -2.21409 -3.70948 0
M  V30 39863 C 3860.77 -1.90165 -4.95994 0
M  V30 39864 C 3859.8 -3.07384 -5.29322 0
M  V30 39865 N 3858.94 -2.7607 -6.45546 0
M  V30 39866 H 3863.78 -2.19927 -2.01087 0
M  V30 39867 H 3861.32 -1.09352 -0.983899 0
M  V30 39868 H 3863.28 -0.841588 -4.08623 0
M  V30 39869 H 3861.91 -0.0907487 -3.22672 0
M  V30 39870 H 3860.96 -2.48568 -2.87955 0
M  V30 39871 H 3862.27 -3.09011 -3.91553 0
M  V30 39872 H 3861.42 -1.70646 -5.82207 0
M  V30 39873 H 3860.16 -0.998128 -4.77377 0
M  V30 39874 H 3859.17 -3.27507 -4.4161 0
M  V30 39875 H 3860.39 -3.98504 -5.49883 0
M  V30 39876 H 3858.34 -1.88286 -6.28398 0
M  V30 39877 H 3858.26 -3.57204 -6.66289 0
M  V30 39878 H 3859.52 -2.60039 -7.34847 0
M  V30 39879 N 3863.75 1.04937 -1.17584 0
M  V30 39880 C 3864.69 2.12244 -0.838324 0
M  V30 39881 C 3865.66 1.61415 0.195987 0
M  V30 39882 O 3866.85 1.88343 0.0769375 0
M  V30 39883 C 3863.98 3.37769 -0.250994 0
M  V30 39884 C 3863.02 4.07429 -1.2611 0
M  V30 39885 S 3863.85 4.55636 -2.81346 0
M  V30 39886 C 3865.01 5.84406 -2.241 0
M  V30 39887 H 3865.24 2.40546 -1.74714 0
M  V30 39888 H 3862.78 1.17576 -1.00077 0
M  V30 39889 H 3864.73 4.10419 0.0813845 0
M  V30 39890 H 3863.4 3.07598 0.635797 0
M  V30 39891 H 3862.59 4.97629 -0.798849 0
M  V30 39892 H 3862.19 3.40856 -1.53926 0
M  V30 39893 H 3864.48 6.57892 -1.61815 0
M  V30 39894 H 3865.43 6.35381 -3.12565 0
M  V30 39895 H 3865.83 5.39091 -1.67454 0
M  V30 39896 N 3865.23 0.976485 1.23703 0
M  V30 39897 C 3866.19 0.518572 2.23257 0
M  V30 39898 C 3867.19 -0.389673 1.56007 0
M  V30 39899 O 3868.38 -0.183909 1.73226 0
M  V30 39900 C 3865.52 -0.247856 3.39998 0
M  V30 39901 H 3866.71 1.39877 2.65282 0
M  V30 39902 H 3864.26 0.76197 1.36469 0
M  V30 39903 H 3865 -1.14476 3.03423 0
M  V30 39904 H 3864.78 0.404044 3.90013 0
M  V30 39905 H 3866.27 -0.556962 4.13869 0
M  V30 39906 N 3866.71 -1.38737 0.747659 0
M  V30 39907 C 3867.64 -2.3313 0.131358 0
M  V30 39908 C 3868.62 -1.54564 -0.710202 0
M  V30 39909 O 3869.81 -1.82906 -0.652599 0
M  V30 39910 C 3866.94 -3.38722 -0.767108 0
M  V30 39911 C 3865.89 -4.2799 -0.0287371 0
M  V30 39912 C 3865.22 -5.24388 -1.04506 0
M  V30 39913 C 3866.52 -5.09793 1.13617 0
M  V30 39914 H 3868.21 -2.84919 0.91986 0
M  V30 39915 H 3865.76 -1.36991 0.443788 0
M  V30 39916 H 3867.71 -4.03718 -1.20789 0
M  V30 39917 H 3866.43 -2.85402 -1.58787 0
M  V30 39918 H 3865.09 -3.64492 0.392555 0
M  V30 39919 H 3864.74 -4.67358 -1.85972 0
M  V30 39920 H 3864.44 -5.84966 -0.55571 0
M  V30 39921 H 3865.96 -5.9226 -1.48528 0
M  V30 39922 H 3867.38 -5.68062 0.773229 0
M  V30 39923 H 3865.77 -5.79576 1.55599 0
M  V30 39924 H 3866.84 -4.43879 1.9519 0
M  V30 39925 N 3868.19 -0.496268 -1.49583 0
M  V30 39926 C 3869.42 0.0468074 -2.06547 0
M  V30 39927 C 3869.83 1.31798 -1.35742 0
M  V30 39928 O 3869.17 1.78645 -0.42798 0
M  V30 39929 C 3869.23 0.375559 -3.57533 0
M  V30 39930 C 3868.89 -0.797213 -4.49993 0
M  V30 39931 C 3869.89 -1.68638 -4.9179 0
M  V30 39932 C 3867.58 -0.994677 -4.92353 0
M  V30 39933 C 3869.57 -2.75721 -5.7468 0
M  V30 39934 C 3867.26 -2.06869 -5.7502 0
M  V30 39935 C 3868.26 -2.9483 -6.16088 0
M  V30 39936 O 3867.94 -4.00378 -6.97103 0
M  V30 39937 H 3867.68 -0.0151019 -0.675831 0
M  V30 39938 H 3870.23 -0.69145 -1.93412 0
M  V30 39939 H 3868.46 1.16735 -3.6866 0
M  V30 39940 H 3870.15 0.856688 -3.96756 0
M  V30 39941 H 3870.91 -1.54562 -4.59712 0
M  V30 39942 H 3866.79 -0.31941 -4.59892 0
M  V30 39943 H 3870.34 -3.44407 -6.06655 0
M  V30 39944 H 3866.23 -2.20941 -6.06511 0
M  V30 39945 H 3867 -3.97673 -7.15401 0
M  V30 39946 N 3869.67 1.55914 -0.2299 0
M  V30 39947 C 3870.94 1.90377 0.448974 0
M  V30 39948 C 3871.32 1.14838 1.77131 0
M  V30 39949 O 3870.67 0.260368 2.27012 0
M  V30 39950 C 3870.88 3.43198 0.633744 0
M  V30 39951 C 3872.23 4.14124 0.93738 0
M  V30 39952 O 3873.25 3.48843 0.720229 0
M  V30 39953 O 3872.11 5.29564 1.34995 0
M  V30 39954 H 3869.21 0.79185 0.238543 0
M  V30 39955 H 3871.75 1.67495 -0.272705 0
M  V30 39956 H 3870.52 3.90159 -0.298656 0
M  V30 39957 H 3870.15 3.71888 1.4066 0
M  V30 39958 N 3871.14 -0.043406 1.5754 0
M  V30 39959 C 3872.39 -0.736041 1.87791 0
M  V30 39960 C 3872.71 -1.77281 0.826497 0
M  V30 39961 O 3873.91 -2.51702 1.01776 0
M  V30 39962 C 3872.37 -1.36012 3.3321 0
M  V30 39963 C 3871.98 -0.360453 4.46548 0
M  V30 39964 C 3873.72 -2.03347 3.72626 0
M  V30 39965 C 3871.63 -0.992065 5.8302 0
M  V30 39966 H 3870.56 -0.278655 0.700619 0
M  V30 39967 H 3873.21 0.0100092 1.83497 0
M  V30 39968 H 3871.59 -2.1554 3.32203 0
M  V30 39969 H 3872.76 0.407068 4.58998 0
M  V30 39970 H 3871.08 0.210004 4.1587 0
M  V30 39971 H 3873.68 -2.51429 4.71898 0
M  V30 39972 H 3874.02 -2.84541 3.03879 0
M  V30 39973 H 3874.55 -1.30614 3.75746 0
M  V30 39974 H 3871.29 -0.219849 6.55131 0
M  V30 39975 H 3870.81 -1.72977 5.74316 0
M  V30 39976 H 3872.49 -1.50363 6.29285 0
M  V30 39977 N 3872.62 -1.54412 -0.315402 0
M  V30 39978 C 3873.58 -1.83636 -1.37151 0
M  V30 39979 C 3874.58 -0.708543 -1.44348 0
M  V30 39980 O 3875.77 -0.97685 -1.44233 0
M  V30 39981 C 3872.91 -2.00373 -2.75796 0
M  V30 39982 H 3874.1 -2.78004 -1.12488 0
M  V30 39983 H 3871.65 -1.46254 -0.55132 0
M  V30 39984 H 3872.39 -1.08244 -3.05702 0
M  V30 39985 H 3872.17 -2.82449 -2.71965 0
M  V30 39986 H 3873.66 -2.24403 -3.52183 0
M  V30 39987 N 3874.1 0.57788 -1.46623 0
M  V30 39988 C 3875.03 1.70125 -1.5359 0
M  V30 39989 C 3876.05 1.57187 -0.423817 0
M  V30 39990 O 3877.23 1.64523 -0.69242 0
M  V30 39991 C 3874.33 3.0842 -1.40465 0
M  V30 39992 C 3873.51 3.47315 -2.65878 0
M  V30 39993 C 3872.57 4.64688 -2.46883 0
M  V30 39994 O 3871.59 4.70306 -3.20625 0
M  V30 39995 N 3872.79 5.59875 -1.53362 0
M  V30 39996 H 3875.56 1.64602 -2.50452 0
M  V30 39997 H 3873.12 0.763989 -1.4274 0
M  V30 39998 H 3875.11 3.84742 -1.25523 0
M  V30 39999 H 3873.68 3.08284 -0.517657 0
M  V30 40000 H 3872.9 2.6065 -2.95729 0
M  V30 40001 H 3874.19 3.70069 -3.4918 0
M  V30 40002 H 3873.59 5.58076 -0.925624 0
M  V30 40003 H 3872.15 6.35608 -1.44381 0
M  V30 40004 N 3875.58 1.34409 0.822917 0
M  V30 40005 C 3876.53 1.25985 1.93381 0
M  V30 40006 C 3877.5 0.135089 1.6555 0
M  V30 40007 O 3878.68 0.316066 1.88164 0
M  V30 40008 C 3875.82 1.02122 3.29644 0
M  V30 40009 C 3874.93 2.23373 3.69768 0
M  V30 40010 C 3874.07 1.92793 4.94979 0
M  V30 40011 C 3873.11 3.10187 5.27684 0
M  V30 40012 N 3872.24 2.7949 6.44073 0
M  V30 40013 H 3877.08 2.2099 1.99918 0
M  V30 40014 H 3874.62 1.09872 0.978086 0
M  V30 40015 H 3876.58 0.863246 4.08171 0
M  V30 40016 H 3875.21 0.10786 3.2262 0
M  V30 40017 H 3874.26 2.50091 2.86633 0
M  V30 40018 H 3875.57 3.11083 3.89909 0
M  V30 40019 H 3874.73 1.73731 5.81294 0
M  V30 40020 H 3873.47 1.02343 4.76841 0
M  V30 40021 H 3872.47 3.29844 4.39867 0
M  V30 40022 H 3873.7 4.01415 5.47762 0
M  V30 40023 H 3871.64 1.91616 6.27391 0
M  V30 40024 H 3871.56 3.60733 6.64385 0
M  V30 40025 H 3872.83 2.63932 7.33458 0
M  V30 40026 N 3877.06 -1.04312 1.18139 0
M  V30 40027 C 3877.99 -2.14196 0.929631 0
M  V30 40028 C 3878.97 -1.69589 -0.131736 0
M  V30 40029 O 3880.15 -1.94189 0.0203446 0
M  V30 40030 C 3877.28 -3.44348 0.451859 0
M  V30 40031 C 3876.24 -4.02566 1.45343 0
M  V30 40032 C 3875.56 -5.28167 0.833269 0
M  V30 40033 C 3876.86 -4.39026 2.82938 0
M  V30 40034 H 3878.56 -2.35515 1.8486 0
M  V30 40035 H 3876.1 -1.13185 0.890237 0
M  V30 40036 H 3878.06 -4.20578 0.263104 0
M  V30 40037 H 3876.78 -3.22709 -0.502668 0
M  V30 40038 H 3875.44 -3.28415 1.62908 0
M  V30 40039 H 3875.09 -5.02836 -0.12837 0
M  V30 40040 H 3874.79 -5.6808 1.50195 0
M  V30 40041 H 3876.31 -6.07077 0.654987 0
M  V30 40042 H 3877.72 -5.06252 2.69039 0
M  V30 40043 H 3876.12 -4.89981 3.46466 0
M  V30 40044 H 3877.19 -3.48966 3.36676 0
M  V30 40045 N 3878.53 -0.983032 -1.23184 0
M  V30 40046 C 3879.95 -0.689964 -1.73483 0
M  V30 40047 C 3880.3 0.793692 -1.7943 0
M  V30 40048 O 3879.42 1.62072 -1.43394 0
M  V30 40049 C 3880.02 -1.24576 -3.15065 0
M  V30 40050 C 3878.58 -1.00228 -3.6281 0
M  V30 40051 C 3877.72 -1.37191 -2.40985 0
M  V30 40052 H 3880.67 -1.15657 -1.0867 0
M  V30 40053 H 3880.69 -0.619472 -3.75423 0
M  V30 40054 H 3880.21 -2.32559 -3.10705 0
M  V30 40055 H 3878.31 0.0613547 -3.72549 0
M  V30 40056 H 3878.42 -1.65871 -4.4947 0
M  V30 40057 H 3876.78 -0.790392 -2.42126 0
M  V30 40058 H 3877.57 -2.46157 -2.39294 0
M  V30 40059 N 3880.01 1.38338 -0.755006 0
M  V30 40060 C 3880.96 2.30443 -0.128233 0
M  V30 40061 C 3881.93 1.5025 0.708103 0
M  V30 40062 O 3883.11 1.78876 0.663938 0
M  V30 40063 C 3880.25 3.36676 0.757862 0
M  V30 40064 C 3879.37 4.31899 -0.0932569 0
M  V30 40065 C 3878.5 5.25203 0.795974 0
M  V30 40066 C 3877.54 6.12072 -0.058693 0
M  V30 40067 N 3876.68 6.97669 0.787577 0
M  V30 40068 H 3881.52 2.83467 -0.919254 0
M  V30 40069 H 3879.06 1.39559 -0.464945 0
M  V30 40070 H 3881.01 3.96877 1.28625 0
M  V30 40071 H 3879.64 2.85058 1.51465 0
M  V30 40072 H 3878.7 3.73147 -0.739286 0
M  V30 40073 H 3880.01 4.9308 -0.753233 0
M  V30 40074 H 3879.16 5.90528 1.39147 0
M  V30 40075 H 3877.9 4.64392 1.48968 0
M  V30 40076 H 3876.91 5.45741 -0.66685 0
M  V30 40077 H 3878.13 6.74952 -0.74948 0
M  V30 40078 H 3876.08 6.39405 1.46621 0
M  V30 40079 H 3875.99 7.55775 0.184529 0
M  V30 40080 H 3877.26 7.67402 1.368 0
M  V30 40081 N 3881.49 0.504194 1.49317 0
M  V30 40082 C 3882.45 -0.26153 2.27703 0
M  V30 40083 C 3883.45 -0.891091 1.33851 0
M  V30 40084 O 3884.64 -0.755128 1.56982 0
M  V30 40085 C 3881.78 -1.37558 3.11914 0
M  V30 40086 H 3882.97 0.426344 2.96854 0
M  V30 40087 H 3880.52 0.259263 1.54135 0
M  V30 40088 H 3881.26 -2.09751 2.47336 0
M  V30 40089 H 3881.04 -0.929574 3.80922 0
M  V30 40090 H 3882.53 -1.91487 3.7111 0
M  V30 40091 N 3882.97 -1.5579 0.238166 0
M  V30 40092 C 3884.22 -1.97905 -0.389439 0
M  V30 40093 C 3884.53 -1.12933 -1.59705 0
M  V30 40094 O 3885.74 -1.45021 -2.29524 0
M  V30 40095 C 3884.19 -3.5212 -0.744257 0
M  V30 40096 C 3883.8 -4.4582 0.441466 0
M  V30 40097 C 3885.54 -4.02911 -1.33654 0
M  V30 40098 C 3883.45 -5.91366 0.063288 0
M  V30 40099 H 3882.38 -0.739075 -0.149278 0
M  V30 40100 H 3885.03 -1.80379 0.337004 0
M  V30 40101 H 3883.41 -3.65308 -1.52858 0
M  V30 40102 H 3884.59 -4.44387 1.21889 0
M  V30 40103 H 3882.9 -4.05463 0.948088 0
M  V30 40104 H 3885.5 -5.09164 -1.63267 0
M  V30 40105 H 3885.84 -3.4974 -2.25804 0
M  V30 40106 H 3886.38 -3.93013 -0.615297 0
M  V30 40107 H 3883.12 -6.48555 0.951698 0
M  V30 40108 H 3882.64 -5.95954 -0.678111 0
M  V30 40109 H 3884.31 -6.46011 -0.357598 0
M  V30 40110 N 3884.45 0.0350506 -1.57561 0
M  V30 40111 C 3885.38 1.07043 -2.01537 0
M  V30 40112 C 3886.36 1.35512 -0.898627 0
M  V30 40113 O 3887.54 1.48269 -1.16398 0
M  V30 40114 C 3884.67 2.40654 -2.38334 0
M  V30 40115 C 3883.71 2.28082 -3.6039 0
M  V30 40116 S 3884.55 1.63992 -5.09771 0
M  V30 40117 C 3885.7 2.99106 -5.49806 0
M  V30 40118 H 3885.94 0.695833 -2.89042 0
M  V30 40119 H 3883.47 0.244832 -1.52446 0
M  V30 40120 H 3885.43 3.17495 -2.60206 0
M  V30 40121 H 3884.09 2.75263 -1.51291 0
M  V30 40122 H 3883.28 3.26702 -3.83773 0
M  V30 40123 H 3882.88 1.59383 -3.38339 0
M  V30 40124 H 3885.18 3.95437 -5.50124 0
M  V30 40125 H 3886.12 2.80463 -6.50189 0
M  V30 40126 H 3886.53 3.01404 -4.77301 0
M  V30 40127 N 3885.92 1.54577 0.307209 0
M  V30 40128 C 3887.17 1.7322 1.04112 0
M  V30 40129 C 3887.49 0.517515 1.88007 0
M  V30 40130 O 3886.76 -0.468303 1.9022 0
M  V30 40131 H 3885.34 0.638708 0.387377 0
M  V30 40132 H 3888.01 1.91917 0.339693 0
M  V30 40133 H 3887.1 2.6188 1.69779 0
M  V30 40134 N 3887.4 -0.570096 1.46927 0
M  V30 40135 C 3888.81 -1.15224 1.46902 0
M  V30 40136 C 3889.16 -1.95 0.216686 0
M  V30 40137 O 3888.29 -2.0546 -0.679352 0
M  V30 40138 C 3888.88 -2.09627 2.66162 0
M  V30 40139 C 3887.44 -2.63139 2.69137 0
M  V30 40140 C 3886.59 -1.39257 2.39797 0
M  V30 40141 H 3889.54 -0.357363 1.54624 0
M  V30 40142 H 3889.56 -2.93298 2.42398 0
M  V30 40143 H 3889.07 -1.51537 3.57293 0
M  V30 40144 H 3887.18 -3.25063 1.82112 0
M  V30 40145 H 3887.29 -3.05013 3.69464 0
M  V30 40146 H 3885.65 -1.69496 1.90113 0
M  V30 40147 H 3886.44 -0.829796 3.33121 0
M  V30 40148 N 3888.88 -1.34844 -0.815777 0
M  V30 40149 C 3890.11 -1.3085 -1.60913 0
M  V30 40150 C 3890.53 0.113312 -1.87758 0
M  V30 40151 O 3889.89 1.07729 -1.45822 0
M  V30 40152 C 3889.94 -2.11198 -2.92281 0
M  V30 40153 O 3889.04 -1.48639 -3.84682 0
M  V30 40154 H 3888.38 -0.449061 -0.489122 0
M  V30 40155 H 3890.91 -1.77751 -1.01319 0
M  V30 40156 H 3890.92 -2.22816 -3.41785 0
M  V30 40157 H 3889.6 -3.14568 -2.72066 0
M  V30 40158 H 3888.17 -1.45806 -3.43213 0
M  V30 40159 N 3890.36 1.03684 -1.1869 0
M  V30 40160 C 3891.59 1.80331 -1.00818 0
M  V30 40161 C 3892 1.83857 0.446462 0
M  V30 40162 O 3891.34 1.2756 1.3219 0
M  V30 40163 C 3891.4 3.27105 -1.49139 0
M  V30 40164 C 3891.07 3.47232 -2.97118 0
M  V30 40165 C 3892.06 3.38106 -3.94944 0
M  V30 40166 C 3889.75 3.73704 -3.35634 0
M  V30 40167 C 3891.74 3.55163 -5.29281 0
M  V30 40168 C 3889.43 3.90408 -4.70133 0
M  V30 40169 C 3890.43 3.81138 -5.66765 0
M  V30 40170 O 3890.12 3.97359 -6.98828 0
M  V30 40171 H 3889.85 0.574611 -0.356087 0
M  V30 40172 H 3892.4 1.31538 -1.57756 0
M  V30 40173 H 3890.63 3.76886 -0.865691 0
M  V30 40174 H 3892.32 3.85323 -1.27598 0
M  V30 40175 H 3893.09 3.17614 -3.66533 0
M  V30 40176 H 3888.97 3.80016 -2.60977 0
M  V30 40177 H 3892.51 3.47844 -6.0469 0
M  V30 40178 H 3888.41 4.10395 -4.98243 0
M  V30 40179 H 3889.17 4.14497 -7.05787 0
M  V30 40180 N 3891.84 0.989551 1.22661 0
M  V30 40181 C 3893.09 0.66222 1.90943 0
M  V30 40182 C 3893.41 -0.807868 1.77478 0
M  V30 40183 O 3892.68 -1.57872 1.15988 0
M  V30 40184 H 3891.26 0.241944 0.706733 0
M  V30 40185 H 3893.92 1.25534 1.49088 0
M  V30 40186 H 3893.01 0.921829 2.98176 0
M  V30 40187 N 3893.32 -1.37936 0.762332 0
M  V30 40188 C 3894.56 -1.99917 0.322404 0
M  V30 40189 C 3894.89 -1.60516 -1.0984 0
M  V30 40190 O 3894.15 -0.838321 -1.76835 0
M  V30 40191 C 3894.44 -3.55125 0.40262 0
M  V30 40192 C 3894.11 -4.14265 1.78033 0
M  V30 40193 C 3892.77 -4.3013 2.15735 0
M  V30 40194 C 3895.12 -4.46799 2.68366 0
M  V30 40195 C 3892.45 -4.75829 3.43225 0
M  V30 40196 C 3894.8 -4.93918 3.95257 0
M  V30 40197 C 3893.47 -5.0799 4.33016 0
M  V30 40198 H 3892.74 -0.731548 0.117976 0
M  V30 40199 H 3895.39 -1.6485 0.97452 0
M  V30 40200 H 3893.69 -3.90382 -0.33305 0
M  V30 40201 H 3895.39 -4.00976 0.0436769 0
M  V30 40202 H 3891.98 -4.02336 1.47728 0
M  V30 40203 H 3896.16 -4.34135 2.40501 0
M  V30 40204 H 3891.42 -4.8491 3.72388 0
M  V30 40205 H 3895.59 -5.1806 4.65389 0
M  V30 40206 H 3893.22 -5.4316 5.31866 0
M  V30 40207 N 3894.79 -0.512106 -1.49048 0
M  V30 40208 C 3895.73 0.297238 -2.27264 0
M  V30 40209 C 3896.74 0.92065 -1.34268 0
M  V30 40210 O 3897.93 0.802112 -1.59463 0
M  V30 40211 C 3895.03 1.43446 -3.07045 0
M  V30 40212 C 3894.2 0.916301 -4.27695 0
M  V30 40213 C 3893.26 1.93247 -4.8943 0
M  V30 40214 O 3892.29 1.49656 -5.49174 0
M  V30 40215 N 3893.49 3.26361 -4.80072 0
M  V30 40216 H 3896.25 -0.373497 -2.97364 0
M  V30 40217 H 3893.81 -0.345328 -1.58174 0
M  V30 40218 H 3895.81 2.11204 -3.45217 0
M  V30 40219 H 3894.38 2.00916 -2.39482 0
M  V30 40220 H 3893.6 0.0632722 -3.94149 0
M  V30 40221 H 3894.88 0.548697 -5.05833 0
M  V30 40222 H 3894.28 3.64456 -4.32652 0
M  V30 40223 H 3892.84 3.89801 -5.22396 0
M  V30 40224 N 3896.27 1.55662 -0.246424 0
M  V30 40225 C 3897.5 2.03037 0.382054 0
M  V30 40226 C 3897.91 1.12503 1.52117 0
M  V30 40227 O 3897.25 0.131785 1.83227 0
M  V30 40228 C 3897.31 3.46667 0.951951 0
M  V30 40229 C 3896.98 4.56967 -0.0548609 0
M  V30 40230 C 3897.98 5.12667 -0.864228 0
M  V30 40231 C 3895.66 5.01974 -0.180813 0
M  V30 40232 C 3897.65 6.11866 -1.78601 0
M  V30 40233 C 3895.34 6.01006 -1.1061 0
M  V30 40234 C 3896.34 6.55831 -1.90722 0
M  V30 40235 O 3896.03 7.52931 -2.81692 0
M  V30 40236 H 3895.76 0.669292 0.0949972 0
M  V30 40237 H 3898.31 2.02081 -0.367737 0
M  V30 40238 H 3896.54 3.4477 1.75129 0
M  V30 40239 H 3898.23 3.77545 1.49046 0
M  V30 40240 H 3899 4.78727 -0.777504 0
M  V30 40241 H 3894.88 4.58965 0.43268 0
M  V30 40242 H 3898.42 6.54585 -2.41174 0
M  V30 40243 H 3894.32 6.34366 -1.19375 0
M  V30 40244 H 3895.09 7.70545 -2.76047 0
M  V30 40245 N 3897.75 -0.0266943 1.57577 0
M  V30 40246 C 3898.97 -0.732439 1.94036 0
M  V30 40247 C 3899.4 -1.67971 0.846605 0
M  V30 40248 O 3898.76 -1.80221 -0.197483 0
M  V30 40249 C 3898.81 -1.46359 3.29562 0
M  V30 40250 O 3897.91 -2.57688 3.21979 0
M  V30 40251 H 3897.25 -0.196821 0.634159 0
M  V30 40252 H 3899.78 0.0185389 2.04592 0
M  V30 40253 H 3899.79 -1.83299 3.64507 0
M  V30 40254 H 3898.47 -0.768871 4.08731 0
M  V30 40255 H 3897.04 -2.23274 2.98669 0
M  V30 40256 N 3899.23 -1.54738 -0.299007 0
M  V30 40257 C 3900.64 -1.65092 -0.871868 0
M  V30 40258 C 3900.99 -0.560876 -1.88012 0
M  V30 40259 O 3900.11 0.302156 -2.1428 0
M  V30 40260 C 3900.71 -2.99271 -1.58815 0
M  V30 40261 C 3899.27 -3.1174 -2.10939 0
M  V30 40262 C 3898.42 -2.60783 -0.94273 0
M  V30 40263 H 3901.37 -1.58518 -0.0759605 0
M  V30 40264 H 3901.39 -2.90806 -2.45382 0
M  V30 40265 H 3900.9 -3.78586 -0.854078 0
M  V30 40266 H 3899 -2.37149 -2.87387 0
M  V30 40267 H 3899.11 -4.17925 -2.34255 0
M  V30 40268 H 3897.48 -2.17287 -1.32886 0
M  V30 40269 H 3898.26 -3.42578 -0.222585 0
M  V30 40270 N 3900.71 0.562296 -1.47228 0
M  V30 40271 C 3901.67 1.65187 -1.5889 0
M  V30 40272 C 3902.67 1.53948 -0.464386 0
M  V30 40273 O 3903.86 1.58198 -0.729307 0
M  V30 40274 C 3900.99 3.04708 -1.52858 0
M  V30 40275 H 3902.18 1.56198 -2.56012 0
M  V30 40276 H 3899.74 0.781808 -1.35342 0
M  V30 40277 H 3900.47 3.19235 -0.570923 0
M  V30 40278 H 3900.26 3.14274 -2.34465 0
M  V30 40279 H 3901.75 3.83986 -1.64147 0
M  V30 40280 N 3902.18 1.35274 0.808615 0
M  V30 40281 C 3903.09 1.30137 1.95196 0
M  V30 40282 C 3904.11 0.206617 1.72769 0
M  V30 40283 O 3905.29 0.435635 1.96632 0
M  V30 40284 C 3902.35 1.07092 3.29746 0
M  V30 40285 C 3901.41 2.25861 3.65082 0
M  V30 40286 C 3900.64 2.03906 4.93212 0
M  V30 40287 O 3900.87 1.00449 5.61486 0
M  V30 40288 O 3899.8 2.91218 5.2676 0
M  V30 40289 H 3903.63 2.26356 2.02476 0
M  V30 40290 H 3901.21 1.15625 0.946104 0
M  V30 40291 H 3903.09 0.960806 4.103 0
M  V30 40292 H 3901.77 0.139234 3.234 0
M  V30 40293 H 3900.68 2.42437 2.84912 0
M  V30 40294 H 3902.01 3.1747 3.7613 0
M  V30 40295 N 3903.66 -1.03053 1.19239 0
M  V30 40296 C 3905.08 -1.28671 0.944246 0
M  V30 40297 C 3905.28 -1.97801 -0.384344 0
M  V30 40298 O 3904.33 -2.26486 -1.11625 0
M  V30 40299 C 3905.65 -2.13543 2.11707 0
M  V30 40300 C 3907.2 -2.26856 2.15651 0
M  V30 40301 C 3907.67 -3.15099 3.32381 0
M  V30 40302 N 3909.16 -3.22687 3.32306 0
M  V30 40303 C 3909.9 -3.91151 4.19271 0
M  V30 40304 N 3909.39 -4.61859 5.16389 0
M  V30 40305 N 3911.19 -3.87533 4.07154 0
M  V30 40306 H 3903.34 -0.565951 2.04721 0
M  V30 40307 H 3905.6 -0.312312 0.895078 0
M  V30 40308 H 3905.31 -1.70067 3.07848 0
M  V30 40309 H 3905.18 -3.1425 2.0863 0
M  V30 40310 H 3907.57 -2.69563 1.20083 0
M  V30 40311 H 3907.65 -1.25704 2.22783 0
M  V30 40312 H 3907.29 -2.73101 4.28227 0
M  V30 40313 H 3907.22 -4.16306 3.22486 0
M  V30 40314 H 3909.71 -2.72327 2.62005 0
M  V30 40315 H 3910.03 -5.11726 5.79099 0
M  V30 40316 H 3908.37 -4.6073 5.20339 0
M  V30 40317 H 3911.56 -3.31432 3.30561 0
M  V30 40318 H 3911.73 -4.40617 4.75143 0
M  V30 40319 N 3905.14 -0.996042 -1.22134 0
M  V30 40320 C 3906.39 -0.674666 -1.91249 0
M  V30 40321 C 3906.72 0.791624 -1.77333 0
M  V30 40322 O 3905.99 1.57283 -1.14421 0
M  V30 40323 C 3906.28 -1.08527 -3.43357 0
M  V30 40324 C 3906.13 -2.61034 -3.66307 0
M  V30 40325 C 3907.45 -0.640872 -4.35409 0
M  V30 40326 H 3904.57 -0.246571 -0.69453 0
M  V30 40327 H 3907.21 -1.24012 -1.43948 0
M  V30 40328 H 3905.36 -0.604139 -3.83774 0
M  V30 40329 H 3907.03 -3.16842 -3.35275 0
M  V30 40330 H 3905.28 -3.0296 -3.1048 0
M  V30 40331 H 3905.95 -2.84815 -4.72847 0
M  V30 40332 H 3908.42 -1.05418 -4.02525 0
M  V30 40333 H 3907.3 -0.956432 -5.40503 0
M  V30 40334 H 3907.56 0.458344 -4.39718 0
M  V30 40335 N 3906.62 1.37529 -0.769636 0
M  V30 40336 C 3907.9 1.93893 -0.257822 0
M  V30 40337 C 3908.28 1.7035 1.24676 0
M  V30 40338 O 3907.62 1.05109 2.0289 0
M  V30 40339 C 3907.83 3.43287 -0.628918 0
M  V30 40340 C 3909.18 4.20375 -0.597526 0
M  V30 40341 O 3910.21 3.51639 -0.568179 0
M  V30 40342 O 3909.06 5.42941 -0.622723 0
M  V30 40343 H 3906.16 0.824905 -0.0588289 0
M  V30 40344 H 3908.7 1.46829 -0.850845 0
M  V30 40345 H 3907.48 3.53997 -1.66739 0
M  V30 40346 H 3907.1 3.97599 -0.00872918 0
M  V30 40347 N 3908.1 0.520003 1.48774 0
M  V30 40348 C 3909.34 -0.0177149 2.02492 0
M  V30 40349 C 3909.67 -1.35223 1.39803 0
M  V30 40350 O 3908.93 -1.88397 0.529624 0
M  V30 40351 C 3909.23 -0.199141 3.56845 0
M  V30 40352 C 3908.89 1.05976 4.38269 0
M  V30 40353 C 3907.55 1.4048 4.60238 0
M  V30 40354 C 3909.91 1.89568 4.85503 0
M  V30 40355 C 3907.23 2.58492 5.26687 0
M  V30 40356 C 3909.59 3.06749 5.53252 0
M  V30 40357 C 3908.25 3.41611 5.73462 0
M  V30 40358 H 3907.52 -0.00648234 0.740972 0
M  V30 40359 H 3910.17 0.684008 1.78867 0
M  V30 40360 H 3908.47 -0.983551 3.79254 0
M  V30 40361 H 3910.17 -0.62995 3.96021 0
M  V30 40362 H 3906.76 0.781029 4.21424 0
M  V30 40363 H 3910.94 1.64223 4.68342 0
M  V30 40364 H 3906.2 2.85717 5.40533 0
M  V30 40365 H 3910.37 3.71835 5.88822 0
M  V30 40366 H 3908 4.33155 6.24724 0
M  V30 40367 N 3909.57 -1.55529 0.254676 0
M  V30 40368 C 3910.5 -2.24682 -0.635617 0
M  V30 40369 C 3911.49 -1.22979 -1.17517 0
M  V30 40370 O 3912.67 -1.51651 -1.21308 0
M  V30 40371 C 3909.8 -2.95227 -1.82916 0
M  V30 40372 C 3908.75 -4.03685 -1.42205 0
M  V30 40373 C 3908.08 -4.61696 -2.69705 0
M  V30 40374 C 3909.38 -5.18987 -0.587345 0
M  V30 40375 H 3911.07 -2.99342 -0.0589537 0
M  V30 40376 H 3908.62 -1.43975 -0.0269147 0
M  V30 40377 H 3910.57 -3.42308 -2.45771 0
M  V30 40378 H 3909.3 -2.18068 -2.43133 0
M  V30 40379 H 3907.96 -3.57385 -0.816807 0
M  V30 40380 H 3907.6 -3.81229 -3.28136 0
M  V30 40381 H 3907.3 -5.34916 -2.43185 0
M  V30 40382 H 3908.83 -5.11515 -3.33444 0
M  V30 40383 H 3910.24 -5.62246 -1.12038 0
M  V30 40384 H 3908.64 -5.98643 -0.417882 0
M  V30 40385 H 3909.71 -4.83258 0.398662 0
M  V30 40386 N 3911.05 0.0183372 -1.57589 0
M  V30 40387 C 3911.98 1.01488 -2.10291 0
M  V30 40388 C 3912.96 1.37027 -1.00785 0
M  V30 40389 O 3914.15 1.45724 -1.28368 0
M  V30 40390 C 3911.28 2.3125 -2.59115 0
M  V30 40391 C 3910.23 2.09924 -3.72983 0
M  V30 40392 C 3909.56 3.4554 -4.08052 0
M  V30 40393 C 3910.86 1.47668 -5.0099 0
M  V30 40394 H 3912.55 0.576129 -2.93805 0
M  V30 40395 H 3910.1 0.275683 -1.41336 0
M  V30 40396 H 3912.05 3.01304 -2.94608 0
M  V30 40397 H 3910.78 2.77205 -1.72699 0
M  V30 40398 H 3909.43 1.423 -3.37855 0
M  V30 40399 H 3909.08 3.89163 -3.18686 0
M  V30 40400 H 3908.78 3.32092 -4.84756 0
M  V30 40401 H 3910.31 4.16939 -4.46088 0
M  V30 40402 H 3911.72 2.07654 -5.34371 0
M  V30 40403 H 3910.12 1.44764 -5.82377 0
M  V30 40404 H 3911.19 0.443719 -4.82866 0
M  V30 40405 N 3912.53 1.54894 0.290797 0
M  V30 40406 C 3913.48 1.8655 1.35896 0
M  V30 40407 C 3914.45 0.715316 1.49908 0
M  V30 40408 O 3915.63 0.964915 1.64603 0
M  V30 40409 C 3912.77 2.12734 2.71732 0
M  V30 40410 C 3911.89 3.40326 2.66086 0
M  V30 40411 C 3911.02 3.56301 3.93983 0
M  V30 40412 C 3910.06 4.77649 3.82776 0
M  V30 40413 N 3909.2 4.90376 5.0247 0
M  V30 40414 H 3914.04 2.77663 1.082 0
M  V30 40415 H 3911.57 1.37484 0.52312 0
M  V30 40416 H 3913.53 2.25913 3.50741 0
M  V30 40417 H 3912.16 1.24876 2.97667 0
M  V30 40418 H 3911.21 3.35715 1.78885 0
M  V30 40419 H 3912.53 4.29463 2.53699 0
M  V30 40420 H 3911.68 3.692 4.81431 0
M  V30 40421 H 3910.42 2.65317 4.09216 0
M  V30 40422 H 3909.42 4.64773 2.93712 0
M  V30 40423 H 3910.65 5.70051 3.69078 0
M  V30 40424 H 3908.59 4.02317 5.18148 0
M  V30 40425 H 3908.51 5.73529 4.92545 0
M  V30 40426 H 3909.78 5.07641 5.91541 0
M  V30 40427 N 3914.01 -0.55448 1.47524 0
M  V30 40428 C 3914.97 -1.64342 1.59764 0
M  V30 40429 C 3915.97 -1.537 0.472543 0
M  V30 40430 O 3917.16 -1.57809 0.737687 0
M  V30 40431 C 3914.29 -3.03893 1.54472 0
M  V30 40432 H 3915.49 -1.54838 2.56837 0
M  V30 40433 H 3913.04 -0.774619 1.35755 0
M  V30 40434 H 3913.77 -3.18928 0.587845 0
M  V30 40435 H 3913.56 -3.13027 2.36129 0
M  V30 40436 H 3915.05 -3.8311 1.66181 0
M  V30 40437 N 3915.49 -1.35701 -0.80143 0
M  V30 40438 C 3916.73 -1.30462 -1.56049 0
M  V30 40439 C 3917.09 0.118578 -1.92034 0
M  V30 40440 O 3916.38 1.07024 -1.58923 0
M  V30 40441 C 3916.57 -2.14962 -2.85527 0
M  V30 40442 C 3916.4 -3.65356 -2.62193 0
M  V30 40443 C 3915.17 -4.34573 -2.57825 0
M  V30 40444 C 3917.37 -4.5889 -2.32216 0
M  V30 40445 N 3915.35 -5.70682 -2.26263 0
M  V30 40446 C 3916.72 -5.83159 -2.10537 0
M  V30 40447 C 3918.78 -4.47579 -2.18122 0
M  V30 40448 C 3917.48 -6.97387 -1.76191 0
M  V30 40449 C 3919.51 -5.61662 -1.85174 0
M  V30 40450 C 3918.87 -6.84963 -1.64334 0
M  V30 40451 H 3914.97 -0.532658 -0.572538 0
M  V30 40452 H 3917.55 -1.70635 -0.937653 0
M  V30 40453 H 3915.72 -1.77053 -3.45697 0
M  V30 40454 H 3917.46 -2.01203 -3.5114 0
M  V30 40455 H 3914.21 -3.87242 -2.72654 0
M  V30 40456 H 3914.64 -6.42533 -2.13261 0
M  V30 40457 H 3919.28 -3.52851 -2.32929 0
M  V30 40458 H 3917 -7.92077 -1.60122 0
M  V30 40459 H 3920.58 -5.54867 -1.74969 0
M  V30 40460 H 3919.46 -7.71745 -1.39212 0
M  V30 40461 N 3916.96 1.02419 -1.19783 0
M  V30 40462 C 3918.21 1.75548 -1.00136 0
M  V30 40463 C 3918.53 1.89289 0.46847 0
M  V30 40464 O 3917.8 1.42988 1.33907 0
M  V30 40465 H 3916.38 0.650334 -0.367524 0
M  V30 40466 H 3919.05 1.23521 -1.5076 0
M  V30 40467 H 3918.14 2.76196 -1.45334 0
M  V30 40468 N 3918.44 1.0025 1.21604 0
M  V30 40469 C 3919.67 0.702283 1.95148 0
M  V30 40470 C 3920.09 -0.728262 1.7343 0
M  V30 40471 O 3919.45 -1.49915 1.01956 0
M  V30 40472 C 3919.5 1.02576 3.45703 0
M  V30 40473 O 3918.6 0.129647 4.12196 0
M  V30 40474 H 3917.94 0.261898 0.610168 0
M  V30 40475 H 3920.47 1.34208 1.54433 0
M  V30 40476 H 3920.48 0.97158 3.96263 0
M  V30 40477 H 3919.16 2.06812 3.60835 0
M  V30 40478 H 3917.74 0.240139 3.72126 0
M  V30 40479 N 3919.92 -1.37119 0.776919 0
M  V30 40480 C 3920.87 -2.3021 0.164879 0
M  V30 40481 C 3921.84 -1.51358 -0.68411 0
M  V30 40482 O 3923.02 -1.79909 -0.635396 0
M  V30 40483 C 3920.16 -3.37839 -0.704204 0
M  V30 40484 C 3919.28 -4.31696 0.161957 0
M  V30 40485 C 3918.41 -5.26402 -0.712318 0
M  V30 40486 C 3917.45 -6.11901 0.156061 0
M  V30 40487 N 3916.59 -6.98833 -0.676484 0
M  V30 40488 H 3921.43 -2.81969 0.964235 0
M  V30 40489 H 3918.96 -1.38801 0.487089 0
M  V30 40490 H 3920.92 -3.98873 -1.22295 0
M  V30 40491 H 3919.55 -2.87432 -1.46911 0
M  V30 40492 H 3918.6 -3.71924 0.798557 0
M  V30 40493 H 3919.92 -4.91819 0.831582 0
M  V30 40494 H 3919.07 -5.92667 -1.29735 0
M  V30 40495 H 3917.81 -4.66703 -1.41561 0
M  V30 40496 H 3916.81 -5.44611 0.753588 0
M  V30 40497 H 3918.04 -6.73674 0.856764 0
M  V30 40498 H 3915.99 -6.41656 -1.3643 0
M  V30 40499 H 3915.9 -7.55973 -0.0642688 0
M  V30 40500 H 3917.17 -7.69481 -1.24574 0
M  V30 40501 N 3921.4 -0.527886 -1.48496 0
M  V30 40502 C 3922.35 0.23603 -2.2959 0
M  V30 40503 C 3923.32 0.935738 -1.37234 0
M  V30 40504 O 3924.5 0.937173 -1.66198 0
M  V30 40505 C 3921.64 1.27827 -3.20553 0
M  V30 40506 C 3920.75 0.587615 -4.27985 0
M  V30 40507 C 3919.89 1.6126 -5.06131 0
M  V30 40508 C 3918.93 0.905298 -6.05368 0
M  V30 40509 N 3918.07 1.87573 -6.7658 0
M  V30 40510 H 3922.91 -0.461687 -2.94402 0
M  V30 40511 H 3920.44 -0.239518 -1.45137 0
M  V30 40512 H 3922.4 1.89481 -3.71689 0
M  V30 40513 H 3921.03 1.94439 -2.57669 0
M  V30 40514 H 3920.08 -0.142826 -3.80132 0
M  V30 40515 H 3921.39 0.0321471 -4.9879 0
M  V30 40516 H 3920.55 2.30349 -5.6127 0
M  V30 40517 H 3919.29 2.20196 -4.35161 0
M  V30 40518 H 3918.29 0.20033 -5.49435 0
M  V30 40519 H 3919.52 0.322078 -6.78336 0
M  V30 40520 H 3917.46 2.45421 -6.08362 0
M  V30 40521 H 3917.38 1.37164 -7.43453 0
M  V30 40522 H 3918.65 2.55867 -7.3631 0
M  V30 40523 N 3922.88 1.55391 -0.26292 0
M  V30 40524 C 3924.15 1.91287 0.408491 0
M  V30 40525 C 3924.53 1.18569 1.74655 0
M  V30 40526 O 3923.88 0.308462 2.26408 0
M  V30 40527 C 3924.09 3.44465 0.560804 0
M  V30 40528 C 3925.44 4.16019 0.849328 0
M  V30 40529 O 3926.46 3.50292 0.646072 0
M  V30 40530 O 3925.32 5.32309 1.23732 0
M  V30 40531 H 3922.42 0.796731 0.221693 0
M  V30 40532 H 3924.96 1.66878 -0.308172 0
M  V30 40533 H 3923.74 3.89437 -0.381347 0
M  V30 40534 H 3923.36 3.74788 1.3274 0
M  V30 40535 N 3924.36 -0.00997961 1.57597 0
M  V30 40536 C 3925.77 -0.554112 1.78288 0
M  V30 40537 C 3926.12 -1.74527 0.896363 0
M  V30 40538 O 3925.24 -2.16186 0.0961885 0
M  V30 40539 C 3925.84 -1.012 3.23333 0
M  V30 40540 C 3924.4 -1.50151 3.45154 0
M  V30 40541 C 3923.54 -0.448173 2.73654 0
M  V30 40542 H 3926.49 0.216217 1.5722 0
M  V30 40543 H 3926.52 -1.87851 3.30896 0
M  V30 40544 H 3926.03 -0.144853 3.8783 0
M  V30 40545 H 3924.13 -2.38989 2.85859 0
M  V30 40546 H 3924.24 -1.53586 4.53815 0
M  V30 40547 H 3922.61 -0.907561 2.37982 0
M  V30 40548 H 3923.39 0.409839 3.40845 0
M  V30 40549 N 3925.83 -1.55046 -0.282578 0
M  V30 40550 C 3926.77 -1.82179 -1.37426 0
M  V30 40551 C 3927.74 -0.674165 -1.47965 0
M  V30 40552 O 3928.93 -0.916132 -1.6474 0
M  V30 40553 C 3926.06 -1.97491 -2.75164 0
M  V30 40554 C 3925.1 -3.20004 -2.81957 0
M  V30 40555 S 3925.93 -4.7761 -2.42175 0
M  V30 40556 C 3927.09 -4.95882 -3.81906 0
M  V30 40557 H 3927.32 -2.7449 -1.14205 0
M  V30 40558 H 3924.86 -1.46694 -0.481697 0
M  V30 40559 H 3926.81 -2.06997 -3.54489 0
M  V30 40560 H 3925.48 -1.06086 -2.95643 0
M  V30 40561 H 3924.67 -3.27575 -3.83028 0
M  V30 40562 H 3924.27 -3.09039 -2.10644 0
M  V30 40563 H 3926.56 -4.81036 -4.77086 0
M  V30 40564 H 3927.51 -5.97949 -3.79293 0
M  V30 40565 H 3927.91 -4.23919 -3.72764 0
M  V30 40566 N 3927.31 0.546649 -1.47816 0
M  V30 40567 C 3928.56 1.30076 -1.54676 0
M  V30 40568 C 3928.88 1.93809 -0.215185 0
M  V30 40569 O 3928.15 1.8048 0.76183 0
M  V30 40570 H 3926.73 0.483068 -0.569785 0
M  V30 40571 H 3929.39 0.637493 -1.84179 0
M  V30 40572 H 3928.49 2.08878 -2.31898 0
M  V30 40573 N 3928.79 1.36124 0.794222 0
M  V30 40574 C 3930.04 1.30087 1.55189 0
M  V30 40575 C 3930.36 -0.121225 1.94122 0
M  V30 40576 O 3929.62 -1.0894 1.62575 0
M  V30 40577 C 3929.92 2.16474 2.84383 0
M  V30 40578 C 3929.58 3.65092 2.64611 0
M  V30 40579 C 3928.25 4.05599 2.58926 0
M  V30 40580 C 3930.6 4.5934 2.46284 0
M  V30 40581 C 3927.93 5.38503 2.32875 0
M  V30 40582 C 3930.28 5.92457 2.21761 0
M  V30 40583 C 3928.94 6.32094 2.14507 0
M  V30 40584 H 3928.21 0.476022 0.567876 0
M  V30 40585 H 3930.86 1.68134 0.916693 0
M  V30 40586 H 3929.16 1.71348 3.52345 0
M  V30 40587 H 3930.86 2.0913 3.42149 0
M  V30 40588 H 3927.45 3.32954 2.69888 0
M  V30 40589 H 3931.64 4.28921 2.4968 0
M  V30 40590 H 3926.89 5.68201 2.25738 0
M  V30 40591 H 3931.07 6.65056 2.06574 0
M  V30 40592 H 3928.69 7.35007 1.94083 0
M  V30 40593 N 3930.27 -1.01782 1.20325 0
M  V30 40594 C 3931.49 -1.795 1.03896 0
M  V30 40595 C 3931.92 -1.83635 -0.407388 0
M  V30 40596 O 3931.28 -1.27051 -1.29336 0
M  V30 40597 C 3931.32 -3.21876 1.62567 0
M  V30 40598 O 3930.43 -4.03281 0.862469 0
M  V30 40599 H 3929.77 -0.553699 0.366488 0
M  V30 40600 H 3932.3 -1.28031 1.59591 0
M  V30 40601 H 3932.31 -3.72592 1.66251 0
M  V30 40602 H 3930.98 -3.18181 2.67831 0
M  V30 40603 H 3929.56 -3.61882 0.89975 0
M  V30 40604 N 3931.75 -1.00894 -1.21071 0
M  V30 40605 C 3932.98 -0.711814 -1.9395 0
M  V30 40606 C 3933.38 0.730247 -1.74539 0
M  V30 40607 O 3932.73 1.50618 -1.05167 0
M  V30 40608 C 3932.79 -0.958018 -3.465 0
M  V30 40609 C 3932.45 -2.38769 -3.89664 0
M  V30 40610 C 3933.45 -3.36812 -3.96048 0
M  V30 40611 C 3931.13 -2.72639 -4.21869 0
M  V30 40612 C 3933.13 -4.66791 -4.34034 0
M  V30 40613 C 3930.82 -4.02833 -4.59531 0
M  V30 40614 C 3931.81 -4.9972 -4.65585 0
M  V30 40615 O 3931.5 -6.27585 -5.02387 0
M  V30 40616 H 3931.23 -0.261219 -0.623491 0
M  V30 40617 H 3933.79 -1.35089 -1.54726 0
M  V30 40618 H 3932.02 -0.261772 -3.85813 0
M  V30 40619 H 3933.71 -0.653667 -4.00602 0
M  V30 40620 H 3934.47 -3.1198 -3.7134 0
M  V30 40621 H 3930.35 -1.97919 -4.16352 0
M  V30 40622 H 3933.9 -5.42413 -4.38673 0
M  V30 40623 H 3929.79 -4.27448 -4.83693 0
M  V30 40624 H 3930.56 -6.31759 -5.20406 0
M  V30 40625 N 3933.22 1.36705 -0.78418 0
M  V30 40626 C 3934.5 1.93609 -0.278372 0
M  V30 40627 C 3934.88 1.71663 1.22862 0
M  V30 40628 O 3934.23 1.07255 2.01764 0
M  V30 40629 C 3934.44 3.426 -0.665292 0
M  V30 40630 C 3935.79 4.19717 -0.642079 0
M  V30 40631 O 3936.81 3.51017 -0.605443 0
M  V30 40632 O 3935.67 5.4225 -0.680274 0
M  V30 40633 H 3932.76 0.824235 -0.0675748 0
M  V30 40634 H 3935.31 1.45918 -0.866371 0
M  V30 40635 H 3934.08 3.52208 -1.70485 0
M  V30 40636 H 3933.71 3.97567 -0.0508994 0
M  V30 40637 N 3934.7 0.535753 1.48214 0
M  V30 40638 C 3935.93 0.00798287 2.06898 0
M  V30 40639 C 3936.35 -1.27604 1.3915 0
M  V30 40640 O 3935.7 -1.7605 0.480898 0
M  V30 40641 C 3935.75 -0.213673 3.60868 0
M  V30 40642 O 3935.47 1.01948 4.26073 0
M  V30 40643 C 3936.98 -0.781169 4.36363 0
M  V30 40644 H 3934.2 0.0361215 0.670027 0
M  V30 40645 H 3936.74 0.743045 1.90523 0
M  V30 40646 H 3934.89 -0.8988 3.76829 0
M  V30 40647 H 3935.31 0.803807 5.18304 0
M  V30 40648 H 3936.78 -0.885657 5.44849 0
M  V30 40649 H 3937.26 -1.78744 4.01182 0
M  V30 40650 H 3937.87 -0.132424 4.25094 0
M  V30 40651 N 3936.18 -1.5525 0.271158 0
M  V30 40652 C 3937.6 -1.59384 -0.0830906 0
M  V30 40653 C 3937.8 -1.28838 -1.54929 0
M  V30 40654 O 3936.85 -1.04734 -2.29754 0
M  V30 40655 C 3938.17 -2.99318 0.287973 0
M  V30 40656 C 3939.71 -3.12122 0.234264 0
M  V30 40657 C 3940.19 -4.54316 0.57971 0
M  V30 40658 N 3941.68 -4.60145 0.531114 0
M  V30 40659 C 3942.41 -5.68189 0.771256 0
M  V30 40660 N 3941.91 -6.84396 1.07581 0
M  V30 40661 N 3943.7 -5.5772 0.700321 0
M  V30 40662 H 3935.85 -1.73371 1.22705 0
M  V30 40663 H 3938.12 -0.808236 0.495439 0
M  V30 40664 H 3937.82 -3.26492 1.30751 0
M  V30 40665 H 3937.7 -3.7535 -0.373139 0
M  V30 40666 H 3940.08 -2.84715 -0.775985 0
M  V30 40667 H 3940.17 -2.38312 0.929577 0
M  V30 40668 H 3939.81 -4.82449 1.58763 0
M  V30 40669 H 3939.74 -5.26421 -0.13735 0
M  V30 40670 H 3942.23 -3.76664 0.305443 0
M  V30 40671 H 3942.54 -7.62692 1.24582 0
M  V30 40672 H 3940.89 -6.86021 1.11354 0
M  V30 40673 H 3944.08 -4.65812 0.462265 0
M  V30 40674 H 3944.25 -6.41847 0.890857 0
M  V30 40675 N 3937.66 0.00162173 -1.576 0
M  V30 40676 C 3938.9 0.69133 -1.92354 0
M  V30 40677 C 3939.26 1.71027 -0.872566 0
M  V30 40678 O 3940.46 2.45024 -1.1053 0
M  V30 40679 C 3938.73 1.31913 -3.32165 0
M  V30 40680 S 3940.29 2.03418 -3.88801 0
M  V30 40681 H 3937.11 0.228395 -0.673318 0
M  V30 40682 H 3939.71 -0.0546761 -1.95424 0
M  V30 40683 H 3938.42 0.564674 -4.06497 0
M  V30 40684 H 3937.95 2.1031 -3.32466 0
M  V30 40685 H 3939.96 3.30911 -3.69746 0
M  V30 40686 N 3939.14 1.55194 0.274352 0
M  V30 40687 C 3940.38 1.75736 1.00613 0
M  V30 40688 C 3940.71 0.557712 1.86333 0
M  V30 40689 O 3939.97 -0.459815 1.90221 0
M  V30 40690 C 3940.27 3.01478 1.91953 0
M  V30 40691 C 3939.93 4.34083 1.21995 0
M  V30 40692 C 3938.59 4.70124 1.0265 0
M  V30 40693 C 3940.95 5.16175 0.721996 0
M  V30 40694 C 3938.27 5.85814 0.322362 0
M  V30 40695 C 3940.63 6.32592 0.0314571 0
M  V30 40696 C 3939.29 6.67274 -0.173713 0
M  V30 40697 H 3938.56 0.643064 0.368171 0
M  V30 40698 H 3941.21 1.89463 0.278546 0
M  V30 40699 H 3939.51 2.82645 2.71328 0
M  V30 40700 H 3941.21 3.14568 2.48692 0
M  V30 40701 H 3937.8 4.05754 1.38063 0
M  V30 40702 H 3941.98 4.88808 0.859078 0
M  V30 40703 H 3937.24 6.11209 0.152667 0
M  V30 40704 H 3941.41 6.95458 -0.362155 0
M  V30 40705 H 3939.04 7.5677 -0.721311 0
M  V30 40706 N 3940.61 -0.538802 1.48104 0
M  V30 40707 C 3941.89 -1.2999 1.46158 0
M  V30 40708 C 3942.27 -2.10427 0.168447 0
M  V30 40709 O 3941.62 -2.12105 -0.849929 0
M  V30 40710 C 3941.83 -2.18883 2.7183 0
M  V30 40711 C 3943.18 -2.79309 3.19799 0
M  V30 40712 O 3944.2 -2.29175 2.72685 0
M  V30 40713 O 3943.06 -3.70478 4.01757 0
M  V30 40714 H 3940.15 -0.586248 0.583303 0
M  V30 40715 H 3942.7 -0.556184 1.60327 0
M  V30 40716 H 3941.47 -1.59169 3.57464 0
M  V30 40717 H 3941.1 -3.00517 2.60337 0
M  V30 40718 N 3942.09 -1.36544 -0.786992 0
M  V30 40719 C 3943.32 -1.34234 -1.58101 0
M  V30 40720 C 3943.74 0.0734601 -1.87957 0
M  V30 40721 O 3943.1 1.04612 -1.48074 0
M  V30 40722 C 3943.15 -2.1735 -2.87735 0
M  V30 40723 O 3942.25 -1.56765 -3.81442 0
M  V30 40724 H 3941.59 -0.459335 -0.479487 0
M  V30 40725 H 3944.12 -1.79861 -0.975262 0
M  V30 40726 H 3944.13 -2.30016 -3.36982 0
M  V30 40727 H 3942.81 -3.20268 -2.65332 0
M  V30 40728 H 3941.39 -1.53053 -3.40043 0
M  V30 40729 N 3943.57 1.01143 -1.20863 0
M  V30 40730 C 3944.8 1.78411 -1.04772 0
M  V30 40731 C 3945.21 1.84453 0.402814 0
M  V30 40732 O 3944.57 1.30125 1.2796 0
M  V30 40733 C 3944.62 3.2263 -1.63071 0
M  V30 40734 O 3944.34 3.16949 -3.02449 0
M  V30 40735 C 3945.84 4.16425 -1.52004 0
M  V30 40736 H 3943.06 0.560901 -0.368281 0
M  V30 40737 H 3945.61 1.27281 -1.60062 0
M  V30 40738 H 3943.76 3.7089 -1.11888 0
M  V30 40739 H 3944.18 4.07509 -3.30207 0
M  V30 40740 H 3945.65 5.1544 -1.97548 0
M  V30 40741 H 3946.13 4.36641 -0.473382 0
M  V30 40742 H 3946.73 3.7405 -2.02402 0
M  V30 40743 N 3945.05 1.01535 1.20534 0
M  V30 40744 C 3946.29 0.705006 1.90151 0
M  V30 40745 C 3946.63 -0.763312 1.7857 0
M  V30 40746 O 3945.9 -1.55443 1.16909 0
M  V30 40747 C 3946.19 1.13976 3.41587 0
M  V30 40748 C 3946.04 2.66829 3.62108 0
M  V30 40749 C 3947.36 0.71006 4.34334 0
M  V30 40750 H 3944.48 0.257589 0.690519 0
M  V30 40751 H 3947.12 1.26287 1.41956 0
M  V30 40752 H 3945.27 0.665117 3.82764 0
M  V30 40753 H 3946.94 3.22135 3.30192 0
M  V30 40754 H 3945.18 3.07861 3.05621 0
M  V30 40755 H 3945.85 2.92302 4.68256 0
M  V30 40756 H 3948.33 1.11808 4.00797 0
M  V30 40757 H 3947.21 1.0423 5.38913 0
M  V30 40758 H 3947.47 -0.388331 4.40391 0
M  V30 40759 N 3946.53 -1.36288 0.791419 0
M  V30 40760 C 3947.75 -2.03441 0.376731 0
M  V30 40761 C 3948.17 -1.59671 -1.00751 0
M  V30 40762 O 3947.53 -0.78707 -1.64656 0
M  V30 40763 C 3947.58 -3.58896 0.433137 0
M  V30 40764 O 3947.3 -4.0107 1.76279 0
M  V30 40765 C 3948.8 -4.43299 0.00933267 0
M  V30 40766 H 3946.02 -0.652852 0.155001 0
M  V30 40767 H 3948.56 -1.74223 1.07082 0
M  V30 40768 H 3946.72 -3.86816 -0.212555 0
M  V30 40769 H 3947.13 -4.95669 1.71501 0
M  V30 40770 H 3948.61 -5.5191 0.0999356 0
M  V30 40771 H 3949.08 -4.26623 -1.04354 0
M  V30 40772 H 3949.69 -4.20644 0.627591 0
M  V30 40773 N 3948.01 -0.543606 -1.47928 0
M  V30 40774 C 3948.92 0.21515 -2.33611 0
M  V30 40775 C 3949.93 0.9255 -1.47345 0
M  V30 40776 O 3951.11 0.897428 -1.803 0
M  V30 40777 C 3948.17 1.24026 -3.23757 0
M  V30 40778 C 3947.23 0.5388 -4.25905 0
M  V30 40779 C 3946.47 1.51507 -5.11743 0
M  V30 40780 O 3946.69 2.74884 -4.99795 0
M  V30 40781 O 3945.62 1.047 -5.92724 0
M  V30 40782 H 3949.45 -0.487332 -2.99765 0
M  V30 40783 H 3947.03 -0.304366 -1.46267 0
M  V30 40784 H 3948.92 1.83233 -3.79478 0
M  V30 40785 H 3947.59 1.9249 -2.60248 0
M  V30 40786 H 3946.5 -0.0941196 -3.73982 0
M  V30 40787 H 3947.83 -0.10415 -4.9209 0
M  V30 40788 N 3949.48 1.55104 -0.279387 0
M  V30 40789 C 3950.9 1.59425 0.074637 0
M  V30 40790 C 3951.1 1.29658 1.54244 0
M  V30 40791 O 3950.16 1.05951 2.29196 0
M  V30 40792 C 3951.47 2.99161 -0.303843 0
M  V30 40793 C 3953.02 3.11993 -0.250813 0
M  V30 40794 C 3953.49 4.54003 -0.603795 0
M  V30 40795 N 3954.98 4.59857 -0.555509 0
M  V30 40796 C 3955.72 5.67772 -0.801378 0
M  V30 40797 N 3955.21 6.83816 -1.11209 0
M  V30 40798 N 3957.01 5.57341 -0.729888 0
M  V30 40799 H 3949.16 1.72717 -1.23622 0
M  V30 40800 H 3951.42 0.805597 -0.499718 0
M  V30 40801 H 3951.13 3.25794 -1.32481 0
M  V30 40802 H 3951 3.75542 0.353228 0
M  V30 40803 H 3953.39 2.85122 0.760875 0
M  V30 40804 H 3953.47 2.37815 -0.942202 0
M  V30 40805 H 3953.11 4.816 -1.61319 0
M  V30 40806 H 3953.04 5.26486 0.109431 0
M  V30 40807 H 3955.53 3.76496 -0.325414 0
M  V30 40808 H 3955.85 7.62021 -1.28625 0
M  V30 40809 H 3954.19 6.85421 -1.1499 0
M  V30 40810 H 3957.38 4.6556 -0.486961 0
M  V30 40811 H 3957.56 6.41366 -0.924883 0
M  V30 40812 N 3950.96 0.0067362 1.57599 0
M  V30 40813 C 3952.24 -0.714109 1.82098 0
M  V30 40814 C 3952.62 -1.91612 0.885902 0
M  V30 40815 O 3951.97 -2.28411 -0.0638104 0
M  V30 40816 C 3952.18 -1.11348 3.30761 0
M  V30 40817 C 3953.52 -1.51452 3.96671 0
M  V30 40818 O 3954.55 -1.20709 3.35124 0
M  V30 40819 O 3953.41 -2.08645 5.05103 0
M  V30 40820 H 3950.5 -0.348301 0.750077 0
M  V30 40821 H 3953.05 0.0327064 1.69668 0
M  V30 40822 H 3951.82 -0.257 3.90455 0
M  V30 40823 H 3951.44 -1.91918 3.48214 0
M  V30 40824 N 3952.44 -1.55337 -0.266118 0
M  V30 40825 C 3953.69 -1.75471 -0.994618 0
M  V30 40826 C 3954 -0.567053 -1.872 0
M  V30 40827 O 3955.21 -0.65097 -2.6358 0
M  V30 40828 C 3953.66 -3.10584 -1.81839 0
M  V30 40829 C 3953.27 -4.3694 -0.989336 0
M  V30 40830 C 3955.02 -3.40066 -2.54078 0
M  V30 40831 C 3952.92 -5.63089 -1.80789 0
M  V30 40832 H 3951.85 -0.654085 -0.375086 0
M  V30 40833 H 3954.5 -1.81789 -0.250008 0
M  V30 40834 H 3952.89 -2.98323 -2.60422 0
M  V30 40835 H 3954.06 -4.60137 -0.24719 0
M  V30 40836 H 3952.37 -4.14652 -0.381177 0
M  V30 40837 H 3954.97 -4.31526 -3.15737 0
M  V30 40838 H 3955.31 -2.60511 -3.24715 0
M  V30 40839 H 3955.85 -3.53456 -1.8252 0
M  V30 40840 H 3952.59 -6.45412 -1.1456 0
M  V30 40841 H 3952.11 -5.44024 -2.52582 0
M  V30 40842 H 3953.79 -6.01642 -2.37983 0
M  V30 40843 N 3953.92 0.53094 -1.48387 0
M  V30 40844 C 3955.33 0.859388 -1.34487 0
M  V30 40845 C 3955.53 1.98345 -0.355159 0
M  V30 40846 O 3954.59 2.51505 0.223968 0
M  V30 40847 C 3955.9 1.22782 -2.74491 0
M  V30 40848 C 3957.45 1.33776 -2.82972 0
M  V30 40849 C 3957.93 1.73962 -4.23676 0
M  V30 40850 N 3959.42 1.81067 -4.26344 0
M  V30 40851 C 3960.15 2.13544 -5.32153 0
M  V30 40852 N 3959.65 2.44453 -6.4824 0
M  V30 40853 N 3961.44 2.14542 -5.19546 0
M  V30 40854 H 3953.59 -0.21075 -2.11352 0
M  V30 40855 H 3955.85 -0.0316449 -0.947472 0
M  V30 40856 H 3955.56 0.475491 -3.48471 0
M  V30 40857 H 3955.43 2.17818 -3.07953 0
M  V30 40858 H 3957.82 2.08085 -2.09248 0
M  V30 40859 H 3957.9 0.368632 -2.5313 0
M  V30 40860 H 3957.55 1.00214 -4.97915 0
M  V30 40861 H 3957.48 2.71923 -4.5096 0
M  V30 40862 H 3959.97 1.59461 -3.42608 0
M  V30 40863 H 3960.28 2.68337 -7.24717 0
M  V30 40864 H 3958.63 2.41975 -6.51516 0
M  V30 40865 H 3961.82 1.89852 -4.27871 0
M  V30 40866 H 3961.99 2.39522 -6.02107 0
M  V30 40867 N 3955.4 1.36959 0.779739 0
M  V30 40868 C 3956.62 1.34902 1.56873 0
M  V30 40869 C 3957.04 -0.0675013 1.88679 0
M  V30 40870 O 3956.4 -1.0271 1.50854 0
M  V30 40871 C 3956.45 2.1798 2.88387 0
M  V30 40872 O 3956.17 3.54111 2.57947 0
M  V30 40873 C 3957.67 2.23812 3.82653 0
M  V30 40874 H 3954.89 0.462383 0.486254 0
M  V30 40875 H 3957.43 1.8019 0.96704 0
M  V30 40876 H 3955.59 1.76221 3.45 0
M  V30 40877 H 3956 3.9757 3.42108 0
M  V30 40878 H 3957.48 2.8628 4.71962 0
M  V30 40879 H 3957.95 1.24428 4.21206 0
M  V30 40880 H 3958.56 2.65848 3.31971 0
M  V30 40881 N 3956.87 -1.00501 1.21398 0
M  V30 40882 C 3957.78 -2.12722 0.989258 0
M  V30 40883 C 3958.8 -1.73901 -0.0586341 0
M  V30 40884 O 3959.98 -2.00971 0.131412 0
M  V30 40885 C 3957.04 -3.422 0.556791 0
M  V30 40886 C 3956.1 -3.95195 1.6769 0
M  V30 40887 C 3955.33 -5.18492 1.26497 0
M  V30 40888 O 3955.56 -5.70232 0.13857 0
M  V30 40889 O 3954.49 -5.64933 2.07688 0
M  V30 40890 H 3958.32 -2.34557 1.92917 0
M  V30 40891 H 3955.9 -1.111 0.998857 0
M  V30 40892 H 3957.78 -4.20142 0.325401 0
M  V30 40893 H 3956.46 -3.21754 -0.3544 0
M  V30 40894 H 3955.37 -3.1848 1.96269 0
M  V30 40895 H 3956.7 -4.2005 2.56551 0
M  V30 40896 N 3958.35 -1.02172 -1.19994 0
M  V30 40897 C 3959.26 -0.606176 -2.26633 0
M  V30 40898 C 3960.28 0.358716 -1.70262 0
M  V30 40899 O 3961.45 0.218386 -2.00212 0
M  V30 40900 C 3958.52 0.0438487 -3.46672 0
M  V30 40901 C 3957.58 -0.967636 -4.18253 0
M  V30 40902 C 3956.81 -0.348537 -5.32561 0
M  V30 40903 O 3957.04 0.850409 -5.64025 0
M  V30 40904 O 3955.97 -1.06782 -5.92352 0
M  V30 40905 H 3959.8 -1.49412 -2.64405 0
M  V30 40906 H 3957.38 -0.791505 -1.26711 0
M  V30 40907 H 3959.26 0.40664 -4.19433 0
M  V30 40908 H 3957.94 0.905905 -3.10765 0
M  V30 40909 H 3956.84 -1.38189 -3.47642 0
M  V30 40910 H 3958.18 -1.79983 -4.58113 0
M  V30 40911 N 3959.83 1.35866 -0.798635 0
M  V30 40912 C 3961.05 2.03769 -0.386414 0
M  V30 40913 C 3961.48 1.59808 0.992126 0
M  V30 40914 O 3960.84 0.770924 1.64093 0
M  V30 40915 C 3960.89 3.57538 -0.468921 0
M  V30 40916 O 3959.99 4.091 0.52067 0
M  V30 40917 H 3959.33 0.643781 -0.162608 0
M  V30 40918 H 3961.86 1.73629 -1.08231 0
M  V30 40919 H 3961.87 4.06615 -0.335846 0
M  V30 40920 H 3960.55 3.88885 -1.47448 0
M  V30 40921 H 3959.12 3.71268 0.348493 0
M  V30 40922 N 3961.31 0.551443 1.47638 0
M  V30 40923 C 3962.56 0.0231241 2.01687 0
M  V30 40924 C 3962.87 -1.33262 1.4318 0
M  V30 40925 O 3964.08 -1.95052 1.88857 0
M  V30 40926 C 3962.53 -0.00912393 3.59899 0
M  V30 40927 C 3962.14 1.34303 4.27395 0
M  V30 40928 C 3963.88 -0.485139 4.21719 0
M  V30 40929 C 3961.79 1.2702 5.77598 0
M  V30 40930 H 3960.72 0.00487448 0.753984 0
M  V30 40931 H 3963.37 0.698435 1.69688 0
M  V30 40932 H 3961.75 -0.749962 3.88834 0
M  V30 40933 H 3962.93 2.10112 4.10109 0
M  V30 40934 H 3961.24 1.75651 3.77539 0
M  V30 40935 H 3963.84 -0.557932 5.31781 0
M  V30 40936 H 3964.18 -1.49583 3.88498 0
M  V30 40937 H 3964.72 0.200664 3.97294 0
M  V30 40938 H 3961.45 2.25671 6.15429 0
M  V30 40939 H 3960.97 0.553814 5.97238 0
M  V30 40940 H 3962.65 0.969839 6.3969 0
M  V30 40941 N 3962.79 -1.54953 0.287609 0
M  V30 40942 C 3964.02 -2.03978 -0.328088 0
M  V30 40943 C 3964.42 -1.16497 -1.49081 0
M  V30 40944 O 3963.77 -0.180318 -1.82813 0
M  V30 40945 C 3963.83 -3.49069 -0.859704 0
M  V30 40946 C 3963.49 -4.56661 0.175998 0
M  V30 40947 C 3964.49 -5.10195 0.999849 0
M  V30 40948 C 3962.18 -5.01319 0.313839 0
M  V30 40949 C 3964.17 -6.06916 1.94761 0
M  V30 40950 C 3961.86 -5.97862 1.26506 0
M  V30 40951 C 3962.85 -6.50544 2.08044 0
M  V30 40952 O 3962.54 -7.45198 3.01555 0
M  V30 40953 H 3962.27 -0.671575 -0.0772188 0
M  V30 40954 H 3964.83 -2.01035 0.421186 0
M  V30 40955 H 3963.06 -3.49292 -1.65927 0
M  V30 40956 H 3964.75 -3.81364 -1.38983 0
M  V30 40957 H 3965.51 -4.76498 0.904157 0
M  V30 40958 H 3961.39 -4.59951 -0.310841 0
M  V30 40959 H 3964.94 -6.4796 2.58444 0
M  V30 40960 H 3960.83 -6.30978 1.36152 0
M  V30 40961 H 3961.6 -7.62956 2.9638 0
M  V30 40962 N 3964.26 -0.0150939 -1.57593 0
M  V30 40963 C 3965.2 0.999876 -2.0624 0
M  V30 40964 C 3966.21 1.29762 -0.983135 0
M  V30 40965 O 3967.4 1.26474 -1.25963 0
M  V30 40966 C 3964.5 2.33088 -2.46015 0
M  V30 40967 C 3963.67 2.22034 -3.76855 0
M  V30 40968 C 3962.73 3.37949 -4.03332 0
M  V30 40969 O 3961.76 3.15461 -4.73786 0
M  V30 40970 N 3962.96 4.61291 -3.52407 0
M  V30 40971 H 3965.72 0.5849 -2.93937 0
M  V30 40972 H 3963.28 0.171973 -1.60984 0
M  V30 40973 H 3965.28 3.09434 -2.60831 0
M  V30 40974 H 3963.85 2.66274 -1.63758 0
M  V30 40975 H 3963.07 1.30502 -3.71971 0
M  V30 40976 H 3964.35 2.11837 -4.62604 0
M  V30 40977 H 3963.75 4.82458 -2.95382 0
M  V30 40978 H 3962.31 5.34853 -3.72526 0
M  V30 40979 N 3965.74 1.55476 0.257876 0
M  V30 40980 C 3966.71 1.886 1.30241 0
M  V30 40981 C 3967.71 0.761629 1.41619 0
M  V30 40982 O 3968.9 1.02971 1.40509 0
M  V30 40983 C 3966.03 2.10471 2.68169 0
M  V30 40984 H 3967.22 2.81988 1.02093 0
M  V30 40985 H 3964.77 1.48199 0.496659 0
M  V30 40986 H 3965.51 1.19515 3.01474 0
M  V30 40987 H 3965.29 2.92349 2.61294 0
M  V30 40988 H 3966.78 2.37319 3.43612 0
M  V30 40989 N 3967.22 -0.523064 1.48667 0
M  V30 40990 C 3968.46 -1.28892 1.58639 0
M  V30 40991 C 3968.82 -1.90266 0.257436 0
M  V30 40992 O 3970.03 -2.67795 0.232186 0
M  V30 40993 C 3968.3 -2.34401 2.69798 0
M  V30 40994 S 3969.86 -3.2062 2.9958 0
M  V30 40995 H 3966.67 -0.438343 0.559801 0
M  V30 40996 H 3969.28 -0.595105 1.86222 0
M  V30 40997 H 3967.98 -1.87805 3.64908 0
M  V30 40998 H 3967.51 -3.08481 2.44138 0
M  V30 40999 H 3969.53 -4.34624 2.39408 0
M  V30 41000 N 3968.7 -1.37371 -0.772465 0
M  V30 41001 C 3969.92 -1.35903 -1.56668 0
M  V30 41002 C 3970.35 0.0535207 -1.88024 0
M  V30 41003 O 3969.71 1.03036 -1.49176 0
M  V30 41004 C 3969.75 -2.20389 -2.85414 0
M  V30 41005 O 3968.86 -1.60802 -3.79758 0
M  V30 41006 H 3968.2 -0.464395 -0.474588 0
M  V30 41007 H 3970.73 -1.80885 -0.95613 0
M  V30 41008 H 3970.74 -2.33577 -3.34523 0
M  V30 41009 H 3969.41 -3.23064 -2.6192 0
M  V30 41010 H 3967.99 -1.56651 -3.384 0
M  V30 41011 N 3970.18 0.998553 -1.21929 0
M  V30 41012 C 3971.11 2.10599 -1.00849 0
M  V30 41013 C 3972.09 1.69961 0.0687031 0
M  V30 41014 O 3973.27 1.9398 -0.0924027 0
M  V30 41015 C 3970.4 3.42434 -0.579351 0
M  V30 41016 C 3969.36 3.96895 -1.60183 0
M  V30 41017 C 3968.68 5.24711 -1.02872 0
M  V30 41018 C 3969.98 4.28222 -2.99037 0
M  V30 41019 H 3971.68 2.28492 -1.93473 0
M  V30 41020 H 3969.22 1.09803 -0.931631 0
M  V30 41021 H 3971.18 4.19312 -0.419017 0
M  V30 41022 H 3969.9 3.24352 0.382551 0
M  V30 41023 H 3968.56 3.22143 -1.74984 0
M  V30 41024 H 3968.21 5.02966 -0.0583424 0
M  V30 41025 H 3967.91 5.62114 -1.71176 0
M  V30 41026 H 3969.43 6.04228 -0.879849 0
M  V30 41027 H 3970.84 4.95918 -2.87643 0
M  V30 41028 H 3969.24 4.76784 -3.64413 0
M  V30 41029 H 3970.31 3.3623 -3.49396 0
M  V30 41030 N 3971.65 1.02807 1.1945 0
M  V30 41031 C 3973.07 0.753875 1.70803 0
M  V30 41032 C 3973.42 -0.726551 1.82252 0
M  V30 41033 O 3972.54 -1.56638 1.4931 0
M  V30 41034 C 3973.14 1.36184 3.10225 0
M  V30 41035 C 3971.7 1.13625 3.5884 0
M  V30 41036 C 3970.84 1.4604 2.35728 0
M  V30 41037 H 3973.79 1.1961 1.04303 0
M  V30 41038 H 3973.81 0.758381 3.72866 0
M  V30 41039 H 3973.33 2.43931 3.0186 0
M  V30 41040 H 3971.43 0.0769569 3.72521 0
M  V30 41041 H 3971.54 1.82439 4.43004 0
M  V30 41042 H 3969.9 0.879711 2.39025 0
M  V30 41043 H 3970.69 2.54868 2.29994 0
M  V30 41044 N 3973.13 -1.35441 0.805829 0
M  V30 41045 C 3974.06 -2.28543 0.173366 0
M  V30 41046 C 3975.08 -1.50246 -0.626901 0
M  V30 41047 O 3976.27 -1.72487 -0.459386 0
M  V30 41048 C 3973.37 -3.29876 -0.776866 0
M  V30 41049 C 3972.54 -4.37394 -0.0231304 0
M  V30 41050 C 3971.6 -5.18589 -0.891732 0
M  V30 41051 O 3970.62 -5.68166 -0.342953 0
M  V30 41052 N 3971.83 -5.36625 -2.21391 0
M  V30 41053 H 3974.59 -2.8346 0.973175 0
M  V30 41054 H 3972.15 -1.47782 0.661216 0
M  V30 41055 H 3974.14 -3.81087 -1.36216 0
M  V30 41056 H 3972.71 -2.7548 -1.47748 0
M  V30 41057 H 3971.93 -3.87128 0.743366 0
M  V30 41058 H 3973.22 -5.06373 0.496367 0
M  V30 41059 H 3972.62 -4.97989 -2.68371 0
M  V30 41060 H 3971.18 -5.91019 -2.74846 0
M  V30 41061 N 3974.61 -0.559265 -1.47343 0
M  V30 41062 C 3975.52 0.19036 -2.33826 0
M  V30 41063 C 3976.54 0.90982 -1.48318 0
M  V30 41064 O 3977.71 0.878254 -1.81242 0
M  V30 41065 C 3974.78 1.20585 -3.25054 0
M  V30 41066 C 3973.84 0.493596 -4.26453 0
M  V30 41067 C 3973.07 1.46071 -5.13322 0
M  V30 41068 O 3973.29 2.69568 -5.02682 0
M  V30 41069 O 3972.23 0.984074 -5.93801 0
M  V30 41070 H 3976.05 -0.519098 -2.99231 0
M  V30 41071 H 3973.64 -0.319862 -1.45936 0
M  V30 41072 H 3975.52 1.79198 -3.814 0
M  V30 41073 H 3974.2 1.89719 -2.62275 0
M  V30 41074 H 3973.1 -0.13378 -3.73861 0
M  V30 41075 H 3974.44 -0.156336 -4.91952 0
M  V30 41076 N 3976.09 1.54799 -0.295822 0
M  V30 41077 C 3977.05 2.22008 0.56966 0
M  V30 41078 C 3978.05 1.20447 1.06533 0
M  V30 41079 O 3979.24 1.45216 0.962186 0
M  V30 41080 C 3976.37 2.90237 1.78816 0
M  V30 41081 H 3977.57 2.99895 -0.0174675 0
M  V30 41082 H 3975.12 1.5623 -0.0466087 0
M  V30 41083 H 3975.85 2.16416 2.41526 0
M  V30 41084 H 3975.64 3.64683 1.44044 0
M  V30 41085 H 3977.13 3.41524 2.40315 0
M  V30 41086 N 3977.57 0.0234513 1.57583 0
M  V30 41087 C 3978.98 -0.332888 1.5609 0
M  V30 41088 C 3979.18 -1.73275 1.0285 0
M  V30 41089 O 3978.24 -2.43374 0.672711 0
M  V30 41090 C 3979.55 -0.186672 3.0012 0
M  V30 41091 C 3981.1 -0.259864 3.11919 0
M  V30 41092 C 3981.58 -0.142503 4.57778 0
M  V30 41093 N 3983.07 -0.199666 4.62769 0
M  V30 41094 C 3983.8 -0.132554 5.73247 0
M  V30 41095 N 3983.3 -0.0146819 6.92798 0
M  V30 41096 N 3985.09 -0.186129 5.61792 0
M  V30 41097 H 3977.24 0.93891 1.90521 0
M  V30 41098 H 3979.5 0.362067 0.876134 0
M  V30 41099 H 3979.21 0.777398 3.43001 0
M  V30 41100 H 3979.08 -0.959203 3.648 0
M  V30 41101 H 3981.47 -1.21439 2.68955 0
M  V30 41102 H 3981.55 0.542945 2.49971 0
M  V30 41103 H 3981.2 0.808579 5.01422 0
M  V30 41104 H 3981.13 -0.964103 5.17699 0
M  V30 41105 H 3983.62 -0.291145 3.76777 0
M  V30 41106 H 3983.93 0.0299907 7.72794 0
M  V30 41107 H 3982.28 0.0200215 6.94997 0
M  V30 41108 H 3985.47 -0.276576 4.67282 0
M  V30 41109 H 3985.64 -0.130364 6.47869 0
M  V30 41110 N 3979.05 -1.5561 -0.249627 0
M  V30 41111 C 3980.27 -1.81367 -0.995675 0
M  V30 41112 C 3980.69 -0.598798 -1.79053 0
M  V30 41113 O 3980.05 0.432507 -1.77301 0
M  V30 41114 C 3980.1 -3.05307 -1.93572 0
M  V30 41115 O 3979.82 -4.22104 -1.17304 0
M  V30 41116 C 3981.32 -3.43843 -2.79798 0
M  V30 41117 H 3978.54 -0.603597 -0.293108 0
M  V30 41118 H 3981.08 -2.02665 -0.273338 0
M  V30 41119 H 3979.24 -2.86066 -2.61237 0
M  V30 41120 H 3979.65 -4.92329 -1.80866 0
M  V30 41121 H 3981.13 -4.33674 -3.41512 0
M  V30 41122 H 3981.6 -2.64304 -3.50771 0
M  V30 41123 H 3982.21 -3.65424 -2.1759 0
M  V30 41124 N 3980.52 0.515172 -1.48942 0
M  V30 41125 C 3981.77 1.27205 -1.57946 0
M  V30 41126 C 3982.1 1.92465 -0.259045 0
M  V30 41127 O 3981.38 1.80027 0.736246 0
M  V30 41128 C 3981.66 2.35 -2.7285 0
M  V30 41129 C 3981.51 1.74334 -4.14642 0
M  V30 41130 C 3982.83 3.36667 -2.83449 0
M  V30 41131 H 3979.95 0.461128 -0.574917 0
M  V30 41132 H 3982.59 0.572381 -1.81173 0
M  V30 41133 H 3980.74 2.94677 -2.53175 0
M  V30 41134 H 3982.42 1.18594 -4.45795 0
M  V30 41135 H 3980.66 1.04803 -4.2095 0
M  V30 41136 H 3981.33 2.52454 -4.90888 0
M  V30 41137 H 3983.81 2.86964 -3.01316 0
M  V30 41138 H 3982.68 4.09469 -3.65549 0
M  V30 41139 H 3982.94 3.98128 -1.92215 0
M  V30 41140 N 3982 1.37779 0.765169 0
M  V30 41141 C 3983.25 1.32671 1.51925 0
M  V30 41142 C 3983.56 -0.0843828 1.95418 0
M  V30 41143 O 3984.77 -0.257953 2.70272 0
M  V30 41144 C 3983.23 2.32911 2.74373 0
M  V30 41145 C 3982.83 3.79582 2.37953 0
M  V30 41146 C 3984.58 2.36826 3.52298 0
M  V30 41147 C 3982.48 4.71537 3.56941 0
M  V30 41148 H 3981.41 0.493108 0.570404 0
M  V30 41149 H 3984.07 1.63273 0.837503 0
M  V30 41150 H 3982.45 1.95335 3.44471 0
M  V30 41151 H 3983.62 4.26031 1.75596 0
M  V30 41152 H 3981.94 3.78675 1.73188 0
M  V30 41153 H 3984.53 3.02729 4.40749 0
M  V30 41154 H 3984.88 1.38378 3.92629 0
M  V30 41155 H 3985.41 2.73142 2.89203 0
M  V30 41156 H 3982.15 5.71137 3.21687 0
M  V30 41157 H 3981.67 4.29788 4.18381 0
M  V30 41158 H 3983.35 4.8899 4.23671 0
M  V30 41159 N 3983.48 -0.992073 1.22457 0
M  V30 41160 C 3984.43 -2.0668 0.962681 0
M  V30 41161 C 3985.41 -1.60665 -0.0870006 0
M  V30 41162 O 3986.61 -1.76568 0.123627 0
M  V30 41163 C 3983.73 -3.38975 0.543219 0
M  V30 41164 C 3982.82 -3.91622 1.62767 0
M  V30 41165 N 3983.21 -4.17483 2.85555 0
M  V30 41166 C 3981.51 -4.20035 1.49955 0
M  V30 41167 C 3982.21 -4.60286 3.55685 0
M  V30 41168 N 3981.19 -4.64027 2.8316 0
M  V30 41169 H 3984.99 -2.24616 1.89538 0
M  V30 41170 H 3982.5 -1.17388 1.12222 0
M  V30 41171 H 3984.5 -4.15536 0.336914 0
M  V30 41172 H 3983.16 -3.22438 -0.382572 0
M  V30 41173 H 3984.17 -4.05651 3.21975 0
M  V30 41174 H 3980.85 -4.12565 0.640009 0
M  V30 41175 H 3982.24 -4.8891 4.60887 0
M  V30 41176 N 3984.96 -1.03439 -1.18904 0
M  V30 41177 C 3986.18 -0.753776 -1.93217 0
M  V30 41178 C 3986.61 0.682024 -1.753 0
M  V30 41179 O 3985.97 1.4716 -1.05895 0
M  V30 41180 C 3986.01 -1.11706 -3.42862 0
M  V30 41181 O 3985.12 -0.238888 -4.11708 0
M  V30 41182 H 3984.46 -0.277984 -0.60301 0
M  V30 41183 H 3986.99 -1.38255 -1.5082 0
M  V30 41184 H 3987 -1.0763 -3.93548 0
M  V30 41185 H 3985.67 -2.16306 -3.55224 0
M  V30 41186 H 3984.25 -0.338718 -3.71358 0
M  V30 41187 N 3986.44 1.35011 -0.813001 0
M  V30 41188 C 3987.37 2.32238 -0.242437 0
M  V30 41189 C 3988.35 1.57777 0.635648 0
M  V30 41190 O 3989.53 1.85812 0.564589 0
M  V30 41191 C 3986.66 3.41996 0.604626 0
M  V30 41192 C 3985.62 4.2764 -0.175495 0
M  V30 41193 C 3984.94 5.28777 0.793679 0
M  V30 41194 C 3986.24 5.03791 -1.37811 0
M  V30 41195 H 3987.94 2.80206 -1.05475 0
M  V30 41196 H 3985.48 1.34718 -0.508643 0
M  V30 41197 H 3987.43 4.09021 1.01389 0
M  V30 41198 H 3986.16 2.92653 1.44989 0
M  V30 41199 H 3984.82 3.62204 -0.566012 0
M  V30 41200 H 3984.47 4.75699 1.63462 0
M  V30 41201 H 3984.17 5.86952 0.275982 0
M  V30 41202 H 3985.69 5.98672 1.20101 0
M  V30 41203 H 3987.1 5.63726 -1.04338 0
M  V30 41204 H 3985.5 5.71493 -1.83074 0
M  V30 41205 H 3986.57 4.34061 -2.16146 0
M  V30 41206 N 3987.91 0.567071 1.47044 0
M  V30 41207 C 3989.14 0.0518673 2.06835 0
M  V30 41208 C 3989.56 -1.24624 1.41825 0
M  V30 41209 O 3988.91 -1.7499 0.518133 0
M  V30 41210 C 3988.96 -0.137079 3.6124 0
M  V30 41211 O 3988.69 1.10963 4.23815 0
M  V30 41212 C 3990.19 -0.688434 4.37922 0
M  V30 41213 H 3987.41 0.0503256 0.66911 0
M  V30 41214 H 3989.95 0.783291 1.88904 0
M  V30 41215 H 3988.11 -0.818666 3.78651 0
M  V30 41216 H 3988.52 0.913566 5.16483 0
M  V30 41217 H 3989.99 -0.769888 5.46605 0
M  V30 41218 H 3990.47 -1.70194 4.04883 0
M  V30 41219 H 3991.08 -0.0422256 4.25279 0
M  V30 41220 N 3989.39 -1.5464 0.304027 0
M  V30 41221 C 3990.3 -2.27314 -0.580119 0
M  V30 41222 C 3991.32 -1.30944 -1.14585 0
M  V30 41223 O 3992.49 -1.6393 -1.17 0
M  V30 41224 C 3989.56 -3.00204 -1.73432 0
M  V30 41225 C 3988.62 -4.12119 -1.20236 0
M  V30 41226 C 3987.85 -4.81523 -2.30155 0
M  V30 41227 O 3988.08 -4.50306 -3.50115 0
M  V30 41228 O 3987.01 -5.6886 -1.96676 0
M  V30 41229 H 3990.84 -3.03699 0.0094989 0
M  V30 41230 H 3988.42 -1.49234 0.0703828 0
M  V30 41231 H 3990.3 -3.45913 -2.40671 0
M  V30 41232 H 3988.98 -2.26712 -2.31049 0
M  V30 41233 H 3987.88 -3.70802 -0.495614 0
M  V30 41234 H 3989.22 -4.87597 -0.671584 0
M  V30 41235 N 3990.87 -0.0318079 -1.57568 0
M  V30 41236 C 3992.29 0.324606 -1.56264 0
M  V30 41237 C 3992.49 1.72727 -1.03768 0
M  V30 41238 O 3991.54 2.43014 -0.685608 0
M  V30 41239 C 3992.85 0.170754 -3.00215 0
M  V30 41240 C 3994.4 0.243318 -3.12053 0
M  V30 41241 C 3994.88 0.118224 -4.57847 0
M  V30 41242 N 3996.37 0.175122 -4.62869 0
M  V30 41243 C 3997.1 0.102151 -5.73309 0
M  V30 41244 N 3996.6 -0.0220591 -6.92796 0
M  V30 41245 N 3998.39 0.156333 -5.61883 0
M  V30 41246 H 3990.54 -0.949001 -1.9002 0
M  V30 41247 H 3992.81 -0.366708 -0.874202 0
M  V30 41248 H 3992.51 -0.795577 -3.42584 0
M  V30 41249 H 3992.39 0.939843 -3.65304 0
M  V30 41250 H 3994.77 1.20011 -2.69595 0
M  V30 41251 H 3994.85 -0.556194 -2.4968 0
M  V30 41252 H 3994.5 -0.83516 -5.00987 0
M  V30 41253 H 3994.43 0.936635 -5.18203 0
M  V30 41254 H 3996.92 0.271159 -3.76926 0
M  V30 41255 H 3997.23 -0.0709734 -7.72767 0
M  V30 41256 H 3995.58 -0.0568786 -6.94977 0
M  V30 41257 H 3998.77 0.251791 -4.67422 0
M  V30 41258 H 3998.94 0.0960038 -6.47929 0
M  V30 41259 N 3992.35 1.55741 0.241371 0
M  V30 41260 C 3993.28 1.93796 1.30252 0
M  V30 41261 C 3994.26 0.80359 1.49921 0
M  V30 41262 O 3995.44 1.06432 1.62437 0
M  V30 41263 C 3992.57 2.23747 2.65621 0
M  V30 41264 C 3991.53 3.39487 2.60639 0
M  V30 41265 C 3990.85 3.54993 3.99855 0
M  V30 41266 C 3992.15 4.75023 2.17143 0
M  V30 41267 H 3993.85 2.82682 0.986482 0
M  V30 41268 H 3991.39 1.36006 0.473101 0
M  V30 41269 H 3993.35 2.48959 3.39996 0
M  V30 41270 H 3992.07 1.31693 2.98872 0
M  V30 41271 H 3990.73 3.14293 1.88721 0
M  V30 41272 H 3990.38 2.6035 4.3038 0
M  V30 41273 H 3990.08 4.32829 3.97408 0
M  V30 41274 H 3991.6 3.82532 4.75922 0
M  V30 41275 H 3993.02 4.9957 2.81252 0
M  V30 41276 H 3991.41 5.56 2.25795 0
M  V30 41277 H 3992.48 4.71712 1.12321 0
M  V30 41278 N 3993.83 -0.507266 1.49213 0
M  V30 41279 C 3995.06 -1.2841 1.61847 0
M  V30 41280 C 3995.46 -1.87016 0.286652 0
M  V30 41281 O 3994.81 -1.68262 -0.73714 0
M  V30 41282 C 3994.87 -2.45759 2.62379 0
M  V30 41283 C 3994.53 -2.0807 4.06886 0
M  V30 41284 C 3995.53 -1.62409 4.93882 0
M  V30 41285 C 3993.22 -2.17897 4.52578 0
M  V30 41286 C 3995.21 -1.27071 6.24605 0
M  V30 41287 C 3992.9 -1.8217 5.83316 0
M  V30 41288 C 3993.89 -1.36831 6.69153 0
M  V30 41289 O 3993.58 -1.01584 7.97456 0
M  V30 41290 H 3993.31 -0.395911 0.547933 0
M  V30 41291 H 3995.87 -0.616221 1.95938 0
M  V30 41292 H 3994.1 -3.15602 2.23455 0
M  V30 41293 H 3995.79 -3.07794 2.64608 0
M  V30 41294 H 3996.55 -1.54269 4.59811 0
M  V30 41295 H 3992.43 -2.52139 3.85937 0
M  V30 41296 H 3995.98 -0.916108 6.91559 0
M  V30 41297 H 3991.87 -1.89958 6.16917 0
M  V30 41298 H 3992.64 -1.14786 8.10411 0
M  V30 41299 N 3995.3 -1.38182 -0.757851 0
M  V30 41300 C 3996.55 -1.34355 -1.5191 0
M  V30 41301 C 3996.88 0.0676662 -1.94082 0
M  V30 41302 O 3996.16 1.02796 -1.65116 0
M  V30 41303 C 3996.44 -2.29536 -2.77462 0
M  V30 41304 C 3996.29 -3.79499 -2.41455 0
M  V30 41305 C 3997.61 -2.22922 -3.79465 0
M  V30 41306 H 3994.73 -0.489365 -0.551082 0
M  V30 41307 H 3997.37 -1.68996 -0.868346 0
M  V30 41308 H 3995.52 -2.00125 -3.3299 0
M  V30 41309 H 3997.2 -4.19566 -1.91735 0
M  V30 41310 H 3995.44 -3.97388 -1.73969 0
M  V30 41311 H 3996.11 -4.41552 -3.31264 0
M  V30 41312 H 3998.59 -2.48876 -3.33466 0
M  V30 41313 H 3997.46 -2.91638 -4.65015 0
M  V30 41314 H 3997.72 -1.22665 -4.24742 0
M  V30 41315 N 3996.78 0.985565 -1.22981 0
M  V30 41316 C 3998.03 1.72273 -1.05671 0
M  V30 41317 C 3998.35 1.90684 0.408012 0
M  V30 41318 O 3997.62 1.47176 1.2929 0
M  V30 41319 H 3996.2 0.638313 -0.388028 0
M  V30 41320 H 3998.86 1.18662 -1.54614 0
M  V30 41321 H 3997.96 2.71433 -1.54048 0
M  V30 41322 N 3998.26 1.04068 1.18353 0
M  V30 41323 C 3999.51 0.742609 1.87962 0
M  V30 41324 C 3999.83 -0.731867 1.80745 0
M  V30 41325 O 3999.1 -1.52811 1.22579 0
M  V30 41326 H 3997.68 0.271701 0.695836 0
M  V30 41327 H 4000.34 1.31744 1.4363 0
M  V30 41328 H 3999.44 1.04747 2.93998 0
M  V30 41329 N 3999.74 -1.34578 0.820149 0
M  V30 41330 C 4001.15 -1.80788 0.466096 0
M  V30 41331 C 4001.5 -1.68011 -1.01324 0
M  V30 41332 O 4000.63 -1.21852 -1.78833 0
M  V30 41333 C 4001.22 -3.28241 0.83925 0
M  V30 41334 C 3999.78 -3.72541 0.537605 0
M  V30 41335 C 3998.93 -2.56338 1.05764 0
M  V30 41336 H 4001.88 -1.22365 1.01057 0
M  V30 41337 H 4001.9 -3.80235 0.141963 0
M  V30 41338 H 4001.41 -3.37508 1.91598 0
M  V30 41339 H 3999.51 -3.68814 -0.52983 0
M  V30 41340 H 3999.62 -4.66775 1.07973 0
M  V30 41341 H 3997.99 -2.50149 0.479319 0
M  V30 41342 H 3998.77 -2.68377 2.14076 0
M  V30 41343 N 4001.22 -0.574861 -1.46742 0
M  V30 41344 C 4002.15 0.211069 -2.27222 0
M  V30 41345 C 4003.13 0.904137 -1.35145 0
M  V30 41346 O 4004.31 0.919598 -1.64547 0
M  V30 41347 C 4001.44 1.30217 -3.12668 0
M  V30 41348 C 4000.48 0.715784 -4.20451 0
M  V30 41349 S 4001.32 -0.45129 -5.33595 0
M  V30 41350 C 4002.47 0.641205 -6.22607 0
M  V30 41351 H 4002.71 -0.471818 -2.93532 0
M  V30 41352 H 4000.24 -0.361573 -1.50107 0
M  V30 41353 H 4002.2 1.92694 -3.62463 0
M  V30 41354 H 4000.86 1.95697 -2.45685 0
M  V30 41355 H 4000.05 1.5357 -4.80034 0
M  V30 41356 H 3999.65 0.166843 -3.73628 0
M  V30 41357 H 4001.95 1.52888 -6.60024 0
M  V30 41358 H 4002.89 0.0823171 -7.08052 0
M  V30 41359 H 4003.3 0.94182 -5.56588 0
M  V30 41360 N 4002.69 1.54476 -0.312224 0
M  V30 41361 C 4003.92 2.04771 0.296025 0
M  V30 41362 C 4004.34 1.18896 1.4666 0
M  V30 41363 O 4003.69 0.217075 1.81204 0
M  V30 41364 C 4003.75 3.53815 0.741448 0
M  V30 41365 O 4003.47 4.36427 -0.382547 0
M  V30 41366 C 4004.97 4.20155 1.41369 0
M  V30 41367 H 4002.19 0.668065 0.0626932 0
M  V30 41368 H 4004.73 1.99371 -0.455118 0
M  V30 41369 H 4002.89 3.59539 1.44259 0
M  V30 41370 H 4003.3 5.24489 -0.0337304 0
M  V30 41371 H 4004.77 5.25929 1.6764 0
M  V30 41372 H 4005.25 3.70574 2.35736 0
M  V30 41373 H 4005.86 4.18537 0.755424 0
M  V30 41374 N 4004.17 0.0401637 1.57549 0
M  V30 41375 C 4005.12 -0.955905 2.1205 0
M  V30 41376 C 4006.11 -1.3296 1.04967 0
M  V30 41377 O 4007.32 -1.31054 1.23389 0
M  V30 41378 H 4003.7 -0.326087 0.677622 0
M  V30 41379 H 4005.67 -0.471024 2.94659 0
M  V30 41380 C 4004.42 -2.22532 2.67161 0
M  V30 41381 H 4003.74 -1.94654 3.49213 0
M  V30 41382 H 4005.18 -2.90412 3.08929 0
M  V30 41383 C 4003.64 -2.96256 1.60419 0
M  V30 41384 O 4004.17 -3.88783 1.01049 0
M  V30 41385 N 4002.37 -2.58789 1.322 0
M  V30 41386 H 4001.92 -1.83623 1.80667 0
M  V30 41387 H 4001.88 -3.08424 0.610077 0
M  V30 41388 N 4005.65 -1.55866 -0.233109 0
M  V30 41389 C 4006.88 -1.82756 -0.98057 0
M  V30 41390 C 4007.3 -0.619019 -1.77623 0
M  V30 41391 O 4006.66 0.432117 -1.76075 0
M  V30 41392 C 4006.71 -3.07523 -1.88314 0
M  V30 41393 O 4005.81 -2.85406 -2.97687 0
M  V30 41394 H 4005.15 -0.602872 -0.278284 0
M  V30 41395 H 4007.68 -2.03068 -0.24992 0
M  V30 41396 H 4007.69 -3.37322 -2.29517 0
M  V30 41397 H 4006.37 -3.95119 -1.29824 0
M  V30 41398 H 4004.94 -2.6681 -2.60513 0
M  V30 41399 N 4007.13 0.499346 -1.4948 0
M  V30 41400 C 4008.08 1.6007 -1.66271 0
M  V30 41401 C 4009.05 1.58264 -0.504165 0
M  V30 41402 O 4010.23 1.76225 -0.731389 0
M  V30 41403 C 4007.37 2.98208 -1.73684 0
M  V30 41404 C 4006.48 3.10018 -3.00853 0
M  V30 41405 C 4005.62 4.38899 -2.99235 0
M  V30 41406 C 4004.66 4.44348 -4.20977 0
M  V30 41407 N 4003.8 5.64659 -4.17259 0
M  V30 41408 H 4008.64 1.45061 -2.6031 0
M  V30 41409 H 4006.17 0.705751 -1.29064 0
M  V30 41410 H 4008.13 3.78276 -1.75962 0
M  V30 41411 H 4006.76 3.11918 -0.831092 0
M  V30 41412 H 4005.81 2.23003 -3.08178 0
M  V30 41413 H 4007.12 3.09904 -3.90846 0
M  V30 41414 H 4006.28 5.27289 -3.00085 0
M  V30 41415 H 4005.02 4.4158 -2.07023 0
M  V30 41416 H 4004.02 3.54359 -4.20369 0
M  V30 41417 H 4005.25 4.43381 -5.14383 0
M  V30 41418 H 4003.19 5.68179 -3.27885 0
M  V30 41419 H 4003.11 5.66168 -5.00989 0
M  V30 41420 H 4004.38 6.55252 -4.22215 0
M  V30 41421 N 4008.61 1.38582 0.750513 0
M  V30 41422 C 4009.86 1.34692 1.50673 0
M  V30 41423 C 4010.18 -0.0615072 1.94903 0
M  V30 41424 O 4009.45 -1.00979 1.67869 0
M  V30 41425 H 4008.03 0.495615 0.558905 0
M  V30 41426 H 4010.69 1.73293 0.891948 0
M  V30 41427 H 4009.78 1.99973 2.39619 0
M  V30 41428 N 4010.09 -0.979029 1.23502 0
M  V30 41429 C 4011.02 -2.07417 0.975235 0
M  V30 41430 C 4012.03 -1.62719 -0.0512589 0
M  V30 41431 O 4013.22 -1.77545 0.184434 0
M  V30 41432 C 4010.32 -3.35929 0.44776 0
M  V30 41433 C 4009.49 -4.09591 1.53474 0
M  V30 41434 C 4008.55 -5.16379 1.0119 0
M  V30 41435 O 4007.58 -5.43184 1.70117 0
M  V30 41436 N 4008.78 -5.80281 -0.159565 0
M  V30 41437 H 4011.54 -2.3028 1.9181 0
M  V30 41438 H 4009.11 -1.14582 1.14379 0
M  V30 41439 H 4011.1 -4.04615 0.0829939 0
M  V30 41440 H 4009.67 -3.10023 -0.400559 0
M  V30 41441 H 4008.89 -3.3534 2.07221 0
M  V30 41442 H 4010.18 -4.5557 2.26568 0
M  V30 41443 H 4009.57 -5.6089 -0.736095 0
M  V30 41444 H 4008.13 -6.50135 -0.465582 0
M  V30 41445 N 4011.56 -1.04695 -1.178 0
M  V30 41446 C 4012.79 -0.774227 -1.92407 0
M  V30 41447 C 4013.21 0.663393 -1.76013 0
M  V30 41448 O 4012.57 1.46028 -1.0745 0
M  V30 41449 C 4012.62 -1.15336 -3.41658 0
M  V30 41450 O 4011.72 -0.282542 -4.11431 0
M  V30 41451 H 4011.06 -0.284364 -0.600028 0
M  V30 41452 H 4013.59 -1.39847 -1.49345 0
M  V30 41453 H 4013.6 -1.11798 -3.92384 0
M  V30 41454 H 4012.28 -2.20062 -3.5291 0
M  V30 41455 H 4010.86 -0.378086 -3.70978 0
M  V30 41456 N 4013.04 1.34141 -0.827275 0
M  V30 41457 C 4014.28 1.99968 -0.423336 0
M  V30 41458 C 4014.65 1.64147 0.995984 0
M  V30 41459 O 4015.85 2.2285 1.50304 0
M  V30 41460 C 4014.12 3.51903 -0.62445 0
M  V30 41461 S 4015.68 4.37675 -0.314007 0
M  V30 41462 H 4012.49 0.69282 -0.159752 0
M  V30 41463 H 4015.1 1.63354 -1.07404 0
M  V30 41464 H 4013.8 3.75461 -1.65703 0
M  V30 41465 H 4013.33 3.93379 0.0408278 0
M  V30 41466 H 4015.35 4.88502 0.870659 0
M  V30 41467 N 4014.52 0.582635 1.46435 0
M  V30 41468 C 4015.77 0.0680503 2.01985 0
M  V30 41469 C 4016.09 -1.2965 1.45657 0
M  V30 41470 O 4015.36 -1.85108 0.641235 0
M  V30 41471 H 4013.94 0.0221662 0.746671 0
M  V30 41472 H 4016.6 0.758398 1.79539 0
M  V30 41473 H 4015.7 -0.00100515 3.121 0
M  V30 41474 N 4016 -1.54309 0.320412 0
M  V30 41475 C 4017.23 -2.04628 -0.284748 0
M  V30 41476 C 4017.64 -1.19633 -1.46576 0
M  V30 41477 O 4016.98 -0.219055 -1.82389 0
M  V30 41478 C 4017.04 -3.50814 -0.785468 0
M  V30 41479 C 4016.7 -4.56185 0.272823 0
M  V30 41480 C 4017.7 -5.07959 1.10784 0
M  V30 41481 C 4015.39 -5.0054 0.420106 0
M  V30 41482 C 4017.38 -6.02648 2.0759 0
M  V30 41483 C 4015.07 -5.95045 1.39159 0
M  V30 41484 C 4016.07 -6.45984 2.21796 0
M  V30 41485 O 4015.75 -7.38634 3.17294 0
M  V30 41486 H 4015.49 -0.673062 -0.0629563 0
M  V30 41487 H 4018.04 -2.00097 0.463733 0
M  V30 41488 H 4016.27 -3.52733 -1.58481 0
M  V30 41489 H 4017.96 -3.84226 -1.30863 0
M  V30 41490 H 4018.72 -4.74473 1.00503 0
M  V30 41491 H 4014.6 -4.60507 -0.213209 0
M  V30 41492 H 4018.15 -6.42333 2.7213 0
M  V30 41493 H 4014.04 -6.27948 1.49505 0
M  V30 41494 H 4014.81 -7.56497 3.12497 0
M  V30 41495 N 4017.48 -0.0485183 -1.57525 0
M  V30 41496 C 4018.89 0.308013 -1.566 0
M  V30 41497 C 4019.09 1.71616 -1.05594 0
M  V30 41498 O 4018.15 2.42273 -0.711345 0
M  V30 41499 C 4019.46 0.138902 -3.00379 0
M  V30 41500 C 4021.01 0.210207 -3.12293 0
M  V30 41501 C 4021.48 0.0696564 -4.57947 0
M  V30 41502 N 4022.97 0.126018 -4.63029 0
M  V30 41503 C 4023.71 0.0413384 -5.73385 0
M  V30 41504 N 4023.21 -0.0955382 -6.92734 0
M  V30 41505 N 4025 0.0967293 -5.62017 0
M  V30 41506 H 4017.15 -0.969102 -1.89003 0
M  V30 41507 H 4019.41 -0.37596 -0.870263 0
M  V30 41508 H 4019.12 -0.831868 -3.4172 0
M  V30 41509 H 4018.99 0.901045 -3.6628 0
M  V30 41510 H 4021.38 1.17145 -2.70853 0
M  V30 41511 H 4021.46 -0.582645 -2.49076 0
M  V30 41512 H 4021.1 -0.888249 -5.00073 0
M  V30 41513 H 4021.03 0.881619 -5.19168 0
M  V30 41514 H 4023.53 0.231166 -3.77192 0
M  V30 41515 H 4023.84 -0.152932 -7.72649 0
M  V30 41516 H 4022.18 -0.130587 -6.94877 0
M  V30 41517 H 4025.37 0.2022 -4.67663 0
M  V30 41518 H 4025.55 0.0272769 -6.47994 0
M  V30 41519 N 4018.95 1.55988 0.224839 0
M  V30 41520 C 4020.37 1.48906 0.574389 0
M  V30 41521 C 4020.57 0.742993 1.87302 0
M  V30 41522 O 4019.63 0.281314 2.50928 0
M  V30 41523 C 4020.94 2.93442 0.656666 0
M  V30 41524 C 4022.49 3.03943 0.747514 0
M  V30 41525 C 4022.96 4.49831 0.861164 0
M  V30 41526 N 4024.45 4.5386 0.92547 0
M  V30 41527 C 4025.19 5.64017 1.03306 0
M  V30 41528 N 4024.68 6.83934 1.1048 0
M  V30 41529 N 4026.48 5.51862 1.06794 0
M  V30 41530 H 4018.63 2.02923 -0.627374 0
M  V30 41531 H 4020.89 0.922198 -0.219672 0
M  V30 41532 H 4020.6 3.50961 -0.227907 0
M  V30 41533 H 4020.47 3.45159 1.52136 0
M  V30 41534 H 4022.86 2.46491 1.62253 0
M  V30 41535 H 4022.94 2.55401 -0.142782 0
M  V30 41536 H 4022.58 5.07899 -0.0093805 0
M  V30 41537 H 4022.51 4.96075 1.76683 0
M  V30 41538 H 4025 3.675 0.880476 0
M  V30 41539 H 4025.32 7.63636 1.18658 0
M  V30 41540 H 4023.66 6.86652 1.07399 0
M  V30 41541 H 4026.85 4.57107 1.00852 0
M  V30 41542 H 4027.03 6.37744 1.14833 0
M  V30 41543 N 4020.43 -0.491412 1.49743 0
M  V30 41544 C 4021.67 -1.25498 1.61337 0
M  V30 41545 C 4022.04 -1.89677 0.297737 0
M  V30 41546 O 4023.24 -2.67243 0.288937 0
M  V30 41547 C 4021.51 -2.28626 2.74709 0
M  V30 41548 S 4023.07 -3.14193 3.06313 0
M  V30 41549 H 4019.88 -0.42637 0.568972 0
M  V30 41550 H 4022.49 -0.55547 1.87443 0
M  V30 41551 H 4021.19 -1.80022 3.68809 0
M  V30 41552 H 4020.72 -3.03233 2.50626 0
M  V30 41553 H 4022.74 -4.29448 2.48573 0
M  V30 41554 N 4021.91 -1.38978 -0.743153 0
M  V30 41555 C 4023.33 -1.20404 -1.04762 0
M  V30 41556 C 4023.53 -0.0599493 -2.01411 0
M  V30 41557 O 4022.58 0.590983 -2.45487 0
M  V30 41558 C 4023.9 -2.53477 -1.61771 0
M  V30 41559 C 4025.44 -2.60251 -1.73891 0
M  V30 41560 C 4025.92 -3.93526 -2.34311 0
M  V30 41561 N 4027.41 -3.95121 -2.4173 0
M  V30 41562 C 4028.14 -4.95012 -2.89398 0
M  V30 41563 N 4027.64 -6.05299 -3.37024 0
M  V30 41564 N 4029.43 -4.82395 -2.88533 0
M  V30 41565 H 4021.58 -2.12155 -0.101999 0
M  V30 41566 H 4023.85 -0.941842 -0.107876 0
M  V30 41567 H 4023.55 -3.37706 -0.982215 0
M  V30 41568 H 4023.43 -2.72617 -2.60691 0
M  V30 41569 H 4025.81 -1.76411 -2.36565 0
M  V30 41570 H 4025.9 -2.44969 -0.736466 0
M  V30 41571 H 4025.54 -4.77793 -1.72267 0
M  V30 41572 H 4025.47 -4.06125 -3.35217 0
M  V30 41573 H 4027.96 -3.15468 -2.08058 0
M  V30 41574 H 4028.27 -6.77438 -3.71883 0
M  V30 41575 H 4026.62 -6.08904 -3.35054 0
M  V30 41576 H 4029.81 -3.95342 -2.50644 0
M  V30 41577 H 4029.98 -5.60392 -3.25369 0
M  V30 41578 N 4023.39 0.972465 -1.2402 0
M  V30 41579 C 4024.35 2.0478 -1.02945 0
M  V30 41580 C 4025.35 1.60796 0.0115578 0
M  V30 41581 O 4026.54 1.72689 -0.228953 0
M  V30 41582 C 4023.67 3.36281 -0.559305 0
M  V30 41583 H 4024.87 2.2491 -1.98383 0
M  V30 41584 H 4022.42 1.14702 -1.06175 0
M  V30 41585 H 4023.15 3.21842 0.398488 0
M  V30 41586 H 4022.94 3.69548 -1.3106 0
M  V30 41587 H 4024.43 4.15352 -0.432742 0
M  V30 41588 N 4024.87 1.05318 1.17243 0
M  V30 41589 C 4026.09 0.78442 1.91994 0
M  V30 41590 C 4026.52 -0.654049 1.76363 0
M  V30 41591 O 4025.87 -1.45456 1.08223 0
M  V30 41592 C 4025.92 1.17146 3.41041 0
M  V30 41593 O 4025.03 0.304357 4.11275 0
M  V30 41594 H 4024.37 0.287542 0.598511 0
M  V30 41595 H 4026.9 1.40637 1.48602 0
M  V30 41596 H 4026.91 1.13877 3.91786 0
M  V30 41597 H 4025.58 2.2193 3.51738 0
M  V30 41598 H 4024.16 0.397755 3.70773 0
M  V30 41599 N 4026.34 -1.33701 0.834377 0
M  V30 41600 C 4027.59 -1.97536 0.427077 0
M  V30 41601 C 4027.91 -1.66438 -1.01604 0
M  V30 41602 O 4027.18 -0.960988 -1.7071 0
M  V30 41603 H 4025.76 -0.730756 0.154934 0
M  V30 41604 H 4028.43 -1.63141 1.06635 0
M  V30 41605 H 4027.52 -3.07118 0.55545 0
M  V30 41606 N 4027.82 -0.590393 -1.46124 0
M  V30 41607 C 4029.07 -0.0790339 -2.02646 0
M  V30 41608 C 4029.4 1.28055 -1.45998 0
M  V30 41609 O 4028.68 1.84082 -0.628014 0
M  V30 41610 C 4028.96 -0.0215382 -3.60094 0
M  V30 41611 C 4028.81 -1.41057 -4.2711 0
M  V30 41612 C 4030.13 0.67516 -4.3489 0
M  V30 41613 H 4027.25 -0.0301947 -0.736381 0
M  V30 41614 H 4029.89 -0.759067 -1.74179 0
M  V30 41615 H 4028.04 0.557581 -3.84478 0
M  V30 41616 H 4029.71 -2.03545 -4.13965 0
M  V30 41617 H 4027.96 -1.97614 -3.86175 0
M  V30 41618 H 4028.63 -1.32274 -5.35918 0
M  V30 41619 H 4031.1 0.183103 -4.15697 0
M  V30 41620 H 4029.98 0.684442 -5.44616 0
M  V30 41621 H 4030.24 1.73797 -4.06506 0
M  V30 41622 N 4029.3 1.54136 -0.328591 0
M  V30 41623 C 4030.55 2.00659 0.27247 0
M  V30 41624 C 4030.88 1.21669 1.51746 0
M  V30 41625 O 4030.13 0.288258 1.93565 0
M  V30 41626 C 4030.43 3.51499 0.646751 0
M  V30 41627 C 4030.1 4.48123 -0.49964 0
M  V30 41628 C 4028.76 4.7426 -0.814283 0
M  V30 41629 C 4031.11 5.05504 -1.26945 0
M  V30 41630 C 4028.44 5.55036 -1.90137 0
M  V30 41631 C 4030.79 5.87464 -2.34666 0
M  V30 41632 C 4029.45 6.11902 -2.66707 0
M  V30 41633 H 4028.72 0.734262 0.0997039 0
M  V30 41634 H 4031.37 1.86055 -0.45341 0
M  V30 41635 H 4029.68 3.63856 1.45313 0
M  V30 41636 H 4031.37 3.84941 1.12345 0
M  V30 41637 H 4027.96 4.27903 -0.24433 0
M  V30 41638 H 4032.15 4.85289 -1.03962 0
M  V30 41639 H 4027.4 5.72199 -2.15402 0
M  V30 41640 H 4031.58 6.30945 -2.94756 0
M  V30 41641 H 4029.2 6.7428 -3.5107 0
M  V30 41642 N 4030.78 0.0568716 1.57497 0
M  V30 41643 C 4032.01 -0.625067 1.97232 0
M  V30 41644 C 4032.42 -1.64042 0.934651 0
M  V30 41645 O 4031.78 -1.82322 -0.0804743 0
M  V30 41646 C 4031.83 -1.30692 3.37049 0
M  V30 41647 O 4031.55 -0.332226 4.36838 0
M  V30 41648 C 4033.05 -2.07809 3.91574 0
M  V30 41649 H 4030.27 -0.170494 0.648978 0
M  V30 41650 H 4032.82 0.124859 2.04118 0
M  V30 41651 H 4030.97 -2.00804 3.31295 0
M  V30 41652 H 4031.38 -0.8196 5.18057 0
M  V30 41653 H 4032.86 -2.50931 4.91668 0
M  V30 41654 H 4033.34 -2.92858 3.27308 0
M  V30 41655 H 4033.94 -1.42596 4.00682 0
M  V30 41656 N 4032.26 -1.56105 -0.216564 0
M  V30 41657 C 4033.48 -1.83438 -0.95698 0
M  V30 41658 C 4033.9 -0.636643 -1.77742 0
M  V30 41659 O 4033.26 0.394802 -1.78178 0
M  V30 41660 C 4033.31 -3.09344 -1.87052 0
M  V30 41661 O 4033.03 -4.24497 -1.08324 0
M  V30 41662 C 4034.53 -3.497 -2.72442 0
M  V30 41663 H 4031.75 -0.609678 -0.280239 0
M  V30 41664 H 4034.29 -2.03199 -0.230288 0
M  V30 41665 H 4032.45 -2.91543 -2.5511 0
M  V30 41666 H 4032.86 -4.96055 -1.70382 0
M  V30 41667 H 4034.34 -4.40821 -3.32236 0
M  V30 41668 H 4034.81 -2.71685 -3.45086 0
M  V30 41669 H 4035.42 -3.69957 -2.0979 0
M  V30 41670 N 4033.73 0.483463 -1.50001 0
M  V30 41671 C 4034.96 1.2647 -1.64378 0
M  V30 41672 C 4035.38 1.85324 -0.321944 0
M  V30 41673 O 4034.74 1.66705 0.712685 0
M  V30 41674 C 4034.79 2.35814 -2.72808 0
M  V30 41675 O 4033.89 3.40135 -2.332 0
M  V30 41676 H 4033.24 0.372614 -0.549595 0
M  V30 41677 H 4035.77 0.576806 -1.96301 0
M  V30 41678 H 4035.78 2.81315 -2.9551 0
M  V30 41679 H 4034.45 1.92347 -3.68749 0
M  V30 41680 H 4033.03 3.00432 -2.20896 0
M  V30 41681 N 4035.21 1.39371 0.735772 0
M  V30 41682 C 4036.15 1.32417 1.85852 0
M  V30 41683 C 4037.12 0.197976 1.6139 0
M  V30 41684 O 4038.31 0.378295 1.84665 0
M  V30 41685 C 4035.43 1.05598 3.21818 0
M  V30 41686 C 4034.48 2.20397 3.6514 0
M  V30 41687 S 4035.31 3.82671 3.74597 0
M  V30 41688 C 4036.47 3.58075 5.13355 0
M  V30 41689 H 4036.7 2.27438 1.91466 0
M  V30 41690 H 4034.24 1.25417 0.900555 0
M  V30 41691 H 4036.19 0.908084 4.0033 0
M  V30 41692 H 4034.85 0.122654 3.1386 0
M  V30 41693 H 4034.05 1.97222 4.6381 0
M  V30 41694 H 4033.65 2.31386 2.93831 0
M  V30 41695 H 4035.94 3.15292 5.99664 0
M  V30 41696 H 4036.88 4.56203 5.41558 0
M  V30 41697 H 4037.29 2.92193 4.82994 0
M  V30 41698 N 4036.69 -0.965875 1.24534 0
M  V30 41699 C 4037.94 -1.70571 1.08398 0
M  V30 41700 C 4038.26 -1.91309 -0.377624 0
M  V30 41701 O 4037.53 -1.49214 -1.26933 0
M  V30 41702 H 4036.11 -0.632059 0.398134 0
M  V30 41703 H 4038.77 -1.16187 1.56482 0
M  V30 41704 H 4037.87 -2.68948 1.58346 0
M  V30 41705 N 4038.17 -1.05938 -1.16683 0
M  V30 41706 C 4039.12 -0.661049 -2.23009 0
M  V30 41707 C 4040.11 0.321305 -1.66325 0
M  V30 41708 O 4041.32 0.186555 -1.79031 0
M  V30 41709 H 4037.69 -0.195629 -0.726108 0
M  V30 41710 H 4039.66 -1.56776 -2.53897 0
M  V30 41711 C 4038.41 -0.0597035 -3.47649 0
M  V30 41712 H 4037.74 -0.806704 -3.91577 0
M  V30 41713 H 4039.18 0.181536 -4.23611 0
M  V30 41714 C 4037.63 1.19572 -3.14967 0
M  V30 41715 O 4038.16 2.28415 -3.30438 0
M  V30 41716 N 4036.37 1.0963 -2.69128 0
M  V30 41717 H 4035.92 0.210554 -2.56738 0
M  V30 41718 H 4035.88 1.93713 -2.47634 0
M  V30 41719 N 4039.65 1.33256 -0.841456 0
M  V30 41720 C 4040.88 2.01903 -0.451978 0
M  V30 41721 C 4041.29 1.633 0.947551 0
M  V30 41722 O 4040.65 0.847639 1.61621 0
M  V30 41723 C 4040.7 3.57041 -0.566041 0
M  V30 41724 O 4040.42 3.94252 -1.91043 0
M  V30 41725 C 4041.92 4.42959 -0.173854 0
M  V30 41726 H 4039.14 0.646649 -0.179124 0
M  V30 41727 H 4041.68 1.70129 -1.13475 0
M  V30 41728 H 4039.84 3.87339 0.0688445 0
M  V30 41729 H 4040.25 4.88962 -1.89779 0
M  V30 41730 H 4041.73 5.51158 -0.304704 0
M  V30 41731 H 4042.2 4.30202 0.884484 0
M  V30 41732 H 4042.81 4.18025 -0.783278 0
M  V30 41733 N 4041.13 0.598134 1.45809 0
M  V30 41734 C 4042.06 -0.174893 2.27529 0
M  V30 41735 C 4043.04 -0.882522 1.36566 0
M  V30 41736 O 4044.22 -0.893303 1.65989 0
M  V30 41737 C 4041.35 -1.25227 3.147 0
M  V30 41738 C 4040.39 -0.648803 4.21536 0
M  V30 41739 S 4041.23 0.536124 5.3281 0
M  V30 41740 C 4042.38 -0.542073 6.23548 0
M  V30 41741 H 4042.62 0.518456 2.92744 0
M  V30 41742 H 4040.15 0.385408 1.49512 0
M  V30 41743 H 4042.11 -1.86903 3.65483 0
M  V30 41744 H 4040.77 -1.91764 2.48768 0
M  V30 41745 H 4039.96 -1.45913 4.82416 0
M  V30 41746 H 4039.56 -0.107381 3.73846 0
M  V30 41747 H 4041.85 -1.42368 6.62373 0
M  V30 41748 H 4042.8 0.0303383 7.08094 0
M  V30 41749 H 4043.21 -0.853152 5.58016 0
M  V30 41750 N 4042.6 -1.5396 0.33676 0
M  V30 41751 C 4043.83 -2.05216 -0.26341 0
M  V30 41752 C 4044.25 -1.21214 -1.4475 0
M  V30 41753 O 4043.6 -0.245875 -1.80836 0
M  V30 41754 C 4043.65 -3.54949 -0.685065 0
M  V30 41755 O 4043.38 -4.35763 0.451931 0
M  V30 41756 C 4044.88 -4.2235 -1.34666 0
M  V30 41757 H 4042.1 -0.668978 -0.052057 0
M  V30 41758 H 4044.64 -1.98622 0.486779 0
M  V30 41759 H 4042.8 -3.61788 -1.38521 0
M  V30 41760 H 4043.21 -5.24369 0.117168 0
M  V30 41761 H 4044.68 -5.28529 -1.59252 0
M  V30 41762 H 4045.16 -3.74277 -2.29811 0
M  V30 41763 H 4045.77 -4.19686 -0.688743 0
M  V30 41764 N 4044.08 -0.0652232 -1.57465 0
M  V30 41765 C 4045.32 0.609124 -1.95113 0
M  V30 41766 C 4045.69 1.67172 -0.944319 0
M  V30 41767 O 4046.89 2.40115 -1.20823 0
M  V30 41768 C 4045.16 1.17706 -3.37461 0
M  V30 41769 S 4046.72 1.86745 -3.97079 0
M  V30 41770 H 4043.53 0.199632 -0.682399 0
M  V30 41771 H 4046.14 -0.137513 -1.95016 0
M  V30 41772 H 4044.84 0.391757 -4.08526 0
M  V30 41773 H 4044.37 1.9602 -3.41086 0
M  V30 41774 H 4046.39 3.14931 -3.83448 0
M  V30 41775 N 4045.56 1.56218 0.208282 0
M  V30 41776 C 4046.79 1.83676 0.945865 0
M  V30 41777 C 4047.2 0.643872 1.77907 0
M  V30 41778 O 4046.54 -0.396854 1.79362 0
M  V30 41779 C 4046.6 3.05056 1.90214 0
M  V30 41780 C 4046.27 4.39511 1.25217 0
M  V30 41781 C 4047.26 5.16001 0.635526 0
M  V30 41782 C 4044.95 4.86241 1.25996 0
M  V30 41783 C 4046.94 6.3739 0.0353535 0
M  V30 41784 C 4044.63 6.07569 0.655951 0
M  V30 41785 C 4045.63 6.82985 0.0447126 0
M  V30 41786 O 4045.32 8.02017 -0.549868 0
M  V30 41787 H 4045.05 0.614307 0.28214 0
M  V30 41788 H 4047.6 2.04169 0.224559 0
M  V30 41789 H 4045.83 2.80415 2.66279 0
M  V30 41790 H 4047.52 3.19273 2.50639 0
M  V30 41791 H 4048.29 4.80998 0.621735 0
M  V30 41792 H 4044.17 4.27505 1.72512 0
M  V30 41793 H 4047.71 6.96196 -0.442354 0
M  V30 41794 H 4043.61 6.42043 0.667199 0
M  V30 41795 H 4044.37 8.17287 -0.445481 0
M  V30 41796 N 4047.04 -0.475502 1.50256 0
M  V30 41797 C 4048.29 -1.22466 1.60266 0
M  V30 41798 C 4048.6 -1.93185 0.306423 0
M  V30 41799 O 4049.81 -2.69996 0.285378 0
M  V30 41800 C 4048.26 -2.22501 2.8288 0
M  V30 41801 C 4047.87 -1.57605 4.19362 0
M  V30 41802 C 4049.61 -2.98086 3.02233 0
M  V30 41803 C 4047.52 -2.55901 5.33168 0
M  V30 41804 H 4046.45 -0.460794 0.596813 0
M  V30 41805 H 4049.1 -0.495622 1.7668 0
M  V30 41806 H 4047.48 -2.98678 2.60015 0
M  V30 41807 H 4048.66 -0.87248 4.52465 0
M  V30 41808 H 4046.97 -0.943176 4.05578 0
M  V30 41809 H 4049.57 -3.71644 3.84428 0
M  V30 41810 H 4049.91 -3.57213 2.13787 0
M  V30 41811 H 4050.45 -2.29023 3.25259 0
M  V30 41812 H 4047.18 -2.0152 6.23755 0
M  V30 41813 H 4046.7 -3.24423 5.04489 0
M  V30 41814 H 4048.38 -3.1782 5.6356 0
M  V30 41815 N 4048.52 -1.39759 -0.72837 0
M  V30 41816 C 4049.46 -1.39008 -1.84243 0
M  V30 41817 C 4050.43 -0.248812 -1.64226 0
M  V30 41818 O 4051.62 -0.444937 -1.8554 0
M  V30 41819 C 4048.76 -1.24588 -3.21826 0
M  V30 41820 C 4047.87 -2.48315 -3.53502 0
M  V30 41821 C 4047.01 -2.26433 -4.80522 0
M  V30 41822 C 4046.04 -3.45801 -5.05063 0
M  V30 41823 N 4045.18 -3.23195 -6.23289 0
M  V30 41824 H 4050.02 -2.34237 -1.8422 0
M  V30 41825 H 4047.56 -1.16349 -0.900074 0
M  V30 41826 H 4049.52 -1.14238 -4.01255 0
M  V30 41827 H 4048.15 -0.329849 -3.2111 0
M  V30 41828 H 4047.2 -2.69243 -2.68724 0
M  V30 41829 H 4048.51 -3.37204 -3.67553 0
M  V30 41830 H 4047.66 -2.13363 -5.67945 0
M  V30 41831 H 4046.4 -1.34949 -4.68658 0
M  V30 41832 H 4045.41 -3.59362 -4.161 0
M  V30 41833 H 4046.63 -4.38195 -5.18808 0
M  V30 41834 H 4044.58 -2.34381 -6.127 0
M  V30 41835 H 4044.5 -4.05644 -6.37957 0
M  V30 41836 H 4045.76 -3.13832 -7.13533 0
M  V30 41837 N 4049.99 0.959257 -1.25044 0
M  V30 41838 C 4050.96 2.03677 -1.05111 0
M  V30 41839 C 4051.96 1.60799 -0.00549736 0
M  V30 41840 O 4053.15 1.72436 -0.247256 0
M  V30 41841 C 4050.28 3.35668 -0.59494 0
M  V30 41842 H 4051.47 2.22793 -2.00757 0
M  V30 41843 H 4049.02 1.13569 -1.07386 0
M  V30 41844 H 4049.76 3.22247 0.36433 0
M  V30 41845 H 4049.54 3.68137 -1.34973 0
M  V30 41846 H 4051.03 4.14869 -0.476771 0
M  V30 41847 N 4051.47 1.06556 1.16119 0
M  V30 41848 C 4052.4 0.700015 2.2276 0
M  V30 41849 C 4053.38 -0.308754 1.67274 0
M  V30 41850 O 4054.57 -0.183294 1.93333 0
M  V30 41851 C 4051.7 0.0884654 3.47187 0
M  V30 41852 C 4050.65 1.0235 4.15582 0
M  V30 41853 C 4049.98 0.275116 5.33992 0
M  V30 41854 C 4051.28 2.35366 4.66262 0
M  V30 41855 H 4052.97 1.59158 2.53593 0
M  V30 41856 H 4050.52 0.766707 1.21892 0
M  V30 41857 H 4052.47 -0.179146 4.21019 0
M  V30 41858 H 4051.2 -0.838125 3.15663 0
M  V30 41859 H 4049.85 1.2759 3.43681 0
M  V30 41860 H 4049.5 -0.654678 4.98721 0
M  V30 41861 H 4049.2 0.898283 5.80693 0
M  V30 41862 H 4050.73 0.0151129 6.10598 0
M  V30 41863 H 4052.14 2.14498 5.31661 0
M  V30 41864 H 4050.54 2.93204 5.23595 0
M  V30 41865 H 4051.61 2.98248 3.8233 0
M  V30 41866 N 4052.95 -1.32808 0.848511 0
M  V30 41867 C 4053.91 -2.27309 0.293784 0
M  V30 41868 C 4054.91 -1.51354 -0.543016 0
M  V30 41869 O 4056.1 -1.70536 -0.355413 0
M  V30 41870 C 4053.24 -3.35842 -0.585035 0
M  V30 41871 H 4054.43 -2.77887 1.12778 0
M  V30 41872 H 4051.98 -1.43375 0.622355 0
M  V30 41873 H 4052.72 -2.90522 -1.44109 0
M  V30 41874 H 4052.5 -3.92098 0.0138467 0
M  V30 41875 H 4053.99 -4.0627 -0.966132 0
M  V30 41876 N 4054.43 -0.605858 -1.45489 0
M  V30 41877 C 4055.39 0.104049 -2.28964 0
M  V30 41878 C 4056.39 0.796767 -1.39672 0
M  V30 41879 O 4057.58 0.645193 -1.61811 0
M  V30 41880 C 4054.71 1.15744 -3.20649 0
M  V30 41881 H 4055.91 -0.629827 -2.93212 0
M  V30 41882 H 4053.46 -0.364827 -1.51983 0
M  V30 41883 H 4054.19 1.92214 -2.61198 0
M  V30 41884 H 4053.98 0.664957 -3.8642 0
M  V30 41885 H 4055.47 1.65468 -3.83419 0
M  V30 41886 N 4055.91 1.53779 -0.34492 0
M  V30 41887 C 4057.15 2.02847 0.251501 0
M  V30 41888 C 4057.51 1.22724 1.47658 0
M  V30 41889 O 4058.71 1.61697 2.14727 0
M  V30 41890 C 4056.98 3.5304 0.556542 0
M  V30 41891 S 4058.54 4.24012 1.12958 0
M  V30 41892 H 4055.36 0.707058 0.0747696 0
M  V30 41893 H 4057.96 1.8944 -0.483 0
M  V30 41894 H 4056.67 4.08965 -0.342875 0
M  V30 41895 H 4056.2 3.7057 1.32067 0
M  V30 41896 H 4058.21 4.33453 2.41521 0
M  V30 41897 N 4057.38 0.0735731 1.57428 0
M  V30 41898 C 4058.33 -0.893034 2.12823 0
M  V30 41899 C 4059.3 -1.29416 1.04119 0
M  V30 41900 O 4060.49 -1.3797 1.31791 0
M  V30 41901 C 4057.63 -2.15463 2.69573 0
M  V30 41902 C 4056.74 -1.80598 3.92439 0
M  V30 41903 C 4055.87 -3.01383 4.37426 0
M  V30 41904 C 4054.91 -2.62543 5.52935 0
M  V30 41905 N 4054.05 -3.76093 5.92873 0
M  V30 41906 H 4058.89 -0.413772 2.95113 0
M  V30 41907 H 4056.43 -0.192587 1.45834 0
M  V30 41908 H 4058.39 -2.89317 3.00585 0
M  V30 41909 H 4057.02 -2.60927 1.90045 0
M  V30 41910 H 4056.07 -0.968004 3.67877 0
M  V30 41911 H 4057.38 -1.48025 4.7633 0
M  V30 41912 H 4056.53 -3.83514 4.70109 0
M  V30 41913 H 4055.27 -3.37152 3.52392 0
M  V30 41914 H 4054.28 -1.78835 5.19902 0
M  V30 41915 H 4055.5 -2.27943 6.39702 0
M  V30 41916 H 4053.45 -4.1162 5.10788 0
M  V30 41917 H 4053.37 -3.47293 6.71508 0
M  V30 41918 H 4054.63 -4.58797 6.30179 0
M  V30 41919 N 4058.86 -1.56326 -0.199995 0
M  V30 41920 C 4059.83 -1.93304 -1.23151 0
M  V30 41921 C 4060.83 -0.813665 -1.38694 0
M  V30 41922 O 4062.02 -1.08115 -1.3659 0
M  V30 41923 C 4059.15 -2.20279 -2.60173 0
M  V30 41924 H 4060.34 -2.85583 -0.915566 0
M  V30 41925 H 4057.89 -1.4994 -0.441314 0
M  V30 41926 H 4058.63 -1.30622 -2.96831 0
M  V30 41927 H 4058.41 -3.01845 -2.50264 0
M  V30 41928 H 4059.9 -2.49909 -3.34567 0
M  V30 41929 N 4060.34 0.467527 -1.50506 0
M  V30 41930 C 4061.3 1.54748 -1.69073 0
M  V30 41931 C 4062.3 1.50683 -0.561351 0
M  V30 41932 O 4063.49 1.5324 -0.828439 0
M  V30 41933 C 4060.63 2.9437 -1.71927 0
M  V30 41934 H 4061.82 1.396 -2.65428 0
M  V30 41935 H 4059.37 0.694153 -1.4004 0
M  V30 41936 H 4060.11 3.14958 -0.772789 0
M  V30 41937 H 4059.89 2.98727 -2.53977 0
M  V30 41938 H 4061.38 3.7277 -1.88235 0
M  V30 41939 N 4061.82 1.40143 0.720948 0
M  V30 41940 C 4063.07 1.37858 1.47783 0
M  V30 41941 C 4063.39 -0.0201515 1.9499 0
M  V30 41942 O 4062.66 -0.973956 1.69973 0
M  V30 41943 H 4061.24 0.507359 0.548266 0
M  V30 41944 H 4063.9 1.75145 0.85499 0
M  V30 41945 H 4063 2.0501 2.35323 0
M  V30 41946 N 4063.3 -0.952612 1.25551 0
M  V30 41947 C 4064.55 -1.69186 1.09814 0
M  V30 41948 C 4064.86 -1.92252 -0.360334 0
M  V30 41949 O 4066.06 -2.63893 -0.638182 0
M  V30 41950 C 4064.52 -3.04597 1.91699 0
M  V30 41951 C 4064.13 -2.8932 3.4205 0
M  V30 41952 C 4065.87 -3.82291 1.84537 0
M  V30 41953 C 4063.78 -4.20134 4.16223 0
M  V30 41954 H 4062.71 -0.634499 0.407341 0
M  V30 41955 H 4065.36 -1.06033 1.49764 0
M  V30 41956 H 4063.74 -3.68666 1.44573 0
M  V30 41957 H 4064.92 -2.34171 3.96863 0
M  V30 41958 H 4063.23 -2.25079 3.50326 0
M  V30 41959 H 4065.83 -4.79185 2.37246 0
M  V30 41960 H 4066.17 -4.08271 0.813682 0
M  V30 41961 H 4066.7 -3.24976 2.29424 0
M  V30 41962 H 4063.44 -3.99343 5.19813 0
M  V30 41963 H 4062.96 -4.7504 3.66192 0
M  V30 41964 H 4064.64 -4.88663 4.24049 0
M  V30 41965 N 4064.77 -1.0717 -1.15553 0
M  V30 41966 C 4066.02 -0.794927 -1.86571 0
M  V30 41967 C 4066.35 0.677244 -1.82008 0
M  V30 41968 O 4065.63 1.49688 -1.24192 0
M  V30 41969 C 4065.91 -1.30143 -3.3576 0
M  V30 41970 C 4065.76 -2.83802 -3.48965 0
M  V30 41971 C 4067.08 -0.916478 -4.30452 0
M  V30 41972 H 4064.2 -0.290242 -0.677443 0
M  V30 41973 H 4066.84 -1.32916 -1.35769 0
M  V30 41974 H 4064.99 -0.846982 -3.79155 0
M  V30 41975 H 4066.67 -3.37522 -3.14446 0
M  V30 41976 H 4064.91 -3.22092 -2.90585 0
M  V30 41977 H 4065.58 -3.1431 -4.53777 0
M  V30 41978 H 4068.06 -1.30804 -3.95006 0
M  V30 41979 H 4066.93 -1.29824 -5.33326 0
M  V30 41980 H 4067.19 0.177772 -4.41742 0
M  V30 41981 N 4066.25 1.32356 -0.855542 0
M  V30 41982 C 4067.53 1.91861 -0.380609 0
M  V30 41983 C 4067.91 1.77934 1.1359 0
M  V30 41984 O 4067.26 1.178 1.95795 0
M  V30 41985 C 4067.47 3.38592 -0.845962 0
M  V30 41986 C 4068.82 4.15724 -0.863659 0
M  V30 41987 O 4069.84 3.47314 -0.790658 0
M  V30 41988 O 4068.7 5.37881 -0.966752 0
M  V30 41989 H 4065.79 0.819494 -0.111171 0
M  V30 41990 H 4068.34 1.41121 -0.942501 0
M  V30 41991 H 4067.11 3.42676 -1.88915 0
M  V30 41992 H 4066.73 3.96739 -0.26157 0
M  V30 41993 N 4067.73 0.613565 1.45166 0
M  V30 41994 C 4069.14 0.195473 1.85674 0
M  V30 41995 C 4069.49 -1.24905 1.51305 0
M  V30 41996 O 4068.62 -1.94792 0.942605 0
M  V30 41997 C 4069.21 0.34798 3.37008 0
M  V30 41998 C 4067.77 -0.0154662 3.76397 0
M  V30 41999 C 4066.92 0.669625 2.69094 0
M  V30 42000 H 4069.87 0.819866 1.35882 0
M  V30 42001 H 4069.89 -0.418119 3.78196 0
M  V30 42002 H 4069.4 1.39942 3.61992 0
M  V30 42003 H 4067.5 -1.06585 3.5703 0
M  V30 42004 H 4067.62 0.382351 4.77572 0
M  V30 42005 H 4065.98 0.106665 2.54477 0
M  V30 42006 H 4066.76 1.72331 2.96912 0
M  V30 42007 N 4069.21 -1.53594 0.353071 0
M  V30 42008 C 4070.46 -2.01365 -0.240869 0
M  V30 42009 C 4070.79 -1.24026 -1.49436 0
M  V30 42010 O 4070.06 -0.330485 -1.91672 0
M  V30 42011 C 4070.35 -3.55945 -0.545434 0
M  V30 42012 C 4070.2 -4.43987 0.72082 0
M  V30 42013 C 4071.52 -4.18846 -1.35116 0
M  V30 42014 H 4068.64 -0.731957 -0.0860709 0
M  V30 42015 H 4071.28 -1.83954 0.475491 0
M  V30 42016 H 4069.43 -3.70912 -1.15571 0
M  V30 42017 H 4071.1 -4.4084 1.35859 0
M  V30 42018 H 4069.34 -4.12463 1.34377 0
M  V30 42019 H 4070.02 -5.50056 0.462845 0
M  V30 42020 H 4072.49 -4.07635 -0.835032 0
M  V30 42021 H 4071.37 -5.27058 -1.53301 0
M  V30 42022 H 4071.63 -3.74089 -2.35606 0
M  V30 42023 N 4070.69 -0.0819208 -1.57387 0
M  V30 42024 C 4071.62 0.917983 -2.08922 0
M  V30 42025 C 4072.6 1.28473 -0.996671 0
M  V30 42026 O 4073.78 1.39227 -1.27075 0
M  V30 42027 C 4070.91 2.22312 -2.55529 0
M  V30 42028 C 4069.96 2.00721 -3.76316 0
M  V30 42029 S 4070.79 1.25727 -5.20531 0
M  V30 42030 C 4071.94 2.57499 -5.70478 0
M  V30 42031 H 4072.18 0.479511 -2.93408 0
M  V30 42032 H 4069.71 0.131076 -1.53843 0
M  V30 42033 H 4071.67 2.97319 -2.8304 0
M  V30 42034 H 4070.33 2.63282 -1.71293 0
M  V30 42035 H 4069.52 2.97335 -4.0695 0
M  V30 42036 H 4069.12 1.33847 -3.49229 0
M  V30 42037 H 4071.42 3.53541 -5.7794 0
M  V30 42038 H 4072.36 2.31461 -6.69202 0
M  V30 42039 H 4072.77 2.65168 -4.98343 0
M  V30 42040 N 4072.17 1.5643 0.191702 0
M  V30 42041 C 4073.1 1.97842 1.2402 0
M  V30 42042 C 4074.08 0.850879 1.47289 0
M  V30 42043 O 4075.26 1.11546 1.58969 0
M  V30 42044 C 4072.39 2.32084 2.58369 0
M  V30 42045 C 4071.35 3.47607 2.49706 0
M  V30 42046 C 4070.67 3.67535 3.88359 0
M  V30 42047 C 4071.97 4.8169 2.0192 0
M  V30 42048 H 4073.67 2.85677 0.89605 0
M  V30 42049 H 4071.21 1.37443 0.429592 0
M  V30 42050 H 4073.16 2.59649 3.31904 0
M  V30 42051 H 4071.89 1.41135 2.94531 0
M  V30 42052 H 4070.55 3.20138 1.78627 0
M  V30 42053 H 4070.2 2.7391 4.21879 0
M  V30 42054 H 4069.9 4.45253 3.83436 0
M  V30 42055 H 4071.42 3.9748 4.63511 0
M  V30 42056 H 4072.83 5.08265 2.65216 0
M  V30 42057 H 4071.23 5.62902 2.07992 0
M  V30 42058 H 4072.3 4.75046 0.972565 0
M  V30 42059 N 4073.64 -0.459538 1.50751 0
M  V30 42060 C 4074.89 -1.21255 1.62558 0
M  V30 42061 C 4075.22 -1.9137 0.330299 0
M  V30 42062 O 4074.5 -1.82635 -0.668923 0
M  V30 42063 C 4074.78 -2.24712 2.81384 0
M  V30 42064 C 4074.63 -1.58825 4.20826 0
M  V30 42065 C 4075.95 -3.25915 2.95749 0
M  V30 42066 H 4073.07 -0.439473 0.591636 0
M  V30 42067 H 4075.71 -0.504745 1.83173 0
M  V30 42068 H 4073.86 -2.85077 2.63938 0
M  V30 42069 H 4075.54 -1.01967 4.49889 0
M  V30 42070 H 4073.78 -0.891073 4.2455 0
M  V30 42071 H 4074.45 -2.34061 4.99919 0
M  V30 42072 H 4076.93 -2.75583 3.11758 0
M  V30 42073 H 4075.8 -3.9562 3.80495 0
M  V30 42074 H 4076.06 -3.9072 2.06858 0
M  V30 42075 N 4075.12 -1.40523 -0.713506 0
M  V30 42076 C 4076.36 -1.40366 -1.48583 0
M  V30 42077 C 4076.73 -0.00570042 -1.91999 0
M  V30 42078 O 4077.93 0.121002 -2.68528 0
M  V30 42079 C 4076.2 -2.36729 -2.67758 0
M  V30 42080 S 4077.76 -2.54947 -3.57138 0
M  V30 42081 H 4074.57 -0.497482 -0.507969 0
M  V30 42082 H 4077.18 -1.7681 -0.834175 0
M  V30 42083 H 4075.88 -3.37128 -2.34036 0
M  V30 42084 H 4075.41 -2.01575 -3.37833 0
M  V30 42085 H 4077.43 -1.80344 -4.62267 0
M  V30 42086 N 4076.6 0.94594 -1.26054 0
M  V30 42087 C 4077.85 1.68824 -1.11098 0
M  V30 42088 C 4078.17 1.91885 0.34714 0
M  V30 42089 O 4077.44 1.51215 1.24543 0
M  V30 42090 H 4076.02 0.625645 -0.408139 0
M  V30 42091 H 4078.68 1.13683 -1.58311 0
M  V30 42092 H 4077.78 2.66395 -1.62605 0
M  V30 42093 N 4078.08 1.07781 1.14983 0
M  V30 42094 C 4079.35 0.716578 1.82001 0
M  V30 42095 C 4079.73 -0.800465 1.95335 0
M  V30 42096 O 4079.08 -1.71655 1.5082 0
M  V30 42097 C 4079.29 1.43608 3.18085 0
M  V30 42098 C 4080.64 1.59101 3.93665 0
M  V30 42099 O 4081.66 1.39721 3.27653 0
M  V30 42100 O 4080.52 1.91024 5.12027 0
M  V30 42101 H 4077.62 0.255496 0.786544 0
M  V30 42102 H 4080.16 1.179 1.22056 0
M  V30 42103 H 4078.94 2.46983 3.03505 0
M  V30 42104 H 4078.56 0.964719 3.85719 0
M  V30 42105 N 4079.56 -1.31901 0.862549 0
M  V30 42106 C 4080.83 -1.91657 0.390778 0
M  V30 42107 C 4081.21 -1.78534 -1.12645 0
M  V30 42108 O 4080.56 -1.18836 -1.95167 0
M  V30 42109 C 4080.77 -3.38139 0.863906 0
M  V30 42110 C 4082.12 -4.1526 0.885694 0
M  V30 42111 O 4083.14 -3.4689 0.809066 0
M  V30 42112 O 4082 -5.37361 0.995264 0
M  V30 42113 H 4079.1 -0.818893 0.115515 0
M  V30 42114 H 4081.64 -1.40619 0.949972 0
M  V30 42115 H 4080.41 -3.41669 1.90729 0
M  V30 42116 H 4080.04 -3.96594 0.282606 0
M  V30 42117 N 4081.03 -0.621255 -1.44838 0
M  V30 42118 C 4081.96 0.0765876 -2.33374 0
M  V30 42119 C 4082.95 0.844906 -1.47632 0
M  V30 42120 O 4084.13 0.812749 -1.76375 0
M  V30 42121 C 4081.26 1.06544 -3.30554 0
M  V30 42122 C 4080.21 0.409421 -4.26037 0
M  V30 42123 C 4079.54 1.50748 -5.1301 0
M  V30 42124 C 4080.84 -0.678085 -5.1788 0
M  V30 42125 H 4082.53 -0.662709 -2.91973 0
M  V30 42126 H 4080.08 -0.320142 -1.40396 0
M  V30 42127 H 4082.03 1.5623 -3.9137 0
M  V30 42128 H 4080.76 1.8355 -2.70142 0
M  V30 42129 H 4079.42 -0.0666965 -3.66539 0
M  V30 42130 H 4079.06 2.26817 -4.48958 0
M  V30 42131 H 4078.76 1.07397 -5.77702 0
M  V30 42132 H 4080.29 2.00634 -5.76696 0
M  V30 42133 H 4081.7 -0.264738 -5.72688 0
M  V30 42134 H 4080.1 -1.03415 -5.91122 0
M  V30 42135 H 4081.17 -1.54922 -4.59486 0
M  V30 42136 N 4082.51 1.53405 -0.361211 0
M  V30 42137 C 4083.76 2.01489 0.230187 0
M  V30 42138 C 4084.09 1.24817 1.48776 0
M  V30 42139 O 4083.37 0.340645 1.91494 0
M  V30 42140 C 4083.65 3.5623 0.52655 0
M  V30 42141 C 4083.5 4.43598 -0.744355 0
M  V30 42142 C 4084.82 4.19556 1.32893 0
M  V30 42143 H 4081.94 0.732403 0.082188 0
M  V30 42144 H 4084.58 1.83699 -0.48524 0
M  V30 42145 H 4082.73 3.71519 1.13603 0
M  V30 42146 H 4084.4 4.40113 -1.38195 0
M  V30 42147 H 4082.65 4.11744 -1.36562 0
M  V30 42148 H 4083.32 5.49803 -0.49201 0
M  V30 42149 H 4085.79 4.08072 0.813403 0
M  V30 42150 H 4084.67 5.27863 1.50504 0
M  V30 42151 H 4084.93 3.75333 2.33619 0
M  V30 42152 N 4083.99 0.0902663 1.57341 0
M  V30 42153 C 4085.24 -0.575426 1.94465 0
M  V30 42154 C 4085.57 -1.68133 0.971848 0
M  V30 42155 O 4084.84 -1.945 0.00409084 0
M  V30 42156 C 4085.13 -1.13512 3.41741 0
M  V30 42157 C 4084.98 -0.0346031 4.49787 0
M  V30 42158 C 4086.3 -2.035 3.90226 0
M  V30 42159 H 4083.42 -0.207703 0.707127 0
M  V30 42160 H 4086.06 0.159993 1.89325 0
M  V30 42161 H 4084.21 -1.76186 3.46252 0
M  V30 42162 H 4085.88 0.599406 4.57389 0
M  V30 42163 H 4084.13 0.632418 4.29165 0
M  V30 42164 H 4084.8 -0.466947 5.50021 0
M  V30 42165 H 4087.27 -1.50737 3.87837 0
M  V30 42166 H 4086.15 -2.39589 4.9385 0
M  V30 42167 H 4086.41 -2.95051 3.29237 0
M  V30 42168 N 4085.47 -1.56529 -0.183403 0
M  V30 42169 C 4086.72 -1.80497 -0.900206 0
M  V30 42170 C 4087.03 -0.665486 -1.83931 0
M  V30 42171 O 4088.24 -0.789773 -2.59759 0
M  V30 42172 C 4086.69 -3.19787 -1.6512 0
M  V30 42173 C 4086.3 -4.41569 -0.756333 0
M  V30 42174 C 4088.04 -3.53056 -2.35694 0
M  V30 42175 C 4085.95 -5.71881 -1.50686 0
M  V30 42176 H 4084.88 -0.673048 -0.339887 0
M  V30 42177 H 4087.53 -1.82859 -0.153295 0
M  V30 42178 H 4085.91 -3.11708 -2.44242 0
M  V30 42179 H 4087.09 -4.608 -0.0029341 0
M  V30 42180 H 4085.4 -4.16089 -0.160843 0
M  V30 42181 H 4088 -4.47656 -2.92418 0
M  V30 42182 H 4088.34 -2.77357 -3.10449 0
M  V30 42183 H 4088.88 -3.62634 -1.63527 0
M  V30 42184 H 4085.62 -6.50577 -0.80187 0
M  V30 42185 H 4085.14 -5.56648 -2.23389 0
M  V30 42186 H 4086.81 -6.13411 -2.05757 0
M  V30 42187 N 4086.95 0.451537 -1.50993 0
M  V30 42188 C 4088.17 1.22955 -1.67023 0
M  V30 42189 C 4088.6 1.846 -0.361182 0
M  V30 42190 O 4087.95 1.68179 0.677164 0
M  V30 42191 C 4088 2.29975 -2.77748 0
M  V30 42192 O 4087.11 3.35112 -2.40362 0
M  V30 42193 H 4086.45 0.360872 -0.557375 0
M  V30 42194 H 4088.98 0.535038 -1.9748 0
M  V30 42195 H 4088.99 2.74983 -3.01411 0
M  V30 42196 H 4087.66 1.84482 -3.72746 0
M  V30 42197 H 4086.24 2.95679 -2.27219 0
M  V30 42198 N 4088.42 1.409 0.706044 0
M  V30 42199 C 4089.33 1.44258 1.85005 0
M  V30 42200 C 4090.35 0.334204 1.7076 0
M  V30 42201 O 4091.53 0.580291 1.92859 0
M  V30 42202 C 4088.59 1.31257 3.20893 0
M  V30 42203 C 4087.65 2.5232 3.47323 0
M  V30 42204 C 4086.89 2.3993 4.76728 0
M  V30 42205 O 4087.11 1.41822 5.52488 0
M  V30 42206 O 4086.04 3.29489 5.03707 0
M  V30 42207 H 4089.87 2.40752 1.85128 0
M  V30 42208 H 4087.45 1.22325 0.857729 0
M  V30 42209 H 4089.34 1.26251 4.02043 0
M  V30 42210 H 4088.01 0.378741 3.21477 0
M  V30 42211 H 4086.92 2.62903 2.66144 0
M  V30 42212 H 4088.25 3.44496 3.51544 0
M  V30 42213 N 4089.9 -0.939242 1.26554 0
M  V30 42214 C 4091.13 -1.7253 1.15101 0
M  V30 42215 C 4091.55 -1.85855 -0.289778 0
M  V30 42216 O 4090.91 -1.35019 -1.20994 0
M  V30 42217 C 4090.96 -3.10886 1.82709 0
M  V30 42218 O 4090.06 -3.96979 1.11719 0
M  V30 42219 H 4089.4 -0.529271 0.40096 0
M  V30 42220 H 4091.93 -1.17622 1.6741 0
M  V30 42221 H 4091.94 -3.61265 1.89609 0
M  V30 42222 H 4090.62 -3.00504 2.87524 0
M  V30 42223 H 4089.2 -3.55428 1.12807 0
M  V30 42224 N 4091.38 -1.08389 -1.14409 0
M  V30 42225 C 4092.31 -0.671604 -2.1914 0
M  V30 42226 C 4093.33 0.281228 -1.60353 0
M  V30 42227 O 4094.51 0.0689108 -1.78367 0
M  V30 42228 C 4091.61 0.0325851 -3.38884 0
M  V30 42229 C 4090.79 -0.939099 -4.272 0
M  V30 42230 C 4089.85 -0.270268 -5.25505 0
M  V30 42231 O 4088.87 -0.91462 -5.61804 0
M  V30 42232 N 4090.07 0.979901 -5.7217 0
M  V30 42233 H 4092.84 -1.57258 -2.55127 0
M  V30 42234 H 4090.4 -0.969954 -1.29628 0
M  V30 42235 H 4092.39 0.490964 -4.01711 0
M  V30 42236 H 4090.96 0.835655 -3.01223 0
M  V30 42237 H 4090.18 -1.57632 -3.61311 0
M  V30 42238 H 4091.47 -1.59754 -4.83069 0
M  V30 42239 H 4090.87 1.52315 -5.44809 0
M  V30 42240 H 4089.43 1.38178 -6.36985 0
M  V30 42241 N 4092.86 1.31442 -0.869532 0
M  V30 42242 C 4094.11 1.96334 -0.4793 0
M  V30 42243 C 4094.43 1.69074 0.971553 0
M  V30 42244 O 4093.7 1.00591 1.68102 0
M  V30 42245 H 4092.28 0.726391 -0.174254 0
M  V30 42246 H 4094.94 1.60257 -1.10922 0
M  V30 42247 H 4094.04 3.05537 -0.636681 0
M  V30 42248 N 4094.34 0.628927 1.44507 0
M  V30 42249 C 4095.28 -0.0895346 2.32428 0
M  V30 42250 C 4096.28 -0.838041 1.47218 0
M  V30 42251 O 4097.48 -0.751189 1.63576 0
M  V30 42252 H 4093.86 -0.0477218 0.750484 0
M  V30 42253 H 4095.83 0.670105 2.90779 0
M  V30 42254 C 4094.58 -1.05904 3.31179 0
M  V30 42255 H 4093.9 -0.492509 3.96755 0
M  V30 42256 H 4095.34 -1.53128 3.95383 0
M  V30 42257 C 4093.8 -2.1432 2.59939 0
M  V30 42258 O 4094.33 -3.22371 2.39666 0
M  V30 42259 N 4092.54 -1.90194 2.19715 0
M  V30 42260 H 4092.08 -1.02328 2.36404 0
M  V30 42261 H 4092.04 -2.62933 1.72376 0
M  V30 42262 N 4095.82 -1.53211 0.369342 0
M  V30 42263 C 4096.73 -2.2957 -0.483186 0
M  V30 42264 C 4097.74 -1.35686 -1.08928 0
M  V30 42265 O 4098.92 -1.68745 -1.09941 0
M  V30 42266 C 4095.98 -3.07289 -1.60543 0
M  V30 42267 C 4095.04 -4.16847 -1.02649 0
M  V30 42268 C 4094.28 -4.90851 -2.09525 0
M  V30 42269 O 4094.5 -4.64751 -3.30701 0
M  V30 42270 O 4093.43 -5.7669 -1.72372 0
M  V30 42271 H 4097.26 -3.03385 0.138299 0
M  V30 42272 H 4094.84 -1.48801 0.133615 0
M  V30 42273 H 4096.73 -3.55809 -2.25783 0
M  V30 42274 H 4095.4 -2.36307 -2.21225 0
M  V30 42275 H 4094.31 -3.72571 -0.337898 0
M  V30 42276 H 4095.64 -4.90006 -0.464173 0
M  V30 42277 N 4097.29 -0.0986092 -1.57291 0
M  V30 42278 C 4098.2 0.873206 -2.17744 0
M  V30 42279 C 4099.22 1.30768 -1.14786 0
M  V30 42280 O 4100.4 1.37487 -1.47171 0
M  V30 42281 C 4097.46 2.11303 -2.74867 0
M  V30 42282 C 4096.52 1.73243 -3.92792 0
M  V30 42283 C 4095.75 2.91314 -4.47182 0
M  V30 42284 O 4095.98 4.06144 -4.00504 0
M  V30 42285 O 4094.91 2.69577 -5.38156 0
M  V30 42286 H 4098.74 0.388849 -3.012 0
M  V30 42287 H 4096.32 0.125929 -1.48868 0
M  V30 42288 H 4098.2 2.83955 -3.11364 0
M  V30 42289 H 4096.88 2.58784 -1.94454 0
M  V30 42290 H 4095.79 0.977599 -3.61101 0
M  V30 42291 H 4097.12 1.30521 -4.74579 0
M  V30 42292 N 4098.77 1.56624 0.175099 0
M  V30 42293 C 4100.05 1.72646 0.919394 0
M  V30 42294 C 4100.43 0.658964 2.00551 0
M  V30 42295 O 4099.78 -0.326857 2.2615 0
M  V30 42296 C 4099.99 3.15709 1.48758 0
M  V30 42297 C 4101.33 3.76553 1.96197 0
M  V30 42298 O 4102.36 3.18963 1.5856 0
M  V30 42299 O 4101.22 4.77665 2.65516 0
M  V30 42300 H 4098.31 0.704894 0.432497 0
M  V30 42301 H 4100.86 1.68913 0.163225 0
M  V30 42302 H 4099.63 3.84884 0.705676 0
M  V30 42303 H 4099.25 3.23752 2.30804 0
M  V30 42304 N 4100.25 -0.443523 1.5123 0
M  V30 42305 C 4101.16 -1.56321 1.74931 0
M  V30 42306 C 4102.18 -1.62066 0.633296 0
M  V30 42307 O 4103.35 -1.79423 0.91484 0
M  V30 42308 C 4100.42 -2.9235 1.86366 0
M  V30 42309 C 4099.48 -2.96772 3.10201 0
M  V30 42310 C 4098.71 -4.26313 3.21081 0
M  V30 42311 O 4098.93 -5.18351 2.38052 0
M  V30 42312 O 4097.87 -4.36892 4.14015 0
M  V30 42313 H 4101.69 -1.39239 2.69901 0
M  V30 42314 H 4099.28 -0.625896 1.35657 0
M  V30 42315 H 4101.16 -3.73093 1.95908 0
M  V30 42316 H 4099.84 -3.09574 0.945829 0
M  V30 42317 H 4098.74 -2.15007 3.06142 0
M  V30 42318 H 4100.08 -2.84492 4.01653 0
M  V30 42319 N 4101.73 -1.41272 -0.698562 0
M  V30 42320 C 4103.14 -1.23676 -1.00878 0
M  V30 42321 C 4103.34 -0.123996 -2.01118 0
M  V30 42322 O 4102.4 0.512584 -2.47242 0
M  V30 42323 C 4103.71 -2.58495 -1.53625 0
M  V30 42324 C 4105.26 -2.65652 -1.65524 0
M  V30 42325 C 4105.74 -4.00781 -2.21672 0
M  V30 42326 N 4107.23 -4.02612 -2.29037 0
M  V30 42327 C 4107.96 -5.03968 -2.73503 0
M  V30 42328 N 4107.46 -6.15715 -3.17596 0
M  V30 42329 N 4109.25 -4.9133 -2.7304 0
M  V30 42330 H 4101.4 -2.12372 -0.0344515 0
M  V30 42331 H 4103.66 -0.944797 -0.0778575 0
M  V30 42332 H 4103.37 -3.4066 -0.874279 0
M  V30 42333 H 4103.24 -2.80772 -2.51886 0
M  V30 42334 H 4105.63 -1.83848 -2.30833 0
M  V30 42335 H 4105.71 -2.47188 -0.658158 0
M  V30 42336 H 4105.36 -4.83032 -1.56979 0
M  V30 42337 H 4105.29 -4.16584 -3.22127 0
M  V30 42338 H 4107.78 -3.21928 -1.97917 0
M  V30 42339 H 4108.09 -6.88927 -3.50143 0
M  V30 42340 H 4106.44 -6.19255 -3.15512 0
M  V30 42341 H 4109.63 -4.03116 -2.3794 0
M  V30 42342 H 4109.8 -5.70459 -3.07376 0
M  V30 42343 N 4103.21 0.932517 -1.27051 0
M  V30 42344 C 4104.15 2.0538 -1.09187 0
M  V30 42345 C 4105.15 1.69392 -0.0163161 0
M  V30 42346 O 4106.35 1.7916 -0.173667 0
M  V30 42347 H 4102.73 0.672615 -0.336294 0
M  V30 42348 H 4104.7 2.17596 -2.04193 0
M  V30 42349 C 4103.45 3.39498 -0.750747 0
M  V30 42350 H 4102.77 3.67672 -1.57026 0
M  V30 42351 H 4104.21 4.18743 -0.665595 0
M  V30 42352 C 4102.67 3.32469 0.544618 0
M  V30 42353 O 4103.2 3.69303 1.58044 0
M  V30 42354 N 4101.41 2.85568 0.538456 0
M  V30 42355 H 4100.95 2.55789 -0.304879 0
M  V30 42356 H 4100.91 2.81247 1.40525 0
M  V30 42357 N 4104.68 1.08995 1.13833 0
M  V30 42358 C 4105.61 0.747109 2.21225 0
M  V30 42359 C 4106.59 -0.273203 1.67892 0
M  V30 42360 O 4107.78 -0.142244 1.93678 0
M  V30 42361 C 4104.91 0.162089 3.46922 0
M  V30 42362 C 4103.86 1.11142 4.13318 0
M  V30 42363 C 4103.19 0.388321 5.33288 0
M  V30 42364 C 4104.49 2.45203 4.61165 0
M  V30 42365 H 4106.18 1.64501 2.5016 0
M  V30 42366 H 4103.73 0.79239 1.20238 0
M  V30 42367 H 4105.68 -0.0898013 4.21304 0
M  V30 42368 H 4104.41 -0.77098 3.1737 0
M  V30 42369 H 4103.07 1.34851 3.40897 0
M  V30 42370 H 4102.71 -0.548744 4.99998 0
M  V30 42371 H 4102.41 1.02125 5.78657 0
M  V30 42372 H 4103.94 0.144626 6.10429 0
M  V30 42373 H 4105.35 2.25727 5.26992 0
M  V30 42374 H 4103.75 3.04244 5.17258 0
M  V30 42375 H 4104.82 3.0629 3.75918 0
M  V30 42376 N 4106.16 -1.30979 0.87649 0
M  V30 42377 C 4107.58 -1.49101 0.56931 0
M  V30 42378 C 4107.78 -1.80532 -0.895017 0
M  V30 42379 O 4106.83 -1.88786 -1.67679 0
M  V30 42380 C 4108.15 -2.6203 1.47515 0
M  V30 42381 C 4109.69 -2.75913 1.47787 0
M  V30 42382 C 4110.17 -3.91946 2.36944 0
M  V30 42383 N 4111.66 -3.99243 2.3486 0
M  V30 42384 C 4112.4 -4.88314 3.00561 0
M  V30 42385 N 4111.89 -5.82241 3.75456 0
M  V30 42386 N 4113.68 -4.81613 2.89836 0
M  V30 42387 H 4105.84 -1.08847 1.8239 0
M  V30 42388 H 4108.1 -0.538447 0.780243 0
M  V30 42389 H 4107.8 -2.456 2.51741 0
M  V30 42390 H 4107.68 -3.58318 1.17847 0
M  V30 42391 H 4110.07 -2.91753 0.443164 0
M  V30 42392 H 4110.15 -1.80272 1.81482 0
M  V30 42393 H 4109.79 -3.76863 3.40495 0
M  V30 42394 H 4109.72 -4.86908 2.0057 0
M  V30 42395 H 4112.21 -3.32046 1.80426 0
M  V30 42396 H 4112.52 -6.4695 4.22701 0
M  V30 42397 H 4110.87 -5.82199 3.79564 0
M  V30 42398 H 4114.06 -4.07212 2.30859 0
M  V30 42399 H 4114.23 -5.50823 3.41319 0
M  V30 42400 N 4107.64 -0.636582 -1.44171 0
M  V30 42401 C 4108.6 0.0554591 -2.29133 0
M  V30 42402 C 4109.6 0.766961 -1.41331 0
M  V30 42403 O 4110.79 0.610725 -1.63143 0
M  V30 42404 C 4107.92 1.08917 -3.23032 0
M  V30 42405 H 4109.12 -0.69188 -2.9181 0
M  V30 42406 H 4106.67 -0.396983 -1.51175 0
M  V30 42407 H 4107.41 1.8663 -2.65216 0
M  V30 42408 H 4107.19 0.582842 -3.87744 0
M  V30 42409 H 4108.68 1.57298 -3.86843 0
M  V30 42410 N 4109.12 1.53013 -0.377462 0
M  V30 42411 C 4110.36 2.01424 0.208494 0
M  V30 42412 C 4110.69 1.26435 1.47798 0
M  V30 42413 O 4109.95 0.349694 1.9255 0
M  V30 42414 C 4110.25 3.53379 0.534597 0
M  V30 42415 C 4109.91 4.46307 -0.641954 0
M  V30 42416 C 4108.57 4.7143 -0.964754 0
M  V30 42417 C 4110.93 5.0121 -1.42963 0
M  V30 42418 C 4108.25 5.48706 -2.07699 0
M  V30 42419 C 4110.61 5.79701 -2.53237 0
M  V30 42420 C 4109.27 6.03107 -2.86039 0
M  V30 42421 H 4108.54 0.737062 0.0762934 0
M  V30 42422 H 4111.19 1.84518 -0.512372 0
M  V30 42423 H 4109.49 3.68295 1.33664 0
M  V30 42424 H 4111.19 3.8832 1.00041 0
M  V30 42425 H 4107.78 4.26909 -0.380341 0
M  V30 42426 H 4111.96 4.81736 -1.19349 0
M  V30 42427 H 4107.22 5.65057 -2.33497 0
M  V30 42428 H 4111.39 6.21248 -3.1468 0
M  V30 42429 H 4109.02 6.6277 -3.72344 0
M  V30 42430 N 4110.6 0.106949 1.57237 0
M  V30 42431 C 4111.82 -0.562003 1.99121 0
M  V30 42432 C 4112.24 -1.60985 0.986366 0
M  V30 42433 O 4111.6 -1.82486 -0.0224291 0
M  V30 42434 C 4111.65 -1.19903 3.41036 0
M  V30 42435 O 4111.37 -0.193081 4.37674 0
M  V30 42436 C 4112.87 -1.95246 3.97987 0
M  V30 42437 H 4110.09 -0.149761 0.654074 0
M  V30 42438 H 4112.63 0.189735 2.03618 0
M  V30 42439 H 4110.79 -1.90163 3.37516 0
M  V30 42440 H 4111.2 -0.654369 5.20402 0
M  V30 42441 H 4112.68 -2.35162 4.99403 0
M  V30 42442 H 4113.15 -2.82297 3.36459 0
M  V30 42443 H 4113.76 -1.29776 4.05016 0
M  V30 42444 N 4112.07 -1.56715 -0.166791 0
M  V30 42445 C 4112.98 -1.99999 -1.22628 0
M  V30 42446 C 4114 -0.912094 -1.48178 0
M  V30 42447 O 4115.18 -1.22007 -1.60238 0
M  V30 42448 C 4112.24 -2.35503 -2.54439 0
M  V30 42449 C 4111.3 -3.58142 -2.36712 0
M  V30 42450 C 4110.54 -3.91943 -3.62238 0
M  V30 42451 O 4110.76 -3.26654 -4.67604 0
M  V30 42452 O 4109.69 -4.85275 -3.56078 0
M  V30 42453 H 4113.52 -2.90401 -0.888874 0
M  V30 42454 H 4111.1 -1.44643 -0.374006 0
M  V30 42455 H 4112.99 -2.59287 -3.32187 0
M  V30 42456 H 4111.66 -1.48261 -2.87751 0
M  V30 42457 H 4110.57 -3.3957 -1.56981 0
M  V30 42458 H 4111.9 -4.45939 -2.08324 0
M  V30 42459 N 4113.55 0.435497 -1.51463 0
M  V30 42460 C 4114.52 1.51126 -1.72318 0
M  V30 42461 C 4115.52 1.49459 -0.593187 0
M  V30 42462 O 4116.71 1.51448 -0.860757 0
M  V30 42463 C 4113.84 2.90657 -1.78132 0
M  V30 42464 H 4115.03 1.33939 -2.68329 0
M  V30 42465 H 4112.58 0.664292 -1.41481 0
M  V30 42466 H 4113.32 3.13248 -0.839422 0
M  V30 42467 H 4113.1 2.93273 -2.60257 0
M  V30 42468 H 4114.59 3.68693 -1.96099 0
M  V30 42469 N 4115.03 1.41641 0.69106 0
M  V30 42470 C 4115.96 1.38263 1.81545 0
M  V30 42471 C 4116.94 0.249221 1.60679 0
M  V30 42472 O 4118.13 0.436853 1.83368 0
M  V30 42473 C 4115.25 1.15783 3.18296 0
M  V30 42474 C 4114.3 2.31902 3.57944 0
M  V30 42475 S 4115.13 3.94395 3.62233 0
M  V30 42476 C 4116.29 3.74226 5.01703 0
M  V30 42477 H 4116.52 2.33414 1.84133 0
M  V30 42478 H 4114.05 1.28218 0.860198 0
M  V30 42479 H 4116.01 1.03499 3.97238 0
M  V30 42480 H 4114.67 0.222444 3.13311 0
M  V30 42481 H 4113.87 2.11878 4.573 0
M  V30 42482 H 4113.47 2.40617 2.86321 0
M  V30 42483 H 4115.76 3.3421 5.8933 0
M  V30 42484 H 4116.7 4.73201 5.2677 0
M  V30 42485 H 4117.11 3.07411 4.73454 0
M  V30 42486 N 4116.51 -0.925766 1.27543 0
M  V30 42487 C 4117.74 -1.7077 1.16813 0
M  V30 42488 C 4118.15 -1.8679 -0.274791 0
M  V30 42489 O 4117.51 -1.38631 -1.18692 0
M  V30 42490 C 4117.56 -3.1063 1.84909 0
M  V30 42491 O 4117.28 -2.95361 3.23564 0
M  V30 42492 C 4118.78 -4.04965 1.80329 0
M  V30 42493 H 4116 -0.534199 0.406045 0
M  V30 42494 H 4118.55 -1.15952 1.6845 0
M  V30 42495 H 4116.7 -3.62302 1.37172 0
M  V30 42496 H 4117.11 -3.83794 3.57495 0
M  V30 42497 H 4118.59 -5.00607 2.32586 0
M  V30 42498 H 4119.07 -4.32343 0.773051 0
M  V30 42499 H 4119.67 -3.59218 2.27689 0
M  V30 42500 N 4117.99 -1.09597 -1.13253 0
M  V30 42501 C 4119.4 -0.826018 -1.36562 0
M  V30 42502 C 4119.6 0.558809 -1.93596 0
M  V30 42503 O 4118.66 1.31334 -2.15656 0
M  V30 42504 C 4119.97 -1.91868 -2.31532 0
M  V30 42505 C 4121.52 -1.94612 -2.45143 0
M  V30 42506 C 4121.99 -3.03027 -3.43422 0
M  V30 42507 N 4123.49 -3.02278 -3.50974 0
M  V30 42508 C 4124.22 -3.82806 -4.26904 0
M  V30 42509 N 4123.72 -4.73248 -5.05973 0
M  V30 42510 N 4125.51 -3.71059 -4.22222 0
M  V30 42511 H 4117.66 -1.98874 -0.745854 0
M  V30 42512 H 4119.92 -0.863741 -0.390712 0
M  V30 42513 H 4119.63 -2.91495 -1.96783 0
M  V30 42514 H 4119.5 -1.79843 -3.31567 0
M  V30 42515 H 4121.89 -0.956227 -2.79178 0
M  V30 42516 H 4121.97 -2.10715 -1.45027 0
M  V30 42517 H 4121.62 -4.0223 -3.10118 0
M  V30 42518 H 4121.55 -2.84166 -4.43347 0
M  V30 42519 H 4124.04 -2.36736 -2.94558 0
M  V30 42520 H 4124.35 -5.31272 -5.61221 0
M  V30 42521 H 4122.69 -4.77283 -5.05199 0
M  V30 42522 H 4125.89 -2.99761 -3.59529 0
M  V30 42523 H 4126.06 -4.34055 -4.81144 0
M  V30 42524 N 4119.46 1.30512 -0.883424 0
M  V30 42525 C 4120.69 2.00072 -0.515235 0
M  V30 42526 C 4121.1 1.66404 0.900345 0
M  V30 42527 O 4120.45 0.896532 1.60337 0
M  V30 42528 C 4120.51 3.54315 -0.60838 0
M  V30 42529 C 4120.17 4.11495 -1.98799 0
M  V30 42530 C 4121.17 4.27605 -2.9572 0
M  V30 42531 C 4118.85 4.4691 -2.29296 0
M  V30 42532 C 4120.85 4.78339 -4.21272 0
M  V30 42533 C 4118.53 4.97344 -3.55094 0
M  V30 42534 C 4119.53 5.13011 -4.50897 0
M  V30 42535 O 4119.22 5.62357 -5.74464 0
M  V30 42536 H 4118.95 0.646394 -0.197864 0
M  V30 42537 H 4121.51 1.67403 -1.19018 0
M  V30 42538 H 4119.74 3.86503 0.123538 0
M  V30 42539 H 4121.43 4.05119 -0.25169 0
M  V30 42540 H 4122.19 4.00548 -2.7347 0
M  V30 42541 H 4118.07 4.33984 -1.55495 0
M  V30 42542 H 4121.61 4.90483 -4.96057 0
M  V30 42543 H 4117.51 5.23836 -3.77182 0
M  V30 42544 H 4118.28 5.80703 -5.76825 0
M  V30 42545 N 4120.94 0.644219 1.43832 0
M  V30 42546 C 4122.17 0.159755 2.06784 0
M  V30 42547 C 4122.59 -1.16201 1.47915 0
M  V30 42548 O 4121.95 -1.71582 0.585604 0
M  V30 42549 C 4122 0.0724904 3.60527 0
M  V30 42550 O 4121.1 -0.967847 4.00882 0
M  V30 42551 H 4120.44 0.0907522 0.657769 0
M  V30 42552 H 4122.97 0.884601 1.84488 0
M  V30 42553 H 4122.98 -0.113801 4.07841 0
M  V30 42554 H 4121.66 1.03743 4.02753 0
M  V30 42555 H 4120.24 -0.755071 3.65175 0
M  V30 42556 N 4122.42 -1.52811 0.385571 0
M  V30 42557 C 4123.38 -2.24952 -0.439254 0
M  V30 42558 C 4124.38 -1.26453 -0.993293 0
M  V30 42559 O 4125.57 -1.50579 -0.875885 0
M  V30 42560 C 4122.71 -3.00169 -1.6159 0
M  V30 42561 H 4123.9 -2.99283 0.192285 0
M  V30 42562 H 4121.45 -1.55693 0.137616 0
M  V30 42563 H 4122.19 -2.30129 -2.28497 0
M  V30 42564 H 4121.97 -3.72461 -1.22537 0
M  V30 42565 H 4123.46 -3.54954 -2.19995 0
M  V30 42566 N 4123.9 -0.115287 -1.57178 0
M  V30 42567 C 4125.31 0.410683 -1.82127 0
M  V30 42568 C 4125.66 1.66852 -1.03222 0
M  V30 42569 O 4124.79 2.14738 -0.267677 0
M  V30 42570 C 4125.38 0.751865 -3.30352 0
M  V30 42571 C 4123.94 1.22249 -3.55995 0
M  V30 42572 C 4123.09 0.229296 -2.7635 0
M  V30 42573 H 4126.04 -0.340469 -1.55005 0
M  V30 42574 H 4126.06 1.60962 -3.44778 0
M  V30 42575 H 4125.57 -0.163794 -3.87754 0
M  V30 42576 H 4123.67 2.15517 -3.03946 0
M  V30 42577 H 4123.78 1.17037 -4.64585 0
M  V30 42578 H 4122.15 0.715578 -2.44441 0
M  V30 42579 H 4122.93 -0.679396 -3.3651 0
M  V30 42580 N 4125.38 1.56801 0.158477 0
M  V30 42581 C 4126.79 1.72271 0.719689 0
M  V30 42582 C 4127.14 0.727872 1.82199 0
M  V30 42583 O 4126.26 -0.108005 2.1613 0
M  V30 42584 C 4126.86 3.12355 1.31225 0
M  V30 42585 C 4125.42 3.29465 1.82015 0
M  V30 42586 C 4124.57 2.68212 0.704109 0
M  V30 42587 H 4127.52 1.58558 -0.0670674 0
M  V30 42588 H 4127.54 3.11718 2.18203 0
M  V30 42589 H 4127.05 3.84738 0.509755 0
M  V30 42590 H 4125.15 2.6206 2.64868 0
M  V30 42591 H 4125.26 4.37319 1.95676 0
M  V30 42592 H 4123.63 2.28368 1.12783 0
M  V30 42593 H 4124.41 3.4319 -0.0867532 0
M  V30 42594 N 4126.86 -0.427458 1.51692 0
M  V30 42595 C 4128.1 -1.17373 1.64524 0
M  V30 42596 C 4128.42 -1.91486 0.368516 0
M  V30 42597 O 4127.69 -1.85963 -0.616002 0
M  V30 42598 H 4126.27 -0.436262 0.60637 0
M  V30 42599 H 4128.94 -0.489119 1.88663 0
M  V30 42600 H 4128.03 -1.89789 2.47763 0
M  V30 42601 N 4128.33 -1.42005 -0.683539 0
M  V30 42602 C 4129.61 -1.32494 -1.43892 0
M  V30 42603 C 4129.99 0.041833 -2.11059 0
M  V30 42604 O 4129.34 1.05682 -2.02592 0
M  V30 42605 C 4129.55 -2.48694 -2.44852 0
M  V30 42606 C 4130.9 -2.90411 -3.09753 0
M  V30 42607 O 4131.92 -2.48521 -2.55178 0
M  V30 42608 O 4130.78 -3.62887 -4.08626 0
M  V30 42609 H 4127.87 -0.522055 -0.641395 0
M  V30 42610 H 4130.42 -1.53995 -0.713 0
M  V30 42611 H 4129.19 -3.39847 -1.93958 0
M  V30 42612 H 4128.81 -2.29133 -3.24937 0
M  V30 42613 N 4129.81 0.918989 -1.28033 0
M  V30 42614 C 4130.74 2.03759 -1.14038 0
M  V30 42615 C 4131.72 1.70054 -0.0395249 0
M  V30 42616 O 4132.91 1.93 -0.21558 0
M  V30 42617 C 4130.04 3.38056 -0.795953 0
M  V30 42618 C 4128.99 3.85904 -1.851 0
M  V30 42619 C 4128.32 5.17106 -1.36033 0
M  V30 42620 C 4129.62 4.08338 -3.25665 0
M  V30 42621 H 4131.31 2.15725 -2.07613 0
M  V30 42622 H 4128.86 1.03656 -0.999576 0
M  V30 42623 H 4130.81 4.15798 -0.684836 0
M  V30 42624 H 4129.53 3.26128 0.175501 0
M  V30 42625 H 4128.19 3.10362 -1.95117 0
M  V30 42626 H 4127.84 5.01577 -0.378092 0
M  V30 42627 H 4127.54 5.5009 -2.06577 0
M  V30 42628 H 4129.07 5.97409 -1.26233 0
M  V30 42629 H 4130.48 4.76621 -3.18599 0
M  V30 42630 H 4128.88 4.52644 -3.93997 0
M  V30 42631 H 4129.95 3.13329 -3.70072 0
M  V30 42632 N 4131.29 1.10196 1.12671 0
M  V30 42633 C 4132.7 0.860974 1.65663 0
M  V30 42634 C 4133.05 -0.609175 1.86503 0
M  V30 42635 O 4132.18 -1.46825 1.5897 0
M  V30 42636 C 4132.77 1.55637 3.00936 0
M  V30 42637 C 4131.33 1.36215 3.50888 0
M  V30 42638 C 4130.48 1.60736 2.25963 0
M  V30 42639 H 4133.43 1.26001 0.964849 0
M  V30 42640 H 4133.45 0.993975 3.67288 0
M  V30 42641 H 4132.96 2.62634 2.85736 0
M  V30 42642 H 4131.06 0.31371 3.71277 0
M  V30 42643 H 4131.18 2.10243 4.30505 0
M  V30 42644 H 4129.54 1.02994 2.32947 0
M  V30 42645 H 4130.32 2.68979 2.13319 0
M  V30 42646 N 4132.77 -1.30042 0.890333 0
M  V30 42647 C 4134.18 -1.48488 0.585092 0
M  V30 42648 C 4134.38 -1.81471 -0.875819 0
M  V30 42649 O 4133.44 -1.90554 -1.65667 0
M  V30 42650 C 4134.75 -2.60451 1.50285 0
M  V30 42651 C 4136.3 -2.7433 1.50706 0
M  V30 42652 C 4136.78 -3.89411 2.41087 0
M  V30 42653 N 4138.27 -3.9673 2.39081 0
M  V30 42654 C 4139 -4.85099 3.05723 0
M  V30 42655 N 4138.5 -5.78226 3.81611 0
M  V30 42656 N 4140.29 -4.78512 2.94928 0
M  V30 42657 H 4132.44 -1.06907 1.83534 0
M  V30 42658 H 4134.7 -0.530141 0.78591 0
M  V30 42659 H 4134.41 -2.42916 2.54332 0
M  V30 42660 H 4134.28 -3.57048 1.2164 0
M  V30 42661 H 4136.67 -2.91267 0.474084 0
M  V30 42662 H 4136.75 -1.78337 1.83384 0
M  V30 42663 H 4136.4 -3.7323 3.44473 0
M  V30 42664 H 4136.33 -4.84753 2.05723 0
M  V30 42665 H 4138.82 -3.30114 1.83938 0
M  V30 42666 H 4139.13 -6.4243 4.29539 0
M  V30 42667 H 4137.48 -5.78141 3.85718 0
M  V30 42668 H 4140.67 -4.04741 2.35165 0
M  V30 42669 H 4140.84 -5.47172 3.47142 0
M  V30 42670 N 4134.25 -0.651838 -1.43488 0
M  V30 42671 C 4135.66 -0.244632 -1.8509 0
M  V30 42672 C 4136.01 1.2085 -1.54563 0
M  V30 42673 O 4135.13 1.92224 -0.993919 0
M  V30 42674 C 4135.73 -0.437209 -3.35967 0
M  V30 42675 C 4134.29 -0.0843342 -3.76306 0
M  V30 42676 C 4133.43 -0.740735 -2.67224 0
M  V30 42677 H 4136.38 -0.855604 -1.3366 0
M  V30 42678 H 4136.41 0.3177 -3.79171 0
M  V30 42679 H 4135.92 -1.4949 -3.58154 0
M  V30 42680 H 4134.02 0.970812 -3.5973 0
M  V30 42681 H 4134.13 -0.508836 -4.7639 0
M  V30 42682 H 4132.5 -0.174098 -2.54104 0
M  V30 42683 H 4133.28 -1.80143 -2.92239 0
M  V30 42684 N 4135.72 1.52604 -0.39367 0
M  V30 42685 C 4136.63 2.3031 0.446602 0
M  V30 42686 C 4137.65 1.37401 1.06756 0
M  V30 42687 O 4138.83 1.70473 1.07243 0
M  V30 42688 C 4135.89 3.09805 1.55634 0
M  V30 42689 C 4134.95 4.18428 0.96004 0
M  V30 42690 C 4134.18 4.94122 2.0169 0
M  V30 42691 O 4134.41 4.69953 3.23265 0
M  V30 42692 O 4133.34 5.79359 1.63175 0
M  V30 42693 H 4137.17 3.03127 -0.186548 0
M  V30 42694 H 4134.75 1.4857 -0.157271 0
M  V30 42695 H 4136.63 3.59356 2.20094 0
M  V30 42696 H 4135.31 2.39797 2.17438 0
M  V30 42697 H 4134.22 3.73061 0.278582 0
M  V30 42698 H 4135.55 4.90683 0.386159 0
M  V30 42699 N 4137.2 0.12362 1.57114 0
M  V30 42700 C 4138.43 -0.540068 1.99416 0
M  V30 42701 C 4138.84 -1.6047 1.0023 0
M  V30 42702 O 4138.18 -1.83696 -0.0122778 0
M  V30 42703 C 4138.24 -1.22082 3.38136 0
M  V30 42704 C 4137.91 -0.30359 4.5599 0
M  V30 42705 C 4138.91 0.459615 5.17864 0
M  V30 42706 C 4136.59 -0.213313 5.01847 0
M  V30 42707 C 4138.58 1.30078 6.23986 0
M  V30 42708 C 4136.27 0.631481 6.07829 0
M  V30 42709 C 4137.27 1.38715 6.68765 0
M  V30 42710 O 4136.96 2.21791 7.72699 0
M  V30 42711 H 4136.69 -0.14718 0.659783 0
M  V30 42712 H 4139.24 0.208164 2.04342 0
M  V30 42713 H 4137.47 -2.01622 3.29978 0
M  V30 42714 H 4139.16 -1.78188 3.64697 0
M  V30 42715 H 4139.93 0.399768 4.8335 0
M  V30 42716 H 4135.81 -0.791196 4.5416 0
M  V30 42717 H 4139.35 1.89109 6.71479 0
M  V30 42718 H 4135.25 0.692705 6.41772 0
M  V30 42719 H 4136.02 2.14783 7.89817 0
M  V30 42720 N 4138.68 -1.56883 -0.15016 0
M  V30 42721 C 4139.96 -1.74086 -0.891811 0
M  V30 42722 C 4140.34 -0.690786 -1.99478 0
M  V30 42723 O 4139.68 0.290837 -2.26642 0
M  V30 42724 C 4139.89 -3.18035 -1.43717 0
M  V30 42725 C 4141.24 -3.79626 -1.90182 0
M  V30 42726 O 4142.27 -3.21445 -1.53465 0
M  V30 42727 O 4141.13 -4.81828 -2.57883 0
M  V30 42728 H 4138.22 -0.711685 -0.421228 0
M  V30 42729 H 4140.77 -1.69151 -0.136332 0
M  V30 42730 H 4139.54 -3.85958 -0.644355 0
M  V30 42731 H 4139.16 -3.27383 -2.25624 0
M  V30 42732 N 4140.16 0.419408 -1.51917 0
M  V30 42733 C 4141.09 1.51736 -1.77478 0
M  V30 42734 C 4142.07 1.5819 -0.625291 0
M  V30 42735 O 4143.25 1.7363 -0.869846 0
M  V30 42736 C 4140.38 2.89658 -1.91613 0
M  V30 42737 C 4139.34 2.98059 -3.07156 0
M  V30 42738 C 4138.66 4.38134 -3.065 0
M  V30 42739 C 4139.96 2.70487 -4.46804 0
M  V30 42740 H 4141.66 1.30597 -2.69416 0
M  V30 42741 H 4139.2 0.626827 -1.29641 0
M  V30 42742 H 4141.16 3.66444 -2.08078 0
M  V30 42743 H 4139.88 3.12068 -0.963387 0
M  V30 42744 H 4138.54 2.23715 -2.90426 0
M  V30 42745 H 4138.19 4.57539 -2.08967 0
M  V30 42746 H 4137.89 4.44682 -3.84099 0
M  V30 42747 H 4139.41 5.1687 -3.25081 0
M  V30 42748 H 4140.83 3.37 -4.63793 0
M  V30 42749 H 4139.22 2.88423 -5.26243 0
M  V30 42750 H 4140.29 1.65983 -4.55607 0
M  V30 42751 N 4141.64 1.42366 0.675998 0
M  V30 42752 C 4142.55 1.4815 1.81903 0
M  V30 42753 C 4143.56 0.37035 1.70013 0
M  V30 42754 O 4144.74 0.621069 1.91585 0
M  V30 42755 C 4141.8 1.38034 3.18037 0
M  V30 42756 C 4140.86 2.59631 3.41892 0
M  V30 42757 C 4140.1 2.49988 4.71531 0
M  V30 42758 O 4140.32 1.53509 5.49355 0
M  V30 42759 O 4139.25 3.40099 4.96605 0
M  V30 42760 H 4143.08 2.44624 1.7998 0
M  V30 42761 H 4140.67 1.24117 0.831589 0
M  V30 42762 H 4142.55 1.34751 3.99275 0
M  V30 42763 H 4141.22 0.446845 3.20601 0
M  V30 42764 H 4140.13 2.68489 2.60508 0
M  V30 42765 H 4141.46 3.51875 3.44158 0
M  V30 42766 N 4143.11 -0.912187 1.28518 0
M  V30 42767 C 4144.04 -2.03151 1.15117 0
M  V30 42768 C 4145.03 -1.70031 0.0485427 0
M  V30 42769 O 4146.21 -1.92883 0.225812 0
M  V30 42770 C 4143.34 -3.37629 0.81387 0
M  V30 42771 C 4142.29 -3.84917 1.87144 0
M  V30 42772 C 4141.62 -5.16378 1.38774 0
M  V30 42773 C 4142.92 -4.06605 3.27826 0
M  V30 42774 H 4144.61 -2.14621 2.08754 0
M  V30 42775 H 4142.16 -1.03124 1.00506 0
M  V30 42776 H 4144.11 -4.15429 0.706877 0
M  V30 42777 H 4142.84 -3.26217 -0.158203 0
M  V30 42778 H 4141.5 -3.09323 1.96761 0
M  V30 42779 H 4141.14 -5.01369 0.404687 0
M  V30 42780 H 4140.84 -5.48987 2.09492 0
M  V30 42781 H 4142.37 -5.96731 1.294 0
M  V30 42782 H 4143.78 -4.74925 3.21122 0
M  V30 42783 H 4142.18 -4.50548 3.96392 0
M  V30 42784 H 4143.25 -3.11362 3.71728 0
M  V30 42785 N 4144.59 -1.10792 -1.12085 0
M  V30 42786 C 4145.84 -0.847419 -1.83035 0
M  V30 42787 C 4146.15 0.629019 -1.8521 0
M  V30 42788 O 4147.36 1.00554 -2.52193 0
M  V30 42789 C 4145.82 -1.46621 -3.2868 0
M  V30 42790 C 4145.42 -2.9762 -3.34853 0
M  V30 42791 C 4147.17 -1.28526 -4.04575 0
M  V30 42792 C 4145.08 -3.52516 -4.74854 0
M  V30 42793 H 4144.01 -0.313359 -0.6858 0
M  V30 42794 H 4146.66 -1.33235 -1.26177 0
M  V30 42795 H 4145.04 -0.908951 -3.85427 0
M  V30 42796 H 4146.21 -3.59693 -2.88024 0
M  V30 42797 H 4144.53 -3.14912 -2.72432 0
M  V30 42798 H 4147.12 -1.66979 -5.07959 0
M  V30 42799 H 4147.47 -0.227178 -4.1568 0
M  V30 42800 H 4148 -1.81079 -3.54197 0
M  V30 42801 H 4144.74 -4.58007 -4.68946 0
M  V30 42802 H 4144.26 -2.95213 -5.2212 0
M  V30 42803 H 4145.94 -3.50556 -5.43801 0
M  V30 42804 N 4146.07 1.29568 -0.897217 0
M  V30 42805 C 4147.3 1.99804 -0.537205 0
M  V30 42806 C 4147.71 1.67172 0.877437 0
M  V30 42807 O 4147.07 0.915425 1.5788 0
M  V30 42808 C 4147.12 3.54319 -0.716965 0
M  V30 42809 O 4146.84 3.85794 -2.07592 0
M  V30 42810 C 4148.34 4.41823 -0.361571 0
M  V30 42811 H 4145.56 0.63847 -0.20639 0
M  V30 42812 H 4148.11 1.65163 -1.20588 0
M  V30 42813 H 4146.26 3.87282 -0.0955011 0
M  V30 42814 H 4146.68 4.80473 -2.10347 0
M  V30 42815 H 4148.15 5.4937 -0.538195 0
M  V30 42816 H 4148.63 4.33566 0.701224 0
M  V30 42817 H 4149.23 4.14327 -0.959872 0
M  V30 42818 N 4147.55 0.659438 1.4314 0
M  V30 42819 C 4148.77 0.181679 2.06603 0
M  V30 42820 C 4149.2 -1.14626 1.49139 0
M  V30 42821 O 4148.56 -1.70951 0.603769 0
M  V30 42822 C 4148.6 0.110725 3.6043 0
M  V30 42823 O 4147.71 -0.925273 4.01886 0
M  V30 42824 H 4147.05 0.0977236 0.656769 0
M  V30 42825 H 4149.58 0.904118 1.8354 0
M  V30 42826 H 4149.59 -0.0705372 4.07939 0
M  V30 42827 H 4148.26 1.08009 4.0163 0
M  V30 42828 H 4146.84 -0.716296 3.65956 0
M  V30 42829 N 4149.03 -1.52393 0.401757 0
M  V30 42830 C 4150.27 -2.0364 -0.176042 0
M  V30 42831 C 4150.63 -1.2812 -1.43001 0
M  V30 42832 O 4151.83 -1.69555 -2.08578 0
M  V30 42833 C 4150.1 -3.54863 -0.42513 0
M  V30 42834 S 4151.66 -4.27912 -0.971431 0
M  V30 42835 H 4148.48 -0.709346 -0.0484761 0
M  V30 42836 H 4151.08 -1.87516 0.552977 0
M  V30 42837 H 4149.79 -4.07411 0.494424 0
M  V30 42838 H 4149.32 -3.75216 -1.18223 0
M  V30 42839 H 4151.33 -4.42119 -2.25268 0
M  V30 42840 N 4150.5 -0.131951 -1.57047 0
M  V30 42841 C 4151.73 0.533539 -2.0042 0
M  V30 42842 C 4152.15 1.58603 -1.01128 0
M  V30 42843 O 4151.51 1.81294 0.0151935 0
M  V30 42844 C 4151.56 1.12466 -3.42613 0
M  V30 42845 O 4150.66 2.23992 -3.46267 0
M  V30 42846 H 4150.01 0.132031 -0.650741 0
M  V30 42847 H 4152.54 -0.224247 -2.03367 0
M  V30 42848 H 4152.55 1.45703 -3.81097 0
M  V30 42849 H 4151.22 0.353822 -4.14392 0
M  V30 42850 H 4149.8 1.92098 -3.19614 0
M  V30 42851 N 4151.98 1.5696 0.141838 0
M  V30 42852 C 4153.21 1.88162 0.87235 0
M  V30 42853 C 4153.63 0.721525 1.73711 0
M  V30 42854 O 4152.99 -0.328725 1.78295 0
M  V30 42855 C 4153.04 3.17979 1.70064 0
M  V30 42856 O 4152.14 3.02276 2.8054 0
M  V30 42857 H 4151.48 0.618071 0.242661 0
M  V30 42858 H 4154.01 2.0418 0.1311 0
M  V30 42859 H 4154.02 3.5013 2.0946 0
M  V30 42860 H 4152.7 4.02015 1.06566 0
M  V30 42861 H 4151.28 2.81545 2.44514 0
M  V30 42862 N 4153.46 -0.411345 1.52137 0
M  V30 42863 C 4154.41 -1.52156 1.7593 0
M  V30 42864 C 4155.4 -1.57395 0.626344 0
M  V30 42865 O 4156.61 -1.60829 0.808339 0
M  V30 42866 H 4152.98 -0.505988 0.556309 0
M  V30 42867 H 4154.95 -1.29273 2.68944 0
M  V30 42868 C 4153.7 -2.89549 1.92502 0
M  V30 42869 H 4153.03 -2.86259 2.79098 0
M  V30 42870 H 4154.47 -3.66529 2.1315 0
M  V30 42871 C 4152.93 -3.29726 0.69153 0
M  V30 42872 O 4153.46 -4.0145 -0.141641 0
M  V30 42873 N 4151.66 -2.85762 0.52807 0
M  V30 42874 H 4151.21 -2.27563 1.20717 0
M  V30 42875 H 4151.17 -3.13004 -0.295939 0
M  V30 42876 N 4154.94 -1.42722 -0.668439 0
M  V30 42877 C 4156.19 -1.43744 -1.43058 0
M  V30 42878 C 4156.52 -0.0558997 -1.9412 0
M  V30 42879 O 4155.79 0.920874 -1.71319 0
M  V30 42880 C 4156.08 -2.46717 -2.62303 0
M  V30 42881 C 4155.93 -3.94086 -2.16832 0
M  V30 42882 C 4157.25 -2.46603 -3.6452 0
M  V30 42883 H 4154.37 -0.523421 -0.518845 0
M  V30 42884 H 4157.01 -1.74177 -0.759113 0
M  V30 42885 H 4155.16 -2.20897 -3.19589 0
M  V30 42886 H 4156.83 -4.3091 -1.64664 0
M  V30 42887 H 4155.07 -4.07647 -1.48345 0
M  V30 42888 H 4155.75 -4.61725 -3.02513 0
M  V30 42889 H 4158.22 -2.6958 -3.16964 0
M  V30 42890 H 4157.1 -3.2062 -4.45526 0
M  V30 42891 H 4157.36 -1.49429 -4.16081 0
M  V30 42892 N 4156.42 0.905358 -1.29 0
M  V30 42893 C 4157.64 1.69417 -1.19635 0
M  V30 42894 C 4158.07 1.86557 0.2404 0
M  V30 42895 O 4157.43 1.38179 1.17372 0
M  V30 42896 C 4157.47 3.05932 -1.90887 0
M  V30 42897 O 4156.58 3.93878 -1.22205 0
M  V30 42898 H 4155.92 0.518454 -0.414851 0
M  V30 42899 H 4158.45 1.13142 -1.7047 0
M  V30 42900 H 4158.46 3.56111 -1.99121 0
M  V30 42901 H 4157.13 2.92775 -2.95391 0
M  V30 42902 H 4155.71 3.52312 -1.22191 0
M  V30 42903 N 4157.9 1.11385 1.11495 0
M  V30 42904 C 4159.14 0.863624 1.83492 0
M  V30 42905 C 4159.47 -0.609227 1.84396 0
M  V30 42906 O 4158.75 -1.44976 1.29662 0
M  V30 42907 C 4159.03 1.42515 3.30698 0
M  V30 42908 C 4158.89 2.96558 3.38192 0
M  V30 42909 C 4160.2 1.07561 4.26754 0
M  V30 42910 H 4157.32 0.315185 0.666204 0
M  V30 42911 H 4159.97 1.37863 1.30743 0
M  V30 42912 H 4158.12 0.987119 3.7575 0
M  V30 42913 H 4159.79 3.4896 3.01702 0
M  V30 42914 H 4158.03 3.32655 2.7843 0
M  V30 42915 H 4158.7 3.30935 4.41799 0
M  V30 42916 H 4161.18 1.45374 3.89879 0
M  V30 42917 H 4160.05 1.49528 5.28141 0
M  V30 42918 H 4160.31 -0.0136996 4.42098 0
M  V30 42919 N 4159.37 -1.2909 0.904076 0
M  V30 42920 C 4160.34 -2.25859 0.389929 0
M  V30 42921 C 4161.34 -1.53521 -0.478333 0
M  V30 42922 O 4162.53 -1.7189 -0.282763 0
M  V30 42923 C 4159.66 -3.38022 -0.442066 0
M  V30 42924 H 4160.85 -2.72854 1.24463 0
M  V30 42925 H 4158.4 -1.40607 0.682605 0
M  V30 42926 H 4159.14 -2.96373 -1.31657 0
M  V30 42927 H 4158.92 -3.91686 0.180136 0
M  V30 42928 H 4160.41 -4.10003 -0.792949 0
M  V30 42929 N 4160.85 -0.66702 -1.42789 0
M  V30 42930 C 4161.78 0.00230257 -2.335 0
M  V30 42931 C 4162.76 0.79751 -1.50246 0
M  V30 42932 O 4163.95 0.756226 -1.78871 0
M  V30 42933 C 4161.08 0.959737 -3.33776 0
M  V30 42934 C 4160.03 0.273674 -4.27124 0
M  V30 42935 C 4159.36 1.34351 -5.17546 0
M  V30 42936 C 4160.66 -0.842501 -5.1546 0
M  V30 42937 H 4162.35 -0.755263 -2.89717 0
M  V30 42938 H 4159.9 -0.364646 -1.39307 0
M  V30 42939 H 4161.85 1.437 -3.96142 0
M  V30 42940 H 4160.57 1.74863 -2.75845 0
M  V30 42941 H 4159.23 -0.183274 -3.66142 0
M  V30 42942 H 4158.88 2.12419 -4.55946 0
M  V30 42943 H 4158.58 0.889636 -5.80826 0
M  V30 42944 H 4160.11 1.82186 -5.82787 0
M  V30 42945 H 4161.52 -0.4468 -5.71556 0
M  V30 42946 H 4159.92 -1.22169 -5.87533 0
M  V30 42947 H 4160.99 -1.69462 -4.54324 0
M  V30 42948 N 4162.33 1.52178 -0.409833 0
M  V30 42949 C 4163.61 1.9431 0.224308 0
M  V30 42950 C 4163.99 1.34677 1.62559 0
M  V30 42951 O 4163.33 0.522856 2.22438 0
M  V30 42952 C 4163.54 3.48242 0.229928 0
M  V30 42953 C 4164.89 4.2222 0.448937 0
M  V30 42954 O 4165.92 3.54855 0.309254 0
M  V30 42955 O 4164.78 5.41679 0.724324 0
M  V30 42956 H 4161.87 0.814235 0.144745 0
M  V30 42957 H 4164.42 1.63181 -0.465827 0
M  V30 42958 H 4163.19 3.8403 -0.750799 0
M  V30 42959 H 4162.81 3.85733 0.964133 0
M  V30 42960 N 4163.81 0.140278 1.56974 0
M  V30 42961 C 4165.03 -0.522903 2.007 0
M  V30 42962 C 4165.46 -1.58064 1.01967 0
M  V30 42963 O 4164.82 -1.81299 -0.00557883 0
M  V30 42964 C 4164.86 -1.10647 3.43205 0
M  V30 42965 O 4163.97 -2.22153 3.4745 0
M  V30 42966 H 4163.31 -0.128579 0.651432 0
M  V30 42967 H 4165.84 0.235029 2.03246 0
M  V30 42968 H 4165.85 -1.4368 3.81864 0
M  V30 42969 H 4164.52 -0.331841 4.14574 0
M  V30 42970 H 4163.1 -1.904 3.20628 0
M  V30 42971 N 4165.29 -1.57033 -0.133512 0
M  V30 42972 C 4166.7 -1.52001 -0.486596 0
M  V30 42973 C 4166.9 -0.850931 -1.82651 0
M  V30 42974 O 4165.96 -0.427134 -2.48861 0
M  V30 42975 C 4167.27 -2.96772 -0.484463 0
M  V30 42976 C 4168.82 -3.07784 -0.569035 0
M  V30 42977 C 4169.29 -4.54087 -0.597435 0
M  V30 42978 N 4170.78 -4.58484 -0.659282 0
M  V30 42979 C 4171.52 -5.69081 -0.702464 0
M  V30 42980 N 4171.02 -6.89212 -0.704171 0
M  V30 42981 N 4172.81 -5.57149 -0.744372 0
M  V30 42982 H 4164.96 -1.9892 0.744617 0
M  V30 42983 H 4167.22 -0.907821 0.273065 0
M  V30 42984 H 4166.93 -3.49035 0.432139 0
M  V30 42985 H 4166.8 -3.53441 -1.31754 0
M  V30 42986 H 4169.19 -2.55532 -1.47606 0
M  V30 42987 H 4169.27 -2.54134 0.291446 0
M  V30 42988 H 4168.91 -5.0698 0.305484 0
M  V30 42989 H 4168.84 -5.05533 -1.4746 0
M  V30 42990 H 4171.34 -3.72008 -0.664716 0
M  V30 42991 H 4171.65 -7.69255 -0.739342 0
M  V30 42992 H 4169.99 -6.91745 -0.671828 0
M  V30 42993 H 4173.18 -4.62209 -0.740302 0
M  V30 42994 H 4173.36 -6.43354 -0.774559 0
M  V30 42995 N 4166.76 0.403271 -1.52353 0
M  V30 42996 C 4168.01 1.14741 -1.6637 0
M  V30 42997 C 4168.33 1.90876 -0.398933 0
M  V30 42998 O 4167.6 1.86919 0.586339 0
M  V30 42999 H 4166.18 0.42656 -0.613234 0
M  V30 43000 H 4168.84 0.459042 -1.89417 0
M  V30 43001 H 4167.94 1.85824 -2.50751 0
M  V30 43002 N 4168.24 1.43075 0.66086 0
M  V30 43003 C 4169.66 1.26307 0.975638 0
M  V30 43004 C 4169.86 0.177276 2.00719 0
M  V30 43005 O 4168.91 -0.446852 2.48515 0
M  V30 43006 C 4170.23 2.62478 1.46717 0
M  V30 43007 C 4171.77 2.69947 1.58422 0
M  V30 43008 C 4172.25 4.06517 2.10968 0
M  V30 43009 N 4173.74 4.08543 2.18282 0
M  V30 43010 C 4174.48 5.11042 2.60045 0
M  V30 43011 N 4173.97 6.23919 3.0116 0
M  V30 43012 N 4175.76 4.98397 2.59917 0
M  V30 43013 H 4167.92 2.12389 -0.0218673 0
M  V30 43014 H 4170.18 0.94653 0.0527805 0
M  V30 43015 H 4169.88 3.42858 0.783652 0
M  V30 43016 H 4169.76 2.87352 2.44353 0
M  V30 43017 H 4172.15 1.89904 2.25877 0
M  V30 43018 H 4172.23 2.48846 0.592389 0
M  V30 43019 H 4171.87 4.87024 1.44118 0
M  V30 43020 H 4171.8 4.24978 3.10968 0
M  V30 43021 H 4174.29 3.27062 1.89312 0
M  V30 43022 H 4174.6 6.97968 3.31754 0
M  V30 43023 H 4172.95 6.27403 2.98983 0
M  V30 43024 H 4176.14 4.09283 2.27168 0
M  V30 43025 H 4176.31 5.78408 2.92143 0
M  V30 43026 N 4169.72 -0.898504 1.29478 0
M  V30 43027 C 4171.14 -1.17951 1.07516 0
M  V30 43028 C 4171.34 -2.00758 -0.172779 0
M  V30 43029 O 4170.39 -2.37031 -0.870208 0
M  V30 43030 C 4171.71 -1.8993 2.33125 0
M  V30 43031 C 4173.25 -2.02751 2.38456 0
M  V30 43032 C 4173.73 -2.7814 3.63871 0
M  V30 43033 N 4175.22 -2.85694 3.646 0
M  V30 43034 C 4175.95 -3.44566 4.58325 0
M  V30 43035 N 4175.45 -4.04596 5.62383 0
M  V30 43036 N 4177.24 -3.42252 4.45893 0
M  V30 43037 H 4169.39 -0.346039 2.09562 0
M  V30 43038 H 4171.66 -0.215798 0.923112 0
M  V30 43039 H 4171.36 -1.3652 3.24122 0
M  V30 43040 H 4171.24 -2.90398 2.40726 0
M  V30 43041 H 4173.62 -2.55335 1.47946 0
M  V30 43042 H 4173.71 -1.01412 2.34839 0
M  V30 43043 H 4173.35 -2.26231 4.54733 0
M  V30 43044 H 4173.28 -3.79826 3.64746 0
M  V30 43045 H 4175.77 -2.43059 2.89363 0
M  V30 43046 H 4176.08 -4.47544 6.3002 0
M  V30 43047 H 4174.43 -4.03054 5.66191 0
M  V30 43048 H 4177.62 -2.94574 3.63791 0
M  V30 43049 H 4177.79 -3.87839 5.1912 0
M  V30 43050 N 4171.2 -1.11974 -1.10903 0
M  V30 43051 C 4172.61 -0.854799 -1.34779 0
M  V30 43052 C 4172.81 0.517619 -1.94738 0
M  V30 43053 O 4171.87 1.2673 -2.18394 0
M  V30 43054 C 4173.18 -1.96736 -2.2741 0
M  V30 43055 C 4174.73 -1.99768 -2.4096 0
M  V30 43056 C 4175.21 -3.10243 -3.36917 0
M  V30 43057 N 4176.7 -3.09654 -3.44483 0
M  V30 43058 C 4177.43 -3.91776 -4.18688 0
M  V30 43059 N 4176.93 -4.83874 -4.9582 0
M  V30 43060 N 4178.72 -3.79931 -4.14257 0
M  V30 43061 H 4170.87 -2.00411 -0.703502 0
M  V30 43062 H 4173.14 -0.871834 -0.372302 0
M  V30 43063 H 4172.84 -2.95604 -1.90555 0
M  V30 43064 H 4172.72 -1.86835 -3.27677 0
M  V30 43065 H 4175.1 -1.01523 -2.77087 0
M  V30 43066 H 4175.18 -2.13744 -1.40525 0
M  V30 43067 H 4174.83 -4.08718 -3.01517 0
M  V30 43068 H 4174.76 -2.93507 -4.3722 0
M  V30 43069 H 4177.25 -2.42931 -2.89471 0
M  V30 43070 H 4177.56 -5.43057 -5.49826 0
M  V30 43071 H 4175.91 -4.87891 -4.94962 0
M  V30 43072 H 4179.1 -3.0732 -3.53089 0
M  V30 43073 H 4179.27 -4.44164 -4.71829 0
M  V30 43074 N 4172.68 1.28609 -0.910909 0
M  V30 43075 C 4173.91 1.98934 -0.557557 0
M  V30 43076 C 4174.31 1.68277 0.864845 0
M  V30 43077 O 4173.66 0.93034 1.58399 0
M  V30 43078 C 4173.72 3.52945 -0.683398 0
M  V30 43079 C 4173.38 4.07185 -2.07483 0
M  V30 43080 C 4174.38 4.21236 -3.04723 0
M  V30 43081 C 4172.07 4.41946 -2.38724 0
M  V30 43082 C 4174.06 4.69296 -4.31324 0
M  V30 43083 C 4171.75 4.897 -3.65564 0
M  V30 43084 C 4172.74 5.03332 -4.61678 0
M  V30 43085 O 4172.43 5.50046 -5.86264 0
M  V30 43086 H 4172.16 0.642052 -0.211531 0
M  V30 43087 H 4174.72 1.64841 -1.22542 0
M  V30 43088 H 4172.95 3.86678 0.0415276 0
M  V30 43089 H 4174.64 4.04494 -0.337565 0
M  V30 43090 H 4175.4 3.94658 -2.81905 0
M  V30 43091 H 4171.28 4.30588 -1.64666 0
M  V30 43092 H 4174.83 4.79851 -5.06349 0
M  V30 43093 H 4170.72 5.15718 -3.88208 0
M  V30 43094 H 4171.49 5.68337 -5.89012 0
M  V30 43095 N 4174.15 0.674583 1.42433 0
M  V30 43096 C 4175.4 0.196756 2.01542 0
M  V30 43097 C 4175.73 -1.19663 1.53333 0
M  V30 43098 O 4174.98 -1.81731 0.726098 0
M  V30 43099 C 4175.28 0.179758 3.56948 0
M  V30 43100 C 4174.95 1.51779 4.24587 0
M  V30 43101 C 4173.61 1.88415 4.42779 0
M  V30 43102 C 4175.96 2.39901 4.62706 0
M  V30 43103 C 4173.29 3.12798 4.96361 0
M  V30 43104 C 4175.64 3.63596 5.17668 0
M  V30 43105 C 4174.31 4.00402 5.34074 0
M  V30 43106 H 4173.58 0.0719982 0.737494 0
M  V30 43107 H 4176.22 0.869525 1.70621 0
M  V30 43108 H 4174.53 -0.57652 3.87535 0
M  V30 43109 H 4176.23 -0.207156 4.00465 0
M  V30 43110 H 4172.82 1.22279 4.10787 0
M  V30 43111 H 4177 2.12882 4.48325 0
M  V30 43112 H 4172.26 3.41335 5.07248 0
M  V30 43113 H 4176.43 4.32082 5.46149 0
M  V30 43114 H 4174.06 4.96859 5.75357 0
M  V30 43115 N 4175.63 -1.51958 0.417898 0
M  V30 43116 C 4176.56 -2.30149 -0.394181 0
M  V30 43117 C 4177.54 -1.34729 -1.03837 0
M  V30 43118 O 4178.73 -1.63641 -1.04572 0
M  V30 43119 C 4175.86 -3.12932 -1.50634 0
M  V30 43120 C 4174.81 -4.16471 -0.986686 0
M  V30 43121 C 4174.14 -4.87654 -2.19311 0
M  V30 43122 C 4175.44 -5.22289 -0.03461 0
M  V30 43123 H 4177.13 -2.98284 0.258281 0
M  V30 43124 H 4174.68 -1.43451 0.125658 0
M  V30 43125 H 4176.63 -3.66403 -2.0815 0
M  V30 43126 H 4175.36 -2.42583 -2.18681 0
M  V30 43127 H 4174.01 -3.64024 -0.433866 0
M  V30 43128 H 4173.66 -4.13825 -2.85933 0
M  V30 43129 H 4173.36 -5.57655 -1.85189 0
M  V30 43130 H 4174.89 -5.43941 -2.77417 0
M  V30 43131 H 4176.3 -5.70947 -0.518851 0
M  V30 43132 H 4174.7 -5.99703 0.218229 0
M  V30 43133 H 4175.77 -4.76322 0.908031 0
M  V30 43134 N 4177.11 -0.1486 -1.56898 0
M  V30 43135 C 4178.34 0.509012 -2.00541 0
M  V30 43136 C 4178.75 1.58313 -1.0287 0
M  V30 43137 O 4178.11 1.82482 -0.0259618 0
M  V30 43138 C 4178.16 1.10819 -3.44095 0
M  V30 43139 O 4177.88 0.076971 -4.38032 0
M  V30 43140 C 4179.38 1.84626 -4.03024 0
M  V30 43141 H 4176.6 0.132367 -0.657815 0
M  V30 43142 H 4179.15 -0.243654 -2.03043 0
M  V30 43143 H 4177.3 1.81147 -3.42439 0
M  V30 43144 H 4177.72 0.516164 -5.21954 0
M  V30 43145 H 4179.19 2.21838 -5.05462 0
M  V30 43146 H 4179.67 2.73277 -3.43826 0
M  V30 43147 H 4180.27 1.18993 -4.08315 0
M  V30 43148 N 4178.59 1.57102 0.125182 0
M  V30 43149 C 4180 1.52257 0.478528 0
M  V30 43150 C 4180.2 0.860605 1.82197 0
M  V30 43151 O 4179.26 0.440325 2.48631 0
M  V30 43152 C 4180.57 2.97024 0.468718 0
M  V30 43153 C 4182.12 3.08081 0.552705 0
M  V30 43154 C 4182.6 4.54397 0.573345 0
M  V30 43155 N 4184.09 4.58827 0.634959 0
M  V30 43156 C 4184.82 5.69445 0.672275 0
M  V30 43157 N 4184.32 6.89576 0.66761 0
M  V30 43158 N 4186.11 5.57536 0.714815 0
M  V30 43159 H 4178.26 1.98522 -0.755156 0
M  V30 43160 H 4180.53 0.90636 -0.277876 0
M  V30 43161 H 4180.23 3.48801 -0.450643 0
M  V30 43162 H 4180.11 3.54135 1.29877 0
M  V30 43163 H 4182.49 2.56311 1.46249 0
M  V30 43164 H 4182.57 2.53976 -0.304919 0
M  V30 43165 H 4182.22 5.06811 -0.332366 0
M  V30 43166 H 4182.15 5.06308 1.44777 0
M  V30 43167 H 4184.64 3.72355 0.644978 0
M  V30 43168 H 4184.95 7.69636 0.698536 0
M  V30 43169 H 4183.3 6.92092 0.635134 0
M  V30 43170 H 4186.49 4.62595 0.715779 0
M  V30 43171 H 4186.66 6.43756 0.740429 0
M  V30 43172 N 4180.07 -0.395186 1.52565 0
M  V30 43173 C 4181.34 -1.15467 1.57882 0
M  V30 43174 C 4181.72 -2.07863 0.368247 0
M  V30 43175 O 4181.07 -2.1924 -0.643895 0
M  V30 43176 C 4181.28 -1.91977 2.91455 0
M  V30 43177 C 4182.63 -2.47556 3.44965 0
M  V30 43178 O 4183.65 -2.02141 2.93287 0
M  V30 43179 O 4182.51 -3.30498 4.35239 0
M  V30 43180 H 4179.61 -0.527982 0.636525 0
M  V30 43181 H 4182.15 -0.400838 1.64898 0
M  V30 43182 H 4180.92 -1.24373 3.71008 0
M  V30 43183 H 4180.55 -2.74335 2.87795 0
M  V30 43184 N 4181.54 -1.43423 -0.653263 0
M  V30 43185 C 4182.96 -1.40066 -1.23444 0
M  V30 43186 C 4183.31 -0.104711 -1.9592 0
M  V30 43187 O 4182.43 0.795844 -2.01234 0
M  V30 43188 C 4183.03 -2.53726 -2.24518 0
M  V30 43189 C 4181.59 -2.53634 -2.78113 0
M  V30 43190 C 4180.73 -2.31433 -1.52755 0
M  V30 43191 H 4183.68 -1.52325 -0.445285 0
M  V30 43192 H 4183.7 -2.25212 -3.06692 0
M  V30 43193 H 4183.22 -3.48033 -1.7174 0
M  V30 43194 H 4181.32 -1.63206 -3.34954 0
M  V30 43195 H 4181.43 -3.514 -3.25661 0
M  V30 43196 H 4179.79 -1.801 -1.80101 0
M  V30 43197 H 4180.58 -3.27825 -1.01912 0
M  V30 43198 N 4183.02 0.891625 -1.29953 0
M  V30 43199 C 4184.25 1.67612 -1.213 0
M  V30 43200 C 4184.67 1.87452 0.22517 0
M  V30 43201 O 4184.02 1.41729 1.14974 0
M  V30 43202 C 4184.07 3.05618 -1.9308 0
M  V30 43203 O 4183.79 2.86678 -3.31281 0
M  V30 43204 C 4185.3 4.00041 -1.91003 0
M  V30 43205 H 4182.52 0.523245 -0.420066 0
M  V30 43206 H 4185.06 1.11445 -1.71465 0
M  V30 43207 H 4183.21 3.58537 -1.4673 0
M  V30 43208 H 4183.63 3.74181 -3.67545 0
M  V30 43209 H 4185.1 4.94265 -2.45777 0
M  V30 43210 H 4185.58 4.30142 -0.887407 0
M  V30 43211 H 4186.19 3.53055 -2.37133 0
M  V30 43212 N 4184.5 1.12561 1.10308 0
M  V30 43213 C 4185.73 0.904613 1.86076 0
M  V30 43214 C 4186.14 -0.546193 1.80727 0
M  V30 43215 O 4185.5 -1.37768 1.19692 0
M  V30 43216 C 4185.55 1.37274 3.34422 0
M  V30 43217 O 4185.27 2.76667 3.39686 0
M  V30 43218 C 4186.77 1.18886 4.27061 0
M  V30 43219 H 4183.99 0.32317 0.588049 0
M  V30 43220 H 4186.54 1.4959 1.39438 0
M  V30 43221 H 4184.69 0.824645 3.78521 0
M  V30 43222 H 4185.11 2.9724 4.32144 0
M  V30 43223 H 4186.58 1.56527 5.29342 0
M  V30 43224 H 4187.06 0.129579 4.39009 0
M  V30 43225 H 4187.66 1.72452 3.88768 0
M  V30 43226 N 4185.98 -1.28124 0.917717 0
M  V30 43227 C 4187.39 -1.76833 0.598916 0
M  V30 43228 C 4187.74 -1.75064 -0.885826 0
M  V30 43229 O 4186.87 -1.34781 -1.69301 0
M  V30 43230 C 4187.46 -3.21111 1.08042 0
M  V30 43231 C 4186.02 -3.67527 0.812466 0
M  V30 43232 C 4185.17 -2.47787 1.24487 0
M  V30 43233 H 4188.12 -1.14531 1.09856 0
M  V30 43234 H 4188.14 -3.78134 0.423621 0
M  V30 43235 H 4187.65 -3.22366 2.16106 0
M  V30 43236 H 4185.75 -3.71728 -0.254793 0
M  V30 43237 H 4185.87 -4.5748 1.42299 0
M  V30 43238 H 4184.23 -2.45905 0.663553 0
M  V30 43239 H 4185.01 -2.51758 2.33394 0
M  V30 43240 N 4187.46 -0.682127 -1.42073 0
M  V30 43241 C 4188.71 -0.204616 -2.00659 0
M  V30 43242 C 4189.02 1.1983 -1.54597 0
M  V30 43243 O 4190.23 1.77257 -2.05651 0
M  V30 43244 C 4188.68 -0.314943 -3.58519 0
M  V30 43245 C 4188.29 -1.72237 -4.13568 0
M  V30 43246 C 4190.03 0.103481 -4.24374 0
M  V30 43247 C 4187.94 -1.78507 -5.63817 0
M  V30 43248 H 4186.87 -0.0727385 -0.750483 0
M  V30 43249 H 4189.52 -0.848374 -1.62711 0
M  V30 43250 H 4187.9 0.396836 -3.94007 0
M  V30 43251 H 4189.08 -2.46182 -3.89526 0
M  V30 43252 H 4187.39 -2.08929 -3.60191 0
M  V30 43253 H 4189.99 0.0768849 -5.34645 0
M  V30 43254 H 4190.33 1.13998 -4.00387 0
M  V30 43255 H 4190.87 -0.557546 -3.93873 0
M  V30 43256 H 4187.6 -2.80164 -5.92612 0
M  V30 43257 H 4187.12 -1.08928 -5.89826 0
M  V30 43258 H 4188.8 -1.54183 -6.2836 0
M  V30 43259 N 4188.94 1.51735 -0.425951 0
M  V30 43260 C 4190.16 2.06403 0.143315 0
M  V30 43261 C 4190.58 1.29448 1.37436 0
M  V30 43262 O 4189.94 0.35089 1.79095 0
M  V30 43263 C 4189.99 3.5834 0.476954 0
M  V30 43264 O 4189.71 4.32387 -0.705224 0
M  V30 43265 C 4191.21 4.29483 1.09813 0
M  V30 43266 H 4188.43 0.670875 0.0129651 0
M  V30 43267 H 4190.97 1.95446 -0.601753 0
M  V30 43268 H 4189.13 3.69249 1.17192 0
M  V30 43269 H 4189.54 5.22794 -0.422691 0
M  V30 43270 H 4191.02 5.36915 1.28166 0
M  V30 43271 H 4191.49 3.87039 2.07599 0
M  V30 43272 H 4192.1 4.22988 0.442882 0
M  V30 43273 N 4190.41 0.156919 1.56817 0
M  V30 43274 C 4191.83 -0.199404 1.58349 0
M  V30 43275 C 4192.03 -1.63935 1.17165 0
M  V30 43276 O 4191.09 -2.36797 0.876551 0
M  V30 43277 C 4192.4 0.0683525 3.00622 0
M  V30 43278 C 4193.95 0.00542453 3.13 0
M  V30 43279 C 4194.42 0.245979 4.57339 0
M  V30 43280 N 4195.91 0.193252 4.62797 0
M  V30 43281 C 4196.65 0.353753 5.72308 0
M  V30 43282 N 4196.14 0.572521 6.9043 0
M  V30 43283 N 4197.94 0.290662 5.61348 0
M  V30 43284 H 4190.09 1.097 1.81878 0
M  V30 43285 H 4192.35 0.435017 0.842297 0
M  V30 43286 H 4192.06 1.0653 3.35178 0
M  V30 43287 H 4191.93 -0.646582 3.71617 0
M  V30 43288 H 4194.32 -0.982081 2.78279 0
M  V30 43289 H 4194.4 0.752844 2.44471 0
M  V30 43290 H 4194.04 1.23063 4.92766 0
M  V30 43291 H 4193.97 -0.521882 5.24008 0
M  V30 43292 H 4196.46 0.029223 3.77889 0
M  V30 43293 H 4196.78 0.68483 7.6976 0
M  V30 43294 H 4195.12 0.608963 6.92327 0
M  V30 43295 H 4198.31 0.120443 4.67945 0
M  V30 43296 H 4198.49 0.419177 6.46643 0
M  V30 43297 N 4191.89 -1.57166 -0.116849 0
M  V30 43298 C 4192.85 -1.9956 -1.12731 0
M  V30 43299 C 4193.85 -0.88604 -1.34186 0
M  V30 43300 O 4195.04 -1.15203 -1.30667 0
M  V30 43301 C 4192.18 -2.3376 -2.48131 0
M  V30 43302 H 4193.37 -2.90034 -0.762897 0
M  V30 43303 H 4190.92 -1.52069 -0.361213 0
M  V30 43304 H 4191.66 -1.46173 -2.89489 0
M  V30 43305 H 4191.44 -3.14686 -2.33912 0
M  V30 43306 H 4192.93 -2.67292 -3.2085 0
M  V30 43307 N 4193.37 0.38709 -1.52772 0
M  V30 43308 C 4194.33 1.45568 -1.77039 0
M  V30 43309 C 4195.33 1.47496 -0.640436 0
M  V30 43310 O 4196.52 1.48633 -0.908504 0
M  V30 43311 C 4193.65 2.84843 -1.87289 0
M  V30 43312 H 4194.85 1.25334 -2.72454 0
M  V30 43313 H 4192.4 0.618945 -1.43523 0
M  V30 43314 H 4193.14 3.10419 -0.938655 0
M  V30 43315 H 4192.92 2.84844 -2.69455 0
M  V30 43316 H 4194.41 3.62268 -2.0773 0
M  V30 43317 N 4194.85 1.43768 0.645648 0
M  V30 43318 C 4196.09 1.46997 1.40583 0
M  V30 43319 C 4196.45 0.0955803 1.92162 0
M  V30 43320 O 4195.74 -0.88698 1.69833 0
M  V30 43321 C 4195.94 2.45364 2.59868 0
M  V30 43322 C 4195.76 3.92232 2.19964 0
M  V30 43323 C 4194.53 4.60536 2.0793 0
M  V30 43324 C 4196.73 4.81855 1.79777 0
M  V30 43325 N 4194.71 5.92293 1.61437 0
M  V30 43326 C 4196.09 6.02945 1.44422 0
M  V30 43327 C 4198.14 4.69048 1.67028 0
M  V30 43328 C 4196.84 7.12649 0.975933 0
M  V30 43329 C 4198.87 5.78763 1.21604 0
M  V30 43330 C 4198.23 6.98983 0.871904 0
M  V30 43331 H 4194.33 0.592989 0.509792 0
M  V30 43332 H 4196.91 1.79998 0.742204 0
M  V30 43333 H 4195.09 2.14377 3.23878 0
M  V30 43334 H 4196.82 2.38982 3.26603 0
M  V30 43335 H 4193.57 4.15146 2.27927 0
M  V30 43336 H 4194 6.62254 1.4053 0
M  V30 43337 H 4198.64 3.76553 1.92271 0
M  V30 43338 H 4196.36 8.04966 0.710999 0
M  V30 43339 H 4199.94 5.70875 1.12218 0
M  V30 43340 H 4198.82 7.82435 0.525787 0
M  V30 43341 N 4196.33 -0.884721 1.30424 0
M  V30 43342 C 4197.24 -2.02325 1.18751 0
M  V30 43343 C 4198.25 -1.73668 0.107385 0
M  V30 43344 O 4199.43 -1.98803 0.322367 0
M  V30 43345 C 4196.49 -3.35335 0.88042 0
M  V30 43346 C 4195.55 -3.77412 2.04594 0
M  V30 43347 C 4194.79 -5.04075 1.7534 0
M  V30 43348 O 4195.01 -5.66315 0.681449 0
M  V30 43349 O 4193.94 -5.42566 2.60588 0
M  V30 43350 H 4197.77 -2.15101 2.14395 0
M  V30 43351 H 4195.35 -1.01074 1.1002 0
M  V30 43352 H 4197.24 -4.15127 0.724373 0
M  V30 43353 H 4195.91 -3.23667 -0.0461104 0
M  V30 43354 H 4194.82 -2.98323 2.25731 0
M  V30 43355 H 4196.15 -3.93685 2.9542 0
M  V30 43356 N 4197.8 -1.13144 -1.09709 0
M  V30 43357 C 4199.03 -0.914468 -1.85594 0
M  V30 43358 C 4199.45 0.5366 -1.81014 0
M  V30 43359 O 4198.8 1.37131 -1.20421 0
M  V30 43360 C 4198.85 -1.39045 -3.3369 0
M  V30 43361 O 4198.58 -2.78465 -3.38214 0
M  V30 43362 C 4200.08 -1.21149 -4.26424 0
M  V30 43363 H 4197.3 -0.326284 -0.586327 0
M  V30 43364 H 4199.84 -1.50328 -1.38643 0
M  V30 43365 H 4198 -0.844707 -3.78079 0
M  V30 43366 H 4198.41 -2.99527 -4.30562 0
M  V30 43367 H 4199.88 -1.59332 -5.28505 0
M  V30 43368 H 4200.36 -0.152859 -4.38934 0
M  V30 43369 H 4200.97 -1.74511 -3.87848 0
M  V30 43370 N 4199.28 1.27635 -0.924498 0
M  V30 43371 C 4200.53 1.94797 -0.564088 0
M  V30 43372 C 4200.86 1.72511 0.891832 0
M  V30 43373 O 4200.14 1.05231 1.63575 0
M  V30 43374 C 4200.42 3.49006 -0.886949 0
M  V30 43375 C 4200.27 3.80649 -2.39639 0
M  V30 43376 C 4201.59 4.38363 -0.390591 0
M  V30 43377 H 4198.71 0.707505 -0.206412 0
M  V30 43378 H 4201.35 1.5081 -1.1557 0
M  V30 43379 H 4199.5 3.86603 -0.383474 0
M  V30 43380 H 4201.17 3.52861 -2.97131 0
M  V30 43381 H 4199.42 3.27313 -2.84691 0
M  V30 43382 H 4200.09 4.88375 -2.57282 0
M  V30 43383 H 4202.56 4.07899 -0.822044 0
M  V30 43384 H 4201.44 5.45092 -0.645477 0
M  V30 43385 H 4201.7 4.36373 0.709289 0
M  V30 43386 N 4200.76 0.689652 1.41709 0
M  V30 43387 C 4202.18 0.360625 1.55472 0
M  V30 43388 C 4202.38 -1.13289 1.66637 0
M  V30 43389 O 4201.43 -1.91861 1.64151 0
M  V30 43390 C 4202.75 1.10397 2.79702 0
M  V30 43391 C 4204.29 1.08773 2.93492 0
M  V30 43392 C 4204.77 1.8127 4.20601 0
M  V30 43393 N 4206.26 1.78211 4.27546 0
M  V30 43394 C 4206.99 2.31149 5.24745 0
M  V30 43395 N 4206.49 2.92533 6.2801 0
M  V30 43396 N 4208.28 2.21439 5.16644 0
M  V30 43397 H 4200.43 1.65839 1.32707 0
M  V30 43398 H 4202.7 0.69951 0.639836 0
M  V30 43399 H 4202.4 2.1589 2.77641 0
M  V30 43400 H 4202.28 0.678727 3.71043 0
M  V30 43401 H 4204.66 0.0410875 2.95071 0
M  V30 43402 H 4204.75 1.55198 2.0334 0
M  V30 43403 H 4204.39 2.85911 4.19783 0
M  V30 43404 H 4204.32 1.32284 5.09714 0
M  V30 43405 H 4206.81 1.33451 3.53552 0
M  V30 43406 H 4207.12 3.3051 6.98558 0
M  V30 43407 H 4205.47 2.96609 6.28529 0
M  V30 43408 H 4208.66 1.7316 4.34895 0
M  V30 43409 H 4208.83 2.63 5.92229 0
M  V30 43410 N 4202.24 -1.51507 0.433991 0
M  V30 43411 C 4203.19 -2.24517 -0.397011 0
M  V30 43412 C 4204.17 -1.26613 -0.992873 0
M  V30 43413 O 4205.36 -1.51722 -0.911569 0
M  V30 43414 C 4202.49 -3.08821 -1.49948 0
M  V30 43415 C 4201.58 -4.14152 -0.913174 0
M  V30 43416 N 4201.97 -5.05769 -0.0557379 0
M  V30 43417 C 4200.27 -4.30077 -1.18111 0
M  V30 43418 C 4200.97 -5.81058 0.273182 0
M  V30 43419 N 4199.95 -5.42521 -0.34235 0
M  V30 43420 H 4203.75 -2.92711 0.264095 0
M  V30 43421 H 4201.26 -1.60528 0.245866 0
M  V30 43422 H 4203.26 -3.597 -2.10764 0
M  V30 43423 H 4201.92 -2.4217 -2.16295 0
M  V30 43424 H 4202.93 -5.16969 0.31045 0
M  V30 43425 H 4199.61 -3.74653 -1.84233 0
M  V30 43426 H 4201 -6.64851 0.970712 0
M  V30 43427 N 4203.72 -0.165233 -1.56731 0
M  V30 43428 C 4204.94 0.490907 -2.01506 0
M  V30 43429 C 4205.37 1.56422 -1.04469 0
M  V30 43430 O 4204.72 1.81285 -0.023265 0
M  V30 43431 C 4204.77 1.05173 -3.44922 0
M  V30 43432 O 4203.88 2.16597 -3.50941 0
M  V30 43433 H 4203.22 0.118199 -0.653395 0
M  V30 43434 H 4205.75 -0.267334 -2.02846 0
M  V30 43435 H 4205.76 1.37586 -3.84102 0
M  V30 43436 H 4204.43 0.265843 -4.15049 0
M  V30 43437 H 4203.01 1.85275 -3.23617 0
M  V30 43438 N 4205.19 1.57226 0.108512 0
M  V30 43439 C 4206.61 1.74474 0.664518 0
M  V30 43440 C 4206.96 0.785469 1.79791 0
M  V30 43441 O 4206.08 -0.0391901 2.16365 0
M  V30 43442 C 4206.68 3.16371 1.21222 0
M  V30 43443 C 4205.24 3.35089 1.71441 0
M  V30 43444 C 4204.38 2.70316 0.618423 0
M  V30 43445 H 4207.33 1.58265 -0.117478 0
M  V30 43446 H 4207.35 3.18502 2.08175 0
M  V30 43447 H 4206.87 3.86165 0.387096 0
M  V30 43448 H 4204.97 2.70354 2.56397 0
M  V30 43449 H 4205.08 4.43323 1.81664 0
M  V30 43450 H 4203.44 2.31841 1.0546 0
M  V30 43451 H 4204.23 3.42741 -0.195893 0
M  V30 43452 N 4206.67 -0.378982 1.52975 0
M  V30 43453 C 4207.92 -1.12468 1.68757 0
M  V30 43454 C 4208.25 -1.89351 0.431276 0
M  V30 43455 O 4207.53 -1.85924 -0.571171 0
M  V30 43456 C 4207.81 -2.0948 2.92899 0
M  V30 43457 C 4207.66 -1.36295 4.28654 0
M  V30 43458 C 4208.98 -3.09779 3.1261 0
M  V30 43459 H 4206.1 -0.407494 0.614099 0
M  V30 43460 H 4208.74 -0.40694 1.85591 0
M  V30 43461 H 4206.89 -2.70686 2.78678 0
M  V30 43462 H 4208.56 -0.779761 4.54662 0
M  V30 43463 H 4206.81 -0.664776 4.28676 0
M  V30 43464 H 4207.48 -2.07232 5.11624 0
M  V30 43465 H 4209.95 -2.5867 3.25928 0
M  V30 43466 H 4208.83 -3.74894 4.00931 0
M  V30 43467 H 4209.09 -3.79205 2.27279 0
M  V30 43468 N 4208.15 -1.44108 -0.638015 0
M  V30 43469 C 4209.1 -1.50733 -1.77151 0
M  V30 43470 C 4210.09 -0.379596 -1.65092 0
M  V30 43471 O 4211.3 -0.554248 -1.71254 0
M  V30 43472 H 4207.67 -0.472853 -0.584734 0
M  V30 43473 H 4209.64 -2.46146 -1.68685 0
M  V30 43474 C 4208.39 -1.4621 -3.15465 0
M  V30 43475 H 4207.72 -2.32298 -3.25388 0
M  V30 43476 H 4209.16 -1.54906 -3.9469 0
M  V30 43477 C 4207.62 -0.181843 -3.36409 0
M  V30 43478 O 4208.15 0.750749 -3.94622 0
M  V30 43479 N 4206.35 -0.0871717 -2.90469 0
M  V30 43480 H 4205.9 -0.846913 -2.4328 0
M  V30 43481 H 4205.86 0.768691 -3.04858 0
M  V30 43482 N 4209.63 0.877792 -1.30891 0
M  V30 43483 C 4210.85 1.66842 -1.23202 0
M  V30 43484 C 4211.28 1.87025 0.200775 0
M  V30 43485 O 4210.64 1.40638 1.14414 0
M  V30 43486 C 4210.68 3.01814 -1.97333 0
M  V30 43487 O 4209.79 3.91197 -1.30533 0
M  V30 43488 H 4209.13 0.509538 -0.425755 0
M  V30 43489 H 4211.66 1.09501 -1.72831 0
M  V30 43490 H 4211.67 3.51807 -2.0663 0
M  V30 43491 H 4210.34 2.86444 -3.01534 0
M  V30 43492 H 4208.92 3.49641 -1.29637 0
M  V30 43493 N 4211.11 1.13725 1.09108 0
M  V30 43494 C 4212.35 0.9123 1.81793 0
M  V30 43495 C 4212.71 -0.55549 1.84207 0
M  V30 43496 O 4212 -1.40594 1.30168 0
M  V30 43497 C 4212.19 1.4381 3.2719 0
M  V30 43498 C 4212.02 2.95548 3.38941 0
M  V30 43499 C 4210.79 3.63925 3.50552 0
M  V30 43500 C 4212.99 3.93464 3.31196 0
M  V30 43501 N 4210.97 5.03645 3.5102 0
M  V30 43502 C 4212.34 5.19393 3.38572 0
M  V30 43503 C 4214.4 3.85683 3.14885 0
M  V30 43504 C 4213.1 6.38453 3.31317 0
M  V30 43505 C 4215.13 5.04281 3.08957 0
M  V30 43506 C 4214.49 6.29076 3.16928 0
M  V30 43507 H 4210.59 0.38728 0.679366 0
M  V30 43508 H 4213.17 1.44606 1.30373 0
M  V30 43509 H 4211.34 0.931212 3.77072 0
M  V30 43510 H 4213.08 1.15381 3.87904 0
M  V30 43511 H 4209.83 3.14456 3.54139 0
M  V30 43512 H 4210.26 5.76563 3.5483 0
M  V30 43513 H 4214.9 2.90083 3.0759 0
M  V30 43514 H 4212.62 7.34305 3.37374 0
M  V30 43515 H 4216.2 5.00005 2.97467 0
M  V30 43516 H 4215.08 7.19306 3.12361 0
M  V30 43517 N 4212.58 -1.27143 0.931254 0
M  V30 43518 C 4213.51 -2.29112 0.450545 0
M  V30 43519 C 4214.5 -1.62859 -0.491015 0
M  V30 43520 O 4215.68 -1.9014 -0.395003 0
M  V30 43521 C 4212.81 -3.46051 -0.294259 0
M  V30 43522 C 4211.76 -4.24323 0.559802 0
M  V30 43523 C 4211.09 -5.33775 -0.314379 0
M  V30 43524 C 4212.39 -4.89338 1.82609 0
M  V30 43525 H 4214.08 -2.69572 1.30275 0
M  V30 43526 H 4211.63 -1.29591 0.627868 0
M  V30 43527 H 4213.58 -4.16488 -0.641519 0
M  V30 43528 H 4212.31 -3.04518 -1.18052 0
M  V30 43529 H 4210.97 -3.55637 0.889818 0
M  V30 43530 H 4210.61 -4.88484 -1.1997 0
M  V30 43531 H 4210.31 -5.87053 0.253592 0
M  V30 43532 H 4211.84 -6.07054 -0.657131 0
M  V30 43533 H 4213.25 -5.52042 1.54668 0
M  V30 43534 H 4211.65 -5.52689 2.33784 0
M  V30 43535 H 4212.72 -4.12838 2.54348 0
M  V30 43536 N 4214.06 -0.697157 -1.41342 0
M  V30 43537 C 4215.31 -0.228343 -2.00806 0
M  V30 43538 C 4215.63 1.17665 -1.55499 0
M  V30 43539 O 4214.9 1.79427 -0.786304 0
M  V30 43540 H 4213.48 -0.0814304 -0.742548 0
M  V30 43541 H 4216.14 -0.898671 -1.72945 0
M  V30 43542 H 4215.24 -0.247009 -3.11121 0
M  V30 43543 N 4215.54 1.51274 -0.44202 0
M  V30 43544 C 4216.49 2.29452 0.381401 0
M  V30 43545 C 4217.48 1.35498 1.01669 0
M  V30 43546 O 4218.69 1.52819 0.951123 0
M  V30 43547 H 4215.06 0.738507 0.141813 0
M  V30 43548 H 4217.04 2.96901 -0.298744 0
M  V30 43549 C 4215.78 3.15214 1.4675 0
M  V30 43550 H 4215.11 3.87399 0.988024 0
M  V30 43551 H 4216.55 3.72962 2.01681 0
M  V30 43552 C 4215.01 2.30893 2.45336 0
M  V30 43553 O 4215.54 1.9718 3.49976 0
M  V30 43554 N 4213.74 1.94026 2.16338 0
M  V30 43555 H 4213.29 2.21642 1.31272 0
M  V30 43556 H 4213.25 1.37907 2.8254 0
M  V30 43557 N 4217.02 0.173543 1.56642 0
M  V30 43558 C 4218.27 -0.47094 1.96125 0
M  V30 43559 C 4218.58 -1.64238 1.06232 0
M  V30 43560 O 4219.79 -2.35324 1.35406 0
M  V30 43561 C 4218.24 -0.889223 3.48742 0
M  V30 43562 C 4217.85 0.256741 4.47264 0
M  V30 43563 C 4219.6 -1.502 3.97039 0
M  V30 43564 C 4217.5 -0.181297 5.91122 0
M  V30 43565 H 4216.43 -0.179711 0.73227 0
M  V30 43566 H 4219.08 0.262128 1.81618 0
M  V30 43567 H 4217.47 -1.67833 3.58675 0
M  V30 43568 H 4218.64 1.03409 4.49047 0
M  V30 43569 H 4216.95 0.779618 4.09037 0
M  V30 43570 H 4219.55 -1.84181 5.01977 0
M  V30 43571 H 4219.89 -2.40072 3.40104 0
M  V30 43572 H 4220.43 -0.777282 3.90132 0
M  V30 43573 H 4217.17 0.682706 6.51935 0
M  V30 43574 H 4216.69 -0.923959 5.92641 0
M  V30 43575 H 4218.37 -0.624419 6.4398 0
M  V30 43576 N 4218.5 -1.57281 -0.100172 0
M  V30 43577 C 4219.75 -1.85015 -0.803263 0
M  V30 43578 C 4220.06 -0.762049 -1.80145 0
M  V30 43579 O 4221.27 -0.926356 -2.55208 0
M  V30 43580 C 4219.72 -3.2809 -1.47936 0
M  V30 43581 C 4219.33 -4.44958 -0.521203 0
M  V30 43582 C 4221.07 -3.65053 -2.16648 0
M  V30 43583 C 4218.98 -5.79064 -1.2016 0
M  V30 43584 H 4217.91 -0.690118 -0.303732 0
M  V30 43585 H 4220.56 -1.83414 -0.0561497 0
M  V30 43586 H 4218.94 -3.24216 -2.27376 0
M  V30 43587 H 4220.12 -4.60168 0.24133 0
M  V30 43588 H 4218.43 -4.16357 0.0599426 0
M  V30 43589 H 4221.03 -4.62527 -2.68278 0
M  V30 43590 H 4221.37 -2.93423 -2.95311 0
M  V30 43591 H 4221.91 -3.70793 -1.44075 0
M  V30 43592 H 4218.64 -6.53913 -0.455886 0
M  V30 43593 H 4218.16 -5.67707 -1.93569 0
M  V30 43594 H 4219.84 -6.23455 -1.72952 0
M  V30 43595 N 4219.98 0.370864 -1.53174 0
M  V30 43596 C 4220.91 1.474 -1.75516 0
M  V30 43597 C 4221.92 1.49869 -0.635845 0
M  V30 43598 O 4223.11 1.53444 -0.911983 0
M  V30 43599 C 4220.21 2.86186 -1.81524 0
M  V30 43600 C 4219.38 3.07474 -3.11093 0
M  V30 43601 C 4218.44 4.26344 -3.08411 0
M  V30 43602 O 4217.47 4.21773 -3.82225 0
M  V30 43603 N 4218.67 5.33482 -2.28861 0
M  V30 43604 H 4221.43 1.28615 -2.70699 0
M  V30 43605 H 4219 0.560544 -1.51887 0
M  V30 43606 H 4220.99 3.63837 -1.77213 0
M  V30 43607 H 4219.56 2.98243 -0.936476 0
M  V30 43608 H 4218.78 2.17528 -3.28748 0
M  V30 43609 H 4220.07 3.18562 -3.96731 0
M  V30 43610 H 4219.46 5.40057 -1.68391 0
M  V30 43611 H 4218.02 6.0973 -2.30374 0
M  V30 43612 N 4221.45 1.44444 0.630363 0
M  V30 43613 C 4222.68 1.50533 1.41504 0
M  V30 43614 C 4223.09 0.129132 1.88759 0
M  V30 43615 O 4222.43 -0.875372 1.61502 0
M  V30 43616 C 4222.5 2.40891 2.66856 0
M  V30 43617 C 4222.16 3.88045 2.41392 0
M  V30 43618 C 4223.16 4.78557 2.03173 0
M  V30 43619 C 4220.84 4.32754 2.55008 0
M  V30 43620 C 4222.84 6.11779 1.78899 0
M  V30 43621 C 4220.52 5.66024 2.30349 0
M  V30 43622 C 4221.52 6.55354 1.92353 0
M  V30 43623 O 4221.21 7.86157 1.67967 0
M  V30 43624 H 4220.94 0.512877 0.440379 0
M  V30 43625 H 4223.5 1.90094 0.77804 0
M  V30 43626 H 4221.73 1.96258 3.33196 0
M  V30 43627 H 4223.41 2.3792 3.2886 0
M  V30 43628 H 4224.18 4.45287 1.92209 0
M  V30 43629 H 4220.06 3.63481 2.83553 0
M  V30 43630 H 4223.6 6.81466 1.49166 0
M  V30 43631 H 4219.5 5.98855 2.40922 0
M  V30 43632 H 4220.27 7.97962 1.82207 0
M  V30 43633 N 4222.93 -0.870838 1.31355 0
M  V30 43634 C 4223.89 -1.95952 1.18892 0
M  V30 43635 C 4224.89 -1.60379 0.116255 0
M  V30 43636 O 4226.08 -1.70323 0.365456 0
M  V30 43637 C 4223.22 -3.30773 0.824762 0
M  V30 43638 H 4224.41 -2.08434 2.15628 0
M  V30 43639 H 4221.96 -1.05902 1.14954 0
M  V30 43640 H 4222.7 -3.23991 -0.141476 0
M  V30 43641 H 4222.48 -3.57964 1.60012 0
M  V30 43642 H 4223.97 -4.106 0.761433 0
M  V30 43643 N 4224.41 -1.14302 -1.08503 0
M  V30 43644 C 4225.82 -0.921865 -1.62353 0
M  V30 43645 C 4226.17 0.539536 -1.88636 0
M  V30 43646 O 4225.3 1.40824 -1.64309 0
M  V30 43647 C 4225.89 -1.66699 -2.94952 0
M  V30 43648 C 4224.45 -1.49145 -3.45591 0
M  V30 43649 C 4223.6 -1.69012 -2.19842 0
M  V30 43650 H 4226.55 -1.29496 -0.917419 0
M  V30 43651 H 4226.57 -1.12961 -3.63346 0
M  V30 43652 H 4226.08 -2.73058 -2.75792 0
M  V30 43653 H 4224.18 -0.451291 -3.69857 0
M  V30 43654 H 4224.3 -2.26076 -4.22406 0
M  V30 43655 H 4222.66 -1.11569 -2.28964 0
M  V30 43656 H 4223.44 -2.76711 -2.03189 0
M  V30 43657 N 4225.89 1.26648 -0.937984 0
M  V30 43658 C 4227.12 1.97994 -0.600499 0
M  V30 43659 C 4227.53 1.69879 0.823808 0
M  V30 43660 O 4226.89 0.96519 1.54888 0
M  V30 43661 C 4226.94 3.51859 -0.829326 0
M  V30 43662 O 4226.66 3.78994 -2.19761 0
M  V30 43663 C 4228.16 4.40449 -0.501951 0
M  V30 43664 H 4225.38 0.631581 -0.226598 0
M  V30 43665 H 4227.92 1.61243 -1.25782 0
M  V30 43666 H 4226.08 3.86782 -0.218664 0
M  V30 43667 H 4226.49 4.73538 -2.25526 0
M  V30 43668 H 4227.97 5.4738 -0.712701 0
M  V30 43669 H 4228.44 4.35577 0.562934 0
M  V30 43670 H 4229.05 4.11063 -1.0912 0
M  V30 43671 N 4227.37 0.704643 1.4097 0
M  V30 43672 C 4228.61 0.236513 2.00309 0
M  V30 43673 C 4228.93 -1.17355 1.56484 0
M  V30 43674 O 4230.13 -1.73963 2.08445 0
M  V30 43675 C 4228.59 0.37194 3.57973 0
M  V30 43676 C 4228.2 1.78795 4.10775 0
M  V30 43677 C 4229.94 -0.0359538 4.24485 0
M  V30 43678 C 4227.85 1.87454 5.60905 0
M  V30 43679 H 4226.78 0.0846688 0.749231 0
M  V30 43680 H 4229.43 0.874153 1.61341 0
M  V30 43681 H 4227.81 -0.334103 3.94588 0
M  V30 43682 H 4228.99 2.52348 3.85561 0
M  V30 43683 H 4227.3 2.14632 3.56822 0
M  V30 43684 H 4229.9 0.00818212 5.34699 0
M  V30 43685 H 4230.24 -1.07614 4.0215 0
M  V30 43686 H 4230.77 0.620138 3.92937 0
M  V30 43687 H 4227.51 2.89556 5.88079 0
M  V30 43688 H 4227.03 1.18298 5.88018 0
M  V30 43689 H 4228.71 1.64161 6.25828 0
M  V30 43690 N 4228.84 -1.51038 0.450036 0
M  V30 43691 C 4230.09 -2.03131 -0.104529 0
M  V30 43692 C 4230.45 -1.32741 -1.39275 0
M  V30 43693 O 4229.74 -0.437519 -1.86538 0
M  V30 43694 C 4229.93 -3.55527 -0.365386 0
M  V30 43695 C 4229.76 -4.40683 0.896001 0
M  V30 43696 C 4228.53 -4.84548 1.43323 0
M  V30 43697 C 4230.73 -4.82305 1.78566 0
M  V30 43698 N 4228.71 -5.53958 2.64583 0
M  V30 43699 C 4230.08 -5.50911 2.84424 0
M  V30 43700 C 4232.14 -4.6428 1.79856 0
M  V30 43701 C 4230.84 -6.03401 3.91534 0
M  V30 43702 C 4232.87 -5.17696 2.8591 0
M  V30 43703 C 4232.23 -5.86259 3.90487 0
M  V30 43704 H 4228.33 -0.781999 0.00124068 0
M  V30 43705 H 4230.91 -1.8478 0.613545 0
M  V30 43706 H 4229.08 -3.73868 -1.0525 0
M  V30 43707 H 4230.81 -3.9428 -0.91243 0
M  V30 43708 H 4227.57 -4.63236 0.985351 0
M  V30 43709 H 4227.99 -5.93282 3.26107 0
M  V30 43710 H 4232.64 -4.10723 1.00331 0
M  V30 43711 H 4230.35 -6.56007 4.7189 0
M  V30 43712 H 4233.94 -5.05593 2.87865 0
M  V30 43713 H 4232.82 -6.26849 4.71201 0
M  V30 43714 N 4230.32 -0.181847 -1.56547 0
M  V30 43715 C 4231.57 0.461069 -1.97489 0
M  V30 43716 C 4231.9 1.62181 -1.06822 0
M  V30 43717 O 4231.18 1.94145 -0.117483 0
M  V30 43718 C 4231.46 0.933947 -3.47778 0
M  V30 43719 C 4231.31 -0.227694 -4.49223 0
M  V30 43720 C 4232.63 1.80402 -4.01426 0
M  V30 43721 H 4229.75 0.166122 -0.718034 0
M  V30 43722 H 4232.39 -0.270103 -1.8807 0
M  V30 43723 H 4230.54 1.55699 -3.55935 0
M  V30 43724 H 4232.21 -0.865058 -4.53116 0
M  V30 43725 H 4230.46 -0.881558 -4.24748 0
M  V30 43726 H 4231.13 0.145474 -5.51808 0
M  V30 43727 H 4233.6 1.27869 -3.95966 0
M  V30 43728 H 4232.48 2.10389 -5.06979 0
M  V30 43729 H 4232.74 2.75354 -3.45879 0
M  V30 43730 N 4231.8 1.57332 0.09183 0
M  V30 43731 C 4233.22 1.53238 0.446124 0
M  V30 43732 C 4233.42 0.899058 1.80331 0
M  V30 43733 O 4232.47 0.492965 2.47641 0
M  V30 43734 C 4233.79 2.97952 0.405609 0
M  V30 43735 C 4235.33 3.09184 0.487232 0
M  V30 43736 C 4235.81 4.55511 0.476832 0
M  V30 43737 N 4237.3 4.60071 0.537492 0
M  V30 43738 C 4238.03 5.70743 0.551336 0
M  V30 43739 N 4237.53 6.90837 0.521191 0
M  V30 43740 N 4239.32 5.58927 0.596392 0
M  V30 43741 H 4231.47 1.96876 -0.797095 0
M  V30 43742 H 4233.74 0.900262 -0.297038 0
M  V30 43743 H 4233.44 3.47767 -0.524528 0
M  V30 43744 H 4233.32 3.5681 1.22336 0
M  V30 43745 H 4235.7 2.59356 1.40779 0
M  V30 43746 H 4235.79 2.53272 -0.358722 0
M  V30 43747 H 4235.43 5.05992 -0.439794 0
M  V30 43748 H 4235.36 5.09265 1.34004 0
M  V30 43749 H 4237.85 3.7364 0.565851 0
M  V30 43750 H 4238.16 7.70945 0.535128 0
M  V30 43751 H 4236.51 6.93283 0.488188 0
M  V30 43752 H 4239.7 4.64009 0.617495 0
M  V30 43753 H 4239.87 6.45182 0.603712 0
M  V30 43754 N 4233.28 -0.362736 1.53369 0
M  V30 43755 C 4234.21 -1.46704 1.74795 0
M  V30 43756 C 4235.19 -1.51268 0.596394 0
M  V30 43757 O 4236.37 -1.69276 0.829321 0
M  V30 43758 C 4233.5 -2.85051 1.82931 0
M  V30 43759 C 4232.55 -2.98199 3.04926 0
M  V30 43760 S 4233.38 -2.66657 4.64386 0
M  V30 43761 C 4234.54 -4.07149 4.75374 0
M  V30 43762 H 4234.77 -1.28309 2.68187 0
M  V30 43763 H 4232.3 -0.557246 1.43993 0
M  V30 43764 H 4234.26 -3.64763 1.88304 0
M  V30 43765 H 4232.92 -3.00754 0.905854 0
M  V30 43766 H 4232.11 -3.99527 3.07237 0
M  V30 43767 H 4231.72 -2.26412 2.9768 0
M  V30 43768 H 4234.01 -5.01429 4.55604 0
M  V30 43769 H 4234.95 -4.09841 5.77439 0
M  V30 43770 H 4235.36 -3.94281 4.03983 0
M  V30 43771 N 4234.76 -1.44777 -0.622694 0
M  V30 43772 C 4236 -1.48222 -1.38413 0
M  V30 43773 C 4236.34 -0.117629 -1.93843 0
M  V30 43774 O 4235.61 0.865904 -1.74162 0
M  V30 43775 C 4235.89 -2.54937 -2.54321 0
M  V30 43776 C 4235.75 -4.00785 -2.04185 0
M  V30 43777 C 4237.07 -2.58075 -3.5649 0
M  V30 43778 H 4234.18 -0.539662 -0.50193 0
M  V30 43779 H 4236.83 -1.76503 -0.703316 0
M  V30 43780 H 4234.98 -2.30952 -3.12399 0
M  V30 43781 H 4236.65 -4.35931 -1.50872 0
M  V30 43782 H 4234.89 -4.1216 -1.35301 0
M  V30 43783 H 4235.56 -4.71116 -2.8767 0
M  V30 43784 H 4238.04 -2.79527 -3.08227 0
M  V30 43785 H 4236.91 -3.34632 -4.35101 0
M  V30 43786 H 4237.18 -1.6259 -4.11116 0
M  V30 43787 N 4236.23 0.863859 -1.31815 0
M  V30 43788 C 4237.48 1.61219 -1.21208 0
M  V30 43789 C 4237.8 1.94278 0.227039 0
M  V30 43790 O 4239 2.67662 0.454875 0
M  V30 43791 C 4237.46 2.90668 -2.12226 0
M  V30 43792 C 4237.07 2.65069 -3.61168 0
M  V30 43793 C 4238.81 3.68671 -2.10433 0
M  V30 43794 C 4236.72 3.90463 -4.44176 0
M  V30 43795 H 4235.65 0.604931 -0.450082 0
M  V30 43796 H 4238.3 0.95464 -1.56713 0
M  V30 43797 H 4236.68 3.57831 -1.69626 0
M  V30 43798 H 4237.85 2.06276 -4.12052 0
M  V30 43799 H 4236.17 2.00411 -3.64999 0
M  V30 43800 H 4238.77 4.61704 -2.69692 0
M  V30 43801 H 4239.11 4.01695 -1.093 0
M  V30 43802 H 4239.64 3.084 -2.51266 0
M  V30 43803 H 4236.38 3.62585 -5.46088 0
M  V30 43804 H 4235.9 4.48686 -3.98047 0
M  V30 43805 H 4237.58 4.58291 -4.56704 0
M  V30 43806 N 4237.71 1.14875 1.07895 0
M  V30 43807 C 4238.65 0.784038 2.14308 0
M  V30 43808 C 4239.62 -0.237003 1.60863 0
M  V30 43809 O 4240.81 -0.124845 1.88086 0
M  V30 43810 C 4237.93 0.164952 3.38298 0
M  V30 43811 C 4236.98 1.157 4.10507 0
M  V30 43812 S 4237.81 2.69659 4.62649 0
M  V30 43813 C 4238.97 2.09155 5.8992 0
M  V30 43814 H 4239.2 1.68535 2.44915 0
M  V30 43815 H 4236.74 0.970521 1.20084 0
M  V30 43816 H 4238.69 -0.185807 4.10079 0
M  V30 43817 H 4237.35 -0.713873 3.0588 0
M  V30 43818 H 4236.55 0.671946 4.99501 0
M  V30 43819 H 4236.15 1.45202 3.44663 0
M  V30 43820 H 4238.44 1.4502 6.61797 0
M  V30 43821 H 4239.38 2.96293 6.4313 0
M  V30 43822 H 4239.79 1.5368 5.43178 0
M  V30 43823 N 4239.19 -1.26148 0.944687 0
M  V30 43824 C 4240.42 -1.97673 0.610991 0
M  V30 43825 C 4240.83 -1.70313 -0.814788 0
M  V30 43826 O 4240.19 -0.973391 -1.54374 0
M  V30 43827 C 4240.24 -3.51414 0.847974 0
M  V30 43828 O 4239.96 -3.77824 2.21768 0
M  V30 43829 C 4241.46 -4.40177 0.525302 0
M  V30 43830 H 4238.68 -0.63037 0.229944 0
M  V30 43831 H 4241.23 -1.60573 1.26635 0
M  V30 43832 H 4239.38 -3.86661 0.239173 0
M  V30 43833 H 4239.8 -4.72335 2.28034 0
M  V30 43834 H 4241.27 -5.46994 0.74172 0
M  V30 43835 H 4241.75 -4.3587 -0.539826 0
M  V30 43836 H 4242.35 -4.10479 1.11299 0
M  V30 43837 N 4240.67 -0.712109 -1.40594 0
M  V30 43838 C 4241.62 -0.0338191 -2.27975 0
M  V30 43839 C 4242.6 0.736096 -1.43075 0
M  V30 43840 O 4243.79 0.608868 -1.66198 0
M  V30 43841 C 4240.92 0.889743 -3.3157 0
M  V30 43842 C 4240.01 0.115199 -4.23944 0
M  V30 43843 N 4240.4 -0.899726 -4.97733 0
M  V30 43844 C 4238.7 0.348268 -4.44638 0
M  V30 43845 C 4239.4 -1.36482 -5.65462 0
M  V30 43846 N 4238.38 -0.68762 -5.39233 0
M  V30 43847 H 4242.18 -0.811739 -2.82468 0
M  V30 43848 H 4239.69 -0.544389 -1.53004 0
M  V30 43849 H 4241.69 1.39096 -3.93011 0
M  V30 43850 H 4240.35 1.66708 -2.78637 0
M  V30 43851 H 4241.36 -1.28047 -5.01821 0
M  V30 43852 H 4238.04 1.1022 -4.02688 0
M  V30 43853 H 4239.43 -2.20794 -6.34586 0
M  V30 43854 N 4242.15 1.50797 -0.45804 0
M  V30 43855 C 4243.39 2.02246 0.101431 0
M  V30 43856 C 4243.72 1.34092 1.40889 0
M  V30 43857 O 4242.98 0.451269 1.90426 0
M  V30 43858 C 4243.28 3.55716 0.346527 0
M  V30 43859 C 4242.94 4.42276 -0.877629 0
M  V30 43860 C 4241.6 4.65653 -1.21329 0
M  V30 43861 C 4243.96 4.92927 -1.6933 0
M  V30 43862 C 4241.28 5.36925 -2.36492 0
M  V30 43863 C 4243.64 5.65463 -2.8361 0
M  V30 43864 C 4242.3 5.87097 -3.17606 0
M  V30 43865 H 4241.57 0.74007 0.0371161 0
M  V30 43866 H 4244.22 1.81543 -0.609461 0
M  V30 43867 H 4242.52 3.74863 1.13953 0
M  V30 43868 H 4244.22 3.93077 0.793167 0
M  V30 43869 H 4240.81 4.24293 -0.606101 0
M  V30 43870 H 4244.99 4.74732 -1.44717 0
M  V30 43871 H 4240.25 5.51885 -2.63121 0
M  V30 43872 H 4244.42 6.03694 -3.47169 0
M  V30 43873 H 4242.05 6.42101 -4.06952 0
M  V30 43874 N 4243.63 0.190147 1.56449 0
M  V30 43875 C 4244.87 -0.449923 1.97438 0
M  V30 43876 C 4245.2 -1.6197 1.07685 0
M  V30 43877 O 4244.46 -1.95362 0.114893 0
M  V30 43878 C 4244.75 -0.956928 3.44351 0
M  V30 43879 C 4244.42 0.0989472 4.50791 0
M  V30 43880 C 4243.08 0.389088 4.79624 0
M  V30 43881 C 4245.43 0.814649 5.14794 0
M  V30 43882 C 4242.76 1.39999 5.69752 0
M  V30 43883 C 4245.11 1.81467 6.06014 0
M  V30 43884 C 4243.78 2.11206 6.33205 0
M  V30 43885 H 4243.05 -0.164638 0.722479 0
M  V30 43886 H 4245.7 0.286072 1.89351 0
M  V30 43887 H 4244 -1.7711 3.49484 0
M  V30 43888 H 4245.7 -1.46149 3.73419 0
M  V30 43889 H 4242.29 -0.137359 4.2838 0
M  V30 43890 H 4246.47 0.60372 4.92614 0
M  V30 43891 H 4241.73 1.63637 5.89095 0
M  V30 43892 H 4245.9 2.3745 6.54668 0
M  V30 43893 H 4243.53 2.89684 7.02842 0
M  V30 43894 N 4245.1 -1.57379 -0.083485 0
M  V30 43895 C 4246.33 -1.9127 -0.801914 0
M  V30 43896 C 4246.75 -0.785499 -1.70914 0
M  V30 43897 O 4246.11 0.262326 -1.79392 0
M  V30 43898 C 4246.16 -3.24072 -1.58145 0
M  V30 43899 O 4245.26 -3.1248 -2.69128 0
M  V30 43900 H 4244.6 -0.626651 -0.219555 0
M  V30 43901 H 4247.13 -2.04525 -0.0552302 0
M  V30 43902 H 4247.14 -3.57662 -1.9632 0
M  V30 43903 H 4245.82 -4.05694 -0.915723 0
M  V30 43904 H 4244.4 -2.90426 -2.33896 0
M  V30 43905 N 4246.58 0.354597 -1.53559 0
M  V30 43906 C 4247.83 1.09343 -1.69491 0
M  V30 43907 C 4248.14 1.90139 -0.458969 0
M  V30 43908 O 4249.35 2.66874 -0.499028 0
M  V30 43909 C 4247.81 1.99319 -2.99667 0
M  V30 43910 C 4247.41 1.23782 -4.3056 0
M  V30 43911 C 4249.16 2.73126 -3.24965 0
M  V30 43912 C 4247.06 2.12724 -5.51818 0
M  V30 43913 H 4245.99 0.411911 -0.631542 0
M  V30 43914 H 4248.65 0.353655 -1.8006 0
M  V30 43915 H 4247.03 2.77071 -2.82927 0
M  V30 43916 H 4248.2 0.510169 -4.57967 0
M  V30 43917 H 4246.52 0.617901 -4.1179 0
M  V30 43918 H 4249.11 3.3992 -4.12745 0
M  V30 43919 H 4249.46 3.39094 -2.41497 0
M  V30 43920 H 4249.99 2.02452 -3.42429 0
M  V30 43921 H 4246.73 1.51316 -6.37796 0
M  V30 43922 H 4246.25 2.83308 -5.28674 0
M  V30 43923 H 4247.93 2.72031 -5.87033 0
M  V30 43924 N 4248.06 1.45105 0.615008 0
M  V30 43925 C 4248.99 1.56046 1.737 0
M  V30 43926 C 4249.97 0.412442 1.65024 0
M  V30 43927 O 4251.16 0.634638 1.83537 0
M  V30 43928 C 4248.29 1.51973 3.12284 0
M  V30 43929 C 4247.24 2.65417 3.35765 0
M  V30 43930 C 4246.57 2.46397 4.74545 0
M  V30 43931 C 4247.87 4.07474 3.26745 0
M  V30 43932 H 4249.56 2.49963 1.648 0
M  V30 43933 H 4247.11 1.20302 0.791423 0
M  V30 43934 H 4249.06 1.58226 3.90567 0
M  V30 43935 H 4247.78 0.545825 3.22007 0
M  V30 43936 H 4246.44 2.5858 2.59869 0
M  V30 43937 H 4246.09 1.47162 4.80991 0
M  V30 43938 H 4245.79 3.22467 4.91212 0
M  V30 43939 H 4247.31 2.54492 5.55037 0
M  V30 43940 H 4248.73 4.15594 3.94911 0
M  V30 43941 H 4247.12 4.83875 3.54943 0
M  V30 43942 H 4248.19 4.29906 2.24297 0
M  V30 43943 N 4249.54 -0.856857 1.32271 0
M  V30 43944 C 4250.47 -1.98086 1.2363 0
M  V30 43945 C 4251.45 -1.69672 0.120615 0
M  V30 43946 O 4252.63 -1.91751 0.307417 0
M  V30 43947 C 4249.76 -3.33873 0.956337 0
M  V30 43948 C 4248.72 -3.76633 2.03301 0
M  V30 43949 C 4248.04 -5.10027 1.6055 0
M  V30 43950 C 4249.34 -3.92335 3.44776 0
M  V30 43951 H 4251.04 -2.05574 2.17669 0
M  V30 43952 H 4248.58 -0.987684 1.04789 0
M  V30 43953 H 4250.54 -4.12057 0.882438 0
M  V30 43954 H 4249.26 -3.26594 -0.0197011 0
M  V30 43955 H 4247.92 -3.007 2.09703 0
M  V30 43956 H 4247.57 -4.99202 0.61697 0
M  V30 43957 H 4247.27 -5.39608 2.32588 0
M  V30 43958 H 4248.79 -5.90706 1.54593 0
M  V30 43959 H 4250.21 -4.60878 3.40976 0
M  V30 43960 H 4248.6 -4.3333 4.15144 0
M  V30 43961 H 4249.67 -2.95315 3.846 0
M  V30 43962 N 4251.02 -1.15446 -1.07285 0
M  V30 43963 C 4251.98 -0.854456 -2.12677 0
M  V30 43964 C 4252.98 0.146088 -1.60135 0
M  V30 43965 O 4254.17 -0.0836258 -1.73999 0
M  V30 43966 C 4251.3 -0.275909 -3.39782 0
M  V30 43967 H 4252.49 -1.78864 -2.40723 0
M  V30 43968 H 4250.05 -0.962031 -1.23185 0
M  V30 43969 H 4250.78 0.666441 -3.17378 0
M  V30 43970 H 4250.57 -0.996732 -3.7922 0
M  V30 43971 H 4252.06 -0.0836151 -4.17516 0
M  V30 43972 N 4252.49 1.25646 -0.951364 0
M  V30 43973 C 4253.43 2.25201 -0.426292 0
M  V30 43974 C 4254.44 1.56282 0.456036 0
M  V30 43975 O 4255.63 1.76524 0.26484 0
M  V30 43976 C 4252.73 3.36466 0.405434 0
M  V30 43977 C 4251.9 4.34941 -0.463126 0
M  V30 43978 C 4250.96 5.25287 0.309855 0
M  V30 43979 O 4249.99 5.68458 -0.290623 0
M  V30 43980 N 4251.19 5.57906 1.6038 0
M  V30 43981 H 4253.95 2.70888 -1.28218 0
M  V30 43982 H 4251.51 1.39518 -0.821363 0
M  V30 43983 H 4253.51 3.93865 0.930187 0
M  V30 43984 H 4252.08 2.90194 1.16217 0
M  V30 43985 H 4251.3 3.76468 -1.16901 0
M  V30 43986 H 4252.58 4.97719 -1.05607 0
M  V30 43987 H 4251.98 5.24731 2.11363 0
M  V30 43988 H 4250.54 6.17903 2.07458 0
M  V30 43989 N 4253.97 0.719555 1.40215 0
M  V30 43990 C 4255.25 0.187754 1.94697 0
M  V30 43991 C 4255.63 -1.30736 1.65744 0
M  V30 43992 O 4254.98 -2.06547 0.977266 0
M  V30 43993 C 4255.19 0.504751 3.45331 0
M  V30 43994 C 4256.53 0.445589 4.22255 0
M  V30 43995 O 4257.56 0.44104 3.53459 0
M  V30 43996 O 4256.42 0.426583 5.44833 0
M  V30 43997 H 4253.51 0.0290521 0.82649 0
M  V30 43998 H 4256.06 0.797359 1.49801 0
M  V30 43999 H 4254.83 1.53869 3.59778 0
M  V30 44000 H 4254.45 -0.134614 3.97372 0
M  V30 44001 N 4255.45 -1.50552 0.466031 0
M  V30 44002 C 4256.68 -2.0671 -0.0885405 0
M  V30 44003 C 4257.09 -1.33046 -1.33956 0
M  V30 44004 O 4256.45 -0.39825 -1.78102 0
M  V30 44005 C 4256.5 -3.59478 -0.381779 0
M  V30 44006 O 4256.22 -4.30365 0.819616 0
M  V30 44007 C 4257.72 -4.32244 -0.983874 0
M  V30 44008 H 4254.94 -0.670983 0.00482652 0
M  V30 44009 H 4257.49 -1.93782 0.653361 0
M  V30 44010 H 4255.64 -3.72226 -1.07361 0
M  V30 44011 H 4256.06 -5.2149 0.561152 0
M  V30 44012 H 4257.53 -5.40124 -1.13886 0
M  V30 44013 H 4258.01 -3.92407 -1.97264 0
M  V30 44014 H 4258.61 -4.24013 -0.330579 0
M  V30 44015 N 4256.93 -0.198441 -1.56346 0
M  V30 44016 C 4257.86 0.716204 -2.22245 0
M  V30 44017 C 4258.84 1.21874 -1.18662 0
M  V30 44018 O 4260.02 1.26697 -1.47179 0
M  V30 44019 C 4257.15 1.93441 -2.88441 0
M  V30 44020 C 4256.11 1.56665 -3.98296 0
M  V30 44021 C 4255.43 2.86174 -4.51673 0
M  V30 44022 C 4256.73 0.774062 -5.16532 0
M  V30 44023 H 4258.43 0.166831 -2.98935 0
M  V30 44024 H 4255.97 0.0788015 -1.43784 0
M  V30 44025 H 4257.93 2.57951 -3.33225 0
M  V30 44026 H 4256.65 2.50837 -2.09161 0
M  V30 44027 H 4255.31 0.945116 -3.54208 0
M  V30 44028 H 4254.96 3.41667 -3.69152 0
M  V30 44029 H 4254.66 2.62311 -5.25801 0
M  V30 44030 H 4256.18 3.51667 -4.99162 0
M  V30 44031 H 4257.6 1.32234 -5.57841 0
M  V30 44032 H 4255.99 0.633427 -5.96748 0
M  V30 44033 H 4257.06 -0.224183 -4.84381 0
M  V30 44034 N 4258.41 1.57421 0.0751377 0
M  V30 44035 C 4259.35 2.04493 1.10839 0
M  V30 44036 C 4260.35 0.949645 1.40279 0
M  V30 44037 O 4261.55 1.13477 1.39725 0
M  V30 44038 H 4257.93 0.651966 0.374759 0
M  V30 44039 H 4259.9 2.90426 0.685206 0
M  V30 44040 C 4258.65 2.50175 2.4147 0
M  V30 44041 H 4257.97 3.34046 2.19666 0
M  V30 44042 H 4259.41 2.86868 3.12222 0
M  V30 44043 C 4257.87 1.38328 3.07192 0
M  V30 44044 O 4258.4 0.723517 3.95131 0
M  V30 44045 N 4256.61 1.12925 2.67762 0
M  V30 44046 H 4256.15 1.66757 1.96341 0
M  V30 44047 H 4256.11 0.382936 3.12059 0
M  V30 44048 N 4259.88 -0.346449 1.53745 0
M  V30 44049 C 4260.82 -1.44589 1.77839 0
M  V30 44050 C 4261.83 -1.48839 0.659607 0
M  V30 44051 O 4263.02 -1.51974 0.936279 0
M  V30 44052 C 4260.12 -2.83262 1.86054 0
M  V30 44053 C 4259.29 -3.02486 3.15945 0
M  V30 44054 C 4258.35 -4.21384 3.15154 0
M  V30 44055 O 4257.38 -4.15639 3.88887 0
M  V30 44056 N 4258.58 -5.29774 2.37319 0
M  V30 44057 H 4261.34 -1.24292 2.72711 0
M  V30 44058 H 4258.9 -0.536309 1.52759 0
M  V30 44059 H 4260.9 -3.60972 1.82979 0
M  V30 44060 H 4259.47 -2.96715 0.983805 0
M  V30 44061 H 4258.69 -2.12271 3.32167 0
M  V30 44062 H 4259.97 -3.1221 4.01749 0
M  V30 44063 H 4259.37 -5.37309 1.76961 0
M  V30 44064 H 4257.93 -6.05988 2.40045 0
M  V30 44065 N 4261.36 -1.45429 -0.607304 0
M  V30 44066 C 4262.31 -1.54457 -1.73913 0
M  V30 44067 C 4263.3 -0.414529 -1.6425 0
M  V30 44068 O 4264.51 -0.590449 -1.7004 0
M  V30 44069 H 4260.89 -0.48515 -0.574572 0
M  V30 44070 H 4262.86 -2.49669 -1.63426 0
M  V30 44071 C 4261.61 -1.52868 -3.12293 0
M  V30 44072 H 4260.93 -2.39148 -3.20388 0
M  V30 44073 H 4262.37 -1.63243 -3.91316 0
M  V30 44074 C 4260.83 -0.25316 -3.35947 0
M  V30 44075 O 4261.36 0.666875 -3.96126 0
M  V30 44076 N 4259.56 -0.148765 -2.90219 0
M  V30 44077 H 4259.11 -0.898326 -2.41429 0
M  V30 44078 H 4259.07 0.703853 -3.0642 0
M  V30 44079 N 4262.84 0.84983 -1.32724 0
M  V30 44080 C 4263.77 1.97427 -1.24678 0
M  V30 44081 C 4264.75 1.69605 -0.129611 0
M  V30 44082 O 4265.94 1.91586 -0.317582 0
M  V30 44083 C 4263.07 3.33362 -0.97403 0
M  V30 44084 C 4262.02 3.7555 -2.05296 0
M  V30 44085 C 4261.35 5.09169 -1.63253 0
M  V30 44086 C 4262.65 3.90501 -3.46852 0
M  V30 44087 H 4264.34 2.04417 -2.18756 0
M  V30 44088 H 4261.89 0.982113 -1.05312 0
M  V30 44089 H 4263.84 4.11583 -0.904278 0
M  V30 44090 H 4262.56 3.266 0.00238075 0
M  V30 44091 H 4261.22 2.99583 -2.11295 0
M  V30 44092 H 4260.87 4.98868 -0.643436 0
M  V30 44093 H 4260.57 5.38367 -2.35446 0
M  V30 44094 H 4262.09 5.89878 -1.57723 0
M  V30 44095 H 4263.51 4.59063 -3.43416 0
M  V30 44096 H 4261.91 4.31123 -4.17437 0
M  V30 44097 H 4262.98 2.93272 -3.8616 0
M  V30 44098 N 4264.32 1.16013 1.06671 0
M  V30 44099 C 4265.27 0.859147 2.16151 0
M  V30 44100 C 4266.26 -0.170251 1.68542 0
M  V30 44101 O 4267.47 -0.02461 1.79983 0
M  V30 44102 H 4263.84 0.260208 0.705546 0
M  V30 44103 H 4265.81 1.78999 2.38751 0
M  V30 44104 C 4264.56 0.372461 3.45699 0
M  V30 44105 H 4263.88 1.15598 3.82723 0
M  V30 44106 H 4265.32 0.200593 4.23525 0
M  V30 44107 C 4263.78 -0.907293 3.24453 0
M  V30 44108 O 4264.31 -1.97737 3.49661 0
M  V30 44109 N 4262.52 -0.849539 2.77905 0
M  V30 44110 H 4262.07 0.0214511 2.57591 0
M  V30 44111 H 4262.02 -1.70631 2.64069 0
M  V30 44112 N 4265.8 -1.25139 0.958014 0
M  V30 44113 C 4267.04 -1.92947 0.614626 0
M  V30 44114 C 4267.37 -1.75 -0.848838 0
M  V30 44115 O 4266.63 -1.09072 -1.62486 0
M  V30 44116 C 4266.93 -3.4526 0.923584 0
M  V30 44117 C 4266.59 -3.83366 2.37363 0
M  V30 44118 C 4265.25 -3.9348 2.76997 0
M  V30 44119 C 4267.61 -4.02178 3.31515 0
M  V30 44120 C 4264.93 -4.19814 4.09845 0
M  V30 44121 C 4267.29 -4.30006 4.63981 0
M  V30 44122 C 4265.95 -4.38336 5.03406 0
M  V30 44123 H 4265.22 -0.706044 0.224908 0
M  V30 44124 H 4267.87 -1.48618 1.20768 0
M  V30 44125 H 4266.17 -3.91013 0.248171 0
M  V30 44126 H 4267.87 -3.95917 0.636426 0
M  V30 44127 H 4264.46 -3.76053 2.05626 0
M  V30 44128 H 4268.64 -3.93776 3.02083 0
M  V30 44129 H 4263.9 -4.2448 4.4003 0
M  V30 44130 H 4268.07 -4.43506 5.36913 0
M  V30 44131 H 4265.7 -4.58495 6.06371 0
M  V30 44132 N 4267.27 -0.726981 -1.39831 0
M  V30 44133 C 4268.18 -0.0831249 -2.34453 0
M  V30 44134 C 4269.2 0.730981 -1.57901 0
M  V30 44135 O 4270.38 0.661304 -1.90233 0
M  V30 44136 C 4267.44 0.819265 -3.36881 0
M  V30 44137 C 4266.5 -0.00618205 -4.293 0
M  V30 44138 C 4265.74 0.853232 -5.26836 0
M  V30 44139 O 4265.96 2.09219 -5.30644 0
M  V30 44140 O 4264.89 0.286156 -6.01219 0
M  V30 44141 H 4268.72 -0.863896 -2.91154 0
M  V30 44142 H 4266.3 -0.487568 -1.4122 0
M  V30 44143 H 4268.19 1.33582 -3.99667 0
M  V30 44144 H 4266.86 1.57899 -2.82577 0
M  V30 44145 H 4265.77 -0.568072 -3.69762 0
M  V30 44146 H 4267.1 -0.727942 -4.86787 0
M  V30 44147 N 4268.75 1.50303 -0.474008 0
M  V30 44148 C 4269.69 2.25267 0.364699 0
M  V30 44149 C 4270.66 1.28701 0.993718 0
M  V30 44150 O 4271.85 1.57931 1.02909 0
M  V30 44151 C 4268.97 3.03116 1.51125 0
M  V30 44152 C 4268.02 4.14628 0.999311 0
M  V30 44153 S 4268.85 5.35427 -0.088334 0
M  V30 44154 C 4270.01 6.16824 1.06202 0
M  V30 44155 H 4270.24 2.96056 -0.271639 0
M  V30 44156 H 4267.78 1.52213 -0.258929 0
M  V30 44157 H 4269.73 3.48558 2.16835 0
M  V30 44158 H 4268.39 2.31846 2.11911 0
M  V30 44159 H 4267.59 4.68512 1.85775 0
M  V30 44160 H 4267.19 3.71636 0.419877 0
M  V30 44161 H 4269.48 6.48134 1.97303 0
M  V30 44162 H 4270.42 7.05863 0.562372 0
M  V30 44163 H 4270.83 5.48918 1.31716 0
M  V30 44164 N 4270.23 0.20673 1.56238 0
M  V30 44165 C 4271.46 -0.433602 2.01999 0
M  V30 44166 C 4271.87 -1.54931 1.08596 0
M  V30 44167 O 4271.21 -1.83503 0.0851127 0
M  V30 44168 C 4271.27 -1.03987 3.44132 0
M  V30 44169 C 4270.94 -0.0614524 4.56959 0
M  V30 44170 C 4271.93 0.733477 5.147 0
M  V30 44171 C 4269.62 0.0530052 5.02272 0
M  V30 44172 C 4271.61 1.62971 6.16213 0
M  V30 44173 C 4269.3 0.95279 6.03627 0
M  V30 44174 C 4270.3 1.7397 6.60472 0
M  V30 44175 O 4269.99 2.62439 7.59856 0
M  V30 44176 H 4269.72 -0.112 0.666657 0
M  V30 44177 H 4272.27 0.316189 2.02952 0
M  V30 44178 H 4270.5 -1.83847 3.40202 0
M  V30 44179 H 4272.19 -1.58606 3.73629 0
M  V30 44180 H 4272.96 0.655419 4.80551 0
M  V30 44181 H 4268.84 -0.549344 4.57715 0
M  V30 44182 H 4272.38 2.24437 6.6051 0
M  V30 44183 H 4268.28 1.03192 6.37198 0
M  V30 44184 H 4269.05 2.56348 7.77321 0
M  V30 44185 N 4271.71 -1.57458 -0.0667882 0
M  V30 44186 C 4272.96 -1.87124 -0.763481 0
M  V30 44187 C 4273.28 -0.799413 -1.77861 0
M  V30 44188 O 4272.55 0.171379 -1.95149 0
M  V30 44189 H 4271.13 -0.690511 -0.284962 0
M  V30 44190 H 4273.79 -1.94855 -0.0416879 0
M  V30 44191 H 4272.89 -2.84798 -1.27658 0
M  V30 44192 N 4273.19 0.33829 -1.53926 0
M  V30 44193 C 4274.15 1.39862 -1.8158 0
M  V30 44194 C 4275.15 1.45384 -0.687036 0
M  V30 44195 O 4276.34 1.45668 -0.95533 0
M  V30 44196 C 4273.47 2.7874 -1.96257 0
M  V30 44197 H 4274.67 1.16603 -2.76304 0
M  V30 44198 H 4272.22 0.572971 -1.45419 0
M  V30 44199 H 4272.95 3.07275 -1.03694 0
M  V30 44200 H 4272.74 2.76128 -2.78381 0
M  V30 44201 H 4274.23 3.55476 -2.1915 0
M  V30 44202 N 4274.67 1.45749 0.599583 0
M  V30 44203 C 4275.91 1.50405 1.36037 0
M  V30 44204 C 4276.24 0.148453 1.93632 0
M  V30 44205 O 4275.52 -0.838087 1.75517 0
M  V30 44206 C 4275.8 2.58951 2.50233 0
M  V30 44207 C 4275.66 4.03983 1.97783 0
M  V30 44208 C 4276.97 2.63714 3.52339 0
M  V30 44209 H 4274.09 0.547579 0.493281 0
M  V30 44210 H 4276.74 1.776 0.675147 0
M  V30 44211 H 4274.89 2.35893 3.08686 0
M  V30 44212 H 4276.56 4.38276 1.43917 0
M  V30 44213 H 4274.8 4.14261 1.28726 0
M  V30 44214 H 4275.47 4.75632 2.80139 0
M  V30 44215 H 4277.95 2.84396 3.03741 0
M  V30 44216 H 4276.82 3.41512 4.29722 0
M  V30 44217 H 4277.08 1.6911 4.08478 0
M  V30 44218 N 4276.14 -0.84278 1.33173 0
M  V30 44219 C 4277.37 -1.62759 1.27253 0
M  V30 44220 C 4277.78 -1.88526 -0.159544 0
M  V30 44221 O 4277.12 -1.46304 -1.11089 0
M  V30 44222 C 4277.19 -3.00398 1.97488 0
M  V30 44223 C 4276.85 -2.97618 3.46803 0
M  V30 44224 C 4277.85 -2.73614 4.42076 0
M  V30 44225 C 4275.53 -3.17878 3.8892 0
M  V30 44226 C 4277.53 -2.69891 5.77441 0
M  V30 44227 C 4275.21 -3.13781 5.2439 0
M  V30 44228 C 4276.21 -2.89817 6.18462 0
M  V30 44229 O 4275.9 -2.85616 7.51451 0
M  V30 44230 H 4275.63 -0.51328 0.439908 0
M  V30 44231 H 4278.19 -1.05819 1.76044 0
M  V30 44232 H 4276.42 -3.59176 1.43282 0
M  V30 44233 H 4278.1 -3.61228 1.85119 0
M  V30 44234 H 4278.87 -2.57717 4.10862 0
M  V30 44235 H 4274.75 -3.35552 3.16111 0
M  V30 44236 H 4278.29 -2.51106 6.50839 0
M  V30 44237 H 4274.19 -3.29226 5.5523 0
M  V30 44238 H 4274.96 -3.01486 7.60952 0
M  V30 44239 N 4277.62 -1.16577 -1.06054 0
M  V30 44240 C 4278.85 -0.973571 -1.83129 0
M  V30 44241 C 4279.27 0.473326 -1.82047 0
M  V30 44242 O 4278.63 1.33832 -1.22306 0
M  V30 44243 C 4278.68 -1.50858 -3.27527 0
M  V30 44244 O 4277.78 -0.716522 -4.06128 0
M  V30 44245 H 4277.12 -0.346289 -0.566551 0
M  V30 44246 H 4279.65 -1.54872 -1.33701 0
M  V30 44247 H 4279.66 -1.5271 -3.78343 0
M  V30 44248 H 4278.34 -2.56186 -3.2763 0
M  V30 44249 H 4276.91 -0.768704 -3.64891 0
M  V30 44250 N 4279.1 1.2463 -0.964637 0
M  V30 44251 C 4280.35 1.92904 -0.625775 0
M  V30 44252 C 4280.68 1.75261 0.836498 0
M  V30 44253 O 4279.95 1.10381 1.60144 0
M  V30 44254 C 4280.24 3.46008 -0.997534 0
M  V30 44255 C 4280.09 3.72832 -2.51628 0
M  V30 44256 C 4281.41 4.36899 -0.529855 0
M  V30 44257 H 4278.53 0.70058 -0.228816 0
M  V30 44258 H 4281.17 1.47057 -1.20309 0
M  V30 44259 H 4279.32 3.85187 -0.506275 0
M  V30 44260 H 4280.99 3.4323 -3.08206 0
M  V30 44261 H 4279.23 3.1809 -2.9496 0
M  V30 44262 H 4279.91 4.79942 -2.72689 0
M  V30 44263 H 4282.38 4.05077 -0.951397 0
M  V30 44264 H 4281.26 5.42762 -0.818567 0
M  V30 44265 H 4281.52 4.38409 0.570101 0
M  V30 44266 N 4280.58 0.734386 1.39444 0
M  V30 44267 C 4281.53 0.0831212 2.32451 0
M  V30 44268 C 4282.52 -0.726529 1.53029 0
M  V30 44269 O 4283.73 -0.627783 1.68698 0
M  V30 44270 H 4280.1 0.00807881 0.751957 0
M  V30 44271 H 4282.07 0.883951 2.85007 0
M  V30 44272 C 4280.82 -0.810463 3.38122 0
M  V30 44273 H 4280.14 -0.196849 3.99315 0
M  V30 44274 H 4281.58 -1.23378 4.05652 0
M  V30 44275 C 4280.04 -1.94448 2.75121 0
M  V30 44276 O 4280.57 -3.03705 2.62918 0
M  V30 44277 N 4278.78 -1.73372 2.33218 0
M  V30 44278 H 4278.33 -0.845101 2.43343 0
M  V30 44279 H 4278.28 -2.49422 1.91405 0
M  V30 44280 N 4282.06 -1.50049 0.481972 0
M  V30 44281 C 4283.47 -1.86677 0.0294967 0
M  V30 44282 C 4283.82 -1.39592 -1.37872 0
M  V30 44283 O 4282.94 -0.765553 -2.02406 0
M  V30 44284 C 4283.54 -3.38768 0.0467516 0
M  V30 44285 C 4282.1 -3.74766 -0.350299 0
M  V30 44286 C 4281.24 -2.73984 0.427547 0
M  V30 44287 H 4284.19 -1.42638 0.695715 0
M  V30 44288 H 4284.22 -3.72976 -0.752955 0
M  V30 44289 H 4283.73 -3.73007 1.07179 0
M  V30 44290 H 4281.83 -3.46131 -1.37928 0
M  V30 44291 H 4281.94 -4.7908 -0.0440784 0
M  V30 44292 H 4280.31 -2.54416 -0.120175 0
M  V30 44293 H 4281.09 -3.11068 1.4523 0
M  V30 44294 N 4283.53 -0.215012 -1.56126 0
M  V30 44295 C 4284.46 0.692591 -2.22992 0
M  V30 44296 C 4285.44 1.20609 -1.19948 0
M  V30 44297 O 4286.63 1.25128 -1.48514 0
M  V30 44298 C 4283.76 1.90371 -2.90476 0
M  V30 44299 C 4282.71 1.52432 -3.99936 0
M  V30 44300 C 4282.04 2.81367 -4.54683 0
M  V30 44301 C 4283.34 0.719234 -5.17324 0
M  V30 44302 H 4285.03 0.135115 -2.99095 0
M  V30 44303 H 4282.58 0.0635468 -1.4386 0
M  V30 44304 H 4284.53 2.54402 -3.35942 0
M  V30 44305 H 4283.26 2.48604 -2.1181 0
M  V30 44306 H 4281.92 0.907495 -3.5519 0
M  V30 44307 H 4281.56 3.37732 -3.72755 0
M  V30 44308 H 4281.26 2.5672 -5.28554 0
M  V30 44309 H 4282.79 3.46353 -5.02863 0
M  V30 44310 H 4284.2 1.2631 -5.59212 0
M  V30 44311 H 4282.6 0.570098 -5.97386 0
M  V30 44312 H 4283.67 -0.275546 -4.84116 0
M  V30 44313 N 4285.01 1.57492 0.0584368 0
M  V30 44314 C 4286.29 1.7899 0.788797 0
M  V30 44315 C 4286.67 0.805913 1.95111 0
M  V30 44316 O 4286.02 -0.158204 2.27952 0
M  V30 44317 C 4286.23 3.25873 1.2493 0
M  V30 44318 C 4287.57 3.90069 1.67725 0
M  V30 44319 O 4288.6 3.29846 1.34463 0
M  V30 44320 O 4287.46 4.96044 2.29353 0
M  V30 44321 H 4284.55 0.735033 0.379019 0
M  V30 44322 H 4287.1 1.69659 0.0374798 0
M  V30 44323 H 4285.87 3.89058 0.418234 0
M  V30 44324 H 4285.49 3.39981 2.06153 0
M  V30 44325 N 4286.49 -0.330122 1.54104 0
M  V30 44326 C 4287.42 -1.41131 1.86022 0
M  V30 44327 C 4288.4 -1.54275 0.716456 0
M  V30 44328 O 4289.59 -1.68263 0.969597 0
M  V30 44329 C 4286.72 -2.77993 2.08175 0
M  V30 44330 C 4285.67 -2.79644 3.24011 0
M  V30 44331 C 4285 -4.19519 3.31523 0
M  V30 44332 C 4286.3 -2.43977 4.61814 0
M  V30 44333 H 4287.99 -1.14667 2.76571 0
M  V30 44334 H 4285.54 -0.550176 1.33075 0
M  V30 44335 H 4287.49 -3.53689 2.29089 0
M  V30 44336 H 4286.21 -3.0592 1.14369 0
M  V30 44337 H 4284.87 -2.06402 3.02975 0
M  V30 44338 H 4284.52 -4.44577 2.35288 0
M  V30 44339 H 4284.22 -4.21531 4.09372 0
M  V30 44340 H 4285.74 -4.97038 3.54663 0
M  V30 44341 H 4287.16 -3.09386 4.82652 0
M  V30 44342 H 4285.55 -2.57251 5.42164 0
M  V30 44343 H 4286.62 -1.39137 4.64509 0
M  V30 44344 N 4287.97 -1.46065 -0.591845 0
M  V30 44345 C 4289.38 -1.45176 -1.17392 0
M  V30 44346 C 4289.73 -0.187714 -1.953 0
M  V30 44347 O 4288.86 0.709778 -2.04429 0
M  V30 44348 C 4289.45 -2.6302 -2.13555 0
M  V30 44349 C 4288.01 -2.65201 -2.67105 0
M  V30 44350 C 4287.16 -2.37703 -1.42802 0
M  V30 44351 H 4290.11 -1.54077 -0.380278 0
M  V30 44352 H 4290.13 -2.38017 -2.96864 0
M  V30 44353 H 4289.64 -3.55004 -1.56824 0
M  V30 44354 H 4287.74 -1.77266 -3.27731 0
M  V30 44355 H 4287.85 -3.64896 -3.10464 0
M  V30 44356 H 4286.22 -1.87576 -1.723 0
M  V30 44357 H 4287 -3.31852 -0.879157 0
M  V30 44358 N 4289.45 0.835705 -1.33618 0
M  V30 44359 C 4290.41 1.92731 -1.24046 0
M  V30 44360 C 4291.41 1.60015 -0.158736 0
M  V30 44361 O 4292.6 1.69295 -0.410486 0
M  V30 44362 C 4289.73 3.2847 -0.91217 0
M  V30 44363 H 4290.92 2.02644 -2.21078 0
M  V30 44364 H 4288.48 1.02817 -1.17721 0
M  V30 44365 H 4289.21 3.24252 0.0555253 0
M  V30 44366 H 4289 3.53596 -1.69447 0
M  V30 44367 H 4290.49 4.08436 -0.870029 0
M  V30 44368 N 4290.92 1.17138 1.05434 0
M  V30 44369 C 4292.17 0.952692 1.77783 0
M  V30 44370 C 4292.49 -0.519966 1.88562 0
M  V30 44371 O 4293.69 -0.856795 2.57626 0
M  V30 44372 C 4292.15 1.65534 3.19572 0
M  V30 44373 C 4291.76 3.16637 3.16931 0
M  V30 44374 C 4293.5 1.51895 3.96394 0
M  V30 44375 C 4291.41 3.79602 4.53494 0
M  V30 44376 H 4290.34 0.35281 0.666364 0
M  V30 44377 H 4292.99 1.40365 1.18195 0
M  V30 44378 H 4291.37 1.13212 3.79472 0
M  V30 44379 H 4292.54 3.75873 2.66563 0
M  V30 44380 H 4290.86 3.3026 2.53608 0
M  V30 44381 H 4293.46 1.9631 4.97359 0
M  V30 44382 H 4293.8 0.469145 4.13648 0
M  V30 44383 H 4294.33 2.01422 3.43037 0
M  V30 44384 H 4291.07 4.84569 4.41445 0
M  V30 44385 H 4290.59 3.25151 5.0402 0
M  V30 44386 H 4292.27 3.81665 5.22438 0
M  V30 44387 N 4292.4 -1.24116 0.971232 0
M  V30 44388 C 4293.65 -1.91588 0.630632 0
M  V30 44389 C 4293.96 -1.76718 -0.83846 0
M  V30 44390 O 4295.17 -2.3891 -1.28973 0
M  V30 44391 C 4293.63 -3.43398 1.07729 0
M  V30 44392 C 4293.23 -3.66948 2.57008 0
M  V30 44393 C 4294.98 -4.167 0.810001 0
M  V30 44394 C 4292.89 -5.12347 2.95388 0
M  V30 44395 H 4291.82 -0.717369 0.23216 0
M  V30 44396 H 4294.47 -1.40704 1.17791 0
M  V30 44397 H 4292.85 -3.93339 0.458292 0
M  V30 44398 H 4294.02 -3.27592 3.24068 0
M  V30 44399 H 4292.34 -3.06939 2.81385 0
M  V30 44400 H 4294.93 -5.23829 1.07271 0
M  V30 44401 H 4295.28 -4.15525 -0.253826 0
M  V30 44402 H 4295.81 -3.7272 1.39014 0
M  V30 44403 H 4292.55 -5.18647 4.00857 0
M  V30 44404 H 4292.07 -5.52688 2.33015 0
M  V30 44405 H 4293.75 -5.80608 2.85488 0
M  V30 44406 N 4293.88 -0.741771 -1.39052 0
M  V30 44407 C 4294.79 -0.107987 -2.34351 0
M  V30 44408 C 4295.81 0.714192 -1.58667 0
M  V30 44409 O 4296.98 0.64109 -1.90924 0
M  V30 44410 C 4294.05 0.783488 -3.37731 0
M  V30 44411 C 4293.11 -0.0517147 -4.29269 0
M  V30 44412 C 4292.34 0.797306 -5.27711 0
M  V30 44413 O 4292.56 2.03579 -5.32834 0
M  V30 44414 O 4291.5 0.222372 -6.01489 0
M  V30 44415 H 4295.32 -0.894728 -2.90221 0
M  V30 44416 H 4292.91 -0.502518 -1.40695 0
M  V30 44417 H 4294.79 1.29335 -4.01061 0
M  V30 44418 H 4293.47 1.54893 -2.84236 0
M  V30 44419 H 4292.37 -0.607258 -3.69138 0
M  V30 44420 H 4293.71 -0.779531 -4.85988 0
M  V30 44421 N 4295.36 1.49792 -0.489923 0
M  V30 44422 C 4296.77 1.58938 -0.145199 0
M  V30 44423 C 4296.97 1.49628 1.34958 0
M  V30 44424 O 4296.03 1.36448 2.12457 0
M  V30 44425 C 4297.34 2.92145 -0.712151 0
M  V30 44426 C 4298.89 3.05585 -0.677263 0
M  V30 44427 C 4299.37 4.41394 -1.22208 0
M  V30 44428 N 4300.86 4.47857 -1.1823 0
M  V30 44429 C 4301.59 5.51369 -1.57417 0
M  V30 44430 N 4301.09 6.62041 -2.04143 0
M  V30 44431 N 4302.88 5.42019 -1.48902 0
M  V30 44432 H 4295.03 1.54086 -1.46189 0
M  V30 44433 H 4297.3 0.729265 -0.605703 0
M  V30 44434 H 4297 3.04492 -1.76004 0
M  V30 44435 H 4296.88 3.76833 -0.166302 0
M  V30 44436 H 4299.26 2.92874 0.361757 0
M  V30 44437 H 4299.34 2.22608 -1.26013 0
M  V30 44438 H 4298.99 4.54856 -2.25983 0
M  V30 44439 H 4298.92 5.22993 -0.615255 0
M  V30 44440 H 4301.41 3.6845 -0.839814 0
M  V30 44441 H 4301.72 7.37109 -2.32142 0
M  V30 44442 H 4300.07 6.63111 -2.08109 0
M  V30 44443 H 4303.26 4.54448 -1.12225 0
M  V30 44444 H 4303.43 6.22566 -1.79765 0
M  V30 44445 N 4296.84 0.223289 1.5601 0
M  V30 44446 C 4297.77 -0.680756 2.23356 0
M  V30 44447 C 4298.75 -1.19971 1.20586 0
M  V30 44448 O 4299.93 -1.24339 1.49176 0
M  V30 44449 C 4297.06 -1.88827 2.91482 0
M  V30 44450 C 4296.02 -1.50309 4.00738 0
M  V30 44451 C 4295.34 -2.78952 4.56169 0
M  V30 44452 C 4296.64 -0.691789 5.17698 0
M  V30 44453 H 4298.34 -0.119252 2.99162 0
M  V30 44454 H 4295.88 -0.0559167 1.43891 0
M  V30 44455 H 4297.84 -2.52617 3.37287 0
M  V30 44456 H 4296.56 -2.47477 2.13125 0
M  V30 44457 H 4295.22 -0.888645 3.55666 0
M  V30 44458 H 4294.87 -3.3575 3.74541 0
M  V30 44459 H 4294.57 -2.53913 5.29908 0
M  V30 44460 H 4296.09 -3.43682 5.04693 0
M  V30 44461 H 4297.5 -1.23343 5.59874 0
M  V30 44462 H 4295.9 -0.53841 5.9768 0
M  V30 44463 H 4296.97 0.301216 4.83964 0
M  V30 44464 N 4298.31 -1.5752 -0.0500839 0
M  V30 44465 C 4299.26 -2.01622 -1.06454 0
M  V30 44466 C 4300.25 -0.901874 -1.33248 0
M  V30 44467 O 4301.44 -1.1658 -1.33185 0
M  V30 44468 C 4298.57 -2.48177 -2.37199 0
M  V30 44469 C 4297.66 -3.66391 -2.13585 0
M  V30 44470 N 4298.05 -4.79839 -1.59964 0
M  V30 44471 C 4296.34 -3.73359 -2.43965 0
M  V30 44472 C 4297.05 -5.61579 -1.5167 0
M  V30 44473 N 4296.02 -5.06066 -1.98491 0
M  V30 44474 H 4299.82 -2.86766 -0.643627 0
M  V30 44475 H 4297.34 -1.60357 -0.256784 0
M  V30 44476 H 4299.33 -2.78022 -3.1066 0
M  V30 44477 H 4297.99 -1.6443 -2.79987 0
M  V30 44478 H 4299.01 -5.01699 -1.28524 0
M  V30 44479 H 4295.68 -3.00371 -2.89972 0
M  V30 44480 H 4297.07 -6.62688 -1.10881 0
M  V30 44481 N 4299.79 0.321945 -1.54277 0
M  V30 44482 C 4301.04 1.05761 -1.72218 0
M  V30 44483 C 4301.36 1.88493 -0.499551 0
M  V30 44484 O 4300.63 1.89765 0.486433 0
M  V30 44485 H 4299.21 0.393454 -0.634983 0
M  V30 44486 H 4301.87 0.357991 -1.91584 0
M  V30 44487 H 4300.97 1.72271 -2.60248 0
M  V30 44488 N 4301.27 1.46377 0.58409 0
M  V30 44489 C 4302.2 1.59696 1.70351 0
M  V30 44490 C 4303.18 0.447353 1.64112 0
M  V30 44491 O 4304.37 0.673426 1.8215 0
M  V30 44492 C 4301.5 1.58563 3.0899 0
M  V30 44493 C 4300.45 2.72479 3.30059 0
M  V30 44494 C 4299.78 2.56407 4.69211 0
M  V30 44495 C 4301.08 4.14313 3.18028 0
M  V30 44496 H 4302.77 2.53402 1.59461 0
M  V30 44497 H 4300.32 1.21953 0.765728 0
M  V30 44498 H 4302.27 1.66475 3.87123 0
M  V30 44499 H 4300.99 0.614005 3.20776 0
M  V30 44500 H 4299.65 2.64034 2.54326 0
M  V30 44501 H 4299.3 1.57331 4.77761 0
M  V30 44502 H 4299 3.32813 4.84261 0
M  V30 44503 H 4300.52 2.66208 5.49514 0
M  V30 44504 H 4301.94 4.23877 3.86007 0
M  V30 44505 H 4300.34 4.91295 3.446 0
M  V30 44506 H 4301.41 4.34566 2.15128 0
M  V30 44507 N 4302.75 -0.828607 1.34059 0
M  V30 44508 C 4303.66 -1.97106 1.27225 0
M  V30 44509 C 4304.68 -1.73057 0.180947 0
M  V30 44510 O 4305.85 -1.97257 0.406397 0
M  V30 44511 C 4302.92 -3.31299 1.02186 0
M  V30 44512 C 4301.98 -3.68395 2.20417 0
M  V30 44513 C 4301.21 -4.96184 1.96562 0
M  V30 44514 O 4301.43 -5.62915 0.92103 0
M  V30 44515 O 4300.37 -5.31025 2.83366 0
M  V30 44516 H 4304.19 -2.05814 2.23325 0
M  V30 44517 H 4301.78 -0.963164 1.14208 0
M  V30 44518 H 4303.66 -4.11682 0.899791 0
M  V30 44519 H 4302.34 -3.23571 0.0912094 0
M  V30 44520 H 4301.24 -2.8848 2.38181 0
M  V30 44521 H 4302.58 -3.80801 3.11852 0
M  V30 44522 N 4304.23 -1.17696 -1.04812 0
M  V30 44523 C 4305.19 -0.899376 -2.10817 0
M  V30 44524 C 4306.19 0.112088 -1.60409 0
M  V30 44525 O 4307.38 -0.120515 -1.73783 0
M  V30 44526 C 4304.51 -0.34792 -3.3912 0
M  V30 44527 H 4305.71 -1.8393 -2.36875 0
M  V30 44528 H 4303.26 -0.987944 -1.21117 0
M  V30 44529 H 4303.99 0.59897 -3.18721 0
M  V30 44530 H 4303.78 -1.07695 -3.7702 0
M  V30 44531 H 4305.27 -0.172158 -4.17245 0
M  V30 44532 N 4305.71 1.23599 -0.977801 0
M  V30 44533 C 4306.95 1.91945 -0.645244 0
M  V30 44534 C 4307.28 1.76328 0.820889 0
M  V30 44535 O 4306.54 1.11643 1.60731 0
M  V30 44536 C 4306.83 3.43747 -0.978395 0
M  V30 44537 C 4306.5 3.79542 -2.43431 0
M  V30 44538 C 4305.16 3.89023 -2.83222 0
M  V30 44539 C 4307.51 3.96853 -3.37872 0
M  V30 44540 C 4304.84 4.1324 -4.16472 0
M  V30 44541 C 4307.19 4.2257 -4.70763 0
M  V30 44542 C 4305.86 4.30272 -5.10316 0
M  V30 44543 H 4305.13 0.702376 -0.236112 0
M  V30 44544 H 4307.78 1.46678 -1.23118 0
M  V30 44545 H 4306.08 3.90569 -0.310347 0
M  V30 44546 H 4307.78 3.94855 -0.699333 0
M  V30 44547 H 4304.37 3.72734 -2.11583 0
M  V30 44548 H 4308.55 3.8892 -3.0831 0
M  V30 44549 H 4303.81 4.17426 -4.46728 0
M  V30 44550 H 4307.98 4.34908 -5.43901 0
M  V30 44551 H 4305.61 4.4879 -6.13589 0
M  V30 44552 N 4307.18 0.749135 1.38657 0
M  V30 44553 C 4308.41 0.312703 2.05029 0
M  V30 44554 C 4308.83 -1.04909 1.56127 0
M  V30 44555 O 4308.19 -1.66765 0.711266 0
M  V30 44556 C 4308.24 0.339721 3.58996 0
M  V30 44557 O 4307.34 -0.667816 4.06957 0
M  V30 44558 H 4306.68 0.139294 0.649225 0
M  V30 44559 H 4309.21 1.01901 1.77418 0
M  V30 44560 H 4309.22 0.18904 4.07562 0
M  V30 44561 H 4307.9 1.33332 3.93948 0
M  V30 44562 H 4306.48 -0.482112 3.6977 0
M  V30 44563 N 4308.66 -1.4953 0.49786 0
M  V30 44564 C 4309.59 -2.31915 -0.27163 0
M  V30 44565 C 4310.57 -1.40044 -0.965496 0
M  V30 44566 O 4311.76 -1.68954 -0.957506 0
M  V30 44567 C 4308.89 -3.20477 -1.33834 0
M  V30 44568 C 4307.84 -4.21116 -0.764536 0
M  V30 44569 C 4307.17 -4.98594 -1.93153 0
M  V30 44570 C 4308.47 -5.21738 0.242292 0
M  V30 44571 H 4310.16 -2.96495 0.416031 0
M  V30 44572 H 4307.71 -1.42583 0.201521 0
M  V30 44573 H 4309.66 -3.76922 -1.88436 0
M  V30 44574 H 4308.38 -2.53833 -2.05515 0
M  V30 44575 H 4307.04 -3.65812 -0.240295 0
M  V30 44576 H 4306.69 -4.284 -2.63595 0
M  V30 44577 H 4306.39 -5.66687 -1.55368 0
M  V30 44578 H 4307.92 -5.57882 -2.48194 0
M  V30 44579 H 4309.33 -5.72895 -0.215475 0
M  V30 44580 H 4307.73 -5.97703 0.535812 0
M  V30 44581 H 4308.8 -4.70839 1.15924 0
M  V30 44582 N 4310.14 -0.23156 -1.5589 0
M  V30 44583 C 4311.09 0.688011 -2.17372 0
M  V30 44584 C 4312.07 1.15034 -1.12499 0
M  V30 44585 O 4313.27 1.10266 -1.38457 0
M  V30 44586 C 4310.39 1.89151 -2.8649 0
M  V30 44587 C 4309.48 1.4484 -3.986 0
M  V30 44588 N 4309.87 0.718516 -5.00671 0
M  V30 44589 C 4308.17 1.73491 -4.10873 0
M  V30 44590 C 4308.87 0.491169 -5.79623 0
M  V30 44591 N 4307.85 1.05085 -5.33346 0
M  V30 44592 H 4311.65 0.122044 -2.93646 0
M  V30 44593 H 4309.16 -0.0332288 -1.62366 0
M  V30 44594 H 4311.16 2.56114 -3.28954 0
M  V30 44595 H 4309.82 2.46185 -2.11714 0
M  V30 44596 H 4310.83 0.370177 -5.16575 0
M  V30 44597 H 4307.51 2.31773 -3.47257 0
M  V30 44598 H 4308.9 -0.0904517 -6.71839 0
M  V30 44599 N 4311.62 1.57545 0.0417295 0
M  V30 44600 C 4312.85 1.92937 0.747181 0
M  V30 44601 C 4313.26 0.830239 1.69566 0
M  V30 44602 O 4312.62 -0.194331 1.81462 0
M  V30 44603 C 4312.67 3.28216 1.51514 0
M  V30 44604 O 4312.39 4.33906 0.604749 0
M  V30 44605 C 4313.89 3.77813 2.31889 0
M  V30 44606 H 4311.11 0.637046 0.210744 0
M  V30 44607 H 4313.65 2.045 0.00302902 0
M  V30 44608 H 4311.81 3.1809 2.21128 0
M  V30 44609 H 4312.22 5.11918 1.14196 0
M  V30 44610 H 4313.7 4.75014 2.81186 0
M  V30 44611 H 4314.17 3.08354 3.12753 0
M  V30 44612 H 4314.78 3.90981 1.67373 0
M  V30 44613 N 4313.1 -0.313759 1.54445 0
M  V30 44614 C 4314.33 -1.06827 1.76838 0
M  V30 44615 C 4314.73 -1.81865 0.521722 0
M  V30 44616 O 4314.08 -1.76257 -0.517594 0
M  V30 44617 C 4314.14 -2.10466 2.91452 0
M  V30 44618 C 4313.8 -1.54739 4.30006 0
M  V30 44619 C 4314.8 -0.984046 5.10502 0
M  V30 44620 C 4312.48 -1.58686 4.76575 0
M  V30 44621 C 4314.48 -0.46759 6.35683 0
M  V30 44622 C 4312.17 -1.06653 6.01721 0
M  V30 44623 C 4313.16 -0.507853 6.81109 0
M  V30 44624 O 4312.85 0.00462357 8.039 0
M  V30 44625 H 4312.58 -0.323157 0.593756 0
M  V30 44626 H 4315.14 -0.362522 2.02176 0
M  V30 44627 H 4313.37 -2.84685 2.61708 0
M  V30 44628 H 4315.06 -2.71717 3.01537 0
M  V30 44629 H 4315.82 -0.946546 4.75674 0
M  V30 44630 H 4311.7 -2.0111 4.1482 0
M  V30 44631 H 4315.25 -0.0308677 6.97593 0
M  V30 44632 H 4311.14 -1.10114 6.36039 0
M  V30 44633 H 4311.91 -0.109879 8.18426 0
M  V30 44634 N 4314.57 -1.46684 -0.576319 0
M  V30 44635 C 4315.8 -1.56147 -1.36502 0
M  V30 44636 C 4316.22 -0.205423 -1.86975 0
M  V30 44637 O 4315.58 0.815537 -1.61922 0
M  V30 44638 C 4315.63 -2.57527 -2.52413 0
M  V30 44639 O 4314.73 -2.11473 -3.54052 0
M  V30 44640 H 4314.07 -0.525218 -0.406253 0
M  V30 44641 H 4316.6 -1.9231 -0.698432 0
M  V30 44642 H 4316.61 -2.7734 -2.99243 0
M  V30 44643 H 4315.29 -3.55999 -2.1503 0
M  V30 44644 H 4313.87 -2.01677 -3.13657 0
M  V30 44645 N 4316.05 0.821486 -1.34497 0
M  V30 44646 C 4317.46 1.39437 -1.24154 0
M  V30 44647 C 4317.81 1.95753 0.132366 0
M  V30 44648 O 4316.94 1.90166 1.03276 0
M  V30 44649 C 4317.53 2.53483 -2.24793 0
M  V30 44650 C 4316.09 3.06675 -2.18237 0
M  V30 44651 C 4315.24 1.79554 -2.11318 0
M  V30 44652 H 4318.19 0.625763 -1.45842 0
M  V30 44653 H 4318.21 3.31617 -1.86576 0
M  V30 44654 H 4317.72 2.12465 -3.24777 0
M  V30 44655 H 4315.82 3.52194 -1.21614 0
M  V30 44656 H 4315.94 3.65668 -3.09554 0
M  V30 44657 H 4314.3 2.00509 -1.57062 0
M  V30 44658 H 4315.08 1.40709 -3.13139 0
M  V30 44659 N 4317.53 1.1825 1.04186 0
M  V30 44660 C 4318.48 0.876395 2.10484 0
M  V30 44661 C 4319.46 -0.153361 1.60167 0
M  V30 44662 O 4320.66 0.0505097 1.76928 0
M  V30 44663 C 4317.79 0.402588 3.40931 0
M  V30 44664 C 4316.87 1.46435 3.98017 0
M  V30 44665 N 4317.26 2.68048 4.28933 0
M  V30 44666 C 4315.56 1.32458 4.25877 0
M  V30 44667 C 4316.26 3.36348 4.746 0
M  V30 44668 N 4315.24 2.6373 4.75339 0
M  V30 44669 H 4319.04 1.80088 2.32262 0
M  V30 44670 H 4316.55 1.07272 1.21928 0
M  V30 44671 H 4318.55 0.164801 4.16574 0
M  V30 44672 H 4317.21 -0.515574 3.20581 0
M  V30 44673 H 4318.22 3.04926 4.18618 0
M  V30 44674 H 4314.9 0.468865 4.14859 0
M  V30 44675 H 4316.29 4.40276 5.0755 0
M  V30 44676 N 4319.01 -1.23079 0.984342 0
M  V30 44677 C 4319.92 -2.2839 0.536198 0
M  V30 44678 C 4320.93 -1.69079 -0.410903 0
M  V30 44679 O 4322.11 -1.99446 -0.27985 0
M  V30 44680 C 4319.18 -3.46373 -0.150432 0
M  V30 44681 C 4318.24 -4.2103 0.838564 0
M  V30 44682 C 4317.47 -5.33381 0.184606 0
M  V30 44683 O 4317.69 -5.61143 -1.02345 0
M  V30 44684 O 4316.63 -5.95356 0.885163 0
M  V30 44685 H 4320.45 -2.68874 1.4121 0
M  V30 44686 H 4318.04 -1.29085 0.752167 0
M  V30 44687 H 4319.92 -4.17985 -0.535426 0
M  V30 44688 H 4318.59 -3.07833 -1.00104 0
M  V30 44689 H 4317.5 -3.51727 1.27433 0
M  V30 44690 H 4318.83 -4.6343 1.6581 0
M  V30 44691 N 4320.49 -0.756478 -1.38258 0
M  V30 44692 C 4321.42 -0.146199 -2.33042 0
M  V30 44693 C 4322.4 0.700345 -1.55013 0
M  V30 44694 O 4323.58 0.640939 -1.83318 0
M  V30 44695 C 4320.71 0.745525 -3.39204 0
M  V30 44696 C 4319.67 0.00148472 -4.28 0
M  V30 44697 C 4318.99 1.01165 -5.25043 0
M  V30 44698 C 4320.29 -1.16861 -5.09059 0
M  V30 44699 H 4321.99 -0.937984 -2.84328 0
M  V30 44700 H 4319.53 -0.452502 -1.36706 0
M  V30 44701 H 4321.49 1.18216 -4.04479 0
M  V30 44702 H 4320.21 1.56966 -2.86407 0
M  V30 44703 H 4318.87 -0.415756 -3.64235 0
M  V30 44704 H 4318.52 1.82993 -4.68532 0
M  V30 44705 H 4318.22 0.518451 -5.85308 0
M  V30 44706 H 4319.74 1.44754 -5.93194 0
M  V30 44707 H 4321.15 -0.809384 -5.67558 0
M  V30 44708 H 4319.55 -1.59286 -5.78574 0
M  V30 44709 H 4320.62 -1.98012 -4.42628 0
M  V30 44710 N 4321.96 1.49264 -0.505783 0
M  V30 44711 C 4323.19 2.07369 0.0358589 0
M  V30 44712 C 4323.61 1.36304 1.29626 0
M  V30 44713 O 4322.97 0.421273 1.76338 0
M  V30 44714 C 4323.02 3.59605 0.267645 0
M  V30 44715 O 4322.12 3.89975 1.34139 0
M  V30 44716 H 4321.47 0.663394 -0.0283504 0
M  V30 44717 H 4324 1.92005 -0.706774 0
M  V30 44718 H 4324.01 4.04953 0.497703 0
M  V30 44719 H 4322.68 4.10739 -0.653198 0
M  V30 44720 H 4321.26 3.56433 1.0959 0
M  V30 44721 N 4323.44 0.239823 1.55765 0
M  V30 44722 C 4324.86 -0.115186 1.59184 0
M  V30 44723 C 4325.06 -1.57493 1.2569 0
M  V30 44724 O 4324.11 -2.31818 1.00084 0
M  V30 44725 C 4325.43 0.22761 2.99837 0
M  V30 44726 C 4326.98 0.171331 3.12531 0
M  V30 44727 C 4327.45 0.488059 4.55392 0
M  V30 44728 N 4328.94 0.438298 4.61122 0
M  V30 44729 C 4329.68 0.656623 5.69628 0
M  V30 44730 N 4329.17 0.937698 6.86425 0
M  V30 44731 N 4330.97 0.587812 5.59018 0
M  V30 44732 H 4323.12 1.19187 1.75808 0
M  V30 44733 H 4325.38 0.479054 0.818053 0
M  V30 44734 H 4325.09 1.24147 3.2906 0
M  V30 44735 H 4324.96 -0.448687 3.74522 0
M  V30 44736 H 4327.35 -0.83319 2.83094 0
M  V30 44737 H 4327.43 0.881374 2.40136 0
M  V30 44738 H 4327.07 1.4901 4.8555 0
M  V30 44739 H 4327 -0.243383 5.26037 0
M  V30 44740 H 4329.49 0.229492 3.77203 0
M  V30 44741 H 4329.81 1.0919 7.65047 0
M  V30 44742 H 4328.15 0.975094 6.88126 0
M  V30 44743 H 4331.34 0.368321 4.66649 0
M  V30 44744 H 4331.51 0.761359 6.43512 0
M  V30 44745 N 4324.92 -1.57565 -0.0333739 0
M  V30 44746 C 4326.17 -1.89355 -0.726124 0
M  V30 44747 C 4326.5 -0.837033 -1.75235 0
M  V30 44748 O 4325.77 0.148418 -1.93933 0
M  V30 44749 C 4326.06 -3.31789 -1.39957 0
M  V30 44750 C 4325.91 -4.48131 -0.387149 0
M  V30 44751 C 4327.23 -3.73069 -2.33468 0
M  V30 44752 H 4324.35 -0.688665 -0.262506 0
M  V30 44753 H 4326.99 -1.89997 0.0110619 0
M  V30 44754 H 4325.14 -3.31373 -2.02792 0
M  V30 44755 H 4326.81 -4.60681 0.238948 0
M  V30 44756 H 4325.06 -4.32803 0.293987 0
M  V30 44757 H 4325.73 -5.44667 -0.89675 0
M  V30 44758 H 4328.2 -3.74825 -1.80681 0
M  V30 44759 H 4327.08 -4.73545 -2.77572 0
M  V30 44760 H 4327.34 -3.0509 -3.19957 0
M  V30 44761 N 4326.4 0.305564 -1.54609 0
M  V30 44762 C 4327.36 1.35979 -1.84506 0
M  V30 44763 C 4328.36 1.43894 -0.71772 0
M  V30 44764 O 4329.55 1.43609 -0.986014 0
M  V30 44765 C 4326.68 2.74515 -2.02125 0
M  V30 44766 H 4327.88 1.10716 -2.78715 0
M  V30 44767 H 4325.43 0.541996 -1.46602 0
M  V30 44768 H 4326.16 3.05007 -1.10188 0
M  V30 44769 H 4325.95 2.70161 -2.84175 0
M  V30 44770 H 4327.44 3.50747 -2.26641 0
M  V30 44771 N 4327.88 1.46988 0.568532 0
M  V30 44772 C 4328.84 1.58188 1.65859 0
M  V30 44773 C 4329.84 0.457856 1.54144 0
M  V30 44774 O 4331.03 0.722594 1.58506 0
M  V30 44775 C 4328.16 1.51565 3.05354 0
M  V30 44776 H 4329.35 2.55348 1.57282 0
M  V30 44777 H 4326.91 1.35009 0.787538 0
M  V30 44778 H 4327.64 0.557385 3.19474 0
M  V30 44779 H 4327.43 2.33131 3.15266 0
M  V30 44780 H 4328.92 1.62518 3.84679 0
M  V30 44781 N 4329.35 -0.814342 1.3493 0
M  V30 44782 C 4330.58 -1.60255 1.30866 0
M  V30 44783 C 4331 -1.88446 -0.115497 0
M  V30 44784 O 4330.35 -1.48191 -1.06516 0
M  V30 44785 C 4330.41 -2.93841 2.1057 0
M  V30 44786 O 4330.13 -2.66876 3.47432 0
M  V30 44787 C 4331.63 -3.88225 2.14001 0
M  V30 44788 H 4328.85 -0.497864 0.449858 0
M  V30 44789 H 4331.39 -1.01258 1.77671 0
M  V30 44790 H 4329.55 -3.49373 1.67384 0
M  V30 44791 H 4329.96 -3.52115 3.88735 0
M  V30 44792 H 4331.43 -4.79094 2.74176 0
M  V30 44793 H 4331.91 -4.24236 1.13668 0
M  V30 44794 H 4332.52 -3.38629 2.57314 0
M  V30 44795 N 4330.83 -1.18801 -1.03557 0
M  V30 44796 C 4331.76 -0.943251 -2.136 0
M  V30 44797 C 4332.74 0.120935 -1.6967 0
M  V30 44798 O 4333.93 -0.032709 -1.94172 0
M  V30 44799 C 4331.06 -0.473776 -3.44053 0
M  V30 44800 C 4330.01 -1.47903 -4.01633 0
M  V30 44801 C 4329.34 -0.866882 -5.27626 0
M  V30 44802 C 4330.64 -2.85728 -4.37215 0
M  V30 44803 H 4332.33 -1.86356 -2.34333 0
M  V30 44804 H 4329.88 -0.897426 -1.12616 0
M  V30 44805 H 4331.83 -0.289878 -4.20402 0
M  V30 44806 H 4330.56 0.48211 -3.23022 0
M  V30 44807 H 4329.21 -1.64996 -3.27371 0
M  V30 44808 H 4328.86 0.0963502 -5.02908 0
M  V30 44809 H 4328.56 -1.53809 -5.67112 0
M  V30 44810 H 4330.09 -0.693629 -6.06647 0
M  V30 44811 H 4331.5 -2.72257 -5.04529 0
M  V30 44812 H 4329.9 -3.49579 -4.87765 0
M  V30 44813 H 4330.97 -3.38892 -3.46815 0
M  V30 44814 N 4332.31 1.22555 -0.990855 0
M  V30 44815 C 4333.73 1.43369 -0.701239 0
M  V30 44816 C 4333.93 1.87857 0.728843 0
M  V30 44817 O 4332.98 2.03116 1.50001 0
M  V30 44818 C 4334.3 2.47685 -1.70507 0
M  V30 44819 C 4335.84 2.61486 -1.72029 0
M  V30 44820 C 4336.32 3.69021 -2.7127 0
M  V30 44821 N 4337.81 3.76476 -2.69851 0
M  V30 44822 C 4338.55 4.5927 -3.43305 0
M  V30 44823 N 4338.04 5.46072 -4.26353 0
M  V30 44824 N 4339.83 4.53562 -3.32021 0
M  V30 44825 H 4331.99 0.919841 -1.91449 0
M  V30 44826 H 4334.25 0.466012 -0.825552 0
M  V30 44827 H 4333.95 2.21938 -2.72831 0
M  V30 44828 H 4333.83 3.46253 -1.49629 0
M  V30 44829 H 4336.22 2.86579 -0.70404 0
M  V30 44830 H 4336.3 1.632 -1.96976 0
M  V30 44831 H 4335.94 3.44676 -3.73042 0
M  V30 44832 H 4335.87 4.66872 -2.43593 0
M  V30 44833 H 4338.36 3.14453 -2.09589 0
M  V30 44834 H 4338.67 6.06265 -4.79231 0
M  V30 44835 H 4337.02 5.45661 -4.3044 0
M  V30 44836 H 4340.21 3.84773 -2.66584 0
M  V30 44837 H 4340.38 5.17856 -3.89525 0
M  V30 44838 N 4333.79 0.763799 1.37855 0
M  V30 44839 C 4334.74 0.142904 2.30357 0
M  V30 44840 C 4335.71 -0.698522 1.50698 0
M  V30 44841 O 4336.89 -0.652535 1.79295 0
M  V30 44842 C 4334.03 -0.736409 3.37151 0
M  V30 44843 C 4333.14 0.120756 4.31831 0
M  V30 44844 C 4332.28 -0.762517 5.25699 0
M  V30 44845 C 4331.32 0.0976648 6.12022 0
M  V30 44846 N 4330.46 -0.743138 6.98156 0
M  V30 44847 H 4335.3 0.937285 2.82876 0
M  V30 44848 H 4332.83 0.473822 1.3926 0
M  V30 44849 H 4334.79 -1.26095 3.97688 0
M  V30 44850 H 4333.42 -1.49647 2.86017 0
M  V30 44851 H 4332.47 0.76303 3.72669 0
M  V30 44852 H 4333.78 0.784614 4.9259 0
M  V30 44853 H 4332.94 -1.35384 5.91402 0
M  V30 44854 H 4331.68 -1.46008 4.65331 0
M  V30 44855 H 4330.68 0.701586 5.45305 0
M  V30 44856 H 4331.91 0.792441 6.74461 0
M  V30 44857 H 4329.85 -1.42546 6.40325 0
M  V30 44858 H 4329.77 -0.136402 7.55877 0
M  V30 44859 H 4331.04 -1.31911 7.68258 0
M  V30 44860 N 4335.27 -1.48993 0.513692 0
M  V30 44861 C 4336.2 -2.3219 -0.247017 0
M  V30 44862 C 4337.18 -1.4106 -0.950588 0
M  V30 44863 O 4338.36 -1.6996 -0.939532 0
M  V30 44864 C 4335.49 -3.21879 -1.30428 0
M  V30 44865 C 4334.45 -4.21903 -0.719828 0
M  V30 44866 C 4333.77 -5.00615 -1.87854 0
M  V30 44867 C 4335.07 -5.21451 0.297616 0
M  V30 44868 H 4336.77 -2.96037 0.447455 0
M  V30 44869 H 4334.31 -1.42361 0.216633 0
M  V30 44870 H 4336.27 -3.78899 -1.84427 0
M  V30 44871 H 4334.99 -2.55999 -2.02811 0
M  V30 44872 H 4333.65 -3.66046 -0.201482 0
M  V30 44873 H 4333.3 -4.31172 -2.59036 0
M  V30 44874 H 4333 -5.68303 -1.49349 0
M  V30 44875 H 4334.52 -5.60483 -2.42263 0
M  V30 44876 H 4335.94 -5.73091 -0.154699 0
M  V30 44877 H 4334.33 -5.97101 0.599176 0
M  V30 44878 H 4335.4 -4.69583 1.20912 0
M  V30 44879 N 4336.75 -0.248081 -1.55635 0
M  V30 44880 C 4337.99 0.375591 -1.98579 0
M  V30 44881 C 4338.31 1.58381 -1.13756 0
M  V30 44882 O 4337.58 1.94654 -0.220634 0
M  V30 44883 H 4336.16 0.14176 -0.733426 0
M  V30 44884 H 4338.83 -0.347143 -1.91784 0
M  V30 44885 H 4337.92 0.68393 -3.04514 0
M  V30 44886 N 4338.22 1.5758 0.0250174 0
M  V30 44887 C 4339.19 2.05793 1.00905 0
M  V30 44888 C 4340.19 0.962767 1.28792 0
M  V30 44889 O 4341.38 1.22625 1.23728 0
M  V30 44890 C 4338.51 2.47829 2.3408 0
M  V30 44891 H 4339.7 2.93989 0.592501 0
M  V30 44892 H 4337.25 1.53916 0.271938 0
M  V30 44893 H 4337.99 1.62802 2.80475 0
M  V30 44894 H 4337.77 3.27789 2.15167 0
M  V30 44895 H 4339.26 2.85544 3.0472 0
M  V30 44896 N 4339.7 -0.29736 1.54769 0
M  V30 44897 C 4341.11 -0.870111 1.65185 0
M  V30 44898 C 4341.46 -1.87952 0.562877 0
M  V30 44899 O 4340.59 -2.14312 -0.299875 0
M  V30 44900 C 4341.18 -1.58496 2.9944 0
M  V30 44901 C 4339.74 -2.10607 3.11964 0
M  V30 44902 C 4338.89 -0.939955 2.60883 0
M  V30 44903 H 4341.84 -0.0742735 1.58526 0
M  V30 44904 H 4341.86 -2.45072 2.91067 0
M  V30 44905 H 4341.37 -0.850048 3.78676 0
M  V30 44906 H 4339.47 -2.87134 2.37455 0
M  V30 44907 H 4339.59 -2.3381 4.18174 0
M  V30 44908 H 4337.95 -1.32654 2.17428 0
M  V30 44909 H 4338.73 -0.21894 3.42601 0
M  V30 44910 N 4341.18 -1.47287 -0.560729 0
M  V30 44911 C 4342.59 -1.47633 -1.14286 0
M  V30 44912 C 4342.94 -0.229098 -1.94858 0
M  V30 44913 O 4342.07 0.666256 -2.05888 0
M  V30 44914 C 4342.66 -2.67491 -2.07928 0
M  V30 44915 C 4341.22 -2.70807 -2.6142 0
M  V30 44916 C 4340.37 -2.40679 -1.37728 0
M  V30 44917 H 4343.32 -1.54848 -0.34751 0
M  V30 44918 H 4343.34 -2.44261 -2.91748 0
M  V30 44919 H 4342.85 -3.58251 -1.49259 0
M  V30 44920 H 4340.95 -1.84178 -3.23897 0
M  V30 44921 H 4341.07 -3.71399 -3.02654 0
M  V30 44922 H 4339.43 -1.91189 -1.68282 0
M  V30 44923 H 4340.21 -3.33642 -0.808568 0
M  V30 44924 N 4342.66 0.807175 -1.3536 0
M  V30 44925 C 4343.59 1.93361 -1.30896 0
M  V30 44926 C 4344.57 1.69107 -0.183504 0
M  V30 44927 O 4345.75 1.90478 -0.378372 0
M  V30 44928 C 4342.88 3.30094 -1.07959 0
M  V30 44929 C 4341.84 3.68828 -2.1714 0
M  V30 44930 C 4341.16 5.03717 -1.79369 0
M  V30 44931 C 4342.46 3.79268 -3.591 0
M  V30 44932 H 4344.16 1.97354 -2.25149 0
M  V30 44933 H 4341.7 0.948112 -1.08383 0
M  V30 44934 H 4343.66 4.08498 -1.03476 0
M  V30 44935 H 4342.38 3.26442 -0.101526 0
M  V30 44936 H 4341.04 2.92709 -2.20719 0
M  V30 44937 H 4340.69 4.96568 -0.801821 0
M  V30 44938 H 4340.39 5.30604 -2.52455 0
M  V30 44939 H 4341.91 5.84561 -1.7641 0
M  V30 44940 H 4343.33 4.47905 -3.57846 0
M  V30 44941 H 4341.72 4.17624 -4.30941 0
M  V30 44942 H 4342.79 2.80838 -3.95295 0
M  V30 44943 N 4344.14 1.19348 1.02926 0
M  V30 44944 C 4345.55 0.945615 1.2857 0
M  V30 44945 C 4345.75 -0.382238 1.97841 0
M  V30 44946 O 4344.81 -1.11384 2.26605 0
M  V30 44947 C 4346.12 2.11935 2.13317 0
M  V30 44948 C 4347.67 2.15892 2.26626 0
M  V30 44949 C 4348.14 3.32716 3.14745 0
M  V30 44950 N 4349.63 3.32649 3.22333 0
M  V30 44951 C 4350.37 4.19687 3.90705 0
M  V30 44952 N 4349.87 5.1688 4.6131 0
M  V30 44953 N 4351.66 4.07566 3.871 0
M  V30 44954 H 4343.81 2.04781 0.563772 0
M  V30 44955 H 4346.07 0.89541 0.311359 0
M  V30 44956 H 4345.78 3.08028 1.69739 0
M  V30 44957 H 4345.65 2.08964 3.14028 0
M  V30 44958 H 4348.04 1.2037 2.69435 0
M  V30 44959 H 4348.12 2.22916 1.25467 0
M  V30 44960 H 4347.76 4.28517 2.72645 0
M  V30 44961 H 4347.69 3.22928 4.15962 0
M  V30 44962 H 4350.19 2.62294 2.72048 0
M  V30 44963 H 4350.5 5.79643 5.1111 0
M  V30 44964 H 4348.84 5.20829 4.60176 0
M  V30 44965 H 4352.03 3.30914 3.3108 0
M  V30 44966 H 4352.21 4.75612 4.40111 0
M  V30 44967 N 4345.61 -1.22028 0.997341 0
M  V30 44968 C 4346.58 -2.22344 0.556391 0
M  V30 44969 C 4347.58 -1.56646 -0.363137 0
M  V30 44970 O 4348.77 -1.73514 -0.154481 0
M  V30 44971 C 4345.9 -3.40369 -0.190112 0
M  V30 44972 H 4347.09 -2.6287 1.44359 0
M  V30 44973 H 4344.64 -1.35156 0.785023 0
M  V30 44974 H 4345.38 -3.05323 -1.0931 0
M  V30 44975 H 4345.16 -3.89271 0.470183 0
M  V30 44976 H 4346.65 -4.14755 -0.486635 0
M  V30 44977 N 4347.09 -0.771099 -1.37448 0
M  V30 44978 C 4348.34 -0.344637 -2.00459 0
M  V30 44979 C 4348.69 1.06682 -1.60114 0
M  V30 44980 O 4347.99 1.72354 -0.836939 0
M  V30 44981 C 4348.18 -0.425224 -3.54861 0
M  V30 44982 C 4348.01 -1.84297 -4.10201 0
M  V30 44983 C 4346.78 -2.46349 -4.4118 0
M  V30 44984 C 4348.98 -2.80238 -4.31244 0
M  V30 44985 N 4346.96 -3.79903 -4.82231 0
M  V30 44986 C 4348.33 -3.98589 -4.74897 0
M  V30 44987 C 4350.39 -2.77533 -4.13376 0
M  V30 44988 C 4349.09 -5.14619 -5.02553 0
M  V30 44989 C 4351.11 -3.92736 -4.42168 0
M  V30 44990 C 4350.48 -5.09828 -4.8606 0
M  V30 44991 H 4346.58 -0.173142 -0.762591 0
M  V30 44992 H 4349.16 -1.00479 -1.66769 0
M  V30 44993 H 4347.33 0.204749 -3.8786 0
M  V30 44994 H 4349.06 0.0232311 -4.04693 0
M  V30 44995 H 4345.82 -1.97972 -4.30237 0
M  V30 44996 H 4346.24 -4.48567 -5.07066 0
M  V30 44997 H 4350.88 -1.88178 -3.78614 0
M  V30 44998 H 4348.6 -6.04575 -5.36204 0
M  V30 44999 H 4352.19 -3.91983 -4.29931 0
M  V30 45000 H 4351.07 -5.97491 -5.07911 0
M  V30 45001 N 4348.57 1.48719 -0.521586 0
M  V30 45002 C 4349.52 2.29488 0.24576 0
M  V30 45003 C 4350.49 1.36836 0.941547 0
M  V30 45004 O 4351.67 1.65799 0.94421 0
M  V30 45005 C 4348.81 3.20008 1.29184 0
M  V30 45006 C 4347.93 4.27732 0.605752 0
M  V30 45007 C 4347.06 5.05443 1.63404 0
M  V30 45008 C 4346.1 6.04979 0.930952 0
M  V30 45009 N 4345.24 6.75779 1.9044 0
M  V30 45010 H 4350.08 2.94595 -0.449203 0
M  V30 45011 H 4347.61 1.45237 -0.233364 0
M  V30 45012 H 4349.57 3.70882 1.91055 0
M  V30 45013 H 4348.2 2.56842 1.9553 0
M  V30 45014 H 4347.25 3.80189 -0.12671 0
M  V30 45015 H 4348.57 4.98772 0.053291 0
M  V30 45016 H 4347.72 5.60289 2.32726 0
M  V30 45017 H 4346.46 4.34223 2.22039 0
M  V30 45018 H 4345.46 5.49345 0.223619 0
M  V30 45019 H 4346.69 6.78193 0.35083 0
M  V30 45020 H 4344.63 6.07316 2.47998 0
M  V30 45021 H 4344.55 7.42865 1.40315 0
M  V30 45022 H 4345.82 7.35219 2.58986 0
M  V30 45023 N 4350.05 0.256331 1.55501 0
M  V30 45024 C 4351.27 -0.372588 2.04026 0
M  V30 45025 C 4351.7 -1.50065 1.13411 0
M  V30 45026 O 4351.06 -1.80841 0.12892 0
M  V30 45027 C 4351.1 -0.848844 3.50467 0
M  V30 45028 O 4350.21 -1.95768 3.62972 0
M  V30 45029 H 4349.55 -0.0799027 0.659175 0
M  V30 45030 H 4352.08 0.385144 2.00942 0
M  V30 45031 H 4352.09 -1.14958 3.9147 0
M  V30 45032 H 4350.76 -0.0234055 4.15893 0
M  V30 45033 H 4349.34 -1.66092 3.33868 0
M  V30 45034 N 4351.53 -1.57591 -0.0166602 0
M  V30 45035 C 4352.94 -1.55192 -0.372504 0
M  V30 45036 C 4353.14 -0.984073 -1.75836 0
M  V30 45037 O 4352.2 -0.610556 -2.45007 0
M  V30 45038 C 4353.51 -2.99548 -0.262991 0
M  V30 45039 C 4355.06 -3.11157 -0.339161 0
M  V30 45040 C 4355.53 -4.57267 -0.258959 0
M  V30 45041 N 4357.03 -4.62111 -0.317374 0
M  V30 45042 C 4357.76 -5.72724 -0.278399 0
M  V30 45043 N 4357.26 -6.92537 -0.19099 0
M  V30 45044 N 4359.05 -5.61136 -0.329042 0
M  V30 45045 H 4351.2 -1.92849 0.89012 0
M  V30 45046 H 4353.46 -0.885065 0.339653 0
M  V30 45047 H 4353.17 -3.44868 0.689854 0
M  V30 45048 H 4353.04 -3.62241 -1.05173 0
M  V30 45049 H 4355.43 -2.65777 -1.28244 0
M  V30 45050 H 4355.51 -2.51272 0.479153 0
M  V30 45051 H 4355.16 -5.03318 0.680708 0
M  V30 45052 H 4355.09 -5.15078 -1.09554 0
M  V30 45053 H 4357.58 -3.75914 -0.386938 0
M  V30 45054 H 4357.89 -7.7262 -0.166691 0
M  V30 45055 H 4356.23 -6.94823 -0.156858 0
M  V30 45056 H 4359.43 -4.66427 -0.395407 0
M  V30 45057 H 4359.6 -6.47327 -0.2952 0
M  V30 45058 N 4353 0.289148 -1.54925 0
M  V30 45059 C 4353.97 1.34014 -1.85938 0
M  V30 45060 C 4354.97 1.43124 -0.732941 0
M  V30 45061 O 4356.16 1.42555 -1.00119 0
M  V30 45062 C 4353.29 2.72355 -2.05025 0
M  V30 45063 H 4354.48 1.07753 -2.79874 0
M  V30 45064 H 4352.04 0.526417 -1.47168 0
M  V30 45065 H 4352.77 3.03821 -1.13417 0
M  V30 45066 H 4352.56 2.67131 -2.87025 0
M  V30 45067 H 4354.05 3.48324 -2.30348 0
M  V30 45068 N 4354.48 1.47583 0.55291 0
M  V30 45069 C 4355.9 1.33196 0.879258 0
M  V30 45070 C 4356.1 0.325675 1.98851 0
M  V30 45071 O 4355.15 -0.261279 2.51145 0
M  V30 45072 C 4356.47 2.72638 1.26843 0
M  V30 45073 C 4358.02 2.80955 1.37962 0
M  V30 45074 C 4358.49 4.21047 1.80233 0
M  V30 45075 N 4359.98 4.23609 1.87376 0
M  V30 45076 C 4360.72 5.28924 2.21421 0
M  V30 45077 N 4360.21 6.44539 2.54049 0
M  V30 45078 N 4362.01 5.16304 2.22231 0
M  V30 45079 H 4354.16 2.11641 -0.179352 0
M  V30 45080 H 4356.42 0.947837 -0.0175761 0
M  V30 45081 H 4356.13 3.47727 0.527169 0
M  V30 45082 H 4356 3.04686 2.22365 0
M  V30 45083 H 4358.39 2.06135 2.11169 0
M  V30 45084 H 4358.47 2.52555 0.406169 0
M  V30 45085 H 4358.11 4.96373 1.07594 0
M  V30 45086 H 4358.04 4.46874 2.78588 0
M  V30 45087 H 4360.53 3.40204 1.6453 0
M  V30 45088 H 4360.85 7.20654 2.79066 0
M  V30 45089 H 4359.19 6.47852 2.5162 0
M  V30 45090 H 4362.38 4.25006 1.96183 0
M  V30 45091 H 4362.55 5.98485 2.48434 0
M  V30 45092 N 4355.96 -0.799985 1.35787 0
M  V30 45093 C 4356.92 -1.89375 1.29112 0
M  V30 45094 C 4357.92 -1.59537 0.201105 0
M  V30 45095 O 4359.11 -1.68147 0.455227 0
M  V30 45096 C 4356.25 -3.25936 0.998938 0
M  V30 45097 H 4357.44 -1.96711 2.26373 0
M  V30 45098 H 4354.99 -0.996597 1.20406 0
M  V30 45099 H 4355.73 -3.24286 0.0304641 0
M  V30 45100 H 4355.51 -3.48979 1.78762 0
M  V30 45101 H 4357 -4.05986 0.978012 0
M  V30 45102 N 4357.44 -1.19892 -1.02292 0
M  V30 45103 C 4358.68 -1.00671 -1.76049 0
M  V30 45104 C 4359.02 0.460769 -1.88655 0
M  V30 45105 O 4358.29 1.34214 -1.40773 0
M  V30 45106 C 4358.58 -1.68343 -3.18328 0
M  V30 45107 C 4358.43 -3.22494 -3.13556 0
M  V30 45108 C 4359.75 -1.41132 -4.16857 0
M  V30 45109 H 4356.87 -0.367128 -0.639051 0
M  V30 45110 H 4359.51 -1.47817 -1.19374 0
M  V30 45111 H 4357.66 -1.28259 -3.66718 0
M  V30 45112 H 4359.33 -3.71832 -2.73018 0
M  V30 45113 H 4357.57 -3.53728 -2.51115 0
M  V30 45114 H 4358.24 -3.64996 -4.14104 0
M  V30 45115 H 4360.72 -1.75896 -3.77094 0
M  V30 45116 H 4359.6 -1.91024 -5.14588 0
M  V30 45117 H 4359.86 -0.337657 -4.40809 0
M  V30 45118 N 4358.92 1.21498 -1.0038 0
M  V30 45119 C 4360.33 1.42618 -0.716405 0
M  V30 45120 C 4360.53 1.88619 0.708877 0
M  V30 45121 O 4359.59 2.04695 1.47838 0
M  V30 45122 C 4360.9 2.45863 -1.73124 0
M  V30 45123 C 4362.45 2.59647 -1.74792 0
M  V30 45124 C 4362.92 3.66124 -2.75168 0
M  V30 45125 N 4364.42 3.73593 -2.73829 0
M  V30 45126 C 4365.15 4.55603 -3.48157 0
M  V30 45127 N 4364.65 5.4152 -4.32121 0
M  V30 45128 N 4366.44 4.50015 -3.36813 0
M  V30 45129 H 4358.59 0.899484 -1.92414 0
M  V30 45130 H 4360.85 0.45723 -0.830449 0
M  V30 45131 H 4360.56 2.19031 -2.75169 0
M  V30 45132 H 4360.43 3.44646 -1.53293 0
M  V30 45133 H 4362.82 2.85816 -0.734396 0
M  V30 45134 H 4362.9 1.61102 -1.98695 0
M  V30 45135 H 4362.55 3.407 -3.76677 0
M  V30 45136 H 4362.48 4.64263 -2.48531 0
M  V30 45137 H 4364.97 3.12213 -2.12912 0
M  V30 45138 H 4365.28 6.01148 -4.85635 0
M  V30 45139 H 4363.62 5.41065 -4.36204 0
M  V30 45140 H 4366.82 3.81924 -2.7065 0
M  V30 45141 H 4366.99 5.13695 -3.94995 0
M  V30 45142 N 4360.39 0.778378 1.37037 0
M  V30 45143 C 4361.36 0.175311 2.28529 0
M  V30 45144 C 4362.36 -0.620904 1.48329 0
M  V30 45145 O 4363.55 -0.443518 1.68459 0
M  V30 45146 C 4360.68 -0.758699 3.3235 0
M  V30 45147 H 4361.87 0.981907 2.8337 0
M  V30 45148 H 4359.43 0.547038 1.46414 0
M  V30 45149 H 4360.16 -1.59005 2.82644 0
M  V30 45150 H 4359.95 -0.189848 3.9164 0
M  V30 45151 H 4361.44 -1.17587 4.00703 0
M  V30 45152 N 4361.87 -1.4844 0.529465 0
M  V30 45153 C 4363.1 -2.074 -0.00286371 0
M  V30 45154 C 4363.52 -1.38349 -1.27441 0
M  V30 45155 O 4362.88 -0.449273 -1.75645 0
M  V30 45156 C 4362.93 -3.59986 -0.210401 0
M  V30 45157 O 4362.03 -3.9206 -1.27918 0
M  V30 45158 H 4361.37 -0.66286 0.0389009 0
M  V30 45159 H 4363.9 -1.90856 0.737231 0
M  V30 45160 H 4363.91 -4.05694 -0.433215 0
M  V30 45161 H 4362.59 -4.09647 0.71846 0
M  V30 45162 H 4361.17 -3.58131 -1.03906 0
M  V30 45163 N 4363.35 -0.264574 -1.55363 0
M  V30 45164 C 4364.28 0.621297 -2.25083 0
M  V30 45165 C 4365.26 1.16732 -1.23724 0
M  V30 45166 O 4366.45 1.2034 -1.5242 0
M  V30 45167 C 4363.58 1.81033 -2.96386 0
M  V30 45168 C 4362.53 1.39631 -4.04583 0
M  V30 45169 C 4361.86 2.6676 -4.63404 0
M  V30 45170 C 4363.16 0.554287 -5.19351 0
M  V30 45171 H 4364.85 0.0398922 -2.99373 0
M  V30 45172 H 4362.4 0.0177467 -1.43989 0
M  V30 45173 H 4364.35 2.43586 -3.43866 0
M  V30 45174 H 4363.07 2.4174 -2.19612 0
M  V30 45175 H 4361.73 0.794034 -3.57898 0
M  V30 45176 H 4361.38 3.25702 -3.83311 0
M  V30 45177 H 4361.08 2.39774 -5.36453 0
M  V30 45178 H 4362.61 3.3018 -5.13628 0
M  V30 45179 H 4364.02 1.08455 -5.62948 0
M  V30 45180 H 4362.42 0.379756 -5.98897 0
M  V30 45181 H 4363.49 -0.429424 -4.82995 0
M  V30 45182 N 4364.83 1.57598 0.00830251 0
M  V30 45183 C 4366.08 1.89384 0.694027 0
M  V30 45184 C 4366.39 0.865782 1.75395 0
M  V30 45185 O 4367.6 1.07357 2.49373 0
M  V30 45186 C 4366.05 3.36157 1.28556 0
M  V30 45187 C 4365.66 4.4724 0.260893 0
M  V30 45188 C 4367.41 3.77063 1.94996 0
M  V30 45189 C 4365.31 5.85085 0.861948 0
M  V30 45190 H 4364.24 0.706653 0.262979 0
M  V30 45191 H 4366.89 1.83429 -0.0508815 0
M  V30 45192 H 4365.28 3.36921 2.08086 0
M  V30 45193 H 4366.45 4.57978 -0.50921 0
M  V30 45194 H 4364.76 4.15299 -0.302589 0
M  V30 45195 H 4367.36 4.77381 2.40855 0
M  V30 45196 H 4367.7 3.10142 2.77701 0
M  V30 45197 H 4368.24 3.78562 1.22211 0
M  V30 45198 H 4364.98 6.55458 0.0738609 0
M  V30 45199 H 4364.5 5.78027 1.6014 0
M  V30 45200 H 4366.18 6.32478 1.36308 0
M  V30 45201 N 4366.31 -0.280928 1.55076 0
M  V30 45202 C 4367.27 -1.33026 1.86646 0
M  V30 45203 C 4368.27 -1.42734 0.740521 0
M  V30 45204 O 4369.46 -1.42022 1.00874 0
M  V30 45205 C 4366.59 -2.71264 2.06467 0
M  V30 45206 H 4367.79 -1.06268 2.80441 0
M  V30 45207 H 4365.34 -0.518605 1.47446 0
M  V30 45208 H 4366.07 -3.03215 1.15027 0
M  V30 45209 H 4365.86 -2.65605 2.88437 0
M  V30 45210 H 4367.35 -3.47097 2.32192 0
M  V30 45211 N 4367.79 -1.47874 -0.545076 0
M  V30 45212 C 4368.72 -1.57342 -1.66662 0
M  V30 45213 C 4369.73 -0.458725 -1.56204 0
M  V30 45214 O 4370.92 -0.728897 -1.6294 0
M  V30 45215 C 4368.02 -1.473 -3.05214 0
M  V30 45216 C 4367.19 -2.73549 -3.41306 0
M  V30 45217 C 4366.25 -2.57173 -4.59073 0
M  V30 45218 O 4365.28 -3.31022 -4.63048 0
M  V30 45219 N 4366.48 -1.65795 -5.5632 0
M  V30 45220 H 4369.24 -2.54057 -1.58982 0
M  V30 45221 H 4366.81 -1.44407 -0.732004 0
M  V30 45222 H 4368.8 -1.34062 -3.8185 0
M  V30 45223 H 4367.37 -0.5862 -3.07054 0
M  V30 45224 H 4366.59 -3.01461 -2.53997 0
M  V30 45225 H 4367.88 -3.57337 -3.62199 0
M  V30 45226 H 4367.27 -1.04971 -5.55876 0
M  V30 45227 H 4365.83 -1.58503 -6.32234 0
M  V30 45228 N 4369.26 0.792773 -1.36209 0
M  V30 45229 C 4370.51 1.54744 -1.29995 0
M  V30 45230 C 4370.83 1.94622 0.121412 0
M  V30 45231 O 4370.1 1.64685 1.06093 0
M  V30 45232 H 4368.68 0.573881 -0.478194 0
M  V30 45233 H 4371.34 0.944815 -1.70468 0
M  V30 45234 H 4370.44 2.45655 -1.9251 0
M  V30 45235 N 4370.74 1.20433 1.01654 0
M  V30 45236 C 4371.7 0.954954 2.08358 0
M  V30 45237 C 4372.7 -0.0695187 1.6065 0
M  V30 45238 O 4373.89 0.166548 1.73402 0
M  V30 45239 C 4371.03 0.437709 3.38078 0
M  V30 45240 H 4372.22 1.90146 2.31915 0
M  V30 45241 H 4369.77 1.01971 1.18455 0
M  V30 45242 H 4370.51 -0.514256 3.20197 0
M  V30 45243 H 4370.29 1.17653 3.74032 0
M  V30 45244 H 4371.78 0.282722 4.16642 0
M  V30 45245 N 4372.22 -1.20963 1.01023 0
M  V30 45246 C 4373.64 -1.42236 0.723959 0
M  V30 45247 C 4373.84 -1.88992 -0.698864 0
M  V30 45248 O 4372.89 -2.05476 -1.4675 0
M  V30 45249 C 4374.2 -2.44941 1.74426 0
M  V30 45250 C 4375.75 -2.58716 1.76167 0
M  V30 45251 C 4376.23 -3.64659 2.77106 0
M  V30 45252 N 4377.72 -3.72136 2.75807 0
M  V30 45253 C 4378.45 -4.5375 3.50568 0
M  V30 45254 N 4377.95 -5.3922 4.34986 0
M  V30 45255 N 4379.74 -4.48223 3.39194 0
M  V30 45256 H 4371.89 -0.889267 1.92888 0
M  V30 45257 H 4374.16 -0.452819 0.832862 0
M  V30 45258 H 4373.86 -2.17569 2.76327 0
M  V30 45259 H 4373.74 -3.43829 1.55118 0
M  V30 45260 H 4376.12 -2.85422 0.749543 0
M  V30 45261 H 4376.2 -1.60046 1.99547 0
M  V30 45262 H 4375.85 -3.38698 3.78479 0
M  V30 45263 H 4375.78 -4.62938 2.5099 0
M  V30 45264 H 4378.27 -3.11079 2.14565 0
M  V30 45265 H 4378.58 -5.98564 4.88816 0
M  V30 45266 H 4376.93 -5.38744 4.39067 0
M  V30 45267 H 4380.12 -3.80484 2.72672 0
M  V30 45268 H 4380.29 -5.11593 3.97714 0
M  V30 45269 N 4373.7 -0.785634 -1.36622 0
M  V30 45270 C 4374.66 -0.187428 -2.28432 0
M  V30 45271 C 4375.66 0.613029 -1.48656 0
M  V30 45272 O 4376.85 0.434578 -1.68692 0
M  V30 45273 C 4373.98 0.741063 -3.32748 0
M  V30 45274 H 4375.18 -0.996921 -2.82845 0
M  V30 45275 H 4372.73 -0.554795 -1.46122 0
M  V30 45276 H 4373.46 1.57504 -2.83484 0
M  V30 45277 H 4373.25 0.169075 -3.91735 0
M  V30 45278 H 4374.74 1.1546 -4.01321 0
M  V30 45279 N 4375.18 1.48157 -0.53733 0
M  V30 45280 C 4376.14 2.28229 0.210744 0
M  V30 45281 C 4377.14 1.35803 0.861054 0
M  V30 45282 O 4378.33 1.58625 0.719972 0
M  V30 45283 C 4375.46 3.14901 1.30576 0
M  V30 45284 H 4376.65 2.95831 -0.492363 0
M  V30 45285 H 4374.21 1.53519 -0.293532 0
M  V30 45286 H 4374.94 2.51947 2.04189 0
M  V30 45287 H 4374.73 3.82898 0.844492 0
M  V30 45288 H 4376.22 3.75283 1.83173 0
M  V30 45289 N 4376.65 0.272809 1.55221 0
M  V30 45290 C 4377.9 -0.345258 1.98723 0
M  V30 45291 C 4378.22 -1.57149 1.16462 0
M  V30 45292 O 4379.42 -2.26237 1.50098 0
M  V30 45293 C 4377.88 -0.665636 3.53691 0
M  V30 45294 C 4377.49 0.540664 4.44726 0
M  V30 45295 C 4379.23 -1.24646 4.05788 0
M  V30 45296 C 4377.14 0.195001 5.91078 0
M  V30 45297 H 4376.07 -0.132778 0.742217 0
M  V30 45298 H 4378.72 0.3771 1.79583 0
M  V30 45299 H 4377.1 -1.44683 3.68623 0
M  V30 45300 H 4378.27 1.31757 4.41562 0
M  V30 45301 H 4376.59 1.03817 4.0325 0
M  V30 45302 H 4379.19 -1.51884 5.12675 0
M  V30 45303 H 4379.53 -2.17957 3.54684 0
M  V30 45304 H 4380.06 -0.527599 3.94286 0
M  V30 45305 H 4376.8 1.09593 6.46274 0
M  V30 45306 H 4376.32 -0.545191 5.97317 0
M  V30 45307 H 4378 -0.213608 6.46647 0
M  V30 45308 N 4378.13 -1.576 5.54043e-05 0
M  V30 45309 C 4379.37 -1.92427 -0.689282 0
M  V30 45310 C 4379.74 -0.874385 -1.70934 0
M  V30 45311 O 4380.94 -1.10791 -2.44906 0
M  V30 45312 C 4379.21 -3.32306 -1.31559 0
M  V30 45313 S 4380.77 -3.89018 -2.03004 0
M  V30 45314 H 4377.59 -0.67356 -0.227679 0
M  V30 45315 H 4380.19 -1.95418 0.0567558 0
M  V30 45316 H 4378.89 -4.06557 -0.560348 0
M  V30 45317 H 4378.42 -3.32689 -2.09956 0
M  V30 45318 H 4380.44 -3.70098 -3.30518 0
M  V30 45319 N 4379.61 0.2727 -1.55223 0
M  V30 45320 C 4380.86 1.00228 -1.75496 0
M  V30 45321 C 4381.18 1.86808 -0.559266 0
M  V30 45322 O 4380.45 1.91216 0.425814 0
M  V30 45323 H 4379.03 0.373053 -0.647179 0
M  V30 45324 H 4381.69 0.296859 -1.92626 0
M  V30 45325 H 4380.79 1.63904 -2.65597 0
M  V30 45326 N 4381.09 1.48161 0.537226 0
M  V30 45327 C 4382.5 1.34121 0.865082 0
M  V30 45328 C 4382.7 0.346748 1.98494 0
M  V30 45329 O 4381.76 -0.234627 2.51408 0
M  V30 45330 C 4383.07 2.73968 1.23944 0
M  V30 45331 C 4384.62 2.82402 1.34974 0
M  V30 45332 C 4385.1 4.22934 1.75757 0
M  V30 45333 N 4386.59 4.25573 1.82872 0
M  V30 45334 C 4387.32 5.31243 2.15798 0
M  V30 45335 N 4386.82 6.47197 2.47199 0
M  V30 45336 N 4388.61 5.18632 2.16743 0
M  V30 45337 H 4380.76 2.11439 -0.201789 0
M  V30 45338 H 4383.03 0.947597 -0.0276282 0
M  V30 45339 H 4382.73 3.48266 0.490258 0
M  V30 45340 H 4382.61 3.07027 2.19121 0
M  V30 45341 H 4384.99 2.08364 2.0897 0
M  V30 45342 H 4385.07 2.52971 0.379359 0
M  V30 45343 H 4384.72 4.97486 1.02323 0
M  V30 45344 H 4384.65 4.49804 2.73833 0
M  V30 45345 H 4387.14 3.41929 1.60912 0
M  V30 45346 H 4387.45 7.23573 2.71407 0
M  V30 45347 H 4385.8 6.50484 2.44734 0
M  V30 45348 H 4388.99 4.27063 1.91664 0
M  V30 45349 H 4389.16 6.01087 2.42072 0
M  V30 45350 N 4382.57 -0.785538 1.36627 0
M  V30 45351 C 4383.8 -1.57215 1.34041 0
M  V30 45352 C 4384.2 -1.89033 -0.0794398 0
M  V30 45353 O 4383.55 -1.50884 -1.04784 0
M  V30 45354 C 4383.61 -2.91751 2.10051 0
M  V30 45355 C 4383.27 -2.82641 3.59114 0
M  V30 45356 C 4384.27 -2.54618 4.53283 0
M  V30 45357 C 4381.96 -3.01097 4.02052 0
M  V30 45358 C 4383.95 -2.45157 5.88368 0
M  V30 45359 C 4381.64 -2.91257 5.37227 0
M  V30 45360 C 4382.63 -2.63326 6.30197 0
M  V30 45361 O 4382.32 -2.53487 7.62889 0
M  V30 45362 H 4382.05 -0.49416 0.461282 0
M  V30 45363 H 4384.61 -0.982569 1.80374 0
M  V30 45364 H 4382.84 -3.52775 1.58387 0
M  V30 45365 H 4384.53 -3.53052 2.00273 0
M  V30 45366 H 4385.29 -2.40059 4.21422 0
M  V30 45367 H 4381.17 -3.21842 3.30058 0
M  V30 45368 H 4384.72 -2.23276 6.60904 0
M  V30 45369 H 4380.61 -3.0538 5.68694 0
M  V30 45370 H 4381.38 -2.6894 7.73055 0
M  V30 45371 N 4384.04 -1.20971 -1.01014 0
M  V30 45372 C 4384.97 -0.988347 -2.11551 0
M  V30 45373 C 4385.96 0.0849181 -1.69888 0
M  V30 45374 O 4387.14 -0.0738884 -1.94059 0
M  V30 45375 C 4384.27 -0.546649 -3.42971 0
M  V30 45376 C 4383.22 -1.56389 -3.98405 0
M  V30 45377 C 4382.55 -0.978604 -5.25669 0
M  V30 45378 C 4383.85 -2.94937 -4.31056 0
M  V30 45379 H 4385.54 -1.91284 -2.30327 0
M  V30 45380 H 4383.09 -0.921111 -1.10687 0
M  V30 45381 H 4385.04 -0.378987 -4.19692 0
M  V30 45382 H 4383.77 0.413484 -3.23972 0
M  V30 45383 H 4382.43 -1.71903 -3.23798 0
M  V30 45384 H 4382.07 -0.0103456 -5.02999 0
M  V30 45385 H 4381.77 -1.65804 -5.63722 0
M  V30 45386 H 4383.3 -0.822152 -6.0504 0
M  V30 45387 H 4384.71 -2.82897 -4.9864 0
M  V30 45388 H 4383.11 -3.59847 -4.8024 0
M  V30 45389 H 4384.18 -3.46172 -3.39548 0
M  V30 45390 N 4385.52 1.20426 -1.01663 0
M  V30 45391 C 4386.77 1.89795 -0.705984 0
M  V30 45392 C 4387.1 1.78851 0.764376 0
M  V30 45393 O 4386.35 1.167 1.57098 0
M  V30 45394 C 4386.65 3.40461 -1.08726 0
M  V30 45395 C 4386.32 3.71605 -2.55383 0
M  V30 45396 C 4384.98 3.79816 -2.95455 0
M  V30 45397 C 4387.33 3.85903 -3.50326 0
M  V30 45398 C 4384.66 3.99781 -4.29409 0
M  V30 45399 C 4387.01 4.07379 -4.83968 0
M  V30 45400 C 4385.68 4.13819 -5.23746 0
M  V30 45401 H 4384.95 0.694509 -0.258338 0
M  V30 45402 H 4387.59 1.42686 -1.27722 0
M  V30 45403 H 4385.9 3.89384 -0.434446 0
M  V30 45404 H 4387.59 3.9243 -0.824599 0
M  V30 45405 H 4384.18 3.65814 -2.23334 0
M  V30 45406 H 4388.37 3.78915 -3.20527 0
M  V30 45407 H 4383.62 4.03002 -4.59782 0
M  V30 45408 H 4387.8 4.17384 -5.57462 0
M  V30 45409 H 4385.43 4.29042 -6.27556 0
M  V30 45410 N 4387 0.792868 1.36203 0
M  V30 45411 C 4387.95 0.181637 2.3189 0
M  V30 45412 C 4388.94 -0.66097 1.55973 0
M  V30 45413 O 4390.15 -0.555668 1.71208 0
M  V30 45414 H 4386.52 0.0399646 0.750937 0
M  V30 45415 H 4388.49 1.00404 2.81001 0
M  V30 45416 C 4387.24 -0.666324 3.41256 0
M  V30 45417 H 4386.57 -0.0273084 3.99791 0
M  V30 45418 H 4388.01 -1.06062 4.1052 0
M  V30 45419 C 4386.47 -1.82604 2.83121 0
M  V30 45420 O 4387 -2.92281 2.75563 0
M  V30 45421 N 4385.2 -1.63324 2.40361 0
M  V30 45422 H 4384.75 -0.74113 2.46708 0
M  V30 45423 H 4384.71 -2.4108 2.01811 0
M  V30 45424 N 4388.48 -1.4787 0.54518 0
M  V30 45425 C 4389.72 -2.03385 0.0248666 0
M  V30 45426 C 4390.08 -1.4133 -1.30551 0
M  V30 45427 O 4389.37 -0.555265 -1.83378 0
M  V30 45428 C 4389.57 -3.57131 -0.138544 0
M  V30 45429 C 4389.4 -4.34093 1.17445 0
M  V30 45430 C 4388.17 -4.74452 1.73848 0
M  V30 45431 C 4390.36 -4.69973 2.08878 0
M  V30 45432 N 4388.35 -5.3601 2.99277 0
M  V30 45433 C 4389.72 -5.31707 3.18884 0
M  V30 45434 C 4391.77 -4.51902 2.09019 0
M  V30 45435 C 4390.47 -5.7728 4.29116 0
M  V30 45436 C 4392.5 -4.98466 3.18255 0
M  V30 45437 C 4391.86 -5.60238 4.2698 0
M  V30 45438 H 4387.96 -0.780337 0.0509704 0
M  V30 45439 H 4390.55 -1.80504 0.729816 0
M  V30 45440 H 4388.72 -3.79804 -0.812599 0
M  V30 45441 H 4390.45 -3.99285 -0.659835 0
M  V30 45442 H 4387.2 -4.56032 1.27796 0
M  V30 45443 H 4387.63 -5.71342 3.63177 0
M  V30 45444 H 4392.27 -4.03511 1.26248 0
M  V30 45445 H 4389.99 -6.24669 5.12655 0
M  V30 45446 H 4393.57 -4.86263 3.19437 0
M  V30 45447 H 4392.45 -5.95613 5.10112 0
M  V30 45448 N 4389.96 -0.281037 -1.55074 0
M  V30 45449 C 4390.92 0.590819 -2.21454 0
M  V30 45450 C 4391.92 1.07677 -1.19425 0
M  V30 45451 O 4393.11 0.975999 -1.44291 0
M  V30 45452 C 4390.24 1.81577 -2.88518 0
M  V30 45453 H 4391.43 0.01115 -2.99898 0
M  V30 45454 H 4388.99 -0.0316987 -1.56268 0
M  V30 45455 H 4389.72 2.4358 -2.14101 0
M  V30 45456 H 4389.51 1.47518 -3.63292 0
M  V30 45457 H 4391 2.43563 -3.39215 0
M  V30 45458 N 4391.44 1.57598 -0.00841331 0
M  V30 45459 C 4392.68 1.91214 0.675665 0
M  V30 45460 C 4393.01 0.883199 1.72954 0
M  V30 45461 O 4392.29 -0.0969477 1.94258 0
M  V30 45462 C 4392.57 3.35383 1.31111 0
M  V30 45463 C 4392.43 4.49 0.268199 0
M  V30 45464 C 4393.74 3.79128 2.23495 0
M  V30 45465 H 4390.86 0.695383 0.244155 0
M  V30 45466 H 4393.51 1.89901 -0.0614323 0
M  V30 45467 H 4391.66 3.36633 1.93935 0
M  V30 45468 H 4393.33 4.59885 -0.361006 0
M  V30 45469 H 4391.57 4.31871 -0.408633 0
M  V30 45470 H 4392.24 5.46853 0.752026 0
M  V30 45471 H 4394.72 3.79483 1.7068 0
M  V30 45472 H 4393.59 4.80738 2.64919 0
M  V30 45473 H 4393.85 3.13466 3.11755 0
M  V30 45474 N 4392.91 -0.264465 1.55365 0
M  V30 45475 C 4393.86 -1.3271 1.8883 0
M  V30 45476 C 4394.83 -1.48672 0.740657 0
M  V30 45477 O 4396.02 -1.62941 0.992714 0
M  V30 45478 C 4393.16 -2.68082 2.17316 0
M  V30 45479 C 4392.27 -2.60272 3.44794 0
M  V30 45480 C 4391.4 -3.87879 3.62937 0
M  V30 45481 C 4390.44 -3.74614 4.84077 0
M  V30 45482 N 4389.58 -4.94074 4.98833 0
M  V30 45483 H 4394.42 -1.03472 2.7946 0
M  V30 45484 H 4391.96 -0.499709 1.38352 0
M  V30 45485 H 4393.91 -3.46856 2.31833 0
M  V30 45486 H 4392.54 -2.95505 1.29911 0
M  V30 45487 H 4391.6 -1.73161 3.38703 0
M  V30 45488 H 4392.91 -2.46373 4.33707 0
M  V30 45489 H 4392.06 -4.75096 3.77318 0
M  V30 45490 H 4390.8 -4.04654 2.72225 0
M  V30 45491 H 4389.81 -2.85781 4.69691 0
M  V30 45492 H 4391.03 -3.5935 5.76233 0
M  V30 45493 H 4388.98 -5.11244 4.11054 0
M  V30 45494 H 4388.89 -4.82739 5.81806 0
M  V30 45495 H 4390.16 -5.82839 5.17609 0
M  V30 45496 N 4394.39 -1.48444 -0.529361 0
M  V30 45497 C 4395.62 -1.60155 -1.30988 0
M  V30 45498 C 4396.03 -0.26205 -1.86973 0
M  V30 45499 O 4395.39 0.748747 -1.66433 0
M  V30 45500 C 4395.44 -2.64863 -2.46028 0
M  V30 45501 O 4395.16 -3.93615 -1.92351 0
M  V30 45502 C 4396.66 -2.87019 -3.37839 0
M  V30 45503 H 4393.88 -0.539985 -0.398319 0
M  V30 45504 H 4396.43 -1.94276 -0.638529 0
M  V30 45505 H 4394.58 -2.33599 -3.09047 0
M  V30 45506 H 4395 -4.51064 -2.67659 0
M  V30 45507 H 4396.47 -3.64083 -4.14907 0
M  V30 45508 H 4396.95 -1.95866 -3.93107 0
M  V30 45509 H 4397.55 -3.19589 -2.80612 0
M  V30 45510 N 4395.87 0.778281 -1.37042 0
M  V30 45511 C 4396.82 1.89135 -1.32275 0
M  V30 45512 C 4397.79 1.65016 -0.189445 0
M  V30 45513 O 4398.97 1.87023 -0.377759 0
M  V30 45514 C 4396.11 3.26108 -1.12905 0
M  V30 45515 C 4395.22 3.62224 -2.35409 0
M  V30 45516 C 4394.36 4.88373 -2.08963 0
M  V30 45517 C 4393.4 5.17201 -3.27368 0
M  V30 45518 N 4392.54 6.34536 -3.00515 0
M  V30 45519 H 4397.38 1.92544 -2.27444 0
M  V30 45520 H 4394.91 0.941434 -1.13028 0
M  V30 45521 H 4396.87 4.05113 -0.996978 0
M  V30 45522 H 4395.5 3.22091 -0.213872 0
M  V30 45523 H 4394.55 2.78256 -2.5938 0
M  V30 45524 H 4395.86 3.7947 -3.23734 0
M  V30 45525 H 4395.02 5.75267 -1.92749 0
M  V30 45526 H 4393.76 4.73218 -1.17965 0
M  V30 45527 H 4392.76 4.28784 -3.44128 0
M  V30 45528 H 4393.99 5.34268 -4.19207 0
M  V30 45529 H 4391.93 6.20752 -2.1214 0
M  V30 45530 H 4391.85 6.52166 -3.82381 0
M  V30 45531 H 4393.12 7.24383 -2.87904 0
M  V30 45532 N 4397.35 1.21505 1.00371 0
M  V30 45533 C 4398.28 0.999552 2.11024 0
M  V30 45534 C 4399.26 -0.0759073 1.69931 0
M  V30 45535 O 4400.44 0.0841788 1.94017 0
M  V30 45536 C 4397.57 0.564829 3.42676 0
M  V30 45537 C 4396.53 1.585 3.9757 0
M  V30 45538 C 4395.85 1.00647 5.25142 0
M  V30 45539 C 4397.15 2.97219 4.29486 0
M  V30 45540 H 4398.85 1.92503 2.2931 0
M  V30 45541 H 4396.39 0.926968 1.10197 0
M  V30 45542 H 4398.35 0.401239 4.19485 0
M  V30 45543 H 4397.07 -0.396297 3.24187 0
M  V30 45544 H 4395.73 1.73617 3.22882 0
M  V30 45545 H 4395.38 0.0370208 5.02986 0
M  V30 45546 H 4395.08 1.68791 5.62835 0
M  V30 45547 H 4396.6 0.854227 6.04595 0
M  V30 45548 H 4398.02 2.85538 4.97133 0
M  V30 45549 H 4396.41 3.62388 4.78325 0
M  V30 45550 H 4397.48 3.47968 3.37708 0
M  V30 45551 N 4398.83 -1.19885 1.023 0
M  V30 45552 C 4399.77 -2.22899 0.59873 0
M  V30 45553 C 4400.74 -1.61589 -0.384464 0
M  V30 45554 O 4401.93 -1.88698 -0.282456 0
M  V30 45555 C 4399.07 -3.45063 -0.0503263 0
M  V30 45556 C 4398.18 -4.20779 0.978201 0
M  V30 45557 C 4397.32 -5.30355 0.299525 0
M  V30 45558 C 4396.35 -5.97822 1.31437 0
M  V30 45559 N 4395.49 -6.98973 0.661913 0
M  V30 45560 H 4400.33 -2.58548 1.48178 0
M  V30 45561 H 4397.87 -1.27037 0.741629 0
M  V30 45562 H 4399.83 -4.14833 -0.443825 0
M  V30 45563 H 4398.46 -3.10087 -0.896988 0
M  V30 45564 H 4397.51 -3.50013 1.48981 0
M  V30 45565 H 4398.82 -4.67103 1.74975 0
M  V30 45566 H 4397.97 -6.06517 -0.149134 0
M  V30 45567 H 4396.71 -4.85086 -0.504274 0
M  V30 45568 H 4395.72 -5.20416 1.77335 0
M  V30 45569 H 4396.94 -6.45176 2.11956 0
M  V30 45570 H 4394.89 -6.55887 -0.121902 0
M  V30 45571 H 4394.81 -7.43457 1.37143 0
M  V30 45572 H 4396.07 -7.79139 0.237059 0
M  V30 45573 N 4400.3 -0.80008 -1.35781 0
M  V30 45574 C 4401.23 -0.220266 -2.32459 0
M  V30 45575 C 4402.21 0.650675 -1.57163 0
M  V30 45576 O 4403.4 0.582294 -1.85265 0
M  V30 45577 C 4400.53 0.637233 -3.41404 0
M  V30 45578 C 4399.48 -0.134681 -4.27788 0
M  V30 45579 C 4398.81 0.8441 -5.27995 0
M  V30 45580 C 4400.11 -1.32997 -5.05083 0
M  V30 45581 H 4401.8 -1.02797 -2.812 0
M  V30 45582 H 4399.35 -0.495764 -1.35197 0
M  V30 45583 H 4401.3 1.05288 -4.08035 0
M  V30 45584 H 4400.03 1.47775 -2.91256 0
M  V30 45585 H 4398.69 -0.531424 -3.62728 0
M  V30 45586 H 4398.33 1.67994 -4.74117 0
M  V30 45587 H 4398.03 0.331977 -5.86661 0
M  V30 45588 H 4399.56 1.25809 -5.97499 0
M  V30 45589 H 4400.97 -0.989539 -5.64696 0
M  V30 45590 H 4399.37 -1.77613 -5.73214 0
M  V30 45591 H 4400.44 -2.11994 -4.36104 0
M  V30 45592 N 4401.78 1.47579 -0.553014 0
M  V30 45593 C 4403.01 2.06875 -0.0321283 0
M  V30 45594 C 4403.42 1.4063 1.25971 0
M  V30 45595 O 4402.78 0.501411 1.75477 0
M  V30 45596 C 4402.83 3.61093 0.171543 0
M  V30 45597 O 4402.55 4.24854 -1.06914 0
M  V30 45598 C 4404.05 4.37245 0.73019 0
M  V30 45599 H 4401.27 0.66956 -0.0439385 0
M  V30 45600 H 4403.82 1.89643 -0.76523 0
M  V30 45601 H 4401.97 3.77853 0.854761 0
M  V30 45602 H 4402.39 5.17331 -0.86424 0
M  V30 45603 H 4403.86 5.45845 0.822011 0
M  V30 45604 H 4404.34 4.03241 1.7405 0
M  V30 45605 H 4404.94 4.25219 0.0828048 0
M  V30 45606 N 4403.26 0.289257 1.54923 0
M  V30 45607 C 4404.67 -0.205726 1.85563 0
M  V30 45608 C 4405.02 -1.54347 1.21126 0
M  V30 45609 O 4404.15 -2.10433 0.504675 0
M  V30 45610 C 4404.74 -0.380059 3.36662 0
M  V30 45611 C 4403.3 -0.819266 3.67376 0
M  V30 45612 C 4402.45 0.0792564 2.77187 0
M  V30 45613 H 4405.4 0.51063 1.50261 0
M  V30 45614 H 4405.42 -1.21646 3.60531 0
M  V30 45615 H 4404.93 0.593724 3.83532 0
M  V30 45616 H 4403.03 -1.80402 3.26015 0
M  V30 45617 H 4403.15 -0.646791 4.74714 0
M  V30 45618 H 4401.51 -0.439477 2.5088 0
M  V30 45619 H 4402.29 1.04918 3.26875 0
M  V30 45620 N 4404.74 -1.57591 0.016771 0
M  V30 45621 C 4405.67 -2.125 -0.967783 0
M  V30 45622 C 4406.65 -1.03812 -1.34748 0
M  V30 45623 O 4407.83 -1.31582 -1.42828 0
M  V30 45624 C 4404.96 -2.64202 -2.25421 0
M  V30 45625 C 4403.92 -3.77566 -2.01563 0
M  V30 45626 C 4403.24 -4.15648 -3.36365 0
M  V30 45627 C 4404.54 -5.04155 -1.36472 0
M  V30 45628 H 4406.24 -2.95015 -0.51054 0
M  V30 45629 H 4403.78 -1.41915 -0.244131 0
M  V30 45630 H 4405.74 -3.01246 -2.94667 0
M  V30 45631 H 4404.46 -1.78831 -2.73289 0
M  V30 45632 H 4403.12 -3.40941 -1.34739 0
M  V30 45633 H 4402.77 -3.27276 -3.81968 0
M  V30 45634 H 4402.47 -4.92033 -3.21212 0
M  V30 45635 H 4403.99 -4.55265 -4.06899 0
M  V30 45636 H 4405.41 -5.38864 -1.95699 0
M  V30 45637 H 4403.8 -5.85458 -1.31755 0
M  V30 45638 H 4404.87 -4.83734 -0.336049 0
M  V30 45639 N 4406.22 0.256222 -1.55503 0
M  V30 45640 C 4407.63 0.826009 -1.67434 0
M  V30 45641 C 4407.98 1.86394 -0.612511 0
M  V30 45642 O 4407.1 2.15032 0.242949 0
M  V30 45643 C 4407.7 1.50501 -3.03537 0
M  V30 45644 C 4406.26 2.02262 -3.17438 0
M  V30 45645 C 4405.4 0.870456 -2.63284 0
M  V30 45646 H 4408.36 0.032217 -1.58667 0
M  V30 45647 H 4408.38 2.37269 -2.97462 0
M  V30 45648 H 4407.89 0.74935 -3.80797 0
M  V30 45649 H 4405.99 2.80738 -2.44984 0
M  V30 45650 H 4406.1 2.2264 -4.24226 0
M  V30 45651 H 4404.47 1.26843 -2.20869 0
M  V30 45652 H 4405.25 0.128028 -3.43061 0
M  V30 45653 N 4407.69 1.48722 0.521481 0
M  V30 45654 C 4408.6 1.66575 1.65197 0
M  V30 45655 C 4409.62 0.548255 1.65137 0
M  V30 45656 O 4410.8 0.820403 1.83933 0
M  V30 45657 C 4407.86 1.70928 3.01636 0
M  V30 45658 C 4406.92 2.94367 3.12485 0
M  V30 45659 C 4406.16 2.98503 4.42416 0
M  V30 45660 O 4406.38 2.10805 5.30016 0
M  V30 45661 O 4405.31 3.90762 4.57809 0
M  V30 45662 H 4409.14 2.62303 1.53071 0
M  V30 45663 H 4406.72 1.32223 0.695518 0
M  V30 45664 H 4408.61 1.76263 3.82765 0
M  V30 45665 H 4407.28 0.783744 3.14069 0
M  V30 45666 H 4406.19 2.9456 2.3062 0
M  V30 45667 H 4407.52 3.86333 3.04972 0
M  V30 45668 N 4409.17 -0.771003 1.37453 0
M  V30 45669 C 4410.14 -1.86593 1.331 0
M  V30 45670 C 4411.14 -1.59075 0.2349 0
M  V30 45671 O 4412.33 -1.67143 0.490791 0
M  V30 45672 C 4409.46 -3.23743 1.06785 0
M  V30 45673 H 4410.65 -1.91865 2.30495 0
M  V30 45674 H 4408.2 -0.970833 1.22493 0
M  V30 45675 H 4408.94 -3.24148 0.099243 0
M  V30 45676 H 4408.72 -3.45109 1.86124 0
M  V30 45677 H 4410.21 -4.0382 1.06391 0
M  V30 45678 N 4410.65 -1.22035 -0.997255 0
M  V30 45679 C 4411.88 -1.06928 -1.77711 0
M  V30 45680 C 4412.3 0.376161 -1.843 0
M  V30 45681 O 4411.66 1.27161 -1.29228 0
M  V30 45682 C 4411.71 -1.68007 -3.1907 0
M  V30 45683 O 4410.81 -0.930794 -4.01759 0
M  V30 45684 H 4410.15 -0.375834 -0.547398 0
M  V30 45685 H 4412.68 -1.61741 -1.25304 0
M  V30 45686 H 4412.69 -1.72551 -3.69716 0
M  V30 45687 H 4411.37 -2.73193 -3.13589 0
M  V30 45688 H 4409.94 -0.961044 -3.60303 0
M  V30 45689 N 4412.13 1.19341 -1.02934 0
M  V30 45690 C 4413.54 1.41066 -0.746495 0
M  V30 45691 C 4413.74 1.9008 0.668709 0
M  V30 45692 O 4412.8 2.07785 1.43463 0
M  V30 45693 C 4414.11 2.42135 -1.78301 0
M  V30 45694 C 4415.66 2.55881 -1.80261 0
M  V30 45695 C 4416.14 3.60204 -2.82872 0
M  V30 45696 N 4417.63 3.67701 -2.81692 0
M  V30 45697 C 4418.36 4.48116 -3.57743 0
M  V30 45698 N 4417.86 5.32232 -4.4351 0
M  V30 45699 N 4419.65 4.4277 -3.46282 0
M  V30 45700 H 4411.8 0.858468 -1.94278 0
M  V30 45701 H 4414.07 0.439512 -0.83996 0
M  V30 45702 H 4413.77 2.13145 -2.79753 0
M  V30 45703 H 4413.65 3.41317 -1.60569 0
M  V30 45704 H 4416.03 2.84194 -0.794856 0
M  V30 45705 H 4416.11 1.56851 -2.02068 0
M  V30 45706 H 4415.76 3.32634 -3.83819 0
M  V30 45707 H 4415.69 4.58886 -2.58323 0
M  V30 45708 H 4418.18 3.07626 -2.19487 0
M  V30 45709 H 4418.49 5.90712 -4.98277 0
M  V30 45710 H 4416.84 5.31691 -4.47582 0
M  V30 45711 H 4420.03 3.76098 -2.7869 0
M  V30 45712 H 4420.2 5.05201 -4.05803 0
M  V30 45713 N 4413.61 0.80727 1.35355 0
M  V30 45714 C 4414.54 0.232591 2.32339 0
M  V30 45715 C 4415.52 -0.642331 1.57506 0
M  V30 45716 O 4416.7 -0.57246 1.85571 0
M  V30 45717 C 4413.83 -0.619118 3.41737 0
M  V30 45718 C 4412.79 0.157366 4.27711 0
M  V30 45719 C 4412.11 -0.816087 5.28436 0
M  V30 45720 C 4413.41 1.35674 5.04371 0
M  V30 45721 H 4415.11 1.04286 2.80651 0
M  V30 45722 H 4412.65 0.502927 1.34932 0
M  V30 45723 H 4414.61 -1.03122 4.08588 0
M  V30 45724 H 4413.33 -1.46228 2.92036 0
M  V30 45725 H 4411.99 0.550653 3.62441 0
M  V30 45726 H 4411.64 -1.65477 4.75001 0
M  V30 45727 H 4411.34 -0.300861 5.86829 0
M  V30 45728 H 4412.86 -1.22638 5.98157 0
M  V30 45729 H 4414.27 1.01947 5.64163 0
M  V30 45730 H 4412.67 1.8065 5.72264 0
M  V30 45731 H 4413.74 2.14304 4.34974 0
M  V30 45732 N 4415.08 -1.47283 0.560833 0
M  V30 45733 C 4416.36 -1.9558 -0.0277111 0
M  V30 45734 C 4416.74 -1.50346 -1.48187 0
M  V30 45735 O 4416.09 -0.743958 -2.1605 0
M  V30 45736 C 4416.3 -3.48788 0.12154 0
M  V30 45737 C 4417.65 -4.24594 -0.0219419 0
M  V30 45738 O 4418.67 -3.56166 0.0492691 0
M  V30 45739 O 4417.53 -5.46217 -0.175766 0
M  V30 45740 H 4414.62 -0.824665 -0.0621052 0
M  V30 45741 H 4417.17 -1.57668 0.627611 0
M  V30 45742 H 4415.94 -3.74529 1.13329 0
M  V30 45743 H 4415.57 -3.93475 -0.571227 0
M  V30 45744 N 4416.56 -0.297469 -1.54767 0
M  V30 45745 C 4417.49 0.573414 -2.2635 0
M  V30 45746 C 4418.47 1.14081 -1.26173 0
M  V30 45747 O 4419.66 1.1708 -1.54938 0
M  V30 45748 C 4416.79 1.74705 -3.00159 0
M  V30 45749 C 4415.74 1.31018 -4.07453 0
M  V30 45750 C 4415.07 2.5687 -4.68958 0
M  V30 45751 C 4416.37 0.444 -5.20409 0
M  V30 45752 H 4418.06 -0.0236183 -2.99391 0
M  V30 45753 H 4415.61 -0.0127995 -1.43994 0
M  V30 45754 H 4417.56 2.36237 -3.48955 0
M  V30 45755 H 4416.29 2.37027 -2.2469 0
M  V30 45756 H 4414.94 0.71794 -3.59501 0
M  V30 45757 H 4414.59 3.17498 -3.90133 0
M  V30 45758 H 4414.29 2.28341 -5.41419 0
M  V30 45759 H 4415.82 3.19211 -5.20516 0
M  V30 45760 H 4417.23 0.964901 -5.65122 0
M  V30 45761 H 4415.63 0.252636 -5.99568 0
M  V30 45762 H 4416.7 -0.531778 -4.81975 0
M  V30 45763 N 4418.04 1.5758 -0.0251282 0
M  V30 45764 C 4419.27 1.9634 0.668248 0
M  V30 45765 C 4419.69 0.901372 1.65097 0
M  V30 45766 O 4419.05 -0.138123 1.80773 0
M  V30 45767 C 4419.1 3.34196 1.35445 0
M  V30 45768 O 4418.2 3.30277 2.46963 0
M  V30 45769 H 4417.54 0.640287 0.175865 0
M  V30 45770 H 4420.07 2.0442 -0.0857942 0
M  V30 45771 H 4420.08 3.70337 1.71215 0
M  V30 45772 H 4418.76 4.11038 0.634074 0
M  V30 45773 H 4417.33 3.05848 2.13333 0
M  V30 45774 N 4419.52 -0.247971 1.55637 0
M  V30 45775 C 4420.77 -0.974233 1.77068 0
M  V30 45776 C 4421.09 -1.85895 0.588914 0
M  V30 45777 O 4420.36 -1.91869 -0.39534 0
M  V30 45778 H 4418.94 -0.36271 0.653032 0
M  V30 45779 H 4421.6 -0.266176 1.93074 0
M  V30 45780 H 4420.7 -1.59658 2.68171 0
M  V30 45781 N 4421 -1.48997 -0.513587 0
M  V30 45782 C 4422.24 -1.59057 -1.26777 0
M  V30 45783 C 4422.6 -0.268203 -1.90521 0
M  V30 45784 O 4421.89 0.730471 -1.77129 0
M  V30 45785 C 4422.09 -2.67764 -2.36722 0
M  V30 45786 C 4421.91 -4.10443 -1.83757 0
M  V30 45787 C 4420.68 -4.77386 -1.65622 0
M  V30 45788 C 4422.88 -4.96084 -1.35664 0
M  V30 45789 N 4420.86 -6.04423 -1.07455 0
M  V30 45790 C 4422.24 -6.13499 -0.8955 0
M  V30 45791 C 4424.29 -4.82181 -1.24119 0
M  V30 45792 C 4422.99 -7.18541 -0.330347 0
M  V30 45793 C 4425.02 -5.87361 -0.690022 0
M  V30 45794 C 4424.38 -7.03994 -0.239044 0
M  V30 45795 H 4420.48 -0.636479 -0.454333 0
M  V30 45796 H 4423.06 -1.8595 -0.57713 0
M  V30 45797 H 4421.24 -2.42666 -3.03262 0
M  V30 45798 H 4422.97 -2.67417 -3.03761 0
M  V30 45799 H 4419.72 -4.33981 -1.89625 0
M  V30 45800 H 4420.15 -6.72217 -0.803343 0
M  V30 45801 H 4424.79 -3.92334 -1.57588 0
M  V30 45802 H 4422.51 -8.08098 0.0166276 0
M  V30 45803 H 4426.09 -5.7866 -0.603648 0
M  V30 45804 H 4424.97 -7.83992 0.180802 0
M  V30 45805 N 4422.48 0.763702 -1.3786 0
M  V30 45806 C 4423.72 1.52253 -1.33512 0
M  V30 45807 C 4424.05 1.94344 0.0779536 0
M  V30 45808 O 4423.31 1.64961 1.05291 0
M  V30 45809 C 4423.6 2.79491 -2.22755 0
M  V30 45810 C 4423.27 2.56413 -3.70895 0
M  V30 45811 C 4421.93 2.49827 -4.11266 0
M  V30 45812 C 4424.28 2.35991 -4.64712 0
M  V30 45813 C 4421.61 2.20822 -5.43557 0
M  V30 45814 C 4423.96 2.08509 -5.97249 0
M  V30 45815 C 4422.63 2.00373 -6.36716 0
M  V30 45816 H 4421.9 0.557132 -0.488554 0
M  V30 45817 H 4424.55 0.879014 -1.70134 0
M  V30 45818 H 4422.85 3.48441 -1.79154 0
M  V30 45819 H 4424.55 3.37405 -2.167 0
M  V30 45820 H 4421.14 2.62405 -3.38883 0
M  V30 45821 H 4425.32 2.40064 -4.34376 0
M  V30 45822 H 4420.58 2.13025 -5.73089 0
M  V30 45823 H 4424.75 1.91708 -6.69493 0
M  V30 45824 H 4422.38 1.77662 -7.39148 0
M  V30 45825 N 4423.95 1.22562 0.990769 0
M  V30 45826 C 4425.18 1.07785 1.76607 0
M  V30 45827 C 4425.6 -0.371448 1.8511 0
M  V30 45828 O 4424.95 -1.25733 1.32278 0
M  V30 45829 C 4425 1.68524 3.19816 0
M  V30 45830 O 4424.73 3.07785 3.11769 0
M  V30 45831 C 4426.23 1.5905 4.13785 0
M  V30 45832 H 4423.45 0.377748 0.554569 0
M  V30 45833 H 4425.99 1.622 1.24545 0
M  V30 45834 H 4424.15 1.18167 3.68938 0
M  V30 45835 H 4424.56 3.37076 4.01846 0
M  V30 45836 H 4426.03 2.06268 5.12013 0
M  V30 45837 H 4426.51 0.547426 4.35775 0
M  V30 45838 H 4427.12 2.08722 3.70561 0
M  V30 45839 N 4425.43 -1.18793 1.03566 0
M  V30 45840 C 4426.68 -1.88927 0.737179 0
M  V30 45841 C 4427.01 -1.7984 -0.732893 0
M  V30 45842 O 4426.29 -1.19531 -1.53436 0
M  V30 45843 C 4426.57 -3.39603 1.19757 0
M  V30 45844 C 4426.42 -3.57527 2.72937 0
M  V30 45845 C 4427.74 -4.33066 0.783678 0
M  V30 45846 H 4424.86 -0.686048 0.269273 0
M  V30 45847 H 4427.5 -1.39792 1.28678 0
M  V30 45848 H 4425.65 -3.8158 0.729989 0
M  V30 45849 H 4427.32 -3.24676 3.27693 0
M  V30 45850 H 4425.57 -3.00352 3.13004 0
M  V30 45851 H 4426.24 -4.63227 3.00207 0
M  V30 45852 H 4428.71 -3.98841 1.18595 0
M  V30 45853 H 4427.59 -5.37066 1.13362 0
M  V30 45854 H 4427.85 -4.40987 -0.313526 0
M  V30 45855 N 4426.91 -0.814437 -1.34925 0
M  V30 45856 C 4428.16 -0.397706 -1.98148 0
M  V30 45857 C 4428.48 1.04063 -1.64912 0
M  V30 45858 O 4427.75 1.72118 -0.93554 0
M  V30 45859 H 4426.33 -0.144069 -0.732976 0
M  V30 45860 H 4428.99 -1.04201 -1.64706 0
M  V30 45861 H 4428.09 -0.509797 -3.07908 0
M  V30 45862 N 4428.39 1.46984 -0.568636 0
M  V30 45863 C 4429.35 2.28625 0.162285 0
M  V30 45864 C 4430.35 1.37599 0.832054 0
M  V30 45865 O 4431.54 1.60117 0.686164 0
M  V30 45866 C 4428.67 3.176 1.23867 0
M  V30 45867 H 4429.87 2.9472 -0.555003 0
M  V30 45868 H 4427.42 1.52862 -0.32603 0
M  V30 45869 H 4428.15 2.56221 1.98799 0
M  V30 45870 H 4427.94 3.84603 0.763083 0
M  V30 45871 H 4429.43 3.79084 1.75172 0
M  V30 45872 N 4429.87 0.305673 1.54607 0
M  V30 45873 C 4431.11 -0.301631 1.99836 0
M  V30 45874 C 4431.43 -1.5405 1.19556 0
M  V30 45875 O 4430.7 -1.93701 0.292726 0
M  V30 45876 H 4429.28 -0.114442 0.738182 0
M  V30 45877 H 4431.95 0.418083 1.90363 0
M  V30 45878 H 4431.04 -0.57044 3.06843 0
M  V30 45879 N 4431.34 -1.57564 0.0334847 0
M  V30 45880 C 4432.59 -1.91601 -0.642932 0
M  V30 45881 C 4432.91 -0.910908 -1.72417 0
M  V30 45882 O 4432.18 0.0469242 -1.95844 0
M  V30 45883 H 4430.76 -0.707236 -0.240471 0
M  V30 45884 H 4433.42 -1.94726 0.0823173 0
M  V30 45885 H 4432.52 -2.9234 -1.09288 0
M  V30 45886 N 4432.82 0.239714 -1.55766 0
M  V30 45887 C 4434.07 0.964829 -1.77582 0
M  V30 45888 C 4434.39 1.8558 -0.598764 0
M  V30 45889 O 4433.66 1.92076 0.385159 0
M  V30 45890 H 4432.24 0.359242 -0.654946 0
M  V30 45891 H 4434.9 0.255933 -1.93212 0
M  V30 45892 H 4434 1.58233 -2.69014 0
M  V30 45893 N 4434.3 1.49267 0.505678 0
M  V30 45894 C 4435.58 1.49017 1.26702 0
M  V30 45895 C 4435.96 0.215279 2.09999 0
M  V30 45896 O 4435.3 -0.802471 2.13945 0
M  V30 45897 C 4435.51 2.76638 2.12773 0
M  V30 45898 C 4436.86 3.25942 2.72116 0
M  V30 45899 O 4437.89 2.77723 2.23044 0
M  V30 45900 O 4436.75 4.09909 3.61437 0
M  V30 45901 H 4433.84 0.596217 0.573109 0
M  V30 45902 H 4436.39 1.61526 0.520333 0
M  V30 45903 H 4435.16 3.60921 1.51167 0
M  V30 45904 H 4434.78 2.66967 2.94643 0
M  V30 45905 N 4435.78 -0.756381 1.38263 0
M  V30 45906 C 4437.03 -1.51077 1.33636 0
M  V30 45907 C 4437.34 -1.95468 -0.0719381 0
M  V30 45908 O 4438.55 -2.70431 -0.240739 0
M  V30 45909 C 4437 -2.72884 2.34653 0
M  V30 45910 C 4436.61 -2.35531 3.8109 0
M  V30 45911 C 4438.35 -3.50783 2.39064 0
M  V30 45912 C 4436.26 -3.53932 4.738 0
M  V30 45913 H 4435.19 -0.567252 0.49673 0
M  V30 45914 H 4437.84 -0.827089 1.63803 0
M  V30 45915 H 4436.22 -3.4322 1.97525 0
M  V30 45916 H 4437.4 -1.72879 4.27141 0
M  V30 45917 H 4435.71 -1.70773 3.7977 0
M  V30 45918 H 4438.31 -4.38812 3.05529 0
M  V30 45919 H 4438.65 -3.9174 1.40875 0
M  V30 45920 H 4439.19 -2.87458 2.74978 0
M  V30 45921 H 4435.93 -3.18043 5.73174 0
M  V30 45922 H 4435.45 -4.15636 4.32443 0
M  V30 45923 H 4437.12 -4.20549 4.91678 0
M  V30 45924 N 4437.26 -1.23086 -0.984255 0
M  V30 45925 C 4438.49 -1.08563 -1.75778 0
M  V30 45926 C 4438.89 0.366105 -1.85624 0
M  V30 45927 O 4438.24 1.26519 -1.33187 0
M  V30 45928 C 4438.3 -1.6322 -3.20312 0
M  V30 45929 C 4437.96 -3.11933 -3.33986 0
M  V30 45930 C 4438.96 -4.0927 -3.20615 0
M  V30 45931 C 4436.65 -3.51564 -3.58759 0
M  V30 45932 C 4438.64 -5.44222 -3.31816 0
M  V30 45933 C 4436.33 -4.86662 -3.69599 0
M  V30 45934 C 4437.32 -5.828 -3.56137 0
M  V30 45935 O 4437.01 -7.15443 -3.66601 0
M  V30 45936 H 4436.74 -0.380732 -0.558586 0
M  V30 45937 H 4439.3 -1.63326 -1.24555 0
M  V30 45938 H 4437.53 -1.02873 -3.72765 0
M  V30 45939 H 4439.22 -1.4423 -3.79411 0
M  V30 45940 H 4439.98 -3.79995 -3.01378 0
M  V30 45941 H 4435.86 -2.77252 -3.6831 0
M  V30 45942 H 4439.41 -6.19242 -3.21225 0
M  V30 45943 H 4435.3 -5.15615 -3.88345 0
M  V30 45944 H 4436.07 -7.2314 -3.8342 0
M  V30 45945 N 4438.73 1.18243 -1.04194 0
M  V30 45946 C 4439.68 2.19841 -0.604469 0
M  V30 45947 C 4440.67 1.56963 0.353759 0
M  V30 45948 O 4441.86 1.76156 0.172608 0
M  V30 45949 C 4438.99 3.43287 0.0297768 0
M  V30 45950 C 4438.08 4.13284 -0.951676 0
M  V30 45951 N 4438.47 4.59263 -2.11922 0
M  V30 45952 C 4436.76 4.39163 -0.777955 0
M  V30 45953 C 4437.47 5.13164 -2.7393 0
M  V30 45954 N 4436.44 5.04756 -2.01797 0
M  V30 45955 H 4440.24 2.53083 -1.49419 0
M  V30 45956 H 4437.76 1.34462 -0.910705 0
M  V30 45957 H 4439.75 4.15335 0.360891 0
M  V30 45958 H 4438.41 3.11541 0.915018 0
M  V30 45959 H 4439.43 4.53672 -2.49805 0
M  V30 45960 H 4436.1 4.17461 0.0570864 0
M  V30 45961 H 4437.49 5.58934 -3.72884 0
M  V30 45962 N 4440.21 0.821581 1.34491 0
M  V30 45963 C 4441.44 0.420944 2.03083 0
M  V30 45964 C 4441.86 -0.964858 1.61469 0
M  V30 45965 O 4441.22 -1.62761 0.798664 0
M  V30 45966 C 4441.27 0.529539 3.56691 0
M  V30 45967 O 4440.37 -0.451158 4.09925 0
M  V30 45968 H 4439.71 0.173512 0.640929 0
M  V30 45969 H 4442.24 1.11163 1.71767 0
M  V30 45970 H 4442.25 0.404814 4.05987 0
M  V30 45971 H 4440.93 1.54027 3.86327 0
M  V30 45972 H 4439.51 -0.285427 3.71806 0
M  V30 45973 N 4441.69 -1.4668 0.576422 0
M  V30 45974 C 4442.94 -2.02712 0.0596933 0
M  V30 45975 C 4443.27 -1.4477 -1.29443 0
M  V30 45976 O 4442.54 -0.61042 -1.84673 0
M  V30 45977 C 4442.83 -3.60098 -0.0128237 0
M  V30 45978 C 4442.68 -4.28437 1.36975 0
M  V30 45979 C 4444 -4.34226 -0.716627 0
M  V30 45980 H 4441.12 -0.736636 0.0231666 0
M  V30 45981 H 4443.76 -1.74895 0.742412 0
M  V30 45982 H 4441.91 -3.83928 -0.594243 0
M  V30 45983 H 4443.58 -4.15889 1.99585 0
M  V30 45984 H 4441.83 -3.88043 1.9392 0
M  V30 45985 H 4442.5 -5.37155 1.27154 0
M  V30 45986 H 4444.97 -4.15503 -0.222761 0
M  V30 45987 H 4443.85 -5.43938 -0.736379 0
M  V30 45988 H 4444.11 -4.04829 -1.77668 0
M  V30 45989 N 4443.17 -0.313868 -1.54443 0
M  V30 45990 C 4444.39 0.296609 -2.05268 0
M  V30 45991 C 4444.82 1.45753 -1.18903 0
M  V30 45992 O 4444.18 1.80238 -0.195949 0
M  V30 45993 C 4444.22 0.718186 -3.53376 0
M  V30 45994 O 4443.33 1.82162 -3.69988 0
M  V30 45995 H 4442.67 0.0553828 -0.661686 0
M  V30 45996 H 4445.2 -0.459457 -1.99374 0
M  V30 45997 H 4445.21 1.0035 -3.95467 0
M  V30 45998 H 4443.88 -0.130967 -4.15694 0
M  V30 45999 H 4442.46 1.53586 -3.39802 0
M  V30 46000 N 4444.65 1.57544 -0.0418402 0
M  V30 46001 C 4445.6 2.07486 0.945175 0
M  V30 46002 C 4446.58 0.978028 1.27763 0
M  V30 46003 O 4447.77 1.24146 1.26161 0
M  V30 46004 C 4444.9 2.61584 2.22326 0
M  V30 46005 C 4443.99 3.7822 1.91861 0
M  V30 46006 N 4444.38 4.88349 1.31716 0
M  V30 46007 C 4442.68 3.86948 2.21782 0
M  V30 46008 C 4443.38 5.69467 1.1867 0
M  V30 46009 N 4442.35 5.16777 1.68648 0
M  V30 46010 H 4446.16 2.90031 0.475339 0
M  V30 46011 H 4443.67 1.61581 0.162854 0
M  V30 46012 H 4445.67 2.95661 2.93922 0
M  V30 46013 H 4444.33 1.80474 2.69924 0
M  V30 46014 H 4445.34 5.08339 0.99055 0
M  V30 46015 H 4442.01 3.16766 2.71966 0
M  V30 46016 H 4443.4 6.68025 0.720558 0
M  V30 46017 N 4446.12 -0.23145 1.55891 0
M  V30 46018 C 4447.09 -1.27021 1.90783 0
M  V30 46019 C 4448.09 -1.40306 0.785556 0
M  V30 46020 O 4449.28 -1.38741 1.05341 0
M  V30 46021 C 4446.41 -2.64558 2.14992 0
M  V30 46022 H 4447.6 -0.972918 2.8368 0
M  V30 46023 H 4445.16 -0.471433 1.49021 0
M  V30 46024 H 4445.89 -2.99402 1.24615 0
M  V30 46025 H 4445.68 -2.56295 2.96741 0
M  V30 46026 H 4447.17 -3.39535 2.43117 0
M  V30 46027 N 4447.6 -1.49533 -0.497755 0
M  V30 46028 C 4449.02 -1.36368 -0.829218 0
M  V30 46029 C 4449.22 -0.399253 -1.97505 0
M  V30 46030 O 4448.27 0.167888 -2.51941 0
M  V30 46031 C 4449.59 -2.77158 -1.16637 0
M  V30 46032 C 4451.14 -2.85882 -1.27439 0
M  V30 46033 C 4451.61 -4.27446 -1.64482 0
M  V30 46034 N 4453.1 -4.30271 -1.71525 0
M  V30 46035 C 4453.84 -5.36777 -2.01638 0
M  V30 46036 N 4453.33 -6.53524 -2.29953 0
M  V30 46037 N 4455.13 -5.24196 -2.02916 0
M  V30 46038 H 4447.28 -2.1083 0.257778 0
M  V30 46039 H 4449.54 -0.946532 0.0527424 0
M  V30 46040 H 4449.25 -3.49444 -0.397749 0
M  V30 46041 H 4449.12 -3.12729 -2.10904 0
M  V30 46042 H 4451.51 -2.13831 -2.03373 0
M  V30 46043 H 4451.59 -2.53888 -0.312155 0
M  V30 46044 H 4451.23 -5.00024 -0.890976 0
M  V30 46045 H 4451.16 -4.56906 -2.61811 0
M  V30 46046 H 4453.65 -3.46076 -1.5179 0
M  V30 46047 H 4453.97 -7.30515 -2.52128 0
M  V30 46048 H 4452.31 -6.56745 -2.27402 0
M  V30 46049 H 4455.5 -4.31994 -1.80274 0
M  V30 46050 H 4455.67 -6.07293 -2.2605 0
M  V30 46051 N 4449.08 0.749038 -1.38662 0
M  V30 46052 C 4450.49 1.3266 -1.31371 0
M  V30 46053 C 4450.84 1.96179 0.028415 0
M  V30 46054 O 4449.97 1.95373 0.930501 0
M  V30 46055 C 4450.56 2.41211 -2.37914 0
M  V30 46056 C 4449.12 2.94676 -2.34186 0
M  V30 46057 C 4448.27 1.68101 -2.20539 0
M  V30 46058 H 4451.22 0.547576 -1.48954 0
M  V30 46059 H 4451.24 3.21261 -2.03892 0
M  V30 46060 H 4450.75 1.9495 -3.35583 0
M  V30 46061 H 4448.85 3.45253 -1.40112 0
M  V30 46062 H 4448.97 3.48745 -3.28502 0
M  V30 46063 H 4447.33 1.91901 -1.67469 0
M  V30 46064 H 4448.11 1.23912 -3.20157 0
M  V30 46065 N 4450.56 1.23606 0.977714 0
M  V30 46066 C 4451.98 0.999295 1.24444 0
M  V30 46067 C 4452.18 -0.297983 1.99284 0
M  V30 46068 O 4451.23 -1.01673 2.31125 0
M  V30 46069 C 4452.54 2.20791 2.04136 0
M  V30 46070 C 4454.09 2.2531 2.17266 0
M  V30 46071 C 4454.57 3.45766 3.0035 0
M  V30 46072 N 4456.06 3.46021 3.07934 0
M  V30 46073 C 4456.79 4.35881 3.72553 0
M  V30 46074 N 4456.29 5.35981 4.38972 0
M  V30 46075 N 4458.08 4.23618 3.69465 0
M  V30 46076 H 4450.23 2.06988 0.47641 0
M  V30 46077 H 4452.5 0.90781 0.273102 0
M  V30 46078 H 4452.2 3.1495 1.56522 0
M  V30 46079 H 4452.08 2.22095 3.04883 0
M  V30 46080 H 4454.46 1.31689 2.64087 0
M  V30 46081 H 4454.54 2.28037 1.15899 0
M  V30 46082 H 4454.19 4.39696 2.54225 0
M  V30 46083 H 4454.12 3.4028 4.01892 0
M  V30 46084 H 4456.61 2.73597 2.60678 0
M  V30 46085 H 4456.92 6.008 4.86065 0
M  V30 46086 H 4455.27 5.39878 4.37672 0
M  V30 46087 H 4458.46 3.44658 3.16747 0
M  V30 46088 H 4458.63 4.9385 4.19542 0
M  V30 46089 N 4452.04 -1.17688 1.0482 0
M  V30 46090 C 4452.97 -2.23775 0.666869 0
M  V30 46091 C 4453.95 -1.66798 -0.333552 0
M  V30 46092 O 4455.13 -1.9304 -0.211974 0
M  V30 46093 C 4452.26 -3.4728 0.0369154 0
M  V30 46094 C 4451.22 -4.17056 0.961692 0
M  V30 46095 C 4450.54 -5.34341 0.195814 0
M  V30 46096 C 4451.84 -4.69705 2.28418 0
M  V30 46097 H 4453.54 -2.55927 1.55376 0
M  V30 46098 H 4451.08 -1.23017 0.748528 0
M  V30 46099 H 4453.04 -4.20707 -0.241627 0
M  V30 46100 H 4451.76 -3.14384 -0.884894 0
M  V30 46101 H 4450.42 -3.45537 1.22474 0
M  V30 46102 H 4450.07 -4.97695 -0.728641 0
M  V30 46103 H 4449.77 -5.81963 0.81198 0
M  V30 46104 H 4451.29 -6.10553 -0.0755326 0
M  V30 46105 H 4452.71 -5.34787 2.06581 0
M  V30 46106 H 4451.1 -5.2789 2.85399 0
M  V30 46107 H 4452.17 -3.86716 2.92539 0
M  V30 46108 N 4453.52 -0.828702 -1.34053 0
M  V30 46109 C 4454.45 -0.269524 -2.31939 0
M  V30 46110 C 4455.43 0.617192 -1.58508 0
M  V30 46111 O 4456.61 0.542865 -1.86458 0
M  V30 46112 C 4453.74 0.564672 -3.42679 0
M  V30 46113 C 4452.7 -0.225391 -4.27406 0
M  V30 46114 C 4452.02 0.731914 -5.29667 0
M  V30 46115 C 4453.32 -1.43681 -5.02149 0
M  V30 46116 H 4455.02 -1.08738 -2.78956 0
M  V30 46117 H 4452.56 -0.52433 -1.34115 0
M  V30 46118 H 4454.51 0.966089 -4.10176 0
M  V30 46119 H 4453.24 1.41564 -2.94325 0
M  V30 46120 H 4451.9 -0.608244 -3.61519 0
M  V30 46121 H 4451.55 1.579 -4.77574 0
M  V30 46122 H 4451.25 0.207463 -5.87234 0
M  V30 46123 H 4452.77 1.13106 -6.00033 0
M  V30 46124 H 4454.18 -1.1091 -5.6247 0
M  V30 46125 H 4452.58 -1.89731 -5.69317 0
M  V30 46126 H 4453.65 -2.21197 -4.31509 0
M  V30 46127 N 4454.99 1.46373 -0.584193 0
M  V30 46128 C 4455.92 2.33104 0.135955 0
M  V30 46129 C 4456.9 1.45434 0.882204 0
M  V30 46130 O 4458.09 1.74249 0.857372 0
M  V30 46131 C 4455.22 3.27735 1.14922 0
M  V30 46132 C 4454.17 4.24857 0.517713 0
M  V30 46133 C 4453.5 5.09007 1.63755 0
M  V30 46134 C 4454.8 5.19438 -0.546068 0
M  V30 46135 H 4456.49 2.93565 -0.588189 0
M  V30 46136 H 4454.04 1.41165 -0.284308 0
M  V30 46137 H 4455.99 3.87267 1.66139 0
M  V30 46138 H 4454.72 2.65384 1.90366 0
M  V30 46139 H 4453.38 3.6659 0.0266072 0
M  V30 46140 H 4453.02 4.4304 2.38169 0
M  V30 46141 H 4452.72 5.74782 1.22065 0
M  V30 46142 H 4454.25 5.71403 2.15246 0
M  V30 46143 H 4455.66 5.73177 -0.118906 0
M  V30 46144 H 4454.06 5.93562 -0.883379 0
M  V30 46145 H 4455.13 4.6328 -1.43178 0
M  V30 46146 N 4456.47 0.322054 1.54274 0
M  V30 46147 C 4457.4 -0.537332 2.27233 0
M  V30 46148 C 4458.38 -1.12059 1.27972 0
M  V30 46149 O 4459.57 -1.146 1.56781 0
M  V30 46150 C 4456.7 -1.69908 3.029 0
M  V30 46151 C 4455.65 -1.24519 4.09486 0
M  V30 46152 C 4454.98 -2.49377 4.72985 0
M  V30 46153 C 4456.28 -0.361151 5.2105 0
M  V30 46154 H 4457.97 0.0712458 2.99315 0
M  V30 46155 H 4455.52 0.0357061 1.43956 0
M  V30 46156 H 4457.47 -2.30656 3.5267 0
M  V30 46157 H 4456.19 -2.33422 2.28433 0
M  V30 46158 H 4454.85 -0.660656 3.60598 0
M  V30 46159 H 4454.5 -3.11251 3.95135 0
M  V30 46160 H 4454.2 -2.19699 5.44983 0
M  V30 46161 H 4455.73 -3.10889 5.25528 0
M  V30 46162 H 4457.14 -0.874873 5.66585 0
M  V30 46163 H 4455.54 -0.157218 5.99894 0
M  V30 46164 H 4456.61 0.608389 4.81068 0
M  V30 46165 N 4457.95 -1.5752 0.0501946 0
M  V30 46166 C 4459.19 -1.94523 -0.627714 0
M  V30 46167 C 4459.55 -0.928324 -1.68066 0
M  V30 46168 O 4460.75 -1.18526 -2.41257 0
M  V30 46169 C 4459.03 -3.36323 -1.2092 0
M  V30 46170 S 4460.58 -3.95279 -1.90525 0
M  V30 46171 H 4457.4 -0.680463 -0.206134 0
M  V30 46172 H 4460 -1.95138 0.118898 0
M  V30 46173 H 4458.71 -4.08133 -0.430721 0
M  V30 46174 H 4458.24 -3.392 -1.99265 0
M  V30 46175 H 4460.25 -3.80426 -3.18576 0
M  V30 46176 N 4459.43 0.223179 -1.56012 0
M  V30 46177 C 4460.36 1.27981 -1.95303 0
M  V30 46178 C 4461.34 1.48973 -0.821032 0
M  V30 46179 O 4462.52 1.61184 -1.08321 0
M  V30 46180 C 4459.65 2.62992 -2.26831 0
M  V30 46181 C 4458.61 2.56659 -3.42506 0
M  V30 46182 C 4457.93 3.95685 -3.59636 0
M  V30 46183 C 4459.23 2.11584 -4.77524 0
M  V30 46184 H 4460.93 0.953425 -2.83814 0
M  V30 46185 H 4458.47 0.457196 -1.36549 0
M  V30 46186 H 4460.43 3.37068 -2.5291 0
M  V30 46187 H 4459.15 2.97315 -1.35172 0
M  V30 46188 H 4457.81 1.8504 -3.16474 0
M  V30 46189 H 4457.46 4.27312 -2.65355 0
M  V30 46190 H 4457.16 3.92329 -4.37438 0
M  V30 46191 H 4458.68 4.71425 -3.88061 0
M  V30 46192 H 4460.1 2.75402 -5.02818 0
M  V30 46193 H 4458.49 2.19291 -5.58598 0
M  V30 46194 H 4459.56 1.06808 -4.72991 0
M  V30 46195 N 4460.91 1.49795 0.489818 0
M  V30 46196 C 4461.84 1.70206 1.5985 0
M  V30 46197 C 4462.82 0.550817 1.60935 0
M  V30 46198 O 4464 0.787903 1.77499 0
M  V30 46199 C 4461.13 1.77893 2.98281 0
M  V30 46200 C 4460.09 2.92918 3.12063 0
M  V30 46201 C 4459.41 2.85728 4.51955 0
M  V30 46202 C 4460.71 4.337 2.91035 0
M  V30 46203 H 4462.41 2.6303 1.43023 0
M  V30 46204 H 4459.95 1.26576 0.68662 0
M  V30 46205 H 4461.9 1.90758 3.75752 0
M  V30 46206 H 4460.63 0.816764 3.16222 0
M  V30 46207 H 4459.29 2.79674 2.37019 0
M  V30 46208 H 4458.94 1.87397 4.66789 0
M  V30 46209 H 4458.64 3.62937 4.62115 0
M  V30 46210 H 4460.16 3.00616 5.31472 0
M  V30 46211 H 4461.57 4.47568 3.58268 0
M  V30 46212 H 4459.97 5.12216 3.12657 0
M  V30 46213 H 4461.04 4.47368 1.87056 0
M  V30 46214 N 4462.38 -0.741673 1.39057 0
M  V30 46215 C 4463.31 -1.86895 1.39973 0
M  V30 46216 C 4464.29 -1.68039 0.263979 0
M  V30 46217 O 4465.48 -1.88456 0.468821 0
M  V30 46218 C 4462.61 -3.24567 1.23586 0
M  V30 46219 C 4461.56 -3.58048 2.3449 0
M  V30 46220 C 4460.89 -4.94585 2.03198 0
M  V30 46221 C 4462.19 -3.61703 3.76787 0
M  V30 46222 H 4463.88 -1.86387 2.34308 0
M  V30 46223 H 4461.43 -0.895321 1.12783 0
M  V30 46224 H 4463.38 -4.03096 1.22848 0
M  V30 46225 H 4462.11 -3.25586 0.25716 0
M  V30 46226 H 4460.77 -2.81845 2.34433 0
M  V30 46227 H 4460.41 -4.92177 1.03783 0
M  V30 46228 H 4460.11 -5.17955 2.77483 0
M  V30 46229 H 4461.64 -5.75479 2.04099 0
M  V30 46230 H 4463.05 -4.30321 3.78809 0
M  V30 46231 H 4461.45 -3.96588 4.50376 0
M  V30 46232 H 4462.52 -2.61658 4.08244 0
M  V30 46233 N 4463.86 -1.24123 -0.971145 0
M  V30 46234 C 4464.79 -1.05515 -2.083 0
M  V30 46235 C 4465.77 0.0308266 -1.70072 0
M  V30 46236 O 4466.96 -0.13559 -1.93726 0
M  V30 46237 C 4464.09 -0.655485 -3.41058 0
M  V30 46238 C 4463.04 -1.68985 -3.93228 0
M  V30 46239 C 4462.37 -1.14535 -5.22289 0
M  V30 46240 C 4463.67 -3.08502 -4.21455 0
M  V30 46241 H 4465.36 -1.98515 -2.24125 0
M  V30 46242 H 4462.91 -0.955859 -1.077 0
M  V30 46243 H 4464.86 -0.512317 -4.18274 0
M  V30 46244 H 4463.58 0.310205 -3.25123 0
M  V30 46245 H 4462.24 -1.82117 -3.18165 0
M  V30 46246 H 4461.89 -0.170366 -5.02711 0
M  V30 46247 H 4461.59 -1.83654 -5.58162 0
M  V30 46248 H 4463.12 -1.01422 -6.02118 0
M  V30 46249 H 4464.53 -2.98618 -4.89388 0
M  V30 46250 H 4462.93 -3.74943 -4.68549 0
M  V30 46251 H 4464 -3.56799 -3.28363 0
M  V30 46252 N 4465.34 1.17131 -1.05443 0
M  V30 46253 C 4466.57 1.9191 -0.786463 0
M  V30 46254 C 4466.99 1.76432 0.652172 0
M  V30 46255 O 4466.35 1.08378 1.45341 0
M  V30 46256 C 4466.4 3.40916 -1.17509 0
M  V30 46257 O 4465.5 4.11243 -0.308733 0
M  V30 46258 H 4464.84 0.598205 -0.288179 0
M  V30 46259 H 4467.37 1.48452 -1.40795 0
M  V30 46260 H 4467.38 3.91664 -1.14294 0
M  V30 46261 H 4466.06 3.51502 -2.22304 0
M  V30 46262 H 4464.63 3.7073 -0.4017 0
M  V30 46263 N 4466.82 0.835799 1.33612 0
M  V30 46264 C 4468.06 0.430665 1.98174 0
M  V30 46265 C 4468.4 -1.00679 1.66065 0
M  V30 46266 O 4467.67 -1.70336 0.938937 0
M  V30 46267 C 4467.96 0.648189 3.54218 0
M  V30 46268 C 4467.81 2.13269 3.96026 0
M  V30 46269 C 4469.13 0.092366 4.40003 0
M  V30 46270 H 4466.25 0.157949 0.719876 0
M  V30 46271 H 4468.89 1.05075 1.58301 0
M  V30 46272 H 4467.04 0.120373 3.88313 0
M  V30 46273 H 4468.71 2.72513 3.72202 0
M  V30 46274 H 4466.95 2.61835 3.45868 0
M  V30 46275 H 4467.62 2.23565 5.04701 0
M  V30 46276 H 4470.1 0.543488 4.12535 0
M  V30 46277 H 4468.98 0.274276 5.48214 0
M  V30 46278 H 4469.24 -1.00363 4.30557 0
M  V30 46279 N 4468.3 -1.46061 0.591947 0
M  V30 46280 C 4469.54 -2.01938 0.0809101 0
M  V30 46281 C 4469.87 -1.46479 -1.2872 0
M  V30 46282 O 4469.14 -0.653009 -1.84696 0
M  V30 46283 H 4467.72 -0.746515 0.0269201 0
M  V30 46284 H 4470.38 -1.79053 0.769815 0
M  V30 46285 H 4469.47 -3.12094 0.0188675 0
M  V30 46286 N 4469.77 -0.330231 -1.54101 0
M  V30 46287 C 4471.02 0.270735 -2.00985 0
M  V30 46288 C 4471.35 1.51261 -1.21794 0
M  V30 46289 O 4470.63 1.92141 -0.301995 0
M  V30 46290 C 4470.91 0.598214 -3.55096 0
M  V30 46291 C 4470.76 -0.65483 -4.45008 0
M  V30 46292 C 4472.08 1.41319 -4.16794 0
M  V30 46293 H 4469.2 0.0969274 -0.730598 0
M  V30 46294 H 4471.84 -0.448131 -1.8464 0
M  V30 46295 H 4469.99 1.21065 -3.69155 0
M  V30 46296 H 4471.67 -1.293 -4.42808 0
M  V30 46297 H 4469.91 -1.28239 -4.14412 0
M  V30 46298 H 4470.58 -0.381138 -5.50683 0
M  V30 46299 H 4473.06 0.895454 -4.06351 0
M  V30 46300 H 4471.93 1.61109 -5.24724 0
M  V30 46301 H 4472.19 2.41133 -3.7055 0
M  V30 46302 N 4471.25 1.57491 -0.0585476 0
M  V30 46303 C 4472.5 1.92599 0.612369 0
M  V30 46304 C 4472.82 0.938222 1.70946 0
M  V30 46305 O 4472.09 -0.0157612 1.95894 0
M  V30 46306 H 4470.67 0.710972 0.229189 0
M  V30 46307 H 4473.33 1.9457 -0.113286 0
M  V30 46308 H 4472.43 2.94042 1.04623 0
M  V30 46309 N 4472.73 -0.214903 1.56128 0
M  V30 46310 C 4473.98 -0.936389 1.78647 0
M  V30 46311 C 4474.29 -1.85235 0.628294 0
M  V30 46312 O 4475.5 -2.61298 0.737278 0
M  V30 46313 C 4473.95 -1.71529 3.16395 0
M  V30 46314 C 4473.56 -0.845145 4.39956 0
M  V30 46315 C 4475.31 -2.4276 3.48236 0
M  V30 46316 C 4473.21 -1.62178 5.68729 0
M  V30 46317 H 4472.14 -0.353378 0.666063 0
M  V30 46318 H 4474.79 -0.190105 1.82513 0
M  V30 46319 H 4473.18 -2.50473 3.06724 0
M  V30 46320 H 4474.35 -0.0957733 4.607 0
M  V30 46321 H 4472.67 -0.244642 4.15681 0
M  V30 46322 H 4475.26 -3.01378 4.41673 0
M  V30 46323 H 4475.61 -3.15974 2.71046 0
M  V30 46324 H 4476.14 -1.708 3.59266 0
M  V30 46325 H 4472.88 -0.932783 6.48829 0
M  V30 46326 H 4472.4 -2.34559 5.52034 0
M  V30 46327 H 4474.08 -2.18074 6.09141 0
M  V30 46328 N 4474.21 -1.50053 -0.481867 0
M  V30 46329 C 4475.46 -1.60502 -1.23472 0
M  V30 46330 C 4475.78 -0.300398 -1.92166 0
M  V30 46331 O 4475.04 0.71303 -1.82248 0
M  V30 46332 C 4475.34 -2.72725 -2.30989 0
M  V30 46333 C 4475 -4.13578 -1.79621 0
M  V30 46334 C 4473.67 -4.51906 -1.65332 0
M  V30 46335 C 4476.02 -5.01654 -1.41394 0
M  V30 46336 C 4473.35 -5.76061 -1.11224 0
M  V30 46337 C 4475.7 -6.26346 -0.887318 0
M  V30 46338 C 4474.36 -6.63486 -0.730974 0
M  V30 46339 H 4473.63 -0.587319 -0.451815 0
M  V30 46340 H 4476.28 -1.8395 -0.532403 0
M  V30 46341 H 4474.58 -2.43323 -3.07085 0
M  V30 46342 H 4476.28 -2.78016 -2.88978 0
M  V30 46343 H 4472.87 -3.83336 -1.91707 0
M  V30 46344 H 4477.05 -4.72684 -1.51273 0
M  V30 46345 H 4472.31 -6.0352 -0.978473 0
M  V30 46346 H 4476.48 -6.9396 -0.58241 0
M  V30 46347 H 4474.11 -7.5957 -0.309539 0
M  V30 46348 N 4475.69 0.734288 -1.39449 0
M  V30 46349 C 4476.62 1.8615 -1.40962 0
M  V30 46350 C 4477.6 1.67897 -0.272886 0
M  V30 46351 O 4478.78 1.88205 -0.478809 0
M  V30 46352 C 4475.91 3.23907 -1.25305 0
M  V30 46353 C 4474.87 3.568 -2.36385 0
M  V30 46354 C 4474.19 4.93501 -2.05818 0
M  V30 46355 C 4475.49 3.597 -3.78699 0
M  V30 46356 H 4477.19 1.85141 -2.35293 0
M  V30 46357 H 4474.73 0.889328 -1.13256 0
M  V30 46358 H 4476.69 4.02439 -1.24984 0
M  V30 46359 H 4475.41 3.25445 -0.274423 0
M  V30 46360 H 4474.07 2.80598 -2.35924 0
M  V30 46361 H 4473.72 4.9162 -1.06391 0
M  V30 46362 H 4473.42 5.16476 -2.80226 0
M  V30 46363 H 4474.94 5.74388 -2.07148 0
M  V30 46364 H 4476.35 4.28307 -3.81086 0
M  V30 46365 H 4474.75 3.94194 -4.52473 0
M  V30 46366 H 4475.82 2.59489 -4.09626 0
M  V30 46367 N 4477.16 1.24636 0.964549 0
M  V30 46368 C 4478.09 1.06618 2.07737 0
M  V30 46369 C 4479.08 -0.0218068 1.70086 0
M  V30 46370 O 4480.26 0.145861 1.93651 0
M  V30 46371 C 4477.39 0.673563 3.40706 0
M  V30 46372 C 4476.34 1.71068 3.92326 0
M  V30 46373 C 4475.67 1.17303 5.21674 0
M  V30 46374 C 4476.97 3.10732 4.19813 0
M  V30 46375 H 4478.66 1.99701 2.23069 0
M  V30 46376 H 4476.21 0.961557 1.07192 0
M  V30 46377 H 4478.16 0.534492 4.17997 0
M  V30 46378 H 4476.89 -0.292959 3.25283 0
M  V30 46379 H 4475.55 1.83802 3.17195 0
M  V30 46380 H 4475.19 0.197023 5.02614 0
M  V30 46381 H 4474.89 1.86612 5.5718 0
M  V30 46382 H 4476.42 1.04614 6.01571 0
M  V30 46383 H 4477.83 3.01209 4.87797 0
M  V30 46384 H 4476.23 3.77423 4.66554 0
M  V30 46385 H 4477.3 3.58535 3.26467 0
M  V30 46386 N 4478.64 -1.1657 1.06062 0
M  V30 46387 C 4480.05 -1.68659 0.800691 0
M  V30 46388 C 4480.4 -1.84186 -0.676016 0
M  V30 46389 O 4479.53 -1.53573 -1.52461 0
M  V30 46390 C 4480.12 -3.06351 1.44687 0
M  V30 46391 C 4478.68 -3.5557 1.23477 0
M  V30 46392 C 4477.83 -2.31611 1.52485 0
M  V30 46393 H 4480.78 -1.00965 1.22441 0
M  V30 46394 H 4480.8 -3.70633 0.860918 0
M  V30 46395 H 4480.31 -2.95018 2.52162 0
M  V30 46396 H 4478.42 -3.72167 0.179658 0
M  V30 46397 H 4478.53 -4.37805 1.94586 0
M  V30 46398 H 4476.89 -2.36509 0.945293 0
M  V30 46399 H 4477.68 -2.22878 2.61114 0
M  V30 46400 N 4480.12 -0.842873 -1.33167 0
M  V30 46401 C 4481.08 -0.284145 -2.27432 0
M  V30 46402 C 4482.08 0.549427 -1.51122 0
M  V30 46403 O 4483.27 0.362639 -1.70384 0
M  V30 46404 C 4480.41 0.599266 -3.35591 0
M  V30 46405 H 4481.6 -1.11599 -2.78363 0
M  V30 46406 H 4479.15 -0.616271 -1.43638 0
M  V30 46407 H 4479.89 1.45339 -2.89909 0
M  V30 46408 H 4479.67 0.00277482 -3.921 0
M  V30 46409 H 4481.16 0.983345 -4.05857 0
M  V30 46410 N 4481.6 1.45745 -0.599685 0
M  V30 46411 C 4483.02 1.57423 -0.262696 0
M  V30 46412 C 4483.22 1.59226 1.23488 0
M  V30 46413 O 4482.27 1.51832 2.01751 0
M  V30 46414 C 4483.58 2.86058 -0.926896 0
M  V30 46415 C 4485.13 2.99719 -0.902072 0
M  V30 46416 C 4485.61 4.31113 -1.54613 0
M  V30 46417 N 4487.1 4.37853 -1.51126 0
M  V30 46418 C 4487.83 5.38173 -1.97882 0
M  V30 46419 N 4487.33 6.45074 -2.52689 0
M  V30 46420 N 4489.12 5.29481 -1.88697 0
M  V30 46421 H 4481.27 1.42818 -1.57216 0
M  V30 46422 H 4483.54 0.682327 -0.658129 0
M  V30 46423 H 4483.24 2.90598 -1.98105 0
M  V30 46424 H 4483.12 3.74561 -0.44537 0
M  V30 46425 H 4485.5 2.94751 0.143514 0
M  V30 46426 H 4485.58 2.12647 -1.42179 0
M  V30 46427 H 4485.23 4.3684 -2.59101 0
M  V30 46428 H 4485.16 5.16989 -1.0015 0
M  V30 46429 H 4487.65 3.61206 -1.11081 0
M  V30 46430 H 4487.96 7.17859 -2.8618 0
M  V30 46431 H 4486.31 6.45847 -2.56724 0
M  V30 46432 H 4489.5 4.44872 -1.45625 0
M  V30 46433 H 4489.67 6.07516 -2.2545 0
M  V30 46434 O 4483.12 0.480573 1.54184 0
M  V30 46435 H 4483.81 -0.0423298 1.93654 0
M  V30 END ATOM
M  V30 BEGIN BOND
M  V30 END BOND
M  V30 END CTAB
M  END
$$$$
