drugbank_target|P26841 Chloramphenicol acetyltransferase (DB01829)
 OpenBabel12092119523D

  0  0  0     0  0            999 V3000
M  V30 BEGIN CTAB
M  V30 COUNTS 3228 3280 0 0 0
M  V30 BEGIN ATOM
M  V30 1 H -0.908 1.98254 -0.117106 0
M  V30 2 N 0 1.576 0 0
M  V30 3 C 0.933 2.03868 1.02534 0
M  V30 4 C 1.911 0.928543 1.3348 0
M  V30 5 O 3.095 1.19667 1.45644 0
M  V30 6 C 0.222 2.43627 2.35294 0
M  V30 7 C -0.732 3.65373 2.2001 0
M  V30 8 S 0.101 5.13292 1.52614 0
M  V30 9 C 1.257 5.56322 2.86805 0
M  V30 10 H 1.49 2.90518 0.631377 0
M  V30 11 H -0.977 1.52953 0.210867 0
M  V30 12 H 0.981 2.67203 3.11629 0
M  V30 13 H -0.358 1.57376 2.7183 0
M  V30 14 H -1.165 3.90944 3.18086 0
M  V30 15 H -1.563 3.418 1.51819 0
M  V30 16 H 0.729 5.58782 3.83104 0
M  V30 17 H 1.672 6.56266 2.65933 0
M  V30 18 H 2.08 4.83886 2.90714 0
M  V30 19 N 1.4781 -0.272755 1.55222 0
M  V30 20 C 2.7261 -1.00234 1.75492 0
M  V30 21 C 3.0471 -1.8681 0.5592 0
M  V30 22 O 2.3171 -1.91215 -0.425882 0
M  V30 23 H 0.8971 -0.373076 0.647166 0
M  V30 24 H 3.5591 -0.296926 1.92625 0
M  V30 25 H 2.6551 -1.63913 2.65592 0
M  V30 26 N 2.9562 -1.48159 -0.537278 0
M  V30 27 C 3.9042 -1.62573 -1.66352 0
M  V30 28 C 4.8982 -0.492366 -1.62087 0
M  V30 29 O 6.1042 -0.670847 -1.67032 0
M  V30 30 H 2.4792 -0.511992 -0.550789 0
M  V30 31 H 4.4502 -2.57176 -1.51337 0
M  V30 32 C 3.1992 -1.67583 -3.04649 0
M  V30 33 H 2.5222 -2.54151 -3.08622 0
M  V30 34 H 3.9622 -1.81713 -3.83088 0
M  V30 35 C 2.4212 -0.413039 -3.34358 0
M  V30 36 O 2.9512 0.477259 -3.98855 0
M  V30 37 N 1.1572 -0.286961 -2.8918 0
M  V30 38 H 0.7042 -1.01241 -2.36871 0
M  V30 39 H 0.6622 0.556963 -3.09427 0
M  V30 40 N 4.4343 0.785586 -1.36625 0
M  V30 41 C 5.6643 1.5722 -1.34036 0
M  V30 42 C 6.0723 1.89033 0.0795062 0
M  V30 43 O 5.4153 1.50881 1.04789 0
M  V30 44 C 5.4773 2.91759 -2.10041 0
M  V30 45 C 5.1413 2.82654 -3.59104 0
M  V30 46 C 6.1383 2.54634 -4.53274 0
M  V30 47 C 3.8233 3.01111 -4.02042 0
M  V30 48 C 5.8173 2.45177 -5.88359 0
M  V30 49 C 3.5043 2.91276 -5.37216 0
M  V30 50 C 4.5023 2.63348 -6.30188 0
M  V30 51 O 4.1903 2.53514 -7.6288 0
M  V30 52 H 3.9223 0.494177 -0.461265 0
M  V30 53 H 6.4763 0.982632 -1.8037 0
M  V30 54 H 4.7063 3.52781 -1.58375 0
M  V30 55 H 6.3953 3.53059 -2.00261 0
M  V30 56 H 7.1613 2.40073 -4.21414 0
M  V30 57 H 3.0403 3.21854 -3.30047 0
M  V30 58 H 6.5843 2.23299 -6.60896 0
M  V30 59 H 2.4813 3.054 -5.68684 0
M  V30 60 H 3.2493 2.68967 -7.73045 0
M  V30 61 N 5.9124 1.20967 1.01018 0
M  V30 62 C 7.1594 1.02374 1.74716 0
M  V30 63 C 7.4874 -0.443375 1.89379 0
M  V30 64 O 6.7424 -1.34535 1.42123 0
M  V30 65 C 7.0414 1.65997 3.16512 0
M  V30 66 C 6.7074 3.15831 3.2181 0
M  V30 67 C 5.3694 3.56719 3.22963 0
M  V30 68 C 7.7214 4.11816 3.19464 0
M  V30 69 C 5.0494 4.92107 3.19449 0
M  V30 70 C 7.4014 5.47158 3.17491 0
M  V30 71 C 6.0654 5.87451 3.16951 0
M  V30 72 H 5.3354 0.374614 0.639332 0
M  V30 73 H 7.9824 1.50485 1.18434 0
M  V30 74 H 6.2874 1.10166 3.75993 0
M  V30 75 H 7.9844 1.49119 3.72242 0
M  V30 76 H 4.5744 2.83263 3.21652 0
M  V30 77 H 8.7584 3.81257 3.17737 0
M  V30 78 H 4.0144 5.22579 3.17366 0
M  V30 79 H 8.1884 6.21274 3.14629 0
M  V30 80 H 5.8154 6.92329 3.13983 0
M  V30 81 N 7.3905 -1.2043 1.01659 0
M  V30 82 C 8.3005 -2.2689 0.596484 0
M  V30 83 C 9.3165 -1.70107 -0.36599 0
M  V30 84 O 10.4925 -2.00117 -0.226942 0
M  V30 85 C 7.5575 -3.4665 -0.0586659 0
M  V30 86 C 6.6185 -4.18662 0.949751 0
M  V30 87 C 5.8515 -5.32705 0.32577 0
M  V30 88 O 6.0745 -5.63656 -0.874509 0
M  V30 89 O 5.0085 -5.92803 1.04249 0
M  V30 90 H 8.8345 -2.65041 1.4828 0
M  V30 91 H 6.4195 -1.27048 0.786082 0
M  V30 92 H 8.3015 -4.19256 -0.424564 0
M  V30 93 H 6.9765 -3.10375 -0.91918 0
M  V30 94 H 5.8835 -3.48229 1.36702 0
M  V30 95 H 7.2165 -4.58878 1.78023 0
M  V30 96 N 8.8686 -0.792821 -1.36206 0
M  V30 97 C 10.0936 -0.377701 -2.03932 0
M  V30 98 C 10.5186 0.998947 -1.59382 0
M  V30 99 O 9.8766 1.64421 -0.763903 0
M  V30 100 C 9.9246 -0.453635 -3.57735 0
M  V30 101 O 9.0286 0.538151 -4.08874 0
M  V30 102 H 8.3696 -0.159855 -0.644471 0
M  V30 103 H 10.8996 -1.07488 -1.7409 0
M  V30 104 H 10.9096 -0.318464 -4.06755 0
M  V30 105 H 9.5846 -1.45784 -3.89512 0
M  V30 106 H 8.1616 0.364359 -3.71116 0
M  V30 107 N 10.3467 1.47872 -0.545128 0
M  V30 108 C 11.7577 1.86384 -0.108581 0
M  V30 109 C 12.1087 1.45309 1.31832 0
M  V30 110 O 11.2337 0.850641 1.9898 0
M  V30 111 C 11.8287 3.38265 -0.190274 0
M  V30 112 C 10.3877 3.75914 0.191164 0
M  V30 113 C 9.5347 2.71926 -0.543273 0
M  V30 114 H 12.4857 1.39561 -0.755537 0
M  V30 115 H 12.5067 3.75831 0.594217 0
M  V30 116 H 12.0187 3.6813 -1.2289 0
M  V30 117 H 10.1197 3.51665 1.23136 0
M  V30 118 H 10.2327 4.78836 -0.158987 0
M  V30 119 H 8.5967 2.54697 0.0122495 0
M  V30 120 H 9.3797 3.04634 -1.58282 0
M  V30 121 N 11.8248 0.280983 1.55075 0
M  V30 122 C 13.0718 -0.334115 1.99725 0
M  V30 123 C 13.3998 -1.5542 1.1694 0
M  V30 124 O 12.6548 -1.94361 0.228531 0
M  V30 125 C 12.9538 -0.754656 3.49342 0
M  V30 126 C 12.6198 0.361445 4.49449 0
M  V30 127 C 11.2818 0.667893 4.76542 0
M  V30 128 C 13.6338 1.11322 5.09173 0
M  V30 129 C 10.9618 1.7296 5.60626 0
M  V30 130 C 13.3138 2.1647 5.9441 0
M  V30 131 C 11.9778 2.47742 6.19822 0
M  V30 132 H 11.2478 -0.122261 0.730844 0
M  V30 133 H 13.8948 0.395917 1.87363 0
M  V30 134 H 12.1998 -1.56446 3.5921 0
M  V30 135 H 13.8968 -1.24142 3.813 0
M  V30 136 H 10.4868 0.112481 4.28452 0
M  V30 137 H 14.6708 0.88973 4.8826 0
M  V30 138 H 9.9268 1.97684 5.78559 0
M  V30 139 H 14.1008 2.75193 6.3972 0
M  V30 140 H 11.7278 3.30145 6.84769 0
M  V30 141 N 13.3029 -1.57598 0.00835791 0
M  V30 142 C 14.7189 -1.55764 -0.347822 0
M  V30 143 C 14.9189 -1.01186 -1.74252 0
M  V30 144 O 13.9749 -0.649371 -2.44007 0
M  V30 145 C 15.2879 -2.99927 -0.215407 0
M  V30 146 C 16.8359 -3.11656 -0.289725 0
M  V30 147 C 17.3109 -4.57621 -0.18634 0
M  V30 148 N 18.8019 -4.62557 -0.243978 0
M  V30 149 C 19.5369 -5.73094 -0.18745 0
M  V30 150 N 19.0329 -6.92753 -0.0810331 0
M  V30 151 N 20.8259 -5.61588 -0.239925 0
M  V30 152 H 12.9769 -1.91411 0.92062 0
M  V30 153 H 15.2399 -0.879562 0.353659 0
M  V30 154 H 14.9459 -3.43729 0.744512 0
M  V30 155 H 14.8199 -3.63865 -0.994097 0
M  V30 156 H 17.2069 -2.67779 -1.24009 0
M  V30 157 H 17.2879 -2.5048 0.51898 0
M  V30 158 H 16.9319 -5.02174 0.760519 0
M  V30 159 H 16.8619 -5.16752 -1.01364 0
M  V30 160 H 19.3529 -3.76481 -0.327217 0
M  V30 161 H 19.6659 -7.72787 -0.0440241 0
M  V30 162 H 18.0109 -6.94984 -0.0465419 0
M  V30 163 H 21.2019 -4.66996 -0.321317 0
M  V30 164 H 21.3749 -6.47714 -0.192407 0
M  V30 165 N 14.781 0.264519 -1.55364 0
M  V30 166 C 16.029 0.993021 -1.76021 0
M  V30 167 C 16.35 1.86511 -0.569099 0
M  V30 168 O 15.62 1.91438 0.415735 0
M  V30 169 H 14.2 0.369639 -0.649135 0
M  V30 170 H 16.862 0.286707 -1.9278 0
M  V30 171 H 15.958 1.62502 -2.66457 0
M  V30 172 N 16.2591 1.48442 0.529413 0
M  V30 173 C 17.2061 1.63007 1.63394 0
M  V30 174 C 18.1761 0.47212 1.59249 0
M  V30 175 O 19.3611 0.695673 1.77666 0
M  V30 176 C 16.5011 1.6763 3.01653 0
M  V30 177 C 15.6141 2.94535 3.16027 0
M  V30 178 C 14.7491 2.90316 4.44849 0
M  V30 179 C 13.7881 4.11923 4.52754 0
M  V30 180 N 12.9251 4.05777 5.72965 0
M  V30 181 H 17.7651 2.5733 1.50285 0
M  V30 182 H 15.3021 1.27613 0.731656 0
M  V30 183 H 17.2601 1.68292 3.81751 0
M  V30 184 H 15.8901 0.76797 3.13532 0
M  V30 185 H 14.9421 3.03615 2.29177 0
M  V30 186 H 16.2541 3.84512 3.17729 0
M  V30 187 H 15.4081 2.89382 5.33238 0
M  V30 188 H 14.1471 1.98068 4.45668 0
M  V30 189 H 13.1521 4.13131 3.62771 0
M  V30 190 H 14.3771 5.0533 4.53672 0
M  V30 191 H 12.3231 3.16351 5.74681 0
M  V30 192 H 12.2401 4.8946 5.76164 0
M  V30 193 H 13.5081 4.08904 6.6364 0
M  V30 194 N 17.7372 -0.778329 1.37039 0
M  V30 195 C 18.6672 -1.90546 1.34962 0
M  V30 196 C 19.6482 -1.68681 0.219274 0
M  V30 197 O 20.8332 -1.89634 0.418624 0
M  V30 198 C 17.9632 -3.27734 1.14925 0
M  V30 199 C 16.9172 -3.64147 2.24902 0
M  V30 200 C 16.2432 -4.99806 1.89996 0
M  V30 201 C 17.5432 -3.71579 3.67051 0
M  V30 202 H 19.2372 -1.92541 2.29277 0
M  V30 203 H 16.7832 -0.924948 1.10366 0
M  V30 204 H 18.7362 -4.06215 1.12104 0
M  V30 205 H 17.4602 -3.26154 0.170631 0
M  V30 206 H 16.1192 -2.8797 2.26868 0
M  V30 207 H 15.7672 -4.94759 0.906796 0
M  V30 208 H 15.4672 -5.25139 2.63634 0
M  V30 209 H 16.9912 -5.80694 1.88749 0
M  V30 210 H 18.4052 -4.40227 3.67251 0
M  V30 211 H 16.8022 -4.08405 4.39688 0
M  V30 212 H 17.8722 -2.72404 4.01154 0
M  V30 213 N 19.2153 -1.21501 -1.00376 0
M  V30 214 C 20.1453 -0.999478 -2.11028 0
M  V30 215 C 21.1263 0.0759671 -1.6993 0
M  V30 216 O 22.3113 -0.0841106 -1.94018 0
M  V30 217 C 19.4413 -0.564709 -3.42678 0
M  V30 218 C 18.3953 -1.58486 -3.97576 0
M  V30 219 C 17.7213 -1.00628 -5.25146 0
M  V30 220 C 19.0213 -2.97204 -4.29496 0
M  V30 221 H 20.7153 -1.92495 -2.29317 0
M  V30 222 H 18.2613 -0.92693 -1.102 0
M  V30 223 H 20.2143 -0.401091 -4.19487 0
M  V30 224 H 18.9383 0.396411 -3.24185 0
M  V30 225 H 17.5973 -1.73606 -3.22888 0
M  V30 226 H 17.2453 -0.0368439 -5.02987 0
M  V30 227 H 16.9453 -1.68771 -5.62841 0
M  V30 228 H 18.4693 -0.854015 -6.04598 0
M  V30 229 H 19.8833 -2.8552 -4.97143 0
M  V30 230 H 18.2803 -3.62372 -4.78338 0
M  V30 231 H 19.3503 -3.47956 -3.3772 0
M  V30 232 N 20.6934 1.19889 -1.02296 0
M  V30 233 C 21.9184 1.9393 -0.735237 0
M  V30 234 C 22.3434 1.74639 0.698782 0
M  V30 235 O 21.7014 1.04481 1.48167 0
M  V30 236 C 21.7494 3.43916 -1.08417 0
M  V30 237 O 20.8534 4.11917 -0.199446 0
M  V30 238 H 20.1944 0.605645 -0.272196 0
M  V30 239 H 22.7244 1.52137 -1.36804 0
M  V30 240 H 22.7344 3.9456 -1.03856 0
M  V30 241 H 21.4094 3.5728 -2.12894 0
M  V30 242 H 19.9864 3.71666 -0.303136 0
M  V30 243 N 22.1715 0.800033 1.35784 0
M  V30 244 C 23.0815 0.207204 2.33683 0
M  V30 245 C 24.0975 -0.64631 1.61551 0
M  V30 246 O 25.2735 -0.559604 1.93469 0
M  V30 247 C 22.3385 -0.639659 3.40748 0
M  V30 248 C 21.3995 0.233585 4.28664 0
M  V30 249 C 20.6325 -0.572954 5.30616 0
M  V30 250 O 20.8555 -1.80816 5.40982 0
M  V30 251 O 19.7895 0.0327285 6.01891 0
M  V30 252 H 23.6155 1.01692 2.86169 0
M  V30 253 H 21.2005 0.561691 1.38439 0
M  V30 254 H 23.0825 -1.12223 4.06182 0
M  V30 255 H 21.7575 -1.42708 2.90544 0
M  V30 256 H 20.6645 0.763147 3.66233 0
M  V30 257 H 21.9975 0.984784 4.82248 0
M  V30 258 N 23.6496 -1.47581 0.552962 0
M  V30 259 C 24.5816 -2.27997 -0.234533 0
M  V30 260 C 25.5946 -1.36753 -0.883321 0
M  V30 261 O 26.7836 -1.61612 -0.757889 0
M  V30 262 C 23.8836 -3.10879 -1.34935 0
M  V30 263 C 23.0566 -4.30056 -0.798158 0
M  V30 264 C 22.1156 -4.94567 -1.79694 0
M  V30 265 O 21.1416 -5.53087 -1.34474 0
M  V30 266 N 22.3436 -4.88878 -3.13015 0
M  V30 267 H 25.1086 -2.96222 0.455255 0
M  V30 268 H 22.6696 -1.57163 0.388761 0
M  V30 269 H 24.6616 -3.50903 -2.01616 0
M  V30 270 H 23.2316 -2.44924 -1.94244 0
M  V30 271 H 22.4516 -3.94174 0.0453079 0
M  V30 272 H 23.7396 -5.07152 -0.409173 0
M  V30 273 H 23.1376 -4.42526 -3.52402 0
M  V30 274 H 21.6946 -5.32934 -3.75266 0
M  V30 275 N 25.1277 -0.289203 -1.54924 0
M  V30 276 C 26.3737 0.323998 -2.00195 0
M  V30 277 C 26.7067 1.54441 -1.17735 0
M  V30 278 O 25.9817 1.92875 -0.250878 0
M  V30 279 C 26.2647 0.692276 -3.53383 0
M  V30 280 C 26.1177 -0.536457 -4.46589 0
M  V30 281 C 27.4367 1.52335 -4.12895 0
M  V30 282 H 24.5557 0.116289 -0.727768 0
M  V30 283 H 27.1977 -0.398954 -1.85764 0
M  V30 284 H 25.3477 1.30822 -3.65811 0
M  V30 285 H 27.0197 -1.17499 -4.46085 0
M  V30 286 H 25.2627 -1.17192 -4.1767 0
M  V30 287 H 25.9337 -0.234806 -5.515 0
M  V30 288 H 28.4097 1.00302 -4.0383 0
M  V30 289 H 27.2857 1.74982 -5.20262 0
M  V30 290 H 27.5467 2.50886 -3.64018 0
M  V30 291 N 26.6058 1.57591 -0.0167156 0
M  V30 292 C 27.8308 1.9598 0.67872 0
M  V30 293 C 28.2558 0.892546 1.65575 0
M  V30 294 O 27.6138 -0.147772 1.80697 0
M  V30 295 C 27.6618 3.33468 1.37227 0
M  V30 296 O 26.7658 3.28954 2.48722 0
M  V30 297 H 26.1068 0.639339 0.17928 0
M  V30 298 H 28.6368 2.04463 -0.0748802 0
M  V30 299 H 28.6468 3.69417 1.7319 0
M  V30 300 H 27.3218 4.10694 0.656007 0
M  V30 301 H 25.8988 3.04705 2.14963 0
M  V30 302 N 28.0839 -0.256276 1.55502 0
M  V30 303 C 29.0319 -1.33694 1.90338 0
M  V30 304 C 30.0259 -1.50299 0.781441 0
M  V30 305 O 31.2319 -1.51885 0.965966 0
M  V30 306 H 27.6069 -0.447483 0.60437 0
M  V30 307 H 29.5779 -1.01574 2.8058 0
M  V30 308 C 28.3269 -2.68724 2.20642 0
M  V30 309 H 27.6499 -2.56743 3.06469 0
M  V30 310 H 29.0899 -3.43237 2.48926 0
M  V30 311 C 27.5489 -3.21101 1.01959 0
M  V30 312 O 28.0789 -4.0084 0.262762 0
M  V30 313 N 26.2849 -2.79003 0.812746 0
M  V30 314 H 25.8319 -2.14271 1.42989 0
M  V30 315 H 25.7899 -3.14393 0.0203076 0
M  V30 316 N 29.562 -1.4872 -0.521534 0
M  V30 317 C 30.973 -1.50607 -1.10337 0
M  V30 318 C 31.324 -0.280612 -1.94183 0
M  V30 319 O 30.449 0.611507 -2.0758 0
M  V30 320 C 31.044 -2.72903 -2.00772 0
M  V30 321 C 29.603 -2.77634 -2.54158 0
M  V30 322 C 28.75 -2.44241 -1.31307 0
M  V30 323 H 31.701 -1.55714 -0.306388 0
M  V30 324 H 31.722 -2.519 -2.85178 0
M  V30 325 H 31.234 -3.62077 -1.39721 0
M  V30 326 H 29.335 -1.92689 -3.18907 0
M  V30 327 H 29.448 -3.79283 -2.92714 0
M  V30 328 H 27.812 -1.95577 -1.63161 0
M  V30 329 H 28.595 -3.35666 -0.719943 0
M  V30 330 N 31.0401 0.771051 -1.3745 0
M  V30 331 C 31.9881 1.90574 -1.33358 0
M  V30 332 C 32.9821 1.67936 -0.22224 0
M  V30 333 O 34.1881 1.75717 -0.390304 0
M  V30 334 H 30.5631 0.626714 -0.415612 0
M  V30 335 H 32.5341 1.91142 -2.29144 0
M  V30 336 C 31.2831 3.27845 -1.15813 0
M  V30 337 H 30.6061 3.45842 -2.00583 0
M  V30 338 H 32.0461 4.07538 -1.17 0
M  V30 339 C 30.5051 3.36625 0.136165 0
M  V30 340 O 31.0351 3.85785 1.11949 0
M  V30 341 N 29.2411 2.89997 0.187099 0
M  V30 342 H 28.7881 2.50182 -0.613753 0
M  V30 343 H 28.7461 2.96252 1.05272 0
M  V30 344 N 32.5182 1.22032 0.997298 0
M  V30 345 C 33.7672 1.03637 1.73038 0
M  V30 346 C 34.0802 -0.429475 1.90827 0
M  V30 347 O 35.2862 -0.732995 2.61418 0
M  V30 348 C 33.7422 1.80582 3.11317 0
M  V30 349 C 33.3502 3.31387 3.01474 0
M  V30 350 C 35.0942 1.70621 3.88701 0
M  V30 351 C 33.0012 4.00791 4.3488 0
M  V30 352 H 31.9312 0.384179 0.648785 0
M  V30 353 H 34.5822 1.4584 1.11368 0
M  V30 354 H 32.9642 1.31175 3.73643 0
M  V30 355 H 34.1382 3.88155 2.4834 0
M  V30 356 H 32.4532 3.41976 2.37575 0
M  V30 357 H 35.0502 2.19799 4.87434 0
M  V30 358 H 35.3932 0.665823 4.10941 0
M  V30 359 H 35.9262 2.17547 3.33044 0
M  V30 360 H 32.6652 5.05064 4.1784 0
M  V30 361 H 32.1852 3.48811 4.87945 0
M  V30 362 H 33.8642 4.06139 5.03647 0
M  V30 363 N 33.9963 -1.19345 1.0293 0
M  V30 364 C 35.4123 -1.41069 0.746446 0
M  V30 365 C 35.6123 -1.90078 -0.668776 0
M  V30 366 O 34.6683 -2.0778 -1.4347 0
M  V30 367 C 35.9813 -2.42141 1.78292 0
M  V30 368 C 37.5293 -2.55887 1.80252 0
M  V30 369 C 38.0043 -3.60214 2.8286 0
M  V30 370 N 39.4953 -3.67711 2.81679 0
M  V30 371 C 40.2303 -4.48128 3.57727 0
M  V30 372 N 39.7263 -5.32248 4.43491 0
M  V30 373 N 41.5193 -4.42782 3.46267 0
M  V30 374 H 33.6703 -0.858536 1.94275 0
M  V30 375 H 35.9333 -0.439541 0.839945 0
M  V30 376 H 35.6393 -2.13155 2.79746 0
M  V30 377 H 35.5133 -3.41323 1.60557 0
M  V30 378 H 37.9003 -2.84196 0.794757 0
M  V30 379 H 37.9813 -1.56858 2.02062 0
M  V30 380 H 37.6253 -3.32647 3.83807 0
M  V30 381 H 37.5553 -4.58895 2.58307 0
M  V30 382 H 40.0463 -3.07634 2.19476 0
M  V30 383 H 40.3593 -5.90729 4.98256 0
M  V30 384 H 38.7043 -5.31707 4.47564 0
M  V30 385 H 41.8953 -3.76107 2.78677 0
M  V30 386 H 42.0683 -5.05215 4.05785 0
M  V30 387 N 35.4744 -0.807222 -1.35358 0
M  V30 388 C 36.7204 -0.388463 -1.99045 0
M  V30 389 C 37.0534 1.04184 -1.63888 0
M  V30 390 O 36.3284 1.72292 -0.902535 0
M  V30 391 C 36.6114 -0.572783 -3.55515 0
M  V30 392 C 36.4644 -2.04807 -4.00468 0
M  V30 393 C 37.7834 0.00114064 -4.401 0
M  V30 394 H 34.9024 -0.142619 -0.723069 0
M  V30 395 H 37.5444 -1.01687 -1.60498 0
M  V30 396 H 35.6944 -0.0378425 -3.88482 0
M  V30 397 H 37.3664 -2.64544 -3.77908 0
M  V30 398 H 35.6094 -2.54427 -3.51353 0
M  V30 399 H 36.2804 -2.12792 -5.09337 0
M  V30 400 H 38.7564 -0.455716 -4.13597 0
M  V30 401 H 37.6324 -0.157737 -5.48673 0
M  V30 402 H 37.8934 1.09488 -4.28328 0
M  V30 403 N 36.9525 1.47285 -0.560781 0
M  V30 404 C 38.2005 2.02064 -0.0379868 0
M  V30 405 C 38.5215 1.43711 1.31803 0
M  V30 406 O 37.7915 0.61362 1.86042 0
M  V30 407 H 36.3715 0.746918 -0.0110531 0
M  V30 408 H 39.0335 1.80648 -0.731598 0
M  V30 409 H 38.1295 3.12064 0.0474463 0
M  V30 410 N 38.4306 0.297415 1.54768 0
M  V30 411 C 39.8466 -0.0560823 1.59501 0
M  V30 412 C 40.0466 -1.52725 1.31444 0
M  V30 413 O 39.1026 -2.27947 1.08611 0
M  V30 414 C 40.4156 0.338631 2.98787 0
M  V30 415 C 41.9636 0.287097 3.11681 0
M  V30 416 C 42.4386 0.656579 4.53269 0
M  V30 417 N 43.9296 0.608977 4.59179 0
M  V30 418 C 44.6646 0.867385 5.66802 0
M  V30 419 N 44.1606 1.19157 6.82476 0
M  V30 420 N 45.9536 0.794687 5.56454 0
M  V30 421 H 38.1046 1.25624 1.71267 0
M  V30 422 H 40.3676 0.509057 0.799728 0
M  V30 423 H 40.0736 1.36263 3.2423 0
M  V30 424 H 39.9476 -0.309508 3.75928 0
M  V30 425 H 42.3346 -0.727649 2.85988 0
M  V30 426 H 42.4156 0.969809 2.36703 0
M  V30 427 H 42.0596 1.66912 4.7969 0
M  V30 428 H 41.9896 -0.0481649 5.26578 0
M  V30 429 H 44.4806 0.369198 3.76092 0
M  V30 430 H 44.7936 1.37482 7.60473 0
M  V30 431 H 43.1386 1.22958 6.84037 0
M  V30 432 H 46.3296 0.541098 4.64962 0
M  V30 433 H 46.5026 0.999445 6.40246 0
M  V30 434 N 39.9087 -1.5758 0.0250728 0
M  V30 435 C 41.1387 -1.95646 -0.663783 0
M  V30 436 C 41.5467 -0.899935 -1.66427 0
M  V30 437 O 40.8897 0.127191 -1.83259 0
M  V30 438 C 40.9517 -3.29835 -1.43 0
M  V30 439 C 40.6157 -4.53197 -0.588305 0
M  V30 440 C 41.6127 -5.19726 0.13469 0
M  V30 441 C 39.2977 -4.99529 -0.526897 0
M  V30 442 C 41.2917 -6.30902 0.90781 0
M  V30 443 C 38.9787 -6.10589 0.24993 0
M  V30 444 C 39.9767 -6.76134 0.965994 0
M  V30 445 O 39.6647 -7.85062 1.7301 0
M  V30 446 H 39.3967 -0.649282 -0.188174 0
M  V30 447 H 41.9507 -2.05245 0.0799006 0
M  V30 448 H 40.1807 -3.16716 -2.21873 0
M  V30 449 H 41.8697 -3.52833 -2.00658 0
M  V30 450 H 42.6357 -4.84904 0.0965562 0
M  V30 451 H 38.5147 -4.48319 -1.07381 0
M  V30 452 H 42.0587 -6.81995 1.46724 0
M  V30 453 H 37.9557 -6.44849 0.289795 0
M  V30 454 H 38.7237 -8.01708 1.64944 0
M  V30 455 N 41.3868 0.248026 -1.55636 0
M  V30 456 C 42.6118 0.998028 -1.81808 0
M  V30 457 C 43.0368 1.78207 -0.601979 0
M  V30 458 O 42.3948 1.75653 0.448961 0
M  V30 459 C 42.4428 1.9125 -3.05705 0
M  V30 460 O 41.5468 3.00406 -2.82542 0
M  V30 461 H 40.8878 0.284045 -0.600179 0
M  V30 462 H 43.4178 0.269357 -2.02819 0
M  V30 463 H 43.4278 2.32737 -3.35108 0
M  V30 464 H 42.1028 1.33602 -3.93857 0
M  V30 465 H 40.6798 2.63056 -2.64303 0
M  V30 466 N 42.8649 1.48995 0.513639 0
M  V30 467 C 44.0949 1.61297 1.291 0
M  V30 468 C 44.5029 0.278656 1.87137 0
M  V30 469 O 43.8459 -0.744325 1.67945 0
M  V30 470 C 43.9079 2.61326 2.46879 0
M  V30 471 C 43.5719 4.05993 2.09807 0
M  V30 472 C 44.5689 4.93183 1.64519 0
M  V30 473 C 42.2539 4.51642 2.19829 0
M  V30 474 C 44.2479 6.24056 1.2974 0
M  V30 475 C 41.9349 5.82532 1.84662 0
M  V30 476 C 42.9329 6.68562 1.3969 0
M  V30 477 O 42.6209 7.97014 1.04992 0
M  V30 478 H 42.3529 0.546236 0.39825 0
M  V30 479 H 44.9069 1.95673 0.62459 0
M  V30 480 H 43.1369 2.22104 3.16554 0
M  V30 481 H 44.8259 2.6329 3.08923 0
M  V30 482 H 45.5919 4.59147 1.56233 0
M  V30 483 H 41.4709 3.84855 2.53786 0
M  V30 484 H 45.0149 6.91161 0.945659 0
M  V30 485 H 40.9119 6.16099 1.92594 0
M  V30 486 H 41.6799 8.09913 1.18249 0
M  V30 487 N 44.343 -0.763751 1.37857 0
M  V30 488 C 45.573 -1.55067 1.3652 0
M  V30 489 C 45.981 -1.89135 -0.0494227 0
M  V30 490 O 45.324 -1.52529 -1.02375 0
M  V30 491 C 45.386 -2.8838 2.14656 0
M  V30 492 C 45.05 -2.76905 3.63555 0
M  V30 493 C 46.047 -2.4739 4.57268 0
M  V30 494 C 43.732 -2.94676 4.06781 0
M  V30 495 C 45.726 -2.35786 5.92186 0
M  V30 496 C 43.413 -2.82692 5.41782 0
M  V30 497 C 44.411 -2.53289 6.34298 0
M  V30 498 O 44.099 -2.41345 7.66817 0
M  V30 499 H 43.831 -0.486776 0.469069 0
M  V30 500 H 46.385 -0.953812 1.81911 0
M  V30 501 H 44.615 -3.50217 1.63967 0
M  V30 502 H 46.304 -3.49828 2.05852 0
M  V30 503 H 47.07 -2.33339 4.2518 0
M  V30 504 H 42.949 -3.16563 3.35126 0
M  V30 505 H 46.493 -2.12757 6.64365 0
M  V30 506 H 42.39 -2.96314 5.7347 0
M  V30 507 H 43.158 -2.56634 7.77226 0
M  V30 508 N 45.8211 -1.22559 -0.990812 0
M  V30 509 C 47.0461 -1.07862 -1.77145 0
M  V30 510 C 47.4711 0.366447 -1.84496 0
M  V30 511 O 46.8291 1.26478 -1.29896 0
M  V30 512 C 46.8771 -1.69686 -3.18181 0
M  V30 513 O 45.9811 -0.951946 -4.01263 0
M  V30 514 H 45.3221 -0.378712 -0.545411 0
M  V30 515 H 47.8521 -1.62399 -1.2445 0
M  V30 516 H 47.8621 -1.74496 -3.68802 0
M  V30 517 H 46.5371 -2.74841 -3.12146 0
M  V30 518 H 45.1141 -0.980011 -3.59792 0
M  V30 519 N 47.2992 1.18797 -1.03562 0
M  V30 520 C 48.5472 1.88278 -0.734569 0
M  V30 521 C 48.8682 1.8043 0.739586 0
M  V30 522 O 48.1382 1.21925 1.53333 0
M  V30 523 H 46.7182 0.696991 -0.268725 0
M  V30 524 H 49.3802 1.44192 -1.31129 0
M  V30 525 H 48.4762 2.94443 -1.03489 0
M  V30 526 N 48.7773 0.814389 1.34928 0
M  V30 527 C 50.0073 0.41054 2.0248 0
M  V30 528 C 50.4153 -0.985625 1.61499 0
M  V30 529 O 49.7583 -1.64781 0.811976 0
M  V30 530 C 49.8203 0.423384 3.56998 0
M  V30 531 C 49.4843 1.77141 4.21272 0
M  V30 532 C 50.4813 2.73093 4.42398 0
M  V30 533 C 48.1663 2.05755 4.58225 0
M  V30 534 C 50.1603 3.95838 4.9959 0
M  V30 535 C 47.8473 3.28762 5.1513 0
M  V30 536 C 48.8453 4.23621 5.35755 0
M  V30 537 O 48.5333 5.44456 5.91458 0
M  V30 538 H 48.2653 0.163997 0.655806 0
M  V30 539 H 50.8193 1.10155 1.73364 0
M  V30 540 H 49.0493 -0.324276 3.85338 0
M  V30 541 H 50.7383 0.0407683 4.0588 0
M  V30 542 H 51.5043 2.5228 4.14222 0
M  V30 543 H 47.3833 1.32727 4.4148 0
M  V30 544 H 50.9273 4.69891 5.15605 0
M  V30 545 H 46.8243 3.49443 5.42734 0
M  V30 546 H 47.5923 5.4586 6.09901 0
M  V30 547 N 50.2554 -1.46986 0.568584 0
M  V30 548 C 51.4854 -2.0653 0.0539173 0
M  V30 549 C 51.8934 -1.42004 -1.25026 0
M  V30 550 O 51.2364 -0.514541 -1.76347 0
M  V30 551 C 51.2984 -3.58938 -0.200854 0
M  V30 552 C 50.9624 -4.45572 1.01559 0
M  V30 553 C 51.9594 -4.82986 1.92407 0
M  V30 554 C 49.6444 -4.8692 1.23346 0
M  V30 555 C 51.6384 -5.60559 3.03402 0
M  V30 556 C 49.3254 -5.64255 2.34649 0
M  V30 557 C 50.3234 -6.00986 3.24507 0
M  V30 558 O 50.0114 -6.76761 4.33878 0
M  V30 559 H 49.7434 -0.674292 0.0480234 0
M  V30 560 H 52.2974 -1.89812 0.784896 0
M  V30 561 H 50.5274 -3.73911 -0.986279 0
M  V30 562 H 52.2164 -4.0046 -0.662294 0
M  V30 563 H 52.9824 -4.51633 1.76785 0
M  V30 564 H 48.8614 -4.57789 0.543178 0
M  V30 565 H 52.4054 -5.89147 3.73565 0
M  V30 566 H 48.3024 -5.95021 2.5024 0
M  V30 567 H 49.0704 -6.95168 4.32068 0
M  V30 568 N 51.7335 -0.305618 -1.54608 0
M  V30 569 C 52.6835 0.583595 -2.20405 0
M  V30 570 C 53.6675 1.09539 -1.17856 0
M  V30 571 O 54.8595 1.0354 -1.43557 0
M  V30 572 C 51.9885 1.75277 -2.95183 0
M  V30 573 C 51.0745 1.25672 -4.05052 0
M  V30 574 N 51.4655 0.478998 -5.03527 0
M  V30 575 C 49.7635 1.53704 -4.18678 0
M  V30 576 C 50.4645 0.214269 -5.81305 0
M  V30 577 N 49.4405 0.795374 -5.3775 0
M  V30 578 H 53.2425 -0.0180946 -2.93894 0
M  V30 579 H 50.7565 -0.110601 -1.62023 0
M  V30 580 H 52.7535 2.4014 -3.40791 0
M  V30 581 H 51.4135 2.35812 -2.23211 0
M  V30 582 H 52.4245 0.123473 -5.17753 0
M  V30 583 H 49.1015 2.14954 -3.57912 0
M  V30 584 H 50.4915 -0.410656 -6.70644 0
M  V30 585 N 53.2116 1.57565 -0.0334293 0
M  V30 586 C 54.4596 1.91598 0.642999 0
M  V30 587 C 54.7806 0.910847 1.7242 0
M  V30 588 O 54.0506 -0.0469931 1.95844 0
M  V30 589 H 52.6306 0.707228 0.240496 0
M  V30 590 H 55.2926 1.94726 -0.0822488 0
M  V30 591 H 54.3886 2.92336 1.09298 0
M  V30 592 N 54.6897 -0.239769 1.55765 0
M  V30 593 C 55.6397 -1.30002 1.87306 0
M  V30 594 C 56.6237 -1.43156 0.73452 0
M  V30 595 O 57.8157 -1.46277 0.99659 0
M  V30 596 C 54.9447 -2.65409 2.17745 0
M  V30 597 C 54.0307 -2.56231 3.37945 0
M  V30 598 N 54.4217 -2.16689 4.57033 0
M  V30 599 C 52.7197 -2.87229 3.41197 0
M  V30 600 C 53.4207 -2.18318 5.39177 0
M  V30 601 N 52.3967 -2.58098 4.78421 0
M  V30 602 H 56.1987 -0.984912 2.76906 0
M  V30 603 H 53.7127 -0.448381 1.56087 0
M  V30 604 H 55.7097 -3.41934 2.38509 0
M  V30 605 H 54.3697 -2.97781 1.29448 0
M  V30 606 H 55.3807 -1.88116 4.82528 0
M  V30 607 H 52.0577 -3.24094 2.63191 0
M  V30 608 H 53.4477 -1.90025 6.44469 0
M  V30 609 N 56.1678 -1.49265 -0.50573 0
M  V30 610 C 57.3928 -1.62478 -1.28902 0
M  V30 611 C 57.8178 -0.294332 -1.85783 0
M  V30 612 O 57.1758 0.737412 -1.65626 0
M  V30 613 C 57.2238 -2.69268 -2.39848 0
M  V30 614 O 56.3278 -2.28113 -3.43567 0
M  V30 615 H 55.6688 -0.54399 -0.380751 0
M  V30 616 H 58.1988 -1.95421 -0.605952 0
M  V30 617 H 58.2088 -2.91291 -2.85681 0
M  V30 618 H 56.8838 -3.65846 -1.97812 0
M  V30 619 H 55.4608 -2.16401 -3.03685 0
M  V30 620 N 57.6459 0.756429 -1.3826 0
M  V30 621 C 58.8929 1.51547 -1.34312 0
M  V30 622 C 59.2209 1.94382 0.0677144 0
M  V30 623 O 58.4759 1.65514 1.04421 0
M  V30 624 C 58.7749 2.78313 -2.24224 0
M  V30 625 C 58.4409 2.54455 -3.72241 0
M  V30 626 C 57.1029 2.47657 -4.12576 0
M  V30 627 C 59.4549 2.3354 -4.65949 0
M  V30 628 C 56.7829 2.17956 -5.44713 0
M  V30 629 C 59.1349 2.05359 -5.9834 0
M  V30 630 C 57.7989 1.97016 -6.37762 0
M  V30 631 H 57.0689 0.55455 -0.491482 0
M  V30 632 H 59.7159 0.870039 -1.70595 0
M  V30 633 H 58.0209 3.47492 -1.80987 0
M  V30 634 H 59.7179 3.36259 -2.18474 0
M  V30 635 H 56.3079 2.60616 -3.40261 0
M  V30 636 H 60.4919 2.37772 -4.35635 0
M  V30 637 H 55.7479 2.10003 -5.74203 0
M  V30 638 H 59.9219 1.88179 -6.70494 0
M  V30 639 H 57.5489 1.73766 -7.40074 0
M  V30 640 N 59.124 1.23083 0.984299 0
M  V30 641 C 60.401 0.9689 1.69917 0
M  V30 642 C 60.781 -0.513604 2.04757 0
M  V30 643 O 60.129 -1.48383 1.73767 0
M  V30 644 C 60.339 1.87518 2.94343 0
M  V30 645 C 61.687 2.13636 3.6694 0
M  V30 646 O 62.711 1.85036 3.04368 0
M  V30 647 O 61.57 2.62119 4.79537 0
M  V30 648 H 58.664 0.365095 0.742048 0
M  V30 649 H 61.21 1.34107 1.03987 0
M  V30 650 H 59.982 2.87756 2.65164 0
M  V30 651 H 59.605 1.50514 3.6801 0
M  V30 652 N 60.6021 -1.18246 1.0419 0
M  V30 653 C 61.8791 -1.84121 0.660208 0
M  V30 654 C 62.2591 -1.92778 -0.860221 0
M  V30 655 O 61.6071 -1.45464 -1.76217 0
M  V30 656 C 61.8171 -3.22355 1.33747 0
M  V30 657 C 63.1651 -3.98376 1.46906 0
M  V30 658 O 64.1891 -3.31799 1.29568 0
M  V30 659 O 63.0481 -5.17665 1.75171 0
M  V30 660 H 60.1421 -0.794036 0.231161 0
M  V30 661 H 62.6881 -1.25628 1.14087 0
M  V30 662 H 61.4601 -3.10964 2.37522 0
M  V30 663 H 61.0831 -3.88506 0.845515 0
M  V30 664 N 62.0802 -0.821533 -1.34494 0
M  V30 665 C 63.3202 -0.414785 -2.00147 0
M  V30 666 C 63.6842 1.00299 -1.6372 0
M  V30 667 O 64.8852 1.51255 -2.22206 0
M  V30 668 C 63.1562 -0.609403 -3.52166 0
M  V30 669 S 64.7152 -0.295297 -4.37805 0
M  V30 670 H 61.5332 -0.15679 -0.693497 0
M  V30 671 H 64.1352 -1.06705 -1.63812 0
M  V30 672 H 62.8392 -1.64096 -3.76166 0
M  V30 673 H 62.3702 0.0576414 -3.93358 0
M  V30 674 H 64.3852 0.891531 -4.88125 0
M  V30 675 N 63.5583 1.46682 -0.576371 0
M  V30 676 C 64.5213 2.28707 0.150239 0
M  V30 677 C 65.5213 1.38035 0.824794 0
M  V30 678 O 66.7113 1.60476 0.677719 0
M  V30 679 C 63.8433 3.18248 1.22192 0
M  V30 680 H 65.0363 2.94423 -0.570521 0
M  V30 681 H 62.5893 1.52688 -0.334078 0
M  V30 682 H 63.3243 2.57265 1.97447 0
M  V30 683 H 63.1093 3.85 0.742812 0
M  V30 684 H 64.5993 3.80001 1.73172 0
M  V30 685 N 65.0364 0.313813 1.54444 0
M  V30 686 C 66.4524 -0.0391619 1.59552 0
M  V30 687 C 66.6524 -1.51322 1.33056 0
M  V30 688 O 65.7084 -2.26782 1.11022 0
M  V30 689 C 67.0214 0.370302 2.98411 0
M  V30 690 C 68.5694 0.320139 3.11358 0
M  V30 691 C 69.0444 0.704617 4.52547 0
M  V30 692 N 70.5354 0.657645 4.58508 0
M  V30 693 C 71.2704 0.927453 5.6585 0
M  V30 694 N 70.7664 1.26389 6.81174 0
M  V30 695 N 72.5594 0.853662 5.5558 0
M  V30 696 H 64.7104 1.27433 1.69925 0
M  V30 697 H 66.9734 0.517511 0.794284 0
M  V30 698 H 66.6794 1.39694 3.22767 0
M  V30 699 H 66.5534 -0.269619 3.76235 0
M  V30 700 H 68.9404 -0.697275 2.86744 0
M  V30 701 H 69.0214 0.99486 2.35661 0
M  V30 702 H 68.6654 1.7199 4.77893 0
M  V30 703 H 68.5954 0.00768843 5.26599 0
M  V30 704 H 71.0864 0.409067 3.75679 0
M  V30 705 H 71.3994 1.4554 7.58972 0
M  V30 706 H 69.7444 1.30206 6.82694 0
M  V30 707 H 72.9354 0.590383 4.64362 0
M  V30 708 H 73.1084 1.0673 6.3915 0
M  V30 709 N 66.5145 -1.57545 0.0417849 0
M  V30 710 C 67.7445 -1.96339 -0.642995 0
M  V30 711 C 68.1525 -0.917536 -1.65463 0
M  V30 712 O 67.4955 0.107747 -1.83384 0
M  V30 713 C 67.5575 -3.31333 -1.39494 0
M  V30 714 C 67.2215 -4.53796 -0.540204 0
M  V30 715 C 68.2185 -5.19553 0.189806 0
M  V30 716 C 65.9035 -5.0006 -0.473886 0
M  V30 717 C 67.8975 -6.29904 0.974674 0
M  V30 718 C 65.5845 -6.10289 0.314677 0
M  V30 719 C 66.5825 -6.75072 1.03765 0
M  V30 720 O 66.2705 -7.83183 1.81327 0
M  V30 721 H 66.0025 -0.651241 -0.181277 0
M  V30 722 H 68.5565 -2.05148 0.101665 0
M  V30 723 H 66.7865 -3.19052 -2.18502 0
M  V30 724 H 68.4755 -3.54942 -1.96904 0
M  V30 725 H 69.2415 -4.84774 0.147981 0
M  V30 726 H 65.1205 -4.49433 -1.0262 0
M  V30 727 H 68.6645 -6.80401 1.5395 0
M  V30 728 H 64.5615 -6.44506 0.358174 0
M  V30 729 H 65.3295 -7.99913 1.73438 0
M  V30 730 N 67.9926 0.231505 -1.5589 0
M  V30 731 C 68.9226 1.29022 -1.94617 0
M  V30 732 C 69.9036 1.4941 -0.813067 0
M  V30 733 O 71.0886 1.6176 -1.07459 0
M  V30 734 C 68.2186 2.64199 -2.25424 0
M  V30 735 C 67.1726 2.58484 -3.41131 0
M  V30 736 C 66.4986 3.97599 -3.57518 0
M  V30 737 C 67.7986 2.1413 -4.76388 0
M  V30 738 H 69.4926 0.968563 -2.83301 0
M  V30 739 H 67.0386 0.464479 -1.36303 0
M  V30 740 H 68.9916 3.38413 -2.51107 0
M  V30 741 H 67.7156 2.98032 -1.33583 0
M  V30 742 H 66.3746 1.86727 -3.15481 0
M  V30 743 H 66.0226 4.28723 -2.6307 0
M  V30 744 H 65.7226 3.94659 -4.35337 0
M  V30 745 H 67.2466 4.7349 -3.85538 0
M  V30 746 H 68.6606 2.78083 -5.01341 0
M  V30 747 H 67.0576 2.2227 -5.57419 0
M  V30 748 H 68.1276 1.09331 -4.72414 0
M  V30 749 N 69.4707 1.49531 0.497807 0
M  V30 750 C 70.4037 1.61043 1.6168 0
M  V30 751 C 71.3817 0.459386 1.55976 0
M  V30 752 O 72.5657 0.675358 1.75986 0
M  V30 753 C 69.6927 1.56833 3.00202 0
M  V30 754 C 68.7387 2.77173 3.24156 0
M  V30 755 S 69.5717 4.38808 3.06933 0
M  V30 756 C 70.7277 4.37248 4.47845 0
M  V30 757 H 70.9607 2.55702 1.51671 0
M  V30 758 H 68.4937 1.38462 0.683201 0
M  V30 759 H 70.4517 1.55089 3.80076 0
M  V30 760 H 69.1127 0.634561 3.07623 0
M  V30 761 H 68.3057 2.70456 4.25288 0
M  V30 762 H 67.9077 2.76346 2.5201 0
M  V30 763 H 70.1997 4.09164 5.39992 0
M  V30 764 H 71.1427 5.38668 4.59612 0
M  V30 765 H 71.5507 3.67286 4.28674 0
M  V30 766 N 70.9488 -0.749086 1.3866 0
M  V30 767 C 72.3598 -1.32664 1.31366 0
M  V30 768 C 72.7108 -1.96179 -0.028484 0
M  V30 769 O 71.8358 -1.9537 -0.93057 0
M  V30 770 C 72.4308 -2.41219 2.37905 0
M  V30 771 C 70.9898 -2.94684 2.34176 0
M  V30 772 C 70.1368 -1.68108 2.20533 0
M  V30 773 H 73.0878 -0.547628 1.48952 0
M  V30 774 H 73.1088 -3.21268 2.0388 0
M  V30 775 H 72.6208 -1.94962 3.35576 0
M  V30 776 H 70.7218 -3.45258 1.401 0
M  V30 777 H 70.8348 -3.48757 3.2849 0
M  V30 778 H 69.1988 -1.91907 1.67463 0
M  V30 779 H 69.9818 -1.23923 3.20153 0
M  V30 780 N 72.4269 -1.23603 -0.977757 0
M  V30 781 C 73.7039 -0.977897 -1.69401 0
M  V30 782 C 74.0839 0.502738 -2.05026 0
M  V30 783 O 73.4319 1.47459 -1.74551 0
M  V30 784 C 73.6419 -1.89077 -2.93345 0
M  V30 785 C 74.9899 -2.15579 -3.65802 0
M  V30 786 O 76.0139 -1.86648 -3.03383 0
M  V30 787 O 74.8729 -2.64658 -4.78141 0
M  V30 788 H 71.9669 -0.369025 -0.740101 0
M  V30 789 H 74.5129 -1.34657 -1.03274 0
M  V30 790 H 73.2849 -2.89158 -2.63634 0
M  V30 791 H 72.9079 -1.52463 -3.67207 0
M  V30 792 N 73.905 1.17692 -1.04816 0
M  V30 793 C 75.321 1.39863 -0.768794 0
M  V30 794 C 75.521 1.91118 0.638451 0
M  V30 795 O 74.577 2.10036 1.40146 0
M  V30 796 C 75.89 2.39274 -1.82122 0
M  V30 797 C 77.438 2.52987 -1.843 0
M  V30 798 C 77.913 3.55669 -2.88555 0
M  V30 799 N 79.404 3.63183 -2.87493 0
M  V30 800 C 80.139 4.42381 -3.64811 0
M  V30 801 N 79.635 5.25125 -4.51903 0
M  V30 802 N 81.428 4.37217 -3.53267 0
M  V30 803 H 73.579 0.82752 -1.95617 0
M  V30 804 H 75.842 0.426123 -0.846831 0
M  V30 805 H 75.548 2.08678 -2.83102 0
M  V30 806 H 75.422 3.38725 -1.65967 0
M  V30 807 H 77.809 2.82896 -0.839869 0
M  V30 808 H 77.89 1.53623 -2.04532 0
M  V30 809 H 77.534 3.26499 -3.89051 0
M  V30 810 H 77.464 4.54728 -2.65575 0
M  V30 811 H 79.955 3.04103 -2.24343 0
M  V30 812 H 80.268 5.82728 -5.07591 0
M  V30 813 H 78.613 5.24519 -4.55966 0
M  V30 814 H 81.804 3.71626 -2.84625 0
M  V30 815 H 81.977 4.98696 -4.13771 0
M  V30 816 N 75.3831 0.828654 1.34056 0
M  V30 817 C 76.6601 0.341809 1.9259 0
M  V30 818 C 77.0401 -1.17158 1.75605 0
M  V30 819 O 76.3881 -1.98132 1.13824 0
M  V30 820 C 76.5981 0.777453 3.4023 0
M  V30 821 C 77.9461 0.779579 4.17382 0
M  V30 822 O 78.9701 0.7204 3.48839 0
M  V30 823 O 77.8291 0.857996 5.39723 0
M  V30 824 H 74.9231 0.0946085 0.821571 0
M  V30 825 H 77.4691 0.913827 1.42994 0
M  V30 826 H 76.2411 1.8196 3.46419 0
M  V30 827 H 75.8641 0.181444 3.97186 0
M  V30 828 N 76.8612 -1.46375 0.584142 0
M  V30 829 C 78.1382 -1.956 0.0033388 0
M  V30 830 C 78.5182 -1.52679 -1.45782 0
M  V30 831 O 77.8662 -0.77816 -2.14842 0
M  V30 832 C 78.0762 -3.48551 0.176891 0
M  V30 833 C 79.4242 -4.24576 0.0454609 0
M  V30 834 O 80.4482 -3.56043 0.105801 0
M  V30 835 O 79.3072 -5.46427 -0.0890376 0
M  V30 836 H 76.4012 -0.825547 -0.0490066 0
M  V30 837 H 78.9472 -1.56652 0.65256 0
M  V30 838 H 77.7192 -3.72683 1.1926 0
M  V30 839 H 77.3422 -3.94332 -0.508695 0
M  V30 840 N 78.3393 -0.321999 -1.54275 0
M  V30 841 C 79.5853 0.281461 -2.00837 0
M  V30 842 C 79.9183 1.51909 -1.20985 0
M  V30 843 O 79.1933 1.923 -0.291733 0
M  V30 844 C 79.4763 0.617162 -3.54772 0
M  V30 845 C 79.3293 -0.631064 -4.45351 0
M  V30 846 C 80.6483 1.43542 -4.16033 0
M  V30 847 H 77.7673 0.100826 -0.730071 0
M  V30 848 H 80.4093 -0.438268 -1.84876 0
M  V30 849 H 78.5593 1.23034 -3.68504 0
M  V30 850 H 80.2313 -1.26934 -4.43492 0
M  V30 851 H 78.4743 -1.26025 -4.15091 0
M  V30 852 H 79.1453 -0.351735 -5.50878 0
M  V30 853 H 81.6213 0.917134 -4.05867 0
M  V30 854 H 80.4973 1.63907 -5.23856 0
M  V30 855 H 80.7583 2.43108 -3.69257 0
M  V30 856 N 79.8174 1.5752 -0.0501392 0
M  V30 857 C 81.0944 1.83996 0.663685 0
M  V30 858 C 81.4744 0.938339 1.89099 0
M  V30 859 O 80.8224 -0.00087759 2.285 0
M  V30 860 C 81.0324 3.33702 1.02196 0
M  V30 861 C 82.3804 4.00691 1.40469 0
M  V30 862 O 83.4044 3.38321 1.11433 0
M  V30 863 O 82.2634 5.10658 1.94654 0
M  V30 864 H 79.3574 0.759385 0.32751 0
M  V30 865 H 81.9034 1.69514 -0.0794238 0
M  V30 866 H 80.6754 3.91015 0.149364 0
M  V30 867 H 80.2984 3.53368 1.82255 0
M  V30 868 N 81.2955 -0.223234 1.56011 0
M  V30 869 C 82.2425 -1.27664 1.92277 0
M  V30 870 C 83.2125 -1.46659 0.779763 0
M  V30 871 O 84.3975 -1.60256 1.03551 0
M  V30 872 C 81.5375 -2.62234 2.24338 0
M  V30 873 C 80.6505 -2.51051 3.51564 0
M  V30 874 C 79.7855 -3.78133 3.7308 0
M  V30 875 C 78.8245 -3.61665 4.93827 0
M  V30 876 N 77.9615 -4.80693 5.11741 0
M  V30 877 H 82.8015 -0.960358 2.82101 0
M  V30 878 H 80.3385 -0.462901 1.39627 0
M  V30 879 H 82.2965 -3.40596 2.40936 0
M  V30 880 H 80.9265 -2.91961 1.3769 0
M  V30 881 H 79.9785 -1.64132 3.43169 0
M  V30 882 H 81.2905 -2.34803 4.40079 0
M  V30 883 H 80.4445 -4.64938 3.89766 0
M  V30 884 H 79.1835 -3.97304 2.82844 0
M  V30 885 H 78.1885 -2.73244 4.77093 0
M  V30 886 H 79.4135 -3.43966 5.85546 0
M  V30 887 H 77.3595 -5.00181 4.24446 0
M  V30 888 H 77.2765 -4.67165 5.94384 0
M  V30 889 H 78.5445 -5.6893 5.3286 0
M  V30 890 N 82.7736 -1.49793 -0.48987 0
M  V30 891 C 83.7036 -1.70201 -1.59856 0
M  V30 892 C 84.6846 -0.55076 -1.60937 0
M  V30 893 O 85.8696 -0.787841 -1.77501 0
M  V30 894 C 82.9996 -1.77882 -2.98287 0
M  V30 895 C 81.9536 -2.92907 -3.12073 0
M  V30 896 C 81.2796 -2.85712 -4.51965 0
M  V30 897 C 82.5796 -4.3369 -2.91051 0
M  V30 898 H 84.2736 -2.63025 -1.43032 0
M  V30 899 H 81.8196 -1.26574 -0.686664 0
M  V30 900 H 83.7726 -1.90744 -3.75759 0
M  V30 901 H 82.4966 -0.816653 -3.16225 0
M  V30 902 H 81.1556 -2.79665 -2.37029 0
M  V30 903 H 80.8036 -1.8738 -4.66795 0
M  V30 904 H 80.5036 -3.62921 -4.62128 0
M  V30 905 H 82.0276 -3.00598 -5.31482 0
M  V30 906 H 83.4416 -4.47555 -3.58284 0
M  V30 907 H 81.8386 -5.12205 -3.12675 0
M  V30 908 H 82.9086 -4.47362 -1.87071 0
M  V30 909 N 84.2517 0.741722 -1.39055 0
M  V30 910 C 85.4977 1.50336 -1.36113 0
M  V30 911 C 85.8307 1.94148 0.0450796 0
M  V30 912 O 85.1057 1.66301 1.00868 0
M  V30 913 C 85.3887 2.74773 -2.32749 0
M  V30 914 C 85.2417 2.37023 -3.82283 0
M  V30 915 C 86.5607 3.76846 -2.27322 0
M  V30 916 H 83.6797 0.545351 -0.495743 0
M  V30 917 H 86.3217 0.848624 -1.69995 0
M  V30 918 H 84.4717 3.30639 -2.03986 0
M  V30 919 H 86.1437 1.8684 -4.21768 0
M  V30 920 H 84.3867 1.69334 -3.99385 0
M  V30 921 H 85.0577 3.26104 -4.45376 0
M  V30 922 H 87.5337 3.30548 -2.5274 0
M  V30 923 H 86.4097 4.6159 -2.97028 0
M  V30 924 H 86.6707 4.23286 -1.27599 0
M  V30 925 N 85.7298 1.2412 0.971189 0
M  V30 926 C 86.9788 1.07284 1.70801 0
M  V30 927 C 87.2918 -0.388902 1.91695 0
M  V30 928 O 88.4978 -0.677379 2.62914 0
M  V30 929 C 86.9538 1.87145 3.07416 0
M  V30 930 C 86.5618 3.37707 2.94377 0
M  V30 931 C 88.3058 1.78828 3.84995 0
M  V30 932 C 86.2128 4.09925 4.26281 0
M  V30 933 H 85.1428 0.397854 0.64049 0
M  V30 934 H 87.7938 1.4817 1.0825 0
M  V30 935 H 86.1758 1.39071 3.70777 0
M  V30 936 H 87.3498 3.93335 2.4005 0
M  V30 937 H 85.6648 3.46938 2.30267 0
M  V30 938 H 88.2618 2.30089 4.82662 0
M  V30 939 H 88.6048 0.75284 4.09436 0
M  V30 940 H 89.1378 2.24563 3.28354 0
M  V30 941 H 85.8768 5.13813 4.07033 0
M  V30 942 H 85.3968 3.59083 4.80437 0
M  V30 943 H 87.0758 4.1673 4.94919 0
M  V30 944 N 87.2079 -1.17134 1.05439 0
M  V30 945 C 88.4559 -1.87085 0.764429 0
M  V30 946 C 88.7769 -1.81584 -0.710787 0
M  V30 947 O 88.0469 -1.24349 -1.51374 0
M  V30 948 H 86.6269 -0.692627 0.279779 0
M  V30 949 H 89.2889 -1.42087 1.33406 0
M  V30 950 H 88.3849 -2.92759 1.0816 0
M  V30 951 N 88.686 -0.835752 -1.33615 0
M  V30 952 C 89.911 -0.442389 -2.02627 0
M  V30 953 C 90.336 0.947735 -1.62479 0
M  V30 954 O 89.694 1.61907 -0.815826 0
M  V30 955 C 89.742 -0.567216 -3.56111 0
M  V30 956 O 88.846 0.407799 -4.10379 0
M  V30 957 H 88.187 -0.180278 -0.639059 0
M  V30 958 H 90.717 -1.12972 -1.70583 0
M  V30 959 H 90.727 -0.447708 -4.05536 0
M  V30 960 H 89.402 -1.58103 -3.84677 0
M  V30 961 H 87.979 0.246107 -3.72087 0
M  V30 962 N 90.1641 1.46063 -0.591896 0
M  V30 963 C 91.4111 2.02338 -0.0809991 0
M  V30 964 C 91.7391 1.46228 1.28249 0
M  V30 965 O 90.9941 0.620818 1.85592 0
M  V30 966 C 91.2931 3.57391 0.0249813 0
M  V30 967 C 90.9591 4.32583 -1.27211 0
M  V30 968 C 89.6211 4.52844 -1.62745 0
M  V30 969 C 91.9731 4.75687 -2.13005 0
M  V30 970 C 89.3011 5.13462 -2.83855 0
M  V30 971 C 91.6531 5.37644 -3.3335 0
M  V30 972 C 90.3171 5.5613 -3.69155 0
M  V30 973 H 89.5871 0.740407 -0.0296397 0
M  V30 974 H 92.2341 1.75321 -0.770374 0
M  V30 975 H 90.5391 3.83597 0.797537 0
M  V30 976 H 92.2361 3.98621 0.436184 0
M  V30 977 H 88.8261 4.17116 -0.985499 0
M  V30 978 H 93.0101 4.59782 -1.86855 0
M  V30 979 H 88.2661 5.25965 -3.11722 0
M  V30 980 H 92.4401 5.7 -4.00092 0
M  V30 981 H 90.0671 6.0287 -4.63089 0
M  V30 982 N 91.6422 0.330177 1.54103 0
M  V30 983 C 92.8822 -0.270916 2.02597 0
M  V30 984 C 93.2462 -1.48826 1.21304 0
M  V30 985 O 94.4472 -2.16266 1.59633 0
M  V30 986 C 92.7182 -0.590328 3.52491 0
M  V30 987 S 94.2772 -1.17014 4.2291 0
M  V30 988 H 91.0952 -0.0815379 0.706309 0
M  V30 989 H 93.6972 0.464835 1.89893 0
M  V30 990 H 92.4012 0.303691 4.09275 0
M  V30 991 H 91.9322 -1.3561 3.69288 0
M  V30 992 H 93.9472 -2.45662 4.3112 0
M  V30 993 N 93.1203 -1.57491 0.0584922 0
M  V30 994 C 94.3453 -1.97711 -0.62652 0
M  V30 995 C 94.7703 -0.936132 -1.63151 0
M  V30 996 O 94.1283 0.099811 -1.81025 0
M  V30 997 C 94.1763 -3.36989 -1.28338 0
M  V30 998 O 93.2803 -3.35433 -2.39913 0
M  V30 999 H 92.6213 -0.643868 -0.162266 0
M  V30 1000 H 95.1513 -2.04193 0.129064 0
M  V30 1001 H 95.1613 -3.73879 -1.63335 0
M  V30 1002 H 93.8363 -4.12289 -0.546889 0
M  V30 1003 H 92.4133 -3.10298 -2.06809 0
M  V30 1004 N 94.5984 0.214957 -1.56127 0
M  V30 1005 C 95.8474 0.936451 -1.78643 0
M  V30 1006 C 96.1604 1.85237 -0.628229 0
M  V30 1007 O 97.3664 2.613 -0.737186 0
M  V30 1008 C 95.8224 1.7154 -3.16389 0
M  V30 1009 C 95.4304 0.845299 -4.39953 0
M  V30 1010 C 97.1744 2.42772 -3.48227 0
M  V30 1011 C 95.0814 1.62198 -5.68723 0
M  V30 1012 H 94.0114 0.353401 -0.666051 0
M  V30 1013 H 96.6624 0.190169 -1.82512 0
M  V30 1014 H 95.0444 2.50484 -3.06715 0
M  V30 1015 H 96.2184 0.0959353 -4.607 0
M  V30 1016 H 94.5334 0.244789 -4.1568 0
M  V30 1017 H 97.1304 3.01394 -4.41663 0
M  V30 1018 H 97.4734 3.15984 -2.71035 0
M  V30 1019 H 98.0064 1.70813 -3.5926 0
M  V30 1020 H 94.7454 0.933011 -6.48826 0
M  V30 1021 H 94.2654 2.34579 -5.52026 0
M  V30 1022 H 95.9444 2.18095 -6.09133 0
M  V30 1023 N 96.0765 1.50051 0.48192 0
M  V30 1024 C 97.3245 1.60181 1.23234 0
M  V30 1025 C 97.6455 0.299176 1.92691 0
M  V30 1026 O 96.9155 -0.682708 1.83619 0
M  V30 1027 H 95.4955 0.590232 0.457859 0
M  V30 1028 H 98.1575 1.86775 0.556881 0
M  V30 1029 H 97.2535 2.40753 1.98607 0
M  V30 1030 N 97.5546 -0.734337 1.39446 0
M  V30 1031 C 98.7796 -1.52866 1.40167 0
M  V30 1032 C 99.2046 -1.881 -0.00171513 0
M  V30 1033 O 98.5626 -1.51957 -0.988879 0
M  V30 1034 C 98.6106 -2.79235 2.28167 0
M  V30 1035 O 97.7146 -3.75185 1.71201 0
M  V30 1036 H 97.0556 -0.461618 0.477289 0
M  V30 1037 H 99.5856 -0.905949 1.8345 0
M  V30 1038 H 99.5956 -3.27963 2.42702 0
M  V30 1039 H 98.2706 -2.52923 3.30156 0
M  V30 1040 H 96.8476 -3.33958 1.65912 0
M  V30 1041 N 99.0327 -1.24633 -0.964593 0
M  V30 1042 C 100.281 -1.08573 -1.70459 0
M  V30 1043 C 100.602 0.375655 -1.91347 0
M  V30 1044 O 99.8717 1.26779 -1.49345 0
M  V30 1045 H 98.4517 -0.398784 -0.631649 0
M  V30 1046 H 101.114 -1.56601 -1.16026 0
M  V30 1047 H 100.21 -1.58623 -2.68785 0
M  V30 1048 N 100.511 1.16574 -1.06058 0
M  V30 1049 C 101.474 2.19085 -0.673392 0
M  V30 1050 C 102.474 1.5835 0.279648 0
M  V30 1051 O 103.664 1.74088 0.0623488 0
M  V30 1052 C 100.796 3.40899 0.00954234 0
M  V30 1053 H 101.989 2.54853 -1.58081 0
M  V30 1054 H 99.5418 1.30808 -0.855516 0
M  V30 1055 H 100.277 3.10684 0.929826 0
M  V30 1056 H 100.062 3.86233 -0.67573 0
M  V30 1057 H 101.552 4.1675 0.266245 0
M  V30 1058 N 101.989 0.842826 1.3317 0
M  V30 1059 C 102.952 0.284065 2.27433 0
M  V30 1060 C 103.952 -0.54948 1.5112 0
M  V30 1061 O 105.142 -0.362699 1.70382 0
M  V30 1062 C 102.274 -0.599384 3.35589 0
M  V30 1063 H 103.467 1.11589 2.78366 0
M  V30 1064 H 101.02 0.616221 1.4364 0
M  V30 1065 H 101.755 -1.45349 2.89904 0
M  V30 1066 H 101.54 -0.00291266 3.921 0
M  V30 1067 H 103.03 -0.983488 4.05854 0
M  V30 1068 N 103.467 -1.45747 0.599634 0
M  V30 1069 C 104.714 -2.02292 0.0917284 0
M  V30 1070 C 105.042 -1.46906 -1.27472 0
M  V30 1071 O 104.297 -0.630652 -1.8526 0
M  V30 1072 C 104.596 -3.57399 -0.00602758 0
M  V30 1073 C 104.262 -4.31902 1.29503 0
M  V30 1074 C 102.924 -4.51974 1.65144 0
M  V30 1075 C 105.276 -4.74551 2.15525 0
M  V30 1076 C 102.604 -5.11949 2.86574 0
M  V30 1077 C 104.956 -5.35868 3.36196 0
M  V30 1078 C 103.62 -5.54165 3.72099 0
M  V30 1079 H 102.89 -0.740239 0.0335658 0
M  V30 1080 H 105.537 -1.7491 0.779661 0
M  V30 1081 H 103.842 -3.84014 -0.777183 0
M  V30 1082 H 105.539 -3.98846 -0.415038 0
M  V30 1083 H 102.129 -4.16588 1.00761 0
M  V30 1084 H 106.313 -4.58784 1.8929 0
M  V30 1085 H 101.569 -5.24305 3.14507 0
M  V30 1086 H 105.743 -5.6787 4.03109 0
M  V30 1087 H 103.37 -6.00406 4.6628 0
M  V30 1088 N 104.945 -0.338344 -1.53925 0
M  V30 1089 C 106.194 0.260732 -2.00008 0
M  V30 1090 C 106.507 1.52073 -1.23017 0
M  V30 1091 O 107.713 2.19672 -1.5955 0
M  V30 1092 C 106.169 0.51515 -3.56194 0
M  V30 1093 C 105.777 -0.728645 -4.42035 0
M  V30 1094 C 107.521 1.07337 -4.10706 0
M  V30 1095 C 105.428 -0.445315 -5.89721 0
M  V30 1096 H 104.358 0.101205 -0.747177 0
M  V30 1097 H 107.009 -0.452866 -1.77824 0
M  V30 1098 H 105.391 1.28932 -3.74423 0
M  V30 1099 H 106.565 -1.50352 -4.35581 0
M  V30 1100 H 104.88 -1.20813 -3.98489 0
M  V30 1101 H 107.477 1.30022 -5.18651 0
M  V30 1102 H 107.82 2.0273 -3.63602 0
M  V30 1103 H 108.353 0.360034 -3.96167 0
M  V30 1104 H 105.092 -1.36883 -6.41049 0
M  V30 1105 H 104.612 0.291569 -5.99091 0
M  V30 1106 H 106.291 -0.0606218 -6.46972 0
M  V30 1107 N 106.423 1.57458 -0.0668435 0
M  V30 1108 C 107.356 2.08033 0.93795 0
M  V30 1109 C 108.334 0.984321 1.29421 0
M  V30 1110 O 109.518 1.25736 1.40437 0
M  V30 1111 C 106.645 2.53388 2.24749 0
M  V30 1112 C 105.691 3.74376 2.04315 0
M  V30 1113 S 106.524 5.19303 1.30706 0
M  V30 1114 C 107.68 5.67986 2.62951 0
M  V30 1115 H 107.913 2.92935 0.50759 0
M  V30 1116 H 105.446 1.5371 0.145804 0
M  V30 1117 H 107.404 2.8018 3.00016 0
M  V30 1118 H 106.065 1.68763 2.64911 0
M  V30 1119 H 105.258 4.04083 3.01218 0
M  V30 1120 H 104.86 3.47931 1.37186 0
M  V30 1121 H 107.152 5.74528 3.5906 0
M  V30 1122 H 108.095 6.66955 2.3786 0
M  V30 1123 H 108.503 4.95781 2.69929 0
M  V30 1124 N 107.901 -0.206675 1.56239 0
M  V30 1125 C 108.864 -1.23976 1.92776 0
M  V30 1126 C 109.864 -1.39041 0.807729 0
M  V30 1127 O 111.054 -1.37051 1.0753 0
M  V30 1128 C 108.186 -2.61112 2.19165 0
M  V30 1129 H 109.379 -0.927764 2.85189 0
M  V30 1130 H 106.932 -0.447718 1.4975 0
M  V30 1131 H 107.667 -2.97386 1.29352 0
M  V30 1132 H 107.452 -2.51552 3.00772 0
M  V30 1133 H 108.942 -3.35633 2.48476 0
M  V30 1134 N 109.379 -1.50304 -0.473955 0
M  V30 1135 C 110.627 -1.60832 -1.22382 0
M  V30 1136 C 110.948 -0.30939 -1.9253 0
M  V30 1137 O 110.218 0.67296 -1.83978 0
M  V30 1138 H 108.798 -0.592652 -0.454723 0
M  V30 1139 H 111.46 -1.87068 -0.546968 0
M  V30 1140 H 110.556 -2.41803 -1.97327 0
M  V30 1141 N 110.857 0.726932 -1.39834 0
M  V30 1142 C 111.805 1.86235 -1.39353 0
M  V30 1143 C 112.799 1.67144 -0.275555 0
M  V30 1144 O 114.005 1.74387 -0.44601 0
M  V30 1145 H 110.38 0.613174 -0.43534 0
M  V30 1146 H 112.351 1.83756 -2.35109 0
M  V30 1147 C 111.1 3.23995 -1.26185 0
M  V30 1148 H 110.423 3.39285 -2.11484 0
M  V30 1149 H 111.863 4.03609 -1.29907 0
M  V30 1150 C 110.322 3.36888 0.0290018 0
M  V30 1151 O 110.852 3.89152 0.99619 0
M  V30 1152 N 109.058 2.90446 0.0947437 0
M  V30 1153 H 108.605 2.48102 -0.693035 0
M  V30 1154 H 108.563 2.99451 0.957932 0
M  V30 1155 N 112.336 1.25143 0.95797 0
M  V30 1156 C 113.268 1.01023 2.05735 0
M  V30 1157 C 114.281 -0.0236902 1.62783 0
M  V30 1158 O 115.47 0.21448 1.77207 0
M  V30 1159 C 112.57 0.504595 3.35122 0
M  V30 1160 C 111.743 1.6039 4.06932 0
M  V30 1161 C 110.802 1.09922 5.14591 0
M  V30 1162 O 109.828 1.79293 5.40225 0
M  V30 1163 N 111.03 -0.0612545 5.80468 0
M  V30 1164 H 113.795 1.95683 2.26998 0
M  V30 1165 H 111.356 1.16303 1.12629 0
M  V30 1166 H 113.348 0.151516 4.04416 0
M  V30 1167 H 111.918 -0.347989 3.10657 0
M  V30 1168 H 111.138 2.12872 3.31782 0
M  V30 1169 H 112.426 2.34252 4.51667 0
M  V30 1170 H 111.824 -0.640985 5.62057 0
M  V30 1171 H 110.381 -0.355395 6.5083 0
M  V30 1172 N 113.814 -1.1601 1.06675 0
M  V30 1173 C 115.062 -1.86264 0.784229 0
M  V30 1174 C 115.383 -1.82328 -0.691488 0
M  V30 1175 O 114.653 -1.25947 -1.50047 0
M  V30 1176 H 113.233 -0.689621 0.28711 0
M  V30 1177 H 115.895 -1.40664 1.34906 0
M  V30 1178 H 114.991 -2.91595 1.11259 0
M  V30 1179 N 115.292 -0.849877 -1.32721 0
M  V30 1180 C 116.242 -0.262892 -2.26479 0
M  V30 1181 C 117.226 0.588493 -1.49752 0
M  V30 1182 O 118.418 0.438659 -1.71478 0
M  V30 1183 C 115.547 0.551818 -3.38836 0
M  V30 1184 C 114.633 -0.311689 -4.22953 0
M  V30 1185 N 115.024 -1.39567 -4.86163 0
M  V30 1186 C 113.322 -0.100611 -4.45887 0
M  V30 1187 C 114.023 -1.92651 -5.48872 0
M  V30 1188 N 112.999 -1.22637 -5.29586 0
M  V30 1189 H 116.801 -1.09166 -2.72873 0
M  V30 1190 H 114.315 -0.695486 -1.46754 0
M  V30 1191 H 116.312 0.988713 -4.05006 0
M  V30 1192 H 114.972 1.37844 -2.93988 0
M  V30 1193 H 115.983 -1.77859 -4.86402 0
M  V30 1194 H 112.66 0.691681 -4.11731 0
M  V30 1195 H 114.05 -2.83487 -6.09167 0
M  V30 1196 N 116.77 1.45427 -0.607355 0
M  V30 1197 C 118.186 1.57283 -0.270985 0
M  V30 1198 C 118.386 1.59875 1.22647 0
M  V30 1199 O 117.442 1.52893 2.00948 0
M  V30 1200 C 118.755 2.85566 -0.941952 0
M  V30 1201 C 120.303 2.9924 -0.917849 0
M  V30 1202 C 120.778 4.30293 -1.56882 0
M  V30 1203 N 122.269 4.37051 -1.5343 0
M  V30 1204 C 123.004 5.37123 -2.00715 0
M  V30 1205 N 122.5 6.43734 -2.56084 0
M  V30 1206 N 124.293 5.28479 -1.91484 0
M  V30 1207 H 116.444 1.41988 -1.57966 0
M  V30 1208 H 118.707 0.67885 -0.661715 0
M  V30 1209 H 118.413 2.8955 -1.99633 0
M  V30 1210 H 118.287 3.74322 -0.465096 0
M  V30 1211 H 120.674 2.94822 0.127984 0
M  V30 1212 H 120.755 2.11895 -1.43297 0
M  V30 1213 H 120.399 4.35469 -2.61398 0
M  V30 1214 H 120.329 5.16454 -1.02873 0
M  V30 1215 H 122.82 3.60615 -1.12982 0
M  V30 1216 H 123.133 7.16341 -2.89958 0
M  V30 1217 H 121.478 6.44485 -2.60122 0
M  V30 1218 H 124.669 4.44098 -1.47967 0
M  V30 1219 H 124.842 6.0632 -2.28648 0
M  V30 1220 N 118.248 0.346503 1.53744 0
M  V30 1221 C 119.211 -0.496439 2.23759 0
M  V30 1222 C 120.211 -1.0252 1.2388 0
M  V30 1223 O 121.401 -0.913974 1.48297 0
M  V30 1224 C 118.533 -1.69187 2.95954 0
M  V30 1225 H 119.726 0.115952 2.99676 0
M  V30 1226 H 117.279 0.0978939 1.55993 0
M  V30 1227 H 118.014 -2.34288 2.24231 0
M  V30 1228 H 117.799 -1.31989 3.69217 0
M  V30 1229 H 119.289 -2.28969 3.49232 0
M  V30 1230 N 119.726 -1.57421 0.075193 0
M  V30 1231 C 120.636 -2.1642 -0.905511 0
M  V30 1232 C 121.652 -1.12828 -1.32461 0
M  V30 1233 O 122.828 -1.45109 -1.39661 0
M  V30 1234 C 119.893 -2.71693 -2.15369 0
M  V30 1235 C 118.954 -3.90171 -1.79068 0
M  V30 1236 C 118.187 -4.42798 -2.97936 0
M  V30 1237 O 118.41 -3.94416 -4.12058 0
M  V30 1238 O 117.344 -5.34085 -2.77555 0
M  V30 1239 H 121.17 -3.00588 -0.433626 0
M  V30 1240 H 118.755 -1.48664 -0.148067 0
M  V30 1241 H 120.637 -3.07104 -2.88557 0
M  V30 1242 H 119.312 -1.90582 -2.61649 0
M  V30 1243 H 118.219 -3.59606 -1.03122 0
M  V30 1244 H 119.552 -4.72584 -1.37569 0
M  V30 1245 N 121.204 0.198386 -1.56346 0
M  V30 1246 C 122.45 0.916115 -1.81601 0
M  V30 1247 C 122.805 1.81025 -0.651744 0
M  V30 1248 O 122.098 1.88316 0.353229 0
M  V30 1249 C 122.292 1.77031 -3.10475 0
M  V30 1250 C 122.121 0.960365 -4.39326 0
M  V30 1251 C 120.891 0.646093 -5.01152 0
M  V30 1252 C 123.089 0.314628 -5.13337 0
M  V30 1253 N 121.071 -0.182828 -6.13628 0
M  V30 1254 C 122.442 -0.37664 -6.18855 0
M  V30 1255 C 124.497 0.230019 -4.97368 0
M  V30 1256 C 123.2 -1.14445 -7.10137 0
M  V30 1257 C 125.226 -0.524389 -5.89071 0
M  V30 1258 C 124.588 -1.20412 -6.94032 0
M  V30 1259 H 120.687 0.314732 -0.715868 0
M  V30 1260 H 123.271 0.185102 -1.93818 0
M  V30 1261 H 121.442 2.47295 -2.99499 0
M  V30 1262 H 123.174 2.42727 -3.2383 0
M  V30 1263 H 119.929 0.969724 -4.63566 0
M  V30 1264 H 120.353 -0.586802 -6.74452 0
M  V30 1265 H 124.995 0.741184 -4.16253 0
M  V30 1266 H 122.713 -1.66706 -7.90718 0
M  V30 1267 H 126.299 -0.591167 -5.78789 0
M  V30 1268 H 125.179 -1.77853 -7.63766 0
M  V30 1269 N 122.682 1.50554 0.465978 0
M  V30 1270 C 123.645 1.69233 1.54574 0
M  V30 1271 C 124.645 0.562901 1.50626 0
M  V30 1272 O 125.835 0.830016 1.53155 0
M  V30 1273 C 122.967 1.7223 2.94193 0
M  V30 1274 H 124.16 2.65571 1.39327 0
M  V30 1275 H 121.713 1.40111 0.692711 0
M  V30 1276 H 122.448 0.77603 3.14878 0
M  V30 1277 H 122.233 2.54285 2.98466 0
M  V30 1278 H 123.723 1.88618 3.72576 0
M  V30 1279 N 124.16 -0.719506 1.40217 0
M  V30 1280 C 125.385 -1.51371 1.4178 0
M  V30 1281 C 125.81 -1.88091 0.0182355 0
M  V30 1282 O 125.168 -1.52997 -0.972707 0
M  V30 1283 C 125.216 -2.768 2.31115 0
M  V30 1284 O 124.32 -3.73349 1.7517 0
M  V30 1285 H 123.661 -0.456529 0.482159 0
M  V30 1286 H 126.191 -0.88644 1.844 0
M  V30 1287 H 126.201 -3.25371 2.46167 0
M  V30 1288 H 124.876 -2.49407 3.3282 0
M  V30 1289 H 123.453 -3.32179 1.69444 0
M  V30 1290 N 125.638 -1.25649 -0.95132 0
M  V30 1291 C 126.866 -1.13343 -1.73092 0
M  V30 1292 C 127.281 0.312434 -1.86197 0
M  V30 1293 O 126.638 1.21465 -1.36207 0
M  V30 1294 C 126.689 -1.78602 -3.14299 0
M  V30 1295 O 126.41 -3.17537 -3.01831 0
M  V30 1296 C 127.911 -1.72119 -4.08522 0
M  V30 1297 H 125.131 -0.395181 -0.542285 0
M  V30 1298 H 127.675 -1.66076 -1.19328 0
M  V30 1299 H 125.83 -1.29832 -3.64996 0
M  V30 1300 H 126.244 -3.49676 -3.90931 0
M  V30 1301 H 127.718 -2.22435 -5.052 0
M  V30 1302 H 128.195 -0.685635 -4.33815 0
M  V30 1303 H 128.801 -2.20393 -3.63741 0
M  V30 1304 N 127.117 1.15442 -1.07289 0
M  V30 1305 C 128.364 1.86213 -0.795668 0
M  V30 1306 C 128.692 1.82291 0.678238 0
M  V30 1307 O 127.947 1.24057 1.51355 0
M  V30 1308 C 128.246 3.3489 -1.24834 0
M  V30 1309 C 127.912 3.59007 -2.72809 0
M  V30 1310 C 126.574 3.65298 -3.13227 0
M  V30 1311 C 128.926 3.68762 -3.68326 0
M  V30 1312 C 126.254 3.78854 -4.4798 0
M  V30 1313 C 128.606 3.83842 -5.0284 0
M  V30 1314 C 127.27 3.88378 -5.4288 0
M  V30 1315 H 126.54 0.681403 -0.291155 0
M  V30 1316 H 129.187 1.36435 -1.34379 0
M  V30 1317 H 127.492 3.8687 -0.619595 0
M  V30 1318 H 129.189 3.88052 -1.01076 0
M  V30 1319 H 125.779 3.5475 -2.40521 0
M  V30 1320 H 129.963 3.63202 -3.38227 0
M  V30 1321 H 125.219 3.80623 -4.78472 0
M  V30 1322 H 129.393 3.90332 -5.76727 0
M  V30 1323 H 127.02 3.98635 -6.47298 0
M  V30 1324 N 128.595 0.856903 1.32268 0
M  V30 1325 C 130.006 0.515711 1.79436 0
M  V30 1326 C 130.357 -0.966586 1.70738 0
M  V30 1327 O 129.482 -1.75409 1.26731 0
M  V30 1328 C 130.077 0.929335 3.25805 0
M  V30 1329 C 128.636 0.640006 3.70919 0
M  V30 1330 C 127.783 1.12784 2.53328 0
M  V30 1331 H 130.734 1.04389 1.19535 0
M  V30 1332 H 130.755 0.246633 3.797 0
M  V30 1333 H 130.267 2.00821 3.32103 0
M  V30 1334 H 128.368 -0.428051 3.70133 0
M  V30 1335 H 128.481 1.20788 4.63624 0
M  V30 1336 H 126.845 0.548033 2.48734 0
M  V30 1337 H 127.628 2.21387 2.62379 0
M  V30 1338 N 130.073 -1.45103 0.615059 0
M  V30 1339 C 131.32 -2.02183 0.113179 0
M  V30 1340 C 131.648 -1.48249 -1.25906 0
M  V30 1341 O 130.903 -0.650265 -1.84581 0
M  V30 1342 C 131.202 -3.57386 0.0318797 0
M  V30 1343 C 130.868 -4.30505 1.34077 0
M  V30 1344 C 129.53 -4.50197 1.69929 0
M  V30 1345 C 131.882 -4.72238 2.20546 0
M  V30 1346 C 129.21 -5.08881 2.91988 0
M  V30 1347 C 131.562 -5.32272 3.41861 0
M  V30 1348 C 130.226 -5.50187 3.77956 0
M  V30 1349 H 129.496 -0.739842 0.0414151 0
M  V30 1350 H 132.143 -1.74073 0.798168 0
M  V30 1351 H 130.448 -3.84817 -0.736409 0
M  V30 1352 H 132.145 -3.99264 -0.372712 0
M  V30 1353 H 128.735 -4.15496 1.05173 0
M  V30 1354 H 132.919 -4.56751 1.94146 0
M  V30 1355 H 128.175 -5.20939 3.2005 0
M  V30 1356 H 132.349 -5.63563 4.09109 0
M  V30 1357 H 129.976 -5.95427 4.72622 0
M  V30 1358 N 131.551 -0.354651 -1.53558 0
M  V30 1359 C 132.501 0.513179 -2.2215 0
M  V30 1360 C 133.485 1.05734 -1.21281 0
M  V30 1361 O 134.677 0.989202 -1.46778 0
M  V30 1362 C 131.806 1.65798 -3.00609 0
M  V30 1363 C 130.892 1.12722 -4.08845 0
M  V30 1364 N 131.283 0.318563 -5.04796 0
M  V30 1365 C 129.581 1.40307 -4.23356 0
M  V30 1366 C 130.282 0.0292224 -5.81693 0
M  V30 1367 N 129.258 0.623891 -5.40008 0
M  V30 1368 H 133.06 -0.111586 -2.93688 0
M  V30 1369 H 130.574 -0.162091 -1.61589 0
M  V30 1370 H 132.571 2.29176 -3.48258 0
M  V30 1371 H 131.231 2.28591 -2.306 0
M  V30 1372 H 132.242 -0.0413091 -5.17884 0
M  V30 1373 H 128.919 2.03458 -3.6457 0
M  V30 1374 H 130.309 -0.623808 -6.68998 0
M  V30 1375 N 133.029 1.57378 -0.0835403 0
M  V30 1376 C 134.276 1.9393 0.58287 0
M  V30 1377 C 134.604 0.964455 1.68904 0
M  V30 1378 O 133.859 -0.0179474 1.95692 0
M  V30 1379 C 134.158 3.37063 1.1884 0
M  V30 1380 C 133.824 4.50424 0.207194 0
M  V30 1381 C 132.486 4.81159 -0.0627115 0
M  V30 1382 C 134.838 5.19136 -0.463426 0
M  V30 1383 C 132.166 5.77939 -1.01012 0
M  V30 1384 C 134.518 6.16931 -1.39924 0
M  V30 1385 C 133.182 6.46078 -1.67749 0
M  V30 1386 H 132.452 0.70964 0.213287 0
M  V30 1387 H 135.099 1.90856 -0.156916 0
M  V30 1388 H 133.404 3.3666 2.00418 0
M  V30 1389 H 135.101 3.6264 1.71153 0
M  V30 1390 H 131.691 4.2646 0.427747 0
M  V30 1391 H 135.875 4.95576 -0.268034 0
M  V30 1392 H 131.131 5.98842 -1.23283 0
M  V30 1393 H 135.305 6.69273 -1.92476 0
M  V30 1394 H 132.932 7.2088 -2.41321 0
M  V30 1395 N 134.507 -0.190092 1.56449 0
M  V30 1396 C 135.44 -1.26375 1.90012 0
M  V30 1397 C 136.418 -1.43705 0.760765 0
M  V30 1398 O 137.602 -1.59014 1.01226 0
M  V30 1399 C 134.729 -2.62962 2.13468 0
M  V30 1400 C 133.775 -2.62474 3.36169 0
M  V30 1401 S 134.608 -2.13412 4.91137 0
M  V30 1402 C 135.764 -3.51812 5.17667 0
M  V30 1403 H 135.997 -0.977181 2.80782 0
M  V30 1404 H 133.53 -0.393814 1.49293 0
M  V30 1405 H 135.488 -3.41583 2.27664 0
M  V30 1406 H 134.149 -2.88828 1.23439 0
M  V30 1407 H 133.342 -3.62918 3.49723 0
M  V30 1408 H 132.944 -1.91937 3.20992 0
M  V30 1409 H 135.236 -4.47706 5.08494 0
M  V30 1410 H 136.179 -3.43148 6.19399 0
M  V30 1411 H 136.587 -3.46956 4.45288 0
M  V30 1412 N 135.985 -1.50799 -0.457987 0
M  V30 1413 C 136.935 -1.67003 -1.55222 0
M  V30 1414 C 137.919 -0.52434 -1.52117 0
M  V30 1415 O 139.111 -0.779345 -1.58919 0
M  V30 1416 C 136.24 -1.77956 -2.93576 0
M  V30 1417 C 135.326 -2.98243 -3.01516 0
M  V30 1418 N 135.717 -4.21732 -2.79241 0
M  V30 1419 C 134.015 -2.97072 -3.32662 0
M  V30 1420 C 134.716 -5.02817 -2.92489 0
M  V30 1421 N 133.692 -4.37038 -3.23262 0
M  V30 1422 H 137.494 -2.60163 -1.36721 0
M  V30 1423 H 135.008 -1.48163 -0.664952 0
M  V30 1424 H 137.005 -1.87671 -3.72271 0
M  V30 1425 H 135.665 -0.859634 -3.13114 0
M  V30 1426 H 136.676 -4.51016 -2.54567 0
M  V30 1427 H 133.353 -2.14631 -3.58106 0
M  V30 1428 H 134.743 -6.11054 -2.79396 0
M  V30 1429 N 137.463 0.71206 -1.40597 0
M  V30 1430 C 138.373 1.8562 -1.43466 0
M  V30 1431 C 139.389 1.70902 -0.326902 0
M  V30 1432 O 140.565 1.93105 -0.572043 0
M  V30 1433 C 137.63 3.21451 -1.29884 0
M  V30 1434 C 136.691 3.48398 -2.50833 0
M  V30 1435 C 135.924 4.77749 -2.3789 0
M  V30 1436 O 136.147 5.53089 -1.39459 0
M  V30 1437 O 135.081 5.05111 -3.27333 0
M  V30 1438 H 138.907 1.86155 -2.39958 0
M  V30 1439 H 136.492 0.86295 -1.21957 0
M  V30 1440 H 138.374 4.02579 -1.24531 0
M  V30 1441 H 137.049 3.21636 -0.364997 0
M  V30 1442 H 135.956 2.67265 -2.61763 0
M  V30 1443 H 137.289 3.53014 -3.4299 0
M  V30 1444 N 138.941 1.26152 0.944643 0
M  V30 1445 C 139.851 1.09176 2.07648 0
M  V30 1446 C 140.867 0.0261935 1.7398 0
M  V30 1447 O 142.043 0.229208 2.00091 0
M  V30 1448 C 139.108 0.722915 3.39079 0
M  V30 1449 C 138.169 1.86752 3.86552 0
M  V30 1450 C 137.402 1.51617 5.11711 0
M  V30 1451 O 137.625 0.416331 5.68879 0
M  V30 1452 O 136.559 2.34975 5.54139 0
M  V30 1453 H 140.385 2.0412 2.24875 0
M  V30 1454 H 137.97 1.05182 1.061 0
M  V30 1455 H 139.852 0.529787 4.18056 0
M  V30 1456 H 138.527 -0.197159 3.23099 0
M  V30 1457 H 137.434 2.11558 3.08535 0
M  V30 1458 H 138.767 2.76719 4.07047 0
M  V30 1459 N 140.419 -1.14872 1.07899 0
M  V30 1460 C 141.83 -1.67367 0.827363 0
M  V30 1461 C 142.181 -1.85236 -0.646693 0
M  V30 1462 O 141.306 -1.55974 -1.50004 0
M  V30 1463 C 141.901 -3.04016 1.49532 0
M  V30 1464 C 140.46 -3.53566 1.29106 0
M  V30 1465 C 139.607 -2.29161 1.56143 0
M  V30 1466 H 142.558 -0.990083 1.24028 0
M  V30 1467 H 142.579 -3.69219 0.919643 0
M  V30 1468 H 142.091 -2.90978 2.56814 0
M  V30 1469 H 140.192 -3.71835 0.238713 0
M  V30 1470 H 140.305 -4.34661 2.01511 0
M  V30 1471 H 138.669 -2.34978 0.982717 0
M  V30 1472 H 139.452 -2.18705 2.64619 0
M  V30 1473 N 141.898 -0.863906 -1.31812 0
M  V30 1474 C 143.144 -0.472535 -1.97218 0
M  V30 1475 C 143.477 0.971394 -1.68159 0
M  V30 1476 O 142.752 1.68309 -0.974798 0
M  V30 1477 C 143.035 -0.723054 -3.52766 0
M  V30 1478 C 142.888 -2.21608 -3.91421 0
M  V30 1479 C 144.207 -0.185522 -4.39709 0
M  V30 1480 H 141.326 -0.173158 -0.71637 0
M  V30 1481 H 143.968 -1.08403 -1.56041 0
M  V30 1482 H 142.118 -0.202577 -3.87971 0
M  V30 1483 H 143.79 -2.80334 -3.66347 0
M  V30 1484 H 142.033 -2.691 -3.40246 0
M  V30 1485 H 142.704 -2.34203 -4.99853 0
M  V30 1486 H 145.18 -0.630726 -4.11292 0
M  V30 1487 H 144.056 -0.390306 -5.47511 0
M  V30 1488 H 144.317 0.912229 -4.32586 0
M  V30 1489 N 143.376 1.44774 -0.622745 0
M  V30 1490 C 144.623 2.02121 -0.1239 0
M  V30 1491 C 144.951 1.48915 1.25118 0
M  V30 1492 O 144.206 0.660045 1.84233 0
M  V30 1493 C 144.505 3.57364 -0.0508323 0
M  V30 1494 C 144.171 4.29787 -1.36358 0
M  V30 1495 C 142.833 4.4929 -1.72314 0
M  V30 1496 C 145.185 4.71062 -2.23048 0
M  V30 1497 C 142.513 5.07325 -2.94682 0
M  V30 1498 C 144.865 5.30452 -3.44679 0
M  V30 1499 C 143.529 5.48175 -3.80868 0
M  V30 1500 H 142.799 0.739612 -0.0453381 0
M  V30 1501 H 145.446 1.73648 -0.807389 0
M  V30 1502 H 143.751 3.85202 0.715991 0
M  V30 1503 H 145.448 3.99456 0.351533 0
M  V30 1504 H 142.038 4.14932 -1.07375 0
M  V30 1505 H 146.222 4.55715 -1.96565 0
M  V30 1506 H 141.478 5.19235 -3.22809 0
M  V30 1507 H 145.652 5.61385 -4.12092 0
M  V30 1508 H 143.279 5.92912 -4.75773 0
M  V30 1509 N 144.854 0.36279 1.53368 0
M  V30 1510 C 145.817 -0.472679 2.24273 0
M  V30 1511 C 146.817 -1.012 1.24961 0
M  V30 1512 O 148.007 -0.898194 1.49259 0
M  V30 1513 C 145.139 -1.66039 2.97731 0
M  V30 1514 H 146.332 0.14773 2.99536 0
M  V30 1515 H 143.885 0.114434 1.55881 0
M  V30 1516 H 144.62 -2.31896 2.26704 0
M  V30 1517 H 144.405 -1.28066 3.70596 0
M  V30 1518 H 145.895 -2.25252 3.51641 0
M  V30 1519 N 146.332 -1.57332 0.0918853 0
M  V30 1520 C 147.58 -1.93853 -0.571446 0
M  V30 1521 C 147.901 -0.974212 -1.6892 0
M  V30 1522 O 147.171 -0.0257254 -1.95883 0
M  V30 1523 H 145.751 -0.715666 -0.214082 0
M  V30 1524 H 148.413 -1.94287 0.154464 0
M  V30 1525 H 147.509 -2.96191 -0.983729 0
M  V30 1526 N 147.81 0.181792 -1.56548 0
M  V30 1527 C 148.773 1.20894 -1.94724 0
M  V30 1528 C 149.773 1.37738 -0.829747 0
M  V30 1529 O 150.963 1.35323 -1.09697 0
M  V30 1530 C 148.095 2.57593 -2.23291 0
M  V30 1531 H 149.288 0.882275 -2.86629 0
M  V30 1532 H 146.841 0.423838 -1.50444 0
M  V30 1533 H 147.576 2.95291 -1.34067 0
M  V30 1534 H 147.361 2.46735 -3.04736 0
M  V30 1535 H 148.851 3.31637 -2.53785 0
M  V30 1536 N 149.288 1.51039 0.449983 0
M  V30 1537 C 150.534 1.63322 1.20223 0
M  V30 1538 C 150.867 0.34241 1.91158 0
M  V30 1539 O 150.142 -0.657344 1.83055 0
M  V30 1540 C 150.425 2.82801 2.22925 0
M  V30 1541 C 150.278 4.21823 1.56157 0
M  V30 1542 C 151.597 2.97807 3.24035 0
M  V30 1543 H 148.716 0.594407 0.435718 0
M  V30 1544 H 151.358 1.83489 0.493136 0
M  V30 1545 H 149.508 2.65738 2.834 0
M  V30 1546 H 151.18 4.50526 0.991162 0
M  V30 1547 H 149.423 4.25105 0.864172 0
M  V30 1548 H 150.094 5.01391 2.30891 0
M  V30 1549 H 152.57 3.13497 2.73603 0
M  V30 1550 H 151.446 3.82992 3.93202 0
M  V30 1551 H 151.707 2.09328 3.89402 0
M  V30 1552 N 150.766 -0.704594 1.40972 0
M  V30 1553 C 151.714 -1.83994 1.42299 0
M  V30 1554 C 152.708 -1.66684 0.302111 0
M  V30 1555 O 153.914 -1.73655 0.473697 0
M  V30 1556 H 150.289 -0.606171 0.44504 0
M  V30 1557 H 152.26 -1.79992 2.38003 0
M  V30 1558 C 151.009 -3.21946 1.31323 0
M  V30 1559 H 150.332 -3.35878 2.16855 0
M  V30 1560 H 151.772 -4.01491 1.36311 0
M  V30 1561 C 150.231 -3.36891 0.0245977 0
M  V30 1562 O 150.761 -3.90687 -0.934153 0
M  V30 1563 N 148.967 -2.90559 -0.0485243 0
M  V30 1564 H 148.514 -2.46968 0.732419 0
M  V30 1565 H 148.472 -3.00937 -0.910171 0
M  V30 1566 N 152.244 -1.26651 -0.937939 0
M  V30 1567 C 153.492 -1.12165 -1.68118 0
M  V30 1568 C 153.813 0.334983 -1.92101 0
M  V30 1569 O 153.083 1.23583 -1.52 0
M  V30 1570 H 151.663 -0.412093 -0.623048 0
M  V30 1571 H 154.325 -1.59027 -1.12678 0
M  V30 1572 H 153.421 -1.64289 -2.6536 0
M  V30 1573 N 153.722 1.14298 -1.08507 0
M  V30 1574 C 154.952 1.88945 -0.835663 0
M  V30 1575 C 155.36 1.78894 0.615928 0
M  V30 1576 O 154.703 1.1468 1.43506 0
M  V30 1577 C 154.765 3.39585 -1.17994 0
M  V30 1578 C 154.429 3.7342 -2.63451 0
M  V30 1579 C 155.426 3.73454 -3.61702 0
M  V30 1580 C 153.111 4.03368 -2.99332 0
M  V30 1581 C 155.105 4.02961 -4.93864 0
M  V30 1582 C 152.792 4.32538 -4.31687 0
M  V30 1583 C 153.79 4.32318 -5.28763 0
M  V30 1584 O 153.478 4.6078 -6.58739 0
M  V30 1585 H 153.21 0.605307 -0.300965 0
M  V30 1586 H 155.764 1.45673 -1.44806 0
M  V30 1587 H 153.994 3.83315 -0.51055 0
M  V30 1588 H 155.683 3.9554 -0.911182 0
M  V30 1589 H 156.449 3.50403 -3.35325 0
M  V30 1590 H 152.328 4.02692 -2.24411 0
M  V30 1591 H 155.872 4.02704 -5.69627 0
M  V30 1592 H 151.769 4.55059 -4.57812 0
M  V30 1593 H 152.537 4.78492 -6.64069 0
M  V30 1594 N 155.201 0.870884 1.31352 0
M  V30 1595 C 156.133 0.28455 2.27427 0
M  V30 1596 C 157.146 -0.552927 1.53123 0
M  V30 1597 O 158.335 -0.374771 1.74521 0
M  V30 1598 C 155.435 -0.615164 3.3327 0
M  V30 1599 C 154.608 0.190079 4.36987 0
M  V30 1600 C 153.667 -0.637917 5.22319 0
M  V30 1601 O 152.693 -0.065626 5.69162 0
M  V30 1602 N 153.895 -1.94973 5.46778 0
M  V30 1603 H 156.66 1.11017 2.7838 0
M  V30 1604 H 154.221 0.732458 1.44384 0
M  V30 1605 H 156.213 -1.1748 3.87273 0
M  V30 1606 H 154.783 -1.34146 2.82354 0
M  V30 1607 H 154.003 0.931165 3.83044 0
M  V30 1608 H 155.291 0.742579 5.03352 0
M  V30 1609 H 154.689 -2.4378 5.10478 0
M  V30 1610 H 153.246 -2.45713 6.03712 0
M  V30 1611 N 156.679 -1.44442 0.630414 0
M  V30 1612 C 158.09 -1.85434 0.217063 0
M  V30 1613 C 158.441 -1.52748 -1.23136 0
M  V30 1614 O 157.566 -0.965205 -1.93682 0
M  V30 1615 C 158.161 -3.36581 0.387168 0
M  V30 1616 C 156.72 -3.76389 0.0283297 0
M  V30 1617 C 155.867 -2.68296 0.700889 0
M  V30 1618 H 158.818 -1.34919 0.83562 0
M  V30 1619 H 158.839 -3.78657 -0.374086 0
M  V30 1620 H 158.351 -3.60339 1.44144 0
M  V30 1621 H 156.452 -3.58246 -1.02423 0
M  V30 1622 H 156.565 -4.77095 0.437892 0
M  V30 1623 H 154.929 -2.54335 0.136267 0
M  V30 1624 H 155.712 -2.94887 1.75774 0
M  V30 1625 N 158.157 -0.370918 -1.53173 0
M  V30 1626 C 159.12 0.460778 -2.24521 0
M  V30 1627 C 160.12 1.00536 -1.25496 0
M  V30 1628 O 161.31 0.890266 -1.49733 0
M  V30 1629 C 158.442 1.64457 -2.98608 0
M  V30 1630 H 159.635 -0.163613 -2.99453 0
M  V30 1631 H 157.188 -0.122699 -1.55818 0
M  V30 1632 H 157.923 2.30691 -2.2793 0
M  V30 1633 H 157.708 1.26099 -3.7127 0
M  V30 1634 H 159.198 2.23384 -3.5283 0
M  V30 1635 N 159.635 1.57281 -0.100228 0
M  V30 1636 C 160.883 1.94153 0.561157 0
M  V30 1637 C 161.204 0.983157 1.68401 0
M  V30 1638 O 160.474 0.0361132 1.95867 0
M  V30 1639 H 159.054 0.716791 0.210283 0
M  V30 1640 H 161.716 1.94202 -0.164765 0
M  V30 1641 H 160.812 2.96709 0.968008 0
M  V30 1642 N 161.113 -0.173488 1.56642 0
M  V30 1643 C 162.39 -0.917617 1.7274 0
M  V30 1644 C 162.77 -2.00484 0.661027 0
M  V30 1645 O 162.118 -2.26184 -0.32453 0
M  V30 1646 C 162.328 -1.48433 3.15862 0
M  V30 1647 C 163.676 -1.95809 3.76754 0
M  V30 1648 O 164.7 -1.58231 3.19126 0
M  V30 1649 O 163.559 -2.65024 4.77938 0
M  V30 1650 H 160.653 -0.431772 0.705338 0
M  V30 1651 H 163.199 -0.161487 1.6893 0
M  V30 1652 H 161.971 -0.701715 3.84957 0
M  V30 1653 H 161.594 -2.30471 3.23989 0
M  V30 1654 N 162.591 -1.51276 -0.441967 0
M  V30 1655 C 163.819 -1.67516 -1.21434 0
M  V30 1656 C 164.234 -0.37055 -1.85128 0
M  V30 1657 O 163.591 0.650498 -1.70513 0
M  V30 1658 C 163.642 -2.78748 -2.30177 0
M  V30 1659 O 163.363 -4.04154 -1.69089 0
M  V30 1660 C 164.864 -3.06217 -3.20541 0
M  V30 1661 H 162.084 -0.562276 -0.366178 0
M  V30 1662 H 164.628 -1.97666 -0.524244 0
M  V30 1663 H 162.783 -2.5121 -2.94911 0
M  V30 1664 H 163.197 -4.65894 -2.40922 0
M  V30 1665 H 164.671 -3.8764 -3.92987 0
M  V30 1666 H 165.148 -2.18439 -3.81026 0
M  V30 1667 H 165.754 -3.35397 -2.61513 0
M  V30 1668 N 164.069 0.697108 -1.41344 0
M  V30 1669 C 164.999 1.82353 -1.45841 0
M  V30 1670 C 165.98 1.67115 -0.317247 0
M  V30 1671 O 167.165 1.86871 -0.528474 0
M  V30 1672 C 164.295 3.20476 -1.33838 0
M  V30 1673 C 163.249 3.50415 -2.4575 0
M  V30 1674 C 162.575 4.87878 -2.18813 0
M  V30 1675 C 163.875 3.49546 -3.88091 0
M  V30 1676 H 165.569 1.78846 -2.40113 0
M  V30 1677 H 163.115 0.859028 -1.15571 0
M  V30 1678 H 165.068 3.98988 -1.35596 0
M  V30 1679 H 163.792 3.24604 -0.360498 0
M  V30 1680 H 162.451 2.74253 -2.43271 0
M  V30 1681 H 162.099 4.8863 -1.19371 0
M  V30 1682 H 161.799 5.08875 -2.93803 0
M  V30 1683 H 163.323 5.68702 -2.22284 0
M  V30 1684 H 164.737 4.18066 -3.92293 0
M  V30 1685 H 163.134 3.82075 -4.62751 0
M  V30 1686 H 164.204 2.48552 -4.16353 0
M  V30 1687 N 165.547 1.27147 0.931209 0
M  V30 1688 C 166.796 1.12664 1.67302 0
M  V30 1689 C 167.109 -0.327718 1.92835 0
M  V30 1690 O 168.315 -0.593392 2.64936 0
M  V30 1691 C 166.771 1.9683 3.01307 0
M  V30 1692 C 166.379 3.46901 2.83485 0
M  V30 1693 C 168.123 1.90985 3.79111 0
M  V30 1694 C 166.03 4.23279 4.13024 0
M  V30 1695 H 164.96 0.41803 0.627509 0
M  V30 1696 H 167.611 1.51539 1.03481 0
M  V30 1697 H 165.993 1.50797 3.66164 0
M  V30 1698 H 167.167 4.00773 2.27415 0
M  V30 1699 H 165.482 3.54088 2.19113 0
M  V30 1700 H 168.079 2.45328 4.75098 0
M  V30 1701 H 168.422 0.882718 4.06834 0
M  V30 1702 H 168.955 2.34895 3.21044 0
M  V30 1703 H 165.694 5.26503 3.90481 0
M  V30 1704 H 165.214 3.74186 4.6877 0
M  V30 1705 H 166.893 4.32265 4.81411 0
M  V30 1706 N 167.025 -1.13721 1.09112 0
M  V30 1707 C 168.273 -1.84559 0.823562 0
M  V30 1708 C 168.594 -1.83754 -0.652658 0
M  V30 1709 O 167.864 -1.29102 -1.47342 0
M  V30 1710 H 166.444 -0.683376 0.301673 0
M  V30 1711 H 169.106 -1.37771 1.37859 0
M  V30 1712 H 168.202 -2.8917 1.17419 0
M  V30 1713 N 168.503 -0.877838 -1.30888 0
M  V30 1714 C 169.453 -0.310872 -2.25871 0
M  V30 1715 C 170.437 0.556596 -1.50966 0
M  V30 1716 O 171.629 0.402187 -1.7237 0
M  V30 1717 C 168.758 0.479821 -3.3993 0
M  V30 1718 C 167.844 -0.401333 -4.22197 0
M  V30 1719 N 168.235 -1.49848 -4.83093 0
M  V30 1720 C 166.533 -0.195167 -4.45573 0
M  V30 1721 C 167.234 -2.0425 -5.44662 0
M  V30 1722 N 166.21 -1.33843 -5.26865 0
M  V30 1723 H 170.012 -1.1493 -2.70496 0
M  V30 1724 H 167.526 -0.726458 -1.45246 0
M  V30 1725 H 169.523 0.902582 -4.07012 0
M  V30 1726 H 168.183 1.31577 -2.96846 0
M  V30 1727 H 169.194 -1.88137 -4.82519 0
M  V30 1728 H 165.871 0.604192 -4.13105 0
M  V30 1729 H 167.261 -2.96345 -6.03017 0
M  V30 1730 N 169.982 1.44106 -0.638065 0
M  V30 1731 C 171.259 1.95453 -0.0759321 0
M  V30 1732 C 171.639 1.57984 1.40015 0
M  V30 1733 O 170.987 0.857361 2.11806 0
M  V30 1734 C 171.197 3.47655 -0.306132 0
M  V30 1735 C 172.545 4.24114 -0.203008 0
M  V30 1736 O 173.569 3.55405 -0.237871 0
M  V30 1737 O 172.428 5.46381 -0.113827 0
M  V30 1738 H 169.522 0.826797 0.0183332 0
M  V30 1739 H 172.068 1.54122 -0.710251 0
M  V30 1740 H 170.84 3.68 -1.3301 0
M  V30 1741 H 170.463 3.95949 0.361991 0
M  V30 1742 N 171.46 0.379036 1.52974 0
M  V30 1743 C 172.706 -0.206727 2.01744 0
M  V30 1744 C 173.039 -1.47314 1.26539 0
M  V30 1745 O 172.314 -1.91084 0.362903 0
M  V30 1746 C 172.597 -0.485066 3.56818 0
M  V30 1747 C 172.45 0.795919 4.42702 0
M  V30 1748 C 173.769 -1.28003 4.21074 0
M  V30 1749 H 170.888 -0.0736607 0.73331 0
M  V30 1750 H 173.53 0.506581 1.83122 0
M  V30 1751 H 171.68 -1.09272 3.72816 0
M  V30 1752 H 173.352 1.43307 4.38476 0
M  V30 1753 H 171.595 1.41344 4.10127 0
M  V30 1754 H 172.266 0.555947 5.49193 0
M  V30 1755 H 174.742 -0.765867 4.08991 0
M  V30 1756 H 173.618 -1.44352 5.29579 0
M  V30 1757 H 173.879 -2.29236 3.78026 0
M  V30 1758 N 172.938 -1.57226 0.108567 0
M  V30 1759 C 174.184 -1.95919 -0.546564 0
M  V30 1760 C 174.539 -0.990417 -1.6495 0
M  V30 1761 O 173.832 -0.0186593 -1.91591 0
M  V30 1762 C 174.026 -3.38911 -1.13463 0
M  V30 1763 C 173.855 -4.4961 -0.0901926 0
M  V30 1764 C 172.625 -5.04168 0.338008 0
M  V30 1765 C 174.823 -5.09693 0.686808 0
M  V30 1766 N 172.805 -5.98434 1.36931 0
M  V30 1767 C 174.176 -5.99804 1.56958 0
M  V30 1768 C 176.231 -4.92388 0.738846 0
M  V30 1769 C 174.934 -6.74463 2.49983 0
M  V30 1770 C 176.96 -5.67719 1.65676 0
M  V30 1771 C 176.322 -6.57507 2.52713 0
M  V30 1772 H 172.421 -0.763312 -0.169936 0
M  V30 1773 H 175.005 -1.93728 0.194264 0
M  V30 1774 H 173.176 -3.41769 -1.84522 0
M  V30 1775 H 174.908 -3.64752 -1.75322 0
M  V30 1776 H 171.663 -4.73571 -0.0523673 0
M  V30 1777 H 172.087 -6.5027 1.88356 0
M  V30 1778 H 176.729 -4.22724 0.080084 0
M  V30 1779 H 174.447 -7.4338 3.16878 0
M  V30 1780 H 178.033 -5.56338 1.70233 0
M  V30 1781 H 176.913 -7.14778 3.22586 0
M  V30 1782 N 174.416 0.165178 -1.56732 0
M  V30 1783 C 175.665 0.879143 -1.81532 0
M  V30 1784 C 175.978 1.83144 -0.686842 0
M  V30 1785 O 177.184 2.58823 -0.819944 0
M  V30 1786 C 175.64 1.61388 -3.21686 0
M  V30 1787 C 175.248 0.704904 -4.4242 0
M  V30 1788 C 176.992 2.3157 -3.55774 0
M  V30 1789 C 174.899 1.44022 -5.73595 0
M  V30 1790 H 173.829 0.332033 -0.676957 0
M  V30 1791 H 176.48 0.132008 -1.83025 0
M  V30 1792 H 174.862 2.40599 -3.14529 0
M  V30 1793 H 176.036 -0.0506815 -4.60772 0
M  V30 1794 H 174.351 0.112419 -4.16248 0
M  V30 1795 H 176.948 2.8719 -4.51028 0
M  V30 1796 H 177.291 3.07201 -2.8095 0
M  V30 1797 H 177.824 1.59297 -3.64513 0
M  V30 1798 H 174.563 0.72612 -6.51466 0
M  V30 1799 H 174.083 2.16898 -5.5921 0
M  V30 1800 H 175.762 1.98606 -6.15764 0
M  V30 1801 N 175.894 1.51508 0.433938 0
M  V30 1802 C 177.142 1.6402 1.18075 0
M  V30 1803 C 177.463 0.360328 1.91642 0
M  V30 1804 O 176.733 -0.623945 1.85698 0
M  V30 1805 H 175.313 0.6045 0.43885 0
M  V30 1806 H 177.975 1.88452 0.497178 0
M  V30 1807 H 177.071 2.46949 1.90847 0
M  V30 1808 N 177.372 -0.689602 1.41712 0
M  V30 1809 C 178.6 -1.47827 1.44758 0
M  V30 1810 C 179.015 -1.88721 0.0545703 0
M  V30 1811 O 178.372 -1.57176 -0.927463 0
M  V30 1812 C 178.423 -2.73698 2.3616 0
M  V30 1813 O 178.144 -2.34524 3.7004 0
M  V30 1814 C 179.645 -3.67389 2.48072 0
M  V30 1815 H 176.865 -0.455357 0.49284 0
M  V30 1816 H 179.409 -0.848574 1.86063 0
M  V30 1817 H 177.564 -3.32891 1.98148 0
M  V30 1818 H 177.978 -3.15701 4.18847 0
M  V30 1819 H 179.452 -4.52475 3.16181 0
M  V30 1820 H 179.929 -4.12284 1.51388 0
M  V30 1821 H 180.535 -3.14097 2.86746 0
M  V30 1822 N 178.85 -1.27639 -0.924453 0
M  V30 1823 C 179.76 -1.12466 -2.05885 0
M  V30 1824 C 180.776 -0.053869 -1.73917 0
M  V30 1825 O 181.952 -0.261012 -1.99702 0
M  V30 1826 C 179.017 -0.776768 -3.37886 0
M  V30 1827 C 178.078 -1.92878 -3.83532 0
M  V30 1828 C 177.311 -1.59739 -5.09234 0
M  V30 1829 O 177.534 -0.506782 -5.68144 0
M  V30 1830 O 176.468 -2.43761 -5.50331 0
M  V30 1831 H 180.294 -2.07671 -2.21599 0
M  V30 1832 H 177.879 -1.06857 -1.04413 0
M  V30 1833 H 179.761 -0.596229 -4.17161 0
M  V30 1834 H 178.436 0.145732 -3.23372 0
M  V30 1835 H 177.343 -2.1644 -3.0513 0
M  V30 1836 H 178.676 -2.8316 -4.02593 0
M  V30 1837 N 180.328 1.1314 -1.09713 0
M  V30 1838 C 181.291 2.16831 -0.742751 0
M  V30 1839 C 182.291 1.59159 0.229129 0
M  V30 1840 O 183.481 1.74199 0.00693237 0
M  V30 1841 C 180.613 3.40756 -0.0989168 0
M  V30 1842 H 181.806 2.49695 -1.66109 0
M  V30 1843 H 179.359 1.2802 -0.896699 0
M  V30 1844 H 180.094 3.13485 0.830514 0
M  V30 1845 H 179.879 3.83888 -0.798265 0
M  V30 1846 H 181.369 4.17386 0.133524 0
M  V30 1847 N 181.806 0.884767 1.30421 0
M  V30 1848 C 182.739 0.295999 2.26272 0
M  V30 1849 C 183.717 -0.58332 1.51777 0
M  V30 1850 O 184.901 -0.53346 1.80794 0
M  V30 1851 C 182.028 -0.57944 3.33707 0
M  V30 1852 C 181.074 0.230525 4.25877 0
M  V30 1853 S 181.907 1.61867 5.1045 0
M  V30 1854 C 183.063 0.749756 6.21393 0
M  V30 1855 H 183.296 1.10848 2.75862 0
M  V30 1856 H 180.829 0.684178 1.38414 0
M  V30 1857 H 182.787 -1.07879 3.96071 0
M  V30 1858 H 181.448 -1.36601 2.82841 0
M  V30 1859 H 180.641 -0.437542 5.02097 0
M  V30 1860 H 180.243 0.662493 3.68086 0
M  V30 1861 H 182.535 -0.0333547 6.77492 0
M  V30 1862 H 183.478 1.48356 6.92384 0
M  V30 1863 H 183.886 0.310751 5.63644 0
M  V30 1864 N 183.284 -1.43765 0.645699 0
M  V30 1865 C 184.531 -2.01898 0.15604 0
M  V30 1866 C 184.859 -1.50887 -1.22733 0
M  V30 1867 O 184.114 -0.689271 -1.8316 0
M  V30 1868 C 184.413 -3.57238 0.107679 0
M  V30 1869 C 184.079 -4.27564 1.43178 0
M  V30 1870 C 182.741 -4.46492 1.7944 0
M  V30 1871 C 185.093 -4.67454 2.30513 0
M  V30 1872 C 182.421 -5.02573 3.02716 0
M  V30 1873 C 184.773 -5.24901 3.53074 0
M  V30 1874 C 183.437 -5.42046 3.89541 0
M  V30 1875 H 182.707 -0.738797 0.057099 0
M  V30 1876 H 185.354 -1.72341 0.834912 0
M  V30 1877 H 183.659 -3.86293 -0.654618 0
M  V30 1878 H 185.356 -3.99965 -0.287938 0
M  V30 1879 H 181.946 -4.13171 1.13963 0
M  V30 1880 H 186.13 -4.5253 2.0379 0
M  V30 1881 H 181.386 -5.14033 3.31028 0
M  V30 1882 H 185.56 -5.54758 4.20971 0
M  V30 1883 H 183.187 -5.85268 4.85145 0
M  V30 1884 N 184.763 -0.387143 -1.52771 0
M  V30 1885 C 185.696 0.493123 -2.22808 0
M  V30 1886 C 186.674 1.0658 -1.22798 0
M  V30 1887 O 187.858 1.11785 -1.51777 0
M  V30 1888 C 184.985 1.68238 -2.93962 0
M  V30 1889 C 184.031 1.23515 -4.08223 0
M  V30 1890 S 184.864 0.21848 -5.35054 0
M  V30 1891 C 186.02 1.41357 -6.09729 0
M  V30 1892 H 186.253 -0.101625 -2.97126 0
M  V30 1893 H 183.786 -0.171323 -1.53447 0
M  V30 1894 H 185.744 2.36443 -3.35567 0
M  V30 1895 H 184.405 2.24842 -2.19328 0
M  V30 1896 H 183.598 2.12304 -4.57103 0
M  V30 1897 H 183.2 0.632044 -3.68621 0
M  V30 1898 H 185.492 2.34101 -6.3577 0
M  V30 1899 H 186.435 0.965736 -7.01484 0
M  V30 1900 H 186.843 1.6294 -5.40473 0
M  V30 1901 N 186.241 1.57166 -0.116904 0
M  V30 1902 C 187.652 1.82169 0.408809 0
M  V30 1903 C 188.003 1.03393 1.66746 0
M  V30 1904 O 187.128 0.269886 2.1471 0
M  V30 1905 C 187.723 3.30429 0.748466 0
M  V30 1906 C 186.282 3.5612 1.21882 0
M  V30 1907 C 185.429 2.76374 0.226452 0
M  V30 1908 H 188.38 1.5497 -0.342063 0
M  V30 1909 H 188.401 3.44943 1.60607 0
M  V30 1910 H 187.913 3.87737 -0.167784 0
M  V30 1911 H 186.014 3.04168 2.15204 0
M  V30 1912 H 186.127 4.64705 1.16559 0
M  V30 1913 H 184.491 2.44515 0.713063 0
M  V30 1914 H 185.274 3.3644 -0.682859 0
M  V30 1915 N 187.719 -0.156864 1.56817 0
M  V30 1916 C 188.967 -0.869404 1.82444 0
M  V30 1917 C 189.288 -1.82147 0.69623 0
M  V30 1918 O 188.558 -1.93847 -0.28287 0
M  V30 1919 H 187.138 -0.324043 0.673056 0
M  V30 1920 H 189.8 -0.153224 1.94297 0
M  V30 1921 H 188.896 -1.43761 2.77019 0
M  V30 1922 N 189.197 -1.51736 -0.425897 0
M  V30 1923 C 190.443 -1.65214 -1.1761 0
M  V30 1924 C 190.776 -0.372778 -1.90589 0
M  V30 1925 O 190.051 0.628139 -1.84078 0
M  V30 1926 C 190.334 -2.86312 -2.18398 0
M  V30 1927 C 190.187 -4.24254 -1.49426 0
M  V30 1928 C 191.506 -3.02925 -3.19256 0
M  V30 1929 H 188.625 -0.601263 -0.426206 0
M  V30 1930 H 191.267 -1.8425 -0.463882 0
M  V30 1931 H 189.417 -2.70213 -2.79137 0
M  V30 1932 H 191.089 -4.52046 -0.919362 0
M  V30 1933 H 189.332 -4.26426 -0.796432 0
M  V30 1934 H 190.003 -5.05001 -2.22885 0
M  V30 1935 H 192.479 -3.1781 -2.68581 0
M  V30 1936 H 191.355 -3.89199 -3.8706 0
M  V30 1937 H 191.616 -2.15497 -3.86023 0
M  V30 1938 N 190.675 0.682077 -1.42076 0
M  V30 1939 C 192.091 0.994324 -1.24841 0
M  V30 1940 C 192.291 2.0096 -0.147389 0
M  V30 1941 O 191.347 2.47822 0.483782 0
M  V30 1942 C 192.66 1.50607 -2.60265 0
M  V30 1943 C 194.208 1.62421 -2.6756 0
M  V30 1944 C 194.683 2.16994 -4.03333 0
M  V30 1945 N 196.174 2.24337 -4.0525 0
M  V30 1946 C 196.909 2.67621 -5.07116 0
M  V30 1947 N 196.405 3.1041 -6.19368 0
M  V30 1948 N 198.198 2.67305 -4.94474 0
M  V30 1949 H 190.349 0.00973908 -2.12398 0
M  V30 1950 H 192.612 0.0668593 -0.945639 0
M  V30 1951 H 192.318 0.834583 -3.41654 0
M  V30 1952 H 192.192 2.48602 -2.83684 0
M  V30 1953 H 194.579 2.28678 -1.86521 0
M  V30 1954 H 194.66 0.629352 -2.47937 0
M  V30 1955 H 194.304 1.51349 -4.84826 0
M  V30 1956 H 194.234 3.17258 -4.20304 0
M  V30 1957 H 196.725 1.94158 -3.24209 0
M  V30 1958 H 197.038 3.42103 -6.92954 0
M  V30 1959 H 195.383 3.08286 -6.22884 0
M  V30 1960 H 198.574 2.33233 -4.05857 0
M  V30 1961 H 198.747 3.00718 -5.73997 0
M  V30 1962 N 192.153 1.28127 0.917671 0
M  V30 1963 C 193.399 1.15223 1.66888 0
M  V30 1964 C 193.732 -0.299293 1.9188 0
M  V30 1965 O 193.007 -1.21805 1.51637 0
M  V30 1966 C 193.29 1.94706 3.02922 0
M  V30 1967 C 193.143 3.47898 2.85109 0
M  V30 1968 C 194.462 1.75939 4.03402 0
M  V30 1969 H 191.581 0.419946 0.605652 0
M  V30 1970 H 194.223 1.57398 1.06423 0
M  V30 1971 H 192.373 1.58864 3.54534 0
M  V30 1972 H 194.045 3.93624 2.40537 0
M  V30 1973 H 192.288 3.7373 2.20246 0
M  V30 1974 H 192.959 3.98765 3.81694 0
M  V30 1975 H 195.435 2.07209 3.60837 0
M  V30 1976 H 194.311 2.33931 4.96556 0
M  V30 1977 H 194.572 0.709877 4.36364 0
M  V30 1978 N 193.631 -1.12557 1.10312 0
M  V30 1979 C 194.879 -1.83675 0.843091 0
M  V30 1980 C 195.2 -1.84435 -0.633131 0
M  V30 1981 O 194.47 -1.30657 -1.45964 0
M  V30 1982 H 193.05 -0.680138 0.308904 0
M  V30 1983 H 195.712 -1.36301 1.39313 0
M  V30 1984 H 194.808 -2.87908 1.2048 0
M  V30 1985 N 195.109 -0.891671 -1.2995 0
M  V30 1986 C 196.059 -0.334811 -2.25528 0
M  V30 1987 C 197.043 0.540553 -1.51548 0
M  V30 1988 O 198.235 0.383882 -1.72787 0
M  V30 1989 C 195.364 0.44374 -3.4042 0
M  V30 1990 C 194.45 -0.44609 -4.21747 0
M  V30 1991 N 194.841 -1.54963 -4.81477 0
M  V30 1992 C 193.139 -0.242415 -4.45341 0
M  V30 1993 C 193.84 -2.10015 -5.42465 0
M  V30 1994 N 192.816 -1.39423 -5.25416 0
M  V30 1995 H 196.618 -1.17792 -2.69262 0
M  V30 1996 H 194.132 -0.741822 -1.44467 0
M  V30 1997 H 196.129 0.859362 -4.07947 0
M  V30 1998 H 194.789 1.28421 -2.98225 0
M  V30 1999 H 195.8 -1.93244 -4.80497 0
M  V30 2000 H 192.477 0.560342 -4.13723 0
M  V30 2001 H 193.867 -3.02724 -5.9984 0
M  V30 2002 N 196.587 1.43421 -0.653314 0
M  V30 2003 C 197.835 2.01414 -0.166415 0
M  V30 2004 C 198.156 1.51803 1.22397 0
M  V30 2005 O 197.426 0.730693 1.81763 0
M  V30 2006 H 196.006 0.744703 -0.0585319 0
M  V30 2007 H 198.668 1.75629 -0.845003 0
M  V30 2008 H 197.764 3.11734 -0.151111 0
M  V30 2009 N 198.065 0.39524 1.52563 0
M  V30 2010 C 199.028 -0.425001 2.25225 0
M  V30 2011 C 200.028 -0.985266 1.27079 0
M  V30 2012 O 201.218 -0.866332 1.5113 0
M  V30 2013 C 198.35 -1.59686 3.01186 0
M  V30 2014 H 199.543 0.211233 2.99155 0
M  V30 2015 H 197.096 0.147472 1.55603 0
M  V30 2016 H 197.831 -2.27035 2.31572 0
M  V30 2017 H 197.616 -1.20176 3.73229 0
M  V30 2018 H 199.106 -2.17743 3.5634 0
M  V30 2019 N 199.544 -1.57102 0.125237 0
M  V30 2020 C 200.793 -1.94582 -0.531095 0
M  V30 2021 C 201.106 -1.01126 -1.6743 0
M  V30 2022 O 202.312 -1.28097 -2.39381 0
M  V30 2023 C 200.768 -3.45839 -0.996164 0
M  V30 2024 C 200.376 -4.47842 0.118926 0
M  V30 2025 C 202.12 -3.92227 -1.62352 0
M  V30 2026 C 200.027 -5.90284 -0.363192 0
M  V30 2027 H 198.957 -0.726391 -0.20217 0
M  V30 2028 H 201.608 -1.82339 0.206092 0
M  V30 2029 H 199.99 -3.53338 -1.78796 0
M  V30 2030 H 201.164 -4.52018 0.895358 0
M  V30 2031 H 199.479 -4.11243 0.653324 0
M  V30 2032 H 202.076 -4.96069 -1.99548 0
M  V30 2033 H 202.419 -3.32552 -2.50429 0
M  V30 2034 H 202.952 -3.87554 -0.897019 0
M  V30 2035 H 199.691 -6.53728 0.481679 0
M  V30 2036 H 199.211 -5.89515 -1.10597 0
M  V30 2037 H 200.89 -6.41752 -0.822377 0
M  V30 2038 N 201.022 0.148545 -1.56898 0
M  V30 2039 C 202.271 0.85984 -1.82454 0
M  V30 2040 C 202.584 1.82406 -0.706229 0
M  V30 2041 O 203.79 2.57938 -0.847349 0
M  V30 2042 C 202.246 1.57967 -3.2338 0
M  V30 2043 C 201.854 0.65794 -4.43142 0
M  V30 2044 C 203.598 2.27784 -3.58211 0
M  V30 2045 C 201.505 1.3793 -5.75091 0
M  V30 2046 H 200.435 0.324834 -0.68044 0
M  V30 2047 H 203.086 0.112588 -1.83154 0
M  V30 2048 H 201.468 2.37249 -3.17063 0
M  V30 2049 H 202.642 -0.0995497 -4.60692 0
M  V30 2050 H 200.957 0.0682643 -4.16344 0
M  V30 2051 H 203.554 2.8239 -4.54048 0
M  V30 2052 H 203.897 3.04204 -2.84193 0
M  V30 2053 H 204.43 1.55421 -3.66182 0
M  V30 2054 H 201.169 0.656982 -6.52199 0
M  V30 2055 H 200.689 2.10954 -5.61479 0
M  V30 2056 H 202.368 1.92063 -6.17835 0
M  V30 2057 N 202.5 1.5196 0.417844 0
M  V30 2058 C 203.748 1.65263 1.16329 0
M  V30 2059 C 204.069 0.380634 1.91249 0
M  V30 2060 O 203.339 -0.604214 1.86349 0
M  V30 2061 H 201.919 0.60912 0.432414 0
M  V30 2062 H 204.581 1.88969 0.477162 0
M  V30 2063 H 203.677 2.4896 1.88217 0
M  V30 2064 N 203.978 -0.674533 1.42435 0
M  V30 2065 C 205.203 -1.46784 1.46524 0
M  V30 2066 C 205.628 -1.87938 0.078066 0
M  V30 2067 O 204.986 -1.56014 -0.92354 0
M  V30 2068 C 205.034 -2.69307 2.39805 0
M  V30 2069 O 204.138 -3.67587 1.86959 0
M  V30 2070 H 203.479 -0.440959 0.496439 0
M  V30 2071 H 206.009 -0.827326 1.87127 0
M  V30 2072 H 206.019 -3.17374 2.56393 0
M  V30 2073 H 204.694 -2.38692 3.40586 0
M  V30 2074 H 203.271 -3.2662 1.79927 0
M  V30 2075 N 205.456 -1.28612 -0.910864 0
M  V30 2076 C 206.872 -1.06381 -1.18976 0
M  V30 2077 C 207.072 0.191998 -2.00583 0
M  V30 2078 O 206.128 0.892869 -2.36187 0
M  V30 2079 C 207.441 -2.31295 -1.92154 0
M  V30 2080 C 208.989 -2.36503 -2.05025 0
M  V30 2081 C 209.464 -3.61191 -2.81612 0
M  V30 2082 N 210.955 -3.61847 -2.89172 0
M  V30 2083 C 211.69 -4.55004 -3.4894 0
M  V30 2084 N 211.186 -5.58482 -4.09963 0
M  V30 2085 N 212.979 -4.42594 -3.46506 0
M  V30 2086 H 205.13 -2.09221 -0.366094 0
M  V30 2087 H 207.393 -0.921003 -0.224629 0
M  V30 2088 H 207.099 -3.228 -1.39618 0
M  V30 2089 H 206.973 -2.37934 -2.9269 0
M  V30 2090 H 209.36 -1.45494 -2.5674 0
M  V30 2091 H 209.441 -2.33857 -1.03657 0
M  V30 2092 H 209.085 -4.52545 -2.30576 0
M  V30 2093 H 209.015 -3.61092 -3.83302 0
M  V30 2094 H 211.506 -2.87022 -2.45819 0
M  V30 2095 H 211.819 -6.25704 -4.53557 0
M  V30 2096 H 210.164 -5.62305 -4.08459 0
M  V30 2097 H 213.355 -3.60953 -2.98045 0
M  V30 2098 H 213.528 -5.15381 -3.92793 0
M  V30 2099 N 206.934 1.1197 -1.10907 0
M  V30 2100 C 207.897 2.16031 -0.765707 0
M  V30 2101 C 208.897 1.59393 0.212235 0
M  V30 2102 O 210.087 1.74196 -0.0115441 0
M  V30 2103 C 207.219 3.40632 -0.135053 0
M  V30 2104 H 208.412 2.47919 -1.68748 0
M  V30 2105 H 205.965 1.27061 -0.910226 0
M  V30 2106 H 206.7 3.14348 0.797218 0
M  V30 2107 H 206.485 3.8302 -0.838937 0
M  V30 2108 H 207.975 4.17505 0.0892469 0
M  V30 2109 N 208.412 0.89855 1.29475 0
M  V30 2110 C 209.342 0.39201 2.30186 0
M  V30 2111 C 210.323 -0.532359 1.61555 0
M  V30 2112 O 211.508 -0.443331 1.89072 0
M  V30 2113 C 208.638 -0.382353 3.45189 0
M  V30 2114 C 207.592 0.451483 4.25612 0
M  V30 2115 C 206.918 -0.450307 5.328 0
M  V30 2116 C 208.218 1.70079 4.93832 0
M  V30 2117 H 209.912 1.23362 2.72804 0
M  V30 2118 H 207.458 0.594638 1.31149 0
M  V30 2119 H 209.411 -0.747451 4.14718 0
M  V30 2120 H 208.135 -1.25774 3.01411 0
M  V30 2121 H 206.794 0.798897 3.57789 0
M  V30 2122 H 206.442 -1.32379 4.85268 0
M  V30 2123 H 206.142 0.103902 5.87508 0
M  V30 2124 H 207.666 -0.811623 6.05182 0
M  V30 2125 H 209.08 1.40549 5.55805 0
M  V30 2126 H 207.477 2.19623 5.58467 0
M  V30 2127 H 208.547 2.43744 4.19186 0
M  V30 2128 N 209.89 -1.43072 0.660911 0
M  V30 2129 C 211.136 -2.0202 0.177708 0
M  V30 2130 C 211.469 -1.52066 -1.20787 0
M  V30 2131 O 210.744 -0.716987 -1.80802 0
M  V30 2132 C 211.027 -3.59561 0.197019 0
M  V30 2133 C 210.88 -4.19727 1.61706 0
M  V30 2134 C 212.199 -4.37664 -0.462396 0
M  V30 2135 H 209.318 -0.734034 0.0660494 0
M  V30 2136 H 211.96 -1.70272 0.843058 0
M  V30 2137 H 210.11 -3.86739 -0.369527 0
M  V30 2138 H 211.782 -4.03553 2.23479 0
M  V30 2139 H 210.025 -3.76084 2.16201 0
M  V30 2140 H 210.696 -5.28834 1.58237 0
M  V30 2141 H 213.172 -4.16095 0.0197215 0
M  V30 2142 H 212.048 -5.47305 -0.418188 0
M  V30 2143 H 212.309 -4.14493 -1.53778 0
M  V30 2144 N 211.368 -0.403325 -1.52352 0
M  V30 2145 C 212.596 0.174012 -2.06167 0
M  V30 2146 C 213.011 1.39347 -1.27388 0
M  V30 2147 O 212.368 1.79597 -0.324201 0
M  V30 2148 C 212.419 0.530223 -3.5759 0
M  V30 2149 O 212.14 -0.640806 -4.33388 0
M  V30 2150 C 213.641 1.16192 -4.27802 0
M  V30 2151 H 210.861 0.0229464 -0.670608 0
M  V30 2152 H 213.405 -0.572604 -1.9632 0
M  V30 2153 H 211.56 1.22673 -3.67464 0
M  V30 2154 H 211.974 -0.344851 -5.23365 0
M  V30 2155 H 213.448 1.36141 -5.34948 0
M  V30 2156 H 213.925 2.13335 -3.83907 0
M  V30 2157 H 214.531 0.505775 -4.22282 0
M  V30 2158 N 212.846 1.57033 -0.133567 0
M  V30 2159 C 214.094 1.953 0.519848 0
M  V30 2160 C 214.415 1.01866 1.66278 0
M  V30 2161 O 213.685 0.0776513 1.95746 0
M  V30 2162 H 212.265 0.721091 0.195032 0
M  V30 2163 H 214.927 1.93809 -0.205921 0
M  V30 2164 H 214.023 2.98695 0.904854 0
M  V30 2165 N 214.325 -0.140222 1.56975 0
M  V30 2166 C 215.602 -0.880769 1.74648 0
M  V30 2167 C 215.982 -1.99036 0.703404 0
M  V30 2168 O 215.33 -2.26821 -0.27648 0
M  V30 2169 C 215.54 -1.417 3.18939 0
M  V30 2170 C 216.888 -1.87774 3.80823 0
M  V30 2171 O 217.912 -1.51427 3.2241 0
M  V30 2172 O 216.771 -2.54827 4.83452 0
M  V30 2173 H 213.865 -0.416713 0.714338 0
M  V30 2174 H 216.411 -0.125618 1.69234 0
M  V30 2175 H 215.183 -0.619902 3.86359 0
M  V30 2176 H 214.806 -2.23546 3.28805 0
M  V30 2177 N 215.803 -1.52179 -0.40978 0
M  V30 2178 C 217.049 -1.66453 -1.15851 0
M  V30 2179 C 217.382 -0.392972 -1.90182 0
M  V30 2180 O 216.657 0.608579 -1.84734 0
M  V30 2181 C 216.94 -2.88612 -2.15349 0
M  V30 2182 C 216.793 -4.25815 -1.44918 0
M  V30 2183 C 218.112 -3.06294 -3.16026 0
M  V30 2184 H 215.231 -0.60575 -0.419805 0
M  V30 2185 H 217.873 -1.84732 -0.444314 0
M  V30 2186 H 216.023 -2.73158 -2.76255 0
M  V30 2187 H 217.695 -4.52995 -0.871365 0
M  V30 2188 H 215.938 -4.27247 -0.751159 0
M  V30 2189 H 216.609 -5.07337 -2.17516 0
M  V30 2190 H 219.085 -3.20641 -2.65195 0
M  V30 2191 H 217.961 -3.93283 -3.8291 0
M  V30 2192 H 218.222 -2.19579 -3.83715 0
M  V30 2193 N 217.281 0.66697 -1.42791 0
M  V30 2194 C 218.191 1.80962 -1.49299 0
M  V30 2195 C 219.207 1.69775 -0.381108 0
M  V30 2196 O 220.383 1.91188 -0.633188 0
M  V30 2197 C 217.448 3.17156 -1.40045 0
M  V30 2198 C 216.509 3.40242 -2.6179 0
M  V30 2199 C 215.742 4.69939 -2.52969 0
M  V30 2200 O 215.965 5.48372 -1.56985 0
M  V30 2201 O 214.899 4.94441 -3.43237 0
M  V30 2202 H 218.725 1.78427 -2.45759 0
M  V30 2203 H 216.31 0.823713 -1.24641 0
M  V30 2204 H 218.192 3.98413 -1.37276 0
M  V30 2205 H 216.867 3.20312 -0.467138 0
M  V30 2206 H 215.774 2.58802 -2.70134 0
M  V30 2207 H 217.107 3.41923 -3.54047 0
M  V30 2208 N 218.759 1.29093 0.90403 0
M  V30 2209 C 220.17 1.15186 1.46932 0
M  V30 2210 C 220.521 -0.254587 1.94541 0
M  V30 2211 O 219.646 -1.14972 1.83332 0
M  V30 2212 C 220.241 2.08492 2.67051 0
M  V30 2213 C 218.8 1.98621 3.19729 0
M  V30 2214 C 217.947 1.9967 1.92425 0
M  V30 2215 H 220.898 1.41641 0.715789 0
M  V30 2216 H 220.919 1.65461 3.42641 0
M  V30 2217 H 220.431 3.10847 2.3237 0
M  V30 2218 H 218.532 0.993389 3.59114 0
M  V30 2219 H 218.645 2.86068 3.8432 0
M  V30 2220 H 217.009 1.44208 2.09943 0
M  V30 2221 H 217.792 3.03721 1.60026 0
M  V30 2222 N 220.237 -1.11381 1.11499 0
M  V30 2223 C 221.467 -1.86663 0.885464 0
M  V30 2224 C 221.875 -1.80464 -0.568281 0
M  V30 2225 O 221.218 -1.18445 -1.40415 0
M  V30 2226 C 221.28 -3.36337 1.26956 0
M  V30 2227 C 220.944 -3.66304 2.73259 0
M  V30 2228 C 221.941 -3.63733 3.71476 0
M  V30 2229 C 219.626 -3.9529 3.09921 0
M  V30 2230 C 221.62 -3.89725 5.04374 0
M  V30 2231 C 219.307 -4.20941 4.43004 0
M  V30 2232 C 220.305 -4.18147 5.40039 0
M  V30 2233 O 219.993 -4.43153 6.70724 0
M  V30 2234 H 219.725 -0.597114 0.316908 0
M  V30 2235 H 222.279 -1.41782 1.48617 0
M  V30 2236 H 220.509 -3.81826 0.611999 0
M  V30 2237 H 222.198 -3.92986 1.01573 0
M  V30 2238 H 222.964 -3.41389 3.44498 0
M  V30 2239 H 218.843 -3.966 2.35009 0
M  V30 2240 H 222.387 -3.8746 5.80104 0
M  V30 2241 H 218.284 -4.42761 4.69716 0
M  V30 2242 H 219.052 -4.60717 6.76522 0
M  V30 2243 N 221.715 -0.905404 -1.28997 0
M  V30 2244 C 222.678 -0.392253 -2.25819 0
M  V30 2245 C 223.678 0.476753 -1.5357 0
M  V30 2246 O 224.868 0.280994 -1.71919 0
M  V30 2247 C 222 0.438588 -3.38067 0
M  V30 2248 H 223.193 -1.24743 -2.72725 0
M  V30 2249 H 220.746 -0.684051 -1.40536 0
M  V30 2250 H 221.481 1.31352 -2.96508 0
M  V30 2251 H 221.266 -0.184167 -3.91667 0
M  V30 2252 H 222.756 0.78873 -4.10084 0
M  V30 2253 N 223.193 1.4272 -0.668489 0
M  V30 2254 C 224.442 2.00846 -0.185389 0
M  V30 2255 C 224.755 1.53442 1.21305 0
M  V30 2256 O 225.961 2.03944 1.79218 0
M  V30 2257 C 224.417 3.58805 -0.280591 0
M  V30 2258 C 224.025 4.15198 -1.68268 0
M  V30 2259 C 225.769 4.24255 0.14412 0
M  V30 2260 C 223.676 5.655 -1.73099 0
M  V30 2261 H 222.606 0.751145 -0.0655475 0
M  V30 2262 H 225.257 1.63516 -0.832752 0
M  V30 2263 H 223.639 3.93608 0.434553 0
M  V30 2264 H 224.813 3.91866 -2.42441 0
M  V30 2265 H 223.128 3.62176 -2.05469 0
M  V30 2266 H 225.725 5.34547 0.128086 0
M  V30 2267 H 226.068 3.99277 1.17827 0
M  V30 2268 H 226.601 3.94389 -0.519798 0
M  V30 2269 H 223.34 5.95268 -2.74475 0
M  V30 2270 H 222.86 5.90842 -1.03274 0
M  V30 2271 H 224.539 6.29808 -1.48158 0
M  V30 2272 N 224.671 0.411399 1.52136 0
M  V30 2273 C 225.917 -0.163888 2.02137 0
M  V30 2274 C 226.25 -1.44597 1.29636 0
M  V30 2275 O 225.525 -1.90272 0.403353 0
M  V30 2276 C 225.808 -0.40927 3.57767 0
M  V30 2277 C 225.661 0.889643 4.40914 0
M  V30 2278 C 226.98 -1.19042 4.23694 0
M  V30 2279 H 224.099 -0.0580896 0.734707 0
M  V30 2280 H 226.741 0.54531 1.82007 0
M  V30 2281 H 224.891 -1.0134 3.7505 0
M  V30 2282 H 226.563 1.52575 4.35337 0
M  V30 2283 H 224.806 1.50011 4.07037 0
M  V30 2284 H 225.477 0.672314 5.4789 0
M  V30 2285 H 227.953 -0.678942 4.10524 0
M  V30 2286 H 226.829 -1.33086 5.32522 0
M  V30 2287 H 227.09 -2.21166 3.82803 0
M  V30 2288 N 226.149 -1.5696 0.141893 0
M  V30 2289 C 227.397 -1.95573 -0.509484 0
M  V30 2290 C 227.718 -1.02746 -1.65736 0
M  V30 2291 O 226.988 -0.0880311 -1.95702 0
M  V30 2292 H 225.568 -0.722115 -0.191205 0
M  V30 2293 H 228.23 -1.93697 0.216196 0
M  V30 2294 H 227.326 -2.99171 -0.889 0
M  V30 2295 N 227.627 0.131896 -1.57047 0
M  V30 2296 C 228.875 0.840269 -1.83804 0
M  V30 2297 C 229.196 1.81017 -0.72512 0
M  V30 2298 O 228.466 1.94272 0.251995 0
M  V30 2299 H 227.046 0.313294 -0.678127 0
M  V30 2300 H 229.708 0.122294 -1.94516 0
M  V30 2301 H 228.804 1.39335 -2.79271 0
M  V30 2302 N 229.106 1.52395 0.401703 0
M  V30 2303 C 230.054 1.7689 1.51039 0
M  V30 2304 C 231.048 0.636298 1.56996 0
M  V30 2305 O 232.254 0.818507 1.60314 0
M  V30 2306 H 228.629 0.559502 0.502456 0
M  V30 2307 H 230.6 2.69757 1.27568 0
M  V30 2308 C 229.349 1.94331 2.88324 0
M  V30 2309 H 228.672 2.80905 2.84486 0
M  V30 2310 H 230.112 2.15466 3.65172 0
M  V30 2311 C 228.571 0.712396 3.29282 0
M  V30 2312 O 229.101 -0.116218 4.01532 0
M  V30 2313 N 227.307 0.546154 2.85422 0
M  V30 2314 H 226.854 1.22156 2.26794 0
M  V30 2315 H 226.812 -0.276113 3.13185 0
M  V30 2316 N 230.584 -0.659388 1.43143 0
M  V30 2317 C 231.995 -1.24041 1.39537 0
M  V30 2318 C 232.346 -1.95963 0.0963364 0
M  V30 2319 O 231.471 -2.00892 -0.804438 0
M  V30 2320 C 232.066 -2.25601 2.52764 0
M  V30 2321 C 230.625 -2.79195 2.52443 0
M  V30 2322 C 229.772 -1.53743 2.30778 0
M  V30 2323 H 232.723 -0.451792 1.52133 0
M  V30 2324 H 232.744 -3.07651 2.23899 0
M  V30 2325 H 232.256 -1.73226 3.47296 0
M  V30 2326 H 230.357 -3.35649 1.61773 0
M  V30 2327 H 230.47 -3.2716 3.50004 0
M  V30 2328 H 228.834 -1.80869 1.79328 0
M  V30 2329 H 229.617 -1.03312 3.27386 0
M  V30 2330 N 232.062 -1.29571 -0.897171 0
M  V30 2331 C 233.025 -1.14913 -1.98312 0
M  V30 2332 C 234.025 -0.0838629 -1.60581 0
M  V30 2333 O 235.215 -0.331006 -1.71026 0
M  V30 2334 C 232.347 -0.757835 -3.3237 0
M  V30 2335 H 233.54 -2.11377 -2.12743 0
M  V30 2336 H 231.093 -1.12793 -1.08201 0
M  V30 2337 H 231.828 0.206837 -3.2364 0
M  V30 2338 H 231.613 -1.52755 -3.61121 0
M  V30 2339 H 233.103 -0.678408 -4.12053 0
M  V30 2340 N 233.54 1.10788 -1.12088 0
M  V30 2341 C 234.956 1.34691 -0.856186 0
M  V30 2342 C 235.156 1.94791 0.515615 0
M  V30 2343 O 234.212 2.18524 1.26505 0
M  V30 2344 C 235.525 2.27208 -1.9697 0
M  V30 2345 C 237.073 2.40755 -2.00016 0
M  V30 2346 C 237.548 3.36598 -3.1059 0
M  V30 2347 N 239.039 3.44164 -3.10008 0
M  V30 2348 C 239.774 4.18284 -3.92206 0
M  V30 2349 N 239.27 4.95322 -4.84384 0
M  V30 2350 N 241.063 4.13865 -3.80357 0
M  V30 2351 H 233.214 0.70144 -2.00483 0
M  V30 2352 H 235.477 0.371405 -0.872217 0
M  V30 2353 H 235.183 1.90251 -2.958 0
M  V30 2354 H 235.057 3.27485 -1.87172 0
M  V30 2355 H 237.444 2.76982 -1.01808 0
M  V30 2356 H 237.525 1.40305 -2.13888 0
M  V30 2357 H 237.169 3.01096 -4.09028 0
M  V30 2358 H 237.099 4.36918 -2.93956 0
M  V30 2359 H 239.59 2.8922 -2.43228 0
M  V30 2360 H 239.903 5.49267 -5.43623 0
M  V30 2361 H 238.248 4.94459 -4.884 0
M  V30 2362 H 241.439 3.52773 -3.07683 0
M  V30 2363 H 241.612 4.71372 -4.44649 0
M  V30 2364 N 235.018 0.912232 1.28515 0
M  V30 2365 C 236.246 0.560416 1.99166 0
M  V30 2366 C 236.661 -0.857927 1.68182 0
M  V30 2367 O 236.018 -1.56805 0.933733 0
M  V30 2368 C 236.069 0.758142 3.53461 0
M  V30 2369 O 235.79 2.12067 3.83352 0
M  V30 2370 C 237.291 0.412954 4.41372 0
M  V30 2371 H 234.511 0.213805 0.636026 0
M  V30 2372 H 237.055 1.22502 1.63749 0
M  V30 2373 H 235.21 0.140556 3.87145 0
M  V30 2374 H 235.624 2.15923 4.77993 0
M  V30 2375 H 237.098 0.60208 5.48707 0
M  V30 2376 H 237.575 -0.65073 4.34353 0
M  V30 2377 H 238.181 1.00802 4.13182 0
M  V30 2378 N 236.496 -1.42363 0.676048 0
M  V30 2379 C 237.745 -2.00745 0.196037 0
M  V30 2380 C 238.058 -1.54083 -1.20489 0
M  V30 2381 O 239.264 -2.04891 -1.78134 0
M  V30 2382 C 237.72 -3.58651 0.299616 0
M  V30 2383 C 237.328 -4.143 1.70468 0
M  V30 2384 C 239.072 -4.24326 -0.121619 0
M  V30 2385 C 236.979 -5.64574 1.76096 0
M  V30 2386 H 235.909 -0.750787 0.0695301 0
M  V30 2387 H 238.56 -1.63072 0.841412 0
M  V30 2388 H 236.942 -3.93833 -0.413673 0
M  V30 2389 H 238.116 -3.90575 2.44515 0
M  V30 2390 H 236.431 -3.61081 2.07387 0
M  V30 2391 H 239.028 -5.34607 -0.0997362 0
M  V30 2392 H 239.371 -3.99897 -1.15708 0
M  V30 2393 H 239.904 -3.94108 0.540706 0
M  V30 2394 H 236.643 -5.93804 2.77628 0
M  V30 2395 H 236.163 -5.90286 1.06406 0
M  V30 2396 H 237.842 -6.29013 1.51496 0
M  V30 2397 N 237.974 -0.419461 -1.51915 0
M  V30 2398 C 239.39 -0.0708431 -1.59443 0
M  V30 2399 C 239.59 1.41796 -1.43164 0
M  V30 2400 O 238.646 2.18596 -1.26381 0
M  V30 2401 C 239.959 -0.574991 -2.95151 0
M  V30 2402 C 241.507 -0.533867 -3.08413 0
M  V30 2403 C 241.982 -1.01469 -4.46618 0
M  V30 2404 N 243.473 -0.971939 -4.52888 0
M  V30 2405 C 244.208 -1.31505 -5.58116 0
M  V30 2406 N 243.704 -1.73014 -6.70849 0
M  V30 2407 N 245.497 -1.23436 -5.48379 0
M  V30 2408 H 237.648 -1.38836 -1.60743 0
M  V30 2409 H 239.911 -0.570998 -0.756747 0
M  V30 2410 H 239.617 -1.61597 -3.12377 0
M  V30 2411 H 239.491 0.00979777 -3.77199 0
M  V30 2412 H 241.878 0.498086 -2.90866 0
M  V30 2413 H 241.959 -1.15484 -2.28248 0
M  V30 2414 H 241.603 -2.04502 -4.6491 0
M  V30 2415 H 241.533 -0.370433 -5.25295 0
M  V30 2416 H 244.024 -0.666893 -3.71969 0
M  V30 2417 H 244.337 -1.97479 -7.47143 0
M  V30 2418 H 242.682 -1.76926 -6.72103 0
M  V30 2419 H 245.873 -0.908869 -4.59192 0
M  V30 2420 H 246.046 -1.50506 -6.30279 0
M  V30 2421 N 239.452 1.56882 -0.150215 0
M  V30 2422 C 240.399 2.16922 0.788244 0
M  V30 2423 C 241.369 1.10303 1.24187 0
M  V30 2424 O 242.554 1.38359 1.31383 0
M  V30 2425 C 239.694 2.79754 2.02068 0
M  V30 2426 C 238.807 4.00775 1.61257 0
M  V30 2427 C 237.942 4.51595 2.79705 0
M  V30 2428 C 236.981 5.65074 2.35282 0
M  V30 2429 N 236.118 6.10499 3.4675 0
M  V30 2430 H 240.958 2.96779 0.269444 0
M  V30 2431 H 238.495 1.46599 0.12128 0
M  V30 2432 H 240.453 3.14329 2.74323 0
M  V30 2433 H 239.083 2.02536 2.51354 0
M  V30 2434 H 238.135 3.72158 0.787553 0
M  V30 2435 H 239.447 4.82978 1.24633 0
M  V30 2436 H 238.601 4.88242 3.60145 0
M  V30 2437 H 237.34 3.68406 3.19576 0
M  V30 2438 H 236.345 5.28 1.53283 0
M  V30 2439 H 237.57 6.50052 1.96493 0
M  V30 2440 H 235.516 5.30243 3.86236 0
M  V30 2441 H 235.433 6.87637 3.14152 0
M  V30 2442 H 236.701 6.51791 4.27537 0
M  V30 2443 N 240.93 -0.123565 1.57115 0
M  V30 2444 C 242.346 -0.476961 1.52306 0
M  V30 2445 C 242.546 -1.82109 0.86248 0
M  V30 2446 O 241.602 -2.48586 0.442884 0
M  V30 2447 C 242.915 -0.465661 2.97073 0
M  V30 2448 C 244.463 -0.549534 3.08138 0
M  V30 2449 C 244.938 -0.568669 4.54456 0
M  V30 2450 N 246.429 -0.630237 4.58892 0
M  V30 2451 C 247.164 -0.666415 5.69514 0
M  V30 2452 N 246.66 -0.660514 6.89644 0
M  V30 2453 N 248.453 -0.709077 5.5761 0
M  V30 2454 H 240.604 0.757198 1.98445 0
M  V30 2455 H 242.867 0.278808 0.906074 0
M  V30 2456 H 242.573 0.454232 3.48754 0
M  V30 2457 H 242.447 -1.29513 3.54269 0
M  V30 2458 H 244.834 -1.45985 2.56461 0
M  V30 2459 H 244.915 0.307532 2.53945 0
M  V30 2460 H 244.559 0.337581 5.06777 0
M  V30 2461 H 244.489 -1.44256 5.06456 0
M  V30 2462 H 246.98 -0.641146 3.72421 0
M  V30 2463 H 247.293 -0.690616 7.69708 0
M  V30 2464 H 245.638 -0.628012 6.92157 0
M  V30 2465 H 248.829 -0.711019 4.62668 0
M  V30 2466 H 249.002 -0.733804 6.43832 0
M  V30 2467 N 242.408 -1.52605 -0.393616 0
M  V30 2468 C 243.655 -1.67424 -1.1391 0
M  V30 2469 C 243.983 -0.411859 -1.90089 0
M  V30 2470 O 243.238 0.605626 -1.86093 0
M  V30 2471 C 243.537 -2.85721 -2.14705 0
M  V30 2472 C 243.203 -4.23342 -1.55218 0
M  V30 2473 C 241.865 -4.60771 -1.3872 0
M  V30 2474 C 244.217 -5.09041 -1.11924 0
M  V30 2475 C 241.545 -5.81563 -0.774689 0
M  V30 2476 C 243.897 -6.30452 -0.520853 0
M  V30 2477 C 242.561 -6.66617 -0.343134 0
M  V30 2478 H 241.831 -0.612648 -0.416826 0
M  V30 2479 H 244.478 -1.8674 -0.424315 0
M  V30 2480 H 242.783 -2.60803 -2.92385 0
M  V30 2481 H 244.48 -2.94382 -2.72288 0
M  V30 2482 H 241.07 -3.93855 -1.69045 0
M  V30 2483 H 245.254 -4.80695 -1.23473 0
M  V30 2484 H 240.51 -6.08196 -0.625154 0
M  V30 2485 H 244.684 -6.96175 -0.177065 0
M  V30 2486 H 242.311 -7.60083 0.133571 0
M  V30 2487 N 243.887 0.651787 -1.4349 0
M  V30 2488 C 245.112 1.44434 -1.48841 0
M  V30 2489 C 245.537 1.8779 -0.107955 0
M  V30 2490 O 244.895 1.57464 0.898602 0
M  V30 2491 C 244.943 2.65458 -2.44059 0
M  V30 2492 O 244.047 3.64566 -1.92784 0
M  V30 2493 H 243.388 0.433005 -0.503391 0
M  V30 2494 H 245.918 0.797451 -1.88419 0
M  V30 2495 H 245.928 3.13255 -2.6141 0
M  V30 2496 H 244.603 2.33244 -3.4434 0
M  V30 2497 H 243.18 3.23716 -1.851 0
M  V30 2498 N 245.365 1.30045 0.890287 0
M  V30 2499 C 246.642 1.09227 1.62262 0
M  V30 2500 C 247.022 -0.360305 2.08002 0
M  V30 2501 O 246.37 -1.35084 1.84295 0
M  V30 2502 C 246.58 2.08835 2.79623 0
M  V30 2503 C 247.928 2.40266 3.50082 0
M  V30 2504 O 248.952 2.07104 2.89804 0
M  V30 2505 O 247.811 2.96967 4.58773 0
M  V30 2506 H 244.905 0.419132 0.712922 0
M  V30 2507 H 247.451 1.41451 0.937529 0
M  V30 2508 H 246.223 3.06633 2.43089 0
M  V30 2509 H 245.846 1.77397 3.55832 0
M  V30 2510 N 246.843 -1.10192 1.12674 0
M  V30 2511 C 248.091 -1.81845 0.881861 0
M  V30 2512 C 248.412 -1.85737 -0.593867 0
M  V30 2513 O 247.682 -1.33724 -1.4316 0
M  V30 2514 H 246.262 -0.673432 0.323261 0
M  V30 2515 H 248.924 -1.33316 1.42172 0
M  V30 2516 H 248.02 -2.85288 1.2656 0
M  V30 2517 N 248.321 -0.919034 -1.28029 0
M  V30 2518 C 249.598 -0.473668 -1.89778 0
M  V30 2519 C 249.978 1.04783 -1.83259 0
M  V30 2520 O 249.326 1.8982 -1.27202 0
M  V30 2521 C 249.536 -1.00998 -3.34066 0
M  V30 2522 C 250.884 -1.06525 -4.1102 0
M  V30 2523 O 251.908 -0.958996 -3.43048 0
M  V30 2524 O 250.767 -1.22776 -5.3253 0
M  V30 2525 H 247.861 -0.15098 -0.813101 0
M  V30 2526 H 250.407 -1.01016 -1.36359 0
M  V30 2527 H 249.179 -2.05392 -3.33061 0
M  V30 2528 H 248.802 -0.454626 -3.94992 0
M  V30 2529 N 249.799 1.42003 -0.683588 0
M  V30 2530 C 251.048 2.00638 -0.206681 0
M  V30 2531 C 251.361 1.5472 1.19671 0
M  V30 2532 O 252.567 2.05833 1.77045 0
M  V30 2533 C 251.023 3.58487 -0.318632 0
M  V30 2534 C 250.631 4.1339 -1.72663 0
M  V30 2535 C 252.375 4.24384 0.0991141 0
M  V30 2536 C 250.282 5.63633 -1.79087 0
M  V30 2537 H 249.212 0.750408 -0.0735107 0
M  V30 2538 H 251.863 1.62624 -0.850048 0
M  V30 2539 H 250.245 3.94047 0.392781 0
M  V30 2540 H 251.419 3.89273 -2.46583 0
M  V30 2541 H 249.734 3.59976 -2.09299 0
M  V30 2542 H 252.331 5.34652 0.0713833 0
M  V30 2543 H 252.674 4.00505 1.13586 0
M  V30 2544 H 253.207 3.93816 -0.561599 0
M  V30 2545 H 249.946 5.92323 -2.80774 0
M  V30 2546 H 249.466 5.89714 -1.09535 0
M  V30 2547 H 251.145 6.28201 -1.5483 0
M  V30 2548 N 251.277 0.427512 1.51691 0
M  V30 2549 C 252.209 -0.424521 2.25234 0
M  V30 2550 C 253.222 -0.994671 1.2888 0
M  V30 2551 O 254.411 -0.890483 1.54702 0
M  V30 2552 C 251.511 -1.60479 2.98496 0
M  V30 2553 C 250.684 -1.15527 4.21868 0
M  V30 2554 C 249.743 -2.20454 4.77793 0
M  V30 2555 O 248.769 -1.8029 5.39893 0
M  V30 2556 N 249.971 -3.52831 4.60967 0
M  V30 2557 H 252.736 0.205749 2.98993 0
M  V30 2558 H 250.297 0.255867 1.59865 0
M  V30 2559 H 252.289 -2.30276 3.32799 0
M  V30 2560 H 250.859 -2.14061 2.27809 0
M  V30 2561 H 250.079 -0.284736 3.9317 0
M  V30 2562 H 251.367 -0.832173 5.01949 0
M  V30 2563 H 250.765 -3.88201 4.11481 0
M  V30 2564 H 249.322 -4.18551 4.99658 0
M  V30 2565 N 252.755 -1.56801 0.158532 0
M  V30 2566 C 253.703 -2.18638 -0.793729 0
M  V30 2567 C 254.697 -1.14669 -1.24689 0
M  V30 2568 O 255.903 -1.32895 -1.21403 0
M  V30 2569 H 252.278 -0.700226 -0.274204 0
M  V30 2570 H 254.249 -2.97367 -0.248095 0
M  V30 2571 C 252.998 -2.83139 -2.0181 0
M  V30 2572 H 252.321 -3.62863 -1.67841 0
M  V30 2573 H 253.761 -3.29894 -2.66357 0
M  V30 2574 C 252.22 -1.82244 -2.83353 0
M  V30 2575 O 252.75 -1.3 -3.80083 0
M  V30 2576 N 250.956 -1.51288 -2.48114 0
M  V30 2577 H 250.503 -1.93964 -1.69516 0
M  V30 2578 H 250.461 -0.840296 -3.02963 0
M  V30 2579 N 254.233 0.115231 -1.57178 0
M  V30 2580 C 255.163 1.1423 -2.03651 0
M  V30 2581 C 256.144 1.42967 -0.921655 0
M  V30 2582 O 257.329 1.53343 -1.19162 0
M  V30 2583 C 254.459 2.4675 -2.44401 0
M  V30 2584 C 253.413 2.32467 -3.59365 0
M  V30 2585 C 252.739 3.69984 -3.86026 0
M  V30 2586 C 254.039 1.78203 -4.90959 0
M  V30 2587 H 255.733 0.755749 -2.89705 0
M  V30 2588 H 253.279 0.362093 -1.39373 0
M  V30 2589 H 255.232 3.18854 -2.75517 0
M  V30 2590 H 253.956 2.87302 -1.55322 0
M  V30 2591 H 252.615 1.62811 -3.28463 0
M  V30 2592 H 252.263 4.08028 -2.94147 0
M  V30 2593 H 251.963 3.61279 -4.63412 0
M  V30 2594 H 253.487 4.43587 -4.19599 0
M  V30 2595 H 254.901 2.40128 -5.20587 0
M  V30 2596 H 253.298 1.8031 -5.72371 0
M  V30 2597 H 254.368 0.739876 -4.79222 0
M  V30 2598 N 255.711 1.52812 0.385517 0
M  V30 2599 C 256.641 1.80808 1.47752 0
M  V30 2600 C 257.622 0.660318 1.5676 0
M  V30 2601 O 258.807 0.908246 1.71652 0
M  V30 2602 C 255.937 1.98008 2.85324 0
M  V30 2603 C 254.891 3.13709 2.91154 0
M  V30 2604 C 254.217 3.16169 4.31209 0
M  V30 2605 C 255.517 4.52709 2.60483 0
M  V30 2606 H 257.211 2.72253 1.24573 0
M  V30 2607 H 254.757 1.31003 0.597839 0
M  V30 2608 H 256.71 2.16176 3.61726 0
M  V30 2609 H 255.434 1.03255 3.09848 0
M  V30 2610 H 254.093 2.95329 2.17201 0
M  V30 2611 H 253.741 2.19092 4.52778 0
M  V30 2612 H 253.441 3.93894 4.36029 0
M  V30 2613 H 254.965 3.36496 5.09512 0
M  V30 2614 H 256.379 4.71173 3.26602 0
M  V30 2615 H 254.776 5.32528 2.76648 0
M  V30 2616 H 255.846 4.59186 1.55809 0
M  V30 2617 N 257.189 -0.644168 1.43834 0
M  V30 2618 C 258.099 -1.78563 1.52159 0
M  V30 2619 C 259.115 -1.69147 0.408069 0
M  V30 2620 O 260.291 -1.90156 0.663524 0
M  V30 2621 C 257.356 -3.14888 1.45073 0
M  V30 2622 C 256.417 -3.36034 2.6717 0
M  V30 2623 C 255.65 -4.65855 2.60413 0
M  V30 2624 O 255.873 -5.45805 1.65689 0
M  V30 2625 O 254.807 -4.88918 3.5106 0
M  V30 2626 H 258.633 -1.74494 2.48567 0
M  V30 2627 H 256.218 -0.80378 1.25935 0
M  V30 2628 H 258.1 -3.96179 1.43597 0
M  V30 2629 H 256.775 -3.19528 0.518037 0
M  V30 2630 H 255.682 -2.54472 2.74217 0
M  V30 2631 H 257.015 -3.36247 3.59442 0
M  V30 2632 N 258.668 -1.30515 -0.883378 0
M  V30 2633 C 259.601 -1.11359 -1.99184 0
M  V30 2634 C 260.579 -0.0207858 -1.62587 0
M  V30 2635 O 261.763 -0.174646 -1.87689 0
M  V30 2636 C 258.89 -0.69871 -3.31415 0
M  V30 2637 C 257.936 -1.79261 -3.86998 0
M  V30 2638 S 258.769 -3.39536 -4.14096 0
M  V30 2639 C 259.925 -2.99954 -5.49344 0
M  V30 2640 H 260.158 -2.052 -2.15128 0
M  V30 2641 H 257.691 -1.14847 -1.03196 0
M  V30 2642 H 259.649 -0.466075 -4.07846 0
M  V30 2643 H 258.31 0.220368 -3.13326 0
M  V30 2644 H 257.503 -1.45464 -4.82552 0
M  V30 2645 H 257.105 -1.97961 -3.17313 0
M  V30 2646 H 259.397 -2.48013 -6.30473 0
M  V30 2647 H 260.34 -3.9442 -5.8808 0
M  V30 2648 H 260.748 -2.37775 -5.1198 0
M  V30 2649 N 260.146 1.09593 -1.13257 0
M  V30 2650 C 261.109 2.14359 -0.811358 0
M  V30 2651 C 262.109 1.59808 0.178377 0
M  V30 2652 O 263.299 1.74132 -0.0484911 0
M  V30 2653 C 260.431 3.40269 -0.207276 0
M  V30 2654 H 261.624 2.44284 -1.73969 0
M  V30 2655 H 259.177 1.25102 -0.936973 0
M  V30 2656 H 259.912 3.15969 0.73036 0
M  V30 2657 H 259.697 3.81154 -0.919992 0
M  V30 2658 H 261.187 4.176 0.000667944 0
M  V30 2659 N 261.624 0.925811 1.2754 0
M  V30 2660 C 262.87 0.575575 1.95086 0
M  V30 2661 C 263.225 -0.873246 1.71441 0
M  V30 2662 O 262.518 -1.61443 1.03183 0
M  V30 2663 C 262.712 0.835296 3.47502 0
M  V30 2664 C 262.541 2.30781 3.85967 0
M  V30 2665 C 261.311 2.96017 4.09514 0
M  V30 2666 C 263.509 3.28519 3.95702 0
M  V30 2667 N 261.491 4.3344 4.34744 0
M  V30 2668 C 262.862 4.51146 4.25285 0
M  V30 2669 C 264.917 3.23753 3.7827 0
M  V30 2670 C 263.62 5.69606 4.39251 0
M  V30 2671 C 265.646 4.41523 3.9346 0
M  V30 2672 C 265.008 5.62928 4.23428 0
M  V30 2673 H 261.107 0.260711 0.737261 0
M  V30 2674 H 263.691 1.19204 1.53943 0
M  V30 2675 H 261.862 0.248005 3.87607 0
M  V30 2676 H 263.594 0.447878 4.02214 0
M  V30 2677 H 260.349 2.46695 4.04275 0
M  V30 2678 H 260.773 5.04528 4.5142 0
M  V30 2679 H 265.415 2.3096 3.54143 0
M  V30 2680 H 263.133 6.62866 4.62205 0
M  V30 2681 H 266.719 4.39351 3.81394 0
M  V30 2682 H 265.599 6.52538 4.34929 0
M  V30 2683 N 263.102 -1.41638 0.69111 0
M  V30 2684 C 264.348 -2.02104 0.229258 0
M  V30 2685 C 264.703 -1.53741 -1.15678 0
M  V30 2686 O 263.996 -0.736849 -1.76865 0
M  V30 2687 C 264.19 -3.56714 0.221277 0
M  V30 2688 C 264.019 -4.20083 1.605 0
M  V30 2689 C 262.789 -4.54566 2.20676 0
M  V30 2690 C 264.987 -4.46587 2.55078 0
M  V30 2691 N 262.969 -5.03199 3.5166 0
M  V30 2692 C 264.34 -4.96946 3.70735 0
M  V30 2693 C 266.395 -4.28593 2.53401 0
M  V30 2694 C 265.098 -5.31203 4.8499 0
M  V30 2695 C 267.124 -4.63936 3.66765 0
M  V30 2696 C 266.486 -5.14463 4.81152 0
M  V30 2697 H 262.585 -0.771256 0.12918 0
M  V30 2698 H 265.169 -1.72251 0.907626 0
M  V30 2699 H 263.34 -3.86051 -0.426562 0
M  V30 2700 H 265.072 -4.03896 -0.254983 0
M  V30 2701 H 261.827 -4.4087 1.73005 0
M  V30 2702 H 262.251 -5.31926 4.18789 0
M  V30 2703 H 266.893 -3.88771 1.66184 0
M  V30 2704 H 264.611 -5.69951 5.72871 0
M  V30 2705 H 268.197 -4.51677 3.66714 0
M  V30 2706 H 267.077 -5.41299 5.67419 0
M  V30 2707 N 264.58 -0.43555 -1.51462 0
M  V30 2708 C 265.857 0.191364 -1.94662 0
M  V30 2709 C 266.237 1.60254 -1.37411 0
M  V30 2710 O 265.585 2.2152 -0.560458 0
M  V30 2711 C 265.795 0.17091 -3.48581 0
M  V30 2712 C 267.143 0.377357 -4.2292 0
M  V30 2713 O 268.167 0.249104 -3.55328 0
M  V30 2714 O 267.026 0.63247 -5.42828 0
M  V30 2715 H 264.12 0.130932 -0.816569 0
M  V30 2716 H 266.666 -0.4934 -1.62369 0
M  V30 2717 H 265.438 -0.815738 -3.82703 0
M  V30 2718 H 265.061 0.898659 -3.87311 0
M  V30 2719 N 266.058 1.56714 -0.166846 0
M  V30 2720 C 267.304 1.97813 0.473473 0
M  V30 2721 C 267.659 1.05095 1.61161 0
M  V30 2722 O 266.952 0.0897541 1.9139 0
M  V30 2723 C 267.146 3.42889 1.00806 0
M  V30 2724 C 266.975 4.49635 -0.0767392 0
M  V30 2725 C 265.745 5.02566 -0.524894 0
M  V30 2726 C 267.943 5.06793 -0.875504 0
M  V30 2727 N 265.925 5.9294 -1.59047 0
M  V30 2728 C 267.296 5.93565 -1.79111 0
M  V30 2729 C 269.351 4.89306 -0.921083 0
M  V30 2730 C 268.054 6.64721 -2.74843 0
M  V30 2731 C 270.08 5.61179 -1.86633 0
M  V30 2732 C 269.442 6.47675 -2.76942 0
M  V30 2733 H 265.541 0.769093 0.141489 0
M  V30 2734 H 268.125 1.92874 -0.266031 0
M  V30 2735 H 266.296 3.48382 1.7171 0
M  V30 2736 H 268.028 3.71008 1.61664 0
M  V30 2737 H 264.783 4.73439 -0.123432 0
M  V30 2738 H 265.207 6.42831 -2.12361 0
M  V30 2739 H 269.849 4.22136 -0.23692 0
M  V30 2740 H 267.567 7.31107 -3.44249 0
M  V30 2741 H 271.153 5.49636 -1.90764 0
M  V30 2742 H 270.033 7.02313 -3.48893 0
M  V30 2743 N 267.536 -0.106894 1.57237 0
M  V30 2744 C 268.947 -0.662723 1.74542 0
M  V30 2745 C 269.298 -1.7971 0.787319 0
M  V30 2746 O 268.423 -2.16368 -0.0369636 0
M  V30 2747 C 269.018 -1.20896 3.16496 0
M  V30 2748 C 267.577 -1.71096 3.35266 0
M  V30 2749 C 266.724 -0.615642 2.7038 0
M  V30 2750 H 269.675 0.119106 1.58252 0
M  V30 2751 H 269.696 -2.07847 3.18716 0
M  V30 2752 H 269.208 -0.383122 3.86204 0
M  V30 2753 H 267.309 -2.56119 2.70618 0
M  V30 2754 H 267.422 -1.81208 4.43509 0
M  V30 2755 H 265.786 -1.05222 2.31949 0
M  V30 2756 H 266.569 0.199419 3.4272 0
M  V30 2757 N 269.014 -1.53014 -0.377408 0
M  V30 2758 C 269.944 -1.81589 -1.46791 0
M  V30 2759 C 270.925 -0.668622 -1.56408 0
M  V30 2760 O 272.11 -0.917337 -1.71168 0
M  V30 2761 C 269.24 -1.99519 -2.8427 0
M  V30 2762 C 268.194 -3.15249 -2.89486 0
M  V30 2763 C 267.52 -3.18451 -4.29527 0
M  V30 2764 C 268.82 -4.54084 -2.58079 0
M  V30 2765 H 270.514 -2.7291 -1.23127 0
M  V30 2766 H 268.06 -1.31319 -0.590883 0
M  V30 2767 H 270.013 -2.18092 -3.60575 0
M  V30 2768 H 268.737 -1.04897 -3.09296 0
M  V30 2769 H 267.396 -2.96477 -2.15631 0
M  V30 2770 H 267.044 -2.2149 -4.5161 0
M  V30 2771 H 266.744 -3.962 -4.33934 0
M  V30 2772 H 268.268 -3.39193 -5.07721 0
M  V30 2773 H 269.682 -4.72899 -3.24098 0
M  V30 2774 H 268.079 -5.33987 -2.7382 0
M  V30 2775 H 269.149 -4.60006 -1.53372 0
M  V30 2776 N 270.492 0.636531 -1.44174 0
M  V30 2777 C 271.455 1.73063 -1.50273 0
M  V30 2778 C 272.455 1.56113 -0.385397 0
M  V30 2779 O 273.645 1.61707 -0.64781 0
M  V30 2780 C 270.777 3.12096 -1.37145 0
M  V30 2781 H 271.97 1.69031 -2.47727 0
M  V30 2782 H 269.523 0.849706 -1.31186 0
M  V30 2783 H 270.258 3.21728 -0.407636 0
M  V30 2784 H 270.043 3.25805 -2.18159 0
M  V30 2785 H 271.533 3.91846 -1.44382 0
M  V30 2786 N 271.97 1.30982 0.876444 0
M  V30 2787 C 273.247 1.10942 1.61094 0
M  V30 2788 C 273.627 -0.338223 2.08373 0
M  V30 2789 O 272.975 -1.33122 1.85717 0
M  V30 2790 C 273.185 2.11789 2.77392 0
M  V30 2791 C 274.533 2.43965 3.47514 0
M  V30 2792 O 275.557 2.10166 2.87591 0
M  V30 2793 O 274.416 3.01817 4.55597 0
M  V30 2794 H 271.51 0.42667 0.708436 0
M  V30 2795 H 274.056 1.42438 0.922474 0
M  V30 2796 H 272.828 3.09194 2.39823 0
M  V30 2797 H 272.451 1.81161 3.5393 0
M  V30 2798 N 273.449 -1.08991 1.13837 0
M  V30 2799 C 274.698 -1.80631 0.897509 0
M  V30 2800 C 275.011 -1.86872 -0.57777 0
M  V30 2801 O 276.217 -2.54866 -0.935701 0
M  V30 2802 C 274.673 -3.24517 1.55618 0
M  V30 2803 C 274.281 -3.26529 3.0673 0
M  V30 2804 C 276.025 -4.00882 1.3962 0
M  V30 2805 C 273.932 -4.64965 3.65461 0
M  V30 2806 H 272.862 -0.67691 0.332129 0
M  V30 2807 H 275.513 -1.2246 1.3666 0
M  V30 2808 H 273.895 -3.82778 1.01476 0
M  V30 2809 H 275.069 -2.78008 3.67489 0
M  V30 2810 H 273.384 -2.63656 3.22296 0
M  V30 2811 H 275.981 -5.03167 1.80906 0
M  V30 2812 H 276.324 -4.14896 0.341578 0
M  V30 2813 H 276.857 -3.49075 1.90766 0
M  V30 2814 H 273.596 -4.56153 4.70749 0
M  V30 2815 H 273.116 -5.13792 3.09481 0
M  V30 2816 H 274.795 -5.3394 3.654 0
M  V30 2817 N 274.927 -0.932562 -1.27047 0
M  V30 2818 C 275.837 -0.441219 -2.30414 0
M  V30 2819 C 276.853 0.480525 -1.67233 0
M  V30 2820 O 278.029 0.362151 -1.98117 0
M  V30 2821 C 275.094 0.293651 -3.45454 0
M  V30 2822 C 274.155 -0.663601 -4.2414 0
M  V30 2823 C 273.388 0.0362932 -5.33688 0
M  V30 2824 O 273.611 1.2548 -5.56427 0
M  V30 2825 O 272.545 -0.638015 -5.98509 0
M  V30 2826 H 276.371 -1.29962 -2.74488 0
M  V30 2827 H 273.956 -0.6981 -1.32087 0
M  V30 2828 H 275.838 0.707951 -4.15411 0
M  V30 2829 H 274.513 1.12758 -3.03426 0
M  V30 2830 H 273.42 -1.12768 -3.56699 0
M  V30 2831 H 274.753 -1.46489 -4.69896 0
M  V30 2832 N 276.405 1.4127 -0.698611 0
M  V30 2833 C 277.368 2.29158 -0.044132 0
M  V30 2834 C 278.368 1.44529 0.704841 0
M  V30 2835 O 279.558 1.65643 0.539276 0
M  V30 2836 C 276.69 3.27459 0.947809 0
M  V30 2837 H 277.883 2.88529 -0.817994 0
M  V30 2838 H 275.436 1.49307 -0.46228 0
M  V30 2839 H 276.171 2.73073 1.74933 0
M  V30 2840 H 275.956 3.8991 0.41385 0
M  V30 2841 H 277.446 3.93311 1.40344 0
M  V30 2842 N 277.883 0.443576 1.51229 0
M  V30 2843 C 278.846 -0.353132 2.26463 0
M  V30 2844 C 279.846 -0.944338 1.3015 0
M  V30 2845 O 281.036 -0.817813 1.5381 0
M  V30 2846 C 278.168 -1.50023 3.06114 0
M  V30 2847 H 279.361 0.3063 2.98332 0
M  V30 2848 H 276.914 0.196902 1.55055 0
M  V30 2849 H 277.649 -2.19553 2.38677 0
M  V30 2850 H 277.434 -1.08241 3.76864 0
M  V30 2851 H 278.924 -2.06296 3.63087 0
M  V30 2852 N 279.361 -1.56624 0.175154 0
M  V30 2853 C 280.294 -2.14 -0.792412 0
M  V30 2854 C 281.272 -1.07114 -1.22333 0
M  V30 2855 O 282.456 -1.35112 -1.31442 0
M  V30 2856 C 279.583 -2.68268 -2.0676 0
M  V30 2857 C 278.629 -3.87562 -1.7804 0
M  V30 2858 S 279.462 -5.27074 -0.946222 0
M  V30 2859 C 280.618 -5.8475 -2.23199 0
M  V30 2860 H 280.851 -2.95736 -0.304588 0
M  V30 2861 H 278.384 -1.54349 -0.0395705 0
M  V30 2862 H 280.342 -3.00182 -2.80002 0
M  V30 2863 H 279.003 -1.86612 -2.52656 0
M  V30 2864 H 278.196 -4.23874 -2.72666 0
M  V30 2865 H 277.798 -3.56555 -1.12891 0
M  V30 2866 H 280.09 -5.97898 -3.18629 0
M  V30 2867 H 281.033 -6.81756 -1.91349 0
M  V30 2868 H 281.441 -5.13198 -2.35134 0
M  V30 2869 N 280.839 0.0985539 -1.57292 0
M  V30 2870 C 282.25 0.653457 -1.74891 0
M  V30 2871 C 282.601 1.7929 -0.796838 0
M  V30 2872 O 281.726 2.16385 0.0254886 0
M  V30 2873 C 282.321 1.19216 -3.17133 0
M  V30 2874 C 280.88 1.69316 -3.36168 0
M  V30 2875 C 280.027 0.601294 -2.70702 0
M  V30 2876 H 282.978 -0.127497 -1.58187 0
M  V30 2877 H 282.999 2.06154 -3.19814 0
M  V30 2878 H 282.511 0.362635 -3.86402 0
M  V30 2879 H 280.612 2.5468 -2.71972 0
M  V30 2880 H 280.725 1.78853 -4.44464 0
M  V30 2881 H 279.089 1.0399 -2.32504 0
M  V30 2882 H 279.872 -0.217592 -3.4261 0
M  V30 2883 N 282.317 1.53212 0.369288 0
M  V30 2884 C 283.247 1.82365 1.45826 0
M  V30 2885 C 284.228 0.676907 1.56051 0
M  V30 2886 O 285.413 0.926401 1.70679 0
M  V30 2887 C 282.543 2.01023 2.83208 0
M  V30 2888 C 281.497 3.1678 2.8781 0
M  V30 2889 C 280.823 3.20724 4.27832 0
M  V30 2890 C 282.123 4.55447 2.55667 0
M  V30 2891 H 283.817 2.73559 1.21678 0
M  V30 2892 H 281.363 1.3163 0.583911 0
M  V30 2893 H 283.316 2.20001 3.59413 0
M  V30 2894 H 282.04 1.06536 3.08736 0
M  V30 2895 H 280.699 2.97616 2.14056 0
M  V30 2896 H 280.347 2.23882 4.50429 0
M  V30 2897 H 280.047 3.98496 4.31827 0
M  V30 2898 H 281.571 3.41881 5.05915 0
M  V30 2899 H 282.985 4.74611 3.21586 0
M  V30 2900 H 281.382 5.35432 2.70984 0
M  V30 2901 H 282.452 4.60812 1.5093 0
M  V30 2902 N 283.795 -0.628877 1.44509 0
M  V30 2903 C 284.725 -1.75187 1.54376 0
M  V30 2904 C 285.706 -1.65411 0.396618 0
M  V30 2905 O 286.891 -1.84137 0.617031 0
M  V30 2906 C 284.021 -3.13725 1.48976 0
M  V30 2907 C 282.975 -3.38291 2.62189 0
M  V30 2908 C 282.301 -4.76883 2.41841 0
M  V30 2909 C 283.601 -3.30632 4.04326 0
M  V30 2910 H 285.295 -1.67187 2.48373 0
M  V30 2911 H 282.841 -0.802909 1.19538 0
M  V30 2912 H 284.794 -3.92064 1.54478 0
M  V30 2913 H 283.518 -3.22515 0.514961 0
M  V30 2914 H 282.177 -2.62334 2.56079 0
M  V30 2915 H 281.825 -4.82378 1.42548 0
M  V30 2916 H 281.525 -4.94278 3.17747 0
M  V30 2917 H 283.049 -5.57449 2.49165 0
M  V30 2918 H 284.463 -3.98873 4.11793 0
M  V30 2919 H 282.86 -3.59561 4.80454 0
M  V30 2920 H 283.93 -2.28404 4.27738 0
M  V30 2921 N 285.273 -1.31445 -0.869486 0
M  V30 2922 C 286.513 -1.22458 -1.63656 0
M  V30 2923 C 286.877 0.213846 -1.90805 0
M  V30 2924 O 288.078 0.427212 -2.65383 0
M  V30 2925 C 286.349 -2.04564 -2.93067 0
M  V30 2926 S 287.908 -2.12445 -3.83944 0
M  V30 2927 H 284.726 -0.436145 -0.561514 0
M  V30 2928 H 287.328 -1.66114 -1.03085 0
M  V30 2929 H 286.032 -3.0816 -2.71045 0
M  V30 2930 H 285.563 -1.6163 -3.58663 0
M  V30 2931 H 287.578 -1.26312 -4.79854 0
M  V30 2932 N 286.751 1.08385 -1.14413 0
M  V30 2933 C 287.979 1.84517 -0.936001 0
M  V30 2934 C 288.394 1.81626 0.515503 0
M  V30 2935 O 287.751 1.22008 1.35721 0
M  V30 2936 C 287.802 3.32049 -1.42918 0
M  V30 2937 O 287.523 3.34951 -2.82381 0
M  V30 2938 C 289.024 4.24986 -1.26103 0
M  V30 2939 H 286.244 0.582491 -0.333084 0
M  V30 2940 H 288.788 1.36885 -1.5193 0
M  V30 2941 H 286.943 3.7707 -0.888641 0
M  V30 2942 H 287.357 4.27048 -3.04517 0
M  V30 2943 H 288.831 5.26615 -1.6547 0
M  V30 2944 H 289.308 4.38726 -0.20392 0
M  V30 2945 H 289.914 3.85791 -1.79012 0
M  V30 2946 N 288.23 0.939286 1.26551 0
M  V30 2947 C 289.478 0.58469 1.93457 0
M  V30 2948 C 289.799 -0.878774 1.74076 0
M  V30 2949 O 289.069 -1.62421 1.09528 0
M  V30 2950 H 287.649 0.21325 0.715914 0
M  V30 2951 H 290.311 1.1942 1.54029 0
M  V30 2952 H 289.407 0.800849 3.0165 0
M  V30 2953 N 289.708 -1.40897 0.706093 0
M  V30 2954 C 290.985 -1.94868 0.169099 0
M  V30 2955 C 291.365 -1.64485 -1.32318 0
M  V30 2956 O 290.713 -0.95744 -2.07474 0
M  V30 2957 C 290.923 -3.45798 0.471654 0
M  V30 2958 C 292.271 -4.22663 0.405127 0
M  V30 2959 O 293.295 -3.53865 0.407168 0
M  V30 2960 O 292.154 -5.45216 0.374383 0
M  V30 2961 H 289.248 -0.82673 0.0211352 0
M  V30 2962 H 291.794 -1.50558 0.782976 0
M  V30 2963 H 290.566 -3.61235 1.50416 0
M  V30 2964 H 290.189 -3.97225 -0.172666 0
M  V30 2965 N 291.186 -0.45159 -1.50991 0
M  V30 2966 C 292.435 0.111653 -2.01391 0
M  V30 2967 C 292.748 1.42529 -1.33959 0
M  V30 2968 O 293.954 2.07232 -1.75405 0
M  V30 2969 C 292.41 0.249514 -3.59034 0
M  V30 2970 C 292.018 -1.05453 -4.35412 0
M  V30 2971 C 293.762 0.765762 -4.17536 0
M  V30 2972 C 291.669 -0.881529 -5.84793 0
M  V30 2973 H 290.599 0.0455022 -0.752626 0
M  V30 2974 H 293.25 -0.583524 -1.73975 0
M  V30 2975 H 291.632 1.00803 -3.82955 0
M  V30 2976 H 292.806 -1.82248 -4.23229 0
M  V30 2977 H 291.121 -1.50039 -3.88429 0
M  V30 2978 H 293.718 0.911913 -5.26866 0
M  V30 2979 H 294.061 1.75201 -3.77638 0
M  V30 2980 H 294.594 0.0651744 -3.97747 0
M  V30 2981 H 291.333 -1.84057 -6.29129 0
M  V30 2982 H 290.853 -0.153625 -5.99603 0
M  V30 2983 H 292.532 -0.540363 -6.4474 0
M  V30 2984 N 292.664 1.56529 -0.183458 0
M  V30 2985 C 294.075 1.83739 0.331177 0
M  V30 2986 C 294.426 1.10373 1.62211 0
M  V30 2987 O 293.551 0.36071 2.13373 0
M  V30 2988 C 294.146 3.33306 0.607646 0
M  V30 2989 C 292.705 3.60969 1.06668 0
M  V30 2990 C 291.852 2.77086 0.109029 0
M  V30 2991 H 294.803 1.53379 -0.407484 0
M  V30 2992 H 294.824 3.51444 1.45832 0
M  V30 2993 H 294.336 3.86677 -0.332086 0
M  V30 2994 H 292.437 3.13021 2.0211 0
M  V30 2995 H 292.55 4.69231 0.967447 0
M  V30 2996 H 290.914 2.47319 0.608714 0
M  V30 2997 H 291.697 3.33241 -0.82494 0
M  V30 2998 N 294.142 -0.090211 1.57342 0
M  V30 2999 C 295.105 -1.09335 2.01441 0
M  V30 3000 C 296.105 -1.32666 0.908641 0
M  V30 3001 O 297.295 -1.28697 1.174 0
M  V30 3002 C 294.427 -2.44136 2.3793 0
M  V30 3003 H 295.62 -0.713662 2.91285 0
M  V30 3004 H 293.173 -0.335404 1.52659 0
M  V30 3005 H 293.908 -2.86972 1.51055 0
M  V30 3006 H 293.693 -2.28548 3.18603 0
M  V30 3007 H 295.183 -3.16277 2.72688 0
M  V30 3008 N 295.62 -1.53406 -0.361157 0
M  V30 3009 C 296.55 -1.83136 -1.44857 0
M  V30 3010 C 297.531 -0.685174 -1.5569 0
M  V30 3011 O 298.716 -0.93544 -1.70186 0
M  V30 3012 C 295.846 -2.02522 -2.82138 0
M  V30 3013 C 294.8 -3.18302 -2.86126 0
M  V30 3014 C 294.126 -3.22989 -4.26125 0
M  V30 3015 C 295.426 -4.56796 -2.53248 0
M  V30 3016 H 297.12 -2.74201 -1.20226 0
M  V30 3017 H 294.666 -1.31938 -0.576922 0
M  V30 3018 H 296.619 -2.21904 -3.58241 0
M  V30 3019 H 295.343 -1.08172 -3.08166 0
M  V30 3020 H 294.002 -2.98747 -2.12475 0
M  V30 3021 H 293.65 -2.26267 -4.49235 0
M  V30 3022 H 293.35 -4.00781 -4.29708 0
M  V30 3023 H 294.874 -3.44559 -5.04094 0
M  V30 3024 H 296.288 -4.7631 -3.19064 0
M  V30 3025 H 294.685 -5.36862 -2.68141 0
M  V30 3026 H 295.755 -4.61606 -1.48484 0
M  V30 3027 N 297.098 0.621204 -1.44841 0
M  V30 3028 C 298.328 1.40548 -1.51426 0
M  V30 3029 C 298.736 1.88673 -0.141083 0
M  V30 3030 O 298.079 1.62053 0.865128 0
M  V30 3031 C 298.141 2.65325 -2.42576 0
M  V30 3032 C 297.805 2.3893 -3.89566 0
M  V30 3033 C 298.802 2.00138 -4.79834 0
M  V30 3034 C 296.487 2.52263 -4.3436 0
M  V30 3035 C 298.481 1.75021 -6.129 0
M  V30 3036 C 296.168 2.2676 -5.67471 0
M  V30 3037 C 297.166 1.88199 -6.56559 0
M  V30 3038 O 296.854 1.62986 -7.87204 0
M  V30 3039 H 296.586 0.437122 -0.515655 0
M  V30 3040 H 299.14 0.765987 -1.90583 0
M  V30 3041 H 297.37 3.31947 -1.98364 0
M  V30 3042 H 299.059 3.27347 -2.39998 0
M  V30 3043 H 299.825 1.89386 -4.46495 0
M  V30 3044 H 295.704 2.81246 -3.65269 0
M  V30 3045 H 299.248 1.44848 -6.82396 0
M  V30 3046 H 295.145 2.37125 -6.00368 0
M  V30 3047 H 295.913 1.7715 -7.991 0
M  V30 3048 N 298.576 1.31904 0.862503 0
M  V30 3049 C 299.992 1.10724 1.14945 0
M  V30 3050 C 300.192 -0.117421 2.01158 0
M  V30 3051 O 299.248 -0.804595 2.39338 0
M  V30 3052 C 300.561 2.38267 1.83437 0
M  V30 3053 C 302.109 2.43949 1.96106 0
M  V30 3054 C 302.584 3.71394 2.68013 0
M  V30 3055 N 304.075 3.72331 2.75543 0
M  V30 3056 C 304.81 4.67641 3.31812 0
M  V30 3057 N 304.306 5.73313 3.88953 0
M  V30 3058 N 306.099 4.5515 3.29841 0
M  V30 3059 H 298.25 2.10436 0.288191 0
M  V30 3060 H 300.513 0.928705 0.190292 0
M  V30 3061 H 300.219 3.27759 1.27542 0
M  V30 3062 H 300.093 2.48633 2.83657 0
M  V30 3063 H 302.48 1.54922 2.51164 0
M  V30 3064 H 302.561 2.37543 0.949059 0
M  V30 3065 H 302.205 4.60791 2.13621 0
M  V30 3066 H 302.135 3.75069 3.69636 0
M  V30 3067 H 304.626 2.95947 2.34997 0
M  V30 3068 H 304.939 6.42107 4.30022 0
M  V30 3069 H 303.284 5.77077 3.87308 0
M  V30 3070 H 306.475 3.71766 2.84443 0
M  V30 3071 H 306.648 5.29604 3.73394 0
M  V30 3072 N 300.054 -1.07777 1.14986 0
M  V30 3073 C 301.004 -2.13082 0.811181 0
M  V30 3074 C 301.988 -1.59619 -0.202597 0
M  V30 3075 O 303.18 -1.77 -0.00398275 0
M  V30 3076 C 300.309 -3.42009 0.297439 0
M  V30 3077 C 299.395 -4.02337 1.34112 0
M  V30 3078 N 299.786 -4.36982 2.54716 0
M  V30 3079 C 298.084 -4.29752 1.19285 0
M  V30 3080 C 298.785 -4.84729 3.21578 0
M  V30 3081 N 297.761 -4.83233 2.48972 0
M  V30 3082 H 301.563 -2.37696 1.72853 0
M  V30 3083 H 299.077 -1.25173 1.03468 0
M  V30 3084 H 301.074 -4.16884 0.0364777 0
M  V30 3085 H 299.734 -3.18841 -0.614022 0
M  V30 3086 H 300.745 -4.27807 2.91894 0
M  V30 3087 H 297.422 -4.16106 0.340926 0
M  V30 3088 H 298.812 -5.20863 4.24442 0
M  V30 3089 N 301.532 -0.945985 -1.26051 0
M  V30 3090 C 302.778 -0.606539 -1.94146 0
M  V30 3091 C 303.133 0.84586 -1.72809 0
M  V30 3092 O 302.426 1.59781 -1.05738 0
M  V30 3093 C 302.62 -0.890475 -3.46129 0
M  V30 3094 C 302.449 -2.36892 -3.82246 0
M  V30 3095 C 301.219 -3.02494 -4.04753 0
M  V30 3096 C 303.417 -3.34772 -3.90425 0
M  V30 3097 N 301.399 -4.40302 -4.27794 0
M  V30 3098 C 302.77 -4.57855 -4.18054 0
M  V30 3099 C 304.825 -3.2973 -3.73072 0
M  V30 3100 C 303.528 -5.76522 -4.30134 0
M  V30 3101 C 305.554 -4.47727 -3.86386 0
M  V30 3102 C 304.916 -5.69593 -4.14419 0
M  V30 3103 H 301.015 -0.272407 -0.73302 0
M  V30 3104 H 303.599 -1.21638 -1.52027 0
M  V30 3105 H 301.77 -0.309638 -3.87164 0
M  V30 3106 H 303.502 -0.51181 -4.01451 0
M  V30 3107 H 300.257 -2.53095 -4.003 0
M  V30 3108 H 300.681 -5.11646 -4.43337 0
M  V30 3109 H 305.323 -2.36565 -3.50424 0
M  V30 3110 H 303.041 -6.70136 -4.51601 0
M  V30 3111 H 306.627 -4.45363 -3.74356 0
M  V30 3112 H 305.507 -6.59375 -4.24493 0
M  V30 3113 N 303.011 1.40521 -0.713556 0
M  V30 3114 C 303.958 2.30723 -0.059684 0
M  V30 3115 C 304.928 1.48079 0.752448 0
M  V30 3116 O 306.113 1.76823 0.71681 0
M  V30 3117 C 303.253 3.34274 0.857594 0
M  V30 3118 C 302.366 4.31986 0.0351536 0
M  V30 3119 C 301.501 5.22605 0.951724 0
M  V30 3120 C 300.54 6.11976 0.123253 0
M  V30 3121 N 299.677 6.9502 0.99459 0
M  V30 3122 H 304.517 2.86074 -0.834596 0
M  V30 3123 H 302.054 1.40879 -0.42326 0
M  V30 3124 H 304.012 3.92879 1.40364 0
M  V30 3125 H 302.642 2.8043 1.59871 0
M  V30 3126 H 301.694 3.7518 -0.628052 0
M  V30 3127 H 303.006 4.95101 -0.606347 0
M  V30 3128 H 302.16 5.86131 1.56638 0
M  V30 3129 H 300.899 4.59759 1.62705 0
M  V30 3130 H 299.904 5.47482 -0.50435 0
M  V30 3131 H 301.129 6.76881 -0.548539 0
M  V30 3132 H 299.075 6.34764 1.6556 0
M  V30 3133 H 298.992 7.54892 0.40908 0
M  V30 3134 H 300.26 7.62997 1.59549 0
M  V30 3135 N 304.489 0.459591 1.5075 0
M  V30 3136 C 305.421 -0.37665 2.26084 0
M  V30 3137 C 306.434 -0.967109 1.30961 0
M  V30 3138 O 307.623 -0.857468 1.56556 0
M  V30 3139 C 304.723 -1.54112 3.01832 0
M  V30 3140 C 303.896 -1.06553 4.24223 0
M  V30 3141 C 302.955 -2.1027 4.82362 0
M  V30 3142 O 301.981 -1.68798 5.43595 0
M  V30 3143 N 303.183 -3.42974 4.68347 0
M  V30 3144 H 305.948 0.269124 2.98489 0
M  V30 3145 H 303.509 0.28972 1.59287 0
M  V30 3146 H 305.501 -2.23165 3.37608 0
M  V30 3147 H 304.071 -2.0918 2.32298 0
M  V30 3148 H 303.291 -0.201274 3.93686 0
M  V30 3149 H 304.579 -0.725516 5.03601 0
M  V30 3150 H 303.977 -3.79385 4.19623 0
M  V30 3151 H 302.534 -4.07858 5.08424 0
M  V30 3152 N 305.967 -1.56429 0.191757 0
M  V30 3153 C 307.383 -1.58754 -0.164137 0
M  V30 3154 C 307.583 -1.20782 -1.61288 0
M  V30 3155 O 306.639 -0.928999 -2.34789 0
M  V30 3156 C 307.952 -3.00396 0.135195 0
M  V30 3157 C 309.5 -3.1291 0.0750351 0
M  V30 3158 C 309.975 -4.56679 0.347632 0
M  V30 3159 N 311.466 -4.62252 0.296131 0
M  V30 3160 C 312.201 -5.71379 0.480948 0
M  V30 3161 N 311.697 -6.88986 0.725933 0
M  V30 3162 N 313.49 -5.60563 0.415435 0
M  V30 3163 H 305.641 -1.79393 1.13718 0
M  V30 3164 H 307.904 -0.832414 0.453643 0
M  V30 3165 H 307.61 -3.32726 1.13958 0
M  V30 3166 H 307.484 -3.72963 -0.563773 0
M  V30 3167 H 309.871 -2.80394 -0.919948 0
M  V30 3168 H 309.952 -2.42736 0.807029 0
M  V30 3169 H 309.596 -4.89907 1.33992 0
M  V30 3170 H 309.526 -5.25039 -0.405212 0
M  V30 3171 H 312.017 -3.7773 0.113259 0
M  V30 3172 H 312.33 -7.68046 0.855857 0
M  V30 3173 H 310.675 -6.90801 0.762788 0
M  V30 3174 H 313.866 -4.67561 0.224486 0
M  V30 3175 H 314.039 -6.45551 0.562889 0
M  V30 3176 N 307.445 0.0818655 -1.57387 0
M  V30 3177 C 308.377 1.12484 -1.997 0
M  V30 3178 C 309.39 1.35564 -0.90146 0
M  V30 3179 O 310.579 1.33982 -1.17945 0
M  V30 3180 C 307.679 2.47778 -2.31213 0
M  V30 3181 C 306.852 2.44793 -3.62485 0
M  V30 3182 C 305.911 3.62117 -3.81782 0
M  V30 3183 O 304.937 3.44005 -4.53486 0
M  V30 3184 N 306.139 4.82094 -3.23367 0
M  V30 3185 H 308.904 0.764585 -2.89783 0
M  V30 3186 H 306.465 0.270664 -1.59621 0
M  V30 3187 H 308.457 3.24891 -2.41304 0
M  V30 3188 H 307.027 2.75843 -1.4707 0
M  V30 3189 H 306.247 1.53134 -3.6324 0
M  V30 3190 H 307.535 2.39889 -4.48699 0
M  V30 3191 H 306.933 4.99713 -2.65148 0
M  V30 3192 H 305.49 5.56753 -3.38923 0
M  V30 3193 N 308.923 1.53595 0.353017 0
M  V30 3194 C 309.886 1.80232 1.41594 0
M  V30 3195 C 310.886 0.673081 1.46035 0
M  V30 3196 O 312.076 0.941335 1.46576 0
M  V30 3197 C 309.208 1.93578 2.80607 0
M  V30 3198 H 310.401 2.75174 1.19244 0
M  V30 3199 H 307.954 1.44864 0.586872 0
M  V30 3200 H 308.689 1.00746 3.08254 0
M  V30 3201 H 308.474 2.75724 2.78781 0
M  V30 3202 H 309.964 2.15735 3.57558 0
M  V30 3203 N 310.401 -0.613514 1.45168 0
M  V30 3204 C 311.629 -1.39946 1.5239 0
M  V30 3205 C 312.044 -1.88167 0.154531 0
M  V30 3206 O 311.401 -1.61872 -0.842843 0
M  V30 3207 C 311.452 -2.60795 2.50337 0
M  V30 3208 O 311.173 -2.1458 3.81952 0
M  V30 3209 C 312.674 -3.53723 2.67198 0
M  V30 3210 H 309.894 -0.428593 0.516284 0
M  V30 3211 H 312.438 -0.748753 1.903 0
M  V30 3212 H 310.593 -3.21919 2.15515 0
M  V30 3213 H 311.007 -2.93055 4.34993 0
M  V30 3214 H 312.481 -4.35079 3.39721 0
M  V30 3215 H 312.958 -4.0368 1.73029 0
M  V30 3216 H 313.564 -2.98456 3.02992 0
M  V30 3217 N 311.879 -1.3236 -0.855495 0
M  V30 3218 C 312.842 -1.21164 -1.94556 0
M  V30 3219 C 313.842 -0.134908 -1.60233 0
M  V30 3220 O 315.032 -0.385249 -1.69887 0
M  V30 3221 C 312.164 -0.863192 -3.29791 0
M  V30 3222 H 313.357 -2.18038 -2.05911 0
M  V30 3223 H 310.91 -1.16179 -1.04557 0
M  V30 3224 H 311.645 0.103769 -3.24134 0
M  V30 3225 H 311.43 -1.64166 -3.56078 0
M  V30 3226 H 312.92 -0.809156 -4.09686 0
M  V30 3227 O 313.396 0.992737 -1.27385 0
M  V30 3228 H 314.087 1.61512 -1.06928 0
M  V30 END ATOM
M  V30 BEGIN BOND
M  V30 END BOND
M  V30 END CTAB
M  END
$$$$
