drugbank_target|P27037 Activin receptor type-2A (DB12118)
 OpenBabel12092120333D

  0  0  0     0  0            999 V3000
M  V30 BEGIN CTAB
M  V30 COUNTS 8060 8162 0 0 0
M  V30 BEGIN ATOM
M  V30 1 H -0.908 1.98254 -0.117106 0
M  V30 2 N 0 1.576 0 0
M  V30 3 C 0.933 2.03868 1.02534 0
M  V30 4 C 1.911 0.928543 1.3348 0
M  V30 5 O 3.095 1.19667 1.45644 0
M  V30 6 C 0.222 2.43627 2.35294 0
M  V30 7 C -0.732 3.65373 2.2001 0
M  V30 8 S 0.101 5.13292 1.52614 0
M  V30 9 C 1.257 5.56322 2.86805 0
M  V30 10 H 1.49 2.90518 0.631377 0
M  V30 11 H -0.977 1.52953 0.210867 0
M  V30 12 H 0.981 2.67203 3.11629 0
M  V30 13 H -0.358 1.57376 2.7183 0
M  V30 14 H -1.165 3.90944 3.18086 0
M  V30 15 H -1.563 3.418 1.51819 0
M  V30 16 H 0.729 5.58782 3.83104 0
M  V30 17 H 1.672 6.56266 2.65933 0
M  V30 18 H 2.08 4.83886 2.90714 0
M  V30 19 N 1.4781 -0.272755 1.55222 0
M  V30 20 C 2.7261 -1.00234 1.75492 0
M  V30 21 C 3.0471 -1.8681 0.5592 0
M  V30 22 O 2.3171 -1.91215 -0.425882 0
M  V30 23 H 0.8971 -0.373076 0.647166 0
M  V30 24 H 3.5591 -0.296926 1.92625 0
M  V30 25 H 2.6551 -1.63913 2.65592 0
M  V30 26 N 2.9562 -1.48159 -0.537278 0
M  V30 27 C 3.9192 -1.61665 -1.62472 0
M  V30 28 C 4.9192 -0.490395 -1.5314 0
M  V30 29 O 6.1092 -0.755998 -1.5694 0
M  V30 30 C 3.2412 -1.57997 -3.02076 0
M  V30 31 H 4.4342 -2.58621 -1.51839 0
M  V30 32 H 1.9872 -1.36647 -0.758771 0
M  V30 33 H 2.7222 -0.624913 -3.18222 0
M  V30 34 H 2.5072 -2.39755 -3.10258 0
M  V30 35 H 3.9972 -1.70627 -3.81151 0
M  V30 36 N 4.4343 0.785586 -1.36625 0
M  V30 37 C 5.3973 1.87999 -1.31107 0
M  V30 38 C 6.3973 1.59316 -0.217959 0
M  V30 39 O 7.5873 1.67656 -0.472977 0
M  V30 40 C 4.7193 3.24861 -1.03334 0
M  V30 41 H 5.9123 1.94307 -2.2844 0
M  V30 42 H 3.4653 0.983813 -1.21453 0
M  V30 43 H 4.2003 3.24235 -0.0647432 0
M  V30 44 H 3.9853 3.4707 -1.82441 0
M  V30 45 H 5.4753 4.04929 -1.02088 0
M  V30 46 N 5.9124 1.20967 1.01018 0
M  V30 47 C 6.8754 0.965918 2.07853 0
M  V30 48 C 7.8754 -0.0610545 1.60684 0
M  V30 49 O 9.0654 0.175681 1.73312 0
M  V30 50 C 6.1974 0.455513 3.37843 0
M  V30 51 H 7.3904 1.91365 2.3091 0
M  V30 52 H 4.9434 1.02594 1.17916 0
M  V30 53 H 5.6784 -0.497381 3.20463 0
M  V30 54 H 5.4634 1.19622 3.73407 0
M  V30 55 H 6.9534 0.304667 4.16487 0
M  V30 56 N 7.3905 -1.2043 1.01659 0
M  V30 57 C 8.3375 -2.23215 0.586822 0
M  V30 58 C 9.3075 -1.61382 -0.393085 0
M  V30 59 O 10.4925 -1.88544 -0.292525 0
M  V30 60 C 7.6325 -3.45032 -0.0687464 0
M  V30 61 C 6.7455 -4.21296 0.955724 0
M  V30 62 C 5.8805 -5.30507 0.271208 0
M  V30 63 C 4.9195 -5.98515 1.28244 0
M  V30 64 N 4.0565 -6.99316 0.62459 0
M  V30 65 H 8.8965 -2.59336 1.46796 0
M  V30 66 H 6.4335 -1.27431 0.734836 0
M  V30 67 H 8.3915 -4.1459 -0.465965 0
M  V30 68 H 7.0215 -3.09604 -0.913529 0
M  V30 69 H 6.0735 -3.50803 1.4711 0
M  V30 70 H 7.3855 -4.6803 1.72479 0
M  V30 71 H 6.5395 -6.06428 -0.18151 0
M  V30 72 H 5.2785 -4.8481 -0.530163 0
M  V30 73 H 4.2835 -5.21355 1.74554 0
M  V30 74 H 5.5085 -6.46298 2.08509 0
M  V30 75 H 3.4545 -6.55812 -0.156914 0
M  V30 76 H 3.3715 -7.44178 1.33172 0
M  V30 77 H 4.6395 -7.79255 0.195462 0
M  V30 78 N 8.8686 -0.792821 -1.36206 0
M  V30 79 C 9.7986 -0.207853 -2.32573 0
M  V30 80 C 10.7796 0.659055 -1.56813 0
M  V30 81 O 11.9646 0.592176 -1.84951 0
M  V30 82 C 9.0946 0.655449 -3.41059 0
M  V30 83 C 8.0486 -0.111842 -4.27854 0
M  V30 84 C 7.3746 0.872274 -5.27537 0
M  V30 85 C 8.6746 -1.30299 -5.05786 0
M  V30 86 H 10.3686 -1.01294 -2.81744 0
M  V30 87 H 7.9146 -0.48854 -1.3546 0
M  V30 88 H 9.8676 1.07464 -4.07467 0
M  V30 89 H 8.5916 1.49328 -2.90463 0
M  V30 90 H 7.2506 -0.512053 -3.63006 0
M  V30 91 H 6.8986 1.70523 -4.73214 0
M  V30 92 H 6.5986 0.363291 -5.86476 0
M  V30 93 H 8.1226 1.28996 -5.96818 0
M  V30 94 H 9.5366 -0.959379 -5.65216 0
M  V30 95 H 7.9336 -1.7455 -5.74154 0
M  V30 96 H 9.0036 -2.09663 -4.37229 0
M  V30 97 N 10.3467 1.47872 -0.545128 0
M  V30 98 C 11.3097 2.28337 0.198717 0
M  V30 99 C 12.3097 1.36255 0.853888 0
M  V30 100 O 13.4997 1.59003 0.711606 0
M  V30 101 C 10.6317 3.15585 1.28915 0
M  V30 102 H 11.8247 2.95567 -0.507941 0
M  V30 103 H 9.3777 1.53362 -0.301616 0
M  V30 104 H 10.1127 2.53019 2.02859 0
M  V30 105 H 9.8977 3.83337 0.824309 0
M  V30 106 H 11.3877 3.76243 1.81194 0
M  V30 107 N 11.8248 0.280983 1.55075 0
M  V30 108 C 13.0718 -0.334115 1.99725 0
M  V30 109 C 13.3998 -1.5542 1.1694 0
M  V30 110 O 12.6548 -1.94361 0.228531 0
M  V30 111 C 12.9538 -0.754656 3.49342 0
M  V30 112 C 12.6198 0.361445 4.49449 0
M  V30 113 C 11.2818 0.667893 4.76542 0
M  V30 114 C 13.6338 1.11322 5.09173 0
M  V30 115 C 10.9618 1.7296 5.60626 0
M  V30 116 C 13.3138 2.1647 5.9441 0
M  V30 117 C 11.9778 2.47742 6.19822 0
M  V30 118 H 11.2478 -0.122261 0.730844 0
M  V30 119 H 13.8948 0.395917 1.87363 0
M  V30 120 H 12.1998 -1.56446 3.5921 0
M  V30 121 H 13.8968 -1.24142 3.813 0
M  V30 122 H 10.4868 0.112481 4.28452 0
M  V30 123 H 14.6708 0.88973 4.8826 0
M  V30 124 H 9.9268 1.97684 5.78559 0
M  V30 125 H 14.1008 2.75193 6.3972 0
M  V30 126 H 11.7278 3.30145 6.84769 0
M  V30 127 N 13.3029 -1.57598 0.00835791 0
M  V30 128 C 14.2659 -2.07884 -0.965242 0
M  V30 129 C 15.2659 -0.989825 -1.26725 0
M  V30 130 O 16.4559 -1.25218 -1.21104 0
M  V30 131 C 13.5879 -2.52731 -2.28779 0
M  V30 132 H 14.7809 -2.95178 -0.530112 0
M  V30 133 H 12.3339 -1.54458 -0.239283 0
M  V30 134 H 13.0689 -1.68705 -2.76964 0
M  V30 135 H 12.8539 -3.32272 -2.08177 0
M  V30 136 H 14.3439 -2.91933 -2.98605 0
M  V30 137 N 14.781 0.264519 -1.55364 0
M  V30 138 C 16.027 0.99646 -1.76631 0
M  V30 139 C 16.36 1.85632 -0.570478 0
M  V30 140 O 15.635 1.89647 0.43175 0
M  V30 141 C 15.918 1.87187 -3.07625 0
M  V30 142 C 15.771 1.04138 -4.37579 0
M  V30 143 C 17.09 2.85749 -3.34717 0
M  V30 144 H 14.209 0.360841 -0.642622 0
M  V30 145 H 16.851 0.268218 -1.88097 0
M  V30 146 H 15.001 2.49279 -2.9798 0
M  V30 147 H 16.673 0.440517 -4.59192 0
M  V30 148 H 14.916 0.345115 -4.32425 0
M  V30 149 H 15.587 1.68729 -5.2558 0
M  V30 150 H 18.063 2.33793 -3.4421 0
M  V30 151 H 16.939 3.44136 -4.27623 0
M  V30 152 H 17.2 3.61311 -2.54768 0
M  V30 153 N 16.2591 1.48442 0.529413 0
M  V30 154 C 17.5061 1.56488 1.28521 0
M  V30 155 C 17.8341 0.239042 1.93025 0
M  V30 156 O 17.0891 -0.770713 1.79885 0
M  V30 157 C 17.3881 2.6523 2.39558 0
M  V30 158 C 17.0541 4.07648 1.92702 0
M  V30 159 C 15.7161 4.46411 1.79641 0
M  V30 160 C 18.0681 4.96896 1.573 0
M  V30 161 C 15.3961 5.72226 1.29514 0
M  V30 162 C 17.7481 6.23202 1.08636 0
M  V30 163 C 16.4121 6.60821 0.941919 0
M  V30 164 H 15.6821 0.572631 0.470292 0
M  V30 165 H 18.3291 1.82161 0.59072 0
M  V30 166 H 16.6341 2.33419 3.14679 0
M  V30 167 H 18.3311 2.68671 2.97686 0
M  V30 168 H 14.9211 3.77036 2.03819 0
M  V30 169 H 19.1051 4.67626 1.66251 0
M  V30 170 H 14.3611 6.00097 1.17019 0
M  V30 171 H 18.5351 6.91753 0.803136 0
M  V30 172 H 16.1621 7.58198 0.5513 0
M  V30 173 N 17.7372 -0.778329 1.37039 0
M  V30 174 C 18.6672 -1.90546 1.34962 0
M  V30 175 C 19.6482 -1.68681 0.219274 0
M  V30 176 O 20.8332 -1.89634 0.418624 0
M  V30 177 C 17.9632 -3.27734 1.14925 0
M  V30 178 C 16.9172 -3.64147 2.24902 0
M  V30 179 C 16.2432 -4.99806 1.89996 0
M  V30 180 C 17.5432 -3.71579 3.67051 0
M  V30 181 H 19.2372 -1.92541 2.29277 0
M  V30 182 H 16.7832 -0.924948 1.10366 0
M  V30 183 H 18.7362 -4.06215 1.12104 0
M  V30 184 H 17.4602 -3.26154 0.170631 0
M  V30 185 H 16.1192 -2.8797 2.26868 0
M  V30 186 H 15.7672 -4.94759 0.906796 0
M  V30 187 H 15.4672 -5.25139 2.63634 0
M  V30 188 H 16.9912 -5.80694 1.88749 0
M  V30 189 H 18.4052 -4.40227 3.67251 0
M  V30 190 H 16.8022 -4.08405 4.39688 0
M  V30 191 H 17.8722 -2.72404 4.01154 0
M  V30 192 N 19.2153 -1.21501 -1.00376 0
M  V30 193 C 20.4643 -1.02718 -1.73586 0
M  V30 194 C 20.7773 0.439589 -1.90596 0
M  V30 195 O 21.9833 0.746848 -2.61026 0
M  V30 196 C 20.4393 -1.78929 -3.1227 0
M  V30 197 C 20.0473 -3.29783 -3.03228 0
M  V30 198 C 21.7913 -1.68557 -3.89601 0
M  V30 199 C 19.6983 -3.98479 -4.36999 0
M  V30 200 H 18.6283 -0.380733 -0.650814 0
M  V30 201 H 21.2793 -1.45248 -1.1214 0
M  V30 202 H 19.6613 -1.29192 -3.74333 0
M  V30 203 H 20.8353 -3.86832 -2.50395 0
M  V30 204 H 19.1503 -3.40711 -2.39385 0
M  V30 205 H 21.7473 -2.17211 -4.88593 0
M  V30 206 H 22.0903 -0.644021 -4.11288 0
M  V30 207 H 22.6233 -2.15778 -3.34193 0
M  V30 208 H 19.3623 -5.02841 -4.20513 0
M  V30 209 H 18.8823 -3.46219 -4.89788 0
M  V30 210 H 20.5613 -4.03462 -5.05794 0
M  V30 211 N 20.6934 1.19889 -1.02296 0
M  V30 212 C 21.9184 1.9393 -0.735237 0
M  V30 213 C 22.3434 1.74639 0.698782 0
M  V30 214 O 21.7014 1.04481 1.48167 0
M  V30 215 C 21.7494 3.43916 -1.08417 0
M  V30 216 O 20.8534 4.11917 -0.199446 0
M  V30 217 H 20.1944 0.605645 -0.272196 0
M  V30 218 H 22.7244 1.52137 -1.36804 0
M  V30 219 H 22.7344 3.9456 -1.03856 0
M  V30 220 H 21.4094 3.5728 -2.12894 0
M  V30 221 H 19.9864 3.71666 -0.303136 0
M  V30 222 N 22.1715 0.800033 1.35784 0
M  V30 223 C 23.4115 0.382891 2.00782 0
M  V30 224 C 23.7755 -1.02891 1.62103 0
M  V30 225 O 24.9765 -1.54771 2.19771 0
M  V30 226 C 23.2475 0.553299 3.53091 0
M  V30 227 S 24.8065 0.225608 4.3822 0
M  V30 228 H 21.6245 0.145737 0.695904 0
M  V30 229 H 24.2265 1.04085 1.65489 0
M  V30 230 H 22.9305 1.58091 3.78729 0
M  V30 231 H 22.4615 -0.120214 3.93216 0
M  V30 232 H 24.4765 -0.969074 4.86645 0
M  V30 233 N 23.6496 -1.47581 0.552962 0
M  V30 234 C 24.8746 -2.07378 0.0300593 0
M  V30 235 C 25.2996 -1.40355 -1.25229 0
M  V30 236 O 24.6576 -0.477099 -1.7491 0
M  V30 237 C 24.7056 -3.60274 -0.153231 0
M  V30 238 O 23.8096 -3.94041 -1.21678 0
M  V30 239 H 23.1506 -0.662158 0.0494182 0
M  V30 240 H 25.6806 -1.89662 0.767434 0
M  V30 241 H 25.6906 -4.0633 -0.368761 0
M  V30 242 H 24.3656 -4.08455 0.783397 0
M  V30 243 H 22.9426 -3.59735 -0.982079 0
M  V30 244 N 25.1277 -0.289203 -1.54924 0
M  V30 245 C 26.3527 0.329299 -2.04769 0
M  V30 246 C 26.7777 1.4763 -1.16564 0
M  V30 247 O 26.1357 1.80527 -0.167186 0
M  V30 248 C 26.1837 0.774438 -3.52186 0
M  V30 249 O 25.2877 1.88038 -3.67036 0
M  V30 250 H 24.6287 0.0659259 -0.660719 0
M  V30 251 H 27.1587 -0.42761 -2.00082 0
M  V30 252 H 27.1687 1.06642 -3.93816 0
M  V30 253 H 25.8437 -0.0646707 -4.1585 0
M  V30 254 H 24.4207 1.58985 -3.3731 0
M  V30 255 N 26.6058 1.57591 -0.0167156 0
M  V30 256 C 27.8538 1.90906 0.663285 0
M  V30 257 C 28.1748 0.892509 1.73376 0
M  V30 258 O 27.4448 -0.0677623 1.95783 0
M  V30 259 H 26.0248 0.704637 0.247983 0
M  V30 260 H 28.6868 1.94803 -0.0615909 0
M  V30 261 H 27.7828 2.9116 1.12393 0
M  V30 262 N 28.0839 -0.256276 1.55502 0
M  V30 263 C 29.0469 -1.30047 1.88734 0
M  V30 264 C 30.0469 -1.4154 0.763086 0
M  V30 265 O 31.2369 -1.40403 1.03115 0
M  V30 266 C 28.3689 -2.67953 2.10747 0
M  V30 267 H 29.5619 -1.01802 2.82093 0
M  V30 268 H 27.1149 -0.495134 1.4825 0
M  V30 269 H 27.8499 -3.01351 1.19825 0
M  V30 270 H 27.6349 -2.60993 2.92617 0
M  V30 271 H 29.1249 -3.43368 2.37673 0
M  V30 272 N 29.562 -1.4872 -0.521534 0
M  V30 273 C 30.811 -1.56419 -1.27341 0
M  V30 274 C 31.124 -0.246805 -1.94037 0
M  V30 275 O 32.33 -0.202122 -2.70747 0
M  V30 276 C 30.786 -2.75896 -2.31105 0
M  V30 277 C 30.394 -4.14311 -1.70441 0
M  V30 278 C 32.138 -2.92913 -3.07249 0
M  V30 279 C 30.045 -5.25038 -2.72194 0
M  V30 280 H 28.975 -0.582344 -0.478949 0
M  V30 281 H 31.626 -1.75071 -0.549779 0
M  V30 282 H 30.008 -2.50697 -3.06541 0
M  V30 283 H 31.182 -4.49564 -1.01136 0
M  V30 284 H 29.497 -4.02482 -1.06759 0
M  V30 285 H 32.094 -3.72805 -3.83302 0
M  V30 286 H 32.437 -2.02689 -3.63625 0
M  V30 287 H 32.97 -3.18054 -2.38928 0
M  V30 288 H 29.709 -6.17255 -2.20627 0
M  V30 289 H 29.229 -4.94263 -3.39801 0
M  V30 290 H 30.908 -5.53508 -3.35019 0
M  V30 291 N 31.0401 0.771051 -1.3745 0
M  V30 292 C 31.9701 1.89827 -1.3597 0
M  V30 293 C 32.9511 1.68562 -0.228216 0
M  V30 294 O 34.1361 1.8941 -0.428675 0
M  V30 295 C 31.2661 3.2712 -1.16662 0
M  V30 296 C 30.2201 3.6295 -2.2683 0
M  V30 297 C 29.5461 4.98791 -1.92644 0
M  V30 298 C 30.8461 3.69627 -3.69017 0
M  V30 299 H 32.5401 1.91323 -2.30295 0
M  V30 300 H 30.0861 0.919082 -1.10855 0
M  V30 301 H 32.0391 4.05615 -1.14256 0
M  V30 302 H 30.7631 3.26059 -0.187926 0
M  V30 303 H 29.4221 2.86763 -2.28392 0
M  V30 304 H 29.0701 4.94271 -0.933021 0
M  V30 305 H 28.7701 5.23733 -2.66416 0
M  V30 306 H 30.2941 5.79685 -1.91826 0
M  V30 307 H 31.7081 4.38273 -3.69581 0
M  V30 308 H 30.1051 4.06067 -4.41848 0
M  V30 309 H 31.1751 2.70273 -4.02592 0
M  V30 310 N 32.5182 1.22032 0.997298 0
M  V30 311 C 33.7662 1.04016 1.73278 0
M  V30 312 C 34.0872 -0.426255 1.90284 0
M  V30 313 O 33.3572 -1.30694 1.45931 0
M  V30 314 H 31.9372 0.381897 0.642 0
M  V30 315 H 34.5992 1.5347 1.20137 0
M  V30 316 H 33.6952 1.51441 2.72896 0
M  V30 317 N 33.9963 -1.19345 1.0293 0
M  V30 318 C 35.4123 -1.41069 0.746446 0
M  V30 319 C 35.6123 -1.90078 -0.668776 0
M  V30 320 O 34.6683 -2.0778 -1.4347 0
M  V30 321 C 35.9813 -2.42141 1.78292 0
M  V30 322 C 37.5293 -2.55887 1.80252 0
M  V30 323 C 38.0043 -3.60214 2.8286 0
M  V30 324 N 39.4953 -3.67711 2.81679 0
M  V30 325 C 40.2303 -4.48128 3.57727 0
M  V30 326 N 39.7263 -5.32248 4.43491 0
M  V30 327 N 41.5193 -4.42782 3.46267 0
M  V30 328 H 33.6703 -0.858536 1.94275 0
M  V30 329 H 35.9333 -0.439541 0.839945 0
M  V30 330 H 35.6393 -2.13155 2.79746 0
M  V30 331 H 35.5133 -3.41323 1.60557 0
M  V30 332 H 37.9003 -2.84196 0.794757 0
M  V30 333 H 37.9813 -1.56858 2.02062 0
M  V30 334 H 37.6253 -3.32647 3.83807 0
M  V30 335 H 37.5553 -4.58895 2.58307 0
M  V30 336 H 40.0463 -3.07634 2.19476 0
M  V30 337 H 40.3593 -5.90729 4.98256 0
M  V30 338 H 38.7043 -5.31707 4.47564 0
M  V30 339 H 41.8953 -3.76107 2.78677 0
M  V30 340 H 42.0683 -5.05215 4.05785 0
M  V30 341 N 35.4744 -0.807222 -1.35358 0
M  V30 342 C 36.6994 -0.399309 -2.0352 0
M  V30 343 C 37.1244 0.981986 -1.60433 0
M  V30 344 O 36.4824 1.63601 -0.781299 0
M  V30 345 C 36.5304 -0.491552 -3.57234 0
M  V30 346 O 35.6344 0.494754 -4.09421 0
M  V30 347 H 34.9754 -0.166682 -0.642739 0
M  V30 348 H 37.5054 -1.09328 -1.72941 0
M  V30 349 H 37.5154 -0.361588 -4.06395 0
M  V30 350 H 36.1904 -1.49907 -3.87944 0
M  V30 351 H 34.7674 0.324977 -3.71481 0
M  V30 352 N 36.9525 1.47285 -0.560781 0
M  V30 353 C 37.8625 2.33846 0.187954 0
M  V30 354 C 38.8785 1.48412 0.908293 0
M  V30 355 O 40.0545 1.81332 0.876388 0
M  V30 356 C 37.1195 3.25178 1.2025 0
M  V30 357 C 36.1805 4.26504 0.489208 0
M  V30 358 C 35.4135 5.13472 1.45542 0
M  V30 359 O 35.6365 5.02959 2.6905 0
M  V30 360 O 34.5705 5.93902 0.977963 0
M  V30 361 H 38.3965 2.99177 -0.522177 0
M  V30 362 H 35.9815 1.45903 -0.321364 0
M  V30 363 H 37.8635 3.81584 1.78805 0
M  V30 364 H 36.5385 2.6247 1.89449 0
M  V30 365 H 35.4455 3.73847 -0.137627 0
M  V30 366 H 36.7785 4.91935 -0.161399 0
M  V30 367 N 38.4306 0.297415 1.54768 0
M  V30 368 C 39.6586 -0.315623 2.04478 0
M  V30 369 C 40.0736 -1.47792 1.17486 0
M  V30 370 O 39.4306 -1.81404 0.19971 0
M  V30 371 C 39.4816 -0.7753 3.53088 0
M  V30 372 O 39.2026 0.340732 4.36773 0
M  V30 373 C 40.7036 -1.45386 4.18781 0
M  V30 374 H 37.9236 -0.0690887 0.667434 0
M  V30 375 H 40.4676 0.436003 1.99798 0
M  V30 376 H 38.6226 -1.47696 3.58141 0
M  V30 377 H 39.0366 -0.0165035 5.24497 0
M  V30 378 H 40.5106 -1.72669 5.24299 0
M  V30 379 H 40.9876 -2.39275 3.68299 0
M  V30 380 H 41.5936 -0.795475 4.17795 0
M  V30 381 N 39.9087 -1.5758 0.0250728 0
M  V30 382 C 40.8407 -2.06869 -0.986796 0
M  V30 383 C 41.8537 -0.991332 -1.29137 0
M  V30 384 O 43.0427 -1.26761 -1.25674 0
M  V30 385 C 40.1427 -2.47486 -2.31525 0
M  V30 386 C 39.3157 -3.78253 -2.19643 0
M  V30 387 C 38.3747 -4.05464 -3.35388 0
M  V30 388 O 37.4007 -4.75774 -3.12454 0
M  V30 389 N 38.6027 -3.55321 -4.59051 0
M  V30 390 H 41.3677 -2.94302 -0.566276 0
M  V30 391 H 38.9287 -1.6109 -0.161776 0
M  V30 392 H 40.9207 -2.62785 -3.07776 0
M  V30 393 H 39.4907 -1.65441 -2.65232 0
M  V30 394 H 38.7107 -3.7279 -1.28144 0
M  V30 395 H 39.9987 -4.63936 -2.08903 0
M  V30 396 H 39.3967 -2.98431 -4.80578 0
M  V30 397 H 37.9537 -3.75905 -5.32483 0
M  V30 398 N 41.3868 0.248026 -1.55636 0
M  V30 399 C 42.2968 1.32859 -1.93354 0
M  V30 400 C 43.3128 1.52719 -0.833838 0
M  V30 401 O 44.4888 1.66363 -1.13513 0
M  V30 402 C 41.5538 2.66337 -2.21958 0
M  V30 403 C 40.6148 2.55008 -3.45354 0
M  V30 404 C 39.8478 3.82121 -3.72584 0
M  V30 405 O 40.0708 4.83951 -3.01907 0
M  V30 406 O 39.0048 3.80822 -4.6611 0
M  V30 407 H 42.8308 1.03862 -2.85388 0
M  V30 408 H 40.4158 0.448686 -1.42503 0
M  V30 409 H 42.2978 3.45216 -2.4167 0
M  V30 410 H 40.9728 2.95068 -1.33103 0
M  V30 411 H 39.8798 1.7442 -3.30951 0
M  V30 412 H 41.2128 2.31222 -4.34508 0
M  V30 413 N 42.8649 1.48995 0.513639 0
M  V30 414 C 44.1049 1.59452 1.27885 0
M  V30 415 C 44.4689 0.269479 1.90099 0
M  V30 416 O 45.6699 0.249139 2.67643 0
M  V30 417 C 43.9409 2.71277 2.32688 0
M  V30 418 S 45.4999 3.01604 3.18717 0
M  V30 419 H 42.3179 0.562565 0.434789 0
M  V30 420 H 44.9199 1.86595 0.583301 0
M  V30 421 H 43.6239 3.66089 1.8549 0
M  V30 422 H 43.1549 2.46086 3.06929 0
M  V30 423 H 45.1699 2.42155 4.331 0
M  V30 424 N 44.343 -0.763751 1.37857 0
M  V30 425 C 45.273 -1.89103 1.36975 0
M  V30 426 C 46.254 -1.68439 0.237152 0
M  V30 427 O 47.439 -1.8918 0.438713 0
M  V30 428 C 44.569 -3.26496 1.18395 0
M  V30 429 C 43.523 -3.61741 2.28751 0
M  V30 430 C 42.849 -4.97762 1.95286 0
M  V30 431 C 44.149 -3.67665 3.70972 0
M  V30 432 H 45.843 -1.90099 2.31307 0
M  V30 433 H 43.389 -0.91319 1.11341 0
M  V30 434 H 45.342 -4.05003 1.16406 0
M  V30 435 H 44.066 -3.25955 0.205215 0
M  V30 436 H 42.725 -2.85547 2.29909 0
M  V30 437 H 42.373 -4.93769 0.959221 0
M  V30 438 H 42.073 -5.22313 2.69189 0
M  V30 439 H 43.597 -5.7866 1.94898 0
M  V30 440 H 45.011 -4.36307 3.719 0
M  V30 441 H 43.408 -4.03718 4.43995 0
M  V30 442 H 44.478 -2.68134 4.0402 0
M  V30 443 N 45.8211 -1.22559 -0.990812 0
M  V30 444 C 47.0681 -1.05141 -1.73065 0
M  V30 445 C 47.3961 0.413191 -1.9006 0
M  V30 446 O 46.6511 1.32257 -1.44245 0
M  V30 447 C 46.9501 -1.71011 -3.13831 0
M  V30 448 C 46.6161 -3.20911 -3.16745 0
M  V30 449 C 45.2781 -3.61812 -3.17247 0
M  V30 450 C 47.6301 -4.16846 -3.12872 0
M  V30 451 C 44.9581 -4.97127 -3.1158 0
M  V30 452 C 47.3101 -5.5214 -3.08746 0
M  V30 453 C 45.9741 -5.92419 -3.07565 0
M  V30 454 H 45.2441 -0.384738 -0.633291 0
M  V30 455 H 47.8911 -1.5235 -1.16025 0
M  V30 456 H 46.1961 -1.16133 -3.74193 0
M  V30 457 H 47.8931 -1.55023 -3.69823 0
M  V30 458 H 44.4831 -2.88344 -3.17105 0
M  V30 459 H 48.6671 -3.86263 -3.11632 0
M  V30 460 H 43.9231 -5.27562 -3.09012 0
M  V30 461 H 48.0971 -6.26201 -3.04705 0
M  V30 462 H 45.7241 -6.97236 -3.02929 0
M  V30 463 N 47.2992 1.18797 -1.03562 0
M  V30 464 C 48.5462 1.8865 -0.736023 0
M  V30 465 C 48.8742 1.80041 0.735889 0
M  V30 466 O 48.1292 1.19179 1.55225 0
M  V30 467 C 48.4282 3.38692 -1.14117 0
M  V30 468 C 48.0942 3.67504 -2.6125 0
M  V30 469 C 46.7562 3.75078 -3.01447 0
M  V30 470 C 49.1082 3.80293 -3.56408 0
M  V30 471 C 46.4362 3.92915 -4.35701 0
M  V30 472 C 48.7882 3.99645 -4.90374 0
M  V30 473 C 47.4522 4.05453 -5.30249 0
M  V30 474 H 46.7222 0.690321 -0.26933 0
M  V30 475 H 49.3692 1.40641 -1.29971 0
M  V30 476 H 47.6742 3.88645 -0.496202 0
M  V30 477 H 49.3712 3.91072 -0.886789 0
M  V30 478 H 45.9612 3.62223 -2.29113 0
M  V30 479 H 50.1452 3.73779 -3.26501 0
M  V30 480 H 45.4012 3.95653 -4.66121 0
M  V30 481 H 49.5752 4.08482 -5.64017 0
M  V30 482 H 47.2022 4.19027 -6.34288 0
M  V30 483 N 48.7773 0.814389 1.34928 0
M  V30 484 C 49.7253 0.218424 2.31572 0
M  V30 485 C 50.7193 -0.636128 1.57002 0
M  V30 486 O 51.9253 -0.52842 1.72069 0
M  V30 487 H 48.3003 0.0518799 0.750208 0
M  V30 488 H 50.2713 1.04852 2.79372 0
M  V30 489 C 49.0203 -0.61207 3.4227 0
M  V30 490 H 48.3433 0.0361578 3.99784 0
M  V30 491 H 49.7833 -0.995317 4.12152 0
M  V30 492 C 48.2423 -1.78087 2.85984 0
M  V30 493 O 48.7723 -2.8787 2.80168 0
M  V30 494 N 46.9783 -1.59488 2.42924 0
M  V30 495 H 46.5253 -0.701874 2.47854 0
M  V30 496 H 46.4833 -2.37846 2.05613 0
M  V30 497 N 50.2554 -1.46986 0.568584 0
M  V30 498 C 51.2184 -2.28624 -0.162366 0
M  V30 499 C 52.2184 -1.37596 -0.832103 0
M  V30 500 O 53.4084 -1.60115 -0.68622 0
M  V30 501 C 50.5404 -3.17596 -1.23878 0
M  V30 502 H 51.7334 -2.94722 0.554899 0
M  V30 503 H 49.2864 -1.52863 0.325976 0
M  V30 504 H 50.0214 -2.56214 -1.98808 0
M  V30 505 H 49.8064 -3.846 -0.763219 0
M  V30 506 H 51.2964 -3.79078 -1.75185 0
M  V30 507 N 51.7335 -0.305618 -1.54608 0
M  V30 508 C 52.6815 0.584119 -2.25146 0
M  V30 509 C 53.6755 1.13326 -1.25911 0
M  V30 510 O 54.8815 1.08337 -1.43747 0
M  V30 511 H 51.2565 0.206983 -0.722954 0
M  V30 512 H 53.2275 -0.033291 -2.98381 0
M  V30 513 C 51.9765 1.74225 -3.009 0
M  V30 514 H 51.2995 1.32892 -3.77067 0
M  V30 515 H 52.7395 2.34077 -3.53531 0
M  V30 516 C 51.1985 2.64914 -2.0814 0
M  V30 517 O 51.7285 3.66137 -1.65246 0
M  V30 518 N 49.9345 2.3275 -1.74 0
M  V30 519 H 49.4815 1.50479 -2.09078 0
M  V30 520 H 49.4395 2.93694 -1.12211 0
M  V30 521 N 53.2116 1.57565 -0.0334293 0
M  V30 522 C 54.4576 1.93088 0.639417 0
M  V30 523 C 54.8126 0.910589 1.69488 0
M  V30 524 O 54.1056 -0.0727725 1.91462 0
M  V30 525 C 54.2996 3.33112 1.29504 0
M  V30 526 C 54.1286 4.48667 0.304604 0
M  V30 527 C 52.8986 5.05207 -0.0970777 0
M  V30 528 C 55.0966 5.1239 -0.442845 0
M  V30 529 N 53.0786 6.04286 -1.08223 0
M  V30 530 C 54.4496 6.06609 -1.28161 0
M  V30 531 C 56.5046 4.95352 -0.50308 0
M  V30 532 C 55.2076 6.85622 -2.17519 0
M  V30 533 C 57.2336 5.74978 -1.38401 0
M  V30 534 C 56.5956 6.68816 -2.21054 0
M  V30 535 H 52.6946 0.754335 0.206161 0
M  V30 536 H 55.2786 1.94435 -0.101613 0
M  V30 537 H 53.4496 3.32576 2.00618 0
M  V30 538 H 55.1816 3.55972 1.92525 0
M  V30 539 H 51.9366 4.72782 0.278255 0
M  V30 540 H 52.3606 6.58516 -1.57117 0
M  V30 541 H 57.0026 4.22625 0.121694 0
M  V30 542 H 54.7206 7.57652 -2.81049 0
M  V30 543 H 58.3066 5.63826 -1.43496 0
M  V30 544 H 57.1866 7.29355 -2.88116 0
M  V30 545 N 54.6897 -0.239769 1.55765 0
M  V30 546 C 55.5997 -1.31831 1.94056 0
M  V30 547 C 56.6157 -1.52275 0.841925 0
M  V30 548 O 57.7917 -1.65759 1.14394 0
M  V30 549 C 54.8567 -2.65156 2.23368 0
M  V30 550 C 53.9177 -2.53173 3.46701 0
M  V30 551 C 53.1507 -3.8014 3.74606 0
M  V30 552 O 53.3737 -4.82343 3.04469 0
M  V30 553 O 52.3077 -3.78344 4.68123 0
M  V30 554 H 56.1337 -1.02347 2.85935 0
M  V30 555 H 53.7187 -0.441123 1.42739 0
M  V30 556 H 55.6007 -3.43929 2.43497 0
M  V30 557 H 54.2757 -2.94358 1.34666 0
M  V30 558 H 53.1827 -1.72662 3.31871 0
M  V30 559 H 54.5157 -2.28915 4.35728 0
M  V30 560 N 56.1678 -1.49265 -0.50573 0
M  V30 561 C 57.1148 -1.65585 -1.6078 0
M  V30 562 C 58.0848 -0.497396 -1.58478 0
M  V30 563 O 59.2698 -0.72385 -1.76536 0
M  V30 564 C 56.4098 -1.72408 -2.98948 0
M  V30 565 C 55.5228 -2.99525 -3.11301 0
M  V30 566 C 54.6578 -2.97356 -4.40174 0
M  V30 567 C 53.6968 -4.19074 -4.46143 0
M  V30 568 N 52.8338 -4.14841 -5.66437 0
M  V30 569 H 57.6738 -2.59688 -1.46172 0
M  V30 570 H 55.2108 -1.28761 -0.711261 0
M  V30 571 H 57.1688 -1.74344 -3.79025 0
M  V30 572 H 55.7988 -0.817753 -3.1227 0
M  V30 573 H 54.8508 -3.07222 -2.24318 0
M  V30 574 H 56.1628 -3.89518 -3.11572 0
M  V30 575 H 55.3168 -2.97829 -5.28567 0
M  V30 576 H 54.0558 -2.05133 -4.42461 0
M  V30 577 H 53.0608 -4.1885 -3.56153 0
M  V30 578 H 54.2858 -5.12483 -4.45575 0
M  V30 579 H 52.2318 -3.25453 -5.69575 0
M  V30 580 H 52.1488 -4.98564 -5.68304 0
M  V30 581 H 53.4168 -4.1941 -6.57051 0
M  V30 582 N 57.6459 0.756429 -1.3826 0
M  V30 583 C 58.9229 1.50584 -1.24835 0
M  V30 584 C 59.3029 2.10556 0.151485 0
M  V30 585 O 58.6509 1.96825 1.1607 0
M  V30 586 C 58.8609 2.57448 -2.3563 0
M  V30 587 C 60.2089 3.24429 -2.73917 0
M  V30 588 O 61.2329 2.67751 -2.34921 0
M  V30 589 O 60.0919 4.26937 -3.41156 0
M  V30 590 H 57.1859 0.667664 -0.48801 0
M  V30 591 H 59.7319 0.792083 -1.5008 0
M  V30 592 H 58.5039 2.11362 -3.29305 0
M  V30 593 H 58.1269 3.36408 -2.11933 0
M  V30 594 N 59.124 1.23083 0.984299 0
M  V30 595 C 60.54 0.992637 1.24975 0
M  V30 596 C 60.74 -0.308618 1.99123 0
M  V30 597 O 59.796 -1.02905 2.30579 0
M  V30 598 C 61.109 2.19698 2.05312 0
M  V30 599 C 62.657 2.24147 2.18465 0
M  V30 600 C 63.132 3.44157 3.02192 0
M  V30 601 N 64.623 3.44372 3.09777 0
M  V30 602 C 65.358 4.33886 3.74874 0
M  V30 603 N 64.854 5.3363 4.41827 0
M  V30 604 N 66.647 4.21639 3.71721 0
M  V30 605 H 58.798 2.06731 0.487453 0
M  V30 606 H 61.061 0.906339 0.277944 0
M  V30 607 H 60.767 3.1411 1.58201 0
M  V30 608 H 60.641 2.20465 3.06064 0
M  V30 609 H 63.028 1.30277 2.64786 0
M  V30 610 H 63.109 2.27415 1.17115 0
M  V30 611 H 62.753 4.38332 2.56568 0
M  V30 612 H 62.683 3.3813 4.03702 0
M  V30 613 H 65.174 2.72201 2.62135 0
M  V30 614 H 65.487 5.98196 4.89266 0
M  V30 615 H 63.832 5.37534 4.40548 0
M  V30 616 H 67.023 3.42962 3.18582 0
M  V30 617 H 67.196 4.91604 4.22173 0
M  V30 618 N 60.6021 -1.18246 1.0419 0
M  V30 619 C 61.8301 -1.92195 0.766072 0
M  V30 620 C 62.2451 -1.76247 -0.676933 0
M  V30 621 O 61.6021 -1.09293 -1.46155 0
M  V30 622 C 61.6531 -3.43568 1.12442 0
M  V30 623 O 61.3741 -3.59015 2.51078 0
M  V30 624 C 62.8751 -4.34613 0.873275 0
M  V30 625 H 60.0951 -0.610114 0.279288 0
M  V30 626 H 62.6391 -1.50007 1.38989 0
M  V30 627 H 60.7941 -3.8354 0.545542 0
M  V30 628 H 61.2081 -4.5273 2.64831 0
M  V30 629 H 62.6821 -5.39374 1.17385 0
M  V30 630 H 63.1591 -4.38781 -0.191909 0
M  V30 631 H 63.7651 -4.00341 1.43551 0
M  V30 632 N 62.0802 -0.821533 -1.34494 0
M  V30 633 C 63.0282 -0.230702 -2.31453 0
M  V30 634 C 64.0222 0.627793 -1.57338 0
M  V30 635 O 65.2282 0.519288 -1.72347 0
M  V30 636 H 61.6032 -0.0558577 -0.749923 0
M  V30 637 H 63.5742 -1.06332 -2.78812 0
M  V30 638 C 62.3232 0.59391 -3.4259 0
M  V30 639 H 61.6462 -0.0573588 -3.99759 0
M  V30 640 H 63.0862 0.973446 -4.12674 0
M  V30 641 C 61.5452 1.76568 -2.86924 0
M  V30 642 O 62.0752 2.8638 -2.81691 0
M  V30 643 N 60.2812 1.58198 -2.43766 0
M  V30 644 H 59.8282 0.68872 -2.48222 0
M  V30 645 H 59.7862 2.36752 -2.06871 0
M  V30 646 N 63.5583 1.46682 -0.576371 0
M  V30 647 C 64.4903 2.28341 0.198231 0
M  V30 648 C 65.5033 1.38141 0.861453 0
M  V30 649 O 66.6923 1.62797 0.732082 0
M  V30 650 C 63.7923 3.12986 1.29972 0
M  V30 651 C 62.9653 4.31271 0.729639 0
M  V30 652 C 62.0243 4.97363 1.71803 0
M  V30 653 O 61.0503 5.55156 1.25658 0
M  V30 654 N 62.2523 4.93796 3.05198 0
M  V30 655 H 65.0173 2.9546 -0.502324 0
M  V30 656 H 62.5783 1.56525 -0.413715 0
M  V30 657 H 64.5703 3.54066 1.96008 0
M  V30 658 H 63.1403 2.47984 1.90323 0
M  V30 659 H 62.3603 3.94052 -0.108012 0
M  V30 660 H 63.6483 5.07739 0.328438 0
M  V30 661 H 63.0463 4.48077 3.45317 0
M  V30 662 H 61.6033 5.38837 3.6674 0
M  V30 663 N 65.0364 0.313813 1.54444 0
M  V30 664 C 66.2644 -0.293918 2.04802 0
M  V30 665 C 66.6794 -1.46537 1.19047 0
M  V30 666 O 66.0364 -1.81182 0.218939 0
M  V30 667 C 66.0874 -0.737806 3.53891 0
M  V30 668 O 65.8084 0.387038 4.36387 0
M  V30 669 C 67.3094 -1.40936 4.203 0
M  V30 670 H 64.5294 -0.0620057 0.668129 0
M  V30 671 H 67.0734 0.457169 1.99324 0
M  V30 672 H 65.2284 -1.43889 3.59687 0
M  V30 673 H 65.6424 0.0391274 5.24485 0
M  V30 674 H 67.1164 -1.67099 5.26101 0
M  V30 675 H 67.5934 -2.35355 3.70816 0
M  V30 676 H 68.1994 -0.751117 4.18615 0
M  V30 677 N 66.5145 -1.57545 0.0417849 0
M  V30 678 C 67.7625 -1.91937 -0.632829 0
M  V30 679 C 68.0835 -0.919978 -1.71934 0
M  V30 680 O 67.3535 0.0366064 -1.95866 0
M  V30 681 H 65.9335 -0.708493 -0.236742 0
M  V30 682 H 68.5955 -1.9468 0.0925745 0
M  V30 683 H 67.6915 -2.92912 -1.07746 0
M  V30 684 N 67.9926 0.231505 -1.5589 0
M  V30 685 C 69.2386 0.95877 -1.78705 0
M  V30 686 C 69.5716 1.8438 -0.609725 0
M  V30 687 O 68.8466 1.90521 0.391426 0
M  V30 688 C 69.1296 1.8062 -3.11526 0
M  V30 689 C 68.9826 0.948328 -4.39689 0
M  V30 690 C 70.3016 2.78585 -3.40703 0
M  V30 691 H 67.4206 0.347129 -0.650131 0
M  V30 692 H 70.0626 0.228259 -1.88624 0
M  V30 693 H 68.2126 2.42902 -3.03201 0
M  V30 694 H 69.8846 0.343016 -4.60023 0
M  V30 695 H 68.1276 0.253314 -4.3306 0
M  V30 696 H 68.7986 1.57543 -5.29041 0
M  V30 697 H 71.2746 2.26439 -3.49091 0
M  V30 698 H 70.1506 3.34988 -4.34826 0
M  V30 699 H 70.4116 3.55825 -2.62375 0
M  V30 700 N 69.4707 1.49531 0.497807 0
M  V30 701 C 70.3807 1.69176 1.62532 0
M  V30 702 C 71.3967 0.5744 1.64246 0
M  V30 703 O 72.5727 0.849497 1.82608 0
M  V30 704 C 69.6377 1.75695 2.98885 0
M  V30 705 C 68.6987 2.9929 3.07773 0
M  V30 706 C 67.9317 3.05488 4.37622 0
M  V30 707 O 68.1547 2.19192 5.26603 0
M  V30 708 O 67.0887 3.9798 4.51548 0
M  V30 709 H 70.9147 2.647 1.48887 0
M  V30 710 H 68.4997 1.3331 0.674441 0
M  V30 711 H 70.3817 1.82317 3.79919 0
M  V30 712 H 69.0567 0.8335 3.12785 0
M  V30 713 H 67.9637 2.98183 2.25915 0
M  V30 714 H 69.2967 3.91125 2.98801 0
M  V30 715 N 70.9488 -0.749086 1.3866 0
M  V30 716 C 72.3598 -1.32664 1.31366 0
M  V30 717 C 72.7108 -1.96179 -0.028484 0
M  V30 718 O 71.8358 -1.9537 -0.93057 0
M  V30 719 C 72.4308 -2.41219 2.37905 0
M  V30 720 C 70.9898 -2.94684 2.34176 0
M  V30 721 C 70.1368 -1.68108 2.20533 0
M  V30 722 H 73.0878 -0.547628 1.48952 0
M  V30 723 H 73.1088 -3.21268 2.0388 0
M  V30 724 H 72.6208 -1.94962 3.35576 0
M  V30 725 H 70.7218 -3.45258 1.401 0
M  V30 726 H 70.8348 -3.48757 3.2849 0
M  V30 727 H 69.1988 -1.91907 1.67463 0
M  V30 728 H 69.9818 -1.23923 3.20153 0
M  V30 729 N 72.4269 -1.23603 -0.977757 0
M  V30 730 C 73.6669 -1.08148 -1.73446 0
M  V30 731 C 74.0309 0.374785 -1.88307 0
M  V30 732 O 75.2319 0.650588 -2.60808 0
M  V30 733 C 73.5029 -1.78991 -3.0935 0
M  V30 734 S 75.0619 -1.79141 -4.00567 0
M  V30 735 H 71.8799 -0.386987 -0.596458 0
M  V30 736 H 74.4819 -1.5678 -1.16792 0
M  V30 737 H 73.1859 -2.8408 -2.96187 0
M  V30 738 H 72.7169 -1.30651 -3.71071 0
M  V30 739 H 74.7319 -0.851892 -4.88833 0
M  V30 740 N 73.905 1.17692 -1.04816 0
M  V30 741 C 75.135 1.91508 -0.775128 0
M  V30 742 C 75.543 1.76844 0.67253 0
M  V30 743 O 74.886 1.10057 1.47082 0
M  V30 744 C 74.948 3.43167 -1.0713 0
M  V30 745 C 74.612 3.81612 -2.51438 0
M  V30 746 C 75.609 3.84772 -3.49638 0
M  V30 747 C 73.294 4.12687 -2.86348 0
M  V30 748 C 75.288 4.18469 -4.80794 0
M  V30 749 C 72.975 4.46053 -4.17708 0
M  V30 750 C 73.973 4.48921 -5.14741 0
M  V30 751 O 73.661 4.81504 -6.43746 0
M  V30 752 H 73.393 0.614575 -0.281555 0
M  V30 753 H 75.947 1.50206 -1.40098 0
M  V30 754 H 74.177 3.84745 -0.388342 0
M  V30 755 H 75.866 3.98239 -0.784883 0
M  V30 756 H 76.632 3.60893 -3.24008 0
M  V30 757 H 72.511 4.09627 -2.11486 0
M  V30 758 H 76.055 4.20623 -5.56527 0
M  V30 759 H 71.952 4.69393 -4.43103 0
M  V30 760 H 72.72 4.99377 -6.4851 0
M  V30 761 N 75.3831 0.828654 1.34056 0
M  V30 762 C 76.6311 0.41863 1.97717 0
M  V30 763 C 76.9521 -1.02314 1.66002 0
M  V30 764 O 76.2221 -1.71119 0.953683 0
M  V30 765 H 74.8021 0.151809 0.731412 0
M  V30 766 H 77.4641 1.05936 1.63596 0
M  V30 767 H 76.5601 0.542318 3.07352 0
M  V30 768 N 76.8612 -1.46375 0.584142 0
M  V30 769 C 78.1382 -1.956 0.0033388 0
M  V30 770 C 78.5182 -1.52679 -1.45782 0
M  V30 771 O 77.8662 -0.77816 -2.14842 0
M  V30 772 C 78.0762 -3.48551 0.176891 0
M  V30 773 C 79.4242 -4.24576 0.0454609 0
M  V30 774 O 80.4482 -3.56043 0.105801 0
M  V30 775 O 79.3072 -5.46427 -0.0890376 0
M  V30 776 H 76.4012 -0.825547 -0.0490066 0
M  V30 777 H 78.9472 -1.56652 0.65256 0
M  V30 778 H 77.7192 -3.72683 1.1926 0
M  V30 779 H 77.3422 -3.94332 -0.508695 0
M  V30 780 N 78.3393 -0.321999 -1.54275 0
M  V30 781 C 79.2863 0.544664 -2.24281 0
M  V30 782 C 80.2563 1.1129 -1.23303 0
M  V30 783 O 81.4413 1.15354 -1.51981 0
M  V30 784 C 78.5813 1.70045 -3.00298 0
M  V30 785 C 77.6943 1.16159 -4.1609 0
M  V30 786 C 76.8293 2.28293 -4.79641 0
M  V30 787 C 75.8683 1.71648 -5.8754 0
M  V30 788 N 75.0053 2.77438 -6.44959 0
M  V30 789 H 79.8453 -0.0588907 -2.97942 0
M  V30 790 H 77.3823 -0.0408345 -1.47043 0
M  V30 791 H 79.3403 2.38054 -3.42616 0
M  V30 792 H 77.9703 2.27531 -2.28975 0
M  V30 793 H 77.0223 0.373092 -3.78566 0
M  V30 794 H 78.3343 0.707087 -4.93763 0
M  V30 795 H 77.4883 3.0421 -5.2492 0
M  V30 796 H 76.2273 2.77079 -4.01346 0
M  V30 797 H 75.2323 0.942282 -5.41665 0
M  V30 798 H 76.4573 1.23741 -6.67731 0
M  V30 799 H 74.4033 3.25519 -5.69538 0
M  V30 800 H 74.3203 2.36547 -7.1804 0
M  V30 801 H 75.5883 3.53189 -6.94894 0
M  V30 802 N 79.8174 1.5752 -0.0501392 0
M  V30 803 C 81.0944 1.83996 0.663685 0
M  V30 804 C 81.4744 0.938339 1.89099 0
M  V30 805 O 80.8224 -0.00087759 2.285 0
M  V30 806 C 81.0324 3.33702 1.02196 0
M  V30 807 C 82.3804 4.00691 1.40469 0
M  V30 808 O 83.4044 3.38321 1.11433 0
M  V30 809 O 82.2634 5.10658 1.94654 0
M  V30 810 H 79.3574 0.759385 0.32751 0
M  V30 811 H 81.9034 1.69514 -0.0794238 0
M  V30 812 H 80.6754 3.91015 0.149364 0
M  V30 813 H 80.2984 3.53368 1.82255 0
M  V30 814 N 81.2955 -0.223234 1.56011 0
M  V30 815 C 82.2425 -1.27664 1.92277 0
M  V30 816 C 83.2125 -1.46659 0.779763 0
M  V30 817 O 84.3975 -1.60256 1.03551 0
M  V30 818 C 81.5375 -2.62234 2.24338 0
M  V30 819 C 80.6505 -2.51051 3.51564 0
M  V30 820 C 79.7855 -3.78133 3.7308 0
M  V30 821 C 78.8245 -3.61665 4.93827 0
M  V30 822 N 77.9615 -4.80693 5.11741 0
M  V30 823 H 82.8015 -0.960358 2.82101 0
M  V30 824 H 80.3385 -0.462901 1.39627 0
M  V30 825 H 82.2965 -3.40596 2.40936 0
M  V30 826 H 80.9265 -2.91961 1.3769 0
M  V30 827 H 79.9785 -1.64132 3.43169 0
M  V30 828 H 81.2905 -2.34803 4.40079 0
M  V30 829 H 80.4445 -4.64938 3.89766 0
M  V30 830 H 79.1835 -3.97304 2.82844 0
M  V30 831 H 78.1885 -2.73244 4.77093 0
M  V30 832 H 79.4135 -3.43966 5.85546 0
M  V30 833 H 77.3595 -5.00181 4.24446 0
M  V30 834 H 77.2765 -4.67165 5.94384 0
M  V30 835 H 78.5445 -5.6893 5.3286 0
M  V30 836 N 82.7736 -1.49793 -0.48987 0
M  V30 837 C 84.1896 -1.36803 -0.822022 0
M  V30 838 C 84.3896 -0.409652 -1.97292 0
M  V30 839 O 83.4456 0.154614 -2.52026 0
M  V30 840 C 84.7586 -2.77768 -1.15175 0
M  V30 841 C 86.3066 -2.86549 -1.25931 0
M  V30 842 C 86.7816 -4.28306 -1.62228 0
M  V30 843 N 88.2726 -4.31169 -1.69256 0
M  V30 844 C 89.0076 -5.37832 -1.98807 0
M  V30 845 N 88.5036 -6.54726 -2.26507 0
M  V30 846 N 90.2966 -5.25258 -2.00152 0
M  V30 847 H 82.4476 -2.10691 0.268881 0
M  V30 848 H 84.7106 -0.946241 0.057728 0
M  V30 849 H 84.4166 -3.49648 -0.379335 0
M  V30 850 H 84.2906 -3.13836 -2.09253 0
M  V30 851 H 86.6776 -2.14899 -2.02243 0
M  V30 852 H 86.7586 -2.54049 -0.298776 0
M  V30 853 H 86.4026 -5.00486 -0.864622 0
M  V30 854 H 86.3326 -4.58279 -2.594 0
M  V30 855 H 88.8236 -3.4687 -1.49965 0
M  V30 856 H 89.1366 -7.31833 -2.48276 0
M  V30 857 H 87.4816 -6.57933 -2.23939 0
M  V30 858 H 90.6726 -4.32938 -1.77996 0
M  V30 859 H 90.8456 -6.08476 -2.22848 0
M  V30 860 N 84.2517 0.741722 -1.39055 0
M  V30 861 C 85.6677 1.04638 -1.20512 0
M  V30 862 C 85.8677 2.01405 -0.0620218 0
M  V30 863 O 84.9237 2.45547 0.588457 0
M  V30 864 C 86.2367 1.6151 -2.53643 0
M  V30 865 C 87.7847 1.73623 -2.6043 0
M  V30 866 C 88.2597 2.33906 -3.93767 0
M  V30 867 N 89.7507 2.41323 -3.9537 0
M  V30 868 C 90.4857 2.88888 -4.95309 0
M  V30 869 N 89.9817 3.36401 -6.05645 0
M  V30 870 N 91.7747 2.88037 -4.82692 0
M  V30 871 H 83.9257 0.0998155 -2.12165 0
M  V30 872 H 86.1887 0.106907 -0.941953 0
M  V30 873 H 85.8947 0.978739 -3.37807 0
M  V30 874 H 85.7687 2.60411 -2.72885 0
M  V30 875 H 88.1557 2.36384 -1.76655 0
M  V30 876 H 88.2367 0.733945 -2.45045 0
M  V30 877 H 87.8807 1.71776 -4.7797 0
M  V30 878 H 87.8107 3.34799 -4.06469 0
M  V30 879 H 90.3017 2.07734 -3.15682 0
M  V30 880 H 90.6147 3.71186 -6.77821 0
M  V30 881 H 88.9597 3.34427 -6.09248 0
M  V30 882 H 92.1507 2.50237 -3.95599 0
M  V30 883 H 92.3237 3.24792 -5.60726 0
M  V30 884 N 85.7298 1.2412 0.971189 0
M  V30 885 C 86.6798 0.997551 2.05019 0
M  V30 886 C 87.6638 -0.0597747 1.60789 0
M  V30 887 O 88.8558 0.153516 1.76333 0
M  V30 888 C 85.9848 0.600557 3.38006 0
M  V30 889 C 85.0708 1.69377 3.88809 0
M  V30 890 N 85.4618 2.92586 4.12586 0
M  V30 891 C 83.7598 1.57048 4.17435 0
M  V30 892 C 84.4608 3.63431 4.54195 0
M  V30 893 N 83.4368 2.90979 4.59165 0
M  V30 894 H 87.2388 1.93316 2.21374 0
M  V30 895 H 84.7528 1.14194 1.1547 0
M  V30 896 H 86.7498 0.40725 4.14906 0
M  V30 897 H 85.4098 -0.327903 3.2304 0
M  V30 898 H 86.4208 3.288 4.00139 0
M  V30 899 H 83.0978 0.709798 4.11422 0
M  V30 900 H 84.4878 4.69102 4.81033 0
M  V30 901 N 87.2079 -1.17134 1.05439 0
M  V30 902 C 88.4479 -1.89137 0.77502 0
M  V30 903 C 88.8119 -1.79345 -0.685526 0
M  V30 904 O 90.0129 -2.46188 -1.0791 0
M  V30 905 C 88.2839 -3.35003 1.2453 0
M  V30 906 S 89.8429 -4.24952 1.09367 0
M  V30 907 H 86.6609 -0.652949 0.281387 0
M  V30 908 H 89.2629 -1.4145 1.34953 0
M  V30 909 H 87.9669 -3.39666 2.30338 0
M  V30 910 H 87.4979 -3.87736 0.665166 0
M  V30 911 H 89.5129 -4.96196 0.0193397 0
M  V30 912 N 88.686 -0.835752 -1.33615 0
M  V30 913 C 89.933 -0.429959 -1.97883 0
M  V30 914 C 90.261 1.01006 -1.66217 0
M  V30 915 O 89.516 1.72047 -0.93265 0
M  V30 916 C 89.815 -0.593925 -3.52431 0
M  V30 917 C 89.481 -2.00158 -4.04039 0
M  V30 918 C 88.143 -2.38662 -4.17844 0
M  V30 919 C 90.495 -2.92117 -4.31644 0
M  V30 920 C 87.823 -3.68435 -4.56588 0
M  V30 921 C 90.175 -4.21368 -4.71838 0
M  V30 922 C 88.839 -4.59833 -4.83849 0
M  V30 923 H 88.109 -0.157333 -0.724104 0
M  V30 924 H 90.756 -1.06217 -1.59343 0
M  V30 925 H 89.061 0.121619 -3.91611 0
M  V30 926 H 90.758 -0.260282 -4.00154 0
M  V30 927 H 87.348 -1.69252 -3.93766 0
M  V30 928 H 91.532 -2.63608 -4.20505 0
M  V30 929 H 86.788 -3.98046 -4.64079 0
M  V30 930 H 90.962 -4.92703 -4.92155 0
M  V30 931 H 88.589 -5.60438 -5.13627 0
M  V30 932 N 90.1641 1.46063 -0.591896 0
M  V30 933 C 91.1271 2.28854 0.125973 0
M  V30 934 C 92.1271 1.38903 0.810107 0
M  V30 935 O 93.3171 1.61186 0.66066 0
M  V30 936 C 90.4491 3.19526 1.1881 0
M  V30 937 H 91.6421 2.93802 -0.601717 0
M  V30 938 H 89.1951 1.52325 -0.350254 0
M  V30 939 H 89.9301 2.59345 1.94707 0
M  V30 940 H 89.7151 3.85766 0.701936 0
M  V30 941 H 91.2051 3.81817 1.69132 0
M  V30 942 N 91.6422 0.330177 1.54103 0
M  V30 943 C 92.8702 -0.272179 2.05102 0
M  V30 944 C 93.2852 -1.45267 1.20595 0
M  V30 945 O 92.6422 -1.8094 0.238144 0
M  V30 946 C 92.6932 -0.70023 3.54653 0
M  V30 947 O 92.4142 0.433301 4.35952 0
M  V30 948 C 93.9152 -1.3647 4.21771 0
M  V30 949 H 91.1352 -0.0549159 0.668749 0
M  V30 950 H 93.6792 0.478285 1.98828 0
M  V30 951 H 91.8342 -1.40066 3.61193 0
M  V30 952 H 92.2482 0.0947539 5.24414 0
M  V30 953 H 93.7222 -1.61509 5.27843 0
M  V30 954 H 94.1992 -2.31409 3.73292 0
M  V30 955 H 94.8052 -0.706675 4.19388 0
M  V30 956 N 93.1203 -1.57491 0.0584922 0
M  V30 957 C 94.3663 -1.94081 -0.608617 0
M  V30 958 C 94.7213 -0.937438 -1.68017 0
M  V30 959 O 94.0143 0.0423034 -1.91553 0
M  V30 960 C 94.2083 -3.3513 -1.24188 0
M  V30 961 C 94.0373 -4.49095 -0.233187 0
M  V30 962 C 92.8073 -5.04988 0.177439 0
M  V30 963 C 95.0053 -5.1162 0.524306 0
M  V30 964 N 92.9873 -6.02487 1.17823 0
M  V30 965 C 94.3583 -6.04493 1.37796 0
M  V30 966 C 96.4133 -4.94489 0.581822 0
M  V30 967 C 95.1163 -6.82075 2.28399 0
M  V30 968 C 97.1423 -5.72703 1.47531 0
M  V30 969 C 96.5043 -6.65214 2.31667 0
M  V30 970 H 92.6033 -0.75752 -0.194134 0
M  V30 971 H 95.1873 -1.94248 0.132533 0
M  V30 972 H 93.3583 -3.35726 -1.95302 0
M  V30 973 H 95.0903 -3.5899 -1.86838 0
M  V30 974 H 91.8453 -4.73165 -0.203004 0
M  V30 975 H 92.2693 -6.55933 1.67573 0
M  V30 976 H 96.9113 -4.22765 -0.054443 0
M  V30 977 H 94.6293 -7.53085 2.93067 0
M  V30 978 H 98.2153 -5.61472 1.52448 0
M  V30 979 H 97.0953 -7.24679 2.99683 0
M  V30 980 N 94.5984 0.214957 -1.56127 0
M  V30 981 C 95.5454 1.26642 -1.92952 0
M  V30 982 C 96.5154 1.46244 -0.78753 0
M  V30 983 O 97.7004 1.59704 -1.04399 0
M  V30 984 C 94.8404 2.6104 -2.25726 0
M  V30 985 C 93.9534 2.49183 -3.52891 0
M  V30 986 C 93.0884 3.76149 -3.7508 0
M  V30 987 C 92.1274 3.59041 -4.95738 0
M  V30 988 N 91.2644 4.77972 -5.14283 0
M  V30 989 H 96.1044 0.945384 -2.82607 0
M  V30 990 H 93.6414 0.455489 -1.3987 0
M  V30 991 H 95.5994 3.39313 -2.42739 0
M  V30 992 H 94.2294 2.91227 -1.39236 0
M  V30 993 H 93.2814 1.6231 -3.44034 0
M  V30 994 H 94.5934 2.32466 -4.41318 0
M  V30 995 H 93.7474 4.62865 -3.92226 0
M  V30 996 H 92.4864 3.95799 -2.84947 0
M  V30 997 H 91.4914 2.7071 -4.78535 0
M  V30 998 H 92.7164 3.40856 -5.87362 0
M  V30 999 H 90.6624 4.97923 -4.27093 0
M  V30 1000 H 90.5794 4.64006 -5.96853 0
M  V30 1001 H 91.8474 5.66096 -5.35869 0
M  V30 1002 N 96.0765 1.50051 0.48192 0
M  V30 1003 C 97.0245 1.68635 1.60203 0
M  V30 1004 C 98.0185 0.552184 1.60148 0
M  V30 1005 O 99.2245 0.732377 1.64427 0
M  V30 1006 H 95.5995 0.532081 0.531407 0
M  V30 1007 H 97.5705 2.62616 1.41688 0
M  V30 1008 C 96.3195 1.78775 2.9822 0
M  V30 1009 H 95.6425 2.6543 2.98976 0
M  V30 1010 H 97.0825 1.95806 3.7608 0
M  V30 1011 C 95.5415 0.536849 3.32595 0
M  V30 1012 O 96.0715 -0.328897 4.00351 0
M  V30 1013 N 94.2775 0.394091 2.87915 0
M  V30 1014 H 93.8245 1.09962 2.32951 0
M  V30 1015 H 93.7825 -0.441737 3.11281 0
M  V30 1016 N 97.5546 -0.734337 1.39446 0
M  V30 1017 C 98.8036 -1.48937 1.36017 0
M  V30 1018 C 99.1166 -1.95557 -0.0409005 0
M  V30 1019 O 100.323 -2.70779 -0.19778 0
M  V30 1020 C 98.7786 -2.69125 2.38955 0
M  V30 1021 C 98.3866 -2.29452 3.8478 0
M  V30 1022 C 100.131 -3.46944 2.44603 0
M  V30 1023 C 98.0376 -3.46366 4.79358 0
M  V30 1024 H 96.9676 -0.559296 0.505672 0
M  V30 1025 H 99.6186 -0.800983 1.65095 0
M  V30 1026 H 98.0006 -3.40041 2.02948 0
M  V30 1027 H 99.1746 -1.66077 4.29831 0
M  V30 1028 H 97.4896 -1.64723 3.82433 0
M  V30 1029 H 100.087 -4.33907 3.12456 0
M  V30 1030 H 100.43 -3.89454 1.47076 0
M  V30 1031 H 100.963 -2.83056 2.79507 0
M  V30 1032 H 97.7016 -3.08905 5.78151 0
M  V30 1033 H 97.2216 -4.08719 4.38986 0
M  V30 1034 H 98.9006 -4.12691 4.98292 0
M  V30 1035 N 99.0327 -1.24633 -0.964593 0
M  V30 1036 C 100.258 -1.11596 -1.74818 0
M  V30 1037 C 100.683 0.32723 -1.85232 0
M  V30 1038 O 100.041 1.23695 -1.32549 0
M  V30 1039 C 100.089 -1.76397 -3.1451 0
M  V30 1040 O 99.1927 -1.03685 -3.99153 0
M  V30 1041 H 98.5337 -0.390196 -0.537255 0
M  V30 1042 H 101.064 -1.65002 -1.20977 0
M  V30 1043 H 101.074 -1.8228 -3.65018 0
M  V30 1044 H 99.7487 -2.81401 -3.06246 0
M  V30 1045 H 98.3257 -1.05611 -3.57632 0
M  V30 1046 N 100.511 1.16574 -1.06058 0
M  V30 1047 C 101.759 1.86677 -0.77434 0
M  V30 1048 C 102.08 1.81959 0.701147 0
M  V30 1049 O 101.35 1.2515 1.50713 0
M  V30 1050 H 99.9298 0.691134 -0.283449 0
M  V30 1051 H 102.592 1.41378 -1.34158 0
M  V30 1052 H 101.688 2.92181 -1.09711 0
M  V30 1053 N 101.989 0.842826 1.3317 0
M  V30 1054 C 103.214 0.453129 2.02389 0
M  V30 1055 C 103.639 -0.939105 1.6298 0
M  V30 1056 O 102.997 -1.61472 0.8244 0
M  V30 1057 C 103.045 0.586094 3.55805 0
M  V30 1058 O 102.149 -0.386029 4.10589 0
M  V30 1059 H 101.49 0.183664 0.638094 0
M  V30 1060 H 104.02 1.13875 1.69981 0
M  V30 1061 H 104.03 0.469209 4.05293 0
M  V30 1062 H 102.705 1.6014 3.83833 0
M  V30 1063 H 101.282 -0.226371 3.72212 0
M  V30 1064 N 103.467 -1.45747 0.599634 0
M  V30 1065 C 104.716 -2.01502 0.0893511 0
M  V30 1066 C 105.029 -1.4748 -1.28488 0
M  V30 1067 O 106.235 -1.95161 -1.88745 0
M  V30 1068 C 104.691 -3.59735 0.109082 0
M  V30 1069 C 104.299 -4.22754 1.48267 0
M  V30 1070 C 106.043 -4.23085 -0.346374 0
M  V30 1071 C 103.95 -5.73115 1.45921 0
M  V30 1072 H 102.88 -0.753417 0.0296347 0
M  V30 1073 H 105.531 -1.67303 0.753788 0
M  V30 1074 H 103.913 -3.91087 -0.621854 0
M  V30 1075 H 105.087 -4.02987 2.23468 0
M  V30 1076 H 103.402 -3.71567 1.87955 0
M  V30 1077 H 105.999 -5.33327 -0.38298 0
M  V30 1078 H 106.342 -3.93201 -1.36743 0
M  V30 1079 H 106.875 -3.9642 0.331038 0
M  V30 1080 H 103.614 -6.07685 2.45762 0
M  V30 1081 H 103.134 -5.95097 0.749665 0
M  V30 1082 H 104.813 -6.3616 1.17941 0
M  V30 1083 N 104.945 -0.338344 -1.53925 0
M  V30 1084 C 105.855 0.529421 -2.28548 0
M  V30 1085 C 106.871 1.11645 -1.3346 0
M  V30 1086 O 108.047 1.13325 -1.66492 0
M  V30 1087 C 105.112 1.66713 -3.03987 0
M  V30 1088 C 104.173 1.11041 -4.14691 0
M  V30 1089 C 103.406 2.19389 -4.86522 0
M  V30 1090 O 103.629 3.40013 -4.57982 0
M  V30 1091 O 102.563 1.83976 -5.73094 0
M  V30 1092 H 106.389 -0.0770399 -3.03602 0
M  V30 1093 H 103.974 -0.103555 -1.49041 0
M  V30 1094 H 105.856 2.32918 -3.5118 0
M  V30 1095 H 104.531 2.25949 -2.31794 0
M  V30 1096 H 103.438 0.413024 -3.71813 0
M  V30 1097 H 104.771 0.562975 -4.8897 0
M  V30 1098 N 106.423 1.57458 -0.0668435 0
M  V30 1099 C 107.672 1.92477 0.602947 0
M  V30 1100 C 107.985 0.948419 1.71068 0
M  V30 1101 O 109.191 1.19124 2.43971 0
M  V30 1102 C 107.647 3.41903 1.12383 0
M  V30 1103 C 107.255 4.47975 0.04737 0
M  V30 1104 C 108.999 3.85931 1.76797 0
M  V30 1105 C 106.906 5.88529 0.582022 0
M  V30 1106 H 105.836 0.718387 0.22899 0
M  V30 1107 H 108.487 1.82978 -0.138276 0
M  V30 1108 H 106.869 3.46459 1.91787 0
M  V30 1109 H 108.043 4.55029 -0.726978 0
M  V30 1110 H 106.358 4.13384 -0.500243 0
M  V30 1111 H 108.955 4.88322 2.17821 0
M  V30 1112 H 109.298 3.23029 2.62599 0
M  V30 1113 H 109.831 3.83958 1.04024 0
M  V30 1114 H 106.57 6.55065 -0.238721 0
M  V30 1115 H 106.09 5.85004 1.324 0
M  V30 1116 H 107.769 6.38258 1.05999 0
M  V30 1117 N 107.901 -0.206675 1.56239 0
M  V30 1118 C 109.147 -0.930218 1.80208 0
M  V30 1119 C 109.48 -1.83387 0.638981 0
M  V30 1120 O 108.755 -1.91119 -0.361066 0
M  V30 1121 C 109.038 -1.75641 3.1436 0
M  V30 1122 C 108.891 -0.878257 4.41142 0
M  V30 1123 C 110.21 -2.73129 3.45092 0
M  V30 1124 H 107.329 -0.336742 0.655571 0
M  V30 1125 H 109.971 -0.198222 1.88963 0
M  V30 1126 H 108.121 -2.38048 3.07027 0
M  V30 1127 H 109.793 -0.269787 4.6051 0
M  V30 1128 H 108.036 -0.184385 4.33408 0
M  V30 1129 H 108.707 -1.49106 5.3148 0
M  V30 1130 H 111.183 -2.20856 3.52649 0
M  V30 1131 H 110.059 -3.28028 4.40101 0
M  V30 1132 H 110.32 -3.51606 2.68003 0
M  V30 1133 N 109.379 -1.50304 -0.473955 0
M  V30 1134 C 110.326 -1.68959 -1.57231 0
M  V30 1135 C 111.296 -0.530899 -1.57387 0
M  V30 1136 O 112.481 -0.761133 -1.74961 0
M  V30 1137 C 109.621 -1.7871 -2.95223 0
M  V30 1138 C 108.734 -3.06061 -3.04878 0
M  V30 1139 C 107.869 -3.06626 -4.33767 0
M  V30 1140 C 106.908 -4.28443 -4.37154 0
M  V30 1141 N 106.045 -4.26763 -5.5751 0
M  V30 1142 H 110.885 -2.6273 -1.40631 0
M  V30 1143 H 108.422 -1.30241 -0.683789 0
M  V30 1144 H 110.38 -1.82344 -3.75242 0
M  V30 1145 H 109.01 -0.883806 -3.10465 0
M  V30 1146 H 108.062 -3.11911 -2.17751 0
M  V30 1147 H 109.374 -3.96039 -3.0324 0
M  V30 1148 H 108.528 -3.08973 -5.22131 0
M  V30 1149 H 107.267 -2.14473 -4.3801 0
M  V30 1150 H 106.272 -4.2631 -3.47188 0
M  V30 1151 H 107.497 -5.2182 -4.34605 0
M  V30 1152 H 105.443 -3.37462 -5.62544 0
M  V30 1153 H 105.36 -5.10507 -5.57601 0
M  V30 1154 H 106.628 -4.33253 -6.48006 0
M  V30 1155 N 110.857 0.726932 -1.39834 0
M  V30 1156 C 111.789 1.85147 -1.35104 0
M  V30 1157 C 112.802 1.60736 -0.258392 0
M  V30 1158 O 113.991 1.70821 -0.517931 0
M  V30 1159 C 111.091 3.21332 -1.07697 0
M  V30 1160 C 110.264 3.73033 -2.28396 0
M  V30 1161 C 109.323 4.87802 -1.97322 0
M  V30 1162 O 108.349 5.01043 -2.70083 0
M  V30 1163 N 109.551 5.72768 -0.944273 0
M  V30 1164 H 112.316 1.89706 -2.32017 0
M  V30 1165 H 109.877 0.908006 -1.3404 0
M  V30 1166 H 111.869 3.95691 -0.849144 0
M  V30 1167 H 110.439 3.11992 -0.194909 0
M  V30 1168 H 109.659 2.89934 -2.6708 0
M  V30 1169 H 110.947 4.0431 -3.08887 0
M  V30 1170 H 110.345 5.64669 -0.341427 0
M  V30 1171 H 108.902 6.4716 -0.776346 0
M  V30 1172 N 112.336 1.25143 0.95797 0
M  V30 1173 C 113.584 1.09476 1.69881 0
M  V30 1174 C 113.905 -0.365502 1.91544 0
M  V30 1175 O 113.175 -1.25985 1.50015 0
M  V30 1176 H 111.755 0.402128 0.629525 0
M  V30 1177 H 114.417 1.57214 1.15194 0
M  V30 1178 H 113.513 1.60046 2.6794 0
M  V30 1179 N 113.814 -1.1601 1.06675 0
M  V30 1180 C 115.054 -1.88304 0.795037 0
M  V30 1181 C 115.418 -1.80062 -0.666466 0
M  V30 1182 O 116.619 -2.47319 -1.05293 0
M  V30 1183 C 114.89 -3.33664 1.28076 0
M  V30 1184 S 116.449 -4.23768 1.13868 0
M  V30 1185 H 113.267 -0.649928 0.288296 0
M  V30 1186 H 115.869 -1.4001 1.36445 0
M  V30 1187 H 114.573 -3.37203 2.33927 0
M  V30 1188 H 114.104 -3.87009 0.706253 0
M  V30 1189 H 116.119 -4.96148 0.0719668 0
M  V30 1190 N 115.292 -0.849877 -1.32721 0
M  V30 1191 C 116.538 -0.460855 -1.9811 0
M  V30 1192 C 116.893 0.971716 -1.66059 0
M  V30 1193 O 116.186 1.67184 -0.935944 0
M  V30 1194 C 116.38 -0.631272 -3.51781 0
M  V30 1195 C 116.209 -2.07886 -3.98765 0
M  V30 1196 C 114.979 -2.71637 -4.26077 0
M  V30 1197 C 117.177 -3.04889 -4.14182 0
M  V30 1198 N 115.159 -4.07356 -4.59276 0
M  V30 1199 C 116.53 -4.25583 -4.50865 0
M  V30 1200 C 118.585 -3.01148 -3.96503 0
M  V30 1201 C 117.288 -5.43027 -4.71714 0
M  V30 1202 C 119.314 -4.17832 -4.18533 0
M  V30 1203 C 118.676 -5.37284 -4.55528 0
M  V30 1204 H 114.775 -0.217283 -0.751207 0
M  V30 1205 H 117.359 -1.10026 -1.60631 0
M  V30 1206 H 115.53 -0.0215966 -3.88394 0
M  V30 1207 H 117.262 -0.212614 -4.04141 0
M  V30 1208 H 114.017 -2.22705 -4.17971 0
M  V30 1209 H 114.441 -4.77351 -4.80068 0
M  V30 1210 H 119.083 -2.0992 -3.67006 0
M  V30 1211 H 116.801 -6.34791 -5.00066 0
M  V30 1212 H 120.387 -4.16368 -4.06361 0
M  V30 1213 H 119.267 -6.26071 -4.72234 0
M  V30 1214 N 116.77 1.45427 -0.607355 0
M  V30 1215 C 117.7 2.3329 0.0989352 0
M  V30 1216 C 118.681 1.46816 0.859007 0
M  V30 1217 O 119.866 1.75588 0.829604 0
M  V30 1218 C 116.996 3.29518 1.09705 0
M  V30 1219 C 115.95 4.25626 0.450206 0
M  V30 1220 C 115.276 5.11542 1.55655 0
M  V30 1221 C 116.576 5.18505 -0.628455 0
M  V30 1222 H 118.27 2.92595 -0.634716 0
M  V30 1223 H 115.816 1.40696 -0.306681 0
M  V30 1224 H 117.769 3.89855 1.59971 0
M  V30 1225 H 116.493 2.68372 1.86129 0
M  V30 1226 H 115.152 3.66586 -0.0315886 0
M  V30 1227 H 114.8 4.46765 2.31107 0
M  V30 1228 H 114.5 5.76647 1.12925 0
M  V30 1229 H 116.024 5.74748 2.06148 0
M  V30 1230 H 117.438 5.72916 -0.209877 0
M  V30 1231 H 115.835 5.92085 -0.977489 0
M  V30 1232 H 116.905 4.60948 -1.50514 0
M  V30 1233 N 118.248 0.346503 1.53744 0
M  V30 1234 C 119.525 -0.304532 1.93215 0
M  V30 1235 C 119.905 -1.67993 1.27834 0
M  V30 1236 O 119.253 -2.24411 0.430352 0
M  V30 1237 C 119.463 -0.373852 3.46992 0
M  V30 1238 C 120.811 -0.62329 4.2 0
M  V30 1239 O 121.835 -0.455847 3.53271 0
M  V30 1240 O 120.694 -0.947879 5.38217 0
M  V30 1241 H 117.788 -0.178318 0.807547 0
M  V30 1242 H 120.334 0.397895 1.64969 0
M  V30 1243 H 119.106 0.591224 3.86808 0
M  V30 1244 H 118.729 -1.12294 3.81413 0
M  V30 1245 N 119.726 -1.57421 0.075193 0
M  V30 1246 C 121.003 -1.85029 -0.634329 0
M  V30 1247 C 121.383 -0.968305 -1.87582 0
M  V30 1248 O 120.731 -0.0354749 -2.28472 0
M  V30 1249 C 120.941 -3.35286 -0.968742 0
M  V30 1250 C 122.289 -4.02875 -1.34077 0
M  V30 1251 O 123.313 -3.40051 -1.06037 0
M  V30 1252 O 122.172 -5.13691 -1.86506 0
M  V30 1253 H 119.266 -0.7645 -0.315387 0
M  V30 1254 H 121.812 -1.69366 0.106382 0
M  V30 1255 H 120.584 -3.91203 -0.0871376 0
M  V30 1256 H 120.207 -3.56223 -1.7661 0
M  V30 1257 N 121.204 0.198386 -1.56346 0
M  V30 1258 C 122.453 0.917451 -1.79627 0
M  V30 1259 C 122.766 1.8456 -0.64784 0
M  V30 1260 O 123.972 2.60504 -0.764859 0
M  V30 1261 C 122.428 1.68175 -3.18191 0
M  V30 1262 C 122.036 0.798589 -4.40825 0
M  V30 1263 C 123.78 2.39065 -3.50782 0
M  V30 1264 C 121.687 1.56157 -5.70411 0
M  V30 1265 H 120.617 0.346317 -0.669762 0
M  V30 1266 H 123.268 0.170801 -1.82703 0
M  V30 1267 H 121.65 2.47216 -3.09354 0
M  V30 1268 H 122.824 0.0470665 -4.60776 0
M  V30 1269 H 121.139 0.200686 -4.15916 0
M  V30 1270 H 123.736 2.96692 -4.44835 0
M  V30 1271 H 124.079 3.13091 -2.74371 0
M  V30 1272 H 124.612 1.66993 -3.61052 0
M  V30 1273 H 121.351 0.864142 -6.49779 0
M  V30 1274 H 120.871 2.2871 -5.54483 0
M  V30 1275 H 122.55 2.11622 -6.11412 0
M  V30 1276 N 122.682 1.50554 0.465978 0
M  V30 1277 C 123.63 1.70324 1.58406 0
M  V30 1278 C 124.624 0.569139 1.59553 0
M  V30 1279 O 125.83 0.749776 1.63641 0
M  V30 1280 H 122.205 0.537688 0.525734 0
M  V30 1281 H 124.176 2.64104 1.38894 0
M  V30 1282 C 122.925 1.81928 2.96307 0
M  V30 1283 H 122.248 2.68586 2.96144 0
M  V30 1284 H 123.688 1.99784 3.73982 0
M  V30 1285 C 122.147 0.572095 3.32007 0
M  V30 1286 O 122.677 -0.286416 4.00678 0
M  V30 1287 N 120.883 0.424606 2.87481 0
M  V30 1288 H 120.43 1.12427 2.31771 0
M  V30 1289 H 120.388 -0.408697 3.11732 0
M  V30 1290 N 124.16 -0.719506 1.40217 0
M  V30 1291 C 125.4 -1.49181 1.39729 0
M  V30 1292 C 125.764 -1.92 -0.00250614 0
M  V30 1293 O 126.965 -2.68473 -0.132479 0
M  V30 1294 C 125.236 -2.68767 2.35582 0
M  V30 1295 S 126.795 -3.58224 2.53418 0
M  V30 1296 H 123.613 -0.510091 0.495307 0
M  V30 1297 H 126.215 -0.841724 1.76452 0
M  V30 1298 H 124.919 -2.35475 3.36124 0
M  V30 1299 H 124.45 -3.38691 2.0013 0
M  V30 1300 H 126.465 -4.63033 1.78367 0
M  V30 1301 N 125.638 -1.25649 -0.95132 0
M  V30 1302 C 126.868 -1.13179 -1.72841 0
M  V30 1303 C 127.276 0.316827 -1.86528 0
M  V30 1304 O 126.619 1.22948 -1.3649 0
M  V30 1305 C 126.681 -1.71644 -3.15878 0
M  V30 1306 C 126.345 -3.20667 -3.25609 0
M  V30 1307 C 127.342 -4.17616 -3.09666 0
M  V30 1308 C 125.027 -3.6094 -3.49324 0
M  V30 1309 C 127.021 -5.52817 -3.17289 0
M  V30 1310 C 124.708 -4.96278 -3.56584 0
M  V30 1311 C 125.706 -5.92025 -3.40581 0
M  V30 1312 O 125.394 -7.24899 -3.47528 0
M  V30 1313 H 125.126 -0.395389 -0.54831 0
M  V30 1314 H 127.68 -1.66566 -1.20187 0
M  V30 1315 H 125.91 -1.12707 -3.69911 0
M  V30 1316 H 127.599 -1.54225 -3.75459 0
M  V30 1317 H 128.365 -3.87842 -2.91211 0
M  V30 1318 H 124.244 -2.86907 -3.6084 0
M  V30 1319 H 127.788 -6.2753 -3.04716 0
M  V30 1320 H 123.685 -5.25716 -3.74556 0
M  V30 1321 H 124.453 -7.33039 -3.64138 0
M  V30 1322 N 127.117 1.15442 -1.07289 0
M  V30 1323 C 128.394 1.82306 -0.708792 0
M  V30 1324 C 128.774 1.94991 0.808807 0
M  V30 1325 O 128.122 1.50085 1.72298 0
M  V30 1326 C 128.332 3.18695 -1.42247 0
M  V30 1327 C 129.68 3.94341 -1.57417 0
M  V30 1328 O 130.704 3.28247 -1.38319 0
M  V30 1329 O 129.563 5.12839 -1.88834 0
M  V30 1330 H 126.657 0.787628 -0.252132 0
M  V30 1331 H 129.203 1.22559 -1.17377 0
M  V30 1332 H 127.975 3.04557 -2.45684 0
M  V30 1333 H 127.598 3.86128 -0.948223 0
M  V30 1334 N 128.595 0.856903 1.32268 0
M  V30 1335 C 130.011 0.547061 1.49931 0
M  V30 1336 C 130.211 -0.921781 1.7918 0
M  V30 1337 O 129.267 -1.70469 1.8627 0
M  V30 1338 C 130.58 1.43599 2.64196 0
M  V30 1339 C 132.128 1.43665 2.78081 0
M  V30 1340 C 132.603 2.31085 3.95428 0
M  V30 1341 N 134.094 2.28893 4.02694 0
M  V30 1342 C 134.829 2.93262 4.92732 0
M  V30 1343 N 134.325 3.66751 5.87763 0
M  V30 1344 N 136.118 2.82638 4.85873 0
M  V30 1345 H 128.269 1.8075 1.11549 0
M  V30 1346 H 130.532 0.772144 0.549997 0
M  V30 1347 H 130.238 2.48058 2.49319 0
M  V30 1348 H 130.112 1.12502 3.60032 0
M  V30 1349 H 132.499 0.399701 2.92381 0
M  V30 1350 H 132.58 1.7878 1.82952 0
M  V30 1351 H 132.224 3.34849 3.81888 0
M  V30 1352 H 132.154 1.93302 4.89839 0
M  V30 1353 H 134.645 1.75466 3.34694 0
M  V30 1354 H 134.958 4.13027 6.53168 0
M  V30 1355 H 133.303 3.70859 5.87783 0
M  V30 1356 H 136.494 2.24774 4.10602 0
M  V30 1357 H 136.667 3.33084 5.55841 0
M  V30 1358 N 130.073 -1.45103 0.615059 0
M  V30 1359 C 131.301 -2.06553 0.11977 0
M  V30 1360 C 131.716 -1.45842 -1.19898 0
M  V30 1361 O 131.073 -0.575325 -1.73194 0
M  V30 1362 C 131.124 -3.61495 -0.018364 0
M  V30 1363 O 130.845 -4.19942 1.24822 0
M  V30 1364 C 132.346 -4.39947 -0.544237 0
M  V30 1365 H 129.566 -0.667096 0.0722739 0
M  V30 1366 H 132.11 -1.8623 0.84491 0
M  V30 1367 H 130.265 -3.81135 -0.693865 0
M  V30 1368 H 130.679 -5.13204 1.0827 0
M  V30 1369 H 132.153 -5.48838 -0.589953 0
M  V30 1370 H 132.63 -4.10255 -1.56805 0
M  V30 1371 H 133.236 -4.25188 0.0974703 0
M  V30 1372 N 131.551 -0.354651 -1.53558 0
M  V30 1373 C 132.828 0.294281 -1.93374 0
M  V30 1374 C 133.208 1.67313 -1.28723 0
M  V30 1375 O 132.556 2.24179 -0.442247 0
M  V30 1376 C 132.766 0.355445 -3.47185 0
M  V30 1377 C 134.114 0.601007 -4.20325 0
M  V30 1378 O 135.138 0.437106 -3.53508 0
M  V30 1379 O 133.997 0.919322 -5.38712 0
M  V30 1380 H 131.091 0.174033 -0.808481 0
M  V30 1381 H 133.637 -0.406638 -1.64756 0
M  V30 1382 H 132.409 -0.611729 -3.86489 0
M  V30 1383 H 132.032 1.1027 -3.82003 0
M  V30 1384 N 133.029 1.57378 -0.0835403 0
M  V30 1385 C 134.269 1.95808 0.586381 0
M  V30 1386 C 134.633 0.963706 1.66062 0
M  V30 1387 O 135.834 1.23608 2.38693 0
M  V30 1388 C 134.105 3.38808 1.13771 0
M  V30 1389 S 135.664 3.99225 1.82112 0
M  V30 1390 H 132.482 0.684675 0.191679 0
M  V30 1391 H 135.084 1.94843 -0.160194 0
M  V30 1392 H 133.788 4.08954 0.344197 0
M  V30 1393 H 133.319 3.43344 1.92038 0
M  V30 1394 H 135.334 3.87087 3.10449 0
M  V30 1395 N 134.507 -0.190092 1.56449 0
M  V30 1396 C 135.753 -0.911052 1.81184 0
M  V30 1397 C 136.086 -1.82699 0.658396 0
M  V30 1398 O 135.361 -1.91491 -0.340775 0
M  V30 1399 C 135.644 -1.72297 3.16205 0
M  V30 1400 C 135.497 -0.831419 4.42049 0
M  V30 1401 C 136.816 -2.69454 3.47969 0
M  V30 1402 H 133.935 -0.32977 0.659106 0
M  V30 1403 H 136.577 -0.178169 1.89163 0
M  V30 1404 H 134.727 -2.34778 3.09534 0
M  V30 1405 H 136.399 -0.220929 4.60771 0
M  V30 1406 H 134.642 -0.138406 4.33579 0
M  V30 1407 H 135.313 -1.43461 5.33032 0
M  V30 1408 H 137.789 -2.17104 3.54972 0
M  V30 1409 H 136.665 -3.23342 4.43555 0
M  V30 1410 H 136.926 -3.48744 2.71717 0
M  V30 1411 N 135.985 -1.50799 -0.457987 0
M  V30 1412 C 136.895 -1.73426 -1.57989 0
M  V30 1413 C 137.911 -0.617745 -1.62665 0
M  V30 1414 O 139.087 -0.897614 -1.80291 0
M  V30 1415 C 136.152 -1.83557 -2.94122 0
M  V30 1416 C 135.213 -3.07345 -2.99729 0
M  V30 1417 C 134.446 -3.16983 -4.29368 0
M  V30 1418 O 134.669 -2.33077 -5.20607 0
M  V30 1419 O 133.603 -4.09812 -4.40837 0
M  V30 1420 H 137.429 -2.68555 -1.41817 0
M  V30 1421 H 135.014 -1.35052 -0.638859 0
M  V30 1422 H 136.896 -1.92326 -3.74952 0
M  V30 1423 H 135.571 -0.916137 -3.10465 0
M  V30 1424 H 134.478 -3.04068 -2.1793 0
M  V30 1425 H 135.811 -3.9891 -2.88326 0
M  V30 1426 N 137.463 0.71206 -1.40597 0
M  V30 1427 C 138.41 1.82613 -1.41142 0
M  V30 1428 C 139.38 1.63925 -0.267903 0
M  V30 1429 O 140.565 1.85009 -0.466495 0
M  V30 1430 C 137.705 3.20354 -1.28324 0
M  V30 1431 C 136.818 3.50589 -2.52411 0
M  V30 1432 C 135.953 4.77855 -2.32009 0
M  V30 1433 C 134.992 5.01005 -3.51654 0
M  V30 1434 N 134.129 6.19487 -3.30425 0
M  V30 1435 H 138.969 1.81482 -2.36365 0
M  V30 1436 H 136.506 0.886475 -1.17388 0
M  V30 1437 H 138.464 3.99899 -1.18899 0
M  V30 1438 H 137.094 3.20705 -0.367189 0
M  V30 1439 H 136.146 2.65573 -2.72351 0
M  V30 1440 H 137.458 3.63604 -3.41458 0
M  V30 1441 H 136.612 5.65424 -2.19956 0
M  V30 1442 H 135.351 4.67056 -1.40392 0
M  V30 1443 H 134.356 4.1189 -3.64179 0
M  V30 1444 H 135.581 5.13674 -4.44202 0
M  V30 1445 H 133.527 6.09932 -2.41494 0
M  V30 1446 H 133.444 6.33194 -4.13039 0
M  V30 1447 H 134.712 7.09834 -3.22113 0
M  V30 1448 N 138.941 1.26152 0.944643 0
M  V30 1449 C 139.888 1.07408 2.04285 0
M  V30 1450 C 140.858 -0.0198413 1.66088 0
M  V30 1451 O 142.043 0.139264 1.90291 0
M  V30 1452 C 139.183 0.70945 3.37729 0
M  V30 1453 C 138.296 1.87926 3.88983 0
M  V30 1454 C 137.431 1.45807 5.10797 0
M  V30 1455 C 136.47 2.5964 5.54305 0
M  V30 1456 N 135.607 2.18226 6.67324 0
M  V30 1457 H 140.447 2.01389 2.1965 0
M  V30 1458 H 137.984 1.00275 1.07626 0
M  V30 1459 H 139.942 0.478948 4.14442 0
M  V30 1460 H 138.572 -0.193389 3.2222 0
M  V30 1461 H 137.624 2.22279 3.08701 0
M  V30 1462 H 138.936 2.73377 4.17213 0
M  V30 1463 H 138.09 1.18781 5.94959 0
M  V30 1464 H 136.829 0.574414 4.84305 0
M  V30 1465 H 135.834 2.87399 4.68702 0
M  V30 1466 H 137.059 3.48599 5.828 0
M  V30 1467 H 135.005 1.3229 6.42523 0
M  V30 1468 H 134.922 2.97221 6.95123 0
M  V30 1469 H 136.19 1.94403 7.54869 0
M  V30 1470 N 140.419 -1.14872 1.07899 0
M  V30 1471 C 141.696 -1.81928 0.71845 0
M  V30 1472 C 142.076 -1.95417 -0.798455 0
M  V30 1473 O 141.424 -1.50997 -1.715 0
M  V30 1474 C 141.634 -3.17937 1.43935 0
M  V30 1475 C 142.982 -3.93501 1.59506 0
M  V30 1476 O 144.006 -3.27509 1.40058 0
M  V30 1477 O 142.865 -5.1183 1.91551 0
M  V30 1478 H 139.959 -0.78628 0.256305 0
M  V30 1479 H 142.505 -1.21934 1.18026 0
M  V30 1480 H 141.277 -3.0325 2.47295 0
M  V30 1481 H 140.9 -3.85619 0.968687 0
M  V30 1482 N 141.898 -0.863906 -1.31812 0
M  V30 1483 C 143.123 -0.48527 -2.01643 0
M  V30 1484 C 143.548 0.913058 -1.64453 0
M  V30 1485 O 142.906 1.6014 -0.849985 0
M  V30 1486 C 142.954 -0.642625 -3.54828 0
M  V30 1487 O 142.058 0.320659 -4.11151 0
M  V30 1488 H 141.399 -0.193793 -0.635091 0
M  V30 1489 H 143.929 -1.16565 -1.68148 0
M  V30 1490 H 143.939 -0.533628 -4.04495 0
M  V30 1491 H 142.614 -1.66227 -3.81237 0
M  V30 1492 H 141.191 0.167126 -3.72525 0
M  V30 1493 N 143.376 1.44774 -0.622745 0
M  V30 1494 C 144.787 1.85546 -0.207226 0
M  V30 1495 C 145.138 1.52093 1.23944 0
M  V30 1496 O 144.263 0.95492 1.94191 0
M  V30 1497 C 144.858 3.36781 -0.369313 0
M  V30 1498 C 143.417 3.76399 -0.00836847 0
M  V30 1499 C 142.564 2.68664 -0.686651 0
M  V30 1500 H 145.515 1.3536 -0.828454 0
M  V30 1501 H 145.536 3.78453 0.394162 0
M  V30 1502 H 145.048 3.61098 -1.42231 0
M  V30 1503 H 143.149 3.57698 1.04322 0
M  V30 1504 H 143.262 4.7732 -0.412584 0
M  V30 1505 H 141.626 2.54404 -0.122777 0
M  V30 1506 H 142.409 2.95815 -1.74208 0
M  V30 1507 N 144.854 0.36279 1.53368 0
M  V30 1508 C 145.764 -0.492994 2.29362 0
M  V30 1509 C 146.78 -1.09507 1.35219 0
M  V30 1510 O 147.956 -1.10662 1.68273 0
M  V30 1511 C 145.021 -1.61855 3.066 0
M  V30 1512 C 144.082 -1.04429 4.16405 0
M  V30 1513 C 143.315 -2.11621 4.89951 0
M  V30 1514 O 143.538 -3.32684 4.63333 0
M  V30 1515 O 142.472 -1.74835 5.75948 0
M  V30 1516 H 146.298 0.125331 3.03441 0
M  V30 1517 H 143.883 0.127253 1.48857 0
M  V30 1518 H 145.765 -2.27302 3.54841 0
M  V30 1519 H 144.44 -2.22233 2.3536 0
M  V30 1520 H 143.347 -0.353819 3.72423 0
M  V30 1521 H 144.68 -0.485113 4.89804 0
M  V30 1522 N 146.332 -1.57332 0.0918853 0
M  V30 1523 C 147.578 -1.94524 -0.573425 0
M  V30 1524 C 147.911 -0.973578 -1.68033 0
M  V30 1525 O 147.186 -0.00609226 -1.94499 0
M  V30 1526 C 147.469 -3.41858 -1.13161 0
M  V30 1527 C 147.322 -4.4979 -0.0299747 0
M  V30 1528 C 148.641 -3.90435 -2.03098 0
M  V30 1529 H 145.76 -0.70734 -0.206975 0
M  V30 1530 H 148.402 -1.89309 0.161942 0
M  V30 1531 H 146.552 -3.46433 -1.7583 0
M  V30 1532 H 148.224 -4.57327 0.604112 0
M  V30 1533 H 146.467 -4.291 0.636833 0
M  V30 1534 H 147.138 -5.50069 -0.461287 0
M  V30 1535 H 149.614 -3.87992 -1.50338 0
M  V30 1536 H 148.49 -4.94097 -2.39081 0
M  V30 1537 H 148.751 -3.29541 -2.94712 0
M  V30 1538 N 147.81 0.181792 -1.56548 0
M  V30 1539 C 149.04 0.914618 -1.85252 0
M  V30 1540 C 149.448 1.76791 -0.673914 0
M  V30 1541 O 148.791 1.80009 0.366416 0
M  V30 1542 C 148.853 1.85019 -3.08234 0
M  V30 1543 C 148.517 1.17754 -4.41569 0
M  V30 1544 C 149.514 0.548035 -5.17003 0
M  V30 1545 C 147.199 1.17742 -4.88305 0
M  V30 1546 C 149.193 -0.0726128 -6.37359 0
M  V30 1547 C 146.88 0.552946 -6.08593 0
M  V30 1548 C 147.878 -0.070978 -6.82963 0
M  V30 1549 O 147.566 -0.685635 -8.00971 0
M  V30 1550 H 147.298 0.271695 -0.618998 0
M  V30 1551 H 149.852 0.189944 -2.0452 0
M  V30 1552 H 148.082 2.61491 -2.84885 0
M  V30 1553 H 149.771 2.45195 -3.23472 0
M  V30 1554 H 150.537 0.540174 -4.81982 0
M  V30 1555 H 146.416 1.65246 -4.30366 0
M  V30 1556 H 149.96 -0.560213 -6.95347 0
M  V30 1557 H 145.857 0.558354 -6.43081 0
M  V30 1558 H 146.625 -0.58385 -8.16415 0
M  V30 1559 N 149.288 1.51039 0.449983 0
M  V30 1560 C 150.535 1.63081 1.20045 0
M  V30 1561 C 150.863 0.341024 1.91487 0
M  V30 1562 O 150.118 -0.674276 1.83717 0
M  V30 1563 C 150.417 2.77556 2.25161 0
M  V30 1564 C 150.083 4.17289 1.70823 0
M  V30 1565 C 148.745 4.55305 1.55725 0
M  V30 1566 C 151.097 5.04536 1.3074 0
M  V30 1567 C 148.425 5.78287 0.989999 0
M  V30 1568 C 150.777 6.28085 0.754482 0
M  V30 1569 C 149.441 6.64885 0.590308 0
M  V30 1570 H 148.711 0.596755 0.439277 0
M  V30 1571 H 151.358 1.85037 0.49333 0
M  V30 1572 H 149.663 2.49771 3.01863 0
M  V30 1573 H 151.36 2.84073 2.83026 0
M  V30 1574 H 147.95 3.8731 1.83546 0
M  V30 1575 H 152.134 4.75782 1.41229 0
M  V30 1576 H 147.39 6.05456 0.850451 0
M  V30 1577 H 151.564 6.95038 0.435324 0
M  V30 1578 H 149.191 7.60055 0.14862 0
M  V30 1579 N 150.766 -0.704594 1.40972 0
M  V30 1580 C 152.006 -1.47691 1.41304 0
M  V30 1581 C 152.37 -1.91992 0.0178582 0
M  V30 1582 O 153.571 -2.68599 -0.103996 0
M  V30 1583 C 151.842 -2.66254 2.38419 0
M  V30 1584 S 153.401 -3.55516 2.57204 0
M  V30 1585 H 150.219 -0.504808 0.500689 0
M  V30 1586 H 152.821 -0.822962 1.77335 0
M  V30 1587 H 151.525 -2.31897 3.38603 0
M  V30 1588 H 151.056 -3.3655 2.03711 0
M  V30 1589 H 153.071 -4.61115 1.83268 0
M  V30 1590 N 152.244 -1.26651 -0.937939 0
M  V30 1591 C 153.484 -1.13611 -1.69917 0
M  V30 1592 C 153.848 0.314687 -1.89404 0
M  V30 1593 O 155.049 0.567285 -2.62746 0
M  V30 1594 C 153.32 -1.88742 -3.03498 0
M  V30 1595 S 154.879 -1.91794 -3.94665 0
M  V30 1596 H 151.697 -0.405767 -0.583844 0
M  V30 1597 H 154.299 -1.60416 -1.11745 0
M  V30 1598 H 153.003 -2.9336 -2.86999 0
M  V30 1599 H 152.534 -1.42391 -3.66727 0
M  V30 1600 H 154.549 -1.00698 -4.85875 0
M  V30 1601 N 153.722 1.14298 -1.08507 0
M  V30 1602 C 154.962 1.87016 -0.824894 0
M  V30 1603 C 155.326 1.81099 0.637735 0
M  V30 1604 O 156.527 2.48963 1.01345 0
M  V30 1605 C 154.798 3.31584 -1.33368 0
M  V30 1606 S 156.357 4.21903 -1.20596 0
M  V30 1607 H 153.175 0.645259 -0.2986 0
M  V30 1608 H 155.777 1.37822 -1.38656 0
M  V30 1609 H 154.481 3.33439 -2.39262 0
M  V30 1610 H 154.012 3.85836 -0.767734 0
M  V30 1611 H 156.027 4.95971 -0.150891 0
M  V30 1612 N 155.201 0.870884 1.31352 0
M  V30 1613 C 156.111 0.330783 2.32256 0
M  V30 1614 C 157.127 -0.559767 1.6475 0
M  V30 1615 O 158.303 -0.456263 1.96164 0
M  V30 1616 C 155.368 -0.458137 3.4366 0
M  V30 1617 C 154.429 0.460482 4.26823 0
M  V30 1618 C 153.662 -0.290881 5.32907 0
M  V30 1619 O 153.885 -1.51885 5.49806 0
M  V30 1620 O 152.819 0.351732 6.00871 0
M  V30 1621 H 156.645 1.16718 2.80376 0
M  V30 1622 H 154.23 0.634285 1.35267 0
M  V30 1623 H 156.112 -0.905343 4.1156 0
M  V30 1624 H 154.787 -1.27106 2.97701 0
M  V30 1625 H 153.694 0.956207 3.61673 0
M  V30 1626 H 155.027 1.23903 4.7635 0
M  V30 1627 N 156.679 -1.44442 0.630414 0
M  V30 1628 C 157.927 -2.01653 0.134351 0
M  V30 1629 C 158.248 -1.49836 -1.24796 0
M  V30 1630 O 157.518 -0.701684 -1.82902 0
M  V30 1631 H 156.098 -0.74554 0.0466769 0
M  V30 1632 H 158.76 -1.76952 0.816955 0
M  V30 1633 H 157.856 -3.11935 0.101498 0
M  V30 1634 N 158.157 -0.370918 -1.53173 0
M  V30 1635 C 159.105 0.488101 -2.27421 0
M  V30 1636 C 160.099 1.07884 -1.30604 0
M  V30 1637 O 161.305 1.02143 -1.48212 0
M  V30 1638 H 157.68 0.176134 -0.731082 0
M  V30 1639 H 159.651 -0.159815 -2.97972 0
M  V30 1640 C 158.4 1.61306 -3.08019 0
M  V30 1641 H 157.723 1.1678 -3.82364 0
M  V30 1642 H 159.163 2.18872 -3.63141 0
M  V30 1643 C 157.622 2.55848 -2.19188 0
M  V30 1644 O 158.152 3.58799 -1.80626 0
M  V30 1645 N 156.358 2.2516 -1.83715 0
M  V30 1646 H 155.905 1.41476 -2.15273 0
M  V30 1647 H 155.863 2.8867 -1.24567 0
M  V30 1648 N 159.635 1.57281 -0.100228 0
M  V30 1649 C 160.568 2.09976 0.893612 0
M  V30 1650 C 161.546 1.01155 1.27304 0
M  V30 1651 O 162.73 1.28687 1.37739 0
M  V30 1652 C 159.857 2.58098 2.19324 0
M  V30 1653 C 158.903 3.78626 1.96328 0
M  V30 1654 S 159.736 5.21959 1.19662 0
M  V30 1655 C 160.892 5.73435 2.50844 0
M  V30 1656 H 161.125 2.93946 0.44534 0
M  V30 1657 H 158.658 1.53985 0.113167 0
M  V30 1658 H 160.616 2.8648 2.94005 0
M  V30 1659 H 159.277 1.74344 2.61272 0
M  V30 1660 H 158.47 4.10382 2.92579 0
M  V30 1661 H 158.072 3.50763 1.29775 0
M  V30 1662 H 160.364 5.82015 3.46792 0
M  V30 1663 H 161.307 6.7185 2.23659 0
M  V30 1664 H 161.715 5.01395 2.59352 0
M  V30 1665 N 161.113 -0.173488 1.56642 0
M  V30 1666 C 162.353 -0.896984 1.83667 0
M  V30 1667 C 162.717 -1.79523 0.680842 0
M  V30 1668 O 163.918 -2.55616 0.831488 0
M  V30 1669 C 162.189 -1.67351 3.15798 0
M  V30 1670 S 163.748 -2.44607 3.64298 0
M  V30 1671 H 160.566 -0.300464 0.644393 0
M  V30 1672 H 163.168 -0.158775 1.94854 0
M  V30 1673 H 161.872 -1.00462 3.97914 0
M  V30 1674 H 161.403 -2.45313 3.07546 0
M  V30 1675 H 163.418 -3.69261 3.31452 0
M  V30 1676 N 162.591 -1.51276 -0.441967 0
M  V30 1677 C 163.539 -1.72823 -1.55676 0
M  V30 1678 C 164.533 -0.59445 -1.58627 0
M  V30 1679 O 165.739 -0.775715 -1.62427 0
M  V30 1680 H 162.114 -0.545983 -0.517113 0
M  V30 1681 H 164.085 -2.6628 -1.34675 0
M  V30 1682 C 162.834 -1.86619 -2.93375 0
M  V30 1683 H 162.157 -2.73264 -2.91834 0
M  V30 1684 H 163.597 -2.05709 -3.70756 0
M  V30 1685 C 162.056 -0.624842 -3.31055 0
M  V30 1686 O 162.586 0.222636 -4.01083 0
M  V30 1687 N 160.792 -0.470288 -2.86769 0
M  V30 1688 H 160.339 -1.161 -2.29953 0
M  V30 1689 H 160.297 0.359051 -3.12343 0
M  V30 1690 N 164.069 0.697108 -1.41344 0
M  V30 1691 C 164.979 1.84088 -1.45427 0
M  V30 1692 C 165.995 1.70545 -0.34501 0
M  V30 1693 O 167.171 1.92488 -0.592492 0
M  V30 1694 C 164.236 3.20056 -1.33286 0
M  V30 1695 C 163.297 3.45718 -2.54514 0
M  V30 1696 C 162.53 4.75199 -2.42944 0
M  V30 1697 O 162.753 5.51579 -1.45318 0
M  V30 1698 O 161.687 5.0161 -3.32672 0
M  V30 1699 H 165.513 1.836 -2.41919 0
M  V30 1700 H 163.098 0.849966 -1.22866 0
M  V30 1701 H 164.98 4.01236 -1.28794 0
M  V30 1702 H 163.655 3.2123 -0.39909 0
M  V30 1703 H 162.562 2.64474 -2.64583 0
M  V30 1704 H 163.895 3.49356 -3.46715 0
M  V30 1705 N 165.547 1.27147 0.931209 0
M  V30 1706 C 166.494 1.09568 2.03134 0
M  V30 1707 C 167.464 -0.00222433 1.661 0
M  V30 1708 O 168.649 0.159439 1.90133 0
M  V30 1709 C 165.789 0.745231 3.36957 0
M  V30 1710 C 164.902 1.92041 3.86968 0
M  V30 1711 C 164.037 1.51216 5.09222 0
M  V30 1712 C 163.076 2.65504 5.5152 0
M  V30 1713 N 162.213 2.25291 6.64972 0
M  V30 1714 H 167.053 2.03708 2.17502 0
M  V30 1715 H 164.59 1.01411 1.06556 0
M  V30 1716 H 166.548 0.522878 4.1391 0
M  V30 1717 H 165.178 -0.159202 3.22407 0
M  V30 1718 H 164.23 2.25541 3.06326 0
M  V30 1719 H 165.542 2.77787 4.1429 0
M  V30 1720 H 164.696 1.25084 5.93666 0
M  V30 1721 H 163.435 0.625749 4.83669 0
M  V30 1722 H 162.44 2.92354 4.65628 0
M  V30 1723 H 163.665 3.54761 5.7907 0
M  V30 1724 H 161.611 1.39098 6.41083 0
M  V30 1725 H 161.528 3.04577 6.91931 0
M  V30 1726 H 162.796 2.02398 7.52765 0
M  V30 1727 N 167.025 -1.13721 1.09112 0
M  V30 1728 C 168.272 -1.84924 0.825192 0
M  V30 1729 C 168.6 -1.83347 -0.649151 0
M  V30 1730 O 167.855 -1.26449 -1.49362 0
M  V30 1731 C 168.154 -3.32861 1.30146 0
M  V30 1732 C 167.82 -3.54621 2.78486 0
M  V30 1733 C 166.482 -3.60268 3.18999 0
M  V30 1734 C 168.834 -3.62855 3.74146 0
M  V30 1735 C 166.162 -3.71679 4.53951 0
M  V30 1736 C 168.514 -3.75793 5.08883 0
M  V30 1737 C 167.178 -3.79692 5.4899 0
M  V30 1738 H 166.448 -0.676684 0.301959 0
M  V30 1739 H 169.095 -1.3428 1.36533 0
M  V30 1740 H 167.4 -3.85835 0.681064 0
M  V30 1741 H 169.097 -3.86395 1.07236 0
M  V30 1742 H 165.687 -3.50879 2.46134 0
M  V30 1743 H 169.871 -3.57775 3.43963 0
M  V30 1744 H 165.127 -3.72963 4.84467 0
M  V30 1745 H 169.301 -3.81107 5.82864 0
M  V30 1746 H 166.928 -3.88287 6.53558 0
M  V30 1747 N 168.503 -0.877838 -1.30888 0
M  V30 1748 C 169.728 -0.506629 -2.01117 0
M  V30 1749 C 170.153 0.895564 -1.65412 0
M  V30 1750 O 169.511 1.5923 -0.866922 0
M  V30 1751 C 169.559 -0.680223 -3.54126 0
M  V30 1752 O 168.663 0.277033 -4.11468 0
M  V30 1753 H 168.004 -0.200518 -0.633 0
M  V30 1754 H 170.534 -1.18342 -1.66902 0
M  V30 1755 H 170.544 -0.5765 -4.03907 0
M  V30 1756 H 169.219 -1.70261 -3.79452 0
M  V30 1757 H 167.796 0.127606 -3.72682 0
M  V30 1758 N 169.982 1.44106 -0.638065 0
M  V30 1759 C 171.212 2.06037 -0.152394 0
M  V30 1760 C 171.62 1.47808 1.18108 0
M  V30 1761 O 170.963 0.598092 1.73691 0
M  V30 1762 C 171.025 3.59488 0.0293714 0
M  V30 1763 C 170.689 4.4022 -1.22702 0
M  V30 1764 C 171.686 4.73256 -2.15232 0
M  V30 1765 C 169.371 4.8048 -1.46437 0
M  V30 1766 C 171.365 5.45444 -3.29802 0
M  V30 1767 C 169.052 5.52417 -2.61303 0
M  V30 1768 C 170.05 5.84819 -3.52811 0
M  V30 1769 O 169.738 6.55289 -4.65673 0
M  V30 1770 H 169.47 0.671233 -0.0801401 0
M  V30 1771 H 172.024 1.85851 -0.874563 0
M  V30 1772 H 170.254 3.78191 0.806758 0
M  V30 1773 H 171.943 4.03164 0.470475 0
M  V30 1774 H 172.709 4.42684 -1.98131 0
M  V30 1775 H 168.588 4.54676 -0.760977 0
M  V30 1776 H 172.132 5.70653 -4.01249 0
M  V30 1777 H 168.029 5.82404 -2.78344 0
M  V30 1778 H 168.797 6.73762 -4.64744 0
M  V30 1779 N 171.46 0.379036 1.52974 0
M  V30 1780 C 172.707 -0.206421 2.01445 0
M  V30 1781 C 173.035 -1.47668 1.26587 0
M  V30 1782 O 172.29 -1.92514 0.351675 0
M  V30 1783 C 172.589 -0.53096 3.53434 0
M  V30 1784 C 172.255 0.646546 4.46241 0
M  V30 1785 C 170.917 0.969604 4.7133 0
M  V30 1786 C 173.269 1.43479 5.01062 0
M  V30 1787 C 170.597 2.08263 5.48492 0
M  V30 1788 C 172.949 2.53834 5.7944 0
M  V30 1789 C 171.613 2.86659 6.02812 0
M  V30 1790 H 170.883 -0.0755349 0.73714 0
M  V30 1791 H 173.53 0.514271 1.84465 0
M  V30 1792 H 171.835 -1.33285 3.68432 0
M  V30 1793 H 173.532 -0.996417 3.88423 0
M  V30 1794 H 170.122 0.384734 4.2687 0
M  V30 1795 H 174.306 1.19844 4.81613 0
M  V30 1796 H 169.562 2.34078 5.64816 0
M  V30 1797 H 173.736 3.15319 6.20924 0
M  V30 1798 H 171.363 3.73026 6.62387 0
M  V30 1799 N 172.938 -1.57226 0.108567 0
M  V30 1800 C 174.349 -1.8195 -0.418464 0
M  V30 1801 C 174.7 -1.02508 -1.67292 0
M  V30 1802 O 173.825 -0.258496 -2.14851 0
M  V30 1803 C 174.42 -3.30028 -0.765979 0
M  V30 1804 C 172.979 -3.55469 -1.23769 0
M  V30 1805 C 172.126 -2.7625 -0.241106 0
M  V30 1806 H 175.077 -1.55149 0.33384 0
M  V30 1807 H 175.098 -3.44086 -1.62434 0
M  V30 1808 H 174.61 -3.87821 0.147219 0
M  V30 1809 H 172.711 -3.03022 -2.16814 0
M  V30 1810 H 172.824 -4.6408 -1.19022 0
M  V30 1811 H 171.188 -2.44133 -0.72602 0
M  V30 1812 H 171.971 -3.36797 0.665007 0
M  V30 1813 N 174.416 0.165178 -1.56732 0
M  V30 1814 C 175.326 1.22423 -2.00125 0
M  V30 1815 C 176.342 1.48084 -0.913619 0
M  V30 1816 O 177.518 1.60112 -1.22172 0
M  V30 1817 C 174.583 2.54197 -2.35764 0
M  V30 1818 C 173.644 2.36343 -3.58386 0
M  V30 1819 C 172.877 3.61834 -3.92316 0
M  V30 1820 O 173.1 4.67267 -3.27135 0
M  V30 1821 O 172.034 3.55579 -4.85641 0
M  V30 1822 H 175.86 0.885886 -2.90492 0
M  V30 1823 H 173.445 0.372518 -1.44681 0
M  V30 1824 H 175.327 3.3192 -2.59629 0
M  V30 1825 H 174.002 2.87598 -1.48557 0
M  V30 1826 H 172.909 1.56632 -3.39731 0
M  V30 1827 H 174.242 2.07865 -4.46154 0
M  V30 1828 N 175.894 1.51508 0.433938 0
M  V30 1829 C 176.827 1.67756 1.54704 0
M  V30 1830 C 177.805 0.525127 1.53887 0
M  V30 1831 O 178.989 0.749393 1.72963 0
M  V30 1832 C 176.116 1.69424 2.9328 0
M  V30 1833 C 175.162 2.90673 3.12108 0
M  V30 1834 S 175.995 4.51431 2.88046 0
M  V30 1835 C 177.151 4.55849 4.28897 0
M  V30 1836 H 177.384 2.61904 1.40689 0
M  V30 1837 H 174.917 1.41235 0.62386 0
M  V30 1838 H 176.875 1.7107 3.73156 0
M  V30 1839 H 175.536 0.764464 3.04655 0
M  V30 1840 H 174.729 2.88251 4.13434 0
M  V30 1841 H 174.331 2.86786 2.40062 0
M  V30 1842 H 176.623 4.31699 5.22152 0
M  V30 1843 H 177.566 5.57676 4.36351 0
M  V30 1844 H 177.974 3.85137 4.12711 0
M  V30 1845 N 177.372 -0.689602 1.41712 0
M  V30 1846 C 178.282 -1.83314 1.46401 0
M  V30 1847 C 179.298 -1.7036 0.35405 0
M  V30 1848 O 180.474 -1.92171 0.602692 0
M  V30 1849 C 177.539 -3.19344 1.34982 0
M  V30 1850 C 176.6 -3.44363 2.56344 0
M  V30 1851 C 175.833 -4.73904 2.45461 0
M  V30 1852 O 176.056 -5.508 1.48241 0
M  V30 1853 O 174.99 -4.99839 3.35328 0
M  V30 1854 H 178.816 -1.82314 2.42889 0
M  V30 1855 H 176.401 -0.843438 1.23315 0
M  V30 1856 H 178.283 -4.00547 1.3092 0
M  V30 1857 H 176.958 -3.21014 0.41612 0
M  V30 1858 H 175.865 -2.63067 2.65982 0
M  V30 1859 H 177.198 -3.47512 3.48563 0
M  V30 1860 N 178.85 -1.27639 -0.924453 0
M  V30 1861 C 180.096 -1.14336 -1.67497 0
M  V30 1862 C 180.429 0.309465 -1.91718 0
M  V30 1863 O 179.704 1.22608 -1.50989 0
M  V30 1864 C 179.987 -1.93096 -3.0395 0
M  V30 1865 C 179.84 -3.46381 -2.8695 0
M  V30 1866 C 181.159 -1.73798 -4.0433 0
M  V30 1867 H 178.278 -0.416728 -0.607871 0
M  V30 1868 H 180.92 -1.56832 -1.07256 0
M  V30 1869 H 179.07 -1.56982 -3.55372 0
M  V30 1870 H 180.742 -3.92343 -2.42621 0
M  V30 1871 H 178.985 -3.72557 -2.22225 0
M  V30 1872 H 179.656 -3.96735 -3.83804 0
M  V30 1873 H 182.132 -2.05293 -3.61931 0
M  V30 1874 H 181.008 -2.31294 -4.97789 0
M  V30 1875 H 181.269 -0.686725 -4.36734 0
M  V30 1876 N 180.328 1.1314 -1.09713 0
M  V30 1877 C 181.556 1.88321 -0.856898 0
M  V30 1878 C 181.971 1.79276 0.592073 0
M  V30 1879 O 181.328 1.16142 1.40774 0
M  V30 1880 C 181.379 3.37812 -1.28706 0
M  V30 1881 O 181.1 3.46627 -2.67921 0
M  V30 1882 C 182.601 4.29952 -1.07964 0
M  V30 1883 H 179.821 0.596094 -0.308079 0
M  V30 1884 H 182.365 1.43205 -1.45988 0
M  V30 1885 H 180.52 3.805 -0.727912 0
M  V30 1886 H 180.934 4.39579 -2.8613 0
M  V30 1887 H 182.408 5.33159 -1.42986 0
M  V30 1888 H 182.885 4.39196 -0.0176577 0
M  V30 1889 H 183.491 3.93036 -1.62489 0
M  V30 1890 N 181.806 0.884767 1.30421 0
M  V30 1891 C 182.738 0.308655 2.27112 0
M  V30 1892 C 183.751 -0.536655 1.53701 0
M  V30 1893 O 184.94 -0.35624 1.74909 0
M  V30 1894 C 182.04 -0.579782 3.33904 0
M  V30 1895 C 181.213 0.236417 4.36761 0
M  V30 1896 C 180.272 -0.582482 5.22966 0
M  V30 1897 O 179.298 -0.00525502 5.692 0
M  V30 1898 N 180.5 -1.89163 5.48815 0
M  V30 1899 H 183.265 1.13964 2.77186 0
M  V30 1900 H 180.826 0.747731 1.43599 0
M  V30 1901 H 182.818 -1.13366 3.88497 0
M  V30 1902 H 181.388 -1.31144 2.83761 0
M  V30 1903 H 180.608 0.97174 3.82035 0
M  V30 1904 H 181.896 0.795924 5.02536 0
M  V30 1905 H 181.294 -2.38352 5.13035 0
M  V30 1906 H 179.851 -2.39296 6.06284 0
M  V30 1907 N 183.284 -1.43765 0.645699 0
M  V30 1908 C 184.695 -1.85193 0.236719 0
M  V30 1909 C 185.046 -1.54045 -1.21509 0
M  V30 1910 O 184.171 -0.985694 -1.92647 0
M  V30 1911 C 184.766 -3.36151 0.422845 0
M  V30 1912 C 183.325 -3.76338 0.0682492 0
M  V30 1913 C 182.472 -2.67538 0.729306 0
M  V30 1914 H 185.423 -1.34025 0.849883 0
M  V30 1915 H 185.444 -3.79032 -0.333904 0
M  V30 1916 H 184.956 -3.5879 1.47958 0
M  V30 1917 H 183.057 -3.59312 -0.986179 0
M  V30 1918 H 183.17 -4.76603 0.488469 0
M  V30 1919 H 181.534 -2.54176 0.163235 0
M  V30 1920 H 182.317 -2.93006 1.78892 0
M  V30 1921 N 184.763 -0.387143 -1.52771 0
M  V30 1922 C 185.991 0.195869 -2.05971 0
M  V30 1923 C 186.406 1.40691 -1.25903 0
M  V30 1924 O 185.763 1.79931 -0.305134 0
M  V30 1925 C 185.814 0.56812 -3.57008 0
M  V30 1926 O 185.535 -0.594803 -4.34043 0
M  V30 1927 C 187.036 1.20723 -4.26545 0
M  V30 1928 H 184.256 0.0300578 -0.670326 0
M  V30 1929 H 186.8 -0.551749 -1.96916 0
M  V30 1930 H 184.955 1.26564 -3.66143 0
M  V30 1931 H 185.369 -0.289322 -5.23701 0
M  V30 1932 H 186.843 1.41807 -5.33474 0
M  V30 1933 H 187.32 2.17395 -3.81623 0
M  V30 1934 H 187.926 0.550535 -4.21722 0
M  V30 1935 N 186.241 1.57166 -0.116904 0
M  V30 1936 C 187.466 1.999 0.55271 0
M  V30 1937 C 187.891 0.996039 1.59564 0
M  V30 1938 O 187.249 -0.032556 1.81271 0
M  V30 1939 C 187.297 3.4152 1.15742 0
M  V30 1940 O 186.401 3.44106 2.27299 0
M  V30 1941 H 185.742 0.649447 0.138258 0
M  V30 1942 H 188.272 2.03573 -0.204759 0
M  V30 1943 H 188.282 3.79684 1.49346 0
M  V30 1944 H 186.957 4.14034 0.393493 0
M  V30 1945 H 185.534 3.17759 1.9515 0
M  V30 1946 N 187.719 -0.156864 1.56817 0
M  V30 1947 C 188.667 -1.21319 1.98455 0
M  V30 1948 C 189.661 -1.45025 0.875444 0
M  V30 1949 O 190.867 -1.45435 1.0606 0
M  V30 1950 H 187.242 -0.408142 0.631605 0
M  V30 1951 H 189.213 -0.835244 2.86472 0
M  V30 1952 C 187.962 -2.54148 2.37285 0
M  V30 1953 H 187.285 -2.36733 3.22176 0
M  V30 1954 H 188.725 -3.26712 2.70251 0
M  V30 1955 C 187.184 -3.13967 1.22173 0
M  V30 1956 O 187.714 -3.98357 0.517149 0
M  V30 1957 N 185.92 -2.7327 0.988536 0
M  V30 1958 H 185.467 -2.04744 1.56326 0
M  V30 1959 H 185.425 -3.13628 0.220209 0
M  V30 1960 N 189.197 -1.51736 -0.425897 0
M  V30 1961 C 190.608 -1.5732 -1.00536 0
M  V30 1962 C 190.959 -0.403537 -1.92005 0
M  V30 1963 O 190.084 0.478256 -2.11049 0
M  V30 1964 C 190.679 -2.85119 -1.8301 0
M  V30 1965 C 189.238 -2.93236 -2.35987 0
M  V30 1966 C 188.385 -2.52098 -1.15508 0
M  V30 1967 H 191.336 -1.57348 -0.206739 0
M  V30 1968 H 191.357 -2.69526 -2.68581 0
M  V30 1969 H 190.869 -3.7023 -1.16411 0
M  V30 1970 H 188.97 -2.12581 -3.06007 0
M  V30 1971 H 189.083 -3.9713 -2.68001 0
M  V30 1972 H 187.447 -2.05558 -1.50393 0
M  V30 1973 H 188.23 -3.39565 -0.505014 0
M  V30 1974 N 190.675 0.682077 -1.42076 0
M  V30 1975 C 191.921 1.44428 -1.42367 0
M  V30 1976 C 192.254 1.94164 -0.0373056 0
M  V30 1977 O 191.529 1.70429 0.937239 0
M  V30 1978 C 191.812 2.64654 -2.44194 0
M  V30 1979 C 191.665 2.20596 -3.91991 0
M  V30 1980 C 192.984 3.66865 -2.431 0
M  V30 1981 H 190.103 0.523834 -0.518428 0
M  V30 1982 H 192.745 0.77576 -1.73442 0
M  V30 1983 H 190.895 3.2169 -2.17826 0
M  V30 1984 H 192.567 1.68783 -4.29313 0
M  V30 1985 H 190.81 1.52242 -4.06208 0
M  V30 1986 H 191.481 3.06921 -4.58807 0
M  V30 1987 H 193.957 3.19531 -2.66532 0
M  V30 1988 H 192.833 4.48577 -3.16339 0
M  V30 1989 H 193.094 4.17493 -1.45437 0
M  V30 1990 N 192.153 1.28127 0.917671 0
M  V30 1991 C 193.381 1.17892 1.70026 0
M  V30 1992 C 193.796 -0.262958 1.8696 0
M  V30 1993 O 193.153 -1.17811 1.3938 0
M  V30 1994 C 193.204 1.86872 3.09453 0
M  V30 1995 O 192.925 3.25428 2.93306 0
M  V30 1996 C 194.426 1.8289 4.03815 0
M  V30 1997 H 191.646 0.40942 0.531617 0
M  V30 1998 H 194.19 1.69181 1.14883 0
M  V30 1999 H 192.345 1.39464 3.61426 0
M  V30 2000 H 192.759 3.59918 3.81523 0
M  V30 2001 H 194.233 2.35751 4.99125 0
M  V30 2002 H 194.71 0.800412 4.31845 0
M  V30 2003 H 195.316 2.29959 3.57769 0
M  V30 2004 N 193.631 -1.12557 1.10312 0
M  V30 2005 C 195.042 -1.65574 0.862678 0
M  V30 2006 C 195.393 -1.86566 -0.607256 0
M  V30 2007 O 194.518 -1.59121 -1.46662 0
M  V30 2008 C 195.113 -3.00776 1.55947 0
M  V30 2009 C 193.672 -3.50748 1.36576 0
M  V30 2010 C 192.819 -2.25797 1.60968 0
M  V30 2011 H 195.77 -0.963552 1.26101 0
M  V30 2012 H 195.791 -3.67185 0.997753 0
M  V30 2013 H 195.303 -2.85465 2.62928 0
M  V30 2014 H 193.404 -3.71245 0.317531 0
M  V30 2015 H 193.517 -4.30289 2.10686 0
M  V30 2016 H 191.881 -2.32841 1.03234 0
M  V30 2017 H 192.664 -2.13043 2.69198 0
M  V30 2018 N 195.109 -0.891671 -1.2995 0
M  V30 2019 C 196.056 -0.361736 -2.27948 0
M  V30 2020 C 197.026 0.551761 -1.56668 0
M  V30 2021 O 198.211 0.478736 -1.84696 0
M  V30 2022 C 195.351 0.411825 -3.42634 0
M  V30 2023 C 194.464 -0.531651 -4.28716 0
M  V30 2024 C 193.599 0.258167 -5.30572 0
M  V30 2025 C 192.638 -0.680349 -6.08307 0
M  V30 2026 N 191.775 0.0745613 -7.0206 0
M  V30 2027 H 196.615 -1.20254 -2.72659 0
M  V30 2028 H 194.152 -0.604352 -1.34112 0
M  V30 2029 H 196.11 0.876304 -4.07893 0
M  V30 2030 H 194.74 1.21715 -2.98974 0
M  V30 2031 H 193.792 -1.11463 -3.63703 0
M  V30 2032 H 195.104 -1.25038 -4.82874 0
M  V30 2033 H 194.258 0.784204 -6.0161 0
M  V30 2034 H 192.997 1.01008 -4.77126 0
M  V30 2035 H 192.002 -1.21796 -5.3614 0
M  V30 2036 H 193.227 -1.43145 -6.63842 0
M  V30 2037 H 191.173 0.808883 -6.50994 0
M  V30 2038 H 191.09 -0.584409 -7.53738 0
M  V30 2039 H 192.358 0.581123 -7.77331 0
M  V30 2040 N 196.587 1.43421 -0.653314 0
M  V30 2041 C 197.998 1.85065 -0.246537 0
M  V30 2042 C 198.349 1.54688 1.2069 0
M  V30 2043 O 197.474 0.995896 1.92122 0
M  V30 2044 C 198.069 3.35922 -0.440666 0
M  V30 2045 C 196.628 3.76297 -0.0882064 0
M  V30 2046 C 195.775 2.67147 -0.743484 0
M  V30 2047 H 198.726 1.33572 -0.856979 0
M  V30 2048 H 198.747 3.79204 0.313798 0
M  V30 2049 H 198.259 3.58 -1.49858 0
M  V30 2050 H 196.36 3.5983 0.96711 0
M  V30 2051 H 196.473 4.76338 -0.513738 0
M  V30 2052 H 194.837 2.54086 -0.176712 0
M  V30 2053 H 195.62 2.92053 -1.80443 0
M  V30 2054 N 198.065 0.39524 1.52563 0
M  V30 2055 C 199.476 -0.0774719 1.86539 0
M  V30 2056 C 199.827 -1.45641 1.31466 0
M  V30 2057 O 198.952 -2.06459 0.648367 0
M  V30 2058 C 199.547 -0.147356 3.38479 0
M  V30 2059 C 198.106 -0.564373 3.72145 0
M  V30 2060 C 197.253 0.269919 2.75983 0
M  V30 2061 H 200.204 0.612876 1.46388 0
M  V30 2062 H 200.225 -0.965343 3.68051 0
M  V30 2063 H 199.737 0.856387 3.78534 0
M  V30 2064 H 197.838 -1.57527 3.37663 0
M  V30 2065 H 197.951 -0.318402 4.78041 0
M  V30 2066 H 196.315 -0.265696 2.5331 0
M  V30 2067 H 197.098 1.27175 3.18875 0
M  V30 2068 N 199.544 -1.57102 0.125237 0
M  V30 2069 C 200.774 -1.99472 -0.538015 0
M  V30 2070 C 201.182 -1.00395 -1.60366 0
M  V30 2071 O 200.525 0.0103875 -1.83697 0
M  V30 2072 C 200.587 -3.38262 -1.21734 0
M  V30 2073 C 200.251 -4.56021 -0.298897 0
M  V30 2074 C 201.248 -5.17817 0.464943 0
M  V30 2075 C 198.933 -5.01869 -0.208149 0
M  V30 2076 C 200.927 -6.23852 1.3072 0
M  V30 2077 C 198.614 -6.07763 0.637736 0
M  V30 2078 C 199.612 -6.68622 1.39403 0
M  V30 2079 O 199.3 -7.7247 2.22586 0
M  V30 2080 H 199.032 -0.659934 -0.146501 0
M  V30 2081 H 201.586 -2.04321 0.210267 0
M  V30 2082 H 199.816 -3.30185 -2.01282 0
M  V30 2083 H 201.505 -3.6488 -1.77813 0
M  V30 2084 H 202.271 -4.83308 0.404741 0
M  V30 2085 H 198.15 -4.54241 -0.786522 0
M  V30 2086 H 201.694 -6.71284 1.898 0
M  V30 2087 H 197.591 -6.41701 0.699309 0
M  V30 2088 H 198.359 -7.89595 2.15596 0
M  V30 2089 N 201.022 0.148545 -1.56898 0
M  V30 2090 C 202.252 0.875118 -1.8715 0
M  V30 2091 C 202.66 1.75322 -0.711262 0
M  V30 2092 O 202.003 1.80745 0.328151 0
M  V30 2093 C 202.065 1.7844 -3.12089 0
M  V30 2094 C 201.729 1.08361 -4.43967 0
M  V30 2095 C 202.726 0.438247 -5.1805 0
M  V30 2096 C 200.411 1.07358 -4.90693 0
M  V30 2097 C 202.405 -0.20779 -6.37061 0
M  V30 2098 C 200.092 0.42373 -6.09629 0
M  V30 2099 C 201.09 -0.215829 -6.82659 0
M  V30 2100 O 200.778 -0.855378 -7.99336 0
M  V30 2101 H 200.51 0.258504 -0.624621 0
M  V30 2102 H 203.064 0.14652 -2.04877 0
M  V30 2103 H 201.294 2.55389 -2.90367 0
M  V30 2104 H 202.983 2.38279 -3.286 0
M  V30 2105 H 203.749 0.437817 -4.8302 0
M  V30 2106 H 199.628 1.5608 -4.33774 0
M  V30 2107 H 203.172 -0.70758 -6.94002 0
M  V30 2108 H 199.069 0.421822 -6.4412 0
M  V30 2109 H 199.837 -0.756892 -8.14993 0
M  V30 2110 N 202.5 1.5196 0.417844 0
M  V30 2111 C 203.448 1.75278 1.52907 0
M  V30 2112 C 204.442 0.619611 1.57662 0
M  V30 2113 O 205.648 0.801457 1.61173 0
M  V30 2114 H 202.023 0.554141 0.508362 0
M  V30 2115 H 203.994 2.68389 1.30422 0
M  V30 2116 C 202.743 1.91262 2.90369 0
M  V30 2117 H 202.066 2.77872 2.8745 0
M  V30 2118 H 203.506 2.11581 3.67436 0
M  V30 2119 C 201.965 0.677431 3.30019 0
M  V30 2120 O 202.495 -0.158799 4.01386 0
M  V30 2121 N 200.701 0.515851 2.85985 0
M  V30 2122 H 200.248 1.19744 2.28077 0
M  V30 2123 H 200.206 -0.309315 3.12875 0
M  V30 2124 N 203.978 -0.674533 1.42435 0
M  V30 2125 C 205.227 -1.43034 1.42212 0
M  V30 2126 C 205.54 -1.95555 0.0420788 0
M  V30 2127 O 206.746 -2.71374 -0.0827558 0
M  V30 2128 C 205.202 -2.58748 2.50155 0
M  V30 2129 C 204.81 -2.12925 3.94166 0
M  V30 2130 C 206.554 -3.36257 2.59098 0
M  V30 2131 C 204.461 -3.25723 4.93618 0
M  V30 2132 H 203.391 -0.537345 0.528939 0
M  V30 2133 H 206.042 -0.73024 1.68344 0
M  V30 2134 H 204.424 -3.31128 2.17188 0
M  V30 2135 H 205.598 -1.47697 4.36488 0
M  V30 2136 H 203.913 -1.48354 3.89076 0
M  V30 2137 H 206.51 -4.20264 3.30578 0
M  V30 2138 H 206.853 -3.82866 1.63461 0
M  V30 2139 H 207.386 -2.70947 2.9126 0
M  V30 2140 H 204.125 -2.84105 5.90732 0
M  V30 2141 H 203.645 -3.89732 4.55926 0
M  V30 2142 H 205.324 -3.91186 5.15347 0
M  V30 2143 N 205.456 -1.28612 -0.910864 0
M  V30 2144 C 206.386 -1.15326 -2.03032 0
M  V30 2145 C 207.367 -0.0502924 -1.70026 0
M  V30 2146 O 208.552 -0.227797 -1.92859 0
M  V30 2147 C 205.682 -0.817343 -3.37545 0
M  V30 2148 C 204.636 -1.8754 -3.84724 0
M  V30 2149 C 203.962 -1.39305 -5.16235 0
M  V30 2150 C 205.262 -3.28244 -4.06267 0
M  V30 2151 H 206.956 -2.08975 -2.14406 0
M  V30 2152 H 204.502 -1.00612 -1.03021 0
M  V30 2153 H 206.455 -0.711151 -4.15356 0
M  V30 2154 H 205.179 0.154846 -3.26233 0
M  V30 2155 H 203.838 -1.97079 -3.09121 0
M  V30 2156 H 203.486 -0.409846 -5.01328 0
M  V30 2157 H 203.186 -2.10057 -5.48771 0
M  V30 2158 H 204.71 -1.30014 -5.96598 0
M  V30 2159 H 206.124 -3.21611 -4.74594 0
M  V30 2160 H 204.521 -3.96855 -4.5014 0
M  V30 2161 H 205.591 -3.72048 -3.10979 0
M  V30 2162 N 206.934 1.1197 -1.10907 0
M  V30 2163 C 207.864 2.19928 -0.784473 0
M  V30 2164 C 208.845 1.6833 0.244726 0
M  V30 2165 O 210.03 1.93892 0.109418 0
M  V30 2166 C 207.16 3.46597 -0.220827 0
M  V30 2167 C 206.114 4.11376 -1.18127 0
M  V30 2168 C 205.44 5.32554 -0.478594 0
M  V30 2169 C 206.74 4.56945 -2.52979 0
M  V30 2170 H 208.434 2.47337 -1.68715 0
M  V30 2171 H 205.98 1.18879 -0.812642 0
M  V30 2172 H 207.933 4.21396 0.0184278 0
M  V30 2173 H 206.657 3.1863 0.717113 0
M  V30 2174 H 205.316 3.38564 -1.40606 0
M  V30 2175 H 204.964 5.00856 0.463976 0
M  V30 2176 H 204.664 5.76844 -1.11912 0
M  V30 2177 H 206.188 6.10096 -0.248 0
M  V30 2178 H 207.602 5.23093 -2.3462 0
M  V30 2179 H 205.999 5.1203 -3.12962 0
M  V30 2180 H 207.069 3.70676 -3.12614 0
M  V30 2181 N 208.412 0.89855 1.29475 0
M  V30 2182 C 209.642 0.538479 1.99459 0
M  V30 2183 C 210.05 -0.880922 1.67441 0
M  V30 2184 O 209.393 -1.59283 0.915127 0
M  V30 2185 C 209.455 0.649564 3.53583 0
M  V30 2186 C 209.119 2.03573 4.09154 0
M  V30 2187 C 210.116 3.00675 4.24135 0
M  V30 2188 C 207.801 2.3448 4.44212 0
M  V30 2189 C 209.795 4.26809 4.73405 0
M  V30 2190 C 207.482 3.60857 4.93179 0
M  V30 2191 C 208.48 4.56836 5.0773 0
M  V30 2192 O 208.168 5.80969 5.55635 0
M  V30 2193 H 207.9 0.205372 0.644048 0
M  V30 2194 H 210.454 1.20958 1.66007 0
M  V30 2195 H 208.684 -0.0785592 3.8662 0
M  V30 2196 H 210.373 0.29881 4.04799 0
M  V30 2197 H 211.139 2.78112 3.97339 0
M  V30 2198 H 207.018 1.60534 4.32145 0
M  V30 2199 H 210.562 5.0173 4.84678 0
M  V30 2200 H 206.459 3.83251 5.19412 0
M  V30 2201 H 207.227 5.83542 5.73952 0
M  V30 2202 N 209.89 -1.43072 0.660911 0
M  V30 2203 C 211.115 -2.06584 0.183805 0
M  V30 2204 C 211.54 -1.49257 -1.14472 0
M  V30 2205 O 210.898 -0.605528 -1.70889 0
M  V30 2206 C 210.946 -3.60418 0.114434 0
M  V30 2207 O 210.05 -4.01981 -0.921137 0
M  V30 2208 H 209.391 -0.656669 0.0983994 0
M  V30 2209 H 211.921 -1.83447 0.906006 0
M  V30 2210 H 211.931 -4.07946 -0.0663394 0
M  V30 2211 H 210.606 -4.01519 1.08422 0
M  V30 2212 H 209.183 -3.66029 -0.71253 0
M  V30 2213 N 211.368 -0.403325 -1.52352 0
M  V30 2214 C 212.298 0.416205 -2.29761 0
M  V30 2215 C 213.279 1.05123 -1.33728 0
M  V30 2216 O 214.464 1.06134 -1.62632 0
M  V30 2217 C 211.594 1.53624 -3.11475 0
M  V30 2218 C 210.548 1.02653 -4.15507 0
M  V30 2219 C 209.874 2.23971 -4.85532 0
M  V30 2220 C 211.174 0.08463 -5.22231 0
M  V30 2221 H 212.868 -0.229701 -2.98518 0
M  V30 2222 H 210.414 -0.111913 -1.43564 0
M  V30 2223 H 212.367 2.1165 -3.64393 0
M  V30 2224 H 211.091 2.20994 -2.40477 0
M  V30 2225 H 209.75 0.46871 -3.63591 0
M  V30 2226 H 209.398 2.89883 -4.11068 0
M  V30 2227 H 209.098 1.90521 -5.55856 0
M  V30 2228 H 210.622 2.82614 -5.41259 0
M  V30 2229 H 212.036 0.573509 -5.70424 0
M  V30 2230 H 210.433 -0.160783 -5.99885 0
M  V30 2231 H 211.503 -0.86237 -4.7717 0
M  V30 2232 N 212.846 1.57033 -0.133567 0
M  V30 2233 C 214.092 1.95976 0.521649 0
M  V30 2234 C 214.425 1.01779 1.65393 0
M  V30 2235 O 213.7 0.0576581 1.94415 0
M  V30 2236 C 213.983 3.44738 1.04057 0
M  V30 2237 C 213.836 4.49711 -0.0892897 0
M  V30 2238 C 215.155 3.95682 1.92675 0
M  V30 2239 H 212.274 0.712579 0.188149 0
M  V30 2240 H 214.916 1.88813 -0.212076 0
M  V30 2241 H 213.066 3.50973 1.66583 0
M  V30 2242 H 214.738 4.55565 -0.725152 0
M  V30 2243 H 212.981 4.27261 -0.750378 0
M  V30 2244 H 213.652 5.51099 0.315284 0
M  V30 2245 H 216.128 3.91841 1.39998 0
M  V30 2246 H 215.004 5.00262 2.25897 0
M  V30 2247 H 215.265 3.37239 2.85872 0
M  V30 2248 N 214.325 -0.140222 1.56975 0
M  V30 2249 C 215.736 -0.699596 1.73097 0
M  V30 2250 C 216.087 -1.8134 0.749022 0
M  V30 2251 O 215.212 -2.16241 -0.0828503 0
M  V30 2252 C 215.807 -1.27582 3.1386 0
M  V30 2253 C 214.366 -1.78169 3.31561 0
M  V30 2254 C 213.513 -0.672855 2.69013 0
M  V30 2255 H 216.464 0.0855115 1.58469 0
M  V30 2256 H 216.485 -2.14561 3.14235 0
M  V30 2257 H 215.997 -0.464955 3.85305 0
M  V30 2258 H 214.098 -2.61801 2.65124 0
M  V30 2259 H 214.211 -1.90574 4.39566 0
M  V30 2260 H 212.575 -1.10118 2.29665 0
M  V30 2261 H 213.358 0.126679 3.43066 0
M  V30 2262 N 215.803 -1.52179 -0.40978 0
M  V30 2263 C 216.733 -1.78435 -1.5061 0
M  V30 2264 C 217.714 -0.635295 -1.57791 0
M  V30 2265 O 218.899 -0.880823 -1.73076 0
M  V30 2266 C 216.029 -1.93444 -2.88439 0
M  V30 2267 C 214.983 -3.09038 -2.96108 0
M  V30 2268 C 214.309 -3.09268 -4.36185 0
M  V30 2269 C 215.609 -4.48508 -2.67652 0
M  V30 2270 H 217.303 -2.70237 -1.28889 0
M  V30 2271 H 214.849 -1.30036 -0.618605 0
M  V30 2272 H 216.802 -2.10394 -3.65119 0
M  V30 2273 H 215.526 -0.983129 -3.11452 0
M  V30 2274 H 214.185 -2.91837 -2.21872 0
M  V30 2275 H 213.833 -2.11861 -4.56206 0
M  V30 2276 H 213.533 -3.86907 -4.42241 0
M  V30 2277 H 215.057 -3.28348 -5.14801 0
M  V30 2278 H 216.471 -4.65918 -3.34056 0
M  V30 2279 H 214.868 -5.28059 -2.85085 0
M  V30 2280 H 215.938 -4.56649 -1.63095 0
M  V30 2281 N 217.281 0.66697 -1.42791 0
M  V30 2282 C 218.214 1.79177 -1.41318 0
M  V30 2283 C 219.192 1.60234 -0.276401 0
M  V30 2284 O 220.376 1.82602 -0.46785 0
M  V30 2285 C 217.503 3.16289 -1.21157 0
M  V30 2286 C 216.549 3.53964 -2.37932 0
M  V30 2287 S 217.382 3.55501 -4.00474 0
M  V30 2288 C 218.538 4.95292 -3.8267 0
M  V30 2289 H 218.771 1.80153 -2.365 0
M  V30 2290 H 216.304 0.838357 -1.29657 0
M  V30 2291 H 218.262 3.95428 -1.10212 0
M  V30 2292 H 216.923 3.1289 -0.275481 0
M  V30 2293 H 216.116 4.53646 -2.19594 0
M  V30 2294 H 215.718 2.82204 -2.45432 0
M  V30 2295 H 218.01 5.83584 -3.44145 0
M  V30 2296 H 218.953 5.18679 -4.82055 0
M  V30 2297 H 219.361 4.68179 -3.15386 0
M  V30 2298 N 218.759 1.29093 0.90403 0
M  V30 2299 C 219.689 1.16401 2.02418 0
M  V30 2300 C 220.67 0.0593085 1.69997 0
M  V30 2301 O 221.855 0.238021 1.92736 0
M  V30 2302 C 218.985 0.835233 3.37107 0
M  V30 2303 C 217.939 1.89578 3.83724 0
M  V30 2304 C 217.265 1.42041 5.15489 0
M  V30 2305 C 218.565 3.30394 4.04521 0
M  V30 2306 H 220.259 2.10109 2.13295 0
M  V30 2307 H 217.805 1.01157 1.02486 0
M  V30 2308 H 219.758 0.733169 4.14973 0
M  V30 2309 H 218.482 -0.137543 3.2631 0
M  V30 2310 H 217.141 1.98715 3.08071 0
M  V30 2311 H 216.789 0.436426 5.01103 0
M  V30 2312 H 216.489 2.12964 5.4765 0
M  V30 2313 H 218.013 1.33176 5.959 0
M  V30 2314 H 219.427 3.24123 4.72882 0
M  V30 2315 H 217.824 3.99237 4.48029 0
M  V30 2316 H 218.894 3.73692 3.09002 0
M  V30 2317 N 220.237 -1.11381 1.11499 0
M  V30 2318 C 221.486 -1.82494 0.858993 0
M  V30 2319 C 221.799 -1.85605 -0.617278 0
M  V30 2320 O 223.005 -2.52824 -0.989552 0
M  V30 2321 C 221.461 -3.27745 1.48699 0
M  V30 2322 C 221.069 -3.32961 2.99735 0
M  V30 2323 C 222.813 -4.03754 1.31085 0
M  V30 2324 C 220.72 -4.72612 3.55516 0
M  V30 2325 H 219.65 -0.683802 0.317696 0
M  V30 2326 H 222.301 -1.25331 1.34031 0
M  V30 2327 H 220.683 -3.84844 0.933339 0
M  V30 2328 H 221.857 -2.85741 3.61509 0
M  V30 2329 H 220.172 -2.70433 3.16631 0
M  V30 2330 H 222.769 -5.06891 1.70192 0
M  V30 2331 H 223.112 -4.15527 0.253496 0
M  V30 2332 H 223.645 -3.53043 1.83318 0
M  V30 2333 H 220.384 -4.66036 4.60967 0
M  V30 2334 H 219.904 -5.2024 2.98513 0
M  V30 2335 H 221.583 -5.4157 3.53992 0
M  V30 2336 N 221.715 -0.905404 -1.28997 0
M  V30 2337 C 222.678 -0.392253 -2.25819 0
M  V30 2338 C 223.678 0.476753 -1.5357 0
M  V30 2339 O 224.868 0.280994 -1.71919 0
M  V30 2340 C 222 0.438588 -3.38067 0
M  V30 2341 H 223.193 -1.24743 -2.72725 0
M  V30 2342 H 220.746 -0.684051 -1.40536 0
M  V30 2343 H 221.481 1.31352 -2.96508 0
M  V30 2344 H 221.266 -0.184167 -3.91667 0
M  V30 2345 H 222.756 0.78873 -4.10084 0
M  V30 2346 N 223.193 1.4272 -0.668489 0
M  V30 2347 C 224.441 2.01226 -0.187769 0
M  V30 2348 C 224.762 1.53092 1.2078 0
M  V30 2349 O 224.032 0.74993 1.80977 0
M  V30 2350 H 222.612 0.744041 -0.0664272 0
M  V30 2351 H 225.274 1.74723 -0.863583 0
M  V30 2352 H 224.37 3.11556 -0.184166 0
M  V30 2353 N 224.671 0.411399 1.52136 0
M  V30 2354 C 225.92 -0.165009 2.01024 0
M  V30 2355 C 226.233 -1.4603 1.30133 0
M  V30 2356 O 227.439 -2.1181 1.69849 0
M  V30 2357 C 225.895 -0.344618 3.58246 0
M  V30 2358 C 225.503 0.938716 4.38055 0
M  V30 2359 C 227.247 -0.876195 4.15359 0
M  V30 2360 C 225.154 0.726172 5.86925 0
M  V30 2361 H 224.084 -0.0654407 0.751155 0
M  V30 2362 H 226.735 0.537192 1.75461 0
M  V30 2363 H 225.117 -1.10921 3.80148 0
M  V30 2364 H 226.291 1.70963 4.27912 0
M  V30 2365 H 224.606 1.39688 3.92271 0
M  V30 2366 H 227.203 -1.05128 5.24263 0
M  V30 2367 H 227.546 -1.85152 3.7286 0
M  V30 2368 H 228.079 -0.170607 3.97434 0
M  V30 2369 H 224.818 1.67312 6.33788 0
M  V30 2370 H 224.338 -0.00540283 5.998 0
M  V30 2371 H 226.017 0.369231 6.45946 0
M  V30 2372 N 226.149 -1.5696 0.141893 0
M  V30 2373 C 227.395 -1.9625 -0.511248 0
M  V30 2374 C 227.728 -1.02654 -1.64851 0
M  V30 2375 O 227.003 -0.0679676 -1.94381 0
M  V30 2376 C 227.286 -3.45285 -1.02227 0
M  V30 2377 C 227.139 -4.49658 0.113138 0
M  V30 2378 C 228.458 -3.96698 -1.90574 0
M  V30 2379 H 225.577 -0.713567 -0.184367 0
M  V30 2380 H 228.219 -1.88698 0.222087 0
M  V30 2381 H 226.369 -3.51852 -1.64719 0
M  V30 2382 H 228.041 -4.55174 0.749302 0
M  V30 2383 H 226.284 -4.26857 0.773026 0
M  V30 2384 H 226.955 -5.51258 -0.286053 0
M  V30 2385 H 229.431 -3.92578 -1.37918 0
M  V30 2386 H 228.307 -5.01453 -2.2324 0
M  V30 2387 H 228.568 -3.3875 -2.84079 0
M  V30 2388 N 227.627 0.131896 -1.57047 0
M  V30 2389 C 228.876 0.84044 -1.83356 0
M  V30 2390 C 229.189 1.81646 -0.725535 0
M  V30 2391 O 230.395 2.57025 -0.874659 0
M  V30 2392 C 228.851 1.54528 -3.25037 0
M  V30 2393 C 228.459 0.610902 -4.43815 0
M  V30 2394 C 230.203 2.23972 -3.60606 0
M  V30 2395 C 228.11 1.31823 -5.76521 0
M  V30 2396 H 227.04 0.317599 -0.683847 0
M  V30 2397 H 229.691 0.0931561 -1.83263 0
M  V30 2398 H 228.073 2.33873 -3.19561 0
M  V30 2399 H 229.247 -0.148407 -4.60561 0
M  V30 2400 H 227.562 0.0241016 -4.16393 0
M  V30 2401 H 230.159 2.77558 -4.57018 0
M  V30 2402 H 230.502 3.01173 -2.87403 0
M  V30 2403 H 231.035 1.51529 -3.6781 0
M  V30 2404 H 227.774 0.587771 -6.52859 0
M  V30 2405 H 227.294 2.04987 -5.63685 0
M  V30 2406 H 228.973 1.855 -6.19838 0
M  V30 2407 N 229.106 1.52395 0.401703 0
M  V30 2408 C 230.346 1.68498 1.15705 0
M  V30 2409 C 230.71 0.409748 1.87577 0
M  V30 2410 O 231.911 0.446983 2.65058 0
M  V30 2411 C 230.182 2.87789 2.11924 0
M  V30 2412 S 231.741 3.24415 2.95466 0
M  V30 2413 H 228.559 0.593267 0.391862 0
M  V30 2414 H 231.161 1.90408 0.443282 0
M  V30 2415 H 229.865 3.7884 1.57824 0
M  V30 2416 H 229.396 2.68175 2.87829 0
M  V30 2417 H 231.411 2.73614 4.13944 0
M  V30 2418 N 230.584 -0.659388 1.43143 0
M  V30 2419 C 231.547 -1.75432 1.47501 0
M  V30 2420 C 232.547 -1.56707 0.360512 0
M  V30 2421 O 233.737 -1.62717 0.622002 0
M  V30 2422 C 230.869 -3.14239 1.32162 0
M  V30 2423 H 232.062 -1.7295 2.45006 0
M  V30 2424 H 229.615 -0.870469 1.29817 0
M  V30 2425 H 230.35 -3.22336 0.356401 0
M  V30 2426 H 230.135 -3.29235 2.12948 0
M  V30 2427 H 231.625 -3.94094 1.3813 0
M  V30 2428 N 232.062 -1.29571 -0.897171 0
M  V30 2429 C 233.309 -1.17689 -1.6479 0
M  V30 2430 C 233.637 0.27107 -1.92602 0
M  V30 2431 O 232.892 1.21193 -1.53658 0
M  V30 2432 C 233.191 -1.9382 -3.00281 0
M  V30 2433 C 232.857 -3.43522 -2.92068 0
M  V30 2434 C 231.519 -3.84348 -2.89535 0
M  V30 2435 C 233.871 -4.38906 -2.81089 0
M  V30 2436 C 231.199 -5.18869 -2.73846 0
M  V30 2437 C 233.551 -5.73521 -2.66939 0
M  V30 2438 C 232.215 -6.13601 -2.62774 0
M  V30 2439 H 231.485 -0.430654 -0.603008 0
M  V30 2440 H 234.132 -1.60536 -1.04404 0
M  V30 2441 H 232.437 -1.4357 -3.64547 0
M  V30 2442 H 234.134 -1.82028 -3.57305 0
M  V30 2443 H 230.724 -3.11072 -2.94842 0
M  V30 2444 H 234.908 -4.08315 -2.82121 0
M  V30 2445 H 230.164 -5.4903 -2.69027 0
M  V30 2446 H 234.338 -6.47078 -2.57416 0
M  V30 2447 H 231.965 -7.17786 -2.50375 0
M  V30 2448 N 233.54 1.10788 -1.12088 0
M  V30 2449 C 234.786 1.8313 -0.885148 0
M  V30 2450 C 235.141 1.8336 0.582839 0
M  V30 2451 O 234.434 1.28062 1.42516 0
M  V30 2452 C 234.628 3.29294 -1.38926 0
M  V30 2453 C 234.457 3.43302 -2.90472 0
M  V30 2454 C 233.227 3.55928 -3.58669 0
M  V30 2455 C 235.425 3.37014 -3.88492 0
M  V30 2456 N 233.407 3.58475 -4.98366 0
M  V30 2457 C 234.778 3.46263 -5.14298 0
M  V30 2458 C 236.833 3.20589 -3.80955 0
M  V30 2459 C 235.536 3.4078 -6.33452 0
M  V30 2460 C 237.562 3.16427 -4.99628 0
M  V30 2461 C 236.924 3.26253 -6.2429 0
M  V30 2462 H 233.023 0.685054 -0.377128 0
M  V30 2463 H 235.607 1.3251 -1.4265 0
M  V30 2464 H 233.778 3.78416 -0.874999 0
M  V30 2465 H 235.51 3.89578 -1.09596 0
M  V30 2466 H 232.265 3.58779 -3.09151 0
M  V30 2467 H 232.689 3.6337 -5.71219 0
M  V30 2468 H 237.331 3.11873 -2.85474 0
M  V30 2469 H 235.049 3.48263 -7.29204 0
M  V30 2470 H 238.635 3.04874 -4.95523 0
M  V30 2471 H 237.515 3.2303 -7.14578 0
M  V30 2472 N 235.018 0.912232 1.28515 0
M  V30 2473 C 236.264 0.545405 1.95328 0
M  V30 2474 C 236.597 -0.908313 1.71649 0
M  V30 2475 O 235.872 -1.64575 1.03659 0
M  V30 2476 C 236.155 0.853483 3.4984 0
M  V30 2477 C 236.008 2.35982 3.82926 0
M  V30 2478 C 237.327 0.348589 4.38717 0
M  V30 2479 H 234.446 0.199626 0.709449 0
M  V30 2480 H 237.088 1.1412 1.5191 0
M  V30 2481 H 235.238 0.34643 3.86952 0
M  V30 2482 H 236.91 2.93738 3.55691 0
M  V30 2483 H 235.153 2.81543 3.30024 0
M  V30 2484 H 235.824 2.52593 4.90816 0
M  V30 2485 H 238.3 0.78294 4.08668 0
M  V30 2486 H 237.176 0.593242 5.45685 0
M  V30 2487 H 237.437 -0.751049 4.35674 0
M  V30 2488 N 236.496 -1.42363 0.676048 0
M  V30 2489 C 237.726 -2.05561 0.206967 0
M  V30 2490 C 238.134 -1.50887 -1.14148 0
M  V30 2491 O 237.477 -0.643933 -1.72044 0
M  V30 2492 C 237.539 -3.5944 0.0659508 0
M  V30 2493 C 237.203 -4.36812 1.34331 0
M  V30 2494 C 238.2 -4.67383 2.27704 0
M  V30 2495 C 235.885 -4.76429 1.59125 0
M  V30 2496 C 237.879 -5.36509 3.44147 0
M  V30 2497 C 235.566 -5.45294 2.75857 0
M  V30 2498 C 236.564 -5.75259 3.68193 0
M  V30 2499 O 236.252 -6.42712 4.82883 0
M  V30 2500 H 235.984 -0.668872 0.0979084 0
M  V30 2501 H 238.538 -1.83467 0.923531 0
M  V30 2502 H 236.768 -3.80197 -0.706204 0
M  V30 2503 H 238.457 -4.0427 -0.363418 0
M  V30 2504 H 239.223 -4.37275 2.09799 0
M  V30 2505 H 235.102 -4.52498 0.881258 0
M  V30 2506 H 238.646 -5.59814 4.16238 0
M  V30 2507 H 234.543 -5.7482 2.93688 0
M  V30 2508 H 235.311 -6.61204 4.82444 0
M  V30 2509 N 237.974 -0.419461 -1.51915 0
M  V30 2510 C 239.39 -0.0708431 -1.59443 0
M  V30 2511 C 239.59 1.41796 -1.43164 0
M  V30 2512 O 238.646 2.18596 -1.26381 0
M  V30 2513 C 239.959 -0.574991 -2.95151 0
M  V30 2514 C 241.507 -0.533867 -3.08413 0
M  V30 2515 C 241.982 -1.01469 -4.46618 0
M  V30 2516 N 243.473 -0.971939 -4.52888 0
M  V30 2517 C 244.208 -1.31505 -5.58116 0
M  V30 2518 N 243.704 -1.73014 -6.70849 0
M  V30 2519 N 245.497 -1.23436 -5.48379 0
M  V30 2520 H 237.648 -1.38836 -1.60743 0
M  V30 2521 H 239.911 -0.570998 -0.756747 0
M  V30 2522 H 239.617 -1.61597 -3.12377 0
M  V30 2523 H 239.491 0.00979777 -3.77199 0
M  V30 2524 H 241.878 0.498086 -2.90866 0
M  V30 2525 H 241.959 -1.15484 -2.28248 0
M  V30 2526 H 241.603 -2.04502 -4.6491 0
M  V30 2527 H 241.533 -0.370433 -5.25295 0
M  V30 2528 H 244.024 -0.666893 -3.71969 0
M  V30 2529 H 244.337 -1.97479 -7.47143 0
M  V30 2530 H 242.682 -1.76926 -6.72103 0
M  V30 2531 H 245.873 -0.908869 -4.59192 0
M  V30 2532 H 246.046 -1.50506 -6.30279 0
M  V30 2533 N 239.452 1.56882 -0.150215 0
M  V30 2534 C 240.402 2.13501 0.800071 0
M  V30 2535 C 241.386 1.06368 1.20726 0
M  V30 2536 O 242.578 1.32538 1.17314 0
M  V30 2537 C 239.707 2.76271 2.03787 0
M  V30 2538 C 238.793 3.90533 1.65364 0
M  V30 2539 N 239.184 4.96259 0.977794 0
M  V30 2540 C 237.482 4.013 1.94613 0
M  V30 2541 C 238.183 5.76286 0.791794 0
M  V30 2542 N 237.159 5.27163 1.32666 0
M  V30 2543 H 240.961 2.92615 0.274517 0
M  V30 2544 H 238.475 1.62319 0.0512144 0
M  V30 2545 H 240.472 3.15197 2.72867 0
M  V30 2546 H 239.132 1.98631 2.56857 0
M  V30 2547 H 240.143 5.13953 0.638193 0
M  V30 2548 H 236.82 3.3474 2.4951 0
M  V30 2549 H 238.21 6.71401 0.258894 0
M  V30 2550 N 240.93 -0.123565 1.57115 0
M  V30 2551 C 241.88 -1.1575 1.96433 0
M  V30 2552 C 242.864 -1.37313 0.838686 0
M  V30 2553 O 244.056 -1.38482 1.10235 0
M  V30 2554 C 241.185 -2.48526 2.36833 0
M  V30 2555 C 240.271 -2.30457 3.5602 0
M  V30 2556 N 240.662 -1.8219 4.71848 0
M  V30 2557 C 238.96 -2.61129 3.61563 0
M  V30 2558 C 239.661 -1.77721 5.53886 0
M  V30 2559 N 238.637 -2.21899 4.96248 0
M  V30 2560 H 242.439 -0.776797 2.83449 0
M  V30 2561 H 239.953 -0.331364 1.58983 0
M  V30 2562 H 241.95 -3.233 2.63216 0
M  V30 2563 H 240.61 -2.87358 1.5118 0
M  V30 2564 H 241.621 -1.51805 4.95152 0
M  V30 2565 H 238.298 -3.03678 2.86507 0
M  V30 2566 H 239.688 -1.41697 6.56789 0
M  V30 2567 N 242.408 -1.52605 -0.393616 0
M  V30 2568 C 243.355 -1.77055 -1.48054 0
M  V30 2569 C 244.325 -0.61358 -1.54352 0
M  V30 2570 O 245.51 -0.852806 -1.70681 0
M  V30 2571 C 242.65 -1.94108 -2.85335 0
M  V30 2572 C 241.763 -3.21792 -2.88226 0
M  V30 2573 C 240.898 -3.29188 -4.16904 0
M  V30 2574 C 239.937 -4.51013 -4.13828 0
M  V30 2575 N 239.074 -4.55716 -5.34105 0
M  V30 2576 H 243.914 -2.69815 -1.26506 0
M  V30 2577 H 241.451 -1.33683 -0.61379 0
M  V30 2578 H 243.409 -2.01979 -3.65049 0
M  V30 2579 H 242.039 -1.04713 -3.05344 0
M  V30 2580 H 241.091 -3.23015 -2.00911 0
M  V30 2581 H 242.403 -4.11557 -2.8182 0
M  V30 2582 H 241.557 -3.36216 -5.05018 0
M  V30 2583 H 240.296 -2.37389 -4.26026 0
M  V30 2584 H 239.301 -4.44115 -3.24102 0
M  V30 2585 H 240.526 -5.44123 -4.06333 0
M  V30 2586 H 238.472 -3.66807 -5.43865 0
M  V30 2587 H 238.389 -5.39346 -5.29756 0
M  V30 2588 H 239.657 -4.66993 -6.2413 0
M  V30 2589 N 243.887 0.651787 -1.4349 0
M  V30 2590 C 244.82 1.77668 -1.43211 0
M  V30 2591 C 245.798 1.59931 -0.29338 0
M  V30 2592 O 246.982 1.82095 -0.487191 0
M  V30 2593 C 244.109 3.14986 -1.24505 0
M  V30 2594 C 243.155 3.51421 -2.41673 0
M  V30 2595 S 243.988 3.51234 -4.04222 0
M  V30 2596 C 245.144 4.91206 -3.87902 0
M  V30 2597 H 245.377 1.77635 -2.38397 0
M  V30 2598 H 242.91 0.824558 -1.30539 0
M  V30 2599 H 244.868 3.94237 -1.144 0
M  V30 2600 H 243.529 3.1258 -0.308651 0
M  V30 2601 H 242.722 4.51291 -2.24393 0
M  V30 2602 H 242.324 2.79585 -2.48411 0
M  V30 2603 H 244.616 5.79902 -3.50315 0
M  V30 2604 H 245.559 5.13537 -4.8753 0
M  V30 2605 H 245.967 4.64808 -3.20334 0
M  V30 2606 N 245.365 1.30045 0.890287 0
M  V30 2607 C 246.328 1.15963 1.977 0
M  V30 2608 C 247.328 0.0923777 1.60534 0
M  V30 2609 O 248.518 0.340071 1.70848 0
M  V30 2610 C 245.65 0.775451 3.31963 0
M  V30 2611 H 246.843 2.12502 2.11619 0
M  V30 2612 H 244.396 1.13366 1.07601 0
M  V30 2613 H 245.131 -0.189671 3.23745 0
M  V30 2614 H 244.916 1.54668 3.60306 0
M  V30 2615 H 246.406 0.700251 4.11687 0
M  V30 2616 N 246.843 -1.10192 1.12674 0
M  V30 2617 C 248.073 -1.85713 0.905213 0
M  V30 2618 C 248.481 -1.81056 -0.549108 0
M  V30 2619 O 247.824 -1.19927 -1.39151 0
M  V30 2620 C 247.886 -3.34972 1.30516 0
M  V30 2621 C 247.55 -3.63385 2.77129 0
M  V30 2622 C 248.547 -3.59772 3.75313 0
M  V30 2623 C 246.232 -3.91981 3.14096 0
M  V30 2624 C 248.226 -3.84354 5.08479 0
M  V30 2625 C 245.913 -4.16218 4.47443 0
M  V30 2626 C 246.911 -4.12395 5.44444 0
M  V30 2627 O 246.599 -4.36014 6.75387 0
M  V30 2628 H 246.331 -0.593719 0.323223 0
M  V30 2629 H 248.885 -1.40198 1.50112 0
M  V30 2630 H 247.115 -3.81156 0.652463 0
M  V30 2631 H 248.804 -3.91886 1.05736 0
M  V30 2632 H 249.57 -3.37716 3.48099 0
M  V30 2633 H 245.449 -3.94085 2.39202 0
M  V30 2634 H 248.993 -3.81285 5.84181 0
M  V30 2635 H 244.89 -4.37754 4.74386 0
M  V30 2636 H 245.658 -4.53516 6.8137 0
M  V30 2637 N 248.321 -0.919034 -1.28029 0
M  V30 2638 C 249.732 -0.600735 -1.76771 0
M  V30 2639 C 250.083 0.884024 -1.75156 0
M  V30 2640 O 249.208 1.69163 -1.34956 0
M  V30 2641 C 249.803 -1.08372 -3.21 0
M  V30 2642 C 248.362 -0.816248 -3.67443 0
M  V30 2643 C 247.509 -1.24742 -2.47658 0
M  V30 2644 H 250.46 -1.09974 -1.14418 0
M  V30 2645 H 250.481 -0.427512 -3.78091 0
M  V30 2646 H 249.993 -2.16437 -3.22144 0
M  V30 2647 H 248.094 0.250968 -3.71754 0
M  V30 2648 H 248.207 -1.4277 -4.57333 0
M  V30 2649 H 246.571 -0.666083 -2.45836 0
M  V30 2650 H 247.354 -2.33653 -2.51518 0
M  V30 2651 N 249.799 1.42003 -0.683588 0
M  V30 2652 C 251.21 1.84501 -0.285736 0
M  V30 2653 C 251.561 1.57213 1.17382 0
M  V30 2654 O 250.686 1.03642 1.89966 0
M  V30 2655 C 251.281 3.34912 -0.511821 0
M  V30 2656 C 249.84 3.76025 -0.168005 0
M  V30 2657 C 248.987 2.6551 -0.799983 0
M  V30 2658 H 251.938 1.31724 -0.885119 0
M  V30 2659 H 251.959 3.79784 0.233292 0
M  V30 2660 H 251.471 3.54741 -1.57418 0
M  V30 2661 H 249.572 3.61801 0.890567 0
M  V30 2662 H 249.685 4.75141 -0.614661 0
M  V30 2663 H 248.049 2.53654 -0.230568 0
M  V30 2664 H 248.832 2.8816 -1.86597 0
M  V30 2665 N 251.277 0.427512 1.51691 0
M  V30 2666 C 252.523 -0.142439 2.02299 0
M  V30 2667 C 252.856 -1.43214 1.31162 0
M  V30 2668 O 252.131 -1.89833 0.423511 0
M  V30 2669 C 252.414 -0.371301 3.58181 0
M  V30 2670 C 252.267 0.936358 4.39946 0
M  V30 2671 C 253.586 -1.14542 4.24933 0
M  V30 2672 H 250.705 -0.0502937 0.735282 0
M  V30 2673 H 253.347 0.564584 1.81418 0
M  V30 2674 H 251.497 -0.973559 3.76104 0
M  V30 2675 H 253.169 1.57184 4.33694 0
M  V30 2676 H 251.412 1.5432 4.05423 0
M  V30 2677 H 252.083 0.730388 5.47147 0
M  V30 2678 H 254.559 -0.635362 4.11221 0
M  V30 2679 H 253.435 -1.27431 5.33903 0
M  V30 2680 H 253.696 -2.17093 3.85127 0
M  V30 2681 N 252.755 -1.56801 0.158532 0
M  V30 2682 C 253.685 -2.20347 -0.772609 0
M  V30 2683 C 254.666 -1.15518 -1.24859 0
M  V30 2684 O 255.851 -1.43902 -1.30406 0
M  V30 2685 C 252.981 -2.83417 -2.00729 0
M  V30 2686 C 251.935 -3.94174 -1.66765 0
M  V30 2687 C 251.261 -4.44233 -2.97592 0
M  V30 2688 C 252.561 -5.14392 -0.905447 0
M  V30 2689 H 254.255 -2.98413 -0.242959 0
M  V30 2690 H 251.801 -1.43537 -0.115419 0
M  V30 2691 H 253.754 -3.26543 -2.6636 0
M  V30 2692 H 252.478 -2.02701 -2.56086 0
M  V30 2693 H 251.137 -3.51684 -1.03508 0
M  V30 2694 H 250.785 -3.60325 -3.50963 0
M  V30 2695 H 250.485 -5.18945 -2.75626 0
M  V30 2696 H 252.009 -4.90037 -3.64274 0
M  V30 2697 H 253.423 -5.5429 -1.46408 0
M  V30 2698 H 251.82 -5.9494 -0.7853 0
M  V30 2699 H 252.89 -4.84795 0.100668 0
M  V30 2700 N 254.233 0.115231 -1.57178 0
M  V30 2701 C 255.479 0.82357 -1.85325 0
M  V30 2702 C 255.812 1.79349 -0.744814 0
M  V30 2703 O 255.087 1.92899 0.249024 0
M  V30 2704 C 255.37 1.57014 -3.24066 0
M  V30 2705 C 255.223 0.619565 -4.45513 0
M  V30 2706 C 256.542 2.52545 -3.60429 0
M  V30 2707 H 253.661 0.297948 -0.674089 0
M  V30 2708 H 256.303 0.0877138 -1.89797 0
M  V30 2709 H 254.453 2.19742 -3.20383 0
M  V30 2710 H 256.125 0.000837639 -4.613 0
M  V30 2711 H 254.368 -0.0686174 -4.33746 0
M  V30 2712 H 255.039 1.17866 -5.3927 0
M  V30 2713 H 257.515 1.9992 -3.64926 0
M  V30 2714 H 256.391 3.01811 -4.58477 0
M  V30 2715 H 256.652 3.35383 -2.88047 0
M  V30 2716 N 255.711 1.52812 0.385517 0
M  V30 2717 C 257.122 1.5993 0.963293 0
M  V30 2718 C 257.473 0.454302 1.90868 0
M  V30 2719 O 256.598 -0.422132 2.12243 0
M  V30 2720 C 257.193 2.89871 1.75387 0
M  V30 2721 C 255.752 2.99389 2.28129 0
M  V30 2722 C 254.899 2.55071 1.08783 0
M  V30 2723 H 257.85 1.5784 0.164948 0
M  V30 2724 H 257.871 2.76553 2.61341 0
M  V30 2725 H 257.383 3.73186 1.06554 0
M  V30 2726 H 255.484 2.20619 3.00263 0
M  V30 2727 H 255.597 4.04096 2.57377 0
M  V30 2728 H 253.961 2.09473 1.4489 0
M  V30 2729 H 254.744 3.40785 0.414807 0
M  V30 2730 N 257.189 -0.644168 1.43834 0
M  V30 2731 C 258.417 -1.43147 1.49387 0
M  V30 2732 C 258.832 -1.88452 0.114583 0
M  V30 2733 O 258.189 -1.60047 -0.876989 0
M  V30 2734 C 258.24 -2.66046 2.44748 0
M  V30 2735 O 257.961 -2.22633 3.77314 0
M  V30 2736 C 259.462 -3.59311 2.59635 0
M  V30 2737 H 256.682 -0.439447 0.507077 0
M  V30 2738 H 259.226 -0.78895 1.88669 0
M  V30 2739 H 257.381 -3.26418 2.08638 0
M  V30 2740 H 257.795 -3.02216 4.28679 0
M  V30 2741 H 259.269 -4.42187 3.30416 0
M  V30 2742 H 259.746 -4.07259 1.64427 0
M  V30 2743 H 260.352 -3.04816 2.96593 0
M  V30 2744 N 258.668 -1.30515 -0.883378 0
M  V30 2745 C 259.6 -1.12846 -1.99496 0
M  V30 2746 C 260.613 -0.0712571 -1.62644 0
M  V30 2747 O 261.802 -0.317432 -1.75655 0
M  V30 2748 C 258.902 -0.699123 -3.3161 0
M  V30 2749 C 258.075 -1.83842 -3.96889 0
M  V30 2750 C 257.134 -1.39737 -5.07307 0
M  V30 2751 O 256.16 -2.10485 -5.28852 0
M  V30 2752 N 257.362 -0.277279 -5.79837 0
M  V30 2753 H 260.127 -2.08585 -2.15203 0
M  V30 2754 H 257.688 -1.22672 -1.05656 0
M  V30 2755 H 259.68 -0.387044 -4.02845 0
M  V30 2756 H 258.25 0.166276 -3.12157 0
M  V30 2757 H 257.47 -2.31853 -3.18807 0
M  V30 2758 H 258.758 -2.60187 -4.37241 0
M  V30 2759 H 258.156 0.3122 -5.64838 0
M  V30 2760 H 256.713 -0.0246623 -6.51795 0
M  V30 2761 N 260.146 1.09593 -1.13257 0
M  V30 2762 C 261.423 1.78293 -0.804432 0
M  V30 2763 C 261.803 1.99004 0.70431 0
M  V30 2764 O 261.151 1.59007 1.641 0
M  V30 2765 C 261.361 3.10707 -1.5894 0
M  V30 2766 C 262.709 3.85443 -1.78099 0
M  V30 2767 O 263.733 3.20454 -1.55525 0
M  V30 2768 O 262.592 5.02108 -2.15753 0
M  V30 2769 H 259.686 0.773156 -0.293528 0
M  V30 2770 H 262.232 1.16164 -1.23709 0
M  V30 2771 H 261.004 2.91106 -2.61482 0
M  V30 2772 H 260.627 3.80558 -1.15157 0
M  V30 2773 N 261.624 0.925811 1.2754 0
M  V30 2774 C 263.035 0.610102 1.7645 0
M  V30 2775 C 263.386 -0.874723 1.75622 0
M  V30 2776 O 262.511 -1.68444 1.35851 0
M  V30 2777 C 263.106 1.10073 3.20421 0
M  V30 2778 C 261.665 0.835723 3.67005 0
M  V30 2779 C 260.812 1.26054 2.46993 0
M  V30 2780 H 263.763 1.10579 1.13833 0
M  V30 2781 H 263.784 0.447557 3.77859 0
M  V30 2782 H 263.296 2.18143 3.20991 0
M  V30 2783 H 261.397 -0.231249 3.71882 0
M  V30 2784 H 261.51 1.45193 4.56569 0
M  V30 2785 H 259.874 0.679111 2.45479 0
M  V30 2786 H 260.657 2.34984 2.50275 0
M  V30 2787 N 263.102 -1.41638 0.69111 0
M  V30 2788 C 264.35 -2.00902 0.219758 0
M  V30 2789 C 264.671 -1.54994 -1.18329 0
M  V30 2790 O 263.941 -0.778628 -1.79762 0
M  V30 2791 H 262.521 -0.74289 0.0782558 0
M  V30 2792 H 265.183 -1.73327 0.891271 0
M  V30 2793 H 264.279 -3.11224 0.233708 0
M  V30 2794 N 264.58 -0.43555 -1.51462 0
M  V30 2795 C 265.991 0.0279871 -1.86679 0
M  V30 2796 C 266.342 1.42104 -1.35281 0
M  V30 2797 O 265.467 2.04667 -0.702878 0
M  V30 2798 C 266.062 0.0575626 -3.38751 0
M  V30 2799 C 264.621 0.465507 -3.7351 0
M  V30 2800 C 263.768 -0.342996 -2.75171 0
M  V30 2801 H 266.719 -0.651473 -1.44712 0
M  V30 2802 H 266.74 0.867421 -3.70481 0
M  V30 2803 H 266.252 -0.956448 -3.7613 0
M  V30 2804 H 264.353 1.48519 -3.41721 0
M  V30 2805 H 264.466 0.191546 -4.78717 0
M  V30 2806 H 262.83 0.198442 -2.53926 0
M  V30 2807 H 263.613 -1.35585 -3.15391 0
M  V30 2808 N 266.058 1.56714 -0.166846 0
M  V30 2809 C 267.469 1.83378 0.350646 0
M  V30 2810 C 267.82 1.08646 1.63372 0
M  V30 2811 O 266.945 0.338058 2.13743 0
M  V30 2812 C 267.54 3.32643 0.642963 0
M  V30 2813 C 266.099 3.59818 1.10491 0
M  V30 2814 C 265.246 2.76954 0.138411 0
M  V30 2815 H 268.197 1.53803 -0.391193 0
M  V30 2816 H 268.218 3.49878 1.49551 0
M  V30 2817 H 267.73 3.87007 -0.291055 0
M  V30 2818 H 265.831 3.1086 2.05418 0
M  V30 2819 H 265.944 4.68178 1.01716 0
M  V30 2820 H 264.308 2.4666 0.634911 0
M  V30 2821 H 265.091 3.34097 -0.789549 0
M  V30 2822 N 267.536 -0.106894 1.57237 0
M  V30 2823 C 268.947 -0.662723 1.74542 0
M  V30 2824 C 269.298 -1.7971 0.787319 0
M  V30 2825 O 268.423 -2.16368 -0.0369636 0
M  V30 2826 C 269.018 -1.20896 3.16496 0
M  V30 2827 C 267.577 -1.71096 3.35266 0
M  V30 2828 C 266.724 -0.615642 2.7038 0
M  V30 2829 H 269.675 0.119106 1.58252 0
M  V30 2830 H 269.696 -2.07847 3.18716 0
M  V30 2831 H 269.208 -0.383122 3.86204 0
M  V30 2832 H 267.309 -2.56119 2.70618 0
M  V30 2833 H 267.422 -1.81208 4.43509 0
M  V30 2834 H 265.786 -1.05222 2.31949 0
M  V30 2835 H 266.569 0.199419 3.4272 0
M  V30 2836 N 269.014 -1.53014 -0.377408 0
M  V30 2837 C 270.425 -1.60438 -0.954798 0
M  V30 2838 C 270.776 -0.464418 -1.90624 0
M  V30 2839 O 269.901 0.41087 -2.12464 0
M  V30 2840 C 270.496 -2.90797 -1.73847 0
M  V30 2841 C 269.055 -3.00595 -2.26538 0
M  V30 2842 C 268.202 -2.55645 -1.07429 0
M  V30 2843 H 271.153 -1.57926 -0.156575 0
M  V30 2844 H 271.174 -2.77935 -2.5987 0
M  V30 2845 H 270.686 -3.73746 -1.04574 0
M  V30 2846 H 268.787 -2.22208 -2.99089 0
M  V30 2847 H 268.9 -4.05456 -2.5523 0
M  V30 2848 H 267.264 -2.10239 -1.43777 0
M  V30 2849 H 268.047 -3.41 -0.396728 0
M  V30 2850 N 270.492 0.636531 -1.44174 0
M  V30 2851 C 271.717 1.42847 -1.50364 0
M  V30 2852 C 272.142 1.87665 -0.127867 0
M  V30 2853 O 271.5 1.58408 0.88185 0
M  V30 2854 C 271.548 2.62854 -2.4686 0
M  V30 2855 O 270.652 3.62501 -1.9664 0
M  V30 2856 H 269.993 0.427642 -0.507955 0
M  V30 2857 H 272.523 0.777422 -1.89255 0
M  V30 2858 H 272.533 3.10465 -2.64718 0
M  V30 2859 H 271.208 2.29578 -3.46795 0
M  V30 2860 H 269.785 3.21735 -1.88523 0
M  V30 2861 N 271.97 1.30982 0.876444 0
M  V30 2862 C 273.381 1.18277 1.44456 0
M  V30 2863 C 273.732 -0.213265 1.95037 0
M  V30 2864 O 272.857 -1.11057 1.85729 0
M  V30 2865 C 273.452 2.1411 2.62569 0
M  V30 2866 C 272.011 2.05358 3.15444 0
M  V30 2867 C 271.158 2.03706 1.88146 0
M  V30 2868 H 274.109 1.43127 0.685584 0
M  V30 2869 H 274.13 1.72692 3.39054 0
M  V30 2870 H 273.642 3.15706 2.25724 0
M  V30 2871 H 271.743 1.06934 3.56926 0
M  V30 2872 H 271.856 2.94156 3.78166 0
M  V30 2873 H 270.22 1.48629 2.06837 0
M  V30 2874 H 271.003 3.07047 1.53547 0
M  V30 2875 N 273.449 -1.08991 1.13837 0
M  V30 2876 C 274.379 -2.17771 0.842507 0
M  V30 2877 C 275.36 -1.6892 -0.20001 0
M  V30 2878 O 276.545 -1.94113 -0.0579731 0
M  V30 2879 C 273.675 -3.4589 0.312644 0
M  V30 2880 C 272.629 -4.08099 1.28992 0
M  V30 2881 C 271.955 -5.31098 0.619623 0
M  V30 2882 C 273.255 -4.50077 2.65005 0
M  V30 2883 H 274.949 -2.42777 1.75213 0
M  V30 2884 H 272.495 -1.16682 0.843875 0
M  V30 2885 H 274.448 -4.21297 0.0933043 0
M  V30 2886 H 273.172 -3.20419 -0.632382 0
M  V30 2887 H 271.831 -3.34717 1.49533 0
M  V30 2888 H 271.479 -5.0191 -0.33102 0
M  V30 2889 H 271.179 -5.73674 1.27167 0
M  V30 2890 H 272.703 -6.09224 0.409669 0
M  V30 2891 H 274.117 -5.16688 2.48407 0
M  V30 2892 H 272.514 -5.03553 3.26427 0
M  V30 2893 H 273.584 -3.62257 3.22332 0
M  V30 2894 N 274.927 -0.932562 -1.27047 0
M  V30 2895 C 275.857 -0.452902 -2.29066 0
M  V30 2896 C 276.838 0.489338 -1.62909 0
M  V30 2897 O 278.023 0.393046 -1.90181 0
M  V30 2898 C 275.153 0.290698 -3.46081 0
M  V30 2899 C 274.107 -0.564168 -4.24265 0
M  V30 2900 C 273.433 0.308886 -5.33807 0
M  V30 2901 C 274.733 -1.83112 -4.89149 0
M  V30 2902 H 276.427 -1.30552 -2.69437 0
M  V30 2903 H 273.973 -0.629201 -1.29526 0
M  V30 2904 H 275.926 0.637233 -4.16554 0
M  V30 2905 H 274.65 1.17738 -3.0464 0
M  V30 2906 H 273.309 -0.893477 -3.55545 0
M  V30 2907 H 272.957 1.19467 -4.88607 0
M  V30 2908 H 272.657 -0.259633 -5.87026 0
M  V30 2909 H 274.181 0.650884 -6.07121 0
M  V30 2910 H 275.595 -1.55236 -5.51883 0
M  V30 2911 H 273.992 -2.34353 -5.52448 0
M  V30 2912 H 275.062 -2.54772 -4.12576 0
M  V30 2913 N 276.405 1.4127 -0.698611 0
M  V30 2914 C 277.653 2.00782 -0.230409 0
M  V30 2915 C 277.974 1.5562 1.17505 0
M  V30 2916 O 277.244 0.78815 1.79346 0
M  V30 2917 H 275.824 0.742464 -0.0821944 0
M  V30 2918 H 278.486 1.72852 -0.90045 0
M  V30 2919 H 277.582 3.11095 -0.25021 0
M  V30 2920 N 277.883 0.443576 1.51229 0
M  V30 2921 C 278.813 -0.355142 2.30783 0
M  V30 2922 C 279.794 -1.0154 1.36468 0
M  V30 2923 O 280.979 -1.01785 1.65389 0
M  V30 2924 C 278.109 -1.45312 3.15439 0
M  V30 2925 C 277.063 -0.916002 4.18083 0
M  V30 2926 C 276.389 -2.1102 4.91299 0
M  V30 2927 C 277.689 0.0538602 5.22272 0
M  V30 2928 H 279.383 0.308767 2.97804 0
M  V30 2929 H 276.929 0.149937 1.43217 0
M  V30 2930 H 278.882 -2.01914 3.69876 0
M  V30 2931 H 277.606 -2.14541 2.46252 0
M  V30 2932 H 276.265 -0.372145 3.64706 0
M  V30 2933 H 275.913 -2.78882 4.18609 0
M  V30 2934 H 275.613 -1.75717 5.60712 0
M  V30 2935 H 277.137 -2.68164 5.48562 0
M  V30 2936 H 278.551 -0.422069 5.71744 0
M  V30 2937 H 276.948 0.319776 5.99247 0
M  V30 2938 H 278.018 0.98858 4.74716 0
M  V30 2939 N 279.361 -1.56624 0.175154 0
M  V30 2940 C 280.308 -2.18149 -0.753634 0
M  V30 2941 C 281.278 -1.12265 -1.22417 0
M  V30 2942 O 282.463 -1.40432 -1.29165 0
M  V30 2943 C 279.603 -2.82933 -1.97592 0
M  V30 2944 C 278.716 -4.03289 -1.5486 0
M  V30 2945 C 277.851 -4.55988 -2.72485 0
M  V30 2946 C 276.89 -5.68746 -2.26262 0
M  V30 2947 N 276.027 -6.15938 -3.36994 0
M  V30 2948 H 280.867 -2.9717 -0.222195 0
M  V30 2949 H 278.404 -1.46774 -0.0979422 0
M  V30 2950 H 280.362 -3.18653 -2.69288 0
M  V30 2951 H 278.992 -2.06509 -2.481 0
M  V30 2952 H 278.044 -3.73364 -0.728246 0
M  V30 2953 H 279.356 -4.849 -1.16933 0
M  V30 2954 H 278.51 -4.9391 -3.52332 0
M  V30 2955 H 277.249 -3.73443 -3.13674 0
M  V30 2956 H 276.254 -5.30372 -1.44863 0
M  V30 2957 H 277.479 -6.53095 -1.86127 0
M  V30 2958 H 275.425 -5.36321 -3.77751 0
M  V30 2959 H 275.342 -6.92548 -3.03172 0
M  V30 2960 H 276.61 -6.58511 -4.17114 0
M  V30 2961 N 280.839 0.0985539 -1.57292 0
M  V30 2962 C 282.25 0.653457 -1.74891 0
M  V30 2963 C 282.601 1.7929 -0.796838 0
M  V30 2964 O 281.726 2.16385 0.0254886 0
M  V30 2965 C 282.321 1.19216 -3.17133 0
M  V30 2966 C 280.88 1.69316 -3.36168 0
M  V30 2967 C 280.027 0.601294 -2.70702 0
M  V30 2968 H 282.978 -0.127497 -1.58187 0
M  V30 2969 H 282.999 2.06154 -3.19814 0
M  V30 2970 H 282.511 0.362635 -3.86402 0
M  V30 2971 H 280.612 2.5468 -2.71972 0
M  V30 2972 H 280.725 1.78853 -4.44464 0
M  V30 2973 H 279.089 1.0399 -2.32504 0
M  V30 2974 H 279.872 -0.217592 -3.4261 0
M  V30 2975 N 282.317 1.53212 0.369288 0
M  V30 2976 C 283.247 1.82365 1.45826 0
M  V30 2977 C 284.228 0.676907 1.56051 0
M  V30 2978 O 285.413 0.926401 1.70679 0
M  V30 2979 C 282.543 2.01023 2.83208 0
M  V30 2980 C 281.497 3.1678 2.8781 0
M  V30 2981 C 280.823 3.20724 4.27832 0
M  V30 2982 C 282.123 4.55447 2.55667 0
M  V30 2983 H 283.817 2.73559 1.21678 0
M  V30 2984 H 281.363 1.3163 0.583911 0
M  V30 2985 H 283.316 2.20001 3.59413 0
M  V30 2986 H 282.04 1.06536 3.08736 0
M  V30 2987 H 280.699 2.97616 2.14056 0
M  V30 2988 H 280.347 2.23882 4.50429 0
M  V30 2989 H 280.047 3.98496 4.31827 0
M  V30 2990 H 281.571 3.41881 5.05915 0
M  V30 2991 H 282.985 4.74611 3.21586 0
M  V30 2992 H 281.382 5.35432 2.70984 0
M  V30 2993 H 282.452 4.60812 1.5093 0
M  V30 2994 N 283.795 -0.628877 1.44509 0
M  V30 2995 C 284.727 -1.754 1.47538 0
M  V30 2996 C 285.74 -1.58575 0.368506 0
M  V30 2997 O 286.929 -1.66847 0.634376 0
M  V30 2998 C 284.029 -3.1315 1.29577 0
M  V30 2999 C 283.202 -3.56413 2.53551 0
M  V30 3000 C 282.261 -4.7305 2.30457 0
M  V30 3001 O 281.287 -4.81247 3.03957 0
M  V30 3002 N 282.489 -5.64903 1.3366 0
M  V30 3003 H 285.254 -1.73272 2.44534 0
M  V30 3004 H 282.815 -0.813512 1.39977 0
M  V30 3005 H 284.807 -3.88902 1.11971 0
M  V30 3006 H 283.377 -3.09908 0.409371 0
M  V30 3007 H 282.597 -2.70847 2.86419 0
M  V30 3008 H 283.885 -3.82071 3.36005 0
M  V30 3009 H 283.283 -5.60975 0.729604 0
M  V30 3010 H 281.84 -6.40275 1.22032 0
M  V30 3011 N 285.273 -1.31445 -0.869486 0
M  V30 3012 C 286.203 -1.21727 -1.99261 0
M  V30 3013 C 287.184 -0.104359 -1.6978 0
M  V30 3014 O 288.369 -0.289038 -1.92037 0
M  V30 3015 C 285.499 -0.924317 -3.34774 0
M  V30 3016 C 284.453 -1.99685 -3.78563 0
M  V30 3017 C 283.779 -1.55658 -5.11541 0
M  V30 3018 C 285.079 -3.41003 -3.95619 0
M  V30 3019 H 286.773 -2.1569 -2.07649 0
M  V30 3020 H 284.319 -1.03839 -0.997675 0
M  V30 3021 H 286.272 -0.842934 -4.12883 0
M  V30 3022 H 284.996 0.0509793 -3.2656 0
M  V30 3023 H 283.655 -2.06813 -3.02694 0
M  V30 3024 H 283.303 -0.569132 -4.9977 0
M  V30 3025 H 283.003 -2.27409 -5.41811 0
M  V30 3026 H 284.527 -1.48928 -5.92159 0
M  V30 3027 H 285.941 -3.36547 -4.64122 0
M  V30 3028 H 284.338 -4.10975 -4.37286 0
M  V30 3029 H 285.408 -3.81754 -2.98985 0
M  V30 3030 N 286.751 1.08385 -1.14413 0
M  V30 3031 C 287.681 2.17321 -0.854044 0
M  V30 3032 C 288.662 1.69024 0.191049 0
M  V30 3033 O 289.847 1.94141 0.0476779 0
M  V30 3034 C 286.977 3.45719 -0.330983 0
M  V30 3035 C 285.931 4.07409 -1.31155 0
M  V30 3036 C 285.257 5.30762 -0.64778 0
M  V30 3037 C 286.557 4.48665 -2.67388 0
M  V30 3038 H 288.251 2.41845 -1.76498 0
M  V30 3039 H 285.797 1.16233 -0.850051 0
M  V30 3040 H 287.75 4.21241 -0.115645 0
M  V30 3041 H 286.474 3.2075 0.615381 0
M  V30 3042 H 285.133 3.33919 -1.51306 0
M  V30 3043 H 284.781 5.02078 0.304398 0
M  V30 3044 H 284.481 5.72992 -1.30207 0
M  V30 3045 H 286.005 6.08998 -0.441972 0
M  V30 3046 H 287.419 5.15364 -2.51143 0
M  V30 3047 H 285.816 5.01814 -3.29093 0
M  V30 3048 H 286.886 3.60543 -3.24248 0
M  V30 3049 N 288.23 0.939286 1.26551 0
M  V30 3050 C 289.14 0.453432 2.30176 0
M  V30 3051 C 290.156 -0.471649 1.67486 0
M  V30 3052 O 291.332 -0.35164 1.98306 0
M  V30 3053 C 288.397 -0.275326 3.45605 0
M  V30 3054 C 287.458 0.686084 4.23782 0
M  V30 3055 C 286.691 -0.00798994 5.33699 0
M  V30 3056 O 286.914 -1.22528 5.57085 0
M  V30 3057 O 285.848 0.669746 5.98162 0
M  V30 3058 H 289.674 1.31416 2.73795 0
M  V30 3059 H 287.259 0.705095 1.31715 0
M  V30 3060 H 289.141 -0.685911 4.1578 0
M  V30 3061 H 287.816 -1.11147 3.0402 0
M  V30 3062 H 286.723 1.14658 3.56096 0
M  V30 3063 H 288.056 1.48979 4.69112 0
M  V30 3064 N 289.708 -1.40897 0.706093 0
M  V30 3065 C 290.954 -2.01352 0.241889 0
M  V30 3066 C 291.287 -1.55832 -1.15888 0
M  V30 3067 O 290.562 -0.774145 -1.7843 0
M  V30 3068 C 290.845 -3.58752 0.311311 0
M  V30 3069 C 290.698 -4.1437 1.74978 0
M  V30 3070 C 292.017 -4.38914 -0.322922 0
M  V30 3071 H 289.136 -0.731562 0.0893687 0
M  V30 3072 H 291.778 -1.67504 0.896802 0
M  V30 3073 H 289.928 -3.87718 -0.246302 0
M  V30 3074 H 291.6 -3.96239 2.36205 0
M  V30 3075 H 289.843 -3.69016 2.28057 0
M  V30 3076 H 290.514 -5.23532 1.74981 0
M  V30 3077 H 292.99 -4.15822 0.152089 0
M  V30 3078 H 291.866 -5.48358 -0.243855 0
M  V30 3079 H 292.127 -4.19176 -1.40513 0
M  V30 3080 N 291.186 -0.45159 -1.50991 0
M  V30 3081 C 292.133 0.352625 -2.2809 0
M  V30 3082 C 293.103 1.0044 -1.32291 0
M  V30 3083 O 294.288 1.02058 -1.6121 0
M  V30 3084 C 291.428 1.43983 -3.13629 0
M  V30 3085 C 290.541 0.804772 -4.24438 0
M  V30 3086 C 289.676 1.86822 -4.97263 0
M  V30 3087 C 288.715 1.21236 -5.99973 0
M  V30 3088 N 287.852 2.2178 -6.66152 0
M  V30 3089 H 292.692 -0.311186 -2.96371 0
M  V30 3090 H 290.229 -0.165308 -1.46168 0
M  V30 3091 H 292.187 2.08161 -3.61559 0
M  V30 3092 H 290.817 2.07307 -2.47434 0
M  V30 3093 H 289.869 0.0509129 -3.80366 0
M  V30 3094 H 291.181 0.286076 -4.97979 0
M  V30 3095 H 290.335 2.58628 -5.48813 0
M  V30 3096 H 289.074 2.42068 -4.23385 0
M  V30 3097 H 288.079 0.479828 -5.47702 0
M  V30 3098 H 289.304 0.667051 -6.75816 0
M  V30 3099 H 287.25 2.76079 -5.95077 0
M  V30 3100 H 287.167 1.74841 -7.35504 0
M  V30 3101 H 288.435 2.93026 -7.22327 0
M  V30 3102 N 292.664 1.56529 -0.183458 0
M  V30 3103 C 293.627 2.17324 0.728223 0
M  V30 3104 C 294.627 1.12453 1.14939 0
M  V30 3105 O 295.817 1.37902 1.06437 0
M  V30 3106 C 292.949 2.76591 1.99274 0
M  V30 3107 H 294.142 2.99241 0.198772 0
M  V30 3108 H 291.695 1.5616 0.0661391 0
M  V30 3109 H 292.43 1.98441 2.56499 0
M  V30 3110 H 292.215 3.5335 1.69959 0
M  V30 3111 H 293.705 3.23311 2.6431 0
M  V30 3112 N 294.142 -0.090211 1.57342 0
M  V30 3113 C 295.558 -0.444547 1.53284 0
M  V30 3114 C 295.758 -1.80238 0.900914 0
M  V30 3115 O 294.814 -2.4759 0.495513 0
M  V30 3116 C 296.127 -0.402543 2.97993 0
M  V30 3117 C 297.675 -0.48405 3.09234 0
M  V30 3118 C 298.15 -0.472144 4.5556 0
M  V30 3119 N 299.641 -0.532757 4.60126 0
M  V30 3120 C 300.376 -0.545462 5.708 0
M  V30 3121 N 299.872 -0.514082 6.9089 0
M  V30 3122 N 301.665 -0.59064 5.58988 0
M  V30 3123 H 293.816 0.799121 1.96794 0
M  V30 3124 H 296.079 0.297965 0.899956 0
M  V30 3125 H 295.785 0.528106 3.47712 0
M  V30 3126 H 295.659 -1.21969 3.56936 0
M  V30 3127 H 298.046 -1.40512 2.595 0
M  V30 3128 H 298.127 0.361328 2.53235 0
M  V30 3129 H 297.771 0.445 5.05947 0
M  V30 3130 H 297.701 -1.3348 5.09402 0
M  V30 3131 H 300.192 -0.562006 3.73698 0
M  V30 3132 H 300.505 -0.527195 7.71 0
M  V30 3133 H 298.85 -0.481054 6.93333 0
M  V30 3134 H 302.041 -0.61272 4.64073 0
M  V30 3135 H 302.214 -0.597073 6.45243 0
M  V30 3136 N 295.62 -1.53406 -0.361157 0
M  V30 3137 C 296.868 -1.69467 -1.10115 0
M  V30 3138 C 297.189 -0.451352 -1.89705 0
M  V30 3139 O 296.459 0.534636 -1.88463 0
M  V30 3140 H 295.039 -0.624749 -0.409508 0
M  V30 3141 H 297.701 -1.90609 -0.406699 0
M  V30 3142 H 296.797 -2.55774 -1.78847 0
M  V30 3143 N 297.098 0.621204 -1.44841 0
M  V30 3144 C 298.514 0.94048 -1.28946 0
M  V30 3145 C 298.714 2.00154 -0.23249 0
M  V30 3146 O 297.77 2.49651 0.378237 0
M  V30 3147 C 299.083 1.39433 -2.66419 0
M  V30 3148 C 300.631 1.50927 -2.74208 0
M  V30 3149 C 301.106 1.99692 -4.12174 0
M  V30 3150 N 302.597 2.06947 -4.144 0
M  V30 3151 C 303.332 2.45871 -5.1801 0
M  V30 3152 N 302.828 2.83862 -6.31977 0
M  V30 3153 N 304.621 2.46092 -5.05366 0
M  V30 3154 H 296.772 -0.0803548 -2.12248 0
M  V30 3155 H 299.035 0.0266913 -0.947624 0
M  V30 3156 H 298.741 0.688925 -3.44887 0
M  V30 3157 H 298.615 2.36347 -2.93973 0
M  V30 3158 H 301.002 2.20561 -1.96053 0
M  V30 3159 H 301.083 0.523627 -2.50383 0
M  V30 3160 H 300.727 1.30649 -4.90809 0
M  V30 3161 H 300.657 2.99146 -4.33381 0
M  V30 3162 H 303.148 1.80232 -3.32152 0
M  V30 3163 H 303.461 3.12405 -7.0684 0
M  V30 3164 H 301.806 2.8159 -6.35399 0
M  V30 3165 H 304.997 2.1581 -4.15384 0
M  V30 3166 H 305.17 2.76102 -5.86235 0
M  V30 3167 N 298.576 1.31904 0.862503 0
M  V30 3168 C 299.823 1.22017 1.61611 0
M  V30 3169 C 300.151 -0.21991 1.93253 0
M  V30 3170 O 299.406 -1.17076 1.56817 0
M  V30 3171 C 299.705 2.01713 2.95037 0
M  V30 3172 C 299.371 3.51145 2.82857 0
M  V30 3173 C 298.033 3.91889 2.79243 0
M  V30 3174 C 300.385 4.46204 2.69353 0
M  V30 3175 C 297.713 5.25947 2.59993 0
M  V30 3176 C 300.065 5.80397 2.5164 0
M  V30 3177 C 298.729 6.20352 2.46413 0
M  V30 3178 H 297.999 0.44649 0.591378 0
M  V30 3179 H 300.646 1.63248 1.00111 0
M  V30 3180 H 298.951 1.53185 3.60613 0
M  V30 3181 H 300.648 1.91437 3.52353 0
M  V30 3182 H 297.238 3.1878 2.86491 0
M  V30 3183 H 301.422 4.15652 2.71196 0
M  V30 3184 H 296.678 5.5597 2.54376 0
M  V30 3185 H 300.852 6.53676 2.40169 0
M  V30 3186 H 298.479 7.24172 2.31256 0
M  V30 3187 N 300.054 -1.07777 1.14986 0
M  V30 3188 C 301.302 -1.79934 0.920235 0
M  V30 3189 C 301.623 -1.86955 -0.554336 0
M  V30 3190 O 300.893 -1.36731 -1.40291 0
M  V30 3191 H 299.473 -0.666424 0.337473 0
M  V30 3192 H 302.135 -1.3027 1.44968 0
M  V30 3193 H 301.231 -2.82539 1.32583 0
M  V30 3194 N 301.532 -0.945985 -1.26051 0
M  V30 3195 C 302.772 -0.603665 -1.95282 0
M  V30 3196 C 303.136 0.842377 -1.72534 0
M  V30 3197 O 304.337 1.29387 -2.35611 0
M  V30 3198 C 302.608 -0.942292 -3.44754 0
M  V30 3199 S 304.167 -0.711242 -4.32997 0
M  V30 3200 H 300.985 -0.222176 -0.675395 0
M  V30 3201 H 303.587 -1.21832 -1.52896 0
M  V30 3202 H 302.291 -1.99203 -3.58812 0
M  V30 3203 H 301.822 -0.317546 -3.92116 0
M  V30 3204 H 303.837 0.422221 -4.944 0
M  V30 3205 N 303.011 1.40521 -0.713556 0
M  V30 3206 C 304.257 2.01221 -0.252564 0
M  V30 3207 C 304.59 1.56444 1.1506 0
M  V30 3208 O 303.865 0.783597 1.78017 0
M  V30 3209 C 304.148 3.58582 -0.330332 0
M  V30 3210 C 304.001 4.13437 -1.77173 0
M  V30 3211 C 305.32 4.39079 0.299641 0
M  V30 3212 H 302.439 0.731077 -0.0932471 0
M  V30 3213 H 305.081 1.67026 -0.905673 0
M  V30 3214 H 303.231 3.87844 0.225737 0
M  V30 3215 H 304.903 3.9498 -2.38303 0
M  V30 3216 H 303.146 3.67801 -2.3001 0
M  V30 3217 H 303.817 5.22597 -1.77755 0
M  V30 3218 H 306.293 4.15735 -0.174139 0
M  V30 3219 H 305.169 5.4848 0.214771 0
M  V30 3220 H 305.43 4.19915 1.38288 0
M  V30 3221 N 304.489 0.459591 1.5075 0
M  V30 3222 C 305.735 -0.091664 2.03193 0
M  V30 3223 C 306.09 -1.38432 1.3362 0
M  V30 3224 O 305.383 -1.86257 0.449322 0
M  V30 3225 C 305.577 -0.342866 3.55752 0
M  V30 3226 C 305.406 0.923888 4.40107 0
M  V30 3227 C 304.176 1.46388 4.83631 0
M  V30 3228 C 306.374 1.81617 4.81165 0
M  V30 3229 N 304.356 2.68086 5.52271 0
M  V30 3230 C 305.727 2.87907 5.49099 0
M  V30 3231 C 307.782 1.82793 4.63132 0
M  V30 3232 C 306.485 3.95347 6.0091 0
M  V30 3233 C 308.511 2.89182 5.15876 0
M  V30 3234 C 307.873 3.94191 5.83774 0
M  V30 3235 H 303.972 0.00619247 0.781975 0
M  V30 3236 H 306.556 0.625233 1.84388 0
M  V30 3237 H 304.727 -1.0288 3.74527 0
M  V30 3238 H 306.459 -0.887445 3.9485 0
M  V30 3239 H 303.214 1.01466 4.62603 0
M  V30 3240 H 303.638 3.29857 5.91205 0
M  V30 3241 H 308.28 1.0293 4.1008 0
M  V30 3242 H 305.998 4.76035 6.53006 0
M  V30 3243 H 309.584 2.91061 5.0376 0
M  V30 3244 H 308.464 4.75161 6.23853 0
M  V30 3245 N 305.967 -1.56429 0.191757 0
M  V30 3246 C 306.914 -2.18936 -0.730454 0
M  V30 3247 C 307.884 -1.13557 -1.21219 0
M  V30 3248 O 309.069 -1.41794 -1.27668 0
M  V30 3249 C 306.209 -2.85013 -1.9458 0
M  V30 3250 C 305.322 -4.04909 -1.50574 0
M  V30 3251 C 304.457 -4.58853 -2.67634 0
M  V30 3252 C 303.496 -5.71114 -2.20217 0
M  V30 3253 N 302.633 -6.19478 -3.30442 0
M  V30 3254 H 307.473 -2.97389 -0.190664 0
M  V30 3255 H 305.01 -1.46869 -0.0823694 0
M  V30 3256 H 306.968 -3.21492 -2.65893 0
M  V30 3257 H 305.598 -2.09129 -2.45896 0
M  V30 3258 H 304.65 -3.74115 -0.688605 0
M  V30 3259 H 305.962 -4.86113 -1.11784 0
M  V30 3260 H 305.116 -4.97619 -3.47074 0
M  V30 3261 H 303.855 -3.76749 -3.09696 0
M  V30 3262 H 302.86 -5.31879 -1.3923 0
M  V30 3263 H 304.085 -6.55033 -1.79189 0
M  V30 3264 H 302.031 -5.40297 -3.72041 0
M  V30 3265 H 301.948 -6.95725 -2.9581 0
M  V30 3266 H 303.216 -6.62898 -4.10106 0
M  V30 3267 N 307.445 0.0818655 -1.57387 0
M  V30 3268 C 308.408 1.08265 -2.02018 0
M  V30 3269 C 309.408 1.32183 -0.915664 0
M  V30 3270 O 310.598 1.28073 -1.18081 0
M  V30 3271 C 307.73 2.42871 -2.39221 0
M  V30 3272 H 308.923 0.698204 -2.91659 0
M  V30 3273 H 306.476 0.327303 -1.52835 0
M  V30 3274 H 307.211 2.86167 -1.52575 0
M  V30 3275 H 306.996 2.26855 -3.19811 0
M  V30 3276 H 308.486 3.14826 -2.74362 0
M  V30 3277 N 308.923 1.53595 0.353017 0
M  V30 3278 C 309.855 1.77219 1.45348 0
M  V30 3279 C 310.868 0.65324 1.49119 0
M  V30 3280 O 312.057 0.929775 1.52373 0
M  V30 3281 C 309.157 1.84841 2.84055 0
M  V30 3282 C 308.33 3.14649 3.03833 0
M  V30 3283 C 307.389 3.13351 4.22727 0
M  V30 3284 O 306.415 3.87107 4.17297 0
M  V30 3285 N 307.617 2.35052 5.30783 0
M  V30 3286 H 310.382 2.72178 1.25457 0
M  V30 3287 H 307.943 1.52528 0.542833 0
M  V30 3288 H 309.935 1.81435 3.61751 0
M  V30 3289 H 308.505 0.971114 2.97133 0
M  V30 3290 H 307.725 3.31256 2.13689 0
M  V30 3291 H 309.013 4.00411 3.13925 0
M  V30 3292 H 308.411 1.74663 5.38061 0
M  V30 3293 H 306.968 2.37453 6.07009 0
M  V30 3294 N 310.401 -0.613514 1.45168 0
M  V30 3295 C 311.331 -1.7354 1.56225 0
M  V30 3296 C 312.312 -1.64981 0.41414 0
M  V30 3297 O 313.497 -1.83472 0.636526 0
M  V30 3298 C 310.627 -3.12128 1.52295 0
M  V30 3299 C 309.581 -3.35491 2.65762 0
M  V30 3300 C 308.907 -4.74291 2.46885 0
M  V30 3301 C 310.207 -3.26325 4.0781 0
M  V30 3302 H 311.901 -1.64543 2.50132 0
M  V30 3303 H 309.447 -0.790185 1.20383 0
M  V30 3304 H 311.4 -3.90404 1.58628 0
M  V30 3305 H 310.124 -3.2195 0.549139 0
M  V30 3306 H 308.783 -2.59603 2.58847 0
M  V30 3307 H 308.431 -4.80839 1.47657 0
M  V30 3308 H 308.131 -4.9088 3.22972 0
M  V30 3309 H 309.655 -5.54775 2.55063 0
M  V30 3310 H 311.069 -3.94483 4.16 0
M  V30 3311 H 309.466 -3.54445 4.8424 0
M  V30 3312 H 310.536 -2.23855 4.30136 0
M  V30 3313 N 311.879 -1.3236 -0.855495 0
M  V30 3314 C 312.809 -1.23833 -1.97958 0
M  V30 3315 C 313.79 -0.122361 -1.69659 0
M  V30 3316 O 314.975 -0.30939 -1.9172 0
M  V30 3317 C 312.105 -0.959772 -3.33775 0
M  V30 3318 C 311.059 -2.03689 -3.76424 0
M  V30 3319 C 310.385 -1.61075 -5.09862 0
M  V30 3320 C 311.685 -3.4518 -3.9198 0
M  V30 3321 H 313.379 -2.1788 -2.0535 0
M  V30 3322 H 310.925 -1.04891 -0.986605 0
M  V30 3323 H 312.878 -0.886678 -4.11966 0
M  V30 3324 H 311.602 0.0163404 -3.26596 0
M  V30 3325 H 310.261 -2.10012 -3.00484 0
M  V30 3326 H 309.909 -0.622107 -4.99138 0
M  V30 3327 H 309.609 -2.33143 -5.39368 0
M  V30 3328 H 311.133 -1.55201 -5.90546 0
M  V30 3329 H 312.547 -3.4145 -4.60526 0
M  V30 3330 H 310.944 -4.1559 -4.32903 0
M  V30 3331 H 312.014 -3.84903 -2.94919 0
M  V30 3332 N 313.357 1.07166 -1.15556 0
M  V30 3333 C 314.305 2.16517 -0.8499 0
M  V30 3334 C 315.299 1.68468 0.177454 0
M  V30 3335 O 316.505 1.79971 0.0323026 0
M  V30 3336 H 312.88 0.706652 -0.25719 0
M  V30 3337 H 314.851 2.39514 -1.77976 0
M  V30 3338 C 313.6 3.45855 -0.357682 0
M  V30 3339 H 312.923 3.83214 -1.13961 0
M  V30 3340 H 314.363 4.23607 -0.182489 0
M  V30 3341 C 312.822 3.24062 0.921152 0
M  V30 3342 O 313.352 3.48813 1.9923 0
M  V30 3343 N 311.558 2.77539 0.86141 0
M  V30 3344 H 311.105 2.57598 -0.0104408 0
M  V30 3345 H 311.063 2.63337 1.71758 0
M  V30 3346 N 314.835 0.952656 1.25548 0
M  V30 3347 C 315.745 0.47782 2.29682 0
M  V30 3348 C 316.761 -0.453859 1.67977 0
M  V30 3349 O 317.937 -0.330587 1.98668 0
M  V30 3350 C 315.002 -0.238655 3.45878 0
M  V30 3351 C 314.063 0.730994 4.23031 0
M  V30 3352 C 313.296 0.0486165 5.33678 0
M  V30 3353 O 313.519 -1.16612 5.58353 0
M  V30 3354 O 312.453 0.733152 5.97418 0
M  V30 3355 H 316.279 1.34312 2.72386 0
M  V30 3356 H 313.864 0.719026 1.30959 0
M  V30 3357 H 315.746 -0.641774 4.16484 0
M  V30 3358 H 314.421 -1.07916 3.05181 0
M  V30 3359 H 313.328 1.18428 3.5486 0
M  V30 3360 H 314.661 1.53946 4.67506 0
M  V30 3361 N 316.313 -1.40141 0.720998 0
M  V30 3362 C 317.543 -2.04798 0.27226 0
M  V30 3363 C 317.951 -1.54442 -1.09289 0
M  V30 3364 O 317.294 -0.698342 -1.69908 0
M  V30 3365 C 317.356 -3.59048 0.18027 0
M  V30 3366 C 317.02 -4.32317 1.48159 0
M  V30 3367 C 318.017 -4.59902 2.42458 0
M  V30 3368 C 315.702 -4.71125 1.74202 0
M  V30 3369 C 317.696 -5.25288 3.61042 0
M  V30 3370 C 315.383 -5.36242 2.93066 0
M  V30 3371 C 316.381 -5.63254 3.86308 0
M  V30 3372 O 316.069 -6.27024 5.03086 0
M  V30 3373 H 315.801 -0.665419 0.119139 0
M  V30 3374 H 318.355 -1.80436 0.981432 0
M  V30 3375 H 316.585 -3.82251 -0.58489 0
M  V30 3376 H 318.274 -4.05221 -0.234618 0
M  V30 3377 H 319.04 -4.30379 2.23604 0
M  V30 3378 H 314.919 -4.49466 1.02477 0
M  V30 3379 H 318.463 -5.46289 4.33837 0
M  V30 3380 H 314.36 -5.65185 3.11826 0
M  V30 3381 H 315.128 -6.4552 5.03235 0
M  V30 3382 N 317.792 -0.46758 -1.50504 0
M  V30 3383 C 319.038 0.0887532 -2.02606 0
M  V30 3384 C 319.371 1.39686 -1.34913 0
M  V30 3385 O 318.646 1.88644 -0.473694 0
M  V30 3386 C 318.929 0.276206 -3.59039 0
M  V30 3387 C 318.782 -1.05267 -4.37309 0
M  V30 3388 C 320.101 1.03235 -4.27821 0
M  V30 3389 H 317.22 0.0307814 -0.736357 0
M  V30 3390 H 319.862 -0.612485 -1.79857 0
M  V30 3391 H 318.012 0.8735 -3.78553 0
M  V30 3392 H 319.684 -1.68628 -4.29374 0
M  V30 3393 H 317.927 -1.65015 -4.01189 0
M  V30 3394 H 318.598 -0.875197 -5.45018 0
M  V30 3395 H 321.074 0.526111 -4.12761 0
M  V30 3396 H 319.95 1.1323 -5.37094 0
M  V30 3397 H 320.211 2.06806 -3.90748 0
M  V30 3398 N 319.27 1.56325 -0.20005 0
M  V30 3399 C 320.233 2.18084 0.705132 0
M  V30 3400 C 321.233 1.13666 1.1374 0
M  V30 3401 O 322.423 1.39023 1.04968 0
M  V30 3402 C 319.555 2.78689 1.96329 0
M  V30 3403 H 320.748 2.99435 0.167023 0
M  V30 3404 H 318.301 1.56221 0.0495725 0
M  V30 3405 H 319.036 2.0115 2.5438 0
M  V30 3406 H 318.821 3.55133 1.66202 0
M  V30 3407 H 320.311 3.26096 2.60866 0
M  V30 3408 N 320.748 -0.0735177 1.57428 0
M  V30 3409 C 321.994 -0.774145 1.87443 0
M  V30 3410 C 322.327 -1.77311 0.792103 0
M  V30 3411 O 321.602 -1.93492 -0.197793 0
M  V30 3412 C 321.885 -1.48367 3.28115 0
M  V30 3413 C 321.738 -0.501227 4.46999 0
M  V30 3414 C 323.057 -2.429 3.66998 0
M  V30 3415 H 320.176 -0.279971 0.681752 0
M  V30 3416 H 322.818 -0.0373616 1.89963 0
M  V30 3417 H 320.968 -2.11171 3.26097 0
M  V30 3418 H 322.64 0.121468 4.6114 0
M  V30 3419 H 320.883 0.183593 4.33411 0
M  V30 3420 H 321.554 -1.03526 5.42205 0
M  V30 3421 H 324.03 -1.90175 3.70098 0
M  V30 3422 H 322.906 -2.89549 4.66318 0
M  V30 3423 H 323.167 -3.27628 2.96837 0
M  V30 3424 N 322.226 -1.5378 -0.344866 0
M  V30 3425 C 323.173 -1.81676 -1.42346 0
M  V30 3426 C 324.143 -0.662376 -1.52321 0
M  V30 3427 O 325.328 -0.906675 -1.67881 0
M  V30 3428 C 322.468 -2.03087 -2.79015 0
M  V30 3429 C 321.581 -3.30799 -2.77842 0
M  V30 3430 C 320.716 -3.42285 -4.0622 0
M  V30 3431 C 319.755 -4.6395 -3.9927 0
M  V30 3432 N 318.892 -4.72477 -5.19336 0
M  V30 3433 H 323.732 -2.73703 -1.17858 0
M  V30 3434 H 321.269 -1.35568 -0.570949 0
M  V30 3435 H 323.227 -2.1349 -3.58438 0
M  V30 3436 H 321.857 -1.14375 -3.01858 0
M  V30 3437 H 320.909 -3.29244 -1.90533 0
M  V30 3438 H 322.221 -4.20314 -2.68584 0
M  V30 3439 H 321.375 -3.52113 -4.94066 0
M  V30 3440 H 320.114 -2.50823 -4.18258 0
M  V30 3441 H 319.119 -4.54201 -3.09809 0
M  V30 3442 H 320.344 -5.56775 -3.88817 0
M  V30 3443 H 318.29 -3.83924 -5.3192 0
M  V30 3444 H 318.207 -5.55927 -5.12329 0
M  V30 3445 H 319.475 -4.86613 -6.08957 0
M  V30 3446 N 323.704 0.605807 -1.45491 0
M  V30 3447 C 324.953 1.36086 -1.48874 0
M  V30 3448 C 325.266 1.95131 -0.135333 0
M  V30 3449 O 326.472 2.7146 -0.0468144 0
M  V30 3450 C 324.928 2.46518 -2.62215 0
M  V30 3451 C 324.536 1.93877 -4.03876 0
M  V30 3452 C 326.28 3.23512 -2.74846 0
M  V30 3453 C 324.187 3.01801 -5.08596 0
M  V30 3454 H 323.117 0.511497 -0.553974 0
M  V30 3455 H 325.768 0.649089 -1.71636 0
M  V30 3456 H 324.15 3.20388 -2.32739 0
M  V30 3457 H 325.324 1.26704 -4.43038 0
M  V30 3458 H 323.639 1.29622 -3.95711 0
M  V30 3459 H 326.236 4.04013 -3.50253 0
M  V30 3460 H 326.579 3.74631 -1.81542 0
M  V30 3461 H 327.112 2.56742 -3.03856 0
M  V30 3462 H 323.851 2.55597 -6.03614 0
M  V30 3463 H 323.371 3.67535 -4.74002 0
M  V30 3464 H 325.05 3.66152 -5.33424 0
M  V30 3465 N 325.182 1.32811 0.848464 0
M  V30 3466 C 326.429 1.23724 1.60308 0
M  V30 3467 C 326.757 -0.1994 1.93475 0
M  V30 3468 O 326.012 -1.15406 1.5805 0
M  V30 3469 C 326.311 2.04831 2.92881 0
M  V30 3470 C 325.977 3.54125 2.79117 0
M  V30 3471 C 324.639 3.94829 2.7507 0
M  V30 3472 C 326.991 4.49036 2.64606 0
M  V30 3473 C 324.319 5.28675 2.544 0
M  V30 3474 C 326.671 5.83033 2.4547 0
M  V30 3475 C 325.335 6.22931 2.39819 0
M  V30 3476 H 324.605 0.452737 0.586609 0
M  V30 3477 H 327.252 1.64301 0.983743 0
M  V30 3478 H 325.557 1.57001 3.58968 0
M  V30 3479 H 327.254 1.95164 3.50303 0
M  V30 3480 H 323.844 3.21801 2.83094 0
M  V30 3481 H 328.028 4.18505 2.66772 0
M  V30 3482 H 323.284 5.58637 2.48465 0
M  V30 3483 H 327.458 6.56186 2.33222 0
M  V30 3484 H 325.085 7.26584 2.23562 0
M  V30 3485 N 326.66 -1.06551 1.16123 0
M  V30 3486 C 328.071 -1.60768 0.949232 0
M  V30 3487 C 328.422 -1.89523 -0.507508 0
M  V30 3488 O 327.547 -1.66671 -1.38021 0
M  V30 3489 C 328.142 -2.92086 1.71671 0
M  V30 3490 C 326.701 -3.43015 1.54977 0
M  V30 3491 C 325.848 -2.16947 1.72711 0
M  V30 3492 H 328.799 -0.895354 1.31031 0
M  V30 3493 H 328.82 -3.6138 1.19099 0
M  V30 3494 H 328.332 -2.71127 2.7769 0
M  V30 3495 H 326.433 -3.69039 0.513873 0
M  V30 3496 H 326.546 -4.18516 2.33198 0
M  V30 3497 H 324.91 -2.27041 1.15431 0
M  V30 3498 H 325.693 -1.98473 2.80113 0
M  V30 3499 N 328.138 -0.959301 -1.25041 0
M  V30 3500 C 329.387 -0.612254 -1.92183 0
M  V30 3501 C 329.7 0.855347 -1.75907 0
M  V30 3502 O 330.906 1.31256 -2.37664 0
M  V30 3503 C 329.362 -1.04435 -3.44414 0
M  V30 3504 C 328.97 -2.53482 -3.69393 0
M  V30 3505 C 330.714 -0.770055 -4.17457 0
M  V30 3506 C 328.621 -2.90468 -5.15153 0
M  V30 3507 H 327.551 -0.225279 -0.719559 0
M  V30 3508 H 330.202 -1.16438 -1.41825 0
M  V30 3509 H 328.584 -0.4206 -3.9376 0
M  V30 3510 H 329.758 -3.20916 -3.30681 0
M  V30 3511 H 328.073 -2.78432 -3.0962 0
M  V30 3512 H 330.67 -1.02249 -5.24832 0
M  V30 3513 H 331.013 0.293611 -4.15263 0
M  V30 3514 H 331.546 -1.35437 -3.74034 0
M  V30 3515 H 328.285 -3.95871 -5.22462 0
M  V30 3516 H 327.805 -2.27711 -5.54894 0
M  V30 3517 H 329.484 -2.79914 -5.83315 0
M  V30 3518 N 329.616 1.39756 -0.72842 0
M  V30 3519 C 330.548 2.29157 -0.0446202 0
M  V30 3520 C 331.561 1.46484 0.710367 0
M  V30 3521 O 332.75 1.69632 0.55562 0
M  V30 3522 C 329.85 3.24987 0.961071 0
M  V30 3523 C 329.023 4.36572 0.268967 0
M  V30 3524 C 328.082 5.12756 1.18184 0
M  V30 3525 O 327.108 5.6534 0.661794 0
M  V30 3526 N 328.31 5.23331 2.51206 0
M  V30 3527 H 331.075 2.88482 -0.812295 0
M  V30 3528 H 328.636 1.51265 -0.577098 0
M  V30 3529 H 330.628 3.72827 1.57423 0
M  V30 3530 H 329.198 2.66739 1.63 0
M  V30 3531 H 328.418 3.90694 -0.524574 0
M  V30 3532 H 329.706 5.08363 -0.210934 0
M  V30 3533 H 329.104 4.82116 2.9594 0
M  V30 3534 H 327.661 5.74634 3.07634 0
M  V30 3535 N 331.094 0.475555 1.50254 0
M  V30 3536 C 332.371 -0.139685 1.95101 0
M  V30 3537 C 332.751 -1.56555 1.41611 0
M  V30 3538 O 332.099 -2.19956 0.618993 0
M  V30 3539 C 332.309 -0.0784298 3.48912 0
M  V30 3540 C 333.657 -0.265095 4.23772 0
M  V30 3541 O 334.681 -0.154808 3.55863 0
M  V30 3542 O 333.54 -0.488327 5.44314 0
M  V30 3543 H 330.634 -0.109236 0.819754 0
M  V30 3544 H 333.18 0.536276 1.61004 0
M  V30 3545 H 331.952 0.916918 3.80405 0
M  V30 3546 H 331.575 -0.795655 3.89558 0
M  V30 3547 N 332.573 -1.56217 0.208337 0
M  V30 3548 C 333.52 -2.19699 -0.707192 0
M  V30 3549 C 334.49 -1.14836 -1.20008 0
M  V30 3550 O 335.675 -1.4314 -1.26157 0
M  V30 3551 C 332.815 -2.87061 -1.91546 0
M  V30 3552 C 331.928 -4.06483 -1.46271 0
M  V30 3553 C 331.063 -4.61665 -2.62752 0
M  V30 3554 C 330.102 -5.73417 -2.14147 0
M  V30 3555 N 329.239 -6.22948 -3.23853 0
M  V30 3556 H 334.079 -2.97575 -0.159111 0
M  V30 3557 H 331.616 -1.46948 -0.0667874 0
M  V30 3558 H 333.574 -3.24294 -2.62468 0
M  V30 3559 H 332.204 -2.11725 -2.43664 0
M  V30 3560 H 331.256 -3.74825 -0.648886 0
M  V30 3561 H 332.568 -4.87271 -1.06622 0
M  V30 3562 H 331.722 -5.01272 -3.41776 0
M  V30 3563 H 330.461 -3.80013 -3.05682 0
M  V30 3564 H 329.466 -5.33326 -1.33581 0
M  V30 3565 H 330.691 -6.56897 -1.72232 0
M  V30 3566 H 328.637 -5.44213 -3.6629 0
M  V30 3567 H 328.554 -6.98823 -2.88414 0
M  V30 3568 H 329.822 -6.6721 -4.03052 0
M  V30 3569 N 334.051 0.0651679 -1.57465 0
M  V30 3570 C 334.983 1.10359 -2.00882 0
M  V30 3571 C 335.996 1.346 -0.915788 0
M  V30 3572 O 337.185 1.32723 -1.1936 0
M  V30 3573 C 334.285 2.45312 -2.33828 0
M  V30 3574 C 333.458 2.40934 -3.65061 0
M  V30 3575 C 332.517 3.58047 -3.85602 0
M  V30 3576 O 331.543 3.39175 -4.57109 0
M  V30 3577 N 332.745 4.78637 -3.28462 0
M  V30 3578 H 335.51 0.733807 -2.90578 0
M  V30 3579 H 333.071 0.253719 -1.599 0
M  V30 3580 H 335.063 3.22314 -2.44737 0
M  V30 3581 H 333.633 2.74267 -1.49988 0
M  V30 3582 H 332.853 1.49273 -3.64844 0
M  V30 3583 H 334.141 2.35117 -4.51218 0
M  V30 3584 H 333.539 4.96872 -2.70433 0
M  V30 3585 H 332.096 5.53127 -3.44809 0
M  V30 3586 N 335.529 1.53961 0.336706 0
M  V30 3587 C 336.754 1.75797 1.10046 0
M  V30 3588 C 337.179 0.498985 1.81361 0
M  V30 3589 O 336.537 -0.548769 1.72795 0
M  V30 3590 C 336.585 2.94257 2.08436 0
M  V30 3591 O 335.689 2.64883 3.16087 0
M  V30 3592 H 335.03 0.582936 0.317934 0
M  V30 3593 H 337.56 2.00945 0.38501 0
M  V30 3594 H 337.57 3.21237 2.51537 0
M  V30 3595 H 336.245 3.85564 1.55927 0
M  V30 3596 H 334.822 2.48812 2.77753 0
M  V30 3597 N 337.007 -0.598083 1.45811 0
M  V30 3598 C 338.253 -1.35679 1.51535 0
M  V30 3599 C 338.608 -1.91745 0.15864 0
M  V30 3600 O 337.901 -1.72654 -0.830724 0
M  V30 3601 C 338.095 -2.51669 2.53766 0
M  V30 3602 C 337.924 -2.06963 3.99245 0
M  V30 3603 C 336.694 -1.92693 4.67116 0
M  V30 3604 C 338.892 -1.63855 4.875 0
M  V30 3605 N 336.874 -1.41897 5.97276 0
M  V30 3606 C 338.245 -1.24541 6.07363 0
M  V30 3607 C 340.3 -1.51533 4.74281 0
M  V30 3608 C 339.003 -0.741354 7.15469 0
M  V30 3609 C 341.029 -1.0253 5.82444 0
M  V30 3610 C 340.391 -0.641869 7.01469 0
M  V30 3611 H 336.49 -0.490042 0.609412 0
M  V30 3612 H 339.074 -0.682687 1.82339 0
M  V30 3613 H 337.245 -3.16663 2.24898 0
M  V30 3614 H 338.977 -3.18578 2.4958 0
M  V30 3615 H 335.732 -2.1417 4.22408 0
M  V30 3616 H 336.156 -1.18704 6.66512 0
M  V30 3617 H 340.798 -1.798 3.82664 0
M  V30 3618 H 338.516 -0.446243 8.06867 0
M  V30 3619 H 342.102 -0.934088 5.74253 0
M  V30 3620 H 340.982 -0.268531 7.8374 0
M  V30 3621 N 338.485 -1.33259 -0.841409 0
M  V30 3622 C 339.417 -1.19136 -1.95804 0
M  V30 3623 C 340.43 -0.122965 -1.62335 0
M  V30 3624 O 341.619 -0.373154 -1.74556 0
M  V30 3625 C 338.719 -0.804268 -3.29218 0
M  V30 3626 C 337.892 -1.96376 -3.90839 0
M  V30 3627 C 336.951 -1.55806 -5.02604 0
M  V30 3628 O 335.977 -2.27203 -5.21888 0
M  V30 3629 N 337.179 -0.461609 -5.78662 0
M  V30 3630 H 339.944 -2.15326 -2.08458 0
M  V30 3631 H 337.505 -1.25971 -1.017 0
M  V30 3632 H 339.497 -0.51501 -4.0141 0
M  V30 3633 H 338.067 0.0668809 -3.12528 0
M  V30 3634 H 337.287 -2.41879 -3.11269 0
M  V30 3635 H 338.575 -2.73966 -4.28742 0
M  V30 3636 H 337.973 0.132343 -5.65545 0
M  V30 3637 H 336.53 -0.232013 -6.51387 0
M  V30 3638 N 339.963 1.05934 -1.16686 0
M  V30 3639 C 340.911 2.15603 -0.872817 0
M  V30 3640 C 341.905 1.68647 0.159576 0
M  V30 3641 O 343.111 1.79995 0.0132125 0
M  V30 3642 H 339.486 0.703885 -0.264671 0
M  V30 3643 H 341.457 2.37613 -1.80507 0
M  V30 3644 C 340.206 3.45457 -0.394344 0
M  V30 3645 H 339.529 3.81984 -1.18019 0
M  V30 3646 H 340.969 4.2339 -0.227408 0
M  V30 3647 C 339.428 3.25021 0.88673 0
M  V30 3648 O 339.958 3.50906 1.95519 0
M  V30 3649 N 338.164 2.78437 0.831925 0
M  V30 3650 H 337.711 2.57572 -0.0377619 0
M  V30 3651 H 337.669 2.65144 1.68956 0
M  V30 3652 N 341.441 0.965919 1.2453 0
M  V30 3653 C 342.351 0.502154 2.29163 0
M  V30 3654 C 343.367 -0.436017 1.68448 0
M  V30 3655 O 344.543 -0.309497 1.99008 0
M  V30 3656 C 341.608 -0.201956 3.46111 0
M  V30 3657 C 340.669 0.775821 4.22232 0
M  V30 3658 C 339.902 0.105217 5.33596 0
M  V30 3659 O 340.125 -1.10683 5.59558 0
M  V30 3660 O 339.059 0.796475 5.96607 0
M  V30 3661 H 342.885 1.37194 2.70946 0
M  V30 3662 H 340.47 0.732875 1.30189 0
M  V30 3663 H 342.352 -0.597564 4.17142 0
M  V30 3664 H 341.027 -1.04673 3.06309 0
M  V30 3665 H 339.934 1.22185 3.53584 0
M  V30 3666 H 341.267 1.58896 4.65846 0
M  V30 3667 N 342.919 -1.39368 0.735821 0
M  V30 3668 C 344.149 -2.04498 0.293967 0
M  V30 3669 C 344.557 -1.55593 -1.07645 0
M  V30 3670 O 343.9 -0.716324 -1.69158 0
M  V30 3671 C 343.962 -3.58836 0.218342 0
M  V30 3672 C 343.626 -4.30721 1.52736 0
M  V30 3673 C 344.623 -4.57305 2.47322 0
M  V30 3674 C 342.308 -4.69251 1.79189 0
M  V30 3675 C 344.302 -5.21429 3.66593 0
M  V30 3676 C 341.989 -5.33104 2.98737 0
M  V30 3677 C 342.987 -5.59125 3.9226 0
M  V30 3678 O 342.675 -6.21653 5.09708 0
M  V30 3679 H 342.407 -0.664118 0.126189 0
M  V30 3680 H 344.961 -1.79385 1.00051 0
M  V30 3681 H 343.191 -3.8285 -0.544314 0
M  V30 3682 H 344.88 -4.05447 -0.191626 0
M  V30 3683 H 345.646 -4.27983 2.28156 0
M  V30 3684 H 341.525 -4.48354 1.07239 0
M  V30 3685 H 345.069 -5.41656 4.39607 0
M  V30 3686 H 340.966 -5.61846 3.17803 0
M  V30 3687 H 341.734 -6.40146 5.10054 0
M  V30 3688 N 344.397 -0.483516 -1.5 0
M  V30 3689 C 345.307 0.309172 -2.32554 0
M  V30 3690 C 346.323 0.984159 -1.43493 0
M  V30 3691 O 347.499 0.969399 -1.76535 0
M  V30 3692 C 344.564 1.36979 -3.18493 0
M  V30 3693 C 343.625 0.710095 -4.23387 0
M  V30 3694 C 342.858 1.72018 -5.05218 0
M  V30 3695 O 343.081 2.94813 -4.88305 0
M  V30 3696 O 342.015 1.28515 -5.8802 0
M  V30 3697 H 345.841 -0.366064 -3.01486 0
M  V30 3698 H 343.426 -0.24514 -1.47375 0
M  V30 3699 H 345.308 1.98385 -3.71781 0
M  V30 3700 H 343.983 2.02828 -2.52275 0
M  V30 3701 H 342.89 0.0567539 -3.74057 0
M  V30 3702 H 344.223 0.0943557 -4.9211 0
M  V30 3703 N 345.875 1.56104 -0.216619 0
M  V30 3704 C 347.121 1.98466 0.417033 0
M  V30 3705 C 347.454 1.10403 1.59765 0
M  V30 3706 O 346.729 0.160632 1.93836 0
M  V30 3707 C 347.012 3.49769 0.85637 0
M  V30 3708 C 346.865 4.48606 -0.327546 0
M  V30 3709 C 348.184 4.05339 1.7143 0
M  V30 3710 H 345.303 0.721551 0.150112 0
M  V30 3711 H 347.945 1.87423 -0.311864 0
M  V30 3712 H 346.095 3.5931 1.47745 0
M  V30 3713 H 347.767 4.5108 -0.965618 0
M  V30 3714 H 346.01 4.22682 -0.975805 0
M  V30 3715 H 346.681 5.51995 0.0227149 0
M  V30 3716 H 349.157 3.98712 1.19031 0
M  V30 3717 H 348.033 5.11533 1.99061 0
M  V30 3718 H 348.294 3.51918 2.67593 0
M  V30 3719 N 347.353 -0.0568162 1.57498 0
M  V30 3720 C 348.583 -0.764515 1.91934 0
M  V30 3721 C 348.991 -1.70877 0.81227 0
M  V30 3722 O 348.334 -1.82351 -0.222213 0
M  V30 3723 C 348.396 -1.5994 3.21962 0
M  V30 3724 C 348.06 -0.822925 4.4953 0
M  V30 3725 C 349.057 -0.135464 5.19723 0
M  V30 3726 C 346.742 -0.785666 4.96117 0
M  V30 3727 C 348.736 0.578861 6.34766 0
M  V30 3728 C 346.423 -0.0675784 6.11063 0
M  V30 3729 C 347.421 0.613471 6.80239 0
M  V30 3730 O 347.109 1.31996 7.92989 0
M  V30 3731 H 346.841 -0.221647 0.63863 0
M  V30 3732 H 349.395 -0.0268218 2.05382 0
M  V30 3733 H 347.625 -2.38026 3.04763 0
M  V30 3734 H 349.314 -2.18715 3.41934 0
M  V30 3735 H 350.08 -0.155458 4.84751 0
M  V30 3736 H 345.959 -1.30524 4.42136 0
M  V30 3737 H 349.503 1.111 6.88696 0
M  V30 3738 H 345.4 -0.0455636 6.45484 0
M  V30 3739 H 346.168 1.23077 8.09194 0
M  V30 3740 N 348.832 -1.54138 -0.328536 0
M  V30 3741 C 350.057 -1.76378 -1.09112 0
M  V30 3742 C 350.482 -0.508596 -1.81094 0
M  V30 3743 O 349.84 0.539598 -1.73084 0
M  V30 3744 C 349.888 -2.95358 -2.06872 0
M  V30 3745 O 348.992 -2.66556 -3.14677 0
M  V30 3746 H 348.333 -0.584614 -0.314838 0
M  V30 3747 H 350.863 -2.01146 -0.374348 0
M  V30 3748 H 350.873 -3.22566 -2.4983 0
M  V30 3749 H 349.548 -3.86385 -1.5388 0
M  V30 3750 H 348.125 -2.50282 -2.7643 0
M  V30 3751 N 350.31 0.590341 -1.46126 0
M  V30 3752 C 351.24 1.71032 -1.58966 0
M  V30 3753 C 352.221 1.64302 -0.440335 0
M  V30 3754 O 353.406 1.82436 -0.665634 0
M  V30 3755 C 350.536 3.09665 -1.57241 0
M  V30 3756 C 349.49 3.31221 -2.71066 0
M  V30 3757 C 348.816 4.70303 -2.54399 0
M  V30 3758 C 350.116 3.19796 -4.1295 0
M  V30 3759 H 351.81 1.60543 -2.52718 0
M  V30 3760 H 349.356 0.770933 -1.21625 0
M  V30 3761 H 351.309 3.87831 -1.64819 0
M  V30 3762 H 350.033 3.21036 -0.600289 0
M  V30 3763 H 348.692 2.55452 -2.62944 0
M  V30 3764 H 348.34 4.78429 -1.55288 0
M  V30 3765 H 348.04 4.85679 -3.30741 0
M  V30 3766 H 349.564 5.50647 -2.63857 0
M  V30 3767 H 350.978 3.87815 -4.22223 0
M  V30 3768 H 349.375 3.46696 -4.89818 0
M  V30 3769 H 350.445 2.16983 -4.33643 0
M  V30 3770 N 351.788 1.33704 0.83433 0
M  V30 3771 C 353.199 1.22813 1.4062 0
M  V30 3772 C 353.55 -0.151107 1.95617 0
M  V30 3773 O 352.675 -1.05092 1.89168 0
M  V30 3774 C 353.27 2.22355 2.55624 0
M  V30 3775 C 351.829 2.1529 3.08751 0
M  V30 3776 C 350.976 2.09589 1.8157 0
M  V30 3777 H 353.927 1.45236 0.639702 0
M  V30 3778 H 353.948 1.83391 3.33389 0
M  V30 3779 H 353.46 3.22728 2.15566 0
M  V30 3780 H 351.561 1.18235 3.53343 0
M  V30 3781 H 351.674 3.06038 3.68616 0
M  V30 3782 H 350.038 1.55134 2.02004 0
M  V30 3783 H 350.821 3.11777 1.43701 0
M  V30 3784 N 353.266 -1.05314 1.17247 0
M  V30 3785 C 354.514 -1.77941 0.958194 0
M  V30 3786 C 354.835 -1.88089 -0.514556 0
M  V30 3787 O 354.105 -1.39676 -1.37359 0
M  V30 3788 H 352.685 -0.659116 0.351533 0
M  V30 3789 H 355.347 -1.27166 1.47699 0
M  V30 3790 H 354.443 -2.79663 1.38546 0
M  V30 3791 N 354.744 -0.972509 -1.24016 0
M  V30 3792 C 355.677 -0.45117 -2.23696 0
M  V30 3793 C 356.655 0.477378 -1.55434 0
M  V30 3794 O 357.839 0.407647 -1.84039 0
M  V30 3795 C 354.966 0.34818 -3.36906 0
M  V30 3796 C 354.012 -0.523355 -4.23277 0
M  V30 3797 S 354.845 -1.96647 -4.98087 0
M  V30 3798 C 356.001 -1.17604 -6.14752 0
M  V30 3799 H 356.234 -1.29588 -2.67571 0
M  V30 3800 H 353.767 -0.777903 -1.33372 0
M  V30 3801 H 355.725 0.803387 -4.02562 0
M  V30 3802 H 354.386 1.16792 -2.91579 0
M  V30 3803 H 353.579 0.0906181 -5.03919 0
M  V30 3804 H 353.181 -0.914485 -3.62647 0
M  V30 3805 H 355.473 -0.433434 -6.76112 0
M  V30 3806 H 356.416 -1.95701 -6.8052 0
M  V30 3807 H 356.824 -0.698295 -5.60164 0
M  V30 3808 N 356.222 1.38976 -0.743202 0
M  V30 3809 C 357.169 2.30544 -0.10861 0
M  V30 3810 C 358.139 1.49642 0.720869 0
M  V30 3811 O 359.324 1.78304 0.679142 0
M  V30 3812 C 356.464 3.36018 0.786496 0
M  V30 3813 C 355.577 4.31963 -0.0564849 0
M  V30 3814 C 354.712 5.24506 0.840657 0
M  V30 3815 C 353.751 6.121 -0.00658363 0
M  V30 3816 N 352.888 6.96973 0.846943 0
M  V30 3817 H 357.728 2.8424 -0.895088 0
M  V30 3818 H 355.265 1.3995 -0.453048 0
M  V30 3819 H 357.223 3.95768 1.31999 0
M  V30 3820 H 355.853 2.83758 1.53887 0
M  V30 3821 H 354.905 3.73763 -0.707492 0
M  V30 3822 H 356.217 4.93703 -0.711229 0
M  V30 3823 H 355.371 5.89322 1.4417 0
M  V30 3824 H 354.11 4.63107 1.52916 0
M  V30 3825 H 353.115 5.46289 -0.620366 0
M  V30 3826 H 354.34 6.75565 -0.691992 0
M  V30 3827 H 352.286 6.38133 1.52059 0
M  V30 3828 H 352.203 7.5559 0.248864 0
M  V30 3829 H 353.471 7.6621 1.43328 0
M  V30 3830 N 357.7 0.491464 1.49741 0
M  V30 3831 C 358.65 -0.311086 2.25868 0
M  V30 3832 C 359.634 -0.943857 1.30308 0
M  V30 3833 O 360.826 -0.853035 1.55088 0
M  V30 3834 C 357.955 -1.38059 3.14316 0
M  V30 3835 C 357.041 -0.754541 4.17334 0
M  V30 3836 N 357.432 0.137216 5.05614 0
M  V30 3837 C 355.73 -1.01621 4.34269 0
M  V30 3838 C 356.431 0.494614 5.79593 0
M  V30 3839 N 355.407 -0.135169 5.43432 0
M  V30 3840 H 359.209 0.37555 2.91491 0
M  V30 3841 H 356.723 0.306917 1.59473 0
M  V30 3842 H 358.72 -1.96891 3.67477 0
M  V30 3843 H 357.38 -2.06901 2.50244 0
M  V30 3844 H 358.391 0.50741 5.15408 0
M  V30 3845 H 355.068 -1.69808 3.81407 0
M  V30 3846 H 356.458 1.2236 6.60665 0
M  V30 3847 N 359.178 -1.55987 0.224894 0
M  V30 3848 C 360.088 -2.24066 -0.69511 0
M  V30 3849 C 361.104 -1.24939 -1.21104 0
M  V30 3850 O 362.28 -1.5776 -1.25195 0
M  V30 3851 C 359.345 -2.90983 -1.88493 0
M  V30 3852 C 358.406 -4.05462 -1.41064 0
M  V30 3853 C 357.639 -4.69179 -2.54375 0
M  V30 3854 O 357.862 -4.31895 -3.72589 0
M  V30 3855 O 356.796 -5.58108 -2.25386 0
M  V30 3856 H 360.622 -3.03353 -0.145149 0
M  V30 3857 H 358.207 -1.49399 -0.00569476 0
M  V30 3858 H 360.089 -3.33209 -2.57972 0
M  V30 3859 H 358.764 -2.14653 -2.42293 0
M  V30 3860 H 357.671 -3.67798 -0.683774 0
M  V30 3861 H 359.004 -4.83545 -0.918985 0
M  V30 3862 N 360.656 0.0484629 -1.57525 0
M  V30 3863 C 361.604 1.07359 -2.06341 0
M  V30 3864 C 362.598 1.3865 -0.973269 0
M  V30 3865 O 363.804 1.37783 -1.15827 0
M  V30 3866 H 360.179 0.363662 -0.65822 0
M  V30 3867 H 362.15 0.635916 -2.91545 0
M  V30 3868 C 360.899 2.37198 -2.54229 0
M  V30 3869 H 360.222 2.13977 -3.37719 0
M  V30 3870 H 361.662 3.07319 -2.92115 0
M  V30 3871 C 360.121 3.04805 -1.43511 0
M  V30 3872 O 360.651 3.93848 -0.79034 0
M  V30 3873 N 358.857 2.65811 -1.17444 0
M  V30 3874 H 358.404 1.93488 -1.70059 0
M  V30 3875 H 358.362 3.11366 -0.435737 0
M  V30 3876 N 362.134 1.5431 0.320358 0
M  V30 3877 C 363.383 1.7188 1.05546 0
M  V30 3878 C 363.696 0.501143 1.89071 0
M  V30 3879 O 364.902 0.558258 2.65699 0
M  V30 3880 C 363.358 3.04025 1.92605 0
M  V30 3881 C 362.966 4.33207 1.14176 0
M  V30 3882 C 364.71 3.30959 2.65832 0
M  V30 3883 C 362.617 5.56412 2.00399 0
M  V30 3884 H 361.547 0.640547 0.397763 0
M  V30 3885 H 364.198 1.80802 0.313522 0
M  V30 3886 H 362.58 2.89019 2.7071 0
M  V30 3887 H 363.754 4.58989 0.40819 0
M  V30 3888 H 362.069 4.13062 0.526165 0
M  V30 3889 H 364.666 4.20203 3.30656 0
M  V30 3890 H 365.009 2.48979 3.33639 0
M  V30 3891 H 365.542 3.46847 1.94787 0
M  V30 3892 H 362.281 6.41004 1.37094 0
M  V30 3893 H 361.801 5.34844 2.7148 0
M  V30 3894 H 363.48 5.92938 2.58908 0
M  V30 3895 N 363.613 -0.582584 1.46437 0
M  V30 3896 C 364.543 -1.70187 1.59871 0
M  V30 3897 C 365.524 -1.64066 0.449042 0
M  V30 3898 O 366.709 -1.82081 0.6753 0
M  V30 3899 C 363.839 -3.08827 1.58881 0
M  V30 3900 C 362.793 -3.29779 2.72819 0
M  V30 3901 C 362.119 -4.68947 2.5689 0
M  V30 3902 C 363.419 -3.17601 4.1464 0
M  V30 3903 H 365.113 -1.592 2.53566 0
M  V30 3904 H 362.659 -0.764472 1.22032 0
M  V30 3905 H 364.612 -3.86951 1.66873 0
M  V30 3906 H 363.336 -3.20713 0.617306 0
M  V30 3907 H 361.995 -2.54054 2.64296 0
M  V30 3908 H 361.643 -4.77599 1.57823 0
M  V30 3909 H 361.343 -4.83919 3.33312 0
M  V30 3910 H 362.867 -5.4924 2.66773 0
M  V30 3911 H 364.281 -3.8557 4.24274 0
M  V30 3912 H 362.678 -3.44094 4.9165 0
M  V30 3913 H 363.748 -2.14681 4.34788 0
M  V30 3914 N 365.091 -1.34144 -0.827227 0
M  V30 3915 C 366.023 -1.21206 -1.9453 0
M  V30 3916 C 367.036 -0.140176 -1.62195 0
M  V30 3917 O 368.225 -0.391647 -1.7415 0
M  V30 3918 C 365.325 -0.839141 -3.28347 0
M  V30 3919 C 364.498 -2.0051 -3.88734 0
M  V30 3920 C 363.557 -1.61128 -5.00923 0
M  V30 3921 O 362.583 -2.32726 -5.19449 0
M  V30 3922 N 363.785 -0.522958 -5.7814 0
M  V30 3923 H 366.55 -2.17525 -2.06162 0
M  V30 3924 H 364.111 -1.27043 -1.00358 0
M  V30 3925 H 366.103 -0.557556 -4.00841 0
M  V30 3926 H 364.673 0.0337293 -3.12582 0
M  V30 3927 H 363.893 -2.45166 -3.08686 0
M  V30 3928 H 365.181 -2.78498 -4.25812 0
M  V30 3929 H 364.579 0.0723518 -5.65654 0
M  V30 3930 H 363.136 -0.301089 -6.51104 0
M  V30 3931 N 366.569 1.04691 -1.17803 0
M  V30 3932 C 367.816 1.77782 -0.969532 0
M  V30 3933 C 368.144 1.87926 0.501401 0
M  V30 3934 O 367.399 1.37918 1.38842 0
M  V30 3935 C 367.698 3.21467 -1.56186 0
M  V30 3936 C 367.364 3.3137 -3.05786 0
M  V30 3937 C 366.026 3.3378 -3.46619 0
M  V30 3938 C 368.378 3.31976 -4.01797 0
M  V30 3939 C 365.706 3.34431 -4.82051 0
M  V30 3940 C 368.058 3.34167 -5.37136 0
M  V30 3941 C 366.722 3.34866 -5.77426 0
M  V30 3942 H 365.992 0.650549 -0.354777 0
M  V30 3943 H 368.639 1.23006 -1.46772 0
M  V30 3944 H 366.944 3.79203 -0.985515 0
M  V30 3945 H 368.641 3.76652 -1.37602 0
M  V30 3946 H 365.231 3.3021 -2.73238 0
M  V30 3947 H 369.415 3.29311 -3.71306 0
M  V30 3948 H 364.671 3.33285 -5.12573 0
M  V30 3949 H 368.845 3.33585 -6.11305 0
M  V30 3950 H 366.472 3.35124 -6.82346 0
M  V30 3951 N 368.047 0.979072 1.23499 0
M  V30 3952 C 369.296 0.642751 1.91185 0
M  V30 3953 C 369.609 -0.827253 1.77245 0
M  V30 3954 O 370.815 -1.27458 2.39722 0
M  V30 3955 C 369.271 1.09901 3.42709 0
M  V30 3956 C 368.879 2.59327 3.65313 0
M  V30 3957 C 370.623 0.836371 4.16179 0
M  V30 3958 C 368.53 2.98627 5.10467 0
M  V30 3959 H 367.46 0.236698 0.715884 0
M  V30 3960 H 370.111 1.1868 1.39955 0
M  V30 3961 H 368.493 0.48319 3.93041 0
M  V30 3962 H 369.667 3.26136 3.25533 0
M  V30 3963 H 367.982 2.83323 3.05151 0
M  V30 3964 H 370.579 1.10586 5.23139 0
M  V30 3965 H 370.922 -0.227509 4.15678 0
M  V30 3966 H 371.455 1.41371 3.71832 0
M  V30 3967 H 368.194 4.04133 5.16098 0
M  V30 3968 H 367.714 2.3651 5.51201 0
M  V30 3969 H 369.393 2.89159 5.78788 0
M  V30 3970 N 369.525 -1.3858 0.750561 0
M  V30 3971 C 370.773 -1.99789 0.30477 0
M  V30 3972 C 371.094 -1.59874 -1.11649 0
M  V30 3973 O 370.364 -0.85417 -1.76297 0
M  V30 3974 H 368.944 -0.738902 0.109694 0
M  V30 3975 H 371.606 -1.69391 0.963983 0
M  V30 3976 H 370.702 -3.09952 0.365499 0
M  V30 3977 N 371.003 -0.499398 -1.49478 0
M  V30 3978 C 371.966 0.268838 -2.27618 0
M  V30 3979 C 372.966 0.895383 -1.33565 0
M  V30 3980 O 374.156 0.760164 -1.56739 0
M  V30 3981 C 371.288 1.38559 -3.11471 0
M  V30 3982 H 372.481 -0.416812 -2.96989 0
M  V30 3983 H 370.034 -0.254313 -1.54217 0
M  V30 3984 H 370.769 2.10544 -2.46661 0
M  V30 3985 H 370.554 0.941797 -3.80621 0
M  V30 3986 H 372.044 1.92678 -3.70493 0
M  V30 3987 N 372.481 1.55866 -0.233164 0
M  V30 3988 C 373.391 2.24431 0.683217 0
M  V30 3989 C 374.407 1.2558 1.2044 0
M  V30 3990 O 375.583 1.58422 1.24356 0
M  V30 3991 C 372.648 2.91979 1.86947 0
M  V30 3992 C 371.709 4.06204 1.38912 0
M  V30 3993 C 370.942 4.70522 2.51883 0
M  V30 3994 O 371.165 4.33865 3.70293 0
M  V30 3995 O 370.099 5.59296 2.22423 0
M  V30 3996 H 373.925 3.03426 0.129059 0
M  V30 3997 H 371.51 1.494 -0.0022283 0
M  V30 3998 H 373.392 3.34573 2.56201 0
M  V30 3999 H 372.067 2.15935 2.41151 0
M  V30 4000 H 370.974 3.68155 0.664259 0
M  V30 4001 H 372.307 4.84025 0.893328 0
M  V30 4002 N 373.959 -0.0401083 1.57549 0
M  V30 4003 C 374.906 -1.04413 2.05831 0
M  V30 4004 C 375.876 -1.36585 0.945184 0
M  V30 4005 O 377.061 -1.47112 1.21502 0
M  V30 4006 C 374.201 -2.34336 2.53339 0
M  V30 4007 C 373.314 -2.08419 3.78398 0
M  V30 4008 C 372.449 -3.32133 4.14561 0
M  V30 4009 C 371.488 -3.01721 5.3257 0
M  V30 4010 N 370.625 -4.17855 5.64218 0
M  V30 4011 H 375.465 -0.625442 2.91363 0
M  V30 4012 H 373.002 -0.297218 1.44066 0
M  V30 4013 H 374.96 -3.10234 2.78946 0
M  V30 4014 H 373.59 -2.73948 1.7074 0
M  V30 4015 H 372.642 -1.23069 3.59942 0
M  V30 4016 H 373.954 -1.81978 4.64419 0
M  V30 4017 H 373.108 -4.16406 4.41238 0
M  V30 4018 H 371.847 -3.61678 3.2717 0
M  V30 4019 H 370.852 -2.15849 5.05657 0
M  V30 4020 H 372.077 -2.73466 6.21605 0
M  V30 4021 H 370.023 -4.47372 4.79786 0
M  V30 4022 H 369.94 -3.94798 6.44725 0
M  V30 4023 H 371.208 -5.03033 5.95465 0
M  V30 4024 N 375.437 -1.54477 -0.31217 0
M  V30 4025 C 376.853 -1.45442 -0.657185 0
M  V30 4026 C 377.053 -0.63653 -1.91182 0
M  V30 4027 O 376.109 -0.139815 -2.52113 0
M  V30 4028 C 377.422 -2.89287 -0.82058 0
M  V30 4029 C 378.97 -2.9926 -0.917188 0
M  V30 4030 C 379.445 -4.44279 -1.11267 0
M  V30 4031 N 380.936 -4.4794 -1.17914 0
M  V30 4032 C 381.671 -5.57318 -1.34848 0
M  V30 4033 N 381.167 -6.76642 -1.48752 0
M  V30 4034 N 382.96 -5.44986 -1.37647 0
M  V30 4035 H 375.111 -2.06129 0.512313 0
M  V30 4036 H 377.374 -0.933088 0.167485 0
M  V30 4037 H 377.08 -3.51687 0.0302604 0
M  V30 4038 H 376.954 -3.36061 -1.71298 0
M  V30 4039 H 379.341 -2.36981 -1.75852 0
M  V30 4040 H 379.422 -2.558 -0.00101257 0
M  V30 4041 H 379.066 -5.07149 -0.27614 0
M  V30 4042 H 378.996 -4.85359 -2.04289 0
M  V30 4043 H 381.487 -3.61969 -1.08567 0
M  V30 4044 H 381.8 -7.55758 -1.61397 0
M  V30 4045 H 380.145 -6.79529 -1.45828 0
M  V30 4046 H 383.336 -4.50715 -1.26388 0
M  V30 4047 H 383.509 -6.3028 -1.50501 0
M  V30 4048 N 376.915 0.57481 -1.46744 0
M  V30 4049 C 378.163 1.33009 -1.52161 0
M  V30 4050 C 378.484 1.94185 -0.178092 0
M  V30 4051 O 377.754 1.7899 0.796196 0
M  V30 4052 H 376.334 0.493873 -0.560445 0
M  V30 4053 H 378.996 0.672589 -1.82927 0
M  V30 4054 H 378.092 2.13273 -2.27862 0
M  V30 4055 N 378.394 1.34581 0.820102 0
M  V30 4056 C 379.622 1.3018 1.60813 0
M  V30 4057 C 380.037 -0.123551 1.88395 0
M  V30 4058 O 379.394 -1.07148 1.47735 0
M  V30 4059 C 379.445 2.09312 2.94739 0
M  V30 4060 O 379.166 3.46288 2.68358 0
M  V30 4061 C 380.667 2.1234 3.89136 0
M  V30 4062 H 377.887 0.447726 0.499782 0
M  V30 4063 H 380.431 1.77237 1.02017 0
M  V30 4064 H 378.586 1.65889 3.50085 0
M  V30 4065 H 379 3.87227 3.53774 0
M  V30 4066 H 380.474 2.72126 4.80262 0
M  V30 4067 H 380.951 1.11854 4.24718 0
M  V30 4068 H 381.557 2.55864 3.39726 0
M  V30 4069 N 379.872 -1.04064 1.18357 0
M  V30 4070 C 381.097 -1.81454 1.00445 0
M  V30 4071 C 381.522 -1.82823 -0.442423 0
M  V30 4072 O 380.88 -1.24555 -1.31741 0
M  V30 4073 C 380.928 -3.24925 1.56384 0
M  V30 4074 O 380.032 -4.04856 0.785209 0
M  V30 4075 H 379.373 -0.560604 0.355835 0
M  V30 4076 H 381.903 -1.31059 1.57114 0
M  V30 4077 H 381.913 -3.75702 1.59097 0
M  V30 4078 H 380.588 -3.23244 2.61699 0
M  V30 4079 H 379.165 -3.63537 0.830399 0
M  V30 4080 N 381.35 -0.985608 -1.22978 0
M  V30 4081 C 382.596 -0.65836 -1.91816 0
M  V30 4082 C 382.929 0.806692 -1.76653 0
M  V30 4083 O 382.204 1.58252 -1.13078 0
M  V30 4084 C 382.487 -1.056 -3.44268 0
M  V30 4085 C 382.34 -2.57906 -3.68516 0
M  V30 4086 C 383.659 -0.603781 -4.35939 0
M  V30 4087 H 380.778 -0.24065 -0.696604 0
M  V30 4088 H 383.42 -1.22783 -1.44998 0
M  V30 4089 H 381.57 -0.571445 -3.84274 0
M  V30 4090 H 383.242 -3.13976 -3.3796 0
M  V30 4091 H 381.485 -3.00305 -3.13048 0
M  V30 4092 H 382.156 -2.80779 -4.75255 0
M  V30 4093 H 384.632 -1.01987 -4.03408 0
M  V30 4094 H 383.508 -0.910383 -5.41298 0
M  V30 4095 H 383.769 0.495761 -4.39312 0
M  V30 4096 N 382.828 1.3818 -0.7579 0
M  V30 4097 C 384.105 1.94106 -0.241306 0
M  V30 4098 C 384.485 1.69282 1.26122 0
M  V30 4099 O 383.833 1.03378 2.03777 0
M  V30 4100 C 384.043 3.43809 -0.59967 0
M  V30 4101 C 385.391 4.20868 -0.561717 0
M  V30 4102 O 386.415 3.5211 -0.538222 0
M  V30 4103 O 385.274 5.43451 -0.576478 0
M  V30 4104 H 382.368 0.825376 -0.0518042 0
M  V30 4105 H 384.914 1.47548 -0.838315 0
M  V30 4106 H 383.686 3.55403 -1.6372 0
M  V30 4107 H 383.309 3.97592 0.0251197 0
M  V30 4108 N 384.306 0.507319 1.49211 0
M  V30 4109 C 385.552 -0.0350047 2.0277 0
M  V30 4110 C 385.885 -1.3606 1.38569 0
M  V30 4111 O 385.16 -1.87321 0.523542 0
M  V30 4112 C 385.443 -0.180916 3.59645 0
M  V30 4113 C 385.296 1.16825 4.34364 0
M  V30 4114 C 386.615 -0.918558 4.30407 0
M  V30 4115 H 383.734 -0.0112473 0.736914 0
M  V30 4116 H 386.376 0.659956 1.7817 0
M  V30 4117 H 384.526 -0.772826 3.80736 0
M  V30 4118 H 386.198 1.79952 4.24753 0
M  V30 4119 H 384.441 1.75594 3.96673 0
M  V30 4120 H 385.112 1.01939 5.42506 0
M  V30 4121 H 387.588 -0.41649 4.1401 0
M  V30 4122 H 386.464 -0.989505 5.39907 0
M  V30 4123 H 386.725 -1.96373 3.96093 0
M  V30 4124 N 385.784 -1.5574 0.241426 0
M  V30 4125 C 387.061 -1.90704 -0.434881 0
M  V30 4126 C 387.441 -1.16145 -1.76277 0
M  V30 4127 O 386.789 -0.277152 -2.26813 0
M  V30 4128 C 386.999 -3.43657 -0.608343 0
M  V30 4129 C 388.347 -4.14806 -0.906725 0
M  V30 4130 O 389.371 -3.49366 -0.694408 0
M  V30 4131 O 388.23 -5.30548 -1.31075 0
M  V30 4132 H 385.324 -0.793592 -0.23268 0
M  V30 4133 H 387.87 -1.67288 0.285086 0
M  V30 4134 H 386.642 -3.89927 0.327505 0
M  V30 4135 H 386.265 -3.72918 -1.37906 0
M  V30 4136 N 387.262 0.0317525 -1.57568 0
M  V30 4137 C 388.192 1.03274 -2.0942 0
M  V30 4138 C 389.173 1.3788 -0.996143 0
M  V30 4139 O 390.358 1.46811 -1.27122 0
M  V30 4140 C 387.488 2.33448 -2.57137 0
M  V30 4141 C 386.442 2.13091 -3.71182 0
M  V30 4142 C 385.768 3.49001 -4.05095 0
M  V30 4143 C 387.068 1.51928 -4.99715 0
M  V30 4144 H 388.762 0.60112 -2.93303 0
M  V30 4145 H 386.308 0.287705 -1.41097 0
M  V30 4146 H 388.261 3.03802 -2.92032 0
M  V30 4147 H 386.985 2.78665 -1.70333 0
M  V30 4148 H 385.644 1.45171 -3.36632 0
M  V30 4149 H 385.292 3.91862 -3.15362 0
M  V30 4150 H 384.992 3.36207 -4.81911 0
M  V30 4151 H 386.516 4.20721 -4.42522 0
M  V30 4152 H 387.93 2.12196 -5.32584 0
M  V30 4153 H 386.327 1.49716 -5.81124 0
M  V30 4154 H 387.397 0.484811 -4.8247 0
M  V30 4155 N 388.74 1.54641 0.303973 0
M  V30 4156 C 389.986 1.74969 1.03718 0
M  V30 4157 C 390.341 0.527461 1.85029 0
M  V30 4158 O 389.634 -0.480143 1.85486 0
M  V30 4159 C 389.828 2.97753 1.97681 0
M  V30 4160 C 389.657 4.318 1.25613 0
M  V30 4161 C 388.427 4.95616 0.984518 0
M  V30 4162 C 390.625 5.10021 0.662081 0
M  V30 4163 N 388.607 6.13455 0.233794 0
M  V30 4164 C 389.978 6.19984 0.0439736 0
M  V30 4165 C 392.033 4.94663 0.566835 0
M  V30 4166 C 390.736 7.16264 -0.66016 0
M  V30 4167 C 392.762 5.91271 -0.123637 0
M  V30 4168 C 392.124 7.00601 -0.730608 0
M  V30 4169 H 388.223 0.692873 0.362562 0
M  V30 4170 H 390.807 1.92116 0.316135 0
M  V30 4171 H 388.978 2.82036 2.6704 0
M  V30 4172 H 390.71 3.06621 2.64132 0
M  V30 4173 H 387.465 4.55921 1.28191 0
M  V30 4174 H 387.889 6.76879 -0.127996 0
M  V30 4175 H 392.531 4.10267 1.02181 0
M  V30 4176 H 390.249 8.00204 -1.12691 0
M  V30 4177 H 393.835 5.81466 -0.197236 0
M  V30 4178 H 392.715 7.7407 -1.2564 0
M  V30 4179 N 390.218 -0.567019 1.47046 0
M  V30 4180 C 391.148 -1.68482 1.61667 0
M  V30 4181 C 392.129 -1.6358 0.466418 0
M  V30 4182 O 393.314 -1.81354 0.694574 0
M  V30 4183 C 390.444 -3.07124 1.62148 0
M  V30 4184 C 389.398 -3.26867 2.76301 0
M  V30 4185 C 388.724 -4.66196 2.61849 0
M  V30 4186 C 390.024 -3.13186 4.17986 0
M  V30 4187 H 391.718 -1.56502 2.5524 0
M  V30 4188 H 389.264 -0.751486 1.22836 0
M  V30 4189 H 391.217 -3.8516 1.70968 0
M  V30 4190 H 389.941 -3.2004 0.651287 0
M  V30 4191 H 388.6 -2.51237 2.66975 0
M  V30 4192 H 388.248 -4.75898 1.62879 0
M  V30 4193 H 387.948 -4.80356 3.38425 0
M  V30 4194 H 389.472 -5.46379 2.72584 0
M  V30 4195 H 390.886 -3.81049 4.2834 0
M  V30 4196 H 389.283 -3.3886 4.95272 0
M  V30 4197 H 390.353 -2.10057 4.3704 0
M  V30 4198 N 391.696 -1.35014 -0.812953 0
M  V30 4199 C 392.945 -1.27269 -1.56479 0
M  V30 4200 C 393.258 0.152771 -1.95002 0
M  V30 4201 O 394.464 0.352451 -2.69203 0
M  V30 4202 C 392.92 -2.23159 -2.82362 0
M  V30 4203 C 392.528 -3.71016 -2.511 0
M  V30 4204 C 394.272 -2.24342 -3.60376 0
M  V30 4205 C 392.179 -4.58746 -3.73237 0
M  V30 4206 H 391.109 -0.472829 -0.587324 0
M  V30 4207 H 393.76 -1.6024 -0.894171 0
M  V30 4208 H 392.142 -1.83151 -3.51101 0
M  V30 4209 H 393.316 -4.1962 -1.90409 0
M  V30 4210 H 391.631 -3.72378 -1.86343 0
M  V30 4211 H 394.228 -2.87107 -4.51081 0
M  V30 4212 H 394.571 -1.24542 -3.97234 0
M  V30 4213 H 395.104 -2.62846 -2.98591 0
M  V30 4214 H 391.843 -5.59521 -3.41492 0
M  V30 4215 H 391.363 -4.14871 -4.33176 0
M  V30 4216 H 393.042 -4.73852 -4.40537 0
M  V30 4217 N 393.175 1.03435 -1.18907 0
M  V30 4218 C 394.403 1.80381 -1.01342 0
M  V30 4219 C 394.818 1.83649 0.438005 0
M  V30 4220 O 394.175 1.27655 1.30424 0
M  V30 4221 C 394.226 3.25689 -1.56873 0
M  V30 4222 O 393.947 3.22673 -2.96334 0
M  V30 4223 C 395.448 4.19255 -1.44014 0
M  V30 4224 H 392.668 0.56784 -0.35749 0
M  V30 4225 H 395.212 1.30317 -1.576 0
M  V30 4226 H 393.367 3.72962 -1.04777 0
M  V30 4227 H 393.781 4.13748 -3.22355 0
M  V30 4228 H 395.255 5.19123 -1.87657 0
M  V30 4229 H 395.732 4.37467 -0.389815 0
M  V30 4230 H 396.338 3.77851 -1.95214 0
M  V30 4231 N 394.653 0.992116 1.22453 0
M  V30 4232 C 395.616 0.546883 2.2258 0
M  V30 4233 C 396.616 -0.369829 1.56489 0
M  V30 4234 O 397.806 -0.161896 1.73446 0
M  V30 4235 C 394.938 -0.204659 3.40285 0
M  V30 4236 H 396.131 1.43234 2.63484 0
M  V30 4237 H 393.684 0.779239 1.3549 0
M  V30 4238 H 394.419 -1.10614 3.04853 0
M  V30 4239 H 394.204 0.45354 3.89468 0
M  V30 4240 H 395.694 -0.504358 4.14543 0
M  V30 4241 N 396.131 -1.37776 0.765217 0
M  V30 4242 C 397.378 -1.99849 0.326588 0
M  V30 4243 C 397.706 -1.60746 -1.09504 0
M  V30 4244 O 396.961 -0.84202 -1.76659 0
M  V30 4245 C 397.26 -3.5504 0.410053 0
M  V30 4246 C 396.926 -4.13891 1.78899 0
M  V30 4247 C 395.588 -4.29678 2.16635 0
M  V30 4248 C 397.94 -4.46236 2.69301 0
M  V30 4249 C 395.268 -4.7511 3.44221 0
M  V30 4250 C 397.62 -4.93089 3.9629 0
M  V30 4251 C 396.284 -5.07082 4.34078 0
M  V30 4252 H 395.554 -0.7313 0.119507 0
M  V30 4253 H 398.201 -1.64645 0.977968 0
M  V30 4254 H 396.506 -3.90451 -0.324878 0
M  V30 4255 H 398.203 -4.00966 0.0520699 0
M  V30 4256 H 394.793 -4.02026 1.48569 0
M  V30 4257 H 398.977 -4.3363 2.41409 0
M  V30 4258 H 394.233 -4.84129 3.73402 0
M  V30 4259 H 398.407 -5.17084 4.66472 0
M  V30 4260 H 396.034 -5.42046 5.33001 0
M  V30 4261 N 397.609 -0.515225 -1.4894 0
M  V30 4262 C 398.559 0.275113 -2.26334 0
M  V30 4263 C 399.543 0.923007 -1.31793 0
M  V30 4264 O 400.735 0.828254 -1.56426 0
M  V30 4265 C 397.864 1.33041 -3.16473 0
M  V30 4266 C 396.95 0.688051 -4.18481 0
M  V30 4267 N 397.341 -0.217638 -5.05332 0
M  V30 4268 C 395.639 0.94699 -4.3583 0
M  V30 4269 C 396.34 -0.58676 -5.78733 0
M  V30 4270 N 395.316 0.0486966 -5.43578 0
M  V30 4271 H 399.118 -0.421876 -2.90856 0
M  V30 4272 H 396.632 -0.332249 -1.58965 0
M  V30 4273 H 398.629 1.9102 -3.70563 0
M  V30 4274 H 397.289 2.02894 -2.53504 0
M  V30 4275 H 398.3 -0.589343 -5.14536 0
M  V30 4276 H 394.977 1.63719 -3.8406 0
M  V30 4277 H 396.367 -1.32855 -6.58634 0
M  V30 4278 N 399.087 1.5561 -0.249682 0
M  V30 4279 C 399.997 2.25143 0.659375 0
M  V30 4280 C 401.013 1.2685 1.19101 0
M  V30 4281 O 402.189 1.59732 1.22669 0
M  V30 4282 C 399.254 2.93945 1.8384 0
M  V30 4283 C 398.315 4.07655 1.34596 0
M  V30 4284 C 397.548 4.73167 2.46878 0
M  V30 4285 O 397.771 4.37768 3.65671 0
M  V30 4286 O 396.705 5.61623 2.16478 0
M  V30 4287 H 400.531 3.03545 0.0968698 0
M  V30 4288 H 398.116 1.49389 -0.018074 0
M  V30 4289 H 399.998 3.37271 2.52638 0
M  V30 4290 H 398.673 2.18481 2.38847 0
M  V30 4291 H 397.58 3.68839 0.625174 0
M  V30 4292 H 398.913 4.84946 0.841941 0
M  V30 4293 N 400.565 -0.0233959 1.57583 0
M  V30 4294 C 401.512 -1.02224 2.06927 0
M  V30 4295 C 402.482 -1.35575 0.959617 0
M  V30 4296 O 403.667 -1.45815 1.23055 0
M  V30 4297 C 400.807 -2.31636 2.5581 0
M  V30 4298 C 399.92 -2.04394 3.80588 0
M  V30 4299 C 399.055 -3.27717 4.18061 0
M  V30 4300 C 398.094 -2.96056 5.3574 0
M  V30 4301 N 397.231 -4.11847 5.68618 0
M  V30 4302 H 402.071 -0.594504 2.9201 0
M  V30 4303 H 399.608 -0.281921 1.44373 0
M  V30 4304 H 401.566 -3.07258 2.82221 0
M  V30 4305 H 400.196 -2.72122 1.73636 0
M  V30 4306 H 399.248 -1.19244 3.61227 0
M  V30 4307 H 400.56 -1.77042 4.66323 0
M  V30 4308 H 399.714 -4.11702 4.4563 0
M  V30 4309 H 398.453 -3.58188 3.30988 0
M  V30 4310 H 397.458 -2.10474 5.07918 0
M  V30 4311 H 398.683 -2.66857 6.24471 0
M  V30 4312 H 396.629 -4.42258 4.84504 0
M  V30 4313 H 396.546 -3.87938 6.48876 0
M  V30 4314 H 397.814 -4.96689 6.00766 0
M  V30 4315 N 402.043 -1.548 -0.295768 0
M  V30 4316 C 403.291 -1.73985 -1.02828 0
M  V30 4317 C 403.612 -0.531406 -1.87619 0
M  V30 4318 O 402.882 0.454221 -1.90561 0
M  V30 4319 H 401.462 -0.641556 -0.382642 0
M  V30 4320 H 404.124 -1.92163 -0.325489 0
M  V30 4321 H 403.22 -2.63129 -1.67838 0
M  V30 4322 N 403.521 0.559213 -1.47345 0
M  V30 4323 C 404.746 1.34676 -1.57725 0
M  V30 4324 C 405.171 1.86723 -0.227164 0
M  V30 4325 O 404.529 1.6286 0.796642 0
M  V30 4326 C 404.577 2.49399 -2.60447 0
M  V30 4327 O 403.681 3.51567 -2.15578 0
M  V30 4328 H 403.022 0.400115 -0.52991 0
M  V30 4329 H 405.552 0.676009 -1.93109 0
M  V30 4330 H 405.562 2.95996 -2.80803 0
M  V30 4331 H 404.237 2.10873 -3.58477 0
M  V30 4332 H 402.814 3.11289 -2.05313 0
M  V30 4333 N 404.999 1.35443 0.805782 0
M  V30 4334 C 405.929 1.31095 1.93226 0
M  V30 4335 C 406.91 0.185244 1.69088 0
M  V30 4336 O 408.095 0.380332 1.90439 0
M  V30 4337 C 405.225 1.08299 3.29983 0
M  V30 4338 C 404.179 2.17519 3.68605 0
M  V30 4339 C 403.505 1.79887 5.03532 0
M  V30 4340 C 404.805 3.5949 3.78898 0
M  V30 4341 H 406.499 2.25352 1.97122 0
M  V30 4342 H 404.045 1.0848 0.946996 0
M  V30 4343 H 405.998 1.03897 4.08391 0
M  V30 4344 H 404.722 0.104885 3.26432 0
M  V30 4345 H 403.381 2.2102 2.92482 0
M  V30 4346 H 403.029 0.80693 4.96485 0
M  V30 4347 H 402.729 2.53001 5.30344 0
M  V30 4348 H 404.253 1.77011 5.84379 0
M  V30 4349 H 405.667 3.58307 4.47536 0
M  V30 4350 H 404.064 4.31371 4.1718 0
M  V30 4351 H 405.134 3.95584 2.80431 0
M  V30 4352 N 406.477 -1.02803 1.19454 0
M  V30 4353 C 407.702 -1.80378 1.02364 0
M  V30 4354 C 408.127 -1.83282 -0.423007 0
M  V30 4355 O 407.485 -1.25945 -1.30413 0
M  V30 4356 C 407.533 -3.23248 1.59821 0
M  V30 4357 O 406.637 -4.04 0.828105 0
M  V30 4358 H 405.978 -0.556799 0.361761 0
M  V30 4359 H 408.508 -1.29385 1.58495 0
M  V30 4360 H 408.518 -3.73994 1.63073 0
M  V30 4361 H 407.193 -3.2045 2.65113 0
M  V30 4362 H 405.77 -3.62635 0.86891 0
M  V30 4363 N 407.956 -0.998596 -1.21925 0
M  V30 4364 C 409.233 -0.593401 -1.86382 0
M  V30 4365 C 409.613 0.92916 -1.89552 0
M  V30 4366 O 408.961 1.81347 -1.39017 0
M  V30 4367 C 409.171 -1.22039 -3.26967 0
M  V30 4368 C 410.519 -1.32449 -4.03413 0
M  V30 4369 O 411.543 -1.17522 -3.36254 0
M  V30 4370 O 410.402 -1.56395 -5.23644 0
M  V30 4371 H 407.496 -0.202385 -0.801854 0
M  V30 4372 H 410.042 -1.09484 -1.29659 0
M  V30 4373 H 408.814 -2.26158 -3.19325 0
M  V30 4374 H 408.437 -0.704906 -3.91301 0
M  V30 4375 N 409.434 1.37368 -0.772513 0
M  V30 4376 C 410.681 1.99673 -0.337182 0
M  V30 4377 C 411.009 1.61324 1.0865 0
M  V30 4378 O 410.264 0.851377 1.7621 0
M  V30 4379 C 410.563 3.54817 -0.428876 0
M  V30 4380 C 410.229 4.12936 -1.81092 0
M  V30 4381 C 408.891 4.28523 -2.1891 0
M  V30 4382 C 411.243 4.44801 -2.71664 0
M  V30 4383 C 408.571 4.73277 -3.46735 0
M  V30 4384 C 410.923 4.90981 -3.98899 0
M  V30 4385 C 409.587 5.04773 -4.36761 0
M  V30 4386 H 408.857 0.730656 -0.123384 0
M  V30 4387 H 411.504 1.64124 -0.986686 0
M  V30 4388 H 409.809 3.90618 0.304167 0
M  V30 4389 H 411.506 4.00933 -0.0733334 0
M  V30 4390 H 408.096 4.01233 -1.50699 0
M  V30 4391 H 412.28 4.32344 -2.43706 0
M  V30 4392 H 407.536 4.82142 -3.75964 0
M  V30 4393 H 411.71 5.14603 -4.69208 0
M  V30 4394 H 409.337 5.39211 -5.35868 0
M  V30 4395 N 410.912 0.523116 1.48665 0
M  V30 4396 C 411.842 -0.23231 2.32342 0
M  V30 4397 C 412.823 -0.941637 1.41659 0
M  V30 4398 O 414.008 -0.928751 1.70552 0
M  V30 4399 C 411.138 -1.28387 3.22698 0
M  V30 4400 C 410.092 -0.693098 4.22351 0
M  V30 4401 C 409.418 -1.8468 5.01794 0
M  V30 4402 C 410.718 0.33063 5.21252 0
M  V30 4403 H 412.412 0.466192 2.95748 0
M  V30 4404 H 409.958 0.225643 1.42221 0
M  V30 4405 H 411.911 -1.82024 3.80059 0
M  V30 4406 H 410.635 -2.01186 2.57278 0
M  V30 4407 H 409.294 -0.178299 3.66166 0
M  V30 4408 H 408.942 -2.56301 4.32804 0
M  V30 4409 H 408.642 -1.45747 5.69238 0
M  V30 4410 H 410.166 -2.38709 5.62006 0
M  V30 4411 H 411.58 -0.118407 5.73178 0
M  V30 4412 H 409.977 0.636974 5.9671 0
M  V30 4413 H 411.047 1.23883 4.68808 0
M  V30 4414 N 412.39 -1.55475 0.257931 0
M  V30 4415 C 413.337 -2.21837 -0.636939 0
M  V30 4416 C 414.307 -1.18596 -1.16294 0
M  V30 4417 O 415.492 -1.47081 -1.21539 0
M  V30 4418 C 412.632 -2.9301 -1.82317 0
M  V30 4419 C 411.745 -4.10931 -1.33265 0
M  V30 4420 C 410.88 -4.69791 -2.47931 0
M  V30 4421 C 409.919 -5.7994 -1.95796 0
M  V30 4422 N 409.056 -6.32935 -3.0387 0
M  V30 4423 H 413.896 -2.9793 -0.0643591 0
M  V30 4424 H 411.433 -1.47086 -0.0200031 0
M  V30 4425 H 413.391 -3.3248 -2.52018 0
M  V30 4426 H 412.021 -2.1937 -2.36805 0
M  V30 4427 H 411.073 -3.76699 -0.52931 0
M  V30 4428 H 412.385 -4.90417 -0.910654 0
M  V30 4429 H 411.539 -5.11892 -3.25656 0
M  V30 4430 H 410.278 -3.89545 -2.93438 0
M  V30 4431 H 409.283 -5.37305 -1.16546 0
M  V30 4432 H 410.508 -6.62043 -1.51246 0
M  V30 4433 H 408.454 -5.55591 -3.48791 0
M  V30 4434 H 408.371 -7.07645 -2.66035 0
M  V30 4435 H 409.639 -6.79695 -3.81621 0
M  V30 4436 N 413.868 0.0150385 -1.57593 0
M  V30 4437 C 414.831 0.995996 -2.06428 0
M  V30 4438 C 415.831 1.2818 -0.970903 0
M  V30 4439 O 417.021 1.22949 -1.23406 0
M  V30 4440 C 414.153 2.32506 -2.49307 0
M  V30 4441 H 415.346 0.573873 -2.94358 0
M  V30 4442 H 412.899 0.262186 -1.54085 0
M  V30 4443 H 413.634 2.79438 -1.64575 0
M  V30 4444 H 413.419 2.13087 -3.29145 0
M  V30 4445 H 414.909 3.02906 -2.87468 0
M  V30 4446 N 415.346 1.54954 0.287554 0
M  V30 4447 C 416.294 1.87606 1.37502 0
M  V30 4448 C 417.288 0.751001 1.51843 0
M  V30 4449 O 418.494 0.935169 1.53801 0
M  V30 4450 H 414.869 0.595231 0.459569 0
M  V30 4451 H 416.84 2.78477 1.07206 0
M  V30 4452 C 415.589 2.15183 2.73115 0
M  V30 4453 H 414.912 3.01234 2.62866 0
M  V30 4454 H 416.352 2.4196 3.48183 0
M  V30 4455 C 414.811 0.954686 3.2309 0
M  V30 4456 O 415.341 0.181949 4.01288 0
M  V30 4457 N 413.547 0.756368 2.80584 0
M  V30 4458 H 413.094 1.38643 2.17108 0
M  V30 4459 H 413.052 -0.0430391 3.14371 0
M  V30 4460 N 416.824 -0.551391 1.4764 0
M  V30 4461 C 418.07 -1.31024 1.54792 0
M  V30 4462 C 418.403 -1.9304 0.211967 0
M  V30 4463 O 417.678 -1.78175 -0.77999 0
M  V30 4464 C 417.961 -2.41593 2.67029 0
M  V30 4465 C 417.814 -1.84408 4.10261 0
M  V30 4466 C 419.133 -3.43488 2.75143 0
M  V30 4467 H 416.252 -0.475031 0.563485 0
M  V30 4468 H 418.894 -0.616454 1.79722 0
M  V30 4469 H 417.044 -3.00772 2.45904 0
M  V30 4470 H 418.716 -1.29445 4.42766 0
M  V30 4471 H 416.959 -1.15051 4.18265 0
M  V30 4472 H 417.63 -2.64367 4.84576 0
M  V30 4473 H 420.106 -2.94236 2.94218 0
M  V30 4474 H 418.982 -4.18274 3.55441 0
M  V30 4475 H 419.243 -4.02703 1.82435 0
M  V30 4476 N 418.302 -1.35869 -0.798587 0
M  V30 4477 C 419.548 -1.2978 -1.55836 0
M  V30 4478 C 419.881 0.125322 -1.93795 0
M  V30 4479 O 419.156 1.07658 -1.61987 0
M  V30 4480 C 419.439 -2.21188 -2.84162 0
M  V30 4481 C 419.292 -3.72155 -2.52628 0
M  V30 4482 C 420.611 -2.11545 -3.85923 0
M  V30 4483 H 417.73 -0.472769 -0.565383 0
M  V30 4484 H 420.372 -1.66341 -0.918192 0
M  V30 4485 H 418.522 -1.90139 -3.38791 0
M  V30 4486 H 420.194 -4.13682 -2.04121 0
M  V30 4487 H 418.437 -3.92042 -1.85704 0
M  V30 4488 H 419.108 -4.31511 -3.44242 0
M  V30 4489 H 421.584 -2.38855 -3.40716 0
M  V30 4490 H 420.46 -2.77688 -4.73477 0
M  V30 4491 H 420.721 -1.09987 -4.282 0
M  V30 4492 N 419.78 1.02168 -1.19998 0
M  V30 4493 C 421.005 1.79833 -1.03319 0
M  V30 4494 C 421.43 1.83504 0.413281 0
M  V30 4495 O 420.788 1.26635 1.29743 0
M  V30 4496 C 420.836 3.22396 -1.61533 0
M  V30 4497 O 419.94 4.03555 -0.849519 0
M  V30 4498 H 419.281 0.554872 -0.364709 0
M  V30 4499 H 421.811 1.28542 -1.59179 0
M  V30 4500 H 421.821 3.73124 -1.65054 0
M  V30 4501 H 420.496 3.19039 -2.66809 0
M  V30 4502 H 419.073 3.62169 -0.888129 0
M  V30 4503 N 421.258 1.00505 1.21394 0
M  V30 4504 C 422.504 0.698477 1.91031 0
M  V30 4505 C 422.859 -0.762448 1.76648 0
M  V30 4506 O 422.152 -1.54554 1.13241 0
M  V30 4507 C 422.346 1.0546 3.41486 0
M  V30 4508 C 422.175 2.5486 3.70508 0
M  V30 4509 C 420.945 3.21461 3.8986 0
M  V30 4510 C 423.143 3.53019 3.74008 0
M  V30 4511 N 421.125 4.60211 4.06299 0
M  V30 4512 C 422.496 4.77279 3.95733 0
M  V30 4513 C 424.551 3.47154 3.56915 0
M  V30 4514 C 423.254 5.96388 4.02137 0
M  V30 4515 C 425.28 4.65652 3.64585 0
M  V30 4516 C 424.642 5.88717 3.86771 0
M  V30 4517 H 420.741 0.30707 0.719189 0
M  V30 4518 H 423.325 1.28753 1.46051 0
M  V30 4519 H 421.496 0.494007 3.85246 0
M  V30 4520 H 423.228 0.702765 3.98552 0
M  V30 4521 H 419.983 2.71906 3.87768 0
M  V30 4522 H 420.407 5.32216 4.1842 0
M  V30 4523 H 425.049 2.53015 3.38738 0
M  V30 4524 H 422.767 6.90919 4.19114 0
M  V30 4525 H 426.353 4.62717 3.52681 0
M  V30 4526 H 425.233 6.78877 3.92549 0
M  V30 4527 N 422.737 -1.36956 0.779787 0
M  V30 4528 C 423.685 -2.32053 0.15942 0
M  V30 4529 C 424.679 -1.55333 -0.675878 0
M  V30 4530 O 425.885 -1.70668 -0.57204 0
M  V30 4531 H 422.26 -0.751286 0.0327707 0
M  V30 4532 H 424.231 -2.8195 0.977078 0
M  V30 4533 C 422.98 -3.40602 -0.698977 0
M  V30 4534 H 422.303 -3.99746 -0.0655966 0
M  V30 4535 H 423.743 -4.09486 -1.09989 0
M  V30 4536 C 422.202 -2.81359 -1.85307 0
M  V30 4537 O 422.732 -2.72751 -2.94906 0
M  V30 4538 N 420.938 -2.38786 -1.65619 0
M  V30 4539 H 420.485 -2.45987 -0.764725 0
M  V30 4540 H 420.443 -1.99493 -2.43002 0
M  V30 4541 N 424.215 -0.530993 -1.48385 0
M  V30 4542 C 425.125 0.23503 -2.3342 0
M  V30 4543 C 426.141 0.93801 -1.46552 0
M  V30 4544 O 427.317 0.912745 -1.7953 0
M  V30 4545 C 424.382 1.26778 -3.22689 0
M  V30 4546 C 423.443 0.575038 -4.25431 0
M  V30 4547 C 422.676 1.55858 -5.10435 0
M  V30 4548 O 422.899 2.79129 -4.97437 0
M  V30 4549 O 421.833 1.09742 -5.91811 0
M  V30 4550 H 425.659 -0.461794 -3.00169 0
M  V30 4551 H 423.244 -0.291903 -1.46521 0
M  V30 4552 H 425.126 1.86457 -3.77904 0
M  V30 4553 H 423.801 1.94699 -2.586 0
M  V30 4554 H 422.708 -0.0622782 -3.74048 0
M  V30 4555 H 424.041 -0.062253 -4.92161 0
M  V30 4556 N 425.693 1.55336 -0.266172 0
M  V30 4557 C 426.623 2.25146 0.618981 0
M  V30 4558 C 427.604 1.23845 1.16604 0
M  V30 4559 O 428.789 1.52544 1.20183 0
M  V30 4560 C 425.919 2.96572 1.80728 0
M  V30 4561 C 424.873 4.04726 1.39215 0
M  V30 4562 C 424.199 4.63678 2.66283 0
M  V30 4563 C 425.499 5.19407 0.548942 0
M  V30 4564 H 427.193 2.99377 0.0368116 0
M  V30 4565 H 424.739 1.43991 0.0162651 0
M  V30 4566 H 426.692 3.44116 2.43232 0
M  V30 4567 H 425.416 2.19861 2.41514 0
M  V30 4568 H 424.075 3.57979 0.790351 0
M  V30 4569 H 423.723 3.83646 3.25308 0
M  V30 4570 H 423.423 5.367 2.39222 0
M  V30 4571 H 424.947 5.13967 3.29651 0
M  V30 4572 H 426.361 5.63059 1.07876 0
M  V30 4573 H 424.758 5.98936 0.373593 0
M  V30 4574 H 425.828 4.8295 -0.434394 0
M  V30 4575 N 427.171 -0.0066808 1.57599 0
M  V30 4576 C 428.411 -0.697501 1.92131 0
M  V30 4577 C 428.775 -1.71306 0.867071 0
M  V30 4578 O 429.976 -2.45377 1.09743 0
M  V30 4579 C 428.247 -1.32978 3.3174 0
M  V30 4580 S 429.806 -2.04665 3.88146 0
M  V30 4581 H 426.624 -0.230555 0.672581 0
M  V30 4582 H 429.226 0.0484026 1.9544 0
M  V30 4583 H 427.93 -0.57772 4.06313 0
M  V30 4584 H 427.461 -2.11376 3.31789 0
M  V30 4585 H 429.476 -3.32097 3.68682 0
M  V30 4586 N 428.649 -1.55105 -0.279332 0
M  V30 4587 C 429.599 -1.83937 -1.34727 0
M  V30 4588 C 430.583 -0.69785 -1.44979 0
M  V30 4589 O 431.775 -0.95904 -1.48766 0
M  V30 4590 C 428.904 -2.1092 -2.70864 0
M  V30 4591 C 427.99 -3.31314 -2.64748 0
M  V30 4592 N 428.381 -4.51371 -2.2825 0
M  V30 4593 C 426.679 -3.33777 -2.95819 0
M  V30 4594 C 427.38 -5.33447 -2.31969 0
M  V30 4595 N 426.356 -4.71697 -2.7019 0
M  V30 4596 H 430.158 -2.74309 -1.05506 0
M  V30 4597 H 427.672 -1.54896 -0.487959 0
M  V30 4598 H 429.669 -2.2973 -3.47893 0
M  V30 4599 H 428.329 -1.21828 -3.00979 0
M  V30 4600 H 429.34 -4.77584 -2.00335 0
M  V30 4601 H 426.017 -2.54858 -3.30687 0
M  V30 4602 H 427.407 -6.39424 -2.06365 0
M  V30 4603 N 430.127 0.543554 -1.4793 0
M  V30 4604 C 431.376 1.29649 -1.54512 0
M  V30 4605 C 431.689 1.94382 -0.217973 0
M  V30 4606 O 432.895 2.71017 -0.161908 0
M  V30 4607 C 431.351 2.35175 -2.72435 0
M  V30 4608 C 430.959 1.76572 -4.11736 0
M  V30 4609 C 432.703 3.11564 -2.8832 0
M  V30 4610 C 430.61 2.79958 -5.20939 0
M  V30 4611 H 429.54 0.487541 -0.57517 0
M  V30 4612 H 432.191 0.575708 -1.74235 0
M  V30 4613 H 430.573 3.10229 -2.46118 0
M  V30 4614 H 431.747 1.07799 -4.48013 0
M  V30 4615 H 430.062 1.12722 -4.00852 0
M  V30 4616 H 432.659 3.88794 -3.67074 0
M  V30 4617 H 433.002 3.66594 -1.97268 0
M  V30 4618 H 433.535 2.43623 -3.14472 0
M  V30 4619 H 430.274 2.29766 -6.13912 0
M  V30 4620 H 429.794 3.47101 -4.89164 0
M  V30 4621 H 431.473 3.43198 -5.48474 0
M  V30 4622 N 431.605 1.3629 0.791371 0
M  V30 4623 C 432.568 1.30309 1.88553 0
M  V30 4624 C 433.568 0.211204 1.59407 0
M  V30 4625 O 434.758 0.465865 1.67855 0
M  V30 4626 C 431.89 1.01956 3.25297 0
M  V30 4627 H 433.083 2.27614 1.95273 0
M  V30 4628 H 430.636 1.21035 0.988953 0
M  V30 4629 H 431.371 0.050998 3.2426 0
M  V30 4630 H 431.156 1.80968 3.4784 0
M  V30 4631 H 432.646 1.0037 4.05359 0
M  V30 4632 N 433.083 -1.0153 1.20538 0
M  V30 4633 C 433.993 -2.13557 0.971113 0
M  V30 4634 C 435.009 -1.73845 -0.0734366 0
M  V30 4635 O 436.185 -2.01075 0.114299 0
M  V30 4636 C 433.25 -3.42661 0.527639 0
M  V30 4637 C 432.311 -3.96608 1.64319 0
M  V30 4638 C 431.544 -5.1955 1.22078 0
M  V30 4639 O 431.767 -5.70329 0.0900198 0
M  V30 4640 O 430.701 -5.66681 2.02871 0
M  V30 4641 H 434.527 -2.3619 1.90913 0
M  V30 4642 H 432.112 -1.11946 0.989362 0
M  V30 4643 H 433.994 -4.20404 0.289621 0
M  V30 4644 H 432.669 -3.21441 -0.381779 0
M  V30 4645 H 431.576 -3.20139 1.93551 0
M  V30 4646 H 432.909 -4.22219 2.52966 0
M  V30 4647 N 434.561 -1.01147 -1.20859 0
M  V30 4648 C 435.789 -0.716911 -1.94082 0
M  V30 4649 C 436.204 0.721568 -1.74467 0
M  V30 4650 O 435.561 1.48889 -1.05539 0
M  V30 4651 C 435.612 -1.03662 -3.46318 0
M  V30 4652 O 435.333 -2.4186 -3.65288 0
M  V30 4653 C 436.834 -0.762386 -4.36695 0
M  V30 4654 H 434.054 -0.26367 -0.617024 0
M  V30 4655 H 436.598 -1.35127 -1.53496 0
M  V30 4656 H 434.753 -0.447757 -3.84804 0
M  V30 4657 H 435.167 -2.53224 -4.59323 0
M  V30 4658 H 436.641 -1.03621 -5.42187 0
M  V30 4659 H 437.118 0.303514 -4.3815 0
M  V30 4660 H 437.724 -1.33316 -4.03865 0
M  V30 4661 N 436.039 1.36541 -0.78704 0
M  V30 4662 C 436.972 2.27831 -0.129765 0
M  V30 4663 C 437.95 1.47105 0.692732 0
M  V30 4664 O 439.134 1.7641 0.664222 0
M  V30 4665 C 436.261 3.28577 0.821883 0
M  V30 4666 C 435.307 4.26422 0.0814771 0
M  V30 4667 S 436.14 5.20919 -1.24112 0
M  V30 4668 C 437.296 6.25212 -0.293409 0
M  V30 4669 H 437.529 2.83229 -0.903811 0
M  V30 4670 H 435.062 1.43046 -0.581144 0
M  V30 4671 H 437.02 3.87123 1.3655 0
M  V30 4672 H 435.681 2.72096 1.56916 0
M  V30 4673 H 434.874 4.97554 0.803485 0
M  V30 4674 H 434.476 3.71944 -0.391589 0
M  V30 4675 H 436.768 6.75435 0.528622 0
M  V30 4676 H 437.711 7.01378 -0.973344 0
M  V30 4677 H 438.119 5.64407 0.102196 0
M  V30 4678 N 437.518 0.538854 1.48102 0
M  V30 4679 C 438.481 -0.208395 2.28251 0
M  V30 4680 C 439.481 -0.859656 1.35892 0
M  V30 4681 O 440.671 -0.71834 1.58699 0
M  V30 4682 C 437.803 -1.30252 3.15035 0
M  V30 4683 H 438.996 0.495407 2.9578 0
M  V30 4684 H 436.549 0.295112 1.53489 0
M  V30 4685 H 437.284 -2.0393 2.52157 0
M  V30 4686 H 437.069 -0.840551 3.82985 0
M  V30 4687 H 438.559 -1.82787 3.75471 0
M  V30 4688 N 438.996 -1.55193 0.274407 0
M  V30 4689 C 440.412 -1.59401 -0.0797543 0
M  V30 4690 C 440.612 -1.29162 -1.54659 0
M  V30 4691 O 439.668 -1.05215 -2.29534 0
M  V30 4692 C 440.981 -2.99257 0.294238 0
M  V30 4693 C 442.529 -3.12072 0.240796 0
M  V30 4694 C 443.004 -4.54194 0.589218 0
M  V30 4695 N 444.495 -4.60033 0.540744 0
M  V30 4696 C 445.23 -5.68027 0.783147 0
M  V30 4697 N 444.726 -6.8417 1.09013 0
M  V30 4698 N 446.519 -5.57572 0.711993 0
M  V30 4699 H 438.67 -1.73113 1.23067 0
M  V30 4700 H 440.933 -0.807197 0.497129 0
M  V30 4701 H 440.639 -3.26217 1.31435 0
M  V30 4702 H 440.513 -3.75427 -0.365281 0
M  V30 4703 H 442.9 -2.84877 -0.770024 0
M  V30 4704 H 442.981 -2.38117 0.934563 0
M  V30 4705 H 442.625 -4.82115 1.59772 0
M  V30 4706 H 442.555 -5.26448 -0.126331 0
M  V30 4707 H 445.046 -3.76599 0.313327 0
M  V30 4708 H 445.359 -7.6243 1.26178 0
M  V30 4709 H 443.704 -6.85787 1.12789 0
M  V30 4710 H 446.895 -4.65714 0.472014 0
M  V30 4711 H 447.068 -6.41659 0.90429 0
M  V30 4712 N 440.474 -0.00167713 -1.576 0
M  V30 4713 C 441.722 0.681471 -1.90264 0
M  V30 4714 C 442.043 1.7422 -0.875924 0
M  V30 4715 O 441.313 1.95709 0.0864412 0
M  V30 4716 H 439.893 0.254696 -0.702239 0
M  V30 4717 H 442.555 -0.0429996 -1.94853 0
M  V30 4718 H 441.651 1.15166 -2.90075 0
M  V30 4719 N 441.952 1.55251 0.271103 0
M  V30 4720 C 442.882 1.9127 1.33933 0
M  V30 4721 C 443.863 0.77478 1.5143 0
M  V30 4722 O 445.048 1.03307 1.64442 0
M  V30 4723 C 442.178 2.18627 2.69851 0
M  V30 4724 C 441.132 3.34442 2.67081 0
M  V30 4725 C 440.458 3.47284 4.06569 0
M  V30 4726 C 441.758 4.70784 2.26185 0
M  V30 4727 H 443.452 2.80744 1.04035 0
M  V30 4728 H 440.998 1.35077 0.499017 0
M  V30 4729 H 442.951 2.42413 3.44694 0
M  V30 4730 H 441.675 1.25955 3.01335 0
M  V30 4731 H 440.334 3.10627 1.94695 0
M  V30 4732 H 439.982 2.52074 4.35279 0
M  V30 4733 H 439.682 4.25152 4.0561 0
M  V30 4734 H 441.206 3.73363 4.83148 0
M  V30 4735 H 442.62 4.94102 2.90751 0
M  V30 4736 H 441.017 5.51582 2.36384 0
M  V30 4737 H 442.087 4.69478 1.21319 0
M  V30 4738 N 443.43 -0.535701 1.48216 0
M  V30 4739 C 444.393 -1.623 1.61838 0
M  V30 4740 C 445.393 -1.53087 0.492024 0
M  V30 4741 O 446.583 -1.5686 0.757668 0
M  V30 4742 C 443.715 -3.01907 1.58319 0
M  V30 4743 H 444.908 -1.51564 2.58783 0
M  V30 4744 H 442.461 -0.757317 1.36727 0
M  V30 4745 H 443.196 -3.18155 0.628299 0
M  V30 4746 H 442.981 -3.10003 2.40085 0
M  V30 4747 H 444.471 -3.80969 1.71033 0
M  V30 4748 N 444.908 -1.36708 -0.784132 0
M  V30 4749 C 446.138 -1.34203 -1.57077 0
M  V30 4750 C 446.546 0.0774945 -1.89041 0
M  V30 4751 O 445.889 1.04628 -1.50992 0
M  V30 4752 C 445.951 -2.10351 -2.91535 0
M  V30 4753 C 445.615 -3.59405 -2.82272 0
M  V30 4754 C 446.612 -4.53545 -2.54151 0
M  V30 4755 C 444.297 -4.02362 -3.00683 0
M  V30 4756 C 446.291 -5.8862 -2.44551 0
M  V30 4757 C 443.978 -5.37526 -2.90704 0
M  V30 4758 C 444.976 -6.30468 -2.62677 0
M  V30 4759 O 444.664 -7.63149 -2.52702 0
M  V30 4760 H 444.396 -0.461791 -0.493685 0
M  V30 4761 H 446.95 -1.80475 -0.980712 0
M  V30 4762 H 445.18 -1.5875 -3.52612 0
M  V30 4763 H 446.869 -2.00636 -3.52845 0
M  V30 4764 H 447.635 -4.21669 -2.39625 0
M  V30 4765 H 443.514 -3.30389 -3.21503 0
M  V30 4766 H 447.058 -6.61133 -2.22596 0
M  V30 4767 H 442.955 -5.69008 -3.04795 0
M  V30 4768 H 443.723 -7.73331 -2.68144 0
M  V30 4769 N 446.386 1.0089 -1.21074 0
M  V30 4770 C 447.316 2.1145 -0.990523 0
M  V30 4771 C 448.297 1.69897 0.0831699 0
M  V30 4772 O 449.482 1.94052 -0.0758853 0
M  V30 4773 C 446.612 3.42914 -0.550177 0
M  V30 4774 C 445.566 3.98244 -1.56799 0
M  V30 4775 C 444.892 5.25568 -0.984013 0
M  V30 4776 C 446.192 4.30752 -2.95381 0
M  V30 4777 H 447.886 2.3013 -1.91521 0
M  V30 4778 H 445.432 1.10592 -0.92225 0
M  V30 4779 H 447.385 4.19653 -0.383305 0
M  V30 4780 H 446.109 3.24014 0.41015 0
M  V30 4781 H 444.768 3.23621 -1.72236 0
M  V30 4782 H 444.416 5.02998 -0.0155216 0
M  V30 4783 H 444.116 5.63551 -1.66384 0
M  V30 4784 H 445.64 6.04955 -0.828378 0
M  V30 4785 H 447.054 4.98349 -2.8341 0
M  V30 4786 H 445.451 4.79869 -3.60341 0
M  V30 4787 H 446.521 3.39192 -3.46521 0
M  V30 4788 N 447.864 1.01787 1.20321 0
M  V30 4789 C 448.814 0.559976 2.21016 0
M  V30 4790 C 449.798 -0.385366 1.56217 0
M  V30 4791 O 450.99 -0.208126 1.75772 0
M  V30 4792 C 448.119 -0.0990553 3.43157 0
M  V30 4793 C 447.205 0.86807 4.15121 0
M  V30 4794 N 447.596 2.0261 4.63447 0
M  V30 4795 C 445.894 0.689162 4.40643 0
M  V30 4796 C 446.595 2.63518 5.18588 0
M  V30 4797 N 445.571 1.91569 5.08726 0
M  V30 4798 H 449.373 1.44281 2.56048 0
M  V30 4799 H 446.887 0.883381 1.36272 0
M  V30 4800 H 448.884 -0.444643 4.14522 0
M  V30 4801 H 447.544 -0.977709 3.0963 0
M  V30 4802 H 448.555 2.40598 4.58621 0
M  V30 4803 H 445.232 -0.14133 4.17261 0
M  V30 4804 H 446.622 3.61527 5.66346 0
M  V30 4805 N 449.342 -1.36122 0.79427 0
M  V30 4806 C 450.252 -2.33769 0.197296 0
M  V30 4807 C 451.268 -1.61276 -0.653153 0
M  V30 4808 O 452.444 -1.9323 -0.5678 0
M  V30 4809 C 449.509 -3.40474 -0.654098 0
M  V30 4810 C 448.57 -4.28759 0.215411 0
M  V30 4811 C 447.803 -5.30368 -0.595443 0
M  V30 4812 O 448.026 -5.40211 -1.83107 0
M  V30 4813 O 446.96 -6.019 0.00721351 0
M  V30 4814 H 450.786 -2.86597 1.00478 0
M  V30 4815 H 448.371 -1.38676 0.555818 0
M  V30 4816 H 450.253 -4.05703 -1.13944 0
M  V30 4817 H 448.928 -2.89937 -1.43938 0
M  V30 4818 H 447.835 -3.66554 0.747615 0
M  V30 4819 H 449.168 -4.82661 0.964332 0
M  V30 4820 N 450.82 -0.546701 -1.47814 0
M  V30 4821 C 452.097 0.0464413 -1.95545 0
M  V30 4822 C 452.477 1.4962 -1.48919 0
M  V30 4823 O 451.825 2.16752 -0.723232 0
M  V30 4824 C 452.035 -0.0881298 -3.48889 0
M  V30 4825 C 453.383 0.0626059 -4.24554 0
M  V30 4826 O 454.407 -0.0151555 -3.56197 0
M  V30 4827 O 453.266 0.228071 -5.46024 0
M  V30 4828 H 450.36 0.0700004 -0.824032 0
M  V30 4829 H 452.906 -0.612482 -1.58262 0
M  V30 4830 H 451.678 -1.09737 -3.75597 0
M  V30 4831 H 451.301 0.608886 -3.9291 0
M  V30 4832 N 452.299 1.55045 -0.282633 0
M  V30 4833 C 453.548 1.98938 0.332667 0
M  V30 4834 C 453.861 1.17455 1.56409 0
M  V30 4835 O 455.067 1.51527 2.25282 0
M  V30 4836 C 453.523 3.54105 0.643226 0
M  V30 4837 C 453.131 4.44374 -0.568814 0
M  V30 4838 C 454.875 4.06569 1.22074 0
M  V30 4839 C 452.782 5.90943 -0.232426 0
M  V30 4840 H 451.712 0.743043 0.128075 0
M  V30 4841 H 454.363 1.79341 -0.388464 0
M  V30 4842 H 452.745 3.69532 1.42346 0
M  V30 4843 H 453.919 4.40718 -1.34551 0
M  V30 4844 H 452.234 4.02585 -1.06369 0
M  V30 4845 H 454.831 5.13626 1.48635 0
M  V30 4846 H 455.174 3.56057 2.15707 0
M  V30 4847 H 455.707 3.94612 0.502621 0
M  V30 4848 H 452.446 6.45567 -1.13683 0
M  V30 4849 H 451.966 5.9765 0.507357 0
M  V30 4850 H 453.645 6.4677 0.172657 0
M  V30 4851 N 453.777 0.010035 1.57597 0
M  V30 4852 C 455.188 -0.531426 1.78977 0
M  V30 4853 C 455.539 -1.73375 0.918454 0
M  V30 4854 O 454.664 -2.16047 0.123635 0
M  V30 4855 C 455.259 -0.97086 3.24592 0
M  V30 4856 C 453.818 -1.45756 3.47033 0
M  V30 4857 C 452.965 -0.413384 2.74201 0
M  V30 4858 H 455.916 0.236166 1.56933 0
M  V30 4859 H 455.937 -1.83633 3.33255 0
M  V30 4860 H 455.449 -0.0955893 3.87982 0
M  V30 4861 H 453.55 -2.35339 2.88871 0
M  V30 4862 H 453.663 -1.4781 4.55729 0
M  V30 4863 H 452.027 -0.877266 2.39115 0
M  V30 4864 H 452.81 0.453092 3.40297 0
M  V30 4865 N 455.255 -1.55392 -0.262866 0
M  V30 4866 C 456.503 -1.76127 -0.991147 0
M  V30 4867 C 456.824 -0.571083 -1.8645 0
M  V30 4868 O 456.094 0.413698 -1.91482 0
M  V30 4869 H 454.674 -0.649528 -0.368948 0
M  V30 4870 H 457.336 -1.9281 -0.284655 0
M  V30 4871 H 456.432 -2.6663 -1.62219 0
M  V30 4872 N 456.733 0.527833 -1.48498 0
M  V30 4873 C 457.663 1.64136 -1.66077 0
M  V30 4874 C 458.644 1.62286 -0.509625 0
M  V30 4875 O 459.829 1.79449 -0.742413 0
M  V30 4876 C 456.959 3.02717 -1.70234 0
M  V30 4877 C 455.913 3.19426 -2.8487 0
M  V30 4878 C 455.239 4.5909 -2.74118 0
M  V30 4879 C 456.539 3.01993 -4.26142 0
M  V30 4880 H 458.233 1.4968 -2.593 0
M  V30 4881 H 455.779 0.718654 -1.24785 0
M  V30 4882 H 457.732 3.80491 -1.8112 0
M  V30 4883 H 456.456 3.18201 -0.735911 0
M  V30 4884 H 455.115 2.4407 -2.73542 0
M  V30 4885 H 454.763 4.71413 -1.7544 0
M  V30 4886 H 454.463 4.71214 -3.51042 0
M  V30 4887 H 455.987 5.3896 -2.86974 0
M  V30 4888 H 457.401 3.69558 -4.38292 0
M  V30 4889 H 455.798 3.2561 -5.04082 0
M  V30 4890 H 456.868 1.98396 -4.42456 0
M  V30 4891 N 458.211 1.37122 0.776871 0
M  V30 4892 C 459.158 1.3247 1.88998 0
M  V30 4893 C 460.128 0.191143 1.64997 0
M  V30 4894 O 461.313 0.379683 1.86984 0
M  V30 4895 C 458.453 1.13241 3.25992 0
M  V30 4896 C 457.566 2.35782 3.61982 0
M  V30 4897 C 456.701 2.09465 4.88158 0
M  V30 4898 C 455.74 3.279 5.16864 0
M  V30 4899 N 454.877 3.01167 6.34226 0
M  V30 4900 H 459.717 2.27642 1.9231 0
M  V30 4901 H 457.254 1.13125 0.94027 0
M  V30 4902 H 459.212 1.00115 4.0501 0
M  V30 4903 H 457.842 0.217186 3.22069 0
M  V30 4904 H 456.894 2.59666 2.77989 0
M  V30 4905 H 458.206 3.24125 3.79137 0
M  V30 4906 H 457.36 1.93341 5.75069 0
M  V30 4907 H 456.099 1.18452 4.73097 0
M  V30 4908 H 455.104 3.44569 4.2843 0
M  V30 4909 H 456.329 4.19757 5.33836 0
M  V30 4910 H 454.275 2.12779 6.20533 0
M  V30 4911 H 454.192 3.83052 6.51772 0
M  V30 4912 H 455.46 2.88649 7.24087 0
M  V30 4913 N 459.689 -1.00246 1.21608 0
M  V30 4914 C 460.966 -1.71336 0.943568 0
M  V30 4915 C 461.346 -2.03972 -0.543943 0
M  V30 4916 O 460.694 -1.71545 -1.50946 0
M  V30 4917 C 460.904 -2.97094 1.83128 0
M  V30 4918 C 462.252 -3.70071 2.08165 0
M  V30 4919 O 463.276 -3.07081 1.80498 0
M  V30 4920 O 462.135 -4.83376 2.54971 0
M  V30 4921 H 459.229 -0.747386 0.354039 0
M  V30 4922 H 461.775 -1.05967 1.32549 0
M  V30 4923 H 460.547 -2.69407 2.83788 0
M  V30 4924 H 460.17 -3.70204 1.45034 0
M  V30 4925 N 461.167 -1.02423 -1.1978 0
M  V30 4926 C 462.415 -0.716569 -1.8897 0
M  V30 4927 C 462.736 0.756769 -1.79716 0
M  V30 4928 O 462.006 1.5449 -1.20456 0
M  V30 4929 H 460.586 -0.262062 -0.699523 0
M  V30 4930 H 463.248 -1.29747 -1.45436 0
M  V30 4931 H 462.344 -1.00675 -2.95417 0
M  V30 4932 N 462.645 1.35699 -0.801477 0
M  V30 4933 C 463.595 2.2728 -0.181073 0
M  V30 4934 C 464.579 1.47533 0.642098 0
M  V30 4935 O 465.771 1.69785 0.500193 0
M  V30 4936 C 462.9 3.36626 0.673612 0
M  V30 4937 C 461.986 4.23802 -0.159008 0
M  V30 4938 N 462.377 4.90879 -1.2195 0
M  V30 4939 C 460.675 4.45959 0.0602005 0
M  V30 4940 C 461.376 5.5546 -1.72738 0
M  V30 4941 N 460.352 5.33663 -1.03465 0
M  V30 4942 H 464.154 2.76632 -0.992582 0
M  V30 4943 H 461.668 1.49166 -0.642127 0
M  V30 4944 H 463.665 4.01179 1.13408 0
M  V30 4945 H 462.325 2.88828 1.48353 0
M  V30 4946 H 463.336 4.92497 -1.60209 0
M  V30 4947 H 460.013 4.08969 0.839664 0
M  V30 4948 H 461.403 6.18991 -2.61342 0
M  V30 4949 N 464.123 0.554532 1.47522 0
M  V30 4950 C 465.07 -0.19466 2.29978 0
M  V30 4951 C 466.04 -0.910882 1.38896 0
M  V30 4952 O 467.225 -0.907102 1.67858 0
M  V30 4953 C 464.365 -1.22035 3.22802 0
M  V30 4954 C 463.478 -0.510474 4.28973 0
M  V30 4955 C 462.613 -1.52123 5.08952 0
M  V30 4956 C 461.652 -0.796173 6.069 0
M  V30 4957 N 460.789 -1.75363 6.79847 0
M  V30 4958 H 465.629 0.51461 2.93523 0
M  V30 4959 H 463.166 0.265607 1.44682 0
M  V30 4960 H 465.124 -1.8276 3.7504 0
M  V30 4961 H 463.754 -1.89769 2.61127 0
M  V30 4962 H 462.806 0.211234 3.79813 0
M  V30 4963 H 464.118 0.0576503 4.98767 0
M  V30 4964 H 463.272 -2.20207 5.65326 0
M  V30 4965 H 462.011 -2.12327 4.39054 0
M  V30 4966 H 461.016 -0.101388 5.49707 0
M  V30 4967 H 462.241 -0.199911 6.78806 0
M  V30 4968 H 460.187 -2.3443 6.12682 0
M  V30 4969 H 460.104 -1.23759 7.45801 0
M  V30 4970 H 461.372 -2.4257 7.40797 0
M  V30 4971 N 465.601 -1.54893 0.290851 0
M  V30 4972 C 467.012 -1.85584 -0.203816 0
M  V30 4973 C 467.363 -1.21285 -1.54222 0
M  V30 4974 O 466.488 -0.506841 -2.10381 0
M  V30 4975 C 467.083 -3.367 -0.376595 0
M  V30 4976 C 465.642 -3.6746 -0.815485 0
M  V30 4977 C 464.789 -2.77178 0.0821087 0
M  V30 4978 H 467.74 -1.50208 0.512175 0
M  V30 4979 H 467.761 -3.60656 -1.21275 0
M  V30 4980 H 467.273 -3.8347 0.59767 0
M  V30 4981 H 465.374 -3.26201 -1.80066 0
M  V30 4982 H 465.487 -4.7478 -0.641905 0
M  V30 4983 H 463.851 -2.50925 -0.436895 0
M  V30 4984 H 464.634 -3.26767 1.05254 0
M  V30 4985 N 467.08 -0.0183926 -1.57589 0
M  V30 4986 C 468.043 0.951986 -2.08494 0
M  V30 4987 C 469.043 1.26092 -0.997874 0
M  V30 4988 O 470.233 1.20304 -1.25987 0
M  V30 4989 C 467.365 2.27165 -2.54182 0
M  V30 4990 H 468.558 0.511307 -2.95509 0
M  V30 4991 H 466.111 0.229444 -1.54607 0
M  V30 4992 H 466.846 2.75884 -1.70465 0
M  V30 4993 H 466.631 2.06057 -3.33591 0
M  V30 4994 H 468.121 2.9674 -2.93828 0
M  V30 4995 N 468.558 1.5553 0.254621 0
M  V30 4996 C 469.807 1.76202 0.981612 0
M  V30 4997 C 470.12 0.580883 1.86776 0
M  V30 4998 O 471.326 0.670448 2.63092 0
M  V30 4999 C 469.782 3.11921 1.79537 0
M  V30 5000 C 469.39 4.37659 0.956991 0
M  V30 5001 C 471.134 3.41936 2.51555 0
M  V30 5002 C 469.041 5.64411 1.76619 0
M  V30 5003 H 467.971 0.656841 0.370237 0
M  V30 5004 H 470.622 1.81969 0.236556 0
M  V30 5005 H 469.004 3.00241 2.58208 0
M  V30 5006 H 470.178 4.60307 0.21315 0
M  V30 5007 H 468.493 4.14922 0.350497 0
M  V30 5008 H 471.09 4.33849 3.12536 0
M  V30 5009 H 471.433 2.62905 3.22779 0
M  V30 5010 H 471.966 3.54797 1.799 0
M  V30 5011 H 468.705 6.46241 1.09783 0
M  V30 5012 H 468.225 5.45877 2.48551 0
M  V30 5013 H 469.904 6.03386 2.33527 0
M  V30 5014 N 470.036 -0.519951 1.48776 0
M  V30 5015 C 471.261 -1.30447 1.6124 0
M  V30 5016 C 471.686 -1.86055 0.276591 0
M  V30 5017 O 471.044 -1.64915 -0.753183 0
M  V30 5018 C 471.092 -2.42406 2.66967 0
M  V30 5019 O 470.196 -3.45728 2.24824 0
M  V30 5020 H 469.537 -0.385924 0.540332 0
M  V30 5021 H 472.067 -0.624572 1.94834 0
M  V30 5022 H 472.077 -2.88447 2.88552 0
M  V30 5023 H 470.752 -2.01294 3.63941 0
M  V30 5024 H 469.329 -3.05737 2.13494 0
M  V30 5025 N 471.514 -1.37532 -0.769588 0
M  V30 5026 C 472.464 -1.29984 -1.87318 0
M  V30 5027 C 473.448 -0.187242 -1.59807 0
M  V30 5028 O 474.64 -0.421827 -1.719 0
M  V30 5029 C 471.769 -1.11126 -3.24817 0
M  V30 5030 C 470.855 -2.26939 -3.58273 0
M  V30 5031 N 471.246 -3.52336 -3.62895 0
M  V30 5032 C 469.544 -2.19141 -3.8845 0
M  V30 5033 C 470.245 -4.28719 -3.9316 0
M  V30 5034 N 469.221 -3.57884 -4.0917 0
M  V30 5035 H 473.023 -2.24946 -1.89147 0
M  V30 5036 H 470.537 -1.30535 -0.966143 0
M  V30 5037 H 472.534 -1.03803 -4.0377 0
M  V30 5038 H 471.194 -0.17083 -3.2425 0
M  V30 5039 H 472.205 -3.86216 -3.45048 0
M  V30 5040 H 468.882 -1.33167 -3.95693 0
M  V30 5041 H 470.272 -5.37254 -4.03494 0
M  V30 5042 N 472.992 0.995999 -1.22138 0
M  V30 5043 C 474.408 1.25917 -0.980667 0
M  V30 5044 C 474.608 1.98819 0.327604 0
M  V30 5045 O 473.664 2.29587 1.05101 0
M  V30 5046 C 474.977 2.07399 -2.17729 0
M  V30 5047 C 476.525 2.20594 -2.22052 0
M  V30 5048 C 477 3.05462 -3.41258 0
M  V30 5049 N 478.491 3.13049 -3.41401 0
M  V30 5050 C 479.226 3.78997 -4.30289 0
M  V30 5051 N 478.722 4.46899 -5.2939 0
M  V30 5052 N 480.515 3.75728 -4.18073 0
M  V30 5053 H 472.666 0.507158 -2.06256 0
M  V30 5054 H 474.929 0.28658 -0.903646 0
M  V30 5055 H 474.635 1.61191 -3.12586 0
M  V30 5056 H 474.509 3.08154 -2.17534 0
M  V30 5057 H 476.896 2.66017 -1.27745 0
M  V30 5058 H 476.977 1.1928 -2.26287 0
M  V30 5059 H 476.621 2.60739 -4.35864 0
M  V30 5060 H 476.551 4.06911 -3.34262 0
M  V30 5061 H 479.042 2.64721 -2.69688 0
M  V30 5062 H 479.355 4.94952 -5.935 0
M  V30 5063 H 477.7 4.45657 -5.33306 0
M  V30 5064 H 480.891 3.2184 -3.39907 0
M  V30 5065 H 481.064 4.26845 -4.87553 0
M  V30 5066 N 474.47 1.03057 1.19235 0
M  V30 5067 C 475.747 0.642608 1.84743 0
M  V30 5068 C 476.127 -0.878577 1.91948 0
M  V30 5069 O 475.475 -1.77597 1.43776 0
M  V30 5070 C 475.685 1.30665 3.23616 0
M  V30 5071 C 477.033 1.43098 3.9976 0
M  V30 5072 O 478.057 1.26396 3.3302 0
M  V30 5073 O 476.916 1.70223 5.19313 0
M  V30 5074 H 474.01 0.223573 0.796206 0
M  V30 5075 H 476.556 1.12883 1.26711 0
M  V30 5076 H 475.328 2.34544 3.13217 0
M  V30 5077 H 474.951 0.808405 3.89295 0
M  V30 5078 N 475.948 -1.35272 0.808662 0
M  V30 5079 C 477.197 -1.97963 0.386483 0
M  V30 5080 C 477.51 -1.64866 -1.05255 0
M  V30 5081 O 478.716 -2.20937 -1.57794 0
M  V30 5082 C 477.172 -3.54162 0.640096 0
M  V30 5083 C 476.78 -3.96166 2.0918 0
M  V30 5084 C 478.524 -4.23553 0.283376 0
M  V30 5085 C 476.431 -5.4522 2.29106 0
M  V30 5086 H 475.361 -0.740742 0.140774 0
M  V30 5087 H 478.012 -1.5431 0.993012 0
M  V30 5088 H 476.394 -3.95983 -0.0364117 0
M  V30 5089 H 477.568 -3.65491 2.80629 0
M  V30 5090 H 475.883 -3.3967 2.40859 0
M  V30 5091 H 478.48 -5.33124 0.410273 0
M  V30 5092 H 478.823 -4.09105 -0.770659 0
M  V30 5093 H 479.356 -3.8716 0.913884 0
M  V30 5094 H 476.095 -5.64638 3.32962 0
M  V30 5095 H 475.615 -5.77457 1.62184 0
M  V30 5096 H 477.294 -6.1171 2.1076 0
M  V30 5097 N 477.426 -0.562348 -1.47226 0
M  V30 5098 C 478.373 0.182461 -2.30078 0
M  V30 5099 C 479.343 0.903503 -1.39377 0
M  V30 5100 O 480.528 0.898188 -1.68337 0
M  V30 5101 C 477.668 1.20322 -3.23445 0
M  V30 5102 C 476.781 0.487717 -4.29238 0
M  V30 5103 C 475.916 1.49422 -5.09752 0
M  V30 5104 C 474.955 0.763976 -6.07314 0
M  V30 5105 N 474.092 1.71755 -6.80768 0
M  V30 5106 H 478.932 -0.530169 -2.93246 0
M  V30 5107 H 476.469 -0.273276 -1.44539 0
M  V30 5108 H 478.427 1.80768 -3.76004 0
M  V30 5109 H 477.057 1.88382 -2.6213 0
M  V30 5110 H 476.109 -0.231374 -3.79696 0
M  V30 5111 H 477.421 -0.0841003 -4.98729 0
M  V30 5112 H 476.575 2.17206 -5.66486 0
M  V30 5113 H 475.314 2.09995 -4.40174 0
M  V30 5114 H 474.319 0.0722344 -5.49753 0
M  V30 5115 H 475.544 0.16391 -6.78902 0
M  V30 5116 H 473.49 2.31177 -6.13916 0
M  V30 5117 H 473.407 1.19802 -7.46447 0
M  V30 5118 H 474.675 2.38638 -7.42073 0
M  V30 5119 N 478.904 1.54736 -0.299062 0
M  V30 5120 C 480.129 2.04975 0.316254 0
M  V30 5121 C 480.554 1.17501 1.46885 0
M  V30 5122 O 479.912 0.178678 1.80417 0
M  V30 5123 C 479.96 3.52672 0.751997 0
M  V30 5124 O 479.064 3.68226 1.85697 0
M  V30 5125 H 478.405 0.661126 0.0617175 0
M  V30 5126 H 480.935 1.99805 -0.440341 0
M  V30 5127 H 480.945 3.94488 1.04133 0
M  V30 5128 H 479.62 4.158 -0.0911482 0
M  V30 5129 H 478.197 3.38316 1.56834 0
M  V30 5130 N 480.382 0.0267497 1.57577 0
M  V30 5131 C 481.329 -0.955894 2.10075 0
M  V30 5132 C 482.299 -1.32453 1.00226 0
M  V30 5133 O 483.484 -1.41826 1.27632 0
M  V30 5134 C 480.624 -2.2338 2.6305 0
M  V30 5135 C 479.737 -1.92183 3.86898 0
M  V30 5136 C 478.872 -3.14251 4.28275 0
M  V30 5137 C 477.911 -2.78862 5.44888 0
M  V30 5138 N 477.048 -3.93548 5.81433 0
M  V30 5139 H 481.888 -0.501303 2.93753 0
M  V30 5140 H 479.425 -0.235847 1.45197 0
M  V30 5141 H 481.383 -2.98124 2.91853 0
M  V30 5142 H 480.013 -2.6646 1.82205 0
M  V30 5143 H 479.065 -1.07692 3.64838 0
M  V30 5144 H 480.377 -1.62117 4.7172 0
M  V30 5145 H 479.531 -3.97317 4.58502 0
M  V30 5146 H 478.27 -3.47476 3.42215 0
M  V30 5147 H 477.275 -1.94208 5.14357 0
M  V30 5148 H 478.5 -2.46855 6.32645 0
M  V30 5149 H 476.446 -4.2662 4.98328 0
M  V30 5150 H 476.363 -3.67098 6.6089 0
M  V30 5151 H 477.631 -4.77325 6.16264 0
M  V30 5152 N 481.861 -1.55662 -0.24637 0
M  V30 5153 C 482.809 -1.91186 -1.3248 0
M  V30 5154 C 483.803 -0.790996 -1.49799 0
M  V30 5155 O 485.009 -0.975617 -1.51267 0
M  V30 5156 H 481.384 -0.607207 -0.443626 0
M  V30 5157 H 483.355 -2.81221 -0.997853 0
M  V30 5158 C 482.104 -2.22349 -2.67313 0
M  V30 5159 H 481.427 -3.08097 -2.54786 0
M  V30 5160 H 482.867 -2.51107 -3.41645 0
M  V30 5161 C 481.326 -1.04001 -3.20446 0
M  V30 5162 O 481.856 -0.28828 -4.00664 0
M  V30 5163 N 480.062 -0.830494 -2.7848 0
M  V30 5164 H 479.609 -1.4435 -2.13356 0
M  V30 5165 H 479.567 -0.0403258 -3.14374 0
M  V30 5166 N 483.339 0.512053 -1.4905 0
M  V30 5167 C 484.585 1.26874 -1.58212 0
M  V30 5168 C 484.918 1.9241 -0.263073 0
M  V30 5169 O 484.193 1.80181 0.732476 0
M  V30 5170 C 484.476 2.34428 -2.73341 0
M  V30 5171 C 484.329 1.73466 -4.15006 0
M  V30 5172 C 485.648 3.36073 -2.84154 0
M  V30 5173 H 482.767 0.459924 -0.575881 0
M  V30 5174 H 485.409 0.568587 -1.81293 0
M  V30 5175 H 483.559 2.94146 -2.53792 0
M  V30 5176 H 485.231 1.17661 -4.46042 0
M  V30 5177 H 483.474 1.03921 -4.21168 0
M  V30 5178 H 484.145 2.51426 -4.91415 0
M  V30 5179 H 486.621 2.86332 -3.01916 0
M  V30 5180 H 485.497 4.08703 -3.66406 0
M  V30 5181 H 485.758 3.97725 -1.93048 0
M  V30 5182 N 484.817 1.37938 0.762283 0
M  V30 5183 C 485.747 1.37176 1.88958 0
M  V30 5184 C 486.728 0.238945 1.68413 0
M  V30 5185 O 487.913 0.440726 1.89133 0
M  V30 5186 C 485.043 1.18742 3.2637 0
M  V30 5187 C 483.997 2.29136 3.61498 0
M  V30 5188 C 483.323 1.95816 4.97554 0
M  V30 5189 C 484.623 3.71363 3.6727 0
M  V30 5190 H 486.317 2.31509 1.89853 0
M  V30 5191 H 483.863 1.11438 0.912005 0
M  V30 5192 H 485.816 1.16837 4.04879 0
M  V30 5193 H 484.54 0.208683 3.25933 0
M  V30 5194 H 483.199 2.30213 2.85303 0
M  V30 5195 H 482.847 0.964475 4.93667 0
M  V30 5196 H 482.547 2.69745 5.22026 0
M  V30 5197 H 484.071 1.95513 5.78452 0
M  V30 5198 H 485.485 3.72364 4.35911 0
M  V30 5199 H 483.882 4.44425 4.03245 0
M  V30 5200 H 484.952 4.04305 2.67704 0
M  V30 5201 N 486.295 -0.989507 1.22664 0
M  V30 5202 C 487.225 -2.09847 1.02404 0
M  V30 5203 C 488.206 -1.70007 -0.0561303 0
M  V30 5204 O 489.391 -1.93906 0.106748 0
M  V30 5205 C 486.521 -3.41996 0.604663 0
M  V30 5206 C 485.475 -3.95699 1.63115 0
M  V30 5207 C 484.801 -5.23936 1.0675 0
M  V30 5208 C 486.101 -4.25999 3.02196 0
M  V30 5209 H 487.795 -2.27054 1.95158 0
M  V30 5210 H 485.341 -1.09111 0.939727 0
M  V30 5211 H 487.294 -4.1899 0.45002 0
M  V30 5212 H 486.018 -3.24626 -0.35855 0
M  V30 5213 H 484.677 -3.2084 1.77362 0
M  V30 5214 H 484.325 -5.02909 0.0955422 0
M  V30 5215 H 484.025 -5.60833 1.75328 0
M  V30 5216 H 485.549 -6.0356 0.924516 0
M  V30 5217 H 486.963 -4.93777 2.91303 0
M  V30 5218 H 485.36 -4.74076 3.67929 0
M  V30 5219 H 486.43 -3.33636 3.51873 0
M  V30 5220 N 487.773 -1.03688 -1.18687 0
M  V30 5221 C 488.72 -0.624624 -2.22187 0
M  V30 5222 C 489.69 0.365636 -1.62026 0
M  V30 5223 O 490.875 0.260481 -1.89014 0
M  V30 5224 C 488.015 0.0101738 -3.45099 0
M  V30 5225 C 487.128 -1.02709 -4.19613 0
M  V30 5226 C 486.263 -0.361213 -5.2997 0
M  V30 5227 C 485.302 -1.38384 -5.96252 0
M  V30 5228 N 484.439 -0.743196 -6.98155 0
M  V30 5229 H 489.279 -1.51176 -2.56807 0
M  V30 5230 H 486.816 -0.75636 -1.26165 0
M  V30 5231 H 488.774 0.395528 -4.15321 0
M  V30 5232 H 487.404 0.860848 -3.1111 0
M  V30 5233 H 486.456 -1.53043 -3.48256 0
M  V30 5234 H 487.768 -1.80398 -4.65036 0
M  V30 5235 H 486.922 0.0785537 -6.06649 0
M  V30 5236 H 485.661 0.447799 -4.8564 0
M  V30 5237 H 484.666 -1.83378 -5.18317 0
M  V30 5238 H 485.891 -2.19448 -6.42666 0
M  V30 5239 H 483.837 0.0455789 -6.55984 0
M  V30 5240 H 483.754 -1.45784 -7.41811 0
M  V30 5241 H 485.022 -0.327698 -7.78811 0
M  V30 5242 N 489.251 1.34841 -0.815825 0
M  V30 5243 C 490.199 2.31549 -0.220888 0
M  V30 5244 C 491.193 1.5707 0.634457 0
M  V30 5245 O 492.399 1.72125 0.526589 0
M  V30 5246 H 488.774 0.750153 -0.0526782 0
M  V30 5247 H 490.745 2.7926 -1.05149 0
M  V30 5248 C 489.494 3.42335 0.608427 0
M  V30 5249 H 488.817 3.9978 -0.0404121 0
M  V30 5250 H 490.257 4.12258 0.990931 0
M  V30 5251 C 488.716 2.86173 1.77782 0
M  V30 5252 O 489.246 2.80474 2.87571 0
M  V30 5253 N 487.452 2.43093 1.59229 0
M  V30 5254 H 486.999 2.47928 0.699237 0
M  V30 5255 H 486.957 2.05866 2.37627 0
M  V30 5256 N 490.729 0.570148 1.46925 0
M  V30 5257 C 491.677 -0.183181 2.31878 0
M  V30 5258 C 492.671 -0.896721 1.43719 0
M  V30 5259 O 493.877 -0.816536 1.60414 0
M  V30 5260 H 490.252 -0.077944 0.74795 0
M  V30 5261 H 492.223 0.552312 2.93244 0
M  V30 5262 C 490.972 -1.19172 3.2664 0
M  V30 5263 H 490.295 -0.652088 3.94446 0
M  V30 5264 H 491.735 -1.68946 3.88887 0
M  V30 5265 C 490.194 -2.24627 2.51086 0
M  V30 5266 O 490.724 -3.31773 2.26472 0
M  V30 5267 N 488.93 -1.98898 2.11867 0
M  V30 5268 H 488.477 -1.11777 2.32086 0
M  V30 5269 H 488.435 -2.6967 1.61634 0
M  V30 5270 N 492.207 -1.54576 0.307264 0
M  V30 5271 C 493.137 -2.26708 -0.55907 0
M  V30 5272 C 494.118 -1.26893 -1.1328 0
M  V30 5273 O 495.303 -1.55677 -1.16097 0
M  V30 5274 C 492.433 -3.01259 -1.72801 0
M  V30 5275 C 491.387 -4.08275 -1.28435 0
M  V30 5276 C 490.713 -4.70575 -2.53895 0
M  V30 5277 C 492.013 -5.2068 -0.411038 0
M  V30 5278 H 493.707 -2.9937 0.042576 0
M  V30 5279 H 491.253 -1.43983 0.0219173 0
M  V30 5280 H 493.206 -3.50444 -2.34023 0
M  V30 5281 H 491.93 -2.26187 -2.356 0
M  V30 5282 H 490.589 -3.59949 -0.695161 0
M  V30 5283 H 490.237 -3.92136 -3.15021 0
M  V30 5284 H 489.937 -5.42854 -2.24908 0
M  V30 5285 H 491.461 -5.22527 -3.15908 0
M  V30 5286 H 492.875 -5.65721 -0.929097 0
M  V30 5287 H 491.272 -5.99716 -0.214664 0
M  V30 5288 H 492.342 -4.81629 0.562287 0
M  V30 5289 N 493.685 -0.035106 -1.57561 0
M  V30 5290 C 494.913 0.652258 -1.9635 0
M  V30 5291 C 495.328 1.65317 -0.911897 0
M  V30 5292 O 494.685 1.82194 0.105657 0
M  V30 5293 C 494.736 1.35337 -3.35211 0
M  V30 5294 O 494.457 0.392548 -4.36338 0
M  V30 5295 C 495.958 2.13199 -3.88666 0
M  V30 5296 H 493.178 0.179444 -0.646561 0
M  V30 5297 H 495.722 -0.0966459 -2.04271 0
M  V30 5298 H 493.877 2.05362 -3.28489 0
M  V30 5299 H 494.291 0.891097 -5.16875 0
M  V30 5300 H 495.765 2.577 -4.88154 0
M  V30 5301 H 496.242 2.97353 -3.23231 0
M  V30 5302 H 496.848 1.48118 -3.98674 0
M  V30 5303 N 495.163 1.55791 0.238111 0
M  V30 5304 C 496.126 1.90239 1.27835 0
M  V30 5305 C 497.126 0.779552 1.4064 0
M  V30 5306 O 498.316 1.04747 1.3919 0
M  V30 5307 C 495.448 2.13859 2.65475 0
M  V30 5308 H 496.641 2.83262 0.985034 0
M  V30 5309 H 494.194 1.48818 0.477799 0
M  V30 5310 H 494.929 1.23334 2.99932 0
M  V30 5311 H 494.714 2.95643 2.57561 0
M  V30 5312 H 496.204 2.41664 3.40571 0
M  V30 5313 N 496.642 -0.504142 1.49319 0
M  V30 5314 C 497.882 -1.26867 1.60263 0
M  V30 5315 C 498.246 -1.89924 0.281578 0
M  V30 5316 O 499.447 -2.67479 0.266176 0
M  V30 5317 C 497.718 -2.30956 2.72753 0
M  V30 5318 S 499.277 -3.1679 3.03628 0
M  V30 5319 H 496.095 -0.431198 0.565322 0
M  V30 5320 H 498.697 -0.571407 1.86963 0
M  V30 5321 H 497.401 -1.83156 3.67263 0
M  V30 5322 H 496.932 -3.05356 2.48035 0
M  V30 5323 H 498.947 -4.31549 2.44908 0
M  V30 5324 N 498.12 -1.38341 -0.754957 0
M  V30 5325 C 499.369 -1.33791 -1.5094 0
M  V30 5326 C 499.682 0.0699267 -1.95475 0
M  V30 5327 O 500.888 0.237956 -2.70455 0
M  V30 5328 C 499.344 -2.34934 -2.72643 0
M  V30 5329 C 498.952 -3.81332 -2.35138 0
M  V30 5330 C 500.696 -2.39425 -3.50536 0
M  V30 5331 C 498.603 -4.74164 -3.53444 0
M  V30 5332 H 497.533 -0.497314 -0.566741 0
M  V30 5333 H 500.184 -1.63888 -0.825403 0
M  V30 5334 H 498.566 -1.97878 -3.43017 0
M  V30 5335 H 499.74 -4.27319 -1.7244 0
M  V30 5336 H 498.055 -3.79946 -1.70382 0
M  V30 5337 H 500.652 -3.0598 -4.38498 0
M  V30 5338 H 500.995 -1.41278 -3.91594 0
M  V30 5339 H 501.528 -2.75274 -2.87174 0
M  V30 5340 H 498.267 -5.73501 -3.17453 0
M  V30 5341 H 497.787 -4.3287 -4.15191 0
M  V30 5342 H 499.466 -4.92111 -4.20043 0
M  V30 5343 N 499.598 0.982988 -1.23187 0
M  V30 5344 C 500.561 2.05649 -1.01198 0
M  V30 5345 C 501.561 1.6078 0.0252464 0
M  V30 5346 O 502.751 1.72878 -0.214243 0
M  V30 5347 C 499.883 3.36744 -0.530656 0
M  V30 5348 H 501.076 2.2659 -1.96461 0
M  V30 5349 H 498.629 1.15602 -1.05195 0
M  V30 5350 H 499.364 3.21492 0.425873 0
M  V30 5351 H 499.149 3.7065 -1.2791 0
M  V30 5352 H 500.639 4.15705 -0.397366 0
M  V30 5353 N 501.076 1.04316 1.18135 0
M  V30 5354 C 502.353 0.662166 1.84051 0
M  V30 5355 C 502.733 -0.858169 1.9287 0
M  V30 5356 O 502.081 -1.76062 1.45652 0
M  V30 5357 C 502.291 1.3409 3.22212 0
M  V30 5358 C 503.639 1.4733 3.9822 0
M  V30 5359 O 504.663 1.29921 3.31661 0
M  V30 5360 O 503.522 1.75722 5.17479 0
M  V30 5361 H 500.616 0.232005 0.79379 0
M  V30 5362 H 503.162 1.1422 1.25506 0
M  V30 5363 H 501.934 2.37853 3.10711 0
M  V30 5364 H 501.557 0.849649 3.88416 0
M  V30 5365 N 502.554 -1.34406 0.822964 0
M  V30 5366 C 503.801 -1.98284 0.411057 0
M  V30 5367 C 504.129 -1.65245 -1.02588 0
M  V30 5368 O 503.384 -0.91619 -1.72929 0
M  V30 5369 C 503.683 -3.52981 0.560268 0
M  V30 5370 C 503.349 -4.05931 1.96293 0
M  V30 5371 C 502.011 -4.20103 2.34664 0
M  V30 5372 C 504.363 -4.34412 2.87985 0
M  V30 5373 C 501.691 -4.60082 3.64062 0
M  V30 5374 C 504.043 -4.75838 4.16847 0
M  V30 5375 C 502.707 -4.88215 4.55195 0
M  V30 5376 H 501.977 -0.725573 0.150416 0
M  V30 5377 H 504.624 -1.60349 1.04692 0
M  V30 5378 H 502.929 -3.91477 -0.158982 0
M  V30 5379 H 504.626 -4.00385 0.222087 0
M  V30 5380 H 501.216 -3.95363 1.65487 0
M  V30 5381 H 505.4 -4.23001 2.59584 0
M  V30 5382 H 500.656 -4.67856 3.93599 0
M  V30 5383 H 504.83 -4.96834 4.87984 0
M  V30 5384 H 502.457 -5.18952 5.55512 0
M  V30 5385 N 504.032 -0.577932 -1.46621 0
M  V30 5386 C 505.28 -0.061566 -2.02006 0
M  V30 5387 C 505.601 1.30117 -1.4524 0
M  V30 5388 O 504.871 1.85313 -0.63529 0
M  V30 5389 H 503.451 -0.0197692 -0.746738 0
M  V30 5390 H 506.113 -0.752631 -1.79782 0
M  V30 5391 H 505.209 0.0110238 -3.12098 0
M  V30 5392 N 505.51 1.54411 -0.315457 0
M  V30 5393 C 506.44 2.27002 0.547039 0
M  V30 5394 C 507.421 1.27492 1.12605 0
M  V30 5395 O 508.606 1.5629 1.15269 0
M  V30 5396 C 505.736 3.02171 1.71201 0
M  V30 5397 C 504.69 4.0895 1.26268 0
M  V30 5398 C 504.016 4.71915 2.51396 0
M  V30 5399 C 505.316 5.20891 0.383419 0
M  V30 5400 H 507.01 2.99343 -0.0584517 0
M  V30 5401 H 504.556 1.4397 -0.0295527 0
M  V30 5402 H 506.509 3.51681 2.32161 0
M  V30 5403 H 505.233 2.27433 2.34397 0
M  V30 5404 H 503.892 3.60312 0.676062 0
M  V30 5405 H 503.54 3.93801 3.12937 0
M  V30 5406 H 503.24 5.44039 2.22026 0
M  V30 5407 H 504.764 5.24195 3.13133 0
M  V30 5408 H 506.178 5.66206 0.899082 0
M  V30 5409 H 504.575 5.99821 0.182857 0
M  V30 5410 H 505.645 4.81324 -0.587821 0
M  V30 5411 N 506.988 0.0434614 1.5754 0
M  V30 5412 C 507.951 -0.918696 2.09982 0
M  V30 5413 C 508.951 -1.24488 1.01781 0
M  V30 5414 O 510.141 -1.18284 1.27885 0
M  V30 5415 C 507.273 -2.23093 2.57764 0
M  V30 5416 H 508.466 -0.464229 2.96285 0
M  V30 5417 H 506.019 -0.204818 1.54952 0
M  V30 5418 H 506.754 -2.73137 1.74832 0
M  V30 5419 H 506.539 -2.00724 3.36827 0
M  V30 5420 H 508.029 -2.92028 2.98512 0
M  V30 5421 N 508.466 -1.55915 -0.229846 0
M  V30 5422 C 509.396 -1.94754 -1.28815 0
M  V30 5423 C 510.377 -0.814657 -1.49323 0
M  V30 5424 O 511.562 -1.07631 -1.61645 0
M  V30 5425 C 508.692 -2.25705 -2.63959 0
M  V30 5426 C 507.646 -3.41406 -2.5812 0
M  V30 5427 C 506.972 -3.57941 -3.97218 0
M  V30 5428 C 508.272 -4.76616 -2.13623 0
M  V30 5429 H 509.966 -2.83404 -0.965547 0
M  V30 5430 H 507.512 -1.36353 -0.463028 0
M  V30 5431 H 509.465 -2.51467 -3.38146 0
M  V30 5432 H 508.189 -1.339 -2.9789 0
M  V30 5433 H 506.848 -3.1568 -1.86391 0
M  V30 5434 H 506.496 -2.63526 -4.28443 0
M  V30 5435 H 506.196 -4.35757 -3.94195 0
M  V30 5436 H 507.72 -3.86042 -4.73079 0
M  V30 5437 H 509.134 -5.01637 -2.77549 0
M  V30 5438 H 507.531 -5.57655 -2.21677 0
M  V30 5439 H 508.601 -4.7253 -1.08829 0
M  V30 5440 N 509.944 0.496216 -1.49584 0
M  V30 5441 C 510.891 1.59722 -1.66606 0
M  V30 5442 C 511.861 1.58158 -0.507477 0
M  V30 5443 O 513.046 1.76072 -0.735076 0
M  V30 5444 C 510.186 2.97844 -1.74308 0
M  V30 5445 C 509.299 3.09388 -3.01502 0
M  V30 5446 C 508.434 4.38271 -3.00153 0
M  V30 5447 C 507.473 4.43466 -4.21906 0
M  V30 5448 N 506.61 5.63784 -4.1844 0
M  V30 5449 H 511.45 1.44515 -2.60613 0
M  V30 5450 H 508.987 0.703048 -1.29212 0
M  V30 5451 H 510.945 3.77907 -1.76754 0
M  V30 5452 H 509.575 3.11743 -0.837619 0
M  V30 5453 H 508.627 2.22357 -3.08645 0
M  V30 5454 H 509.939 3.09085 -3.91494 0
M  V30 5455 H 509.093 5.2666 -3.01188 0
M  V30 5456 H 507.832 4.41146 -2.07947 0
M  V30 5457 H 506.837 3.53478 -4.21109 0
M  V30 5458 H 508.062 4.42303 -5.1531 0
M  V30 5459 H 506.008 5.67491 -3.29074 0
M  V30 5460 H 505.925 5.65118 -5.02173 0
M  V30 5461 H 507.193 6.54367 -4.23585 0
M  V30 5462 N 511.423 1.38739 0.74761 0
M  V30 5463 C 512.67 1.35274 1.50689 0
M  V30 5464 C 512.998 -0.0553359 1.94421 0
M  V30 5465 O 512.253 -1.03365 1.66175 0
M  V30 5466 C 512.552 2.25992 2.7688 0
M  V30 5467 C 512.218 3.73854 2.5208 0
M  V30 5468 C 510.88 4.14145 2.45025 0
M  V30 5469 C 513.232 4.67427 2.30568 0
M  V30 5470 C 510.56 5.4609 2.14483 0
M  V30 5471 C 512.912 5.99635 2.01545 0
M  V30 5472 C 511.576 6.39004 1.92951 0
M  V30 5473 H 510.846 0.495003 0.55141 0
M  V30 5474 H 513.493 1.71145 0.859158 0
M  V30 5475 H 511.798 1.83196 3.46333 0
M  V30 5476 H 513.495 2.20611 3.34861 0
M  V30 5477 H 510.085 3.41913 2.58444 0
M  V30 5478 H 514.269 4.3714 2.34994 0
M  V30 5479 H 509.525 5.75528 2.06342 0
M  V30 5480 H 513.699 6.71678 1.83906 0
M  V30 5481 H 511.326 7.41165 1.6905 0
M  V30 5482 N 512.901 -0.976442 1.23707 0
M  V30 5483 C 513.811 -2.10359 1.03856 0
M  V30 5484 C 514.827 -1.73991 -0.0180919 0
M  V30 5485 O 516.003 -2.0061 0.178211 0
M  V30 5486 C 513.068 -3.40809 0.636387 0
M  V30 5487 C 512.129 -3.91179 1.76854 0
M  V30 5488 C 511.362 -5.15404 1.38546 0
M  V30 5489 O 511.585 -5.69754 0.27142 0
M  V30 5490 O 510.519 -5.5994 2.20797 0
M  V30 5491 H 514.345 -2.29997 1.98331 0
M  V30 5492 H 511.93 -1.08742 1.02448 0
M  V30 5493 H 513.812 -4.19269 0.423223 0
M  V30 5494 H 512.487 -3.22493 -0.279322 0
M  V30 5495 H 511.394 -3.13819 2.03638 0
M  V30 5496 H 512.727 -4.13958 2.6627 0
M  V30 5497 N 514.379 -1.04941 -1.1758 0
M  V30 5498 C 515.342 -0.652456 -2.19717 0
M  V30 5499 C 516.342 0.294745 -1.58076 0
M  V30 5500 O 517.532 0.0789579 -1.74021 0
M  V30 5501 C 514.664 0.0420712 -3.40874 0
M  V30 5502 H 515.857 -1.55642 -2.5635 0
M  V30 5503 H 513.41 -0.842995 -1.31618 0
M  V30 5504 H 514.145 0.95943 -3.09783 0
M  V30 5505 H 513.93 -0.638844 -3.86861 0
M  V30 5506 H 515.42 0.306 -4.16477 0
M  V30 5507 N 515.857 1.33968 -0.830081 0
M  V30 5508 C 517.105 1.97672 -0.420734 0
M  V30 5509 C 517.426 1.66111 1.02138 0
M  V30 5510 O 516.696 0.955503 1.71017 0
M  V30 5511 H 515.276 0.73125 -0.152587 0
M  V30 5512 H 517.938 1.63483 -1.0611 0
M  V30 5513 H 517.034 3.07294 -0.545588 0
M  V30 5514 N 517.335 0.585699 1.46312 0
M  V30 5515 C 518.282 -0.145835 2.30339 0
M  V30 5516 C 519.252 -0.881215 1.40797 0
M  V30 5517 O 520.437 -0.871293 1.69744 0
M  V30 5518 C 517.577 -1.15161 3.25318 0
M  V30 5519 C 516.69 -0.419367 4.2996 0
M  V30 5520 C 515.825 -1.41293 5.12064 0
M  V30 5521 C 514.864 -0.667261 6.08452 0
M  V30 5522 N 514.001 -1.60903 6.83414 0
M  V30 5523 H 518.841 0.576755 2.92365 0
M  V30 5524 H 516.378 0.296237 1.44086 0
M  V30 5525 H 518.336 -1.74763 3.78832 0
M  V30 5526 H 516.966 -1.84188 2.65094 0
M  V30 5527 H 516.018 0.291751 3.7928 0
M  V30 5528 H 517.33 0.163433 4.98532 0
M  V30 5529 H 516.484 -2.08167 5.6987 0
M  V30 5530 H 515.223 -2.02966 4.43459 0
M  V30 5531 H 514.228 0.0152356 5.49798 0
M  V30 5532 H 515.453 -0.0558817 6.79077 0
M  V30 5533 H 513.399 -2.21381 6.17516 0
M  V30 5534 H 513.316 -1.07911 7.48259 0
M  V30 5535 H 514.584 -2.26802 7.45775 0
M  V30 5536 N 518.813 -1.54241 0.323641 0
M  V30 5537 C 520.038 -2.05452 -0.283605 0
M  V30 5538 C 520.463 -1.19823 -1.44997 0
M  V30 5539 O 519.821 -0.207358 -1.8011 0
M  V30 5540 C 519.869 -3.53823 -0.695795 0
M  V30 5541 O 518.973 -3.71134 -1.79815 0
M  V30 5542 H 518.314 -0.662024 -0.0511917 0
M  V30 5543 H 520.844 -1.99079 0.472073 0
M  V30 5544 H 520.854 -3.96094 -0.978434 0
M  V30 5545 H 519.529 -4.15602 0.157287 0
M  V30 5546 H 518.106 -3.40768 -1.51431 0
M  V30 5547 N 520.291 -0.0518155 -1.57515 0
M  V30 5548 C 521.254 0.907547 -2.10467 0
M  V30 5549 C 522.254 1.23947 -1.02439 0
M  V30 5550 O 523.444 1.17604 -1.2851 0
M  V30 5551 C 520.576 2.21723 -2.58944 0
M  V30 5552 H 521.769 0.44851 -2.96527 0
M  V30 5553 H 519.322 0.196598 -1.55059 0
M  V30 5554 H 520.057 2.72206 -1.76279 0
M  V30 5555 H 519.842 1.98935 -3.37886 0
M  V30 5556 H 521.332 2.90441 -3.00056 0
M  V30 5557 N 521.769 1.56035 0.221574 0
M  V30 5558 C 523.017 1.78693 0.944102 0
M  V30 5559 C 523.338 0.620317 1.8487 0
M  V30 5560 O 522.608 -0.362784 1.92512 0
M  V30 5561 H 521.188 0.659082 0.351597 0
M  V30 5562 H 523.85 1.93497 0.233435 0
M  V30 5563 H 522.946 2.70837 1.55093 0
M  V30 5564 N 523.247 -0.488276 1.49845 0
M  V30 5565 C 524.524 -1.24959 1.50481 0
M  V30 5566 C 524.904 -2.09735 0.239698 0
M  V30 5567 O 524.252 -2.14865 -0.777524 0
M  V30 5568 C 524.462 -2.0954 2.79095 0
M  V30 5569 C 525.81 -2.68305 3.29086 0
M  V30 5570 O 526.834 -2.19797 2.80299 0
M  V30 5571 O 525.693 -3.56643 4.14087 0
M  V30 5572 H 522.787 -0.566133 0.602845 0
M  V30 5573 H 525.333 -0.501504 1.6212 0
M  V30 5574 H 524.105 -1.46958 3.62656 0
M  V30 5575 H 523.728 -2.91517 2.70377 0
M  V30 5576 N 524.725 -1.39134 -0.740242 0
M  V30 5577 C 525.953 -1.39334 -1.5295 0
M  V30 5578 C 526.368 0.0135008 -1.88795 0
M  V30 5579 O 525.725 0.983524 -1.5373 0
M  V30 5580 C 525.776 -2.2614 -2.82034 0
M  V30 5581 O 525.497 -3.61345 -2.47712 0
M  V30 5582 C 526.998 -2.34666 -3.76094 0
M  V30 5583 H 524.218 -0.476103 -0.472828 0
M  V30 5584 H 526.762 -1.82883 -0.9151 0
M  V30 5585 H 524.917 -1.86018 -3.39818 0
M  V30 5586 H 525.331 -4.07194 -3.30595 0
M  V30 5587 H 526.805 -2.99663 -4.63579 0
M  V30 5588 H 527.282 -1.36426 -4.17474 0
M  V30 5589 H 527.888 -2.75236 -3.2423 0
M  V30 5590 N 526.204 0.969867 -1.24223 0
M  V30 5591 C 527.154 2.04913 -0.999732 0
M  V30 5592 C 528.138 1.60795 0.0580636 0
M  V30 5593 O 529.33 1.76317 -0.155392 0
M  V30 5594 C 526.459 3.37942 -0.604154 0
M  V30 5595 C 525.545 3.88628 -1.69791 0
M  V30 5596 N 525.936 4.12274 -2.93025 0
M  V30 5597 C 524.234 4.17268 -1.57492 0
M  V30 5598 C 524.935 4.53808 -3.63914 0
M  V30 5599 N 523.911 4.58855 -2.91468 0
M  V30 5600 H 527.713 2.21168 -1.93551 0
M  V30 5601 H 525.227 1.15349 -1.14317 0
M  V30 5602 H 527.224 4.14863 -0.411665 0
M  V30 5603 H 525.884 3.23075 0.324465 0
M  V30 5604 H 526.895 3.99789 -3.29225 0
M  V30 5605 H 523.572 4.11346 -0.714175 0
M  V30 5606 H 524.962 4.80534 -4.69614 0
M  V30 5607 N 527.682 1.05563 1.17022 0
M  V30 5608 C 528.93 0.76642 1.87004 0
M  V30 5609 C 529.251 -0.708854 1.8166 0
M  V30 5610 O 528.521 -1.51242 1.2451 0
M  V30 5611 H 527.101 0.280516 0.692329 0
M  V30 5612 H 529.763 1.33557 1.41945 0
M  V30 5613 H 528.859 1.08472 2.92644 0
M  V30 5614 N 529.16 -1.33526 0.837174 0
M  V30 5615 C 530.092 -2.28077 0.226579 0
M  V30 5616 C 531.105 -1.51666 -0.591717 0
M  V30 5617 O 532.294 -1.73511 -0.419064 0
M  V30 5618 C 529.394 -3.31597 -0.69978 0
M  V30 5619 C 528.567 -4.37329 0.0788067 0
M  V30 5620 C 527.626 -5.20526 -0.770637 0
M  V30 5621 O 526.652 -5.68811 -0.210453 0
M  V30 5622 N 527.854 -5.41639 -2.08825 0
M  V30 5623 H 530.619 -2.81115 1.03897 0
M  V30 5624 H 528.18 -1.46201 0.695476 0
M  V30 5625 H 530.172 -3.84158 -1.27298 0
M  V30 5626 H 528.742 -2.78848 -1.41288 0
M  V30 5627 H 527.962 -3.8529 0.833381 0
M  V30 5628 H 529.25 -5.05079 0.614238 0
M  V30 5629 H 528.648 -5.04108 -2.56693 0
M  V30 5630 H 527.205 -5.97263 -2.60998 0
M  V30 5631 N 530.638 -0.59345 -1.46 0
M  V30 5632 C 531.884 -0.0832754 -2.02629 0
M  V30 5633 C 532.217 1.27749 -1.46266 0
M  V30 5634 O 531.492 1.8395 -0.631866 0
M  V30 5635 C 531.775 -0.0290756 -3.60088 0
M  V30 5636 C 531.628 -1.41951 -4.26814 0
M  V30 5637 C 532.947 0.666055 -4.35031 0
M  V30 5638 H 530.066 -0.031736 -0.736316 0
M  V30 5639 H 532.708 -0.762711 -1.74019 0
M  V30 5640 H 530.858 0.549532 -3.84594 0
M  V30 5641 H 532.53 -2.04411 -4.13538 0
M  V30 5642 H 530.773 -1.98422 -3.8576 0
M  V30 5643 H 531.444 -1.33395 -5.3564 0
M  V30 5644 H 533.92 0.174401 -4.15734 0
M  V30 5645 H 532.796 0.673041 -5.44758 0
M  V30 5646 H 533.057 1.72946 -4.06869 0
M  V30 5647 N 532.116 1.54067 -0.331816 0
M  V30 5648 C 533.364 2.00319 0.267739 0
M  V30 5649 C 533.685 1.22148 1.52003 0
M  V30 5650 O 532.955 0.325494 1.93177 0
M  V30 5651 H 531.535 0.740014 0.101922 0
M  V30 5652 H 534.197 1.89628 -0.450267 0
M  V30 5653 H 533.293 3.07765 0.518385 0
M  V30 5654 N 533.594 0.0601682 1.57485 0
M  V30 5655 C 534.822 -0.620937 1.97363 0
M  V30 5656 C 535.237 -1.63846 0.938082 0
M  V30 5657 O 534.594 -1.82339 -0.0766578 0
M  V30 5658 C 534.645 -1.29987 3.37321 0
M  V30 5659 O 534.366 -0.323081 4.36907 0
M  V30 5660 C 535.867 -2.06989 3.92008 0
M  V30 5661 H 533.087 -0.169135 0.649334 0
M  V30 5662 H 535.631 0.129132 2.04092 0
M  V30 5663 H 533.786 -2.0011 3.31715 0
M  V30 5664 H 534.2 -0.808754 5.18227 0
M  V30 5665 H 535.674 -2.49901 4.92192 0
M  V30 5666 H 536.151 -2.92173 3.2792 0
M  V30 5667 H 536.757 -1.41757 4.0098 0
M  V30 5668 N 535.072 -1.5615 -0.213296 0
M  V30 5669 C 536.488 -1.49327 -0.56336 0
M  V30 5670 C 536.688 -0.756826 -1.86747 0
M  V30 5671 O 535.744 -0.299866 -2.50713 0
M  V30 5672 C 537.057 -2.9392 -0.634944 0
M  V30 5673 C 538.605 -3.04487 -0.725013 0
M  V30 5674 C 539.08 -4.50456 -0.82787 0
M  V30 5675 N 540.571 -4.54533 -0.891876 0
M  V30 5676 C 541.306 -5.64766 -0.991315 0
M  V30 5677 N 540.802 -6.84733 -1.05419 0
M  V30 5678 N 542.595 -5.52637 -1.02709 0
M  V30 5679 H 534.746 -2.02453 0.642366 0
M  V30 5680 H 537.009 -0.920548 0.226487 0
M  V30 5681 H 536.715 -3.50783 0.253859 0
M  V30 5682 H 536.589 -3.46274 -1.49579 0
M  V30 5683 H 538.976 -2.47685 -1.60425 0
M  V30 5684 H 539.057 -2.55289 0.161669 0
M  V30 5685 H 538.701 -5.07878 0.0469464 0
M  V30 5686 H 538.631 -4.97369 -1.73009 0
M  V30 5687 H 541.122 -3.68141 -0.85327 0
M  V30 5688 H 541.435 -7.64493 -1.13007 0
M  V30 5689 H 539.78 -6.87427 -1.02318 0
M  V30 5690 H 542.971 -4.5784 -0.974687 0
M  V30 5691 H 543.144 -6.38576 -1.10113 0
M  V30 5692 N 536.55 0.480323 -1.50102 0
M  V30 5693 C 537.966 0.813295 -1.37323 0
M  V30 5694 C 538.166 1.97027 -0.422206 0
M  V30 5695 O 537.222 2.5212 0.138563 0
M  V30 5696 C 538.535 1.13404 -2.78496 0
M  V30 5697 C 540.083 1.24104 -2.87345 0
M  V30 5698 C 540.558 1.59497 -4.29331 0
M  V30 5699 N 542.049 1.66507 -4.32238 0
M  V30 5700 C 542.784 1.95378 -5.39087 0
M  V30 5701 N 542.28 2.22333 -6.56155 0
M  V30 5702 N 544.073 1.96803 -5.26522 0
M  V30 5703 H 536.224 -0.282291 -2.10516 0
M  V30 5704 H 538.487 -0.063752 -0.945854 0
M  V30 5705 H 538.193 0.357064 -3.49883 0
M  V30 5706 H 538.067 2.07251 -3.15162 0
M  V30 5707 H 540.454 2.00871 -2.16183 0
M  V30 5708 H 540.535 0.282593 -2.54234 0
M  V30 5709 H 540.179 0.832736 -5.01027 0
M  V30 5710 H 540.109 2.56477 -4.59921 0
M  V30 5711 H 542.6 1.47753 -3.47818 0
M  V30 5712 H 542.913 2.43611 -7.33399 0
M  V30 5713 H 541.258 2.19745 -6.59346 0
M  V30 5714 H 544.449 1.75235 -4.34062 0
M  V30 5715 H 544.622 2.18969 -6.09883 0
M  V30 5716 N 538.028 1.39524 0.732853 0
M  V30 5717 C 539.258 1.3994 1.51988 0
M  V30 5718 C 539.666 -0.00727973 1.89199 0
M  V30 5719 O 539.009 -0.989521 1.54771 0
M  V30 5720 C 539.071 2.21026 2.83527 0
M  V30 5721 C 538.735 3.69633 2.68738 0
M  V30 5722 C 539.732 4.62665 2.37143 0
M  V30 5723 C 537.417 4.13244 2.85542 0
M  V30 5724 C 539.411 5.97291 2.22536 0
M  V30 5725 C 537.098 5.47945 2.70554 0
M  V30 5726 C 538.096 6.39783 2.39097 0
M  V30 5727 O 537.784 7.72002 2.24204 0
M  V30 5728 H 537.516 0.479795 0.476206 0
M  V30 5729 H 540.07 1.8399 0.913054 0
M  V30 5730 H 538.3 1.71728 3.46477 0
M  V30 5731 H 539.989 2.13594 3.45156 0
M  V30 5732 H 540.755 4.30272 2.2381 0
M  V30 5733 H 536.634 3.42094 3.09019 0
M  V30 5734 H 540.178 6.68939 1.97905 0
M  V30 5735 H 536.075 5.79928 2.83466 0
M  V30 5736 H 536.843 7.8275 2.39258 0
M  V30 5737 N 539.506 -0.963266 1.24736 0
M  V30 5738 C 540.439 -2.05758 0.986852 0
M  V30 5739 C 541.417 -1.62398 -0.0809272 0
M  V30 5740 O 542.601 -1.88414 0.0569347 0
M  V30 5741 C 539.728 -3.35135 0.490095 0
M  V30 5742 C 538.774 -3.97451 1.54709 0
M  V30 5743 S 539.607 -4.34519 3.12976 0
M  V30 5744 C 540.763 -5.67026 2.65014 0
M  V30 5745 H 540.996 -2.27539 1.91346 0
M  V30 5746 H 538.529 -1.10176 1.08169 0
M  V30 5747 H 540.487 -4.09962 0.21012 0
M  V30 5748 H 539.148 -3.11335 -0.415873 0
M  V30 5749 H 538.341 -4.90704 1.15003 0
M  V30 5750 H 537.943 -3.29071 1.77731 0
M  V30 5751 H 540.235 -6.44748 2.08102 0
M  V30 5752 H 541.178 -6.11594 3.56873 0
M  V30 5753 H 541.586 -5.25847 2.05294 0
M  V30 5754 N 540.985 -1.06182 -1.16461 0
M  V30 5755 C 541.948 -0.675723 -2.19013 0
M  V30 5756 C 542.948 0.277963 -1.58379 0
M  V30 5757 O 544.138 0.0604962 -1.74095 0
M  V30 5758 C 541.27 0.00591459 -3.40899 0
M  V30 5759 H 542.463 -1.58353 -2.54685 0
M  V30 5760 H 540.016 -0.856908 -1.30716 0
M  V30 5761 H 540.751 0.92652 -3.10783 0
M  V30 5762 H 540.536 -0.67984 -3.86161 0
M  V30 5763 H 542.026 0.26181 -4.16778 0
M  V30 5764 N 542.463 1.3308 -0.844243 0
M  V30 5765 C 543.874 1.7992 -0.498566 0
M  V30 5766 C 544.225 1.69808 0.982834 0
M  V30 5767 O 543.35 1.25051 1.7661 0
M  V30 5768 C 543.945 3.26677 -0.898204 0
M  V30 5769 C 542.504 3.71513 -0.604583 0
M  V30 5770 C 541.651 2.54393 -1.10362 0
M  V30 5771 H 544.602 1.20526 -1.03244 0
M  V30 5772 H 544.623 3.79918 -0.21039 0
M  V30 5773 H 544.135 3.34004 -1.97643 0
M  V30 5774 H 542.236 3.69708 0.46335 0
M  V30 5775 H 542.349 4.64755 -1.16358 0
M  V30 5776 H 540.713 2.49246 -0.524273 0
M  V30 5777 H 541.496 2.6448 -2.18873 0
M  V30 5778 N 543.941 0.601185 1.45683 0
M  V30 5779 C 544.851 -0.123395 2.34275 0
M  V30 5780 C 545.867 -0.86702 1.5086 0
M  V30 5781 O 547.043 -0.826049 1.8368 0
M  V30 5782 C 544.108 -1.11237 3.2837 0
M  V30 5783 C 543.169 -0.371405 4.2769 0
M  V30 5784 C 542.402 -1.31327 5.1729 0
M  V30 5785 O 542.625 -2.55078 5.10188 0
M  V30 5786 O 541.559 -0.813811 5.96373 0
M  V30 5787 H 545.385 0.604483 2.97623 0
M  V30 5788 H 542.97 0.361477 1.44961 0
M  V30 5789 H 544.852 -1.68214 3.8637 0
M  V30 5790 H 543.527 -1.82139 2.67595 0
M  V30 5791 H 542.434 0.24067 3.73325 0
M  V30 5792 H 543.767 0.296998 4.91303 0
M  V30 5793 N 545.419 -1.53889 0.339982 0
M  V30 5794 C 546.665 -2.01152 -0.258003 0
M  V30 5795 C 546.998 -1.22749 -1.50487 0
M  V30 5796 O 546.273 -0.314156 -1.91946 0
M  V30 5797 C 546.556 -3.55468 -0.575717 0
M  V30 5798 C 546.409 -4.44584 0.682996 0
M  V30 5799 C 547.728 -4.1768 -1.38677 0
M  V30 5800 H 544.847 -0.731198 -0.0922992 0
M  V30 5801 H 547.489 -1.84352 0.459814 0
M  V30 5802 H 545.639 -3.69914 -1.18725 0
M  V30 5803 H 547.311 -4.41981 1.32102 0
M  V30 5804 H 545.554 -4.13592 1.3086 0
M  V30 5805 H 546.225 -5.5043 0.416001 0
M  V30 5806 H 548.701 -4.0691 -0.869705 0
M  V30 5807 H 547.577 -5.25734 -1.57783 0
M  V30 5808 H 547.838 -3.72069 -2.38782 0
M  V30 5809 N 546.897 -0.0685191 -1.57451 0
M  V30 5810 C 547.827 0.89747 -2.15564 0
M  V30 5811 C 548.808 1.31266 -1.08181 0
M  V30 5812 O 549.993 1.38429 -1.36202 0
M  V30 5813 C 547.123 2.16623 -2.71463 0
M  V30 5814 C 546.077 1.89054 -3.83982 0
M  V30 5815 C 545.403 3.22532 -4.26471 0
M  V30 5816 C 546.703 1.1984 -5.08366 0
M  V30 5817 H 548.397 0.413373 -2.96533 0
M  V30 5818 H 545.943 0.197391 -1.42641 0
M  V30 5819 H 547.896 2.84614 -3.10761 0
M  V30 5820 H 546.62 2.67269 -1.8771 0
M  V30 5821 H 545.279 1.23469 -3.45183 0
M  V30 5822 H 544.927 3.71013 -3.39644 0
M  V30 5823 H 544.627 3.04879 -5.02317 0
M  V30 5824 H 546.151 3.91727 -4.68383 0
M  V30 5825 H 547.565 1.77896 -5.45001 0
M  V30 5826 H 545.962 1.12456 -5.89469 0
M  V30 5827 H 547.032 0.176996 -4.84577 0
M  V30 5828 N 548.375 1.56261 0.205012 0
M  V30 5829 C 549.285 1.96944 1.27476 0
M  V30 5830 C 550.301 0.875636 1.50362 0
M  V30 5831 O 551.477 1.18058 1.6317 0
M  V30 5832 C 548.542 2.29219 2.60115 0
M  V30 5833 C 547.603 3.52255 2.45387 0
M  V30 5834 C 546.836 3.8298 3.71701 0
M  V30 5835 O 547.059 3.15138 4.75441 0
M  V30 5836 O 545.993 4.76435 3.67823 0
M  V30 5837 H 549.819 2.88144 0.959527 0
M  V30 5838 H 547.404 1.43686 0.409217 0
M  V30 5839 H 549.286 2.51098 3.3842 0
M  V30 5840 H 547.961 1.4119 2.91285 0
M  V30 5841 H 546.868 3.35635 1.65227 0
M  V30 5842 H 548.201 4.40719 2.19152 0
M  V30 5843 N 549.853 -0.472356 1.50355 0
M  V30 5844 C 551.101 -1.22211 1.60962 0
M  V30 5845 C 551.422 -1.92497 0.311439 0
M  V30 5846 O 550.692 -1.8405 -0.671002 0
M  V30 5847 H 549.272 -0.454092 0.593135 0
M  V30 5848 H 551.934 -0.544977 1.87126 0
M  V30 5849 H 551.03 -1.9707 2.42012 0
M  V30 5850 N 551.331 -1.39911 -0.725443 0
M  V30 5851 C 552.294 -1.39156 -1.82121 0
M  V30 5852 C 553.294 -0.287018 -1.58218 0
M  V30 5853 O 554.484 -0.545421 -1.65441 0
M  V30 5854 C 551.616 -1.1736 -3.20062 0
M  V30 5855 H 552.809 -2.36672 -1.84191 0
M  V30 5856 H 550.362 -1.25615 -0.930079 0
M  V30 5857 H 551.097 -0.205648 -3.23647 0
M  V30 5858 H 550.882 -1.97358 -3.3881 0
M  V30 5859 H 552.372 -1.19596 -4.00108 0
M  V30 5860 N 552.809 0.956637 -1.25245 0
M  V30 5861 C 554.058 1.69537 -1.0927 0
M  V30 5862 C 554.371 1.92136 0.366503 0
M  V30 5863 O 555.577 2.63687 0.64665 0
M  V30 5864 C 554.033 3.05211 -1.9072 0
M  V30 5865 C 553.641 2.90416 -3.41119 0
M  V30 5866 C 555.385 3.82882 -1.83308 0
M  V30 5867 C 553.292 4.21468 -4.14872 0
M  V30 5868 H 552.222 0.635804 -0.405302 0
M  V30 5869 H 554.873 1.06513 -1.49423 0
M  V30 5870 H 553.255 3.69128 -1.43389 0
M  V30 5871 H 554.429 2.35444 -3.9611 0
M  V30 5872 H 552.744 2.26203 -3.49602 0
M  V30 5873 H 555.341 4.79944 -2.35706 0
M  V30 5874 H 555.684 4.0853 -0.800572 0
M  V30 5875 H 556.217 3.25711 -2.28379 0
M  V30 5876 H 552.956 4.01009 -5.18529 0
M  V30 5877 H 552.476 4.76213 -3.64665 0
M  V30 5878 H 554.155 4.90022 -4.22478 0
M  V30 5879 N 554.287 1.06798 1.15896 0
M  V30 5880 C 555.235 0.677525 2.22514 0
M  V30 5881 C 556.229 -0.308994 1.66558 0
M  V30 5882 O 557.435 -0.173308 1.79164 0
M  V30 5883 H 553.81 0.200994 0.724642 0
M  V30 5884 H 555.781 1.5865 2.52731 0
M  V30 5885 C 554.53 0.0854153 3.47595 0
M  V30 5886 H 553.853 0.835645 3.90969 0
M  V30 5887 H 555.293 -0.150199 4.23734 0
M  V30 5888 C 553.752 -1.1724 3.15843 0
M  V30 5889 O 554.282 -2.25965 3.32119 0
M  V30 5890 N 552.488 -1.07636 2.69931 0
M  V30 5891 H 552.035 -0.191559 2.56887 0
M  V30 5892 H 551.993 -1.91876 2.4906 0
M  V30 5893 N 555.766 -1.3263 0.851289 0
M  V30 5894 C 557.013 -1.97368 0.453023 0
M  V30 5895 C 557.341 -1.67384 -0.990596 0
M  V30 5896 O 556.596 -0.952665 -1.70947 0
M  V30 5897 C 556.895 -3.51713 0.635015 0
M  V30 5898 C 556.561 -4.01676 2.04859 0
M  V30 5899 C 555.223 -4.15031 2.43522 0
M  V30 5900 C 557.575 -4.28206 2.97135 0
M  V30 5901 C 554.903 -4.52257 3.73739 0
M  V30 5902 C 557.255 -4.66889 4.26846 0
M  V30 5903 C 555.919 -4.7845 4.65448 0
M  V30 5904 H 555.189 -0.722219 0.165773 0
M  V30 5905 H 557.836 -1.58092 1.0807 0
M  V30 5906 H 556.141 -3.91726 -0.0759081 0
M  V30 5907 H 557.838 -3.99823 0.306964 0
M  V30 5908 H 554.428 -3.91764 1.73836 0
M  V30 5909 H 558.612 -4.174 2.68498 0
M  V30 5910 H 553.868 -4.59402 4.03435 0
M  V30 5911 H 558.042 -4.86372 4.98413 0
M  V30 5912 H 555.669 -5.07052 5.66395 0
M  V30 5913 N 557.244 -0.608902 -1.45362 0
M  V30 5914 C 558.176 0.147318 -2.28726 0
M  V30 5915 C 559.189 0.830468 -1.40025 0
M  V30 5916 O 560.378 0.695636 -1.64387 0
M  V30 5917 C 557.478 1.22968 -3.15804 0
M  V30 5918 C 556.651 0.633391 -4.3279 0
M  V30 5919 C 555.71 1.60682 -5.01067 0
M  V30 5920 O 554.736 1.13261 -5.57818 0
M  V30 5921 N 555.938 2.94123 -5.00472 0
M  V30 5922 H 558.703 -0.568014 -2.94268 0
M  V30 5923 H 556.264 -0.448479 -1.55564 0
M  V30 5924 H 558.256 1.88072 -3.58345 0
M  V30 5925 H 556.826 1.84752 -2.52162 0
M  V30 5926 H 556.046 -0.195762 -3.93714 0
M  V30 5927 H 557.334 0.215255 -5.08344 0
M  V30 5928 H 556.732 3.3525 -4.55657 0
M  V30 5929 H 555.289 3.54646 -5.46872 0
M  V30 5930 N 558.722 1.53707 -0.348139 0
M  V30 5931 C 560.138 1.596 0.00361134 0
M  V30 5932 C 560.338 1.36394 1.4832 0
M  V30 5933 O 559.394 1.16046 2.24253 0
M  V30 5934 C 560.707 2.97512 -0.436682 0
M  V30 5935 C 562.255 3.10568 -0.389416 0
M  V30 5936 C 562.73 4.50866 -0.805249 0
M  V30 5937 N 564.221 4.56929 -0.759616 0
M  V30 5938 C 564.956 5.63643 -1.05327 0
M  V30 5939 N 564.452 6.78189 -1.41531 0
M  V30 5940 N 566.245 5.5354 -0.977207 0
M  V30 5941 H 558.396 1.67044 -1.31187 0
M  V30 5942 H 560.659 0.782559 -0.535075 0
M  V30 5943 H 560.365 3.19575 -1.46849 0
M  V30 5944 H 560.239 3.76742 0.185744 0
M  V30 5945 H 562.626 2.88226 0.633228 0
M  V30 5946 H 562.707 2.33387 -1.04711 0
M  V30 5947 H 562.351 4.73943 -1.82593 0
M  V30 5948 H 562.281 5.26452 -0.124989 0
M  V30 5949 H 564.772 3.74675 -0.49265 0
M  V30 5950 H 565.085 7.55541 -1.62411 0
M  V30 5951 H 563.43 6.79624 -1.45381 0
M  V30 5952 H 566.621 4.62932 -0.693675 0
M  V30 5953 H 566.794 6.36614 -1.2094 0
M  V30 5954 N 560.2 0.0768682 1.57412 0
M  V30 5955 C 561.477 -0.632359 1.85096 0
M  V30 5956 C 561.857 -1.87479 0.9703 0
M  V30 5957 O 561.205 -2.28469 0.0379062 0
M  V30 5958 C 561.415 -0.965174 3.35388 0
M  V30 5959 C 562.763 -1.33648 4.03018 0
M  V30 5960 O 563.787 -1.05675 3.40164 0
M  V30 5961 O 562.646 -1.85959 5.13889 0
M  V30 5962 H 559.74 -0.314574 0.764835 0
M  V30 5963 H 562.286 0.108184 1.69355 0
M  V30 5964 H 561.058 -0.0829745 3.91212 0
M  V30 5965 H 560.681 -1.76231 3.5641 0
M  V30 5966 N 561.678 -1.56367 -0.196722 0
M  V30 5967 C 562.641 -1.93561 -1.22746 0
M  V30 5968 C 563.641 -0.816566 -1.38524 0
M  V30 5969 O 564.831 -1.084 -1.36363 0
M  V30 5970 C 561.963 -2.20823 -2.59712 0
M  V30 5971 H 563.156 -2.85774 -0.909586 0
M  V30 5972 H 560.709 -1.50032 -0.438174 0
M  V30 5973 H 561.444 -1.31243 -2.96557 0
M  V30 5974 H 561.229 -3.02368 -2.49632 0
M  V30 5975 H 562.719 -2.50608 -3.34044 0
M  V30 5976 N 563.156 0.464375 -1.50603 0
M  V30 5977 C 564.403 1.21596 -1.61928 0
M  V30 5978 C 564.731 1.91804 -0.322737 0
M  V30 5979 O 563.986 1.83065 0.691776 0
M  V30 5980 C 564.285 2.278 -2.75394 0
M  V30 5981 C 563.951 1.74797 -4.1564 0
M  V30 5982 C 562.613 1.60063 -4.53799 0
M  V30 5983 C 564.965 1.35548 -5.03266 0
M  V30 5984 C 562.293 1.04514 -5.77316 0
M  V30 5985 C 564.645 0.814381 -6.27336 0
M  V30 5986 C 563.309 0.653726 -6.64291 0
M  V30 5987 H 562.579 0.444951 -0.592536 0
M  V30 5988 H 565.226 0.510964 -1.84557 0
M  V30 5989 H 563.531 3.04233 -2.46879 0
M  V30 5990 H 565.228 2.85723 -2.81359 0
M  V30 5991 H 561.818 1.87234 -3.8554 0
M  V30 5992 H 566.002 1.45763 -4.74412 0
M  V30 5993 H 561.258 0.908186 -6.04617 0
M  V30 5994 H 565.432 0.501626 -6.94591 0
M  V30 5995 H 563.059 0.22114 -7.59878 0
M  V30 5996 N 564.634 1.40294 0.718013 0
M  V30 5997 C 565.564 1.43118 1.84498 0
M  V30 5998 C 566.545 0.292403 1.67568 0
M  V30 5999 O 567.73 0.500675 1.87635 0
M  V30 6000 C 564.86 1.29065 3.22427 0
M  V30 6001 C 563.814 2.40521 3.54025 0
M  V30 6002 C 563.14 2.11546 4.91073 0
M  V30 6003 C 564.44 3.82859 3.55269 0
M  V30 6004 H 566.134 2.37432 1.82391 0
M  V30 6005 H 563.68 1.14283 0.87609 0
M  V30 6006 H 565.633 1.29658 4.00957 0
M  V30 6007 H 564.357 0.312271 3.25104 0
M  V30 6008 H 563.016 2.39173 2.77834 0
M  V30 6009 H 562.664 1.12104 4.90348 0
M  V30 6010 H 562.364 2.86216 5.1318 0
M  V30 6011 H 563.888 2.13817 5.71939 0
M  V30 6012 H 565.302 3.86044 4.23843 0
M  V30 6013 H 563.699 4.57029 3.88902 0
M  V30 6014 H 564.769 4.12617 2.54706 0
M  V30 6015 N 566.112 -0.949982 1.2575 0
M  V30 6016 C 567.528 -1.22191 1.02672 0
M  V30 6017 C 567.728 -1.99898 -0.253588 0
M  V30 6018 O 566.784 -2.33329 -0.965076 0
M  V30 6019 C 568.097 -1.99175 2.25277 0
M  V30 6020 C 569.645 -2.12201 2.30087 0
M  V30 6021 C 570.12 -2.92586 3.5236 0
M  V30 6022 N 571.611 -3.00163 3.52784 0
M  V30 6023 C 572.346 -3.62766 4.44059 0
M  V30 6024 N 571.842 -4.26943 5.45611 0
M  V30 6025 N 573.635 -3.59953 4.3173 0
M  V30 6026 H 565.786 -0.430258 2.07996 0
M  V30 6027 H 568.049 -0.252844 0.91366 0
M  V30 6028 H 567.755 -1.49479 3.18354 0
M  V30 6029 H 567.629 -2.99868 2.28821 0
M  V30 6030 H 570.016 -2.61093 1.3753 0
M  V30 6031 H 570.097 -1.10799 2.30559 0
M  V30 6032 H 569.741 -2.44383 4.45241 0
M  V30 6033 H 569.671 -3.94224 3.49134 0
M  V30 6034 H 572.162 -2.54529 2.79327 0
M  V30 6035 H 572.475 -4.72583 6.11461 0
M  V30 6036 H 570.82 -4.25557 5.49478 0
M  V30 6037 H 574.011 -3.09003 3.51617 0
M  V30 6038 H 574.184 -4.08455 5.03059 0
M  V30 6039 N 567.59 -1.07411 -1.15328 0
M  V30 6040 C 568.839 -0.792643 -1.85473 0
M  V30 6041 C 569.152 0.683789 -1.83259 0
M  V30 6042 O 570.358 1.08005 -2.49093 0
M  V30 6043 C 568.814 -1.36787 -3.32892 0
M  V30 6044 C 568.422 -2.87536 -3.43551 0
M  V30 6045 C 570.166 -1.16444 -4.08217 0
M  V30 6046 C 568.073 -3.38247 -4.85122 0
M  V30 6047 H 567.003 -0.292838 -0.694811 0
M  V30 6048 H 569.654 -1.29426 -1.30082 0
M  V30 6049 H 568.036 -0.793993 -3.87958 0
M  V30 6050 H 569.21 -3.50973 -2.98588 0
M  V30 6051 H 567.525 -3.06676 -2.81672 0
M  V30 6052 H 570.122 -1.51808 -5.12697 0
M  V30 6053 H 570.465 -0.10353 -4.16171 0
M  V30 6054 H 570.998 -1.70472 -3.59422 0
M  V30 6055 H 567.737 -4.43866 -4.82351 0
M  V30 6056 H 567.257 -2.79564 -5.30664 0
M  V30 6057 H 568.936 -3.34238 -5.5398 0
M  V30 6058 N 569.068 1.32177 -0.85831 0
M  V30 6059 C 570.345 1.91781 -0.384624 0
M  V30 6060 C 570.725 1.78171 1.13217 0
M  V30 6061 O 570.073 1.18209 1.95548 0
M  V30 6062 C 570.283 3.38414 -0.853047 0
M  V30 6063 C 571.631 4.15542 -0.872359 0
M  V30 6064 O 572.655 3.47148 -0.797926 0
M  V30 6065 O 571.514 5.37678 -0.978009 0
M  V30 6066 H 568.608 0.819259 -0.112886 0
M  V30 6067 H 571.154 1.40923 -0.945453 0
M  V30 6068 H 569.926 3.4228 -1.89632 0
M  V30 6069 H 569.549 3.96683 -0.269874 0
M  V30 6070 N 570.547 0.616602 1.45037 0
M  V30 6071 C 571.48 -0.145984 2.27733 0
M  V30 6072 C 572.458 -0.865108 1.37676 0
M  V30 6073 O 573.642 -0.872152 1.6711 0
M  V30 6074 C 570.769 -1.2122 3.16265 0
M  V30 6075 C 569.815 -0.595218 4.22326 0
M  V30 6076 S 570.648 0.603744 5.32086 0
M  V30 6077 C 571.804 -0.462842 6.24186 0
M  V30 6078 H 572.037 0.555591 2.92062 0
M  V30 6079 H 569.57 0.404364 1.49011 0
M  V30 6080 H 571.528 -1.82247 3.67827 0
M  V30 6081 H 570.189 -1.88589 2.51183 0
M  V30 6082 H 569.382 -1.39775 4.8423 0
M  V30 6083 H 568.984 -0.0598965 3.73952 0
M  V30 6084 H 571.276 -1.33945 6.64127 0
M  V30 6085 H 572.219 0.120259 7.07998 0
M  V30 6086 H 572.627 -0.782219 5.59054 0
M  V30 6087 N 572.025 -1.5352 0.356285 0
M  V30 6088 C 573.255 -2.05236 -0.236983 0
M  V30 6089 C 573.663 -1.23016 -1.43749 0
M  V30 6090 O 573.006 -0.2615 -1.81829 0
M  V30 6091 C 573.068 -3.52549 -0.7035 0
M  V30 6092 C 572.732 -4.55425 0.379059 0
M  V30 6093 C 573.729 -5.0524 1.22592 0
M  V30 6094 C 571.414 -4.99425 0.536638 0
M  V30 6095 C 573.408 -5.97647 2.21578 0
M  V30 6096 C 571.095 -5.9164 1.52988 0
M  V30 6097 C 572.093 -6.4064 2.3679 0
M  V30 6098 O 571.781 -7.31039 3.34421 0
M  V30 6099 H 571.513 -0.674346 -0.047254 0
M  V30 6100 H 574.067 -1.98962 0.510238 0
M  V30 6101 H 572.297 -3.56331 -1.50217 0
M  V30 6102 H 573.986 -3.87171 -1.21873 0
M  V30 6103 H 574.752 -4.72002 1.11532 0
M  V30 6104 H 570.631 -4.60879 -0.105834 0
M  V30 6105 H 574.175 -6.35816 2.87025 0
M  V30 6106 H 570.072 -6.24293 1.64099 0
M  V30 6107 H 570.84 -7.49009 3.30041 0
M  V30 6108 N 573.503 -0.0852151 -1.57369 0
M  V30 6109 C 574.466 0.8627 -2.12344 0
M  V30 6110 C 575.466 1.21746 -1.05046 0
M  V30 6111 O 576.656 1.14852 -1.30976 0
M  V30 6112 C 573.788 2.1618 -2.63589 0
M  V30 6113 H 574.981 0.385511 -2.97412 0
M  V30 6114 H 572.534 0.163663 -1.55441 0
M  V30 6115 H 573.269 2.68406 -1.82013 0
M  V30 6116 H 573.054 1.91723 -3.4203 0
M  V30 6117 H 574.544 2.84011 -3.06149 0
M  V30 6118 N 574.981 1.5647 0.188427 0
M  V30 6119 C 575.914 1.90146 1.26173 0
M  V30 6120 C 576.892 0.762294 1.43624 0
M  V30 6121 O 578.076 1.01395 1.58907 0
M  V30 6122 C 575.203 2.13748 2.62735 0
M  V30 6123 C 574.249 3.36448 2.62116 0
M  V30 6124 S 575.082 4.91364 2.12889 0
M  V30 6125 C 576.238 5.18041 3.51261 0
M  V30 6126 H 576.471 2.80886 0.974192 0
M  V30 6127 H 574.004 1.49335 0.392226 0
M  V30 6128 H 575.962 2.28028 3.41341 0
M  V30 6129 H 574.623 1.23747 2.88696 0
M  V30 6130 H 573.816 3.50109 3.62546 0
M  V30 6131 H 573.418 3.21196 1.91596 0
M  V30 6132 H 575.71 5.0897 4.47164 0
M  V30 6133 H 576.653 6.19764 3.42489 0
M  V30 6134 H 577.061 4.45657 3.46482 0
M  V30 6135 N 576.459 -0.456382 1.50847 0
M  V30 6136 C 577.707 -1.20497 1.62249 0
M  V30 6137 C 578.028 -1.92156 0.331839 0
M  V30 6138 O 577.298 -1.84751 -0.651443 0
M  V30 6139 H 575.878 -0.447775 0.597918 0
M  V30 6140 H 578.54 -0.525099 1.87693 0
M  V30 6141 H 577.636 -1.94492 2.44089 0
M  V30 6142 N 577.937 -1.40673 -0.710563 0
M  V30 6143 C 578.867 -1.44095 -1.83736 0
M  V30 6144 C 579.848 -0.301286 -1.67411 0
M  V30 6145 O 581.033 -0.510618 -1.87367 0
M  V30 6146 C 578.163 -1.30773 -3.21738 0
M  V30 6147 C 577.117 -2.42395 -3.52745 0
M  V30 6148 C 576.443 -2.14147 -4.89944 0
M  V30 6149 C 577.743 -3.84738 -3.53234 0
M  V30 6150 H 579.437 -2.38396 -1.81129 0
M  V30 6151 H 576.983 -1.14746 -0.870017 0
M  V30 6152 H 578.936 -1.31783 -4.00264 0
M  V30 6153 H 577.66 -0.329507 -3.24934 0
M  V30 6154 H 576.319 -2.40643 -2.76562 0
M  V30 6155 H 575.967 -1.14703 -4.89747 0
M  V30 6156 H 575.667 -2.88934 -5.11655 0
M  V30 6157 H 577.191 -2.16848 -5.70797 0
M  V30 6158 H 578.605 -3.88286 -4.2179 0
M  V30 6159 H 577.002 -4.59085 -3.86473 0
M  V30 6160 H 578.072 -4.13962 -2.52514 0
M  V30 6161 N 579.415 0.9433 -1.26252 0
M  V30 6162 C 580.661 1.69175 -1.11837 0
M  V30 6163 C 580.994 1.91238 0.337891 0
M  V30 6164 O 580.269 1.49152 1.24836 0
M  V30 6165 C 580.552 3.06783 -1.88563 0
M  V30 6166 C 580.405 2.9206 -3.42083 0
M  V30 6167 C 581.724 4.06865 -1.67776 0
M  V30 6168 H 578.843 0.61399 -0.407658 0
M  V30 6169 H 581.485 1.09572 -1.55222 0
M  V30 6170 H 579.635 3.57663 -1.51689 0
M  V30 6171 H 581.307 2.48419 -3.88698 0
M  V30 6172 H 579.55 2.27731 -3.69217 0
M  V30 6173 H 580.221 3.89651 -3.90994 0
M  V30 6174 H 582.697 3.64939 -1.99897 0
M  V30 6175 H 581.573 5.01168 -2.23879 0
M  V30 6176 H 581.834 4.37705 -0.621816 0
M  V30 6177 N 580.893 1.08022 1.14757 0
M  V30 6178 C 581.823 0.728248 2.21853 0
M  V30 6179 C 582.804 -0.287486 1.67653 0
M  V30 6180 O 583.989 -0.158727 1.9355 0
M  V30 6181 C 581.119 0.132549 3.47047 0
M  V30 6182 C 580.073 1.07619 4.14249 0
M  V30 6183 C 579.399 0.342907 5.33599 0
M  V30 6184 C 580.699 2.41268 4.63235 0
M  V30 6185 H 582.393 1.62365 2.51551 0
M  V30 6186 H 579.939 0.782125 1.20908 0
M  V30 6187 H 581.892 -0.125665 4.21213 0
M  V30 6188 H 580.616 -0.797971 3.16702 0
M  V30 6189 H 579.275 1.31944 3.42033 0
M  V30 6190 H 578.923 -0.59129 4.99513 0
M  V30 6191 H 578.623 0.971955 5.79506 0
M  V30 6192 H 580.147 0.0926538 6.1053 0
M  V30 6193 H 581.561 2.21232 5.28894 0
M  V30 6194 H 579.958 2.9983 5.19829 0
M  V30 6195 H 581.028 3.03079 3.78512 0
M  V30 6196 N 582.371 -1.3172 0.865308 0
M  V30 6197 C 583.617 -1.97559 0.483944 0
M  V30 6198 C 583.972 -1.67181 -0.95227 0
M  V30 6199 O 583.265 -0.955392 -1.66081 0
M  V30 6200 C 583.459 -3.5102 0.672283 0
M  V30 6201 C 583.288 -3.96312 2.12525 0
M  V30 6202 C 582.058 -4.22877 2.76591 0
M  V30 6203 C 584.256 -4.10596 3.09702 0
M  V30 6204 N 582.238 -4.5449 4.12689 0
M  V30 6205 C 583.609 -4.45867 4.30816 0
M  V30 6206 C 585.664 -3.92961 3.05755 0
M  V30 6207 C 584.367 -4.65344 5.48495 0
M  V30 6208 C 586.393 -4.13628 4.22688 0
M  V30 6209 C 585.755 -4.49227 5.42563 0
M  V30 6210 H 581.854 -0.74862 0.226035 0
M  V30 6211 H 584.438 -1.59336 1.11893 0
M  V30 6212 H 582.609 -3.88342 0.0669224 0
M  V30 6213 H 584.341 -4.03865 0.259765 0
M  V30 6214 H 581.096 -4.15343 2.27567 0
M  V30 6215 H 581.52 -4.74464 4.82921 0
M  V30 6216 H 586.162 -3.64531 2.14188 0
M  V30 6217 H 583.88 -4.92624 6.40584 0
M  V30 6218 H 587.466 -4.01474 4.21082 0
M  V30 6219 H 586.346 -4.64895 6.31539 0
M  V30 6220 N 583.85 -0.624285 -1.44708 0
M  V30 6221 C 584.76 0.0861083 -2.34442 0
M  V30 6222 C 585.776 0.84291 -1.5222 0
M  V30 6223 O 586.952 0.796723 -1.84971 0
M  V30 6224 C 584.017 1.05999 -3.30099 0
M  V30 6225 C 583.077 0.303316 -4.28227 0
M  V30 6226 C 582.311 1.23081 -5.19314 0
M  V30 6227 O 582.534 2.46929 -5.14181 0
M  V30 6228 O 581.468 0.71883 -5.97592 0
M  V30 6229 H 585.293 -0.651756 -2.96624 0
M  V30 6230 H 582.879 -0.384493 -1.44368 0
M  V30 6231 H 584.76 1.62046 -3.88997 0
M  V30 6232 H 583.436 1.77859 -2.70459 0
M  V30 6233 H 582.343 -0.300033 -3.72895 0
M  V30 6234 H 583.676 -0.375123 -4.90768 0
M  V30 6235 N 585.328 1.53329 -0.364422 0
M  V30 6236 C 586.258 2.28627 0.474543 0
M  V30 6237 C 587.239 1.31009 1.08492 0
M  V30 6238 O 588.424 1.59878 1.10239 0
M  V30 6239 C 585.554 3.07465 1.61501 0
M  V30 6240 C 584.508 4.1276 1.13194 0
M  V30 6241 C 583.834 4.79674 2.36255 0
M  V30 6242 C 585.134 5.21847 0.217507 0
M  V30 6243 H 586.828 2.99005 -0.153656 0
M  V30 6244 H 584.374 1.43803 -0.0753406 0
M  V30 6245 H 586.327 3.58889 2.20855 0
M  V30 6246 H 585.051 2.34775 2.27042 0
M  V30 6247 H 583.71 3.62281 0.56109 0
M  V30 6248 H 583.358 4.03557 3.00251 0
M  V30 6249 H 583.058 5.50827 2.04606 0
M  V30 6250 H 584.582 5.33892 2.96297 0
M  V30 6251 H 585.996 5.6878 0.718493 0
M  V30 6252 H 584.393 6.00099 -0.00806408 0
M  V30 6253 H 585.463 4.7921 -0.740653 0
M  V30 6254 N 586.806 0.0935595 1.57322 0
M  V30 6255 C 587.769 -0.851426 2.12799 0
M  V30 6256 C 588.769 -1.21187 1.0569 0
M  V30 6257 O 589.959 -1.14156 1.31583 0
M  V30 6258 C 587.091 -2.14779 2.64731 0
M  V30 6259 H 588.284 -0.369733 2.97612 0
M  V30 6260 H 585.837 -0.155417 1.55525 0
M  V30 6261 H 586.572 -2.67437 1.83434 0
M  V30 6262 H 586.357 -1.89907 3.43042 0
M  V30 6263 H 587.847 -2.82383 3.07651 0
M  V30 6264 N 588.284 -1.56567 -0.180126 0
M  V30 6265 C 589.509 -1.85975 -0.918041 0
M  V30 6266 C 589.934 -0.678888 -1.75422 0
M  V30 6267 O 589.292 0.372168 -1.77439 0
M  V30 6268 C 589.34 -3.13731 -1.77779 0
M  V30 6269 O 588.444 -2.95335 -2.87838 0
M  V30 6270 H 587.785 -0.61196 -0.257683 0
M  V30 6271 H 590.315 -2.03798 -0.180923 0
M  V30 6272 H 590.325 -3.4491 -2.17948 0
M  V30 6273 H 589 -3.99293 -1.16352 0
M  V30 6274 H 587.577 -2.7549 -2.51316 0
M  V30 6275 N 589.762 0.448376 -1.51087 0
M  V30 6276 C 591.178 0.783984 -1.39017 0
M  V30 6277 C 591.378 1.96087 -0.463904 0
M  V30 6278 O 590.434 2.52357 0.0850534 0
M  V30 6279 C 591.747 1.07471 -2.80839 0
M  V30 6280 C 593.295 1.17981 -2.89913 0
M  V30 6281 C 593.77 1.50354 -4.32617 0
M  V30 6282 N 595.261 1.57301 -4.35673 0
M  V30 6283 C 595.996 1.839 -5.4311 0
M  V30 6284 N 595.492 2.08365 -6.60724 0
M  V30 6285 N 597.285 1.8559 -5.30578 0
M  V30 6286 H 589.436 -0.326881 -2.0987 0
M  V30 6287 H 591.699 -0.0838006 -0.944289 0
M  V30 6288 H 591.405 0.282768 -3.50561 0
M  V30 6289 H 591.279 2.00519 -3.19487 0
M  V30 6290 H 593.666 1.9624 -2.20395 0
M  V30 6291 H 593.747 0.228603 -2.54776 0
M  V30 6292 H 593.391 0.726273 -5.0268 0
M  V30 6293 H 593.321 2.46663 -4.65258 0
M  V30 6294 H 595.812 1.40342 -3.50874 0
M  V30 6295 H 596.125 2.27999 -7.38401 0
M  V30 6296 H 594.47 2.0571 -6.63859 0
M  V30 6297 H 597.661 1.65989 -4.37682 0
M  V30 6298 H 597.834 2.05983 -6.1439 0
M  V30 6299 N 591.24 1.41047 0.703093 0
M  V30 6300 C 592.48 1.41461 1.4754 0
M  V30 6301 C 592.844 0.0199013 1.9199 0
M  V30 6302 O 594.045 -0.101138 2.6861 0
M  V30 6303 C 592.316 2.38703 2.66 0
M  V30 6304 S 593.875 2.57582 3.55242 0
M  V30 6305 H 590.693 0.501226 0.504275 0
M  V30 6306 H 593.295 1.77422 0.821074 0
M  V30 6307 H 591.999 3.3885 2.31536 0
M  V30 6308 H 591.53 2.04069 3.36333 0
M  V30 6309 H 593.545 1.83758 4.6092 0
M  V30 6310 N 592.718 -0.936591 1.26751 0
M  V30 6311 C 593.946 -1.71758 1.15355 0
M  V30 6312 C 594.361 -1.86549 -0.290683 0
M  V30 6313 O 593.718 -1.37616 -1.19868 0
M  V30 6314 C 593.769 -3.12193 1.82258 0
M  V30 6315 O 593.49 -2.98105 3.21038 0
M  V30 6316 C 594.991 -4.06485 1.76875 0
M  V30 6317 H 592.211 -0.537636 0.401483 0
M  V30 6318 H 594.755 -1.17382 1.67457 0
M  V30 6319 H 592.91 -3.63456 1.34083 0
M  V30 6320 H 593.324 -3.86824 3.54214 0
M  V30 6321 H 594.798 -5.02569 2.28316 0
M  V30 6322 H 595.275 -4.32986 0.736216 0
M  V30 6323 H 595.881 -3.61144 2.24623 0
M  V30 6324 N 594.196 -1.08629 -1.14182 0
M  V30 6325 C 595.159 -0.722027 -2.1753 0
M  V30 6326 C 596.159 0.244305 -1.58933 0
M  V30 6327 O 597.349 0.0235545 -1.74184 0
M  V30 6328 C 594.481 -0.0663966 -3.40835 0
M  V30 6329 H 595.674 -1.63719 -2.51269 0
M  V30 6330 H 593.227 -0.884442 -1.28869 0
M  V30 6331 H 593.962 0.860389 -3.12678 0
M  V30 6332 H 593.747 -0.761598 -3.84632 0
M  V30 6333 H 595.237 0.173346 -4.1724 0
M  V30 6334 N 595.674 1.31259 -0.872281 0
M  V30 6335 C 596.637 2.26744 -0.334656 0
M  V30 6336 C 597.637 1.52307 0.515681 0
M  V30 6337 O 598.827 1.71148 0.324656 0
M  V30 6338 C 595.959 3.36841 0.524482 0
M  V30 6339 H 597.152 2.75812 -1.17762 0
M  V30 6340 H 594.705 1.42232 -0.648064 0
M  V30 6341 H 595.44 2.93069 1.38855 0
M  V30 6342 H 595.225 3.92009 -0.0844299 0
M  V30 6343 H 596.715 4.07944 0.892838 0
M  V30 6344 N 597.152 0.631951 1.44375 0
M  V30 6345 C 598.429 0.067646 1.95483 0
M  V30 6346 C 598.809 -1.40683 1.57389 0
M  V30 6347 O 598.157 -2.12167 0.848375 0
M  V30 6348 C 598.367 0.291392 3.47781 0
M  V30 6349 C 599.715 0.185028 4.24197 0
M  V30 6350 O 600.739 0.222803 3.55503 0
M  V30 6351 O 599.598 0.0906642 5.46425 0
M  V30 6352 H 596.692 -0.0218379 0.826712 0
M  V30 6353 H 599.238 0.703711 1.54421 0
M  V30 6354 H 598.01 1.31449 3.68561 0
M  V30 6355 H 597.633 -0.378772 3.95792 0
M  V30 6356 N 598.631 -1.53133 0.372548 0
M  V30 6357 C 599.879 -2.00958 -0.214534 0
M  V30 6358 C 600.2 -1.26135 -1.48711 0
M  V30 6359 O 599.47 -0.376597 -1.92246 0
M  V30 6360 H 598.05 -0.742456 -0.0822664 0
M  V30 6361 H 600.712 -1.88367 0.500385 0
M  V30 6362 H 599.808 -3.09031 -0.436605 0
M  V30 6363 N 600.109 -0.101901 -1.5727 0
M  V30 6364 C 601.52 0.426173 -1.81771 0
M  V30 6365 C 601.871 1.67725 -1.01797 0
M  V30 6366 O 600.996 2.14958 -0.249386 0
M  V30 6367 C 601.591 0.779962 -3.297 0
M  V30 6368 C 600.15 1.25275 -3.54941 0
M  V30 6369 C 599.297 0.252814 -2.76145 0
M  V30 6370 H 602.248 -0.32726 -1.55289 0
M  V30 6371 H 602.269 1.63891 -3.43395 0
M  V30 6372 H 601.781 -0.130778 -3.8788 0
M  V30 6373 H 599.882 2.18097 -3.021 0
M  V30 6374 H 599.995 1.20988 -4.63572 0
M  V30 6375 H 598.359 0.736362 -2.43823 0
M  V30 6376 H 599.142 -0.650724 -3.37076 0
M  V30 6377 N 601.587 1.56661 0.17182 0
M  V30 6378 C 602.833 1.82235 0.889845 0
M  V30 6379 C 603.166 0.679673 1.81918 0
M  V30 6380 O 602.441 -0.318404 1.91876 0
M  V30 6381 C 602.724 3.18195 1.68595 0
M  V30 6382 C 602.577 4.42989 0.779773 0
M  V30 6383 C 603.896 3.5109 2.65375 0
M  V30 6384 H 601.015 0.66291 0.322056 0
M  V30 6385 H 603.657 1.89358 0.15608 0
M  V30 6386 H 601.807 3.12253 2.3115 0
M  V30 6387 H 603.479 4.60997 0.16714 0
M  V30 6388 H 601.722 4.33711 0.0877964 0
M  V30 6389 H 602.393 5.3467 1.3723 0
M  V30 6390 H 604.869 3.57482 2.12946 0
M  V30 6391 H 603.745 4.47298 3.18144 0
M  V30 6392 H 604.006 2.75768 3.45549 0
M  V30 6393 N 603.065 -0.440357 1.51323 0
M  V30 6394 C 604.342 -1.20109 1.5438 0
M  V30 6395 C 604.722 -2.08866 0.306303 0
M  V30 6396 O 604.07 -2.1723 -0.708773 0
M  V30 6397 C 604.28 -2.00555 2.8562 0
M  V30 6398 C 605.628 -2.577 3.37455 0
M  V30 6399 O 606.652 -2.10769 2.8715 0
M  V30 6400 O 605.511 -3.43289 4.25224 0
M  V30 6401 H 602.605 -0.546668 0.620551 0
M  V30 6402 H 605.151 -0.449672 1.63634 0
M  V30 6403 H 603.923 -1.35346 3.67147 0
M  V30 6404 H 603.546 -2.82768 2.79514 0
M  V30 6405 N 604.543 -1.41418 -0.695603 0
M  V30 6406 C 605.453 -1.45622 -1.83933 0
M  V30 6407 C 606.469 -0.346825 -1.70508 0
M  V30 6408 O 607.645 -0.59454 -1.92424 0
M  V30 6409 C 604.71 -1.33627 -3.19914 0
M  V30 6410 C 603.771 -2.54882 -3.45447 0
M  V30 6411 C 603.004 -2.43449 -4.7494 0
M  V30 6412 O 603.227 -1.45905 -5.51424 0
M  V30 6413 O 602.161 -3.33206 -5.01256 0
M  V30 6414 H 605.987 -2.42114 -1.83342 0
M  V30 6415 H 603.572 -1.22956 -0.848658 0
M  V30 6416 H 605.454 -1.29221 -4.01098 0
M  V30 6417 H 604.129 -0.402508 -3.21188 0
M  V30 6418 H 603.036 -2.64865 -2.64192 0
M  V30 6419 H 604.369 -3.47087 -3.48987 0
M  V30 6420 N 606.021 0.929856 -1.27246 0
M  V30 6421 C 607.251 1.70895 -1.16096 0
M  V30 6422 C 607.659 1.87039 0.285122 0
M  V30 6423 O 607.002 1.38557 1.20614 0
M  V30 6424 C 607.064 3.12919 -1.7698 0
M  V30 6425 C 606.728 3.2012 -3.26148 0
M  V30 6426 C 607.725 3.02533 -4.22812 0
M  V30 6427 C 605.41 3.43148 -3.66817 0
M  V30 6428 C 607.404 3.07861 -5.58122 0
M  V30 6429 C 605.091 3.48109 -5.02258 0
M  V30 6430 C 606.089 3.30483 -5.97721 0
M  V30 6431 O 605.777 3.35175 -7.30694 0
M  V30 6432 H 605.509 0.54152 -0.404639 0
M  V30 6433 H 608.063 1.17342 -1.68582 0
M  V30 6434 H 606.293 3.67945 -1.18969 0
M  V30 6435 H 607.982 3.72787 -1.60576 0
M  V30 6436 H 608.748 2.84586 -3.92728 0
M  V30 6437 H 604.627 3.55918 -2.9299 0
M  V30 6438 H 608.171 2.94021 -6.32612 0
M  V30 6439 H 604.068 3.65579 -5.31998 0
M  V30 6440 H 604.836 3.51644 -7.39114 0
M  V30 6441 N 607.499 1.09233 1.13605 0
M  V30 6442 C 608.432 0.6739 2.18023 0
M  V30 6443 C 609.41 -0.318603 1.59448 0
M  V30 6444 O 610.594 -0.220452 1.87206 0
M  V30 6445 C 607.721 -0.00751458 3.38699 0
M  V30 6446 C 606.767 0.946481 4.15865 0
M  V30 6447 S 607.6 2.45753 4.75779 0
M  V30 6448 C 608.756 1.78846 5.99804 0
M  V30 6449 H 608.989 1.55846 2.53178 0
M  V30 6450 H 606.522 0.908118 1.2487 0
M  V30 6451 H 608.48 -0.394368 4.08601 0
M  V30 6452 H 607.141 -0.868693 3.01849 0
M  V30 6453 H 606.334 0.416742 5.02274 0
M  V30 6454 H 605.936 1.27464 3.51609 0
M  V30 6455 H 608.228 1.11135 6.68323 0
M  V30 6456 H 609.171 2.63163 6.57382 0
M  V30 6457 H 609.579 1.25823 5.50299 0
M  V30 6458 N 608.977 -1.30795 0.87923 0
M  V30 6459 C 609.907 -2.30742 0.357796 0
M  V30 6460 C 610.888 -1.60747 -0.556283 0
M  V30 6461 O 612.073 -1.88393 -0.47135 0
M  V30 6462 C 609.203 -3.44583 -0.433555 0
M  V30 6463 C 608.157 -4.26235 0.388251 0
M  V30 6464 C 607.483 -5.32073 -0.529352 0
M  V30 6465 C 608.783 -4.96303 1.62729 0
M  V30 6466 H 610.477 -2.74605 1.19299 0
M  V30 6467 H 608.023 -1.32017 0.575104 0
M  V30 6468 H 609.976 -4.13563 -0.808934 0
M  V30 6469 H 608.7 -2.99511 -1.30234 0
M  V30 6470 H 607.359 -3.58936 0.745695 0
M  V30 6471 H 607.007 -4.83249 -1.39569 0
M  V30 6472 H 606.707 -5.87598 0.0166741 0
M  V30 6473 H 608.231 -6.0391 -0.901373 0
M  V30 6474 H 609.645 -5.5783 1.32283 0
M  V30 6475 H 608.042 -5.61666 2.11309 0
M  V30 6476 H 609.112 -4.22758 2.37494 0
M  V30 6477 N 610.455 -0.639598 -1.44038 0
M  V30 6478 C 611.866 -0.228866 -1.85292 0
M  V30 6479 C 612.217 1.22161 -1.53529 0
M  V30 6480 O 611.342 1.93064 -0.977518 0
M  V30 6481 C 611.937 -0.408592 -3.36327 0
M  V30 6482 C 610.496 -0.0522953 -3.76364 0
M  V30 6483 C 609.643 -0.717959 -2.67844 0
M  V30 6484 H 612.594 -0.844194 -1.34384 0
M  V30 6485 H 612.615 0.349968 -3.78887 0
M  V30 6486 H 612.127 -1.46435 -3.59414 0
M  V30 6487 H 610.228 1.0014 -3.58891 0
M  V30 6488 H 610.341 -0.468261 -4.76806 0
M  V30 6489 H 608.705 -0.152459 -2.54243 0
M  V30 6490 H 609.488 -1.77648 -2.93762 0
M  V30 6491 N 611.933 1.52934 -0.380664 0
M  V30 6492 C 613.18 2.01467 0.204278 0
M  V30 6493 C 613.508 1.26744 1.47533 0
M  V30 6494 O 612.763 0.353723 1.92477 0
M  V30 6495 C 613.062 3.5349 0.527199 0
M  V30 6496 C 612.728 4.46171 -0.651295 0
M  V30 6497 C 611.39 4.71227 -0.974619 0
M  V30 6498 C 613.742 5.00909 -1.44012 0
M  V30 6499 C 611.07 5.4827 -2.08847 0
M  V30 6500 C 613.422 5.7917 -2.5445 0
M  V30 6501 C 612.086 6.02507 -2.87301 0
M  V30 6502 H 611.356 0.73722 0.0747504 0
M  V30 6503 H 614.003 1.84411 -0.516234 0
M  V30 6504 H 612.308 3.68574 1.32892 0
M  V30 6505 H 614.005 3.88529 0.992283 0
M  V30 6506 H 610.595 4.26829 -0.389276 0
M  V30 6507 H 614.779 4.81485 -1.20357 0
M  V30 6508 H 610.035 5.64567 -2.34679 0
M  V30 6509 H 614.209 6.20588 -3.1598 0
M  V30 6510 H 611.836 6.61989 -3.7373 0
M  V30 6511 N 613.412 0.11024 1.57214 0
M  V30 6512 C 614.322 -0.857077 2.18383 0
M  V30 6513 C 615.338 -1.29915 1.1575 0
M  V30 6514 O 616.514 -1.36394 1.48184 0
M  V30 6515 C 613.579 -2.09264 2.76423 0
M  V30 6516 C 612.64 -1.70333 3.94063 0
M  V30 6517 C 611.873 -2.87999 4.49324 0
M  V30 6518 O 612.096 -4.0317 4.03497 0
M  V30 6519 O 611.03 -2.6559 5.40135 0
M  V30 6520 H 614.856 -0.366561 3.0148 0
M  V30 6521 H 612.441 -0.114914 1.48957 0
M  V30 6522 H 614.323 -2.81644 3.13456 0
M  V30 6523 H 612.998 -2.57339 1.96363 0
M  V30 6524 H 611.905 -0.950864 3.61814 0
M  V30 6525 H 613.238 -1.27007 4.75531 0
M  V30 6526 N 614.89 -1.56749 -0.16351 0
M  V30 6527 C 615.8 -2.00255 -1.2221 0
M  V30 6528 C 616.816 -0.915194 -1.47987 0
M  V30 6529 O 617.992 -1.22342 -1.59982 0
M  V30 6530 C 615.057 -2.36035 -2.53946 0
M  V30 6531 C 614.118 -3.58637 -2.35962 0
M  V30 6532 C 613.351 -3.92701 -3.61416 0
M  V30 6533 O 613.574 -3.27632 -4.66919 0
M  V30 6534 O 612.508 -4.86019 -3.55062 0
M  V30 6535 H 616.334 -2.90586 -0.882794 0
M  V30 6536 H 613.919 -1.44721 -0.370978 0
M  V30 6537 H 615.801 -2.59982 -3.31643 0
M  V30 6538 H 614.476 -1.48863 -2.8744 0
M  V30 6539 H 613.383 -3.39898 -1.5627 0
M  V30 6540 H 614.716 -4.46374 -2.0739 0
M  V30 6541 N 616.368 0.432326 -1.51554 0
M  V30 6542 C 617.278 1.55023 -1.76082 0
M  V30 6543 C 618.294 1.61593 -0.645265 0
M  V30 6544 O 619.47 1.78742 -0.928086 0
M  V30 6545 C 616.535 2.90964 -1.88523 0
M  V30 6546 C 615.596 2.9447 -3.12388 0
M  V30 6547 C 614.829 4.23926 -3.24225 0
M  V30 6548 O 615.052 5.16576 -2.4188 0
M  V30 6549 O 613.986 4.33818 -4.17235 0
M  V30 6550 H 617.812 1.37238 -2.70923 0
M  V30 6551 H 615.397 0.615845 -1.36117 0
M  V30 6552 H 617.279 3.71633 -1.98662 0
M  V30 6553 H 615.954 3.08865 -0.9687 0
M  V30 6554 H 614.861 2.12737 -3.07723 0
M  V30 6555 H 616.194 2.81514 -4.03746 0
M  V30 6556 N 617.846 1.41785 0.688094 0
M  V30 6557 C 619.095 1.4084 1.44385 0
M  V30 6558 C 619.408 0.0234166 1.95586 0
M  V30 6559 O 620.614 -0.108647 2.71283 0
M  V30 6560 C 619.07 2.47675 2.61123 0
M  V30 6561 C 618.678 3.92116 2.16677 0
M  V30 6562 C 620.422 2.55877 3.38714 0
M  V30 6563 C 618.329 4.90487 3.30419 0
M  V30 6564 H 617.259 0.523787 0.542368 0
M  V30 6565 H 619.91 1.6764 0.74627 0
M  V30 6566 H 618.292 2.14018 3.33185 0
M  V30 6567 H 619.466 4.35059 1.51856 0
M  V30 6568 H 617.781 3.87642 1.5206 0
M  V30 6569 H 620.378 3.26553 4.234 0
M  V30 6570 H 620.721 1.59801 3.84408 0
M  V30 6571 H 621.254 2.88662 2.73714 0
M  V30 6572 H 617.993 5.87994 2.89729 0
M  V30 6573 H 617.513 4.52187 3.94065 0
M  V30 6574 H 619.192 5.11591 3.96085 0
M  V30 6575 N 619.324 -0.923095 1.27737 0
M  V30 6576 C 620.572 -1.66797 1.14119 0
M  V30 6577 C 620.893 -1.92479 -0.312541 0
M  V30 6578 O 620.163 -1.53432 -1.218 0
M  V30 6579 H 618.743 -0.618196 0.419336 0
M  V30 6580 H 621.405 -1.10815 1.60331 0
M  V30 6581 H 620.501 -2.63424 1.67374 0
M  V30 6582 N 620.802 -1.09834 -1.13024 0
M  V30 6583 C 621.734 -0.699379 -2.18269 0
M  V30 6584 C 622.747 0.260841 -1.60697 0
M  V30 6585 O 623.936 0.0462538 -1.7844 0
M  V30 6586 C 621.036 -0.0104537 -3.38898 0
M  V30 6587 C 620.209 -0.993275 -4.25973 0
M  V30 6588 C 619.268 -0.336982 -5.2512 0
M  V30 6589 O 618.294 -0.985892 -5.60597 0
M  V30 6590 N 619.496 0.90716 -5.73368 0
M  V30 6591 H 622.261 -1.60486 -2.5311 0
M  V30 6592 H 619.822 -0.986337 -1.28386 0
M  V30 6593 H 621.814 0.43991 -4.02302 0
M  V30 6594 H 620.384 0.797335 -3.0226 0
M  V30 6595 H 619.604 -1.62208 -3.5928 0
M  V30 6596 H 620.892 -1.65876 -4.81002 0
M  V30 6597 H 620.29 1.45384 -5.46699 0
M  V30 6598 H 618.847 1.30077 -6.38689 0
M  V30 6599 N 622.28 1.30327 -0.886154 0
M  V30 6600 C 623.23 2.25668 -0.325248 0
M  V30 6601 C 624.214 1.51318 0.546972 0
M  V30 6602 O 625.406 1.72623 0.391203 0
M  V30 6603 C 622.535 3.40229 0.458167 0
M  V30 6604 C 621.621 4.21933 -0.428208 0
M  V30 6605 N 622.012 4.82129 -1.52921 0
M  V30 6606 C 620.31 4.45439 -0.223535 0
M  V30 6607 C 621.011 5.43351 -2.07714 0
M  V30 6608 N 619.987 5.26002 -1.37195 0
M  V30 6609 H 623.789 2.69759 -1.1665 0
M  V30 6610 H 621.303 1.4478 -0.735691 0
M  V30 6611 H 623.3 4.07579 0.876648 0
M  V30 6612 H 621.96 2.97678 1.29684 0
M  V30 6613 H 622.971 4.81312 -1.91205 0
M  V30 6614 H 619.648 4.13481 0.577875 0
M  V30 6615 H 621.038 6.01118 -3.00178 0
M  V30 6616 N 623.758 0.647228 1.43697 0
M  V30 6617 C 625.169 0.238689 1.85168 0
M  V30 6618 C 625.52 -1.21345 1.54175 0
M  V30 6619 O 624.645 -1.92542 0.987743 0
M  V30 6620 C 625.24 0.426422 3.36106 0
M  V30 6621 C 623.799 0.0722541 3.76331 0
M  V30 6622 C 622.946 0.732153 2.6746 0
M  V30 6623 H 625.897 0.851309 1.33934 0
M  V30 6624 H 625.918 -0.32987 3.79067 0
M  V30 6625 H 625.43 1.48339 3.58632 0
M  V30 6626 H 623.531 -0.982355 3.59417 0
M  V30 6627 H 623.644 0.493541 4.76551 0
M  V30 6628 H 622.008 0.16594 2.54159 0
M  V30 6629 H 622.791 1.79204 2.92816 0
M  V30 6630 N 625.236 -1.5273 0.388769 0
M  V30 6631 C 626.461 -2.0647 -0.19621 0
M  V30 6632 C 626.886 -1.25865 -1.39784 0
M  V30 6633 O 626.244 -0.283562 -1.79069 0
M  V30 6634 C 626.292 -3.56456 -0.5451 0
M  V30 6635 O 625.396 -3.78426 -1.63912 0
M  V30 6636 H 624.737 -0.663599 -0.023067 0
M  V30 6637 H 627.267 -1.96898 0.556084 0
M  V30 6638 H 627.277 -3.99888 -0.809557 0
M  V30 6639 H 625.952 -4.14561 0.333417 0
M  V30 6640 H 624.529 -3.46884 -1.36842 0
M  V30 6641 N 626.714 -0.118576 -1.57153 0
M  V30 6642 C 627.644 0.828436 -2.1831 0
M  V30 6643 C 628.625 1.27758 -1.12303 0
M  V30 6644 O 629.81 1.34026 -1.40537 0
M  V30 6645 C 626.94 2.07876 -2.78217 0
M  V30 6646 C 625.894 1.76742 -3.89803 0
M  V30 6647 C 625.22 3.08801 -4.36516 0
M  V30 6648 C 626.52 1.03606 -5.11921 0
M  V30 6649 H 628.214 0.318824 -2.97698 0
M  V30 6650 H 625.76 0.151911 -1.43196 0
M  V30 6651 H 627.713 2.74584 -3.19659 0
M  V30 6652 H 626.437 2.61161 -1.96118 0
M  V30 6653 H 625.096 1.12424 -3.48936 0
M  V30 6654 H 624.744 3.6002 -3.51276 0
M  V30 6655 H 624.444 2.88743 -5.11763 0
M  V30 6656 H 625.968 3.76627 -4.80608 0
M  V30 6657 H 627.382 1.60467 -5.50385 0
M  V30 6658 H 625.779 0.936454 -5.92748 0
M  V30 6659 H 626.849 0.0227421 -4.84895 0
M  V30 6660 N 628.193 1.56834 0.155195 0
M  V30 6661 C 629.103 2.009 1.21146 0
M  V30 6662 C 630.119 0.923029 1.475 0
M  V30 6663 O 631.295 1.23189 1.59331 0
M  V30 6664 C 628.36 2.37378 2.52691 0
M  V30 6665 C 627.421 3.59883 2.34057 0
M  V30 6666 C 626.654 3.94612 3.59329 0
M  V30 6667 O 626.877 3.30104 4.65175 0
M  V30 6668 O 625.811 4.87895 3.52479 0
M  V30 6669 H 629.637 2.9105 0.867371 0
M  V30 6670 H 627.222 1.44916 0.363298 0
M  V30 6671 H 629.104 2.61737 3.3026 0
M  V30 6672 H 627.779 1.50385 2.86646 0
M  V30 6673 H 626.686 3.40722 1.54465 0
M  V30 6674 H 628.019 4.47468 2.0502 0
M  V30 6675 N 629.671 -0.424282 1.51781 0
M  V30 6676 C 630.948 -1.18464 1.55646 0
M  V30 6677 C 631.328 -2.08529 0.328438 0
M  V30 6678 O 630.676 -2.17969 -0.685693 0
M  V30 6679 C 630.886 -1.97514 2.87731 0
M  V30 6680 C 632.234 -2.54106 3.40169 0
M  V30 6681 O 633.258 -2.07711 2.89369 0
M  V30 6682 O 632.117 -3.38759 4.28841 0
M  V30 6683 H 629.211 -0.540055 0.626314 0
M  V30 6684 H 631.757 -0.432291 1.64102 0
M  V30 6685 H 630.529 -1.31444 3.68562 0
M  V30 6686 H 630.152 -2.79787 2.82498 0
M  V30 6687 N 631.149 -1.42148 -0.680565 0
M  V30 6688 C 632.082 -1.39602 -1.80517 0
M  V30 6689 C 633.06 -0.261098 -1.6049 0
M  V30 6690 O 634.244 -0.450404 -1.8304 0
M  V30 6691 C 631.371 -1.18134 -3.1743 0
M  V30 6692 C 630.417 -2.34543 -3.56219 0
M  V30 6693 S 631.25 -3.97063 -3.59306 0
M  V30 6694 C 632.406 -3.77926 -4.98921 0
M  V30 6695 H 632.639 -2.3477 -1.82402 0
M  V30 6696 H 630.172 -1.28851 -0.850691 0
M  V30 6697 H 632.13 -1.06434 -3.96462 0
M  V30 6698 H 630.791 -0.245611 -3.13138 0
M  V30 6699 H 629.984 -2.15255 -4.55721 0
M  V30 6700 H 629.586 -2.42728 -2.84533 0
M  V30 6701 H 631.878 -3.3856 -5.86842 0
M  V30 6702 H 632.821 -4.77084 -5.23256 0
M  V30 6703 H 633.229 -3.10904 -4.71167 0
M  V30 6704 N 632.627 0.916307 -1.28225 0
M  V30 6705 C 633.559 2.02303 -1.07732 0
M  V30 6706 C 634.572 1.62773 -0.0298421 0
M  V30 6707 O 635.761 1.76406 -0.272626 0
M  V30 6708 C 632.861 3.33282 -0.614504 0
M  V30 6709 C 632.034 4.01439 -1.73682 0
M  V30 6710 C 631.093 5.10698 -1.26781 0
M  V30 6711 O 630.119 5.34038 -1.96958 0
M  V30 6712 N 631.321 5.80355 -0.129624 0
M  V30 6713 H 634.086 2.20442 -2.03041 0
M  V30 6714 H 631.647 1.08744 -1.19943 0
M  V30 6715 H 633.639 4.03699 -0.284397 0
M  V30 6716 H 632.209 3.11633 0.245664 0
M  V30 6717 H 631.429 3.24604 -2.23665 0
M  V30 6718 H 632.717 4.43721 -2.48976 0
M  V30 6719 H 632.115 5.6386 0.455847 0
M  V30 6720 H 630.672 6.51647 0.141224 0
M  V30 6721 N 634.105 1.10431 1.1244 0
M  V30 6722 C 635.015 0.765502 2.21759 0
M  V30 6723 C 636.031 -0.236966 1.72379 0
M  V30 6724 O 637.207 -0.0757329 2.01258 0
M  V30 6725 C 634.272 0.202316 3.46109 0
M  V30 6726 C 633.333 1.26205 4.1033 0
M  V30 6727 C 632.566 0.725648 5.28744 0
M  V30 6728 O 632.789 -0.447942 5.68638 0
M  V30 6729 O 631.723 1.48555 5.83279 0
M  V30 6730 H 635.549 1.67801 2.53133 0
M  V30 6731 H 633.134 0.879443 1.20773 0
M  V30 6732 H 635.016 -0.107918 4.21262 0
M  V30 6733 H 633.691 -0.683052 3.16411 0
M  V30 6734 H 632.598 1.62514 3.36957 0
M  V30 6735 H 633.931 2.12044 4.44183 0
M  V30 6736 N 635.583 -1.29855 0.893053 0
M  V30 6737 C 636.829 -1.96116 0.516349 0
M  V30 6738 C 637.162 -1.70281 -0.933695 0
M  V30 6739 O 636.437 -1.01205 -1.66096 0
M  V30 6740 C 636.72 -3.51068 0.801455 0
M  V30 6741 C 636.573 -3.86387 2.30272 0
M  V30 6742 C 637.892 -4.39186 0.283423 0
M  V30 6743 H 635.011 -0.712335 0.189072 0
M  V30 6744 H 637.653 -1.53587 1.11852 0
M  V30 6745 H 635.803 -3.87424 0.288949 0
M  V30 6746 H 637.475 -3.60012 2.88425 0
M  V30 6747 H 635.718 -3.34167 2.76613 0
M  V30 6748 H 636.389 -4.94512 2.45279 0
M  V30 6749 H 638.865 -4.09785 0.722187 0
M  V30 6750 H 637.741 -5.46505 0.512169 0
M  V30 6751 H 638.002 -4.34511 -0.815643 0
M  V30 6752 N 637.061 -0.65484 -1.43351 0
M  V30 6753 C 638.307 -0.169142 -2.02093 0
M  V30 6754 C 638.64 1.21431 -1.51553 0
M  V30 6755 O 637.915 1.81105 -0.709317 0
M  V30 6756 C 638.198 -0.181775 -3.59641 0
M  V30 6757 C 638.051 -1.59926 -4.20409 0
M  V30 6758 C 639.37 0.480945 -4.37464 0
M  V30 6759 H 636.489 -0.0629371 -0.734308 0
M  V30 6760 H 639.131 -0.835833 -1.70628 0
M  V30 6761 H 637.281 0.385918 -3.86578 0
M  V30 6762 H 638.953 -2.21766 -4.04497 0
M  V30 6763 H 637.196 -2.14605 -3.76998 0
M  V30 6764 H 637.867 -1.55994 -5.295 0
M  V30 6765 H 640.343 -0.00208273 -4.161 0
M  V30 6766 H 639.219 0.441384 -5.47122 0
M  V30 6767 H 639.48 1.55533 -4.13838 0
M  V30 6768 N 638.539 1.52521 -0.396863 0
M  V30 6769 C 639.785 2.01971 0.183169 0
M  V30 6770 C 640.118 1.2825 1.45827 0
M  V30 6771 O 639.393 0.385179 1.90648 0
M  V30 6772 C 639.676 3.5736 0.443391 0
M  V30 6773 C 639.529 4.41743 -0.84753 0
M  V30 6774 C 640.848 4.22539 1.2308 0
M  V30 6775 H 637.967 0.734119 0.0650976 0
M  V30 6776 H 640.609 1.82519 -0.527918 0
M  V30 6777 H 638.759 3.74066 1.04914 0
M  V30 6778 H 640.431 4.36773 -1.48414 0
M  V30 6779 H 638.674 4.0845 -1.4612 0
M  V30 6780 H 639.345 5.48507 -0.620003 0
M  V30 6781 H 641.821 4.09857 0.718084 0
M  V30 6782 H 640.697 5.31227 1.38162 0
M  V30 6783 H 640.958 3.80675 2.24808 0
M  V30 6784 N 640.017 0.126909 1.57088 0
M  V30 6785 C 640.967 -0.831678 2.1229 0
M  V30 6786 C 641.951 -1.22292 1.04564 0
M  V30 6787 O 643.143 -1.19269 1.30782 0
M  V30 6788 C 640.272 -2.07866 2.73215 0
M  V30 6789 C 639.358 -1.71143 3.88035 0
M  V30 6790 N 639.749 -1.05136 4.94753 0
M  V30 6791 C 638.047 -2.00549 3.98367 0
M  V30 6792 C 638.748 -0.877257 5.75047 0
M  V30 6793 N 637.724 -1.40477 5.25135 0
M  V30 6794 H 641.526 -0.317926 2.92175 0
M  V30 6795 H 639.04 -0.0753052 1.62225 0
M  V30 6796 H 641.037 -2.77516 3.11111 0
M  V30 6797 H 639.697 -2.59778 1.94796 0
M  V30 6798 H 640.708 -0.71442 5.12949 0
M  V30 6799 H 637.385 -2.54452 3.30999 0
M  V30 6800 H 638.775 -0.358536 6.70943 0
M  V30 6801 N 641.495 -1.56914 -0.146875 0
M  V30 6802 C 642.442 -1.98275 -1.18134 0
M  V30 6803 C 643.412 -0.850367 -1.42681 0
M  V30 6804 O 644.597 -1.11244 -1.55014 0
M  V30 6805 C 641.737 -2.36861 -2.5098 0
M  V30 6806 C 640.85 -3.63391 -2.33605 0
M  V30 6807 C 639.985 -3.91079 -3.59486 0
M  V30 6808 C 639.024 -5.10879 -3.37149 0
M  V30 6809 N 638.161 -5.34577 -4.55161 0
M  V30 6810 H 643.001 -2.8645 -0.821622 0
M  V30 6811 H 640.538 -1.41718 -0.394248 0
M  V30 6812 H 642.496 -2.57262 -3.28439 0
M  V30 6813 H 641.126 -1.51766 -2.84898 0
M  V30 6814 H 640.178 -3.50766 -1.47199 0
M  V30 6815 H 641.49 -4.51007 -2.13059 0
M  V30 6816 H 640.644 -4.11979 -4.45374 0
M  V30 6817 H 639.383 -3.01885 -3.83036 0
M  V30 6818 H 638.388 -4.89853 -2.49649 0
M  V30 6819 H 639.613 -6.01626 -3.14997 0
M  V30 6820 H 637.559 -4.48337 -4.78884 0
M  V30 6821 H 637.476 -6.16463 -4.37618 0
M  V30 6822 H 638.744 -5.59975 -5.42263 0
M  V30 6823 N 642.974 0.416227 -1.52004 0
M  V30 6824 C 643.921 1.50666 -1.74838 0
M  V30 6825 C 644.891 1.55245 -0.590599 0
M  V30 6826 O 646.076 1.71928 -0.827374 0
M  V30 6827 C 643.216 2.88185 -1.89851 0
M  V30 6828 C 642.329 2.92971 -3.17478 0
M  V30 6829 C 641.464 4.21745 -3.22962 0
M  V30 6830 C 640.503 4.20478 -4.4482 0
M  V30 6831 N 639.64 5.40811 -4.47736 0
M  V30 6832 H 644.48 1.30498 -2.67907 0
M  V30 6833 H 642.017 0.633568 -1.32757 0
M  V30 6834 H 643.975 3.68007 -1.96537 0
M  V30 6835 H 642.605 3.06865 -1.00169 0
M  V30 6836 H 641.657 2.05684 -3.19997 0
M  V30 6837 H 642.969 2.87899 -4.07328 0
M  V30 6838 H 642.123 5.09954 -3.28682 0
M  V30 6839 H 640.862 4.29503 -2.31038 0
M  V30 6840 H 639.867 3.30659 -4.39254 0
M  V30 6841 H 641.092 4.14366 -5.38031 0
M  V30 6842 H 639.038 5.4925 -3.58692 0
M  V30 6843 H 638.955 5.37705 -5.31422 0
M  V30 6844 H 640.223 6.30993 -4.57676 0
M  V30 6845 N 644.452 1.42507 0.673017 0
M  V30 6846 C 645.399 1.46124 1.78651 0
M  V30 6847 C 646.369 0.313007 1.63124 0
M  V30 6848 O 647.554 0.517337 1.83653 0
M  V30 6849 C 644.694 1.3711 3.16694 0
M  V30 6850 C 643.807 2.61983 3.43495 0
M  V30 6851 C 642.942 2.45098 4.71275 0
M  V30 6852 C 641.981 3.65336 4.91117 0
M  V30 6853 N 641.118 3.47383 6.10139 0
M  V30 6854 H 645.958 2.4128 1.74895 0
M  V30 6855 H 643.495 1.19788 0.853766 0
M  V30 6856 H 645.453 1.29881 3.96468 0
M  V30 6857 H 644.083 0.45549 3.1957 0
M  V30 6858 H 643.135 2.79571 2.57961 0
M  V30 6859 H 644.447 3.51355 3.5405 0
M  V30 6860 H 643.601 2.35466 5.59143 0
M  V30 6861 H 642.34 1.53219 4.63007 0
M  V30 6862 H 641.345 3.754 4.0169 0
M  V30 6863 H 642.57 4.58199 5.01229 0
M  V30 6864 H 640.516 2.58222 6.0304 0
M  V30 6865 H 640.433 4.30344 6.21563 0
M  V30 6866 H 641.701 3.41565 7.00681 0
M  V30 6867 N 645.93 -0.909495 1.28709 0
M  V30 6868 C 647.346 -1.18862 1.06508 0
M  V30 6869 C 647.546 -2.00604 -0.189864 0
M  V30 6870 O 646.602 -2.36281 -0.890355 0
M  V30 6871 C 647.915 -1.91908 2.31499 0
M  V30 6872 C 649.463 -2.04773 2.36721 0
M  V30 6873 C 649.938 -2.81228 3.6149 0
M  V30 6874 N 651.429 -2.88787 3.62155 0
M  V30 6875 C 652.164 -3.48455 4.55375 0
M  V30 6876 N 651.66 -4.09369 5.58918 0
M  V30 6877 N 653.453 -3.46035 4.42963 0
M  V30 6878 H 645.604 -0.363867 2.0926 0
M  V30 6879 H 647.867 -0.223649 0.921241 0
M  V30 6880 H 647.573 -1.39275 3.22948 0
M  V30 6881 H 647.447 -2.92436 2.38245 0
M  V30 6882 H 649.834 -2.56585 1.45767 0
M  V30 6883 H 649.915 -1.03408 2.33967 0
M  V30 6884 H 649.559 -2.30094 4.5279 0
M  V30 6885 H 649.489 -3.82917 3.61499 0
M  V30 6886 H 651.98 -2.45514 2.87283 0
M  V30 6887 H 652.293 -4.52891 6.26187 0
M  V30 6888 H 650.638 -4.0786 5.62739 0
M  V30 6889 H 653.829 -2.9766 3.6127 0
M  V30 6890 H 654.002 -3.92244 5.15799 0
M  V30 6891 N 647.408 -1.11026 -1.11852 0
M  V30 6892 C 648.819 -0.873203 -1.65021 0
M  V30 6893 C 649.17 0.595364 -1.86949 0
M  V30 6894 O 648.295 1.45645 -1.60051 0
M  V30 6895 C 648.89 -1.57859 -2.99777 0
M  V30 6896 C 647.449 -1.38807 -3.49871 0
M  V30 6897 C 646.596 -1.62403 -2.24768 0
M  V30 6898 H 649.547 -1.26712 -0.955503 0
M  V30 6899 H 649.568 -1.02111 -3.66543 0
M  V30 6900 H 649.08 -2.6474 -2.83786 0
M  V30 6901 H 647.181 -0.341163 -3.71035 0
M  V30 6902 H 647.294 -2.13421 -4.28938 0
M  V30 6903 H 645.658 -1.04714 -2.32179 0
M  V30 6904 H 646.441 -2.70549 -2.11324 0
M  V30 6905 N 648.886 1.2938 -0.899927 0
M  V30 6906 C 650.132 1.9584 -0.526742 0
M  V30 6907 C 650.465 1.70774 0.924651 0
M  V30 6908 O 649.74 1.02084 1.65557 0
M  V30 6909 C 650.023 3.50638 -0.820062 0
M  V30 6910 C 649.876 3.85161 -2.32317 0
M  V30 6911 C 651.195 4.3903 -0.30671 0
M  V30 6912 H 648.314 0.711322 -0.192848 0
M  V30 6913 H 650.956 1.52992 -1.12665 0
M  V30 6914 H 649.106 3.87265 -0.309491 0
M  V30 6915 H 650.778 3.58477 -2.9033 0
M  V30 6916 H 649.021 3.32696 -2.78381 0
M  V30 6917 H 649.692 4.93204 -2.47898 0
M  V30 6918 H 652.168 4.09396 -0.743908 0
M  V30 6919 H 651.044 5.46226 -0.541144 0
M  V30 6920 H 651.305 4.34937 0.792588 0
M  V30 6921 N 650.364 0.662433 1.43002 0
M  V30 6922 C 651.294 -0.00979809 2.33498 0
M  V30 6923 C 652.275 -0.802329 1.49989 0
M  V30 6924 O 653.46 -0.761964 1.78627 0
M  V30 6925 C 650.59 -0.970446 3.33466 0
M  V30 6926 C 649.544 -0.287383 4.27034 0
M  V30 6927 C 648.87 -1.36012 5.17112 0
M  V30 6928 C 650.17 0.82595 5.15728 0
M  V30 6929 H 651.864 0.745959 2.89958 0
M  V30 6930 H 649.41 0.360172 1.39423 0
M  V30 6931 H 651.363 -1.44971 3.95679 0
M  V30 6932 H 650.087 -1.75748 2.75282 0
M  V30 6933 H 648.746 0.17152 3.66199 0
M  V30 6934 H 648.394 -2.13882 4.55262 0
M  V30 6935 H 648.094 -0.908276 5.80538 0
M  V30 6936 H 649.618 -1.84056 5.82199 0
M  V30 6937 H 651.032 0.42845 5.71697 0
M  V30 6938 H 649.429 1.20282 5.87922 0
M  V30 6939 H 650.499 1.68003 4.54866 0
M  V30 6940 N 651.842 -1.52309 0.404946 0
M  V30 6941 C 653.258 -1.59503 0.0556255 0
M  V30 6942 C 653.458 -1.41805 -1.43156 0
M  V30 6943 O 652.514 -1.2429 -2.19792 0
M  V30 6944 C 653.827 -2.95687 0.546801 0
M  V30 6945 C 655.375 -3.08909 0.504413 0
M  V30 6946 C 655.85 -4.47566 0.97203 0
M  V30 6947 N 657.341 -4.53795 0.928679 0
M  V30 6948 C 658.076 -5.59346 1.26174 0
M  V30 6949 N 657.572 -6.72469 1.66604 0
M  V30 6950 N 659.365 -5.49532 1.18198 0
M  V30 6951 H 651.516 -1.6206 1.37296 0
M  V30 6952 H 653.779 -0.762161 0.563751 0
M  V30 6953 H 653.485 -3.13905 1.58609 0
M  V30 6954 H 653.359 -3.77172 -0.0457905 0
M  V30 6955 H 655.746 -2.90378 -0.525819 0
M  V30 6956 H 655.827 -2.2934 1.13301 0
M  V30 6957 H 655.471 -4.6684 2.00057 0
M  V30 6958 H 655.401 -5.25625 0.320292 0
M  V30 6959 H 657.892 -3.72588 0.631369 0
M  V30 6960 H 658.205 -7.48993 1.9034 0
M  V30 6961 H 656.55 -6.73761 1.70504 0
M  V30 6962 H 659.741 -4.60038 0.865011 0
M  V30 6963 H 659.914 -6.31687 1.44485 0
M  V30 6964 N 653.32 -0.135238 -1.57019 0
M  V30 6965 C 654.597 0.563227 -1.87316 0
M  V30 6966 C 654.977 1.83749 -1.03921 0
M  V30 6967 O 654.325 2.2817 -0.122675 0
M  V30 6968 C 654.535 0.840031 -3.3874 0
M  V30 6969 C 655.883 1.18598 -4.077 0
M  V30 6970 O 656.907 0.92977 -3.43851 0
M  V30 6971 O 655.766 1.66758 -5.20436 0
M  V30 6972 H 652.86 0.285971 -0.775983 0
M  V30 6973 H 655.406 -0.170965 -1.68837 0
M  V30 6974 H 654.178 -0.0622785 -3.9125 0
M  V30 6975 H 653.801 1.62882 -3.62706 0
M  V30 6976 N 654.798 1.5699 0.138552 0
M  V30 6977 C 656.028 1.87704 0.863184 0
M  V30 6978 C 656.436 0.722411 1.74865 0
M  V30 6979 O 655.779 -0.316636 1.80951 0
M  V30 6980 C 655.841 3.13219 1.76449 0
M  V30 6981 C 655.505 4.44648 1.05532 0
M  V30 6982 C 656.502 5.18318 0.405252 0
M  V30 6983 C 654.187 4.91367 1.04231 0
M  V30 6984 C 656.181 6.36916 -0.24835 0
M  V30 6985 C 653.868 6.09887 0.384904 0
M  V30 6986 C 654.866 6.82508 -0.259292 0
M  V30 6987 O 654.554 7.98775 -0.906258 0
M  V30 6988 H 654.286 0.626255 0.254521 0
M  V30 6989 H 656.84 2.04966 0.133472 0
M  V30 6990 H 655.07 2.91988 2.53535 0
M  V30 6991 H 656.759 3.30111 2.36181 0
M  V30 6992 H 657.525 4.83289 0.407053 0
M  V30 6993 H 653.404 4.34759 1.53315 0
M  V30 6994 H 656.948 6.93538 -0.751755 0
M  V30 6995 H 652.845 6.44376 0.380799 0
M  V30 6996 H 653.613 8.14494 -0.80877 0
M  V30 6997 N 656.276 -0.40816 1.52223 0
M  V30 6998 C 657.522 -1.15347 1.67531 0
M  V30 6999 C 657.877 -1.8818 0.400748 0
M  V30 7000 O 657.17 -1.81803 -0.604845 0
M  V30 7001 C 657.364 -2.17422 2.83659 0
M  V30 7002 C 657.193 -1.54611 4.22286 0
M  V30 7003 C 655.963 -1.31841 4.87797 0
M  V30 7004 C 658.161 -1.00648 5.04355 0
M  V30 7005 N 656.143 -0.649338 6.10456 0
M  V30 7006 C 657.514 -0.464384 6.18258 0
M  V30 7007 C 659.569 -0.901041 4.89679 0
M  V30 7008 C 658.272 0.172825 7.19092 0
M  V30 7009 C 660.298 -0.277684 5.90748 0
M  V30 7010 C 659.66 0.253734 7.03943 0
M  V30 7011 H 655.759 -0.408722 0.666686 0
M  V30 7012 H 658.343 -0.445713 1.8953 0
M  V30 7013 H 656.514 -2.85554 2.63274 0
M  V30 7014 H 658.246 -2.84321 2.87999 0
M  V30 7015 H 655.001 -1.58819 4.46176 0
M  V30 7016 H 655.425 -0.3314 6.76188 0
M  V30 7017 H 660.067 -1.29772 4.02392 0
M  V30 7018 H 657.785 0.581564 8.06005 0
M  V30 7019 H 661.371 -0.197605 5.81464 0
M  V30 7020 H 660.251 0.728482 7.80809 0
M  V30 7021 N 657.755 -1.42862 -0.66545 0
M  V30 7022 C 658.687 -1.43026 -1.79098 0
M  V30 7023 C 659.7 -0.32803 -1.59461 0
M  V30 7024 O 660.889 -0.591709 -1.68407 0
M  V30 7025 C 657.989 -1.21566 -3.16346 0
M  V30 7026 C 657.162 -2.44399 -3.62751 0
M  V30 7027 C 656.221 -2.18344 -4.78761 0
M  V30 7028 O 655.247 -2.91611 -4.88827 0
M  V30 7029 N 656.449 -1.1924 -5.68122 0
M  V30 7030 H 659.214 -2.40045 -1.79439 0
M  V30 7031 H 656.775 -1.37861 -0.848872 0
M  V30 7032 H 658.767 -1.02037 -3.91625 0
M  V30 7033 H 657.337 -0.330368 -3.10849 0
M  V30 7034 H 656.557 -2.79433 -2.78048 0
M  V30 7035 H 657.845 -3.26173 -3.90498 0
M  V30 7036 H 657.243 -0.586603 -5.6265 0
M  V30 7037 H 655.8 -1.05698 -6.43173 0
M  V30 7038 N 659.233 0.902656 -1.29189 0
M  V30 7039 C 660.18 2.00643 -1.14066 0
M  V30 7040 C 661.15 1.66064 -0.0347756 0
M  V30 7041 O 662.335 1.8973 -0.201752 0
M  V30 7042 C 659.475 3.35214 -0.820104 0
M  V30 7043 C 658.588 3.82594 -2.00614 0
M  V30 7044 C 657.723 5.05727 -1.62522 0
M  V30 7045 C 656.762 5.45469 -2.77724 0
M  V30 7046 N 655.899 6.59789 -2.40048 0
M  V30 7047 H 660.739 2.1291 -2.08502 0
M  V30 7048 H 658.276 1.04271 -1.03759 0
M  V30 7049 H 660.234 4.12643 -0.614949 0
M  V30 7050 H 658.864 3.22682 0.0873452 0
M  V30 7051 H 657.916 3.01226 -2.32308 0
M  V30 7052 H 659.228 4.07999 -2.86946 0
M  V30 7053 H 658.382 5.90732 -1.38277 0
M  V30 7054 H 657.121 4.82155 -0.733333 0
M  V30 7055 H 656.126 4.59 -3.02653 0
M  V30 7056 H 657.351 5.71024 -3.67572 0
M  V30 7057 H 655.297 6.37826 -1.53343 0
M  V30 7058 H 655.214 6.84975 -3.19914 0
M  V30 7059 H 656.482 7.4807 -2.19116 0
M  V30 7060 N 660.711 1.11618 1.11262 0
M  V30 7061 C 661.661 0.745274 2.15475 0
M  V30 7062 C 662.645 -0.251585 1.58921 0
M  V30 7063 O 663.837 -0.0584093 1.76904 0
M  V30 7064 C 660.966 0.192128 3.42762 0
M  V30 7065 C 660.052 1.21676 4.0627 0
M  V30 7066 N 660.443 2.41158 4.44608 0
M  V30 7067 C 658.741 1.06013 4.33217 0
M  V30 7068 C 659.442 3.0652 4.94389 0
M  V30 7069 N 658.418 2.33994 4.9066 0
M  V30 7070 H 662.22 1.65462 2.42898 0
M  V30 7071 H 659.734 0.995695 1.28295 0
M  V30 7072 H 661.731 -0.0917339 4.16799 0
M  V30 7073 H 660.391 -0.711778 3.16802 0
M  V30 7074 H 661.402 2.786 4.3658 0
M  V30 7075 H 658.079 0.212809 4.16957 0
M  V30 7076 H 659.469 4.08225 5.33669 0
M  V30 7077 N 662.189 -1.289 0.906776 0
M  V30 7078 C 663.152 -2.25777 0.394656 0
M  V30 7079 C 664.152 -1.53621 -0.475119 0
M  V30 7080 O 665.342 -1.71949 -0.279165 0
M  V30 7081 C 662.474 -3.38113 -0.43499 0
M  V30 7082 H 663.667 -2.72592 1.25033 0
M  V30 7083 H 661.22 -1.40463 0.685547 0
M  V30 7084 H 661.955 -2.96648 -1.31036 0
M  V30 7085 H 661.74 -3.91647 0.188334 0
M  V30 7086 H 663.23 -4.10168 -0.784365 0
M  V30 7087 N 663.667 -0.670007 -1.42649 0
M  V30 7088 C 664.915 -0.18991 -2.01206 0
M  V30 7089 C 665.236 1.20617 -1.53221 0
M  V30 7090 O 664.506 1.80898 -0.751856 0
M  V30 7091 H 663.086 -0.0672189 -0.743969 0
M  V30 7092 H 665.748 -0.865442 -1.74631 0
M  V30 7093 H 664.844 -0.187481 -3.11536 0
M  V30 7094 N 665.145 1.52092 -0.413018 0
M  V30 7095 C 666.078 2.23613 0.455234 0
M  V30 7096 C 667.056 1.2459 1.04481 0
M  V30 7097 O 668.24 1.53653 1.09193 0
M  V30 7098 C 665.367 2.96775 1.63224 0
M  V30 7099 C 664.413 4.10261 1.16568 0
M  V30 7100 S 665.246 5.35348 0.127633 0
M  V30 7101 C 666.402 6.1204 1.30987 0
M  V30 7102 H 666.635 2.96911 -0.152042 0
M  V30 7103 H 664.168 1.53134 -0.197343 0
M  V30 7104 H 666.126 3.39532 2.30713 0
M  V30 7105 H 664.787 2.23113 2.21087 0
M  V30 7106 H 663.98 4.6064 2.04515 0
M  V30 7107 H 663.582 3.6964 0.569386 0
M  V30 7108 H 665.874 6.39651 2.23276 0
M  V30 7109 H 666.817 7.03022 0.846533 0
M  V30 7110 H 667.225 5.43161 1.53743 0
M  V30 7111 N 666.623 0.143563 1.56945 0
M  V30 7112 C 667.586 -0.783295 2.154 0
M  V30 7113 C 668.586 -1.17763 1.09492 0
M  V30 7114 O 669.776 -1.09912 1.35148 0
M  V30 7115 C 666.908 -2.06248 2.7143 0
M  V30 7116 H 668.101 -0.274863 2.98638 0
M  V30 7117 H 665.654 -0.105859 1.55941 0
M  V30 7118 H 666.389 -2.61466 1.91849 0
M  V30 7119 H 666.174 -1.78897 3.4891 0
M  V30 7120 H 667.664 -2.72453 3.16479 0
M  V30 7121 N 668.101 -1.57061 -0.130224 0
M  V30 7122 C 669.034 -1.94698 -1.19029 0
M  V30 7123 C 670.012 -0.815074 -1.40696 0
M  V30 7124 O 671.196 -1.07223 -1.55034 0
M  V30 7125 C 668.323 -2.23352 -2.5462 0
M  V30 7126 C 667.369 -3.45945 -2.49448 0
M  V30 7127 S 668.202 -4.98927 -1.94505 0
M  V30 7128 C 669.358 -5.30721 -3.31792 0
M  V30 7129 H 669.591 -2.84308 -0.869272 0
M  V30 7130 H 667.124 -1.50688 -0.336531 0
M  V30 7131 H 669.082 -2.40539 -3.32643 0
M  V30 7132 H 667.743 -1.34376 -2.83905 0
M  V30 7133 H 666.936 -3.63324 -3.49302 0
M  V30 7134 H 666.538 -3.28086 -1.79543 0
M  V30 7135 H 668.83 -5.25215 -4.27966 0
M  V30 7136 H 669.773 -6.32048 -3.19251 0
M  V30 7137 H 670.181 -4.5821 -3.29703 0
M  V30 7138 N 669.579 0.400081 -1.52437 0
M  V30 7139 C 670.509 1.4947 -1.7939 0
M  V30 7140 C 671.49 1.57383 -0.645329 0
M  V30 7141 O 672.675 1.72511 -0.891826 0
M  V30 7142 C 669.805 2.87201 -1.95276 0
M  V30 7143 C 668.759 2.94134 -3.10917 0
M  V30 7144 C 668.085 4.34207 -3.1204 0
M  V30 7145 C 669.385 2.64791 -4.50203 0
M  V30 7146 H 671.079 1.27165 -2.71052 0
M  V30 7147 H 668.625 0.610312 -1.30427 0
M  V30 7148 H 670.578 3.63772 -2.12715 0
M  V30 7149 H 669.302 3.10819 -1.00294 0
M  V30 7150 H 667.961 2.20009 -2.93243 0
M  V30 7151 H 667.609 4.54848 -2.14761 0
M  V30 7152 H 667.309 4.39768 -3.89715 0
M  V30 7153 H 668.833 5.127 -3.31619 0
M  V30 7154 H 670.247 3.31083 -4.68035 0
M  V30 7155 H 668.644 2.81717 -5.29864 0
M  V30 7156 H 669.714 1.60184 -4.57678 0
M  V30 7157 N 671.057 1.43213 0.657864 0
M  V30 7158 C 672.297 1.46083 1.42965 0
M  V30 7159 C 672.661 0.0809712 1.91829 0
M  V30 7160 O 673.862 -0.0156305 2.68795 0
M  V30 7161 C 672.133 2.47044 2.58271 0
M  V30 7162 S 673.692 2.68753 3.46868 0
M  V30 7163 H 670.51 0.517015 0.488074 0
M  V30 7164 H 673.112 1.79945 0.764213 0
M  V30 7165 H 671.816 3.46044 2.20639 0
M  V30 7166 H 671.347 2.14665 3.2967 0
M  V30 7167 H 673.362 1.98329 4.54841 0
M  V30 7168 N 672.536 -0.895792 1.29666 0
M  V30 7169 C 673.446 -2.03329 1.17024 0
M  V30 7170 C 674.462 -1.73753 0.0925962 0
M  V30 7171 O 675.638 -1.99071 0.305431 0
M  V30 7172 C 672.703 -3.36072 0.851841 0
M  V30 7173 C 671.764 -3.7914 2.01373 0
M  V30 7174 C 670.997 -5.05549 1.71043 0
M  V30 7175 O 671.22 -5.66874 0.633213 0
M  V30 7176 O 670.154 -5.44764 2.5596 0
M  V30 7177 H 673.98 -2.16918 2.12556 0
M  V30 7178 H 671.565 -1.02007 1.09156 0
M  V30 7179 H 673.447 -4.15729 0.689006 0
M  V30 7180 H 672.122 -3.23616 -0.0736634 0
M  V30 7181 H 671.029 -3.00233 2.23183 0
M  V30 7182 H 672.362 -3.96186 2.92058 0
M  V30 7183 N 674.014 -1.12206 -1.10668 0
M  V30 7184 C 675.242 -0.898635 -1.86366 0
M  V30 7185 C 675.657 0.551991 -1.80551 0
M  V30 7186 O 675.014 1.38152 -1.19249 0
M  V30 7187 C 675.065 -1.36199 -3.34861 0
M  V30 7188 O 674.786 -2.75576 -3.40573 0
M  V30 7189 C 676.287 -1.17515 -4.2744 0
M  V30 7190 H 673.507 -0.321281 -0.589084 0
M  V30 7191 H 676.051 -1.49142 -1.39918 0
M  V30 7192 H 674.206 -0.81249 -3.78784 0
M  V30 7193 H 674.62 -2.95851 -4.33096 0
M  V30 7194 H 676.094 -1.54827 -5.29842 0
M  V30 7195 H 676.571 -0.115486 -4.39048 0
M  V30 7196 H 677.177 -1.71203 -3.89319 0
M  V30 7197 N 675.492 1.28418 -0.913599 0
M  V30 7198 C 676.741 1.94265 -0.542572 0
M  V30 7199 C 677.054 1.72709 0.918207 0
M  V30 7200 O 678.26 2.32778 1.39738 0
M  V30 7201 C 676.716 3.47956 -0.919507 0
M  V30 7202 C 676.324 3.78291 -2.4 0
M  V30 7203 C 678.068 4.19962 -0.619057 0
M  V30 7204 C 675.975 5.2529 -2.71707 0
M  V30 7205 H 674.905 0.727213 -0.199192 0
M  V30 7206 H 677.556 1.45931 -1.11249 0
M  V30 7207 H 675.938 3.9502 -0.278372 0
M  V30 7208 H 677.112 3.42035 -3.08786 0
M  V30 7209 H 675.427 3.19456 -2.67089 0
M  V30 7210 H 678.024 5.28178 -0.832623 0
M  V30 7211 H 678.367 4.13935 0.443126 0
M  V30 7212 H 678.9 3.78674 -1.21865 0
M  V30 7213 H 675.639 5.36394 -3.76778 0
M  V30 7214 H 675.159 5.62743 -2.07559 0
M  V30 7215 H 676.838 5.93027 -2.58703 0
M  V30 7216 N 676.97 0.677563 1.42291 0
M  V30 7217 C 677.88 0.000962654 2.346 0
M  V30 7218 C 678.896 -0.785833 1.55244 0
M  V30 7219 O 680.072 -0.727523 1.87801 0
M  V30 7220 C 677.137 -0.936746 3.33805 0
M  V30 7221 C 676.198 -0.144173 4.29058 0
M  V30 7222 C 675.431 -1.03722 5.23524 0
M  V30 7223 O 675.654 -2.27675 5.22992 0
M  V30 7224 O 674.588 -0.496542 5.99848 0
M  V30 7225 H 678.414 0.761397 2.94001 0
M  V30 7226 H 675.999 0.43781 1.42841 0
M  V30 7227 H 677.881 -1.47497 3.94744 0
M  V30 7228 H 676.556 -1.67698 2.76874 0
M  V30 7229 H 675.463 0.438224 3.71524 0
M  V30 7230 H 676.796 0.55701 4.89038 0
M  V30 7231 N 678.448 -1.51871 0.421078 0
M  V30 7232 C 679.358 -2.31077 -0.405069 0
M  V30 7233 C 680.374 -1.39301 -1.04265 0
M  V30 7234 O 681.55 -1.72376 -1.04157 0
M  V30 7235 C 678.615 -3.12556 -1.50032 0
M  V30 7236 C 677.676 -4.20088 -0.884559 0
M  V30 7237 C 676.909 -4.97673 -1.92762 0
M  V30 7238 O 677.132 -4.75696 -3.14753 0
M  V30 7239 O 676.066 -5.82203 -1.52719 0
M  V30 7240 H 679.892 -3.02742 0.241086 0
M  V30 7241 H 677.477 -1.48263 0.183991 0
M  V30 7242 H 679.359 -3.6326 -2.13589 0
M  V30 7243 H 678.034 -2.43672 -2.13086 0
M  V30 7244 H 676.941 -3.73502 -0.211379 0
M  V30 7245 H 678.274 -4.91298 -0.297763 0
M  V30 7246 N 679.926 -0.151884 -1.56866 0
M  V30 7247 C 681.166 0.500695 -1.98173 0
M  V30 7248 C 681.53 1.61715 -1.03499 0
M  V30 7249 O 682.731 2.33093 -1.33869 0
M  V30 7250 C 681.002 0.989333 -3.43434 0
M  V30 7251 S 682.561 1.64583 -4.06765 0
M  V30 7252 H 679.379 0.16173 -0.692361 0
M  V30 7253 H 681.981 -0.244754 -1.93962 0
M  V30 7254 H 680.685 0.166072 -4.10064 0
M  V30 7255 H 680.216 1.76929 -3.51368 0
M  V30 7256 H 682.231 2.93326 -4.00218 0
M  V30 7257 N 681.404 1.57128 0.121893 0
M  V30 7258 C 682.65 1.85853 0.826451 0
M  V30 7259 C 683.005 0.739262 1.77631 0
M  V30 7260 O 682.298 -0.260959 1.89815 0
M  V30 7261 C 682.492 3.1874 1.61677 0
M  V30 7262 C 682.321 4.43487 0.744944 0
M  V30 7263 C 681.091 5.03707 0.400891 0
M  V30 7264 C 683.289 5.1426 0.0638779 0
M  V30 7265 N 681.271 6.12006 -0.481902 0
M  V30 7266 C 682.642 6.16281 -0.678033 0
M  V30 7267 C 684.697 4.97898 -0.0128424 0
M  V30 7268 C 683.4 7.0371 -1.48946 0
M  V30 7269 C 685.426 5.85812 -0.81108 0
M  V30 7270 C 684.788 6.87333 -1.54119 0
M  V30 7271 H 680.887 0.730367 0.279442 0
M  V30 7272 H 683.471 1.9449 0.0903486 0
M  V30 7273 H 681.642 3.11204 2.32393 0
M  V30 7274 H 683.374 3.35283 2.26644 0
M  V30 7275 H 680.129 4.67744 0.742469 0
M  V30 7276 H 680.553 6.70787 -0.915063 0
M  V30 7277 H 685.195 4.19372 0.537278 0
M  V30 7278 H 682.913 7.81646 -2.05074 0
M  V30 7279 H 686.499 5.75217 -0.872764 0
M  V30 7280 H 685.379 7.54182 -2.14893 0
M  V30 7281 N 682.882 -0.391992 1.52647 0
M  V30 7282 C 684.159 -1.15136 1.58123 0
M  V30 7283 C 684.539 -2.07786 0.372597 0
M  V30 7284 O 683.887 -2.19374 -0.639304 0
M  V30 7285 C 684.097 -1.91367 2.91856 0
M  V30 7286 C 685.445 -2.46833 3.45483 0
M  V30 7287 O 686.469 -2.01527 2.9371 0
M  V30 7288 O 685.328 -3.29587 4.3593 0
M  V30 7289 H 682.422 -0.526649 0.637629 0
M  V30 7290 H 684.968 -0.397386 1.64982 0
M  V30 7291 H 683.74 -1.23597 3.71268 0
M  V30 7292 H 683.363 -2.73732 2.88369 0
M  V30 7293 N 684.36 -1.4356 -0.65026 0
M  V30 7294 C 685.31 -1.45392 -1.75628 0
M  V30 7295 C 686.294 -0.322006 -1.57645 0
M  V30 7296 O 687.486 -0.565996 -1.67707 0
M  V30 7297 C 684.615 -1.38254 -3.1423 0
M  V30 7298 C 683.701 -2.56487 -3.3775 0
M  V30 7299 N 684.092 -3.81824 -3.31729 0
M  V30 7300 C 682.39 -2.51274 -3.6848 0
M  V30 7301 C 683.091 -4.60497 -3.55412 0
M  V30 7302 N 682.067 -3.91274 -3.77367 0
M  V30 7303 H 685.869 -2.40167 -1.69402 0
M  V30 7304 H 683.383 -1.38254 -0.852037 0
M  V30 7305 H 685.38 -1.3765 -3.9352 0
M  V30 7306 H 684.04 -0.445019 -3.21636 0
M  V30 7307 H 685.051 -4.14069 -3.11074 0
M  V30 7308 H 681.728 -1.66223 -3.82983 0
M  V30 7309 H 683.118 -5.69518 -3.5651 0
M  V30 7310 N 685.838 0.888903 -1.30139 0
M  V30 7311 C 687.115 1.62145 -1.094 0
M  V30 7312 C 687.495 2.08041 0.358091 0
M  V30 7313 O 686.843 1.84438 1.34888 0
M  V30 7314 C 687.053 2.794 -2.09133 0
M  V30 7315 C 688.401 3.49826 -2.40638 0
M  V30 7316 O 689.425 2.89583 -2.07412 0
M  V30 7317 O 688.284 4.58457 -2.97455 0
M  V30 7318 H 685.378 0.712475 -0.41989 0
M  V30 7319 H 687.924 0.936023 -1.41551 0
M  V30 7320 H 686.696 2.42762 -3.06891 0
M  V30 7321 H 686.319 3.55643 -1.77776 0
M  V30 7322 N 687.317 1.12792 1.10072 0
M  V30 7323 C 688.28 0.802264 2.14701 0
M  V30 7324 C 689.28 -0.18515 1.59731 0
M  V30 7325 O 690.47 0.041109 1.74151 0
M  V30 7326 C 687.602 0.19285 3.40354 0
M  V30 7327 H 688.795 1.72932 2.45019 0
M  V30 7328 H 686.348 0.931662 1.25498 0
M  V30 7329 H 687.083 -0.743748 3.15656 0
M  V30 7330 H 686.868 0.903827 3.81541 0
M  V30 7331 H 688.358 -0.0183704 4.17596 0
M  V30 7332 N 688.795 -1.27931 0.920396 0
M  V30 7333 C 689.705 -2.30824 0.419212 0
M  V30 7334 C 690.721 -1.66767 -0.496461 0
M  V30 7335 O 691.897 -1.97763 -0.38104 0
M  V30 7336 C 688.962 -3.45158 -0.326601 0
M  V30 7337 C 688.023 -4.24754 0.623098 0
M  V30 7338 C 687.256 -5.33629 -0.0872172 0
M  V30 7339 O 687.479 -5.55204 -1.30784 0
M  V30 7340 O 686.413 -5.99091 0.580875 0
M  V30 7341 H 690.239 -2.75716 1.27337 0
M  V30 7342 H 687.824 -1.32747 0.685465 0
M  V30 7343 H 689.706 -4.14716 -0.747559 0
M  V30 7344 H 688.381 -3.02336 -1.15648 0
M  V30 7345 H 687.288 -3.57759 1.09359 0
M  V30 7346 H 688.621 -4.71272 1.41998 0
M  V30 7347 N 690.273 -0.685099 -1.4193 0
M  V30 7348 C 691.236 -0.0222632 -2.29189 0
M  V30 7349 C 692.236 0.7186 -1.4385 0
M  V30 7350 O 693.426 0.555058 -1.6512 0
M  V30 7351 C 690.558 0.979013 -3.2654 0
M  V30 7352 H 691.751 -0.790424 -2.89296 0
M  V30 7353 H 689.304 -0.448012 -1.49742 0
M  V30 7354 H 690.039 1.77531 -2.71392 0
M  V30 7355 H 689.824 0.451037 -3.89497 0
M  V30 7356 H 691.314 1.44091 -3.91954 0
M  V30 7357 N 691.751 1.51645 -0.429126 0
M  V30 7358 C 693.167 1.59394 -0.080994 0
M  V30 7359 C 693.367 1.44064 1.40882 0
M  V30 7360 O 692.423 1.27771 2.17786 0
M  V30 7361 C 693.736 2.94779 -0.593773 0
M  V30 7362 C 695.284 3.08067 -0.553494 0
M  V30 7363 C 695.759 4.45963 -1.04311 0
M  V30 7364 N 697.25 4.5226 -1.00076 0
M  V30 7365 C 697.985 5.57268 -1.35056 0
M  V30 7366 N 697.481 6.69734 -1.77282 0
M  V30 7367 N 699.274 5.47582 -1.26925 0
M  V30 7368 H 691.425 1.59856 -1.39857 0
M  V30 7369 H 693.688 0.753095 -0.575805 0
M  V30 7370 H 693.394 3.11342 -1.63583 0
M  V30 7371 H 693.268 3.77197 -0.0142202 0
M  V30 7372 H 695.655 2.91177 0.479556 0
M  V30 7373 H 695.736 2.27508 -1.16935 0
M  V30 7374 H 695.38 4.63598 -2.07459 0
M  V30 7375 H 695.31 5.25049 -0.403873 0
M  V30 7376 H 697.801 3.71537 -0.690564 0
M  V30 7377 H 698.114 7.4587 -2.02232 0
M  V30 7378 H 696.459 6.70963 -1.81202 0
M  V30 7379 H 699.65 4.58604 -0.93809 0
M  V30 7380 H 699.823 6.29308 -1.54516 0
M  V30 7381 N 693.229 0.160201 1.56784 0
M  V30 7382 C 694.159 -0.770264 2.2043 0
M  V30 7383 C 695.14 -1.24736 1.15651 0
M  V30 7384 O 696.325 -1.30253 1.44041 0
M  V30 7385 C 693.455 -2.00427 2.83631 0
M  V30 7386 C 692.409 -1.66345 3.94352 0
M  V30 7387 C 691.735 -2.97119 4.4455 0
M  V30 7388 C 693.035 -0.899972 5.14488 0
M  V30 7389 H 694.729 -0.239783 2.98438 0
M  V30 7390 H 692.275 -0.113891 1.43549 0
M  V30 7391 H 694.228 -2.66012 3.26827 0
M  V30 7392 H 692.952 -2.5587 2.02973 0
M  V30 7393 H 691.611 -1.03133 3.51794 0
M  V30 7394 H 691.259 -3.5058 3.60698 0
M  V30 7395 H 690.959 -2.75073 5.19238 0
M  V30 7396 H 692.483 -3.63753 4.90425 0
M  V30 7397 H 693.897 -1.45818 5.54446 0
M  V30 7398 H 692.294 -0.778968 5.95023 0
M  V30 7399 H 693.364 0.105827 4.84785 0
M  V30 7400 N 694.707 -1.5719 -0.113559 0
M  V30 7401 C 695.932 -1.89702 -0.838336 0
M  V30 7402 C 696.357 -0.752679 -1.72384 0
M  V30 7403 O 695.715 0.296575 -1.78858 0
M  V30 7404 C 695.763 -3.20989 -1.64312 0
M  V30 7405 O 694.867 -3.07278 -2.75053 0
M  V30 7406 H 694.208 -0.622339 -0.231496 0
M  V30 7407 H 696.738 -2.04382 -0.0943228 0
M  V30 7408 H 696.748 -3.53843 -2.03123 0
M  V30 7409 H 695.423 -4.03869 -0.993119 0
M  V30 7410 H 694 -2.85901 -2.39406 0
M  V30 7411 N 696.185 0.383891 -1.52853 0
M  V30 7412 C 697.148 1.45197 -1.77343 0
M  V30 7413 C 698.148 1.47362 -0.643522 0
M  V30 7414 O 699.338 1.48443 -0.911613 0
M  V30 7415 C 696.47 2.8445 -1.87885 0
M  V30 7416 H 697.663 1.24764 -2.72716 0
M  V30 7417 H 695.216 0.615939 -1.43652 0
M  V30 7418 H 695.951 3.10222 -0.94515 0
M  V30 7419 H 695.736 2.8428 -2.70051 0
M  V30 7420 H 697.226 3.61832 -2.08488 0
M  V30 7421 N 697.663 1.43903 0.642637 0
M  V30 7422 C 698.911 1.45791 1.39962 0
M  V30 7423 C 699.232 0.0873144 1.94804 0
M  V30 7424 O 698.502 -0.878825 1.75081 0
M  V30 7425 H 697.082 0.536797 0.519479 0
M  V30 7426 H 699.744 1.7959 0.757189 0
M  V30 7427 H 698.84 2.17665 2.2367 0
M  V30 7428 N 699.141 -0.881989 1.30609 0
M  V30 7429 C 700.381 -1.64817 1.20891 0
M  V30 7430 C 700.745 -1.90593 -0.232043 0
M  V30 7431 O 701.946 -2.64964 -0.452516 0
M  V30 7432 C 700.217 -2.95006 2.01758 0
M  V30 7433 S 701.776 -3.85953 2.08771 0
M  V30 7434 H 698.594 -0.565651 0.430767 0
M  V30 7435 H 701.196 -1.04665 1.65122 0
M  V30 7436 H 699.9 -2.73973 3.0556 0
M  V30 7437 H 699.431 -3.60189 1.582 0
M  V30 7438 H 701.446 -4.81037 1.21727 0
M  V30 7439 N 700.619 -1.13374 -1.09472 0
M  V30 7440 C 701.865 -0.896516 -1.81908 0
M  V30 7441 C 702.198 0.575933 -1.85463 0
M  V30 7442 O 701.473 1.42618 -1.32251 0
M  V30 7443 C 701.756 -1.48445 -3.28079 0
M  V30 7444 C 701.609 -3.02598 -3.32798 0
M  V30 7445 C 702.928 -1.15226 -4.24748 0
M  V30 7446 H 700.047 -0.327127 -0.660422 0
M  V30 7447 H 702.689 -1.40195 -1.2824 0
M  V30 7448 H 700.839 -1.0546 -3.73912 0
M  V30 7449 H 702.511 -3.54335 -2.95372 0
M  V30 7450 H 700.754 -3.37613 -2.72397 0
M  V30 7451 H 701.425 -3.38835 -4.3577 0
M  V30 7452 H 703.901 -1.52369 -3.87199 0
M  V30 7453 H 702.777 -1.59012 -5.25363 0
M  V30 7454 H 703.038 -0.0658891 -4.42051 0
M  V30 7455 N 702.098 1.27442 -0.927168 0
M  V30 7456 C 703.346 1.94007 -0.566203 0
M  V30 7457 C 703.667 1.7323 0.895345 0
M  V30 7458 O 702.937 1.07973 1.63459 0
M  V30 7459 H 701.517 0.717917 -0.206409 0
M  V30 7460 H 704.179 1.55161 -1.17945 0
M  V30 7461 H 703.275 3.02401 -0.772028 0
M  V30 7462 N 703.576 0.692616 1.41565 0
M  V30 7463 C 704.486 0.0258451 2.34586 0
M  V30 7464 C 705.502 -0.769324 1.56069 0
M  V30 7465 O 706.678 -0.707563 1.88562 0
M  V30 7466 C 703.743 -0.901289 3.3478 0
M  V30 7467 C 702.804 -0.0986579 4.29187 0
M  V30 7468 C 702.037 -0.981634 5.24595 0
M  V30 7469 O 702.26 -2.22115 5.25377 0
M  V30 7470 O 701.194 -0.432892 6.00341 0
M  V30 7471 H 705.02 0.792537 2.93177 0
M  V30 7472 H 702.605 0.452935 1.42369 0
M  V30 7473 H 704.487 -1.43302 3.96286 0
M  V30 7474 H 703.162 -1.64752 2.78637 0
M  V30 7475 H 702.069 0.477604 3.71039 0
M  V30 7476 H 703.402 0.608848 4.8842 0
M  V30 7477 N 705.054 -1.51416 0.437162 0
M  V30 7478 C 706.47 -1.59349 0.0894459 0
M  V30 7479 C 706.67 -1.44809 -1.40116 0
M  V30 7480 O 705.726 -1.28924 -2.17106 0
M  V30 7481 C 707.039 -2.9446 0.609398 0
M  V30 7482 C 708.587 -3.07769 0.569824 0
M  V30 7483 C 709.062 -4.45404 1.06675 0
M  V30 7484 N 710.553 -4.51723 1.02473 0
M  V30 7485 C 711.288 -5.56544 1.3801 0
M  V30 7486 N 710.784 -6.68784 1.80831 0
M  V30 7487 N 712.577 -5.46901 1.29828 0
M  V30 7488 H 704.728 -1.59112 1.40703 0
M  V30 7489 H 706.991 -0.750031 0.579791 0
M  V30 7490 H 706.697 -3.1047 1.65231 0
M  V30 7491 H 706.571 -3.77184 0.0342236 0
M  V30 7492 H 708.958 -2.91428 -0.464107 0
M  V30 7493 H 709.039 -2.26885 1.1814 0
M  V30 7494 H 708.683 -4.62492 2.09914 0
M  V30 7495 H 708.613 -5.24827 0.431712 0
M  V30 7496 H 711.104 -3.71165 0.710258 0
M  V30 7497 H 711.417 -7.44787 2.06185 0
M  V30 7498 H 709.762 -6.69992 1.84757 0
M  V30 7499 H 712.953 -4.581 0.962397 0
M  V30 7500 H 713.126 -6.2848 1.57851 0
M  V30 7501 N 706.532 -0.168513 -1.56696 0
M  V30 7502 C 707.781 0.477233 -1.95973 0
M  V30 7503 C 708.094 1.64578 -1.05704 0
M  V30 7504 O 709.3 2.35758 -1.3465 0
M  V30 7505 C 707.756 0.900413 -3.48455 0
M  V30 7506 C 707.364 -0.242382 -4.47344 0
M  V30 7507 C 709.108 1.51474 -3.96555 0
M  V30 7508 C 707.015 0.200272 -5.91061 0
M  V30 7509 H 705.945 0.182061 -0.73169 0
M  V30 7510 H 708.596 -0.256297 -1.81701 0
M  V30 7511 H 706.978 1.68984 -3.58135 0
M  V30 7512 H 708.152 -1.01967 -4.49377 0
M  V30 7513 H 706.467 -0.766484 -4.09285 0
M  V30 7514 H 709.064 1.85792 -5.01384 0
M  V30 7515 H 709.407 2.41163 -3.39332 0
M  V30 7516 H 709.94 0.789802 -3.89881 0
M  V30 7517 H 706.679 -0.661775 -6.52151 0
M  V30 7518 H 706.199 0.942979 -5.92341 0
M  V30 7519 H 707.878 0.645088 -6.43776 0
M  V30 7520 N 708.01 1.57248 0.105221 0
M  V30 7521 C 709.238 1.89768 0.82437 0
M  V30 7522 C 709.653 0.761192 1.72775 0
M  V30 7523 O 709.01 -0.267342 1.80531 0
M  V30 7524 C 709.061 3.2184 1.64625 0
M  V30 7525 O 708.782 4.31115 0.779217 0
M  V30 7526 C 710.283 3.68155 2.46935 0
M  V30 7527 H 707.503 0.628031 0.236259 0
M  V30 7528 H 710.047 2.04321 0.085485 0
M  V30 7529 H 708.202 3.08915 2.33775 0
M  V30 7530 H 708.616 5.06897 1.34745 0
M  V30 7531 H 710.09 4.6329 3.00111 0
M  V30 7532 H 710.567 2.95492 3.24932 0
M  V30 7533 H 711.173 3.83914 1.83002 0
M  V30 7534 N 709.488 -0.375779 1.53054 0
M  V30 7535 C 710.42 -1.47963 1.75042 0
M  V30 7536 C 711.433 -1.50073 0.631031 0
M  V30 7537 O 712.622 -1.53736 0.907052 0
M  V30 7538 C 709.722 -2.86767 1.80604 0
M  V30 7539 C 708.895 -3.08471 3.10104 0
M  V30 7540 C 707.954 -4.27332 3.07041 0
M  V30 7541 O 706.98 -4.22998 3.80869 0
M  V30 7542 N 708.182 -5.34214 2.27147 0
M  V30 7543 H 710.947 -1.29484 2.70285 0
M  V30 7544 H 708.508 -0.565416 1.51706 0
M  V30 7545 H 710.5 -3.64404 1.76045 0
M  V30 7546 H 709.07 -2.98542 0.926897 0
M  V30 7547 H 708.29 -2.18583 3.28048 0
M  V30 7548 H 709.578 -3.19834 3.95706 0
M  V30 7549 H 708.976 -5.40594 1.66656 0
M  V30 7550 H 707.533 -6.10467 2.28415 0
M  V30 7551 N 710.966 -1.44241 -0.634997 0
M  V30 7552 C 711.899 -1.45274 -1.75985 0
M  V30 7553 C 712.877 -0.312025 -1.59578 0
M  V30 7554 O 714.061 -0.508409 -1.81514 0
M  V30 7555 C 711.188 -1.28173 -3.13511 0
M  V30 7556 C 710.234 -2.45757 -3.48576 0
M  V30 7557 S 711.067 -4.08293 -3.46492 0
M  V30 7558 C 712.223 -3.93608 -4.86645 0
M  V30 7559 H 712.456 -2.40454 -1.74841 0
M  V30 7560 H 709.989 -1.31492 -0.809268 0
M  V30 7561 H 711.947 -1.18993 -3.92875 0
M  V30 7562 H 710.608 -0.34511 -3.12198 0
M  V30 7563 H 709.801 -2.29644 -4.48642 0
M  V30 7564 H 709.403 -2.51657 -2.76667 0
M  V30 7565 H 711.695 -3.57059 -5.75774 0
M  V30 7566 H 712.638 -4.9349 -5.07813 0
M  V30 7567 H 713.046 -3.25737 -4.61038 0
M  V30 7568 N 712.444 0.87505 -1.31075 0
M  V30 7569 C 713.376 1.98773 -1.14114 0
M  V30 7570 C 714.389 1.62595 -0.0816119 0
M  V30 7571 O 715.578 1.75449 -0.32861 0
M  V30 7572 C 712.678 3.31159 -0.720224 0
M  V30 7573 C 711.851 3.9571 -1.86366 0
M  V30 7574 C 710.91 5.06407 -1.42965 0
M  V30 7575 O 709.936 5.27501 -2.13848 0
M  V30 7576 N 711.138 5.79649 -0.314194 0
M  V30 7577 H 713.903 2.1387 -2.09951 0
M  V30 7578 H 711.464 1.04873 -1.23342 0
M  V30 7579 H 713.456 4.0259 -0.412687 0
M  V30 7580 H 712.026 3.12257 0.146396 0
M  V30 7581 H 711.246 3.17324 -2.33879 0
M  V30 7582 H 712.534 4.35576 -2.62966 0
M  V30 7583 H 711.932 5.65025 0.276228 0
M  V30 7584 H 710.489 6.51766 -0.0661641 0
M  V30 7585 N 713.922 1.13953 1.08869 0
M  V30 7586 C 715.338 0.878924 1.33218 0
M  V30 7587 C 715.538 -0.482478 1.95638 0
M  V30 7588 O 714.594 -1.22778 2.2064 0
M  V30 7589 C 715.907 2.00798 2.23832 0
M  V30 7590 C 717.455 2.04073 2.37325 0
M  V30 7591 C 717.93 3.16258 3.31278 0
M  V30 7592 N 719.421 3.15805 3.38853 0
M  V30 7593 C 720.156 3.99249 4.11567 0
M  V30 7594 N 719.652 4.92721 4.87029 0
M  V30 7595 N 721.445 3.87327 4.0735 0
M  V30 7596 H 713.596 2.01645 0.66731 0
M  V30 7597 H 715.859 0.878395 0.356547 0
M  V30 7598 H 715.565 2.98986 1.85203 0
M  V30 7599 H 715.439 1.92704 3.24261 0
M  V30 7600 H 717.826 1.06495 2.75214 0
M  V30 7601 H 717.907 2.16239 1.36654 0
M  V30 7602 H 717.551 4.14079 2.9411 0
M  V30 7603 H 717.481 3.0133 4.31866 0
M  V30 7604 H 719.972 2.48102 2.8505 0
M  V30 7605 H 720.285 5.52867 5.39961 0
M  V30 7606 H 718.63 4.96723 4.86098 0
M  V30 7607 H 721.821 3.13627 3.475 0
M  V30 7608 H 721.994 4.52585 4.63757 0
M  V30 7609 N 715.4 -1.26948 0.933913 0
M  V30 7610 C 716.33 -2.29017 0.45534 0
M  V30 7611 C 717.311 -1.62961 -0.487605 0
M  V30 7612 O 718.496 -1.90223 -0.391022 0
M  V30 7613 C 715.626 -3.46112 -0.287015 0
M  V30 7614 C 714.58 -4.24205 0.568682 0
M  V30 7615 C 713.906 -5.3384 -0.303206 0
M  V30 7616 C 715.206 -4.88954 1.83633 0
M  V30 7617 H 716.9 -2.69298 1.30839 0
M  V30 7618 H 714.446 -1.29459 0.630579 0
M  V30 7619 H 716.399 -4.16622 -0.6328 0
M  V30 7620 H 715.123 -3.04765 -1.17414 0
M  V30 7621 H 713.782 -3.5545 0.897261 0
M  V30 7622 H 713.43 -4.88734 -1.18947 0
M  V30 7623 H 713.13 -5.86998 0.265879 0
M  V30 7624 H 714.654 -6.0719 -0.644423 0
M  V30 7625 H 716.068 -5.51717 1.55823 0
M  V30 7626 H 714.465 -5.52198 2.34941 0
M  V30 7627 H 715.535 -4.12305 2.55211 0
M  V30 7628 N 716.879 -0.700114 -1.41195 0
M  V30 7629 C 718.107 -0.242179 -2.05478 0
M  V30 7630 C 718.522 1.11029 -1.52702 0
M  V30 7631 O 717.879 1.69473 -0.677127 0
M  V30 7632 C 717.93 -0.196271 -3.60967 0
M  V30 7633 O 717.651 -1.49532 -4.11791 0
M  V30 7634 C 719.152 0.282102 -4.42401 0
M  V30 7635 H 716.372 -0.111749 -0.661629 0
M  V30 7636 H 718.916 -0.953975 -1.80885 0
M  V30 7637 H 717.071 0.46638 -3.84582 0
M  V30 7638 H 717.485 -1.38545 -5.05871 0
M  V30 7639 H 718.959 0.263093 -5.51373 0
M  V30 7640 H 719.436 1.32174 -4.1884 0
M  V30 7641 H 720.042 -0.349712 -4.2386 0
M  V30 7642 N 718.357 1.51182 -0.445186 0
M  V30 7643 C 719.305 2.29531 0.376597 0
M  V30 7644 C 720.299 1.35711 1.01385 0
M  V30 7645 O 721.505 1.53018 0.947922 0
M  V30 7646 H 717.88 0.738803 0.140267 0
M  V30 7647 H 719.851 2.96838 -0.304958 0
M  V30 7648 C 718.6 3.1552 1.4609 0
M  V30 7649 H 717.923 3.87605 0.979912 0
M  V30 7650 H 719.363 3.73384 2.009 0
M  V30 7651 C 717.822 2.31406 2.44852 0
M  V30 7652 O 718.352 1.97912 3.49562 0
M  V30 7653 N 716.558 1.94478 2.15932 0
M  V30 7654 H 716.105 2.21917 1.30808 0
M  V30 7655 H 716.063 1.38498 2.82251 0
M  V30 7656 N 719.835 0.176821 1.56605 0
M  V30 7657 C 721.084 -0.466833 1.96223 0
M  V30 7658 C 721.397 -1.64015 1.06576 0
M  V30 7659 O 722.603 -2.3504 1.35898 0
M  V30 7660 C 721.059 -0.881921 3.48927 0
M  V30 7661 C 720.667 0.266102 4.47209 0
M  V30 7662 C 722.411 -1.49368 3.97353 0
M  V30 7663 C 720.318 -0.168923 5.91159 0
M  V30 7664 H 719.248 -0.178178 0.732645 0
M  V30 7665 H 721.899 0.265929 1.81563 0
M  V30 7666 H 720.281 -1.67082 3.59026 0
M  V30 7667 H 721.455 1.04349 4.4883 0
M  V30 7668 H 719.77 0.788178 4.08872 0
M  V30 7669 H 722.367 -1.8313 5.02362 0
M  V30 7670 H 722.71 -2.3936 3.40606 0
M  V30 7671 H 723.243 -0.769114 3.90294 0
M  V30 7672 H 719.982 0.696351 6.51791 0
M  V30 7673 H 719.502 -0.911552 5.92833 0
M  V30 7674 H 721.181 -0.610938 6.44109 0
M  V30 7675 N 721.313 -1.57302 -0.09688 0
M  V30 7676 C 722.562 -1.85183 -0.799388 0
M  V30 7677 C 722.875 -0.765818 -1.79985 0
M  V30 7678 O 724.081 -0.931696 -2.55013 0
M  V30 7679 C 722.537 -3.28399 -1.47249 0
M  V30 7680 C 722.145 -4.45066 -0.511888 0
M  V30 7681 C 723.889 -3.65506 -2.15883 0
M  V30 7682 C 721.796 -5.79315 -1.18948 0
M  V30 7683 H 720.726 -0.690752 -0.302287 0
M  V30 7684 H 723.377 -1.83425 -0.0523104 0
M  V30 7685 H 721.759 -3.24692 -2.26697 0
M  V30 7686 H 722.933 -4.60116 0.250962 0
M  V30 7687 H 721.248 -4.16343 0.0686576 0
M  V30 7688 H 723.845 -4.63087 -2.67309 0
M  V30 7689 H 724.188 -2.94041 -2.94696 0
M  V30 7690 H 724.721 -3.71094 -1.43298 0
M  V30 7691 H 721.46 -6.54007 -0.442198 0
M  V30 7692 H 720.98 -5.68111 -1.9238 0
M  V30 7693 H 722.659 -6.23816 -1.71646 0
M  V30 7694 N 722.791 0.367657 -1.53252 0
M  V30 7695 C 724.019 1.13119 -1.73239 0
M  V30 7696 C 724.434 1.831 -0.460404 0
M  V30 7697 O 723.791 1.73483 0.566557 0
M  V30 7698 C 723.842 2.16308 -2.89643 0
M  V30 7699 O 723.563 1.49175 -4.1192 0
M  V30 7700 C 725.064 3.05224 -3.21486 0
M  V30 7701 H 722.284 0.338318 -0.579467 0
M  V30 7702 H 724.828 0.42721 -1.99988 0
M  V30 7703 H 722.983 2.82307 -2.65295 0
M  V30 7704 H 723.397 2.17912 -4.7709 0
M  V30 7705 H 724.871 3.73613 -4.06346 0
M  V30 7706 H 725.348 3.69919 -2.36763 0
M  V30 7707 H 725.954 2.44843 -3.47753 0
M  V30 7708 N 724.269 1.44576 0.627338 0
M  V30 7709 C 725.497 1.51048 1.41394 0
M  V30 7710 C 725.912 0.136568 1.88305 0
M  V30 7711 O 725.269 -0.858251 1.6106 0
M  V30 7712 C 725.32 2.47837 2.63172 0
M  V30 7713 O 725.041 3.79887 2.18215 0
M  V30 7714 C 726.542 2.63811 3.56257 0
M  V30 7715 H 723.762 0.512171 0.4335 0
M  V30 7716 H 726.306 1.89576 0.766878 0
M  V30 7717 H 724.461 2.12433 3.23961 0
M  V30 7718 H 724.875 4.32177 2.97192 0
M  V30 7719 H 726.349 3.35554 4.38301 0
M  V30 7720 H 726.826 1.69169 4.05313 0
M  V30 7721 H 727.432 3.0013 3.01333 0
M  V30 7722 N 725.747 -0.868086 1.31537 0
M  V30 7723 C 726.657 -2.00801 1.21311 0
M  V30 7724 C 727.673 -1.73518 0.129431 0
M  V30 7725 O 728.849 -1.98378 0.347588 0
M  V30 7726 C 725.914 -3.3419 0.922935 0
M  V30 7727 C 724.975 -3.74783 2.0937 0
M  V30 7728 C 724.208 -5.01807 1.81728 0
M  V30 7729 O 724.431 -5.65404 0.753313 0
M  V30 7730 O 723.365 -5.39213 2.67457 0
M  V30 7731 H 727.191 -2.12361 2.17109 0
M  V30 7732 H 724.776 -0.996684 1.11295 0
M  V30 7733 H 726.658 -4.14174 0.777033 0
M  V30 7734 H 725.333 -3.237 -0.00500301 0
M  V30 7735 H 724.24 -2.95432 2.29501 0
M  V30 7736 H 725.573 -3.89902 3.00396 0
M  V30 7737 N 727.225 -1.14528 -1.08264 0
M  V30 7738 C 728.502 -0.825185 -1.77342 0
M  V30 7739 C 728.882 0.681037 -1.99813 0
M  V30 7740 O 728.23 1.62234 -1.60912 0
M  V30 7741 C 728.44 -1.62556 -3.08831 0
M  V30 7742 C 729.788 -1.82585 -3.83338 0
M  V30 7743 O 730.812 -1.59254 -3.18617 0
M  V30 7744 O 729.671 -2.21598 -4.99556 0
M  V30 7745 H 726.765 -0.302531 -0.769678 0
M  V30 7746 H 729.311 -1.25056 -1.14713 0
M  V30 7747 H 728.083 -2.64862 -2.88035 0
M  V30 7748 H 727.706 -1.1959 -3.79189 0
M  V30 7749 N 728.703 1.26451 -0.940633 0
M  V30 7750 C 729.952 1.93071 -0.583656 0
M  V30 7751 C 730.265 1.74618 0.881366 0
M  V30 7752 O 731.471 2.35689 1.34769 0
M  V30 7753 C 729.927 3.45927 -0.993106 0
M  V30 7754 C 729.535 3.73115 -2.4797 0
M  V30 7755 C 731.279 4.18554 -0.707998 0
M  V30 7756 C 729.186 5.19408 -2.82788 0
M  V30 7757 H 728.116 0.722824 -0.214572 0
M  V30 7758 H 730.767 1.43538 -1.1432 0
M  V30 7759 H 729.149 3.94341 -0.362099 0
M  V30 7760 H 730.323 3.35408 -3.15971 0
M  V30 7761 H 728.638 3.13719 -2.73805 0
M  V30 7762 H 731.235 5.26293 -0.94447 0
M  V30 7763 H 731.578 4.14782 0.355225 0
M  V30 7764 H 732.111 3.76003 -1.2987 0
M  V30 7765 H 728.85 5.28281 -3.88071 0
M  V30 7766 H 728.37 5.58214 -2.19449 0
M  V30 7767 H 730.049 5.87407 -2.71224 0
M  V30 7768 N 730.181 0.707592 1.40822 0
M  V30 7769 C 731.427 0.244031 2.01326 0
M  V30 7770 C 731.76 -1.15722 1.55955 0
M  V30 7771 O 731.035 -1.78347 0.776044 0
M  V30 7772 C 731.318 0.315128 3.58718 0
M  V30 7773 C 731.171 1.75419 4.14184 0
M  V30 7774 C 732.49 -0.318251 4.38948 0
M  V30 7775 H 729.609 0.0901471 0.731466 0
M  V30 7776 H 732.251 0.898584 1.67408 0
M  V30 7777 H 730.401 -0.242176 3.87744 0
M  V30 7778 H 732.073 2.36626 3.95987 0
M  V30 7779 H 730.316 2.28449 3.68773 0
M  V30 7780 H 730.987 1.75538 5.23345 0
M  V30 7781 H 733.463 0.156514 4.15806 0
M  V30 7782 H 732.339 -0.238019 5.48384 0
M  V30 7783 H 732.6 -1.40067 4.19325 0
M  V30 7784 N 731.66 -1.50943 0.453197 0
M  V30 7785 C 732.888 -2.06628 -0.106135 0
M  V30 7786 C 733.303 -1.31901 -1.35084 0
M  V30 7787 O 732.66 -0.383074 -1.78434 0
M  V30 7788 C 732.711 -3.5914 -0.412368 0
M  V30 7789 O 732.432 -4.31047 0.782948 0
M  V30 7790 C 733.933 -4.31391 -1.02064 0
M  V30 7791 H 731.153 -0.670999 -0.000885896 0
M  V30 7792 H 733.697 -1.94331 0.63684 0
M  V30 7793 H 731.852 -3.71299 -1.10526 0
M  V30 7794 H 732.266 -5.21948 0.516736 0
M  V30 7795 H 733.74 -5.39135 -1.1848 0
M  V30 7796 H 734.217 -3.90714 -2.00598 0
M  V30 7797 H 734.823 -4.23716 -0.366664 0
M  V30 7798 N 733.138 -0.185124 -1.56509 0
M  V30 7799 C 734.384 0.456934 -1.97585 0
M  V30 7800 C 734.717 1.61957 -1.07161 0
M  V30 7801 O 733.992 1.9412 -0.121546 0
M  V30 7802 C 734.275 0.926666 -3.47973 0
M  V30 7803 C 734.128 -0.237097 -4.49175 0
M  V30 7804 C 735.447 1.79561 -4.01803 0
M  V30 7805 H 732.566 0.164619 -0.71838 0
M  V30 7806 H 735.208 -0.274039 -1.88013 0
M  V30 7807 H 733.358 1.54954 -3.56261 0
M  V30 7808 H 735.03 -0.87454 -4.52934 0
M  V30 7809 H 733.273 -0.890446 -4.24563 0
M  V30 7810 H 733.944 0.133924 -5.51838 0
M  V30 7811 H 736.42 1.27039 -3.96232 0
M  V30 7812 H 735.296 2.09327 -5.07418 0
M  V30 7813 H 735.557 2.74629 -3.46455 0
M  V30 7814 N 734.616 1.57351 0.0885366 0
M  V30 7815 C 735.862 1.86696 0.791996 0
M  V30 7816 C 736.195 0.775148 1.78059 0
M  V30 7817 O 735.47 -0.216247 1.93294 0
M  V30 7818 C 735.753 3.26684 1.51491 0
M  V30 7819 C 735.606 4.465 0.543858 0
M  V30 7820 C 736.925 3.64664 2.46391 0
M  V30 7821 H 734.044 0.679049 0.286463 0
M  V30 7822 H 736.686 1.89919 0.0554866 0
M  V30 7823 H 734.836 3.24067 2.14273 0
M  V30 7824 H 736.508 4.61235 -0.0774597 0
M  V30 7825 H 734.751 4.33567 -0.142228 0
M  V30 7826 H 735.422 5.41192 1.08696 0
M  V30 7827 H 737.898 3.68267 1.93698 0
M  V30 7828 H 736.774 4.63534 2.93986 0
M  V30 7829 H 737.035 2.93698 3.30445 0
M  V30 7830 N 736.094 -0.359525 1.53444 0
M  V30 7831 C 737.322 -1.12198 1.73837 0
M  V30 7832 C 737.737 -1.82854 0.470107 0
M  V30 7833 O 737.094 -1.73781 -0.557349 0
M  V30 7834 C 737.145 -2.14769 2.90786 0
M  V30 7835 O 736.866 -1.46989 4.12706 0
M  V30 7836 C 738.367 -3.03514 3.231 0
M  V30 7837 H 735.587 -0.33524 0.581253 0
M  V30 7838 H 738.131 -0.416598 2.00212 0
M  V30 7839 H 736.286 -2.80896 2.66788 0
M  V30 7840 H 736.7 -2.15378 4.78239 0
M  V30 7841 H 738.174 -3.71453 4.08322 0
M  V30 7842 H 738.651 -3.68658 2.38721 0
M  V30 7843 H 739.257 -2.42996 3.49046 0
M  V30 7844 N 737.572 -1.44907 -0.619662 0
M  V30 7845 C 738.505 -1.47133 -1.74434 0
M  V30 7846 C 739.483 -0.328933 -1.59238 0
M  V30 7847 O 740.667 -0.527632 -1.80965 0
M  V30 7848 C 737.794 -1.31491 -3.12134 0
M  V30 7849 C 736.84 -2.49441 -3.4595 0
M  V30 7850 S 737.673 -4.11945 -3.42142 0
M  V30 7851 C 738.829 -3.98747 -4.82443 0
M  V30 7852 H 739.062 -2.42295 -1.7228 0
M  V30 7853 H 736.595 -1.32343 -0.795276 0
M  V30 7854 H 738.553 -1.23153 -3.91591 0
M  V30 7855 H 737.214 -0.378203 -3.11815 0
M  V30 7856 H 736.407 -2.3439 -4.46181 0
M  V30 7857 H 736.009 -2.54577 -2.73982 0
M  V30 7858 H 738.301 -3.63145 -5.71954 0
M  V30 7859 H 739.244 -4.98848 -5.0255 0
M  V30 7860 H 739.652 -3.30608 -4.57557 0
M  V30 7861 N 739.05 0.861098 -1.31996 0
M  V30 7862 C 740.296 1.61721 -1.22369 0
M  V30 7863 C 740.629 1.93 0.215587 0
M  V30 7864 O 739.904 1.56789 1.15098 0
M  V30 7865 C 740.187 2.9417 -2.07691 0
M  V30 7866 C 740.04 2.69714 -3.59965 0
M  V30 7867 C 741.359 3.95372 -1.93312 0
M  V30 7868 H 738.478 0.586822 -0.44588 0
M  V30 7869 H 741.12 0.994788 -1.61876 0
M  V30 7870 H 739.27 3.47292 -1.74128 0
M  V30 7871 H 740.942 2.23196 -4.03709 0
M  V30 7872 H 739.185 2.03789 -3.82952 0
M  V30 7873 H 739.856 3.63996 -4.14983 0
M  V30 7874 H 742.332 3.51487 -2.22701 0
M  V30 7875 H 741.208 4.85916 -2.55298 0
M  V30 7876 H 741.469 4.32865 -0.898922 0
M  V30 7877 N 740.528 1.15101 1.07655 0
M  V30 7878 C 741.756 0.947731 1.83918 0
M  V30 7879 C 742.171 -0.503927 1.81951 0
M  V30 7880 O 741.528 -1.34941 1.2287 0
M  V30 7881 C 741.579 1.4503 3.31132 0
M  V30 7882 O 741.3 2.84508 3.33146 0
M  V30 7883 C 742.801 1.28806 4.24174 0
M  V30 7884 H 740.021 0.336786 0.580358 0
M  V30 7885 H 742.565 1.52799 1.35914 0
M  V30 7886 H 740.72 0.912632 3.76497 0
M  V30 7887 H 741.134 3.0723 4.251 0
M  V30 7888 H 742.608 1.6882 5.25551 0
M  V30 7889 H 743.085 0.231851 4.38588 0
M  V30 7890 H 743.691 1.81465 3.84643 0
M  V30 7891 N 742.006 -1.2595 0.947325 0
M  V30 7892 C 742.954 -2.28152 0.452687 0
M  V30 7893 C 743.948 -1.62655 -0.473239 0
M  V30 7894 O 745.154 -1.76549 -0.350774 0
M  V30 7895 H 741.529 -0.741049 0.12787 0
M  V30 7896 H 743.5 -2.67267 1.32707 0
M  V30 7897 C 742.249 -3.46719 -0.26098 0
M  V30 7898 H 741.572 -3.97345 0.442352 0
M  V30 7899 H 743.012 -4.20135 -0.571208 0
M  V30 7900 C 741.471 -3.02605 -1.48094 0
M  V30 7901 O 742.001 -3.07979 -2.57899 0
M  V30 7902 N 740.207 -2.57877 -1.33969 0
M  V30 7903 H 739.754 -2.53704 -0.446295 0
M  V30 7904 H 739.712 -2.28725 -2.15713 0
M  V30 7905 N 743.484 -0.715051 -1.40445 0
M  V30 7906 C 744.73 -0.254705 -2.01194 0
M  V30 7907 C 745.063 1.14894 -1.56567 0
M  V30 7908 O 744.338 1.77933 -0.785491 0
M  V30 7909 C 744.621 -0.334148 -3.58546 0
M  V30 7910 C 744.474 -1.77613 -4.13248 0
M  V30 7911 C 745.793 0.294968 -4.3911 0
M  V30 7912 H 742.912 -0.094025 -0.730978 0
M  V30 7913 H 745.554 -0.907449 -1.66929 0
M  V30 7914 H 743.704 0.221609 -3.87867 0
M  V30 7915 H 745.376 -2.38723 -3.94727 0
M  V30 7916 H 743.619 -2.30402 -3.67556 0
M  V30 7917 H 744.29 -1.78311 -5.22407 0
M  V30 7918 H 746.766 -0.178563 -4.15717 0
M  V30 7919 H 745.642 0.208934 -5.48502 0
M  V30 7920 H 745.903 1.37841 -4.20062 0
M  V30 7921 N 744.962 1.50701 -0.461195 0
M  V30 7922 C 746.239 1.94958 0.158296 0
M  V30 7923 C 746.619 1.40111 1.57899 0
M  V30 7924 O 745.967 0.597976 2.20537 0
M  V30 7925 C 746.177 3.48821 0.11172 0
M  V30 7926 C 747.525 4.23499 0.30552 0
M  V30 7927 O 748.549 3.557 0.188758 0
M  V30 7928 O 747.408 5.43823 0.540244 0
M  V30 7929 H 744.502 0.818674 0.117054 0
M  V30 7930 H 747.048 1.61508 -0.520888 0
M  V30 7931 H 745.82 3.81263 -0.880577 0
M  V30 7932 H 745.443 3.88781 0.832791 0
M  V30 7933 N 746.441 0.193421 1.56409 0
M  V30 7934 C 747.688 -0.445789 1.97532 0
M  V30 7935 C 748.016 -1.61744 1.08024 0
M  V30 7936 O 747.271 -1.95338 0.118982 0
M  V30 7937 C 747.57 -0.949718 3.44551 0
M  V30 7938 C 747.236 0.108383 4.5077 0
M  V30 7939 C 745.898 0.399126 4.79542 0
M  V30 7940 C 748.25 0.825423 5.14622 0
M  V30 7941 C 745.578 1.41192 5.69457 0
M  V30 7942 C 747.93 1.82735 6.05632 0
M  V30 7943 C 746.594 2.12531 6.32761 0
M  V30 7944 H 745.864 -0.163126 0.722822 0
M  V30 7945 H 748.511 0.290035 1.89291 0
M  V30 7946 H 746.816 -1.76378 3.49854 0
M  V30 7947 H 748.513 -1.45367 3.73724 0
M  V30 7948 H 745.103 -0.128392 4.28408 0
M  V30 7949 H 749.287 0.61403 4.92487 0
M  V30 7950 H 744.543 1.6487 5.88751 0
M  V30 7951 H 748.717 2.3882 6.5417 0
M  V30 7952 H 746.344 2.91155 7.02234 0
M  V30 7953 N 747.919 -1.57396 -0.0801906 0
M  V30 7954 C 749.33 -1.75642 -0.633002 0
M  V30 7955 C 749.681 -0.817708 -1.78348 0
M  V30 7956 O 748.806 0.000233743 -2.164 0
M  V30 7957 C 749.401 -3.18502 -1.15507 0
M  V30 7958 C 747.96 -3.38121 -1.65381 0
M  V30 7959 C 747.107 -2.71386 -0.569661 0
M  V30 7960 H 750.058 -1.58027 0.145949 0
M  V30 7961 H 750.079 -3.22198 -2.02408 0
M  V30 7962 H 749.591 -3.86799 -0.317515 0
M  V30 7963 H 747.692 -2.74926 -2.51488 0
M  V30 7964 H 747.805 -4.46521 -1.73654 0
M  V30 7965 H 746.169 -2.33702 -1.0127 0
M  V30 7966 H 746.952 -3.42332 0.257561 0
M  V30 7967 N 749.397 0.351382 -1.53633 0
M  V30 7968 C 750.808 0.927429 -1.62036 0
M  V30 7969 C 751.159 1.89809 -0.496706 0
M  V30 7970 O 750.284 2.1313 0.374749 0
M  V30 7971 C 750.879 1.68886 -2.93706 0
M  V30 7972 C 749.438 2.21404 -3.04397 0
M  V30 7973 C 748.585 1.03075 -2.57431 0
M  V30 7974 H 751.536 0.129748 -1.58169 0
M  V30 7975 H 751.557 2.55116 -2.82305 0
M  V30 7976 H 751.069 0.982149 -3.75467 0
M  V30 7977 H 749.17 2.95274 -2.27253 0
M  V30 7978 H 749.283 2.48312 -4.09729 0
M  V30 7979 H 747.647 1.40188 -2.12649 0
M  V30 7980 H 748.43 0.338793 -3.41624 0
M  V30 7981 N 750.875 1.45233 0.611969 0
M  V30 7982 C 751.822 1.5357 1.72293 0
M  V30 7983 C 752.792 0.381912 1.6165 0
M  V30 7984 O 753.977 0.594765 1.81293 0
M  V30 7985 C 751.117 1.50419 3.10593 0
M  V30 7986 C 750.23 2.76316 3.32074 0
M  V30 7987 C 749.365 2.64866 4.60456 0
M  V30 7988 C 748.404 3.85838 4.7518 0
M  V30 7989 N 747.541 3.72949 5.94856 0
M  V30 7990 H 752.381 2.4848 1.64504 0
M  V30 7991 H 749.918 1.23302 0.802191 0
M  V30 7992 H 751.876 1.4658 3.90602 0
M  V30 7993 H 750.506 0.590621 3.17351 0
M  V30 7994 H 749.558 2.90261 2.45872 0
M  V30 7995 H 750.87 3.66055 3.38829 0
M  V30 7996 H 750.024 2.58969 5.48653 0
M  V30 7997 H 748.763 1.72719 4.56092 0
M  V30 7998 H 747.768 3.92099 3.85407 0
M  V30 7999 H 748.993 4.79045 4.81344 0
M  V30 8000 H 746.939 2.83567 5.91545 0
M  V30 8001 H 746.856 4.56319 6.02751 0
M  V30 8002 H 748.124 3.70976 6.85563 0
M  V30 8003 N 752.353 -0.854086 1.3245 0
M  V30 8004 C 753.263 -1.99503 1.23434 0
M  V30 8005 C 754.279 -1.73371 0.147828 0
M  V30 8006 O 755.455 -1.97998 0.368609 0
M  V30 8007 C 752.52 -3.33192 0.958328 0
M  V30 8008 C 751.581 -3.72542 2.13333 0
M  V30 8009 C 750.814 -4.99852 1.8704 0
M  V30 8010 O 751.037 -5.64573 0.813239 0
M  V30 8011 O 749.971 -5.36345 2.73161 0
M  V30 8012 H 753.797 -2.10046 2.1935 0
M  V30 8013 H 751.382 -0.984823 1.12346 0
M  V30 8014 H 753.264 -4.13327 0.820918 0
M  V30 8015 H 751.939 -3.23687 0.0293299 0
M  V30 8016 H 750.846 -2.92981 2.32622 0
M  V30 8017 H 752.179 -3.86694 3.04514 0
M  V30 8018 N 753.831 -1.1567 -1.07043 0
M  V30 8019 C 755.056 -0.957946 -1.83952 0
M  V30 8020 C 755.481 0.488807 -1.81638 0
M  V30 8021 O 754.839 1.34869 -1.21162 0
M  V30 8022 C 754.887 -1.48064 -3.288 0
M  V30 8023 O 753.991 -0.681921 -4.06723 0
M  V30 8024 H 753.332 -0.341453 -0.569479 0
M  V30 8025 H 755.862 -1.53728 -1.35015 0
M  V30 8026 H 755.872 -1.49484 -3.7963 0
M  V30 8027 H 754.547 -2.53388 -3.29799 0
M  V30 8028 H 753.124 -0.737612 -3.65532 0
M  V30 8029 N 755.309 1.25446 -0.953992 0
M  V30 8030 C 756.534 1.97755 -0.625129 0
M  V30 8031 C 756.959 1.70437 0.795787 0
M  V30 8032 O 756.317 0.95992 1.53803 0
M  V30 8033 C 756.365 3.49463 -0.889251 0
M  V30 8034 O 755.469 4.12387 0.0322757 0
M  V30 8035 H 754.81 0.61998 -0.237742 0
M  V30 8036 H 757.34 1.59582 -1.28041 0
M  V30 8037 H 757.35 3.99772 -0.815263 0
M  V30 8038 H 756.025 3.68676 -1.92487 0
M  V30 8039 H 754.602 3.72782 -0.0938625 0
M  V30 8040 N 756.787 0.722489 1.40064 0
M  V30 8041 C 757.717 0.0892452 2.33329 0
M  V30 8042 C 758.698 -0.737992 1.53257 0
M  V30 8043 O 759.883 -0.685516 1.81698 0
M  V30 8044 C 757.013 -0.828139 3.37282 0
M  V30 8045 C 755.967 -0.106005 4.27869 0
M  V30 8046 C 755.293 -1.13957 5.22415 0
M  V30 8047 C 756.593 1.04395 5.11761 0
M  V30 8048 H 758.287 0.868269 2.86534 0
M  V30 8049 H 755.833 0.418982 1.3777 0
M  V30 8050 H 757.786 -1.28058 4.01471 0
M  V30 8051 H 756.51 -1.63914 2.82489 0
M  V30 8052 H 755.169 0.326683 3.65142 0
M  V30 8053 H 754.817 -1.9438 4.63924 0
M  V30 8054 H 754.517 -0.661233 5.83868 0
M  V30 8055 H 756.041 -1.59197 5.89482 0
M  V30 8056 H 757.455 0.670541 5.69365 0
M  V30 8057 H 755.852 1.4511 5.82291 0
M  V30 8058 H 756.922 1.87144 4.47331 0
M  V30 8059 O 758.304 -1.49494 0.611055 0
M  V30 8060 H 758.995 -1.93303 0.123934 0
M  V30 END ATOM
M  V30 BEGIN BOND
M  V30 END BOND
M  V30 END CTAB
M  END
$$$$
