drugbank_target|P27302 Transketolase 1 (DB01987)
 OpenBabel12092120293D

  0  0  0     0  0            999 V3000
M  V30 BEGIN CTAB
M  V30 COUNTS 10037 10155 0 0 0
M  V30 BEGIN ATOM
M  V30 1 H -0.908 1.98254 -0.117106 0
M  V30 2 N 0 1.576 0 0
M  V30 3 C 0.933 2.03868 1.02534 0
M  V30 4 C 1.911 0.928543 1.3348 0
M  V30 5 O 3.095 1.19667 1.45644 0
M  V30 6 C 0.222 2.43627 2.35294 0
M  V30 7 C -0.732 3.65373 2.2001 0
M  V30 8 S 0.101 5.13292 1.52614 0
M  V30 9 C 1.257 5.56322 2.86805 0
M  V30 10 H 1.49 2.90518 0.631377 0
M  V30 11 H -0.977 1.52953 0.210867 0
M  V30 12 H 0.981 2.67203 3.11629 0
M  V30 13 H -0.358 1.57376 2.7183 0
M  V30 14 H -1.165 3.90944 3.18086 0
M  V30 15 H -1.563 3.418 1.51819 0
M  V30 16 H 0.729 5.58782 3.83104 0
M  V30 17 H 1.672 6.56266 2.65933 0
M  V30 18 H 2.08 4.83886 2.90714 0
M  V30 19 N 1.4781 -0.272755 1.55222 0
M  V30 20 C 2.7031 -1.02683 1.80197 0
M  V30 21 C 3.1281 -1.79142 0.573551 0
M  V30 22 O 2.4861 -1.74917 -0.476849 0
M  V30 23 C 2.5341 -1.9609 3.02624 0
M  V30 24 O 1.6381 -3.04863 2.77727 0
M  V30 25 H 0.9791 -0.293557 0.595584 0
M  V30 26 H 3.5091 -0.30159 2.02365 0
M  V30 27 H 3.5191 -2.38039 3.31363 0
M  V30 28 H 2.1941 -1.39851 3.91682 0
M  V30 29 H 0.7711 -2.67228 2.60084 0
M  V30 30 N 2.9562 -1.48159 -0.537278 0
M  V30 31 C 4.1812 -1.59707 -1.32319 0
M  V30 32 C 4.6062 -0.254859 -1.86365 0
M  V30 33 O 3.9642 0.772378 -1.64024 0
M  V30 34 C 4.0122 -2.6412 -2.45505 0
M  V30 35 O 3.1162 -2.20774 -3.48328 0
M  V30 36 H 2.4572 -0.535791 -0.392204 0
M  V30 37 H 4.9872 -1.94092 -0.647268 0
M  V30 38 H 4.9972 -2.85166 -2.91795 0
M  V30 39 H 3.6722 -3.61567 -2.05528 0
M  V30 40 H 2.2492 -2.09911 -3.08207 0
M  V30 41 N 4.4343 0.785586 -1.36625 0
M  V30 42 C 5.8503 1.08419 -1.17122 0
M  V30 43 C 6.0503 2.015 0.00208491 0
M  V30 44 O 5.1063 2.43551 0.666278 0
M  V30 45 C 6.4193 1.69498 -2.48377 0
M  V30 46 C 7.9673 1.81821 -2.54775 0
M  V30 47 C 8.4423 2.46315 -3.86126 0
M  V30 48 N 9.9333 2.53779 -3.87492 0
M  V30 49 C 10.6683 3.045 -4.85868 0
M  V30 50 N 10.1643 3.55499 -5.94637 0
M  V30 51 N 11.9573 3.03247 -4.73284 0
M  V30 52 H 4.1083 0.167264 -2.1174 0
M  V30 53 H 6.3713 0.13682 -0.938075 0
M  V30 54 H 6.0773 1.08571 -3.34522 0
M  V30 55 H 5.9513 2.6896 -2.64462 0
M  V30 56 H 8.3383 2.41884 -1.69045 0
M  V30 57 H 8.4193 0.811532 -2.42586 0
M  V30 58 H 8.0633 1.86895 -4.72263 0
M  V30 59 H 7.9933 3.47561 -3.95612 0
M  V30 60 H 10.4843 2.17672 -3.08913 0
M  V30 61 H 10.7973 3.92562 -6.65669 0
M  V30 62 H 9.1423 3.5364 -5.98301 0
M  V30 63 H 12.3333 2.62696 -3.87438 0
M  V30 64 H 12.5063 3.42467 -5.50109 0
M  V30 65 N 5.9124 1.20967 1.01018 0
M  V30 66 C 6.8594 0.964281 2.09691 0
M  V30 67 C 7.8294 -0.107853 1.65749 0
M  V30 68 O 9.0144 0.0381987 1.90762 0
M  V30 69 C 6.1544 0.52943 3.41015 0
M  V30 70 C 5.2674 1.67043 3.98398 0
M  V30 71 C 4.4024 1.18525 5.17808 0
M  V30 72 C 3.4414 2.29892 5.67288 0
M  V30 73 N 2.5784 1.82546 6.77954 0
M  V30 74 H 7.4184 1.89463 2.30017 0
M  V30 75 H 4.9554 0.944289 1.1279 0
M  V30 76 H 6.9134 0.258588 4.16398 0
M  V30 77 H 5.5434 -0.363919 3.20742 0
M  V30 78 H 4.5954 2.05603 3.20049 0
M  V30 79 H 5.9074 2.50877 4.31117 0
M  V30 80 H 5.0614 0.870762 6.00419 0
M  V30 81 H 3.8004 0.316887 4.86669 0
M  V30 82 H 2.8054 2.6215 4.83278 0
M  V30 83 H 4.0304 3.17216 6.00459 0
M  V30 84 H 1.9764 0.980454 6.48632 0
M  V30 85 H 1.8934 2.59956 7.09901 0
M  V30 86 H 3.1614 1.54115 7.64113 0
M  V30 87 N 7.3905 -1.2043 1.01659 0
M  V30 88 C 8.3005 -2.2689 0.596484 0
M  V30 89 C 9.3165 -1.70107 -0.36599 0
M  V30 90 O 10.4925 -2.00117 -0.226942 0
M  V30 91 C 7.5575 -3.4665 -0.0586659 0
M  V30 92 C 6.6185 -4.18662 0.949751 0
M  V30 93 C 5.8515 -5.32705 0.32577 0
M  V30 94 O 6.0745 -5.63656 -0.874509 0
M  V30 95 O 5.0085 -5.92803 1.04249 0
M  V30 96 H 8.8345 -2.65041 1.4828 0
M  V30 97 H 6.4195 -1.27048 0.786082 0
M  V30 98 H 8.3015 -4.19256 -0.424564 0
M  V30 99 H 6.9765 -3.10375 -0.91918 0
M  V30 100 H 5.8835 -3.48229 1.36702 0
M  V30 101 H 7.2165 -4.58878 1.78023 0
M  V30 102 N 8.8686 -0.792821 -1.36206 0
M  V30 103 C 9.7986 -0.207853 -2.32573 0
M  V30 104 C 10.7796 0.659055 -1.56813 0
M  V30 105 O 11.9646 0.592176 -1.84951 0
M  V30 106 C 9.0946 0.655449 -3.41059 0
M  V30 107 C 8.0486 -0.111842 -4.27854 0
M  V30 108 C 7.3746 0.872274 -5.27537 0
M  V30 109 C 8.6746 -1.30299 -5.05786 0
M  V30 110 H 10.3686 -1.01294 -2.81744 0
M  V30 111 H 7.9146 -0.48854 -1.3546 0
M  V30 112 H 9.8676 1.07464 -4.07467 0
M  V30 113 H 8.5916 1.49328 -2.90463 0
M  V30 114 H 7.2506 -0.512053 -3.63006 0
M  V30 115 H 6.8986 1.70523 -4.73214 0
M  V30 116 H 6.5986 0.363291 -5.86476 0
M  V30 117 H 8.1226 1.28996 -5.96818 0
M  V30 118 H 9.5366 -0.959379 -5.65216 0
M  V30 119 H 7.9336 -1.7455 -5.74154 0
M  V30 120 H 9.0036 -2.09663 -4.37229 0
M  V30 121 N 10.3467 1.47872 -0.545128 0
M  V30 122 C 11.3097 2.28337 0.198717 0
M  V30 123 C 12.3097 1.36255 0.853888 0
M  V30 124 O 13.4997 1.59003 0.711606 0
M  V30 125 C 10.6317 3.15585 1.28915 0
M  V30 126 H 11.8247 2.95567 -0.507941 0
M  V30 127 H 9.3777 1.53362 -0.301616 0
M  V30 128 H 10.1127 2.53019 2.02859 0
M  V30 129 H 9.8977 3.83337 0.824309 0
M  V30 130 H 11.3877 3.76243 1.81194 0
M  V30 131 N 11.8248 0.280983 1.55075 0
M  V30 132 C 12.7728 -0.619864 2.24188 0
M  V30 133 C 13.7668 -1.15315 1.24092 0
M  V30 134 O 14.9728 -1.1061 1.42005 0
M  V30 135 H 11.3478 -0.218459 0.719569 0
M  V30 136 H 13.3188 -0.0141831 2.98397 0
M  V30 137 C 12.0678 -1.7899 2.98091 0
M  V30 138 H 11.3908 -1.38874 3.74905 0
M  V30 139 H 12.8308 -2.39672 3.49762 0
M  V30 140 C 11.2898 -2.68192 2.03899 0
M  V30 141 O 11.8198 -3.6872 1.594 0
M  V30 142 N 10.0258 -2.35488 1.70275 0
M  V30 143 H 9.5728 -1.53787 2.06658 0
M  V30 144 H 9.5308 -2.95442 1.07524 0
M  V30 145 N 13.3029 -1.57598 0.00835791 0
M  V30 146 C 14.2659 -2.07884 -0.965242 0
M  V30 147 C 15.2659 -0.989825 -1.26725 0
M  V30 148 O 16.4559 -1.25218 -1.21104 0
M  V30 149 C 13.5879 -2.52731 -2.28779 0
M  V30 150 H 14.7809 -2.95178 -0.530112 0
M  V30 151 H 12.3339 -1.54458 -0.239283 0
M  V30 152 H 13.0689 -1.68705 -2.76964 0
M  V30 153 H 12.8539 -3.32272 -2.08177 0
M  V30 154 H 14.3439 -2.91933 -2.98605 0
M  V30 155 N 14.781 0.264519 -1.55364 0
M  V30 156 C 16.03 0.992812 -1.75574 0
M  V30 157 C 16.343 1.87142 -0.568979 0
M  V30 158 O 17.549 2.63513 -0.653682 0
M  V30 159 C 16.005 1.81519 -3.10771 0
M  V30 160 C 15.613 0.984839 -4.37041 0
M  V30 161 C 17.357 2.53727 -3.40327 0
M  V30 162 C 15.264 1.80209 -5.63275 0
M  V30 163 H 14.194 0.374412 -0.65447 0
M  V30 164 H 16.845 0.248138 -1.81815 0
M  V30 165 H 15.227 2.60115 -2.98591 0
M  V30 166 H 16.401 0.242455 -4.60162 0
M  V30 167 H 14.716 0.37691 -4.14691 0
M  V30 168 H 17.313 3.15292 -4.3185 0
M  V30 169 H 17.656 3.24447 -2.60845 0
M  V30 170 H 18.189 1.82156 -3.53644 0
M  V30 171 H 14.928 1.13896 -6.45529 0
M  V30 172 H 14.448 2.52022 -5.44284 0
M  V30 173 H 16.127 2.37364 -6.01887 0
M  V30 174 N 16.2591 1.48442 0.529413 0
M  V30 175 C 17.6751 1.34575 0.858004 0
M  V30 176 C 17.8751 0.3572 1.98309 0
M  V30 177 O 16.9311 -0.221379 2.51528 0
M  V30 178 C 18.2441 2.74617 1.22499 0
M  V30 179 C 19.7921 2.83109 1.33484 0
M  V30 180 C 20.2671 4.23854 1.73526 0
M  V30 181 N 21.7581 4.2653 1.80628 0
M  V30 182 C 22.4931 5.32372 2.12997 0
M  V30 183 N 21.9891 6.48491 2.43786 0
M  V30 184 N 23.7821 5.19766 2.14008 0
M  V30 185 H 15.9331 2.1133 -0.212925 0
M  V30 186 H 18.1961 0.947439 -0.0326199 0
M  V30 187 H 17.9021 3.4852 0.471905 0
M  V30 188 H 17.7761 3.08177 2.17501 0
M  V30 189 H 20.1631 2.09462 2.0787 0
M  V30 190 H 20.2441 2.53168 0.366027 0
M  V30 191 H 19.8881 4.98018 0.997013 0
M  V30 192 H 19.8181 4.5124 2.71459 0
M  V30 193 H 22.3091 3.42772 1.59108 0
M  V30 194 H 22.6221 7.24993 2.67592 0
M  V30 195 H 20.9671 6.51765 2.41304 0
M  V30 196 H 24.1581 4.28066 1.89412 0
M  V30 197 H 24.3311 6.02354 2.38902 0
M  V30 198 N 17.7372 -0.778329 1.37039 0
M  V30 199 C 18.7002 -1.87301 1.32102 0
M  V30 200 C 19.7002 -1.59198 0.226405 0
M  V30 201 O 20.8902 -1.67403 0.481861 0
M  V30 202 C 18.0222 -3.24309 1.05055 0
M  V30 203 H 19.2152 -1.93093 2.29467 0
M  V30 204 H 16.7682 -0.977358 1.21973 0
M  V30 205 H 17.5032 -3.24196 0.0819373 0
M  V30 206 H 17.2882 -3.46098 1.84279 0
M  V30 207 H 18.7782 -4.04382 1.04234 0
M  V30 208 N 19.2153 -1.21501 -1.00376 0
M  V30 209 C 20.1453 -0.999478 -2.11028 0
M  V30 210 C 21.1263 0.0759671 -1.6993 0
M  V30 211 O 22.3113 -0.0841106 -1.94018 0
M  V30 212 C 19.4413 -0.564709 -3.42678 0
M  V30 213 C 18.3953 -1.58486 -3.97576 0
M  V30 214 C 17.7213 -1.00628 -5.25146 0
M  V30 215 C 19.0213 -2.97204 -4.29496 0
M  V30 216 H 20.7153 -1.92495 -2.29317 0
M  V30 217 H 18.2613 -0.92693 -1.102 0
M  V30 218 H 20.2143 -0.401091 -4.19487 0
M  V30 219 H 18.9383 0.396411 -3.24185 0
M  V30 220 H 17.5973 -1.73606 -3.22888 0
M  V30 221 H 17.2453 -0.0368439 -5.02987 0
M  V30 222 H 16.9453 -1.68771 -5.62841 0
M  V30 223 H 18.4693 -0.854015 -6.04598 0
M  V30 224 H 19.8833 -2.8552 -4.97143 0
M  V30 225 H 18.2803 -3.62372 -4.78338 0
M  V30 226 H 19.3503 -3.47956 -3.3772 0
M  V30 227 N 20.6934 1.19889 -1.02296 0
M  V30 228 C 21.9184 1.9393 -0.735237 0
M  V30 229 C 22.3434 1.74639 0.698782 0
M  V30 230 O 21.7014 1.04481 1.48167 0
M  V30 231 C 21.7494 3.43916 -1.08417 0
M  V30 232 O 20.8534 4.11917 -0.199446 0
M  V30 233 H 20.1944 0.605645 -0.272196 0
M  V30 234 H 22.7244 1.52137 -1.36804 0
M  V30 235 H 22.7344 3.9456 -1.03856 0
M  V30 236 H 21.4094 3.5728 -2.12894 0
M  V30 237 H 19.9864 3.71666 -0.303136 0
M  V30 238 N 22.1715 0.800033 1.35784 0
M  V30 239 C 23.1045 0.151499 2.27697 0
M  V30 240 C 24.0825 -0.678663 1.4776 0
M  V30 241 O 25.2665 -0.647358 1.77035 0
M  V30 242 C 22.3935 -0.790492 3.29346 0
M  V30 243 C 21.4395 -0.0407832 4.26481 0
M  V30 244 S 22.2725 1.29077 5.19711 0
M  V30 245 C 23.4285 0.353055 6.24903 0
M  V30 246 H 23.6615 0.930796 2.82353 0
M  V30 247 H 21.1945 0.594767 1.42485 0
M  V30 248 H 23.1525 -1.3285 3.88409 0
M  V30 249 H 21.8135 -1.54312 2.73581 0
M  V30 250 H 21.0065 -0.755971 4.98298 0
M  V30 251 H 20.6085 0.427063 3.71554 0
M  V30 252 H 22.9005 -0.464147 6.75908 0
M  V30 253 H 23.8435 1.04023 7.00418 0
M  V30 254 H 24.2515 -0.0483344 5.64479 0
M  V30 255 N 23.6496 -1.47581 0.552962 0
M  V30 256 C 24.9266 -1.95563 -0.0381515 0
M  V30 257 C 25.3066 -1.49552 -1.48988 0
M  V30 258 O 24.6546 -0.732414 -2.16444 0
M  V30 259 C 24.8646 -3.48848 0.102919 0
M  V30 260 C 26.2126 -4.24577 -0.0446082 0
M  V30 261 O 27.2366 -3.56187 0.0302548 0
M  V30 262 O 26.0956 -5.46116 -0.204923 0
M  V30 263 H 23.1896 -0.824321 -0.0665067 0
M  V30 264 H 25.7356 -1.58001 0.619186 0
M  V30 265 H 24.5076 -3.75129 1.11328 0
M  V30 266 H 24.1306 -3.93165 -0.592224 0
M  V30 267 N 25.1277 -0.289203 -1.54924 0
M  V30 268 C 26.0907 0.579144 -2.21762 0
M  V30 269 C 27.0907 1.07047 -1.1999 0
M  V30 270 O 28.2807 0.968384 -1.44803 0
M  V30 271 C 25.4127 1.80055 -2.8947 0
M  V30 272 H 26.6057 -0.00464908 -2.999 0
M  V30 273 H 24.1587 -0.0399306 -1.56249 0
M  V30 274 H 24.8937 2.42449 -2.15381 0
M  V30 275 H 24.6787 1.45602 -3.64064 0
M  V30 276 H 26.1687 2.41773 -3.40493 0
M  V30 277 N 26.6058 1.57591 -0.0167156 0
M  V30 278 C 27.8518 1.91567 0.665582 0
M  V30 279 C 28.1848 0.892298 1.72487 0
M  V30 280 O 27.4598 -0.0867127 1.94307 0
M  V30 281 C 27.7428 3.36069 1.29342 0
M  V30 282 C 27.5958 4.49135 0.244541 0
M  V30 283 C 28.9148 3.803 2.21495 0
M  V30 284 H 26.0338 0.69666 0.240488 0
M  V30 285 H 28.6758 1.89866 -0.0714356 0
M  V30 286 H 26.8258 3.3765 1.92158 0
M  V30 287 H 28.4978 4.59689 -0.385228 0
M  V30 288 H 26.7408 4.3165 -0.431379 0
M  V30 289 H 27.4118 5.47242 0.723207 0
M  V30 290 H 29.8878 3.80377 1.68678 0
M  V30 291 H 28.7638 4.82127 2.62382 0
M  V30 292 H 29.0248 3.15104 3.101 0
M  V30 293 N 28.0839 -0.256276 1.55502 0
M  V30 294 C 29.0159 -1.33981 1.85962 0
M  V30 295 C 30.0289 -1.44743 0.745212 0
M  V30 296 O 31.2179 -1.4626 1.02324 0
M  V30 297 C 28.3179 -2.7194 2.02242 0
M  V30 298 C 27.4909 -2.83562 3.33033 0
M  V30 299 C 26.5499 -4.02304 3.39172 0
M  V30 300 O 25.5759 -3.92273 4.12444 0
M  V30 301 N 26.7779 -5.15045 2.67784 0
M  V30 302 H 29.5429 -1.08191 2.7949 0
M  V30 303 H 27.1039 -0.446388 1.55624 0
M  V30 304 H 29.0959 -3.49697 2.03701 0
M  V30 305 H 27.6659 -2.90479 1.15502 0
M  V30 306 H 26.8859 -1.92555 3.43971 0
M  V30 307 H 28.1739 -2.88271 4.19258 0
M  V30 308 H 27.5719 -5.26085 2.07968 0
M  V30 309 H 26.1289 -5.90972 2.74947 0
M  V30 310 N 29.562 -1.4872 -0.521534 0
M  V30 311 C 30.509 -1.63871 -1.62527 0
M  V30 312 C 31.479 -0.480559 -1.58996 0
M  V30 313 O 32.664 -0.705085 -1.77294 0
M  V30 314 C 29.804 -1.69227 -3.00759 0
M  V30 315 C 28.917 -2.96207 -3.14461 0
M  V30 316 C 28.052 -2.92671 -4.43303 0
M  V30 317 C 27.091 -4.14318 -4.50563 0
M  V30 318 N 26.228 -4.0881 -5.70805 0
M  V30 319 H 31.068 -2.58123 -1.48918 0
M  V30 320 H 28.605 -1.28 -0.724878 0
M  V30 321 H 30.563 -1.70314 -3.80853 0
M  V30 322 H 29.193 -0.784586 -3.1312 0
M  V30 323 H 28.245 -3.04826 -2.27564 0
M  V30 324 H 29.557 -3.86192 -3.15686 0
M  V30 325 H 28.711 -2.92206 -5.31696 0
M  V30 326 H 27.45 -2.00429 -4.44612 0
M  V30 327 H 26.455 -4.15049 -3.60575 0
M  V30 328 H 27.68 -5.07729 -4.50986 0
M  V30 329 H 25.626 -3.19394 -5.72995 0
M  V30 330 H 25.543 -4.92509 -5.7356 0
M  V30 331 H 26.811 -4.12418 -6.61462 0
M  V30 332 N 31.0401 0.771051 -1.3745 0
M  V30 333 C 32.0031 1.86598 -1.33093 0
M  V30 334 C 33.0031 1.59076 -0.234845 0
M  V30 335 O 34.1931 1.67145 -0.490732 0
M  V30 336 C 31.3251 3.23747 -1.06773 0
M  V30 337 H 32.5181 1.91873 -2.30488 0
M  V30 338 H 30.0711 0.970876 -1.2249 0
M  V30 339 H 30.8061 3.24148 -0.099129 0
M  V30 340 H 30.5911 3.45115 -1.86112 0
M  V30 341 H 32.0811 4.03824 -1.06377 0
M  V30 342 N 32.5182 1.22032 0.997298 0
M  V30 343 C 33.4652 0.986467 2.08656 0
M  V30 344 C 34.4352 -0.0902671 1.65855 0
M  V30 345 O 35.6202 0.0584294 1.90711 0
M  V30 346 C 32.7602 0.565569 3.40434 0
M  V30 347 C 31.8732 1.71259 3.96604 0
M  V30 348 C 31.0082 1.24011 5.16522 0
M  V30 349 C 30.0472 2.35896 5.64818 0
M  V30 350 N 29.1842 1.89726 6.7598 0
M  V30 351 H 34.0242 1.91892 2.27994 0
M  V30 352 H 31.5612 0.956199 1.11782 0
M  V30 353 H 33.5192 0.302738 4.161 0
M  V30 354 H 32.1492 -0.329879 3.2111 0
M  V30 355 H 31.2012 2.08986 3.17851 0
M  V30 356 H 32.5132 2.55436 4.28432 0
M  V30 357 H 31.6672 0.934395 5.99461 0
M  V30 358 H 30.4062 0.368487 4.86306 0
M  V30 359 H 29.4112 2.67261 4.8047 0
M  V30 360 H 30.6362 3.23567 5.97061 0
M  V30 361 H 28.5822 1.0492 6.47555 0
M  V30 362 H 28.4992 2.67471 7.07103 0
M  V30 363 H 29.7672 1.62211 7.62435 0
M  V30 364 N 33.9963 -1.19345 1.0293 0
M  V30 365 C 35.2213 -1.93538 0.745511 0
M  V30 366 C 35.6463 -1.75007 -0.689511 0
M  V30 367 O 35.0043 -1.05265 -1.47611 0
M  V30 368 C 35.0523 -3.43336 1.10239 0
M  V30 369 O 34.1563 -4.11806 0.221289 0
M  V30 370 H 33.4973 -0.604193 0.275404 0
M  V30 371 H 36.0273 -1.5141 1.37609 0
M  V30 372 H 36.0373 -3.94004 1.05947 0
M  V30 373 H 34.7123 -3.56146 2.14786 0
M  V30 374 H 33.2893 -3.715 0.322842 0
M  V30 375 N 35.4744 -0.807222 -1.35358 0
M  V30 376 C 36.7224 -0.387122 -1.98358 0
M  V30 377 C 37.0434 1.04942 -1.64354 0
M  V30 378 O 36.3134 1.72615 -0.926339 0
M  V30 379 H 34.8934 -0.140154 -0.733734 0
M  V30 380 H 37.5554 -1.0332 -1.6526 0
M  V30 381 H 36.6514 -0.493352 -3.08176 0
M  V30 382 N 36.9525 1.47285 -0.560781 0
M  V30 383 C 37.9025 2.27073 0.205384 0
M  V30 384 C 38.8865 1.34569 0.882044 0
M  V30 385 O 40.0785 1.58899 0.77976 0
M  V30 386 C 37.2075 3.20414 1.23247 0
M  V30 387 C 36.2935 4.20399 0.559041 0
M  V30 388 N 36.6845 5.04423 -0.372927 0
M  V30 389 C 34.9825 4.38536 0.812522 0
M  V30 390 C 35.6835 5.76655 -0.764446 0
M  V30 391 N 34.6595 5.43471 -0.11848 0
M  V30 392 H 38.4615 2.89422 -0.511117 0
M  V30 393 H 35.9755 1.57868 -0.380975 0
M  V30 394 H 37.9725 3.76262 1.79534 0
M  V30 395 H 36.6325 2.59623 1.95002 0
M  V30 396 H 37.6435 5.1248 -0.747287 0
M  V30 397 H 34.3205 3.88913 1.51832 0
M  V30 398 H 35.7105 6.54238 -1.53045 0
M  V30 399 N 38.4306 0.297415 1.54768 0
M  V30 400 C 39.8416 -0.195947 1.85669 0
M  V30 401 C 40.1926 -1.53707 1.21937 0
M  V30 402 O 39.3176 -2.10164 0.515754 0
M  V30 403 C 39.9126 -0.362318 3.36857 0
M  V30 404 C 38.4716 -0.799901 3.67802 0
M  V30 405 C 37.6186 0.0938578 2.77141 0
M  V30 406 H 40.5696 0.518538 1.4999 0
M  V30 407 H 40.5906 -1.19745 3.61167 0
M  V30 408 H 40.1026 0.613921 3.83214 0
M  V30 409 H 38.2036 -1.78682 3.26961 0
M  V30 410 H 38.3166 -0.621773 4.75048 0
M  V30 411 H 36.6806 -0.426254 2.51108 0
M  V30 412 H 37.4636 1.06639 3.26318 0
M  V30 413 N 39.9087 -1.5758 0.0250728 0
M  V30 414 C 41.1567 -1.91255 -0.653151 0
M  V30 415 C 41.4777 -0.901691 -1.729 0
M  V30 416 O 40.7477 0.0573785 -1.95816 0
M  V30 417 H 39.3277 -0.705942 -0.244243 0
M  V30 418 H 41.9897 -1.94767 0.0719209 0
M  V30 419 H 41.0857 -2.91752 -1.10847 0
M  V30 420 N 41.3868 0.248026 -1.55636 0
M  V30 421 C 42.3498 1.29044 -1.89421 0
M  V30 422 C 43.3498 1.41134 -0.770581 0
M  V30 423 O 44.5398 1.39854 -1.03858 0
M  V30 424 C 41.6718 2.66831 -2.12165 0
M  V30 425 H 42.8648 1.00305 -2.82629 0
M  V30 426 H 40.4178 0.487265 -1.48511 0
M  V30 427 H 41.1528 3.00711 -1.21422 0
M  V30 428 H 40.9378 2.59438 -2.93997 0
M  V30 429 H 42.4278 3.42103 -2.3949 0
M  V30 430 N 42.8649 1.48995 0.513639 0
M  V30 431 C 44.2759 1.5119 1.09537 0
M  V30 432 C 44.6269 0.290906 1.94031 0
M  V30 433 O 43.7519 -0.60049 2.07902 0
M  V30 434 C 44.3469 2.73964 1.99322 0
M  V30 435 C 42.9059 2.78978 2.52682 0
M  V30 436 C 42.0529 2.44934 1.30009 0
M  V30 437 H 45.0039 1.55875 0.298125 0
M  V30 438 H 45.0249 2.53409 2.83838 0
M  V30 439 H 44.5369 3.62813 1.37799 0
M  V30 440 H 42.6379 1.94378 3.1788 0
M  V30 441 H 42.7509 3.8083 2.90698 0
M  V30 442 H 41.1149 1.9644 1.62122 0
M  V30 443 H 41.8979 3.36043 0.702131 0
M  V30 444 N 44.343 -0.763751 1.37857 0
M  V30 445 C 45.276 -1.88486 1.28639 0
M  V30 446 C 46.254 -1.61757 0.165363 0
M  V30 447 O 47.438 -1.85391 0.340948 0
M  V30 448 C 44.565 -3.23884 0.990811 0
M  V30 449 C 43.611 -3.69514 2.12983 0
M  V30 450 S 44.444 -3.82244 3.75033 0
M  V30 451 C 45.6 -5.20477 3.47641 0
M  V30 452 H 45.833 -1.96017 2.23527 0
M  V30 453 H 43.366 -0.925684 1.23574 0
M  V30 454 H 45.324 -4.02081 0.827101 0
M  V30 455 H 43.985 -3.14044 0.0592832 0
M  V30 456 H 43.178 -4.67696 1.87821 0
M  V30 457 H 42.78 -2.98441 2.25408 0
M  V30 458 H 45.072 -6.05905 3.03125 0
M  V30 459 H 46.015 -5.50655 4.4518 0
M  V30 460 H 46.423 -4.88793 2.82385 0
M  V30 461 N 45.8211 -1.22559 -0.990812 0
M  V30 462 C 47.0691 -1.04933 -1.72724 0
M  V30 463 C 47.3901 0.416158 -1.90508 0
M  V30 464 O 46.6601 1.29918 -1.46622 0
M  V30 465 H 45.2401 -0.385296 -0.639965 0
M  V30 466 H 47.9021 -1.54105 -1.19322 0
M  V30 467 H 46.9981 -1.52886 -2.72089 0
M  V30 468 N 47.2992 1.18797 -1.03562 0
M  V30 469 C 48.2322 2.2105 -0.56676 0
M  V30 470 C 49.2102 1.57704 0.395993 0
M  V30 471 O 50.3942 1.85908 0.311498 0
M  V30 472 C 47.5212 3.38259 0.172704 0
M  V30 473 C 46.5672 4.19987 -0.74252 0
M  V30 474 S 47.4002 4.87199 -2.22254 0
M  V30 475 C 48.5562 6.07813 -1.49379 0
M  V30 476 H 48.7892 2.60478 -1.43312 0
M  V30 477 H 46.3222 1.29151 -0.846133 0
M  V30 478 H 48.2802 4.06191 0.593191 0
M  V30 479 H 46.9412 2.97252 1.01488 0
M  V30 480 H 46.1342 5.03709 -0.171265 0
M  V30 481 H 45.7362 3.57408 -1.10163 0
M  V30 482 H 48.0282 6.72948 -0.784056 0
M  V30 483 H 48.9712 6.69435 -2.30786 0
M  V30 484 H 49.3792 5.55781 -0.988331 0
M  V30 485 N 48.7773 0.814389 1.34928 0
M  V30 486 C 49.7403 0.235759 2.27984 0
M  V30 487 C 50.7403 -0.581412 1.49921 0
M  V30 488 O 51.9303 -0.398758 1.69575 0
M  V30 489 C 49.0623 -0.670433 3.34242 0
M  V30 490 H 50.2553 1.05659 2.80671 0
M  V30 491 H 47.8083 0.585614 1.44915 0
M  V30 492 H 48.5433 -1.51466 2.86755 0
M  V30 493 H 48.3283 -0.0860822 3.92005 0
M  V30 494 H 49.8183 -1.06935 4.03676 0
M  V30 495 N 50.2554 -1.46986 0.568584 0
M  V30 496 C 51.5324 -1.95592 -0.0174074 0
M  V30 497 C 51.9124 -1.51124 -1.47393 0
M  V30 498 O 51.2604 -0.755329 -2.15655 0
M  V30 499 C 51.4704 -3.48719 0.139913 0
M  V30 500 C 52.8184 -4.246 0.000426376 0
M  V30 501 O 53.8424 -3.56135 0.0680316 0
M  V30 502 O 52.7014 -5.46302 -0.146988 0
M  V30 503 H 49.7954 -0.82498 -0.0577599 0
M  V30 504 H 52.3414 -1.57335 0.635909 0
M  V30 505 H 51.1134 -3.73927 1.15301 0
M  V30 506 H 50.7364 -3.93771 -0.550491 0
M  V30 507 N 51.7335 -0.305618 -1.54608 0
M  V30 508 C 52.9825 0.303098 -1.9941 0
M  V30 509 C 53.2955 1.54648 -1.19764 0
M  V30 510 O 54.5015 2.23007 -1.54855 0
M  V30 511 C 52.9575 0.590588 -3.55021 0
M  V30 512 C 52.5655 -0.634719 -4.43481 0
M  V30 513 C 54.3095 1.16025 -4.08336 0
M  V30 514 C 52.2165 -0.320126 -5.90533 0
M  V30 515 H 51.1465 0.117031 -0.744862 0
M  V30 516 H 53.7975 -0.415045 -1.78745 0
M  V30 517 H 52.1795 1.36845 -3.71604 0
M  V30 518 H 53.3535 -1.41079 -4.38672 0
M  V30 519 H 51.6685 -1.12333 -4.00962 0
M  V30 520 H 54.2655 1.40994 -5.15776 0
M  V30 521 H 54.6085 2.10397 -3.5922 0
M  V30 522 H 55.1415 0.443985 -3.95315 0
M  V30 523 H 51.8805 -1.23254 -6.43808 0
M  V30 524 H 51.4005 0.418579 -5.98338 0
M  V30 525 H 53.0795 0.0766241 -6.46955 0
M  V30 526 N 53.2116 1.57565 -0.0334293 0
M  V30 527 C 54.1746 2.09393 0.932048 0
M  V30 528 C 55.1746 1.00986 1.25134 0
M  V30 529 O 56.3646 1.27129 1.19096 0
M  V30 530 C 53.4966 2.56338 2.2473 0
M  V30 531 H 54.6896 2.95984 0.483085 0
M  V30 532 H 52.2426 1.54819 0.21468 0
M  V30 533 H 52.9776 1.7309 2.74245 0
M  V30 534 H 52.7626 3.35542 2.02865 0
M  V30 535 H 54.2526 2.96646 2.93923 0
M  V30 536 N 54.6897 -0.239769 1.55765 0
M  V30 537 C 55.5997 -1.31831 1.94056 0
M  V30 538 C 56.6157 -1.52275 0.841925 0
M  V30 539 O 57.7917 -1.65759 1.14394 0
M  V30 540 C 54.8567 -2.65156 2.23368 0
M  V30 541 C 53.9177 -2.53173 3.46701 0
M  V30 542 C 53.1507 -3.8014 3.74606 0
M  V30 543 O 53.3737 -4.82343 3.04469 0
M  V30 544 O 52.3077 -3.78344 4.68123 0
M  V30 545 H 56.1337 -1.02347 2.85935 0
M  V30 546 H 53.7187 -0.441123 1.42739 0
M  V30 547 H 55.6007 -3.43929 2.43497 0
M  V30 548 H 54.2757 -2.94358 1.34666 0
M  V30 549 H 53.1827 -1.72662 3.31871 0
M  V30 550 H 54.5157 -2.28915 4.35728 0
M  V30 551 N 56.1678 -1.49265 -0.50573 0
M  V30 552 C 57.4138 -1.58748 -1.26202 0
M  V30 553 C 57.7468 -0.271227 -1.92297 0
M  V30 554 O 57.0218 0.724831 -1.80489 0
M  V30 555 C 57.3048 -2.74332 -2.33268 0
M  V30 556 C 57.1578 -4.15737 -1.71705 0
M  V30 557 C 58.4768 -2.85576 -3.34865 0
M  V30 558 H 55.5958 -0.577826 -0.457478 0
M  V30 559 H 58.2378 -1.81532 -0.560897 0
M  V30 560 H 56.3878 -2.55036 -2.93068 0
M  V30 561 H 58.0598 -4.46537 -1.15769 0
M  V30 562 H 56.3028 -4.21605 -1.02135 0
M  V30 563 H 56.9738 -4.92477 -2.49341 0
M  V30 564 H 59.4498 -3.03127 -2.8505 0
M  V30 565 H 58.3258 -3.68135 -4.07146 0
M  V30 566 H 58.5868 -1.94732 -3.96903 0
M  V30 567 N 57.6459 0.756429 -1.3826 0
M  V30 568 C 58.5759 1.88374 -1.37976 0
M  V30 569 C 59.5569 1.68311 -0.246082 0
M  V30 570 O 60.7419 1.88944 -0.44874 0
M  V30 571 C 57.8719 3.25864 -1.20125 0
M  V30 572 C 56.8259 3.60523 -2.30666 0
M  V30 573 C 56.1519 4.9672 -1.97923 0
M  V30 574 C 57.4519 3.65692 -3.72916 0
M  V30 575 H 59.1459 1.88869 -2.32312 0
M  V30 576 H 56.6919 0.907272 -1.11824 0
M  V30 577 H 58.6449 4.0438 -1.18552 0
M  V30 578 H 57.3689 3.25841 -0.222498 0
M  V30 579 H 56.0279 2.84324 -2.3142 0
M  V30 580 H 55.6759 4.93253 -0.985393 0
M  V30 581 H 55.3759 5.20878 -2.71955 0
M  V30 582 H 56.8999 5.77618 -1.97964 0
M  V30 583 H 58.3139 4.34328 -3.74208 0
M  V30 584 H 56.7109 4.01358 -4.4613 0
M  V30 585 H 57.7809 2.65987 -4.05436 0
M  V30 586 N 59.124 1.23083 0.984299 0
M  V30 587 C 60.37 1.07221 1.72845 0
M  V30 588 C 60.725 -0.387453 1.88458 0
M  V30 589 O 60.018 -1.28309 1.42293 0
M  V30 590 C 60.212 1.72673 3.1292 0
M  V30 591 C 60.041 3.24853 3.10967 0
M  V30 592 C 58.811 3.93998 3.16376 0
M  V30 593 C 61.009 4.21674 2.94441 0
M  V30 594 N 58.991 5.33192 3.04268 0
M  V30 595 C 60.362 5.47756 2.90453 0
M  V30 596 C 62.417 4.12457 2.78897 0
M  V30 597 C 61.12 6.6568 2.72512 0
M  V30 598 C 63.146 5.3004 2.62319 0
M  V30 599 C 62.508 6.55046 2.59026 0
M  V30 600 H 58.607 0.44685 0.641755 0
M  V30 601 H 61.191 1.55753 1.16829 0
M  V30 602 H 59.362 1.26679 3.67161 0
M  V30 603 H 61.094 1.49824 3.75945 0
M  V30 604 H 57.849 3.45052 3.24401 0
M  V30 605 H 58.273 6.06157 3.015 0
M  V30 606 H 62.915 3.16588 2.80235 0
M  V30 607 H 60.633 7.61689 2.69919 0
M  V30 608 H 64.219 5.24747 2.5126 0
M  V30 609 H 63.099 7.44498 2.46357 0
M  V30 610 N 60.6021 -1.18246 1.0419 0
M  V30 611 C 62.0181 -1.40269 0.761366 0
M  V30 612 C 62.2181 -1.90777 -0.648578 0
M  V30 613 O 61.2741 -2.0929 -1.41258 0
M  V30 614 C 62.5871 -2.40237 1.8085 0
M  V30 615 C 64.1351 -2.53961 1.82955 0
M  V30 616 C 64.6101 -3.57194 2.86664 0
M  V30 617 N 66.1011 -3.64702 2.85563 0
M  V30 618 C 66.8361 -4.44309 3.6246 0
M  V30 619 N 66.3321 -5.27514 4.49111 0
M  V30 620 N 68.1251 -4.39084 3.50944 0
M  V30 621 H 60.2761 -0.837882 1.95175 0
M  V30 622 H 62.5391 -0.430608 0.84456 0
M  V30 623 H 62.2451 -2.10176 2.81991 0
M  V30 624 H 62.1191 -3.39601 1.64168 0
M  V30 625 H 64.5061 -2.83338 0.824855 0
M  V30 626 H 64.5871 -1.54706 2.03715 0
M  V30 627 H 64.2311 -3.28558 3.87314 0
M  V30 628 H 64.1611 -4.5613 2.6316 0
M  V30 629 H 66.6521 -3.05289 2.22727 0
M  V30 630 H 66.9651 -5.85411 5.04493 0
M  V30 631 H 65.3101 -5.2693 4.53178 0
M  V30 632 H 68.5011 -3.7313 2.82651 0
M  V30 633 H 68.6741 -5.00883 4.11121 0
M  V30 634 N 62.0802 -0.821533 -1.34494 0
M  V30 635 C 63.3572 -0.33159 -1.92769 0
M  V30 636 C 63.7372 1.18088 -1.74981 0
M  V30 637 O 63.0852 1.98733 -1.12772 0
M  V30 638 C 63.2952 -0.759398 -3.40638 0
M  V30 639 C 64.6432 -0.757433 -4.1779 0
M  V30 640 O 65.6672 -0.70189 -3.49216 0
M  V30 641 O 64.5262 -0.829361 -5.4017 0
M  V30 642 H 61.6202 -0.0902502 -0.822061 0
M  V30 643 H 64.1662 -0.906231 -1.43477 0
M  V30 644 H 62.9382 -1.8012 -3.47379 0
M  V30 645 H 62.5612 -0.160378 -3.97276 0
M  V30 646 N 63.5583 1.46682 -0.576371 0
M  V30 647 C 64.8053 2.02412 -0.0595339 0
M  V30 648 C 65.1333 1.44859 1.29793 0
M  V30 649 O 64.3883 0.601099 1.8624 0
M  V30 650 C 64.6873 3.57345 0.062886 0
M  V30 651 C 64.3533 4.33908 -1.22616 0
M  V30 652 C 63.0153 4.54544 -1.57933 0
M  V30 653 C 65.3673 4.77919 -2.07948 0
M  V30 654 C 62.6953 5.16444 -2.78393 0
M  V30 655 C 65.0473 5.41149 -3.27629 0
M  V30 656 C 63.7113 5.60014 -3.63236 0
M  V30 657 H 62.9813 0.74068 -0.021785 0
M  V30 658 H 65.6283 1.76128 -0.751735 0
M  V30 659 H 63.9333 3.82729 0.838178 0
M  V30 660 H 65.6303 3.98136 0.478439 0
M  V30 661 H 62.2203 4.18138 -0.941202 0
M  V30 662 H 66.4043 4.61738 -1.81967 0
M  V30 663 H 61.6603 5.29242 -3.06126 0
M  V30 664 H 65.8343 5.74211 -3.94023 0
M  V30 665 H 63.4613 6.07748 -4.56669 0
M  V30 666 N 65.0364 0.313813 1.54444 0
M  V30 667 C 65.9664 -0.549454 2.26943 0
M  V30 668 C 66.9474 -1.12741 1.27372 0
M  V30 669 O 68.1324 -1.15436 1.56167 0
M  V30 670 C 65.2624 -1.71523 3.01989 0
M  V30 671 C 64.2164 -1.26703 4.08816 0
M  V30 672 C 63.5424 -2.51898 4.71647 0
M  V30 673 C 64.8424 -0.388962 5.2085 0
M  V30 674 H 66.5364 0.0552661 2.99349 0
M  V30 675 H 64.0824 0.0280207 1.43973 0
M  V30 676 H 66.0354 -2.32535 3.51433 0
M  V30 677 H 64.7594 -2.34639 2.27183 0
M  V30 678 H 63.4184 -0.679896 3.6024 0
M  V30 679 H 63.0664 -3.13356 3.93468 0
M  V30 680 H 62.7664 -2.22605 5.43802 0
M  V30 681 H 64.2904 -3.1369 5.23861 0
M  V30 682 H 65.7044 -0.905107 5.6611 0
M  V30 683 H 64.1014 -0.18924 5.99802 0
M  V30 684 H 65.1714 0.582699 4.81386 0
M  V30 685 N 66.5145 -1.57545 0.0417849 0
M  V30 686 C 67.4615 -2.10977 -0.935805 0
M  V30 687 C 68.4315 -1.01486 -1.31491 0
M  V30 688 O 69.6165 -1.2898 -1.40602 0
M  V30 689 C 66.7565 -2.65169 -2.2086 0
M  V30 690 C 65.8695 -3.88714 -1.88482 0
M  V30 691 C 65.0045 -4.31254 -3.1015 0
M  V30 692 C 64.0435 -5.47524 -2.7365 0
M  V30 693 N 63.1805 -5.85162 -3.87982 0
M  V30 694 H 68.0205 -2.94218 -0.473249 0
M  V30 695 H 65.5575 -1.45415 -0.221981 0
M  V30 696 H 67.5155 -2.94685 -2.95325 0
M  V30 697 H 66.1455 -1.8474 -2.64709 0
M  V30 698 H 65.1975 -3.65849 -1.04205 0
M  V30 699 H 66.5095 -4.73245 -1.57608 0
M  V30 700 H 65.6635 -4.62273 -3.92923 0
M  V30 701 H 64.4025 -3.45516 -3.44195 0
M  V30 702 H 63.4075 -5.16187 -1.89291 0
M  V30 703 H 64.6325 -6.34971 -2.40807 0
M  V30 704 H 62.5785 -5.02377 -4.21846 0
M  V30 705 H 62.4955 -6.64362 -3.60775 0
M  V30 706 H 63.7635 -6.20791 -4.71422 0
M  V30 707 N 67.9926 0.231505 -1.5589 0
M  V30 708 C 68.9426 1.29007 -1.87993 0
M  V30 709 C 69.9266 1.42764 -0.742102 0
M  V30 710 O 71.1186 1.45747 -1.00433 0
M  V30 711 C 68.2476 2.6425 -2.1915 0
M  V30 712 C 67.3336 2.54435 -3.39299 0
M  V30 713 N 67.7246 2.14262 -4.58176 0
M  V30 714 C 66.0226 2.85416 -3.42715 0
M  V30 715 C 66.7236 2.15455 -5.40328 0
M  V30 716 N 65.6996 2.55558 -4.79783 0
M  V30 717 H 69.5016 0.970213 -2.77424 0
M  V30 718 H 67.0156 0.440097 -1.56323 0
M  V30 719 H 69.0126 3.40665 -2.40319 0
M  V30 720 H 67.6726 2.9709 -1.31025 0
M  V30 721 H 68.6836 1.85554 -4.83518 0
M  V30 722 H 65.3606 3.22693 -2.64906 0
M  V30 723 H 66.7506 1.86605 -6.45467 0
M  V30 724 N 69.4707 1.49531 0.497807 0
M  V30 725 C 70.4187 1.66926 1.61983 0
M  V30 726 C 71.4127 0.535167 1.60724 0
M  V30 727 O 72.6187 0.714896 1.65195 0
M  V30 728 H 68.9937 0.526415 0.537021 0
M  V30 729 H 70.9647 2.61098 1.44465 0
M  V30 730 C 69.7137 1.75602 3.00099 0
M  V30 731 H 69.0367 2.62244 3.01775 0
M  V30 732 H 70.4767 1.91807 3.78135 0
M  V30 733 C 68.9357 0.501543 3.33146 0
M  V30 734 O 69.4657 -0.371342 3.9998 0
M  V30 735 N 67.6717 0.363531 2.88317 0
M  V30 736 H 67.2187 1.07485 2.34104 0
M  V30 737 H 67.1767 -0.474728 3.10795 0
M  V30 738 N 70.9488 -0.749086 1.3866 0
M  V30 739 C 72.3598 -1.32664 1.31366 0
M  V30 740 C 72.7108 -1.96179 -0.028484 0
M  V30 741 O 71.8358 -1.9537 -0.93057 0
M  V30 742 C 72.4308 -2.41219 2.37905 0
M  V30 743 C 70.9898 -2.94684 2.34176 0
M  V30 744 C 70.1368 -1.68108 2.20533 0
M  V30 745 H 73.0878 -0.547628 1.48952 0
M  V30 746 H 73.1088 -3.21268 2.0388 0
M  V30 747 H 72.6208 -1.94962 3.35576 0
M  V30 748 H 70.7218 -3.45258 1.401 0
M  V30 749 H 70.8348 -3.48757 3.2849 0
M  V30 750 H 69.1988 -1.91907 1.67463 0
M  V30 751 H 69.9818 -1.23923 3.20153 0
M  V30 752 N 72.4269 -1.23603 -0.977757 0
M  V30 753 C 73.3589 -0.977369 -2.07317 0
M  V30 754 C 74.3719 0.0495845 -1.62724 0
M  V30 755 O 75.5609 -0.186261 -1.77526 0
M  V30 756 C 72.6609 -0.451216 -3.35883 0
M  V30 757 C 71.8339 -1.53896 -4.09432 0
M  V30 758 C 70.8929 -1.01721 -5.16274 0
M  V30 759 O 69.9189 -1.70676 -5.43009 0
M  V30 760 N 71.1209 0.153594 -5.80297 0
M  V30 761 H 73.8859 -1.92047 -2.30082 0
M  V30 762 H 71.4469 -1.14497 -1.14465 0
M  V30 763 H 73.4389 -0.0871574 -4.04606 0
M  V30 764 H 72.0089 0.397368 -3.10064 0
M  V30 765 H 71.2289 -2.07566 -3.35127 0
M  V30 766 H 72.5169 -2.27037 -4.55337 0
M  V30 767 H 71.9149 0.730323 -5.60966 0
M  V30 768 H 70.4719 0.458892 -6.50183 0
M  V30 769 N 73.905 1.17692 -1.04816 0
M  V30 770 C 74.853 2.23632 -0.63966 0
M  V30 771 C 75.847 1.6601 0.337219 0
M  V30 772 O 77.053 1.78844 0.203693 0
M  V30 773 H 73.428 0.727949 -0.188665 0
M  V30 774 H 75.399 2.55387 -1.54337 0
M  V30 775 C 74.148 3.4769 -0.0264051 0
M  V30 776 H 73.471 3.92331 -0.769164 0
M  V30 777 H 74.911 4.23418 0.222098 0
M  V30 778 C 73.37 3.13807 1.22584 0
M  V30 779 O 73.9 3.28236 2.31569 0
M  V30 780 N 72.106 2.68065 1.12202 0
M  V30 781 H 71.653 2.56525 0.235133 0
M  V30 782 H 71.611 2.45767 1.96076 0
M  V30 783 N 75.3831 0.828654 1.34056 0
M  V30 784 C 76.7941 0.477534 1.8049 0
M  V30 785 C 77.1451 -1.00258 1.6865 0
M  V30 786 O 76.2701 -1.78057 1.22982 0
M  V30 787 C 76.8651 0.860018 3.27703 0
M  V30 788 C 75.4241 0.561185 3.72193 0
M  V30 789 C 74.5711 1.07385 2.55663 0
M  V30 790 H 77.5221 1.0183 1.21722 0
M  V30 791 H 77.5431 0.166038 3.80138 0
M  V30 792 H 77.0551 1.93731 3.36288 0
M  V30 793 H 75.1561 -0.506465 3.69142 0
M  V30 794 H 75.2691 1.10926 4.66082 0
M  V30 795 H 73.6331 0.495149 2.49841 0
M  V30 796 H 74.4161 2.15771 2.67016 0
M  V30 797 N 76.8612 -1.46375 0.584142 0
M  V30 798 C 78.0862 -2.07268 0.0740405 0
M  V30 799 C 78.5112 -1.42979 -1.22223 0
M  V30 800 O 77.8692 -0.514092 -1.73859 0
M  V30 801 C 77.9172 -3.60518 -0.0767769 0
M  V30 802 O 77.0212 -3.96533 -1.13292 0
M  V30 803 H 76.3622 -0.660961 0.0634524 0
M  V30 804 H 78.8922 -1.87991 0.807492 0
M  V30 805 H 78.9022 -4.07021 -0.282489 0
M  V30 806 H 77.5772 -4.06702 0.86986 0
M  V30 807 H 76.1542 -3.61738 -0.905553 0
M  V30 808 N 78.3393 -0.321999 -1.54275 0
M  V30 809 C 79.5853 0.274234 -2.01543 0
M  V30 810 C 79.9403 1.499 -1.20614 0
M  V30 811 O 79.2333 1.89546 -0.279804 0
M  V30 812 C 79.4273 0.661769 -3.5122 0
M  V30 813 C 79.2563 -0.523892 -4.46638 0
M  V30 814 C 78.0263 -1.02251 -4.94846 0
M  V30 815 C 80.2243 -1.37558 -4.95563 0
M  V30 816 N 78.2063 -2.17274 -5.74165 0
M  V30 817 C 79.5773 -2.37301 -5.7279 0
M  V30 818 C 81.6323 -1.40353 -4.77709 0
M  V30 819 C 80.3353 -3.3964 -6.34064 0
M  V30 820 C 82.3613 -2.41562 -5.39817 0
M  V30 821 C 81.7233 -3.40031 -6.16894 0
M  V30 822 H 77.8223 0.0642367 -0.779357 0
M  V30 823 H 80.4063 -0.456683 -1.89268 0
M  V30 824 H 78.5773 1.36182 -3.63743 0
M  V30 825 H 80.3093 1.23934 -3.85256 0
M  V30 826 H 77.0643 -0.594046 -4.6986 0
M  V30 827 H 77.4883 -2.75289 -6.18502 0
M  V30 828 H 82.1303 -0.655907 -4.17681 0
M  V30 829 H 79.8483 -4.15309 -6.93213 0
M  V30 830 H 83.4343 -2.44524 -5.2792 0
M  V30 831 H 82.3143 -4.17063 -6.64099 0
M  V30 832 N 79.8174 1.5752 -0.0501392 0
M  V30 833 C 80.7804 2.1037 0.909786 0
M  V30 834 C 81.7804 1.02308 1.24056 0
M  V30 835 O 82.9704 1.28385 1.17741 0
M  V30 836 C 80.1024 2.58708 2.21998 0
M  V30 837 H 81.2954 2.96479 0.451665 0
M  V30 838 H 78.8484 1.55038 0.198248 0
M  V30 839 H 79.5834 1.75989 2.72394 0
M  V30 840 H 79.3684 3.37675 1.99295 0
M  V30 841 H 80.8584 2.99747 2.9076 0
M  V30 842 N 81.2955 -0.223234 1.56011 0
M  V30 843 C 82.5725 -0.972108 1.69733 0
M  V30 844 C 82.9525 -2.02485 0.59691 0
M  V30 845 O 82.3005 -2.25037 -0.396324 0
M  V30 846 C 82.5105 -1.58407 3.10979 0
M  V30 847 C 83.8585 -2.07696 3.70334 0
M  V30 848 O 84.8825 -1.68304 3.1393 0
M  V30 849 O 83.7415 -2.80096 4.69264 0
M  V30 850 H 80.8355 -0.453993 0.691245 0
M  V30 851 H 83.3815 -0.215149 1.68331 0
M  V30 852 H 82.1535 -0.823831 3.82529 0
M  V30 853 H 81.7765 -2.40661 3.16493 0
M  V30 854 N 82.7736 -1.49793 -0.48987 0
M  V30 855 C 84.1896 -1.36803 -0.822022 0
M  V30 856 C 84.3896 -0.409652 -1.97292 0
M  V30 857 O 83.4456 0.154614 -2.52026 0
M  V30 858 C 84.7586 -2.77768 -1.15175 0
M  V30 859 C 86.3066 -2.86549 -1.25931 0
M  V30 860 C 86.7816 -4.28306 -1.62228 0
M  V30 861 N 88.2726 -4.31169 -1.69256 0
M  V30 862 C 89.0076 -5.37832 -1.98807 0
M  V30 863 N 88.5036 -6.54726 -2.26507 0
M  V30 864 N 90.2966 -5.25258 -2.00152 0
M  V30 865 H 82.4476 -2.10691 0.268881 0
M  V30 866 H 84.7106 -0.946241 0.057728 0
M  V30 867 H 84.4166 -3.49648 -0.379335 0
M  V30 868 H 84.2906 -3.13836 -2.09253 0
M  V30 869 H 86.6776 -2.14899 -2.02243 0
M  V30 870 H 86.7586 -2.54049 -0.298776 0
M  V30 871 H 86.4026 -5.00486 -0.864622 0
M  V30 872 H 86.3326 -4.58279 -2.594 0
M  V30 873 H 88.8236 -3.4687 -1.49965 0
M  V30 874 H 89.1366 -7.31833 -2.48276 0
M  V30 875 H 87.4816 -6.57933 -2.23939 0
M  V30 876 H 90.6726 -4.32938 -1.77996 0
M  V30 877 H 90.8456 -6.08476 -2.22848 0
M  V30 878 N 84.2517 0.741722 -1.39055 0
M  V30 879 C 85.5287 1.49252 -1.26425 0
M  V30 880 C 85.9087 2.10705 0.129144 0
M  V30 881 O 85.2567 1.98045 1.13976 0
M  V30 882 C 85.4667 2.54934 -2.38347 0
M  V30 883 C 86.8147 3.21506 -2.77343 0
M  V30 884 O 87.8387 2.65245 -2.37747 0
M  V30 885 O 86.6977 4.23294 -3.45665 0
M  V30 886 H 83.7917 0.662451 -0.495064 0
M  V30 887 H 86.3377 0.776121 -1.50912 0
M  V30 888 H 85.1097 2.07857 -3.31529 0
M  V30 889 H 84.7327 3.34141 -2.15489 0
M  V30 890 N 85.7298 1.2412 0.971189 0
M  V30 891 C 87.1458 1.00584 1.23916 0
M  V30 892 C 87.3458 -0.287481 1.99439 0
M  V30 893 O 86.4018 -1.00454 2.31658 0
M  V30 894 C 87.7148 2.21864 2.0297 0
M  V30 895 C 89.2628 2.26452 2.16076 0
M  V30 896 C 89.7378 3.47343 2.98524 0
M  V30 897 N 91.2288 3.47639 3.06107 0
M  V30 898 C 91.9638 4.37837 3.70251 0
M  V30 899 N 91.4598 5.38286 4.36142 0
M  V30 900 N 93.2528 4.25558 3.67228 0
M  V30 901 H 85.4038 2.07236 0.465499 0
M  V30 902 H 87.6668 0.909236 0.268315 0
M  V30 903 H 87.3728 3.15771 1.54861 0
M  V30 904 H 87.2468 2.23698 3.03709 0
M  V30 905 H 89.6338 1.33078 2.6339 0
M  V30 906 H 89.7148 2.28645 1.14696 0
M  V30 907 H 89.3588 4.41029 2.51905 0
M  V30 908 H 89.2888 3.42393 4.00093 0
M  V30 909 H 91.7798 2.74966 2.59233 0
M  V30 910 H 92.0928 6.03352 4.82894 0
M  V30 911 H 90.4378 5.42176 4.34822 0
M  V30 912 H 93.6288 3.46322 3.14927 0
M  V30 913 H 93.8018 4.96054 4.16935 0
M  V30 914 N 87.2079 -1.17134 1.05439 0
M  V30 915 C 88.4549 -1.87456 0.765942 0
M  V30 916 C 88.7829 -1.81189 -0.707153 0
M  V30 917 O 88.0379 -1.21633 -1.5331 0
M  V30 918 C 88.3369 -3.36833 1.19491 0
M  V30 919 C 88.0029 -3.63301 2.67063 0
M  V30 920 C 86.6649 -3.70234 3.07376 0
M  V30 921 C 89.0169 -3.74575 3.62413 0
M  V30 922 C 86.3449 -3.85933 4.41896 0
M  V30 923 C 88.6969 -3.91793 4.9667 0
M  V30 924 C 87.3609 -3.96966 5.36633 0
M  V30 925 H 86.6309 -0.685948 0.280278 0
M  V30 926 H 89.2779 -1.38556 1.32192 0
M  V30 927 H 87.5829 -3.87807 0.557969 0
M  V30 928 H 89.2799 -3.89611 0.948893 0
M  V30 929 H 85.8699 -3.58532 2.34846 0
M  V30 930 H 90.0539 -3.68537 3.32406 0
M  V30 931 H 85.3099 -3.88187 4.72357 0
M  V30 932 H 89.4839 -3.99458 5.70444 0
M  V30 933 H 87.1109 -4.08883 6.40874 0
M  V30 934 N 88.686 -0.835752 -1.33615 0
M  V30 935 C 89.932 -0.430596 -1.98176 0
M  V30 936 C 90.265 1.00684 -1.66061 0
M  V30 937 O 89.54 1.70339 -0.938877 0
M  V30 938 C 89.823 -0.648065 -3.5422 0
M  V30 939 C 89.676 -2.13255 -3.96033 0
M  V30 940 C 90.995 -0.0922113 -4.40003 0
M  V30 941 H 88.114 -0.157924 -0.719881 0
M  V30 942 H 90.756 -1.05069 -1.58305 0
M  V30 943 H 88.906 -0.120237 -3.88314 0
M  V30 944 H 90.578 -2.725 -3.72211 0
M  V30 945 H 88.821 -2.61823 -3.45878 0
M  V30 946 H 89.492 -2.23547 -5.04708 0
M  V30 947 H 91.968 -0.543343 -4.12537 0
M  V30 948 H 90.844 -0.274083 -5.48215 0
M  V30 949 H 91.105 1.00378 -4.30554 0
M  V30 950 N 90.1641 1.46063 -0.591896 0
M  V30 951 C 91.0941 2.33172 0.123673 0
M  V30 952 C 92.0751 1.45897 0.87453 0
M  V30 953 O 93.2601 1.74698 0.848181 0
M  V30 954 C 90.3901 3.28336 1.13194 0
M  V30 955 C 89.3441 4.25124 0.495324 0
M  V30 956 C 88.6701 5.09863 1.61071 0
M  V30 957 C 89.9701 5.19143 -0.573425 0
M  V30 958 H 91.6641 2.93252 -0.603646 0
M  V30 959 H 89.2101 1.41014 -0.291741 0
M  V30 960 H 91.1631 3.88137 1.64097 0
M  V30 961 H 89.8871 2.66383 1.88965 0
M  V30 962 H 88.5461 3.66599 0.00729452 0
M  V30 963 H 88.1941 4.44288 2.35832 0
M  V30 964 H 87.8941 5.75417 1.19035 0
M  V30 965 H 89.4181 5.72529 2.12233 0
M  V30 966 H 90.8321 5.73106 -0.1491 0
M  V30 967 H 89.2291 5.93089 -0.914636 0
M  V30 968 H 90.2991 4.62519 -1.45617 0
M  V30 969 N 91.6422 0.330177 1.54103 0
M  V30 970 C 92.8672 -0.274893 2.0557 0
M  V30 971 C 93.2922 -1.44487 1.20437 0
M  V30 972 O 92.6502 -1.80021 0.214991 0
M  V30 973 C 92.6982 -0.68079 3.54115 0
M  V30 974 O 91.8022 -1.7824 3.71893 0
M  V30 975 H 91.1432 -0.0483849 0.662235 0
M  V30 976 H 93.6732 0.480508 1.98878 0
M  V30 977 H 93.6832 -0.961635 3.96505 0
M  V30 978 H 92.3582 0.174903 4.15532 0
M  V30 979 H 90.9352 -1.49985 3.41407 0
M  V30 980 N 93.1203 -1.57491 0.0584922 0
M  V30 981 C 94.0683 -2.13148 -0.931168 0
M  V30 982 C 95.0623 -1.06507 -1.31729 0
M  V30 983 O 96.2683 -1.24906 -1.29609 0
M  V30 984 H 92.6433 -0.68137 -0.31818 0
M  V30 985 H 94.6143 -2.95187 -0.436707 0
M  V30 986 C 93.3633 -2.69732 -2.19408 0
M  V30 987 H 92.6863 -3.51454 -1.90578 0
M  V30 988 H 94.1263 -3.12287 -2.86798 0
M  V30 989 C 92.5853 -1.63855 -2.94369 0
M  V30 990 O 93.1153 -1.05565 -3.87581 0
M  V30 991 N 91.3213 -1.35202 -2.57233 0
M  V30 992 H 90.8683 -1.82791 -1.81508 0
M  V30 993 H 90.8263 -0.645922 -3.07693 0
M  V30 994 N 94.5984 0.214957 -1.56127 0
M  V30 995 C 95.8464 0.936518 -1.79091 0
M  V30 996 C 96.1674 1.84606 -0.628148 0
M  V30 997 O 95.4374 1.92664 0.35462 0
M  V30 998 H 94.0174 0.3488 -0.660566 0
M  V30 999 H 96.6794 0.22523 -1.93594 0
M  V30 1000 H 95.7754 1.53943 -2.71492 0
M  V30 1001 N 96.0765 1.50051 0.48192 0
M  V30 1002 C 97.0265 1.64512 1.5786 0
M  V30 1003 C 98.0105 0.500073 1.52932 0
M  V30 1004 O 99.2025 0.753964 1.60139 0
M  V30 1005 C 96.3315 1.73263 2.9637 0
M  V30 1006 C 95.4175 2.93409 3.06222 0
M  V30 1007 N 95.8085 4.17236 2.85915 0
M  V30 1008 C 94.1065 2.91742 3.37346 0
M  V30 1009 C 94.8075 4.981 3.00451 0
M  V30 1010 N 93.7835 4.3184 3.30174 0
M  V30 1011 H 97.5855 2.57955 1.40842 0
M  V30 1012 H 95.0995 1.47086 0.688439 0
M  V30 1013 H 97.0965 1.81724 3.75209 0
M  V30 1014 H 95.7565 0.809711 3.14442 0
M  V30 1015 H 96.7675 4.46909 2.6171 0
M  V30 1016 H 93.4445 2.08907 3.61475 0
M  V30 1017 H 94.8345 6.06532 2.89082 0
M  V30 1018 N 97.5546 -0.734337 1.39446 0
M  V30 1019 C 98.8026 -1.49096 1.36436 0
M  V30 1020 C 99.1236 -1.94961 -0.0388255 0
M  V30 1021 O 98.3936 -1.69033 -0.990191 0
M  V30 1022 H 96.9736 -0.5531 0.502085 0
M  V30 1023 H 99.6356 -0.871725 1.74319 0
M  V30 1024 H 98.7316 -2.37276 2.02747 0
M  V30 1025 N 99.0327 -1.24633 -0.964593 0
M  V30 1026 C 100.258 -1.11596 -1.74818 0
M  V30 1027 C 100.683 0.32723 -1.85232 0
M  V30 1028 O 100.041 1.23695 -1.32549 0
M  V30 1029 C 100.089 -1.76397 -3.1451 0
M  V30 1030 O 99.1927 -1.03685 -3.99153 0
M  V30 1031 H 98.5337 -0.390196 -0.537255 0
M  V30 1032 H 101.064 -1.65002 -1.20977 0
M  V30 1033 H 101.074 -1.8228 -3.65018 0
M  V30 1034 H 99.7487 -2.81401 -3.06246 0
M  V30 1035 H 98.3257 -1.05611 -3.57632 0
M  V30 1036 N 100.511 1.16574 -1.06058 0
M  V30 1037 C 101.444 2.19798 -0.61352 0
M  V30 1038 C 102.422 1.58509 0.362453 0
M  V30 1039 O 103.606 1.86527 0.271994 0
M  V30 1040 C 100.733 3.3855 0.100915 0
M  V30 1041 C 99.7788 4.18317 -0.831438 0
M  V30 1042 S 100.612 4.82375 -2.32539 0
M  V30 1043 C 101.768 6.04508 -1.62238 0
M  V30 1044 H 102.001 2.5738 -1.48805 0
M  V30 1045 H 99.5338 1.27327 -0.873338 0
M  V30 1046 H 101.492 4.07358 0.506898 0
M  V30 1047 H 100.153 2.99338 0.951604 0
M  V30 1048 H 99.3458 5.03232 -0.278071 0
M  V30 1049 H 98.9478 3.5499 -1.17719 0
M  V30 1050 H 101.24 6.71133 -0.926622 0
M  V30 1051 H 102.183 6.64389 -2.44934 0
M  V30 1052 H 102.591 5.53559 -1.106 0
M  V30 1053 N 101.989 0.842826 1.3317 0
M  V30 1054 C 102.919 0.294028 2.31641 0
M  V30 1055 C 103.9 -0.600401 1.59151 0
M  V30 1056 O 105.085 -0.523124 1.87022 0
M  V30 1057 C 102.215 -0.528416 3.43257 0
M  V30 1058 C 101.169 0.27056 4.27144 0
M  V30 1059 C 100.495 -0.675881 5.30411 0
M  V30 1060 C 101.795 1.48981 5.00602 0
M  V30 1061 H 103.489 1.11681 2.77791 0
M  V30 1062 H 101.035 0.538478 1.33553 0
M  V30 1063 H 102.988 -0.922674 4.11175 0
M  V30 1064 H 101.712 -1.38445 2.95805 0
M  V30 1065 H 100.371 0.646427 3.60856 0
M  V30 1066 H 100.019 -1.52842 4.79216 0
M  V30 1067 H 99.7189 -0.145374 5.8742 0
M  V30 1068 H 101.243 -1.06757 6.01195 0
M  V30 1069 H 102.657 1.16849 5.61266 0
M  V30 1070 H 101.054 1.95739 5.6728 0
M  V30 1071 H 102.124 2.25746 4.29147 0
M  V30 1072 N 103.467 -1.45747 0.599634 0
M  V30 1073 C 104.716 -2.01502 0.0893511 0
M  V30 1074 C 105.029 -1.4748 -1.28488 0
M  V30 1075 O 106.235 -1.95161 -1.88745 0
M  V30 1076 C 104.691 -3.59735 0.109082 0
M  V30 1077 C 104.299 -4.22754 1.48267 0
M  V30 1078 C 106.043 -4.23085 -0.346374 0
M  V30 1079 C 103.95 -5.73115 1.45921 0
M  V30 1080 H 102.88 -0.753417 0.0296347 0
M  V30 1081 H 105.531 -1.67303 0.753788 0
M  V30 1082 H 103.913 -3.91087 -0.621854 0
M  V30 1083 H 105.087 -4.02987 2.23468 0
M  V30 1084 H 103.402 -3.71567 1.87955 0
M  V30 1085 H 105.999 -5.33327 -0.38298 0
M  V30 1086 H 106.342 -3.93201 -1.36743 0
M  V30 1087 H 106.875 -3.9642 0.331038 0
M  V30 1088 H 103.614 -6.07685 2.45762 0
M  V30 1089 H 103.134 -5.95097 0.749665 0
M  V30 1090 H 104.813 -6.3616 1.17941 0
M  V30 1091 N 104.945 -0.338344 -1.53925 0
M  V30 1092 C 106.175 0.260919 -2.04946 0
M  V30 1093 C 106.583 1.45174 -1.2133 0
M  V30 1094 O 105.926 1.82122 -0.240262 0
M  V30 1095 C 105.988 0.744596 -3.51704 0
M  V30 1096 C 105.652 -0.325883 -4.55837 0
M  V30 1097 C 106.649 -1.16687 -5.06636 0
M  V30 1098 C 104.334 -0.478317 -5.00017 0
M  V30 1099 C 106.328 -2.14588 -6.00192 0
M  V30 1100 C 104.015 -1.46073 -5.93385 0
M  V30 1101 C 105.013 -2.29297 -6.4336 0
M  V30 1102 O 104.701 -3.25867 -7.34892 0
M  V30 1103 H 104.433 0.0551207 -0.673749 0
M  V30 1104 H 106.987 -0.486984 -1.99544 0
M  V30 1105 H 105.217 1.54366 -3.54553 0
M  V30 1106 H 106.906 1.26383 -3.85723 0
M  V30 1107 H 107.672 -1.06016 -4.73271 0
M  V30 1108 H 103.551 0.159613 -4.60724 0
M  V30 1109 H 107.095 -2.79585 -6.39123 0
M  V30 1110 H 102.992 -1.56802 -6.26166 0
M  V30 1111 H 103.76 -3.21278 -7.5281 0
M  V30 1112 N 106.423 1.57458 -0.0668435 0
M  V30 1113 C 107.648 1.9804 0.616027 0
M  V30 1114 C 108.073 0.944771 1.62652 0
M  V30 1115 O 107.431 -0.0902094 1.81075 0
M  V30 1116 C 107.479 3.37665 1.26549 0
M  V30 1117 O 106.583 3.36701 2.38131 0
M  V30 1118 H 105.924 0.644719 0.158849 0
M  V30 1119 H 108.454 2.04121 -0.139891 0
M  V30 1120 H 108.464 3.7474 1.6135 0
M  V30 1121 H 107.139 4.12573 0.525016 0
M  V30 1122 H 105.716 3.1139 2.0516 0
M  V30 1123 N 107.901 -0.206675 1.56239 0
M  V30 1124 C 108.831 -1.25909 1.96645 0
M  V30 1125 C 109.812 -1.48097 0.836734 0
M  V30 1126 O 110.997 -1.6003 1.10019 0
M  V30 1127 C 108.127 -2.6058 2.29599 0
M  V30 1128 C 107.081 -2.53024 3.452 0
M  V30 1129 C 106.407 -3.91861 3.63798 0
M  V30 1130 C 107.707 -2.06524 4.79734 0
M  V30 1131 H 109.401 -0.923369 2.84806 0
M  V30 1132 H 106.947 -0.442735 1.37025 0
M  V30 1133 H 108.9 -3.34375 2.56459 0
M  V30 1134 H 107.624 -2.95869 1.38307 0
M  V30 1135 H 106.283 -1.81684 3.18412 0
M  V30 1136 H 105.931 -4.24483 2.69857 0
M  V30 1137 H 105.631 -3.87683 4.4156 0
M  V30 1138 H 107.155 -4.67296 3.93022 0
M  V30 1139 H 108.569 -2.70072 5.05702 0
M  V30 1140 H 106.966 -2.13374 5.60885 0
M  V30 1141 H 108.036 -1.01802 4.74093 0
M  V30 1142 N 109.379 -1.50304 -0.473955 0
M  V30 1143 C 110.309 -1.71886 -1.58042 0
M  V30 1144 C 111.29 -0.567799 -1.60344 0
M  V30 1145 O 112.475 -0.806623 -1.76656 0
M  V30 1146 C 109.605 -1.81036 -2.96384 0
M  V30 1147 C 108.559 -2.962 -3.08949 0
M  V30 1148 C 107.885 -2.9049 -4.48909 0
M  V30 1149 C 109.185 -4.36752 -2.86434 0
M  V30 1150 H 110.879 -2.64527 -1.40234 0
M  V30 1151 H 108.425 -1.27295 -0.673201 0
M  V30 1152 H 110.378 -1.94719 -3.73714 0
M  V30 1153 H 109.102 -0.850147 -3.15341 0
M  V30 1154 H 107.761 -2.82164 -2.3405 0
M  V30 1155 H 107.409 -1.92321 -4.64781 0
M  V30 1156 H 107.109 -3.67802 -4.58253 0
M  V30 1157 H 108.633 -3.06218 -5.28264 0
M  V30 1158 H 110.047 -4.5133 -3.53517 0
M  V30 1159 H 108.444 -5.15493 -3.07225 0
M  V30 1160 H 109.514 -4.49321 -1.82316 0
M  V30 1161 N 110.857 0.726932 -1.39834 0
M  V30 1162 C 111.807 1.83232 -1.35683 0
M  V30 1163 C 112.791 1.59155 -0.236295 0
M  V30 1164 O 113.983 1.70522 -0.474488 0
M  V30 1165 C 111.112 3.21246 -1.21062 0
M  V30 1166 C 110.198 3.51125 -2.37849 0
M  V30 1167 N 110.589 3.51889 -3.63329 0
M  V30 1168 C 108.887 3.81527 -2.30982 0
M  V30 1169 C 109.588 3.79791 -4.40606 0
M  V30 1170 N 108.564 3.97971 -3.70297 0
M  V30 1171 H 112.366 1.8214 -2.30656 0
M  V30 1172 H 109.88 0.925545 -1.33444 0
M  V30 1173 H 111.877 4.00387 -1.16171 0
M  V30 1174 H 110.537 3.23572 -0.270458 0
M  V30 1175 H 111.548 3.33008 -3.96643 0
M  V30 1176 H 108.225 3.91411 -1.45272 0
M  V30 1177 H 109.615 3.86783 -5.49408 0
M  V30 1178 N 112.336 1.25143 0.95797 0
M  V30 1179 C 113.266 1.07711 2.07173 0
M  V30 1180 C 114.247 -0.0128462 1.70095 0
M  V30 1181 O 115.432 0.156061 1.93572 0
M  V30 1182 C 112.562 0.691503 3.40346 0
M  V30 1183 C 111.516 1.73132 3.9142 0
M  V30 1184 C 110.842 1.20049 5.21049 0
M  V30 1185 C 112.142 3.1294 4.1817 0
M  V30 1186 H 113.836 2.00873 2.22014 0
M  V30 1187 H 111.382 0.967191 1.06684 0
M  V30 1188 H 113.335 0.556505 4.17709 0
M  V30 1189 H 112.059 -0.275819 3.25433 0
M  V30 1190 H 110.718 1.8547 3.16222 0
M  V30 1191 H 110.366 0.223499 5.02503 0
M  V30 1192 H 110.066 1.89545 5.56189 0
M  V30 1193 H 111.59 1.07782 6.01012 0
M  V30 1194 H 113.004 3.03775 4.86203 0
M  V30 1195 H 111.401 3.79875 4.64559 0
M  V30 1196 H 112.471 3.6025 3.24573 0
M  V30 1197 N 113.814 -1.1601 1.06675 0
M  V30 1198 C 115.042 -1.90527 0.806667 0
M  V30 1199 C 115.457 -1.77643 -0.639396 0
M  V30 1200 O 114.814 -1.12369 -1.43803 0
M  V30 1201 C 114.865 -3.41106 1.19705 0
M  V30 1202 O 114.586 -3.53608 2.58636 0
M  V30 1203 C 116.087 -4.32663 0.965266 0
M  V30 1204 H 113.307 -0.604053 0.292166 0
M  V30 1205 H 115.851 -1.47026 1.4214 0
M  V30 1206 H 114.006 -3.82296 0.626774 0
M  V30 1207 H 114.42 -4.47011 2.74375 0
M  V30 1208 H 115.894 -5.36763 1.288 0
M  V30 1209 H 116.371 -4.39089 -0.0987936 0
M  V30 1210 H 116.977 -3.97206 1.52011 0
M  V30 1211 N 115.292 -0.849877 -1.32721 0
M  V30 1212 C 116.54 -0.450032 -1.97026 0
M  V30 1213 C 116.861 0.996604 -1.67609 0
M  V30 1214 O 116.131 1.6958 -0.980786 0
M  V30 1215 H 114.711 -0.163426 -0.728904 0
M  V30 1216 H 117.373 -1.08526 -1.6189 0
M  V30 1217 H 116.469 -0.591146 -3.0645 0
M  V30 1218 N 116.77 1.45427 -0.607355 0
M  V30 1219 C 118 2.06314 -0.108656 0
M  V30 1220 C 118.408 1.45269 1.21217 0
M  V30 1221 O 117.751 0.561115 1.74921 0
M  V30 1222 C 117.813 3.59345 0.105618 0
M  V30 1223 C 117.477 4.42723 -1.13337 0
M  V30 1224 C 118.474 4.77715 -2.05145 0
M  V30 1225 C 116.159 4.83478 -1.36213 0
M  V30 1226 C 118.153 5.52317 -3.18158 0
M  V30 1227 C 115.84 5.57835 -2.49527 0
M  V30 1228 C 116.838 5.92171 -3.40327 0
M  V30 1229 O 116.526 6.65019 -4.51669 0
M  V30 1230 H 116.258 0.672782 -0.0658842 0
M  V30 1231 H 118.812 1.87664 -0.834945 0
M  V30 1232 H 117.042 3.76394 0.886796 0
M  V30 1233 H 118.731 4.02076 0.555886 0
M  V30 1234 H 119.497 4.46787 -1.88697 0
M  V30 1235 H 115.376 4.56188 -0.664362 0
M  V30 1236 H 118.92 5.79036 -3.89054 0
M  V30 1237 H 114.817 5.88177 -2.65928 0
M  V30 1238 H 115.585 6.83469 -4.50348 0
M  V30 1239 N 118.248 0.346503 1.53744 0
M  V30 1240 C 119.525 -0.304532 1.93215 0
M  V30 1241 C 119.905 -1.67993 1.27834 0
M  V30 1242 O 119.253 -2.24411 0.430352 0
M  V30 1243 C 119.463 -0.373852 3.46992 0
M  V30 1244 C 120.811 -0.62329 4.2 0
M  V30 1245 O 121.835 -0.455847 3.53271 0
M  V30 1246 O 120.694 -0.947879 5.38217 0
M  V30 1247 H 117.788 -0.178318 0.807547 0
M  V30 1248 H 120.334 0.397895 1.64969 0
M  V30 1249 H 119.106 0.591224 3.86808 0
M  V30 1250 H 118.729 -1.12294 3.81413 0
M  V30 1251 N 119.726 -1.57421 0.075193 0
M  V30 1252 C 120.656 -2.15942 -0.888324 0
M  V30 1253 C 121.637 -1.08737 -1.30806 0
M  V30 1254 O 122.822 -1.36787 -1.37851 0
M  V30 1255 C 119.952 -2.72379 -2.1547 0
M  V30 1256 C 118.906 -3.8478 -1.87425 0
M  V30 1257 C 118.232 -4.27834 -3.20721 0
M  V30 1258 C 119.532 -5.08869 -1.17684 0
M  V30 1259 H 121.226 -2.96705 -0.400799 0
M  V30 1260 H 118.772 -1.42723 -0.191342 0
M  V30 1261 H 120.725 -3.11965 -2.83295 0
M  V30 1262 H 119.449 -1.88841 -2.6647 0
M  V30 1263 H 118.108 -3.45703 -1.22004 0
M  V30 1264 H 117.756 -3.41214 -3.6957 0
M  V30 1265 H 117.456 -5.03605 -3.02746 0
M  V30 1266 H 118.98 -4.70039 -3.89738 0
M  V30 1267 H 120.394 -5.4575 -1.75584 0
M  V30 1268 H 118.791 -5.8994 -1.09956 0
M  V30 1269 H 119.861 -4.84648 -0.156453 0
M  V30 1270 N 121.204 0.198386 -1.56346 0
M  V30 1271 C 122.615 0.763358 -1.70381 0
M  V30 1272 C 122.966 1.83995 -0.681203 0
M  V30 1273 O 122.091 2.15785 0.16305 0
M  V30 1274 C 122.686 1.39143 -3.08909 0
M  V30 1275 C 121.245 1.90352 -3.2472 0
M  V30 1276 C 120.392 0.772233 -2.6633 0
M  V30 1277 H 123.343 -0.0266377 -1.58678 0
M  V30 1278 H 123.364 2.26076 -3.06055 0
M  V30 1279 H 122.876 0.607638 -3.83314 0
M  V30 1280 H 120.977 2.71461 -2.55225 0
M  V30 1281 H 121.09 2.06757 -4.3219 0
M  V30 1282 H 119.454 1.18566 -2.2542 0
M  V30 1283 H 120.237 0.00073556 -3.433 0
M  V30 1284 N 122.682 1.50554 0.465978 0
M  V30 1285 C 123.615 1.64436 1.58227 0
M  V30 1286 C 124.593 0.492367 1.54966 0
M  V30 1287 O 125.777 0.712536 1.74514 0
M  V30 1288 C 122.904 1.63165 2.96808 0
M  V30 1289 C 121.95 2.83987 3.18204 0
M  V30 1290 S 122.783 4.45219 2.97557 0
M  V30 1291 C 123.939 4.46649 4.3847 0
M  V30 1292 H 124.172 2.58861 1.46213 0
M  V30 1293 H 121.705 1.3988 0.653678 0
M  V30 1294 H 123.663 1.63116 3.76701 0
M  V30 1295 H 122.324 0.69967 3.06208 0
M  V30 1296 H 121.517 2.79416 4.19455 0
M  V30 1297 H 121.119 2.81629 2.46092 0
M  V30 1298 H 123.411 4.20526 5.31191 0
M  V30 1299 H 124.354 5.48295 4.48082 0
M  V30 1300 H 124.762 3.76296 4.20787 0
M  V30 1301 N 124.16 -0.719506 1.40217 0
M  V30 1302 C 125.07 -1.86378 1.42479 0
M  V30 1303 C 126.086 -1.71073 0.317834 0
M  V30 1304 O 127.262 -1.93406 0.561794 0
M  V30 1305 C 124.327 -3.22136 1.28178 0
M  V30 1306 C 123.388 -3.49723 2.48982 0
M  V30 1307 C 122.621 -4.79004 2.35353 0
M  V30 1308 O 122.844 -5.53821 1.36524 0
M  V30 1309 O 121.778 -5.06839 3.2465 0
M  V30 1310 H 125.604 -1.87425 2.38968 0
M  V30 1311 H 123.189 -0.869405 1.21498 0
M  V30 1312 H 125.071 -4.03234 1.22395 0
M  V30 1313 H 123.746 -3.21825 0.347934 0
M  V30 1314 H 122.653 -2.6865 2.60342 0
M  V30 1315 H 123.986 -3.54828 3.41113 0
M  V30 1316 N 125.638 -1.25649 -0.95132 0
M  V30 1317 C 126.548 -1.08073 -2.08224 0
M  V30 1318 C 127.564 -0.0169666 -1.73992 0
M  V30 1319 O 128.74 -0.218593 -2.0021 0
M  V30 1320 C 125.805 -0.704922 -3.39458 0
M  V30 1321 C 124.866 -1.84699 -3.87537 0
M  V30 1322 C 124.099 -1.48902 -5.12508 0
M  V30 1323 O 124.322 -0.386156 -5.69091 0
M  V30 1324 O 123.256 -2.32033 -5.55378 0
M  V30 1325 H 127.082 -2.02924 -2.25954 0
M  V30 1326 H 124.667 -1.04618 -1.06656 0
M  V30 1327 H 126.549 -0.507609 -4.18332 0
M  V30 1328 H 125.224 0.214291 -3.2299 0
M  V30 1329 H 124.131 -2.09919 -3.09653 0
M  V30 1330 H 125.464 -2.74557 -4.08509 0
M  V30 1331 N 127.117 1.15442 -1.07289 0
M  V30 1332 C 128.047 2.22312 -0.714107 0
M  V30 1333 C 129.028 1.67467 0.298155 0
M  V30 1334 O 130.213 1.93445 0.171048 0
M  V30 1335 C 127.343 3.47124 -0.110448 0
M  V30 1336 C 126.297 4.14926 -1.04979 0
M  V30 1337 C 125.623 5.33807 -0.308924 0
M  V30 1338 C 126.923 4.64762 -2.38314 0
M  V30 1339 H 128.617 2.5258 -1.6076 0
M  V30 1340 H 126.163 1.21404 -0.77441 0
M  V30 1341 H 128.116 4.21124 0.152482 0
M  V30 1342 H 126.84 3.16187 0.81812 0
M  V30 1343 H 125.499 3.42866 -1.29764 0
M  V30 1344 H 125.147 4.99126 0.623084 0
M  V30 1345 H 124.847 5.80113 -0.935036 0
M  V30 1346 H 126.371 6.10576 -0.0537771 0
M  V30 1347 H 127.785 5.30292 -2.1786 0
M  V30 1348 H 126.182 5.21728 -2.96514 0
M  V30 1349 H 127.252 3.80434 -3.00663 0
M  V30 1350 N 128.595 0.856903 1.32268 0
M  V30 1351 C 129.542 0.301172 2.28827 0
M  V30 1352 C 130.512 -0.593104 1.5515 0
M  V30 1353 O 131.697 -0.527537 1.83362 0
M  V30 1354 C 128.837 -0.502523 3.41422 0
M  V30 1355 C 127.95 0.417797 4.29975 0
M  V30 1356 C 127.085 -0.398749 5.29701 0
M  V30 1357 C 126.124 0.518827 6.09897 0
M  V30 1358 N 125.261 -0.260674 7.01616 0
M  V30 1359 H 130.101 1.12983 2.75751 0
M  V30 1360 H 127.638 0.568582 1.35667 0
M  V30 1361 H 129.596 -0.984141 4.05426 0
M  V30 1362 H 128.226 -1.29599 2.95642 0
M  V30 1363 H 127.278 1.01781 3.66531 0
M  V30 1364 H 128.59 1.12191 4.86019 0
M  V30 1365 H 127.744 -0.943435 5.9932 0
M  V30 1366 H 126.483 -1.13622 4.7428 0
M  V30 1367 H 125.488 1.07538 5.39181 0
M  V30 1368 H 126.713 1.25495 6.67404 0
M  V30 1369 H 124.659 -0.981198 6.4862 0
M  V30 1370 H 124.576 0.384364 7.55022 0
M  V30 1371 H 125.844 -0.787014 7.75517 0
M  V30 1372 N 130.073 -1.45103 0.615059 0
M  V30 1373 C 131.021 -2.32331 -0.111791 0
M  V30 1374 C 132.015 -1.46409 -0.852102 0
M  V30 1375 O 133.221 -1.62849 -0.766821 0
M  V30 1376 H 129.596 -0.749993 -0.0549072 0
M  V30 1377 H 131.567 -2.91407 0.642225 0
M  V30 1378 C 130.316 -3.3015 -1.09071 0
M  V30 1379 H 129.639 -3.96265 -0.530485 0
M  V30 1380 H 131.079 -3.93898 -1.56908 0
M  V30 1381 C 129.538 -2.57875 -2.168 0
M  V30 1382 O 130.068 -2.36567 -3.24652 0
M  V30 1383 N 128.274 -2.17884 -1.92289 0
M  V30 1384 H 127.821 -2.35413 -1.04587 0
M  V30 1385 H 127.779 -1.6985 -2.64572 0
M  V30 1386 N 131.551 -0.354651 -1.53558 0
M  V30 1387 C 132.798 0.238443 -2.01091 0
M  V30 1388 C 133.126 1.49663 -1.24222 0
M  V30 1389 O 132.381 1.93049 -0.321003 0
M  V30 1390 C 132.68 0.587121 -3.52545 0
M  V30 1391 C 132.346 -0.575472 -4.47213 0
M  V30 1392 C 131.008 -0.894497 -4.72813 0
M  V30 1393 C 133.36 -1.35489 -5.03281 0
M  V30 1394 C 130.688 -1.99511 -5.51736 0
M  V30 1395 C 133.04 -2.44583 -5.83405 0
M  V30 1396 C 131.704 -2.77033 -6.07296 0
M  V30 1397 H 130.974 0.0872526 -0.735845 0
M  V30 1398 H 133.621 -0.484859 -1.8526 0
M  V30 1399 H 131.926 1.39129 -3.66265 0
M  V30 1400 H 133.623 1.05809 -3.86789 0
M  V30 1401 H 130.213 -0.316774 -4.27428 0
M  V30 1402 H 134.397 -1.12167 -4.83459 0
M  V30 1403 H 129.653 -2.25063 -5.68469 0
M  V30 1404 H 133.827 -3.05401 -6.25862 0
M  V30 1405 H 131.454 -3.6244 -6.68237 0
M  V30 1406 N 133.029 1.57378 -0.0835403 0
M  V30 1407 C 134.445 1.57246 0.273109 0
M  V30 1408 C 134.645 1.09385 1.69225 0
M  V30 1409 O 133.701 0.765051 2.40631 0
M  V30 1410 C 135.014 3.00614 0.0720628 0
M  V30 1411 C 136.562 3.12684 0.1407 0
M  V30 1412 C 137.037 4.57989 -0.0322094 0
M  V30 1413 N 138.528 4.63194 0.0230085 0
M  V30 1414 C 139.263 5.73335 -0.0861941 0
M  V30 1415 N 138.759 6.9235 -0.24958 0
M  V30 1416 N 140.552 5.62093 -0.0282886 0
M  V30 1417 H 132.703 1.86801 -1.0109 0
M  V30 1418 H 134.966 0.861687 -0.395222 0
M  V30 1419 H 134.672 3.39786 -0.907662 0
M  V30 1420 H 134.546 3.68193 0.81936 0
M  V30 1421 H 136.933 2.73391 1.11092 0
M  V30 1422 H 137.014 2.47719 -0.637896 0
M  V30 1423 H 136.658 4.97973 -0.999247 0
M  V30 1424 H 136.588 5.21 0.765937 0
M  V30 1425 H 139.079 3.77613 0.14722 0
M  V30 1426 H 139.392 7.72117 -0.324733 0
M  V30 1427 H 137.737 6.94415 -0.285097 0
M  V30 1428 H 140.928 4.67997 0.0981408 0
M  V30 1429 H 141.101 6.47895 -0.116845 0
M  V30 1430 N 134.507 -0.190092 1.56449 0
M  V30 1431 C 135.439 -1.25973 1.91477 0
M  V30 1432 C 136.452 -1.41452 0.805931 0
M  V30 1433 O 137.641 -1.41789 1.08435 0
M  V30 1434 C 134.741 -2.63117 2.13594 0
M  V30 1435 C 133.914 -2.69182 3.4476 0
M  V30 1436 C 132.973 -3.87557 3.5593 0
M  V30 1437 O 131.999 -3.74427 4.28711 0
M  V30 1438 N 133.201 -5.03224 2.89388 0
M  V30 1439 H 135.966 -0.962394 2.83828 0
M  V30 1440 H 133.527 -0.379981 1.57378 0
M  V30 1441 H 135.519 -3.40742 2.1835 0
M  V30 1442 H 134.089 -2.85319 1.27719 0
M  V30 1443 H 133.309 -1.77793 3.51828 0
M  V30 1444 H 134.597 -2.70229 4.31107 0
M  V30 1445 H 133.995 -5.16791 2.30094 0
M  V30 1446 H 132.552 -5.78778 2.99764 0
M  V30 1447 N 135.985 -1.50799 -0.457987 0
M  V30 1448 C 136.915 -1.73553 -1.5621 0
M  V30 1449 C 137.896 -0.584774 -1.59732 0
M  V30 1450 O 139.081 -0.825314 -1.7579 0
M  V30 1451 C 136.211 -1.84169 -2.94447 0
M  V30 1452 C 135.165 -2.99461 -3.0579 0
M  V30 1453 C 134.491 -2.95235 -4.45803 0
M  V30 1454 C 135.791 -4.39766 -2.81786 0
M  V30 1455 H 137.485 -2.66 -1.37421 0
M  V30 1456 H 135.031 -1.28002 -0.659662 0
M  V30 1457 H 136.984 -1.98672 -3.71628 0
M  V30 1458 H 135.708 -0.883545 -3.14422 0
M  V30 1459 H 134.367 -2.8463 -2.31044 0
M  V30 1460 H 134.015 -1.97239 -4.62715 0
M  V30 1461 H 133.715 -3.72642 -4.54326 0
M  V30 1462 H 135.239 -3.11803 -5.24987 0
M  V30 1463 H 136.653 -4.55054 -3.4871 0
M  V30 1464 H 135.05 -5.18722 -3.0174 0
M  V30 1465 H 136.12 -4.51229 -1.7754 0
M  V30 1466 N 137.463 0.71206 -1.40597 0
M  V30 1467 C 138.413 1.81783 -1.37619 0
M  V30 1468 C 139.397 1.58896 -0.253162 0
M  V30 1469 O 140.589 1.70009 -0.492547 0
M  V30 1470 C 137.718 3.19944 -1.24462 0
M  V30 1471 C 136.804 3.48582 -2.4156 0
M  V30 1472 N 137.195 3.48016 -3.67041 0
M  V30 1473 C 135.493 3.79056 -2.35016 0
M  V30 1474 C 136.194 3.75096 -4.44609 0
M  V30 1475 N 135.17 3.94022 -3.74497 0
M  V30 1476 H 138.972 1.79683 -2.32575 0
M  V30 1477 H 136.486 0.91134 -1.34419 0
M  V30 1478 H 138.483 3.99133 -1.20411 0
M  V30 1479 H 137.143 3.23267 -0.304762 0
M  V30 1480 H 138.154 3.28782 -4.00153 0
M  V30 1481 H 134.831 3.89848 -1.49415 0
M  V30 1482 H 136.221 3.80934 -5.53479 0
M  V30 1483 N 138.941 1.26152 0.944643 0
M  V30 1484 C 140.166 1.14363 1.7302 0
M  V30 1485 C 140.591 -0.29772 1.85729 0
M  V30 1486 O 139.949 -1.2157 1.34501 0
M  V30 1487 C 139.997 1.81378 3.11664 0
M  V30 1488 O 139.101 1.10022 3.97453 0
M  V30 1489 H 138.442 0.398694 0.53098 0
M  V30 1490 H 140.972 1.66906 1.18337 0
M  V30 1491 H 140.982 1.88064 3.62072 0
M  V30 1492 H 139.657 2.86237 3.0173 0
M  V30 1493 H 138.234 1.11287 3.55907 0
M  V30 1494 N 140.419 -1.14872 1.07899 0
M  V30 1495 C 141.366 -2.19791 0.704319 0
M  V30 1496 C 142.336 -1.63238 -0.306987 0
M  V30 1497 O 143.521 -1.8983 -0.192171 0
M  V30 1498 C 140.661 -3.44911 0.114244 0
M  V30 1499 C 139.774 -4.15637 1.1777 0
M  V30 1500 C 138.909 -5.28324 0.552037 0
M  V30 1501 C 137.948 -5.90875 1.59789 0
M  V30 1502 N 137.085 -6.95022 0.994404 0
M  V30 1503 H 141.925 -2.5119 1.60336 0
M  V30 1504 H 139.462 -1.23356 0.801352 0
M  V30 1505 H 141.42 -4.16477 -0.245544 0
M  V30 1506 H 140.05 -3.14011 -0.74813 0
M  V30 1507 H 139.102 -3.42512 1.65499 0
M  V30 1508 H 140.414 -4.5823 1.97046 0
M  V30 1509 H 139.568 -6.06538 0.1402 0
M  V30 1510 H 138.307 -4.86939 -0.272431 0
M  V30 1511 H 137.312 -5.11369 2.01945 0
M  V30 1512 H 138.537 -6.34337 2.42474 0
M  V30 1513 H 136.483 -6.55722 0.190939 0
M  V30 1514 H 136.4 -7.36073 1.72432 0
M  V30 1515 H 137.668 -7.77123 0.608253 0
M  V30 1516 N 141.898 -0.863906 -1.31812 0
M  V30 1517 C 143.126 -0.486111 -2.01108 0
M  V30 1518 C 143.541 0.919755 -1.64882 0
M  V30 1519 O 142.898 1.60162 -0.874893 0
M  V30 1520 C 142.949 -0.626435 -3.56031 0
M  V30 1521 O 142.67 -1.97693 -3.90959 0
M  V30 1522 C 144.171 -0.248857 -4.42601 0
M  V30 1523 H 141.391 -0.190052 -0.643523 0
M  V30 1524 H 143.935 -1.1634 -1.68182 0
M  V30 1525 H 142.09 0.00322717 -3.874 0
M  V30 1526 H 142.504 -1.98034 -4.85678 0
M  V30 1527 H 143.978 -0.398016 -5.50563 0
M  V30 1528 H 144.455 0.811489 -4.31638 0
M  V30 1529 H 145.061 -0.853971 -4.16638 0
M  V30 1530 N 143.376 1.44774 -0.622745 0
M  V30 1531 C 144.787 1.85546 -0.207226 0
M  V30 1532 C 145.138 1.52093 1.23944 0
M  V30 1533 O 144.263 0.95492 1.94191 0
M  V30 1534 C 144.858 3.36781 -0.369313 0
M  V30 1535 C 143.417 3.76399 -0.00836847 0
M  V30 1536 C 142.564 2.68664 -0.686651 0
M  V30 1537 H 145.515 1.3536 -0.828454 0
M  V30 1538 H 145.536 3.78453 0.394162 0
M  V30 1539 H 145.048 3.61098 -1.42231 0
M  V30 1540 H 143.149 3.57698 1.04322 0
M  V30 1541 H 143.262 4.7732 -0.412584 0
M  V30 1542 H 141.626 2.54404 -0.122777 0
M  V30 1543 H 142.409 2.95815 -1.74208 0
M  V30 1544 N 144.854 0.36279 1.53368 0
M  V30 1545 C 146.102 -0.227326 2.00817 0
M  V30 1546 C 146.423 -1.49511 1.25186 0
M  V30 1547 O 145.693 -1.92482 0.364348 0
M  V30 1548 H 144.273 -0.0869923 0.741917 0
M  V30 1549 H 146.935 0.488381 1.88682 0
M  V30 1550 H 146.031 -0.456273 3.08747 0
M  V30 1551 N 146.332 -1.57332 0.0918853 0
M  V30 1552 C 147.282 -2.10385 -0.87876 0
M  V30 1553 C 148.266 -1.01814 -1.24591 0
M  V30 1554 O 149.458 -1.28093 -1.22152 0
M  V30 1555 C 146.587 -2.68517 -2.13901 0
M  V30 1556 C 145.673 -3.84126 -1.79744 0
M  V30 1557 N 146.064 -4.92288 -1.1613 0
M  V30 1558 C 144.362 -3.93801 -2.09373 0
M  V30 1559 C 145.063 -5.7295 -1.00513 0
M  V30 1560 N 144.039 -5.21876 -1.5214 0
M  V30 1561 H 147.841 -2.91395 -0.38293 0
M  V30 1562 H 145.355 -1.62017 -0.111423 0
M  V30 1563 H 147.352 -3.04852 -2.84378 0
M  V30 1564 H 146.012 -1.88961 -2.64053 0
M  V30 1565 H 147.023 -5.1123 -0.828504 0
M  V30 1566 H 143.7 -3.25249 -2.61762 0
M  V30 1567 H 145.09 -6.69978 -0.507902 0
M  V30 1568 N 147.81 0.181792 -1.56548 0
M  V30 1569 C 149.221 0.745244 -1.71181 0
M  V30 1570 C 149.572 1.83262 -0.70068 0
M  V30 1571 O 148.697 2.15946 0.140154 0
M  V30 1572 C 149.292 1.35859 -3.10367 0
M  V30 1573 C 147.851 1.86898 -3.2672 0
M  V30 1574 C 146.998 0.743942 -2.67134 0
M  V30 1575 H 149.949 -0.0434661 -1.5864 0
M  V30 1576 H 149.97 2.22817 -3.08436 0
M  V30 1577 H 149.482 0.566948 -3.83937 0
M  V30 1578 H 147.583 2.68738 -2.5809 0
M  V30 1579 H 147.696 2.02162 -4.34359 0
M  V30 1580 H 146.06 1.16169 -2.26665 0
M  V30 1581 H 146.843 -0.035676 -3.43281 0
M  V30 1582 N 149.288 1.51039 0.449983 0
M  V30 1583 C 150.198 1.74261 1.57067 0
M  V30 1584 C 151.214 0.626363 1.62335 0
M  V30 1585 O 152.39 0.907162 1.79812 0
M  V30 1586 C 149.455 1.85114 2.93144 0
M  V30 1587 C 148.516 3.0893 2.98095 0
M  V30 1588 C 147.749 3.19256 4.27681 0
M  V30 1589 O 147.972 2.35835 5.19363 0
M  V30 1590 O 146.906 4.12144 4.38658 0
M  V30 1591 H 150.732 2.69303 1.40391 0
M  V30 1592 H 148.317 1.35389 0.631688 0
M  V30 1593 H 150.199 1.94311 3.73926 0
M  V30 1594 H 148.874 0.932588 3.09975 0
M  V30 1595 H 147.781 3.0522 2.16314 0
M  V30 1596 H 149.114 4.00433 2.86206 0
M  V30 1597 N 150.766 -0.704594 1.40972 0
M  V30 1598 C 152.012 -1.46675 1.40051 0
M  V30 1599 C 152.345 -1.94199 0.00641102 0
M  V30 1600 O 151.62 -1.68916 -0.964235 0
M  V30 1601 C 151.903 -2.68505 2.39952 0
M  V30 1602 C 151.756 -2.26805 3.88432 0
M  V30 1603 C 153.075 -3.70686 2.37233 0
M  V30 1604 H 150.194 -0.532015 0.510028 0
M  V30 1605 H 152.836 -0.803255 1.72185 0
M  V30 1606 H 150.986 -3.25114 2.1268 0
M  V30 1607 H 152.658 -1.75592 4.26574 0
M  V30 1608 H 150.901 -1.58685 4.03734 0
M  V30 1609 H 151.572 -3.14181 4.53866 0
M  V30 1610 H 154.048 -3.23731 2.61415 0
M  V30 1611 H 152.924 -4.53553 3.09162 0
M  V30 1612 H 153.185 -4.19754 1.38777 0
M  V30 1613 N 152.244 -1.26651 -0.937939 0
M  V30 1614 C 153.492 -1.12165 -1.68118 0
M  V30 1615 C 153.813 0.334983 -1.92101 0
M  V30 1616 O 153.083 1.23583 -1.52 0
M  V30 1617 H 151.663 -0.412093 -0.623048 0
M  V30 1618 H 154.325 -1.59027 -1.12678 0
M  V30 1619 H 153.421 -1.64289 -2.6536 0
M  V30 1620 N 153.722 1.14298 -1.08507 0
M  V30 1621 C 154.952 1.88945 -0.835663 0
M  V30 1622 C 155.36 1.78894 0.615928 0
M  V30 1623 O 154.703 1.1468 1.43506 0
M  V30 1624 C 154.765 3.39585 -1.17994 0
M  V30 1625 C 154.429 3.7342 -2.63451 0
M  V30 1626 C 155.426 3.73454 -3.61702 0
M  V30 1627 C 153.111 4.03368 -2.99332 0
M  V30 1628 C 155.105 4.02961 -4.93864 0
M  V30 1629 C 152.792 4.32538 -4.31687 0
M  V30 1630 C 153.79 4.32318 -5.28763 0
M  V30 1631 O 153.478 4.6078 -6.58739 0
M  V30 1632 H 153.21 0.605307 -0.300965 0
M  V30 1633 H 155.764 1.45673 -1.44806 0
M  V30 1634 H 153.994 3.83315 -0.51055 0
M  V30 1635 H 155.683 3.9554 -0.911182 0
M  V30 1636 H 156.449 3.50403 -3.35325 0
M  V30 1637 H 152.328 4.02692 -2.24411 0
M  V30 1638 H 155.872 4.02704 -5.69627 0
M  V30 1639 H 151.769 4.55059 -4.57812 0
M  V30 1640 H 152.537 4.78492 -6.64069 0
M  V30 1641 N 155.201 0.870884 1.31352 0
M  V30 1642 C 156.429 0.49677 2.00848 0
M  V30 1643 C 156.844 -0.910998 1.65367 0
M  V30 1644 O 156.201 -1.59696 0.883374 0
M  V30 1645 C 156.252 0.645308 3.55694 0
M  V30 1646 O 155.973 1.99764 3.89905 0
M  V30 1647 C 157.474 0.272326 4.42463 0
M  V30 1648 H 154.694 0.193462 0.642506 0
M  V30 1649 H 157.238 1.1723 1.67563 0
M  V30 1650 H 155.393 0.0173176 3.87396 0
M  V30 1651 H 155.807 2.00607 4.84621 0
M  V30 1652 H 157.281 0.427208 5.50344 0
M  V30 1653 H 157.758 -0.788587 4.32062 0
M  V30 1654 H 158.364 0.876054 4.1618 0
M  V30 1655 N 156.679 -1.44442 0.630414 0
M  V30 1656 C 157.642 -2.29107 -0.0652523 0
M  V30 1657 C 158.642 -1.41002 -0.772995 0
M  V30 1658 O 159.832 -1.62881 -0.617692 0
M  V30 1659 C 156.964 -3.22564 -1.10296 0
M  V30 1660 H 158.157 -2.92103 0.679401 0
M  V30 1661 H 155.71 -1.51343 0.390517 0
M  V30 1662 H 156.445 -2.64416 -1.87762 0
M  V30 1663 H 156.23 -3.87491 -0.59941 0
M  V30 1664 H 157.72 -3.86167 -1.5895 0
M  V30 1665 N 158.157 -0.370918 -1.53173 0
M  V30 1666 C 159.405 0.216673 -2.00935 0
M  V30 1667 C 159.726 1.48845 -1.25977 0
M  V30 1668 O 158.996 1.92286 -0.374551 0
M  V30 1669 H 157.576 0.0830565 -0.742368 0
M  V30 1670 H 160.238 -0.49838 -1.8842 0
M  V30 1671 H 159.334 0.439893 -3.08984 0
M  V30 1672 N 159.635 1.57281 -0.100228 0
M  V30 1673 C 160.881 1.94826 0.563101 0
M  V30 1674 C 161.214 0.982475 1.67514 0
M  V30 1675 O 160.489 0.0164069 1.94493 0
M  V30 1676 C 160.772 3.42453 1.11346 0
M  V30 1677 C 160.625 4.498 0.00612081 0
M  V30 1678 C 161.944 3.91506 2.01024 0
M  V30 1679 H 159.063 0.708428 0.203221 0
M  V30 1680 H 161.705 1.8922 -0.171979 0
M  V30 1681 H 159.855 3.47361 1.7399 0
M  V30 1682 H 161.527 4.57 -0.628357 0
M  V30 1683 H 159.77 4.28756 -0.659581 0
M  V30 1684 H 160.441 5.50306 0.432109 0
M  V30 1685 H 162.917 3.88784 1.48278 0
M  V30 1686 H 161.793 4.95358 2.36457 0
M  V30 1687 H 162.054 3.31099 2.92961 0
M  V30 1688 N 161.113 -0.173488 1.56642 0
M  V30 1689 C 162.023 -1.23482 1.99473 0
M  V30 1690 C 163.039 -1.48567 0.905752 0
M  V30 1691 O 164.215 -1.60758 1.21321 0
M  V30 1692 C 161.28 -2.55444 2.34413 0
M  V30 1693 C 160.341 -2.38241 3.57127 0
M  V30 1694 C 159.574 -3.63909 3.90392 0
M  V30 1695 O 159.797 -4.68996 3.24653 0
M  V30 1696 O 158.731 -3.58149 4.83749 0
M  V30 1697 H 162.557 -0.901279 2.90018 0
M  V30 1698 H 160.142 -0.380185 1.44482 0
M  V30 1699 H 162.024 -3.33292 2.57865 0
M  V30 1700 H 160.699 -2.88382 1.4703 0
M  V30 1701 H 159.606 -1.58431 3.38896 0
M  V30 1702 H 160.939 -2.10228 4.45045 0
M  V30 1703 N 162.591 -1.51276 -0.441967 0
M  V30 1704 C 163.819 -1.67516 -1.21434 0
M  V30 1705 C 164.234 -0.37055 -1.85128 0
M  V30 1706 O 163.591 0.650498 -1.70513 0
M  V30 1707 C 163.642 -2.78748 -2.30177 0
M  V30 1708 O 163.363 -4.04154 -1.69089 0
M  V30 1709 C 164.864 -3.06217 -3.20541 0
M  V30 1710 H 162.084 -0.562276 -0.366178 0
M  V30 1711 H 164.628 -1.97666 -0.524244 0
M  V30 1712 H 162.783 -2.5121 -2.94911 0
M  V30 1713 H 163.197 -4.65894 -2.40922 0
M  V30 1714 H 164.671 -3.8764 -3.92987 0
M  V30 1715 H 165.148 -2.18439 -3.81026 0
M  V30 1716 H 165.754 -3.35397 -2.61513 0
M  V30 1717 N 164.069 0.697108 -1.41344 0
M  V30 1718 C 165.297 1.48593 -1.43972 0
M  V30 1719 C 165.712 1.88747 -0.0445612 0
M  V30 1720 O 165.069 1.56682 0.935785 0
M  V30 1721 C 165.12 2.74946 -2.34706 0
M  V30 1722 O 164.841 2.36484 -3.68791 0
M  V30 1723 C 166.342 3.687 -2.46121 0
M  V30 1724 H 163.562 0.457964 -0.490418 0
M  V30 1725 H 166.106 0.858429 -1.8561 0
M  V30 1726 H 164.261 3.33937 -1.9638 0
M  V30 1727 H 164.675 3.17918 -4.17167 0
M  V30 1728 H 166.149 4.54145 -3.13777 0
M  V30 1729 H 166.626 4.13081 -1.49199 0
M  V30 1730 H 167.232 3.15613 -2.85076 0
M  V30 1731 N 165.547 1.27147 0.931209 0
M  V30 1732 C 166.775 1.16082 1.71267 0
M  V30 1733 C 167.19 -0.282772 1.8667 0
M  V30 1734 O 166.547 -1.19283 1.38122 0
M  V30 1735 C 166.598 1.8358 3.11417 0
M  V30 1736 O 166.319 3.22299 2.96741 0
M  V30 1737 C 167.82 1.78597 4.05732 0
M  V30 1738 H 165.04 0.403758 0.535929 0
M  V30 1739 H 167.584 1.67953 1.16671 0
M  V30 1740 H 165.739 1.35623 3.62885 0
M  V30 1741 H 166.153 3.55851 3.85319 0
M  V30 1742 H 167.627 2.30444 5.01597 0
M  V30 1743 H 168.104 0.754564 4.3267 0
M  V30 1744 H 168.71 2.26152 3.60188 0
M  V30 1745 N 167.025 -1.13721 1.09112 0
M  V30 1746 C 168.273 -1.84559 0.823562 0
M  V30 1747 C 168.594 -1.83754 -0.652658 0
M  V30 1748 O 167.864 -1.29102 -1.47342 0
M  V30 1749 H 166.444 -0.683376 0.301673 0
M  V30 1750 H 169.106 -1.37771 1.37859 0
M  V30 1751 H 168.202 -2.8917 1.17419 0
M  V30 1752 N 168.503 -0.877838 -1.30888 0
M  V30 1753 C 169.914 -0.544193 -1.78593 0
M  V30 1754 C 170.265 0.939301 -1.72254 0
M  V30 1755 O 169.39 1.7337 -1.29505 0
M  V30 1756 C 169.985 -0.98105 -3.24285 0
M  V30 1757 C 168.544 -0.698935 -3.69854 0
M  V30 1758 C 167.691 -1.168 -2.51502 0
M  V30 1759 H 170.642 -1.06278 -1.17859 0
M  V30 1760 H 170.663 -0.307009 -3.79259 0
M  V30 1761 H 170.175 -2.06079 -3.28866 0
M  V30 1762 H 168.276 0.369112 -3.70767 0
M  V30 1763 H 168.389 -1.28148 -4.61644 0
M  V30 1764 H 166.753 -0.587535 -2.47831 0
M  V30 1765 H 167.536 -2.25533 -2.58824 0
M  V30 1766 N 169.982 1.44106 -0.638065 0
M  V30 1767 C 170.912 2.33448 0.0494287 0
M  V30 1768 C 171.893 1.48606 0.827672 0
M  V30 1769 O 173.078 1.77308 0.792173 0
M  V30 1770 C 170.208 3.31771 1.02691 0
M  V30 1771 C 169.162 4.26485 0.359823 0
M  V30 1772 C 168.488 5.14729 1.44769 0
M  V30 1773 C 169.788 5.17056 -0.738296 0
M  V30 1774 H 171.482 2.91183 -0.696636 0
M  V30 1775 H 169.028 1.40014 -0.336456 0
M  V30 1776 H 170.981 3.93161 1.51666 0
M  V30 1777 H 169.705 2.7226 1.80395 0
M  V30 1778 H 168.364 3.66437 -0.10934 0
M  V30 1779 H 168.012 4.51566 2.21578 0
M  V30 1780 H 167.712 5.78913 1.00668 0
M  V30 1781 H 169.236 5.78991 1.93911 0
M  V30 1782 H 170.65 5.72342 -0.331354 0
M  V30 1783 H 169.047 5.89879 -1.10286 0
M  V30 1784 H 170.117 4.57652 -1.60258 0
M  V30 1785 N 171.46 0.379036 1.52974 0
M  V30 1786 C 172.708 -0.206014 2.01047 0
M  V30 1787 C 173.029 -1.48175 1.26765 0
M  V30 1788 O 172.299 -1.92085 0.384743 0
M  V30 1789 H 170.879 -0.0791184 0.742798 0
M  V30 1790 H 173.541 0.508366 1.88153 0
M  V30 1791 H 172.637 -0.423501 3.09213 0
M  V30 1792 N 172.938 -1.57226 0.108567 0
M  V30 1793 C 173.87 -2.11809 -0.875752 0
M  V30 1794 C 174.883 -1.05839 -1.23701 0
M  V30 1795 O 176.072 -1.33245 -1.18778 0
M  V30 1796 C 173.172 -2.59411 -2.18081 0
M  V30 1797 C 172.345 -3.89364 -1.99284 0
M  V30 1798 C 171.404 -4.22672 -3.13424 0
M  V30 1799 O 170.43 -4.91668 -2.86795 0
M  V30 1800 N 171.632 -3.79154 -4.3957 0
M  V30 1801 H 174.397 -2.9689 -0.409477 0
M  V30 1802 H 171.958 -1.61721 -0.076158 0
M  V30 1803 H 173.95 -2.7873 -2.93414 0
M  V30 1804 H 172.52 -1.79268 -2.5609 0
M  V30 1805 H 171.74 -3.79059 -1.08203 0
M  V30 1806 H 173.028 -4.74358 -1.84017 0
M  V30 1807 H 172.426 -3.23486 -4.64083 0
M  V30 1808 H 170.983 -4.03602 -5.11809 0
M  V30 1809 N 174.416 0.165178 -1.56732 0
M  V30 1810 C 175.664 0.879068 -1.8198 0
M  V30 1811 C 175.985 1.82514 -0.686561 0
M  V30 1812 O 175.255 1.93694 0.293146 0
M  V30 1813 H 173.835 0.327608 -0.671329 0
M  V30 1814 H 176.497 0.163526 -1.94213 0
M  V30 1815 H 175.593 1.45228 -2.76252 0
M  V30 1816 N 175.894 1.51508 0.433938 0
M  V30 1817 C 177.143 1.63578 1.18005 0
M  V30 1818 C 177.456 0.359514 1.92268 0
M  V30 1819 O 178.662 0.359632 2.69108 0
M  V30 1820 C 177.118 2.88901 2.14626 0
M  V30 1821 C 176.726 4.23544 1.45995 0
M  V30 1822 C 178.47 3.10328 2.89649 0
M  V30 1823 C 176.377 5.40014 2.4112 0
M  V30 1824 H 175.307 0.609277 0.444182 0
M  V30 1825 H 177.958 1.77978 0.446773 0
M  V30 1826 H 176.34 2.68142 2.91403 0
M  V30 1827 H 177.514 4.54696 0.747532 0
M  V30 1828 H 175.829 4.08021 0.831115 0
M  V30 1829 H 178.426 3.94518 3.60915 0
M  V30 1830 H 178.769 2.23544 3.51189 0
M  V30 1831 H 179.302 3.31443 2.19978 0
M  V30 1832 H 176.041 6.29068 1.84264 0
M  V30 1833 H 175.561 5.13233 3.10406 0
M  V30 1834 H 177.24 5.72099 3.02177 0
M  V30 1835 N 177.372 -0.689602 1.41712 0
M  V30 1836 C 178.335 -1.78521 1.43746 0
M  V30 1837 C 179.335 -1.57436 0.327191 0
M  V30 1838 O 180.525 -1.64 0.587348 0
M  V30 1839 C 177.657 -3.16971 1.25467 0
M  V30 1840 H 178.85 -1.78108 2.41283 0
M  V30 1841 H 176.403 -0.89781 1.27942 0
M  V30 1842 H 177.138 -3.23019 0.287948 0
M  V30 1843 H 176.923 -3.33678 2.05917 0
M  V30 1844 H 178.413 -3.96935 1.2974 0
M  V30 1845 N 178.85 -1.27639 -0.924453 0
M  V30 1846 C 179.798 -1.10485 -2.04685 0
M  V30 1847 C 180.792 -0.0270421 -1.69378 0
M  V30 1848 O 181.998 -0.185008 -1.79047 0
M  V30 1849 H 178.373 -0.340546 -0.670472 0
M  V30 1850 H 180.344 -2.05566 -2.16298 0
M  V30 1851 C 179.093 -0.772229 -3.39016 0
M  V30 1852 H 178.416 -1.59351 -3.66671 0
M  V30 1853 H 179.856 -0.692097 -4.18313 0
M  V30 1854 C 178.315 0.523554 -3.32807 0
M  V30 1855 O 178.845 1.55702 -3.70297 0
M  V30 1856 N 177.051 0.520363 -2.85903 0
M  V30 1857 H 176.598 -0.32107 -2.55591 0
M  V30 1858 H 176.556 1.38742 -2.82131 0
M  V30 1859 N 180.328 1.1314 -1.09713 0
M  V30 1860 C 181.291 2.16831 -0.742751 0
M  V30 1861 C 182.291 1.59159 0.229129 0
M  V30 1862 O 183.481 1.74199 0.00693237 0
M  V30 1863 C 180.613 3.40756 -0.0989168 0
M  V30 1864 H 181.806 2.49695 -1.66109 0
M  V30 1865 H 179.359 1.2802 -0.896699 0
M  V30 1866 H 180.094 3.13485 0.830514 0
M  V30 1867 H 179.879 3.83888 -0.798265 0
M  V30 1868 H 181.369 4.17386 0.133524 0
M  V30 1869 N 181.806 0.884767 1.30421 0
M  V30 1870 C 183.052 0.503851 1.96441 0
M  V30 1871 C 183.385 -0.944518 1.69684 0
M  V30 1872 O 182.66 -1.66737 1.00145 0
M  V30 1873 C 182.943 0.779085 3.51571 0
M  V30 1874 C 182.796 2.27807 3.87846 0
M  V30 1875 C 184.115 0.255452 4.39358 0
M  V30 1876 H 181.234 0.184533 0.713524 0
M  V30 1877 H 183.876 1.10872 1.54297 0
M  V30 1878 H 182.026 0.264274 3.876 0
M  V30 1879 H 183.698 2.86127 3.61841 0
M  V30 1880 H 181.941 2.74479 3.35922 0
M  V30 1881 H 182.612 2.42125 4.96064 0
M  V30 1882 H 185.088 0.696079 4.10236 0
M  V30 1883 H 183.964 0.477361 5.4682 0
M  V30 1884 H 184.225 -0.843293 4.33983 0
M  V30 1885 N 183.284 -1.43765 0.645699 0
M  V30 1886 C 184.532 -2.01499 0.155731 0
M  V30 1887 C 184.853 -1.51151 -1.232 0
M  V30 1888 O 184.123 -0.721044 -1.82148 0
M  V30 1889 H 182.703 -0.745003 0.0545817 0
M  V30 1890 H 185.365 -1.76075 0.835677 0
M  V30 1891 H 184.461 -3.1181 0.134577 0
M  V30 1892 N 184.763 -0.387143 -1.52771 0
M  V30 1893 C 185.696 0.493123 -2.22808 0
M  V30 1894 C 186.674 1.0658 -1.22798 0
M  V30 1895 O 187.858 1.11785 -1.51777 0
M  V30 1896 C 184.985 1.68238 -2.93962 0
M  V30 1897 C 184.031 1.23515 -4.08223 0
M  V30 1898 S 184.864 0.21848 -5.35054 0
M  V30 1899 C 186.02 1.41357 -6.09729 0
M  V30 1900 H 186.253 -0.101625 -2.97126 0
M  V30 1901 H 183.786 -0.171323 -1.53447 0
M  V30 1902 H 185.744 2.36443 -3.35567 0
M  V30 1903 H 184.405 2.24842 -2.19328 0
M  V30 1904 H 183.598 2.12304 -4.57103 0
M  V30 1905 H 183.2 0.632044 -3.68621 0
M  V30 1906 H 185.492 2.34101 -6.3577 0
M  V30 1907 H 186.435 0.965736 -7.01484 0
M  V30 1908 H 186.843 1.6294 -5.40473 0
M  V30 1909 N 186.241 1.57166 -0.116904 0
M  V30 1910 C 187.204 2.14039 0.819742 0
M  V30 1911 C 188.204 1.07477 1.19605 0
M  V30 1912 O 189.394 1.33263 1.1219 0
M  V30 1913 C 186.526 2.67891 2.10826 0
M  V30 1914 H 187.719 2.98128 0.325511 0
M  V30 1915 H 185.272 1.55739 0.132312 0
M  V30 1916 H 186.007 1.87384 2.64685 0
M  V30 1917 H 185.792 3.45823 1.84793 0
M  V30 1918 H 187.282 3.11809 2.77785 0
M  V30 1919 N 187.719 -0.156864 1.56817 0
M  V30 1920 C 188.968 -0.869504 1.81996 0
M  V30 1921 C 189.281 -1.82777 0.696545 0
M  V30 1922 O 190.487 -2.58384 0.833658 0
M  V30 1923 C 188.943 -1.59679 3.22538 0
M  V30 1924 C 188.551 -0.681431 4.42787 0
M  V30 1925 C 190.295 -2.2968 3.56997 0
M  V30 1926 C 188.202 -1.40978 5.74351 0
M  V30 1927 H 187.132 -0.328438 0.678708 0
M  V30 1928 H 189.783 -0.1223 1.83092 0
M  V30 1929 H 188.165 -2.38927 3.158 0
M  V30 1930 H 189.339 0.0751166 4.60739 0
M  V30 1931 H 187.654 -0.0903431 4.16302 0
M  V30 1932 H 190.251 -2.84794 4.52544 0
M  V30 1933 H 190.594 -3.05707 2.82576 0
M  V30 1934 H 191.127 -1.57361 3.65352 0
M  V30 1935 H 187.866 -0.691561 6.51842 0
M  V30 1936 H 187.386 -2.13929 5.60352 0
M  V30 1937 H 189.065 -1.95337 6.16808 0
M  V30 1938 N 189.197 -1.51736 -0.425897 0
M  V30 1939 C 190.16 -1.73271 -1.50032 0
M  V30 1940 C 191.16 -0.602639 -1.4908 0
M  V30 1941 O 192.35 -0.87033 -1.509 0
M  V30 1942 C 189.482 -1.79969 -2.89523 0
M  V30 1943 H 190.675 -2.69172 -1.32237 0
M  V30 1944 H 188.228 -1.41899 -0.65532 0
M  V30 1945 H 188.963 -0.859241 -3.1271 0
M  V30 1946 H 188.748 -2.62109 -2.91619 0
M  V30 1947 H 190.238 -1.9843 -3.67444 0
M  V30 1948 N 190.675 0.682077 -1.42076 0
M  V30 1949 C 191.585 1.82535 -1.47371 0
M  V30 1950 C 192.601 1.7017 -0.363079 0
M  V30 1951 O 193.777 1.91848 -0.612875 0
M  V30 1952 C 190.842 3.18624 -1.36674 0
M  V30 1953 C 189.903 3.42999 -2.58167 0
M  V30 1954 C 189.136 4.72595 -2.4797 0
M  V30 1955 O 189.359 5.50006 -1.5116 0
M  V30 1956 O 188.293 4.98054 -3.37974 0
M  V30 1957 H 192.119 1.81023 -2.43853 0
M  V30 1958 H 189.704 0.836887 -1.2376 0
M  V30 1959 H 191.586 3.99847 -1.33043 0
M  V30 1960 H 190.261 3.20789 -0.433138 0
M  V30 1961 H 189.168 2.61653 -2.67373 0
M  V30 1962 H 190.501 3.45659 -3.50401 0
M  V30 1963 N 192.153 1.28127 0.917671 0
M  V30 1964 C 193.1 1.11717 2.0196 0
M  V30 1965 C 194.07 0.0153929 1.66093 0
M  V30 1966 O 195.255 0.179596 1.89953 0
M  V30 1967 C 192.395 0.780927 3.36148 0
M  V30 1968 C 191.508 1.96135 3.84909 0
M  V30 1969 C 190.643 1.56609 5.0759 0
M  V30 1970 C 189.682 2.71339 5.48673 0
M  V30 1971 N 188.819 2.32332 6.62545 0
M  V30 1972 H 193.659 2.06003 2.15329 0
M  V30 1973 H 191.196 1.02535 1.05475 0
M  V30 1974 H 193.154 0.56675 4.13333 0
M  V30 1975 H 191.784 -0.124998 3.22558 0
M  V30 1976 H 190.836 2.28777 3.03916 0
M  V30 1977 H 192.148 2.82165 4.1132 0
M  V30 1978 H 191.302 1.31374 5.92305 0
M  V30 1979 H 190.041 0.677014 4.82978 0
M  V30 1980 H 189.046 2.97276 4.62501 0
M  V30 1981 H 190.271 3.60882 5.75274 0
M  V30 1982 H 188.217 1.45889 6.39572 0
M  V30 1983 H 188.134 3.11899 6.88662 0
M  V30 1984 H 189.402 2.10371 7.50576 0
M  V30 1985 N 193.631 -1.12557 1.10312 0
M  V30 1986 C 194.859 -1.87864 0.866873 0
M  V30 1987 C 195.274 -1.79588 -0.582557 0
M  V30 1988 O 194.631 -1.16887 -1.40156 0
M  V30 1989 C 194.682 -3.37125 1.30496 0
M  V30 1990 O 194.403 -3.45201 2.69755 0
M  V30 1991 C 195.904 -4.29373 1.10243 0
M  V30 1992 H 193.124 -0.594452 0.311236 0
M  V30 1993 H 195.668 -1.42429 1.46745 0
M  V30 1994 H 193.823 -3.80109 0.748081 0
M  V30 1995 H 194.237 -4.38056 2.88457 0
M  V30 1996 H 195.711 -5.32394 1.45811 0
M  V30 1997 H 196.188 -4.39181 0.0409492 0
M  V30 1998 H 196.794 -3.92169 1.64571 0
M  V30 1999 N 195.109 -0.891671 -1.2995 0
M  V30 2000 C 196.039 -0.379797 -2.30391 0
M  V30 2001 C 197.02 0.540919 -1.6127 0
M  V30 2002 O 198.205 0.453352 -1.88834 0
M  V30 2003 C 195.335 0.400654 -3.44981 0
M  V30 2004 C 194.289 -0.428905 -4.25846 0
M  V30 2005 C 193.615 0.478557 -5.32554 0
M  V30 2006 C 194.915 -1.67458 -4.94727 0
M  V30 2007 H 196.609 -1.21914 -2.73454 0
M  V30 2008 H 194.155 -0.587675 -1.31462 0
M  V30 2009 H 196.108 0.769434 -4.14316 0
M  V30 2010 H 194.832 1.27371 -3.0074 0
M  V30 2011 H 193.491 -0.779911 -3.58208 0
M  V30 2012 H 193.139 1.34951 -4.84559 0
M  V30 2013 H 192.839 -0.0727433 -5.87555 0
M  V30 2014 H 194.363 0.843705 -6.04743 0
M  V30 2015 H 195.777 -1.376 -5.56542 0
M  V30 2016 H 194.174 -2.16659 -5.59624 0
M  V30 2017 H 195.244 -2.41518 -4.20473 0
M  V30 2018 N 196.587 1.43421 -0.653314 0
M  V30 2019 C 197.55 2.29182 0.0287951 0
M  V30 2020 C 198.55 1.42213 0.750465 0
M  V30 2021 O 199.74 1.63843 0.591701 0
M  V30 2022 C 196.872 3.24278 1.05151 0
M  V30 2023 H 198.065 2.90985 -0.725786 0
M  V30 2024 H 195.618 1.50702 -0.414545 0
M  V30 2025 H 196.353 2.6737 1.83532 0
M  V30 2026 H 196.138 3.88396 0.537687 0
M  V30 2027 H 197.628 3.88647 1.52786 0
M  V30 2028 N 198.065 0.39524 1.52563 0
M  V30 2029 C 199.028 -0.425001 2.25225 0
M  V30 2030 C 200.028 -0.985266 1.27079 0
M  V30 2031 O 201.218 -0.866332 1.5113 0
M  V30 2032 C 198.35 -1.59686 3.01186 0
M  V30 2033 H 199.543 0.211233 2.99155 0
M  V30 2034 H 197.096 0.147472 1.55603 0
M  V30 2035 H 197.831 -2.27035 2.31572 0
M  V30 2036 H 197.616 -1.20176 3.73229 0
M  V30 2037 H 199.106 -2.17743 3.5634 0
M  V30 2038 N 199.544 -1.57102 0.125237 0
M  V30 2039 C 200.476 -2.12726 -0.853237 0
M  V30 2040 C 201.489 -1.07145 -1.22571 0
M  V30 2041 O 202.678 -1.34497 -1.17358 0
M  V30 2042 C 199.778 -2.61709 -2.15317 0
M  V30 2043 C 198.951 -3.91456 -1.95143 0
M  V30 2044 C 198.01 -4.25973 -3.08923 0
M  V30 2045 O 197.036 -4.94682 -2.81564 0
M  V30 2046 N 198.238 -3.83795 -4.35524 0
M  V30 2047 H 201.003 -2.97307 -0.377964 0
M  V30 2048 H 198.564 -1.61792 -0.0590011 0
M  V30 2049 H 200.556 -2.81826 -2.90441 0
M  V30 2050 H 199.126 -1.81974 -2.54174 0
M  V30 2051 H 198.346 -3.80185 -1.04177 0
M  V30 2052 H 199.634 -4.76283 -1.78976 0
M  V30 2053 H 199.032 -3.2839 -4.60626 0
M  V30 2054 H 197.589 -4.09008 -5.07499 0
M  V30 2055 N 201.022 0.148545 -1.56898 0
M  V30 2056 C 202.269 0.861418 -1.83264 0
M  V30 2057 C 202.597 1.81239 -0.705883 0
M  V30 2058 O 201.852 1.93305 0.305212 0
M  V30 2059 C 202.151 1.67064 -3.1595 0
M  V30 2060 C 201.817 0.866591 -4.42494 0
M  V30 2061 C 200.479 0.644762 -4.76861 0
M  V30 2062 C 202.831 0.30418 -5.20312 0
M  V30 2063 C 200.159 -0.15021 -5.86508 0
M  V30 2064 C 202.511 -0.477824 -6.30793 0
M  V30 2065 C 201.175 -0.710244 -6.63711 0
M  V30 2066 H 200.445 0.315215 -0.670612 0
M  V30 2067 H 203.092 0.125142 -1.91091 0
M  V30 2068 H 201.397 2.47698 -3.03567 0
M  V30 2069 H 203.094 2.22566 -3.33565 0
M  V30 2070 H 199.684 1.04955 -4.15551 0
M  V30 2071 H 203.868 0.462844 -4.94137 0
M  V30 2072 H 199.124 -0.339796 -6.10455 0
M  V30 2073 H 203.298 -0.92076 -6.90286 0
M  V30 2074 H 200.925 -1.3281 -7.48509 0
M  V30 2075 N 202.5 1.5196 0.417844 0
M  V30 2076 C 203.448 1.75278 1.52907 0
M  V30 2077 C 204.442 0.619611 1.57662 0
M  V30 2078 O 205.648 0.801457 1.61173 0
M  V30 2079 H 202.023 0.554141 0.508362 0
M  V30 2080 H 203.994 2.68389 1.30422 0
M  V30 2081 C 202.743 1.91262 2.90369 0
M  V30 2082 H 202.066 2.77872 2.8745 0
M  V30 2083 H 203.506 2.11581 3.67436 0
M  V30 2084 C 201.965 0.677431 3.30019 0
M  V30 2085 O 202.495 -0.158799 4.01386 0
M  V30 2086 N 200.701 0.515851 2.85985 0
M  V30 2087 H 200.248 1.19744 2.28077 0
M  V30 2088 H 200.206 -0.309315 3.12875 0
M  V30 2089 N 203.978 -0.674533 1.42435 0
M  V30 2090 C 205.394 -0.98769 1.25367 0
M  V30 2091 C 205.594 -2.00879 0.158044 0
M  V30 2092 O 204.65 -2.48075 -0.470633 0
M  V30 2093 C 205.963 -1.49224 2.6106 0
M  V30 2094 C 207.511 -1.61 2.68417 0
M  V30 2095 C 207.986 -2.14852 4.04478 0
M  V30 2096 N 209.477 -2.22185 4.06434 0
M  V30 2097 C 210.212 -2.64928 5.08528 0
M  V30 2098 N 209.708 -3.07121 6.21006 0
M  V30 2099 N 211.501 -2.64679 4.95885 0
M  V30 2100 H 203.652 0.00152503 2.124 0
M  V30 2101 H 205.915 -0.0618434 0.945981 0
M  V30 2102 H 205.621 -0.816453 3.42092 0
M  V30 2103 H 205.495 -2.47094 2.84999 0
M  V30 2104 H 207.882 -2.27686 1.87732 0
M  V30 2105 H 207.963 -0.616195 2.48267 0
M  V30 2106 H 207.607 -1.48775 4.85622 0
M  V30 2107 H 207.537 -3.15024 4.2198 0
M  V30 2108 H 210.028 -1.92435 3.25234 0
M  V30 2109 H 210.341 -3.38423 6.94759 0
M  V30 2110 H 208.686 -3.04978 6.24511 0
M  V30 2111 H 211.877 -2.31078 4.07088 0
M  V30 2112 H 212.05 -2.9767 5.75584 0
M  V30 2113 N 205.456 -1.28612 -0.910864 0
M  V30 2114 C 206.867 -1.14406 -1.47541 0
M  V30 2115 C 207.218 0.264901 -1.94403 0
M  V30 2116 O 206.343 1.15942 -1.82719 0
M  V30 2117 C 206.938 -2.07073 -2.68153 0
M  V30 2118 C 205.497 -1.96923 -3.20778 0
M  V30 2119 C 204.644 -1.98646 -1.93481 0
M  V30 2120 H 207.595 -1.41259 -0.723291 0
M  V30 2121 H 207.616 -1.63642 -3.43514 0
M  V30 2122 H 207.128 -3.09611 -2.34015 0
M  V30 2123 H 205.229 -0.97433 -3.59635 0
M  V30 2124 H 205.342 -2.84026 -3.85832 0
M  V30 2125 H 203.706 -1.43093 -2.10705 0
M  V30 2126 H 204.489 -3.02868 -1.61634 0
M  V30 2127 N 206.934 1.1197 -1.10907 0
M  V30 2128 C 208.182 1.83225 -0.852819 0
M  V30 2129 C 208.503 1.84769 0.623341 0
M  V30 2130 O 207.773 1.3143 1.45269 0
M  V30 2131 H 206.353 0.67849 -0.312507 0
M  V30 2132 H 209.015 1.3556 -1.40033 0
M  V30 2133 H 208.111 2.87265 -1.22005 0
M  V30 2134 N 208.412 0.89855 1.29475 0
M  V30 2135 C 209.362 0.346767 2.25348 0
M  V30 2136 C 210.346 -0.532509 1.51833 0
M  V30 2137 O 211.538 -0.374714 1.72988 0
M  V30 2138 C 208.667 -0.425681 3.40651 0
M  V30 2139 C 207.753 0.46845 4.21505 0
M  V30 2140 N 208.144 1.57514 4.80648 0
M  V30 2141 C 206.442 0.26603 4.45206 0
M  V30 2142 C 207.143 2.12889 5.41344 0
M  V30 2143 N 206.119 1.42208 5.24669 0
M  V30 2144 H 209.921 1.19219 2.68634 0
M  V30 2145 H 207.435 0.749473 1.44072 0
M  V30 2146 H 209.432 -0.837716 4.08397 0
M  V30 2147 H 208.092 -1.26838 2.98902 0
M  V30 2148 H 209.103 1.95789 4.79465 0
M  V30 2149 H 205.78 -0.538394 4.14014 0
M  V30 2150 H 207.17 3.05901 5.98226 0
M  V30 2151 N 209.89 -1.43072 0.660911 0
M  V30 2152 C 211.167 -1.95307 0.107017 0
M  V30 2153 C 211.547 -1.60192 -1.37484 0
M  V30 2154 O 210.895 -0.890949 -2.10415 0
M  V30 2155 C 211.105 -3.47124 0.361402 0
M  V30 2156 C 212.453 -4.23738 0.270455 0
M  V30 2157 O 213.477 -3.54981 0.294382 0
M  V30 2158 O 212.336 -5.46131 0.200737 0
M  V30 2159 H 209.43 -0.826984 -0.00517729 0
M  V30 2160 H 211.976 -1.52972 0.734681 0
M  V30 2161 H 210.748 -3.65837 1.38848 0
M  V30 2162 H 210.371 -3.96475 -0.298953 0
M  V30 2163 N 211.368 -0.403325 -1.52352 0
M  V30 2164 C 212.617 0.175668 -2.00934 0
M  V30 2165 C 212.93 1.46718 -1.29356 0
M  V30 2166 O 214.136 2.12708 -1.68724 0
M  V30 2167 C 212.592 0.363612 -3.58058 0
M  V30 2168 C 212.2 -0.915472 -4.38547 0
M  V30 2169 C 213.944 0.89821 -4.14888 0
M  V30 2170 C 211.851 -0.695035 -5.87302 0
M  V30 2171 H 210.781 0.0694234 -0.750797 0
M  V30 2172 H 213.432 -0.527879 -1.75743 0
M  V30 2173 H 211.814 1.12935 -3.79555 0
M  V30 2174 H 212.988 -1.68691 -4.28812 0
M  V30 2175 H 211.303 -1.37606 -3.93006 0
M  V30 2176 H 213.9 1.07907 -5.23699 0
M  V30 2177 H 214.243 1.87126 -3.71873 0
M  V30 2178 H 214.776 0.191681 -3.97338 0
M  V30 2179 H 211.515 -1.63948 -6.34666 0
M  V30 2180 H 211.035 0.0372116 -5.99788 0
M  V30 2181 H 212.714 -0.33497 -6.46132 0
M  V30 2182 N 212.846 1.57033 -0.133567 0
M  V30 2183 C 214.092 1.95976 0.521649 0
M  V30 2184 C 214.425 1.01779 1.65393 0
M  V30 2185 O 213.7 0.0576581 1.94415 0
M  V30 2186 C 213.983 3.44738 1.04057 0
M  V30 2187 C 213.836 4.49711 -0.0892897 0
M  V30 2188 C 215.155 3.95682 1.92675 0
M  V30 2189 H 212.274 0.712579 0.188149 0
M  V30 2190 H 214.916 1.88813 -0.212076 0
M  V30 2191 H 213.066 3.50973 1.66583 0
M  V30 2192 H 214.738 4.55565 -0.725152 0
M  V30 2193 H 212.981 4.27261 -0.750378 0
M  V30 2194 H 213.652 5.51099 0.315284 0
M  V30 2195 H 216.128 3.91841 1.39998 0
M  V30 2196 H 215.004 5.00262 2.25897 0
M  V30 2197 H 215.265 3.37239 2.85872 0
M  V30 2198 N 214.325 -0.140222 1.56975 0
M  V30 2199 C 215.602 -0.880769 1.74648 0
M  V30 2200 C 215.982 -1.99036 0.703404 0
M  V30 2201 O 215.33 -2.26821 -0.27648 0
M  V30 2202 C 215.54 -1.417 3.18939 0
M  V30 2203 C 216.888 -1.87774 3.80823 0
M  V30 2204 O 217.912 -1.51427 3.2241 0
M  V30 2205 O 216.771 -2.54827 4.83452 0
M  V30 2206 H 213.865 -0.416713 0.714338 0
M  V30 2207 H 216.411 -0.125618 1.69234 0
M  V30 2208 H 215.183 -0.619902 3.86359 0
M  V30 2209 H 214.806 -2.23546 3.28805 0
M  V30 2210 N 215.803 -1.52179 -0.40978 0
M  V30 2211 C 216.753 -1.71857 -1.49831 0
M  V30 2212 C 217.737 -0.572469 -1.50372 0
M  V30 2213 O 218.929 -0.829509 -1.56359 0
M  V30 2214 C 216.058 -1.87206 -2.87765 0
M  V30 2215 C 215.144 -3.07685 -2.91875 0
M  V30 2216 N 215.535 -4.30403 -2.65683 0
M  V30 2217 C 213.833 -3.07505 -3.23043 0
M  V30 2218 C 214.534 -5.11868 -2.76344 0
M  V30 2219 N 213.51 -4.47101 -3.09195 0
M  V30 2220 H 217.312 -2.64381 -1.28375 0
M  V30 2221 H 214.826 -1.50203 -0.617479 0
M  V30 2222 H 216.823 -1.99419 -3.66111 0
M  V30 2223 H 215.483 -0.958814 -3.10221 0
M  V30 2224 H 216.494 -4.58887 -2.4009 0
M  V30 2225 H 213.171 -2.25915 -3.51096 0
M  V30 2226 H 214.561 -6.19634 -2.59814 0
M  V30 2227 N 217.281 0.66697 -1.42791 0
M  V30 2228 C 218.511 1.45294 -1.46878 0
M  V30 2229 C 218.919 1.89027 -0.0809861 0
M  V30 2230 O 218.262 1.59219 0.916246 0
M  V30 2231 C 218.324 2.72908 -2.34012 0
M  V30 2232 C 217.988 2.51203 -3.81767 0
M  V30 2233 C 218.985 2.15302 -4.73224 0
M  V30 2234 C 216.67 2.65954 -4.26115 0
M  V30 2235 C 218.664 1.94431 -6.07022 0
M  V30 2236 C 216.351 2.44699 -5.59969 0
M  V30 2237 C 217.349 2.08992 -6.5024 0
M  V30 2238 O 217.037 1.87948 -7.81621 0
M  V30 2239 H 216.769 0.453306 -0.501487 0
M  V30 2240 H 219.323 0.826232 -1.88049 0
M  V30 2241 H 217.553 3.38089 -1.87703 0
M  V30 2242 H 219.242 3.34816 -2.29462 0
M  V30 2243 H 220.008 2.03495 -4.40244 0
M  V30 2244 H 215.887 2.92724 -3.56137 0
M  V30 2245 H 219.431 1.66484 -6.77443 0
M  V30 2246 H 215.328 2.56105 -5.9252 0
M  V30 2247 H 216.096 2.02483 -7.93059 0
M  V30 2248 N 218.759 1.29093 0.90403 0
M  V30 2249 C 219.987 1.19689 1.68766 0
M  V30 2250 C 220.402 -0.243113 1.87228 0
M  V30 2251 O 219.759 -1.16326 1.40621 0
M  V30 2252 C 219.81 1.90144 3.07453 0
M  V30 2253 O 219.531 3.2852 2.89838 0
M  V30 2254 C 221.032 1.87162 4.01852 0
M  V30 2255 H 218.252 0.415035 0.527244 0
M  V30 2256 H 220.796 1.7039 1.13082 0
M  V30 2257 H 218.951 1.43289 3.59926 0
M  V30 2258 H 219.365 3.63944 3.77684 0
M  V30 2259 H 220.839 2.41032 4.96596 0
M  V30 2260 H 221.316 0.84617 4.30972 0
M  V30 2261 H 221.922 2.33741 3.5531 0
M  V30 2262 N 220.237 -1.11381 1.11499 0
M  V30 2263 C 221.467 -1.86663 0.885464 0
M  V30 2264 C 221.875 -1.80464 -0.568281 0
M  V30 2265 O 221.218 -1.18445 -1.40415 0
M  V30 2266 C 221.28 -3.36337 1.26956 0
M  V30 2267 C 220.944 -3.66304 2.73259 0
M  V30 2268 C 221.941 -3.63733 3.71476 0
M  V30 2269 C 219.626 -3.9529 3.09921 0
M  V30 2270 C 221.62 -3.89725 5.04374 0
M  V30 2271 C 219.307 -4.20941 4.43004 0
M  V30 2272 C 220.305 -4.18147 5.40039 0
M  V30 2273 O 219.993 -4.43153 6.70724 0
M  V30 2274 H 219.725 -0.597114 0.316908 0
M  V30 2275 H 222.279 -1.41782 1.48617 0
M  V30 2276 H 220.509 -3.81826 0.611999 0
M  V30 2277 H 222.198 -3.92986 1.01573 0
M  V30 2278 H 222.964 -3.41389 3.44498 0
M  V30 2279 H 218.843 -3.966 2.35009 0
M  V30 2280 H 222.387 -3.8746 5.80104 0
M  V30 2281 H 218.284 -4.42761 4.69716 0
M  V30 2282 H 219.052 -4.60717 6.76522 0
M  V30 2283 N 221.715 -0.905404 -1.28997 0
M  V30 2284 C 222.678 -0.392253 -2.25819 0
M  V30 2285 C 223.678 0.476753 -1.5357 0
M  V30 2286 O 224.868 0.280994 -1.71919 0
M  V30 2287 C 222 0.438588 -3.38067 0
M  V30 2288 H 223.193 -1.24743 -2.72725 0
M  V30 2289 H 220.746 -0.684051 -1.40536 0
M  V30 2290 H 221.481 1.31352 -2.96508 0
M  V30 2291 H 221.266 -0.184167 -3.91667 0
M  V30 2292 H 222.756 0.78873 -4.10084 0
M  V30 2293 N 223.193 1.4272 -0.668489 0
M  V30 2294 C 224.44 2.01624 -0.18814 0
M  V30 2295 C 224.768 1.5282 1.20317 0
M  V30 2296 O 224.023 0.718323 1.8204 0
M  V30 2297 C 224.322 3.57021 -0.164499 0
M  V30 2298 C 223.988 4.25232 -1.49962 0
M  V30 2299 C 222.65 4.4358 -1.8652 0
M  V30 2300 C 225.002 4.63727 -2.37921 0
M  V30 2301 C 222.33 4.97694 -3.10674 0
M  V30 2302 C 224.682 5.19218 -3.6138 0
M  V30 2303 C 223.346 5.3578 -3.98115 0
M  V30 2304 H 222.616 0.737795 -0.0688454 0
M  V30 2305 H 225.263 1.70991 -0.862225 0
M  V30 2306 H 223.568 3.87285 0.593079 0
M  V30 2307 H 225.265 4.00372 0.224271 0
M  V30 2308 H 221.855 4.11306 -1.20522 0
M  V30 2309 H 226.039 4.4923 -2.10964 0
M  V30 2310 H 221.295 5.08702 -3.39164 0
M  V30 2311 H 225.469 5.4799 -4.29743 0
M  V30 2312 H 223.096 5.77475 -4.94395 0
M  V30 2313 N 224.671 0.411399 1.52136 0
M  V30 2314 C 225.604 -0.457614 2.23565 0
M  V30 2315 C 226.582 -1.04613 1.24478 0
M  V30 2316 O 227.766 -1.09356 1.53536 0
M  V30 2317 C 224.893 -1.6354 2.96602 0
M  V30 2318 C 223.939 -1.17005 4.10137 0
M  V30 2319 S 224.772 -0.13333 5.35334 0
M  V30 2320 C 225.928 -1.31638 6.119 0
M  V30 2321 H 226.161 0.148883 2.96927 0
M  V30 2322 H 223.694 0.195713 1.53155 0
M  V30 2323 H 225.652 -2.31074 3.39286 0
M  V30 2324 H 224.313 -2.21324 2.22878 0
M  V30 2325 H 223.506 -2.05005 4.60422 0
M  V30 2326 H 223.108 -0.573319 3.6958 0
M  V30 2327 H 225.4 -2.23957 6.39413 0
M  V30 2328 H 226.343 -0.854014 7.02931 0
M  V30 2329 H 226.751 -1.54321 5.42997 0
M  V30 2330 N 226.149 -1.5696 0.141893 0
M  V30 2331 C 227.397 -1.95573 -0.509484 0
M  V30 2332 C 227.718 -1.02746 -1.65736 0
M  V30 2333 O 226.988 -0.0880311 -1.95702 0
M  V30 2334 H 225.568 -0.722115 -0.191205 0
M  V30 2335 H 228.23 -1.93697 0.216196 0
M  V30 2336 H 227.326 -2.99171 -0.889 0
M  V30 2337 N 227.627 0.131896 -1.57047 0
M  V30 2338 C 228.904 0.871495 -1.75112 0
M  V30 2339 C 229.284 1.9866 -0.713949 0
M  V30 2340 O 228.632 2.26965 0.264447 0
M  V30 2341 C 228.842 1.40007 -3.19686 0
M  V30 2342 C 230.19 1.85752 -3.81813 0
M  V30 2343 O 231.214 1.49715 -3.23209 0
M  V30 2344 O 230.073 2.5226 -4.84796 0
M  V30 2345 H 227.167 0.412919 -0.716538 0
M  V30 2346 H 229.713 0.116641 -1.69299 0
M  V30 2347 H 228.485 0.599404 -3.86682 0
M  V30 2348 H 228.108 2.218 -3.29986 0
M  V30 2349 N 229.106 1.52395 0.401703 0
M  V30 2350 C 230.354 1.66488 1.14569 0
M  V30 2351 C 230.675 0.400897 1.90835 0
M  V30 2352 O 229.945 -0.584415 1.8698 0
M  V30 2353 H 228.525 0.613672 0.425929 0
M  V30 2354 H 231.187 1.89464 0.457093 0
M  V30 2355 H 230.283 2.50942 1.85566 0
M  V30 2356 N 230.584 -0.659388 1.43143 0
M  V30 2357 C 231.824 -1.43121 1.45931 0
M  V30 2358 C 232.188 -1.91838 0.0789298 0
M  V30 2359 O 233.389 -2.68794 -0.018491 0
M  V30 2360 C 231.66 -2.58534 2.46769 0
M  V30 2361 S 233.219 -3.47154 2.68384 0
M  V30 2362 H 230.037 -0.488624 0.516496 0
M  V30 2363 H 232.639 -0.766128 1.79863 0
M  V30 2364 H 231.343 -2.21007 3.45809 0
M  V30 2365 H 230.874 -3.29898 2.14315 0
M  V30 2366 H 232.889 -4.55051 1.97845 0
M  V30 2367 N 232.062 -1.29571 -0.897171 0
M  V30 2368 C 232.995 -1.0924 -2.00354 0
M  V30 2369 C 233.973 -0.00354011 -1.626 0
M  V30 2370 O 235.157 -0.15473 -1.87864 0
M  V30 2371 C 232.284 -0.66352 -3.32137 0
M  V30 2372 C 231.33 -1.75146 -3.88878 0
M  V30 2373 S 232.163 -3.35124 -4.17674 0
M  V30 2374 C 233.319 -2.9411 -5.52494 0
M  V30 2375 H 233.552 -2.02907 -2.17292 0
M  V30 2376 H 231.085 -1.13746 -1.04408 0
M  V30 2377 H 233.043 -0.422791 -4.08317 0
M  V30 2378 H 231.704 0.253588 -3.13075 0
M  V30 2379 H 230.897 -1.40337 -4.84068 0
M  V30 2380 H 230.499 -1.94584 -3.19395 0
M  V30 2381 H 232.791 -2.41312 -6.33068 0
M  V30 2382 H 233.734 -3.88161 -5.9223 0
M  V30 2383 H 234.142 -2.32332 -5.14473 0
M  V30 2384 N 233.54 1.10788 -1.12088 0
M  V30 2385 C 234.473 2.16237 -0.729168 0
M  V30 2386 C 235.451 1.60207 0.277921 0
M  V30 2387 O 236.635 1.87707 0.172737 0
M  V30 2388 C 233.762 3.38609 -0.0786848 0
M  V30 2389 C 232.808 4.13322 -1.05201 0
M  V30 2390 S 233.641 4.69371 -2.57781 0
M  V30 2391 C 234.797 5.95058 -1.94053 0
M  V30 2392 H 235.03 2.4913 -1.62239 0
M  V30 2393 H 232.563 1.22519 -0.939603 0
M  V30 2394 H 234.521 4.09473 0.290254 0
M  V30 2395 H 233.182 3.03962 0.791593 0
M  V30 2396 H 232.375 5.01051 -0.544433 0
M  V30 2397 H 231.977 3.48251 -1.36371 0
M  V30 2398 H 234.269 6.65278 -1.28107 0
M  V30 2399 H 235.212 6.50472 -2.79807 0
M  V30 2400 H 235.62 5.46918 -1.39787 0
M  V30 2401 N 235.018 0.912232 1.28515 0
M  V30 2402 C 235.928 0.404506 2.31086 0
M  V30 2403 C 236.944 -0.50707 1.66448 0
M  V30 2404 O 238.12 -0.393624 1.97516 0
M  V30 2405 C 235.185 -0.348572 3.44943 0
M  V30 2406 C 234.246 0.59604 4.25142 0
M  V30 2407 C 233.479 -0.121194 5.33562 0
M  V30 2408 O 233.702 -1.34317 5.5436 0
M  V30 2409 O 232.636 0.542716 5.99448 0
M  V30 2410 H 236.462 1.25579 2.76521 0
M  V30 2411 H 234.047 0.676998 1.33181 0
M  V30 2412 H 235.929 -0.77395 4.14232 0
M  V30 2413 H 234.604 -1.17571 3.01594 0
M  V30 2414 H 233.511 1.07079 3.58448 0
M  V30 2415 H 234.844 1.38995 4.72167 0
M  V30 2416 N 236.496 -1.42363 0.676048 0
M  V30 2417 C 237.744 -2.01123 0.198437 0
M  V30 2418 C 238.065 -1.53731 -1.19966 0
M  V30 2419 O 237.335 -0.759518 -1.80577 0
M  V30 2420 H 235.915 -0.743678 0.0703721 0
M  V30 2421 H 238.577 -1.74263 0.872837 0
M  V30 2422 H 237.673 -3.11454 0.200686 0
M  V30 2423 N 237.974 -0.419461 -1.51915 0
M  V30 2424 C 239.223 0.154346 -2.01109 0
M  V30 2425 C 239.536 1.45338 -1.30905 0
M  V30 2426 O 240.742 2.10906 -1.7097 0
M  V30 2427 C 239.198 0.325615 -3.58424 0
M  V30 2428 C 238.806 -0.961934 -4.37551 0
M  V30 2429 C 240.55 0.854155 -4.15818 0
M  V30 2430 C 238.457 -0.757287 -5.86531 0
M  V30 2431 H 237.387 0.0614563 -0.751491 0
M  V30 2432 H 240.038 -0.54649 -1.75173 0
M  V30 2433 H 238.42 1.08903 -3.80731 0
M  V30 2434 H 239.594 -1.7323 -4.26999 0
M  V30 2435 H 237.909 -1.41766 -3.91524 0
M  V30 2436 H 240.506 1.02346 -5.24814 0
M  V30 2437 H 240.849 1.83172 -3.73837 0
M  V30 2438 H 241.382 0.149528 -3.97519 0
M  V30 2439 H 238.121 -1.70671 -6.32892 0
M  V30 2440 H 237.641 -0.0264061 -5.99794 0
M  V30 2441 H 239.32 -0.403482 -6.45741 0
M  V30 2442 N 239.452 1.56882 -0.150215 0
M  V30 2443 C 240.677 2.01027 0.510184 0
M  V30 2444 C 241.102 1.02966 1.57415 0
M  V30 2445 O 240.46 0.00590158 1.81299 0
M  V30 2446 C 240.508 3.43899 1.08472 0
M  V30 2447 O 239.612 3.4885 2.19948 0
M  V30 2448 H 238.953 0.652233 0.124451 0
M  V30 2449 H 241.483 2.03093 -0.247894 0
M  V30 2450 H 241.493 3.82766 1.41259 0
M  V30 2451 H 240.168 4.14776 0.305582 0
M  V30 2452 H 238.745 3.21827 1.88366 0
M  V30 2453 N 240.93 -0.123565 1.57115 0
M  V30 2454 C 241.88 -1.1575 1.96433 0
M  V30 2455 C 242.864 -1.37313 0.838686 0
M  V30 2456 O 244.056 -1.38482 1.10235 0
M  V30 2457 C 241.185 -2.48526 2.36833 0
M  V30 2458 C 240.271 -2.30457 3.5602 0
M  V30 2459 N 240.662 -1.8219 4.71848 0
M  V30 2460 C 238.96 -2.61129 3.61563 0
M  V30 2461 C 239.661 -1.77721 5.53886 0
M  V30 2462 N 238.637 -2.21899 4.96248 0
M  V30 2463 H 242.439 -0.776797 2.83449 0
M  V30 2464 H 239.953 -0.331364 1.58983 0
M  V30 2465 H 241.95 -3.233 2.63216 0
M  V30 2466 H 240.61 -2.87358 1.5118 0
M  V30 2467 H 241.621 -1.51805 4.95152 0
M  V30 2468 H 238.298 -3.03678 2.86507 0
M  V30 2469 H 239.688 -1.41697 6.56789 0
M  V30 2470 N 242.408 -1.52605 -0.393616 0
M  V30 2471 C 243.318 -1.79971 -1.50492 0
M  V30 2472 C 244.334 -0.686181 -1.59899 0
M  V30 2473 O 245.51 -0.973274 -1.76322 0
M  V30 2474 C 242.575 -1.95867 -2.86072 0
M  V30 2475 C 241.636 -3.19781 -2.86424 0
M  V30 2476 C 240.869 -3.34909 -4.15538 0
M  V30 2477 O 241.092 -2.54948 -5.10253 0
M  V30 2478 O 240.026 -4.28141 -4.23059 0
M  V30 2479 H 243.852 -2.74328 -1.30299 0
M  V30 2480 H 241.437 -1.3764 -0.581005 0
M  V30 2481 H 243.319 -2.08056 -3.66457 0
M  V30 2482 H 241.994 -1.04699 -3.063 0
M  V30 2483 H 240.901 -3.13038 -2.04837 0
M  V30 2484 H 242.234 -4.1078 -2.71147 0
M  V30 2485 N 243.887 0.651787 -1.4349 0
M  V30 2486 C 245.133 1.41376 -1.45398 0
M  V30 2487 C 245.466 1.94041 -0.0784823 0
M  V30 2488 O 244.741 1.72379 0.900878 0
M  V30 2489 C 245.024 2.59414 -2.49752 0
M  V30 2490 C 244.877 2.12232 -3.96582 0
M  V30 2491 C 246.196 3.61626 -2.50827 0
M  V30 2492 H 243.315 0.512719 -0.529422 0
M  V30 2493 H 245.957 0.738796 -1.75048 0
M  V30 2494 H 244.107 3.16997 -2.246 0
M  V30 2495 H 245.779 1.59639 -4.32797 0
M  V30 2496 H 244.022 1.43592 -4.09346 0
M  V30 2497 H 244.693 2.9712 -4.65214 0
M  V30 2498 H 247.169 3.13805 -2.7325 0
M  V30 2499 H 246.045 4.41766 -3.25783 0
M  V30 2500 H 246.306 4.14314 -1.5426 0
M  V30 2501 N 245.365 1.30045 0.890287 0
M  V30 2502 C 246.605 1.19839 1.65584 0
M  V30 2503 C 246.969 -0.244175 1.90441 0
M  V30 2504 O 248.17 -0.469378 2.6467 0
M  V30 2505 C 246.441 1.99876 2.96284 0
M  V30 2506 S 248 2.06309 3.87275 0
M  V30 2507 H 244.818 0.427157 0.568382 0
M  V30 2508 H 247.42 1.64453 1.05715 0
M  V30 2509 H 246.124 3.03809 2.75913 0
M  V30 2510 H 245.655 1.55903 3.61189 0
M  V30 2511 H 247.67 1.18661 4.81803 0
M  V30 2512 N 246.843 -1.10192 1.12674 0
M  V30 2513 C 248.068 -1.86523 0.906853 0
M  V30 2514 C 248.493 -1.80221 -0.538711 0
M  V30 2515 O 247.851 -1.17396 -1.38158 0
M  V30 2516 C 247.899 -3.32758 1.3894 0
M  V30 2517 O 247.003 -4.08449 0.5695 0
M  V30 2518 H 246.344 -0.578678 0.325619 0
M  V30 2519 H 248.874 -1.39203 1.49946 0
M  V30 2520 H 248.884 -3.83608 1.38958 0
M  V30 2521 H 247.559 -3.36661 2.44197 0
M  V30 2522 H 246.136 -3.67427 0.636528 0
M  V30 2523 N 248.321 -0.919034 -1.28029 0
M  V30 2524 C 249.251 -0.428581 -2.29533 0
M  V30 2525 C 250.232 0.50659 -1.62381 0
M  V30 2526 O 251.417 0.413195 -1.89753 0
M  V30 2527 C 248.547 0.327388 -3.45753 0
M  V30 2528 C 247.501 -0.519137 -4.2484 0
M  V30 2529 C 246.827 0.365486 -5.33449 0
M  V30 2530 C 248.127 -1.77914 -4.91064 0
M  V30 2531 H 249.821 -1.27687 -2.70807 0
M  V30 2532 H 247.367 -0.615428 -1.30186 0
M  V30 2533 H 249.32 0.681378 -4.15855 0
M  V30 2534 H 248.044 1.20963 -3.03374 0
M  V30 2535 H 246.703 -0.855717 -3.56473 0
M  V30 2536 H 246.351 1.24642 -4.87312 0
M  V30 2537 H 246.051 -0.197356 -5.87268 0
M  V30 2538 H 247.575 0.715241 -6.06396 0
M  V30 2539 H 248.989 -1.49374 -5.53498 0
M  V30 2540 H 247.386 -2.2848 -5.54903 0
M  V30 2541 H 248.456 -2.50382 -4.15255 0
M  V30 2542 N 249.799 1.42003 -0.683588 0
M  V30 2543 C 250.762 2.29191 -0.0198243 0
M  V30 2544 C 251.762 1.43773 0.72013 0
M  V30 2545 O 252.952 1.65061 0.556815 0
M  V30 2546 C 250.084 3.26435 0.982487 0
M  V30 2547 H 251.277 2.8938 -0.787345 0
M  V30 2548 H 248.83 1.49789 -0.446418 0
M  V30 2549 H 249.565 2.71203 1.77819 0
M  V30 2550 H 249.35 3.89449 0.455182 0
M  V30 2551 H 250.84 3.918 1.44508 0
M  V30 2552 N 251.277 0.427512 1.51691 0
M  V30 2553 C 252.525 -0.141948 2.01601 0
M  V30 2554 C 252.846 -1.44067 1.31414 0
M  V30 2555 O 252.116 -1.90763 0.445658 0
M  V30 2556 H 250.696 -0.0554468 0.744939 0
M  V30 2557 H 253.358 0.567968 1.86441 0
M  V30 2558 H 252.454 -0.324913 3.10404 0
M  V30 2559 N 252.755 -1.56801 0.158532 0
M  V30 2560 C 253.983 -2.00859 -0.496303 0
M  V30 2561 C 254.398 -1.03871 -1.57659 0
M  V30 2562 O 253.755 -0.0375165 -1.82461 0
M  V30 2563 C 253.806 -3.4479 -1.08638 0
M  V30 2564 O 253.527 -4.38072 -0.0492322 0
M  V30 2565 C 255.028 -4.04185 -1.8207 0
M  V30 2566 H 252.248 -0.65864 -0.128199 0
M  V30 2567 H 254.792 -2.02885 0.256506 0
M  V30 2568 H 252.947 -3.43579 -1.78975 0
M  V30 2569 H 253.361 -5.2227 -0.483102 0
M  V30 2570 H 254.835 -5.06857 -2.18633 0
M  V30 2571 H 255.312 -3.45549 -2.71095 0
M  V30 2572 H 255.918 -4.0906 -1.16405 0
M  V30 2573 N 254.233 0.115231 -1.57178 0
M  V30 2574 C 255.163 1.1423 -2.03651 0
M  V30 2575 C 256.144 1.42967 -0.921655 0
M  V30 2576 O 257.329 1.53343 -1.19162 0
M  V30 2577 C 254.459 2.4675 -2.44401 0
M  V30 2578 C 253.413 2.32467 -3.59365 0
M  V30 2579 C 252.739 3.69984 -3.86026 0
M  V30 2580 C 254.039 1.78203 -4.90959 0
M  V30 2581 H 255.733 0.755749 -2.89705 0
M  V30 2582 H 253.279 0.362093 -1.39373 0
M  V30 2583 H 255.232 3.18854 -2.75517 0
M  V30 2584 H 253.956 2.87302 -1.55322 0
M  V30 2585 H 252.615 1.62811 -3.28463 0
M  V30 2586 H 252.263 4.08028 -2.94147 0
M  V30 2587 H 251.963 3.61279 -4.63412 0
M  V30 2588 H 253.487 4.43587 -4.19599 0
M  V30 2589 H 254.901 2.40128 -5.20587 0
M  V30 2590 H 253.298 1.8031 -5.72371 0
M  V30 2591 H 254.368 0.739876 -4.79222 0
M  V30 2592 N 255.711 1.52812 0.385517 0
M  V30 2593 C 256.658 1.77838 1.47113 0
M  V30 2594 C 257.628 0.621757 1.54024 0
M  V30 2595 O 258.813 0.861846 1.70226 0
M  V30 2596 C 255.953 1.95618 2.84302 0
M  V30 2597 C 255.066 3.23316 2.86515 0
M  V30 2598 C 254.201 3.31394 4.15152 0
M  V30 2599 C 253.24 4.53201 4.1143 0
M  V30 2600 N 252.377 4.58542 5.3168 0
M  V30 2601 H 257.217 2.70482 1.25073 0
M  V30 2602 H 254.754 1.34006 0.606692 0
M  V30 2603 H 256.712 2.03912 3.63972 0
M  V30 2604 H 255.342 1.06331 3.04784 0
M  V30 2605 H 254.394 3.24076 1.99195 0
M  V30 2606 H 255.706 4.13045 2.79634 0
M  V30 2607 H 254.86 3.3889 5.03228 0
M  V30 2608 H 253.599 2.39645 4.24761 0
M  V30 2609 H 252.604 4.45827 3.21742 0
M  V30 2610 H 253.829 5.46271 4.03442 0
M  V30 2611 H 251.775 3.69686 5.41912 0
M  V30 2612 H 251.692 5.42148 5.26889 0
M  V30 2613 H 252.96 4.70296 6.21644 0
M  V30 2614 N 257.189 -0.644168 1.43834 0
M  V30 2615 C 258.119 -1.76814 1.52509 0
M  V30 2616 C 259.1 -1.65823 0.379052 0
M  V30 2617 O 260.285 -1.84781 0.597466 0
M  V30 2618 C 257.415 -3.15288 1.4564 0
M  V30 2619 C 256.369 -3.41053 2.58586 0
M  V30 2620 C 255.695 -4.79421 2.36769 0
M  V30 2621 C 256.995 -3.34902 4.00797 0
M  V30 2622 H 258.689 -1.69812 2.46586 0
M  V30 2623 H 256.235 -0.815542 1.1868 0
M  V30 2624 H 258.188 -3.93681 1.50311 0
M  V30 2625 H 256.912 -3.23043 0.480725 0
M  V30 2626 H 255.571 -2.65035 2.53282 0
M  V30 2627 H 255.219 -4.83863 1.37424 0
M  V30 2628 H 254.919 -4.9762 3.12487 0
M  V30 2629 H 256.443 -5.6006 2.43238 0
M  V30 2630 H 257.857 -4.03218 4.07539 0
M  V30 2631 H 256.254 -3.64637 4.76613 0
M  V30 2632 H 257.324 -2.32928 4.25291 0
M  V30 2633 N 258.668 -1.30515 -0.883378 0
M  V30 2634 C 259.916 -1.19194 -1.63209 0
M  V30 2635 C 260.237 0.253205 -1.93349 0
M  V30 2636 O 259.507 1.17025 -1.57105 0
M  V30 2637 H 258.087 -0.438148 -0.605009 0
M  V30 2638 H 260.749 -1.63663 -1.05832 0
M  V30 2639 H 259.845 -1.75396 -2.58153 0
M  V30 2640 N 260.146 1.09593 -1.13257 0
M  V30 2641 C 261.093 2.1618 -0.808381 0
M  V30 2642 C 262.063 1.64517 0.228754 0
M  V30 2643 O 263.248 1.9053 0.101381 0
M  V30 2644 C 260.388 3.43973 -0.278675 0
M  V30 2645 C 259.501 4.09545 -1.37466 0
M  V30 2646 C 258.636 5.25088 -0.803479 0
M  V30 2647 C 257.675 5.82579 -1.87799 0
M  V30 2648 N 256.812 6.89486 -1.32488 0
M  V30 2649 H 261.652 2.43254 -1.72138 0
M  V30 2650 H 259.189 1.19392 -0.859294 0
M  V30 2651 H 261.147 4.17174 0.0465583 0
M  V30 2652 H 259.777 3.17223 0.597459 0
M  V30 2653 H 258.829 3.34226 -1.81652 0
M  V30 2654 H 260.141 4.48307 -2.18684 0
M  V30 2655 H 259.295 6.05178 -0.429427 0
M  V30 2656 H 258.034 4.87684 0.0397956 0
M  V30 2657 H 257.039 5.01152 -2.26113 0
M  V30 2658 H 258.264 6.22045 -2.72463 0
M  V30 2659 H 256.21 6.54064 -0.503575 0
M  V30 2660 H 256.127 7.27007 -2.07355 0
M  V30 2661 H 257.395 7.73336 -0.978336 0
M  V30 2662 N 261.624 0.925811 1.2754 0
M  V30 2663 C 262.554 0.440748 2.29303 0
M  V30 2664 C 263.535 -0.497971 1.62648 0
M  V30 2665 O 264.72 -0.403126 1.8997 0
M  V30 2666 C 261.85 -0.309048 3.45922 0
M  V30 2667 C 260.804 0.54166 4.24559 0
M  V30 2668 C 260.13 -0.337191 5.33636 0
M  V30 2669 C 261.43 1.80516 4.90114 0
M  V30 2670 H 263.124 1.29121 2.70126 0
M  V30 2671 H 260.67 0.622323 1.29858 0
M  V30 2672 H 262.623 -0.659315 4.1621 0
M  V30 2673 H 261.347 -1.19352 3.04011 0
M  V30 2674 H 260.006 0.874609 3.56014 0
M  V30 2675 H 259.654 -1.22056 4.87966 0
M  V30 2676 H 259.354 0.228497 5.87156 0
M  V30 2677 H 260.878 -0.683072 6.06767 0
M  V30 2678 H 262.292 1.52307 5.52698 0
M  V30 2679 H 260.689 2.3142 5.53683 0
M  V30 2680 H 261.759 2.52581 4.13921 0
M  V30 2681 N 263.102 -1.41638 0.69111 0
M  V30 2682 C 264.351 -2.00526 0.217318 0
M  V30 2683 C 264.664 -1.55353 -1.18848 0
M  V30 2684 O 265.87 -2.06769 -1.75951 0
M  V30 2685 C 264.326 -3.58313 0.337639 0
M  V30 2686 C 263.934 -4.12469 1.74852 0
M  V30 2687 C 265.678 -4.24431 -0.0766066 0
M  V30 2688 C 263.585 -5.62675 1.82074 0
M  V30 2689 H 262.515 -0.750008 0.0774893 0
M  V30 2690 H 265.166 -1.6217 0.858661 0
M  V30 2691 H 263.548 -3.9425 -0.371879 0
M  V30 2692 H 264.722 -3.8796 2.48644 0
M  V30 2693 H 263.037 -3.58861 2.11205 0
M  V30 2694 H 265.634 -5.34683 -0.0430284 0
M  V30 2695 H 265.977 -4.01101 -1.1146 0
M  V30 2696 H 266.51 -3.93512 0.582476 0
M  V30 2697 H 263.249 -5.90826 2.83911 0
M  V30 2698 H 262.769 -5.89124 1.12661 0
M  V30 2699 H 264.448 -6.27371 1.58159 0
M  V30 2700 N 264.58 -0.43555 -1.51462 0
M  V30 2701 C 265.543 0.365137 -2.26273 0
M  V30 2702 C 266.543 0.951227 -1.29647 0
M  V30 2703 O 267.733 0.825958 -1.53374 0
M  V30 2704 C 264.865 1.51645 -3.05314 0
M  V30 2705 H 266.058 -0.290474 -2.9849 0
M  V30 2706 H 263.611 -0.188676 -1.55157 0
M  V30 2707 H 264.346 2.20816 -2.3751 0
M  V30 2708 H 264.131 1.10238 -3.76284 0
M  V30 2709 H 265.621 2.08218 -3.61987 0
M  V30 2710 N 266.058 1.56714 -0.166846 0
M  V30 2711 C 267.305 1.96747 0.479252 0
M  V30 2712 C 267.633 1.05263 1.63554 0
M  V30 2713 O 266.888 0.0858098 1.95512 0
M  V30 2714 C 267.187 3.42889 1.00806 0
M  V30 2715 C 266.853 4.50889 -0.0318574 0
M  V30 2716 C 265.515 4.8015 -0.317675 0
M  V30 2717 C 267.867 5.15949 -0.737956 0
M  V30 2718 C 265.195 5.71772 -1.31506 0
M  V30 2719 C 267.547 6.08647 -1.72429 0
M  V30 2720 C 266.211 6.36277 -2.0176 0
M  V30 2721 H 265.481 0.719949 0.175371 0
M  V30 2722 H 268.128 1.89756 -0.257864 0
M  V30 2723 H 266.433 3.4681 1.82291 0
M  V30 2724 H 268.13 3.71203 1.51689 0
M  V30 2725 H 264.72 4.28128 0.201088 0
M  V30 2726 H 268.904 4.93458 -0.530351 0
M  V30 2727 H 264.16 5.91465 -1.54853 0
M  V30 2728 H 268.334 6.58129 -2.27682 0
M  V30 2729 H 265.961 7.07075 -2.79194 0
M  V30 2730 N 267.536 -0.106894 1.57237 0
M  V30 2731 C 268.766 -0.825191 1.89405 0
M  V30 2732 C 269.174 -1.73374 0.757496 0
M  V30 2733 O 268.517 -1.81552 -0.280115 0
M  V30 2734 C 268.579 -1.70102 3.1671 0
M  V30 2735 C 268.243 -0.965523 4.46684 0
M  V30 2736 C 269.24 -0.300741 5.19029 0
M  V30 2737 C 266.925 -0.943105 4.93367 0
M  V30 2738 C 268.919 0.376622 6.36286 0
M  V30 2739 C 266.606 -0.261949 6.10538 0
M  V30 2740 C 267.604 0.396748 6.81847 0
M  V30 2741 O 267.292 1.06701 7.96787 0
M  V30 2742 H 267.024 -0.241852 0.631255 0
M  V30 2743 H 269.578 -0.0921491 2.05193 0
M  V30 2744 H 267.808 -2.47601 2.97036 0
M  V30 2745 H 269.497 -2.29483 3.34802 0
M  V30 2746 H 270.263 -0.309599 4.84011 0
M  V30 2747 H 266.142 -1.44524 4.3776 0
M  V30 2748 H 269.686 0.891334 6.91882 0
M  V30 2749 H 265.583 -0.250896 6.45012 0
M  V30 2750 H 266.351 0.972707 8.127 0
M  V30 2751 N 269.014 -1.53014 -0.377408 0
M  V30 2752 C 270.291 -1.59215 -1.13622 0
M  V30 2753 C 270.671 -0.392407 -2.07421 0
M  V30 2754 O 270.019 0.618342 -2.19975 0
M  V30 2755 C 270.229 -2.93669 -1.88573 0
M  V30 2756 C 271.577 -3.47822 -2.43526 0
M  V30 2757 O 272.601 -2.9562 -1.98715 0
M  V30 2758 O 271.46 -4.39055 -3.25412 0
M  V30 2759 H 268.554 -0.642625 -0.52054 0
M  V30 2760 H 271.1 -1.65353 -0.381625 0
M  V30 2761 H 269.872 -3.7243 -1.20048 0
M  V30 2762 H 269.495 -2.90968 -2.70968 0
M  V30 2763 N 270.492 0.636531 -1.44174 0
M  V30 2764 C 271.769 1.39463 -1.37148 0
M  V30 2765 C 272.149 2.11082 -0.027507 0
M  V30 2766 O 271.497 2.05954 0.989716 0
M  V30 2767 C 271.707 2.36552 -2.56601 0
M  V30 2768 C 273.055 3.00048 -3.00427 0
M  V30 2769 O 274.079 2.46878 -2.56767 0
M  V30 2770 O 272.938 3.96488 -3.76111 0
M  V30 2771 H 270.032 0.623903 -0.542839 0
M  V30 2772 H 272.578 0.662039 -1.56253 0
M  V30 2773 H 271.35 1.82692 -3.46034 0
M  V30 2774 H 270.973 3.17236 -2.39681 0
M  V30 2775 N 271.97 1.30982 0.876444 0
M  V30 2776 C 272.918 1.18006 2.00443 0
M  V30 2777 C 273.912 0.0898871 1.69161 0
M  V30 2778 O 275.118 0.251333 1.78237 0
M  V30 2779 H 271.493 0.365196 0.65737 0
M  V30 2780 H 273.464 2.13453 2.0852 0
M  V30 2781 C 272.213 0.897521 3.35916 0
M  V30 2782 H 271.536 1.7285 3.60504 0
M  V30 2783 H 272.976 0.846874 4.15456 0
M  V30 2784 C 271.435 -0.399674 3.34521 0
M  V30 2785 O 271.965 -1.41852 3.7582 0
M  V30 2786 N 270.171 -0.413893 2.87637 0
M  V30 2787 H 269.718 0.41571 2.54224 0
M  V30 2788 H 269.676 -1.28175 2.87086 0
M  V30 2789 N 273.449 -1.08991 1.13837 0
M  V30 2790 C 274.697 -1.80899 0.901098 0
M  V30 2791 C 275.018 -1.86356 -0.574134 0
M  V30 2792 O 274.288 -1.35235 -1.41733 0
M  V30 2793 H 272.868 -0.669966 0.330386 0
M  V30 2794 H 275.53 -1.318 1.43578 0
M  V30 2795 H 274.626 -2.83929 1.29578 0
M  V30 2796 N 274.927 -0.932562 -1.27047 0
M  V30 2797 C 276.176 -0.571351 -1.93439 0
M  V30 2798 C 276.489 0.892467 -1.74053 0
M  V30 2799 O 277.695 1.36267 -2.34826 0
M  V30 2800 C 276.151 -0.97106 -3.46552 0
M  V30 2801 C 275.759 -2.4559 -3.74686 0
M  V30 2802 C 277.503 -0.681333 -4.18997 0
M  V30 2803 C 275.41 -2.79475 -5.21198 0
M  V30 2804 H 274.34 -0.209966 -0.724176 0
M  V30 2805 H 276.991 -1.13403 -1.44263 0
M  V30 2806 H 275.373 -0.336983 -3.94564 0
M  V30 2807 H 276.547 -3.13829 -3.37414 0
M  V30 2808 H 274.862 -2.71802 -3.15456 0
M  V30 2809 H 277.459 -0.910939 -5.26883 0
M  V30 2810 H 277.802 0.381628 -4.14547 0
M  V30 2811 H 278.335 -1.27473 -3.76823 0
M  V30 2812 H 275.074 -3.847 -5.30741 0
M  V30 2813 H 274.594 -2.1589 -5.596 0
M  V30 2814 H 276.273 -2.67478 -5.89122 0
M  V30 2815 N 276.405 1.4127 -0.698611 0
M  V30 2816 C 277.63 2.06024 -0.238512 0
M  V30 2817 C 278.055 1.5224 1.10475 0
M  V30 2818 O 277.413 0.650623 1.69223 0
M  V30 2819 C 277.461 3.59988 -0.209952 0
M  V30 2820 O 276.565 4.04282 0.814235 0
M  V30 2821 H 275.906 0.653829 -0.115775 0
M  V30 2822 H 278.436 1.8098 -0.954326 0
M  V30 2823 H 278.446 4.07979 -0.0418436 0
M  V30 2824 H 277.121 3.98503 -1.1903 0
M  V30 2825 H 275.698 3.6779 0.615234 0
M  V30 2826 N 277.883 0.443576 1.51229 0
M  V30 2827 C 279.132 -0.122332 2.01329 0
M  V30 2828 C 279.445 -1.43237 1.33201 0
M  V30 2829 O 280.651 -2.0816 1.74304 0
M  V30 2830 C 279.107 -0.268551 3.58897 0
M  V30 2831 C 278.715 1.03142 4.35965 0
M  V30 2832 C 280.459 -0.787894 4.17124 0
M  V30 2833 C 278.366 0.850504 5.85252 0
M  V30 2834 H 277.296 -0.0494929 0.752374 0
M  V30 2835 H 279.947 0.574289 1.74282 0
M  V30 2836 H 278.329 -1.02832 3.82415 0
M  V30 2837 H 279.503 1.80001 4.24189 0
M  V30 2838 H 277.818 1.47977 3.89219 0
M  V30 2839 H 280.415 -0.939841 5.26375 0
M  V30 2840 H 280.758 -1.77201 3.76703 0
M  V30 2841 H 281.291 -0.0862669 3.97706 0
M  V30 2842 H 278.03 1.80718 6.30096 0
M  V30 2843 H 277.55 0.121825 5.99676 0
M  V30 2844 H 279.229 0.506163 6.45017 0
M  V30 2845 N 279.361 -1.56624 0.175154 0
M  V30 2846 C 280.638 -1.88688 -0.515373 0
M  V30 2847 C 281.018 -1.08564 -1.81044 0
M  V30 2848 O 280.366 -0.180703 -2.27784 0
M  V30 2849 C 280.576 -3.40768 -0.753552 0
M  V30 2850 C 281.924 -4.10587 -1.08184 0
M  V30 2851 O 282.948 -3.46106 -0.841961 0
M  V30 2852 O 281.807 -5.24512 -1.53459 0
M  V30 2853 H 278.901 -0.78301 -0.26613 0
M  V30 2854 H 281.447 -1.68347 0.213877 0
M  V30 2855 H 280.219 -3.90965 0.161829 0
M  V30 2856 H 279.842 -3.66733 -1.53598 0
M  V30 2857 N 280.839 0.0985539 -1.57292 0
M  V30 2858 C 282.087 0.801092 -1.85545 0
M  V30 2859 C 282.408 1.79438 -0.763353 0
M  V30 2860 O 281.678 1.94763 0.21073 0
M  V30 2861 H 280.258 0.29884 -0.684619 0
M  V30 2862 H 282.92 0.0810064 -1.94732 0
M  V30 2863 H 282.016 1.3338 -2.82163 0
M  V30 2864 N 282.317 1.53212 0.369288 0
M  V30 2865 C 283.267 1.75769 1.45222 0
M  V30 2866 C 284.251 0.612136 1.48801 0
M  V30 2867 O 285.443 0.870674 1.54105 0
M  V30 2868 C 282.572 1.94769 2.82701 0
M  V30 2869 C 281.658 3.15315 2.83615 0
M  V30 2870 N 282.049 4.37295 2.54178 0
M  V30 2871 C 280.347 3.15962 3.14776 0
M  V30 2872 C 281.048 5.19015 2.62675 0
M  V30 2873 N 280.024 4.55142 2.97232 0
M  V30 2874 H 283.826 2.67691 1.2132 0
M  V30 2875 H 281.34 1.51787 0.577438 0
M  V30 2876 H 283.337 2.09056 3.60696 0
M  V30 2877 H 281.997 1.04073 3.07569 0
M  V30 2878 H 283.008 4.65091 2.27839 0
M  V30 2879 H 279.685 2.35144 3.44983 0
M  V30 2880 H 281.075 6.26305 2.43294 0
M  V30 2881 N 283.795 -0.628877 1.44509 0
M  V30 2882 C 285.041 -1.39045 1.47629 0
M  V30 2883 C 285.374 -1.93892 0.109343 0
M  V30 2884 O 284.649 -1.7379 -0.87334 0
M  V30 2885 C 284.932 -2.55408 2.53848 0
M  V30 2886 C 284.785 -2.05896 3.99909 0
M  V30 2887 C 286.104 -3.5759 2.56549 0
M  V30 2888 H 283.223 -0.504232 0.537512 0
M  V30 2889 H 285.865 -0.710854 1.76201 0
M  V30 2890 H 284.015 -3.13384 2.29615 0
M  V30 2891 H 285.687 -1.52734 4.35282 0
M  V30 2892 H 283.93 -1.37061 4.11578 0
M  V30 2893 H 284.601 -2.89681 4.69882 0
M  V30 2894 H 287.077 -3.09419 2.78207 0
M  V30 2895 H 285.953 -4.36527 3.32769 0
M  V30 2896 H 286.214 -4.11808 1.60832 0
M  V30 2897 N 285.273 -1.31445 -0.869486 0
M  V30 2898 C 286.183 -1.21097 -2.0093 0
M  V30 2899 C 287.199 -0.127584 -1.73532 0
M  V30 2900 O 288.375 -0.345477 -1.98415 0
M  V30 2901 C 285.44 -0.919378 -3.34288 0
M  V30 2902 C 284.501 -2.08971 -3.75006 0
M  V30 2903 C 283.734 -1.81194 -5.02001 0
M  V30 2904 O 283.957 -0.747296 -5.65484 0
M  V30 2905 O 282.891 -2.66883 -5.39497 0
M  V30 2906 H 286.717 -2.16883 -2.12592 0
M  V30 2907 H 284.302 -1.11189 -0.997868 0
M  V30 2908 H 286.184 -0.772625 -4.14257 0
M  V30 2909 H 284.859 0.00844772 -3.23699 0
M  V30 2910 H 283.766 -2.29187 -2.95676 0
M  V30 2911 H 285.099 -2.9998 -3.90221 0
M  V30 2912 N 286.751 1.08385 -1.14413 0
M  V30 2913 C 287.999 1.80419 -0.910679 0
M  V30 2914 C 288.32 1.86658 0.564243 0
M  V30 2915 O 287.59 1.35985 1.41014 0
M  V30 2916 H 286.17 0.668204 -0.333934 0
M  V30 2917 H 288.832 1.31037 -1.44275 0
M  V30 2918 H 287.928 2.83238 -1.31082 0
M  V30 2919 N 288.23 0.939286 1.26551 0
M  V30 2920 C 289.476 0.596234 1.94465 0
M  V30 2921 C 289.831 -0.855013 1.72358 0
M  V30 2922 O 289.124 -1.6034 1.04889 0
M  V30 2923 C 289.318 0.872106 3.46596 0
M  V30 2924 C 289.147 2.34862 3.83497 0
M  V30 2925 C 287.917 3.00344 4.06352 0
M  V30 2926 C 290.115 3.32697 3.92195 0
M  V30 2927 N 288.097 4.38027 4.30123 0
M  V30 2928 C 289.468 4.55631 4.20476 0
M  V30 2929 C 291.523 3.27747 3.74815 0
M  V30 2930 C 290.226 5.74233 4.33185 0
M  V30 2931 C 292.252 4.45672 3.88755 0
M  V30 2932 C 291.614 5.67388 4.17433 0
M  V30 2933 H 287.713 0.268515 0.734455 0
M  V30 2934 H 290.297 1.2083 1.5267 0
M  V30 2935 H 288.468 0.289102 3.87323 0
M  V30 2936 H 290.2 0.490513 4.01716 0
M  V30 2937 H 286.955 2.50969 4.01636 0
M  V30 2938 H 287.379 5.09288 4.46044 0
M  V30 2939 H 292.021 2.34703 3.51673 0
M  V30 2940 H 289.739 6.67731 4.55149 0
M  V30 2941 H 293.325 4.43372 3.76713 0
M  V30 2942 H 292.205 6.57115 4.27983 0
M  V30 2943 N 289.708 -1.40897 0.706093 0
M  V30 2944 C 290.955 -2.01054 0.241531 0
M  V30 2945 C 291.283 -1.55956 -1.16223 0
M  V30 2946 O 290.538 -0.766336 -1.80072 0
M  V30 2947 C 290.837 -3.5646 0.259099 0
M  V30 2948 C 290.503 -4.21106 1.61184 0
M  V30 2949 C 289.165 -4.38479 1.98216 0
M  V30 2950 C 291.517 -4.57256 2.50132 0
M  V30 2951 C 288.845 -4.89282 3.2376 0
M  V30 2952 C 291.197 -5.09454 3.7502 0
M  V30 2953 C 289.861 -5.25037 4.12181 0
M  V30 2954 H 289.131 -0.73571 0.0883825 0
M  V30 2955 H 291.778 -1.68645 0.907257 0
M  V30 2956 H 290.083 -3.88721 -0.490189 0
M  V30 2957 H 291.78 -4.00826 -0.11804 0
M  V30 2958 H 288.37 -4.07966 1.31384 0
M  V30 2959 H 292.554 -4.43479 2.228 0
M  V30 2960 H 287.81 -4.99531 3.52532 0
M  V30 2961 H 291.984 -5.36404 4.44121 0
M  V30 2962 H 289.611 -5.64164 5.09532 0
M  V30 2963 N 291.186 -0.45159 -1.50991 0
M  V30 2964 C 292.414 0.108334 -2.06616 0
M  V30 2965 C 292.829 1.35224 -1.31757 0
M  V30 2966 O 292.186 1.78475 -0.381174 0
M  V30 2967 C 292.237 0.41619 -3.59096 0
M  V30 2968 O 291.958 -0.778361 -4.3113 0
M  V30 2969 C 293.459 1.02523 -4.31282 0
M  V30 2970 H 290.679 0.00159995 -0.670998 0
M  V30 2971 H 293.223 -0.634771 -1.94399 0
M  V30 2972 H 291.378 1.10921 -3.71181 0
M  V30 2973 H 291.792 -0.511181 -5.22003 0
M  V30 2974 H 293.266 1.19053 -5.39009 0
M  V30 2975 H 293.743 2.01013 -3.905 0
M  V30 2976 H 294.349 0.371173 -4.23677 0
M  V30 2977 N 292.664 1.56529 -0.183458 0
M  V30 2978 C 293.941 1.88959 0.50536 0
M  V30 2979 C 294.321 1.09523 1.80466 0
M  V30 2980 O 293.669 0.19278 2.27685 0
M  V30 2981 C 293.879 3.41162 0.73547 0
M  V30 2982 C 295.227 4.11155 1.06005 0
M  V30 2983 O 296.251 3.46548 0.823594 0
M  V30 2984 O 295.11 5.25318 1.50675 0
M  V30 2985 H 292.204 0.78441 0.261973 0
M  V30 2986 H 294.75 1.68231 -0.222802 0
M  V30 2987 H 293.522 3.90874 -0.182561 0
M  V30 2988 H 293.145 3.67543 1.51651 0
M  V30 2989 N 294.142 -0.090211 1.57342 0
M  V30 2990 C 295.419 -0.824761 1.77361 0
M  V30 2991 C 295.799 -1.96698 0.76637 0
M  V30 2992 O 295.147 -2.27586 -0.204179 0
M  V30 2993 C 295.357 -1.31481 3.23286 0
M  V30 2994 C 296.705 -1.75563 3.86604 0
M  V30 2995 O 297.729 -1.41093 3.27065 0
M  V30 2996 O 296.588 -2.39317 4.91314 0
M  V30 2997 H 293.682 -0.393776 0.727234 0
M  V30 2998 H 296.228 -0.0717138 1.69548 0
M  V30 2999 H 295 -0.496671 3.88135 0
M  V30 3000 H 294.623 -2.12973 3.35751 0
M  V30 3001 N 295.62 -1.53406 -0.361157 0
M  V30 3002 C 296.848 -1.73717 -1.12383 0
M  V30 3003 C 297.263 -0.468161 -1.82904 0
M  V30 3004 O 296.62 0.559198 -1.73722 0
M  V30 3005 C 296.671 -2.90558 -2.15078 0
M  V30 3006 O 296.392 -4.12549 -1.47428 0
M  V30 3007 C 297.893 -3.22777 -3.03858 0
M  V30 3008 H 295.113 -0.580896 -0.335858 0
M  V30 3009 H 297.657 -2.00167 -0.418728 0
M  V30 3010 H 295.812 -2.66489 -2.8118 0
M  V30 3011 H 296.226 -4.78009 -2.15887 0
M  V30 3012 H 297.7 -4.07927 -3.71887 0
M  V30 3013 H 298.177 -2.38329 -3.68912 0
M  V30 3014 H 298.783 -3.48787 -2.43367 0
M  V30 3015 N 297.098 0.621204 -1.44841 0
M  V30 3016 C 298.061 1.71459 -1.521 0
M  V30 3017 C 299.061 1.55696 -0.401933 0
M  V30 3018 O 300.251 1.61011 -0.664925 0
M  V30 3019 C 297.383 3.10624 -1.40447 0
M  V30 3020 H 298.576 1.66394 -2.49506 0
M  V30 3021 H 296.129 0.835745 -1.3208 0
M  V30 3022 H 296.864 3.21277 -0.441737 0
M  V30 3023 H 296.649 3.23473 -2.21602 0
M  V30 3024 H 298.139 3.90293 -1.4853 0
M  V30 3025 N 298.576 1.31904 0.862503 0
M  V30 3026 C 299.509 1.14514 1.97388 0
M  V30 3027 C 300.487 0.0466493 1.62533 0
M  V30 3028 O 301.671 0.204484 1.87388 0
M  V30 3029 C 298.798 0.751347 3.30261 0
M  V30 3030 C 297.844 1.85395 3.84098 0
M  V30 3031 S 298.677 3.46081 4.08642 0
M  V30 3032 C 299.833 3.08655 5.44502 0
M  V30 3033 H 300.066 2.08597 2.11836 0
M  V30 3034 H 297.599 1.16475 1.01356 0
M  V30 3035 H 299.557 0.530901 4.07052 0
M  V30 3036 H 298.218 -0.170493 3.13637 0
M  V30 3037 H 297.411 1.53122 4.80177 0
M  V30 3038 H 297.013 2.02984 3.14123 0
M  V30 3039 H 299.305 2.58012 6.26447 0
M  V30 3040 H 300.248 4.03726 5.81731 0
M  V30 3041 H 300.656 2.45891 5.08132 0
M  V30 3042 N 300.054 -1.07777 1.14986 0
M  V30 3043 C 301.47 -1.32373 0.891596 0
M  V30 3044 C 301.67 -1.9609 -0.463788 0
M  V30 3045 O 300.726 -2.21801 -1.20667 0
M  V30 3046 C 302.039 -2.21905 2.02925 0
M  V30 3047 C 303.587 -2.35367 2.06329 0
M  V30 3048 C 304.062 -3.28245 3.19405 0
M  V30 3049 N 305.553 -3.35824 3.19024 0
M  V30 3050 C 306.288 -4.07739 4.03158 0
M  V30 3051 N 305.784 -4.82306 4.97346 0
M  V30 3052 N 307.577 -4.03635 3.91197 0
M  V30 3053 H 299.728 -0.648039 2.02273 0
M  V30 3054 H 301.991 -0.348149 0.881757 0
M  V30 3055 H 301.697 -1.82342 3.0074 0
M  V30 3056 H 301.571 -3.22407 1.95789 0
M  V30 3057 H 303.958 -2.74186 1.09116 0
M  V30 3058 H 304.039 -1.34585 2.17533 0
M  V30 3059 H 303.683 -2.90146 4.16867 0
M  V30 3060 H 303.613 -4.28971 3.05437 0
M  V30 3061 H 306.104 -2.8267 2.50811 0
M  V30 3062 H 306.417 -5.34661 5.57994 0
M  V30 3063 H 304.762 -4.81337 5.01338 0
M  V30 3064 H 307.953 -3.44491 3.16928 0
M  V30 3065 H 308.126 -4.59417 4.5699 0
M  V30 3066 N 301.532 -0.945985 -1.26051 0
M  V30 3067 C 302.779 -0.596118 -1.93527 0
M  V30 3068 C 303.107 0.865559 -1.74179 0
M  V30 3069 O 302.362 1.63524 -1.0751 0
M  V30 3070 C 302.661 -0.890475 -3.46129 0
M  V30 3071 C 302.327 -2.3368 -3.85622 0
M  V30 3072 C 300.989 -2.73216 -3.96114 0
M  V30 3073 C 303.341 -3.27648 -4.05334 0
M  V30 3074 C 300.669 -4.05806 -4.2372 0
M  V30 3075 C 303.021 -4.59841 -4.3443 0
M  V30 3076 C 301.685 -4.99185 -4.43137 0
M  V30 3077 H 300.955 -0.218135 -0.708165 0
M  V30 3078 H 303.602 -1.1934 -1.49768 0
M  V30 3079 H 301.907 -0.210711 -3.91233 0
M  V30 3080 H 303.604 -0.598478 -3.96509 0
M  V30 3081 H 300.194 -2.02015 -3.78005 0
M  V30 3082 H 304.378 -2.98298 -3.96651 0
M  V30 3083 H 299.634 -4.35945 -4.28675 0
M  V30 3084 H 303.808 -5.32641 -4.48628 0
M  V30 3085 H 301.435 -6.01952 -4.64282 0
M  V30 3086 N 303.011 1.40521 -0.713556 0
M  V30 3087 C 303.921 2.34522 -0.0606667 0
M  V30 3088 C 304.937 1.57193 0.74607 0
M  V30 3089 O 306.113 1.89591 0.679493 0
M  V30 3090 C 303.178 3.36081 0.851491 0
M  V30 3091 C 302.239 4.29286 0.0349339 0
M  V30 3092 C 301.472 5.25994 0.903649 0
M  V30 3093 O 301.695 5.28616 2.14292 0
M  V30 3094 O 300.629 6.00918 0.343723 0
M  V30 3095 H 304.455 2.91968 -0.835972 0
M  V30 3096 H 302.04 1.41681 -0.47402 0
M  V30 3097 H 303.922 3.98369 1.37404 0
M  V30 3098 H 302.597 2.81052 1.60598 0
M  V30 3099 H 301.504 3.70289 -0.532633 0
M  V30 3100 H 302.837 4.87462 -0.681287 0
M  V30 3101 N 304.489 0.459591 1.5075 0
M  V30 3102 C 305.452 -0.329093 2.26825 0
M  V30 3103 C 306.452 -0.930481 1.31144 0
M  V30 3104 O 307.642 -0.801453 1.54669 0
M  V30 3105 C 304.774 -1.46768 3.07688 0
M  V30 3106 H 305.967 0.337924 2.9799 0
M  V30 3107 H 303.52 0.213336 1.54837 0
M  V30 3108 H 304.255 -2.17009 2.40993 0
M  V30 3109 H 304.04 -1.04238 3.77991 0
M  V30 3110 H 305.53 -2.02433 3.65254 0
M  V30 3111 N 305.967 -1.56429 0.191757 0
M  V30 3112 C 307.197 -2.01574 -0.452928 0
M  V30 3113 C 307.605 -1.07107 -1.55964 0
M  V30 3114 O 306.948 -0.067534 -1.83576 0
M  V30 3115 C 307.01 -3.43121 -1.07278 0
M  V30 3116 C 306.674 -4.56879 -0.105214 0
M  V30 3117 C 307.671 -5.15379 0.684149 0
M  V30 3118 C 305.356 -5.023 0.00489824 0
M  V30 3119 C 307.35 -6.17746 1.57062 0
M  V30 3120 C 305.037 -6.04511 0.894935 0
M  V30 3121 C 306.035 -6.62108 1.67637 0
M  V30 3122 O 305.723 -7.62335 2.55149 0
M  V30 3123 H 305.455 -0.665554 -0.118379 0
M  V30 3124 H 308.009 -2.03245 0.296737 0
M  V30 3125 H 306.239 -3.38425 -1.87097 0
M  V30 3126 H 307.928 -3.72093 -1.62177 0
M  V30 3127 H 308.694 -4.81157 0.609365 0
M  V30 3128 H 304.573 -4.57168 -0.593156 0
M  V30 3129 H 308.117 -6.6263 2.181 0
M  V30 3130 H 304.014 -6.38157 0.970847 0
M  V30 3131 H 304.782 -7.79741 2.48892 0
M  V30 3132 N 307.445 0.0818655 -1.57387 0
M  V30 3133 C 308.693 0.781368 -1.86384 0
M  V30 3134 C 309.014 1.78618 -0.782342 0
M  V30 3135 O 308.284 1.94976 0.190061 0
M  V30 3136 H 306.864 0.291562 -0.687751 0
M  V30 3137 H 309.526 0.060348 -1.94807 0
M  V30 3138 H 308.622 1.3038 -2.83562 0
M  V30 3139 N 308.923 1.53595 0.353017 0
M  V30 3140 C 310.169 1.71581 1.09232 0
M  V30 3141 C 310.524 0.468328 1.86613 0
M  V30 3142 O 309.817 -0.538911 1.83865 0
M  V30 3143 C 310.011 2.91313 2.07054 0
M  V30 3144 C 309.84 4.27585 1.39287 0
M  V30 3145 C 308.61 4.92233 1.1417 0
M  V30 3146 C 310.808 5.07656 0.824005 0
M  V30 3147 N 308.79 6.124 0.428841 0
M  V30 3148 C 310.161 6.19531 0.241195 0
M  V30 3149 C 312.216 4.92609 0.723922 0
M  V30 3150 C 310.919 7.18002 -0.431952 0
M  V30 3151 C 312.945 5.91365 0.0645334 0
M  V30 3152 C 312.307 7.02571 -0.507347 0
M  V30 3153 H 308.406 0.680987 0.384422 0
M  V30 3154 H 310.99 1.91013 0.377096 0
M  V30 3155 H 309.161 2.73398 2.75877 0
M  V30 3156 H 310.893 2.98062 2.73753 0
M  V30 3157 H 307.648 4.51612 1.42631 0
M  V30 3158 H 308.072 6.76944 0.0874131 0
M  V30 3159 H 312.714 4.06808 1.15181 0
M  V30 3160 H 310.432 8.03384 -0.871758 0
M  V30 3161 H 314.018 5.81799 -0.0121469 0
M  V30 3162 H 312.898 7.77675 -1.0095 0
M  V30 3163 N 310.401 -0.613514 1.45168 0
M  V30 3164 C 311.351 -1.71871 1.49815 0
M  V30 3165 C 312.335 -1.56774 0.362021 0
M  V30 3166 O 313.527 -1.66212 0.608493 0
M  V30 3167 C 310.656 -3.1061 1.46207 0
M  V30 3168 C 309.742 -3.31114 2.64999 0
M  V30 3169 N 310.133 -3.21904 3.90143 0
M  V30 3170 C 308.431 -3.61966 2.6057 0
M  V30 3171 C 309.132 -3.43577 4.69393 0
M  V30 3172 N 308.108 -3.67287 4.00751 0
M  V30 3173 H 311.91 -1.63235 2.444 0
M  V30 3174 H 309.424 -0.816577 1.40377 0
M  V30 3175 H 311.421 -3.8989 1.4762 0
M  V30 3176 H 310.081 -3.20399 0.52673 0
M  V30 3177 H 311.092 -3.00436 4.21852 0
M  V30 3178 H 307.769 -3.78629 1.75916 0
M  V30 3179 H 309.159 -3.41901 5.78406 0
M  V30 3180 N 311.879 -1.3236 -0.855495 0
M  V30 3181 C 313.125 -1.23054 -1.612 0
M  V30 3182 C 313.458 0.207404 -1.93089 0
M  V30 3183 O 312.733 1.14432 -1.57275 0
M  V30 3184 C 313.016 -2.08937 -2.93287 0
M  V30 3185 C 312.869 -3.61105 -2.68185 0
M  V30 3186 C 314.188 -1.94986 -3.94549 0
M  V30 3187 H 311.307 -0.448364 -0.584926 0
M  V30 3188 H 313.949 -1.62297 -0.987917 0
M  V30 3189 H 312.099 -1.75599 -3.46551 0
M  V30 3190 H 313.771 -4.04652 -2.21483 0
M  V30 3191 H 312.014 -3.83813 -2.02164 0
M  V30 3192 H 312.685 -4.16522 -3.62234 0
M  V30 3193 H 315.161 -2.24189 -3.5054 0
M  V30 3194 H 314.037 -2.57356 -4.84829 0
M  V30 3195 H 314.298 -0.917263 -4.3248 0
M  V30 3196 N 313.357 1.07166 -1.15556 0
M  V30 3197 C 314.606 1.79181 -0.926132 0
M  V30 3198 C 314.919 1.87768 0.547967 0
M  V30 3199 O 316.125 2.56323 0.895036 0
M  V30 3200 C 314.581 3.22 -1.60761 0
M  V30 3201 C 314.189 3.21607 -3.11886 0
M  V30 3202 C 315.933 3.9861 -1.4598 0
M  V30 3203 C 313.84 4.59092 -3.72812 0
M  V30 3204 H 312.77 0.67154 -0.342856 0
M  V30 3205 H 315.421 1.2027 -1.3859 0
M  V30 3206 H 313.803 3.81115 -1.07553 0
M  V30 3207 H 314.977 2.72127 -3.71865 0
M  V30 3208 H 313.292 2.58495 -3.2645 0
M  V30 3209 H 315.889 5.00225 -1.88888 0
M  V30 3210 H 316.232 4.143 -0.407541 0
M  V30 3211 H 316.765 3.45996 -1.96295 0
M  V30 3212 H 313.504 4.48606 -4.77946 0
M  V30 3213 H 313.024 5.08803 -3.17616 0
M  V30 3214 H 314.703 5.28059 -3.73848 0
M  V30 3215 N 314.835 0.952656 1.25548 0
M  V30 3216 C 316.251 0.656769 1.4546 0
M  V30 3217 C 316.451 -0.78633 1.85524 0
M  V30 3218 O 315.507 -1.56183 1.98402 0
M  V30 3219 C 316.82 1.62801 2.52817 0
M  V30 3220 C 318.368 1.63897 2.66659 0
M  V30 3221 C 318.843 2.5978 3.77198 0
M  V30 3222 N 320.334 2.58133 3.84606 0
M  V30 3223 C 321.069 3.29003 4.69621 0
M  V30 3224 N 320.565 4.09339 5.58939 0
M  V30 3225 N 322.358 3.179 4.63569 0
M  V30 3226 H 314.509 1.88526 0.978344 0
M  V30 3227 H 316.772 0.810815 0.491206 0
M  V30 3228 H 316.478 2.65869 2.30232 0
M  V30 3229 H 316.352 1.38898 3.50695 0
M  V30 3230 H 318.739 0.615481 2.8861 0
M  V30 3231 H 318.82 1.91858 1.69187 0
M  V30 3232 H 318.464 3.62254 3.55997 0
M  V30 3233 H 318.394 2.29105 4.7415 0
M  V30 3234 H 320.885 1.99809 3.20757 0
M  V30 3235 H 321.198 4.6034 6.20731 0
M  V30 3236 H 319.543 4.13438 5.58654 0
M  V30 3237 H 322.734 2.54612 3.92798 0
M  V30 3238 H 322.907 3.73398 5.29602 0
M  V30 3239 N 316.313 -1.40141 0.720998 0
M  V30 3240 C 317.59 -1.94677 0.189757 0
M  V30 3241 C 317.97 -1.65879 -1.30566 0
M  V30 3242 O 317.318 -0.979391 -2.06447 0
M  V30 3243 C 317.528 -3.45279 0.508304 0
M  V30 3244 C 318.876 -4.22209 0.449934 0
M  V30 3245 O 319.9 -3.53413 0.444677 0
M  V30 3246 O 318.759 -5.44788 0.432189 0
M  V30 3247 H 315.853 -0.826459 0.0299026 0
M  V30 3248 H 318.399 -1.49719 0.7989 0
M  V30 3249 H 317.171 -3.59619 1.54239 0
M  V30 3250 H 316.794 -3.97386 -0.130525 0
M  V30 3251 N 317.792 -0.46758 -1.50504 0
M  V30 3252 C 319.041 0.0902868 -2.01498 0
M  V30 3253 C 319.354 1.411 -1.35463 0
M  V30 3254 O 320.56 2.0536 -1.77594 0
M  V30 3255 C 319.016 0.21142 -3.59278 0
M  V30 3256 C 318.624 -1.10065 -4.34269 0
M  V30 3257 C 320.368 0.721433 -4.18325 0
M  V30 3258 C 318.275 -0.943505 -5.83825 0
M  V30 3259 H 317.205 0.037517 -0.753066 0
M  V30 3260 H 319.856 -0.601943 -1.73346 0
M  V30 3261 H 318.238 0.967352 -3.84003 0
M  V30 3262 H 319.412 -1.86726 -4.21272 0
M  V30 3263 H 317.727 -1.5415 -3.86816 0
M  V30 3264 H 320.324 0.85598 -5.27804 0
M  V30 3265 H 320.667 1.71186 -3.79475 0
M  V30 3266 H 321.2 0.0229843 -3.97793 0
M  V30 3267 H 317.939 -1.90719 -6.27141 0
M  V30 3268 H 317.459 -0.217213 -5.99407 0
M  V30 3269 H 319.138 -0.608715 -6.4413 0
M  V30 3270 N 319.27 1.56325 -0.20005 0
M  V30 3271 C 320.547 1.89484 0.48529 0
M  V30 3272 C 320.927 1.1143 1.79294 0
M  V30 3273 O 320.275 0.216919 2.27468 0
M  V30 3274 C 320.485 3.41923 0.699243 0
M  V30 3275 C 321.833 4.12256 1.01638 0
M  V30 3276 O 322.857 3.47402 0.786792 0
M  V30 3277 O 321.716 5.26887 1.45095 0
M  V30 3278 H 318.81 0.787144 0.253639 0
M  V30 3279 H 321.356 1.67985 -0.240633 0
M  V30 3280 H 320.128 3.90658 -0.224008 0
M  V30 3281 H 319.751 3.69131 1.47744 0
M  V30 3282 N 320.748 -0.0735177 1.57428 0
M  V30 3283 C 321.996 -0.771472 1.86796 0
M  V30 3284 C 322.317 -1.78201 0.791804 0
M  V30 3285 O 321.587 -1.95074 -0.179718 0
M  V30 3286 H 320.167 -0.28791 0.689287 0
M  V30 3287 H 322.829 -0.0500161 1.94836 0
M  V30 3288 H 321.925 -1.28874 2.8425 0
M  V30 3289 N 322.226 -1.5378 -0.344866 0
M  V30 3290 C 323.176 -1.78057 -1.42407 0
M  V30 3291 C 324.16 -0.635732 -1.47808 0
M  V30 3292 O 325.352 -0.89508 -1.527 0
M  V30 3293 C 322.481 -1.99242 -2.79566 0
M  V30 3294 C 321.567 -3.19787 -2.78562 0
M  V30 3295 N 321.958 -4.41284 -2.47189 0
M  V30 3296 C 320.256 -3.2093 -3.0971 0
M  V30 3297 C 320.957 -5.23128 -2.54385 0
M  V30 3298 N 319.933 -4.59813 -2.89953 0
M  V30 3299 H 323.735 -2.69588 -1.17046 0
M  V30 3300 H 321.249 -1.52687 -0.553217 0
M  V30 3301 H 323.246 -2.14768 -3.57324 0
M  V30 3302 H 321.906 -1.08953 -3.05875 0
M  V30 3303 H 322.917 -4.68657 -2.20411 0
M  V30 3304 H 319.594 -2.40603 -3.41199 0
M  V30 3305 H 320.984 -6.30096 -2.333 0
M  V30 3306 N 323.704 0.605807 -1.45491 0
M  V30 3307 C 324.981 1.36522 -1.40075 0
M  V30 3308 C 325.361 2.10976 -0.0722744 0
M  V30 3309 O 324.709 2.08007 0.945808 0
M  V30 3310 C 324.919 2.31056 -2.61561 0
M  V30 3311 C 326.267 2.93608 -3.06724 0
M  V30 3312 O 327.291 2.41376 -2.61946 0
M  V30 3313 O 326.15 3.88421 -3.84437 0
M  V30 3314 H 323.244 0.612248 -0.555951 0
M  V30 3315 H 325.79 0.628747 -1.57623 0
M  V30 3316 H 324.562 1.75311 -3.49831 0
M  V30 3317 H 324.185 3.12081 -2.46356 0
M  V30 3318 N 325.182 1.32811 0.848464 0
M  V30 3319 C 326.145 1.22194 1.9391 0
M  V30 3320 C 327.145 0.143404 1.60159 0
M  V30 3321 O 328.335 0.394253 1.6968 0
M  V30 3322 C 325.467 0.88067 3.29328 0
M  V30 3323 H 326.66 2.19127 2.04752 0
M  V30 3324 H 324.213 1.16731 1.0394 0
M  V30 3325 H 324.948 -0.0865776 3.24184 0
M  V30 3326 H 324.733 1.66052 3.55203 0
M  V30 3327 H 326.223 0.830871 4.09251 0
M  V30 3328 N 326.66 -1.06551 1.16123 0
M  V30 3329 C 327.623 -2.12132 0.867906 0
M  V30 3330 C 328.623 -1.60224 -0.135944 0
M  V30 3331 O 329.813 -1.73943 0.0946422 0
M  V30 3332 C 326.945 -3.396 0.297419 0
M  V30 3333 H 328.138 -2.39586 1.80385 0
M  V30 3334 H 325.691 -1.22574 0.969812 0
M  V30 3335 H 326.426 -3.17794 -0.64633 0
M  V30 3336 H 326.211 -3.78581 1.02073 0
M  V30 3337 H 327.701 -4.17455 0.110052 0
M  V30 3338 N 328.138 -0.959301 -1.25041 0
M  V30 3339 C 329.363 -0.633507 -1.97488 0
M  V30 3340 C 329.788 0.788555 -1.70773 0
M  V30 3341 O 329.146 1.53394 -0.966431 0
M  V30 3342 C 329.194 -0.904057 -3.49083 0
M  V30 3343 O 328.298 0.0147939 -4.12397 0
M  V30 3344 H 327.639 -0.240368 -0.618966 0
M  V30 3345 H 330.169 -1.28717 -1.59038 0
M  V30 3346 H 330.179 -0.832203 -3.99423 0
M  V30 3347 H 328.854 -1.94048 -3.67856 0
M  V30 3348 H 327.431 -0.109664 -3.72739 0
M  V30 3349 N 329.616 1.39756 -0.72842 0
M  V30 3350 C 330.865 1.99879 -0.270407 0
M  V30 3351 C 331.178 1.58449 1.14688 0
M  V30 3352 O 332.384 2.11362 1.70407 0
M  V30 3353 C 330.84 3.57292 -0.43252 0
M  V30 3354 C 330.448 4.07688 -1.85727 0
M  V30 3355 C 332.192 4.24485 -0.0359507 0
M  V30 3356 C 330.099 5.5765 -1.96928 0
M  V30 3357 H 329.029 0.747689 -0.0973472 0
M  V30 3358 H 331.68 1.59837 -0.901355 0
M  V30 3359 H 330.062 3.95097 0.267219 0
M  V30 3360 H 331.236 3.81231 -2.58843 0
M  V30 3361 H 329.551 3.53135 -2.20646 0
M  V30 3362 H 332.148 5.34609 -0.0987484 0
M  V30 3363 H 332.491 4.03915 1.00787 0
M  V30 3364 H 333.024 3.9183 -0.686604 0
M  V30 3365 H 329.763 5.8309 -2.99476 0
M  V30 3366 H 329.283 5.8593 -1.28241 0
M  V30 3367 H 330.962 6.22957 -1.74737 0
M  V30 3368 N 331.094 0.475555 1.50254 0
M  V30 3369 C 332.041 -0.316293 2.28622 0
M  V30 3370 C 333.011 -0.983227 1.33873 0
M  V30 3371 O 334.196 -0.994805 1.62814 0
M  V30 3372 C 331.336 -1.38975 3.1588 0
M  V30 3373 C 330.449 -0.737146 4.25664 0
M  V30 3374 C 329.584 -1.78887 5.00173 0
M  V30 3375 C 328.623 -1.11676 6.01826 0
M  V30 3376 N 327.76 -2.11154 6.69596 0
M  V30 3377 H 332.6 0.358297 2.95838 0
M  V30 3378 H 330.137 0.188541 1.45887 0
M  V30 3379 H 332.095 -2.02383 3.64825 0
M  V30 3380 H 330.725 -2.03344 2.50701 0
M  V30 3381 H 329.777 0.0096065 3.80399 0
M  V30 3382 H 331.089 -0.206816 4.98371 0
M  V30 3383 H 330.243 -2.49865 5.52859 0
M  V30 3384 H 328.982 -2.35302 4.27182 0
M  V30 3385 H 327.987 -0.392633 5.48396 0
M  V30 3386 H 329.212 -0.55945 6.76792 0
M  V30 3387 H 327.158 -2.66577 5.99394 0
M  V30 3388 H 327.075 -1.63118 7.38193 0
M  V30 3389 H 328.343 -2.81497 7.26897 0
M  V30 3390 N 332.573 -1.56217 0.208337 0
M  V30 3391 C 333.989 -1.58919 -0.14729 0
M  V30 3392 C 334.189 -1.22486 -1.59998 0
M  V30 3393 O 333.245 -0.953849 -2.3379 0
M  V30 3394 C 334.558 -3.00236 0.167048 0
M  V30 3395 C 336.106 -3.12813 0.108219 0
M  V30 3396 C 336.581 -4.56284 0.396049 0
M  V30 3397 N 338.072 -4.61912 0.345142 0
M  V30 3398 C 338.807 -5.70837 0.541523 0
M  V30 3399 N 338.303 -6.88178 0.798968 0
M  V30 3400 N 340.096 -5.60091 0.474867 0
M  V30 3401 H 332.247 -1.78177 1.15614 0
M  V30 3402 H 334.51 -0.827555 0.462446 0
M  V30 3403 H 334.216 -3.31499 1.1748 0
M  V30 3404 H 334.09 -3.7354 -0.524184 0
M  V30 3405 H 336.477 -2.81354 -0.890157 0
M  V30 3406 H 336.558 -2.41866 0.832729 0
M  V30 3407 H 336.202 -4.88458 1.3918 0
M  V30 3408 H 336.132 -5.25439 -0.349502 0
M  V30 3409 H 338.623 -3.77589 0.153316 0
M  V30 3410 H 338.936 -7.67095 0.93727 0
M  V30 3411 H 337.281 -6.89953 0.836013 0
M  V30 3412 H 340.472 -4.67297 0.274064 0
M  V30 3413 H 340.645 -6.44917 0.631326 0
M  V30 3414 N 334.051 0.0651679 -1.57465 0
M  V30 3415 C 335.014 1.06117 -2.03155 0
M  V30 3416 C 336.014 1.31204 -0.929632 0
M  V30 3417 O 337.204 1.26813 -1.19432 0
M  V30 3418 C 334.336 2.4032 -2.41783 0
M  V30 3419 H 335.529 0.667231 -2.92383 0
M  V30 3420 H 333.082 0.311075 -1.53173 0
M  V30 3421 H 333.817 2.84532 -1.55601 0
M  V30 3422 H 333.602 2.23451 -3.22199 0
M  V30 3423 H 335.092 3.11898 -2.77685 0
M  V30 3424 N 335.529 1.53961 0.336706 0
M  V30 3425 C 336.775 1.7179 1.07777 0
M  V30 3426 C 337.108 0.483263 1.88091 0
M  V30 3427 O 336.383 -0.519747 1.87427 0
M  V30 3428 C 336.666 2.98558 2.01334 0
M  V30 3429 C 336.519 4.32245 1.24437 0
M  V30 3430 C 337.838 3.21023 3.01052 0
M  V30 3431 H 334.957 0.625089 0.390426 0
M  V30 3432 H 337.599 1.86641 0.35567 0
M  V30 3433 H 335.749 2.86028 2.62908 0
M  V30 3434 H 337.421 4.56637 0.654243 0
M  V30 3435 H 335.664 4.30344 0.546458 0
M  V30 3436 H 336.335 5.17137 1.93063 0
M  V30 3437 H 338.811 3.32929 2.49595 0
M  V30 3438 H 337.687 4.11104 3.6371 0
M  V30 3439 H 337.948 2.37637 3.72802 0
M  V30 3440 N 337.007 -0.598083 1.45811 0
M  V30 3441 C 337.917 -1.73632 1.57763 0
M  V30 3442 C 338.933 -1.67763 0.461676 0
M  V30 3443 O 340.109 -1.87949 0.723685 0
M  V30 3444 C 337.174 -3.10114 1.55018 0
M  V30 3445 C 336.235 -3.27364 2.77726 0
M  V30 3446 C 335.468 -4.57334 2.75102 0
M  V30 3447 O 335.691 -5.40258 1.8297 0
M  V30 3448 O 334.625 -4.77502 3.66437 0
M  V30 3449 H 338.451 -1.66498 2.53992 0
M  V30 3450 H 336.036 -0.763308 1.28429 0
M  V30 3451 H 337.918 -3.9141 1.56129 0
M  V30 3452 H 336.593 -3.17718 0.619431 0
M  V30 3453 H 335.5 -2.45619 2.82174 0
M  V30 3454 H 336.833 -3.24641 3.69958 0
M  V30 3455 N 338.485 -1.33259 -0.841409 0
M  V30 3456 C 339.395 -1.25332 -1.98316 0
M  V30 3457 C 340.411 -0.164364 -1.73222 0
M  V30 3458 O 341.587 -0.387486 -1.97637 0
M  V30 3459 C 338.652 -0.990078 -3.32262 0
M  V30 3460 C 337.713 -2.16879 -3.70489 0
M  V30 3461 C 336.946 -1.91801 -4.98044 0
M  V30 3462 O 337.169 -0.867075 -5.63771 0
M  V30 3463 O 336.103 -2.78267 -5.33714 0
M  V30 3464 H 339.929 -2.21344 -2.07944 0
M  V30 3465 H 337.514 -1.1328 -0.974058 0
M  V30 3466 H 339.396 -0.860321 -4.12524 0
M  V30 3467 H 338.071 -0.0602155 -3.23644 0
M  V30 3468 H 336.978 -2.35407 -2.90748 0
M  V30 3469 H 338.311 -3.0819 -3.8377 0
M  V30 3470 N 339.963 1.05934 -1.16686 0
M  V30 3471 C 340.926 2.11669 -0.879144 0
M  V30 3472 C 341.926 1.60294 0.127445 0
M  V30 3473 O 343.116 1.7389 -0.103865 0
M  V30 3474 C 340.248 3.39438 -0.315425 0
M  V30 3475 H 341.441 2.38626 -1.81653 0
M  V30 3476 H 338.994 1.22058 -0.976299 0
M  V30 3477 H 339.729 3.18132 0.629468 0
M  V30 3478 H 339.514 3.78034 -1.04079 0
M  V30 3479 H 341.004 4.17391 -0.132189 0
M  V30 3480 N 341.441 0.965919 1.2453 0
M  V30 3481 C 342.857 0.67216 1.44756 0
M  V30 3482 C 343.057 -0.766609 1.86347 0
M  V30 3483 O 342.113 -1.5407 2.00047 0
M  V30 3484 C 343.426 1.65473 2.51076 0
M  V30 3485 C 344.974 1.66716 2.64905 0
M  V30 3486 C 345.449 2.63766 3.74421 0
M  V30 3487 N 346.94 2.62198 3.81846 0
M  V30 3488 C 347.675 3.33966 4.66106 0
M  V30 3489 N 347.171 4.15245 5.54566 0
M  V30 3490 N 348.964 3.22799 4.60171 0
M  V30 3491 H 341.115 1.89553 0.958293 0
M  V30 3492 H 343.378 0.815979 0.482579 0
M  V30 3493 H 343.084 2.68296 2.27399 0
M  V30 3494 H 342.958 1.4261 3.49202 0
M  V30 3495 H 345.345 0.646057 2.87941 0
M  V30 3496 H 345.426 1.93642 1.67142 0
M  V30 3497 H 345.07 3.6601 3.52135 0
M  V30 3498 H 345 2.34121 4.71694 0
M  V30 3499 H 347.491 2.032 3.18619 0
M  V30 3500 H 347.804 4.66898 6.15814 0
M  V30 3501 H 346.149 4.1934 5.54237 0
M  V30 3502 H 349.34 2.58764 3.90075 0
M  V30 3503 H 349.513 3.78994 5.25612 0
M  V30 3504 N 342.919 -1.39368 0.735821 0
M  V30 3505 C 343.882 -2.2896 0.104874 0
M  V30 3506 C 344.882 -1.46347 -0.666274 0
M  V30 3507 O 346.072 -1.67014 -0.49517 0
M  V30 3508 C 343.204 -3.29857 -0.860656 0
M  V30 3509 H 344.397 -2.86259 0.894205 0
M  V30 3510 H 341.95 -1.48029 0.501704 0
M  V30 3511 H 342.685 -2.77615 -1.67631 0
M  V30 3512 H 342.47 -3.9087 -0.310327 0
M  V30 3513 H 343.96 -3.96893 -1.29867 0
M  V30 3514 N 344.397 -0.483516 -1.5 0
M  V30 3515 C 345.643 0.0672592 -2.02688 0
M  V30 3516 C 345.976 1.38247 -1.36387 0
M  V30 3517 O 345.251 1.88131 -0.493675 0
M  V30 3518 C 345.534 0.238109 -3.59312 0
M  V30 3519 C 345.387 -1.099 -4.36168 0
M  V30 3520 C 346.706 0.986916 -4.28892 0
M  V30 3521 H 343.825 0.0229696 -0.736642 0
M  V30 3522 H 346.467 -0.631527 -1.79197 0
M  V30 3523 H 344.617 0.8333 -3.79458 0
M  V30 3524 H 346.289 -1.73172 -4.27562 0
M  V30 3525 H 344.532 -1.69261 -3.99416 0
M  V30 3526 H 345.203 -0.932954 -5.44059 0
M  V30 3527 H 347.679 0.482302 -4.13295 0
M  V30 3528 H 346.555 1.07527 -5.38265 0
M  V30 3529 H 346.816 2.0265 -3.92919 0
M  V30 3530 N 345.875 1.56104 -0.216619 0
M  V30 3531 C 347.103 2.02563 0.421413 0
M  V30 3532 C 347.518 1.0965 1.53695 0
M  V30 3533 O 346.875 0.10521 1.82196 0
M  V30 3534 C 346.926 3.48584 0.957665 0
M  V30 3535 O 346.647 4.37953 -0.113389 0
M  V30 3536 C 348.148 4.10664 1.66943 0
M  V30 3537 H 345.368 0.662944 0.103665 0
M  V30 3538 H 347.912 2.01793 -0.331629 0
M  V30 3539 H 346.067 3.49985 1.661 0
M  V30 3540 H 346.481 5.23704 0.288932 0
M  V30 3541 H 347.955 5.14622 1.99671 0
M  V30 3542 H 348.432 3.55373 2.58083 0
M  V30 3543 H 349.038 4.13098 1.01142 0
M  V30 3544 N 347.353 -0.0568162 1.57498 0
M  V30 3545 C 348.63 -0.786954 1.79071 0
M  V30 3546 C 349.01 -1.95028 0.80792 0
M  V30 3547 O 348.358 -2.27968 -0.155858 0
M  V30 3548 C 348.568 -1.24594 3.26002 0
M  V30 3549 C 349.916 -1.67323 3.90241 0
M  V30 3550 O 350.94 -1.34124 3.29984 0
M  V30 3551 O 349.799 -2.28842 4.9628 0
M  V30 3552 H 346.893 -0.378262 0.735423 0
M  V30 3553 H 349.439 -0.035734 1.69662 0
M  V30 3554 H 348.211 -0.41423 3.89101 0
M  V30 3555 H 347.834 -2.05803 3.40192 0
M  V30 3556 N 348.832 -1.54138 -0.328536 0
M  V30 3557 C 349.779 -1.83176 -1.40411 0
M  V30 3558 C 350.749 -0.678494 -1.5161 0
M  V30 3559 O 351.934 -0.92443 -1.6691 0
M  V30 3560 C 349.074 -2.06035 -2.76846 0
M  V30 3561 C 348.187 -3.33727 -2.74318 0
M  V30 3562 C 347.322 -3.46574 -4.02567 0
M  V30 3563 C 346.361 -4.68159 -3.94327 0
M  V30 3564 N 345.498 -4.77959 -5.14296 0
M  V30 3565 H 350.338 -2.74938 -1.14948 0
M  V30 3566 H 347.875 -1.36166 -0.556538 0
M  V30 3567 H 349.833 -2.1728 -3.56153 0
M  V30 3568 H 348.463 -1.1757 -3.00628 0
M  V30 3569 H 347.515 -3.31246 -1.8703 0
M  V30 3570 H 348.827 -4.23139 -2.64111 0
M  V30 3571 H 347.981 -3.57333 -4.90304 0
M  V30 3572 H 346.72 -2.55245 -4.15574 0
M  V30 3573 H 345.725 -4.57461 -3.04974 0
M  V30 3574 H 346.95 -5.60868 -3.82889 0
M  V30 3575 H 344.896 -3.89544 -5.27818 0
M  V30 3576 H 344.813 -5.6133 -5.06404 0
M  V30 3577 H 346.081 -4.93044 -6.03761 0
M  V30 3578 N 350.31 0.590341 -1.46126 0
M  V30 3579 C 351.721 1.17243 -1.45296 0
M  V30 3580 C 352.072 1.95281 -0.189723 0
M  V30 3581 O 351.197 2.04502 0.707674 0
M  V30 3582 C 351.792 2.13284 -2.6324 0
M  V30 3583 C 350.351 2.66832 -2.65476 0
M  V30 3584 C 349.498 1.42557 -2.3785 0
M  V30 3585 H 352.449 0.378692 -1.54116 0
M  V30 3586 H 352.47 2.96619 -2.38323 0
M  V30 3587 H 351.982 1.56459 -3.55165 0
M  V30 3588 H 350.083 3.27548 -1.77603 0
M  V30 3589 H 350.196 3.10088 -3.65215 0
M  V30 3590 H 348.56 1.72107 -1.87753 0
M  V30 3591 H 349.343 0.875741 -3.31942 0
M  V30 3592 N 351.788 1.33704 0.83433 0
M  V30 3593 C 353.013 1.28615 1.62705 0
M  V30 3594 C 353.438 -0.139242 1.87584 0
M  V30 3595 O 352.796 -1.09734 1.4432 0
M  V30 3596 C 352.844 2.07139 2.95171 0
M  V30 3597 O 351.948 1.4331 3.86699 0
M  V30 3598 H 351.289 0.44226 0.49528 0
M  V30 3599 H 353.819 1.76335 1.03766 0
M  V30 3600 H 353.829 2.18073 3.44831 0
M  V30 3601 H 352.504 3.10779 2.76386 0
M  V30 3602 H 351.081 1.4105 3.45195 0
M  V30 3603 N 353.266 -1.05314 1.17247 0
M  V30 3604 C 354.196 -2.1498 0.911362 0
M  V30 3605 C 355.177 -1.69471 -0.146169 0
M  V30 3606 O 356.362 -1.942 0.003812 0
M  V30 3607 C 353.492 -3.4472 0.422528 0
M  V30 3608 C 352.446 -4.03789 1.4191 0
M  V30 3609 C 351.772 -5.28858 0.788274 0
M  V30 3610 C 353.072 -4.41418 2.7919 0
M  V30 3611 H 354.766 -2.3708 1.82848 0
M  V30 3612 H 352.312 -1.13938 0.880569 0
M  V30 3613 H 354.265 -4.20787 0.227289 0
M  V30 3614 H 352.989 -3.22269 -0.530123 0
M  V30 3615 H 351.648 -3.2979 1.60106 0
M  V30 3616 H 351.296 -5.02709 -0.171173 0
M  V30 3617 H 350.996 -5.69338 1.45353 0
M  V30 3618 H 352.52 -6.07612 0.603282 0
M  V30 3619 H 353.934 -5.08524 2.64719 0
M  V30 3620 H 352.331 -4.92913 3.42282 0
M  V30 3621 H 353.401 -3.51819 3.33693 0
M  V30 3622 N 354.744 -0.972509 -1.24016 0
M  V30 3623 C 355.674 -0.525548 -2.27509 0
M  V30 3624 C 356.655 0.437262 -1.64384 0
M  V30 3625 O 357.84 0.332343 -1.91335 0
M  V30 3626 C 354.97 0.180448 -3.46831 0
M  V30 3627 C 353.924 -0.698859 -4.22256 0
M  V30 3628 C 353.25 0.138903 -5.3452 0
M  V30 3629 C 354.55 -1.98582 -4.83076 0
M  V30 3630 H 356.244 -1.39058 -2.65148 0
M  V30 3631 H 353.79 -0.67009 -1.27459 0
M  V30 3632 H 355.743 0.504387 -4.18371 0
M  V30 3633 H 354.467 1.07987 -3.08231 0
M  V30 3634 H 353.126 -1.00614 -3.52523 0
M  V30 3635 H 352.774 1.03862 -4.9216 0
M  V30 3636 H 352.474 -0.446259 -5.85903 0
M  V30 3637 H 353.998 0.457404 -6.08884 0
M  V30 3638 H 355.412 -1.72715 -5.46665 0
M  V30 3639 H 353.809 -2.5181 -5.44713 0
M  V30 3640 H 354.879 -2.67769 -4.04262 0
M  V30 3641 N 356.222 1.38976 -0.743202 0
M  V30 3642 C 357.155 2.28128 -0.0572165 0
M  V30 3643 C 358.133 1.44827 0.739182 0
M  V30 3644 O 359.317 1.74207 0.720009 0
M  V30 3645 C 356.444 3.25796 0.926001 0
M  V30 3646 C 355.49 4.25947 0.217099 0
M  V30 3647 S 356.323 5.24604 -1.07477 0
M  V30 3648 C 357.479 6.25829 -0.0943545 0
M  V30 3649 H 357.712 2.85961 -0.813246 0
M  V30 3650 H 355.245 1.44822 -0.535341 0
M  V30 3651 H 357.203 3.82583 1.48797 0
M  V30 3652 H 355.864 2.66966 1.65493 0
M  V30 3653 H 355.057 4.94746 0.961372 0
M  V30 3654 H 354.659 3.73002 -0.273059 0
M  V30 3655 H 356.951 6.73411 0.743239 0
M  V30 3656 H 357.894 7.0412 -0.749713 0
M  V30 3657 H 358.302 5.63797 0.281706 0
M  V30 3658 N 357.7 0.491464 1.49741 0
M  V30 3659 C 358.94 -0.0549118 2.04326 0
M  V30 3660 C 359.304 -1.35148 1.36378 0
M  V30 3661 O 360.505 -1.9815 1.81631 0
M  V30 3662 C 358.776 -0.213841 3.5676 0
M  V30 3663 S 360.335 -0.715839 4.32922 0
M  V30 3664 H 357.153 -0.00630513 0.710972 0
M  V30 3665 H 359.755 0.663257 1.83905 0
M  V30 3666 H 358.459 0.73527 4.0376 0
M  V30 3667 H 357.99 -0.957529 3.81569 0
M  V30 3668 H 360.005 -1.9864 4.54705 0
M  V30 3669 N 359.178 -1.55987 0.224894 0
M  V30 3670 C 360.125 -2.20436 -0.68385 0
M  V30 3671 C 361.095 -1.16102 -1.18783 0
M  V30 3672 O 362.28 -1.4447 -1.24632 0
M  V30 3673 C 359.42 -2.89076 -1.88491 0
M  V30 3674 C 358.533 -4.08012 -1.41951 0
M  V30 3675 C 357.668 -4.64426 -2.5784 0
M  V30 3676 C 356.707 -5.75656 -2.08053 0
M  V30 3677 N 355.844 -6.26347 -3.17227 0
M  V30 3678 H 360.684 -2.97727 -0.12754 0
M  V30 3679 H 358.221 -1.47011 -0.0511978 0
M  V30 3680 H 360.179 -3.27059 -2.59014 0
M  V30 3681 H 358.809 -2.14298 -2.41405 0
M  V30 3682 H 357.861 -3.75492 -0.609095 0
M  V30 3683 H 359.173 -4.88375 -1.01447 0
M  V30 3684 H 358.327 -5.04869 -3.3644 0
M  V30 3685 H 357.066 -3.83233 -3.01635 0
M  V30 3686 H 356.071 -5.34712 -1.27916 0
M  V30 3687 H 357.296 -6.58686 -1.65255 0
M  V30 3688 H 355.242 -5.48067 -3.60497 0
M  V30 3689 H 355.159 -7.01843 -2.80986 0
M  V30 3690 H 356.427 -6.71447 -3.95953 0
M  V30 3691 N 360.656 0.0484629 -1.57525 0
M  V30 3692 C 361.884 0.755421 -1.92616 0
M  V30 3693 C 362.299 1.69919 -0.822984 0
M  V30 3694 O 361.656 1.81378 0.202085 0
M  V30 3695 C 361.707 1.52915 -3.27566 0
M  V30 3696 O 361.428 0.62329 -4.33644 0
M  V30 3697 C 362.929 2.33502 -3.76818 0
M  V30 3698 H 360.149 0.213465 -0.63614 0
M  V30 3699 H 362.693 0.0117698 -2.04497 0
M  V30 3700 H 360.848 2.22486 -3.17142 0
M  V30 3701 H 361.262 1.16383 -5.11425 0
M  V30 3702 H 362.736 2.83214 -4.73808 0
M  V30 3703 H 363.213 3.14068 -3.07014 0
M  V30 3704 H 363.819 1.69043 -3.90262 0
M  V30 3705 N 362.134 1.5431 0.320358 0
M  V30 3706 C 363.383 1.7188 1.05546 0
M  V30 3707 C 363.696 0.501143 1.89071 0
M  V30 3708 O 364.902 0.558258 2.65699 0
M  V30 3709 C 363.358 3.04025 1.92605 0
M  V30 3710 C 362.966 4.33207 1.14176 0
M  V30 3711 C 364.71 3.30959 2.65832 0
M  V30 3712 C 362.617 5.56412 2.00399 0
M  V30 3713 H 361.547 0.640547 0.397763 0
M  V30 3714 H 364.198 1.80802 0.313522 0
M  V30 3715 H 362.58 2.89019 2.7071 0
M  V30 3716 H 363.754 4.58989 0.40819 0
M  V30 3717 H 362.069 4.13062 0.526165 0
M  V30 3718 H 364.666 4.20203 3.30656 0
M  V30 3719 H 365.009 2.48979 3.33639 0
M  V30 3720 H 365.542 3.46847 1.94787 0
M  V30 3721 H 362.281 6.41004 1.37094 0
M  V30 3722 H 361.801 5.34844 2.7148 0
M  V30 3723 H 363.48 5.92938 2.58908 0
M  V30 3724 N 363.613 -0.582584 1.46437 0
M  V30 3725 C 364.862 -1.337 1.5102 0
M  V30 3726 C 365.175 -1.94891 0.166359 0
M  V30 3727 O 366.381 -2.71351 0.0899954 0
M  V30 3728 C 364.837 -2.42315 2.66104 0
M  V30 3729 C 364.445 -1.87427 4.06909 0
M  V30 3730 C 366.189 -3.19099 2.79958 0
M  V30 3731 C 364.096 -2.93672 5.13333 0
M  V30 3732 H 363.026 -0.502619 0.562041 0
M  V30 3733 H 365.677 -0.621701 1.72647 0
M  V30 3734 H 364.059 -3.16645 2.37807 0
M  V30 3735 H 365.233 -1.19639 4.44998 0
M  V30 3736 H 363.548 -1.2331 3.97723 0
M  V30 3737 H 366.145 -3.9839 3.56636 0
M  V30 3738 H 366.488 -3.71695 1.87479 0
M  V30 3739 H 367.021 -2.51875 3.07902 0
M  V30 3740 H 363.76 -2.45962 6.07604 0
M  V30 3741 H 363.28 -3.59948 4.79789 0
M  V30 3742 H 364.959 -3.5762 5.39182 0
M  V30 3743 N 365.091 -1.34144 -0.827227 0
M  V30 3744 C 366.339 -1.26009 -1.58007 0
M  V30 3745 C 366.66 0.170971 -1.94249 0
M  V30 3746 O 365.93 1.10256 -1.61927 0
M  V30 3747 H 364.51 -0.463414 -0.585881 0
M  V30 3748 H 367.172 -1.68005 -0.987951 0
M  V30 3749 H 366.268 -1.86187 -2.50481 0
M  V30 3750 N 366.569 1.04691 -1.17803 0
M  V30 3751 C 367.816 1.77782 -0.969532 0
M  V30 3752 C 368.144 1.87926 0.501401 0
M  V30 3753 O 367.399 1.37918 1.38842 0
M  V30 3754 C 367.698 3.21467 -1.56186 0
M  V30 3755 C 367.364 3.3137 -3.05786 0
M  V30 3756 C 366.026 3.3378 -3.46619 0
M  V30 3757 C 368.378 3.31976 -4.01797 0
M  V30 3758 C 365.706 3.34431 -4.82051 0
M  V30 3759 C 368.058 3.34167 -5.37136 0
M  V30 3760 C 366.722 3.34866 -5.77426 0
M  V30 3761 H 365.992 0.650549 -0.354777 0
M  V30 3762 H 368.639 1.23006 -1.46772 0
M  V30 3763 H 366.944 3.79203 -0.985515 0
M  V30 3764 H 368.641 3.76652 -1.37602 0
M  V30 3765 H 365.231 3.3021 -2.73238 0
M  V30 3766 H 369.415 3.29311 -3.71306 0
M  V30 3767 H 364.671 3.33285 -5.12573 0
M  V30 3768 H 368.845 3.33585 -6.11305 0
M  V30 3769 H 366.472 3.35124 -6.82346 0
M  V30 3770 N 368.047 0.979072 1.23499 0
M  V30 3771 C 369.295 0.645941 1.91499 0
M  V30 3772 C 369.616 -0.822948 1.76784 0
M  V30 3773 O 368.886 -1.58854 1.14639 0
M  V30 3774 H 367.466 0.235919 0.708767 0
M  V30 3775 H 370.128 1.2426 1.50152 0
M  V30 3776 H 369.224 0.896411 2.9895 0
M  V30 3777 N 369.525 -1.3858 0.750561 0
M  V30 3778 C 370.75 -2.04997 0.314812 0
M  V30 3779 C 371.175 -1.56235 -1.04749 0
M  V30 3780 O 370.533 -0.712981 -1.66692 0
M  V30 3781 C 370.581 -3.58961 0.343415 0
M  V30 3782 O 369.685 -4.07025 -0.663628 0
M  V30 3783 H 369.026 -0.649081 0.139962 0
M  V30 3784 H 371.556 -1.77313 1.02084 0
M  V30 3785 H 371.566 -4.07542 0.193233 0
M  V30 3786 H 370.241 -3.93811 1.33738 0
M  V30 3787 H 368.818 -3.6982 -0.478307 0
M  V30 3788 N 371.003 -0.499398 -1.49478 0
M  V30 3789 C 372.414 -0.051215 -1.8663 0
M  V30 3790 C 372.765 1.36238 -1.41186 0
M  V30 3791 O 371.89 2.01502 -0.789051 0
M  V30 3792 C 372.485 -0.0861651 -3.3869 0
M  V30 3793 C 371.044 0.30667 -3.75149 0
M  V30 3794 C 370.191 -0.459397 -2.73468 0
M  V30 3795 H 373.142 -0.712264 -1.41818 0
M  V30 3796 H 373.163 0.709507 -3.73826 0
M  V30 3797 H 372.675 -1.11512 -3.71735 0
M  V30 3798 H 370.776 1.33892 -3.47712 0
M  V30 3799 H 370.889 -0.0116669 -4.79099 0
M  V30 3800 H 369.253 0.0905645 -2.54539 0
M  V30 3801 H 370.036 -1.4884 -3.09357 0
M  V30 3802 N 372.481 1.55866 -0.233164 0
M  V30 3803 C 373.429 2.22176 0.68851 0
M  V30 3804 C 374.423 1.20487 1.19076 0
M  V30 3805 O 375.629 1.38536 1.14925 0
M  V30 3806 H 372.004 0.712511 0.240483 0
M  V30 3807 H 373.975 2.98212 0.105935 0
M  V30 3808 C 372.724 2.92446 1.88071 0
M  V30 3809 H 372.047 3.70458 1.50337 0
M  V30 3810 H 373.487 3.42226 2.50314 0
M  V30 3811 C 371.946 1.95555 2.74335 0
M  V30 3812 O 372.476 1.47986 3.73447 0
M  V30 3813 N 370.682 1.62953 2.40613 0
M  V30 3814 H 370.229 2.01831 1.60069 0
M  V30 3815 H 370.187 0.983886 2.98609 0
M  V30 3816 N 373.959 -0.0401083 1.57549 0
M  V30 3817 C 374.906 -1.04413 2.05831 0
M  V30 3818 C 375.876 -1.36585 0.945184 0
M  V30 3819 O 377.061 -1.47112 1.21502 0
M  V30 3820 C 374.201 -2.34336 2.53339 0
M  V30 3821 C 373.314 -2.08419 3.78398 0
M  V30 3822 C 372.449 -3.32133 4.14561 0
M  V30 3823 C 371.488 -3.01721 5.3257 0
M  V30 3824 N 370.625 -4.17855 5.64218 0
M  V30 3825 H 375.465 -0.625442 2.91363 0
M  V30 3826 H 373.002 -0.297218 1.44066 0
M  V30 3827 H 374.96 -3.10234 2.78946 0
M  V30 3828 H 373.59 -2.73948 1.7074 0
M  V30 3829 H 372.642 -1.23069 3.59942 0
M  V30 3830 H 373.954 -1.81978 4.64419 0
M  V30 3831 H 373.108 -4.16406 4.41238 0
M  V30 3832 H 371.847 -3.61678 3.2717 0
M  V30 3833 H 370.852 -2.15849 5.05657 0
M  V30 3834 H 372.077 -2.73466 6.21605 0
M  V30 3835 H 370.023 -4.47372 4.79786 0
M  V30 3836 H 369.94 -3.94798 6.44725 0
M  V30 3837 H 371.208 -5.03033 5.95465 0
M  V30 3838 N 375.437 -1.54477 -0.31217 0
M  V30 3839 C 376.4 -1.83923 -1.36766 0
M  V30 3840 C 377.4 -0.711563 -1.44199 0
M  V30 3841 O 378.59 -0.979866 -1.44029 0
M  V30 3842 C 375.722 -2.0095 -2.75376 0
M  V30 3843 H 376.915 -2.78239 -1.11906 0
M  V30 3844 H 374.468 -1.46369 -0.548257 0
M  V30 3845 H 375.203 -1.08883 -3.05475 0
M  V30 3846 H 374.988 -2.83018 -2.71373 0
M  V30 3847 H 376.478 -2.2514 -3.51713 0
M  V30 3848 N 376.915 0.57481 -1.46744 0
M  V30 3849 C 378.163 1.33009 -1.52161 0
M  V30 3850 C 378.484 1.94185 -0.178092 0
M  V30 3851 O 377.754 1.7899 0.796196 0
M  V30 3852 H 376.334 0.493873 -0.560445 0
M  V30 3853 H 378.996 0.672589 -1.82927 0
M  V30 3854 H 378.092 2.13273 -2.27862 0
M  V30 3855 N 378.394 1.34581 0.820102 0
M  V30 3856 C 379.622 1.3018 1.60813 0
M  V30 3857 C 380.037 -0.123551 1.88395 0
M  V30 3858 O 379.394 -1.07148 1.47735 0
M  V30 3859 C 379.445 2.09312 2.94739 0
M  V30 3860 O 379.166 3.46288 2.68358 0
M  V30 3861 C 380.667 2.1234 3.89136 0
M  V30 3862 H 377.887 0.447726 0.499782 0
M  V30 3863 H 380.431 1.77237 1.02017 0
M  V30 3864 H 378.586 1.65889 3.50085 0
M  V30 3865 H 379 3.87227 3.53774 0
M  V30 3866 H 380.474 2.72126 4.80262 0
M  V30 3867 H 380.951 1.11854 4.24718 0
M  V30 3868 H 381.557 2.55864 3.39726 0
M  V30 3869 N 379.872 -1.04064 1.18357 0
M  V30 3870 C 380.822 -2.10393 0.878561 0
M  V30 3871 C 381.806 -1.60183 -0.151713 0
M  V30 3872 O 382.998 -1.76923 0.0523303 0
M  V30 3873 C 380.127 -3.4089 0.406096 0
M  V30 3874 C 379.213 -3.97866 1.46844 0
M  V30 3875 N 379.604 -4.28657 2.68489 0
M  V30 3876 C 377.902 -4.2574 1.32896 0
M  V30 3877 C 378.603 -4.74253 3.36836 0
M  V30 3878 N 377.579 -4.75068 2.64219 0
M  V30 3879 H 381.381 -2.32076 1.80327 0
M  V30 3880 H 378.895 -1.21818 1.07397 0
M  V30 3881 H 380.892 -4.16557 0.169088 0
M  V30 3882 H 379.552 -3.20633 -0.512275 0
M  V30 3883 H 380.563 -4.18304 3.05356 0
M  V30 3884 H 377.24 -4.1481 0.473134 0
M  V30 3885 H 378.63 -5.07096 4.40798 0
M  V30 3886 N 381.35 -0.985608 -1.22978 0
M  V30 3887 C 382.627 -0.573599 -1.87001 0
M  V30 3888 C 383.007 0.949213 -1.88555 0
M  V30 3889 O 382.355 1.82811 -1.37086 0
M  V30 3890 C 382.565 -1.18564 -3.28243 0
M  V30 3891 C 383.913 -1.28163 -4.04796 0
M  V30 3892 O 384.937 -1.13949 -3.37482 0
M  V30 3893 O 383.796 -1.50832 -5.25273 0
M  V30 3894 H 380.89 -0.193868 -0.803955 0
M  V30 3895 H 383.436 -1.08102 -1.30813 0
M  V30 3896 H 382.208 -2.22758 -3.21706 0
M  V30 3897 H 381.831 -0.663363 -3.92027 0
M  V30 3898 N 382.828 1.3818 -0.7579 0
M  V30 3899 C 384.053 2.04827 -0.325679 0
M  V30 3900 C 384.478 1.56788 1.03919 0
M  V30 3901 O 383.836 0.721811 1.66312 0
M  V30 3902 C 383.884 3.58774 -0.362447 0
M  V30 3903 O 382.988 4.07372 0.642033 0
M  V30 3904 H 382.329 0.64833 -0.143402 0
M  V30 3905 H 384.859 1.7677 -1.03023 0
M  V30 3906 H 384.869 4.07434 -0.214844 0
M  V30 3907 H 383.544 3.93096 -1.35824 0
M  V30 3908 H 382.121 3.70068 0.458688 0
M  V30 3909 N 384.306 0.507319 1.49211 0
M  V30 3910 C 385.256 -0.287112 2.26185 0
M  V30 3911 C 386.24 -0.929983 1.31302 0
M  V30 3912 O 387.432 -0.836538 1.55984 0
M  V30 3913 C 384.561 -1.34718 3.15763 0
M  V30 3914 C 383.647 -0.710235 4.18111 0
M  V30 3915 N 384.038 0.190836 5.0544 0
M  V30 3916 C 382.336 -0.97009 4.35322 0
M  V30 3917 C 383.037 0.55606 5.79036 0
M  V30 3918 N 382.013 -0.0775232 5.43545 0
M  V30 3919 H 385.815 0.406445 2.91076 0
M  V30 3920 H 383.329 0.323814 1.59139 0
M  V30 3921 H 385.326 -1.92982 3.69545 0
M  V30 3922 H 383.986 -2.04235 2.52424 0
M  V30 3923 H 384.997 0.562047 5.14841 0
M  V30 3924 H 381.674 -1.65753 3.83187 0
M  V30 3925 H 383.064 1.2936 6.5933 0
M  V30 3926 N 385.784 -1.5574 0.241426 0
M  V30 3927 C 387.032 -1.98417 -0.384075 0
M  V30 3928 C 387.353 -1.13078 -1.58866 0
M  V30 3929 O 386.623 -0.212312 -1.94746 0
M  V30 3930 H 385.203 -0.732813 -0.144894 0
M  V30 3931 H 387.865 -1.9193 0.338943 0
M  V30 3932 H 386.961 -3.04219 -0.696939 0
M  V30 3933 N 387.262 0.0317525 -1.57568 0
M  V30 3934 C 388.225 1.01783 -2.0536 0
M  V30 3935 C 389.225 1.29203 -0.957253 0
M  V30 3936 O 390.415 1.24251 -1.22095 0
M  V30 3937 C 387.547 2.35137 -2.46827 0
M  V30 3938 H 388.74 0.605062 -2.93733 0
M  V30 3939 H 386.293 0.278514 -1.53799 0
M  V30 3940 H 387.028 2.81168 -1.61602 0
M  V30 3941 H 386.813 2.16566 -3.26866 0
M  V30 3942 H 388.303 3.05938 -2.84239 0
M  V30 3943 N 388.74 1.54641 0.303973 0
M  V30 3944 C 390.151 1.64811 0.877163 0
M  V30 3945 C 390.502 0.554838 1.88191 0
M  V30 3946 O 389.627 -0.309033 2.14182 0
M  V30 3947 C 390.222 2.9876 1.59775 0
M  V30 3948 C 388.781 3.11061 2.11938 0
M  V30 3949 C 387.928 2.60479 0.951097 0
M  V30 3950 H 390.879 1.58493 0.0810486 0
M  V30 3951 H 390.9 2.90017 2.46314 0
M  V30 3952 H 390.412 3.7831 0.866226 0
M  V30 3953 H 388.513 2.36225 2.88146 0
M  V30 3954 H 388.626 4.17171 2.35595 0
M  V30 3955 H 386.99 2.16859 1.33583 0
M  V30 3956 H 387.773 3.42504 0.233581 0
M  V30 3957 N 390.218 -0.567019 1.47046 0
M  V30 3958 C 391.148 -1.68482 1.61667 0
M  V30 3959 C 392.129 -1.6358 0.466418 0
M  V30 3960 O 393.314 -1.81354 0.694574 0
M  V30 3961 C 390.444 -3.07124 1.62148 0
M  V30 3962 C 389.398 -3.26867 2.76301 0
M  V30 3963 C 388.724 -4.66196 2.61849 0
M  V30 3964 C 390.024 -3.13186 4.17986 0
M  V30 3965 H 391.718 -1.56502 2.5524 0
M  V30 3966 H 389.264 -0.751486 1.22836 0
M  V30 3967 H 391.217 -3.8516 1.70968 0
M  V30 3968 H 389.941 -3.2004 0.651287 0
M  V30 3969 H 388.6 -2.51237 2.66975 0
M  V30 3970 H 388.248 -4.75898 1.62879 0
M  V30 3971 H 387.948 -4.80356 3.38425 0
M  V30 3972 H 389.472 -5.46379 2.72584 0
M  V30 3973 H 390.886 -3.81049 4.2834 0
M  V30 3974 H 389.283 -3.3886 4.95272 0
M  V30 3975 H 390.353 -2.10057 4.3704 0
M  V30 3976 N 391.696 -1.35014 -0.812953 0
M  V30 3977 C 392.944 -1.27678 -1.56661 0
M  V30 3978 C 393.265 0.150359 -1.94419 0
M  V30 3979 O 392.535 1.08532 -1.63088 0
M  V30 3980 H 391.115 -0.469602 -0.580933 0
M  V30 3981 H 393.777 -1.69043 -0.970076 0
M  V30 3982 H 392.873 -1.88833 -2.48492 0
M  V30 3983 N 393.175 1.03435 -1.18907 0
M  V30 3984 C 394.452 1.73778 -0.89781 0
M  V30 3985 C 394.832 2.02458 0.597832 0
M  V30 3986 O 394.18 1.67482 1.55441 0
M  V30 3987 C 394.39 3.01845 -1.75187 0
M  V30 3988 C 395.738 3.7546 -1.9828 0
M  V30 3989 O 396.762 3.11759 -1.72293 0
M  V30 3990 O 395.621 4.89966 -2.42065 0
M  V30 3991 H 392.715 0.75651 -0.334098 0
M  V30 3992 H 395.261 1.09444 -1.29693 0
M  V30 3993 H 394.033 2.76836 -2.76545 0
M  V30 3994 H 393.656 3.73919 -1.35167 0
M  V30 3995 N 394.653 0.992116 1.22453 0
M  V30 3996 C 395.616 0.546883 2.2258 0
M  V30 3997 C 396.616 -0.369829 1.56489 0
M  V30 3998 O 397.806 -0.161896 1.73446 0
M  V30 3999 C 394.938 -0.204659 3.40285 0
M  V30 4000 H 396.131 1.43234 2.63484 0
M  V30 4001 H 393.684 0.779239 1.3549 0
M  V30 4002 H 394.419 -1.10614 3.04853 0
M  V30 4003 H 394.204 0.45354 3.89468 0
M  V30 4004 H 395.694 -0.504358 4.14543 0
M  V30 4005 N 396.131 -1.37776 0.765217 0
M  V30 4006 C 397.041 -2.34135 0.147666 0
M  V30 4007 C 398.057 -1.59854 -0.687215 0
M  V30 4008 O 399.233 -1.91983 -0.608659 0
M  V30 4009 C 396.298 -3.3901 -0.72617 0
M  V30 4010 C 395.359 -4.2912 0.124417 0
M  V30 4011 C 394.592 -5.28986 -0.707807 0
M  V30 4012 O 394.815 -5.36205 -1.94525 0
M  V30 4013 O 393.749 -6.01779 -0.12046 0
M  V30 4014 H 397.575 -2.88664 0.943758 0
M  V30 4015 H 395.16 -1.39824 0.526277 0
M  V30 4016 H 397.042 -4.03195 -1.22524 0
M  V30 4017 H 395.717 -2.86819 -1.50056 0
M  V30 4018 H 394.624 -3.68057 0.669696 0
M  V30 4019 H 395.957 -4.84598 0.861736 0
M  V30 4020 N 397.609 -0.515225 -1.4894 0
M  V30 4021 C 398.858 0.0261361 -2.01683 0
M  V30 4022 C 399.171 1.36719 -1.39883 0
M  V30 4023 O 400.377 1.99606 -1.84037 0
M  V30 4024 C 398.833 0.0970111 -3.59769 0
M  V30 4025 C 398.441 -1.23825 -4.30548 0
M  V30 4026 C 400.185 0.587981 -4.20408 0
M  V30 4027 C 398.092 -1.12877 -5.80528 0
M  V30 4028 H 397.022 0.0135398 -0.753878 0
M  V30 4029 H 399.673 -0.656787 -1.71343 0
M  V30 4030 H 398.055 0.844694 -3.86886 0
M  V30 4031 H 399.229 -2.00034 -4.15118 0
M  V30 4032 H 397.544 -1.66379 -3.81716 0
M  V30 4033 H 400.141 0.68763 -5.3026 0
M  V30 4034 H 400.484 1.59026 -3.84729 0
M  V30 4035 H 401.017 -0.103582 -3.97665 0
M  V30 4036 H 397.756 -2.10575 -6.20756 0
M  V30 4037 H 397.276 -0.407799 -5.98412 0
M  V30 4038 H 398.955 -0.813332 -6.41868 0
M  V30 4039 N 399.087 1.5561 -0.249682 0
M  V30 4040 C 400.05 2.20217 0.635394 0
M  V30 4041 C 401.05 1.17227 1.10066 0
M  V30 4042 O 402.24 1.42292 1.00492 0
M  V30 4043 C 399.372 2.84794 1.87363 0
M  V30 4044 H 400.565 2.99814 0.0716752 0
M  V30 4045 H 398.118 1.563 -0.000153234 0
M  V30 4046 H 398.853 2.09142 2.47851 0
M  V30 4047 H 398.638 3.60241 1.5482 0
M  V30 4048 H 400.128 3.3423 2.5036 0
M  V30 4049 N 400.565 -0.0233959 1.57583 0
M  V30 4050 C 401.495 -1.02162 2.09965 0
M  V30 4051 C 402.476 -1.3735 1.00344 0
M  V30 4052 O 403.661 -1.46135 1.27899 0
M  V30 4053 C 400.791 -2.32081 2.58371 0
M  V30 4054 C 399.745 -2.1112 3.72307 0
M  V30 4055 C 399.071 -3.46848 4.06941 0
M  V30 4056 C 400.371 -1.49276 5.00514 0
M  V30 4057 H 402.065 -0.585557 2.93618 0
M  V30 4058 H 399.611 -0.280218 1.41247 0
M  V30 4059 H 401.564 -3.02249 2.93639 0
M  V30 4060 H 400.288 -2.77758 1.71808 0
M  V30 4061 H 398.947 -1.43384 3.37397 0
M  V30 4062 H 398.595 -3.90184 3.17436 0
M  V30 4063 H 398.295 -3.33646 4.83688 0
M  V30 4064 H 399.819 -4.18369 4.44747 0
M  V30 4065 H 401.233 -2.09368 5.33702 0
M  V30 4066 H 399.63 -1.46632 5.8191 0
M  V30 4067 H 400.7 -0.459217 4.82721 0
M  V30 4068 N 402.043 -1.548 -0.295768 0
M  V30 4069 C 403.271 -1.78327 -1.04914 0
M  V30 4070 C 403.686 -0.545316 -1.80753 0
M  V30 4071 O 403.043 0.485013 -1.75937 0
M  V30 4072 C 403.094 -2.99418 -2.02561 0
M  V30 4073 O 402.815 -4.18431 -1.29798 0
M  V30 4074 C 404.316 -3.35375 -2.89895 0
M  V30 4075 H 401.536 -0.594618 -0.310918 0
M  V30 4076 H 404.08 -2.01763 -0.333454 0
M  V30 4077 H 402.235 -2.78175 -2.69624 0
M  V30 4078 H 402.649 -4.86736 -1.95419 0
M  V30 4079 H 404.123 -4.23332 -3.54251 0
M  V30 4080 H 404.6 -2.53761 -3.58472 0
M  V30 4081 H 405.206 -3.58796 -2.28355 0
M  V30 4082 N 403.521 0.559213 -1.47345 0
M  V30 4083 C 404.937 0.884943 -1.32819 0
M  V30 4084 C 405.137 1.98988 -0.317173 0
M  V30 4085 O 404.193 2.51031 0.272011 0
M  V30 4086 C 405.506 1.28007 -2.72093 0
M  V30 4087 C 407.054 1.39161 -2.80363 0
M  V30 4088 C 407.529 1.82031 -4.20272 0
M  V30 4089 N 409.02 1.89185 -4.22804 0
M  V30 4090 C 409.755 2.2368 -5.27973 0
M  V30 4091 N 409.251 2.56802 -6.43447 0
M  V30 4092 N 411.044 2.24436 -5.15349 0
M  V30 4093 H 403.195 -0.170304 -2.11716 0
M  V30 4094 H 405.458 -0.0135247 -0.947904 0
M  V30 4095 H 405.164 0.542027 -3.47498 0
M  V30 4096 H 405.038 2.23665 -3.03733 0
M  V30 4097 H 407.425 2.12048 -2.05231 0
M  V30 4098 H 407.506 0.41696 -2.52379 0
M  V30 4099 H 407.15 1.09715 -4.95908 0
M  V30 4100 H 407.08 2.80495 -4.45679 0
M  V30 4101 H 409.571 1.65982 -3.39497 0
M  V30 4102 H 409.884 2.82144 -7.19454 0
M  V30 4103 H 408.229 2.54387 -6.46771 0
M  V30 4104 H 411.42 1.97998 -4.24163 0
M  V30 4105 H 411.593 2.50989 -5.97418 0
M  V30 4106 N 404.999 1.35443 0.805782 0
M  V30 4107 C 405.909 1.30546 1.94923 0
M  V30 4108 C 406.925 0.210233 1.72725 0
M  V30 4109 O 408.101 0.43975 1.9654 0
M  V30 4110 C 405.166 1.07782 3.29521 0
M  V30 4111 C 404.227 2.26625 3.64609 0
M  V30 4112 C 403.46 2.04938 4.92784 0
M  V30 4113 O 403.683 1.01624 5.61274 0
M  V30 4114 O 402.617 2.9232 5.26149 0
M  V30 4115 H 406.443 2.26779 2.02002 0
M  V30 4116 H 404.028 1.15823 0.943682 0
M  V30 4117 H 405.91 0.969392 4.10098 0
M  V30 4118 H 404.585 0.146003 3.23371 0
M  V30 4119 H 403.492 2.43033 2.84404 0
M  V30 4120 H 404.825 3.18257 3.75464 0
M  V30 4121 N 406.477 -1.02803 1.19454 0
M  V30 4122 C 407.409 -2.11181 0.890807 0
M  V30 4123 C 408.422 -1.6238 -0.116829 0
M  V30 4124 O 409.611 -1.78144 0.112694 0
M  V30 4125 C 406.711 -3.37461 0.311942 0
M  V30 4126 C 405.884 -4.15446 1.36834 0
M  V30 4127 C 404.943 -5.20039 0.802864 0
M  V30 4128 O 403.969 -5.49602 1.48077 0
M  V30 4129 N 405.171 -5.79165 -0.393417 0
M  V30 4130 H 407.936 -2.37827 1.82369 0
M  V30 4131 H 405.497 -1.19101 1.09666 0
M  V30 4132 H 407.489 -4.0462 -0.0802225 0
M  V30 4133 H 406.059 -3.08156 -0.52524 0
M  V30 4134 H 405.279 -3.43423 1.93531 0
M  V30 4135 H 406.567 -4.64335 2.08015 0
M  V30 4136 H 405.965 -5.57466 -0.961658 0
M  V30 4137 H 404.522 -6.47729 -0.727351 0
M  V30 4138 N 407.956 -0.998596 -1.21925 0
M  V30 4139 C 408.886 -0.573688 -2.26343 0
M  V30 4140 C 409.867 0.402296 -1.65274 0
M  V30 4141 O 411.052 0.291683 -1.91997 0
M  V30 4142 C 408.182 0.106839 -3.47136 0
M  V30 4143 C 407.136 -0.788269 -4.20678 0
M  V30 4144 C 406.462 0.0254927 -5.34694 0
M  V30 4145 C 407.762 -2.08784 -4.78755 0
M  V30 4146 H 409.456 -1.44651 -2.62138 0
M  V30 4147 H 407.002 -0.696975 -1.26009 0
M  V30 4148 H 408.955 0.415531 -4.19346 0
M  V30 4149 H 407.679 1.01424 -3.10452 0
M  V30 4150 H 406.338 -1.08069 -3.50309 0
M  V30 4151 H 405.986 0.933989 -4.94253 0
M  V30 4152 H 405.686 -0.570437 -5.84825 0
M  V30 4153 H 407.21 0.328147 -6.09718 0
M  V30 4154 H 408.624 -1.84272 -5.42878 0
M  V30 4155 H 407.021 -2.63307 -5.39249 0
M  V30 4156 H 408.091 -2.76284 -3.98491 0
M  V30 4157 N 409.434 1.37368 -0.772513 0
M  V30 4158 C 410.682 1.99279 -0.336516 0
M  V30 4159 C 411.003 1.6163 1.09091 0
M  V30 4160 O 410.273 0.882109 1.74916 0
M  V30 4161 H 408.853 0.737063 -0.121435 0
M  V30 4162 H 411.515 1.67836 -0.990809 0
M  V30 4163 H 410.611 3.09332 -0.414763 0
M  V30 4164 N 410.912 0.523116 1.48665 0
M  V30 4165 C 412.158 -0.00540031 2.03399 0
M  V30 4166 C 412.513 -1.3264 1.39372 0
M  V30 4167 O 411.806 -1.84184 0.527916 0
M  V30 4168 C 412 -0.191671 3.56886 0
M  V30 4169 C 411.829 1.10972 4.35793 0
M  V30 4170 C 410.599 1.66769 4.76987 0
M  V30 4171 C 412.797 2.01861 4.73029 0
M  V30 4172 N 410.779 2.91268 5.40404 0
M  V30 4173 C 412.15 3.10937 5.36394 0
M  V30 4174 C 414.205 2.02271 4.54962 0
M  V30 4175 C 412.908 4.20478 5.83601 0
M  V30 4176 C 414.934 3.10802 5.03146 0
M  V30 4177 C 414.296 4.18597 5.6653 0
M  V30 4178 H 410.395 0.0393531 0.781009 0
M  V30 4179 H 412.979 0.702876 1.8157 0
M  V30 4180 H 411.15 -0.869025 3.78553 0
M  V30 4181 H 412.882 -0.719177 3.98259 0
M  V30 4182 H 409.637 1.20996 4.57883 0
M  V30 4183 H 410.061 3.54635 5.76683 0
M  V30 4184 H 414.703 1.2023 4.05345 0
M  V30 4185 H 412.421 5.03303 6.32228 0
M  V30 4186 H 416.007 3.12166 4.90962 0
M  V30 4187 H 414.887 5.01193 6.03138 0
M  V30 4188 N 412.39 -1.55475 0.257931 0
M  V30 4189 C 413.337 -2.21837 -0.636939 0
M  V30 4190 C 414.307 -1.18596 -1.16294 0
M  V30 4191 O 415.492 -1.47081 -1.21539 0
M  V30 4192 C 412.632 -2.9301 -1.82317 0
M  V30 4193 C 411.745 -4.10931 -1.33265 0
M  V30 4194 C 410.88 -4.69791 -2.47931 0
M  V30 4195 C 409.919 -5.7994 -1.95796 0
M  V30 4196 N 409.056 -6.32935 -3.0387 0
M  V30 4197 H 413.896 -2.9793 -0.0643591 0
M  V30 4198 H 411.433 -1.47086 -0.0200031 0
M  V30 4199 H 413.391 -3.3248 -2.52018 0
M  V30 4200 H 412.021 -2.1937 -2.36805 0
M  V30 4201 H 411.073 -3.76699 -0.52931 0
M  V30 4202 H 412.385 -4.90417 -0.910654 0
M  V30 4203 H 411.539 -5.11892 -3.25656 0
M  V30 4204 H 410.278 -3.89545 -2.93438 0
M  V30 4205 H 409.283 -5.37305 -1.16546 0
M  V30 4206 H 410.508 -6.62043 -1.51246 0
M  V30 4207 H 408.454 -5.55591 -3.48791 0
M  V30 4208 H 408.371 -7.07645 -2.66035 0
M  V30 4209 H 409.639 -6.79695 -3.81621 0
M  V30 4210 N 413.868 0.0150385 -1.57593 0
M  V30 4211 C 415.098 0.713359 -1.93894 0
M  V30 4212 C 415.506 1.68663 -0.857289 0
M  V30 4213 O 414.849 1.82876 0.173788 0
M  V30 4214 C 414.911 1.51348 -3.26089 0
M  V30 4215 C 414.575 0.703451 -4.51554 0
M  V30 4216 C 415.572 -0.00237924 -5.199 0
M  V30 4217 C 413.257 0.653854 -4.98026 0
M  V30 4218 C 415.251 -0.746955 -6.33008 0
M  V30 4219 C 412.938 -0.0944578 -6.11027 0
M  V30 4220 C 413.936 -0.793609 -6.78374 0
M  V30 4221 O 413.624 -1.52974 -7.89211 0
M  V30 4222 H 413.356 0.204637 -0.644282 0
M  V30 4223 H 415.91 -0.0276411 -2.05381 0
M  V30 4224 H 414.14 2.29862 -3.10967 0
M  V30 4225 H 415.829 2.09572 -3.47612 0
M  V30 4226 H 416.595 0.0268803 -4.84993 0
M  V30 4227 H 412.474 1.18756 -4.45441 0
M  V30 4228 H 416.018 -1.2932 -6.85509 0
M  V30 4229 H 411.915 -0.125591 -6.45378 0
M  V30 4230 H 412.683 -1.44488 -8.05646 0
M  V30 4231 N 415.346 1.54954 0.287554 0
M  V30 4232 C 416.309 1.86076 1.33823 0
M  V30 4233 C 417.309 0.734414 1.43049 0
M  V30 4234 O 418.499 1.00266 1.42452 0
M  V30 4235 C 415.631 2.05305 2.72144 0
M  V30 4236 H 416.824 2.79984 1.07465 0
M  V30 4237 H 414.377 1.47223 0.524902 0
M  V30 4238 H 415.112 1.1373 3.03704 0
M  V30 4239 H 414.897 2.873 2.66836 0
M  V30 4240 H 416.387 2.30706 3.48087 0
M  V30 4241 N 416.824 -0.551391 1.4764 0
M  V30 4242 C 418.235 -1.13349 1.48354 0
M  V30 4243 C 418.586 -1.94709 0.241432 0
M  V30 4244 O 417.711 -2.06306 -0.653205 0
M  V30 4245 C 418.306 -2.0623 2.68802 0
M  V30 4246 C 416.865 -2.597 2.72457 0
M  V30 4247 C 416.012 -1.36201 2.41546 0
M  V30 4248 H 418.963 -0.337698 1.55065 0
M  V30 4249 H 418.984 -2.90196 2.46103 0
M  V30 4250 H 418.496 -1.46987 3.59188 0
M  V30 4251 H 416.597 -3.22724 1.86225 0
M  V30 4252 H 416.71 -3.00296 3.73308 0
M  V30 4253 H 415.074 -1.67068 1.9225 0
M  V30 4254 H 415.857 -0.787425 3.34147 0
M  V30 4255 N 418.302 -1.35869 -0.798587 0
M  V30 4256 C 419.549 -1.29588 -1.55606 0
M  V30 4257 C 419.877 0.127456 -1.94082 0
M  V30 4258 O 419.132 1.09461 -1.62225 0
M  V30 4259 C 419.431 -2.1556 -2.85077 0
M  V30 4260 C 419.097 -3.6424 -2.65781 0
M  V30 4261 C 417.759 -4.04766 -2.60227 0
M  V30 4262 C 420.111 -4.58547 -2.47758 0
M  V30 4263 C 417.439 -5.37753 -2.34603 0
M  V30 4264 C 419.791 -5.91742 -2.23662 0
M  V30 4265 C 418.455 -6.31402 -2.16534 0
M  V30 4266 H 417.725 -0.474197 -0.569402 0
M  V30 4267 H 420.372 -1.67839 -0.922086 0
M  V30 4268 H 418.677 -1.70216 -3.52893 0
M  V30 4269 H 420.374 -2.08031 -3.42818 0
M  V30 4270 H 416.964 -3.32086 -2.70956 0
M  V30 4271 H 421.148 -4.28117 -2.51056 0
M  V30 4272 H 416.404 -5.67474 -2.2756 0
M  V30 4273 H 420.578 -6.6439 -2.08708 0
M  V30 4274 H 418.205 -7.34381 -1.96441 0
M  V30 4275 N 419.78 1.02168 -1.19998 0
M  V30 4276 C 420.69 2.14069 -0.959774 0
M  V30 4277 C 421.706 1.73804 0.082655 0
M  V30 4278 O 422.882 2.01133 -0.103633 0
M  V30 4279 C 419.947 3.42936 -0.509459 0
M  V30 4280 C 419.008 3.97474 -1.62213 0
M  V30 4281 C 418.241 5.2019 -1.19321 0
M  V30 4282 O 418.464 5.70369 -0.0597726 0
M  V30 4283 O 417.398 5.67749 -1.99863 0
M  V30 4284 H 421.224 2.37199 -1.89658 0
M  V30 4285 H 418.809 1.12469 -0.983411 0
M  V30 4286 H 420.691 4.20551 -0.267322 0
M  V30 4287 H 419.366 3.21234 0.398821 0
M  V30 4288 H 418.273 3.21161 -1.9185 0
M  V30 4289 H 419.606 4.23555 -2.50723 0
M  V30 4290 N 421.258 1.00505 1.21394 0
M  V30 4291 C 422.507 0.683159 1.89778 0
M  V30 4292 C 422.82 -0.789471 1.7896 0
M  V30 4293 O 424.026 -1.22344 2.42372 0
M  V30 4294 C 422.482 1.17146 3.40301 0
M  V30 4295 C 422.09 2.67017 3.5973 0
M  V30 4296 C 423.834 0.924461 4.14311 0
M  V30 4297 C 421.741 3.09387 5.04017 0
M  V30 4298 H 420.671 0.25183 0.710702 0
M  V30 4299 H 423.322 1.21622 1.37406 0
M  V30 4300 H 421.704 0.566451 3.91928 0
M  V30 4301 H 422.878 3.32968 3.18542 0
M  V30 4302 H 421.193 2.89732 2.99073 0
M  V30 4303 H 423.79 1.21658 5.20676 0
M  V30 4304 H 424.133 -0.139286 4.16067 0
M  V30 4305 H 424.666 1.49226 3.6875 0
M  V30 4306 H 421.405 4.14989 5.07409 0
M  V30 4307 H 420.925 2.48149 5.46061 0
M  V30 4308 H 422.604 3.01371 5.72525 0
M  V30 4309 N 422.737 -1.36956 0.779787 0
M  V30 4310 C 424.148 -1.82094 0.412156 0
M  V30 4311 C 424.499 -1.64926 -1.06273 0
M  V30 4312 O 423.624 -1.16483 -1.82375 0
M  V30 4313 C 424.219 -3.3059 0.741319 0
M  V30 4314 C 422.778 -3.73974 0.426641 0
M  V30 4315 C 421.925 -2.59368 0.980987 0
M  V30 4316 H 424.876 -1.25314 0.973758 0
M  V30 4317 H 424.897 -3.80489 0.028887 0
M  V30 4318 H 424.409 -3.43054 1.81482 0
M  V30 4319 H 422.51 -3.67076 -0.639215 0
M  V30 4320 H 422.623 -4.69778 0.940515 0
M  V30 4321 H 420.987 -2.51463 0.404757 0
M  V30 4322 H 421.77 -2.74621 2.06005 0
M  V30 4323 N 424.215 -0.530993 -1.48385 0
M  V30 4324 C 425.44 0.000729535 -2.074 0
M  V30 4325 C 425.865 1.27298 -1.3848 0
M  V30 4326 O 425.223 1.75599 -0.451081 0
M  V30 4327 C 425.271 0.206697 -3.60007 0
M  V30 4328 O 424.375 1.27514 -3.92191 0
M  V30 4329 H 423.716 -0.039583 -0.662819 0
M  V30 4330 H 426.246 -0.739194 -1.9078 0
M  V30 4331 H 426.256 0.42904 -4.05738 0
M  V30 4332 H 424.931 -0.722675 -4.09573 0
M  V30 4333 H 423.508 1.03537 -3.58238 0
M  V30 4334 N 425.693 1.55336 -0.266172 0
M  V30 4335 C 426.603 2.2583 0.635458 0
M  V30 4336 C 427.619 1.28106 1.17749 0
M  V30 4337 O 428.795 1.61024 1.20968 0
M  V30 4338 C 425.86 2.95879 1.80712 0
M  V30 4339 C 424.921 4.09059 1.30265 0
M  V30 4340 C 424.154 4.75759 2.41846 0
M  V30 4341 O 424.377 4.41622 3.61007 0
M  V30 4342 O 423.311 5.63888 2.1051 0
M  V30 4343 H 427.137 3.03631 0.0646693 0
M  V30 4344 H 424.722 1.49361 -0.0339177 0
M  V30 4345 H 426.604 3.39932 2.49047 0
M  V30 4346 H 425.279 2.21002 2.36516 0
M  V30 4347 H 424.186 3.69482 0.586019 0
M  V30 4348 H 425.519 4.85811 0.790458 0
M  V30 4349 N 427.171 -0.0066808 1.57599 0
M  V30 4350 C 428.42 -0.692078 1.89455 0
M  V30 4351 C 428.733 -1.75306 0.867586 0
M  V30 4352 O 429.939 -2.49262 1.07614 0
M  V30 4353 C 428.395 -1.2821 3.36289 0
M  V30 4354 C 428.003 -0.256291 4.47266 0
M  V30 4355 C 429.747 -1.94608 3.77264 0
M  V30 4356 C 427.654 -0.855927 5.85173 0
M  V30 4357 H 426.584 -0.262252 0.706923 0
M  V30 4358 H 429.235 0.052769 1.83424 0
M  V30 4359 H 427.617 -2.0774 3.37135 0
M  V30 4360 H 428.791 0.513923 4.57925 0
M  V30 4361 H 427.106 0.306862 4.15268 0
M  V30 4362 H 429.703 -2.40364 4.77629 0
M  V30 4363 H 430.046 -2.77382 3.10427 0
M  V30 4364 H 430.579 -1.21822 3.78688 0
M  V30 4365 H 427.318 -0.0671161 6.55466 0
M  V30 4366 H 426.838 -1.59546 5.78191 0
M  V30 4367 H 428.517 -1.35658 6.32618 0
M  V30 4368 N 428.649 -1.55105 -0.279332 0
M  V30 4369 C 429.879 -1.7917 -1.02867 0
M  V30 4370 C 430.287 -0.56204 -1.80659 0
M  V30 4371 O 429.63 0.478266 -1.77365 0
M  V30 4372 C 429.692 -2.96061 -2.03932 0
M  V30 4373 C 429.356 -4.33341 -1.45137 0
M  V30 4374 C 430.353 -5.12565 -0.870266 0
M  V30 4375 C 428.038 -4.79987 -1.48048 0
M  V30 4376 C 430.032 -6.36565 -0.326097 0
M  V30 4377 C 427.719 -6.03944 -0.932443 0
M  V30 4378 C 428.717 -6.8207 -0.356247 0
M  V30 4379 O 428.405 -8.03691 0.183412 0
M  V30 4380 H 428.137 -0.600796 -0.309872 0
M  V30 4381 H 430.691 -2.02932 -0.317468 0
M  V30 4382 H 428.921 -2.67975 -2.78794 0
M  V30 4383 H 430.61 -3.07506 -2.64943 0
M  V30 4384 H 431.376 -4.77661 -0.840521 0
M  V30 4385 H 427.255 -4.1919 -1.91835 0
M  V30 4386 H 430.799 -6.97489 0.124286 0
M  V30 4387 H 426.696 -6.3833 -0.959407 0
M  V30 4388 H 427.464 -8.18468 0.0721681 0
M  V30 4389 N 430.127 0.543554 -1.4793 0
M  V30 4390 C 431.09 1.63156 -1.60975 0
M  V30 4391 C 432.09 1.53346 -0.483899 0
M  V30 4392 O 433.28 1.5726 -0.749339 0
M  V30 4393 C 430.412 3.02743 -1.56716 0
M  V30 4394 H 431.605 1.52934 -2.57975 0
M  V30 4395 H 429.158 0.764557 -1.36324 0
M  V30 4396 H 429.893 3.18484 -0.611418 0
M  V30 4397 H 429.678 3.11272 -2.38438 0
M  V30 4398 H 431.168 3.81871 -1.6901 0
M  V30 4399 N 431.605 1.3629 0.791371 0
M  V30 4400 C 432.537 1.26321 1.91248 0
M  V30 4401 C 433.55 0.18313 1.61767 0
M  V30 4402 O 434.739 0.437682 1.73051 0
M  V30 4403 C 431.839 0.925901 3.26007 0
M  V30 4404 C 431.012 2.10746 3.83281 0
M  V30 4405 C 430.071 1.74352 4.96475 0
M  V30 4406 O 429.097 2.46416 5.13096 0
M  V30 4407 N 430.299 0.676058 5.7655 0
M  V30 4408 H 433.064 2.22915 2.00323 0
M  V30 4409 H 430.625 1.29659 0.969546 0
M  V30 4410 H 432.617 0.663636 3.99222 0
M  V30 4411 H 431.187 0.0491581 3.12561 0
M  V30 4412 H 430.407 2.53264 3.02077 0
M  V30 4413 H 431.695 2.8969 4.18279 0
M  V30 4414 H 431.093 0.0776467 5.65647 0
M  V30 4415 H 429.65 0.473612 6.50077 0
M  V30 4416 N 433.083 -1.0153 1.20538 0
M  V30 4417 C 434.329 -1.75517 1.02787 0
M  V30 4418 C 434.684 -1.87411 -0.435289 0
M  V30 4419 O 433.977 -1.38982 -1.31889 0
M  V30 4420 C 434.171 -3.17213 1.64654 0
M  V30 4421 C 434 -3.19134 3.16834 0
M  V30 4422 C 432.77 -3.26301 3.85818 0
M  V30 4423 C 434.968 -3.05077 4.14044 0
M  V30 4424 N 432.95 -3.17739 5.25276 0
M  V30 4425 C 434.321 -3.04299 5.40187 0
M  V30 4426 C 436.376 -2.89303 4.05226 0
M  V30 4427 C 435.079 -2.89365 6.58529 0
M  V30 4428 C 437.105 -2.75723 5.23193 0
M  V30 4429 C 436.467 -2.75612 6.48242 0
M  V30 4430 H 432.566 -0.652919 0.430373 0
M  V30 4431 H 435.15 -1.20755 1.52729 0
M  V30 4432 H 433.321 -3.70266 1.17294 0
M  V30 4433 H 435.053 -3.79637 1.40208 0
M  V30 4434 H 431.808 -3.33078 3.36684 0
M  V30 4435 H 432.232 -3.16829 5.98288 0
M  V30 4436 H 436.874 -2.88201 3.09354 0
M  V30 4437 H 434.592 -2.89216 7.54573 0
M  V30 4438 H 438.178 -2.64533 5.18183 0
M  V30 4439 H 437.058 -2.65224 7.37988 0
M  V30 4440 N 434.561 -1.01147 -1.20859 0
M  V30 4441 C 435.838 -0.613136 -1.85742 0
M  V30 4442 C 436.218 0.909004 -1.90526 0
M  V30 4443 O 435.566 1.79862 -1.40932 0
M  V30 4444 C 435.776 -1.255 -3.25654 0
M  V30 4445 C 437.124 -1.3672 -4.01986 0
M  V30 4446 O 438.148 -1.21082 -3.34989 0
M  V30 4447 O 437.007 -1.6194 -5.21956 0
M  V30 4448 H 434.101 -0.210878 -0.799662 0
M  V30 4449 H 436.647 -1.10853 -1.2849 0
M  V30 4450 H 435.419 -2.29532 -3.16908 0
M  V30 4451 H 435.042 -0.746369 -3.90532 0
M  V30 4452 N 436.039 1.36541 -0.78704 0
M  V30 4453 C 437.002 2.28413 -0.189778 0
M  V30 4454 C 438.002 1.48719 0.611499 0
M  V30 4455 O 439.192 1.68737 0.432842 0
M  V30 4456 C 436.324 3.32824 0.737638 0
M  V30 4457 H 437.517 2.82743 -0.999831 0
M  V30 4458 H 435.07 1.46065 -0.556298 0
M  V30 4459 H 435.805 2.83646 1.57212 0
M  V30 4460 H 435.59 3.91752 0.165044 0
M  V30 4461 H 437.08 4.0144 1.15047 0
M  V30 4462 N 437.518 0.538854 1.48102 0
M  V30 4463 C 438.465 -0.219042 2.29758 0
M  V30 4464 C 439.435 -0.925562 1.37922 0
M  V30 4465 O 440.62 -0.924855 1.66886 0
M  V30 4466 C 437.76 -1.25452 3.2149 0
M  V30 4467 C 436.873 -0.555943 4.28408 0
M  V30 4468 C 436.008 -1.57512 5.0731 0
M  V30 4469 C 435.047 -0.860498 6.06021 0
M  V30 4470 N 434.184 -1.82564 6.77949 0
M  V30 4471 H 439.024 0.483449 2.94052 0
M  V30 4472 H 436.561 0.250247 1.44956 0
M  V30 4473 H 438.519 -1.86727 3.7308 0
M  V30 4474 H 437.149 -1.92528 2.591 0
M  V30 4475 H 436.201 0.170938 3.80016 0
M  V30 4476 H 437.513 0.00474616 4.988 0
M  V30 4477 H 436.667 -2.26191 5.62959 0
M  V30 4478 H 435.406 -2.16972 4.36778 0
M  V30 4479 H 434.411 -0.159686 5.49568 0
M  V30 4480 H 435.636 -0.271897 6.78555 0
M  V30 4481 H 433.582 -2.40915 6.10161 0
M  V30 4482 H 433.499 -1.31662 7.44447 0
M  V30 4483 H 434.767 -2.50414 7.38182 0
M  V30 4484 N 438.996 -1.55193 0.274407 0
M  V30 4485 C 439.906 -2.26164 -0.623473 0
M  V30 4486 C 440.922 -1.28729 -1.17068 0
M  V30 4487 O 442.098 -1.61663 -1.20112 0
M  V30 4488 C 439.163 -2.96833 -1.7914 0
M  V30 4489 C 438.224 -4.09745 -1.28093 0
M  V30 4490 C 437.457 -4.77034 -2.3932 0
M  V30 4491 O 437.68 -4.4353 -3.5866 0
M  V30 4492 O 436.614 -5.64996 -2.07516 0
M  V30 4493 H 440.44 -3.03661 -0.0485661 0
M  V30 4494 H 438.025 -1.49341 0.0418382 0
M  V30 4495 H 439.907 -3.41248 -2.4724 0
M  V30 4496 H 438.582 -2.22253 -2.35341 0
M  V30 4497 H 437.489 -3.69787 -0.566416 0
M  V30 4498 H 438.822 -4.86224 -0.764683 0
M  V30 4499 N 440.474 -0.00167713 -1.576 0
M  V30 4500 C 441.437 0.974046 -2.07473 0
M  V30 4501 C 442.437 1.27143 -0.984444 0
M  V30 4502 O 443.627 1.21633 -1.24703 0
M  V30 4503 C 440.759 2.29849 -2.51759 0
M  V30 4504 H 441.952 0.54262 -2.9495 0
M  V30 4505 H 439.505 0.245829 -1.54355 0
M  V30 4506 H 440.24 2.77677 -1.67529 0
M  V30 4507 H 440.025 2.09584 -3.31386 0
M  V30 4508 H 441.515 2.9984 -2.90664 0
M  V30 4509 N 441.952 1.55251 0.271103 0
M  V30 4510 C 443.2 1.75599 1.00047 0
M  V30 4511 C 443.521 0.561188 1.8675 0
M  V30 4512 O 442.791 -0.423846 1.9126 0
M  V30 4513 H 441.371 0.647562 0.372387 0
M  V30 4514 H 444.033 1.92656 0.294876 0
M  V30 4515 H 443.129 2.65766 1.6363 0
M  V30 4516 N 443.43 -0.535701 1.48216 0
M  V30 4517 C 444.362 -1.65662 1.58394 0
M  V30 4518 C 445.375 -1.5591 0.468607 0
M  V30 4519 O 446.564 -1.62475 0.7392 0
M  V30 4520 C 443.664 -3.04276 1.4923 0
M  V30 4521 C 442.837 -3.39567 2.75705 0
M  V30 4522 C 441.896 -4.57436 2.60075 0
M  V30 4523 O 440.922 -4.60942 3.33948 0
M  V30 4524 N 442.124 -5.55259 1.69315 0
M  V30 4525 H 444.889 -1.5737 2.55058 0
M  V30 4526 H 442.45 -0.722845 1.44867 0
M  V30 4527 H 444.442 -3.80994 1.36477 0
M  V30 4528 H 443.012 -3.06677 0.605632 0
M  V30 4529 H 442.232 -2.52083 3.03064 0
M  V30 4530 H 443.52 -3.59929 3.59623 0
M  V30 4531 H 442.918 -5.552 1.08489 0
M  V30 4532 H 441.475 -6.31218 1.62504 0
M  V30 4533 N 444.908 -1.36708 -0.784132 0
M  V30 4534 C 445.871 -1.31307 -1.87859 0
M  V30 4535 C 446.871 -0.219654 -1.59293 0
M  V30 4536 O 448.061 -0.47476 -1.67606 0
M  V30 4537 C 445.193 -1.03679 -3.24751 0
M  V30 4538 H 446.386 -2.28647 -1.94064 0
M  V30 4539 H 443.939 -1.21558 -0.98252 0
M  V30 4540 H 444.674 -0.0681936 -3.24228 0
M  V30 4541 H 444.459 -1.82811 -3.46876 0
M  V30 4542 H 445.949 -1.02518 -4.04821 0
M  V30 4543 N 446.386 1.0089 -1.21074 0
M  V30 4544 C 447.333 2.09588 -0.966512 0
M  V30 4545 C 448.303 1.65761 0.106089 0
M  V30 4546 O 449.488 1.90758 -0.0402287 0
M  V30 4547 C 446.628 3.40958 -0.533058 0
M  V30 4548 C 445.741 3.9822 -1.67467 0
M  V30 4549 C 444.876 5.17682 -1.19076 0
M  V30 4550 C 443.915 5.67043 -2.30496 0
M  V30 4551 N 443.052 6.77759 -1.83267 0
M  V30 4552 H 447.892 2.29815 -1.89708 0
M  V30 4553 H 445.429 1.12689 -0.945489 0
M  V30 4554 H 447.387 4.1637 -0.263019 0
M  V30 4555 H 446.017 3.20781 0.360505 0
M  V30 4556 H 445.069 3.1983 -2.05944 0
M  V30 4557 H 446.381 4.3085 -2.51336 0
M  V30 4558 H 445.535 6.00326 -0.877151 0
M  V30 4559 H 444.274 4.86635 -0.322066 0
M  V30 4560 H 443.279 4.82999 -2.62664 0
M  V30 4561 H 444.504 6.00121 -3.17855 0
M  V30 4562 H 442.45 6.48527 -0.987356 0
M  V30 4563 H 442.367 7.09624 -2.60711 0
M  V30 4564 H 443.635 7.63949 -1.54928 0
M  V30 4565 N 447.864 1.01787 1.20321 0
M  V30 4566 C 448.774 0.598898 2.26827 0
M  V30 4567 C 449.79 -0.36418 1.70146 0
M  V30 4568 O 450.966 -0.224812 2.00141 0
M  V30 4569 C 448.031 -0.0549769 3.46656 0
M  V30 4570 C 447.092 0.954205 4.18561 0
M  V30 4571 C 446.325 0.331439 5.3267 0
M  V30 4572 O 446.548 -0.86851 5.63749 0
M  V30 4573 O 445.482 1.0488 5.92692 0
M  V30 4574 H 449.308 1.48562 2.64883 0
M  V30 4575 H 446.893 0.787434 1.26964 0
M  V30 4576 H 448.775 -0.420102 4.19301 0
M  V30 4577 H 447.45 -0.915876 3.10473 0
M  V30 4578 H 446.357 1.37072 3.48083 0
M  V30 4579 H 447.69 1.78511 4.58688 0
M  V30 4580 N 449.342 -1.36122 0.79427 0
M  V30 4581 C 450.567 -2.03891 0.379871 0
M  V30 4582 C 450.992 -1.59488 -0.997251 0
M  V30 4583 O 450.35 -0.765652 -1.64339 0
M  V30 4584 C 450.398 -3.57687 0.457442 0
M  V30 4585 O 449.502 -4.08931 -0.5338 0
M  V30 4586 H 448.843 -0.6443 0.160541 0
M  V30 4587 H 451.373 -1.73976 1.07673 0
M  V30 4588 H 451.383 -4.06721 0.322792 0
M  V30 4589 H 450.058 -3.89357 1.46199 0
M  V30 4590 H 448.635 -3.71154 -0.360409 0
M  V30 4591 N 450.82 -0.546701 -1.47814 0
M  V30 4592 C 451.783 0.196287 -2.28358 0
M  V30 4593 C 452.783 0.852437 -1.36346 0
M  V30 4594 O 453.973 0.709913 -1.59078 0
M  V30 4595 C 451.105 1.28579 -3.15722 0
M  V30 4596 H 452.298 -0.511086 -2.95513 0
M  V30 4597 H 449.851 -0.303248 -1.5333 0
M  V30 4598 H 450.586 2.0259 -2.53235 0
M  V30 4599 H 450.371 0.820229 -3.83425 0
M  V30 4600 H 451.861 1.80793 -3.76435 0
M  V30 4601 N 452.299 1.55045 -0.282633 0
M  V30 4602 C 453.545 2.0078 0.325436 0
M  V30 4603 C 453.9 1.1676 1.52921 0
M  V30 4604 O 453.193 0.231475 1.90197 0
M  V30 4605 C 453.387 3.49422 0.750938 0
M  V30 4606 C 453.216 4.47827 -0.410056 0
M  V30 4607 C 451.986 4.97288 -0.896239 0
M  V30 4608 C 454.184 4.98903 -1.24902 0
M  V30 4609 N 452.166 5.79508 -2.02591 0
M  V30 4610 C 453.537 5.78644 -2.22646 0
M  V30 4611 C 455.592 4.81126 -1.2815 0
M  V30 4612 C 454.295 6.42502 -3.23393 0
M  V30 4613 C 456.321 5.45789 -2.27745 0
M  V30 4614 C 455.683 6.25348 -3.24222 0
M  V30 4615 H 451.782 0.77747 0.08405 0
M  V30 4616 H 454.366 1.90369 -0.408368 0
M  V30 4617 H 452.537 3.60159 1.45395 0
M  V30 4618 H 454.269 3.81978 1.33698 0
M  V30 4619 H 451.024 4.71219 -0.474277 0
M  V30 4620 H 451.448 6.25308 -2.59459 0
M  V30 4621 H 456.09 4.19215 -0.549397 0
M  V30 4622 H 453.808 7.03558 -3.97533 0
M  V30 4623 H 457.394 5.33972 -2.31009 0
M  V30 4624 H 456.274 6.74498 -4.00027 0
M  V30 4625 N 453.777 0.010035 1.57597 0
M  V30 4626 C 454.725 -0.996272 2.10184 0
M  V30 4627 C 455.719 -1.34942 1.02406 0
M  V30 4628 O 456.925 -1.33389 1.20861 0
M  V30 4629 H 453.3 -0.338982 0.671264 0
M  V30 4630 H 455.271 -0.527272 2.93705 0
M  V30 4631 C 454.02 -2.27599 2.62857 0
M  V30 4632 H 453.343 -2.01295 3.45428 0
M  V30 4633 H 454.783 -2.96265 3.0332 0
M  V30 4634 C 453.242 -2.99269 1.54725 0
M  V30 4635 O 453.772 -3.90644 0.93597 0
M  V30 4636 N 451.978 -2.61269 1.27228 0
M  V30 4637 H 451.525 -1.87043 1.77123 0
M  V30 4638 H 451.483 -3.09534 0.550999 0
M  V30 4639 N 455.255 -1.55392 -0.262866 0
M  V30 4640 C 456.165 -1.92077 -1.34698 0
M  V30 4641 C 457.181 -0.819227 -1.53508 0
M  V30 4642 O 458.357 -1.11921 -1.67439 0
M  V30 4643 C 455.422 -2.19407 -2.68443 0
M  V30 4644 C 454.483 -3.42905 -2.58292 0
M  V30 4645 C 453.716 -3.68921 -3.85659 0
M  V30 4646 O 453.939 -2.97275 -4.8681 0
M  V30 4647 O 452.873 -4.62455 -3.85252 0
M  V30 4648 H 456.699 -2.84384 -1.06581 0
M  V30 4649 H 454.284 -1.42069 -0.462264 0
M  V30 4650 H 456.166 -2.38365 -3.47506 0
M  V30 4651 H 454.841 -1.30282 -2.96325 0
M  V30 4652 H 453.748 -3.29272 -1.7757 0
M  V30 4653 H 455.081 -4.32282 -2.35358 0
M  V30 4654 N 456.733 0.527833 -1.48498 0
M  V30 4655 C 457.68 1.6322 -1.6318 0
M  V30 4656 C 458.65 1.59199 -0.473815 0
M  V30 4657 O 459.835 1.77591 -0.697563 0
M  V30 4658 C 456.975 3.01474 -1.67951 0
M  V30 4659 C 456.088 3.15713 -2.94871 0
M  V30 4660 C 455.223 4.44539 -2.90789 0
M  V30 4661 C 454.262 4.52315 -4.12404 0
M  V30 4662 N 453.399 5.72533 -4.06387 0
M  V30 4663 H 458.239 1.50011 -2.57489 0
M  V30 4664 H 455.776 0.730298 -1.27691 0
M  V30 4665 H 457.734 3.81572 -1.68698 0
M  V30 4666 H 456.364 3.1345 -0.771306 0
M  V30 4667 H 455.416 2.28854 -3.03859 0
M  V30 4668 H 456.728 3.1732 -3.8485 0
M  V30 4669 H 455.882 5.3293 -2.89949 0
M  V30 4670 H 454.621 4.45457 -1.98542 0
M  V30 4671 H 453.626 3.62331 -4.13517 0
M  V30 4672 H 454.851 4.53134 -5.05812 0
M  V30 4673 H 452.797 5.74344 -3.16962 0
M  V30 4674 H 452.714 5.75643 -4.90073 0
M  V30 4675 H 453.982 6.63204 -4.0961 0
M  V30 4676 N 458.211 1.37122 0.776871 0
M  V30 4677 C 459.458 1.32047 1.53524 0
M  V30 4678 C 459.786 -0.0965631 1.9426 0
M  V30 4679 O 459.041 -1.06866 1.63945 0
M  V30 4680 C 459.34 2.20068 2.81611 0
M  V30 4681 C 459.006 3.68423 2.59953 0
M  V30 4682 C 457.668 4.08854 2.53755 0
M  V30 4683 C 460.02 4.62431 2.40431 0
M  V30 4684 C 457.348 5.41417 2.26018 0
M  V30 4685 C 459.7 5.95225 2.14219 0
M  V30 4686 C 458.364 6.34767 2.06462 0
M  V30 4687 H 457.634 0.483196 0.561785 0
M  V30 4688 H 460.281 1.69284 0.895268 0
M  V30 4689 H 458.586 1.75809 3.50141 0
M  V30 4690 H 460.283 2.13458 3.39465 0
M  V30 4691 H 456.873 3.36354 2.65638 0
M  V30 4692 H 461.057 4.32057 2.44213 0
M  V30 4693 H 456.313 5.71022 2.18504 0
M  V30 4694 H 460.487 6.67626 1.98112 0
M  V30 4695 H 458.114 7.37413 1.84733 0
M  V30 4696 N 459.689 -1.00246 1.21608 0
M  V30 4697 C 460.652 -2.07233 0.979133 0
M  V30 4698 C 461.652 -1.6072 -0.0508219 0
M  V30 4699 O 462.842 -1.73196 0.186712 0
M  V30 4700 C 459.974 -3.37546 0.477016 0
M  V30 4701 H 461.167 -2.29687 1.92831 0
M  V30 4702 H 458.72 -1.17261 1.03342 0
M  V30 4703 H 459.455 -3.20773 -0.476966 0
M  V30 4704 H 459.24 -3.72638 1.21997 0
M  V30 4705 H 460.73 -4.16285 0.331181 0
M  V30 4706 N 461.167 -1.02423 -1.1978 0
M  V30 4707 C 462.13 -0.605703 -2.21052 0
M  V30 4708 C 463.13 0.328209 -1.57415 0
M  V30 4709 O 464.32 0.115853 -1.73814 0
M  V30 4710 C 461.452 0.114366 -3.40708 0
M  V30 4711 H 462.645 -1.5017 -2.59594 0
M  V30 4712 H 460.198 -0.814888 -1.33376 0
M  V30 4713 H 460.933 1.02492 -3.07678 0
M  V30 4714 H 460.718 -0.556641 -3.88129 0
M  V30 4715 H 462.208 0.394272 -4.15735 0
M  V30 4716 N 462.645 1.35699 -0.801477 0
M  V30 4717 C 463.875 2.02862 -0.3912 0
M  V30 4718 C 464.283 1.60552 1.00099 0
M  V30 4719 O 463.626 0.796215 1.65548 0
M  V30 4720 C 463.688 3.57386 -0.389299 0
M  V30 4721 C 463.352 4.22943 -1.73113 0
M  V30 4722 C 464.349 4.44984 -2.68859 0
M  V30 4723 C 462.034 4.60167 -2.01373 0
M  V30 4724 C 464.028 5.03345 -3.91053 0
M  V30 4725 C 461.715 5.18243 -3.23832 0
M  V30 4726 C 462.713 5.39773 -4.1849 0
M  V30 4727 O 462.401 5.96626 -5.38788 0
M  V30 4728 H 462.133 0.657341 -0.157732 0
M  V30 4729 H 464.687 1.74407 -1.08496 0
M  V30 4730 H 462.917 3.85011 0.361031 0
M  V30 4731 H 464.606 4.059 -0.0020365 0
M  V30 4732 H 465.372 4.1661 -2.48316 0
M  V30 4733 H 461.251 4.42726 -1.28508 0
M  V30 4734 H 464.795 5.20065 -4.64949 0
M  V30 4735 H 460.692 5.46044 -3.44248 0
M  V30 4736 H 461.46 6.15082 -5.40015 0
M  V30 4737 N 464.123 0.554532 1.47522 0
M  V30 4738 C 465.086 -0.184174 2.28459 0
M  V30 4739 C 466.086 -0.845195 1.36796 0
M  V30 4740 O 467.276 -0.701467 1.59452 0
M  V30 4741 C 464.408 -1.26903 3.16399 0
M  V30 4742 H 465.601 0.526751 2.95238 0
M  V30 4743 H 463.154 0.311375 1.53167 0
M  V30 4744 H 463.889 -2.01244 2.54306 0
M  V30 4745 H 463.674 -0.799883 3.83854 0
M  V30 4746 H 465.164 -1.78794 3.77389 0
M  V30 4747 N 465.601 -1.54893 0.290851 0
M  V30 4748 C 466.548 -2.23138 -0.58974 0
M  V30 4749 C 467.518 -1.21036 -1.13752 0
M  V30 4750 O 468.703 -1.49626 -1.18392 0
M  V30 4751 C 465.843 -2.96811 -1.76061 0
M  V30 4752 C 464.956 -4.13665 -1.24519 0
M  V30 4753 C 464.091 -4.74944 -2.3791 0
M  V30 4754 C 463.13 -5.83963 -1.83451 0
M  V30 4755 N 462.267 -6.39239 -2.90376 0
M  V30 4756 H 467.107 -2.98 -0.00114915 0
M  V30 4757 H 464.644 -1.47096 0.0112006 0
M  V30 4758 H 466.602 -3.37751 -2.44909 0
M  V30 4759 H 465.232 -2.24344 -2.32098 0
M  V30 4760 H 464.284 -3.77737 -0.449288 0
M  V30 4761 H 465.596 -4.92238 -0.806424 0
M  V30 4762 H 464.75 -5.18684 -3.14724 0
M  V30 4763 H 463.489 -3.95682 -2.85109 0
M  V30 4764 H 462.494 -5.39657 -1.05122 0
M  V30 4765 H 463.719 -6.65103 -1.37169 0
M  V30 4766 H 461.665 -5.62864 -3.36927 0
M  V30 4767 H 461.582 -7.13129 -2.50965 0
M  V30 4768 H 462.85 -6.87637 -3.67118 0
M  V30 4769 N 467.08 -0.0183926 -1.57589 0
M  V30 4770 C 468.043 0.951986 -2.08494 0
M  V30 4771 C 469.043 1.26092 -0.997874 0
M  V30 4772 O 470.233 1.20304 -1.25987 0
M  V30 4773 C 467.365 2.27165 -2.54182 0
M  V30 4774 H 468.558 0.511307 -2.95509 0
M  V30 4775 H 466.111 0.229444 -1.54607 0
M  V30 4776 H 466.846 2.75884 -1.70465 0
M  V30 4777 H 466.631 2.06057 -3.33591 0
M  V30 4778 H 468.121 2.9674 -2.93828 0
M  V30 4779 N 468.558 1.5553 0.254621 0
M  V30 4780 C 469.788 1.80784 1.00004 0
M  V30 4781 C 470.196 0.59071 1.79742 0
M  V30 4782 O 469.539 -0.449988 1.78103 0
M  V30 4783 C 469.601 2.99268 1.99196 0
M  V30 4784 C 469.265 4.35595 1.38224 0
M  V30 4785 C 470.262 5.13884 0.788611 0
M  V30 4786 C 467.947 4.82281 1.40393 0
M  V30 4787 C 469.941 6.37004 0.224783 0
M  V30 4788 C 467.628 6.05351 0.836243 0
M  V30 4789 C 468.626 6.82551 0.24769 0
M  V30 4790 O 468.314 8.03297 -0.311249 0
M  V30 4791 H 468.046 0.60565 0.300274 0
M  V30 4792 H 470.6 2.03411 0.285143 0
M  V30 4793 H 468.83 2.72377 2.74496 0
M  V30 4794 H 470.519 3.11682 2.60018 0
M  V30 4795 H 471.285 4.78938 0.764423 0
M  V30 4796 H 467.164 4.22189 1.85142 0
M  V30 4797 H 470.708 6.97203 -0.235235 0
M  V30 4798 H 466.605 6.39776 0.857733 0
M  V30 4799 H 467.373 8.1825 -0.20237 0
M  V30 4800 N 470.036 -0.519951 1.48776 0
M  V30 4801 C 471.447 -1.10177 1.50725 0
M  V30 4802 C 471.798 -1.94153 0.282678 0
M  V30 4803 O 470.923 -2.07645 -0.609298 0
M  V30 4804 C 471.518 -2.00482 2.73116 0
M  V30 4805 C 470.077 -2.53862 2.77905 0
M  V30 4806 C 469.224 -1.31047 2.44381 0
M  V30 4807 H 472.175 -0.30473 1.55747 0
M  V30 4808 H 472.196 -2.8491 2.52203 0
M  V30 4809 H 471.708 -1.39335 3.62225 0
M  V30 4810 H 469.809 -3.18702 1.93029 0
M  V30 4811 H 469.922 -2.9231 3.79594 0
M  V30 4812 H 468.286 -1.62953 1.95751 0
M  V30 4813 H 469.069 -0.71637 3.35743 0
M  V30 4814 N 471.514 -1.37532 -0.769588 0
M  V30 4815 C 472.446 -1.29347 -1.89214 0
M  V30 4816 C 473.459 -0.208842 -1.61455 0
M  V30 4817 O 474.648 -0.465158 -1.72333 0
M  V30 4818 C 471.748 -0.977649 -3.24492 0
M  V30 4819 C 470.921 -2.16817 -3.7988 0
M  V30 4820 C 469.98 -1.82229 -4.93639 0
M  V30 4821 O 469.006 -2.54548 -5.09111 0
M  V30 4822 N 470.208 -0.767696 -5.75401 0
M  V30 4823 H 472.973 -2.26073 -1.96751 0
M  V30 4824 H 470.534 -1.31185 -0.948795 0
M  V30 4825 H 472.526 -0.727065 -3.98115 0
M  V30 4826 H 471.096 -0.0988777 -3.12444 0
M  V30 4827 H 470.316 -2.58038 -2.9801 0
M  V30 4828 H 471.604 -2.96308 -4.13617 0
M  V30 4829 H 471.002 -0.167626 -5.65452 0
M  V30 4830 H 469.559 -0.576973 -6.49241 0
M  V30 4831 N 472.992 0.995999 -1.22138 0
M  V30 4832 C 473.902 2.11985 -1.00496 0
M  V30 4833 C 474.918 1.7394 0.0457701 0
M  V30 4834 O 476.094 2.00868 -0.146273 0
M  V30 4835 C 473.159 3.41779 -0.582086 0
M  V30 4836 C 472.22 3.93943 -1.70608 0
M  V30 4837 C 471.453 5.17542 -1.30328 0
M  V30 4838 O 471.676 5.70114 -0.180743 0
M  V30 4839 O 470.61 5.63382 -2.11861 0
M  V30 4840 H 474.436 2.33123 -1.94647 0
M  V30 4841 H 472.021 1.10358 -1.00705 0
M  V30 4842 H 473.903 4.1989 -0.356467 0
M  V30 4843 H 472.578 3.22007 0.330592 0
M  V30 4844 H 471.485 3.17019 -1.98619 0
M  V30 4845 H 472.818 4.18141 -2.59651 0
M  V30 4846 N 474.47 1.03057 1.19235 0
M  V30 4847 C 475.433 0.617418 2.20727 0
M  V30 4848 C 476.433 -0.319856 1.57587 0
M  V30 4849 O 477.623 -0.106633 1.73873 0
M  V30 4850 C 474.755 -0.096296 3.40764 0
M  V30 4851 H 475.948 1.51544 2.58794 0
M  V30 4852 H 473.501 0.821949 1.32942 0
M  V30 4853 H 474.236 -1.00859 3.08217 0
M  V30 4854 H 474.021 0.577217 3.87828 0
M  V30 4855 H 475.511 -0.372219 4.15938 0
M  V30 4856 N 475.948 -1.35272 0.808662 0
M  V30 4857 C 476.911 -2.28082 0.226093 0
M  V30 4858 C 477.911 -1.49673 -0.587762 0
M  V30 4859 O 479.101 -1.69404 -0.405943 0
M  V30 4860 C 476.233 -3.33955 -0.684596 0
M  V30 4861 H 477.426 -2.81116 1.04469 0
M  V30 4862 H 474.979 -1.45162 0.579466 0
M  V30 4863 H 475.714 -2.86111 -1.5268 0
M  V30 4864 H 475.499 -3.91965 -0.102699 0
M  V30 4865 H 476.989 -4.03219 -1.08646 0
M  V30 4866 N 477.426 -0.562348 -1.47226 0
M  V30 4867 C 478.336 0.185466 -2.33866 0
M  V30 4868 C 479.352 0.906713 -1.48508 0
M  V30 4869 O 480.528 0.874458 -1.81425 0
M  V30 4870 C 477.593 1.19904 -3.25306 0
M  V30 4871 C 476.654 0.484669 -4.26555 0
M  V30 4872 C 475.887 1.44996 -5.13626 0
M  V30 4873 O 476.11 2.68515 -5.03245 0
M  V30 4874 O 475.044 0.971642 -5.94006 0
M  V30 4875 H 478.87 -0.525361 -2.99121 0
M  V30 4876 H 476.455 -0.322916 -1.45868 0
M  V30 4877 H 478.337 1.78399 -3.81774 0
M  V30 4878 H 477.012 1.8917 -2.62672 0
M  V30 4879 H 475.919 -0.141605 -3.73832 0
M  V30 4880 H 477.252 -0.166634 -4.91918 0
M  V30 4881 N 478.904 1.54736 -0.299062 0
M  V30 4882 C 480.151 2.00101 0.310784 0
M  V30 4883 C 480.479 1.18746 1.54045 0
M  V30 4884 O 479.734 0.251198 1.94081 0
M  V30 4885 C 480.033 3.50199 0.713835 0
M  V30 4886 C 479.699 4.48997 -0.413873 0
M  V30 4887 C 478.361 4.7573 -0.723462 0
M  V30 4888 C 480.713 5.07839 -1.17257 0
M  V30 4889 C 478.041 5.5857 -1.79491 0
M  V30 4890 C 480.393 5.91844 -2.23392 0
M  V30 4891 C 479.057 6.16889 -2.54959 0
M  V30 4892 H 478.327 0.732221 0.113724 0
M  V30 4893 H 480.974 1.86888 -0.417756 0
M  V30 4894 H 479.279 3.61012 1.52243 0
M  V30 4895 H 480.976 3.82723 1.19684 0
M  V30 4896 H 477.566 4.28292 -0.162476 0
M  V30 4897 H 481.75 4.87188 -0.946651 0
M  V30 4898 H 477.006 5.76213 -2.04423 0
M  V30 4899 H 481.18 6.36465 -2.8264 0
M  V30 4900 H 478.807 6.80869 -3.38114 0
M  V30 4901 N 480.382 0.0267497 1.57577 0
M  V30 4902 C 481.61 -0.662661 1.96001 0
M  V30 4903 C 482.025 -1.65799 0.903117 0
M  V30 4904 O 481.382 -1.82135 -0.115317 0
M  V30 4905 C 481.433 -1.37112 3.34488 0
M  V30 4906 O 481.154 -0.415683 4.36123 0
M  V30 4907 C 482.655 -2.15257 3.8753 0
M  V30 4908 H 479.875 -0.18287 0.6456 0
M  V30 4909 H 482.419 0.0858116 2.0432 0
M  V30 4910 H 480.574 -2.07101 3.27395 0
M  V30 4911 H 480.988 -0.918496 5.16395 0
M  V30 4912 H 482.462 -2.60285 4.86781 0
M  V30 4913 H 482.939 -2.99063 3.21649 0
M  V30 4914 H 483.545 -1.50231 3.97883 0
M  V30 4915 N 481.861 -1.55662 -0.24637 0
M  V30 4916 C 483.277 -1.48098 -0.594907 0
M  V30 4917 C 483.477 -0.717044 -1.8831 0
M  V30 4918 O 482.533 -0.246618 -2.51293 0
M  V30 4919 C 483.846 -2.92507 -0.697146 0
M  V30 4920 C 485.394 -3.02881 -0.789436 0
M  V30 4921 C 485.869 -4.48598 -0.923232 0
M  V30 4922 N 487.36 -4.52538 -0.988088 0
M  V30 4923 C 488.095 -5.62536 -1.11089 0
M  V30 4924 N 487.591 -6.82342 -1.19919 0
M  V30 4925 N 489.384 -5.50334 -1.14408 0
M  V30 4926 H 481.535 -2.0377 0.599278 0
M  V30 4927 H 483.798 -0.925145 0.20691 0
M  V30 4928 H 483.504 -3.51242 0.179396 0
M  V30 4929 H 483.378 -3.43024 -1.5689 0
M  V30 4930 H 485.765 -2.44226 -1.65643 0
M  V30 4931 H 485.846 -2.55574 0.107482 0
M  V30 4932 H 485.49 -5.07864 -0.0607927 0
M  V30 4933 H 485.42 -4.93587 -1.8352 0
M  V30 4934 H 487.911 -3.66248 -0.931167 0
M  V30 4935 H 488.224 -7.61924 -1.29197 0
M  V30 4936 H 486.569 -6.85102 -1.16876 0
M  V30 4937 H 489.76 -4.5567 -1.07158 0
M  V30 4938 H 489.933 -6.36096 -1.23634 0
M  V30 4939 N 483.339 0.512053 -1.4905 0
M  V30 4940 C 484.755 0.84224 -1.35567 0
M  V30 4941 C 484.955 1.97878 -0.380319 0
M  V30 4942 O 484.011 2.51769 0.19201 0
M  V30 4943 C 485.324 1.19286 -2.76028 0
M  V30 4944 C 486.872 1.30171 -2.84648 0
M  V30 4945 C 487.347 1.68568 -4.25851 0
M  V30 4946 N 488.838 1.75638 -4.28609 0
M  V30 4947 C 489.573 2.06769 -5.34821 0
M  V30 4948 N 489.069 2.36201 -6.51292 0
M  V30 4949 N 490.862 2.07927 -5.22229 0
M  V30 4950 H 483.013 -0.237574 -2.11067 0
M  V30 4951 H 485.276 -0.0436747 -0.946993 0
M  V30 4952 H 484.982 0.431199 -3.49047 0
M  V30 4953 H 484.856 2.13889 -3.10695 0
M  V30 4954 H 487.243 2.05411 -2.11873 0
M  V30 4955 H 487.324 0.336457 -2.53578 0
M  V30 4956 H 486.968 0.938824 -4.99148 0
M  V30 4957 H 486.898 2.66174 -4.54377 0
M  V30 4958 H 489.389 1.55097 -3.44606 0
M  V30 4959 H 489.702 2.59112 -7.28066 0
M  V30 4960 H 488.047 2.33681 -6.54536 0
M  V30 4961 H 491.238 1.84403 -4.30248 0
M  V30 4962 H 491.411 2.31856 -6.05101 0
M  V30 4963 N 484.817 1.37938 0.762283 0
M  V30 4964 C 485.75 1.2884 1.88349 0
M  V30 4965 C 486.728 0.167084 1.61739 0
M  V30 4966 O 487.912 0.34292 1.85355 0
M  V30 4967 C 485.039 0.994257 3.23778 0
M  V30 4968 C 484.085 2.13376 3.69287 0
M  V30 4969 S 484.918 3.75439 3.81845 0
M  V30 4970 C 486.074 3.48195 5.20107 0
M  V30 4971 H 486.307 2.23736 1.95779 0
M  V30 4972 H 483.84 1.23672 0.924368 0
M  V30 4973 H 485.798 0.83138 4.01993 0
M  V30 4974 H 484.459 0.0626251 3.14038 0
M  V30 4975 H 483.652 1.88319 4.67495 0
M  V30 4976 H 483.254 2.25726 2.98201 0
M  V30 4977 H 485.546 3.0377 6.05583 0
M  V30 4978 H 486.489 4.45765 5.50181 0
M  V30 4979 H 486.897 2.82905 4.88493 0
M  V30 4980 N 486.295 -0.989507 1.22664 0
M  V30 4981 C 487.242 -2.08024 0.999733 0
M  V30 4982 C 488.212 -1.65909 -0.0797047 0
M  V30 4983 O 489.397 -1.90669 0.0705715 0
M  V30 4984 C 486.537 -3.40067 0.587234 0
M  V30 4985 C 485.65 -3.95505 1.73781 0
M  V30 4986 C 484.785 -5.15722 1.27297 0
M  V30 4987 C 483.824 -5.63305 2.39488 0
M  V30 4988 N 482.961 -6.74758 1.94026 0
M  V30 4989 H 487.801 -2.26768 1.9334 0
M  V30 4990 H 485.338 -1.11171 0.963297 0
M  V30 4991 H 487.296 -4.15899 0.329227 0
M  V30 4992 H 485.926 -3.21314 -0.309426 0
M  V30 4993 H 484.978 -3.16513 2.11006 0
M  V30 4994 H 486.29 -4.26797 2.58158 0
M  V30 4995 H 485.444 -5.98854 0.972546 0
M  V30 4996 H 484.183 -4.86061 0.399445 0
M  V30 4997 H 483.188 -4.78759 2.70315 0
M  V30 4998 H 484.413 -5.94988 3.27362 0
M  V30 4999 H 482.359 -6.46874 1.09041 0
M  V30 5000 H 482.276 -7.05386 2.71968 0
M  V30 5001 H 483.544 -7.61387 1.67062 0
M  V30 5002 N 487.773 -1.03688 -1.18687 0
M  V30 5003 C 489.021 -0.736572 -1.88199 0
M  V30 5004 C 489.342 0.737665 -1.80509 0
M  V30 5005 O 488.612 1.53204 -1.22088 0
M  V30 5006 H 487.192 -0.269466 -0.696704 0
M  V30 5007 H 489.854 -1.31282 -1.44052 0
M  V30 5008 H 488.95 -1.03802 -2.94332 0
M  V30 5009 N 489.251 1.34841 -0.815825 0
M  V30 5010 C 490.161 2.33425 -0.234462 0
M  V30 5011 C 491.177 1.62295 0.627413 0
M  V30 5012 O 492.353 1.94109 0.536987 0
M  V30 5013 C 489.418 3.41471 0.599849 0
M  V30 5014 C 488.479 4.28362 -0.283596 0
M  V30 5015 C 487.712 5.31248 0.51099 0
M  V30 5016 O 487.935 5.43056 1.7449 0
M  V30 5017 O 486.869 6.01812 -0.10297 0
M  V30 5018 H 490.695 2.84962 -1.05024 0
M  V30 5019 H 488.28 1.37774 -0.577809 0
M  V30 5020 H 490.162 4.07464 1.07475 0
M  V30 5021 H 488.837 2.9219 1.39308 0
M  V30 5022 H 487.744 3.65318 -0.805836 0
M  V30 5023 H 489.077 4.81066 -1.041 0
M  V30 5024 N 490.729 0.570148 1.46925 0
M  V30 5025 C 491.662 -0.218362 2.27153 0
M  V30 5026 C 492.64 -0.90847 1.34854 0
M  V30 5027 O 493.824 -0.924875 1.64251 0
M  V30 5028 C 490.951 -1.3122 3.12248 0
M  V30 5029 C 489.997 -0.729277 4.20219 0
M  V30 5030 S 490.83 0.434159 5.33737 0
M  V30 5031 C 491.986 -0.661188 6.22398 0
M  V30 5032 H 492.219 0.462393 2.93682 0
M  V30 5033 H 489.752 0.356753 1.50222 0
M  V30 5034 H 491.71 -1.93856 3.61842 0
M  V30 5035 H 490.371 -1.96485 2.45056 0
M  V30 5036 H 489.564 -1.5511 4.79538 0
M  V30 5037 H 489.166 -0.178836 3.73572 0
M  V30 5038 H 491.458 -1.55006 6.5953 0
M  V30 5039 H 492.401 -0.105046 7.08022 0
M  V30 5040 H 492.809 -0.959682 5.56283 0
M  V30 5041 N 492.207 -1.54576 0.307264 0
M  V30 5042 C 493.618 -1.8579 -0.184121 0
M  V30 5043 C 493.969 -1.22914 -1.52927 0
M  V30 5044 O 493.094 -0.529126 -2.09831 0
M  V30 5045 C 493.689 -3.37081 -0.340862 0
M  V30 5046 C 492.248 -3.68304 -0.776465 0
M  V30 5047 C 491.395 -2.77076 0.111503 0
M  V30 5048 H 494.346 -1.49656 0.528078 0
M  V30 5049 H 494.367 -3.61922 -1.17443 0
M  V30 5050 H 493.879 -3.82815 0.638309 0
M  V30 5051 H 491.98 -3.28092 -1.76596 0
M  V30 5052 H 492.093 -4.75434 -0.591512 0
M  V30 5053 H 490.457 -2.51374 -0.410256 0
M  V30 5054 H 491.24 -3.25632 1.08714 0
M  V30 5055 N 493.685 -0.035106 -1.57561 0
M  V30 5056 C 494.91 0.655802 -1.96759 0
M  V30 5057 C 495.335 1.64523 -0.911809 0
M  V30 5058 O 494.693 1.80857 0.126673 0
M  V30 5059 C 494.741 1.33326 -3.35047 0
M  V30 5060 O 493.845 2.44866 -3.31835 0
M  V30 5061 H 493.186 0.171807 -0.641388 0
M  V30 5062 H 495.716 -0.0987369 -2.04362 0
M  V30 5063 H 495.726 1.68867 -3.71413 0
M  V30 5064 H 494.401 0.608033 -4.11431 0
M  V30 5065 H 492.978 2.11392 -3.07193 0
M  V30 5066 N 495.163 1.55791 0.238111 0
M  V30 5067 C 496.44 1.68798 0.98826 0
M  V30 5068 C 496.82 0.577562 2.03045 0
M  V30 5069 O 496.168 -0.41778 2.24648 0
M  V30 5070 C 496.378 3.09454 1.61367 0
M  V30 5071 C 497.726 3.68335 2.11221 0
M  V30 5072 O 498.75 3.1231 1.71292 0
M  V30 5073 O 497.609 4.6657 2.84561 0
M  V30 5074 H 494.703 0.686881 0.460568 0
M  V30 5075 H 497.249 1.68118 0.231202 0
M  V30 5076 H 496.021 3.81726 0.860295 0
M  V30 5077 H 495.644 3.14182 2.4367 0
M  V30 5078 N 496.642 -0.504142 1.49319 0
M  V30 5079 C 497.889 -1.25846 1.58647 0
M  V30 5080 C 498.217 -1.92592 0.27177 0
M  V30 5081 O 497.472 -1.81167 -0.74007 0
M  V30 5082 C 497.771 -2.35021 2.69258 0
M  V30 5083 C 497.437 -1.85755 4.1086 0
M  V30 5084 C 496.099 -1.72038 4.49395 0
M  V30 5085 C 498.451 -1.48844 4.99495 0
M  V30 5086 C 495.779 -1.19783 5.74342 0
M  V30 5087 C 498.131 -0.980422 6.24956 0
M  V30 5088 C 496.795 -0.829622 6.62324 0
M  V30 5089 H 496.065 -0.460505 0.580531 0
M  V30 5090 H 498.712 -0.559716 1.83138 0
M  V30 5091 H 497.017 -3.10672 2.38726 0
M  V30 5092 H 498.714 -2.93083 2.73685 0
M  V30 5093 H 495.304 -1.9739 3.80441 0
M  V30 5094 H 499.488 -1.5829 4.70381 0
M  V30 5095 H 494.744 -1.06817 6.01997 0
M  V30 5096 H 498.918 -0.685608 6.93017 0
M  V30 5097 H 496.545 -0.42253 7.59025 0
M  V30 5098 N 498.12 -1.38341 -0.754957 0
M  V30 5099 C 499.397 -1.24995 -1.50451 0
M  V30 5100 C 499.777 0.149244 -2.10572 0
M  V30 5101 O 499.125 1.15861 -1.96948 0
M  V30 5102 C 499.335 -2.35904 -2.57197 0
M  V30 5103 C 500.683 -2.74262 -3.24138 0
M  V30 5104 O 501.707 -2.35205 -2.67501 0
M  V30 5105 O 500.566 -3.4161 -4.26574 0
M  V30 5106 H 497.66 -0.48872 -0.667144 0
M  V30 5107 H 500.206 -1.50165 -0.790486 0
M  V30 5108 H 498.978 -3.2953 -2.11011 0
M  V30 5109 H 498.601 -2.12291 -3.36182 0
M  V30 5110 N 499.598 0.982988 -1.23187 0
M  V30 5111 C 500.561 2.05649 -1.01198 0
M  V30 5112 C 501.561 1.6078 0.0252464 0
M  V30 5113 O 502.751 1.72878 -0.214243 0
M  V30 5114 C 499.883 3.36744 -0.530656 0
M  V30 5115 H 501.076 2.2659 -1.96461 0
M  V30 5116 H 498.629 1.15602 -1.05195 0
M  V30 5117 H 499.364 3.21492 0.425873 0
M  V30 5118 H 499.149 3.7065 -1.2791 0
M  V30 5119 H 500.639 4.15705 -0.397366 0
M  V30 5120 N 501.076 1.04316 1.18135 0
M  V30 5121 C 502.023 0.636398 2.21853 0
M  V30 5122 C 502.993 -0.357039 1.62217 0
M  V30 5123 O 504.178 -0.250453 1.89149 0
M  V30 5124 C 501.318 0.00812779 3.45099 0
M  V30 5125 C 500.431 1.04933 4.19062 0
M  V30 5126 C 499.566 0.389313 5.29771 0
M  V30 5127 C 498.605 1.41544 5.9551 0
M  V30 5128 N 497.742 0.78021 6.97751 0
M  V30 5129 H 502.582 1.52536 2.56002 0
M  V30 5130 H 500.119 0.76304 1.25762 0
M  V30 5131 H 502.077 -0.373497 4.15525 0
M  V30 5132 H 500.707 -0.844336 3.11562 0
M  V30 5133 H 499.759 1.54888 3.47439 0
M  V30 5134 H 501.071 1.82862 4.64072 0
M  V30 5135 H 500.225 -0.0463805 6.06682 0
M  V30 5136 H 498.964 -0.422038 4.8587 0
M  V30 5137 H 497.969 1.86124 5.17337 0
M  V30 5138 H 499.194 2.22854 6.41493 0
M  V30 5139 H 497.14 -0.0107899 6.55999 0
M  V30 5140 H 497.057 1.49716 7.41027 0
M  V30 5141 H 498.325 0.368996 7.78626 0
M  V30 5142 N 502.554 -1.34406 0.822964 0
M  V30 5143 C 503.517 -2.2783 0.250271 0
M  V30 5144 C 504.517 -1.50288 -0.571854 0
M  V30 5145 O 505.707 -1.69825 -0.387952 0
M  V30 5146 C 502.839 -3.34663 -0.649137 0
M  V30 5147 H 504.032 -2.79992 1.07444 0
M  V30 5148 H 501.585 -1.44539 0.594829 0
M  V30 5149 H 502.32 -2.87714 -1.49637 0
M  V30 5150 H 502.105 -3.92052 -0.0611199 0
M  V30 5151 H 503.595 -4.04349 -1.04363 0
M  V30 5152 N 504.032 -0.577932 -1.46621 0
M  V30 5153 C 504.979 0.158048 -2.30258 0
M  V30 5154 C 505.949 0.888669 -1.40328 0
M  V30 5155 O 507.134 0.880283 -1.6928 0
M  V30 5156 C 504.274 1.16884 -3.24703 0
M  V30 5157 C 503.387 0.442163 -4.29731 0
M  V30 5158 C 502.522 1.44007 -5.11308 0
M  V30 5159 C 501.561 0.69952 -6.0809 0
M  V30 5160 N 500.698 1.64525 -6.82551 0
M  V30 5161 H 505.538 -0.561242 -2.92667 0
M  V30 5162 H 503.075 -0.288591 -1.44241 0
M  V30 5163 H 505.033 1.7677 -3.779 0
M  V30 5164 H 503.663 1.85591 -2.64113 0
M  V30 5165 H 502.715 -0.271632 -3.79429 0
M  V30 5166 H 504.027 -0.136992 -4.98612 0
M  V30 5167 H 503.181 2.11186 -5.68758 0
M  V30 5168 H 501.92 2.05315 -4.42377 0
M  V30 5169 H 500.925 0.0139217 -5.49798 0
M  V30 5170 H 502.15 0.091894 -6.79038 0
M  V30 5171 H 500.096 2.24653 -6.16334 0
M  V30 5172 H 500.013 1.11878 -7.47676 0
M  V30 5173 H 501.281 2.30754 -7.44562 0
M  V30 5174 N 505.51 1.54411 -0.315457 0
M  V30 5175 C 506.42 2.27737 0.56329 0
M  V30 5176 C 507.436 1.31787 1.13614 0
M  V30 5177 O 508.612 1.64791 1.15784 0
M  V30 5178 C 505.677 3.01478 1.71207 0
M  V30 5179 C 504.738 4.12997 1.17185 0
M  V30 5180 C 503.971 4.83212 2.26588 0
M  V30 5181 O 504.194 4.52884 3.46775 0
M  V30 5182 O 503.128 5.70299 1.92463 0
M  V30 5183 H 506.954 3.03683 -0.0319614 0
M  V30 5184 H 504.539 1.49178 -0.0814188 0
M  V30 5185 H 506.421 3.47683 2.38106 0
M  V30 5186 H 505.096 2.28414 2.29366 0
M  V30 5187 H 504.003 3.71159 0.468174 0
M  V30 5188 H 505.336 4.8808 0.635501 0
M  V30 5189 N 506.988 0.0434614 1.5754 0
M  V30 5190 C 508.235 -0.632035 1.92384 0
M  V30 5191 C 508.563 -1.71304 0.921157 0
M  V30 5192 O 507.818 -1.95583 -0.067744 0
M  V30 5193 C 508.117 -1.2738 3.3393 0
M  V30 5194 C 507.783 -0.321757 4.49751 0
M  V30 5195 C 506.445 -0.0597611 4.81163 0
M  V30 5196 C 508.797 0.331158 5.20147 0
M  V30 5197 C 506.125 0.862715 5.80322 0
M  V30 5198 C 508.477 1.24178 6.20292 0
M  V30 5199 C 507.141 1.51252 6.50138 0
M  V30 5200 H 506.411 -0.231278 0.703983 0
M  V30 5201 H 509.058 0.108294 1.91194 0
M  V30 5202 H 507.363 -2.08921 3.3145 0
M  V30 5203 H 509.06 -1.80326 3.58167 0
M  V30 5204 H 505.65 -0.53614 4.25233 0
M  V30 5205 H 509.834 0.141826 4.96097 0
M  V30 5206 H 505.09 1.08003 6.01785 0
M  V30 5207 H 509.264 1.75381 6.73954 0
M  V30 5208 H 506.891 2.22897 7.26788 0
M  V30 5209 N 508.466 -1.55915 -0.229846 0
M  V30 5210 C 509.715 -1.77742 -0.953455 0
M  V30 5211 C 510.028 -0.610524 -1.85828 0
M  V30 5212 O 511.234 -0.712219 -2.61992 0
M  V30 5213 C 509.69 -3.14738 -1.74551 0
M  V30 5214 C 509.298 -4.39126 -0.887242 0
M  V30 5215 C 511.042 -3.45895 -2.46084 0
M  V30 5216 C 508.949 -5.67149 -1.67617 0
M  V30 5217 H 507.879 -0.662648 -0.359741 0
M  V30 5218 H 510.53 -1.82322 -0.207576 0
M  V30 5219 H 508.912 -3.04311 -2.53399 0
M  V30 5220 H 510.086 -4.60588 -0.139892 0
M  V30 5221 H 508.401 -4.15427 -0.284443 0
M  V30 5222 H 510.998 -4.38767 -3.05594 0
M  V30 5223 H 511.341 -2.68007 -3.18556 0
M  V30 5224 H 511.874 -3.57614 -1.74233 0
M  V30 5225 H 508.613 -6.47906 -0.994881 0
M  V30 5226 H 508.133 -5.49763 -2.39836 0
M  V30 5227 H 509.812 -6.07025 -2.23898 0
M  V30 5228 N 509.944 0.496216 -1.49584 0
M  V30 5229 C 510.907 1.57952 -1.66084 0
M  V30 5230 C 511.907 1.51729 -0.53244 0
M  V30 5231 O 513.097 1.54796 -0.79899 0
M  V30 5232 C 510.229 2.97604 -1.66268 0
M  V30 5233 H 511.422 1.44649 -2.6271 0
M  V30 5234 H 508.975 0.7208 -1.38687 0
M  V30 5235 H 509.71 3.16378 -0.712432 0
M  V30 5236 H 509.495 3.03528 -2.4822 0
M  V30 5237 H 510.985 3.76301 -1.81073 0
M  V30 5238 N 511.423 1.38739 0.74761 0
M  V30 5239 C 512.37 1.36449 1.86146 0
M  V30 5240 C 513.34 0.226098 1.64554 0
M  V30 5241 O 514.525 0.41926 1.86137 0
M  V30 5242 C 511.665 1.2013 3.23516 0
M  V30 5243 C 510.778 2.43407 3.56899 0
M  V30 5244 C 509.913 2.19773 4.83605 0
M  V30 5245 C 508.952 3.3879 5.09792 0
M  V30 5246 N 508.089 3.14553 6.27695 0
M  V30 5247 H 512.929 2.3167 1.87438 0
M  V30 5248 H 510.466 1.15094 0.916063 0
M  V30 5249 H 512.424 1.08683 4.02795 0
M  V30 5250 H 511.054 0.285453 3.21535 0
M  V30 5251 H 510.106 2.65504 2.72418 0
M  V30 5252 H 511.418 3.32094 3.72176 0
M  V30 5253 H 510.572 2.05496 5.70838 0
M  V30 5254 H 509.311 1.28461 4.70478 0
M  V30 5255 H 508.316 3.53579 4.21025 0
M  V30 5256 H 509.541 4.30986 5.24812 0
M  V30 5257 H 507.487 2.25893 6.1588 0
M  V30 5258 H 507.404 3.96791 6.435 0
M  V30 5259 H 508.672 3.03943 7.17801 0
M  V30 5260 N 512.901 -0.976442 1.23707 0
M  V30 5261 C 513.831 -2.08749 1.04624 0
M  V30 5262 C 514.812 -1.70057 -0.0380956 0
M  V30 5263 O 515.997 -1.93782 0.127308 0
M  V30 5264 C 513.127 -3.41335 0.640902 0
M  V30 5265 C 512.081 -3.93947 1.67302 0
M  V30 5266 C 511.407 -5.22774 1.12301 0
M  V30 5267 C 512.707 -4.22769 3.06697 0
M  V30 5268 H 514.401 -2.24972 1.97555 0
M  V30 5269 H 511.947 -1.08108 0.951247 0
M  V30 5270 H 513.9 -4.18489 0.494434 0
M  V30 5271 H 512.624 -3.24988 -0.324099 0
M  V30 5272 H 511.283 -3.18941 1.80755 0
M  V30 5273 H 510.931 -5.0278 0.148877 0
M  V30 5274 H 510.631 -5.58942 1.81267 0
M  V30 5275 H 512.155 -6.02546 0.988479 0
M  V30 5276 H 513.569 -4.90659 2.96524 0
M  V30 5277 H 511.966 -4.70147 3.72937 0
M  V30 5278 H 513.036 -3.29885 3.55392 0
M  V30 5279 N 514.379 -1.04941 -1.1758 0
M  V30 5280 C 515.311 -0.606174 -2.21039 0
M  V30 5281 C 516.324 0.328763 -1.59446 0
M  V30 5282 O 517.513 0.121895 -1.78083 0
M  V30 5283 C 514.613 0.133294 -3.38638 0
M  V30 5284 C 513.786 -0.811711 -4.29802 0
M  V30 5285 C 512.845 -0.113958 -5.26077 0
M  V30 5286 O 511.871 -0.747237 -5.64274 0
M  V30 5287 N 513.073 1.14953 -5.69004 0
M  V30 5288 H 515.838 -1.49606 -2.59689 0
M  V30 5289 H 513.399 -0.930997 -1.32454 0
M  V30 5290 H 515.391 0.610144 -4.00074 0
M  V30 5291 H 513.961 0.924816 -2.98607 0
M  V30 5292 H 513.181 -1.46824 -3.65837 0
M  V30 5293 H 514.469 -1.45326 -4.87604 0
M  V30 5294 H 513.867 1.68441 -5.40041 0
M  V30 5295 H 512.424 1.57049 -6.32597 0
M  V30 5296 N 515.857 1.33968 -0.830081 0
M  V30 5297 C 516.82 2.27694 -0.26235 0
M  V30 5298 C 517.82 1.50589 0.563876 0
M  V30 5299 O 519.01 1.70028 0.378941 0
M  V30 5300 C 516.142 3.35002 0.63138 0
M  V30 5301 H 517.335 2.79419 -1.08928 0
M  V30 5302 H 514.888 1.44221 -0.602486 0
M  V30 5303 H 515.623 2.88504 1.48109 0
M  V30 5304 H 515.408 3.92079 0.0403276 0
M  V30 5305 H 516.898 4.04897 1.02217 0
M  V30 5306 N 517.335 0.585699 1.46312 0
M  V30 5307 C 518.283 -0.158577 2.32059 0
M  V30 5308 C 519.277 -0.881427 1.44662 0
M  V30 5309 O 520.483 -0.799476 1.61271 0
M  V30 5310 H 516.858 -0.0700066 0.748734 0
M  V30 5311 H 518.829 0.583383 2.92642 0
M  V30 5312 C 517.578 -1.15701 3.27885 0
M  V30 5313 H 516.901 -0.610215 3.95116 0
M  V30 5314 H 518.341 -1.64812 3.90657 0
M  V30 5315 C 516.8 -2.21951 2.53455 0
M  V30 5316 O 517.33 -3.29352 2.29978 0
M  V30 5317 N 515.536 -1.9664 2.13965 0
M  V30 5318 H 515.083 -1.09309 2.33258 0
M  V30 5319 H 515.041 -2.6794 1.64485 0
M  V30 5320 N 518.813 -1.54241 0.323641 0
M  V30 5321 C 520.224 -1.85975 -0.164405 0
M  V30 5322 C 520.575 -1.24529 -1.51615 0
M  V30 5323 O 519.7 -0.551351 -2.09258 0
M  V30 5324 C 520.295 -3.37424 -0.305091 0
M  V30 5325 C 518.854 -3.69107 -0.737358 0
M  V30 5326 C 518.001 -2.76942 0.140884 0
M  V30 5327 H 520.952 -1.49088 0.543922 0
M  V30 5328 H 520.973 -3.63147 -1.13598 0
M  V30 5329 H 520.485 -3.82116 0.678876 0
M  V30 5330 H 518.586 -3.29947 -1.73107 0
M  V30 5331 H 518.699 -4.76035 -0.541053 0
M  V30 5332 H 517.063 -2.51795 -0.383572 0
M  V30 5333 H 517.846 -3.24461 1.12162 0
M  V30 5334 N 520.291 -0.0518155 -1.57515 0
M  V30 5335 C 521.254 0.907547 -2.10467 0
M  V30 5336 C 522.254 1.23947 -1.02439 0
M  V30 5337 O 523.444 1.17604 -1.2851 0
M  V30 5338 C 520.576 2.21723 -2.58944 0
M  V30 5339 H 521.769 0.44851 -2.96527 0
M  V30 5340 H 519.322 0.196598 -1.55059 0
M  V30 5341 H 520.057 2.72206 -1.76279 0
M  V30 5342 H 519.842 1.98935 -3.37886 0
M  V30 5343 H 521.332 2.90441 -3.00056 0
M  V30 5344 N 521.769 1.56035 0.221574 0
M  V30 5345 C 522.716 1.92413 1.27459 0
M  V30 5346 C 523.686 0.781323 1.46576 0
M  V30 5347 O 524.871 1.03721 1.60145 0
M  V30 5348 C 522.011 2.24617 2.61995 0
M  V30 5349 C 521.124 3.51831 2.50677 0
M  V30 5350 C 520.259 3.73482 3.77736 0
M  V30 5351 C 519.298 4.94211 3.6114 0
M  V30 5352 N 518.435 5.12252 4.80148 0
M  V30 5353 H 523.275 2.82203 0.957355 0
M  V30 5354 H 520.812 1.39676 0.461415 0
M  V30 5355 H 522.77 2.41298 3.40339 0
M  V30 5356 H 521.4 1.38 2.91815 0
M  V30 5357 H 520.452 3.43343 1.63767 0
M  V30 5358 H 521.764 4.40328 2.34334 0
M  V30 5359 H 520.918 3.9026 4.64523 0
M  V30 5360 H 519.657 2.83266 3.97003 0
M  V30 5361 H 518.662 4.77384 2.72736 0
M  V30 5362 H 519.887 5.85912 3.43343 0
M  V30 5363 H 517.833 4.24978 4.99729 0
M  V30 5364 H 517.75 5.94881 4.66532 0
M  V30 5365 H 519.018 5.33465 5.68362 0
M  V30 5366 N 523.247 -0.488276 1.49845 0
M  V30 5367 C 524.496 -1.23826 1.59217 0
M  V30 5368 C 524.809 -1.93439 0.289966 0
M  V30 5369 O 526.015 -2.70229 0.262382 0
M  V30 5370 C 524.471 -2.24902 2.80976 0
M  V30 5371 C 524.079 -1.6117 4.18005 0
M  V30 5372 C 525.823 -3.00648 2.99685 0
M  V30 5373 C 523.73 -2.60431 5.3097 0
M  V30 5374 H 522.66 -0.465858 0.592868 0
M  V30 5375 H 525.311 -0.510645 1.76252 0
M  V30 5376 H 523.693 -3.0088 2.57463 0
M  V30 5377 H 524.867 -0.910968 4.51706 0
M  V30 5378 H 523.182 -0.97767 4.0476 0
M  V30 5379 H 525.779 -3.74903 3.81251 0
M  V30 5380 H 526.122 -3.5902 2.10738 0
M  V30 5381 H 526.655 -2.31784 3.23297 0
M  V30 5382 H 523.394 -2.06823 6.22017 0
M  V30 5383 H 522.914 -3.28707 5.01709 0
M  V30 5384 H 524.593 -3.22606 5.60834 0
M  V30 5385 N 524.725 -1.39134 -0.740242 0
M  V30 5386 C 525.688 -1.37217 -1.83587 0
M  V30 5387 C 526.688 -0.270221 -1.58513 0
M  V30 5388 O 527.878 -0.527843 -1.6601 0
M  V30 5389 C 525.01 -1.13959 -3.21288 0
M  V30 5390 H 526.203 -2.34705 -1.86691 0
M  V30 5391 H 523.756 -1.24622 -0.94335 0
M  V30 5392 H 524.491 -0.17131 -3.23847 0
M  V30 5393 H 524.276 -1.93754 -3.40884 0
M  V30 5394 H 525.766 -1.15346 -4.01354 0
M  V30 5395 N 526.204 0.969867 -1.24223 0
M  V30 5396 C 527.429 1.75289 -1.10853 0
M  V30 5397 C 527.854 1.85091 0.335079 0
M  V30 5398 O 527.212 1.32024 1.24255 0
M  V30 5399 C 527.26 3.15255 -1.75062 0
M  V30 5400 O 526.364 3.99589 -1.01992 0
M  V30 5401 H 525.705 0.538904 -0.387915 0
M  V30 5402 H 528.235 1.21675 -1.64488 0
M  V30 5403 H 528.245 3.65787 -1.80731 0
M  V30 5404 H 526.92 3.07436 -2.801 0
M  V30 5405 H 525.497 3.58077 -1.04094 0
M  V30 5406 N 527.682 1.05563 1.17022 0
M  V30 5407 C 529.098 0.777684 1.39371 0
M  V30 5408 C 529.298 -0.626269 1.91521 0
M  V30 5409 O 528.354 -1.38806 2.10924 0
M  V30 5410 C 529.667 1.83642 2.3811 0
M  V30 5411 C 531.215 1.85907 2.51809 0
M  V30 5412 C 531.69 2.90813 3.53824 0
M  V30 5413 N 533.181 2.898 3.61345 0
M  V30 5414 C 533.916 3.6762 4.40049 0
M  V30 5415 N 533.412 4.55237 5.22237 0
M  V30 5416 N 535.205 3.56044 4.34959 0
M  V30 5417 H 527.356 1.9614 0.815047 0
M  V30 5418 H 529.619 0.849527 0.420722 0
M  V30 5419 H 529.325 2.84425 2.06871 0
M  V30 5420 H 529.199 1.6812 3.37662 0
M  V30 5421 H 531.586 0.857865 2.82356 0
M  V30 5422 H 531.667 2.05506 1.52318 0
M  V30 5423 H 531.311 3.91122 3.24015 0
M  V30 5424 H 531.241 2.68465 4.53028 0
M  V30 5425 H 533.732 2.26274 3.02669 0
M  V30 5426 H 534.045 5.11291 5.79484 0
M  V30 5427 H 532.39 4.59296 5.21605 0
M  V30 5428 H 535.581 2.86986 3.69806 0
M  V30 5429 H 535.754 4.16938 4.96051 0
M  V30 5430 N 529.16 -1.33526 0.837174 0
M  V30 5431 C 530.107 -2.29248 0.267169 0
M  V30 5432 C 531.077 -1.54252 -0.616071 0
M  V30 5433 O 532.262 -1.82559 -0.554699 0
M  V30 5434 C 529.402 -3.40638 -0.553152 0
M  V30 5435 C 528.515 -4.30548 0.353921 0
M  V30 5436 C 527.65 -5.29051 -0.477339 0
M  V30 5437 C 526.689 -6.106 0.42823 0
M  V30 5438 N 525.826 -7.01152 -0.364801 0
M  V30 5439 H 530.666 -2.77398 1.08877 0
M  V30 5440 H 528.203 -1.36496 0.54838 0
M  V30 5441 H 530.161 -4.03921 -1.04422 0
M  V30 5442 H 528.791 -2.93685 -1.33973 0
M  V30 5443 H 527.843 -3.68001 0.963289 0
M  V30 5444 H 529.155 -4.87631 1.04964 0
M  V30 5445 H 528.309 -5.97853 -1.0323 0
M  V30 5446 H 527.048 -4.72541 -1.2065 0
M  V30 5447 H 526.053 -5.40718 0.995219 0
M  V30 5448 H 527.278 -6.69193 1.15573 0
M  V30 5449 H 525.224 -6.47092 -1.07738 0
M  V30 5450 H 525.141 -7.5551 0.272238 0
M  V30 5451 H 526.409 -7.74263 -0.902054 0
M  V30 5452 N 530.638 -0.59345 -1.46 0
M  V30 5453 C 531.601 0.123538 -2.28867 0
M  V30 5454 C 532.601 0.808628 -1.38989 0
M  V30 5455 O 533.791 0.658945 -1.61256 0
M  V30 5456 C 530.923 1.1847 -3.19653 0
M  V30 5457 H 532.116 -0.604843 -2.93737 0
M  V30 5458 H 529.669 -0.351875 -1.52288 0
M  V30 5459 H 530.404 1.94431 -2.59552 0
M  V30 5460 H 530.189 0.69783 -3.8584 0
M  V30 5461 H 531.679 1.68726 -3.81997 0
M  V30 5462 N 532.116 1.54067 -0.331816 0
M  V30 5463 C 533.341 2.05599 0.272705 0
M  V30 5464 C 533.766 1.2059 1.44359 0
M  V30 5465 O 533.124 0.216907 1.79998 0
M  V30 5466 C 533.172 3.54188 0.677021 0
M  V30 5467 O 532.276 3.72082 1.77844 0
M  V30 5468 H 531.617 0.662286 0.0476801 0
M  V30 5469 H 534.147 1.98826 -0.482624 0
M  V30 5470 H 534.157 3.96608 0.957415 0
M  V30 5471 H 532.832 4.15513 -0.179325 0
M  V30 5472 H 531.409 3.41566 1.49622 0
M  V30 5473 N 533.594 0.0601682 1.57485 0
M  V30 5474 C 534.526 -0.94047 2.09016 0
M  V30 5475 C 535.539 -1.26897 1.01985 0
M  V30 5476 O 536.728 -1.22819 1.29529 0
M  V30 5477 C 533.828 -2.25955 2.52582 0
M  V30 5478 C 533.001 -2.11163 3.83052 0
M  V30 5479 C 532.06 -3.26273 4.12835 0
M  V30 5480 O 531.086 -3.01779 4.82616 0
M  V30 5481 N 532.288 -4.51022 3.65458 0
M  V30 5482 H 535.053 -0.500578 2.9549 0
M  V30 5483 H 532.614 -0.125852 1.6141 0
M  V30 5484 H 534.606 -3.01846 2.69575 0
M  V30 5485 H 533.176 -2.61481 1.71308 0
M  V30 5486 H 532.396 -1.19808 3.75552 0
M  V30 5487 H 533.684 -1.98517 4.68475 0
M  V30 5488 H 533.082 -4.73811 3.09062 0
M  V30 5489 H 531.639 -5.23978 3.87673 0
M  V30 5490 N 535.072 -1.5615 -0.213296 0
M  V30 5491 C 536.02 -1.93953 -1.28394 0
M  V30 5492 C 537.014 -0.822592 -1.48087 0
M  V30 5493 O 538.22 -1.00748 -1.49164 0
M  V30 5494 H 534.595 -0.61648 -0.430646 0
M  V30 5495 H 536.566 -2.83275 -0.937977 0
M  V30 5496 C 535.315 -2.27969 -2.62537 0
M  V30 5497 H 534.638 -3.13432 -2.48194 0
M  V30 5498 H 536.078 -2.58297 -3.36242 0
M  V30 5499 C 534.537 -1.10775 -3.18167 0
M  V30 5500 O 535.067 -0.373201 -3.99963 0
M  V30 5501 N 533.273 -0.889377 -2.76656 0
M  V30 5502 H 532.82 -1.48843 -2.10246 0
M  V30 5503 H 532.778 -0.107 -3.14218 0
M  V30 5504 N 536.55 0.480323 -1.50102 0
M  V30 5505 C 537.513 1.56181 -1.6775 0
M  V30 5506 C 538.513 1.51156 -0.548503 0
M  V30 5507 O 539.703 1.5394 -0.815363 0
M  V30 5508 C 536.835 2.95823 -1.69415 0
M  V30 5509 H 538.028 1.41855 -2.6423 0
M  V30 5510 H 535.581 0.70605 -1.39444 0
M  V30 5511 H 536.316 3.15604 -0.745948 0
M  V30 5512 H 536.101 3.00878 -2.51425 0
M  V30 5513 H 537.591 3.74359 -1.85054 0
M  V30 5514 N 538.028 1.39524 0.732853 0
M  V30 5515 C 539.277 1.36175 1.48792 0
M  V30 5516 C 539.59 -0.0388195 1.95561 0
M  V30 5517 O 540.796 -0.194899 2.708 0
M  V30 5518 C 539.252 2.39242 2.68871 0
M  V30 5519 C 538.86 3.85024 2.29042 0
M  V30 5520 C 540.604 2.44972 3.46683 0
M  V30 5521 C 538.511 4.79727 3.45856 0
M  V30 5522 H 537.441 0.506267 0.558757 0
M  V30 5523 H 540.092 1.65181 0.799226 0
M  V30 5524 H 538.474 2.0331 3.39825 0
M  V30 5525 H 539.648 4.30008 1.6562 0
M  V30 5526 H 537.963 3.82609 1.64316 0
M  V30 5527 H 540.56 3.12918 4.33574 0
M  V30 5528 H 540.903 1.4749 3.89297 0
M  V30 5529 H 541.436 2.79808 2.82759 0
M  V30 5530 H 538.175 5.78479 3.08289 0
M  V30 5531 H 537.695 4.39421 4.08251 0
M  V30 5532 H 539.374 4.98731 4.12161 0
M  V30 5533 N 539.506 -0.963266 1.24736 0
M  V30 5534 C 540.416 -2.09246 1.06082 0
M  V30 5535 C 541.432 -1.74 0.000363101 0
M  V30 5536 O 542.608 -2.0041 0.199479 0
M  V30 5537 C 539.673 -3.40115 0.672498 0
M  V30 5538 C 538.734 -3.89282 1.80993 0
M  V30 5539 C 537.967 -5.13905 1.44004 0
M  V30 5540 O 538.19 -5.69434 0.331835 0
M  V30 5541 O 537.124 -5.57566 2.26723 0
M  V30 5542 H 540.95 -2.27881 2.00759 0
M  V30 5543 H 538.535 -1.07649 1.03595 0
M  V30 5544 H 540.417 -4.18797 0.467668 0
M  V30 5545 H 539.092 -3.22771 -0.245102 0
M  V30 5546 H 537.999 -3.11642 2.06955 0
M  V30 5547 H 539.332 -4.1111 2.70646 0
M  V30 5548 N 540.985 -1.06182 -1.16461 0
M  V30 5549 C 541.948 -0.675723 -2.19013 0
M  V30 5550 C 542.948 0.277963 -1.58379 0
M  V30 5551 O 544.138 0.0604962 -1.74095 0
M  V30 5552 C 541.27 0.00591459 -3.40899 0
M  V30 5553 H 542.463 -1.58353 -2.54685 0
M  V30 5554 H 540.016 -0.856908 -1.30716 0
M  V30 5555 H 540.751 0.92652 -3.10783 0
M  V30 5556 H 540.536 -0.67984 -3.86161 0
M  V30 5557 H 542.026 0.26181 -4.16778 0
M  V30 5558 N 542.463 1.3308 -0.844243 0
M  V30 5559 C 543.71 1.97605 -0.44255 0
M  V30 5560 C 544.038 1.66856 0.999458 0
M  V30 5561 O 543.293 0.943586 1.7145 0
M  V30 5562 C 543.592 3.52045 -0.616354 0
M  V30 5563 C 543.258 4.02757 -2.02726 0
M  V30 5564 C 541.92 4.16316 -2.41317 0
M  V30 5565 C 544.272 4.29776 -2.9486 0
M  V30 5566 C 541.6 4.54232 -3.71335 0
M  V30 5567 C 543.952 4.69146 -4.24364 0
M  V30 5568 C 542.616 4.80911 -4.62904 0
M  V30 5569 H 541.886 0.723088 -0.161941 0
M  V30 5570 H 544.533 1.58663 -1.0723 0
M  V30 5571 H 542.838 3.91681 0.0966812 0
M  V30 5572 H 544.535 3.99981 -0.285756 0
M  V30 5573 H 541.125 3.9268 -1.71756 0
M  V30 5574 H 545.309 4.18818 -2.6628 0
M  V30 5575 H 540.565 4.61535 -4.00993 0
M  V30 5576 H 544.739 4.89008 -4.95827 0
M  V30 5577 H 542.366 5.10048 -5.63698 0
M  V30 5578 N 543.941 0.601185 1.45683 0
M  V30 5579 C 545.189 0.0936957 2.01883 0
M  V30 5580 C 545.51 -1.2779 1.47291 0
M  V30 5581 O 544.78 -1.84279 0.664691 0
M  V30 5582 H 543.36 0.0316466 0.746329 0
M  V30 5583 H 546.022 0.781137 1.78562 0
M  V30 5584 H 545.118 0.0386297 3.12076 0
M  V30 5585 N 545.419 -1.53889 0.339982 0
M  V30 5586 C 546.83 -1.86139 -0.144671 0
M  V30 5587 C 547.181 -1.2613 -1.50285 0
M  V30 5588 O 546.306 -0.573515 -2.08662 0
M  V30 5589 C 546.901 -3.37728 -0.269285 0
M  V30 5590 C 545.46 -3.69868 -0.698168 0
M  V30 5591 C 544.607 -2.76777 0.170249 0
M  V30 5592 H 547.558 -1.48503 0.559704 0
M  V30 5593 H 547.579 -3.64331 -1.0974 0
M  V30 5594 H 547.091 -3.81375 0.719366 0
M  V30 5595 H 545.192 -3.31764 -1.69597 0
M  V30 5596 H 545.305 -4.76582 -0.490533 0
M  V30 5597 H 543.669 -2.52188 -0.356844 0
M  V30 5598 H 544.452 -3.23253 1.15597 0
M  V30 5599 N 546.897 -0.0685191 -1.57451 0
M  V30 5600 C 547.827 0.89747 -2.15564 0
M  V30 5601 C 548.808 1.31266 -1.08181 0
M  V30 5602 O 549.993 1.38429 -1.36202 0
M  V30 5603 C 547.123 2.16623 -2.71463 0
M  V30 5604 C 546.077 1.89054 -3.83982 0
M  V30 5605 C 545.403 3.22532 -4.26471 0
M  V30 5606 C 546.703 1.1984 -5.08366 0
M  V30 5607 H 548.397 0.413373 -2.96533 0
M  V30 5608 H 545.943 0.197391 -1.42641 0
M  V30 5609 H 547.896 2.84614 -3.10761 0
M  V30 5610 H 546.62 2.67269 -1.8771 0
M  V30 5611 H 545.279 1.23469 -3.45183 0
M  V30 5612 H 544.927 3.71013 -3.39644 0
M  V30 5613 H 544.627 3.04879 -5.02317 0
M  V30 5614 H 546.151 3.91727 -4.68383 0
M  V30 5615 H 547.565 1.77896 -5.45001 0
M  V30 5616 H 545.962 1.12456 -5.89469 0
M  V30 5617 H 547.032 0.176996 -4.84577 0
M  V30 5618 N 548.375 1.56261 0.205012 0
M  V30 5619 C 549.305 1.96779 1.257 0
M  V30 5620 C 550.286 0.838309 1.48008 0
M  V30 5621 O 551.471 1.10189 1.59913 0
M  V30 5622 C 548.601 2.29876 2.60335 0
M  V30 5623 C 547.555 3.45469 2.52656 0
M  V30 5624 C 546.881 3.64215 3.91473 0
M  V30 5625 C 548.181 4.79954 2.06014 0
M  V30 5626 H 549.875 2.84904 0.920338 0
M  V30 5627 H 547.421 1.37072 0.441277 0
M  V30 5628 H 549.374 2.56814 3.34102 0
M  V30 5629 H 548.098 1.38622 2.95722 0
M  V30 5630 H 546.757 3.18605 1.81345 0
M  V30 5631 H 546.405 2.70309 4.24196 0
M  V30 5632 H 546.105 4.41973 3.87213 0
M  V30 5633 H 547.629 3.93519 4.66878 0
M  V30 5634 H 549.043 5.05989 2.69533 0
M  V30 5635 H 547.44 5.61111 2.12777 0
M  V30 5636 H 548.51 4.74201 1.01297 0
M  V30 5637 N 549.853 -0.472356 1.50355 0
M  V30 5638 C 551.264 -1.05326 1.54154 0
M  V30 5639 C 551.615 -1.93155 0.344303 0
M  V30 5640 O 550.74 -2.09479 -0.542928 0
M  V30 5641 C 551.335 -1.91691 2.79356 0
M  V30 5642 C 549.894 -2.44892 2.8584 0
M  V30 5643 C 549.041 -1.23205 2.48426 0
M  V30 5644 H 551.992 -0.255027 1.56637 0
M  V30 5645 H 552.013 -2.76742 2.6114 0
M  V30 5646 H 551.525 -1.27741 3.66475 0
M  V30 5647 H 549.626 -3.12399 2.0307 0
M  V30 5648 H 549.739 -2.80086 3.88701 0
M  V30 5649 H 548.103 -1.56643 2.00836 0
M  V30 5650 H 548.886 -0.609194 3.37852 0
M  V30 5651 N 551.331 -1.39911 -0.725443 0
M  V30 5652 C 552.241 -1.41688 -1.8698 0
M  V30 5653 C 553.257 -0.310579 -1.71206 0
M  V30 5654 O 554.433 -0.55359 -1.93642 0
M  V30 5655 C 551.498 -1.26811 -3.22676 0
M  V30 5656 C 550.559 -2.47497 -3.50776 0
M  V30 5657 C 549.792 -2.3332 -4.79997 0
M  V30 5658 O 550.015 -1.34175 -5.54394 0
M  V30 5659 O 548.949 -3.22498 -5.08211 0
M  V30 5660 H 552.775 -2.38171 -1.88436 0
M  V30 5661 H 550.36 -1.21128 -0.874548 0
M  V30 5662 H 552.242 -1.20684 -4.03749 0
M  V30 5663 H 550.917 -0.334289 -3.21969 0
M  V30 5664 H 549.824 -2.59201 -2.69751 0
M  V30 5665 H 551.157 -3.39606 -3.5627 0
M  V30 5666 N 552.809 0.956637 -1.25245 0
M  V30 5667 C 554.056 1.701 -1.09874 0
M  V30 5668 C 554.384 1.91128 0.36062 0
M  V30 5669 O 553.639 1.47837 1.28229 0
M  V30 5670 C 553.938 3.08996 -1.79601 0
M  V30 5671 C 553.604 3.07774 -3.29523 0
M  V30 5672 C 552.266 3.07149 -3.70423 0
M  V30 5673 C 554.618 3.01257 -4.25316 0
M  V30 5674 C 551.946 2.97752 -5.0553 0
M  V30 5675 C 554.298 2.93403 -5.60444 0
M  V30 5676 C 552.962 2.91111 -6.00675 0
M  V30 5677 H 552.232 0.62244 -0.402056 0
M  V30 5678 H 554.879 1.1178 -1.55491 0
M  V30 5679 H 553.184 3.70848 -1.26408 0
M  V30 5680 H 554.881 3.65407 -1.65162 0
M  V30 5681 H 551.471 3.09032 -2.9698 0
M  V30 5682 H 555.655 3.00861 -3.9471 0
M  V30 5683 H 550.911 2.94346 -5.35883 0
M  V30 5684 H 555.085 2.87321 -6.34366 0
M  V30 5685 H 552.712 2.83586 -7.05325 0
M  V30 5686 N 554.287 1.06798 1.15896 0
M  V30 5687 C 555.217 0.704677 2.22613 0
M  V30 5688 C 556.198 -0.305252 1.67339 0
M  V30 5689 O 557.383 -0.179247 1.93371 0
M  V30 5690 C 554.513 0.0957325 3.47168 0
M  V30 5691 C 553.467 1.0322 4.15367 0
M  V30 5692 C 552.793 0.286293 5.33933 0
M  V30 5693 C 554.093 2.36341 4.65768 0
M  V30 5694 H 555.787 1.59688 2.53259 0
M  V30 5695 H 553.333 0.769257 1.21731 0
M  V30 5696 H 555.286 -0.170333 4.21056 0
M  V30 5697 H 554.01 -0.831516 3.15838 0
M  V30 5698 H 552.669 1.28309 3.43413 0
M  V30 5699 H 552.317 -0.644237 4.98857 0
M  V30 5700 H 552.017 0.910436 5.80504 0
M  V30 5701 H 553.541 0.0278938 6.10594 0
M  V30 5702 H 554.955 2.1561 5.31211 0
M  V30 5703 H 553.352 2.94299 5.2298 0
M  V30 5704 H 554.422 2.99047 3.81705 0
M  V30 5705 N 555.766 -1.3263 0.851289 0
M  V30 5706 C 557.014 -1.96978 0.452128 0
M  V30 5707 C 557.335 -1.67715 -0.99482 0
M  V30 5708 O 556.605 -0.98259 -1.69476 0
M  V30 5709 H 555.185 -0.72873 0.164202 0
M  V30 5710 H 557.847 -1.61774 1.08698 0
M  V30 5711 H 556.943 -3.06387 0.594407 0
M  V30 5712 N 557.244 -0.608902 -1.45362 0
M  V30 5713 C 558.492 -0.104401 -2.0183 0
M  V30 5714 C 558.813 1.27007 -1.47967 0
M  V30 5715 O 558.083 1.83924 -0.674455 0
M  V30 5716 H 556.663 -0.0356042 -0.746151 0
M  V30 5717 H 559.325 -0.790596 -1.78145 0
M  V30 5718 H 558.421 -0.0551793 -3.12051 0
M  V30 5719 N 558.722 1.53707 -0.348139 0
M  V30 5720 C 559.947 2.05877 0.250883 0
M  V30 5721 C 560.372 1.22115 1.43072 0
M  V30 5722 O 559.73 0.235986 1.79758 0
M  V30 5723 C 559.778 3.54886 0.639416 0
M  V30 5724 O 558.882 3.73948 1.73888 0
M  V30 5725 H 558.223 0.662754 0.040653 0
M  V30 5726 H 560.753 1.98303 -0.503685 0
M  V30 5727 H 560.763 3.97601 0.915295 0
M  V30 5728 H 559.438 4.153 -0.223386 0
M  V30 5729 H 558.015 3.43134 1.45991 0
M  V30 5730 N 560.2 0.0768682 1.57412 0
M  V30 5731 C 561.163 -0.873949 2.11884 0
M  V30 5732 C 562.163 -1.22301 1.04398 0
M  V30 5733 O 563.353 -1.15545 1.30365 0
M  V30 5734 C 560.485 -2.17575 2.62438 0
M  V30 5735 H 561.678 -0.401278 2.97203 0
M  V30 5736 H 559.231 -0.171904 1.55352 0
M  V30 5737 H 559.966 -2.69368 1.80587 0
M  V30 5738 H 559.751 -1.93534 3.41009 0
M  V30 5739 H 561.241 -2.85631 3.04639 0
M  V30 5740 N 561.678 -1.56367 -0.196722 0
M  V30 5741 C 562.955 -1.71359 -0.943159 0
M  V30 5742 C 563.335 -0.631192 -2.01443 0
M  V30 5743 O 562.683 0.358071 -2.25677 0
M  V30 5744 C 562.893 -3.13623 -1.53106 0
M  V30 5745 C 564.241 -3.73806 -2.01381 0
M  V30 5746 O 565.265 -3.16742 -1.62951 0
M  V30 5747 O 564.124 -4.73951 -2.7209 0
M  V30 5748 H 561.218 -0.698851 -0.442195 0
M  V30 5749 H 563.764 -1.68672 -0.186547 0
M  V30 5750 H 562.536 -3.83873 -0.758785 0
M  V30 5751 H 562.159 -3.20532 -2.35255 0
M  V30 5752 N 563.156 0.464375 -1.50603 0
M  V30 5753 C 564.086 1.56944 -1.72889 0
M  V30 5754 C 565.067 1.59979 -0.577997 0
M  V30 5755 O 566.252 1.76138 -0.817855 0
M  V30 5756 C 563.382 2.95225 -1.8292 0
M  V30 5757 C 562.336 3.07056 -2.98162 0
M  V30 5758 C 561.662 4.47051 -2.93343 0
M  V30 5759 C 562.962 2.83648 -4.38567 0
M  V30 5760 H 564.656 1.38547 -2.65415 0
M  V30 5761 H 562.202 0.665082 -1.27721 0
M  V30 5762 H 564.155 3.72467 -1.97095 0
M  V30 5763 H 562.879 3.14793 -0.870209 0
M  V30 5764 H 561.538 2.32248 -2.83648 0
M  V30 5765 H 561.186 4.63547 -1.95276 0
M  V30 5766 H 560.886 4.55902 -3.70712 0
M  V30 5767 H 562.41 5.26304 -3.09575 0
M  V30 5768 H 563.824 3.50636 -4.53572 0
M  V30 5769 H 562.221 3.03937 -5.17438 0
M  V30 5770 H 563.291 1.79451 -4.50472 0
M  V30 5771 N 564.634 1.40294 0.718013 0
M  V30 5772 C 565.597 1.4012 1.81381 0
M  V30 5773 C 566.597 0.295405 1.58063 0
M  V30 5774 O 567.787 0.554187 1.6515 0
M  V30 5775 C 564.919 1.19056 3.19435 0
M  V30 5776 H 566.112 2.37645 1.82933 0
M  V30 5777 H 563.665 1.26107 0.923405 0
M  V30 5778 H 564.4 0.222809 3.23534 0
M  V30 5779 H 564.185 1.99152 3.37758 0
M  V30 5780 H 565.675 1.21716 3.99468 0
M  V30 5781 N 566.112 -0.949982 1.2575 0
M  V30 5782 C 567.523 -1.50989 1.09815 0
M  V30 5783 C 567.874 -1.93497 -0.324556 0
M  V30 5784 O 566.999 -1.79068 -1.21506 0
M  V30 5785 C 567.594 -2.74394 1.98729 0
M  V30 5786 C 566.153 -3.26682 1.86965 0
M  V30 5787 C 565.3 -1.99498 1.92603 0
M  V30 5788 H 568.251 -0.766387 1.38968 0
M  V30 5789 H 568.272 -3.48383 1.53001 0
M  V30 5790 H 567.784 -2.43425 3.02268 0
M  V30 5791 H 565.885 -3.62461 0.863279 0
M  V30 5792 H 565.998 -3.94383 2.72027 0
M  V30 5793 H 564.362 -2.15005 1.36546 0
M  V30 5794 H 565.145 -1.70871 2.97755 0
M  V30 5795 N 567.59 -1.07411 -1.15328 0
M  V30 5796 C 568.815 -0.818856 -1.90551 0
M  V30 5797 C 569.24 0.622194 -1.77512 0
M  V30 5798 O 568.598 1.43484 -1.10824 0
M  V30 5799 C 568.646 -1.23267 -3.38877 0
M  V30 5800 O 567.75 -0.378345 -4.10661 0
M  V30 5801 H 567.091 -0.29827 -0.593238 0
M  V30 5802 H 569.621 -1.43289 -1.46046 0
M  V30 5803 H 569.631 -1.20912 -3.89672 0
M  V30 5804 H 568.306 -2.28226 -3.47686 0
M  V30 5805 H 566.883 -0.464437 -3.69996 0
M  V30 5806 N 569.068 1.32177 -0.85831 0
M  V30 5807 C 570.016 2.30729 -0.294442 0
M  V30 5808 C 571.01 1.59009 0.584165 0
M  V30 5809 O 572.216 1.73713 0.471562 0
M  V30 5810 H 568.591 0.748097 -0.0765171 0
M  V30 5811 H 570.562 2.75774 -1.1398 0
M  V30 5812 C 569.311 3.44098 0.499208 0
M  V30 5813 H 568.634 3.99449 -0.167579 0
M  V30 5814 H 570.074 4.15202 0.859273 0
M  V30 5815 C 568.533 2.91684 1.68588 0
M  V30 5816 O 569.063 2.89481 2.78503 0
M  V30 5817 N 567.269 2.48036 1.51415 0
M  V30 5818 H 566.816 2.50027 0.620006 0
M  V30 5819 H 566.774 2.13322 2.30957 0
M  V30 5820 N 570.547 0.616602 1.45037 0
M  V30 5821 C 571.477 -0.0840787 2.33349 0
M  V30 5822 C 572.458 -0.849641 1.4736 0
M  V30 5823 O 573.643 -0.818407 1.76113 0
M  V30 5824 C 570.773 -1.07604 3.3021 0
M  V30 5825 C 569.727 -0.423096 4.25904 0
M  V30 5826 C 569.053 -1.52394 5.12523 0
M  V30 5827 C 570.353 0.661457 5.18095 0
M  V30 5828 H 572.047 0.653333 2.92185 0
M  V30 5829 H 569.593 0.315634 1.40498 0
M  V30 5830 H 571.546 -1.57485 3.90866 0
M  V30 5831 H 570.27 -1.84416 2.69552 0
M  V30 5832 H 568.929 0.05493 3.66559 0
M  V30 5833 H 568.577 -2.28257 4.48227 0
M  V30 5834 H 568.277 -1.09251 5.77354 0
M  V30 5835 H 569.801 -2.02485 5.76049 0
M  V30 5836 H 571.215 0.246353 5.7277 0
M  V30 5837 H 569.612 1.01517 5.91451 0
M  V30 5838 H 570.682 1.53446 4.59981 0
M  V30 5839 N 572.025 -1.5352 0.356285 0
M  V30 5840 C 573.253 -2.05534 -0.237328 0
M  V30 5841 C 573.668 -1.23043 -1.43199 0
M  V30 5842 O 573.025 -0.268821 -1.80509 0
M  V30 5843 C 573.076 -3.55791 -0.639933 0
M  V30 5844 O 572.797 -4.35154 0.507233 0
M  V30 5845 C 574.298 -4.24027 -1.29292 0
M  V30 5846 H 571.518 -0.669585 -0.0435572 0
M  V30 5847 H 574.062 -1.97988 0.511963 0
M  V30 5848 H 572.217 -3.63518 -1.33915 0
M  V30 5849 H 572.631 -5.24178 0.18375 0
M  V30 5850 H 574.105 -5.30509 -1.52527 0
M  V30 5851 H 574.582 -3.77166 -2.25039 0
M  V30 5852 H 575.188 -4.20527 -0.63539 0
M  V30 5853 N 573.503 -0.0852151 -1.57369 0
M  V30 5854 C 574.433 0.874556 -2.16503 0
M  V30 5855 C 575.414 1.30111 -1.09568 0
M  V30 5856 O 576.599 1.36977 -1.37662 0
M  V30 5857 C 573.729 2.13731 -2.73745 0
M  V30 5858 C 572.683 1.84971 -3.85966 0
M  V30 5859 C 572.009 3.17991 -4.29867 0
M  V30 5860 C 573.309 1.14442 -5.09608 0
M  V30 5861 H 575.003 0.381899 -2.96954 0
M  V30 5862 H 572.549 0.18225 -1.42842 0
M  V30 5863 H 574.502 2.81302 -3.13763 0
M  V30 5864 H 573.226 2.65263 -1.90534 0
M  V30 5865 H 571.885 1.19801 -3.46473 0
M  V30 5866 H 571.533 3.6739 -3.4356 0
M  V30 5867 H 571.233 2.99534 -5.05523 0
M  V30 5868 H 572.757 3.86737 -4.72511 0
M  V30 5869 H 574.171 1.72105 -5.46857 0
M  V30 5870 H 572.568 1.06197 -5.90629 0
M  V30 5871 H 573.638 0.12559 -4.84737 0
M  V30 5872 N 574.981 1.5647 0.188427 0
M  V30 5873 C 576.227 1.82181 0.904534 0
M  V30 5874 C 576.582 0.663258 1.80606 0
M  V30 5875 O 575.875 -0.341231 1.88537 0
M  V30 5876 C 576.069 3.11596 1.7505 0
M  V30 5877 C 575.898 4.39928 0.932372 0
M  V30 5878 C 574.668 5.01554 0.61417 0
M  V30 5879 C 576.866 5.13527 0.281936 0
M  V30 5880 N 574.848 6.13499 -0.221896 0
M  V30 5881 C 576.219 6.18603 -0.416037 0
M  V30 5882 C 578.274 4.97505 0.198345 0
M  V30 5883 C 576.977 7.09394 -1.18965 0
M  V30 5884 C 579.003 5.88725 -0.561887 0
M  V30 5885 C 578.365 6.93251 -1.24828 0
M  V30 5886 H 574.464 0.717858 0.310168 0
M  V30 5887 H 577.048 1.93932 0.172757 0
M  V30 5888 H 575.219 3.01068 2.45383 0
M  V30 5889 H 576.951 3.25369 2.4066 0
M  V30 5890 H 573.706 4.64174 0.940187 0
M  V30 5891 H 574.13 6.74065 -0.629735 0
M  V30 5892 H 578.772 4.16716 0.714665 0
M  V30 5893 H 576.49 7.8964 -1.71737 0
M  V30 5894 H 580.076 5.78401 -0.628009 0
M  V30 5895 H 578.956 7.62618 -1.82712 0
M  V30 5896 N 576.459 -0.456382 1.50847 0
M  V30 5897 C 577.684 -1.2349 1.66628 0
M  V30 5898 C 578.109 -1.84715 0.355254 0
M  V30 5899 O 577.467 -1.67961 -0.682559 0
M  V30 5900 C 577.515 -2.30865 2.77009 0
M  V30 5901 O 576.619 -3.35882 2.39285 0
M  V30 5902 H 575.96 -0.36266 0.556214 0
M  V30 5903 H 578.49 -0.541374 1.97308 0
M  V30 5904 H 578.5 -2.75949 3.00526 0
M  V30 5905 H 577.175 -1.85677 3.72152 0
M  V30 5906 H 575.752 -2.96406 2.26269 0
M  V30 5907 N 577.937 -1.40673 -0.710563 0
M  V30 5908 C 579.185 -1.38947 -1.46759 0
M  V30 5909 C 579.506 0.00572879 -1.94999 0
M  V30 5910 O 578.776 0.961358 -1.70689 0
M  V30 5911 H 577.356 -0.5114 -0.544499 0
M  V30 5912 H 580.018 -1.75773 -0.842012 0
M  V30 5913 H 579.114 -2.06745 -2.33801 0
M  V30 5914 N 579.415 0.9433 -1.26252 0
M  V30 5915 C 580.64 1.72898 -1.14547 0
M  V30 5916 C 581.065 1.85761 0.295743 0
M  V30 5917 O 580.423 1.3463 1.21427 0
M  V30 5918 C 580.471 3.11471 -1.8171 0
M  V30 5919 O 579.575 3.97336 -1.10445 0
M  V30 5920 H 578.916 0.530555 -0.399259 0
M  V30 5921 H 581.446 1.18159 -1.67032 0
M  V30 5922 H 581.456 3.61872 -1.88449 0
M  V30 5923 H 580.131 3.01425 -2.86558 0
M  V30 5924 H 578.708 3.55788 -1.11666 0
M  V30 5925 N 580.893 1.08022 1.14757 0
M  V30 5926 C 581.84 0.706657 2.19716 0
M  V30 5927 C 582.81 -0.30525 1.63271 0
M  V30 5928 O 583.995 -0.19015 1.8985 0
M  V30 5929 C 581.135 0.117914 3.44898 0
M  V30 5930 C 580.248 1.18212 4.15512 0
M  V30 5931 C 579.383 0.557659 5.28265 0
M  V30 5932 C 578.422 1.60418 5.90705 0
M  V30 5933 N 577.559 1.0018 6.94916 0
M  V30 5934 H 582.399 1.60603 2.51019 0
M  V30 5935 H 579.936 0.802664 1.23271 0
M  V30 5936 H 581.894 -0.241112 4.16503 0
M  V30 5937 H 580.524 -0.744788 3.1409 0
M  V30 5938 H 579.576 1.65863 3.42335 0
M  V30 5939 H 580.888 1.97533 4.5802 0
M  V30 5940 H 580.042 0.146654 6.06523 0
M  V30 5941 H 578.781 -0.267249 4.86967 0
M  V30 5942 H 577.786 2.02489 5.11154 0
M  V30 5943 H 579.011 2.43149 6.34078 0
M  V30 5944 H 576.957 0.197917 6.55701 0
M  V30 5945 H 576.874 1.73216 7.35889 0
M  V30 5946 H 578.142 0.616523 7.77058 0
M  V30 5947 N 582.371 -1.3172 0.865308 0
M  V30 5948 C 583.334 -2.26918 0.322627 0
M  V30 5949 C 584.334 -1.52031 -0.523751 0
M  V30 5950 O 585.524 -1.70973 -0.333727 0
M  V30 5951 C 582.656 -3.36558 -0.542338 0
M  V30 5952 H 583.849 -2.76432 1.16298 0
M  V30 5953 H 581.402 -1.42573 0.640512 0
M  V30 5954 H 582.137 -2.92329 -1.40407 0
M  V30 5955 H 581.922 -3.92048 0.0636395 0
M  V30 5956 H 583.412 -4.07465 -0.91446 0
M  V30 5957 N 583.85 -0.624285 -1.44708 0
M  V30 5958 C 585.099 -0.123539 -2.01321 0
M  V30 5959 C 585.412 1.25966 -1.49639 0
M  V30 5960 O 586.618 1.85405 -1.98336 0
M  V30 5961 C 585.074 -0.170124 -3.59498 0
M  V30 5962 C 584.682 -1.55421 -4.20176 0
M  V30 5963 C 586.426 0.274513 -4.23611 0
M  V30 5964 C 584.332 -1.55628 -5.70556 0
M  V30 5965 H 583.263 -0.0424183 -0.752806 0
M  V30 5966 H 585.913 -0.782076 -1.65999 0
M  V30 5967 H 584.296 0.555385 -3.92086 0
M  V30 5968 H 585.47 -2.30276 -3.99136 0
M  V30 5969 H 583.784 -1.94235 -3.68323 0
M  V30 5970 H 586.382 0.292402 -5.339 0
M  V30 5971 H 586.725 1.3005 -3.95465 0
M  V30 5972 H 587.258 -0.398275 -3.95801 0
M  V30 5973 H 583.997 -2.56041 -6.03426 0
M  V30 5974 H 583.517 -0.850563 -5.93739 0
M  V30 5975 H 585.196 -1.28721 -6.34066 0
M  V30 5976 N 585.328 1.53329 -0.364422 0
M  V30 5977 C 586.276 2.27212 0.497737 0
M  V30 5978 C 587.27 1.30146 1.08437 0
M  V30 5979 O 588.476 1.47778 1.0277 0
M  V30 5980 H 584.851 0.730329 0.179232 0
M  V30 5981 H 586.822 2.98037 -0.147182 0
M  V30 5982 C 585.571 3.07333 1.6261 0
M  V30 5983 H 584.894 3.81866 1.184 0
M  V30 5984 H 586.334 3.62209 2.20409 0
M  V30 5985 C 584.793 2.18102 2.56775 0
M  V30 5986 O 585.323 1.79104 3.59562 0
M  V30 5987 N 583.529 1.82759 2.25937 0
M  V30 5988 H 583.076 2.14671 1.42387 0
M  V30 5989 H 583.034 1.23342 2.89196 0
M  V30 5990 N 586.806 0.0935595 1.57322 0
M  V30 5991 C 587.716 -0.880192 2.17462 0
M  V30 5992 C 588.732 -1.31135 1.14366 0
M  V30 5993 O 589.908 -1.37958 1.46729 0
M  V30 5994 C 586.973 -2.12184 2.74188 0
M  V30 5995 C 586.034 -1.74503 3.92234 0
M  V30 5996 C 585.267 -2.92748 4.46245 0
M  V30 5997 O 585.49 -4.07427 3.99198 0
M  V30 5998 O 584.424 -2.71303 5.37288 0
M  V30 5999 H 588.25 -0.398516 3.01074 0
M  V30 6000 H 585.835 -0.130707 1.48827 0
M  V30 6001 H 587.717 -2.84953 3.10451 0
M  V30 6002 H 586.392 -2.59407 1.93623 0
M  V30 6003 H 585.299 -0.989186 3.60785 0
M  V30 6004 H 586.632 -1.32044 4.74157 0
M  V30 6005 N 588.284 -1.56567 -0.180126 0
M  V30 6006 C 589.561 -1.7235 -0.924931 0
M  V30 6007 C 589.941 -0.652523 -2.00762 0
M  V30 6008 O 589.289 0.334115 -2.26044 0
M  V30 6009 C 589.499 -3.1523 -1.49771 0
M  V30 6010 C 590.847 -3.75921 -1.97405 0
M  V30 6011 O 591.871 -3.18452 -1.59583 0
M  V30 6012 O 590.73 -4.7681 -2.67048 0
M  V30 6013 H 587.824 -0.703502 -0.434758 0
M  V30 6014 H 590.37 -1.6886 -0.168647 0
M  V30 6015 H 589.142 -3.84656 -0.718027 0
M  V30 6016 H 588.765 -3.23009 -2.31842 0
M  V30 6017 N 589.762 0.448376 -1.51087 0
M  V30 6018 C 590.725 1.52588 -1.71025 0
M  V30 6019 C 591.725 1.49958 -0.580442 0
M  V30 6020 O 592.915 1.52176 -0.847833 0
M  V30 6021 C 590.047 2.92163 -1.75652 0
M  V30 6022 H 591.24 1.36218 -2.67179 0
M  V30 6023 H 588.793 0.676313 -1.4091 0
M  V30 6024 H 589.528 3.13951 -0.812724 0
M  V30 6025 H 589.313 2.95478 -2.57751 0
M  V30 6026 H 590.803 3.70349 -1.92953 0
M  V30 6027 N 591.24 1.41047 0.703093 0
M  V30 6028 C 592.203 1.42036 1.79884 0
M  V30 6029 C 593.203 0.312153 1.57741 0
M  V30 6030 O 594.393 0.571672 1.64553 0
M  V30 6031 C 591.525 1.22437 3.18154 0
M  V30 6032 H 592.718 2.39572 1.80403 0
M  V30 6033 H 590.271 1.27079 0.909977 0
M  V30 6034 H 591.006 0.257112 3.23279 0
M  V30 6035 H 590.791 2.02723 3.35627 0
M  V30 6036 H 592.281 1.25946 3.98155 0
M  V30 6037 N 592.718 -0.936591 1.26751 0
M  V30 6038 C 593.966 -1.67998 1.12343 0
M  V30 6039 C 594.287 -1.92137 -0.332938 0
M  V30 6040 O 593.557 -1.52132 -1.23421 0
M  V30 6041 H 592.137 -0.622609 0.412756 0
M  V30 6042 H 594.799 -1.12509 1.59147 0
M  V30 6043 H 593.895 -2.65185 1.64571 0
M  V30 6044 N 594.196 -1.08629 -1.14182 0
M  V30 6045 C 595.144 -0.71284 -2.21408 0
M  V30 6046 C 596.138 0.282457 -1.67029 0
M  V30 6047 O 597.344 0.144783 -1.79417 0
M  V30 6048 H 593.719 -0.212497 -0.721352 0
M  V30 6049 H 595.69 -1.6265 -2.50175 0
M  V30 6050 C 594.439 -0.140704 -3.47415 0
M  V30 6051 H 593.762 -0.897739 -3.8959 0
M  V30 6052 H 595.202 0.0827677 -4.23919 0
M  V30 6053 C 593.661 1.122 -3.17668 0
M  V30 6054 O 594.191 2.20652 -3.35672 0
M  V30 6055 N 592.397 1.03328 -2.71609 0
M  V30 6056 H 591.944 0.150666 -2.57159 0
M  V30 6057 H 591.902 1.8789 -2.52081 0
M  V30 6058 N 595.674 1.31259 -0.872281 0
M  V30 6059 C 596.904 2.00504 -0.498183 0
M  V30 6060 C 597.312 1.65632 0.914479 0
M  V30 6061 O 596.655 0.882849 1.61095 0
M  V30 6062 C 596.717 3.5482 -0.578194 0
M  V30 6063 C 596.381 4.13172 -1.95289 0
M  V30 6064 C 597.378 4.30107 -2.92069 0
M  V30 6065 C 595.063 4.48846 -2.25483 0
M  V30 6066 C 597.057 4.81908 -4.17185 0
M  V30 6067 C 594.744 5.00349 -3.50847 0
M  V30 6068 C 595.742 5.16831 -4.46514 0
M  V30 6069 O 595.43 5.67228 -5.69656 0
M  V30 6070 H 595.162 0.648055 -0.192354 0
M  V30 6071 H 597.716 1.6841 -1.17589 0
M  V30 6072 H 595.946 3.86383 0.156438 0
M  V30 6073 H 597.635 4.05318 -0.217192 0
M  V30 6074 H 598.401 4.02862 -2.7005 0
M  V30 6075 H 594.28 4.35292 -1.51795 0
M  V30 6076 H 597.824 4.94688 -4.91863 0
M  V30 6077 H 593.721 5.27028 -3.72708 0
M  V30 6078 H 594.489 5.85592 -5.7186 0
M  V30 6079 N 597.152 0.631951 1.44375 0
M  V30 6080 C 598.401 0.134214 2.01253 0
M  V30 6081 C 598.714 -1.25171 1.50305 0
M  V30 6082 O 599.92 -1.8435 1.99317 0
M  V30 6083 C 598.376 0.189187 3.59402 0
M  V30 6084 C 597.984 1.57647 4.19346 0
M  V30 6085 C 599.728 -0.252044 4.23751 0
M  V30 6086 C 597.635 1.58651 5.69722 0
M  V30 6087 H 596.565 0.0464101 0.75257 0
M  V30 6088 H 599.216 0.790868 1.65582 0
M  V30 6089 H 597.598 -0.534584 3.92375 0
M  V30 6090 H 598.772 2.32389 3.97909 0
M  V30 6091 H 597.087 1.96186 3.67288 0
M  V30 6092 H 599.684 -0.264084 5.34047 0
M  V30 6093 H 600.027 -1.27951 3.96149 0
M  V30 6094 H 600.56 0.41926 3.95584 0
M  V30 6095 H 597.299 2.59237 6.0206 0
M  V30 6096 H 596.819 0.882039 5.93279 0
M  V30 6097 H 598.498 1.32082 6.33375 0
M  V30 6098 N 598.631 -1.53133 0.372548 0
M  V30 6099 C 599.581 -2.22733 -0.487218 0
M  V30 6100 C 600.565 -1.22506 -1.04312 0
M  V30 6101 O 601.757 -1.47923 -0.972005 0
M  V30 6102 C 598.886 -3.02524 -1.62278 0
M  V30 6103 C 597.972 -4.10133 -1.07943 0
M  V30 6104 N 598.363 -5.05133 -0.259629 0
M  V30 6105 C 596.661 -4.24964 -1.35356 0
M  V30 6106 C 597.362 -5.81687 0.0386656 0
M  V30 6107 N 596.338 -5.40699 -0.560827 0
M  V30 6108 H 600.14 -2.93538 0.145853 0
M  V30 6109 H 597.654 -1.61389 0.180938 0
M  V30 6110 H 599.651 -3.50909 -2.25096 0
M  V30 6111 H 598.311 -2.33252 -2.25884 0
M  V30 6112 H 599.322 -5.178 0.101746 0
M  V30 6113 H 595.999 -3.66919 -1.9919 0
M  V30 6114 H 597.389 -6.68224 0.701841 0
M  V30 6115 N 600.109 -0.101901 -1.5727 0
M  V30 6116 C 601.339 0.567568 -1.98651 0
M  V30 6117 C 601.747 1.61839 -0.980037 0
M  V30 6118 O 601.09 1.83661 0.0376564 0
M  V30 6119 C 601.152 1.26742 -3.36417 0
M  V30 6120 C 600.816 0.366561 -4.55528 0
M  V30 6121 C 601.813 -0.388022 -5.1845 0
M  V30 6122 C 599.498 0.282629 -5.01504 0
M  V30 6123 C 601.492 -1.21445 -6.25724 0
M  V30 6124 C 599.179 -0.547443 -6.08643 0
M  V30 6125 C 600.177 -1.29462 -6.70618 0
M  V30 6126 O 599.865 -2.11095 -7.7569 0
M  V30 6127 H 599.597 0.156282 -0.657687 0
M  V30 6128 H 602.151 -0.179912 -2.04611 0
M  V30 6129 H 600.381 2.06162 -3.27161 0
M  V30 6130 H 602.07 1.8321 -3.622 0
M  V30 6131 H 602.836 -0.332949 -4.83856 0
M  V30 6132 H 598.715 0.853868 -4.53023 0
M  V30 6133 H 602.259 -1.79814 -6.74027 0
M  V30 6134 H 598.156 -0.603971 -6.42668 0
M  V30 6135 H 598.924 -2.03851 -7.92709 0
M  V30 6136 N 601.587 1.56661 0.17182 0
M  V30 6137 C 602.835 1.81606 0.886774 0
M  V30 6138 C 603.156 0.678818 1.82803 0
M  V30 6139 O 602.426 -0.301354 1.93568 0
M  V30 6140 H 601.006 0.669934 0.330451 0
M  V30 6141 H 603.668 1.94142 0.171757 0
M  V30 6142 H 602.764 2.75634 1.46398 0
M  V30 6143 N 603.065 -0.440357 1.51323 0
M  V30 6144 C 604.311 -1.19181 1.64085 0
M  V30 6145 C 604.644 -1.90936 0.354575 0
M  V30 6146 O 603.919 -1.8347 -0.645675 0
M  V30 6147 C 604.202 -2.2112 2.84215 0
M  V30 6148 C 604.055 -1.53468 4.22809 0
M  V30 6149 C 605.374 -3.22133 2.99864 0
M  V30 6150 H 602.493 -0.431924 0.597169 0
M  V30 6151 H 605.135 -0.481443 1.83799 0
M  V30 6152 H 603.285 -2.81703 2.67537 0
M  V30 6153 H 604.957 -0.962455 4.51148 0
M  V30 6154 H 603.2 -0.837086 4.25647 0
M  V30 6155 H 603.871 -2.27694 5.02852 0
M  V30 6156 H 606.347 -2.71601 3.15233 0
M  V30 6157 H 605.223 -3.90756 3.85488 0
M  V30 6158 H 605.484 -3.88061 2.11804 0
M  V30 6159 N 604.543 -1.41418 -0.695603 0
M  V30 6160 C 605.959 -1.23887 -1.00619 0
M  V30 6161 C 606.159 -0.128206 -2.01092 0
M  V30 6162 O 605.215 0.507408 -2.47349 0
M  V30 6163 C 606.528 -2.58816 -1.53083 0
M  V30 6164 C 608.076 -2.65998 -1.64967 0
M  V30 6165 C 608.551 -4.01244 -2.20833 0
M  V30 6166 N 610.042 -4.0309 -2.28194 0
M  V30 6167 C 610.777 -5.04539 -2.72448 0
M  V30 6168 N 610.273 -6.16378 -3.16306 0
M  V30 6169 N 612.066 -4.91901 -2.72011 0
M  V30 6170 H 604.217 -2.12379 -0.0300061 0
M  V30 6171 H 606.48 -0.944958 -0.0758797 0
M  V30 6172 H 606.186 -3.40842 -0.867147 0
M  V30 6173 H 606.06 -2.81299 -2.51298 0
M  V30 6174 H 608.447 -1.84331 -2.30448 0
M  V30 6175 H 608.528 -2.47325 -0.652982 0
M  V30 6176 H 608.172 -4.83359 -1.55968 0
M  V30 6177 H 608.102 -4.17257 -3.21254 0
M  V30 6178 H 610.593 -3.22341 -1.97242 0
M  V30 6179 H 610.906 -6.89658 -3.487 0
M  V30 6180 H 609.251 -6.19914 -3.14215 0
M  V30 6181 H 612.442 -4.03613 -2.37095 0
M  V30 6182 H 612.615 -5.71102 -3.06181 0
M  V30 6183 N 606.021 0.929856 -1.27246 0
M  V30 6184 C 606.931 2.0636 -1.11592 0
M  V30 6185 C 607.947 1.73938 -0.046496 0
M  V30 6186 O 609.123 1.9981 -0.252544 0
M  V30 6187 C 606.188 3.38213 -0.762437 0
M  V30 6188 C 605.249 3.84346 -1.9125 0
M  V30 6189 C 604.482 5.09906 -1.57579 0
M  V30 6190 O 604.705 5.68354 -0.482694 0
M  V30 6191 O 603.639 5.51359 -2.41426 0
M  V30 6192 H 607.465 2.22478 -2.0673 0
M  V30 6193 H 605.05 1.04865 -1.06413 0
M  V30 6194 H 606.932 4.1741 -0.57854 0
M  V30 6195 H 605.607 3.23307 0.159439 0
M  V30 6196 H 604.514 3.06045 -2.15144 0
M  V30 6197 H 605.847 4.0379 -2.81451 0
M  V30 6198 N 607.499 1.09233 1.13605 0
M  V30 6199 C 608.746 0.827159 1.84836 0
M  V30 6200 C 609.074 -0.647199 1.83416 0
M  V30 6201 O 608.329 -1.49228 1.26608 0
M  V30 6202 C 608.628 1.305 3.32723 0
M  V30 6203 C 608.294 2.78864 3.54325 0
M  V30 6204 C 606.956 3.19382 3.59928 0
M  V30 6205 C 609.308 3.74532 3.62457 0
M  V30 6206 C 606.636 4.54346 3.71196 0
M  V30 6207 C 608.988 5.09283 3.75252 0
M  V30 6208 C 607.652 5.49394 3.79108 0
M  V30 6209 H 606.922 0.302679 0.676363 0
M  V30 6210 H 609.569 1.36676 1.34134 0
M  V30 6211 H 607.874 0.68517 3.85762 0
M  V30 6212 H 609.571 1.07648 3.86281 0
M  V30 6213 H 606.161 2.46507 3.50617 0
M  V30 6214 H 610.345 3.44343 3.57409 0
M  V30 6215 H 605.601 4.84864 3.72447 0
M  V30 6216 H 609.775 5.83269 3.80487 0
M  V30 6217 H 607.402 6.5397 3.87591 0
M  V30 6218 N 608.977 -1.30795 0.87923 0
M  V30 6219 C 610.225 -1.95974 0.493809 0
M  V30 6220 C 610.546 -1.69787 -0.959021 0
M  V30 6221 O 609.816 -1.01832 -1.67353 0
M  V30 6222 H 608.396 -0.725083 0.179622 0
M  V30 6223 H 611.058 -1.59432 1.12105 0
M  V30 6224 H 610.154 -3.05058 0.659263 0
M  V30 6225 N 610.455 -0.639598 -1.44038 0
M  V30 6226 C 611.388 0.109736 -2.27936 0
M  V30 6227 C 612.366 0.843095 -1.39035 0
M  V30 6228 O 613.55 0.845456 -1.68476 0
M  V30 6229 C 610.677 1.16173 -3.18153 0
M  V30 6230 C 609.723 0.527954 -4.2322 0
M  V30 6231 S 610.556 -0.688318 -5.31058 0
M  V30 6232 C 611.712 0.363481 -6.24844 0
M  V30 6233 H 611.945 -0.601986 -2.91142 0
M  V30 6234 H 609.478 -0.42802 -1.48349 0
M  V30 6235 H 611.436 1.76372 -3.7068 0
M  V30 6236 H 610.097 1.84569 -2.54151 0
M  V30 6237 H 609.29 1.32054 -4.86393 0
M  V30 6238 H 608.892 0.000396444 -3.74 0
M  V30 6239 H 611.184 1.23362 -6.66174 0
M  V30 6240 H 612.127 -0.23288 -7.07717 0
M  V30 6241 H 612.535 0.693179 -5.60228 0
M  V30 6242 N 611.933 1.52934 -0.380664 0
M  V30 6243 C 613.161 2.05886 0.204599 0
M  V30 6244 C 613.576 1.25305 1.41223 0
M  V30 6245 O 612.933 0.297504 1.80059 0
M  V30 6246 C 612.984 3.56764 0.583249 0
M  V30 6247 O 612.705 4.34292 -0.576398 0
M  V30 6248 C 614.206 4.2603 1.2253 0
M  V30 6249 H 611.426 0.670193 0.0328991 0
M  V30 6250 H 613.97 1.97148 -0.543397 0
M  V30 6251 H 612.125 3.65603 1.28115 0
M  V30 6252 H 612.539 5.23819 -0.267119 0
M  V30 6253 H 614.013 5.32868 1.44068 0
M  V30 6254 H 614.49 3.80698 2.19011 0
M  V30 6255 H 615.096 4.21485 0.568407 0
M  V30 6256 N 613.412 0.11024 1.57214 0
M  V30 6257 C 614.375 -0.828808 2.1369 0
M  V30 6258 C 615.375 -1.20059 1.06969 0
M  V30 6259 O 616.565 -1.12754 1.32786 0
M  V30 6260 C 613.697 -2.11959 2.66994 0
M  V30 6261 H 614.89 -0.338146 2.97988 0
M  V30 6262 H 612.443 -0.138913 1.55681 0
M  V30 6263 H 613.178 -2.65476 1.8626 0
M  V30 6264 H 612.963 -1.86258 3.45037 0
M  V30 6265 H 614.453 -2.79105 3.10629 0
M  V30 6266 N 614.89 -1.56749 -0.16351 0
M  V30 6267 C 616.139 -1.81626 -0.877211 0
M  V30 6268 C 616.452 -0.688791 -1.83071 0
M  V30 6269 O 617.658 -0.822697 -2.58735 0
M  V30 6270 C 616.114 -3.21858 -1.61045 0
M  V30 6271 C 615.722 -4.42494 -0.700195 0
M  V30 6272 C 617.466 -3.56021 -2.31192 0
M  V30 6273 C 615.373 -5.73748 -1.43412 0
M  V30 6274 H 614.303 -0.67731 -0.331312 0
M  V30 6275 H 616.954 -1.83039 -0.13006 0
M  V30 6276 H 615.336 -3.14784 -2.40264 0
M  V30 6277 H 616.51 -4.60766 0.0555849 0
M  V30 6278 H 614.825 -4.1626 -0.10799 0
M  V30 6279 H 617.422 -4.51333 -2.8671 0
M  V30 6280 H 617.765 -2.81277 -3.06902 0
M  V30 6281 H 618.298 -3.64682 -1.58909 0
M  V30 6282 H 615.037 -6.51543 -0.719186 0
M  V30 6283 H 614.557 -5.5944 -2.16302 0
M  V30 6284 H 616.236 -6.15975 -1.9795 0
M  V30 6285 N 616.368 0.432326 -1.51554 0
M  V30 6286 C 617.331 1.50765 -1.72634 0
M  V30 6287 C 618.331 1.49334 -0.596314 0
M  V30 6288 O 619.521 1.51268 -0.863925 0
M  V30 6289 C 616.653 2.90284 -1.7874 0
M  V30 6290 H 617.846 1.33377 -2.68609 0
M  V30 6291 H 615.399 0.661329 -1.4162 0
M  V30 6292 H 616.134 3.13071 -0.845977 0
M  V30 6293 H 615.919 2.92727 -2.6087 0
M  V30 6294 H 617.409 3.68282 -1.96871 0
M  V30 6295 N 617.846 1.41785 0.688094 0
M  V30 6296 C 618.794 1.44436 1.82321 0
M  V30 6297 C 619.788 0.321544 1.6632 0
M  V30 6298 O 620.994 0.493931 1.73091 0
M  V30 6299 H 617.369 0.452084 0.600936 0
M  V30 6300 H 619.34 2.40087 1.77202 0
M  V30 6301 C 618.089 1.35071 3.20392 0
M  V30 6302 H 617.412 2.2076 3.33324 0
M  V30 6303 H 618.852 1.40988 3.99873 0
M  V30 6304 C 617.311 0.0639127 3.36839 0
M  V30 6305 O 617.841 -0.888495 3.91751 0
M  V30 6306 N 616.047 -0.0146114 2.90596 0
M  V30 6307 H 615.594 0.761191 2.46097 0
M  V30 6308 H 615.552 -0.874988 3.01979 0
M  V30 6309 N 619.324 -0.923095 1.27737 0
M  V30 6310 C 620.572 -1.66797 1.14119 0
M  V30 6311 C 620.893 -1.92479 -0.312541 0
M  V30 6312 O 620.163 -1.53432 -1.218 0
M  V30 6313 H 618.743 -0.618196 0.419336 0
M  V30 6314 H 621.405 -1.10815 1.60331 0
M  V30 6315 H 620.501 -2.63424 1.67374 0
M  V30 6316 N 620.802 -1.09834 -1.13024 0
M  V30 6317 C 622.051 -0.831806 -1.83749 0
M  V30 6318 C 622.364 0.644763 -1.84668 0
M  V30 6319 O 623.57 1.02697 -2.51327 0
M  V30 6320 C 622.026 -1.43817 -3.29916 0
M  V30 6321 C 621.634 -2.94759 -3.37374 0
M  V30 6322 C 623.378 -1.25077 -4.05655 0
M  V30 6323 C 621.285 -3.48461 -4.77838 0
M  V30 6324 H 620.215 -0.30751 -0.688443 0
M  V30 6325 H 622.866 -1.32156 -1.27307 0
M  V30 6326 H 621.248 -0.876106 -3.86187 0
M  V30 6327 H 622.422 -3.57228 -2.91076 0
M  V30 6328 H 620.737 -3.12581 -2.75103 0
M  V30 6329 H 623.334 -1.62649 -5.09362 0
M  V30 6330 H 623.677 -0.191782 -4.15858 0
M  V30 6331 H 624.21 -1.78057 -3.55725 0
M  V30 6332 H 620.949 -4.53998 -4.72828 0
M  V30 6333 H 620.469 -2.90757 -5.24615 0
M  V30 6334 H 622.148 -3.45914 -5.46766 0
M  V30 6335 N 622.28 1.30327 -0.886154 0
M  V30 6336 C 623.505 2.0079 -0.519425 0
M  V30 6337 C 623.93 1.65979 0.885013 0
M  V30 6338 O 623.288 0.877043 1.58675 0
M  V30 6339 C 623.336 3.53686 -0.702758 0
M  V30 6340 O 622.44 4.11637 0.250828 0
M  V30 6341 H 621.781 0.63171 -0.204544 0
M  V30 6342 H 624.311 1.66145 -1.19402 0
M  V30 6343 H 624.321 4.03531 -0.602207 0
M  V30 6344 H 622.996 3.78361 -1.72673 0
M  V30 6345 H 621.573 3.72755 0.103873 0
M  V30 6346 N 623.758 0.647228 1.43697 0
M  V30 6347 C 624.688 -0.0345631 2.33474 0
M  V30 6348 C 625.669 -0.818193 1.4913 0
M  V30 6349 O 626.854 -0.780867 1.77809 0
M  V30 6350 C 623.984 -1.00576 3.32418 0
M  V30 6351 C 622.938 -0.33266 4.26705 0
M  V30 6352 C 622.264 -1.41489 5.1564 0
M  V30 6353 C 623.564 0.771204 5.16575 0
M  V30 6354 H 625.258 0.715163 2.90733 0
M  V30 6355 H 622.804 0.345364 1.39797 0
M  V30 6356 H 624.757 -1.49159 3.94119 0
M  V30 6357 H 623.481 -1.78657 2.73403 0
M  V30 6358 H 622.14 0.13267 3.6636 0
M  V30 6359 H 621.788 -2.18698 4.52968 0
M  V30 6360 H 621.488 -0.969799 5.79542 0
M  V30 6361 H 623.012 -1.9022 5.80214 0
M  V30 6362 H 624.426 0.36779 5.72119 0
M  V30 6363 H 622.823 1.1404 5.89165 0
M  V30 6364 H 623.893 1.63169 4.56622 0
M  V30 6365 N 625.236 -1.5273 0.388769 0
M  V30 6366 C 626.186 -2.23238 -0.463567 0
M  V30 6367 C 627.17 -1.23606 -1.03007 0
M  V30 6368 O 628.362 -1.48945 -0.956261 0
M  V30 6369 C 625.491 -3.04228 -1.5906 0
M  V30 6370 C 624.577 -4.11255 -1.03587 0
M  V30 6371 N 624.968 -5.0538 -0.206038 0
M  V30 6372 C 623.266 -4.26376 -1.30841 0
M  V30 6373 C 623.967 -5.81613 0.100359 0
M  V30 6374 N 622.943 -5.41264 -0.503447 0
M  V30 6375 H 626.745 -2.93367 0.176978 0
M  V30 6376 H 624.259 -1.61188 0.198046 0
M  V30 6377 H 626.256 -3.53277 -2.21362 0
M  V30 6378 H 624.916 -2.35634 -2.23398 0
M  V30 6379 H 625.927 -5.17663 0.156659 0
M  V30 6380 H 622.604 -3.69011 -1.95287 0
M  V30 6381 H 623.994 -6.67442 0.772676 0
M  V30 6382 N 626.714 -0.118576 -1.57153 0
M  V30 6383 C 627.962 0.538461 -1.94795 0
M  V30 6384 C 628.283 1.67243 -1.00274 0
M  V30 6385 O 627.553 1.95811 -0.0589692 0
M  V30 6386 H 626.133 0.201904 -0.719197 0
M  V30 6387 H 628.795 -0.187418 -1.93997 0
M  V30 6388 H 627.891 0.933315 -2.97818 0
M  V30 6389 N 628.193 1.56834 0.155195 0
M  V30 6390 C 629.441 1.82536 0.867462 0
M  V30 6391 C 629.762 0.698168 1.82073 0
M  V30 6392 O 629.032 -0.280807 1.93877 0
M  V30 6393 H 627.612 0.673401 0.323327 0
M  V30 6394 H 630.274 1.94313 0.151156 0
M  V30 6395 H 629.37 2.77171 1.43466 0
M  V30 6396 N 629.671 -0.424282 1.51781 0
M  V30 6397 C 630.918 -1.1726 1.65095 0
M  V30 6398 C 631.246 -1.90881 0.373477 0
M  V30 6399 O 630.501 -1.84835 -0.642997 0
M  V30 6400 C 630.8 -2.20418 2.81337 0
M  V30 6401 C 630.466 -1.63715 4.20129 0
M  V30 6402 C 629.128 -1.47975 4.57883 0
M  V30 6403 C 631.48 -1.22157 5.06682 0
M  V30 6404 C 628.808 -0.891703 5.79884 0
M  V30 6405 C 631.16 -0.647767 6.29275 0
M  V30 6406 C 629.824 -0.477371 6.65791 0
M  V30 6407 H 629.094 -0.429085 0.604125 0
M  V30 6408 H 631.741 -0.461852 1.85847 0
M  V30 6409 H 630.046 -2.97581 2.54859 0
M  V30 6410 H 631.743 -2.78163 2.88836 0
M  V30 6411 H 628.333 -1.76946 3.90369 0
M  V30 6412 H 632.517 -1.33133 4.7811 0
M  V30 6413 H 627.773 -0.747563 6.06813 0
M  V30 6414 H 631.947 -0.317291 6.95677 0
M  V30 6415 H 629.574 -0.0195936 7.60197 0
M  V30 6416 N 631.149 -1.42148 -0.680565 0
M  V30 6417 C 632.079 -1.4796 -1.80638 0
M  V30 6418 C 633.06 -0.336728 -1.66734 0
M  V30 6419 O 634.245 -0.550247 -1.86242 0
M  V30 6420 C 631.375 -1.37569 -3.18892 0
M  V30 6421 C 630.329 -2.49823 -3.47524 0
M  V30 6422 C 629.655 -2.24491 -4.85291 0
M  V30 6423 C 630.955 -3.92144 -3.44994 0
M  V30 6424 H 632.649 -2.42184 -1.76032 0
M  V30 6425 H 630.195 -1.16566 -0.845481 0
M  V30 6426 H 632.148 -1.40243 -3.97379 0
M  V30 6427 H 630.872 -0.398357 -3.24162 0
M  V30 6428 H 629.531 -2.46455 -2.71395 0
M  V30 6429 H 629.179 -1.25066 -4.87204 0
M  V30 6430 H 628.879 -2.99722 -5.05411 0
M  V30 6431 H 630.403 -2.28906 -5.66069 0
M  V30 6432 H 631.817 -3.97145 -4.13459 0
M  V30 6433 H 630.214 -4.67179 -3.76648 0
M  V30 6434 H 631.284 -4.19225 -2.43676 0
M  V30 6435 N 632.627 0.916307 -1.28225 0
M  V30 6436 C 634.038 1.48024 -1.13779 0
M  V30 6437 C 634.389 1.94289 0.273139 0
M  V30 6438 O 633.514 1.82226 1.16716 0
M  V30 6439 C 634.109 2.69029 -2.05935 0
M  V30 6440 C 632.668 3.2161 -1.95561 0
M  V30 6441 C 631.815 1.94321 -1.97825 0
M  V30 6442 H 634.766 0.729272 -1.40951 0
M  V30 6443 H 634.787 3.44204 -1.62184 0
M  V30 6444 H 634.299 2.35325 -3.08616 0
M  V30 6445 H 632.4 3.60045 -0.959076 0
M  V30 6446 H 632.513 3.87032 -2.82388 0
M  V30 6447 H 630.877 2.1131 -1.42198 0
M  V30 6448 H 631.66 1.62917 -3.0218 0
M  V30 6449 N 634.105 1.10431 1.1244 0
M  V30 6450 C 635.335 0.867612 1.87499 0
M  V30 6451 C 635.743 -0.585475 1.79913 0
M  V30 6452 O 635.086 -1.41539 1.171 0
M  V30 6453 C 635.148 1.2374 3.37533 0
M  V30 6454 C 634.812 2.69751 3.68895 0
M  V30 6455 C 635.809 3.67988 3.67261 0
M  V30 6456 C 633.494 3.06135 3.98229 0
M  V30 6457 C 635.488 5.00632 3.9452 0
M  V30 6458 C 633.175 4.38967 4.25149 0
M  V30 6459 C 634.173 5.36025 4.23281 0
M  V30 6460 O 633.861 6.66465 4.49533 0
M  V30 6461 H 633.593 0.311196 0.600111 0
M  V30 6462 H 636.147 1.47257 1.43194 0
M  V30 6463 H 634.377 0.575537 3.82393 0
M  V30 6464 H 636.066 0.978187 3.93937 0
M  V30 6465 H 636.832 3.41224 3.44661 0
M  V30 6466 H 632.711 2.31214 3.98825 0
M  V30 6467 H 636.255 5.7638 3.92978 0
M  V30 6468 H 632.152 4.6547 4.47223 0
M  V30 6469 H 632.92 6.72095 4.67152 0
M  V30 6470 N 635.583 -1.29855 0.893053 0
M  V30 6471 C 636.811 -1.99976 0.530788 0
M  V30 6472 C 637.226 -1.66889 -0.882799 0
M  V30 6473 O 636.583 -0.910352 -1.58173 0
M  V30 6474 C 636.634 -3.54547 0.705587 0
M  V30 6475 O 636.355 -3.86458 2.06353 0
M  V30 6476 C 637.856 -4.41937 0.347387 0
M  V30 6477 H 635.076 -0.639129 0.204339 0
M  V30 6478 H 637.62 -1.65549 1.20057 0
M  V30 6479 H 635.775 -3.87311 0.0830685 0
M  V30 6480 H 636.189 -4.81146 2.08803 0
M  V30 6481 H 637.663 -5.4954 0.520557 0
M  V30 6482 H 638.14 -4.33339 -0.715139 0
M  V30 6483 H 638.746 -4.14633 0.946567 0
M  V30 6484 N 637.061 -0.65484 -1.43351 0
M  V30 6485 C 638.286 -0.175046 -2.0666 0
M  V30 6486 C 638.711 1.15104 -1.4877 0
M  V30 6487 O 638.069 1.71144 -0.598279 0
M  V30 6488 C 638.117 -0.0991544 -3.60464 0
M  V30 6489 O 637.221 0.938169 -4.01587 0
M  V30 6490 H 636.562 -0.0956148 -0.65708 0
M  V30 6491 H 639.092 -0.898222 -1.83829 0
M  V30 6492 H 639.102 0.083632 -4.07914 0
M  V30 6493 H 637.777 -1.06719 -4.01975 0
M  V30 6494 H 636.354 0.72804 -3.65724 0
M  V30 6495 N 638.539 1.52521 -0.396863 0
M  V30 6496 C 639.767 2.06091 0.18275 0
M  V30 6497 C 640.182 1.26796 1.39886 0
M  V30 6498 O 639.539 0.316585 1.79733 0
M  V30 6499 C 639.59 3.57362 0.545377 0
M  V30 6500 O 639.311 4.33656 -0.622428 0
M  V30 6501 C 640.812 4.27305 1.18004 0
M  V30 6502 H 638.032 0.670504 0.025789 0
M  V30 6503 H 640.576 1.96561 -0.564276 0
M  V30 6504 H 638.731 3.66941 1.2423 0
M  V30 6505 H 639.145 5.23507 -0.322662 0
M  V30 6506 H 640.619 5.34366 1.38408 0
M  V30 6507 H 641.096 3.83 2.1496 0
M  V30 6508 H 641.702 4.22064 0.523671 0
M  V30 6509 N 640.017 0.126909 1.57088 0
M  V30 6510 C 641.264 -0.529168 1.95464 0
M  V30 6511 C 641.592 -1.6618 1.01067 0
M  V30 6512 O 640.847 -1.95667 0.0360254 0
M  V30 6513 C 641.146 -1.095 3.40212 0
M  V30 6514 C 640.812 -0.0829015 4.50824 0
M  V30 6515 C 639.474 0.195377 4.80803 0
M  V30 6516 C 641.826 0.606411 5.1766 0
M  V30 6517 C 639.154 1.16912 5.74933 0
M  V30 6518 C 641.506 1.56884 6.12838 0
M  V30 6519 C 640.17 1.85502 6.41206 0
M  V30 6520 H 639.44 -0.193636 0.715252 0
M  V30 6521 H 642.087 0.209489 1.90351 0
M  V30 6522 H 640.392 -1.91058 3.42059 0
M  V30 6523 H 642.089 -1.61087 3.67222 0
M  V30 6524 H 638.679 -0.309979 4.27478 0
M  V30 6525 H 642.863 0.404597 4.94648 0
M  V30 6526 H 638.119 1.3975 5.95214 0
M  V30 6527 H 642.293 2.10859 6.6371 0
M  V30 6528 H 639.92 2.61109 7.13951 0
M  V30 6529 N 641.495 -1.56914 -0.146875 0
M  V30 6530 C 642.425 -2.01308 -1.1831 0
M  V30 6531 C 643.406 -0.892664 -1.44795 0
M  V30 6532 O 644.591 -1.16048 -1.55713 0
M  V30 6533 C 641.721 -2.3938 -2.51624 0
M  V30 6534 C 640.675 -3.54608 -2.3966 0
M  V30 6535 C 640.001 -3.78493 -3.77686 0
M  V30 6536 C 641.301 -4.87269 -1.88058 0
M  V30 6537 H 642.995 -2.88123 -0.813964 0
M  V30 6538 H 640.541 -1.38615 -0.3901 0
M  V30 6539 H 642.494 -2.69037 -3.24341 0
M  V30 6540 H 641.218 -1.49502 -2.90373 0
M  V30 6541 H 639.877 -3.25116 -1.69396 0
M  V30 6542 H 639.525 -2.85866 -4.13871 0
M  V30 6543 H 639.225 -4.56039 -3.70543 0
M  V30 6544 H 640.749 -4.10576 -4.51951 0
M  V30 6545 H 642.163 -5.15644 -2.50568 0
M  V30 6546 H 640.56 -5.68622 -1.91805 0
M  V30 6547 H 641.63 -4.77634 -0.836277 0
M  V30 6548 N 642.974 0.416227 -1.52004 0
M  V30 6549 C 643.907 1.52736 -1.6955 0
M  V30 6550 C 644.885 1.53264 -0.54305 0
M  V30 6551 O 646.069 1.72077 -0.769527 0
M  V30 6552 C 643.196 2.91283 -1.72835 0
M  V30 6553 C 642.242 3.08695 -2.94295 0
M  V30 6554 S 643.075 2.82758 -4.54762 0
M  V30 6555 C 644.231 4.23548 -4.60823 0
M  V30 6556 H 644.464 1.37623 -2.63528 0
M  V30 6557 H 641.997 0.607335 -1.41954 0
M  V30 6558 H 643.955 3.71134 -1.75413 0
M  V30 6559 H 642.616 3.03742 -0.799966 0
M  V30 6560 H 641.809 4.10042 -2.93056 0
M  V30 6561 H 641.411 2.36699 -2.89568 0
M  V30 6562 H 643.703 5.17078 -4.37763 0
M  V30 6563 H 644.646 4.29813 -5.62731 0
M  V30 6564 H 645.054 4.08188 -3.89927 0
M  V30 6565 N 644.452 1.42507 0.673017 0
M  V30 6566 C 645.699 1.43072 1.43306 0
M  V30 6567 C 646.027 0.0478004 1.94441 0
M  V30 6568 O 645.282 -0.944106 1.71421 0
M  V30 6569 C 645.581 2.40351 2.64511 0
M  V30 6570 C 645.247 3.8669 2.31908 0
M  V30 6571 C 643.909 4.26551 2.22728 0
M  V30 6572 C 646.261 4.78991 2.05467 0
M  V30 6573 C 643.589 5.56691 1.85234 0
M  V30 6574 C 645.941 6.09476 1.69477 0
M  V30 6575 C 644.605 6.48334 1.58808 0
M  V30 6576 H 643.875 0.523536 0.524395 0
M  V30 6577 H 646.522 1.75459 0.76723 0
M  V30 6578 H 644.827 2.01297 3.36135 0
M  V30 6579 H 646.524 2.38051 3.22696 0
M  V30 6580 H 643.114 3.55132 2.39956 0
M  V30 6581 H 647.298 4.48982 2.11492 0
M  V30 6582 H 642.554 5.85657 1.75545 0
M  V30 6583 H 646.728 6.80482 1.48043 0
M  V30 6584 H 644.355 7.49084 1.29525 0
M  V30 6585 N 645.93 -0.909495 1.28709 0
M  V30 6586 C 647.176 -1.66151 1.16283 0
M  V30 6587 C 647.509 -1.92067 -0.287069 0
M  V30 6588 O 646.784 -1.52409 -1.20837 0
M  V30 6589 C 647.067 -3.01676 1.9663 0
M  V30 6590 C 646.92 -2.82888 3.49707 0
M  V30 6591 C 648.239 -4.02274 1.78504 0
M  V30 6592 H 645.358 -0.602966 0.423793 0
M  V30 6593 H 648 -1.05418 1.58073 0
M  V30 6594 H 646.15 -3.53515 1.61119 0
M  V30 6595 H 647.822 -2.38026 3.95147 0
M  V30 6596 H 646.065 -2.17862 3.75125 0
M  V30 6597 H 646.736 -3.79147 4.01187 0
M  V30 6598 H 649.212 -3.59511 2.09503 0
M  V30 6599 H 648.088 -4.95056 2.37088 0
M  V30 6600 H 648.349 -4.35903 0.737647 0
M  V30 6601 N 647.408 -1.11026 -1.11852 0
M  V30 6602 C 648.318 -0.777252 -2.2135 0
M  V30 6603 C 649.334 0.227821 -1.72502 0
M  V30 6604 O 650.51 0.0650587 -2.01295 0
M  V30 6605 C 647.575 -0.220668 -3.45997 0
M  V30 6606 C 646.636 -1.2838 -4.09655 0
M  V30 6607 C 645.869 -0.753678 -5.28352 0
M  V30 6608 O 646.092 0.417779 -5.68868 0
M  V30 6609 O 645.026 -1.51647 -5.82483 0
M  V30 6610 H 648.852 -1.69141 -2.5224 0
M  V30 6611 H 646.437 -0.885836 -1.20305 0
M  V30 6612 H 648.319 0.0855756 -4.21313 0
M  V30 6613 H 646.994 0.666262 -3.16769 0
M  V30 6614 H 645.901 -1.64299 -3.3609 0
M  V30 6615 H 647.234 -2.14396 -4.43052 0
M  V30 6616 N 648.886 1.2938 -0.899927 0
M  V30 6617 C 650.116 1.99402 -0.540601 0
M  V30 6618 C 650.524 1.67534 0.87914 0
M  V30 6619 O 649.867 0.916821 1.59186 0
M  V30 6620 C 649.929 3.53514 -0.653326 0
M  V30 6621 C 649.593 4.08937 -2.04009 0
M  V30 6622 C 650.59 4.23815 -3.01126 0
M  V30 6623 C 648.275 4.43962 -2.34953 0
M  V30 6624 C 650.269 4.72951 -4.27313 0
M  V30 6625 C 647.956 4.92795 -3.61382 0
M  V30 6626 C 648.954 5.07244 -4.57376 0
M  V30 6627 O 648.642 5.55017 -5.8156 0
M  V30 6628 H 648.374 0.64383 -0.206057 0
M  V30 6629 H 650.928 1.65878 -1.21134 0
M  V30 6630 H 649.158 3.86628 0.0744449 0
M  V30 6631 H 650.847 4.04767 -0.303118 0
M  V30 6632 H 651.613 3.97043 -2.78535 0
M  V30 6633 H 647.492 4.31974 -1.60994 0
M  V30 6634 H 651.036 4.84144 -5.02245 0
M  V30 6635 H 646.933 5.19004 -3.83804 0
M  V30 6636 H 647.701 5.73331 -5.84153 0
M  V30 6637 N 650.364 0.662433 1.43002 0
M  V30 6638 C 651.327 -0.0142016 2.29196 0
M  V30 6639 C 652.327 -0.741394 1.42688 0
M  V30 6640 O 653.517 -0.581257 1.64216 0
M  V30 6641 C 650.649 -1.03084 3.24941 0
M  V30 6642 H 651.842 0.7443 2.90517 0
M  V30 6643 H 649.395 0.424133 1.50435 0
M  V30 6644 H 650.13 -1.81826 2.68533 0
M  V30 6645 H 649.915 -0.512946 3.8873 0
M  V30 6646 H 651.405 -1.50308 3.89612 0
M  V30 6647 N 651.842 -1.52309 0.404946 0
M  V30 6648 C 653.258 -1.59503 0.0556255 0
M  V30 6649 C 653.458 -1.41805 -1.43156 0
M  V30 6650 O 652.514 -1.2429 -2.19792 0
M  V30 6651 C 653.827 -2.95687 0.546801 0
M  V30 6652 C 655.375 -3.08909 0.504413 0
M  V30 6653 C 655.85 -4.47566 0.97203 0
M  V30 6654 N 657.341 -4.53795 0.928679 0
M  V30 6655 C 658.076 -5.59346 1.26174 0
M  V30 6656 N 657.572 -6.72469 1.66604 0
M  V30 6657 N 659.365 -5.49532 1.18198 0
M  V30 6658 H 651.516 -1.6206 1.37296 0
M  V30 6659 H 653.779 -0.762161 0.563751 0
M  V30 6660 H 653.485 -3.13905 1.58609 0
M  V30 6661 H 653.359 -3.77172 -0.0457905 0
M  V30 6662 H 655.746 -2.90378 -0.525819 0
M  V30 6663 H 655.827 -2.2934 1.13301 0
M  V30 6664 H 655.471 -4.6684 2.00057 0
M  V30 6665 H 655.401 -5.25625 0.320292 0
M  V30 6666 H 657.892 -3.72588 0.631369 0
M  V30 6667 H 658.205 -7.48993 1.9034 0
M  V30 6668 H 656.55 -6.73761 1.70504 0
M  V30 6669 H 659.741 -4.60038 0.865011 0
M  V30 6670 H 659.914 -6.31687 1.44485 0
M  V30 6671 N 653.32 -0.135238 -1.57019 0
M  V30 6672 C 654.268 0.826099 -2.17436 0
M  V30 6673 C 655.262 1.26378 -1.12805 0
M  V30 6674 O 656.468 1.23363 -1.31079 0
M  V30 6675 H 652.843 0.284568 -0.696078 0
M  V30 6676 H 654.814 0.292212 -2.96966 0
M  V30 6677 C 653.563 2.05991 -2.80112 0
M  V30 6678 H 652.886 1.73209 -3.60331 0
M  V30 6679 H 654.326 2.71225 -3.25903 0
M  V30 6680 C 652.785 2.86027 -1.78017 0
M  V30 6681 O 653.315 3.81971 -1.24344 0
M  V30 6682 N 651.521 2.50332 -1.47588 0
M  V30 6683 H 651.068 1.72377 -1.91426 0
M  V30 6684 H 651.026 3.04177 -0.795228 0
M  V30 6685 N 654.798 1.5699 0.138552 0
M  V30 6686 C 655.761 1.97984 1.15478 0
M  V30 6687 C 656.761 0.867416 1.35398 0
M  V30 6688 O 657.951 1.13387 1.32246 0
M  V30 6689 C 655.083 2.3031 2.51337 0
M  V30 6690 H 656.276 2.88953 0.802896 0
M  V30 6691 H 653.829 1.51555 0.382189 0
M  V30 6692 H 654.564 1.42159 2.91481 0
M  V30 6693 H 654.349 3.11425 2.38237 0
M  V30 6694 H 655.839 2.62834 3.24512 0
M  V30 6695 N 656.276 -0.40816 1.52223 0
M  V30 6696 C 657.522 -1.15673 1.66576 0
M  V30 6697 C 657.855 -1.90141 0.394996 0
M  V30 6698 O 657.13 -1.84798 -0.606613 0
M  V30 6699 C 657.413 -2.15042 2.88841 0
M  V30 6700 C 657.266 -1.44465 4.25969 0
M  V30 6701 C 658.585 -3.15699 3.0663 0
M  V30 6702 H 655.704 -0.41916 0.606196 0
M  V30 6703 H 658.346 -0.442348 1.84779 0
M  V30 6704 H 656.496 -2.75964 2.73452 0
M  V30 6705 H 658.168 -0.866544 4.53088 0
M  V30 6706 H 656.411 -0.746612 4.27327 0
M  V30 6707 H 657.082 -2.16976 5.07568 0
M  V30 6708 H 659.558 -2.64854 3.20923 0
M  V30 6709 H 658.434 -3.82491 3.9369 0
M  V30 6710 H 658.695 -3.83481 2.19987 0
M  V30 6711 N 657.755 -1.42862 -0.66545 0
M  V30 6712 C 659.171 -1.25993 -0.979687 0
M  V30 6713 C 659.371 -0.170831 -2.00775 0
M  V30 6714 O 658.427 0.454827 -2.4837 0
M  V30 6715 C 659.74 -2.62005 -1.47559 0
M  V30 6716 C 661.288 -2.69437 -1.59288 0
M  V30 6717 C 661.763 -4.05838 -2.12272 0
M  V30 6718 N 663.254 -4.0784 -2.19592 0
M  V30 6719 C 663.989 -5.10205 -2.61684 0
M  V30 6720 N 663.485 -6.22949 -3.03161 0
M  V30 6721 N 665.278 -4.9756 -2.61516 0
M  V30 6722 H 657.429 -2.12395 0.0150493 0
M  V30 6723 H 659.692 -0.946355 -0.0558187 0
M  V30 6724 H 659.398 -3.42605 -0.794654 0
M  V30 6725 H 659.272 -2.86566 -2.45275 0
M  V30 6726 H 661.659 -1.89178 -2.26486 0
M  V30 6727 H 661.74 -2.48655 -0.600374 0
M  V30 6728 H 661.384 -4.86559 -1.4568 0
M  V30 6729 H 661.314 -4.23977 -3.12331 0
M  V30 6730 H 663.805 -3.26452 -1.90361 0
M  V30 6731 H 664.118 -6.96899 -3.33993 0
M  V30 6732 H 662.463 -6.2644 -3.00995 0
M  V30 6733 H 665.654 -4.08551 -2.28481 0
M  V30 6734 H 665.827 -5.77468 -2.93999 0
M  V30 6735 N 659.233 0.902656 -1.29189 0
M  V30 6736 C 660.166 2.00816 -1.0839 0
M  V30 6737 C 661.144 1.626 0.00335266 0
M  V30 6738 O 662.328 1.87928 -0.146765 0
M  V30 6739 C 659.455 3.32415 -0.649435 0
M  V30 6740 C 658.501 3.89617 -1.73496 0
M  V30 6741 S 659.334 4.19091 -3.33351 0
M  V30 6742 C 660.49 5.53736 -2.91766 0
M  V30 6743 H 660.723 2.18151 -2.01984 0
M  V30 6744 H 658.256 1.0489 -1.13303 0
M  V30 6745 H 660.214 4.08492 -0.405479 0
M  V30 6746 H 658.875 3.12964 0.266857 0
M  V30 6747 H 658.068 4.84658 -1.38284 0
M  V30 6748 H 657.67 3.20217 -1.93229 0
M  V30 6749 H 659.962 6.34085 -2.38627 0
M  V30 6750 H 660.905 5.93871 -3.85647 0
M  V30 6751 H 661.313 5.15453 -2.30149 0
M  V30 6752 N 660.711 1.11618 1.11262 0
M  V30 6753 C 661.674 0.779447 2.15539 0
M  V30 6754 C 662.674 -0.202081 1.59525 0
M  V30 6755 O 663.864 0.0226356 1.74185 0
M  V30 6756 C 660.996 0.15674 3.40539 0
M  V30 6757 H 662.189 1.70324 2.4684 0
M  V30 6758 H 659.742 0.918298 1.26479 0
M  V30 6759 H 660.477 -0.777186 3.1485 0
M  V30 6760 H 660.262 0.863308 3.82478 0
M  V30 6761 H 661.752 -0.062661 4.17553 0
M  V30 6762 N 662.189 -1.289 0.906776 0
M  V30 6763 C 663.152 -2.25777 0.394656 0
M  V30 6764 C 664.152 -1.53621 -0.475119 0
M  V30 6765 O 665.342 -1.71949 -0.279165 0
M  V30 6766 C 662.474 -3.38113 -0.43499 0
M  V30 6767 H 663.667 -2.72592 1.25033 0
M  V30 6768 H 661.22 -1.40463 0.685547 0
M  V30 6769 H 661.955 -2.96648 -1.31036 0
M  V30 6770 H 661.74 -3.91647 0.188334 0
M  V30 6771 H 663.23 -4.10168 -0.784365 0
M  V30 6772 N 663.667 -0.670007 -1.42649 0
M  V30 6773 C 664.597 -0.00258501 -2.335 0
M  V30 6774 C 665.578 0.794364 -1.50412 0
M  V30 6775 O 666.763 0.75248 -1.79029 0
M  V30 6776 C 663.893 0.952748 -3.33976 0
M  V30 6777 C 662.847 0.264733 -4.2718 0
M  V30 6778 C 662.173 1.33267 -5.17826 0
M  V30 6779 C 663.473 -0.853289 -5.15283 0
M  V30 6780 H 665.167 -0.761326 -2.89559 0
M  V30 6781 H 662.713 -0.367561 -1.3923 0
M  V30 6782 H 664.666 1.4287 -3.96442 0
M  V30 6783 H 663.39 1.74285 -2.7621 0
M  V30 6784 H 662.049 -0.190938 -3.66102 0
M  V30 6785 H 661.697 2.11464 -4.5639 0
M  V30 6786 H 661.397 0.877476 -5.81011 0
M  V30 6787 H 662.921 1.80965 -5.83167 0
M  V30 6788 H 664.335 -0.458763 -5.71462 0
M  V30 6789 H 662.732 -1.23398 -5.87276 0
M  V30 6790 H 663.802 -1.70412 -4.53969 0
M  V30 6791 N 665.145 1.52092 -0.413018 0
M  V30 6792 C 666.078 2.23613 0.455234 0
M  V30 6793 C 667.056 1.2459 1.04481 0
M  V30 6794 O 668.24 1.53653 1.09193 0
M  V30 6795 C 665.367 2.96775 1.63224 0
M  V30 6796 C 664.413 4.10261 1.16568 0
M  V30 6797 S 665.246 5.35348 0.127633 0
M  V30 6798 C 666.402 6.1204 1.30987 0
M  V30 6799 H 666.635 2.96911 -0.152042 0
M  V30 6800 H 664.168 1.53134 -0.197343 0
M  V30 6801 H 666.126 3.39532 2.30713 0
M  V30 6802 H 664.787 2.23113 2.21087 0
M  V30 6803 H 663.98 4.6064 2.04515 0
M  V30 6804 H 663.582 3.6964 0.569386 0
M  V30 6805 H 665.874 6.39651 2.23276 0
M  V30 6806 H 666.817 7.03022 0.846533 0
M  V30 6807 H 667.225 5.43161 1.53743 0
M  V30 6808 N 666.623 0.143563 1.56945 0
M  V30 6809 C 667.57 -0.797433 2.16586 0
M  V30 6810 C 668.54 -1.24654 1.09775 0
M  V30 6811 O 669.725 -1.31968 1.37801 0
M  V30 6812 C 666.865 -2.03253 2.78895 0
M  V30 6813 C 665.978 -1.62954 4.00087 0
M  V30 6814 C 665.113 -2.81617 4.50406 0
M  V30 6815 C 664.152 -2.37675 5.64072 0
M  V30 6816 N 663.289 -3.49335 6.09023 0
M  V30 6817 H 668.129 -0.282023 2.96662 0
M  V30 6818 H 665.666 -0.127494 1.46546 0
M  V30 6819 H 667.624 -2.75653 3.13163 0
M  V30 6820 H 666.254 -2.52211 2.01469 0
M  V30 6821 H 665.306 -0.803322 3.71821 0
M  V30 6822 H 666.618 -1.26679 4.82446 0
M  V30 6823 H 665.772 -3.62212 4.86711 0
M  V30 6824 H 664.511 -3.21134 3.67048 0
M  V30 6825 H 663.516 -1.55519 5.27346 0
M  V30 6826 H 664.741 -1.99247 6.49213 0
M  V30 6827 H 662.687 -3.8848 5.28601 0
M  V30 6828 H 662.604 -3.17064 6.86299 0
M  V30 6829 H 663.872 -4.30297 6.49973 0
M  V30 6830 N 668.101 -1.57061 -0.130224 0
M  V30 6831 C 669.033 -1.96147 -1.18571 0
M  V30 6832 C 670.046 -0.859347 -1.38272 0
M  V30 6833 O 671.235 -1.13769 -1.37545 0
M  V30 6834 C 668.335 -2.23484 -2.54771 0
M  V30 6835 C 667.508 -3.54786 -2.55824 0
M  V30 6836 C 666.567 -3.70467 -3.73686 0
M  V30 6837 O 665.593 -4.42693 -3.57787 0
M  V30 6838 N 666.795 -3.08389 -4.91809 0
M  V30 6839 H 669.56 -2.87295 -0.853333 0
M  V30 6840 H 667.121 -1.58714 -0.319621 0
M  V30 6841 H 669.113 -2.312 -3.32158 0
M  V30 6842 H 667.683 -1.38518 -2.80235 0
M  V30 6843 H 666.903 -3.5836 -1.64232 0
M  V30 6844 H 668.191 -4.4111 -2.53573 0
M  V30 6845 H 667.589 -2.49656 -5.0763 0
M  V30 6846 H 666.146 -3.21642 -5.66912 0
M  V30 6847 N 669.579 0.400081 -1.52437 0
M  V30 6848 C 670.995 0.739359 -1.41441 0
M  V30 6849 C 671.195 1.94512 -0.526053 0
M  V30 6850 O 670.251 2.525 0.00472502 0
M  V30 6851 C 671.564 0.984824 -2.84116 0
M  V30 6852 C 673.112 1.08698 -2.93519 0
M  V30 6853 C 673.587 1.36515 -4.37181 0
M  V30 6854 N 675.078 1.43361 -4.40457 0
M  V30 6855 C 675.813 1.66528 -5.48686 0
M  V30 6856 N 675.309 1.87239 -6.67018 0
M  V30 6857 N 677.102 1.68617 -5.36213 0
M  V30 6858 H 669.253 -0.393484 -2.08723 0
M  V30 6859 H 671.516 -0.1138 -0.941145 0
M  V30 6860 H 671.222 0.171096 -3.51284 0
M  V30 6861 H 671.096 1.90253 -3.25705 0
M  V30 6862 H 673.483 1.89129 -2.26526 0
M  V30 6863 H 673.564 0.147432 -2.55375 0
M  V30 6864 H 673.208 0.565982 -5.04737 0
M  V30 6865 H 673.138 2.31737 -4.7287 0
M  V30 6866 H 675.629 1.29108 -3.55161 0
M  V30 6867 H 675.942 2.04392 -7.45281 0
M  V30 6868 H 674.287 1.84486 -6.70067 0
M  V30 6869 H 677.478 1.5198 -4.42741 0
M  V30 6870 H 677.651 1.86332 -6.20632 0
M  V30 6871 N 671.057 1.43213 0.657864 0
M  V30 6872 C 671.989 1.43974 1.78337 0
M  V30 6873 C 673.002 0.336482 1.59285 0
M  V30 6874 O 674.191 0.600631 1.68091 0
M  V30 6875 C 671.291 1.23242 3.15697 0
M  V30 6876 C 670.464 2.46319 3.61449 0
M  V30 6877 C 669.523 2.2088 4.77597 0
M  V30 6878 O 668.549 2.942 4.87273 0
M  V30 6879 N 669.751 1.22251 5.67481 0
M  V30 6880 H 672.516 2.40993 1.78164 0
M  V30 6881 H 670.077 1.3831 0.841549 0
M  V30 6882 H 672.069 1.04113 3.91079 0
M  V30 6883 H 670.639 0.346849 3.1067 0
M  V30 6884 H 669.859 2.80904 2.76563 0
M  V30 6885 H 671.147 3.28239 3.88763 0
M  V30 6886 H 670.545 0.616433 5.62331 0
M  V30 6887 H 669.102 1.09107 6.42603 0
M  V30 6888 N 672.536 -0.895792 1.29666 0
M  V30 6889 C 673.782 -1.64908 1.18039 0
M  V30 6890 C 674.115 -1.9236 -0.266682 0
M  V30 6891 O 673.39 -1.53682 -1.19214 0
M  V30 6892 C 673.673 -2.99574 1.99819 0
M  V30 6893 C 673.526 -2.79163 3.52687 0
M  V30 6894 C 674.845 -4.00358 1.82761 0
M  V30 6895 H 671.964 -0.598437 0.430165 0
M  V30 6896 H 674.606 -1.03736 1.59182 0
M  V30 6897 H 672.756 -3.51786 1.64859 0
M  V30 6898 H 674.428 -2.33821 3.9765 0
M  V30 6899 H 672.671 -2.13871 3.77414 0
M  V30 6900 H 673.342 -3.74871 4.05186 0
M  V30 6901 H 675.818 -3.57268 2.13304 0
M  V30 6902 H 674.694 -4.92514 2.42325 0
M  V30 6903 H 674.955 -4.35096 0.783839 0
M  V30 6904 N 674.014 -1.12206 -1.10668 0
M  V30 6905 C 674.947 -0.731468 -2.16159 0
M  V30 6906 C 675.925 0.276216 -1.60237 0
M  V30 6907 O 677.109 0.17074 -1.87725 0
M  V30 6908 C 674.236 -0.0822882 -3.386 0
M  V30 6909 C 673.282 -1.05641 -4.1321 0
M  V30 6910 S 674.115 -2.58281 -4.69096 0
M  V30 6911 C 675.271 -1.94686 -5.94851 0
M  V30 6912 H 675.504 -1.62504 -2.48957 0
M  V30 6913 H 673.037 -0.940906 -1.22419 0
M  V30 6914 H 674.995 0.285896 -4.09503 0
M  V30 6915 H 673.656 0.788358 -3.04046 0
M  V30 6916 H 672.849 -0.549764 -5.00993 0
M  V30 6917 H 672.451 -1.36741 -3.48106 0
M  V30 6918 H 674.743 -1.28815 -6.65141 0
M  V30 6919 H 675.686 -2.80499 -6.50174 0
M  V30 6920 H 676.094 -1.40369 -5.46769 0
M  V30 6921 N 675.492 1.28418 -0.913599 0
M  V30 6922 C 676.738 1.9527 -0.547484 0
M  V30 6923 C 677.071 1.71745 0.906486 0
M  V30 6924 O 676.346 1.03834 1.64465 0
M  V30 6925 C 676.629 3.49748 -0.857205 0
M  V30 6926 C 676.482 3.82675 -2.3639 0
M  V30 6927 C 677.801 4.3868 -0.353258 0
M  V30 6928 H 674.92 0.709236 -0.200381 0
M  V30 6929 H 677.562 1.51789 -1.14281 0
M  V30 6930 H 675.712 3.86915 -0.350548 0
M  V30 6931 H 677.384 3.55378 -2.94116 0
M  V30 6932 H 675.627 3.29724 -2.81894 0
M  V30 6933 H 676.298 4.90547 -2.53115 0
M  V30 6934 H 678.774 4.08584 -0.787288 0
M  V30 6935 H 677.65 5.45621 -0.599049 0
M  V30 6936 H 677.911 4.35753 0.746413 0
M  V30 6937 N 676.97 0.677563 1.42291 0
M  V30 6938 C 678.2 0.209155 2.05539 0
M  V30 6939 C 678.608 -1.13987 1.51009 0
M  V30 6940 O 677.951 -1.71976 0.645764 0
M  V30 6941 C 678.013 0.0697758 3.59432 0
M  V30 6942 C 677.677 1.34795 4.36668 0
M  V30 6943 C 678.674 2.28201 4.67141 0
M  V30 6944 C 676.359 1.59632 4.76259 0
M  V30 6945 C 678.353 3.44718 5.36142 0
M  V30 6946 C 676.04 2.76437 5.45 0
M  V30 6947 C 677.038 3.68805 5.74867 0
M  V30 6948 O 676.726 4.83567 6.42198 0
M  V30 6949 H 676.458 0.0986202 0.668768 0
M  V30 6950 H 679.012 0.925483 1.83368 0
M  V30 6951 H 677.242 -0.702157 3.80272 0
M  V30 6952 H 678.931 -0.359115 4.04308 0
M  V30 6953 H 679.697 2.10264 4.37052 0
M  V30 6954 H 675.576 0.886073 4.52404 0
M  V30 6955 H 679.12 4.16833 5.59371 0
M  V30 6956 H 675.017 2.94299 5.74507 0
M  V30 6957 H 675.785 4.83147 6.6069 0
M  V30 6958 N 678.448 -1.51871 0.421078 0
M  V30 6959 C 679.676 -2.06356 -0.14994 0
M  V30 6960 C 680.091 -1.29006 -1.37851 0
M  V30 6961 O 679.448 -0.345139 -1.79207 0
M  V30 6962 C 679.499 -3.58185 -0.488454 0
M  V30 6963 O 679.22 -4.32611 0.691341 0
M  V30 6964 C 680.721 -4.29129 -1.11191 0
M  V30 6965 H 677.941 -0.67083 -0.0151186 0
M  V30 6966 H 680.485 -1.95638 0.595476 0
M  V30 6967 H 678.64 -3.68871 -1.18376 0
M  V30 6968 H 679.054 -5.22927 0.405906 0
M  V30 6969 H 680.528 -5.36501 -1.29889 0
M  V30 6970 H 681.005 -3.86371 -2.0884 0
M  V30 6971 H 681.611 -4.22843 -0.456458 0
M  V30 6972 N 679.926 -0.151884 -1.56866 0
M  V30 6973 C 680.876 0.797799 -2.13586 0
M  V30 6974 C 681.86 1.20613 -1.06496 0
M  V30 6975 O 683.052 1.17173 -1.32663 0
M  V30 6976 C 680.181 2.03493 -2.76488 0
M  V30 6977 C 679.267 1.64948 -3.90708 0
M  V30 6978 N 679.658 0.972513 -4.96363 0
M  V30 6979 C 677.956 1.94186 -4.01507 0
M  V30 6980 C 678.657 0.785661 -5.7637 0
M  V30 6981 N 677.633 1.32105 -5.27304 0
M  V30 6982 H 681.435 0.271403 -2.92644 0
M  V30 6983 H 678.949 0.049487 -1.62325 0
M  V30 6984 H 680.946 2.72532 -3.15487 0
M  V30 6985 H 679.606 2.56646 -1.98904 0
M  V30 6986 H 680.617 0.632724 -5.1402 0
M  V30 6987 H 677.294 2.49154 -3.35005 0
M  V30 6988 H 678.684 0.251749 -6.71428 0
M  V30 6989 N 681.404 1.57128 0.121893 0
M  V30 6990 C 682.681 1.75664 0.860327 0
M  V30 6991 C 683.061 0.726585 1.98202 0
M  V30 6992 O 682.409 -0.24999 2.27128 0
M  V30 6993 C 682.619 3.20571 1.37968 0
M  V30 6994 C 683.967 3.82988 1.83317 0
M  V30 6995 O 684.991 3.24156 1.47654 0
M  V30 6996 O 683.85 4.86393 2.49168 0
M  V30 6997 H 680.944 0.719153 0.408348 0
M  V30 6998 H 683.49 1.6937 0.105859 0
M  V30 6999 H 682.262 3.87056 0.57477 0
M  V30 7000 H 681.885 3.31392 2.19694 0
M  V30 7001 N 682.882 -0.391992 1.52647 0
M  V30 7002 C 684.107 -1.16312 1.71716 0
M  V30 7003 C 684.532 -1.83042 0.433279 0
M  V30 7004 O 683.89 -1.70705 -0.610707 0
M  V30 7005 C 683.938 -2.18908 2.86551 0
M  V30 7006 O 683.042 -3.2543 2.53316 0
M  V30 7007 H 682.383 -0.338743 0.571095 0
M  V30 7008 H 684.913 -0.457202 1.99426 0
M  V30 7009 H 684.923 -2.62954 3.1196 0
M  V30 7010 H 683.598 -1.69726 3.79692 0
M  V30 7011 H 682.175 -2.86543 2.38637 0
M  V30 7012 N 684.36 -1.4356 -0.65026 0
M  V30 7013 C 685.609 -1.44619 -1.406 0
M  V30 7014 C 685.922 -0.0752645 -1.95455 0
M  V30 7015 O 687.128 0.0366832 -2.71475 0
M  V30 7016 C 685.584 -2.54511 -2.54465 0
M  V30 7017 C 685.192 -3.97723 -2.06204 0
M  V30 7018 C 686.936 -2.64768 -3.31811 0
M  V30 7019 C 684.843 -4.99075 -3.17298 0
M  V30 7020 H 683.773 -0.537983 -0.52829 0
M  V30 7021 H 686.424 -1.69559 -0.701561 0
M  V30 7022 H 684.806 -2.22777 -3.27393 0
M  V30 7023 H 685.98 -4.38932 -1.40267 0
M  V30 7024 H 684.295 -3.91538 -1.41729 0
M  V30 7025 H 686.892 -3.37664 -4.14593 0
M  V30 7026 H 687.235 -1.69936 -3.80036 0
M  V30 7027 H 687.768 -2.95817 -2.65964 0
M  V30 7028 H 684.507 -5.95469 -2.74038 0
M  V30 7029 H 684.027 -4.62476 -3.81937 0
M  V30 7030 H 685.706 -5.21913 -3.82382 0
M  V30 7031 N 685.838 0.888903 -1.30139 0
M  V30 7032 C 687.086 1.63713 -1.18501 0
M  V30 7033 C 687.407 1.9324 0.261399 0
M  V30 7034 O 686.677 1.56608 1.17689 0
M  V30 7035 H 685.257 0.606861 -0.435579 0
M  V30 7036 H 687.919 1.06525 -1.63213 0
M  V30 7037 H 687.015 2.58894 -1.743 0
M  V30 7038 N 687.317 1.12792 1.10072 0
M  V30 7039 C 688.247 0.821688 2.18565 0
M  V30 7040 C 689.228 -0.21612 1.68721 0
M  V30 7041 O 690.413 -0.0764932 1.94049 0
M  V30 7042 C 687.543 0.279624 3.46172 0
M  V30 7043 C 686.497 1.25092 4.09312 0
M  V30 7044 C 685.823 0.568916 5.31665 0
M  V30 7045 C 687.123 2.60699 4.52585 0
M  V30 7046 H 688.817 1.72888 2.44438 0
M  V30 7047 H 686.363 0.832702 1.17482 0
M  V30 7048 H 688.316 0.053099 4.21367 0
M  V30 7049 H 687.04 -0.662929 3.19801 0
M  V30 7050 H 685.699 1.46332 3.36129 0
M  V30 7051 H 685.347 -0.378898 5.01571 0
M  V30 7052 H 685.047 1.21687 5.74862 0
M  V30 7053 H 686.571 0.351517 6.09587 0
M  V30 7054 H 687.985 2.43465 5.19035 0
M  V30 7055 H 686.382 3.21608 5.06644 0
M  V30 7056 H 687.452 3.1886 3.65317 0
M  V30 7057 N 688.795 -1.27931 0.920396 0
M  V30 7058 C 690.043 -1.94304 0.555906 0
M  V30 7059 C 690.364 -1.72753 -0.904519 0
M  V30 7060 O 689.634 -1.07104 -1.64029 0
M  V30 7061 H 688.214 -0.719001 0.202599 0
M  V30 7062 H 690.876 -1.55785 1.1712 0
M  V30 7063 H 689.972 -3.02806 0.755981 0
M  V30 7064 N 690.273 -0.685099 -1.4193 0
M  V30 7065 C 691.183 -0.013404 -2.34596 0
M  V30 7066 C 692.199 0.777589 -1.55658 0
M  V30 7067 O 693.375 0.717553 -1.88184 0
M  V30 7068 C 690.44 0.919031 -3.34297 0
M  V30 7069 C 689.501 0.121417 -4.29128 0
M  V30 7070 C 688.734 1.00944 -5.24067 0
M  V30 7071 O 688.957 2.24898 -5.24192 0
M  V30 7072 O 687.891 0.464724 -6.00103 0
M  V30 7073 H 691.717 -0.776978 -2.93593 0
M  V30 7074 H 689.302 -0.445379 -1.42607 0
M  V30 7075 H 691.184 1.45402 -3.9552 0
M  V30 7076 H 689.859 1.66228 -2.77759 0
M  V30 7077 H 688.766 -0.45792 -3.71287 0
M  V30 7078 H 690.099 -0.582937 -4.88736 0
M  V30 7079 N 691.751 1.51645 -0.429126 0
M  V30 7080 C 693.028 1.94579 0.199614 0
M  V30 7081 C 693.408 1.3673 1.60836 0
M  V30 7082 O 692.756 0.551062 2.21756 0
M  V30 7083 C 692.966 3.48506 0.185685 0
M  V30 7084 C 694.314 4.22756 0.395282 0
M  V30 7085 O 695.338 3.55219 0.264165 0
M  V30 7086 O 694.197 5.42555 0.655475 0
M  V30 7087 H 691.291 0.816007 0.134393 0
M  V30 7088 H 693.837 1.62577 -0.486513 0
M  V30 7089 H 692.609 3.83045 -0.799508 0
M  V30 7090 H 692.232 3.86927 0.91507 0
M  V30 7091 N 693.229 0.160201 1.56784 0
M  V30 7092 C 694.477 -0.486625 1.96154 0
M  V30 7093 C 694.798 -1.64525 1.04673 0
M  V30 7094 O 694.068 -1.95586 0.110864 0
M  V30 7095 H 692.648 -0.182764 0.724297 0
M  V30 7096 H 695.31 0.238787 1.93432 0
M  V30 7097 H 694.406 -0.854025 3.00188 0
M  V30 7098 N 694.707 -1.5719 -0.113559 0
M  V30 7099 C 696.118 -1.74259 -0.670116 0
M  V30 7100 C 696.469 -0.779694 -1.80042 0
M  V30 7101 O 695.594 0.0461353 -2.16351 0
M  V30 7102 C 696.189 -3.15981 -1.22236 0
M  V30 7103 C 694.748 -3.34537 -1.72516 0
M  V30 7104 C 693.895 -2.70116 -0.627098 0
M  V30 7105 H 696.846 -1.58301 0.112396 0
M  V30 7106 H 696.867 -3.17832 -2.09197 0
M  V30 7107 H 696.379 -3.86038 -0.39949 0
M  V30 7108 H 694.48 -2.6953 -2.57263 0
M  V30 7109 H 694.593 -4.42737 -1.83086 0
M  V30 7110 H 692.957 -2.31501 -1.06204 0
M  V30 7111 H 693.74 -3.42802 0.184889 0
M  V30 7112 N 696.185 0.383891 -1.52853 0
M  V30 7113 C 697.413 1.1495 -1.7203 0
M  V30 7114 C 697.828 1.83578 -0.440957 0
M  V30 7115 O 697.185 1.72872 0.584925 0
M  V30 7116 C 697.236 2.19368 -2.87333 0
M  V30 7117 O 696.957 1.53536 -4.10315 0
M  V30 7118 C 698.458 3.08616 -3.18231 0
M  V30 7119 H 695.678 0.344445 -0.575846 0
M  V30 7120 H 698.222 0.448397 -1.99524 0
M  V30 7121 H 696.377 2.85105 -2.62286 0
M  V30 7122 H 696.791 2.2296 -4.74752 0
M  V30 7123 H 698.265 3.77902 -4.02361 0
M  V30 7124 H 698.742 3.72409 -2.32826 0
M  V30 7125 H 699.348 2.48518 -3.45136 0
M  V30 7126 N 697.663 1.43903 0.642637 0
M  V30 7127 C 698.613 1.46321 1.74854 0
M  V30 7128 C 699.597 0.330361 1.57472 0
M  V30 7129 O 700.789 0.574881 1.67404 0
M  V30 7130 C 697.918 1.39919 3.13493 0
M  V30 7131 C 697.004 2.58274 3.36385 0
M  V30 7132 N 697.395 3.83578 3.29699 0
M  V30 7133 C 695.693 2.53224 3.67142 0
M  V30 7134 C 696.394 4.62375 3.52965 0
M  V30 7135 N 695.37 3.93269 3.75287 0
M  V30 7136 H 699.172 2.41062 1.68126 0
M  V30 7137 H 696.686 1.38704 0.844693 0
M  V30 7138 H 698.683 1.39735 3.92785 0
M  V30 7139 H 697.343 0.46207 3.21395 0
M  V30 7140 H 698.354 4.15713 3.08874 0
M  V30 7141 H 695.031 1.68252 3.82096 0
M  V30 7142 H 696.421 5.714 3.53485 0
M  V30 7143 N 699.141 -0.881989 1.30609 0
M  V30 7144 C 700.073 -1.99375 1.13058 0
M  V30 7145 C 701.086 -1.62636 0.0729879 0
M  V30 7146 O 702.275 -1.75621 0.319301 0
M  V30 7147 C 699.375 -3.31536 0.702651 0
M  V30 7148 C 698.548 -3.96693 1.84265 0
M  V30 7149 C 697.607 -5.07158 1.40277 0
M  V30 7150 O 696.633 -5.28628 2.11048 0
M  V30 7151 N 697.835 -5.79808 0.283449 0
M  V30 7152 H 700.6 -2.14981 2.08814 0
M  V30 7153 H 698.161 -1.05526 1.22784 0
M  V30 7154 H 700.153 -4.02804 0.391331 0
M  V30 7155 H 698.723 -3.12175 -0.162954 0
M  V30 7156 H 697.943 -3.1856 2.32192 0
M  V30 7157 H 699.231 -4.36964 2.60653 0
M  V30 7158 H 698.629 -5.64871 -0.306189 0
M  V30 7159 H 697.186 -6.51792 0.0315985 0
M  V30 7160 N 700.619 -1.13374 -1.09472 0
M  V30 7161 C 702.03 -0.90801 -1.63132 0
M  V30 7162 C 702.381 0.555576 -1.8817 0
M  V30 7163 O 701.506 1.42218 -1.63104 0
M  V30 7164 C 702.101 -1.64182 -2.96361 0
M  V30 7165 C 700.66 -1.46197 -3.46848 0
M  V30 7166 C 699.807 -1.67134 -2.21273 0
M  V30 7167 H 702.758 -1.2871 -0.928411 0
M  V30 7168 H 702.779 -1.09863 -3.64294 0
M  V30 7169 H 702.291 -2.707 -2.78106 0
M  V30 7170 H 700.392 -0.419788 -3.70228 0
M  V30 7171 H 700.505 -2.22472 -4.24315 0
M  V30 7172 H 698.869 -1.09616 -2.29905 0
M  V30 7173 H 699.652 -2.74971 -2.05538 0
M  V30 7174 N 702.098 1.27442 -0.927168 0
M  V30 7175 C 703.344 1.94679 -0.568164 0
M  V30 7176 C 703.677 1.72697 0.888219 0
M  V30 7177 O 702.952 1.05573 1.63354 0
M  V30 7178 C 703.235 3.4882 -0.894253 0
M  V30 7179 C 703.088 3.80146 -2.40435 0
M  V30 7180 C 704.407 4.38281 -0.399766 0
M  V30 7181 H 701.526 0.707071 -0.207892 0
M  V30 7182 H 704.168 1.50568 -1.15885 0
M  V30 7183 H 702.318 3.86522 -0.391566 0
M  V30 7184 H 703.99 3.52238 -2.97869 0
M  V30 7185 H 702.233 3.26716 -2.85375 0
M  V30 7186 H 702.904 4.87835 -2.58304 0
M  V30 7187 H 705.38 4.07726 -0.83058 0
M  V30 7188 H 704.256 5.44955 -0.656885 0
M  V30 7189 H 704.517 4.36521 0.700153 0
M  V30 7190 N 703.576 0.692616 1.41565 0
M  V30 7191 C 704.486 0.0258451 2.34586 0
M  V30 7192 C 705.502 -0.769324 1.56069 0
M  V30 7193 O 706.678 -0.707563 1.88562 0
M  V30 7194 C 703.743 -0.901289 3.3478 0
M  V30 7195 C 702.804 -0.0986579 4.29187 0
M  V30 7196 C 702.037 -0.981634 5.24595 0
M  V30 7197 O 702.26 -2.22115 5.25377 0
M  V30 7198 O 701.194 -0.432892 6.00341 0
M  V30 7199 H 705.02 0.792537 2.93177 0
M  V30 7200 H 702.605 0.452935 1.42369 0
M  V30 7201 H 704.487 -1.43302 3.96286 0
M  V30 7202 H 703.162 -1.64752 2.78637 0
M  V30 7203 H 702.069 0.477604 3.71039 0
M  V30 7204 H 703.402 0.608848 4.8842 0
M  V30 7205 N 705.054 -1.51416 0.437162 0
M  V30 7206 C 705.986 -2.255 -0.410171 0
M  V30 7207 C 706.999 -1.29511 -0.986444 0
M  V30 7208 O 708.188 -1.55266 -0.880614 0
M  V30 7209 C 705.288 -2.99511 -1.58575 0
M  V30 7210 C 704.461 -4.22595 -1.12839 0
M  V30 7211 C 703.52 -4.79187 -2.17407 0
M  V30 7212 O 702.546 -5.4103 -1.76849 0
M  V30 7213 N 703.748 -4.63204 -3.49889 0
M  V30 7214 H 706.513 -2.98856 0.224783 0
M  V30 7215 H 704.074 -1.59699 0.266041 0
M  V30 7216 H 706.066 -3.34258 -2.28152 0
M  V30 7217 H 704.636 -2.29167 -2.12606 0
M  V30 7218 H 703.856 -3.93344 -0.259695 0
M  V30 7219 H 705.144 -5.02468 -0.800196 0
M  V30 7220 H 704.542 -4.13945 -3.85573 0
M  V30 7221 H 703.099 -5.02313 -4.15361 0
M  V30 7222 N 706.532 -0.168513 -1.56696 0
M  V30 7223 C 707.778 0.477865 -1.9709 0
M  V30 7224 C 708.111 1.63084 -1.05438 0
M  V30 7225 O 707.386 1.94238 -0.10095 0
M  V30 7226 C 707.669 0.963521 -3.4697 0
M  V30 7227 C 707.522 -0.189443 -4.49401 0
M  V30 7228 C 708.841 1.83813 -3.99876 0
M  V30 7229 H 705.96 0.172229 -0.716593 0
M  V30 7230 H 708.602 -0.254083 -1.88293 0
M  V30 7231 H 706.752 1.58724 -3.54597 0
M  V30 7232 H 708.424 -0.826451 -4.53836 0
M  V30 7233 H 706.667 -0.845366 -4.25483 0
M  V30 7234 H 707.338 0.192446 -5.51664 0
M  V30 7235 H 709.814 1.31235 -3.94863 0
M  V30 7236 H 708.69 2.14697 -5.0517 0
M  V30 7237 H 708.951 2.78289 -3.43523 0
M  V30 7238 N 708.01 1.57248 0.105221 0
M  V30 7239 C 708.973 2.00388 1.11252 0
M  V30 7240 C 709.973 0.89594 1.33527 0
M  V30 7241 O 711.163 1.16166 1.29811 0
M  V30 7242 C 708.295 2.35589 2.46395 0
M  V30 7243 H 709.488 2.90591 0.741424 0
M  V30 7244 H 707.041 1.52332 0.349956 0
M  V30 7245 H 707.776 1.4831 2.884 0
M  V30 7246 H 707.561 3.16408 2.31578 0
M  V30 7247 H 709.051 2.69658 3.18864 0
M  V30 7248 N 709.488 -0.375779 1.53054 0
M  V30 7249 C 710.713 -1.14484 1.7294 0
M  V30 7250 C 711.138 -1.82572 0.452668 0
M  V30 7251 O 710.496 -1.71343 -0.592567 0
M  V30 7252 C 710.544 -2.15857 2.88857 0
M  V30 7253 O 709.648 -3.22725 2.56753 0
M  V30 7254 H 708.989 -0.332666 0.574656 0
M  V30 7255 H 711.519 -0.436025 1.999 0
M  V30 7256 H 711.529 -2.59631 3.14731 0
M  V30 7257 H 710.204 -1.65689 3.81471 0
M  V30 7258 H 708.781 -2.83996 2.41663 0
M  V30 7259 N 710.966 -1.44241 -0.634997 0
M  V30 7260 C 711.896 -1.53632 -1.7584 0
M  V30 7261 C 712.877 -0.389603 -1.65578 0
M  V30 7262 O 714.062 -0.609219 -1.84397 0
M  V30 7263 C 711.192 -1.47644 -3.14354 0
M  V30 7264 C 710.146 -2.60752 -3.394 0
M  V30 7265 C 709.472 -2.39817 -4.77904 0
M  V30 7266 C 710.772 -4.02921 -3.32343 0
M  V30 7267 H 712.466 -2.47662 -1.68238 0
M  V30 7268 H 710.012 -1.19197 -0.807969 0
M  V30 7269 H 711.965 -1.52815 -3.92716 0
M  V30 7270 H 710.689 -0.501284 -3.2273 0
M  V30 7271 H 709.348 -2.54965 -2.63417 0
M  V30 7272 H 708.996 -1.40502 -4.82978 0
M  V30 7273 H 708.696 -3.15649 -4.9562 0
M  V30 7274 H 710.22 -2.46799 -5.585 0
M  V30 7275 H 711.634 -4.10098 -4.00615 0
M  V30 7276 H 710.031 -4.78925 -3.61595 0
M  V30 7277 H 711.101 -4.26766 -2.30215 0
M  V30 7278 N 712.444 0.87505 -1.31075 0
M  V30 7279 C 713.86 1.15997 -1.09622 0
M  V30 7280 C 714.06 2.01036 0.136611 0
M  V30 7281 O 713.116 2.38559 0.827397 0
M  V30 7282 C 714.429 1.85702 -2.36506 0
M  V30 7283 C 715.977 1.98425 -2.42067 0
M  V30 7284 C 716.452 2.71544 -3.68819 0
M  V30 7285 N 717.943 2.79084 -3.69684 0
M  V30 7286 C 718.678 3.36259 -4.64454 0
M  V30 7287 N 718.174 3.94406 -5.69575 0
M  V30 7288 N 719.967 3.34169 -4.51982 0
M  V30 7289 H 712.118 0.308258 -2.10151 0
M  V30 7290 H 714.381 0.199145 -0.926847 0
M  V30 7291 H 714.087 1.30663 -3.26527 0
M  V30 7292 H 713.961 2.86017 -2.45915 0
M  V30 7293 H 716.348 2.5263 -1.52518 0
M  V30 7294 H 716.429 0.971682 -2.36626 0
M  V30 7295 H 716.073 2.18008 -4.58732 0
M  V30 7296 H 716.003 3.73198 -3.71525 0
M  V30 7297 H 718.494 2.3781 -2.93691 0
M  V30 7298 H 718.807 4.36129 -6.37974 0
M  V30 7299 H 717.152 3.92797 -5.73355 0
M  V30 7300 H 720.343 2.87977 -3.69035 0
M  V30 7301 H 720.516 3.78431 -5.26017 0
M  V30 7302 N 713.922 1.13953 1.08869 0
M  V30 7303 C 715.168 0.906151 1.8143 0
M  V30 7304 C 715.501 -0.566089 1.85766 0
M  V30 7305 O 714.776 -1.41915 1.33006 0
M  V30 7306 C 715.059 1.50183 3.27287 0
M  V30 7307 C 714.912 3.04359 3.31189 0
M  V30 7308 C 716.231 1.17477 4.24131 0
M  V30 7309 H 713.35 0.330624 0.658678 0
M  V30 7310 H 715.992 1.40873 1.27495 0
M  V30 7311 H 714.142 1.07442 3.73348 0
M  V30 7312 H 715.814 3.55896 2.93488 0
M  V30 7313 H 714.057 3.39053 2.70602 0
M  V30 7314 H 714.728 3.41141 4.33966 0
M  V30 7315 H 717.204 1.5442 3.86385 0
M  V30 7316 H 716.08 1.61795 5.24513 0
M  V30 7317 H 716.341 0.0893312 4.4201 0
M  V30 7318 N 715.4 -1.26948 0.933913 0
M  V30 7319 C 716.628 -1.98186 0.59414 0
M  V30 7320 C 717.043 -1.69614 -0.829257 0
M  V30 7321 O 716.4 -0.960213 -1.55197 0
M  V30 7322 C 716.451 -3.52123 0.818026 0
M  V30 7323 O 716.172 -3.79698 2.18543 0
M  V30 7324 C 717.673 -4.40608 0.48781 0
M  V30 7325 H 714.893 -0.632305 0.224569 0
M  V30 7326 H 717.437 -1.61646 1.25263 0
M  V30 7327 H 715.592 -3.86851 0.206246 0
M  V30 7328 H 716.006 -4.7426 2.24005 0
M  V30 7329 H 717.48 -5.47606 0.695126 0
M  V30 7330 H 717.957 -4.35394 -0.576913 0
M  V30 7331 H 718.563 -4.11411 1.078 0
M  V30 7332 N 716.879 -0.700114 -1.41195 0
M  V30 7333 C 718.29 -0.307249 -1.84154 0
M  V30 7334 C 718.641 1.15539 -1.58572 0
M  V30 7335 O 717.766 1.88744 -1.05852 0
M  V30 7336 C 718.361 -0.550872 -3.34292 0
M  V30 7337 C 716.92 -0.211877 -3.75803 0
M  V30 7338 C 716.067 -0.830915 -2.64558 0
M  V30 7339 H 719.018 -0.900431 -1.30683 0
M  V30 7340 H 719.039 0.188954 -3.80031 0
M  V30 7341 H 718.551 -1.61548 -3.5288 0
M  V30 7342 H 716.652 0.848283 -3.62815 0
M  V30 7343 H 716.765 -0.67007 -4.74391 0
M  V30 7344 H 715.129 -0.260155 -2.53368 0
M  V30 7345 H 715.912 -1.89948 -2.85963 0
M  V30 7346 N 718.357 1.51182 -0.445186 0
M  V30 7347 C 719.305 2.29531 0.376597 0
M  V30 7348 C 720.299 1.35711 1.01385 0
M  V30 7349 O 721.505 1.53018 0.947922 0
M  V30 7350 H 717.88 0.738803 0.140267 0
M  V30 7351 H 719.851 2.96838 -0.304958 0
M  V30 7352 C 718.6 3.1552 1.4609 0
M  V30 7353 H 717.923 3.87605 0.979912 0
M  V30 7354 H 719.363 3.73384 2.009 0
M  V30 7355 C 717.822 2.31406 2.44852 0
M  V30 7356 O 718.352 1.97912 3.49562 0
M  V30 7357 N 716.558 1.94478 2.15932 0
M  V30 7358 H 716.105 2.21917 1.30808 0
M  V30 7359 H 716.063 1.38498 2.82251 0
M  V30 7360 N 719.835 0.176821 1.56605 0
M  V30 7361 C 720.768 -0.790135 2.14084 0
M  V30 7362 C 721.746 -1.22219 1.07244 0
M  V30 7363 O 722.93 -1.31298 1.35252 0
M  V30 7364 C 720.057 -2.06475 2.68488 0
M  V30 7365 C 719.103 -1.77628 3.87751 0
M  V30 7366 S 719.936 -0.940612 5.27174 0
M  V30 7367 C 721.092 -2.22577 5.84988 0
M  V30 7368 H 721.325 -0.30144 2.95768 0
M  V30 7369 H 718.858 -0.0379279 1.54353 0
M  V30 7370 H 720.816 -2.79683 3.00479 0
M  V30 7371 H 719.477 -2.52457 1.8688 0
M  V30 7372 H 718.67 -2.72215 4.24164 0
M  V30 7373 H 718.272 -1.12512 3.56675 0
M  V30 7374 H 720.564 -3.17992 5.98237 0
M  V30 7375 H 721.507 -1.90624 6.81959 0
M  V30 7376 H 721.915 -2.34588 5.13448 0
M  V30 7377 N 721.313 -1.57302 -0.09688 0
M  V30 7378 C 722.538 -1.9058 -0.818169 0
M  V30 7379 C 722.963 -0.770921 -1.71576 0
M  V30 7380 O 722.321 0.277588 -1.79162 0
M  V30 7381 C 722.369 -3.22714 -1.60898 0
M  V30 7382 O 721.473 -3.10178 -2.71779 0
M  V30 7383 H 720.814 -0.624759 -0.224882 0
M  V30 7384 H 723.344 -2.04471 -0.07264 0
M  V30 7385 H 723.354 -3.55978 -1.99358 0
M  V30 7386 H 722.029 -4.04899 -0.950227 0
M  V30 7387 H 720.606 -2.88424 -2.3636 0
M  V30 7388 N 722.791 0.367657 -1.53252 0
M  V30 7389 C 724.019 1.13119 -1.73239 0
M  V30 7390 C 724.434 1.831 -0.460404 0
M  V30 7391 O 723.791 1.73483 0.566557 0
M  V30 7392 C 723.842 2.16308 -2.89643 0
M  V30 7393 O 723.563 1.49175 -4.1192 0
M  V30 7394 C 725.064 3.05224 -3.21486 0
M  V30 7395 H 722.284 0.338318 -0.579467 0
M  V30 7396 H 724.828 0.42721 -1.99988 0
M  V30 7397 H 722.983 2.82307 -2.65295 0
M  V30 7398 H 723.397 2.17912 -4.7709 0
M  V30 7399 H 724.871 3.73613 -4.06346 0
M  V30 7400 H 725.348 3.69919 -2.36763 0
M  V30 7401 H 725.954 2.44843 -3.47753 0
M  V30 7402 N 724.269 1.44576 0.627338 0
M  V30 7403 C 725.515 1.4877 1.38705 0
M  V30 7404 C 725.87 0.119976 1.92026 0
M  V30 7405 O 725.163 -0.865341 1.70946 0
M  V30 7406 C 725.357 2.48644 2.56731 0
M  V30 7407 C 725.186 3.94994 2.14965 0
M  V30 7408 C 723.956 4.63139 2.02065 0
M  V30 7409 C 726.154 4.841 1.73643 0
M  V30 7410 N 724.136 5.94296 1.53902 0
M  V30 7411 C 725.507 6.0473 1.36753 0
M  V30 7412 C 727.562 4.71131 1.61058 0
M  V30 7413 C 726.265 7.13831 0.885353 0
M  V30 7414 C 728.291 5.8026 1.14244 0
M  V30 7415 C 727.653 7.00034 0.783067 0
M  V30 7416 H 723.752 0.599415 0.50222 0
M  V30 7417 H 726.336 1.80926 0.719285 0
M  V30 7418 H 724.507 2.18472 3.2113 0
M  V30 7419 H 726.239 2.4311 3.23542 0
M  V30 7420 H 722.994 4.18007 2.22637 0
M  V30 7421 H 723.418 6.63985 1.32108 0
M  V30 7422 H 728.06 3.78964 1.87473 0
M  V30 7423 H 725.778 8.05804 0.608716 0
M  V30 7424 H 729.364 5.72254 1.0496 0
M  V30 7425 H 728.244 7.8304 0.426381 0
M  V30 7426 N 725.747 -0.868086 1.31537 0
M  V30 7427 C 727.163 -1.15414 1.10235 0
M  V30 7428 C 727.363 -2.01106 -0.125947 0
M  V30 7429 O 726.419 -2.38994 -0.814734 0
M  V30 7430 C 727.732 -1.84445 2.37488 0
M  V30 7431 C 729.28 -1.97139 2.43116 0
M  V30 7432 C 729.755 -2.69585 3.70254 0
M  V30 7433 N 731.246 -2.77119 3.71159 0
M  V30 7434 C 731.981 -3.33791 4.6623 0
M  V30 7435 N 731.477 -3.9138 5.71659 0
M  V30 7436 N 733.27 -3.31767 4.53747 0
M  V30 7437 H 725.421 -0.297109 2.10312 0
M  V30 7438 H 727.684 -0.194227 0.92789 0
M  V30 7439 H 727.39 -1.2893 3.27215 0
M  V30 7440 H 727.264 -2.84709 2.47428 0
M  V30 7441 H 729.651 -2.51818 1.53856 0
M  V30 7442 H 729.732 -0.95912 2.37138 0
M  V30 7443 H 729.376 -2.15572 4.59881 0
M  V30 7444 H 729.306 -3.71223 3.73499 0
M  V30 7445 H 731.797 -2.3625 2.94948 0
M  V30 7446 H 732.11 -4.3274 6.40278 0
M  V30 7447 H 730.455 -3.8975 5.7543 0
M  V30 7448 H 733.646 -2.86016 3.70557 0
M  V30 7449 H 733.819 -3.75636 5.28017 0
M  V30 7450 N 727.225 -1.14528 -1.08264 0
M  V30 7451 C 728.636 -0.925261 -1.6216 0
M  V30 7452 C 728.987 0.535587 -1.88748 0
M  V30 7453 O 728.112 1.4048 -1.64604 0
M  V30 7454 C 728.707 -1.67316 -2.94603 0
M  V30 7455 C 727.266 -1.49868 -3.45278 0
M  V30 7456 C 726.413 -1.69471 -2.19487 0
M  V30 7457 H 729.364 -1.29687 -0.914707 0
M  V30 7458 H 729.385 -1.13721 -3.63109 0
M  V30 7459 H 728.897 -2.73635 -2.75219 0
M  V30 7460 H 726.998 -0.459032 -3.69762 0
M  V30 7461 H 727.111 -2.2696 -4.21931 0
M  V30 7462 H 725.475 -1.12048 -2.2873 0
M  V30 7463 H 726.258 -2.77136 -2.0261 0
M  V30 7464 N 728.703 1.26451 -0.940633 0
M  V30 7465 C 729.943 1.95537 -0.595381 0
M  V30 7466 C 730.307 1.72175 0.849683 0
M  V30 7467 O 731.508 2.3506 1.30384 0
M  V30 7468 C 729.779 3.45151 -0.927669 0
M  V30 7469 S 731.338 4.33295 -0.69288 0
M  V30 7470 H 728.156 0.676331 -0.219311 0
M  V30 7471 H 730.758 1.53411 -1.21183 0
M  V30 7472 H 729.462 3.59654 -1.9768 0
M  V30 7473 H 728.993 3.92247 -0.300921 0
M  V30 7474 H 731.008 4.94217 0.443175 0
M  V30 7475 N 730.181 0.707592 1.40822 0
M  V30 7476 C 731.458 0.171172 1.9485 0
M  V30 7477 C 731.838 -1.32143 1.64625 0
M  V30 7478 O 731.186 -2.07372 0.959647 0
M  V30 7479 C 731.396 0.475334 3.45748 0
M  V30 7480 C 732.744 0.409625 4.22619 0
M  V30 7481 O 733.768 0.410934 3.53822 0
M  V30 7482 O 732.627 0.380185 5.45176 0
M  V30 7483 H 729.721 0.022015 0.826707 0
M  V30 7484 H 732.267 0.784577 1.50474 0
M  V30 7485 H 731.039 1.50801 3.61075 0
M  V30 7486 H 730.662 -0.168439 3.97243 0
M  V30 7487 N 731.66 -1.50943 0.453197 0
M  V30 7488 C 732.592 -2.25922 -0.38623 0
M  V30 7489 C 733.605 -1.3055 -0.972652 0
M  V30 7490 O 734.794 -1.56191 -0.864097 0
M  V30 7491 C 731.894 -3.01176 -1.5539 0
M  V30 7492 C 731.067 -4.23768 -1.0835 0
M  V30 7493 C 730.126 -4.81466 -2.12313 0
M  V30 7494 O 729.152 -5.42875 -1.71101 0
M  V30 7495 N 730.354 -4.66889 -3.44956 0
M  V30 7496 H 733.119 -2.98601 0.256468 0
M  V30 7497 H 730.68 -1.59408 0.282965 0
M  V30 7498 H 732.672 -3.36659 -2.24594 0
M  V30 7499 H 731.242 -2.31409 -2.10163 0
M  V30 7500 H 730.462 -3.93597 -0.217961 0
M  V30 7501 H 731.75 -5.03289 -0.746857 0
M  V30 7502 H 731.148 -4.18011 -3.81161 0
M  V30 7503 H 729.705 -5.06691 -4.1001 0
M  V30 7504 N 733.138 -0.185124 -1.56509 0
M  V30 7505 C 734.384 0.456934 -1.97585 0
M  V30 7506 C 734.717 1.61957 -1.07161 0
M  V30 7507 O 733.992 1.9412 -0.121546 0
M  V30 7508 C 734.275 0.926666 -3.47973 0
M  V30 7509 C 734.128 -0.237097 -4.49175 0
M  V30 7510 C 735.447 1.79561 -4.01803 0
M  V30 7511 H 732.566 0.164619 -0.71838 0
M  V30 7512 H 735.208 -0.274039 -1.88013 0
M  V30 7513 H 733.358 1.54954 -3.56261 0
M  V30 7514 H 735.03 -0.87454 -4.52934 0
M  V30 7515 H 733.273 -0.890446 -4.24563 0
M  V30 7516 H 733.944 0.133924 -5.51838 0
M  V30 7517 H 736.42 1.27039 -3.96232 0
M  V30 7518 H 735.296 2.09327 -5.07418 0
M  V30 7519 H 735.557 2.74629 -3.46455 0
M  V30 7520 N 734.616 1.57351 0.0885366 0
M  V30 7521 C 735.526 2.05858 1.12516 0
M  V30 7522 C 736.542 0.984758 1.43452 0
M  V30 7523 O 737.718 1.29836 1.53963 0
M  V30 7524 C 734.783 2.47882 2.42395 0
M  V30 7525 C 733.844 3.69487 2.18582 0
M  V30 7526 C 733.077 4.09497 3.42268 0
M  V30 7527 O 733.3 3.49536 4.50755 0
M  V30 7528 O 732.234 5.02406 3.31469 0
M  V30 7529 H 736.06 2.94467 0.743146 0
M  V30 7530 H 733.645 1.46326 0.301507 0
M  V30 7531 H 735.527 2.75509 3.18862 0
M  V30 7532 H 734.202 1.62408 2.8001 0
M  V30 7533 H 733.109 3.46967 1.39875 0
M  V30 7534 H 734.442 4.55761 1.85857 0
M  V30 7535 N 736.094 -0.359525 1.53444 0
M  V30 7536 C 737.319 -1.12644 1.74144 0
M  V30 7537 C 737.744 -1.82082 0.472007 0
M  V30 7538 O 737.102 -1.71962 -0.57436 0
M  V30 7539 C 737.15 -2.12781 2.9113 0
M  V30 7540 O 736.254 -3.19984 2.60162 0
M  V30 7541 H 735.595 -0.326553 0.578152 0
M  V30 7542 H 738.125 -0.414798 2.00351 0
M  V30 7543 H 738.135 -2.56278 3.17467 0
M  V30 7544 H 736.81 -1.61634 3.83207 0
M  V30 7545 H 735.387 -2.81417 2.44661 0
M  V30 7546 N 737.572 -1.44907 -0.619662 0
M  V30 7547 C 738.535 -1.52282 -1.71297 0
M  V30 7548 C 739.535 -0.40359 -1.55653 0
M  V30 7549 O 740.725 -0.666638 -1.6094 0
M  V30 7550 C 737.857 -1.40778 -3.10474 0
M  V30 7551 H 739.05 -2.49683 -1.66128 0
M  V30 7552 H 736.603 -1.32168 -0.834339 0
M  V30 7553 H 737.338 -0.445156 -3.2123 0
M  V30 7554 H 737.123 -2.21947 -3.23237 0
M  V30 7555 H 738.613 -1.48946 -3.90135 0
M  V30 7556 N 739.05 0.861098 -1.31996 0
M  V30 7557 C 740.296 1.61721 -1.22369 0
M  V30 7558 C 740.629 1.93 0.215587 0
M  V30 7559 O 739.904 1.56789 1.15098 0
M  V30 7560 C 740.187 2.9417 -2.07691 0
M  V30 7561 C 740.04 2.69714 -3.59965 0
M  V30 7562 C 741.359 3.95372 -1.93312 0
M  V30 7563 H 738.478 0.586822 -0.44588 0
M  V30 7564 H 741.12 0.994788 -1.61876 0
M  V30 7565 H 739.27 3.47292 -1.74128 0
M  V30 7566 H 740.942 2.23196 -4.03709 0
M  V30 7567 H 739.185 2.03789 -3.82952 0
M  V30 7568 H 739.856 3.63996 -4.14983 0
M  V30 7569 H 742.332 3.51487 -2.22701 0
M  V30 7570 H 741.208 4.85916 -2.55298 0
M  V30 7571 H 741.469 4.32865 -0.898922 0
M  V30 7572 N 740.528 1.15101 1.07655 0
M  V30 7573 C 741.491 0.847625 2.12951 0
M  V30 7574 C 742.491 -0.151227 1.60087 0
M  V30 7575 O 743.681 0.0780399 1.74025 0
M  V30 7576 C 740.813 0.265 3.39868 0
M  V30 7577 H 742.006 1.7809 2.41296 0
M  V30 7578 H 739.559 0.958072 1.23494 0
M  V30 7579 H 740.294 -0.676625 3.17163 0
M  V30 7580 H 740.079 0.984554 3.79538 0
M  V30 7581 H 741.569 0.0702121 4.17541 0
M  V30 7582 N 742.006 -1.2595 0.947325 0
M  V30 7583 C 743.252 -1.94081 0.608604 0
M  V30 7584 C 743.607 -1.72899 -0.844021 0
M  V30 7585 O 742.9 -1.05908 -1.59669 0
M  V30 7586 C 743.094 -3.46034 0.894158 0
M  V30 7587 C 742.923 -3.81994 2.37299 0
M  V30 7588 C 741.693 -4.04431 3.02925 0
M  V30 7589 C 743.891 -3.90069 3.35188 0
M  V30 7590 N 741.873 -4.27325 4.40757 0
M  V30 7591 C 743.244 -4.17567 4.58299 0
M  V30 7592 C 745.299 -3.72721 3.30127 0
M  V30 7593 C 744.002 -4.2952 5.76979 0
M  V30 7594 C 746.028 -3.8591 4.48138 0
M  V30 7595 C 745.39 -4.13812 5.70034 0
M  V30 7596 H 741.489 -0.73273 0.273187 0
M  V30 7597 H 744.073 -1.51898 1.218 0
M  V30 7598 H 742.244 -3.87131 0.313758 0
M  V30 7599 H 743.976 -4.01396 0.516082 0
M  V30 7600 H 740.731 -4.0003 2.53521 0
M  V30 7601 H 741.155 -4.42792 5.12118 0
M  V30 7602 H 745.797 -3.50172 2.36938 0
M  V30 7603 H 743.515 -4.50888 6.70616 0
M  V30 7604 H 747.101 -3.73882 4.45762 0
M  V30 7605 H 745.981 -4.23791 6.59827 0
M  V30 7606 N 743.484 -0.715051 -1.40445 0
M  V30 7607 C 744.431 -0.0621393 -2.30716 0
M  V30 7608 C 745.401 0.750871 -1.48159 0
M  V30 7609 O 746.586 0.714928 -1.76899 0
M  V30 7610 C 743.726 0.854036 -3.34365 0
M  V30 7611 C 742.839 0.0305565 -4.31989 0
M  V30 7612 C 741.974 0.946162 -5.22706 0
M  V30 7613 C 741.013 0.116741 -6.11989 0
M  V30 7614 N 740.15 0.987194 -6.95125 0
M  V30 7615 H 744.99 -0.83764 -2.85985 0
M  V30 7616 H 742.527 -0.424759 -1.40834 0
M  V30 7617 H 744.485 1.39946 -3.93028 0
M  V30 7618 H 743.115 1.59572 -2.806 0
M  V30 7619 H 742.167 -0.632044 -3.75112 0
M  V30 7620 H 743.479 -0.611615 -4.95036 0
M  V30 7621 H 742.633 1.56014 -5.86297 0
M  V30 7622 H 741.372 1.62216 -4.59932 0
M  V30 7623 H 740.377 -0.510176 -5.47428 0
M  V30 7624 H 741.602 -0.555742 -6.76822 0
M  V30 7625 H 739.548 1.64885 -6.3494 0
M  V30 7626 H 739.465 0.401046 -7.54936 0
M  V30 7627 H 740.733 1.58737 -7.63166 0
M  V30 7628 N 744.962 1.50701 -0.461195 0
M  V30 7629 C 746.192 2.06381 0.0950376 0
M  V30 7630 C 746.6 1.32627 1.34933 0
M  V30 7631 O 745.943 0.386137 1.79596 0
M  V30 7632 C 746.005 3.56558 0.458965 0
M  V30 7633 C 745.669 4.51732 -0.691891 0
M  V30 7634 C 746.666 4.95594 -1.57105 0
M  V30 7635 C 744.351 4.94542 -0.879407 0
M  V30 7636 C 746.345 5.80963 -2.62223 0
M  V30 7637 C 744.032 5.79695 -1.93382 0
M  V30 7638 C 745.03 6.22806 -2.80359 0
M  V30 7639 O 744.718 7.06265 -3.83986 0
M  V30 7640 H 744.45 0.676 0.000687488 0
M  V30 7641 H 747.004 1.94974 -0.646087 0
M  V30 7642 H 745.234 3.65832 1.25314 0
M  V30 7643 H 746.923 3.94647 0.949124 0
M  V30 7644 H 747.689 4.63197 -1.43783 0
M  V30 7645 H 743.568 4.60513 -0.211907 0
M  V30 7646 H 747.112 6.14533 -3.30143 0
M  V30 7647 H 743.009 6.11506 -2.06715 0
M  V30 7648 H 743.777 7.24494 -3.80855 0
M  V30 7649 N 746.441 0.193421 1.56409 0
M  V30 7650 C 747.689 -0.444908 1.97142 0
M  V30 7651 C 748.01 -1.62268 1.08139 0
M  V30 7652 O 747.28 -1.95307 0.152326 0
M  V30 7653 H 745.86 -0.16736 0.728011 0
M  V30 7654 H 748.522 0.279763 1.92882 0
M  V30 7655 H 747.618 -0.790159 3.01932 0
M  V30 7656 N 747.919 -1.57396 -0.0801906 0
M  V30 7657 C 749.165 -1.87113 -0.782083 0
M  V30 7658 C 749.498 -0.78458 -1.77646 0
M  V30 7659 O 748.773 0.205993 -1.93406 0
M  V30 7660 C 749.056 -3.27483 -1.49756 0
M  V30 7661 C 748.909 -4.46782 -0.520171 0
M  V30 7662 C 750.228 -3.65965 -2.44454 0
M  V30 7663 H 747.347 -0.680559 -0.282858 0
M  V30 7664 H 749.989 -1.89946 -0.0454139 0
M  V30 7665 H 748.139 -3.25199 -2.12551 0
M  V30 7666 H 749.811 -4.61187 0.101919 0
M  V30 7667 H 748.054 -4.33485 0.165219 0
M  V30 7668 H 748.725 -5.41761 -1.05824 0
M  V30 7669 H 751.201 -3.69289 -1.91742 0
M  V30 7670 H 750.077 -4.65086 -2.91524 0
M  V30 7671 H 750.338 -2.95446 -3.28883 0
M  V30 7672 N 749.397 0.351382 -1.53633 0
M  V30 7673 C 750.307 1.45471 -1.84052 0
M  V30 7674 C 751.323 1.57945 -0.730015 0
M  V30 7675 O 752.499 1.73571 -1.02153 0
M  V30 7676 C 749.564 2.80562 -2.03681 0
M  V30 7677 C 748.625 2.77497 -3.27558 0
M  V30 7678 C 747.858 4.06144 -3.46241 0
M  V30 7679 O 748.081 5.03028 -2.68922 0
M  V30 7680 O 747.015 4.11092 -4.39645 0
M  V30 7681 H 750.841 1.22684 -2.77817 0
M  V30 7682 H 748.426 0.542827 -1.3919 0
M  V30 7683 H 750.308 3.6058 -2.18082 0
M  V30 7684 H 748.983 3.03296 -1.13106 0
M  V30 7685 H 747.89 1.96126 -3.18568 0
M  V30 7686 H 749.223 2.59716 -4.18101 0
M  V30 7687 N 750.875 1.45233 0.611969 0
M  V30 7688 C 752.291 1.29542 0.932251 0
M  V30 7689 C 752.491 0.24523 2.00002 0
M  V30 7690 O 751.547 -0.362333 2.49887 0
M  V30 7691 C 752.86 2.67301 1.37733 0
M  V30 7692 C 754.408 2.75163 1.49178 0
M  V30 7693 C 754.883 4.13437 1.97064 0
M  V30 7694 N 756.374 4.15709 2.04304 0
M  V30 7695 C 757.109 5.19566 2.42568 0
M  V30 7696 N 756.605 6.33771 2.79832 0
M  V30 7697 N 758.398 5.06923 2.42869 0
M  V30 7698 H 750.549 2.12192 -0.0938679 0
M  V30 7699 H 752.812 0.947775 0.0206569 0
M  V30 7700 H 752.518 3.45318 0.666951 0
M  V30 7701 H 752.392 2.95472 2.3447 0
M  V30 7702 H 754.779 1.97453 2.19309 0
M  V30 7703 H 754.86 2.50712 0.507674 0
M  V30 7704 H 754.504 4.91631 1.27521 0
M  V30 7705 H 754.434 4.35277 2.9638 0
M  V30 7706 H 756.925 3.33293 1.78113 0
M  V30 7707 H 757.238 7.08815 3.07898 0
M  V30 7708 H 755.583 6.37179 2.77538 0
M  V30 7709 H 758.774 4.1675 2.1316 0
M  V30 7710 H 758.947 5.87981 2.72364 0
M  V30 7711 N 752.353 -0.854086 1.3245 0
M  V30 7712 C 753.285 -1.96932 1.17262 0
M  V30 7713 C 754.298 -1.62445 0.107469 0
M  V30 7714 O 755.487 -1.74904 0.356481 0
M  V30 7715 C 752.587 -3.29971 0.772817 0
M  V30 7716 C 751.76 -3.92695 1.92638 0
M  V30 7717 C 750.819 -5.04068 1.51003 0
M  V30 7718 O 749.845 -5.24032 2.22213 0
M  V30 7719 N 751.047 -5.79076 0.406371 0
M  V30 7720 H 753.812 -2.10503 2.13327 0
M  V30 7721 H 751.373 -1.02897 1.24995 0
M  V30 7722 H 753.365 -4.01883 0.476684 0
M  V30 7723 H 751.935 -3.1245 -0.0967 0
M  V30 7724 H 751.155 -3.13563 2.38897 0
M  V30 7725 H 752.443 -4.31337 2.69863 0
M  V30 7726 H 751.841 -5.65393 -0.186302 0
M  V30 7727 H 750.398 -6.51579 0.169846 0
M  V30 7728 N 753.831 -1.1567 -1.07043 0
M  V30 7729 C 755.108 -0.843948 -1.76456 0
M  V30 7730 C 755.488 0.659806 -2.00524 0
M  V30 7731 O 754.836 1.60518 -1.62623 0
M  V30 7732 C 755.046 -1.65822 -3.0709 0
M  V30 7733 C 756.394 -1.8664 -3.8138 0
M  V30 7734 O 757.418 -1.62624 -3.1691 0
M  V30 7735 O 756.277 -2.26884 -4.97178 0
M  V30 7736 H 753.371 -0.310677 -0.766426 0
M  V30 7737 H 755.917 -1.26266 -1.1338 0
M  V30 7738 H 754.689 -2.67902 -2.85209 0
M  V30 7739 H 754.312 -1.23605 -3.77899 0
M  V30 7740 N 755.309 1.25446 -0.953992 0
M  V30 7741 C 756.557 1.92762 -0.607227 0
M  V30 7742 C 756.878 1.7509 0.858399 0
M  V30 7743 O 756.148 1.11416 1.61132 0
M  V30 7744 H 754.728 0.713377 -0.221591 0
M  V30 7745 H 757.39 1.52625 -1.21209 0
M  V30 7746 H 756.486 3.00695 -0.835998 0
M  V30 7747 N 756.787 0.722489 1.40064 0
M  V30 7748 C 758.198 0.336507 1.83642 0
M  V30 7749 C 758.549 -1.13002 1.6039 0
M  V30 7750 O 757.674 -1.87036 1.08842 0
M  V30 7751 C 758.269 0.603985 3.33373 0
M  V30 7752 C 756.828 0.271637 3.75419 0
M  V30 7753 C 755.975 0.872898 2.63203 0
M  V30 7754 H 758.926 0.921108 1.29233 0
M  V30 7755 H 758.947 -0.128471 3.80283 0
M  V30 7756 H 758.459 1.67141 3.50265 0
M  V30 7757 H 756.56 -0.790455 3.64119 0
M  V30 7758 H 756.673 0.745457 4.73265 0
M  V30 7759 H 755.037 0.300431 2.52922 0
M  V30 7760 H 755.82 1.94473 2.82905 0
M  V30 7761 N 758.265 -1.50454 0.469181 0
M  V30 7762 C 759.493 -2.06729 -0.0842134 0
M  V30 7763 C 759.908 -1.33326 -1.33677 0
M  V30 7764 O 759.265 -0.401977 -1.78018 0
M  V30 7765 C 759.316 -3.59557 -0.374253 0
M  V30 7766 O 759.037 -4.30192 0.828622 0
M  V30 7767 C 760.538 -4.32449 -0.974824 0
M  V30 7768 H 757.758 -0.670971 0.006231 0
M  V30 7769 H 760.302 -1.93645 0.657415 0
M  V30 7770 H 758.457 -3.7245 -1.06581 0
M  V30 7771 H 758.871 -5.21371 0.572066 0
M  V30 7772 H 760.345 -5.40361 -1.12755 0
M  V30 7773 H 760.822 -3.92819 -1.96442 0
M  V30 7774 H 761.428 -4.24082 -0.321703 0
M  V30 7775 N 759.743 -0.201713 -1.56304 0
M  V30 7776 C 760.706 0.702811 -2.18159 0
M  V30 7777 C 761.706 1.13619 -1.13787 0
M  V30 7778 O 762.896 1.0482 -1.39134 0
M  V30 7779 C 760.028 1.96032 -2.78898 0
M  V30 7780 H 761.221 0.163836 -2.99452 0
M  V30 7781 H 758.774 0.04791 -1.56227 0
M  V30 7782 H 759.509 2.54165 -2.01421 0
M  V30 7783 H 759.294 1.65824 -3.55309 0
M  V30 7784 H 760.784 2.60519 -3.26373 0
M  V30 7785 N 761.222 1.57436 0.0718424 0
M  V30 7786 C 762.152 2.06724 1.08571 0
M  V30 7787 C 763.133 0.960731 1.40371 0
M  V30 7788 O 764.318 1.23345 1.49999 0
M  V30 7789 C 761.448 2.51112 2.39916 0
M  V30 7790 C 760.402 3.65639 2.22469 0
M  V30 7791 C 759.728 3.96082 3.59198 0
M  V30 7792 C 761.028 4.95687 1.64596 0
M  V30 7793 H 762.722 2.91679 0.675569 0
M  V30 7794 H 760.268 1.40319 0.32352 0
M  V30 7795 H 762.221 2.84206 3.11135 0
M  V30 7796 H 760.945 1.63186 2.8291 0
M  V30 7797 H 759.604 3.32828 1.53691 0
M  V30 7798 H 759.252 3.05287 3.99761 0
M  V30 7799 H 758.952 4.73199 3.48362 0
M  V30 7800 H 760.476 4.31672 4.31847 0
M  V30 7801 H 761.89 5.27011 2.25681 0
M  V30 7802 H 760.287 5.77126 1.64457 0
M  V30 7803 H 761.357 4.8108 0.60744 0
M  V30 7804 N 762.7 -0.34323 1.53817 0
M  V30 7805 C 763.949 -1.08086 1.70295 0
M  V30 7806 C 764.262 -1.89794 0.47302 0
M  V30 7807 O 765.468 -2.66498 0.518754 0
M  V30 7808 C 763.924 -1.97097 3.01133 0
M  V30 7809 C 763.532 -1.20594 4.31464 0
M  V30 7810 C 765.276 -2.70715 3.26976 0
M  V30 7811 C 763.183 -2.08636 5.53376 0
M  V30 7812 H 762.113 -0.407228 0.634572 0
M  V30 7813 H 764.764 -0.340328 1.80316 0
M  V30 7814 H 763.146 -2.74971 2.84969 0
M  V30 7815 H 764.32 -0.476282 4.58332 0
M  V30 7816 H 762.635 -0.587426 4.12236 0
M  V30 7817 H 765.232 -3.36857 4.15248 0
M  V30 7818 H 765.575 -3.37299 2.43998 0
M  V30 7819 H 766.108 -1.99914 3.43917 0
M  V30 7820 H 762.847 -1.46594 6.38898 0
M  V30 7821 H 762.367 -2.7939 5.30755 0
M  V30 7822 H 764.046 -2.67682 5.89029 0
M  V30 7823 N 764.178 -1.45556 -0.604258 0
M  V30 7824 C 765.108 -1.57327 -1.72541 0
M  V30 7825 C 766.089 -0.424637 -1.64714 0
M  V30 7826 O 767.274 -0.648196 -1.83063 0
M  V30 7827 C 764.404 -1.54279 -3.11152 0
M  V30 7828 C 763.358 -2.67893 -3.33792 0
M  V30 7829 C 762.684 -2.499 -4.72709 0
M  V30 7830 C 763.984 -4.0988 -3.23722 0
M  V30 7831 H 765.678 -2.51175 -1.62947 0
M  V30 7832 H 763.224 -1.20884 -0.782504 0
M  V30 7833 H 765.177 -1.6111 -3.89386 0
M  V30 7834 H 763.901 -0.569627 -3.21594 0
M  V30 7835 H 762.56 -2.60495 -2.57949 0
M  V30 7836 H 762.208 -1.50715 -4.79889 0
M  V30 7837 H 761.908 -3.26091 -4.88813 0
M  V30 7838 H 763.432 -2.5859 -5.5314 0
M  V30 7839 H 764.846 -4.18503 -3.91826 0
M  V30 7840 H 763.243 -4.86487 -3.51355 0
M  V30 7841 H 764.313 -4.31553 -2.21111 0
M  V30 7842 N 765.656 0.84705 -1.32902 0
M  V30 7843 C 766.881 1.63925 -1.27056 0
M  V30 7844 C 767.306 1.87443 0.157136 0
M  V30 7845 O 766.664 1.43266 1.11106 0
M  V30 7846 C 766.712 2.97134 -2.04313 0
M  V30 7847 O 765.816 3.88049 -1.39614 0
M  V30 7848 H 765.157 0.499477 -0.437514 0
M  V30 7849 H 767.687 1.05443 -1.75336 0
M  V30 7850 H 767.697 3.46896 -2.14772 0
M  V30 7851 H 766.372 2.79339 -3.08128 0
M  V30 7852 H 764.949 3.46525 -1.3775 0
M  V30 7853 N 767.134 1.16236 1.06428 0
M  V30 7854 C 768.55 0.906983 1.31324 0
M  V30 7855 C 768.75 -0.440872 1.96618 0
M  V30 7856 O 767.806 -1.1807 2.23194 0
M  V30 7857 C 769.119 2.05501 2.19522 0
M  V30 7858 C 770.667 2.09061 2.32943 0
M  V30 7859 C 771.142 3.23214 3.24495 0
M  V30 7860 N 772.633 3.22922 3.32078 0
M  V30 7861 C 773.368 4.07889 4.03006 0
M  V30 7862 N 772.864 5.02941 4.76469 0
M  V30 7863 N 774.657 3.95881 3.99043 0
M  V30 7864 H 766.808 2.03015 0.624388 0
M  V30 7865 H 769.071 0.88576 0.337835 0
M  V30 7866 H 768.777 3.02847 1.78819 0
M  V30 7867 H 768.651 1.99538 3.201 0
M  V30 7868 H 771.038 1.12308 2.72893 0
M  V30 7869 H 771.119 2.19089 1.32037 0
M  V30 7870 H 770.763 4.20225 2.85261 0
M  V30 7871 H 770.693 3.10423 4.25377 0
M  V30 7872 H 773.184 2.54093 2.79724 0
M  V30 7873 H 773.497 5.64196 5.28112 0
M  V30 7874 H 771.842 5.06922 4.75453 0
M  V30 7875 H 775.033 3.20927 3.40769 0
M  V30 7876 H 775.206 4.62321 4.54052 0
M  V30 7877 N 768.612 -1.24939 0.960631 0
M  V30 7878 C 769.544 -2.24879 0.442937 0
M  V30 7879 C 770.557 -1.56615 -0.444464 0
M  V30 7880 O 771.746 -1.76715 -0.251776 0
M  V30 7881 C 768.846 -3.36757 -0.380537 0
M  V30 7882 C 768.019 -4.34587 0.495283 0
M  V30 7883 C 767.078 -5.25502 -0.270995 0
M  V30 7884 O 766.104 -5.68227 0.332661 0
M  V30 7885 N 767.306 -5.59077 -1.56249 0
M  V30 7886 H 770.071 -2.69932 1.30218 0
M  V30 7887 H 767.632 -1.38907 0.83166 0
M  V30 7888 H 769.624 -3.94542 -0.90103 0
M  V30 7889 H 768.194 -2.91045 -1.14067 0
M  V30 7890 H 767.414 -3.75593 1.19682 0
M  V30 7891 H 768.702 -4.96925 1.09285 0
M  V30 7892 H 768.1 -5.2628 -2.07476 0
M  V30 7893 H 766.657 -6.19421 -2.02882 0
M  V30 7894 N 770.09 -0.729906 -1.39679 0
M  V30 7895 C 771.038 -0.0756589 -2.32477 0
M  V30 7896 C 772.032 0.731438 -1.52795 0
M  V30 7897 O 773.238 0.633195 -1.68495 0
M  V30 7898 H 769.613 -0.00566492 -0.751979 0
M  V30 7899 H 771.584 -0.874797 -2.85289 0
M  V30 7900 C 770.333 0.821313 -3.37861 0
M  V30 7901 H 769.656 0.209666 -3.9925 0
M  V30 7902 H 771.096 1.24679 -4.05254 0
M  V30 7903 C 769.555 1.9533 -2.74495 0
M  V30 7904 O 770.085 3.04548 -2.61942 0
M  V30 7905 N 768.291 1.74119 -2.3266 0
M  V30 7906 H 767.838 0.852908 -2.4307 0
M  V30 7907 H 767.796 2.50036 -1.90603 0
M  V30 7908 N 771.568 1.50203 -0.477153 0
M  V30 7909 C 772.498 2.31517 0.303646 0
M  V30 7910 C 773.479 1.38696 0.984753 0
M  V30 7911 O 774.664 1.67615 0.980758 0
M  V30 7912 C 771.794 3.18598 1.38249 0
M  V30 7913 C 770.748 4.2002 0.822645 0
M  V30 7914 C 770.074 4.95878 2.00024 0
M  V30 7915 C 771.374 5.22023 -0.170185 0
M  V30 7916 H 773.068 2.97042 -0.375027 0
M  V30 7917 H 770.614 1.42848 -0.181802 0
M  V30 7918 H 772.567 3.74282 1.93625 0
M  V30 7919 H 771.291 2.5097 2.09002 0
M  V30 7920 H 769.95 3.65445 0.290813 0
M  V30 7921 H 769.598 4.24717 2.69489 0
M  V30 7922 H 769.298 5.64487 1.63183 0
M  V30 7923 H 770.822 5.54399 2.55878 0
M  V30 7924 H 772.236 5.72543 0.294606 0
M  V30 7925 H 770.633 5.98386 -0.453181 0
M  V30 7926 H 771.703 4.72396 -1.09408 0
M  V30 7927 N 773.046 0.209999 1.56195 0
M  V30 7928 C 774.009 -0.691232 2.18528 0
M  V30 7929 C 775.009 -1.13013 1.14388 0
M  V30 7930 O 776.199 -1.04081 1.39688 0
M  V30 7931 C 773.331 -1.94551 2.79934 0
M  V30 7932 H 774.524 -0.147953 2.99535 0
M  V30 7933 H 772.077 -0.0396243 1.5625 0
M  V30 7934 H 772.812 -2.53094 2.02766 0
M  V30 7935 H 772.597 -1.63938 3.56184 0
M  V30 7936 H 774.087 -2.58785 3.2775 0
M  V30 7937 N 774.524 -1.57472 -0.0634922 0
M  V30 7938 C 775.456 -2.00999 -1.10145 0
M  V30 7939 C 776.469 -0.917219 -1.34503 0
M  V30 7940 O 777.658 -1.19501 -1.32596 0
M  V30 7941 C 774.758 -2.34089 -2.45063 0
M  V30 7942 C 773.931 -3.65317 -2.40546 0
M  V30 7943 C 772.99 -3.85982 -3.57637 0
M  V30 7944 O 772.016 -4.5747 -3.38689 0
M  V30 7945 N 773.218 -3.28971 -4.78287 0
M  V30 7946 H 775.983 -2.90656 -0.730714 0
M  V30 7947 H 773.544 -1.59926 -0.252017 0
M  V30 7948 H 775.536 -2.4508 -3.22053 0
M  V30 7949 H 774.106 -1.50279 -2.74107 0
M  V30 7950 H 773.326 -3.65003 -1.48885 0
M  V30 7951 H 774.614 -4.51468 -2.34636 0
M  V30 7952 H 774.012 -2.70962 -4.96584 0
M  V30 7953 H 772.569 -3.45398 -5.5276 0
M  V30 7954 N 776.003 0.335068 -1.53997 0
M  V30 7955 C 776.935 1.4327 -1.78903 0
M  V30 7956 C 777.948 1.48347 -0.670598 0
M  V30 7957 O 779.137 1.51277 -0.947494 0
M  V30 7958 C 776.237 2.81878 -1.88144 0
M  V30 7959 C 775.41 3.00141 -3.18174 0
M  V30 7960 C 774.469 4.19041 -3.18263 0
M  V30 7961 O 773.495 4.12751 -3.9195 0
M  V30 7962 N 774.697 5.28004 -2.41231 0
M  V30 7963 H 777.462 1.22272 -2.73623 0
M  V30 7964 H 775.023 0.524996 -1.53152 0
M  V30 7965 H 777.015 3.59609 -1.85644 0
M  V30 7966 H 775.585 2.9598 -1.00572 0
M  V30 7967 H 774.805 2.09808 -3.33728 0
M  V30 7968 H 776.093 3.0923 -4.04047 0
M  V30 7969 H 775.491 5.35986 -1.8093 0
M  V30 7970 H 774.048 6.04196 -2.44521 0
M  V30 7971 N 777.481 1.45874 0.596531 0
M  V30 7972 C 778.391 1.57947 1.73464 0
M  V30 7973 C 779.407 0.463461 1.67714 0
M  V30 7974 O 780.583 0.725685 1.87872 0
M  V30 7975 C 777.648 1.55348 3.09948 0
M  V30 7976 C 776.709 2.78074 3.27068 0
M  V30 7977 C 775.942 2.75589 4.57041 0
M  V30 7978 O 776.165 1.83545 5.40063 0
M  V30 7979 O 775.099 3.66945 4.77111 0
M  V30 7980 H 778.925 2.54169 1.66228 0
M  V30 7981 H 776.51 1.2851 0.76194 0
M  V30 7982 H 778.392 1.56545 3.91244 0
M  V30 7983 H 777.067 0.622811 3.17652 0
M  V30 7984 H 775.974 2.82435 2.45319 0
M  V30 7985 H 777.307 3.70303 3.24248 0
M  V30 7986 N 778.959 -0.83999 1.33349 0
M  V30 7987 C 780.375 -1.13049 1.12659 0
M  V30 7988 C 780.575 -2.01328 -0.0832613 0
M  V30 7989 O 779.631 -2.40669 -0.763856 0
M  V30 7990 C 780.944 -1.79366 2.41347 0
M  V30 7991 C 782.492 -1.91937 2.47243 0
M  V30 7992 C 782.967 -2.6167 3.75889 0
M  V30 7993 N 784.458 -2.69184 3.76954 0
M  V30 7994 C 785.193 -3.23827 4.73206 0
M  V30 7995 N 784.689 -3.79166 5.79832 0
M  V30 7996 N 786.482 -3.22068 4.60683 0
M  V30 7997 H 778.633 -0.252432 2.10895 0
M  V30 7998 H 780.896 -0.174501 0.931801 0
M  V30 7999 H 780.602 -1.2196 3.29877 0
M  V30 8000 H 780.476 -2.79396 2.53412 0
M  V30 8001 H 782.863 -2.48498 1.59163 0
M  V30 8002 H 782.944 -0.908604 2.39119 0
M  V30 8003 H 782.588 -2.05769 4.64351 0
M  V30 8004 H 782.518 -3.63217 3.81289 0
M  V30 8005 H 785.009 -2.2994 2.99893 0
M  V30 8006 H 785.322 -4.19061 6.49313 0
M  V30 8007 H 783.667 -3.77457 5.83568 0
M  V30 8008 H 786.858 -2.78092 3.7654 0
M  V30 8009 H 787.031 -3.64351 5.35866 0
M  V30 8010 N 780.437 -1.16799 -1.0581 0
M  V30 8011 C 781.665 -0.97687 -1.82387 0
M  V30 8012 C 782.08 0.474917 -1.82729 0
M  V30 8013 O 781.437 1.3297 -1.25001 0
M  V30 8014 C 781.488 -1.50279 -3.28783 0
M  V30 8015 O 781.209 -2.89772 -3.28578 0
M  V30 8016 C 782.71 -1.35538 -4.22071 0
M  V30 8017 H 779.93 -0.345977 -0.574927 0
M  V30 8018 H 782.474 -1.54942 -1.33466 0
M  V30 8019 H 780.629 -0.972414 -3.74997 0
M  V30 8020 H 781.043 -3.13954 -4.20159 0
M  V30 8021 H 782.517 -1.7716 -5.22799 0
M  V30 8022 H 782.994 -0.301598 -4.38163 0
M  V30 8023 H 783.6 -1.87562 -3.81708 0
M  V30 8024 N 781.915 1.24427 -0.967243 0
M  V30 8025 C 782.825 2.29109 -0.504592 0
M  V30 8026 C 783.841 1.68495 0.434224 0
M  V30 8027 O 785.017 1.99041 0.307379 0
M  V30 8028 C 782.082 3.46133 0.198273 0
M  V30 8029 C 781.143 4.22149 -0.780313 0
M  V30 8030 C 780.376 5.33585 -0.110896 0
M  V30 8031 O 780.599 5.59676 1.10088 0
M  V30 8032 O 779.533 5.96522 -0.802823 0
M  V30 8033 H 783.359 2.708 -1.37482 0
M  V30 8034 H 780.944 1.30111 -0.73426 0
M  V30 8035 H 782.826 4.17205 0.593124 0
M  V30 8036 H 781.501 3.0642 1.04347 0
M  V30 8037 H 780.408 3.53454 -1.22561 0
M  V30 8038 H 781.741 4.65677 -1.59392 0
M  V30 8039 N 783.393 0.737304 1.3929 0
M  V30 8040 C 784.303 0.100464 2.34385 0
M  V30 8041 C 785.319 -0.719282 1.58437 0
M  V30 8042 O 786.495 -0.647216 1.90717 0
M  V30 8043 C 783.56 -0.794325 3.37478 0
M  V30 8044 C 782.621 0.0379345 4.29283 0
M  V30 8045 C 781.854 -0.814241 5.27452 0
M  V30 8046 O 782.077 -2.05288 5.32177 0
M  V30 8047 O 781.011 -0.241679 6.01415 0
M  V30 8048 H 784.837 0.885407 2.90507 0
M  V30 8049 H 782.422 0.497999 1.40856 0
M  V30 8050 H 784.304 -1.30622 4.00644 0
M  V30 8051 H 782.979 -1.55804 2.83737 0
M  V30 8052 H 781.886 0.595405 3.69331 0
M  V30 8053 H 783.219 0.763926 4.86236 0
M  V30 8054 N 784.871 -1.49948 0.485112 0
M  V30 8055 C 785.803 -2.26691 -0.338222 0
M  V30 8056 C 786.816 -1.32584 -0.944742 0
M  V30 8057 O 788.005 -1.57989 -0.830772 0
M  V30 8058 C 785.105 -3.04405 -1.48966 0
M  V30 8059 C 784.278 -4.25971 -0.993371 0
M  V30 8060 C 783.337 -4.85861 -2.02052 0
M  V30 8061 O 782.363 -5.46382 -1.59547 0
M  V30 8062 N 783.565 -4.74101 -3.34975 0
M  V30 8063 H 786.33 -2.97989 0.319748 0
M  V30 8064 H 783.891 -1.58772 0.316714 0
M  V30 8065 H 785.883 -3.41348 -2.17403 0
M  V30 8066 H 784.453 -2.35815 -2.05207 0
M  V30 8067 H 783.673 -3.93971 -0.134424 0
M  V30 8068 H 784.961 -5.0476 -0.639934 0
M  V30 8069 H 784.359 -4.26002 -3.72208 0
M  V30 8070 H 782.916 -5.15274 -3.9917 0
M  V30 8071 N 786.349 -0.21828 -1.56081 0
M  V30 8072 C 787.279 0.687922 -2.23136 0
M  V30 8073 C 788.26 1.20357 -1.202 0
M  V30 8074 O 789.445 1.24817 -1.48776 0
M  V30 8075 C 786.575 1.89762 -2.90874 0
M  V30 8076 C 785.529 1.51595 -4.00254 0
M  V30 8077 C 784.855 2.80415 -4.55271 0
M  V30 8078 C 786.155 0.708404 -5.17474 0
M  V30 8079 H 787.849 0.128854 -2.99123 0
M  V30 8080 H 785.395 0.0605354 -1.43873 0
M  V30 8081 H 787.348 2.53699 -3.36474 0
M  V30 8082 H 786.072 2.4816 -2.1233 0
M  V30 8083 H 784.731 0.900058 -3.55379 0
M  V30 8084 H 784.379 3.36951 -3.73461 0
M  V30 8085 H 784.079 2.55613 -5.2909 0
M  V30 8086 H 785.603 3.453 -5.03587 0
M  V30 8087 H 787.017 1.2514 -5.59476 0
M  V30 8088 H 785.414 0.557593 -5.97504 0
M  V30 8089 H 786.484 -0.285679 -4.84058 0
M  V30 8090 N 787.827 1.57504 0.0551401 0
M  V30 8091 C 788.79 2.03826 1.04821 0
M  V30 8092 C 789.79 0.937968 1.30609 0
M  V30 8093 O 790.98 1.20237 1.2605 0
M  V30 8094 C 788.112 2.43309 2.38775 0
M  V30 8095 H 789.305 2.92802 0.6486 0
M  V30 8096 H 786.858 1.53368 0.301315 0
M  V30 8097 H 787.593 1.5741 2.83536 0
M  V30 8098 H 787.378 3.23615 2.21395 0
M  V30 8099 H 788.868 2.79666 3.10124 0
M  V30 8100 N 789.305 -0.326896 1.54172 0
M  V30 8101 C 790.253 -1.42232 1.84046 0
M  V30 8102 C 791.247 -1.53705 0.712115 0
M  V30 8103 O 792.453 -1.56131 0.895724 0
M  V30 8104 H 788.828 -0.474568 0.583343 0
M  V30 8105 H 790.799 -1.14259 2.75658 0
M  V30 8106 C 789.548 -2.78502 2.08163 0
M  V30 8107 H 788.871 -2.70447 2.94446 0
M  V30 8108 H 790.311 -3.54228 2.33021 0
M  V30 8109 C 788.77 -3.25415 0.872152 0
M  V30 8110 O 789.3 -4.01621 0.0797648 0
M  V30 8111 N 787.506 -2.82418 0.684716 0
M  V30 8112 H 787.053 -2.20566 1.33072 0
M  V30 8113 H 787.011 -3.14159 -0.123031 0
M  V30 8114 N 790.784 -1.46188 -0.588786 0
M  V30 8115 C 792.033 -1.50452 -1.34339 0
M  V30 8116 C 792.346 -0.158096 -1.9496 0
M  V30 8117 O 793.552 -0.0784918 -2.71387 0
M  V30 8118 C 792.008 -2.65074 -2.43441 0
M  V30 8119 C 791.616 -4.06111 -1.8915 0
M  V30 8120 C 793.36 -2.78603 -3.20282 0
M  V30 8121 C 791.267 -5.12084 -2.95845 0
M  V30 8122 H 790.197 -0.559905 -0.504997 0
M  V30 8123 H 792.848 -1.72382 -0.629014 0
M  V30 8124 H 791.23 -2.36462 -3.1765 0
M  V30 8125 H 792.404 -4.44487 -1.21524 0
M  V30 8126 H 790.719 -3.97197 -1.24995 0
M  V30 8127 H 793.316 -3.54944 -3.99898 0
M  V30 8128 H 793.659 -1.85902 -3.72486 0
M  V30 8129 H 794.192 -3.06832 -2.53178 0
M  V30 8130 H 790.931 -6.06556 -2.48535 0
M  V30 8131 H 790.451 -4.78259 -3.61979 0
M  V30 8132 H 792.13 -5.37661 -3.59902 0
M  V30 8133 N 792.262 0.832906 -1.33792 0
M  V30 8134 C 793.225 1.92471 -1.24449 0
M  V30 8135 C 794.225 1.59981 -0.162085 0
M  V30 8136 O 795.415 1.69208 -0.414029 0
M  V30 8137 C 792.547 3.28278 -0.919044 0
M  V30 8138 H 793.74 2.0218 -2.21502 0
M  V30 8139 H 791.293 1.0257 -1.17936 0
M  V30 8140 H 792.028 3.24263 0.048738 0
M  V30 8141 H 791.813 3.53241 -1.70187 0
M  V30 8142 H 793.303 4.08253 -0.878576 0
M  V30 8143 N 793.74 1.17359 1.05189 0
M  V30 8144 C 795.156 0.920861 1.30355 0
M  V30 8145 C 795.356 -0.419993 1.97074 0
M  V30 8146 O 794.412 -1.15696 2.24434 0
M  V30 8147 C 795.725 2.07818 2.1733 0
M  V30 8148 C 797.273 2.1152 2.30712 0
M  V30 8149 C 797.748 3.26637 3.21048 0
M  V30 8150 N 799.239 3.26426 3.28634 0
M  V30 8151 C 799.974 4.12141 3.98657 0
M  V30 8152 N 799.47 5.07966 4.71107 0
M  V30 8153 N 801.263 4.00091 3.94821 0
M  V30 8154 H 793.414 2.03666 0.602821 0
M  V30 8155 H 795.677 0.889294 0.328421 0
M  V30 8156 H 795.383 3.04727 1.75597 0
M  V30 8157 H 795.257 2.02922 3.17966 0
M  V30 8158 H 797.644 1.15196 2.71687 0
M  V30 8159 H 797.725 2.20477 1.29706 0
M  V30 8160 H 797.369 4.23227 2.80788 0
M  V30 8161 H 797.299 3.14917 4.2206 0
M  V30 8162 H 799.79 2.57045 2.77013 0
M  V30 8163 H 800.103 5.69766 5.22099 0
M  V30 8164 H 798.448 5.11936 4.7005 0
M  V30 8165 H 801.639 3.24523 3.37346 0
M  V30 8166 H 801.812 4.6711 4.49123 0
M  V30 8167 N 795.218 -1.23913 0.973828 0
M  V30 8168 C 796.466 -1.91771 0.637817 0
M  V30 8169 C 796.787 -1.76434 -0.830435 0
M  V30 8170 O 796.057 -1.13965 -1.59339 0
M  V30 8171 H 794.637 -0.709761 0.232912 0
M  V30 8172 H 797.299 -1.50677 1.23622 0
M  V30 8173 H 796.395 -2.99327 0.883731 0
M  V30 8174 N 796.696 -0.74468 -1.38897 0
M  V30 8175 C 797.944 -0.296298 -1.99916 0
M  V30 8176 C 798.265 1.12325 -1.59399 0
M  V30 8177 O 797.535 1.76658 -0.846689 0
M  V30 8178 H 796.115 -0.106561 -0.73936 0
M  V30 8179 H 798.777 -0.956793 -1.69798 0
M  V30 8180 H 797.873 -0.352356 -3.10105 0
M  V30 8181 N 798.174 1.49689 -0.493057 0
M  V30 8182 C 799.404 2.06536 0.0512397 0
M  V30 8183 C 799.812 1.35459 1.32089 0
M  V30 8184 O 799.155 0.424145 1.78736 0
M  V30 8185 C 799.217 3.57452 0.383231 0
M  V30 8186 C 798.881 4.50163 -0.787555 0
M  V30 8187 C 799.878 4.92151 -1.67582 0
M  V30 8188 C 797.563 4.92565 -0.984109 0
M  V30 8189 C 799.557 5.7527 -2.74487 0
M  V30 8190 C 797.244 5.75463 -2.05634 0
M  V30 8191 C 798.242 6.16719 -2.93507 0
M  V30 8192 O 797.93 6.97961 -3.98881 0
M  V30 8193 H 797.662 0.675862 -0.0136516 0
M  V30 8194 H 800.216 1.9356 -0.687298 0
M  V30 8195 H 798.446 3.68408 1.17526 0
M  V30 8196 H 800.135 3.96572 0.8652 0
M  V30 8197 H 800.901 4.60043 -1.53575 0
M  V30 8198 H 796.78 4.5996 -0.309541 0
M  V30 8199 H 800.324 6.07392 -3.43104 0
M  V30 8200 H 796.221 6.06983 -2.19639 0
M  V30 8201 H 796.989 7.16253 -3.96137 0
M  V30 8202 N 799.652 0.226554 1.55963 0
M  V30 8203 C 800.898 -0.404387 1.98727 0
M  V30 8204 C 801.231 -1.59059 1.11418 0
M  V30 8205 O 800.506 -1.93729 0.172971 0
M  V30 8206 C 800.789 -0.834081 3.50307 0
M  V30 8207 C 800.642 0.356104 4.48388 0
M  V30 8208 C 801.961 -1.68845 4.06423 0
M  V30 8209 H 799.08 -0.145515 0.722492 0
M  V30 8210 H 801.722 0.323791 1.87221 0
M  V30 8211 H 799.872 -1.45454 3.60244 0
M  V30 8212 H 801.544 0.99432 4.50456 0
M  V30 8213 H 799.787 1.0027 4.22053 0
M  V30 8214 H 800.458 0.0124333 5.51999 0
M  V30 8215 H 802.934 -1.16489 3.99461 0
M  V30 8216 H 801.81 -1.958 5.1279 0
M  V30 8217 H 802.071 -2.65347 3.53615 0
M  V30 8218 N 801.13 -1.57531 -0.0467866 0
M  V30 8219 C 802.06 -2.08425 -1.05268 0
M  V30 8220 C 803.041 -0.982941 -1.38825 0
M  V30 8221 O 804.226 -1.25716 -1.48018 0
M  V30 8222 C 801.356 -2.54897 -2.35891 0
M  V30 8223 C 800.31 -3.69132 -2.16623 0
M  V30 8224 C 799.636 -4.01747 -3.52851 0
M  V30 8225 C 800.936 -4.98243 -1.56689 0
M  V30 8226 H 802.63 -2.92716 -0.62908 0
M  V30 8227 H 800.176 -1.40816 -0.301156 0
M  V30 8228 H 802.129 -2.8912 -3.06574 0
M  V30 8229 H 800.853 -1.67666 -2.80278 0
M  V30 8230 H 799.512 -3.35231 -1.48377 0
M  V30 8231 H 799.16 -3.11608 -3.94853 0
M  V30 8232 H 798.86 -4.78681 -3.4079 0
M  V30 8233 H 800.384 -4.38487 -4.24925 0
M  V30 8234 H 801.798 -5.30535 -2.17268 0
M  V30 8235 H 800.195 -5.79669 -1.55255 0
M  V30 8236 H 801.265 -4.81986 -0.530827 0
M  V30 8237 N 802.608 0.318715 -1.54344 0
M  V30 8238 C 803.555 1.39242 -1.84066 0
M  V30 8239 C 804.525 1.51175 -0.688134 0
M  V30 8240 O 805.71 1.66318 -0.935039 0
M  V30 8241 C 802.85 2.75528 -2.07794 0
M  V30 8242 C 801.963 2.72187 -3.35467 0
M  V30 8243 C 801.098 4.00352 -3.4913 0
M  V30 8244 C 800.137 3.91338 -4.7066 0
M  V30 8245 N 799.274 5.11242 -4.81224 0
M  V30 8246 H 804.114 1.13196 -2.75664 0
M  V30 8247 H 801.651 0.547857 -1.36517 0
M  V30 8248 H 803.609 3.54763 -2.19543 0
M  V30 8249 H 802.239 2.99873 -1.19482 0
M  V30 8250 H 801.291 1.84917 -3.3243 0
M  V30 8251 H 802.603 2.61411 -4.24812 0
M  V30 8252 H 801.757 4.88019 -3.60448 0
M  V30 8253 H 800.496 4.1394 -2.57886 0
M  V30 8254 H 799.501 3.02055 -4.59394 0
M  V30 8255 H 800.726 3.7931 -5.63294 0
M  V30 8256 H 798.672 5.25327 -3.92897 0
M  V30 8257 H 798.589 5.0282 -5.64543 0
M  V30 8258 H 799.857 6.0061 -4.96879 0
M  V30 8259 N 804.086 1.46499 0.581025 0
M  V30 8260 C 805.363 1.42372 1.34125 0
M  V30 8261 C 805.743 0.108073 2.10823 0
M  V30 8262 O 805.091 -0.910366 2.09582 0
M  V30 8263 C 805.301 2.65445 2.26583 0
M  V30 8264 C 806.649 3.11664 2.88359 0
M  V30 8265 O 807.673 2.66006 2.36896 0
M  V30 8266 O 806.532 3.90974 3.81839 0
M  V30 8267 H 803.626 0.566262 0.602724 0
M  V30 8268 H 806.172 1.58667 0.601903 0
M  V30 8269 H 804.944 3.52756 1.69348 0
M  V30 8270 H 804.567 2.51618 3.07854 0
M  V30 8271 N 805.565 -0.825799 1.34232 0
M  V30 8272 C 806.805 -1.59541 1.27773 0
M  V30 8273 C 807.169 -1.91405 -0.150998 0
M  V30 8274 O 808.37 -2.66644 -0.339728 0
M  V30 8275 C 806.641 -2.86183 2.14089 0
M  V30 8276 S 808.2 -3.76751 2.24953 0
M  V30 8277 H 805.018 -0.546871 0.454371 0
M  V30 8278 H 807.62 -0.975677 1.69413 0
M  V30 8279 H 806.324 -2.60767 3.16905 0
M  V30 8280 H 805.855 -3.53155 1.73335 0
M  V30 8281 H 807.87 -4.75442 1.4202 0
M  V30 8282 N 807.043 -1.17915 -1.04565 0
M  V30 8283 C 808.006 -0.903787 -2.10628 0
M  V30 8284 C 809.006 0.10873 -1.60432 0
M  V30 8285 O 810.196 -0.124152 -1.73757 0
M  V30 8286 C 807.328 -0.355017 -3.39046 0
M  V30 8287 H 808.521 -1.84425 -2.3649 0
M  V30 8288 H 806.074 -0.990477 -1.2091 0
M  V30 8289 H 806.809 0.592297 -3.18845 0
M  V30 8290 H 806.594 -1.08484 -3.76794 0
M  V30 8291 H 808.084 -0.180891 -4.17208 0
M  V30 8292 N 808.521 1.23394 -0.980386 0
M  V30 8293 C 809.769 1.91431 -0.647978 0
M  V30 8294 C 810.09 1.76871 0.821066 0
M  V30 8295 O 809.36 1.14808 1.58732 0
M  V30 8296 H 807.94 0.708516 -0.236673 0
M  V30 8297 H 810.602 1.50019 -1.2442 0
M  V30 8298 H 809.698 2.98854 -0.899592 0
M  V30 8299 N 809.999 0.752036 1.385 0
M  V30 8300 C 810.931 0.0835089 2.29048 0
M  V30 8301 C 811.944 -0.685402 1.47669 0
M  V30 8302 O 813.133 -0.526748 1.70551 0
M  V30 8303 C 810.233 -0.905772 3.26572 0
M  V30 8304 C 809.406 -0.194828 4.36966 0
M  V30 8305 C 808.465 -1.09464 5.14688 0
M  V30 8306 O 807.491 -0.565743 5.66381 0
M  V30 8307 N 808.693 -2.42287 5.2752 0
M  V30 8308 H 811.458 0.861142 2.87062 0
M  V30 8309 H 809.019 0.602689 1.50264 0
M  V30 8310 H 811.011 -1.51072 3.75446 0
M  V30 8311 H 809.581 -1.58449 2.69467 0
M  V30 8312 H 808.801 0.590812 3.89747 0
M  V30 8313 H 810.089 0.297189 5.07931 0
M  V30 8314 H 809.487 -2.87715 4.8707 0
M  V30 8315 H 808.044 -2.97836 5.79773 0
M  V30 8316 N 811.477 -1.49425 0.500989 0
M  V30 8317 C 812.888 -1.86624 0.0532011 0
M  V30 8318 C 813.239 -1.41331 -1.36088 0
M  V30 8319 O 812.364 -0.791195 -2.01418 0
M  V30 8320 C 812.959 -3.38681 0.0897693 0
M  V30 8321 C 811.518 -3.75181 -0.302677 0
M  V30 8322 C 810.665 -2.73419 0.462307 0
M  V30 8323 H 813.616 -1.41743 0.713773 0
M  V30 8324 H 813.637 -3.73902 -0.705528 0
M  V30 8325 H 813.149 -3.71616 1.11907 0
M  V30 8326 H 811.25 -3.47855 -1.33521 0
M  V30 8327 H 811.363 -4.79097 0.0167653 0
M  V30 8328 H 809.727 -2.54548 -0.0878557 0
M  V30 8329 H 810.51 -3.09198 1.49169 0
M  V30 8330 N 812.955 -0.234822 -1.55841 0
M  V30 8331 C 813.865 0.680828 -2.24504 0
M  V30 8332 C 814.881 1.20306 -1.25708 0
M  V30 8333 O 816.057 1.24188 -1.58554 0
M  V30 8334 C 813.122 1.86636 -2.92178 0
M  V30 8335 C 812.183 1.3848 -4.06352 0
M  V30 8336 C 811.416 2.51382 -4.70789 0
M  V30 8337 O 811.639 3.69831 -4.34259 0
M  V30 8338 O 810.573 2.21828 -5.59532 0
M  V30 8339 H 814.399 0.12583 -3.03439 0
M  V30 8340 H 811.984 -0.00381817 -1.494 0
M  V30 8341 H 813.866 2.55845 -3.34845 0
M  V30 8342 H 812.541 2.40921 -2.16192 0
M  V30 8343 H 811.448 0.660341 -3.68226 0
M  V30 8344 H 812.781 0.888177 -4.8412 0
M  V30 8345 N 814.433 1.57553 0.0384317 0
M  V30 8346 C 815.363 2.0898 1.04161 0
M  V30 8347 C 816.344 0.99029 1.38301 0
M  V30 8348 O 817.529 1.26499 1.47349 0
M  V30 8349 C 814.659 2.56145 2.34536 0
M  V30 8350 C 813.613 3.70275 2.14663 0
M  V30 8351 C 812.939 4.03612 3.50715 0
M  V30 8352 C 814.239 4.99067 1.54045 0
M  V30 8353 H 815.933 2.93046 0.613548 0
M  V30 8354 H 813.479 1.40973 0.293684 0
M  V30 8355 H 815.432 2.90741 3.05037 0
M  V30 8356 H 814.156 1.6915 2.79385 0
M  V30 8357 H 812.815 3.36013 1.46597 0
M  V30 8358 H 812.463 3.13698 3.93195 0
M  V30 8359 H 812.163 4.80482 3.38247 0
M  V30 8360 H 813.687 4.40735 4.22593 0
M  V30 8361 H 815.101 5.3168 2.14451 0
M  V30 8362 H 813.498 5.80484 1.52178 0
M  V30 8363 H 814.568 4.8226 0.505259 0
M  V30 8364 N 815.911 -0.310526 1.54511 0
M  V30 8365 C 817.16 -1.0445 1.72549 0
M  V30 8366 C 817.473 -1.88748 0.513172 0
M  V30 8367 O 818.679 -2.65338 0.575165 0
M  V30 8368 C 817.135 -1.90665 3.05246 0
M  V30 8369 C 816.743 -1.11415 4.33925 0
M  V30 8370 C 818.487 -2.63719 3.32645 0
M  V30 8371 C 816.394 -1.96852 5.57677 0
M  V30 8372 H 815.324 -0.393676 0.643067 0
M  V30 8373 H 817.975 -0.302003 1.80998 0
M  V30 8374 H 816.357 -2.68864 2.90737 0
M  V30 8375 H 817.531 -0.378956 4.59239 0
M  V30 8376 H 815.846 -0.499853 4.13389 0
M  V30 8377 H 818.443 -3.27974 4.223 0
M  V30 8378 H 818.786 -3.32047 2.51098 0
M  V30 8379 H 819.319 -1.92574 3.48081 0
M  V30 8380 H 816.058 -1.33009 6.41864 0
M  V30 8381 H 815.578 -2.68069 5.36562 0
M  V30 8382 H 817.257 -2.55127 5.94575 0
M  V30 8383 N 817.389 -1.46805 -0.573248 0
M  V30 8384 C 818.636 -1.52604 -1.3311 0
M  V30 8385 C 818.964 -0.181633 -1.9365 0
M  V30 8386 O 818.219 0.823775 -1.77517 0
M  V30 8387 C 818.518 -2.58001 -2.47326 0
M  V30 8388 C 818.184 -4.01747 -2.04719 0
M  V30 8389 C 816.846 -4.40881 -1.92814 0
M  V30 8390 C 819.198 -4.92008 -1.71982 0
M  V30 8391 C 816.526 -5.68129 -1.46445 0
M  V30 8392 C 818.878 -6.19703 -1.27089 0
M  V30 8393 C 817.542 -6.57733 -1.13768 0
M  V30 8394 H 816.812 -0.558417 -0.487084 0
M  V30 8395 H 819.459 -1.80327 -0.644538 0
M  V30 8396 H 817.764 -2.23974 -3.2147 0
M  V30 8397 H 819.461 -2.59715 -3.05531 0
M  V30 8398 H 816.051 -3.70819 -2.14922 0
M  V30 8399 H 820.235 -4.62485 -1.8006 0
M  V30 8400 H 815.491 -5.96359 -1.34783 0
M  V30 8401 H 819.665 -6.89064 -1.00814 0
M  V30 8402 H 817.292 -7.56228 -0.776142 0
M  V30 8403 N 818.867 0.818669 -1.34668 0
M  V30 8404 C 820.116 1.57017 -1.26604 0
M  V30 8405 C 820.429 1.94936 0.161036 0
M  V30 8406 O 821.635 2.69051 0.36386 0
M  V30 8407 C 820.091 2.83305 -2.2196 0
M  V30 8408 C 819.699 2.52671 -3.69948 0
M  V30 8409 C 821.443 3.61324 -2.22813 0
M  V30 8410 C 819.35 3.75178 -4.5716 0
M  V30 8411 H 818.28 0.589323 -0.470335 0
M  V30 8412 H 820.931 0.900956 -1.59859 0
M  V30 8413 H 819.313 3.51874 -1.81661 0
M  V30 8414 H 820.487 1.92186 -4.18809 0
M  V30 8415 H 818.802 1.8792 -3.71584 0
M  V30 8416 H 821.399 4.52294 -2.85192 0
M  V30 8417 H 821.742 3.97759 -1.22857 0
M  V30 8418 H 822.275 2.99703 -2.61578 0
M  V30 8419 H 819.014 3.43861 -5.58068 0
M  V30 8420 H 818.534 4.34931 -4.13031 0
M  V30 8421 H 820.213 4.42542 -4.71981 0
M  V30 8422 N 820.346 1.18468 1.03938 0
M  V30 8423 C 821.309 0.914944 2.10146 0
M  V30 8424 C 822.309 -0.10022 1.60487 0
M  V30 8425 O 823.499 0.133365 1.73689 0
M  V30 8426 C 820.631 0.372993 3.38853 0
M  V30 8427 H 821.824 1.85677 2.35508 0
M  V30 8428 H 819.377 0.996876 1.20383 0
M  V30 8429 H 820.112 -0.57538 3.19155 0
M  V30 8430 H 819.897 1.1048 3.76213 0
M  V30 8431 H 821.387 0.203014 4.17106 0
M  V30 8432 N 821.824 -1.22873 0.986916 0
M  V30 8433 C 823.052 -1.95487 0.677663 0
M  V30 8434 C 823.467 -1.72978 -0.756572 0
M  V30 8435 O 822.824 -1.02517 -1.50985 0
M  V30 8436 C 822.875 -3.48337 0.966638 0
M  V30 8437 O 822.596 -3.70087 2.34451 0
M  V30 8438 C 824.097 -4.38142 0.674248 0
M  V30 8439 H 821.317 -0.622211 0.251185 0
M  V30 8440 H 823.861 -1.56187 1.32007 0
M  V30 8441 H 822.016 -3.85628 0.370137 0
M  V30 8442 H 822.43 -4.64332 2.43918 0
M  V30 8443 H 823.904 -5.44165 0.926759 0
M  V30 8444 H 824.381 -4.3745 -0.391728 0
M  V30 8445 H 824.987 -4.06469 1.25152 0
M  V30 8446 N 823.302 -0.75937 -1.38099 0
M  V30 8447 C 824.55 -0.317485 -1.99591 0
M  V30 8448 C 824.871 1.10628 -1.60581 0
M  V30 8449 O 824.141 1.7575 -0.865378 0
M  V30 8450 H 822.721 -0.114397 -0.738189 0
M  V30 8451 H 825.383 -0.974749 -1.68774 0
M  V30 8452 H 824.479 -0.385227 -3.09713 0
M  V30 8453 N 824.78 1.49157 -0.508906 0
M  V30 8454 C 826.005 2.07376 0.0315182 0
M  V30 8455 C 826.43 1.36575 1.2934 0
M  V30 8456 O 825.788 0.424963 1.76249 0
M  V30 8457 C 825.836 3.59661 0.260118 0
M  V30 8458 O 824.94 3.90255 1.33322 0
M  V30 8459 H 824.281 0.663334 -0.029739 0
M  V30 8460 H 826.811 1.91857 -0.710791 0
M  V30 8461 H 826.821 4.05056 0.489225 0
M  V30 8462 H 825.496 4.10601 -0.661794 0
M  V30 8463 H 824.073 3.56661 1.08844 0
M  V30 8464 N 826.258 0.243083 1.55714 0
M  V30 8465 C 827.168 -0.668913 2.24862 0
M  V30 8466 C 828.184 -1.19638 1.26344 0
M  V30 8467 O 829.36 -1.23345 1.5921 0
M  V30 8468 C 826.425 -1.85084 2.93163 0
M  V30 8469 C 825.486 -1.36323 4.07081 0
M  V30 8470 C 824.719 -2.48882 4.72116 0
M  V30 8471 O 824.942 -3.67523 4.36214 0
M  V30 8472 O 823.876 -2.18857 5.60701 0
M  V30 8473 H 827.702 -0.109737 3.03502 0
M  V30 8474 H 825.287 0.0117411 1.49395 0
M  V30 8475 H 827.169 -2.54065 3.36197 0
M  V30 8476 H 825.844 -2.39771 2.17466 0
M  V30 8477 H 824.751 -0.640804 3.68571 0
M  V30 8478 H 826.084 -0.86249 4.84584 0
M  V30 8479 N 827.736 -1.57571 -0.0300757 0
M  V30 8480 C 828.982 -1.89506 -0.722159 0
M  V30 8481 C 829.315 -0.840699 -1.7506 0
M  V30 8482 O 828.59 0.144358 -1.93964 0
M  V30 8483 C 828.873 -3.32081 -1.39262 0
M  V30 8484 C 828.726 -4.48211 -0.377768 0
M  V30 8485 C 830.045 -3.73557 -2.32687 0
M  V30 8486 H 827.164 -0.689213 -0.261064 0
M  V30 8487 H 829.806 -1.89994 0.0150388 0
M  V30 8488 H 827.956 -3.31796 -2.02098 0
M  V30 8489 H 829.628 -4.6063 0.248591 0
M  V30 8490 H 827.871 -4.3274 0.303045 0
M  V30 8491 H 828.542 -5.44854 -0.885347 0
M  V30 8492 H 831.018 -3.75202 -1.79896 0
M  V30 8493 H 829.894 -4.74125 -2.7658 0
M  V30 8494 H 830.155 -3.05759 -3.19317 0
M  V30 8495 N 829.214 0.302327 -1.54673 0
M  V30 8496 C 830.124 1.39542 -1.88587 0
M  V30 8497 C 831.14 1.55543 -0.779895 0
M  V30 8498 O 832.316 1.70233 -1.07623 0
M  V30 8499 C 829.381 2.7394 -2.12504 0
M  V30 8500 C 828.442 2.66935 -3.3622 0
M  V30 8501 C 827.675 3.94923 -3.58987 0
M  V30 8502 O 827.898 4.94218 -2.84789 0
M  V30 8503 O 826.832 3.96896 -4.52501 0
M  V30 8504 H 830.658 1.13784 -2.81579 0
M  V30 8505 H 828.243 0.49827 -1.40846 0
M  V30 8506 H 830.125 3.5346 -2.29443 0
M  V30 8507 H 828.8 2.99544 -1.22698 0
M  V30 8508 H 827.707 1.85892 -3.24646 0
M  V30 8509 H 829.04 2.46283 -4.26152 0
M  V30 8510 N 830.692 1.47107 0.565454 0
M  V30 8511 C 831.622 1.61846 1.68309 0
M  V30 8512 C 832.603 0.468159 1.63531 0
M  V30 8513 O 833.788 0.696504 1.8128 0
M  V30 8514 C 830.918 1.62474 3.06952 0
M  V30 8515 C 829.872 2.76649 3.26572 0
M  V30 8516 C 829.198 2.62345 4.65917 0
M  V30 8517 C 830.498 4.18319 3.12741 0
M  V30 8518 H 832.192 2.55407 1.5623 0
M  V30 8519 H 829.738 1.22916 0.750179 0
M  V30 8520 H 831.691 1.71378 3.84977 0
M  V30 8521 H 830.415 0.654692 3.19971 0
M  V30 8522 H 829.074 2.67242 2.50952 0
M  V30 8523 H 828.722 1.63386 4.75725 0
M  V30 8524 H 828.422 3.38936 4.79996 0
M  V30 8525 H 829.946 2.73165 5.46089 0
M  V30 8526 H 831.36 4.28745 3.80593 0
M  V30 8527 H 829.757 4.95632 3.38333 0
M  V30 8528 H 830.827 4.37263 2.09592 0
M  V30 8529 N 832.17 -0.811516 1.35101 0
M  V30 8530 C 833.133 -1.90467 1.27495 0
M  V30 8531 C 834.133 -1.59703 0.187516 0
M  V30 8532 O 835.323 -1.68528 0.440896 0
M  V30 8533 C 832.455 -3.26774 0.971154 0
M  V30 8534 H 833.648 -1.98631 2.2469 0
M  V30 8535 H 831.201 -1.00681 1.19553 0
M  V30 8536 H 831.936 -3.243 0.0028557 0
M  V30 8537 H 831.721 -3.50488 1.75785 0
M  V30 8538 H 833.211 -4.06804 0.943414 0
M  V30 8539 N 833.648 -1.19017 -1.03309 0
M  V30 8540 C 834.894 -0.991681 -1.769 0
M  V30 8541 C 835.227 0.476813 -1.88255 0
M  V30 8542 O 834.502 1.35407 -1.39625 0
M  V30 8543 C 834.785 -1.65627 -3.19749 0
M  V30 8544 C 834.638 -3.19813 -3.1629 0
M  V30 8545 C 835.957 -1.37579 -4.18043 0
M  V30 8546 H 833.076 -0.361674 -0.642153 0
M  V30 8547 H 835.718 -1.46795 -1.20628 0
M  V30 8548 H 833.868 -1.25132 -3.67796 0
M  V30 8549 H 835.54 -3.69494 -2.76174 0
M  V30 8550 H 833.783 -3.51578 -2.54117 0
M  V30 8551 H 834.454 -3.61457 -4.17196 0
M  V30 8552 H 836.93 -1.72679 -3.78578 0
M  V30 8553 H 835.806 -1.86636 -5.16196 0
M  V30 8554 H 836.067 -0.300118 -4.4108 0
M  V30 8555 N 835.127 1.22348 -0.993418 0
M  V30 8556 C 836.09 2.22522 -0.549251 0
M  V30 8557 C 837.09 1.56529 0.368164 0
M  V30 8558 O 838.28 1.73463 0.16005 0
M  V30 8559 C 835.412 3.40307 0.201037 0
M  V30 8560 H 836.605 2.63332 -1.43515 0
M  V30 8561 H 834.158 1.35407 -0.78068 0
M  V30 8562 H 834.893 3.0497 1.10289 0
M  V30 8563 H 834.678 3.8942 -0.457685 0
M  V30 8564 H 836.168 4.14597 0.499946 0
M  V30 8565 N 836.605 0.766683 1.37694 0
M  V30 8566 C 837.568 0.155849 2.2867 0
M  V30 8567 C 838.568 -0.633509 1.47795 0
M  V30 8568 O 839.758 -0.457844 1.68076 0
M  V30 8569 C 836.89 -0.786965 3.31692 0
M  V30 8570 H 838.083 0.957748 2.84196 0
M  V30 8571 H 835.636 0.534554 1.46875 0
M  V30 8572 H 836.371 -1.61406 2.8128 0
M  V30 8573 H 836.156 -0.223182 3.91464 0
M  V30 8574 H 837.646 -1.20994 3.99688 0
M  V30 8575 N 838.083 -1.48885 0.516809 0
M  V30 8576 C 839.313 -2.06592 -0.018375 0
M  V30 8577 C 839.721 -1.37543 -1.29917 0
M  V30 8578 O 839.064 -0.452527 -1.78039 0
M  V30 8579 C 839.126 -3.58016 -0.326315 0
M  V30 8580 C 838.79 -4.48853 0.859072 0
M  V30 8581 C 839.787 -4.89422 1.75391 0
M  V30 8582 C 837.472 -4.90937 1.06235 0
M  V30 8583 C 839.466 -5.70831 2.83604 0
M  V30 8584 C 837.153 -5.72119 2.14763 0
M  V30 8585 C 838.151 -6.11972 3.03281 0
M  V30 8586 O 837.839 -6.91527 4.09934 0
M  V30 8587 H 837.571 -0.675559 0.0244023 0
M  V30 8588 H 840.125 -1.92442 0.718005 0
M  V30 8589 H 838.355 -3.70231 -1.1165 0
M  V30 8590 H 840.044 -3.97898 -0.801999 0
M  V30 8591 H 840.81 -4.57542 1.60875 0
M  V30 8592 H 836.689 -4.59409 0.382677 0
M  V30 8593 H 840.233 -6.01857 3.52724 0
M  V30 8594 H 836.13 -6.03412 2.29268 0
M  V30 8595 H 836.898 -7.0986 4.07482 0
M  V30 8596 N 839.561 -0.251338 -1.55583 0
M  V30 8597 C 840.471 0.656978 -2.25213 0
M  V30 8598 C 841.487 1.18966 -1.26977 0
M  V30 8599 O 842.663 1.22499 -1.59862 0
M  V30 8600 C 839.728 1.83527 -2.94141 0
M  V30 8601 C 838.789 1.34162 -4.07798 0
M  V30 8602 C 838.022 2.46375 -4.73429 0
M  V30 8603 O 838.245 3.65205 -4.38157 0
M  V30 8604 O 837.179 2.15881 -5.61853 0
M  V30 8605 H 841.005 0.0936395 -3.03556 0
M  V30 8606 H 838.59 -0.0196638 -1.49387 0
M  V30 8607 H 840.472 2.52279 -3.3754 0
M  V30 8608 H 839.147 2.38614 -2.18735 0
M  V30 8609 H 838.054 0.621249 -3.68906 0
M  V30 8610 H 839.387 0.836779 -4.85035 0
M  V30 8611 N 841.039 1.57585 0.0217189 0
M  V30 8612 C 841.986 2.07036 1.02004 0
M  V30 8613 C 842.956 0.96106 1.35473 0
M  V30 8614 O 844.141 1.23211 1.45684 0
M  V30 8615 C 841.281 2.56056 2.31364 0
M  V30 8616 C 840.394 3.80805 2.03989 0
M  V30 8617 C 839.529 4.18409 3.27272 0
M  V30 8618 C 838.568 5.36055 2.95486 0
M  V30 8619 N 837.705 5.69056 4.11242 0
M  V30 8620 H 842.545 2.92073 0.591396 0
M  V30 8621 H 840.082 1.44403 0.280384 0
M  V30 8622 H 842.04 2.82548 3.06957 0
M  V30 8623 H 840.67 1.73925 2.71937 0
M  V30 8624 H 839.722 3.61354 1.1886 0
M  V30 8625 H 841.034 4.66512 1.76546 0
M  V30 8626 H 840.188 4.46068 4.11228 0
M  V30 8627 H 838.927 3.31369 3.57835 0
M  V30 8628 H 837.932 5.08142 2.09933 0
M  V30 8629 H 839.157 6.24755 2.66193 0
M  V30 8630 H 837.103 4.84974 4.41742 0
M  V30 8631 H 837.02 6.49288 3.87247 0
M  V30 8632 H 838.288 6.01295 4.96049 0
M  V30 8633 N 842.517 -0.29412 1.54831 0
M  V30 8634 C 843.447 -1.36757 1.89261 0
M  V30 8635 C 844.428 -1.52564 0.752214 0
M  V30 8636 O 845.613 -1.65958 1.00855 0
M  V30 8637 C 842.743 -2.73066 2.14597 0
M  V30 8638 C 841.697 -2.72017 3.3044 0
M  V30 8639 C 841.023 -4.11679 3.4121 0
M  V30 8640 C 842.323 -2.33149 4.67375 0
M  V30 8641 H 844.017 -1.08191 2.79169 0
M  V30 8642 H 841.563 -0.519014 1.34321 0
M  V30 8643 H 843.516 -3.48255 2.37269 0
M  V30 8644 H 842.24 -3.03172 1.21467 0
M  V30 8645 H 840.899 -1.99285 3.07703 0
M  V30 8646 H 840.547 -4.38973 2.45584 0
M  V30 8647 H 840.247 -4.11877 4.19084 0
M  V30 8648 H 841.771 -4.88637 3.6615 0
M  V30 8649 H 843.185 -2.98054 4.89731 0
M  V30 8650 H 841.582 -2.44546 5.48012 0
M  V30 8651 H 842.652 -1.28275 4.67626 0
M  V30 8652 N 843.995 -1.47404 -0.557645 0
M  V30 8653 C 845.223 -1.57622 -1.34026 0
M  V30 8654 C 845.638 -0.226256 -1.87439 0
M  V30 8655 O 844.995 0.78043 -1.64971 0
M  V30 8656 C 845.046 -2.60111 -2.51047 0
M  V30 8657 O 844.767 -3.89866 -1.99841 0
M  V30 8658 C 846.268 -2.80508 -3.43264 0
M  V30 8659 H 843.488 -0.532271 -0.40857 0
M  V30 8660 H 846.032 -1.93019 -0.675555 0
M  V30 8661 H 844.187 -2.27648 -3.13457 0
M  V30 8662 H 844.601 -4.45864 -2.76234 0
M  V30 8663 H 846.075 -3.56084 -4.21792 0
M  V30 8664 H 846.552 -1.88314 -3.9678 0
M  V30 8665 H 847.158 -3.14166 -2.86671 0
M  V30 8666 N 845.473 0.80434 -1.35529 0
M  V30 8667 C 846.436 1.89788 -1.28503 0
M  V30 8668 C 847.436 1.59601 -0.195983 0
M  V30 8669 O 848.626 1.68292 -0.449827 0
M  V30 8670 C 845.758 3.26255 -0.98847 0
M  V30 8671 H 846.951 1.97436 -2.25741 0
M  V30 8672 H 844.504 1.00046 -1.20086 0
M  V30 8673 H 845.239 3.24294 -0.0200541 0
M  V30 8674 H 845.024 3.49551 -1.77641 0
M  V30 8675 H 846.514 4.06298 -0.964975 0
M  V30 8676 N 846.951 1.19563 1.02676 0
M  V30 8677 C 847.861 0.950691 2.14474 0
M  V30 8678 C 848.877 -0.0900219 1.73767 0
M  V30 8679 O 850.053 0.0951063 2.01175 0
M  V30 8680 C 847.118 0.494917 3.43149 0
M  V30 8681 C 846.179 1.60527 3.98158 0
M  V30 8682 C 845.412 1.17115 5.20692 0
M  V30 8683 O 845.635 0.0355937 5.70389 0
M  V30 8684 O 844.569 1.97454 5.68591 0
M  V30 8685 H 848.395 1.88651 2.38001 0
M  V30 8686 H 845.98 0.978635 1.12885 0
M  V30 8687 H 847.862 0.249492 4.20661 0
M  V30 8688 H 846.537 -0.412434 3.21062 0
M  V30 8689 H 845.444 1.90487 3.21971 0
M  V30 8690 H 846.777 2.48925 4.24614 0
M  V30 8691 N 848.429 -1.21819 0.999893 0
M  V30 8692 C 849.677 -1.90375 0.678351 0
M  V30 8693 C 849.998 -1.78155 -0.792824 0
M  V30 8694 O 849.268 -1.17319 -1.56885 0
M  V30 8695 H 847.848 -0.704661 0.247915 0
M  V30 8696 H 850.51 -1.48021 1.2679 0
M  V30 8697 H 849.606 -2.97385 0.947023 0
M  V30 8698 N 849.908 -0.773975 -1.37286 0
M  V30 8699 C 851.154 -0.339809 -1.99933 0
M  V30 8700 C 851.487 1.0815 -1.61299 0
M  V30 8701 O 850.762 1.74442 -0.860252 0
M  V30 8702 C 851.045 -0.485919 -3.56806 0
M  V30 8703 C 850.898 -1.9498 -4.05343 0
M  V30 8704 C 852.217 0.108461 -4.39966 0
M  V30 8705 H 849.336 -0.124944 -0.726332 0
M  V30 8706 H 851.978 -0.977433 -1.6293 0
M  V30 8707 H 850.128 0.0569023 -3.88458 0
M  V30 8708 H 851.8 -2.5525 -3.84246 0
M  V30 8709 H 850.043 -2.45784 -3.57453 0
M  V30 8710 H 850.714 -2.00308 -5.14374 0
M  V30 8711 H 853.19 -0.354722 -4.14585 0
M  V30 8712 H 852.066 -0.0238926 -5.48895 0
M  V30 8713 H 852.327 1.19901 -4.25531 0
M  V30 8714 N 851.386 1.48609 -0.524698 0
M  V30 8715 C 852.333 2.29539 0.240956 0
M  V30 8716 C 853.303 1.37033 0.938681 0
M  V30 8717 O 854.488 1.65996 0.940737 0
M  V30 8718 C 851.628 3.20278 1.28514 0
M  V30 8719 C 850.741 4.27858 0.596798 0
M  V30 8720 C 849.876 5.05784 1.62346 0
M  V30 8721 C 848.915 6.05173 0.918287 0
M  V30 8722 N 848.052 6.76176 1.89025 0
M  V30 8723 H 852.892 2.945 -0.455368 0
M  V30 8724 H 850.429 1.45188 -0.236403 0
M  V30 8725 H 852.387 3.71281 1.90279 0
M  V30 8726 H 851.017 2.57251 1.94992 0
M  V30 8727 H 850.069 3.80162 -0.134668 0
M  V30 8728 H 851.381 4.98782 0.0428506 0
M  V30 8729 H 850.535 5.60775 2.31553 0
M  V30 8730 H 849.274 4.34687 2.2113 0
M  V30 8731 H 848.279 5.49391 0.21212 0
M  V30 8732 H 849.504 6.78265 0.336633 0
M  V30 8733 H 847.45 6.07834 2.46726 0
M  V30 8734 H 847.367 7.43157 1.3876 0
M  V30 8735 H 848.635 7.35759 2.57446 0
M  V30 8736 N 852.864 0.259585 1.55447 0
M  V30 8737 C 853.827 -0.621359 2.20617 0
M  V30 8738 C 854.827 -1.09317 1.17925 0
M  V30 8739 O 856.017 -0.995842 1.42929 0
M  V30 8740 C 853.149 -1.85546 2.85982 0
M  V30 8741 H 854.342 -0.0525833 2.99854 0
M  V30 8742 H 851.895 0.0101055 1.56297 0
M  V30 8743 H 852.63 -2.46515 2.10715 0
M  V30 8744 H 852.415 -1.52523 3.61219 0
M  V30 8745 H 853.905 -2.48227 3.35817 0
M  V30 8746 N 854.342 -1.57594 -0.0133615 0
M  V30 8747 C 855.758 -1.5527 -0.369255 0
M  V30 8748 C 855.958 -0.987751 -1.7563 0
M  V30 8749 O 855.014 -0.615683 -2.44879 0
M  V30 8750 C 856.327 -2.99602 -0.25672 0
M  V30 8751 C 857.875 -3.11227 -0.332647 0
M  V30 8752 C 858.35 -4.57321 -0.249387 0
M  V30 8753 N 859.841 -4.62177 -0.3077 0
M  V30 8754 C 860.576 -5.72781 -0.26641 0
M  V30 8755 N 860.072 -6.92575 -0.176494 0
M  V30 8756 N 861.865 -5.61204 -0.317295 0
M  V30 8757 H 854.016 -1.92662 0.894154 0
M  V30 8758 H 856.279 -0.884352 0.341505 0
M  V30 8759 H 855.985 -3.44723 0.697072 0
M  V30 8760 H 855.859 -3.6246 -1.04415 0
M  V30 8761 H 858.246 -2.66045 -1.27688 0
M  V30 8762 H 858.327 -2.51171 0.484412 0
M  V30 8763 H 857.971 -5.03174 0.691242 0
M  V30 8764 H 857.901 -5.15306 -1.08476 0
M  V30 8765 H 860.392 -3.75994 -0.379069 0
M  V30 8766 H 860.705 -7.72653 -0.150518 0
M  V30 8767 H 859.05 -6.94854 -0.142314 0
M  V30 8768 H 862.241 -4.66509 -0.385643 0
M  V30 8769 H 862.414 -6.47388 -0.28165 0
M  V30 8770 N 855.82 0.285905 -1.54985 0
M  V30 8771 C 857.066 1.02071 -1.75241 0
M  V30 8772 C 857.399 1.864 -0.544842 0
M  V30 8773 O 856.674 1.89034 0.457844 0
M  V30 8774 C 856.957 1.91409 -3.05016 0
M  V30 8775 C 856.81 1.10158 -4.36102 0
M  V30 8776 C 858.129 2.90335 -3.30747 0
M  V30 8777 H 855.248 0.369663 -0.637588 0
M  V30 8778 H 857.89 0.294114 -1.8771 0
M  V30 8779 H 856.04 2.53362 -2.94517 0
M  V30 8780 H 857.712 0.503756 -4.58541 0
M  V30 8781 H 855.955 0.404675 -4.31908 0
M  V30 8782 H 856.626 1.75956 -5.23205 0
M  V30 8783 H 859.102 2.38514 -3.40955 0
M  V30 8784 H 857.978 3.49997 -4.2284 0
M  V30 8785 H 858.239 3.64787 -2.49765 0
M  V30 8786 N 857.298 1.47698 0.54982 0
M  V30 8787 C 858.544 1.54931 1.30859 0
M  V30 8788 C 858.877 0.214021 1.93017 0
M  V30 8789 O 858.152 -0.778093 1.78258 0
M  V30 8790 C 858.435 2.67286 2.41309 0
M  V30 8791 C 858.288 4.10457 1.83971 0
M  V30 8792 C 859.607 2.75509 3.43195 0
M  V30 8793 H 856.726 0.56399 0.474431 0
M  V30 8794 H 859.368 1.79787 0.614541 0
M  V30 8795 H 857.518 2.46224 3.0051 0
M  V30 8796 H 859.19 4.42903 1.28974 0
M  V30 8797 H 857.433 4.18387 1.14606 0
M  V30 8798 H 858.104 4.84857 2.63851 0
M  V30 8799 H 860.58 2.94531 2.93923 0
M  V30 8800 H 859.456 3.55886 4.17895 0
M  V30 8801 H 859.717 1.82863 4.02509 0
M  V30 8802 N 858.776 -0.797141 1.35954 0
M  V30 8803 C 860.001 -1.59097 1.33053 0
M  V30 8804 C 860.426 -1.87897 -0.0874592 0
M  V30 8805 O 859.784 -1.47291 -1.05712 0
M  V30 8806 C 859.832 -2.89346 2.152 0
M  V30 8807 O 858.936 -3.826 1.5392 0
M  V30 8808 H 858.277 -0.482895 0.45575 0
M  V30 8809 H 860.807 -0.988633 1.79129 0
M  V30 8810 H 860.817 -3.38686 2.27499 0
M  V30 8811 H 859.492 -2.6771 3.18283 0
M  V30 8812 H 858.069 -3.41174 1.50516 0
M  V30 8813 N 860.254 -1.20106 -1.0204 0
M  V30 8814 C 861.187 -0.889795 -2.10138 0
M  V30 8815 C 862.165 0.156595 -1.61844 0
M  V30 8816 O 863.349 0.0310192 -1.88474 0
M  V30 8817 C 860.476 -0.333227 -3.37057 0
M  V30 8818 C 859.522 -1.36001 -4.04235 0
M  V30 8819 S 860.355 -2.92366 -4.48645 0
M  V30 8820 C 861.511 -2.38274 -5.78771 0
M  V30 8821 H 861.744 -1.80523 -2.36217 0
M  V30 8822 H 859.277 -1.02912 -1.15102 0
M  V30 8823 H 861.235 -0.0186507 -4.10496 0
M  V30 8824 H 859.896 0.560652 -3.09056 0
M  V30 8825 H 859.089 -0.919874 -4.95534 0
M  V30 8826 H 858.691 -1.62186 -3.37004 0
M  V30 8827 H 860.983 -1.77799 -6.53754 0
M  V30 8828 H 861.926 -3.27955 -6.27576 0
M  V30 8829 H 862.334 -1.8054 -5.34851 0
M  V30 8830 N 861.732 1.21287 -1.00634 0
M  V30 8831 C 863.143 1.72136 -0.722914 0
M  V30 8832 C 863.494 1.8091 0.759338 0
M  V30 8833 O 862.619 1.46458 1.59308 0
M  V30 8834 C 863.214 3.12633 -1.30561 0
M  V30 8835 C 861.773 3.60833 -1.07127 0
M  V30 8836 C 860.92 2.38326 -1.4176 0
M  V30 8837 H 863.871 1.06445 -1.17708 0
M  V30 8838 H 863.892 3.74174 -0.690937 0
M  V30 8839 H 863.404 3.06215 -2.38441 0
M  V30 8840 H 861.505 3.72599 -0.00968671 0
M  V30 8841 H 861.618 4.46226 -1.74411 0
M  V30 8842 H 859.982 2.40575 -0.836412 0
M  V30 8843 H 860.765 2.34558 -2.50674 0
M  V30 8844 N 863.21 0.781244 1.36873 0
M  V30 8845 C 864.435 0.360398 2.04245 0
M  V30 8846 C 864.86 -1.01242 1.58529 0
M  V30 8847 O 864.218 -1.65063 0.749936 0
M  V30 8848 C 864.266 0.42329 3.58107 0
M  V30 8849 O 863.37 -0.572796 4.08403 0
M  V30 8850 H 862.711 0.154386 0.645803 0
M  V30 8851 H 865.241 1.06008 1.74996 0
M  V30 8852 H 865.251 0.283967 4.07011 0
M  V30 8853 H 863.926 1.42477 3.90734 0
M  V30 8854 H 862.503 -0.395809 3.70793 0
M  V30 8855 N 864.689 -1.48329 0.532571 0
M  V30 8856 C 865.917 -2.069 0.00354299 0
M  V30 8857 C 866.332 -1.38876 -1.27902 0
M  V30 8858 O 865.689 -0.477119 -1.76153 0
M  V30 8859 C 865.74 -3.60821 -0.221416 0
M  V30 8860 O 865.461 -4.26291 1.01034 0
M  V30 8861 C 866.962 -4.36194 -0.790531 0
M  V30 8862 H 864.182 -0.670103 0.0346836 0
M  V30 8863 H 866.726 -1.90682 0.738955 0
M  V30 8864 H 864.881 -3.76636 -0.906884 0
M  V30 8865 H 865.295 -5.18475 0.792683 0
M  V30 8866 H 866.769 -5.44657 -0.897347 0
M  V30 8867 H 867.246 -4.00798 -1.79605 0
M  V30 8868 H 867.852 -4.25064 -0.141546 0
M  V30 8869 N 866.167 -0.267825 -1.55308 0
M  V30 8870 C 867.444 0.402449 -1.91415 0
M  V30 8871 C 867.824 1.7428 -1.1912 0
M  V30 8872 O 867.172 2.2631 -0.315609 0
M  V30 8873 C 867.382 0.549926 -3.4464 0
M  V30 8874 C 868.73 0.836188 -4.16285 0
M  V30 8875 O 869.754 0.635009 -3.50494 0
M  V30 8876 O 868.613 1.22051 -5.32697 0
M  V30 8877 H 865.707 0.219177 -0.797427 0
M  V30 8878 H 868.253 -0.313439 -1.6678 0
M  V30 8879 H 867.025 -0.393641 -3.89315 0
M  V30 8880 H 866.648 1.31556 -3.75205 0
M  V30 8881 N 867.645 1.57599 0.00500368 0
M  V30 8882 C 868.608 2.07058 0.982832 0
M  V30 8883 C 869.608 0.979045 1.27559 0
M  V30 8884 O 870.798 1.24187 1.22161 0
M  V30 8885 C 867.93 2.50782 2.30914 0
M  V30 8886 H 869.123 2.94718 0.555119 0
M  V30 8887 H 866.676 1.54249 0.25237 0
M  V30 8888 H 867.411 1.66351 2.78385 0
M  V30 8889 H 867.196 3.30495 2.10987 0
M  V30 8890 H 868.686 2.89391 3.0107 0
M  V30 8891 N 869.123 -0.277682 1.55134 0
M  V30 8892 C 870.37 -1.0099 1.7552 0
M  V30 8893 C 870.698 -1.86452 0.553712 0
M  V30 8894 O 869.953 -1.90122 -0.463896 0
M  V30 8895 C 870.252 -1.92599 3.01065 0
M  V30 8896 C 869.918 -1.22926 4.3382 0
M  V30 8897 C 868.58 -1.03659 4.69902 0
M  V30 8898 C 870.932 -0.733071 5.16019 0
M  V30 8899 C 868.26 -0.334933 5.85743 0
M  V30 8900 C 870.612 -0.0450319 6.32584 0
M  V30 8901 C 869.276 0.159393 6.6731 0
M  V30 8902 H 868.546 -0.36955 0.642273 0
M  V30 8903 H 871.193 -0.282611 1.89403 0
M  V30 8904 H 869.498 -2.71934 2.82062 0
M  V30 8905 H 871.195 -2.49367 3.14034 0
M  V30 8906 H 867.785 -1.38933 4.05457 0
M  V30 8907 H 871.969 -0.869565 4.88623 0
M  V30 8908 H 867.225 -0.165783 6.11175 0
M  V30 8909 H 871.399 0.34723 6.95534 0
M  V30 8910 H 869.026 0.70507 7.56923 0
M  V30 8911 N 870.601 -1.47988 -0.541979 0
M  V30 8912 C 871.878 -1.45878 -1.30303 0
M  V30 8913 C 872.258 -0.163931 -2.10463 0
M  V30 8914 O 871.606 0.854479 -2.11922 0
M  V30 8915 C 871.816 -2.71359 -2.19466 0
M  V30 8916 C 873.164 -3.19199 -2.79995 0
M  V30 8917 O 874.188 -2.72193 -2.2976 0
M  V30 8918 O 873.047 -4.00961 -3.71339 0
M  V30 8919 H 870.141 -0.582043 -0.587498 0
M  V30 8920 H 872.687 -1.60207 -0.559623 0
M  V30 8921 H 871.459 -3.57122 -1.59936 0
M  V30 8922 H 871.082 -2.59692 -3.01075 0
M  V30 8923 N 872.079 0.78992 -1.36375 0
M  V30 8924 C 873.026 1.90254 -1.3066 0
M  V30 8925 C 873.996 1.65171 -0.17539 0
M  V30 8926 O 875.181 1.87338 -0.361824 0
M  V30 8927 C 872.321 3.27057 -1.10125 0
M  V30 8928 C 871.434 3.64215 -2.32317 0
M  V30 8929 C 870.569 4.90134 -2.04798 0
M  V30 8930 C 869.608 5.19969 -3.22953 0
M  V30 8931 N 868.745 6.37071 -2.95102 0
M  V30 8932 H 873.585 1.94474 -2.25796 0
M  V30 8933 H 871.122 0.951022 -1.12223 0
M  V30 8934 H 873.08 4.05947 -0.962453 0
M  V30 8935 H 871.71 3.22261 -0.186444 0
M  V30 8936 H 870.762 2.80454 -2.57002 0
M  V30 8937 H 872.074 3.82212 -3.20492 0
M  V30 8938 H 871.228 5.76888 -1.87845 0
M  V30 8939 H 869.967 4.74205 -1.13932 0
M  V30 8940 H 868.972 4.31699 -3.40465 0
M  V30 8941 H 870.197 5.37817 -4.14644 0
M  V30 8942 H 868.143 6.22535 -2.06848 0
M  V30 8943 H 868.06 6.55398 -3.76815 0
M  V30 8944 H 869.328 7.26808 -2.81727 0
M  V30 8945 N 873.557 1.20646 1.01402 0
M  V30 8946 C 874.489 0.915392 2.10127 0
M  V30 8947 C 875.502 -0.0978705 1.62506 0
M  V30 8948 O 876.691 0.133477 1.78 0
M  V30 8949 C 873.791 0.351304 3.37074 0
M  V30 8950 C 872.964 1.41673 4.13821 0
M  V30 8951 C 872.023 0.8635 5.19067 0
M  V30 8952 O 871.049 1.54481 5.47836 0
M  V30 8953 N 872.251 -0.325799 5.79585 0
M  V30 8954 H 875.016 1.85132 2.35682 0
M  V30 8955 H 872.577 1.11048 1.17813 0
M  V30 8956 H 874.569 -0.032996 4.04687 0
M  V30 8957 H 873.139 -0.489242 3.08748 0
M  V30 8958 H 872.359 1.97526 3.41141 0
M  V30 8959 H 873.647 2.1342 4.61876 0
M  V30 8960 H 873.045 -0.896534 5.58551 0
M  V30 8961 H 871.602 -0.651708 6.48534 0
M  V30 8962 N 875.035 -1.20752 1.01276 0
M  V30 8963 C 876.312 -1.85676 0.615112 0
M  V30 8964 C 876.692 -1.90623 -0.906976 0
M  V30 8965 O 876.04 -1.41124 -1.79712 0
M  V30 8966 C 876.25 -3.2552 1.25847 0
M  V30 8967 C 877.598 -4.0184 1.37148 0
M  V30 8968 O 878.622 -3.3486 1.21438 0
M  V30 8969 O 877.481 -5.21783 1.62495 0
M  V30 8970 H 874.575 -0.799437 0.211729 0
M  V30 8971 H 877.121 -1.28372 1.10989 0
M  V30 8972 H 875.893 -3.16664 2.29869 0
M  V30 8973 H 875.516 -3.90452 0.750524 0
M  V30 8974 N 876.513 -0.788492 -1.36457 0
M  V30 8975 C 877.476 -0.192209 -2.28393 0
M  V30 8976 C 878.476 0.609916 -1.48784 0
M  V30 8977 O 879.666 0.431046 -1.68783 0
M  V30 8978 C 876.798 0.734096 -3.32902 0
M  V30 8979 H 877.991 -1.00284 -2.82636 0
M  V30 8980 H 875.544 -0.557852 -1.46006 0
M  V30 8981 H 876.279 1.5691 -2.83813 0
M  V30 8982 H 876.064 0.160875 -3.9177 0
M  V30 8983 H 877.554 1.1462 -4.01562 0
M  V30 8984 N 877.991 1.48044 -0.54043 0
M  V30 8985 C 878.954 2.28273 0.205966 0
M  V30 8986 C 879.954 1.35983 0.858209 0
M  V30 8987 O 881.144 1.58776 0.716651 0
M  V30 8988 C 878.276 3.15174 1.29917 0
M  V30 8989 H 879.469 2.95727 -0.498555 0
M  V30 8990 H 877.022 1.53457 -0.296745 0
M  V30 8991 H 877.757 2.52374 2.03661 0
M  V30 8992 H 877.542 3.83074 0.836475 0
M  V30 8993 H 879.032 3.75666 1.82387 0
M  V30 8994 N 879.47 0.276058 1.55163 0
M  V30 8995 C 880.7 -0.343274 2.03728 0
M  V30 8996 C 881.108 -1.49945 1.15383 0
M  V30 8997 O 880.451 -1.82942 0.166696 0
M  V30 8998 C 880.513 -0.885683 3.48419 0
M  V30 8999 C 880.177 0.141976 4.56779 0
M  V30 9000 C 881.174 0.961816 5.10926 0
M  V30 9001 C 878.859 0.276487 5.01538 0
M  V30 9002 C 880.853 1.90234 6.0835 0
M  V30 9003 C 878.54 1.22049 5.98788 0
M  V30 9004 C 879.538 2.03192 6.52075 0
M  V30 9005 O 879.226 2.95996 7.47423 0
M  V30 9006 H 878.958 -0.0822192 0.670981 0
M  V30 9007 H 881.512 0.406199 2.01343 0
M  V30 9008 H 879.742 -1.68524 3.48047 0
M  V30 9009 H 881.431 -1.4182 3.80318 0
M  V30 9010 H 882.197 0.868637 4.77158 0
M  V30 9011 H 878.076 -0.345095 4.59707 0
M  V30 9012 H 881.62 2.5361 6.49867 0
M  V30 9013 H 877.517 1.31448 6.31974 0
M  V30 9014 H 878.285 2.90688 7.65142 0
M  V30 9015 N 880.948 -1.576 0.00335426 0
M  V30 9016 C 882.364 -1.55653 -0.352766 0
M  V30 9017 C 882.564 -1.00632 -1.74572 0
M  V30 9018 O 881.62 -0.641621 -2.44212 0
M  V30 9019 C 882.933 -2.99858 -0.224929 0
M  V30 9020 C 884.481 -3.11563 -0.299619 0
M  V30 9021 C 884.956 -4.57559 -0.200868 0
M  V30 9022 N 886.447 -4.62477 -0.258663 0
M  V30 9023 C 887.182 -5.73031 -0.205644 0
M  V30 9024 N 886.678 -6.92723 -0.103027 0
M  V30 9025 N 888.471 -5.61509 -0.257754 0
M  V30 9026 H 880.622 -1.91703 0.914539 0
M  V30 9027 H 882.885 -0.88068 0.350865 0
M  V30 9028 H 882.591 -3.43964 0.733595 0
M  V30 9029 H 882.465 -3.63547 -1.00564 0
M  V30 9030 H 884.852 -2.67384 -1.24859 0
M  V30 9031 H 884.933 -2.50644 0.511025 0
M  V30 9032 H 884.577 -5.02413 0.744572 0
M  V30 9033 H 884.507 -5.16428 -1.03004 0
M  V30 9034 H 886.998 -3.76375 -0.339168 0
M  V30 9035 H 887.311 -7.7277 -0.0685593 0
M  V30 9036 H 885.656 -6.94966 -0.0686069 0
M  V30 9037 H 888.847 -4.66892 -0.336142 0
M  V30 9038 H 889.02 -6.4765 -0.21297 0
M  V30 9039 N 882.426 0.269451 -1.5528 0
M  V30 9040 C 883.336 1.35511 -1.91505 0
M  V30 9041 C 884.352 1.53854 -0.812712 0
M  V30 9042 O 885.528 1.67912 -1.1121 0
M  V30 9043 C 882.593 2.6937 -2.18267 0
M  V30 9044 C 881.654 2.59743 -3.41807 0
M  V30 9045 C 880.887 3.87219 -3.67283 0
M  V30 9046 O 881.11 4.88066 -2.95208 0
M  V30 9047 O 880.044 3.87209 -4.60818 0
M  V30 9048 H 883.87 1.07785 -2.8393 0
M  V30 9049 H 881.455 0.468282 -1.41871 0
M  V30 9050 H 883.337 3.48513 -2.36889 0
M  V30 9051 H 882.012 2.96874 -1.29024 0
M  V30 9052 H 880.919 1.78964 -3.28516 0
M  V30 9053 H 882.252 2.37188 -4.3128 0
M  V30 9054 N 883.904 1.48273 0.534124 0
M  V30 9055 C 885.129 1.59988 1.31979 0
M  V30 9056 C 885.554 0.258824 1.86311 0
M  V30 9057 O 884.912 -0.768885 1.64188 0
M  V30 9058 C 884.96 2.64642 2.44943 0
M  V30 9059 O 884.064 2.21515 3.47858 0
M  V30 9060 H 883.405 0.536625 0.391063 0
M  V30 9061 H 885.935 1.94229 0.643135 0
M  V30 9062 H 885.945 2.85786 2.91187 0
M  V30 9063 H 884.62 3.62004 2.04758 0
M  V30 9064 H 883.197 2.10567 3.0776 0
M  V30 9065 N 885.382 -0.782676 1.36792 0
M  V30 9066 C 886.628 -1.54311 1.3159 0
M  V30 9067 C 886.961 -1.93928 -0.102696 0
M  V30 9068 O 886.236 -1.63233 -1.05761 0
M  V30 9069 C 886.519 -2.81561 2.24489 0
M  V30 9070 C 886.372 -2.48268 3.75078 0
M  V30 9071 C 887.691 -3.83428 2.16034 0
M  V30 9072 H 884.81 -0.559828 0.479335 0
M  V30 9073 H 887.452 -0.898717 1.67401 0
M  V30 9074 H 885.602 -3.36549 1.9408 0
M  V30 9075 H 887.274 -1.99279 4.16036 0
M  V30 9076 H 885.517 -1.81116 3.94182 0
M  V30 9077 H 886.188 -3.39183 4.35499 0
M  V30 9078 H 888.664 -3.37905 2.42815 0
M  V30 9079 H 887.54 -4.70204 2.83194 0
M  V30 9080 H 887.801 -4.26887 1.14976 0
M  V30 9081 N 886.86 -1.21182 -1.00761 0
M  V30 9082 C 887.79 -0.992773 -2.11344 0
M  V30 9083 C 888.771 0.0813618 -1.69905 0
M  V30 9084 O 889.956 -0.0779503 -1.94043 0
M  V30 9085 C 887.086 -0.553826 -3.42856 0
M  V30 9086 C 886.04 -1.57223 -3.98077 0
M  V30 9087 C 885.366 -0.989605 -5.25463 0
M  V30 9088 C 886.666 -2.95839 -4.30438 0
M  V30 9089 H 888.36 -1.91766 -2.29927 0
M  V30 9090 H 885.906 -0.923426 -1.10494 0
M  V30 9091 H 887.859 -0.387771 -4.19612 0
M  V30 9092 H 886.583 0.406702 -3.24058 0
M  V30 9093 H 885.242 -1.7258 -3.23437 0
M  V30 9094 H 884.89 -0.0208743 -5.02996 0
M  V30 9095 H 884.59 -1.66984 -5.63374 0
M  V30 9096 H 886.114 -0.834815 -6.04866 0
M  V30 9097 H 887.528 -2.8394 -4.98047 0
M  V30 9098 H 885.925 -3.60851 -4.79486 0
M  V30 9099 H 886.995 -3.46882 -3.38823 0
M  V30 9100 N 888.338 1.20213 -1.01915 0
M  V30 9101 C 889.749 1.7136 -0.741131 0
M  V30 9102 C 890.1 1.81705 0.740107 0
M  V30 9103 O 889.225 1.48139 1.57746 0
M  V30 9104 C 889.82 3.11231 -1.33869 0
M  V30 9105 C 888.379 3.59677 -1.10948 0
M  V30 9106 C 887.526 2.36809 -1.4428 0
M  V30 9107 H 890.477 1.05191 -1.1883 0
M  V30 9108 H 890.498 3.7342 -0.730585 0
M  V30 9109 H 890.01 3.03669 -2.41675 0
M  V30 9110 H 888.111 3.72568 -0.0492052 0
M  V30 9111 H 888.224 4.44351 -1.79134 0
M  V30 9112 H 886.588 2.39674 -0.861881 0
M  V30 9113 H 887.371 2.31886 -2.53148 0
M  V30 9114 N 889.816 0.795718 1.36037 0
M  V30 9115 C 890.763 0.196548 2.29962 0
M  V30 9116 C 891.733 -0.663213 1.52285 0
M  V30 9117 O 892.918 -0.610574 1.80767 0
M  V30 9118 C 890.058 -0.657639 3.38776 0
M  V30 9119 C 889.171 0.221358 4.31433 0
M  V30 9120 C 888.306 -0.6398 5.27333 0
M  V30 9121 C 887.345 0.240265 6.11628 0
M  V30 9122 N 886.482 -0.580237 6.99698 0
M  V30 9123 H 891.322 1.00295 2.80615 0
M  V30 9124 H 888.859 0.506147 1.38118 0
M  V30 9125 H 890.817 -1.16793 4.00519 0
M  V30 9126 H 889.447 -1.42941 2.89426 0
M  V30 9127 H 888.499 0.84967 3.70789 0
M  V30 9128 H 889.811 0.899195 4.90628 0
M  V30 9129 H 888.965 -1.21566 5.94396 0
M  V30 9130 H 887.704 -1.35124 4.68607 0
M  V30 9131 H 886.709 0.828474 5.43522 0
M  V30 9132 H 887.934 0.949403 6.72431 0
M  V30 9133 H 885.88 -1.27585 6.43473 0
M  V30 9134 H 885.797 0.0397853 7.5599 0
M  V30 9135 H 887.065 -1.13972 7.71123 0
M  V30 9136 N 891.294 -1.47756 0.548274 0
M  V30 9137 C 892.257 -2.28379 -0.193857 0
M  V30 9138 C 893.257 -1.36436 -0.850986 0
M  V30 9139 O 894.447 -1.59154 -0.70822 0
M  V30 9140 C 891.579 -3.15858 -1.28243 0
M  V30 9141 H 892.772 -2.95458 0.514231 0
M  V30 9142 H 890.325 -1.53298 0.304879 0
M  V30 9143 H 891.06 -2.5345 -2.0232 0
M  V30 9144 H 890.845 -3.83512 -0.816148 0
M  V30 9145 H 892.335 -3.76627 -1.80393 0
M  V30 9146 N 892.772 -0.284283 -1.55015 0
M  V30 9147 C 894.018 0.330352 -2.00091 0
M  V30 9148 C 894.351 1.54814 -1.17244 0
M  V30 9149 O 893.626 1.92954 -0.244753 0
M  V30 9150 C 893.909 0.703492 -3.53161 0
M  V30 9151 C 893.762 -0.522275 -4.46758 0
M  V30 9152 C 895.081 1.53645 -4.12409 0
M  V30 9153 H 892.2 0.118599 -0.727395 0
M  V30 9154 H 894.842 -0.393054 -1.8589 0
M  V30 9155 H 892.992 1.31983 -3.65394 0
M  V30 9156 H 894.664 -1.16082 -4.46456 0
M  V30 9157 H 892.907 -1.15865 -4.1804 0
M  V30 9158 H 893.578 -0.217295 -5.51572 0
M  V30 9159 H 896.054 1.01583 -4.0351 0
M  V30 9160 H 894.93 1.76633 -5.19704 0
M  V30 9161 H 895.191 2.5204 -3.63219 0
M  V30 9162 N 894.251 1.57596 -0.0117121 0
M  V30 9163 C 895.479 1.9536 0.681334 0
M  V30 9164 C 895.894 0.887255 1.66653 0
M  V30 9165 O 895.251 -0.132692 1.82017 0
M  V30 9166 C 895.302 3.33165 1.40298 0
M  V30 9167 O 895.023 4.35707 0.45728 0
M  V30 9168 C 896.524 3.85458 2.18946 0
M  V30 9169 H 893.744 0.643826 0.189023 0
M  V30 9170 H 896.288 2.04392 -0.066311 0
M  V30 9171 H 894.443 3.25404 2.10216 0
M  V30 9172 H 894.857 5.15495 0.96773 0
M  V30 9173 H 896.331 4.84275 2.64918 0
M  V30 9174 H 896.808 3.18781 3.02118 0
M  V30 9175 H 897.414 3.96431 1.5402 0
M  V30 9176 N 895.729 -0.261212 1.5542 0
M  V30 9177 C 896.692 -1.30645 1.8832 0
M  V30 9178 C 897.692 -1.41782 0.758588 0
M  V30 9179 O 898.882 -1.40729 1.02669 0
M  V30 9180 C 896.014 -2.6862 2.09895 0
M  V30 9181 H 897.207 -1.02698 2.81768 0
M  V30 9182 H 894.76 -0.499838 1.48092 0
M  V30 9183 H 895.495 -3.0173 1.18868 0
M  V30 9184 H 895.28 -2.61921 2.91787 0
M  V30 9185 H 896.77 -3.44121 2.36581 0
M  V30 9186 N 897.207 -1.48554 -0.526253 0
M  V30 9187 C 898.623 -1.34757 -0.855138 0
M  V30 9188 C 898.823 -0.36142 -1.98232 0
M  V30 9189 O 897.879 0.216026 -2.51574 0
M  V30 9190 C 899.192 -2.74877 -1.21915 0
M  V30 9191 C 900.74 -2.83393 -1.32882 0
M  V30 9192 C 901.215 -4.24223 -1.72624 0
M  V30 9193 N 902.706 -4.26913 -1.7972 0
M  V30 9194 C 903.441 -5.32824 -2.11863 0
M  V30 9195 N 902.937 -6.49008 -2.42405 0
M  V30 9196 N 904.73 -5.20221 -2.12901 0
M  V30 9197 H 896.881 -2.11284 0.217422 0
M  V30 9198 H 899.144 -0.947367 0.0346362 0
M  V30 9199 H 898.85 -3.48619 -0.464486 0
M  V30 9200 H 898.724 -3.0864 -2.16844 0
M  V30 9201 H 901.111 -2.09904 -2.07424 0
M  V30 9202 H 901.192 -2.53245 -0.360638 0
M  V30 9203 H 900.836 -4.98229 -0.986411 0
M  V30 9204 H 900.766 -4.51817 -2.70498 0
M  V30 9205 H 903.257 -3.4311 -1.58379 0
M  V30 9206 H 903.57 -7.25561 -2.66048 0
M  V30 9207 H 901.915 -6.52277 -2.39917 0
M  V30 9208 H 905.106 -4.28469 -1.885 0
M  V30 9209 H 905.279 -6.02861 -2.37619 0
M  V30 9210 N 898.685 0.775411 -1.37205 0
M  V30 9211 C 899.931 1.53611 -1.32407 0
M  V30 9212 C 900.264 1.9398 0.0924103 0
M  V30 9213 O 899.539 1.63791 1.04893 0
M  V30 9214 C 899.822 2.80367 -2.25979 0
M  V30 9215 C 899.675 2.46275 -3.76389 0
M  V30 9216 C 900.994 3.82277 -2.18064 0
M  V30 9217 H 898.113 0.557278 -0.482297 0
M  V30 9218 H 900.755 0.889826 -1.67875 0
M  V30 9219 H 898.905 3.35515 -1.95862 0
M  V30 9220 H 900.577 1.9707 -4.17087 0
M  V30 9221 H 898.82 1.79023 -3.95137 0
M  V30 9222 H 899.491 3.36868 -4.37291 0
M  V30 9223 H 901.967 3.36613 -2.44604 0
M  V30 9224 H 900.843 4.68696 -2.85684 0
M  V30 9225 H 901.104 4.26272 -1.17239 0
M  V30 9226 N 900.163 1.21714 1.00117 0
M  V30 9227 C 901.126 0.981338 2.07129 0
M  V30 9228 C 902.126 -0.0491116 1.60725 0
M  V30 9229 O 903.316 0.188555 1.73177 0
M  V30 9230 C 900.448 0.480608 3.37495 0
M  V30 9231 H 901.641 1.93075 2.29482 0
M  V30 9232 H 899.194 1.03467 1.17151 0
M  V30 9233 H 899.929 -0.473552 3.20824 0
M  V30 9234 H 899.714 1.22393 3.72508 0
M  V30 9235 H 901.204 0.33561 4.16249 0
M  V30 9236 N 901.641 -1.19671 1.02551 0
M  V30 9237 C 902.887 -1.89548 0.721069 0
M  V30 9238 C 903.22 -1.79209 -0.748176 0
M  V30 9239 O 902.495 -1.1822 -1.54448 0
M  V30 9240 C 902.778 -3.4061 1.16861 0
M  V30 9241 C 902.631 -3.59838 2.69883 0
M  V30 9242 C 903.95 -4.33718 0.746782 0
M  V30 9243 H 901.069 -0.688315 0.263422 0
M  V30 9244 H 903.711 -1.40883 1.27483 0
M  V30 9245 H 901.861 -3.82188 0.697477 0
M  V30 9246 H 903.533 -3.27454 3.24917 0
M  V30 9247 H 901.776 -3.03005 3.10435 0
M  V30 9248 H 902.447 -4.65766 2.96253 0
M  V30 9249 H 904.923 -3.99837 1.15195 0
M  V30 9250 H 903.799 -5.38012 1.08786 0
M  V30 9251 H 904.06 -4.40704 -0.351057 0
M  V30 9252 N 903.119 -0.802921 -1.35613 0
M  V30 9253 C 904.029 -0.212177 -2.33639 0
M  V30 9254 C 905.045 0.642871 -1.61689 0
M  V30 9255 O 906.221 0.555485 -1.93588 0
M  V30 9256 C 903.286 0.632406 -3.40883 0
M  V30 9257 C 902.347 -0.242708 -4.28613 0
M  V30 9258 C 901.58 0.56166 -5.30736 0
M  V30 9259 O 901.803 1.79664 -5.41366 0
M  V30 9260 O 900.737 -0.0455387 -6.01883 0
M  V30 9261 H 904.563 -1.023 -2.85952 0
M  V30 9262 H 902.148 -0.564636 -1.38319 0
M  V30 9263 H 904.03 1.11358 -4.0642 0
M  V30 9264 H 902.705 1.42089 -2.90848 0
M  V30 9265 H 901.612 -0.77094 -3.6607 0
M  V30 9266 H 902.945 -0.995046 -4.82037 0
M  V30 9267 N 904.597 1.47463 -0.556102 0
M  V30 9268 C 905.56 2.28478 0.181743 0
M  V30 9269 C 906.56 1.36886 0.843738 0
M  V30 9270 O 907.75 1.59527 0.69977 0
M  V30 9271 C 904.882 3.16534 1.26566 0
M  V30 9272 H 906.075 2.95182 -0.529892 0
M  V30 9273 H 903.628 1.53134 -0.313005 0
M  V30 9274 H 904.363 2.5452 2.00973 0
M  V30 9275 H 904.148 3.83939 0.795798 0
M  V30 9276 H 905.638 3.77579 1.78393 0
M  V30 9277 N 906.075 0.2925 1.54862 0
M  V30 9278 C 907.323 -0.318633 1.99572 0
M  V30 9279 C 907.644 -1.55062 1.1824 0
M  V30 9280 O 906.914 -1.93943 0.276226 0
M  V30 9281 H 905.494 -0.120722 0.737181 0
M  V30 9282 H 908.156 0.401862 1.90712 0
M  V30 9283 H 907.252 -0.596542 3.06346 0
M  V30 9284 N 907.553 -1.57587 0.0200696 0
M  V30 9285 C 908.802 -1.90602 -0.659822 0
M  V30 9286 C 909.115 -0.897216 -1.73808 0
M  V30 9287 O 910.321 -1.11829 -2.47399 0
M  V30 9288 C 908.777 -3.38416 -1.22484 0
M  V30 9289 C 908.385 -4.47637 -0.180339 0
M  V30 9290 C 910.129 -3.80513 -1.88176 0
M  V30 9291 C 908.036 -5.86542 -0.756482 0
M  V30 9292 H 906.966 -0.711272 -0.250216 0
M  V30 9293 H 909.617 -1.83308 0.0838942 0
M  V30 9294 H 907.999 -3.40613 -2.01987 0
M  V30 9295 H 909.173 -4.56987 0.591573 0
M  V30 9296 H 907.488 -4.14687 0.377302 0
M  V30 9297 H 910.085 -4.8164 -2.32222 0
M  V30 9298 H 910.428 -3.15091 -2.72073 0
M  V30 9299 H 910.961 -3.80701 -1.15377 0
M  V30 9300 H 907.7 -6.55485 0.0441468 0
M  V30 9301 H 907.22 -5.80816 -1.49709 0
M  V30 9302 H 908.899 -6.3483 -1.249 0
M  V30 9303 N 909.032 0.252966 -1.55557 0
M  V30 9304 C 909.995 1.29645 -1.8901 0
M  V30 9305 C 910.995 1.41378 -0.766096 0
M  V30 9306 O 912.185 1.40183 -1.03414 0
M  V30 9307 C 909.317 2.67504 -2.11316 0
M  V30 9308 H 910.51 1.01202 -2.82309 0
M  V30 9309 H 908.063 0.491977 -1.48355 0
M  V30 9310 H 908.798 3.01095 -1.20466 0
M  V30 9311 H 908.583 2.6037 -2.93172 0
M  V30 9312 H 910.073 3.42861 -2.38403 0
M  V30 9313 N 910.51 1.48831 0.518367 0
M  V30 9314 C 911.787 1.47933 1.27966 0
M  V30 9315 C 912.167 0.197393 2.10175 0
M  V30 9316 O 911.515 -0.820656 2.13255 0
M  V30 9317 C 911.725 2.74816 2.15121 0
M  V30 9318 C 913.073 3.23613 2.74881 0
M  V30 9319 O 914.097 2.75814 2.254 0
M  V30 9320 O 912.956 4.06818 3.64913 0
M  V30 9321 H 910.05 0.591316 0.578164 0
M  V30 9322 H 912.596 1.61077 0.534065 0
M  V30 9323 H 911.368 3.59621 1.54234 0
M  V30 9324 H 910.991 2.64449 2.96905 0
M  V30 9325 N 911.988 -0.768124 1.37614 0
M  V30 9326 C 913.218 -1.555 1.36027 0
M  V30 9327 C 913.626 -1.89119 -0.0554273 0
M  V30 9328 O 912.969 -1.52203 -1.02859 0
M  V30 9329 C 913.031 -2.8906 2.13739 0
M  V30 9330 C 912.695 -2.78058 3.62674 0
M  V30 9331 C 913.692 -2.48841 4.5648 0
M  V30 9332 C 911.377 -2.95966 4.05844 0
M  V30 9333 C 913.371 -2.37665 5.91434 0
M  V30 9334 C 911.058 -2.84411 5.40882 0
M  V30 9335 C 912.056 -2.55301 6.33491 0
M  V30 9336 O 911.744 -2.43779 7.66046 0
M  V30 9337 H 911.476 -0.488263 0.467521 0
M  V30 9338 H 914.03 -0.959583 1.81607 0
M  V30 9339 H 912.26 -3.50735 1.62854 0
M  V30 9340 H 913.949 -3.5048 2.04741 0
M  V30 9341 H 914.715 -2.34687 4.24437 0
M  V30 9342 H 910.594 -3.17625 3.34119 0
M  V30 9343 H 914.138 -2.14865 6.63686 0
M  V30 9344 H 910.035 -2.98134 5.72527 0
M  V30 9345 H 910.803 -2.59101 7.76408 0
M  V30 9346 N 913.466 -1.22244 -0.994698 0
M  V30 9347 C 914.712 -1.05752 -1.73747 0
M  V30 9348 C 915.067 0.403416 -1.88123 0
M  V30 9349 O 914.36 1.29511 -1.412 0
M  V30 9350 C 914.554 -1.70014 -3.14372 0
M  V30 9351 C 914.383 -3.22205 -3.1371 0
M  V30 9352 C 913.153 -3.91301 -3.19705 0
M  V30 9353 C 915.351 -4.19163 -2.98005 0
M  V30 9354 N 913.333 -5.30594 -3.08778 0
M  V30 9355 C 914.704 -5.45274 -2.95087 0
M  V30 9356 C 916.759 -4.10078 -2.82383 0
M  V30 9357 C 915.462 -6.63345 -2.78146 0
M  V30 9358 C 917.488 -5.27797 -2.66803 0
M  V30 9359 C 916.85 -6.52826 -2.6457 0
M  V30 9360 H 912.949 -0.441393 -0.64552 0
M  V30 9361 H 915.533 -1.54757 -1.18146 0
M  V30 9362 H 913.704 -1.23562 -3.68221 0
M  V30 9363 H 915.436 -1.46631 -3.77202 0
M  V30 9364 H 912.191 -3.42289 -3.27315 0
M  V30 9365 H 912.615 -6.0358 -3.06628 0
M  V30 9366 H 917.257 -3.14201 -2.82909 0
M  V30 9367 H 914.975 -7.59373 -2.76367 0
M  V30 9368 H 918.561 -5.22598 -2.557 0
M  V30 9369 H 917.441 -7.42383 -2.5266 0
M  V30 9370 N 914.944 1.19125 -1.03184 0
M  V30 9371 C 916.174 1.92558 -0.748663 0
M  V30 9372 C 916.582 1.759 0.696837 0
M  V30 9373 O 915.925 1.08019 1.48585 0
M  V30 9374 C 915.987 3.4461 -1.02391 0
M  V30 9375 C 915.651 3.85041 -2.46155 0
M  V30 9376 C 916.648 3.89554 -3.44302 0
M  V30 9377 C 914.333 4.16594 -2.80633 0
M  V30 9378 C 916.327 4.25055 -4.74981 0
M  V30 9379 C 914.014 4.51767 -4.11521 0
M  V30 9380 C 915.012 4.55972 -5.08506 0
M  V30 9381 O 914.7 4.9033 -6.37049 0
M  V30 9382 H 914.432 0.618397 -0.273059 0
M  V30 9383 H 916.986 1.52122 -1.38015 0
M  V30 9384 H 915.216 3.85244 -0.335284 0
M  V30 9385 H 916.905 3.99283 -0.729927 0
M  V30 9386 H 917.671 3.65324 -3.19003 0
M  V30 9387 H 913.55 4.12503 -2.05821 0
M  V30 9388 H 917.094 4.28252 -5.50678 0
M  V30 9389 H 912.991 4.75455 -4.36592 0
M  V30 9390 H 913.759 5.08266 -6.41566 0
M  V30 9391 N 916.422 0.810101 1.35185 0
M  V30 9392 C 917.369 0.220927 2.2974 0
M  V30 9393 C 918.339 -0.647024 1.5298 0
M  V30 9394 O 919.524 -0.591367 1.81404 0
M  V30 9395 C 916.664 -0.62167 3.39454 0
M  V30 9396 C 915.777 0.267104 4.31173 0
M  V30 9397 C 914.912 -0.583833 5.27982 0
M  V30 9398 C 913.951 0.305123 6.11339 0
M  V30 9399 N 913.088 -0.505992 7.00274 0
M  V30 9400 H 917.928 1.03266 2.79536 0
M  V30 9401 H 915.465 0.520768 1.37573 0
M  V30 9402 H 917.423 -1.12539 4.01735 0
M  V30 9403 H 916.053 -1.39863 2.90926 0
M  V30 9404 H 915.105 0.88895 3.69867 0
M  V30 9405 H 916.417 0.951182 4.89647 0
M  V30 9406 H 915.571 -1.15254 5.95652 0
M  V30 9407 H 914.31 -1.30146 4.70014 0
M  V30 9408 H 913.315 0.886075 5.42613 0
M  V30 9409 H 914.54 1.02067 6.71386 0
M  V30 9410 H 912.486 -1.20753 6.4479 0
M  V30 9411 H 912.403 0.119966 7.55905 0
M  V30 9412 H 913.671 -1.05787 7.72288 0
M  V30 9413 N 917.9 -1.47166 0.563914 0
M  V30 9414 C 919.13 -2.06546 0.0473599 0
M  V30 9415 C 919.538 -1.41607 -1.25476 0
M  V30 9416 O 918.881 -0.50894 -1.76509 0
M  V30 9417 C 918.943 -3.58873 -0.212249 0
M  V30 9418 C 918.607 -4.45893 1.00144 0
M  V30 9419 C 919.604 -4.83594 1.90873 0
M  V30 9420 C 917.289 -4.87309 1.218 0
M  V30 9421 C 919.283 -5.61519 3.01621 0
M  V30 9422 C 916.97 -5.64997 2.32856 0
M  V30 9423 C 917.968 -6.02013 3.22597 0
M  V30 9424 O 917.656 -6.78135 4.31727 0
M  V30 9425 H 917.388 -0.674441 0.0458823 0
M  V30 9426 H 919.942 -1.9006 0.778865 0
M  V30 9427 H 918.172 -3.73596 -0.998145 0
M  V30 9428 H 919.861 -4.00248 -0.675005 0
M  V30 9429 H 920.627 -4.52192 1.7535 0
M  V30 9430 H 916.506 -4.57959 0.528641 0
M  V30 9431 H 920.05 -5.90331 3.71693 0
M  V30 9432 H 915.947 -5.95813 2.48349 0
M  V30 9433 H 916.715 -6.96537 4.29859 0
M  V30 9434 N 919.378 -0.300708 -1.54705 0
M  V30 9435 C 920.624 0.309111 -2.0043 0
M  V30 9436 C 920.957 1.53562 -1.1888 0
M  V30 9437 O 920.232 1.92683 -0.265205 0
M  V30 9438 C 920.515 0.665995 -3.53888 0
M  V30 9439 C 920.368 -0.56963 -4.46178 0
M  V30 9440 C 921.687 1.49262 -4.14016 0
M  V30 9441 H 918.806 0.110878 -0.728612 0
M  V30 9442 H 921.448 -0.412748 -1.85463 0
M  V30 9443 H 919.598 1.281 -3.66773 0
M  V30 9444 H 921.27 -1.20811 -4.45199 0
M  V30 9445 H 919.513 -1.20292 -4.16788 0
M  V30 9446 H 920.184 -0.275785 -5.51311 0
M  V30 9447 H 922.66 0.972979 -4.04564 0
M  V30 9448 H 921.536 1.71111 -5.21548 0
M  V30 9449 H 921.797 2.48174 -3.65872 0
M  V30 9450 N 920.856 1.57574 -0.0284266 0
M  V30 9451 C 922.104 1.91393 0.649079 0
M  V30 9452 C 922.425 0.905368 1.72708 0
M  V30 9453 O 921.695 -0.0532107 1.95828 0
M  V30 9454 H 920.275 0.70646 0.24274 0
M  V30 9455 H 922.937 1.94752 -0.076066 0
M  V30 9456 H 922.033 2.91988 1.10226 0
M  V30 9457 N 922.334 -0.244713 1.55689 0
M  V30 9458 C 923.264 -1.30667 1.93516 0
M  V30 9459 C 924.245 -1.50094 0.800371 0
M  V30 9460 O 925.43 -1.62665 1.06083 0
M  V30 9461 C 922.56 -2.66101 2.23176 0
M  V30 9462 C 921.514 -2.61366 3.38927 0
M  V30 9463 C 920.84 -4.00616 3.54134 0
M  V30 9464 C 922.14 -2.18161 4.74555 0
M  V30 9465 H 923.834 -0.992546 2.82469 0
M  V30 9466 H 921.38 -0.476018 1.35905 0
M  V30 9467 H 923.333 -3.4053 2.48228 0
M  V30 9468 H 922.057 -2.99154 1.31051 0
M  V30 9469 H 920.716 -1.89395 3.13887 0
M  V30 9470 H 920.364 -4.30938 2.59426 0
M  V30 9471 H 920.064 -3.98335 4.31975 0
M  V30 9472 H 921.588 -4.76741 3.8151 0
M  V30 9473 H 923.002 -2.82323 4.98965 0
M  V30 9474 H 921.399 -2.26988 5.55515 0
M  V30 9475 H 922.469 -1.13333 4.7147 0
M  V30 9476 N 923.813 -1.49104 -0.510467 0
M  V30 9477 C 924.761 -1.65547 -1.63392 0
M  V30 9478 C 925.755 -0.521522 -1.61172 0
M  V30 9479 O 926.961 -0.700865 -1.65795 0
M  V30 9480 H 923.336 -0.521843 -0.541464 0
M  V30 9481 H 925.307 -2.59864 -1.46673 0
M  V30 9482 C 924.056 -1.73051 -3.01577 0
M  V30 9483 H 923.379 -2.59676 -3.03987 0
M  V30 9484 H 924.819 -1.88594 -3.79748 0
M  V30 9485 C 923.278 -0.47328 -3.33559 0
M  V30 9486 O 923.808 0.405239 -3.99651 0
M  V30 9487 N 922.014 -0.339074 -2.88615 0
M  V30 9488 H 921.561 -1.05497 -2.35007 0
M  V30 9489 H 921.519 0.501061 -3.10382 0
M  V30 9490 N 925.291 0.760815 -1.38019 0
M  V30 9491 C 926.539 1.51673 -1.33566 0
M  V30 9492 C 926.86 1.94852 0.076024 0
M  V30 9493 O 926.13 1.67112 1.02227 0
M  V30 9494 H 924.71 0.562581 -0.491438 0
M  V30 9495 H 927.372 0.904832 -1.72623 0
M  V30 9496 H 926.468 2.41102 -1.98182 0
M  V30 9497 N 926.769 1.22769 0.988202 0
M  V30 9498 C 927.732 1.00325 2.06076 0
M  V30 9499 C 928.732 -0.0320618 1.60768 0
M  V30 9500 O 929.922 0.206912 1.72967 0
M  V30 9501 C 927.054 0.516376 3.36966 0
M  V30 9502 H 928.247 1.95499 2.27421 0
M  V30 9503 H 925.8 1.04704 1.16047 0
M  V30 9504 H 926.535 -0.439498 3.21308 0
M  V30 9505 H 926.32 1.26337 3.71189 0
M  V30 9506 H 927.81 0.37974 4.1587 0
M  V30 9507 N 928.247 -1.18576 1.03814 0
M  V30 9508 C 929.496 -1.87822 0.735235 0
M  V30 9509 C 929.809 -1.81069 -0.739819 0
M  V30 9510 O 931.015 -2.45654 -1.15614 0
M  V30 9511 C 929.471 -3.36941 1.26486 0
M  V30 9512 C 929.079 -3.5223 2.76836 0
M  V30 9513 C 930.823 -4.11604 1.03836 0
M  V30 9514 C 928.73 -4.95294 3.23169 0
M  V30 9515 H 927.66 -0.703487 0.271333 0
M  V30 9516 H 930.311 -1.34 1.25365 0
M  V30 9517 H 928.693 -3.90217 0.674318 0
M  V30 9518 H 929.867 -3.09239 3.41625 0
M  V30 9519 H 928.182 -2.90969 2.97869 0
M  V30 9520 H 930.779 -5.17123 1.3597 0
M  V30 9521 H 931.122 -4.16293 -0.0244945 0
M  V30 9522 H 931.655 -3.64494 1.59338 0
M  V30 9523 H 928.394 -4.95772 4.28824 0
M  V30 9524 H 927.914 -5.3901 2.63113 0
M  V30 9525 H 929.593 -5.63996 3.17045 0
M  V30 9526 N 929.725 -0.817259 -1.34754 0
M  V30 9527 C 930.971 -0.403244 -1.98751 0
M  V30 9528 C 931.304 1.02963 -1.64658 0
M  V30 9529 O 930.579 1.71617 -0.915314 0
M  V30 9530 C 930.862 -0.599188 -3.5508 0
M  V30 9531 C 930.715 -2.07777 -3.98934 0
M  V30 9532 C 932.034 -0.0315656 -4.40089 0
M  V30 9533 H 929.153 -0.147988 -0.721989 0
M  V30 9534 H 931.795 -1.02877 -1.59738 0
M  V30 9535 H 929.945 -0.0667116 -3.88443 0
M  V30 9536 H 931.617 -2.67345 -3.75931 0
M  V30 9537 H 929.86 -2.57031 -3.49453 0
M  V30 9538 H 930.531 -2.16571 -5.07741 0
M  V30 9539 H 933.007 -0.48644 -4.13247 0
M  V30 9540 H 931.883 -0.198507 -5.48541 0
M  V30 9541 H 932.144 1.06302 -4.2913 0
M  V30 9542 N 931.203 1.46865 -0.571711 0
M  V30 9543 C 932.451 2.0203 -0.0530022 0
M  V30 9544 C 932.772 1.44687 1.30731 0
M  V30 9545 O 932.042 0.627429 1.85581 0
M  V30 9546 H 930.622 0.746815 -0.0166035 0
M  V30 9547 H 933.284 1.80099 -0.745003 0
M  V30 9548 H 932.38 3.12091 0.0242538 0
M  V30 9549 N 932.681 0.308908 1.54543 0
M  V30 9550 C 933.614 -0.605854 2.20011 0
M  V30 9551 C 934.592 -1.1269 1.17216 0
M  V30 9552 O 935.776 -1.19363 1.45893 0
M  V30 9553 C 932.903 -1.82977 2.85021 0
M  V30 9554 C 931.949 -1.44126 4.0141 0
M  V30 9555 S 932.782 -0.490445 5.33249 0
M  V30 9556 C 933.938 -1.72198 6.01746 0
M  V30 9557 H 934.171 -0.0496911 2.97258 0
M  V30 9558 H 931.704 0.0930238 1.5412 0
M  V30 9559 H 933.662 -2.53211 3.23102 0
M  V30 9560 H 932.323 -2.35711 2.07604 0
M  V30 9561 H 931.516 -2.35288 4.45708 0
M  V30 9562 H 931.118 -0.818788 3.64927 0
M  V30 9563 H 933.41 -2.66147 6.23034 0
M  V30 9564 H 934.353 -1.32142 6.95661 0
M  V30 9565 H 934.761 -1.90229 5.31482 0
M  V30 9566 N 934.159 -1.57557 0.0367827 0
M  V30 9567 C 935.387 -1.96419 -0.650168 0
M  V30 9568 C 935.802 -0.913656 -1.6522 0
M  V30 9569 O 935.159 0.103718 -1.82205 0
M  V30 9570 C 935.21 -3.35355 -1.3498 0
M  V30 9571 O 934.931 -4.36379 -0.387905 0
M  V30 9572 C 936.432 -3.88892 -2.12786 0
M  V30 9573 H 933.652 -0.646751 -0.178756 0
M  V30 9574 H 936.196 -2.04261 0.0988197 0
M  V30 9575 H 934.351 -3.28708 -2.05012 0
M  V30 9576 H 934.765 -5.16969 -0.885596 0
M  V30 9577 H 936.239 -4.88428 -2.5718 0
M  V30 9578 H 936.716 -3.23547 -2.97008 0
M  V30 9579 H 937.322 -3.98831 -1.47694 0
M  V30 9580 N 935.637 0.236453 -1.55816 0
M  V30 9581 C 936.865 0.980295 -1.82203 0
M  V30 9582 C 937.28 1.7854 -0.613926 0
M  V30 9583 O 936.637 1.77661 0.417491 0
M  V30 9584 C 936.688 1.90982 -3.06933 0
M  V30 9585 O 936.409 1.13728 -4.23081 0
M  V30 9586 C 937.91 2.76879 -3.46198 0
M  V30 9587 H 935.13 0.28799 -0.606055 0
M  V30 9588 H 937.674 0.256182 -2.02889 0
M  V30 9589 H 935.829 2.58808 -2.88266 0
M  V30 9590 H 936.243 1.76694 -4.93842 0
M  V30 9591 H 937.717 3.37831 -4.36548 0
M  V30 9592 H 938.194 3.48522 -2.67262 0
M  V30 9593 H 938.8 2.1449 -3.67252 0
M  V30 9594 N 937.115 1.49373 0.502552 0
M  V30 9595 C 938.362 1.58781 1.25678 0
M  V30 9596 C 938.69 0.273819 1.92563 0
M  V30 9597 O 937.945 -0.738141 1.81246 0
M  V30 9598 C 938.244 2.69508 2.34735 0
M  V30 9599 C 937.91 4.11057 1.85318 0
M  V30 9600 C 936.572 4.49578 1.7156 0
M  V30 9601 C 938.924 4.99653 1.48312 0
M  V30 9602 C 936.252 5.74469 1.19172 0
M  V30 9603 C 938.604 6.2506 0.97377 0
M  V30 9604 C 937.268 6.62412 0.822573 0
M  V30 9605 H 936.538 0.581021 0.459887 0
M  V30 9606 H 939.185 1.83197 0.557767 0
M  V30 9607 H 937.49 2.39057 3.10418 0
M  V30 9608 H 939.187 2.73997 2.92791 0
M  V30 9609 H 935.777 3.80651 1.96985 0
M  V30 9610 H 939.961 4.70549 1.57789 0
M  V30 9611 H 935.217 6.0211 1.06176 0
M  V30 9612 H 939.391 6.93089 0.678233 0
M  V30 9613 H 937.018 7.59069 0.414453 0
M  V30 9614 N 938.594 -0.753485 1.38421 0
M  V30 9615 C 939.842 -1.50962 1.34368 0
M  V30 9616 C 940.163 -1.94889 -0.0656895 0
M  V30 9617 O 939.433 -1.67652 -1.01339 0
M  V30 9618 H 938.013 -0.559967 0.494415 0
M  V30 9619 H 940.675 -0.895665 1.73101 0
M  V30 9620 H 939.771 -2.40048 1.99458 0
M  V30 9621 N 940.072 -1.23292 -0.981677 0
M  V30 9622 C 940.982 -1.02964 -2.10798 0
M  V30 9623 C 941.998 0.0254674 -1.73981 0
M  V30 9624 O 943.174 -0.169706 -2.00684 0
M  V30 9625 C 940.239 -0.621934 -3.41076 0
M  V30 9626 C 939.3 -1.75194 -3.91926 0
M  V30 9627 C 938.533 -1.36359 -5.15986 0
M  V30 9628 O 938.756 -0.247265 -5.69864 0
M  V30 9629 O 937.69 -2.18421 -5.60871 0
M  V30 9630 H 941.516 -1.97354 -2.30836 0
M  V30 9631 H 939.101 -1.01986 -1.09175 0
M  V30 9632 H 940.983 -0.405446 -4.19445 0
M  V30 9633 H 939.658 0.29299 -3.22371 0
M  V30 9634 H 938.565 -2.02305 -3.1468 0
M  V30 9635 H 939.898 -2.64513 -4.15083 0
M  V30 9636 N 941.55 1.18024 -1.04442 0
M  V30 9637 C 942.775 1.92573 -0.770097 0
M  V30 9638 C 943.2 1.75871 0.667169 0
M  V30 9639 O 942.558 1.07136 1.46258 0
M  V30 9640 C 942.606 3.41904 -1.14602 0
M  V30 9641 O 941.71 4.11491 -0.273712 0
M  V30 9642 H 941.051 0.600636 -0.283076 0
M  V30 9643 H 943.581 1.49645 -1.39526 0
M  V30 9644 H 943.591 3.92623 -1.10956 0
M  V30 9645 H 942.266 3.53382 -2.19304 0
M  V30 9646 H 940.843 3.71059 -0.370124 0
M  V30 9647 N 943.028 0.824394 1.34319 0
M  V30 9648 C 943.991 0.252696 2.27803 0
M  V30 9649 C 944.991 -0.570254 1.50349 0
M  V30 9650 O 946.181 -0.386145 1.69866 0
M  V30 9651 C 943.313 -0.645575 3.34731 0
M  V30 9652 H 944.506 1.07742 2.79878 0
M  V30 9653 H 942.059 0.596367 1.44475 0
M  V30 9654 H 942.794 -1.4933 2.87873 0
M  V30 9655 H 942.579 -0.0569478 3.92059 0
M  V30 9656 H 944.069 -1.03933 4.0446 0
M  V30 9657 N 944.506 -1.46559 0.579492 0
M  V30 9658 C 945.917 -1.8608 0.152052 0
M  V30 9659 C 946.268 -1.48346 -1.28405 0
M  V30 9660 O 945.393 -0.89685 -1.9694 0
M  V30 9661 C 945.988 -3.37729 0.269171 0
M  V30 9662 C 944.547 -3.76258 -0.103376 0
M  V30 9663 C 943.694 -2.70584 0.60659 0
M  V30 9664 H 946.645 -1.3776 0.787904 0
M  V30 9665 H 946.666 -3.77116 -0.506339 0
M  V30 9666 H 946.178 -3.65162 1.31448 0
M  V30 9667 H 944.279 -3.54443 -1.14895 0
M  V30 9668 H 944.392 -4.78335 0.270701 0
M  V30 9669 H 942.756 -2.54656 0.0471984 0
M  V30 9670 H 943.539 -3.00856 1.65349 0
M  V30 9671 N 945.984 -0.3171 -1.54377 0
M  V30 9672 C 946.947 0.53905 -2.22771 0
M  V30 9673 C 947.947 1.04865 -1.21901 0
M  V30 9674 O 949.137 0.942108 -1.46526 0
M  V30 9675 C 946.269 1.74804 -2.92671 0
M  V30 9676 H 947.462 -0.0587417 -2.99842 0
M  V30 9677 H 945.015 -0.068107 -1.56152 0
M  V30 9678 H 945.75 2.38524 -2.1972 0
M  V30 9679 H 945.535 1.39011 -3.66631 0
M  V30 9680 H 947.025 2.35592 -3.44799 0
M  V30 9681 N 947.462 1.57535 -0.0451378 0
M  V30 9682 C 948.372 2.14653 0.946646 0
M  V30 9683 C 949.388 1.10279 1.3459 0
M  V30 9684 O 950.564 1.42417 1.42405 0
M  V30 9685 C 947.629 2.67533 2.20515 0
M  V30 9686 C 946.69 3.86682 1.86481 0
M  V30 9687 C 945.923 4.37031 3.06332 0
M  V30 9688 O 946.146 3.86481 4.1951 0
M  V30 9689 O 945.08 5.28691 2.87697 0
M  V30 9690 H 948.906 2.99706 0.49091 0
M  V30 9691 H 946.491 1.48355 0.17641 0
M  V30 9692 H 948.373 3.01542 2.94365 0
M  V30 9693 H 947.048 1.85554 2.65238 0
M  V30 9694 H 945.955 3.57573 1.09966 0
M  V30 9695 H 947.288 4.69873 1.46562 0
M  V30 9696 N 948.94 -0.228186 1.55939 0
M  V30 9697 C 949.87 -1.28607 1.94891 0
M  V30 9698 C 950.851 -1.49236 0.816245 0
M  V30 9699 O 952.036 -1.61531 1.07803 0
M  V30 9700 C 949.166 -2.63719 2.25986 0
M  V30 9701 C 948.12 -2.57757 3.4168 0
M  V30 9702 C 947.446 -3.96837 3.58364 0
M  V30 9703 C 948.746 -2.13116 4.76843 0
M  V30 9704 H 950.44 -0.962531 2.83506 0
M  V30 9705 H 947.986 -0.461577 1.36402 0
M  V30 9706 H 949.939 -3.37878 2.51826 0
M  V30 9707 H 948.663 -2.97747 1.34217 0
M  V30 9708 H 947.322 -1.86055 3.15878 0
M  V30 9709 H 946.97 -4.28162 2.63982 0
M  V30 9710 H 946.67 -3.93731 4.36176 0
M  V30 9711 H 948.194 -4.72668 3.86545 0
M  V30 9712 H 949.608 -2.77015 5.01932 0
M  V30 9713 H 948.005 -2.21083 5.57891 0
M  V30 9714 H 949.075 -1.08326 4.72645 0
M  V30 9715 N 950.418 -1.49637 -0.494624 0
M  V30 9716 C 951.348 -1.69692 -1.60396 0
M  V30 9717 C 952.329 -0.545648 -1.61111 0
M  V30 9718 O 953.514 -0.782202 -1.77751 0
M  V30 9719 C 950.644 -1.76934 -2.9885 0
M  V30 9720 C 949.598 -2.91915 -3.13001 0
M  V30 9721 C 948.924 -2.84276 -4.5287 0
M  V30 9722 C 950.224 -4.32764 -2.92426 0
M  V30 9723 H 951.918 -2.6257 -1.43866 0
M  V30 9724 H 949.464 -1.26355 -0.690679 0
M  V30 9725 H 951.417 -1.8955 -3.76362 0
M  V30 9726 H 950.141 -0.806609 -3.16483 0
M  V30 9727 H 948.8 -2.78911 -2.37916 0
M  V30 9728 H 948.448 -1.85897 -4.67388 0
M  V30 9729 H 948.148 -3.61452 -4.63278 0
M  V30 9730 H 949.672 -2.98909 -5.32434 0
M  V30 9731 H 951.086 -4.46415 -3.59703 0
M  V30 9732 H 949.483 -5.1121 -3.143 0
M  V30 9733 H 950.553 -4.46765 -1.88491 0
M  V30 9734 N 951.896 0.746133 -1.38819 0
M  V30 9735 C 953.143 1.50545 -1.35434 0
M  V30 9736 C 953.471 1.94427 0.0532669 0
M  V30 9737 O 952.726 1.66285 1.03188 0
M  V30 9738 C 953.025 2.76639 -2.26286 0
M  V30 9739 C 952.691 2.51682 -3.74122 0
M  V30 9740 C 951.353 2.44584 -4.14406 0
M  V30 9741 C 953.705 2.30071 -4.67672 0
M  V30 9742 C 951.033 2.13902 -5.46318 0
M  V30 9743 C 953.385 2.00907 -5.99849 0
M  V30 9744 C 952.049 1.92271 -6.39209 0
M  V30 9745 H 951.319 0.550883 -0.49559 0
M  V30 9746 H 953.966 0.857337 -1.71237 0
M  V30 9747 H 952.271 3.46138 -1.83564 0
M  V30 9748 H 953.968 3.34626 -2.20967 0
M  V30 9749 H 950.558 2.5808 -3.42188 0
M  V30 9750 H 954.742 2.34528 -4.3739 0
M  V30 9751 H 949.998 2.0573 -5.75748 0
M  V30 9752 H 954.172 1.83191 -6.71874 0
M  V30 9753 H 951.799 1.68261 -7.41345 0
M  V30 9754 N 953.375 1.23811 0.975125 0
M  V30 9755 C 954.285 1.0408 2.10249 0
M  V30 9756 C 955.301 -0.0162404 1.73992 0
M  V30 9757 O 956.477 0.180346 2.00591 0
M  V30 9758 C 953.542 0.640013 3.40741 0
M  V30 9759 C 952.603 1.7727 3.90991 0
M  V30 9760 C 951.836 1.39094 5.15256 0
M  V30 9761 O 952.059 0.277483 5.69725 0
M  V30 9762 O 950.993 2.21392 5.59704 0
M  V30 9763 H 954.819 1.98575 2.29786 0
M  V30 9764 H 952.404 1.02563 1.08633 0
M  V30 9765 H 954.286 0.427684 4.19224 0
M  V30 9766 H 952.961 -0.27589 3.22522 0
M  V30 9767 H 951.868 2.03971 3.13602 0
M  V30 9768 H 953.201 2.66711 4.13674 0
M  V30 9769 N 954.853 -1.17469 1.05066 0
M  V30 9770 C 955.763 -2.25089 0.661222 0
M  V30 9771 C 956.779 -1.71086 -0.31712 0
M  V30 9772 O 957.955 -2.00685 -0.169534 0
M  V30 9773 C 955.02 -3.46676 0.0406415 0
M  V30 9774 C 954.081 -4.15771 1.06927 0
M  V30 9775 C 953.314 -5.31553 0.478208 0
M  V30 9776 O 953.537 -5.6593 -0.712714 0
M  V30 9777 O 952.471 -5.89574 1.21185 0
M  V30 9778 H 956.297 -2.60685 1.5581 0
M  V30 9779 H 953.882 -1.24744 0.822147 0
M  V30 9780 H 955.764 -4.203 -0.304312 0
M  V30 9781 H 954.439 -3.1288 -0.829909 0
M  V30 9782 H 953.346 -3.44171 1.46619 0
M  V30 9783 H 954.679 -4.53591 1.91092 0
M  V30 9784 N 956.331 -0.831506 -1.3388 0
M  V30 9785 C 957.578 -0.423674 -1.98018 0
M  V30 9786 C 957.906 1.01533 -1.65895 0
M  V30 9787 O 957.161 1.72342 -0.927183 0
M  V30 9788 C 957.46 -0.582733 -3.52617 0
M  V30 9789 C 957.126 -1.98874 -4.04673 0
M  V30 9790 C 955.788 -2.37334 -4.186 0
M  V30 9791 C 958.14 -2.90745 -4.3257 0
M  V30 9792 C 955.468 -3.66984 -4.57755 0
M  V30 9793 C 957.82 -4.19868 -4.73174 0
M  V30 9794 C 956.484 -4.58294 -4.85307 0
M  V30 9795 H 955.754 -0.155033 -0.7246 0
M  V30 9796 H 958.401 -1.05711 -1.59679 0
M  V30 9797 H 956.706 0.134052 -3.91571 0
M  V30 9798 H 958.403 -0.247576 -4.00235 0
M  V30 9799 H 954.993 -1.68001 -3.94301 0
M  V30 9800 H 959.177 -2.62272 -4.2134 0
M  V30 9801 H 954.433 -3.9657 -4.65341 0
M  V30 9802 H 958.607 -4.91138 -4.93717 0
M  V30 9803 H 956.234 -5.58805 -5.15404 0
M  V30 9804 N 957.809 1.4625 -0.587256 0
M  V30 9805 C 959.057 2.01963 -0.0744273 0
M  V30 9806 C 959.378 1.46065 1.29189 0
M  V30 9807 O 958.648 0.647077 1.84905 0
M  V30 9808 H 957.228 0.746597 -0.0245236 0
M  V30 9809 H 959.89 1.79299 -0.764063 0
M  V30 9810 H 958.986 3.12099 -0.00884894 0
M  V30 9811 N 959.287 0.325282 1.54207 0
M  V30 9812 C 960.534 -0.276775 2.006 0
M  V30 9813 C 960.862 -1.52007 1.21343 0
M  V30 9814 O 960.117 -1.93627 0.284104 0
M  V30 9815 C 960.416 -0.654292 3.5136 0
M  V30 9816 C 960.082 0.490023 4.48229 0
M  V30 9817 C 958.744 0.804104 4.74434 0
M  V30 9818 C 961.096 1.2586 5.05775 0
M  V30 9819 C 958.424 1.88945 5.55443 0
M  V30 9820 C 960.776 2.33405 5.87967 0
M  V30 9821 C 959.44 2.65393 6.12473 0
M  V30 9822 H 958.71 -0.101279 0.734046 0
M  V30 9823 H 961.357 0.449416 1.86152 0
M  V30 9824 H 959.662 -1.46093 3.63544 0
M  V30 9825 H 961.359 -1.13171 3.84699 0
M  V30 9826 H 957.949 0.235147 4.27954 0
M  V30 9827 H 962.133 1.02921 4.85511 0
M  V30 9828 H 957.389 2.14174 5.7266 0
M  V30 9829 H 961.563 2.93402 6.31576 0
M  V30 9830 H 959.19 3.49622 6.75032 0
M  V30 9831 N 960.765 -1.57509 0.0534917 0
M  V30 9832 C 961.993 -1.97098 -0.629298 0
M  V30 9833 C 962.408 -0.931128 -1.64242 0
M  V30 9834 O 961.765 0.0843866 -1.82305 0
M  V30 9835 C 961.816 -3.36767 -1.31415 0
M  V30 9836 O 961.537 -4.36766 -0.341599 0
M  V30 9837 C 963.038 -3.91127 -2.08649 0
M  V30 9838 H 960.258 -0.648611 -0.171886 0
M  V30 9839 H 962.802 -2.04145 0.120479 0
M  V30 9840 H 960.957 -3.30863 -2.01515 0
M  V30 9841 H 961.371 -5.1788 -0.830715 0
M  V30 9842 H 962.845 -4.91129 -2.51985 0
M  V30 9843 H 963.322 -3.26679 -2.9356 0
M  V30 9844 H 963.928 -4.00376 -1.43456 0
M  V30 9845 N 962.243 0.219913 -1.56058 0
M  V30 9846 C 963.489 0.945463 -1.79412 0
M  V30 9847 C 963.822 1.83922 -0.62341 0
M  V30 9848 O 963.097 1.90806 0.377256 0
M  V30 9849 C 963.38 1.783 -3.1286 0
M  V30 9850 C 963.233 0.915626 -4.40382 0
M  V30 9851 C 964.552 2.76045 -3.42764 0
M  V30 9852 H 961.671 0.342288 -0.652693 0
M  V30 9853 H 964.313 0.214235 -1.88788 0
M  V30 9854 H 962.463 2.40642 -3.04998 0
M  V30 9855 H 964.135 0.30882 -4.60265 0
M  V30 9856 H 962.378 0.221124 -4.33236 0
M  V30 9857 H 963.049 1.53607 -5.30197 0
M  V30 9858 H 965.525 2.23838 -3.50764 0
M  V30 9859 H 964.401 3.31748 -4.37304 0
M  V30 9860 H 964.662 3.53866 -2.65012 0
M  V30 9861 N 963.721 1.49897 0.486681 0
M  V30 9862 C 964.998 1.50614 1.24799 0
M  V30 9863 C 965.378 0.24193 2.09709 0
M  V30 9864 O 964.726 -0.775237 2.14947 0
M  V30 9865 C 964.936 2.79318 2.09243 0
M  V30 9866 C 966.284 3.29371 2.67955 0
M  V30 9867 O 967.308 2.80533 2.19499 0
M  V30 9868 O 966.167 4.14466 3.56202 0
M  V30 9869 H 963.261 0.603447 0.565491 0
M  V30 9870 H 965.807 1.62174 0.499778 0
M  V30 9871 H 964.579 3.62812 1.46572 0
M  V30 9872 H 964.202 2.70687 2.91229 0
M  V30 9873 N 965.199 -0.738761 1.39212 0
M  V30 9874 C 966.147 -1.8741 1.3777 0
M  V30 9875 C 967.141 -1.67371 0.261375 0
M  V30 9876 O 968.347 -1.74759 0.431209 0
M  V30 9877 H 964.722 -0.616843 0.430126 0
M  V30 9878 H 966.693 -1.85742 2.33543 0
M  V30 9879 C 965.442 -3.25053 1.23433 0
M  V30 9880 H 964.765 -3.41066 2.086 0
M  V30 9881 H 966.205 -4.04696 1.2648 0
M  V30 9882 C 964.664 -3.36851 -0.0575624 0
M  V30 9883 O 965.194 -3.88293 -1.02915 0
M  V30 9884 N 963.4 -2.90355 -0.119364 0
M  V30 9885 H 962.947 -2.48681 0.671976 0
M  V30 9886 H 962.905 -2.98628 -0.983286 0
M  V30 9887 N 966.677 -1.24326 -0.968545 0
M  V30 9888 C 967.923 -1.08406 -1.71394 0
M  V30 9889 C 968.256 0.376353 -1.90518 0
M  V30 9890 O 967.531 1.27816 -1.46606 0
M  V30 9891 C 967.814 -1.82344 -3.1052 0
M  V30 9892 C 967.667 -3.3613 -2.98893 0
M  V30 9893 C 968.986 -1.59545 -4.10163 0
M  V30 9894 H 966.105 -0.395205 -0.622079 0
M  V30 9895 H 968.747 -1.52983 -1.12677 0
M  V30 9896 H 966.897 -1.44452 -3.60646 0
M  V30 9897 H 968.569 -3.83614 -2.56199 0
M  V30 9898 H 966.812 -3.64553 -2.35124 0
M  V30 9899 H 967.483 -3.83064 -3.97449 0
M  V30 9900 H 969.959 -1.92504 -3.68892 0
M  V30 9901 H 968.835 -2.13736 -5.05577 0
M  V30 9902 H 969.096 -0.533503 -4.38869 0
M  V30 9903 N 968.156 1.1691 -1.05688 0
M  V30 9904 C 969.402 1.8757 -0.771071 0
M  V30 9905 C 969.735 1.8113 0.700399 0
M  V30 9906 O 969.01 1.22273 1.5126 0
M  V30 9907 C 969.293 3.37392 -1.25851 0
M  V30 9908 C 969.146 3.52556 -2.79329 0
M  V30 9909 C 970.465 4.31585 -0.861512 0
M  V30 9910 H 967.584 0.681089 -0.281579 0
M  V30 9911 H 970.226 1.37453 -1.31174 0
M  V30 9912 H 968.376 3.80204 -0.798563 0
M  V30 9913 H 970.048 3.18725 -3.33485 0
M  V30 9914 H 968.291 2.94668 -3.1836 0
M  V30 9915 H 968.962 4.57748 -3.08498 0
M  V30 9916 H 971.438 3.96642 -1.25756 0
M  V30 9917 H 970.314 5.34939 -1.23012 0
M  V30 9918 H 970.575 4.4148 0.234089 0
M  V30 9919 N 969.634 0.838594 1.33437 0
M  V30 9920 C 970.597 0.276843 2.27522 0
M  V30 9921 C 971.597 -0.554275 1.50945 0
M  V30 9922 O 972.787 -0.368107 1.70266 0
M  V30 9923 C 969.919 -0.610036 3.35397 0
M  V30 9924 H 971.112 1.10705 2.78719 0
M  V30 9925 H 968.665 0.611657 1.43835 0
M  V30 9926 H 969.4 -1.46269 2.89441 0
M  V30 9927 H 969.185 -0.0153615 3.92097 0
M  V30 9928 H 970.675 -0.996368 4.05539 0
M  V30 9929 N 971.112 -1.45937 0.595003 0
M  V30 9930 C 972.059 -2.30427 -0.131165 0
M  V30 9931 C 973.029 -1.41355 -0.872232 0
M  V30 9932 O 974.214 -1.70296 -0.860467 0
M  V30 9933 C 971.354 -3.26045 -1.13087 0
M  V30 9934 C 970.467 -4.30218 -0.391982 0
M  V30 9935 C 969.602 -5.12953 -1.3803 0
M  V30 9936 C 968.641 -6.08865 -0.628505 0
M  V30 9937 N 967.778 -6.84425 -1.56548 0
M  V30 9938 H 972.618 -2.91992 0.595359 0
M  V30 9939 H 970.155 -1.43895 0.305405 0
M  V30 9940 H 972.113 -3.79937 -1.72348 0
M  V30 9941 H 970.743 -2.66261 -1.82496 0
M  V30 9942 H 969.795 -3.79086 0.315895 0
M  V30 9943 H 971.107 -4.98418 0.195173 0
M  V30 9944 H 970.261 -5.71184 -2.04534 0
M  V30 9945 H 969 -4.44743 -2.00138 0
M  V30 9946 H 968.005 -5.49777 0.0502431 0
M  V30 9947 H 969.23 -6.79099 -0.012641 0
M  V30 9948 H 967.176 -6.18913 -2.17444 0
M  V30 9949 H 967.093 -7.48931 -1.03145 0
M  V30 9950 H 968.361 -7.47204 -2.22049 0
M  V30 9951 N 972.59 -0.333456 -1.54032 0
M  V30 9952 C 973.553 0.515392 -2.2333 0
M  V30 9953 C 974.553 1.03566 -1.23007 0
M  V30 9954 O 975.743 0.926514 -1.47517 0
M  V30 9955 C 972.875 1.7169 -2.94508 0
M  V30 9956 H 974.068 -0.0905407 -2.99763 0
M  V30 9957 H 971.621 -0.0846651 -1.56071 0
M  V30 9958 H 972.356 2.3618 -2.22237 0
M  V30 9959 H 972.141 1.35115 -3.68085 0
M  V30 9960 H 973.631 2.31922 -3.47278 0
M  V30 9961 N 974.068 1.57479 -0.061844 0
M  V30 9962 C 975.015 2.12152 0.908862 0
M  V30 9963 C 975.985 1.03152 1.30188 0
M  V30 9964 O 977.17 1.3076 1.38948 0
M  V30 9965 C 974.31 2.6796 2.17465 0
M  V30 9966 C 973.423 3.91083 1.83517 0
M  V30 9967 C 972.558 4.35169 3.04633 0
M  V30 9968 C 971.597 5.50964 2.66655 0
M  V30 9969 N 970.734 5.90055 3.80499 0
M  V30 9970 H 975.574 2.94797 0.435743 0
M  V30 9971 H 973.111 1.45686 0.203445 0
M  V30 9972 H 975.069 2.98421 2.91548 0
M  V30 9973 H 973.699 1.88096 2.62335 0
M  V30 9974 H 972.751 3.67146 0.995381 0
M  V30 9975 H 974.063 4.75214 1.51569 0
M  V30 9976 H 973.217 4.67239 3.87005 0
M  V30 9977 H 971.956 3.49871 3.39767 0
M  V30 9978 H 970.961 5.18556 1.82703 0
M  V30 9979 H 972.186 6.37986 2.32702 0
M  V30 9980 H 970.132 5.07708 4.15414 0
M  V30 9981 H 970.049 6.68903 3.52285 0
M  V30 9982 H 971.317 6.26744 4.63479 0
M  V30 9983 N 975.546 -0.211634 1.56173 0
M  V30 9984 C 976.456 -1.2831 1.96402 0
M  V30 9985 C 977.472 -1.50731 0.869254 0
M  V30 9986 O 978.648 -1.63669 1.17365 0
M  V30 9987 C 975.713 -2.61084 2.28114 0
M  V30 9988 C 974.774 -2.46879 3.51211 0
M  V30 9989 C 974.007 -3.73321 3.81401 0
M  V30 9990 O 974.23 -4.76773 3.13119 0
M  V30 9991 O 973.164 -3.69839 4.74871 0
M  V30 9992 H 976.99 -0.971733 2.87734 0
M  V30 9993 H 974.575 -0.415305 1.43512 0
M  V30 9994 H 976.457 -3.39481 2.49661 0
M  V30 9995 H 975.132 -2.91881 1.39954 0
M  V30 9996 H 974.039 -1.66648 3.34932 0
M  V30 9997 H 975.372 -2.21018 4.39786 0
M  V30 9998 N 977.024 -1.50153 -0.478725 0
M  V30 9999 C 977.954 -1.71384 -1.58587 0
M  V30 10000 C 978.935 -0.562705 -1.60523 0
M  V30 10001 O 980.12 -0.80101 -1.76911 0
M  V30 10002 C 977.25 -1.80094 -2.96957 0
M  V30 10003 C 976.204 -2.95218 -3.09888 0
M  V30 10004 C 975.53 -2.89063 -4.49829 0
M  V30 10005 C 976.83 -4.35841 -2.8782 0
M  V30 10006 H 978.524 -2.64081 -1.41073 0
M  V30 10007 H 976.07 -1.27081 -0.677239 0
M  V30 10008 H 978.023 -1.93531 -3.74331 0
M  V30 10009 H 976.747 -0.840131 -3.1561 0
M  V30 10010 H 975.406 -2.81419 -2.34944 0
M  V30 10011 H 975.054 -1.90844 -4.6539 0
M  V30 10012 H 974.754 -3.66345 -4.59418 0
M  V30 10013 H 976.278 -3.04539 -5.29234 0
M  V30 10014 H 977.692 -4.50205 -3.54948 0
M  V30 10015 H 976.089 -5.14515 -3.0886 0
M  V30 10016 H 977.159 -4.48739 -1.83742 0
M  V30 10017 N 978.502 0.731368 -1.39602 0
M  V30 10018 C 979.432 1.85855 -1.41351 0
M  V30 10019 C 980.413 1.67839 -0.2764 0
M  V30 10020 O 981.598 1.88104 -0.482747 0
M  V30 10021 C 978.728 3.23644 -1.25983 0
M  V30 10022 C 977.682 3.56304 -2.37132 0
M  V30 10023 C 977.008 4.93069 -2.0685 0
M  V30 10024 C 978.308 3.58906 -3.79452 0
M  V30 10025 H 980.002 1.84648 -2.3568 0
M  V30 10026 H 977.548 0.886955 -1.13442 0
M  V30 10027 H 979.501 4.02176 -1.25826 0
M  V30 10028 H 978.225 3.25387 -0.281234 0
M  V30 10029 H 976.884 2.80104 -2.36511 0
M  V30 10030 H 976.532 4.91396 -1.0742 0
M  V30 10031 H 976.232 5.15888 -2.81306 0
M  V30 10032 H 977.756 5.73953 -2.0835 0
M  V30 10033 H 979.17 4.27508 -3.81982 0
M  V30 10034 H 977.567 3.93246 -4.53297 0
M  V30 10035 H 978.637 2.58631 -4.10168 0
M  V30 10036 O 980.019 1.35899 0.872571 0
M  V30 10037 H 980.71 1.21196 1.511 0
M  V30 END ATOM
M  V30 BEGIN BOND
M  V30 END BOND
M  V30 END CTAB
M  END
$$$$
