drugbank_target|P27449 V-type proton ATPase 16 kDa proteolipid subunit (DB01133)
 OpenBabel12092121233D

  0  0  0     0  0            999 V3000
M  V30 BEGIN CTAB
M  V30 COUNTS 2275 2290 0 0 0
M  V30 BEGIN ATOM
M  V30 1 H -0.908 1.98254 -0.117106 0
M  V30 2 N 0 1.576 0 0
M  V30 3 C 0.933 2.03868 1.02534 0
M  V30 4 C 1.911 0.928543 1.3348 0
M  V30 5 O 3.095 1.19667 1.45644 0
M  V30 6 C 0.222 2.43627 2.35294 0
M  V30 7 C -0.732 3.65373 2.2001 0
M  V30 8 S 0.101 5.13292 1.52614 0
M  V30 9 C 1.257 5.56322 2.86805 0
M  V30 10 H 1.49 2.90518 0.631377 0
M  V30 11 H -0.977 1.52953 0.210867 0
M  V30 12 H 0.981 2.67203 3.11629 0
M  V30 13 H -0.358 1.57376 2.7183 0
M  V30 14 H -1.165 3.90944 3.18086 0
M  V30 15 H -1.563 3.418 1.51819 0
M  V30 16 H 0.729 5.58782 3.83104 0
M  V30 17 H 1.672 6.56266 2.65933 0
M  V30 18 H 2.08 4.83886 2.90714 0
M  V30 19 N 1.4781 -0.272755 1.55222 0
M  V30 20 C 2.7031 -1.02683 1.80197 0
M  V30 21 C 3.1281 -1.79142 0.573551 0
M  V30 22 O 2.4861 -1.74917 -0.476849 0
M  V30 23 C 2.5341 -1.9609 3.02624 0
M  V30 24 O 1.6381 -3.04863 2.77727 0
M  V30 25 H 0.9791 -0.293557 0.595584 0
M  V30 26 H 3.5091 -0.30159 2.02365 0
M  V30 27 H 3.5191 -2.38039 3.31363 0
M  V30 28 H 2.1941 -1.39851 3.91682 0
M  V30 29 H 0.7711 -2.67228 2.60084 0
M  V30 30 N 2.9562 -1.48159 -0.537278 0
M  V30 31 C 3.8662 -1.64807 -1.6696 0
M  V30 32 C 4.8822 -0.530651 -1.65711 0
M  V30 33 O 6.0582 -0.800784 -1.84796 0
M  V30 34 C 3.1232 -1.67708 -3.03438 0
M  V30 35 C 2.1842 -2.91025 -3.156 0
M  V30 36 C 1.4172 -2.93778 -4.45567 0
M  V30 37 O 1.6402 -2.05153 -5.3223 0
M  V30 38 O 0.5742 -3.85868 -4.61941 0
M  V30 39 H 4.4002 -2.6066 -1.55853 0
M  V30 40 H 1.9852 -1.31475 -0.709549 0
M  V30 41 H 3.8672 -1.7218 -3.84619 0
M  V30 42 H 2.5422 -0.750278 -3.14885 0
M  V30 43 H 1.4492 -2.92089 -2.33741 0
M  V30 44 H 2.7822 -3.83065 -3.09066 0
M  V30 45 N 4.4343 0.785586 -1.36625 0
M  V30 46 C 5.6593 1.57963 -1.34397 0
M  V30 47 C 6.0843 1.87964 0.071526 0
M  V30 48 O 5.4423 1.48182 1.0446 0
M  V30 49 C 5.4903 2.87511 -2.17646 0
M  V30 50 O 4.5943 3.81281 -1.57158 0
M  V30 51 H 3.9353 0.479014 -0.459828 0
M  V30 52 H 6.4653 0.973411 -1.79961 0
M  V30 53 H 6.4753 3.36745 -2.30362 0
M  V30 54 H 5.1503 2.65002 -3.20541 0
M  V30 55 H 3.7273 3.39885 -1.53403 0
M  V30 56 N 5.9124 1.20967 1.01018 0
M  V30 57 C 6.8594 0.964281 2.09691 0
M  V30 58 C 7.8294 -0.107853 1.65749 0
M  V30 59 O 9.0144 0.0381987 1.90762 0
M  V30 60 C 6.1544 0.52943 3.41015 0
M  V30 61 C 5.2674 1.67043 3.98398 0
M  V30 62 C 4.4024 1.18525 5.17808 0
M  V30 63 C 3.4414 2.29892 5.67288 0
M  V30 64 N 2.5784 1.82546 6.77954 0
M  V30 65 H 7.4184 1.89463 2.30017 0
M  V30 66 H 4.9554 0.944289 1.1279 0
M  V30 67 H 6.9134 0.258588 4.16398 0
M  V30 68 H 5.5434 -0.363919 3.20742 0
M  V30 69 H 4.5954 2.05603 3.20049 0
M  V30 70 H 5.9074 2.50877 4.31117 0
M  V30 71 H 5.0614 0.870762 6.00419 0
M  V30 72 H 3.8004 0.316887 4.86669 0
M  V30 73 H 2.8054 2.6215 4.83278 0
M  V30 74 H 4.0304 3.17216 6.00459 0
M  V30 75 H 1.9764 0.980454 6.48632 0
M  V30 76 H 1.8934 2.59956 7.09901 0
M  V30 77 H 3.1614 1.54115 7.64113 0
M  V30 78 N 7.3905 -1.2043 1.01659 0
M  V30 79 C 8.6155 -1.94318 0.724942 0
M  V30 80 C 9.0405 -1.74266 -0.708034 0
M  V30 81 O 8.3985 -1.03694 -1.48719 0
M  V30 82 C 8.4465 -3.44486 1.06591 0
M  V30 83 O 7.5505 -4.12017 0.177599 0
M  V30 84 H 6.8915 -0.60708 0.26898 0
M  V30 85 H 9.4215 -1.52861 1.35995 0
M  V30 86 H 9.4315 -3.95106 1.01762 0
M  V30 87 H 8.1065 -3.58404 2.10997 0
M  V30 88 H 6.6835 -3.71821 0.283421 0
M  V30 89 N 8.8686 -0.792821 -1.36206 0
M  V30 90 C 10.1166 -0.366062 -1.98757 0
M  V30 91 C 10.4376 1.0668 -1.63231 0
M  V30 92 O 9.7076 1.73587 -0.907978 0
M  V30 93 H 8.2876 -0.132364 -0.735179 0
M  V30 94 H 10.9496 -1.01562 -1.66347 0
M  V30 95 H 10.0456 -0.460638 -3.08682 0
M  V30 96 N 10.3467 1.47872 -0.545128 0
M  V30 97 C 11.7577 1.86384 -0.108581 0
M  V30 98 C 12.1087 1.45309 1.31832 0
M  V30 99 O 11.2337 0.850641 1.9898 0
M  V30 100 C 11.8287 3.38265 -0.190274 0
M  V30 101 C 10.3877 3.75914 0.191164 0
M  V30 102 C 9.5347 2.71926 -0.543273 0
M  V30 103 H 12.4857 1.39561 -0.755537 0
M  V30 104 H 12.5067 3.75831 0.594217 0
M  V30 105 H 12.0187 3.6813 -1.2289 0
M  V30 106 H 10.1197 3.51665 1.23136 0
M  V30 107 H 10.2327 4.78836 -0.158987 0
M  V30 108 H 8.5967 2.54697 0.0122495 0
M  V30 109 H 9.3797 3.04634 -1.58282 0
M  V30 110 N 11.8248 0.280983 1.55075 0
M  V30 111 C 12.7348 -0.61388 2.26426 0
M  V30 112 C 13.7508 -1.16521 1.29224 0
M  V30 113 O 14.9268 -1.19426 1.62171 0
M  V30 114 C 11.9918 -1.7788 2.9759 0
M  V30 115 C 11.0528 -1.26355 4.10284 0
M  V30 116 C 10.2858 -2.37295 4.78045 0
M  V30 117 O 10.5088 -3.56777 4.45047 0
M  V30 118 O 9.4428 -2.05119 5.65871 0
M  V30 119 H 13.2688 -0.0356932 3.03679 0
M  V30 120 H 10.8538 0.0481686 1.49322 0
M  V30 121 H 12.7358 -2.45791 3.42293 0
M  V30 122 H 11.4108 -2.34397 2.23249 0
M  V30 123 H 10.3178 -0.550735 3.70024 0
M  V30 124 H 11.6508 -0.744065 4.86543 0
M  V30 125 N 13.3029 -1.57598 0.00835791 0
M  V30 126 C 14.5329 -1.94931 -0.684496 0
M  V30 127 C 14.9409 -0.882233 -1.67372 0
M  V30 128 O 14.2839 0.146621 -1.83114 0
M  V30 129 C 14.3459 -3.283 -1.4649 0
M  V30 130 C 14.0099 -4.52548 -0.63634 0
M  V30 131 C 15.0069 -5.19839 0.0795586 0
M  V30 132 C 12.6919 -4.98942 -0.579849 0
M  V30 133 C 14.6859 -6.3183 0.840843 0
M  V30 134 C 12.3729 -6.10819 0.185155 0
M  V30 135 C 13.3709 -6.77121 0.894227 0
M  V30 136 O 13.0589 -7.86853 1.64673 0
M  V30 137 H 12.7909 -0.647249 -0.19505 0
M  V30 138 H 15.3449 -2.05318 0.0581272 0
M  V30 139 H 13.5749 -3.14345 -2.2522 0
M  V30 140 H 15.2639 -3.50685 -2.04389 0
M  V30 141 H 16.0299 -4.84979 0.0451202 0
M  V30 142 H 11.9089 -4.47155 -1.1213 0
M  V30 143 H 15.4529 -6.83513 1.39483 0
M  V30 144 H 11.3499 -6.4512 0.221384 0
M  V30 145 H 12.1179 -8.03412 1.56432 0
M  V30 146 N 14.781 0.264519 -1.55364 0
M  V30 147 C 15.744 1.31046 -1.88042 0
M  V30 148 C 16.744 1.41943 -0.755569 0
M  V30 149 O 17.934 1.40947 -1.02369 0
M  V30 150 C 15.066 2.69067 -2.09323 0
M  V30 151 H 16.259 1.03297 -2.81549 0
M  V30 152 H 13.812 0.502989 -1.47986 0
M  V30 153 H 14.547 3.01982 -1.18226 0
M  V30 154 H 14.332 2.62542 -2.91229 0
M  V30 155 H 15.822 3.44623 -2.35848 0
M  V30 156 N 16.2591 1.48442 0.529413 0
M  V30 157 C 17.4841 1.60406 1.31471 0
M  V30 158 C 17.9091 0.264738 1.86228 0
M  V30 159 O 17.2671 -0.763668 1.64432 0
M  V30 160 C 17.3151 2.65419 2.44101 0
M  V30 161 O 16.4191 2.22618 3.47153 0
M  V30 162 H 15.7601 0.537863 0.389357 0
M  V30 163 H 18.2901 1.94432 0.636965 0
M  V30 164 H 18.3001 2.86709 2.90279 0
M  V30 165 H 16.9751 3.62652 2.03608 0
M  V30 166 H 15.5521 2.11543 3.0709 0
M  V30 167 N 17.7372 -0.778329 1.37039 0
M  V30 168 C 18.9842 -1.53665 1.31884 0
M  V30 169 C 19.3122 -1.9425 -0.0986303 0
M  V30 170 O 18.5672 -1.63832 -1.07041 0
M  V30 171 C 18.8662 -2.81845 2.19768 0
M  V30 172 C 18.5322 -2.60345 3.68146 0
M  V30 173 C 17.1942 -2.5419 4.08584 0
M  V30 174 C 19.5462 -2.40923 4.62175 0
M  V30 175 C 16.8742 -2.26594 5.41177 0
M  V30 176 C 19.2262 -2.14852 5.94997 0
M  V30 177 C 17.8902 -2.07137 6.34547 0
M  V30 178 H 17.1602 -0.562299 0.482598 0
M  V30 179 H 19.8072 -0.897069 1.69189 0
M  V30 180 H 18.1122 -3.50328 1.75436 0
M  V30 181 H 19.8092 -3.39692 2.13097 0
M  V30 182 H 16.3992 -2.65996 3.36072 0
M  V30 183 H 20.5832 -2.44673 4.31797 0
M  V30 184 H 15.8392 -2.19111 5.70789 0
M  V30 185 H 20.0132 -1.98822 6.67415 0
M  V30 186 H 17.6402 -1.85518 7.37216 0
M  V30 187 N 19.2153 -1.21501 -1.00376 0
M  V30 188 C 20.4623 -1.03299 -1.74171 0
M  V30 189 C 20.7903 0.433326 -1.89612 0
M  V30 190 O 20.0453 1.33779 -1.42834 0
M  V30 191 C 20.3443 -1.67673 -3.15627 0
M  V30 192 C 20.0103 -3.17533 -3.2013 0
M  V30 193 C 18.6723 -3.58427 -3.21067 0
M  V30 194 C 21.0243 -4.13504 -3.17275 0
M  V30 195 C 18.3523 -4.93794 -3.16835 0
M  V30 196 C 20.7043 -5.48834 -3.14585 0
M  V30 197 C 19.3683 -5.89123 -3.13831 0
M  V30 198 H 18.6383 -0.377999 -0.637336 0
M  V30 199 H 21.2853 -1.51111 -1.17634 0
M  V30 200 H 19.5903 -1.12158 -3.75404 0
M  V30 201 H 21.2873 -1.51091 -3.71446 0
M  V30 202 H 17.8773 -2.84965 -3.20145 0
M  V30 203 H 22.0613 -3.82936 -3.15711 0
M  V30 204 H 17.3173 -5.24255 -3.1459 0
M  V30 205 H 21.4913 -6.22934 -3.1133 0
M  V30 206 H 19.1183 -6.93984 -3.10307 0
M  V30 207 N 20.6934 1.19889 -1.02296 0
M  V30 208 C 21.6564 2.21116 -0.603351 0
M  V30 209 C 22.6564 1.5738 0.329884 0
M  V30 210 O 23.8464 1.73802 0.117702 0
M  V30 211 C 20.9784 3.40696 0.117992 0
M  V30 212 H 22.1714 2.59754 -1.49893 0
M  V30 213 H 19.7244 1.33463 -0.813468 0
M  V30 214 H 20.4594 3.07569 1.0282 0
M  V30 215 H 20.2444 3.88188 -0.552511 0
M  V30 216 H 21.7344 4.15692 0.398696 0
M  V30 217 N 22.1715 0.800033 1.35784 0
M  V30 218 C 23.4175 0.377901 1.99248 0
M  V30 219 C 23.7505 -1.05052 1.63333 0
M  V30 220 O 23.0255 -1.72768 0.893385 0
M  V30 221 C 23.3085 0.553922 3.55814 0
M  V30 222 C 23.1615 2.0268 4.01548 0
M  V30 223 C 24.4805 -0.0244802 4.40093 0
M  V30 224 H 21.5995 0.138782 0.723815 0
M  V30 225 H 24.2415 1.00835 1.61035 0
M  V30 226 H 22.3915 0.0172398 3.88496 0
M  V30 227 H 24.0635 2.62536 3.79305 0
M  V30 228 H 22.3065 2.5256 3.52698 0
M  V30 229 H 22.9775 2.10087 5.10458 0
M  V30 230 H 25.4535 0.433775 4.13833 0
M  V30 231 H 24.3295 0.128637 5.48749 0
M  V30 232 H 24.5905 -1.11758 4.27741 0
M  V30 233 N 23.6496 -1.47581 0.552962 0
M  V30 234 C 24.5826 -2.26883 -0.244857 0
M  V30 235 C 25.5606 -1.33784 -0.924147 0
M  V30 236 O 26.7446 -1.6316 -0.943981 0
M  V30 237 C 23.8716 -3.10695 -1.34856 0
M  V30 238 C 22.9176 -4.19339 -0.778268 0
M  V30 239 S 23.7506 -5.34207 0.37184 0
M  V30 240 C 24.9066 -6.21584 -0.733779 0
M  V30 241 H 25.1396 -2.94202 0.428087 0
M  V30 242 H 22.6726 -1.50628 0.339197 0
M  V30 243 H 24.6306 -3.59555 -1.98066 0
M  V30 244 H 23.2916 -2.42746 -1.99332 0
M  V30 245 H 22.4846 -4.77695 -1.60696 0
M  V30 246 H 22.0866 -3.73338 -0.222422 0
M  V30 247 H 24.3786 -6.57676 -1.62692 0
M  V30 248 H 25.3216 -7.07851 -0.187668 0
M  V30 249 H 25.7296 -5.55125 -1.02454 0
M  V30 250 N 25.1277 -0.289203 -1.54924 0
M  V30 251 C 26.3757 0.322879 -1.99504 0
M  V30 252 C 26.6967 1.55313 -1.1791 0
M  V30 253 O 25.9667 1.94001 -0.272097 0
M  V30 254 H 24.5467 0.122291 -0.736922 0
M  V30 255 H 27.2087 -0.397802 -1.90797 0
M  V30 256 H 26.3047 0.603061 -3.06218 0
M  V30 257 N 26.6058 1.57591 -0.0167156 0
M  V30 258 C 27.5688 2.08393 0.954204 0
M  V30 259 C 28.5688 0.996531 1.26198 0
M  V30 260 O 29.7588 1.25858 1.20438 0
M  V30 261 C 26.8908 2.5394 2.27436 0
M  V30 262 H 28.0838 2.95455 0.514451 0
M  V30 263 H 25.6368 1.54582 0.231089 0
M  V30 264 H 26.3718 1.70171 2.76066 0
M  V30 265 H 26.1568 3.33371 2.06412 0
M  V30 266 H 27.6468 2.93512 2.97053 0
M  V30 267 N 28.0839 -0.256276 1.55502 0
M  V30 268 C 29.3089 -1.00766 1.81276 0
M  V30 269 C 29.7339 -1.78524 0.59252 0
M  V30 270 O 29.0919 -1.75413 -0.45827 0
M  V30 271 C 29.1399 -1.92869 3.04687 0
M  V30 272 O 28.2439 -3.019 2.80945 0
M  V30 273 H 27.5849 -0.287224 0.598664 0
M  V30 274 H 30.1149 -0.280109 2.02674 0
M  V30 275 H 30.1249 -2.34511 3.33869 0
M  V30 276 H 28.7999 -1.35689 3.93143 0
M  V30 277 H 27.3769 -2.64454 2.62904 0
M  V30 278 N 29.562 -1.4872 -0.521534 0
M  V30 279 C 30.525 -1.63379 -1.60748 0
M  V30 280 C 31.525 -0.50661 -1.52611 0
M  V30 281 O 32.715 -0.772601 -1.5613 0
M  V30 282 C 29.847 -1.61192 -3.00383 0
M  V30 283 H 31.04 -2.60217 -1.49087 0
M  V30 284 H 28.593 -1.37444 -0.744235 0
M  V30 285 H 29.328 -0.65863 -3.17541 0
M  V30 286 H 29.113 -2.43032 -3.07698 0
M  V30 287 H 30.603 -1.7466 -3.7932 0
M  V30 288 N 31.0401 0.771051 -1.3745 0
M  V30 289 C 32.0031 1.86598 -1.33093 0
M  V30 290 C 33.0031 1.59076 -0.234845 0
M  V30 291 O 34.1931 1.67145 -0.490732 0
M  V30 292 C 31.3251 3.23747 -1.06773 0
M  V30 293 H 32.5181 1.91873 -2.30488 0
M  V30 294 H 30.0711 0.970876 -1.2249 0
M  V30 295 H 30.8061 3.24148 -0.099129 0
M  V30 296 H 30.5911 3.45115 -1.86112 0
M  V30 297 H 32.0811 4.03824 -1.06377 0
M  V30 298 N 32.5182 1.22032 0.997298 0
M  V30 299 C 33.4512 0.929735 2.08401 0
M  V30 300 C 34.4292 -0.125681 1.62114 0
M  V30 301 O 35.6132 0.00495409 1.88499 0
M  V30 302 C 32.7402 0.397488 3.3636 0
M  V30 303 C 31.7862 1.4369 4.01566 0
M  V30 304 S 32.6192 3.00874 4.42984 0
M  V30 305 C 33.7752 2.49276 5.74119 0
M  V30 306 H 34.0082 1.84998 2.32729 0
M  V30 307 H 31.5412 1.0509 1.13117 0
M  V30 308 H 33.4992 0.0969846 4.10385 0
M  V30 309 H 32.1602 -0.501571 3.10069 0
M  V30 310 H 31.3532 1.01427 4.93689 0
M  V30 311 H 30.9552 1.68588 3.33847 0
M  V30 312 H 33.2472 1.90242 6.50242 0
M  V30 313 H 34.1902 3.39872 6.21203 0
M  V30 314 H 34.5982 1.90714 5.31308 0
M  V30 315 N 33.9963 -1.19345 1.0293 0
M  V30 316 C 35.2423 -1.89318 0.727083 0
M  V30 317 C 35.5753 -1.79446 -0.742483 0
M  V30 318 O 34.8503 -1.1871 -1.54072 0
M  V30 319 C 35.1333 -3.40238 1.17942 0
M  V30 320 C 34.9863 -3.58979 2.71024 0
M  V30 321 C 36.3053 -4.33479 0.760548 0
M  V30 322 H 33.4243 -0.687475 0.265606 0
M  V30 323 H 36.0663 -1.40477 1.2793 0
M  V30 324 H 34.2163 -3.81964 0.709608 0
M  V30 325 H 35.8883 -3.26421 3.25955 0
M  V30 326 H 34.1313 -3.02018 3.11396 0
M  V30 327 H 34.8023 -4.64823 2.9773 0
M  V30 328 H 37.2783 -3.99469 1.16464 0
M  V30 329 H 36.1543 -5.37664 1.10493 0
M  V30 330 H 36.4153 -4.40813 -0.337063 0
M  V30 331 N 35.4744 -0.807222 -1.35358 0
M  V30 332 C 36.7214 -0.387888 -1.9875 0
M  V30 333 C 37.0494 1.04509 -1.64037 0
M  V30 334 O 36.3044 1.73986 -0.895946 0
M  V30 335 C 36.6034 -0.519036 -3.53611 0
M  V30 336 C 36.2694 -1.91542 -4.08194 0
M  V30 337 C 34.9314 -2.29745 -4.22813 0
M  V30 338 C 37.2834 -2.82896 -4.37744 0
M  V30 339 C 34.6114 -3.58668 -4.643 0
M  V30 340 C 36.9634 -4.11265 -4.8067 0
M  V30 341 C 35.6274 -4.49466 -4.93494 0
M  V30 342 H 34.8974 -0.141938 -0.727279 0
M  V30 343 H 37.5444 -1.02814 -1.6156 0
M  V30 344 H 35.8494 0.204658 -3.91265 0
M  V30 345 H 37.5464 -0.175345 -4.00616 0
M  V30 346 H 34.1364 -1.60862 -3.97268 0
M  V30 347 H 38.3204 -2.54629 -4.26002 0
M  V30 348 H 33.5764 -3.88113 -4.72418 0
M  V30 349 H 37.7504 -4.82153 -5.02496 0
M  V30 350 H 35.3774 -5.49418 -5.25399 0
M  V30 351 N 36.9525 1.47285 -0.560781 0
M  V30 352 C 38.1775 2.07359 -0.0410566 0
M  V30 353 C 38.6025 1.41017 1.24483 0
M  V30 354 O 37.9605 0.486368 1.74654 0
M  V30 355 C 38.0085 3.6035 0.134123 0
M  V30 356 O 37.1125 3.94681 1.19587 0
M  V30 357 H 36.4535 0.661887 -0.0529291 0
M  V30 358 H 38.9835 1.89252 -0.777482 0
M  V30 359 H 38.9935 4.0652 0.347207 0
M  V30 360 H 37.6685 4.08034 -0.805047 0
M  V30 361 H 36.2455 3.60251 0.962987 0
M  V30 362 N 38.4306 0.297415 1.54768 0
M  V30 363 C 39.3936 -0.567375 2.22066 0
M  V30 364 C 40.3936 -1.06409 1.20556 0
M  V30 365 O 41.5836 -0.960691 1.45315 0
M  V30 366 C 38.7156 -1.78517 2.90421 0
M  V30 367 H 39.9086 0.0205534 2.99893 0
M  V30 368 H 37.4616 0.0482163 1.56226 0
M  V30 369 H 38.1966 -2.41303 2.16664 0
M  V30 370 H 37.9816 -1.43669 3.64831 0
M  V30 371 H 39.4716 -2.39964 3.41771 0
M  V30 372 N 39.9087 -1.5758 0.0250728 0
M  V30 373 C 40.8387 -2.13007 -0.956575 0
M  V30 374 C 41.8197 -1.0452 -1.342 0
M  V30 375 O 43.0047 -1.32332 -1.42133 0
M  V30 376 C 40.1347 -2.65386 -2.24026 0
M  V30 377 C 39.0887 -3.78623 -1.99571 0
M  V30 378 C 38.4147 -4.17414 -3.3417 0
M  V30 379 C 39.7147 -5.04867 -1.33814 0
M  V30 380 H 41.4087 -2.9528 -0.494991 0
M  V30 381 H 38.9547 -1.42042 -0.236651 0
M  V30 382 H 40.9077 -3.02794 -2.93076 0
M  V30 383 H 39.6317 -1.80268 -2.72343 0
M  V30 384 H 38.2907 -3.41646 -1.32941 0
M  V30 385 H 37.9387 -3.29284 -3.80238 0
M  V30 386 H 37.6387 -4.93719 -3.18615 0
M  V30 387 H 39.1627 -4.57402 -4.04495 0
M  V30 388 H 40.5767 -5.39888 -1.92857 0
M  V30 389 H 38.9737 -5.86144 -1.28669 0
M  V30 390 H 40.0437 -4.83904 -0.310561 0
M  V30 391 N 41.3868 0.248026 -1.55636 0
M  V30 392 C 42.6348 0.974295 -1.77065 0
M  V30 393 C 42.9558 1.85897 -0.588849 0
M  V30 394 O 42.2258 1.91868 0.395407 0
M  V30 395 H 40.8058 0.362733 -0.653019 0
M  V30 396 H 43.4678 0.266244 -1.93073 0
M  V30 397 H 42.5638 1.59667 -2.68166 0
M  V30 398 N 42.8649 1.48995 0.513639 0
M  V30 399 C 43.8279 1.64229 1.59879 0
M  V30 400 C 44.8279 0.514696 1.5234 0
M  V30 401 O 46.0179 0.78087 1.55718 0
M  V30 402 C 43.1499 1.62783 2.99524 0
M  V30 403 H 44.3429 2.61004 1.47705 0
M  V30 404 H 41.8959 1.37837 0.736936 0
M  V30 405 H 42.6309 0.675461 3.17188 0
M  V30 406 H 42.4159 2.4466 3.06404 0
M  V30 407 H 43.9059 1.76669 3.78388 0
M  V30 408 N 44.343 -0.763751 1.37857 0
M  V30 409 C 45.306 -1.85889 1.34081 0
M  V30 410 C 46.306 -1.58949 0.243277 0
M  V30 411 O 47.496 -1.66882 0.499589 0
M  V30 412 C 44.628 -3.23176 1.08489 0
M  V30 413 H 45.821 -1.90648 2.31502 0
M  V30 414 H 43.374 -0.964367 1.23003 0
M  V30 415 H 44.109 -3.24091 0.116318 0
M  V30 416 H 43.894 -3.44124 1.8794 0
M  V30 417 H 45.384 -4.03254 1.08517 0
M  V30 418 N 45.8211 -1.22559 -0.990812 0
M  V30 419 C 47.0511 -1.07623 -1.76355 0
M  V30 420 C 47.4591 0.37601 -1.85426 0
M  V30 421 O 46.8021 1.27228 -1.32509 0
M  V30 422 C 46.8641 -1.61507 -3.21179 0
M  V30 423 C 46.5281 -3.10146 -3.35646 0
M  V30 424 C 47.5251 -4.07553 -3.22796 0
M  V30 425 C 45.2101 -3.49644 -3.60631 0
M  V30 426 C 47.2041 -5.42442 -3.34716 0
M  V30 427 C 44.8911 -4.84682 -3.72192 0
M  V30 428 C 45.8891 -5.8089 -3.59243 0
M  V30 429 O 45.5771 -7.13476 -3.70415 0
M  V30 430 H 45.3091 -0.377745 -0.560611 0
M  V30 431 H 47.8631 -1.62658 -1.25425 0
M  V30 432 H 46.0931 -1.00881 -3.73309 0
M  V30 433 H 47.7821 -1.42202 -3.80175 0
M  V30 434 H 48.5481 -3.78381 -3.03403 0
M  V30 435 H 44.4271 -2.75282 -3.69785 0
M  V30 436 H 47.9711 -6.17518 -3.24526 0
M  V30 437 H 43.8681 -5.13534 -3.91092 0
M  V30 438 H 44.6361 -7.21083 -3.87275 0
M  V30 439 N 47.2992 1.18797 -1.03562 0
M  V30 440 C 48.5472 1.88278 -0.734569 0
M  V30 441 C 48.8682 1.8043 0.739586 0
M  V30 442 O 48.1382 1.21925 1.53333 0
M  V30 443 H 46.7182 0.696991 -0.268725 0
M  V30 444 H 49.3802 1.44192 -1.31129 0
M  V30 445 H 48.4762 2.94443 -1.03489 0
M  V30 446 N 48.7773 0.814389 1.34928 0
M  V30 447 C 50.0053 0.411136 2.02774 0
M  V30 448 C 50.4203 -0.980316 1.61354 0
M  V30 449 O 49.7773 -1.63299 0.814847 0
M  V30 450 C 49.8283 0.493865 3.58111 0
M  V30 451 O 49.5493 1.83047 3.98027 0
M  V30 452 C 51.0503 0.0844174 4.4322 0
M  V30 453 H 48.2703 0.166037 0.650133 0
M  V30 454 H 50.8143 1.10018 1.72384 0
M  V30 455 H 48.9693 -0.147006 3.87121 0
M  V30 456 H 49.3833 1.79872 4.92693 0
M  V30 457 H 50.8573 0.193404 5.51661 0
M  V30 458 H 51.3343 -0.97113 4.28329 0
M  V30 459 H 51.9403 0.69875 4.19521 0
M  V30 460 N 50.2554 -1.46986 0.568584 0
M  V30 461 C 51.2184 -2.28624 -0.162366 0
M  V30 462 C 52.2184 -1.37596 -0.832103 0
M  V30 463 O 53.4084 -1.60115 -0.68622 0
M  V30 464 C 50.5404 -3.17596 -1.23878 0
M  V30 465 H 51.7334 -2.94722 0.554899 0
M  V30 466 H 49.2864 -1.52863 0.325976 0
M  V30 467 H 50.0214 -2.56214 -1.98808 0
M  V30 468 H 49.8064 -3.846 -0.763219 0
M  V30 469 H 51.2964 -3.79078 -1.75185 0
M  V30 470 N 51.7335 -0.305618 -1.54608 0
M  V30 471 C 52.6805 0.568421 -2.23691 0
M  V30 472 C 53.6505 1.12592 -1.22116 0
M  V30 473 O 54.8355 1.16959 -1.50749 0
M  V30 474 C 51.9755 1.7322 -2.98477 0
M  V30 475 C 51.0885 1.20566 -4.14835 0
M  V30 476 C 50.2235 2.33368 -4.77193 0
M  V30 477 C 49.2625 1.7787 -5.85686 0
M  V30 478 N 48.3995 2.84263 -6.4198 0
M  V30 479 H 53.2395 -0.0272867 -2.97988 0
M  V30 480 H 50.7765 -0.0252363 -1.47078 0
M  V30 481 H 52.7345 2.41675 -3.40072 0
M  V30 482 H 51.3645 2.29947 -2.26548 0
M  V30 483 H 50.4165 0.413223 -3.78149 0
M  V30 484 H 51.7285 0.759417 -4.92985 0
M  V30 485 H 50.8825 3.09761 -5.21664 0
M  V30 486 H 49.6215 2.8132 -3.98385 0
M  V30 487 H 48.6265 0.99968 -5.40635 0
M  V30 488 H 49.8515 1.30816 -6.66381 0
M  V30 489 H 47.7975 3.31541 -5.66053 0
M  V30 490 H 47.7145 2.44149 -7.15491 0
M  V30 491 H 48.9825 3.6054 -6.91109 0
M  V30 492 N 53.2116 1.57565 -0.0334293 0
M  V30 493 C 54.4366 1.96689 0.657895 0
M  V30 494 C 54.8616 0.910057 1.64619 0
M  V30 495 O 54.2196 -0.128598 1.80843 0
M  V30 496 C 54.2676 3.34905 1.33683 0
M  V30 497 O 53.3716 3.31574 2.45219 0
M  V30 498 H 52.7126 0.641205 0.172489 0
M  V30 499 H 55.2426 2.04372 -0.0965621 0
M  V30 500 H 55.2526 3.71234 1.69262 0
M  V30 501 H 53.9276 4.11366 0.612411 0
M  V30 502 H 52.5046 3.06968 2.11719 0
M  V30 503 N 54.6897 -0.239769 1.55765 0
M  V30 504 C 55.9377 -0.964892 1.77579 0
M  V30 505 C 56.2587 -1.85582 0.598699 0
M  V30 506 O 55.5287 -1.92075 -0.385226 0
M  V30 507 H 54.1087 -0.359265 0.654933 0
M  V30 508 H 56.7707 -0.256001 1.93211 0
M  V30 509 H 55.8667 -1.58243 2.69009 0
M  V30 510 N 56.1678 -1.49265 -0.50573 0
M  V30 511 C 57.3958 -1.62215 -1.28429 0
M  V30 512 C 57.8108 -0.291697 -1.86533 0
M  V30 513 O 57.1678 0.722233 -1.67601 0
M  V30 514 C 57.2188 -2.68735 -2.41793 0
M  V30 515 O 56.9398 -3.96619 -1.86078 0
M  V30 516 C 58.4408 -2.92346 -3.3324 0
M  V30 517 H 55.6608 -0.546239 -0.389697 0
M  V30 518 H 58.2048 -1.95265 -0.607609 0
M  V30 519 H 56.3598 -2.38476 -3.053 0
M  V30 520 H 56.7738 -4.55256 -2.60465 0
M  V30 521 H 58.2478 -3.70623 -4.09075 0
M  V30 522 H 58.7248 -2.02081 -3.89948 0
M  V30 523 H 59.3308 -3.24003 -2.75503 0
M  V30 524 N 57.6459 0.756429 -1.3826 0
M  V30 525 C 58.8939 1.51248 -1.34047 0
M  V30 526 C 59.2149 1.94875 0.0698372 0
M  V30 527 O 58.4849 1.67436 1.01696 0
M  V30 528 H 57.0649 0.561018 -0.493222 0
M  V30 529 H 59.7269 0.899347 -1.7291 0
M  V30 530 H 58.8229 2.40472 -1.98947 0
M  V30 531 N 59.124 1.23083 0.984299 0
M  V30 532 C 60.373 1.05466 1.71929 0
M  V30 533 C 60.686 -0.409211 1.91272 0
M  V30 534 O 61.892 -0.705226 2.62181 0
M  V30 535 C 60.348 1.83874 3.09384 0
M  V30 536 C 59.956 3.34566 2.97943 0
M  V30 537 C 61.7 1.74734 3.8687 0
M  V30 538 C 59.607 4.05381 4.30605 0
M  V30 539 H 58.537 0.391039 0.644674 0
M  V30 540 H 61.188 1.47013 1.09815 0
M  V30 541 H 59.57 1.35131 3.72231 0
M  V30 542 H 60.744 3.90767 2.44209 0
M  V30 543 H 59.059 3.44476 2.33934 0
M  V30 544 H 61.656 2.24957 4.85076 0
M  V30 545 H 61.999 0.709372 4.10212 0
M  V30 546 H 62.532 2.21067 3.30717 0
M  V30 547 H 59.271 5.09467 4.1246 0
M  V30 548 H 58.791 3.53967 4.84218 0
M  V30 549 H 60.47 4.11458 4.99311 0
M  V30 550 N 60.6021 -1.18246 1.0419 0
M  V30 551 C 61.5651 -2.20128 0.638452 0
M  V30 552 C 62.5651 -1.57885 -0.304805 0
M  V30 553 O 63.7551 -1.73967 -0.0900369 0
M  V30 554 C 60.8871 -3.4084 -0.0637751 0
M  V30 555 H 62.0801 -2.57336 1.54007 0
M  V30 556 H 59.6331 -1.32152 0.834598 0
M  V30 557 H 60.3681 -3.09166 -0.979136 0
M  V30 558 H 60.1531 -3.8726 0.614198 0
M  V30 559 H 61.6431 -4.16274 -0.332512 0
M  V30 560 N 62.0802 -0.821533 -1.34494 0
M  V30 561 C 63.0432 -0.247847 -2.27856 0
M  V30 562 C 64.0432 0.573453 -1.50227 0
M  V30 563 O 65.2332 0.389759 -1.69784 0
M  V30 564 C 62.3652 0.652698 -3.34593 0
M  V30 565 H 63.5582 -1.07146 -2.80107 0
M  V30 566 H 61.1112 -0.593291 -1.44602 0
M  V30 567 H 61.8462 1.49943 -2.87555 0
M  V30 568 H 61.6312 0.065292 -3.92046 0
M  V30 569 H 63.1212 1.04793 -4.04238 0
M  V30 570 N 63.5583 1.46682 -0.576371 0
M  V30 571 C 64.4913 2.27243 0.208731 0
M  V30 572 C 65.4693 1.35238 0.902746 0
M  V30 573 O 66.6533 1.64641 0.917904 0
M  V30 574 C 63.7803 3.12802 1.29896 0
M  V30 575 C 62.8263 4.20524 0.711457 0
M  V30 576 S 63.6593 5.33548 -0.456781 0
M  V30 577 C 64.8153 6.22673 0.634798 0
M  V30 578 H 65.0483 2.93484 -0.474838 0
M  V30 579 H 62.5813 1.50069 -0.363118 0
M  V30 580 H 64.5393 3.62661 1.92321 0
M  V30 581 H 63.2003 2.45887 1.95444 0
M  V30 582 H 62.3933 4.80191 1.53076 0
M  V30 583 H 61.9953 3.73645 0.162999 0
M  V30 584 H 64.2873 6.60181 1.52209 0
M  V30 585 H 65.2303 7.0806 0.0750311 0
M  V30 586 H 65.6383 5.56684 0.936092 0
M  V30 587 N 65.0364 0.313813 1.54444 0
M  V30 588 C 66.2614 -0.296681 2.05267 0
M  V30 589 C 66.6864 -1.45757 1.18897 0
M  V30 590 O 66.0444 -1.80239 0.195886 0
M  V30 591 C 66.0924 -0.71831 3.53373 0
M  V30 592 O 65.1964 -1.82175 3.69981 0
M  V30 593 H 64.5374 -0.0554061 0.661684 0
M  V30 594 H 67.0674 0.459387 1.99376 0
M  V30 595 H 67.0774 -1.00364 3.95463 0
M  V30 596 H 65.7524 0.130821 4.15694 0
M  V30 597 H 64.3294 -1.53598 3.39797 0
M  V30 598 N 66.5145 -1.57545 0.0417849 0
M  V30 599 C 67.7605 -1.92601 -0.635021 0
M  V30 600 C 68.0935 -0.919627 -1.71045 0
M  V30 601 O 67.3685 0.0557892 -1.9442 0
M  V30 602 C 67.6515 -3.38085 -1.23979 0
M  V30 603 C 67.5045 -4.49467 -0.173057 0
M  V30 604 C 68.8235 -3.83776 -2.15416 0
M  V30 605 H 65.9425 -0.700397 -0.229374 0
M  V30 606 H 68.5845 -1.89728 0.101633 0
M  V30 607 H 66.7345 -3.40664 -1.86762 0
M  V30 608 H 68.4065 -4.59018 0.458312 0
M  V30 609 H 66.6495 -4.30909 0.499996 0
M  V30 610 H 67.3205 -5.48323 -0.636054 0
M  V30 611 H 69.7965 -3.83013 -1.62605 0
M  V30 612 H 68.6725 -4.8624 -2.54679 0
M  V30 613 H 68.9335 -3.19998 -3.05047 0
M  V30 614 N 67.9926 0.231505 -1.5589 0
M  V30 615 C 68.9256 1.31369 -1.86595 0
M  V30 616 C 69.9036 1.45671 -0.722397 0
M  V30 617 O 71.0876 1.61642 -0.969743 0
M  V30 618 C 68.2146 2.68529 -2.06421 0
M  V30 619 C 67.2606 2.71295 -3.29092 0
M  V30 620 S 68.0936 2.26358 -4.85306 0
M  V30 621 C 69.2496 3.65414 -5.08157 0
M  V30 622 H 69.4826 1.05128 -2.78092 0
M  V30 623 H 67.0156 0.433259 -1.48197 0
M  V30 624 H 68.9736 3.47499 -2.18528 0
M  V30 625 H 67.6346 2.91999 -1.15738 0
M  V30 626 H 66.8276 3.72063 -3.39978 0
M  V30 627 H 66.4296 2.0038 -3.15791 0
M  V30 628 H 68.7216 4.6103 -4.96445 0
M  V30 629 H 69.6646 3.5945 -6.10083 0
M  V30 630 H 70.0726 3.5864 -4.35933 0
M  V30 631 N 69.4707 1.49531 0.497807 0
M  V30 632 C 70.8867 1.36365 0.829266 0
M  V30 633 C 71.0867 0.399184 1.97506 0
M  V30 634 O 70.1427 -0.167977 2.51941 0
M  V30 635 C 71.4557 2.77153 1.16647 0
M  V30 636 C 73.0037 2.85877 1.27449 0
M  V30 637 C 73.4787 4.2744 1.64497 0
M  V30 638 N 74.9697 4.30265 1.7154 0
M  V30 639 C 75.7047 5.3677 2.01656 0
M  V30 640 N 75.2007 6.53516 2.29976 0
M  V30 641 N 76.9937 5.24189 2.02934 0
M  V30 642 H 69.1447 2.10831 -0.257703 0
M  V30 643 H 71.4077 0.946534 -0.0527091 0
M  V30 644 H 71.1137 3.49442 0.397872 0
M  V30 645 H 70.9877 3.12722 2.10915 0
M  V30 646 H 73.3747 2.13824 2.0338 0
M  V30 647 H 73.4557 2.53887 0.312244 0
M  V30 648 H 73.0997 5.00021 0.891151 0
M  V30 649 H 73.0297 4.56896 2.61827 0
M  V30 650 H 75.5207 3.4607 1.51802 0
M  V30 651 H 75.8337 7.30506 2.52153 0
M  V30 652 H 74.1787 6.56737 2.27425 0
M  V30 653 H 77.3697 4.31988 1.80289 0
M  V30 654 H 77.5427 6.07286 2.26071 0
M  V30 655 N 70.9488 -0.749086 1.3866 0
M  V30 656 C 72.3598 -1.32664 1.31366 0
M  V30 657 C 72.7108 -1.96179 -0.028484 0
M  V30 658 O 71.8358 -1.9537 -0.93057 0
M  V30 659 C 72.4308 -2.41219 2.37905 0
M  V30 660 C 70.9898 -2.94684 2.34176 0
M  V30 661 C 70.1368 -1.68108 2.20533 0
M  V30 662 H 73.0878 -0.547628 1.48952 0
M  V30 663 H 73.1088 -3.21268 2.0388 0
M  V30 664 H 72.6208 -1.94962 3.35576 0
M  V30 665 H 70.7218 -3.45258 1.401 0
M  V30 666 H 70.8348 -3.48757 3.2849 0
M  V30 667 H 69.1988 -1.91907 1.67463 0
M  V30 668 H 69.9818 -1.23923 3.20153 0
M  V30 669 N 72.4269 -1.23603 -0.977757 0
M  V30 670 C 73.3369 -1.03632 -2.1047 0
M  V30 671 C 74.3529 0.0199435 -1.73989 0
M  V30 672 O 75.5289 -0.176076 -2.00629 0
M  V30 673 C 72.5939 -0.63276 -3.40877 0
M  V30 674 C 71.6549 -1.76437 -3.91367 0
M  V30 675 C 70.8879 -1.37997 -5.15551 0
M  V30 676 O 71.1109 -0.265357 -5.69782 0
M  V30 677 O 70.0449 -2.20201 -5.60174 0
M  V30 678 H 73.8709 -1.98086 -2.30208 0
M  V30 679 H 71.4559 -1.02332 -1.08851 0
M  V30 680 H 73.3379 -0.418761 -4.19314 0
M  V30 681 H 72.0129 0.282754 -3.22463 0
M  V30 682 H 70.9199 -2.03304 -3.14036 0
M  V30 683 H 72.2529 -2.6583 -4.14241 0
M  V30 684 N 73.905 1.17692 -1.04816 0
M  V30 685 C 74.837 2.21103 -0.603822 0
M  V30 686 C 75.85 1.59411 0.33046 0
M  V30 687 O 77.039 1.7807 0.12379 0
M  V30 688 C 74.139 3.38623 0.136898 0
M  V30 689 C 73.312 4.29888 -0.807137 0
M  V30 690 C 72.371 5.26088 -0.10836 0
M  V30 691 O 71.397 5.64353 -0.741232 0
M  V30 692 N 72.599 5.68882 1.15558 0
M  V30 693 H 75.364 2.59848 -1.49329 0
M  V30 694 H 72.925 1.32553 -0.929587 0
M  V30 695 H 74.917 4.00009 0.614401 0
M  V30 696 H 73.487 2.98508 0.927993 0
M  V30 697 H 72.707 3.65993 -1.46434 0
M  V30 698 H 73.995 4.87759 -1.44807 0
M  V30 699 H 73.393 5.39861 1.69015 0
M  V30 700 H 71.95 6.32429 1.57722 0
M  V30 701 N 75.3831 0.828654 1.34056 0
M  V30 702 C 76.6321 0.415828 1.97367 0
M  V30 703 C 76.9451 -1.02796 1.6641 0
M  V30 704 O 78.1511 -1.54497 2.23255 0
M  V30 705 C 76.6071 0.692601 3.53173 0
M  V30 706 C 76.2151 2.15038 3.93017 0
M  V30 707 C 77.9591 0.346222 4.23086 0
M  V30 708 C 75.8661 2.37174 5.41758 0
M  V30 709 H 74.7961 0.151755 0.738571 0
M  V30 710 H 77.4471 1.01581 1.52819 0
M  V30 711 H 75.8291 0.0223764 3.95994 0
M  V30 712 H 77.0031 2.86024 3.61285 0
M  V30 713 H 75.3181 2.45875 3.36057 0
M  V30 714 H 77.9151 0.48937 5.32456 0
M  V30 715 H 78.2581 -0.709842 4.10204 0
M  V30 716 H 78.7911 0.971258 3.85761 0
M  V30 717 H 75.5301 3.41308 5.59633 0
M  V30 718 H 75.0501 1.70738 5.74986 0
M  V30 719 H 76.7291 2.19818 6.08514 0
M  V30 720 N 76.8612 -1.46375 0.584142 0
M  V30 721 C 77.7942 -2.27351 -0.196676 0
M  V30 722 C 78.7722 -1.35715 -0.895561 0
M  V30 723 O 79.9562 -1.65126 -0.90916 0
M  V30 724 C 77.0832 -3.13486 -1.28235 0
M  V30 725 C 76.1292 -4.20896 -0.689145 0
M  V30 726 S 76.9622 -5.33299 0.48507 0
M  V30 727 C 78.1182 -6.23 -0.601767 0
M  V30 728 H 78.3512 -2.93228 0.490395 0
M  V30 729 H 75.8842 -1.49875 0.371071 0
M  V30 730 H 77.8422 -3.63676 -1.90395 0
M  V30 731 H 76.5032 -2.4692 -1.94138 0
M  V30 732 H 75.6962 -4.80997 -1.50527 0
M  V30 733 H 75.2982 -3.73726 -0.143181 0
M  V30 734 H 77.5902 -6.60979 -1.48705 0
M  V30 735 H 78.5332 -7.0809 -0.0374799 0
M  V30 736 H 78.9412 -5.57173 -0.906557 0
M  V30 737 N 78.3393 -0.321999 -1.54275 0
M  V30 738 C 79.2863 0.544664 -2.24281 0
M  V30 739 C 80.2563 1.1129 -1.23303 0
M  V30 740 O 81.4413 1.15354 -1.51981 0
M  V30 741 C 78.5813 1.70045 -3.00298 0
M  V30 742 C 77.6943 1.16159 -4.1609 0
M  V30 743 C 76.8293 2.28293 -4.79641 0
M  V30 744 C 75.8683 1.71648 -5.8754 0
M  V30 745 N 75.0053 2.77438 -6.44959 0
M  V30 746 H 79.8453 -0.0588907 -2.97942 0
M  V30 747 H 77.3823 -0.0408345 -1.47043 0
M  V30 748 H 79.3403 2.38054 -3.42616 0
M  V30 749 H 77.9703 2.27531 -2.28975 0
M  V30 750 H 77.0223 0.373092 -3.78566 0
M  V30 751 H 78.3343 0.707087 -4.93763 0
M  V30 752 H 77.4883 3.0421 -5.2492 0
M  V30 753 H 76.2273 2.77079 -4.01346 0
M  V30 754 H 75.2323 0.942282 -5.41665 0
M  V30 755 H 76.4573 1.23741 -6.67731 0
M  V30 756 H 74.4033 3.25519 -5.69538 0
M  V30 757 H 74.3203 2.36547 -7.1804 0
M  V30 758 H 75.5883 3.53189 -6.94894 0
M  V30 759 N 79.8174 1.5752 -0.0501392 0
M  V30 760 C 81.0424 1.97376 0.636997 0
M  V30 761 C 81.4674 0.927466 1.63645 0
M  V30 762 O 80.8254 -0.10941 1.8097 0
M  V30 763 C 80.8734 3.36304 1.30123 0
M  V30 764 O 79.9774 3.34156 2.41689 0
M  V30 765 H 79.3184 0.642998 0.165679 0
M  V30 766 H 81.8484 2.04258 -0.118233 0
M  V30 767 H 81.8584 3.73008 1.65315 0
M  V30 768 H 80.5334 4.11993 0.568746 0
M  V30 769 H 79.1104 3.09196 2.08451 0
M  V30 770 N 81.2955 -0.223234 1.56011 0
M  V30 771 C 82.5445 -0.945912 1.78144 0
M  V30 772 C 82.8575 -1.85567 0.618396 0
M  V30 773 O 84.0635 -2.61688 0.723318 0
M  V30 774 C 82.5195 -1.73216 3.15475 0
M  V30 775 C 82.1275 -0.868619 4.39499 0
M  V30 776 C 83.8715 -2.44615 3.46935 0
M  V30 777 C 81.7785 -1.65212 5.67855 0
M  V30 778 H 80.7085 -0.356929 0.664167 0
M  V30 779 H 83.3595 -0.199845 1.82409 0
M  V30 780 H 81.7415 -2.52107 3.05382 0
M  V30 781 H 82.9155 -0.120366 4.60643 0
M  V30 782 H 81.2305 -0.26683 4.15544 0
M  V30 783 H 83.8275 -3.03732 4.40058 0
M  V30 784 H 84.1705 -3.17417 2.69355 0
M  V30 785 H 84.7035 -1.72715 3.58349 0
M  V30 786 H 81.4425 -0.967407 6.48322 0
M  V30 787 H 80.9625 -2.37503 5.50774 0
M  V30 788 H 82.6415 -2.21322 6.07968 0
M  V30 789 N 82.7736 -1.49793 -0.48987 0
M  V30 790 C 84.0226 -1.59085 -1.23995 0
M  V30 791 C 84.3356 -0.287907 -1.9347 0
M  V30 792 O 85.5416 -0.259506 -2.70257 0
M  V30 793 C 83.9976 -2.80736 -2.252 0
M  V30 794 C 83.6056 -4.17833 -1.61614 0
M  V30 795 C 85.3496 -2.99364 -3.00967 0
M  V30 796 C 83.2566 -5.30693 -2.60996 0
M  V30 797 H 82.1866 -0.592372 -0.466488 0
M  V30 798 H 84.8376 -1.76197 -0.51252 0
M  V30 799 H 83.2196 -2.57142 -3.01154 0
M  V30 800 H 84.3936 -4.51608 -0.915774 0
M  V30 801 H 82.7086 -4.04656 -0.981977 0
M  V30 802 H 85.3056 -3.80851 -3.75308 0
M  V30 803 H 85.6486 -2.10356 -3.59244 0
M  V30 804 H 86.1816 -3.2305 -2.32128 0
M  V30 805 H 82.9206 -6.21796 -2.07485 0
M  V30 806 H 82.4406 -5.01359 -3.2924 0
M  V30 807 H 84.1196 -5.6049 -3.23202 0
M  V30 808 N 84.2517 0.741722 -1.39055 0
M  V30 809 C 85.6627 1.31966 -1.32068 0
M  V30 810 C 86.0137 1.96192 0.0180797 0
M  V30 811 O 85.1387 1.95861 0.920196 0
M  V30 812 C 85.7337 2.39954 -2.39181 0
M  V30 813 C 84.2927 2.93438 -2.35735 0
M  V30 814 C 83.4397 1.66936 -2.21422 0
M  V30 815 H 86.3907 0.539721 -1.4924 0
M  V30 816 H 86.4117 3.20182 -2.05581 0
M  V30 817 H 85.9237 1.9318 -3.36605 0
M  V30 818 H 84.0247 3.4451 -1.41929 0
M  V30 819 H 84.1377 3.4701 -3.30335 0
M  V30 820 H 82.5017 1.91016 -1.68478 0
M  V30 821 H 83.2847 1.22224 -3.20806 0
M  V30 822 N 85.7298 1.2412 0.971189 0
M  V30 823 C 86.9758 1.08041 1.71625 0
M  V30 824 C 87.3088 -0.380407 1.90438 0
M  V30 825 O 86.5838 -1.28127 1.46334 0
M  V30 826 C 86.8668 1.81682 3.10908 0
M  V30 827 C 86.7198 3.35493 2.99608 0
M  V30 828 C 88.0388 1.58671 4.10501 0
M  V30 829 H 85.1578 0.39388 0.622919 0
M  V30 830 H 87.7998 1.52743 1.13003 0
M  V30 831 H 85.9498 1.43684 3.60953 0
M  V30 832 H 87.6218 3.83068 2.57015 0
M  V30 833 H 85.8648 3.64052 2.35899 0
M  V30 834 H 86.5358 3.82217 3.98264 0
M  V30 835 H 89.0118 1.91719 3.69301 0
M  V30 836 H 87.8878 2.1266 5.06031 0
M  V30 837 H 88.1488 0.524161 4.38982 0
M  V30 838 N 87.2079 -1.17134 1.05439 0
M  V30 839 C 88.4539 -1.87733 0.767077 0
M  V30 840 C 88.7869 -1.8098 -0.704253 0
M  V30 841 O 88.0619 -1.21951 -1.5152 0
M  V30 842 C 88.3449 -3.37659 1.25133 0
M  V30 843 C 88.1979 -3.53149 2.78578 0
M  V30 844 C 89.5169 -4.31768 0.852324 0
M  V30 845 H 86.6359 -0.681687 0.280129 0
M  V30 846 H 89.2779 -1.37732 1.30881 0
M  V30 847 H 87.4279 -3.80373 0.790469 0
M  V30 848 H 89.0999 -3.19434 3.32806 0
M  V30 849 H 87.3429 -2.95345 3.17732 0
M  V30 850 H 88.0139 -4.58403 3.07523 0
M  V30 851 H 90.4899 -3.96909 1.24911 0
M  V30 852 H 89.3659 -5.35199 1.21873 0
M  V30 853 H 89.6269 -4.41429 -0.243485 0
M  V30 854 N 88.686 -0.835752 -1.33615 0
M  V30 855 C 89.619 -0.211815 -2.27215 0
M  V30 856 C 90.597 0.639249 -1.49507 0
M  V30 857 O 91.781 0.600193 -1.78689 0
M  V30 858 C 88.908 0.702893 -3.31326 0
M  V30 859 C 87.954 -0.0723049 -4.26439 0
M  V30 860 S 88.787 -1.42811 -5.16106 0
M  V30 861 C 89.943 -0.518613 -6.23748 0
M  V30 862 H 90.176 -1.00533 -2.79786 0
M  V30 863 H 87.709 -0.632336 -1.40858 0
M  V30 864 H 89.667 1.22505 -3.91794 0
M  V30 865 H 88.328 1.47004 -2.77576 0
M  V30 866 H 87.521 0.62359 -5.00127 0
M  V30 867 H 87.123 -0.525424 -3.70291 0
M  V30 868 H 89.415 0.284778 -6.76901 0
M  V30 869 H 90.358 -1.22556 -6.97413 0
M  V30 870 H 90.766 -0.101344 -5.64409 0
M  V30 871 N 90.1641 1.46063 -0.591896 0
M  V30 872 C 91.1271 2.28854 0.125973 0
M  V30 873 C 92.1271 1.38903 0.810107 0
M  V30 874 O 93.3171 1.61186 0.66066 0
M  V30 875 C 90.4491 3.19526 1.1881 0
M  V30 876 H 91.6421 2.93802 -0.601717 0
M  V30 877 H 89.1951 1.52325 -0.350254 0
M  V30 878 H 89.9301 2.59345 1.94707 0
M  V30 879 H 89.7151 3.85766 0.701936 0
M  V30 880 H 91.2051 3.81817 1.69132 0
M  V30 881 N 91.6422 0.330177 1.54103 0
M  V30 882 C 92.8902 -0.269871 2.0029 0
M  V30 883 C 93.2112 -1.52133 1.21986 0
M  V30 884 O 92.4812 -1.93212 0.323438 0
M  V30 885 H 91.0612 -0.10271 0.739905 0
M  V30 886 H 93.7232 0.448249 1.89675 0
M  V30 887 H 92.8192 -0.52166 3.07709 0
M  V30 888 N 93.1203 -1.57491 0.0584922 0
M  V30 889 C 94.3693 -1.92155 -0.613146 0
M  V30 890 C 94.6823 -0.939334 -1.71569 0
M  V30 891 O 95.8883 -1.17829 -2.44599 0
M  V30 892 C 94.3443 -3.41303 -1.14195 0
M  V30 893 C 93.9523 -4.47944 -0.0711265 0
M  V30 894 C 95.6963 -3.84988 -1.78841 0
M  V30 895 C 93.6033 -5.88212 -0.613225 0
M  V30 896 H 92.5333 -0.717162 -0.232796 0
M  V30 897 H 95.1843 -1.83049 0.12857 0
M  V30 898 H 93.5663 -3.45437 -1.93621 0
M  V30 899 H 94.7403 -4.55408 0.702836 0
M  V30 900 H 93.0553 -4.13644 0.478313 0
M  V30 901 H 95.6523 -4.87159 -2.20408 0
M  V30 902 H 95.9953 -3.21632 -2.64308 0
M  V30 903 H 96.5283 -3.83401 -1.06059 0
M  V30 904 H 93.2673 -6.55183 0.203978 0
M  V30 905 H 92.7873 -5.84294 -1.35501 0
M  V30 906 H 94.4663 -6.37687 -1.09383 0
M  V30 907 N 94.5984 0.214957 -1.56127 0
M  V30 908 C 95.8474 0.936451 -1.78643 0
M  V30 909 C 96.1604 1.85237 -0.628229 0
M  V30 910 O 97.3664 2.613 -0.737186 0
M  V30 911 C 95.8224 1.7154 -3.16389 0
M  V30 912 C 95.4304 0.845299 -4.39953 0
M  V30 913 C 97.1744 2.42772 -3.48227 0
M  V30 914 C 95.0814 1.62198 -5.68723 0
M  V30 915 H 94.0114 0.353401 -0.666051 0
M  V30 916 H 96.6624 0.190169 -1.82512 0
M  V30 917 H 95.0444 2.50484 -3.06715 0
M  V30 918 H 96.2184 0.0959353 -4.607 0
M  V30 919 H 94.5334 0.244789 -4.1568 0
M  V30 920 H 97.1304 3.01394 -4.41663 0
M  V30 921 H 97.4734 3.15984 -2.71035 0
M  V30 922 H 98.0064 1.70813 -3.5926 0
M  V30 923 H 94.7454 0.933011 -6.48826 0
M  V30 924 H 94.2654 2.34579 -5.52026 0
M  V30 925 H 95.9444 2.18095 -6.09133 0
M  V30 926 N 96.0765 1.50051 0.48192 0
M  V30 927 C 97.0395 1.67584 1.5636 0
M  V30 928 C 98.0395 0.546894 1.51214 0
M  V30 929 O 99.2295 0.813725 1.54026 0
M  V30 930 C 96.3615 1.691 2.96003 0
M  V30 931 H 97.5545 2.64078 1.42136 0
M  V30 932 H 95.1075 1.39369 0.707533 0
M  V30 933 H 95.8425 0.742589 3.15684 0
M  V30 934 H 95.6275 2.51105 3.01146 0
M  V30 935 H 97.1175 1.84656 3.74556 0
M  V30 936 N 97.5546 -0.734337 1.39446 0
M  V30 937 C 98.8036 -1.48937 1.36017 0
M  V30 938 C 99.1166 -1.95557 -0.0409005 0
M  V30 939 O 100.323 -2.70779 -0.19778 0
M  V30 940 C 98.7786 -2.69125 2.38955 0
M  V30 941 C 98.3866 -2.29452 3.8478 0
M  V30 942 C 100.131 -3.46944 2.44603 0
M  V30 943 C 98.0376 -3.46366 4.79358 0
M  V30 944 H 96.9676 -0.559296 0.505672 0
M  V30 945 H 99.6186 -0.800983 1.65095 0
M  V30 946 H 98.0006 -3.40041 2.02948 0
M  V30 947 H 99.1746 -1.66077 4.29831 0
M  V30 948 H 97.4896 -1.64723 3.82433 0
M  V30 949 H 100.087 -4.33907 3.12456 0
M  V30 950 H 100.43 -3.89454 1.47076 0
M  V30 951 H 100.963 -2.83056 2.79507 0
M  V30 952 H 97.7016 -3.08905 5.78151 0
M  V30 953 H 97.2216 -4.08719 4.38986 0
M  V30 954 H 98.9006 -4.12691 4.98292 0
M  V30 955 N 99.0327 -1.24633 -0.964593 0
M  V30 956 C 100.263 -1.11339 -1.74032 0
M  V30 957 C 100.671 0.336593 -1.86182 0
M  V30 958 O 100.014 1.24389 -1.35178 0
M  V30 959 C 100.076 -1.68284 -3.1768 0
M  V30 960 C 99.7397 -3.17196 -3.28992 0
M  V30 961 C 100.737 -4.14308 -3.14078 0
M  V30 962 C 98.4217 -3.57215 -3.53133 0
M  V30 963 C 100.416 -5.4942 -3.23135 0
M  V30 964 C 98.1027 -4.92468 -3.61827 0
M  V30 965 C 99.1007 -5.8838 -3.46841 0
M  V30 966 O 98.7887 -7.21173 -3.55197 0
M  V30 967 H 98.5207 -0.389551 -0.552472 0
M  V30 968 H 101.075 -1.65282 -1.21946 0
M  V30 969 H 99.3047 -1.08777 -3.71085 0
M  V30 970 H 100.994 -1.50234 -3.77074 0
M  V30 971 H 101.76 -3.84731 -2.95308 0
M  V30 972 H 97.6387 -2.83063 -3.63863 0
M  V30 973 H 101.183 -6.24263 -3.11355 0
M  V30 974 H 97.0797 -5.21714 -3.80111 0
M  V30 975 H 97.8477 -7.29135 -3.71892 0
M  V30 976 N 100.511 1.16574 -1.06058 0
M  V30 977 C 101.759 1.86677 -0.77434 0
M  V30 978 C 102.08 1.81959 0.701147 0
M  V30 979 O 101.35 1.2515 1.50713 0
M  V30 980 H 99.9298 0.691134 -0.283449 0
M  V30 981 H 102.592 1.41378 -1.34158 0
M  V30 982 H 101.688 2.92181 -1.09711 0
M  V30 983 N 101.989 0.842826 1.3317 0
M  V30 984 C 102.919 0.294028 2.31641 0
M  V30 985 C 103.9 -0.600401 1.59151 0
M  V30 986 O 105.085 -0.523124 1.87022 0
M  V30 987 C 102.215 -0.528416 3.43257 0
M  V30 988 C 101.169 0.27056 4.27144 0
M  V30 989 C 100.495 -0.675881 5.30411 0
M  V30 990 C 101.795 1.48981 5.00602 0
M  V30 991 H 103.489 1.11681 2.77791 0
M  V30 992 H 101.035 0.538478 1.33553 0
M  V30 993 H 102.988 -0.922674 4.11175 0
M  V30 994 H 101.712 -1.38445 2.95805 0
M  V30 995 H 100.371 0.646427 3.60856 0
M  V30 996 H 100.019 -1.52842 4.79216 0
M  V30 997 H 99.7189 -0.145374 5.8742 0
M  V30 998 H 101.243 -1.06757 6.01195 0
M  V30 999 H 102.657 1.16849 5.61266 0
M  V30 1000 H 101.054 1.95739 5.6728 0
M  V30 1001 H 102.124 2.25746 4.29147 0
M  V30 1002 N 103.467 -1.45747 0.599634 0
M  V30 1003 C 104.713 -2.02592 0.0918643 0
M  V30 1004 C 105.046 -1.46806 -1.27128 0
M  V30 1005 O 104.321 -0.639658 -1.83681 0
M  V30 1006 C 104.604 -3.60073 0.0443398 0
M  V30 1007 C 104.457 -4.26208 1.43759 0
M  V30 1008 C 105.776 -4.35309 -0.647608 0
M  V30 1009 H 102.895 -0.736175 0.034857 0
M  V30 1010 H 105.537 -1.73694 0.770081 0
M  V30 1011 H 103.687 -3.84823 -0.533224 0
M  V30 1012 H 105.359 -4.12668 2.06162 0
M  V30 1013 H 103.602 -3.84916 2.00056 0
M  V30 1014 H 104.273 -5.35069 1.35665 0
M  V30 1015 H 106.749 -4.15805 -0.156776 0
M  V30 1016 H 105.625 -5.45038 -0.649942 0
M  V30 1017 H 105.886 -4.07598 -1.71219 0
M  V30 1018 N 104.945 -0.338344 -1.53925 0
M  V30 1019 C 106.191 0.260143 -2.01125 0
M  V30 1020 C 106.524 1.50617 -1.22589 0
M  V30 1021 O 105.799 1.91979 -0.312113 0
M  V30 1022 C 106.082 0.579499 -3.55407 0
M  V30 1023 C 105.935 -0.678264 -4.44657 0
M  V30 1024 C 107.254 1.39122 -4.17532 0
M  V30 1025 H 104.373 0.0930772 -0.731099 0
M  V30 1026 H 107.015 -0.457852 -1.84401 0
M  V30 1027 H 105.165 1.19118 -3.69788 0
M  V30 1028 H 106.837 -1.31631 -4.42121 0
M  V30 1029 H 105.08 -1.3042 -4.13731 0
M  V30 1030 H 105.751 -0.410143 -5.50474 0
M  V30 1031 H 108.227 0.874035 -4.06817 0
M  V30 1032 H 107.103 1.58342 -5.25565 0
M  V30 1033 H 107.364 2.39178 -3.71815 0
M  V30 1034 N 106.423 1.57458 -0.0668435 0
M  V30 1035 C 107.386 2.11323 0.887422 0
M  V30 1036 C 108.386 1.03618 1.22964 0
M  V30 1037 O 109.576 1.29626 1.16373 0
M  V30 1038 C 106.708 2.61048 2.19242 0
M  V30 1039 H 107.901 2.96942 0.420194 0
M  V30 1040 H 105.454 1.55239 0.181793 0
M  V30 1041 H 106.189 1.78868 2.70512 0
M  V30 1042 H 105.974 3.39769 1.95702 0
M  V30 1043 H 107.464 3.02814 2.87565 0
M  V30 1044 N 107.901 -0.206675 1.56239 0
M  V30 1045 C 109.147 -0.930218 1.80208 0
M  V30 1046 C 109.48 -1.83387 0.638981 0
M  V30 1047 O 108.755 -1.91119 -0.361066 0
M  V30 1048 C 109.038 -1.75641 3.1436 0
M  V30 1049 C 108.891 -0.878257 4.41142 0
M  V30 1050 C 110.21 -2.73129 3.45092 0
M  V30 1051 H 107.329 -0.336742 0.655571 0
M  V30 1052 H 109.971 -0.198222 1.88963 0
M  V30 1053 H 108.121 -2.38048 3.07027 0
M  V30 1054 H 109.793 -0.269787 4.6051 0
M  V30 1055 H 108.036 -0.184385 4.33408 0
M  V30 1056 H 108.707 -1.49106 5.3148 0
M  V30 1057 H 111.183 -2.20856 3.52649 0
M  V30 1058 H 110.059 -3.28028 4.40101 0
M  V30 1059 H 110.32 -3.51606 2.68003 0
M  V30 1060 N 109.379 -1.50304 -0.473955 0
M  V30 1061 C 110.309 -1.71886 -1.58042 0
M  V30 1062 C 111.29 -0.567799 -1.60344 0
M  V30 1063 O 112.475 -0.806623 -1.76656 0
M  V30 1064 C 109.605 -1.81036 -2.96384 0
M  V30 1065 C 108.559 -2.962 -3.08949 0
M  V30 1066 C 107.885 -2.9049 -4.48909 0
M  V30 1067 C 109.185 -4.36752 -2.86434 0
M  V30 1068 H 110.879 -2.64527 -1.40234 0
M  V30 1069 H 108.425 -1.27295 -0.673201 0
M  V30 1070 H 110.378 -1.94719 -3.73714 0
M  V30 1071 H 109.102 -0.850147 -3.15341 0
M  V30 1072 H 107.761 -2.82164 -2.3405 0
M  V30 1073 H 107.409 -1.92321 -4.64781 0
M  V30 1074 H 107.109 -3.67802 -4.58253 0
M  V30 1075 H 108.633 -3.06218 -5.28264 0
M  V30 1076 H 110.047 -4.5133 -3.53517 0
M  V30 1077 H 108.444 -5.15493 -3.07225 0
M  V30 1078 H 109.514 -4.49321 -1.82316 0
M  V30 1079 N 110.857 0.726932 -1.39834 0
M  V30 1080 C 112.106 1.48214 -1.36805 0
M  V30 1081 C 112.419 1.95576 0.0305291 0
M  V30 1082 O 113.625 2.7088 0.183417 0
M  V30 1083 C 112.081 2.67854 -2.40379 0
M  V30 1084 C 111.689 2.27408 -3.85992 0
M  V30 1085 C 113.433 3.45641 -2.46439 0
M  V30 1086 C 111.34 3.43819 -4.81189 0
M  V30 1087 H 110.27 0.556606 -0.508631 0
M  V30 1088 H 112.921 0.792216 -1.65518 0
M  V30 1089 H 111.303 3.3896 -2.04749 0
M  V30 1090 H 112.477 1.63795 -4.30706 0
M  V30 1091 H 110.792 1.62692 -3.83302 0
M  V30 1092 H 113.389 4.32244 -3.14753 0
M  V30 1093 H 113.732 3.88669 -1.49139 0
M  V30 1094 H 114.265 2.8157 -2.81004 0
M  V30 1095 H 111.004 3.05834 -5.79781 0
M  V30 1096 H 110.524 4.06385 -4.41148 0
M  V30 1097 H 112.203 4.10043 -5.00474 0
M  V30 1098 N 112.336 1.25143 0.95797 0
M  V30 1099 C 113.299 1.05321 2.03569 0
M  V30 1100 C 114.299 0.007152 1.60798 0
M  V30 1101 O 115.489 0.24903 1.72411 0
M  V30 1102 C 112.621 0.598394 3.35607 0
M  V30 1103 H 113.814 2.00986 2.22586 0
M  V30 1104 H 111.367 1.07502 1.13459 0
M  V30 1105 H 112.102 -0.361014 3.22284 0
M  V30 1106 H 111.887 1.35351 3.67998 0
M  V30 1107 H 113.377 0.48104 4.1482 0
M  V30 1108 N 113.814 -1.1601 1.06675 0
M  V30 1109 C 114.762 -2.22586 0.675157 0
M  V30 1110 C 115.756 -1.66525 -0.310766 0
M  V30 1111 O 116.962 -1.79145 -0.175215 0
M  V30 1112 H 113.337 -0.724855 0.200223 0
M  V30 1113 H 115.308 -2.52899 1.58381 0
M  V30 1114 C 114.057 -3.47604 0.0817162 0
M  V30 1115 H 113.38 -3.91058 0.831484 0
M  V30 1116 H 114.82 -4.23718 -0.154708 0
M  V30 1117 C 113.279 -3.15718 -1.17576 0
M  V30 1118 O 113.809 -3.31878 -2.26318 0
M  V30 1119 N 112.015 -2.69816 -1.07923 0
M  V30 1120 H 111.562 -2.56866 -0.194293 0
M  V30 1121 H 111.52 -2.48855 -1.92141 0
M  V30 1122 N 115.292 -0.849877 -1.32721 0
M  V30 1123 C 116.517 -0.463856 -2.02146 0
M  V30 1124 C 116.942 0.930449 -1.63476 0
M  V30 1125 O 116.3 1.61033 -0.832952 0
M  V30 1126 C 116.348 -0.604955 -3.55489 0
M  V30 1127 O 115.452 0.36425 -4.10788 0
M  V30 1128 H 114.793 -0.187046 -0.637111 0
M  V30 1129 H 117.323 -1.14775 -1.69375 0
M  V30 1130 H 117.333 -0.490696 -4.05038 0
M  V30 1131 H 116.008 -1.62174 -3.82978 0
M  V30 1132 H 114.585 0.206628 -3.72327 0
M  V30 1133 N 116.77 1.45427 -0.607355 0
M  V30 1134 C 117.7 2.3329 0.0989352 0
M  V30 1135 C 118.681 1.46816 0.859007 0
M  V30 1136 O 119.866 1.75588 0.829604 0
M  V30 1137 C 116.996 3.29518 1.09705 0
M  V30 1138 C 115.95 4.25626 0.450206 0
M  V30 1139 C 115.276 5.11542 1.55655 0
M  V30 1140 C 116.576 5.18505 -0.628455 0
M  V30 1141 H 118.27 2.92595 -0.634716 0
M  V30 1142 H 115.816 1.40696 -0.306681 0
M  V30 1143 H 117.769 3.89855 1.59971 0
M  V30 1144 H 116.493 2.68372 1.86129 0
M  V30 1145 H 115.152 3.66586 -0.0315886 0
M  V30 1146 H 114.8 4.46765 2.31107 0
M  V30 1147 H 114.5 5.76647 1.12925 0
M  V30 1148 H 116.024 5.74748 2.06148 0
M  V30 1149 H 117.438 5.72916 -0.209877 0
M  V30 1150 H 115.835 5.92085 -0.977489 0
M  V30 1151 H 116.905 4.60948 -1.50514 0
M  V30 1152 N 118.248 0.346503 1.53744 0
M  V30 1153 C 119.196 -0.52422 2.26616 0
M  V30 1154 C 120.19 -1.09948 1.28871 0
M  V30 1155 O 121.396 -1.04488 1.46568 0
M  V30 1156 H 117.771 -0.187743 0.728187 0
M  V30 1157 H 119.742 0.11239 2.98188 0
M  V30 1158 C 118.491 -1.66186 3.05414 0
M  V30 1159 H 117.814 -1.22848 3.80458 0
M  V30 1160 H 119.254 -2.24622 3.59612 0
M  V30 1161 C 117.713 -2.59302 2.1509 0
M  V30 1162 O 118.243 -3.61628 1.74895 0
M  V30 1163 N 116.449 -2.28055 1.8011 0
M  V30 1164 H 115.996 -1.44883 2.12994 0
M  V30 1165 H 115.954 -2.90615 1.19958 0
M  V30 1166 N 119.726 -1.57421 0.075193 0
M  V30 1167 C 121.003 -1.85029 -0.634329 0
M  V30 1168 C 121.383 -0.968305 -1.87582 0
M  V30 1169 O 120.731 -0.0354749 -2.28472 0
M  V30 1170 C 120.941 -3.35286 -0.968742 0
M  V30 1171 C 122.289 -4.02875 -1.34077 0
M  V30 1172 O 123.313 -3.40051 -1.06037 0
M  V30 1173 O 122.172 -5.13691 -1.86506 0
M  V30 1174 H 119.266 -0.7645 -0.315387 0
M  V30 1175 H 121.812 -1.69366 0.106382 0
M  V30 1176 H 120.584 -3.91203 -0.0871376 0
M  V30 1177 H 120.207 -3.56223 -1.7661 0
M  V30 1178 N 121.204 0.198386 -1.56346 0
M  V30 1179 C 122.481 0.944982 -1.71258 0
M  V30 1180 C 122.861 2.0151 -0.629048 0
M  V30 1181 O 122.209 2.25639 0.360473 0
M  V30 1182 C 122.419 1.5344 -3.1346 0
M  V30 1183 C 123.767 2.01778 -3.73591 0
M  V30 1184 O 124.791 1.63288 -3.16568 0
M  V30 1185 O 123.65 2.72594 -4.73661 0
M  V30 1186 H 120.744 0.442939 -0.69838 0
M  V30 1187 H 123.29 0.188342 -1.68652 0
M  V30 1188 H 122.062 0.762869 -3.83792 0
M  V30 1189 H 121.685 2.35596 -3.20282 0
M  V30 1190 N 122.682 1.50554 0.465978 0
M  V30 1191 C 123.931 1.61038 1.21448 0
M  V30 1192 C 124.244 0.31865 1.92987 0
M  V30 1193 O 125.45 0.302469 2.6981 0
M  V30 1194 C 123.906 2.84283 2.20706 0
M  V30 1195 C 123.514 4.20352 1.54946 0
M  V30 1196 C 125.258 3.04115 2.96166 0
M  V30 1197 C 123.165 5.34778 2.5252 0
M  V30 1198 H 122.095 0.599718 0.457005 0
M  V30 1199 H 124.746 1.7699 0.484424 0
M  V30 1200 H 123.128 2.61901 2.97025 0
M  V30 1201 H 124.302 4.53008 0.843811 0
M  V30 1202 H 122.617 4.06167 0.917475 0
M  V30 1203 H 125.214 3.86774 3.69202 0
M  V30 1204 H 125.557 2.16045 3.55852 0
M  V30 1205 H 126.09 3.26702 2.26959 0
M  V30 1206 H 122.829 6.25018 1.97566 0
M  V30 1207 H 122.349 5.06534 3.21222 0
M  V30 1208 H 124.028 5.65561 3.14245 0
M  V30 1209 N 124.16 -0.719506 1.40217 0
M  V30 1210 C 125.385 -1.51371 1.4178 0
M  V30 1211 C 125.81 -1.88091 0.0182355 0
M  V30 1212 O 125.168 -1.52997 -0.972707 0
M  V30 1213 C 125.216 -2.768 2.31115 0
M  V30 1214 O 124.32 -3.73349 1.7517 0
M  V30 1215 H 123.661 -0.456529 0.482159 0
M  V30 1216 H 126.191 -0.88644 1.844 0
M  V30 1217 H 126.201 -3.25371 2.46167 0
M  V30 1218 H 124.876 -2.49407 3.3282 0
M  V30 1219 H 123.453 -3.32179 1.69444 0
M  V30 1220 N 125.638 -1.25649 -0.95132 0
M  V30 1221 C 126.568 -1.08808 -2.06599 0
M  V30 1222 C 127.549 0.00382547 -1.701 0
M  V30 1223 O 128.734 -0.166325 -1.93486 0
M  V30 1224 C 125.864 -0.709542 -3.39975 0
M  V30 1225 C 124.818 -1.75206 -3.90496 0
M  V30 1226 C 124.144 -1.22811 -5.20405 0
M  V30 1227 C 125.444 -3.15153 -4.16504 0
M  V30 1228 H 127.138 -2.02048 -2.20946 0
M  V30 1229 H 124.684 -0.972835 -1.06169 0
M  V30 1230 H 126.637 -0.578649 -4.17408 0
M  V30 1231 H 125.361 0.258556 -3.25575 0
M  V30 1232 H 124.02 -1.87145 -3.15234 0
M  V30 1233 H 123.668 -0.250145 -5.02378 0
M  V30 1234 H 123.368 -1.92492 -5.55176 0
M  V30 1235 H 124.892 -1.10968 -6.00432 0
M  V30 1236 H 126.306 -3.06349 -4.84586 0
M  V30 1237 H 124.703 -3.82333 -4.62538 0
M  V30 1238 H 125.773 -3.61966 -3.22658 0
M  V30 1239 N 127.117 1.15442 -1.07289 0
M  V30 1240 C 128.347 1.89821 -0.815576 0
M  V30 1241 C 128.755 1.7823 0.634867 0
M  V30 1242 O 128.098 1.13152 1.44715 0
M  V30 1243 C 128.16 3.40817 -1.14385 0
M  V30 1244 C 127.824 3.76193 -2.59476 0
M  V30 1245 C 128.821 3.77269 -3.57721 0
M  V30 1246 C 126.506 4.0652 -2.95037 0
M  V30 1247 C 128.5 4.08176 -4.89562 0
M  V30 1248 C 126.187 4.37092 -4.27076 0
M  V30 1249 C 127.185 4.37902 -5.24148 0
M  V30 1250 O 126.873 4.67741 -6.53815 0
M  V30 1251 H 126.605 0.608465 -0.294528 0
M  V30 1252 H 129.159 1.472 -1.43252 0
M  V30 1253 H 127.389 3.83835 -0.469865 0
M  V30 1254 H 129.078 3.96485 -0.869179 0
M  V30 1255 H 129.844 3.5394 -3.3159 0
M  V30 1256 H 125.723 4.05049 -2.20128 0
M  V30 1257 H 129.267 4.08723 -5.65324 0
M  V30 1258 H 125.164 4.59889 -4.5296 0
M  V30 1259 H 125.932 4.85509 -6.58957 0
M  V30 1260 N 128.595 0.856903 1.32268 0
M  V30 1261 C 129.542 0.301172 2.28827 0
M  V30 1262 C 130.512 -0.593104 1.5515 0
M  V30 1263 O 131.697 -0.527537 1.83362 0
M  V30 1264 C 128.837 -0.502523 3.41422 0
M  V30 1265 C 127.95 0.417797 4.29975 0
M  V30 1266 C 127.085 -0.398749 5.29701 0
M  V30 1267 C 126.124 0.518827 6.09897 0
M  V30 1268 N 125.261 -0.260674 7.01616 0
M  V30 1269 H 130.101 1.12983 2.75751 0
M  V30 1270 H 127.638 0.568582 1.35667 0
M  V30 1271 H 129.596 -0.984141 4.05426 0
M  V30 1272 H 128.226 -1.29599 2.95642 0
M  V30 1273 H 127.278 1.01781 3.66531 0
M  V30 1274 H 128.59 1.12191 4.86019 0
M  V30 1275 H 127.744 -0.943435 5.9932 0
M  V30 1276 H 126.483 -1.13622 4.7428 0
M  V30 1277 H 125.488 1.07538 5.39181 0
M  V30 1278 H 126.713 1.25495 6.67404 0
M  V30 1279 H 124.659 -0.981198 6.4862 0
M  V30 1280 H 124.576 0.384364 7.55022 0
M  V30 1281 H 125.844 -0.787014 7.75517 0
M  V30 1282 N 130.073 -1.45103 0.615059 0
M  V30 1283 C 131.298 -2.07064 0.117988 0
M  V30 1284 C 131.723 -1.4554 -1.19163 0
M  V30 1285 O 131.081 -0.550855 -1.72729 0
M  V30 1286 C 131.129 -3.606 -0.000288387 0
M  V30 1287 O 130.233 -3.98847 -1.04856 0
M  V30 1288 H 129.574 -0.659467 0.0774581 0
M  V30 1289 H 132.104 -1.86236 0.847186 0
M  V30 1290 H 132.114 -4.07529 -0.196091 0
M  V30 1291 H 130.789 -4.04765 0.955932 0
M  V30 1292 H 129.366 -3.63577 -0.828619 0
M  V30 1293 N 131.551 -0.354651 -1.53558 0
M  V30 1294 C 132.798 0.238443 -2.01091 0
M  V30 1295 C 133.126 1.49663 -1.24222 0
M  V30 1296 O 132.381 1.93049 -0.321003 0
M  V30 1297 C 132.68 0.587121 -3.52545 0
M  V30 1298 C 132.346 -0.575472 -4.47213 0
M  V30 1299 C 131.008 -0.894497 -4.72813 0
M  V30 1300 C 133.36 -1.35489 -5.03281 0
M  V30 1301 C 130.688 -1.99511 -5.51736 0
M  V30 1302 C 133.04 -2.44583 -5.83405 0
M  V30 1303 C 131.704 -2.77033 -6.07296 0
M  V30 1304 H 130.974 0.0872526 -0.735845 0
M  V30 1305 H 133.621 -0.484859 -1.8526 0
M  V30 1306 H 131.926 1.39129 -3.66265 0
M  V30 1307 H 133.623 1.05809 -3.86789 0
M  V30 1308 H 130.213 -0.316774 -4.27428 0
M  V30 1309 H 134.397 -1.12167 -4.83459 0
M  V30 1310 H 129.653 -2.25063 -5.68469 0
M  V30 1311 H 133.827 -3.05401 -6.25862 0
M  V30 1312 H 131.454 -3.6244 -6.68237 0
M  V30 1313 N 133.029 1.57378 -0.0835403 0
M  V30 1314 C 133.959 2.1641 0.87686 0
M  V30 1315 C 134.94 1.09429 1.30228 0
M  V30 1316 O 136.125 1.37516 1.37124 0
M  V30 1317 C 133.255 2.73517 2.14022 0
M  V30 1318 C 132.209 3.85769 1.85381 0
M  V30 1319 C 131.535 4.29529 3.18448 0
M  V30 1320 C 132.835 5.09486 1.14984 0
M  V30 1321 H 134.529 2.96914 0.385059 0
M  V30 1322 H 132.075 1.42823 0.18377 0
M  V30 1323 H 134.028 3.13463 2.81636 0
M  V30 1324 H 132.752 1.90252 2.65465 0
M  V30 1325 H 131.411 3.46345 1.20169 0
M  V30 1326 H 131.059 3.43169 3.67755 0
M  V30 1327 H 130.759 5.05204 3.00071 0
M  V30 1328 H 132.283 4.72099 3.8724 0
M  V30 1329 H 133.697 5.46674 1.72687 0
M  V30 1330 H 132.094 5.90515 1.06826 0
M  V30 1331 H 133.164 4.84724 0.130749 0
M  V30 1332 N 134.507 -0.190092 1.56449 0
M  V30 1333 C 135.439 -1.25973 1.91477 0
M  V30 1334 C 136.452 -1.41452 0.805931 0
M  V30 1335 O 137.641 -1.41789 1.08435 0
M  V30 1336 C 134.741 -2.63117 2.13594 0
M  V30 1337 C 133.914 -2.69182 3.4476 0
M  V30 1338 C 132.973 -3.87557 3.5593 0
M  V30 1339 O 131.999 -3.74427 4.28711 0
M  V30 1340 N 133.201 -5.03224 2.89388 0
M  V30 1341 H 135.966 -0.962394 2.83828 0
M  V30 1342 H 133.527 -0.379981 1.57378 0
M  V30 1343 H 135.519 -3.40742 2.1835 0
M  V30 1344 H 134.089 -2.85319 1.27719 0
M  V30 1345 H 133.309 -1.77793 3.51828 0
M  V30 1346 H 134.597 -2.70229 4.31107 0
M  V30 1347 H 133.995 -5.16791 2.30094 0
M  V30 1348 H 132.552 -5.78778 2.99764 0
M  V30 1349 N 135.985 -1.50799 -0.457987 0
M  V30 1350 C 136.915 -1.73553 -1.5621 0
M  V30 1351 C 137.896 -0.584774 -1.59732 0
M  V30 1352 O 139.081 -0.825314 -1.7579 0
M  V30 1353 C 136.211 -1.84169 -2.94447 0
M  V30 1354 C 135.165 -2.99461 -3.0579 0
M  V30 1355 C 134.491 -2.95235 -4.45803 0
M  V30 1356 C 135.791 -4.39766 -2.81786 0
M  V30 1357 H 137.485 -2.66 -1.37421 0
M  V30 1358 H 135.031 -1.28002 -0.659662 0
M  V30 1359 H 136.984 -1.98672 -3.71628 0
M  V30 1360 H 135.708 -0.883545 -3.14422 0
M  V30 1361 H 134.367 -2.8463 -2.31044 0
M  V30 1362 H 134.015 -1.97239 -4.62715 0
M  V30 1363 H 133.715 -3.72642 -4.54326 0
M  V30 1364 H 135.239 -3.11803 -5.24987 0
M  V30 1365 H 136.653 -4.55054 -3.4871 0
M  V30 1366 H 135.05 -5.18722 -3.0174 0
M  V30 1367 H 136.12 -4.51229 -1.7754 0
M  V30 1368 N 137.463 0.71206 -1.40597 0
M  V30 1369 C 138.711 1.46907 -1.38791 0
M  V30 1370 C 139.032 1.94998 0.00780391 0
M  V30 1371 O 138.302 1.70587 0.963174 0
M  V30 1372 H 136.882 0.545043 -0.51082 0
M  V30 1373 H 139.544 0.843882 -1.75683 0
M  V30 1374 H 138.64 2.34021 -2.06496 0
M  V30 1375 N 138.941 1.26152 0.944643 0
M  V30 1376 C 139.904 1.07474 2.0244 0
M  V30 1377 C 140.904 0.0242064 1.60782 0
M  V30 1378 O 142.094 0.267302 1.72137 0
M  V30 1379 C 139.226 0.633956 3.34953 0
M  V30 1380 H 140.419 2.03336 2.20442 0
M  V30 1381 H 137.972 1.087 1.12312 0
M  V30 1382 H 138.707 -0.326811 3.22649 0
M  V30 1383 H 138.492 1.39247 3.66542 0
M  V30 1384 H 139.982 0.52501 4.14287 0
M  V30 1385 N 140.419 -1.14872 1.07899 0
M  V30 1386 C 141.667 -1.85422 0.803941 0
M  V30 1387 C 141.988 -1.83051 -0.67211 0
M  V30 1388 O 141.258 -1.27532 -1.48703 0
M  V30 1389 H 139.838 -0.686537 0.294408 0
M  V30 1390 H 142.5 -1.39226 1.3639 0
M  V30 1391 H 141.596 -2.90399 1.14346 0
M  V30 1392 N 141.898 -0.863906 -1.31812 0
M  V30 1393 C 142.828 -0.330843 -2.31144 0
M  V30 1394 C 143.809 0.575005 -1.60087 0
M  V30 1395 O 144.994 0.493304 -1.8783 0
M  V30 1396 C 142.124 0.47374 -3.44054 0
M  V30 1397 C 141.078 -0.338481 -4.26659 0
M  V30 1398 C 140.404 0.591412 -5.31419 0
M  V30 1399 C 141.704 -1.56926 -4.98168 0
M  V30 1400 H 143.398 -1.16086 -2.75979 0
M  V30 1401 H 140.944 -0.559657 -1.32679 0
M  V30 1402 H 142.897 0.857143 -4.12591 0
M  V30 1403 H 141.621 1.33721 -2.9797 0
M  V30 1404 H 140.28 -0.703754 -3.59782 0
M  V30 1405 H 139.928 1.45199 -4.81587 0
M  V30 1406 H 139.628 0.0519022 -5.87577 0
M  V30 1407 H 141.152 0.97179 -6.02817 0
M  V30 1408 H 142.566 -1.25764 -5.59336 0
M  V30 1409 H 140.963 -2.04739 -5.64094 0
M  V30 1410 H 142.033 -2.32544 -4.25501 0
M  V30 1411 N 143.376 1.44774 -0.622745 0
M  V30 1412 C 144.601 2.06999 -0.128968 0
M  V30 1413 C 145.026 1.4617 1.1839 0
M  V30 1414 O 144.384 0.560007 1.72434 0
M  V30 1415 C 144.432 3.60595 -0.0188351 0
M  V30 1416 O 143.536 3.99398 1.02739 0
M  V30 1417 H 142.877 0.659047 -0.0809544 0
M  V30 1418 H 145.407 1.85784 -0.85705 0
M  V30 1419 H 145.417 4.07627 0.174476 0
M  V30 1420 H 144.092 4.04252 -0.977384 0
M  V30 1421 H 142.669 3.64011 0.809326 0
M  V30 1422 N 144.854 0.36279 1.53368 0
M  V30 1423 C 146.1 -0.228113 2.01513 0
M  V30 1424 C 146.433 -1.48648 1.2497 0
M  V30 1425 O 145.708 -1.91459 0.342616 0
M  V30 1426 C 145.991 -0.522884 3.56284 0
M  V30 1427 C 145.844 0.74892 4.43521 0
M  V30 1428 C 147.163 -1.32461 4.19693 0
M  V30 1429 H 144.282 -0.0814343 0.732487 0
M  V30 1430 H 146.924 0.48713 1.83649 0
M  V30 1431 H 145.074 -1.1322 3.71636 0
M  V30 1432 H 146.746 1.38648 4.39971 0
M  V30 1433 H 144.989 1.36986 4.11603 0
M  V30 1434 H 145.66 0.497667 5.49752 0
M  V30 1435 H 148.136 -0.809203 4.08156 0
M  V30 1436 H 147.012 -1.49961 5.28018 0
M  V30 1437 H 147.273 -2.33232 3.75573 0
M  V30 1438 N 146.332 -1.57332 0.0918853 0
M  V30 1439 C 147.58 -1.93853 -0.571446 0
M  V30 1440 C 147.901 -0.974212 -1.6892 0
M  V30 1441 O 147.171 -0.0257254 -1.95883 0
M  V30 1442 H 145.751 -0.715666 -0.214082 0
M  V30 1443 H 148.413 -1.94287 0.154464 0
M  V30 1444 H 147.509 -2.96191 -0.983729 0
M  V30 1445 N 147.81 0.181792 -1.56548 0
M  V30 1446 C 148.74 1.22765 -1.98623 0
M  V30 1447 C 149.721 1.46747 -0.860189 0
M  V30 1448 O 150.906 1.58259 -1.12551 0
M  V30 1449 C 148.036 2.56894 -2.33715 0
M  V30 1450 C 146.99 2.475 -3.49182 0
M  V30 1451 C 146.316 3.86023 -3.69986 0
M  V30 1452 C 147.616 1.98866 -4.82959 0
M  V30 1453 H 149.31 0.877942 -2.86239 0
M  V30 1454 H 146.856 0.42088 -1.37712 0
M  V30 1455 H 148.809 3.30253 -2.61746 0
M  V30 1456 H 147.533 2.93632 -1.42997 0
M  V30 1457 H 146.192 1.76596 -3.21262 0
M  V30 1458 H 145.84 4.20136 -2.76576 0
M  V30 1459 H 145.54 3.80609 -4.47672 0
M  V30 1460 H 147.064 4.60984 -4.00407 0
M  V30 1461 H 148.478 2.61992 -5.09934 0
M  V30 1462 H 146.875 2.04424 -5.64208 0
M  V30 1463 H 147.945 0.942465 -4.75653 0
M  V30 1464 N 149.288 1.51039 0.449983 0
M  V30 1465 C 150.513 1.6715 1.22783 0
M  V30 1466 C 150.938 0.363081 1.84563 0
M  V30 1467 O 150.296 -0.675433 1.68249 0
M  V30 1468 C 150.344 2.77985 2.29689 0
M  V30 1469 O 149.448 2.40707 3.34864 0
M  V30 1470 H 148.789 0.557746 0.360299 0
M  V30 1471 H 151.319 1.97535 0.533005 0
M  V30 1472 H 151.329 3.01693 2.74673 0
M  V30 1473 H 150.004 3.72935 1.84098 0
M  V30 1474 H 148.581 2.27523 2.95445 0
M  V30 1475 N 150.766 -0.704594 1.40972 0
M  V30 1476 C 152.014 -1.46169 1.39568 0
M  V30 1477 C 152.335 -1.95 0.00253745 0
M  V30 1478 O 151.605 -1.71095 -0.954114 0
M  V30 1479 H 150.185 -0.542326 0.513704 0
M  V30 1480 H 152.847 -0.834553 1.76128 0
M  V30 1481 H 151.943 -2.32922 2.07735 0
M  V30 1482 N 152.244 -1.26651 -0.937939 0
M  V30 1483 C 153.174 -1.10993 -2.05433 0
M  V30 1484 C 154.155 -0.0142161 -1.70094 0
M  V30 1485 O 155.34 -0.186837 -1.93299 0
M  V30 1486 C 152.47 -0.745561 -3.39203 0
M  V30 1487 C 151.424 -1.79337 -3.88616 0
M  V30 1488 C 150.75 -1.28324 -5.19073 0
M  V30 1489 C 152.05 -3.19553 -4.13138 0
M  V30 1490 H 153.744 -2.0438 -2.1879 0
M  V30 1491 H 151.29 -0.984041 -1.05131 0
M  V30 1492 H 153.243 -0.622888 -4.16771 0
M  V30 1493 H 151.967 0.22401 -3.25831 0
M  V30 1494 H 150.626 -1.90477 -3.13231 0
M  V30 1495 H 150.274 -0.303414 -5.02084 0
M  V30 1496 H 149.974 -1.98369 -5.53103 0
M  V30 1497 H 151.498 -1.1733 -5.99221 0
M  V30 1498 H 152.912 -3.11471 -4.81309 0
M  V30 1499 H 151.309 -3.87218 -4.58457 0
M  V30 1500 H 152.379 -3.65368 -3.18801 0
M  V30 1501 N 153.722 1.14298 -1.08507 0
M  V30 1502 C 154.685 2.17607 -0.719711 0
M  V30 1503 C 155.685 1.58907 0.245997 0
M  V30 1504 O 156.875 1.74181 0.0254081 0
M  V30 1505 C 154.007 3.40842 -0.0627695 0
M  V30 1506 H 155.2 2.51443 -1.63452 0
M  V30 1507 H 152.753 1.28963 -0.88307 0
M  V30 1508 H 153.488 3.12587 0.863716 0
M  V30 1509 H 153.273 3.84713 -0.757504 0
M  V30 1510 H 154.763 4.17221 0.177786 0
M  V30 1511 N 155.201 0.870884 1.31352 0
M  V30 1512 C 156.164 0.332243 2.26779 0
M  V30 1513 C 157.164 -0.517302 1.52252 0
M  V30 1514 O 158.354 -0.326477 1.71113 0
M  V30 1515 C 155.486 -0.528066 3.36785 0
M  V30 1516 H 156.679 1.17469 2.75937 0
M  V30 1517 H 154.232 0.64655 1.423 0
M  V30 1518 H 154.967 -1.39167 2.92922 0
M  V30 1519 H 154.752 0.0802582 3.92018 0
M  V30 1520 H 156.242 -0.897179 4.07849 0
M  V30 1521 N 156.679 -1.44442 0.630414 0
M  V30 1522 C 157.927 -2.01653 0.134351 0
M  V30 1523 C 158.248 -1.49836 -1.24796 0
M  V30 1524 O 157.518 -0.701684 -1.82902 0
M  V30 1525 H 156.098 -0.74554 0.0466769 0
M  V30 1526 H 158.76 -1.76952 0.816955 0
M  V30 1527 H 157.856 -3.11935 0.101498 0
M  V30 1528 N 158.157 -0.370918 -1.53173 0
M  V30 1529 C 159.404 0.217102 -2.01333 0
M  V30 1530 C 159.732 1.48338 -1.25802 0
M  V30 1531 O 158.987 1.92698 -0.34146 0
M  V30 1532 C 159.286 0.549696 -3.53147 0
M  V30 1533 C 158.952 -0.622872 -4.46577 0
M  V30 1534 C 157.614 -0.944595 -4.71838 0
M  V30 1535 C 159.966 -1.40819 -5.01816 0
M  V30 1536 C 157.294 -2.05351 -5.49589 0
M  V30 1537 C 159.646 -2.50757 -5.80778 0
M  V30 1538 C 158.31 -2.83458 -6.04324 0
M  V30 1539 H 157.58 0.0794431 -0.736729 0
M  V30 1540 H 160.227 -0.504481 -1.84736 0
M  V30 1541 H 158.532 1.35237 -3.6772 0
M  V30 1542 H 160.229 1.017 -3.87889 0
M  V30 1543 H 156.819 -0.36209 -4.27068 0
M  V30 1544 H 161.003 -1.17289 -4.82242 0
M  V30 1545 H 156.259 -2.3108 -5.6605 0
M  V30 1546 H 160.433 -3.12022 -6.22588 0
M  V30 1547 H 158.06 -3.69508 -6.64355 0
M  V30 1548 N 159.635 1.57281 -0.100228 0
M  V30 1549 C 160.598 2.13158 0.842398 0
M  V30 1550 C 161.598 1.06202 1.20738 0
M  V30 1551 O 162.788 1.32066 1.13597 0
M  V30 1552 C 159.92 2.65639 2.13655 0
M  V30 1553 H 161.113 2.97766 0.357114 0
M  V30 1554 H 158.666 1.5559 0.148823 0
M  V30 1555 H 159.401 1.84566 2.66657 0
M  V30 1556 H 159.186 3.43844 1.88451 0
M  V30 1557 H 160.676 3.08846 2.81077 0
M  V30 1558 N 161.113 -0.173488 1.56642 0
M  V30 1559 C 162.362 -0.888758 1.81063 0
M  V30 1560 C 162.675 -1.83506 0.67712 0
M  V30 1561 O 163.881 -2.59254 0.806206 0
M  V30 1562 C 162.337 -1.63091 3.20826 0
M  V30 1563 C 161.945 -0.728357 4.4204 0
M  V30 1564 C 163.689 -2.33454 3.54541 0
M  V30 1565 C 161.596 -1.47062 5.72823 0
M  V30 1566 H 160.526 -0.335618 0.675186 0
M  V30 1567 H 163.177 -0.141712 1.82952 0
M  V30 1568 H 161.559 -2.42263 3.13248 0
M  V30 1569 H 162.733 0.0262449 4.60793 0
M  V30 1570 H 161.048 -0.134492 4.16183 0
M  V30 1571 H 163.645 -2.89578 4.49498 0
M  V30 1572 H 163.988 -3.08687 2.79317 0
M  V30 1573 H 164.521 -1.61227 3.63663 0
M  V30 1574 H 161.26 -0.760658 6.51072 0
M  V30 1575 H 160.78 -2.1986 5.58052 0
M  V30 1576 H 162.459 -2.01868 6.14702 0
M  V30 1577 N 162.591 -1.51276 -0.441967 0
M  V30 1578 C 163.839 -1.63392 -1.18943 0
M  V30 1579 C 164.16 -0.350159 -1.9183 0
M  V30 1580 O 163.43 0.633784 -1.85364 0
M  V30 1581 H 162.01 -0.602164 -0.442049 0
M  V30 1582 H 164.672 -1.88186 -0.507165 0
M  V30 1583 H 163.768 -2.45934 -1.92154 0
M  V30 1584 N 164.069 0.697108 -1.41344 0
M  V30 1585 C 165.318 1.45279 -1.39918 0
M  V30 1586 C 165.631 1.95597 -0.0109624 0
M  V30 1587 O 166.837 2.71208 0.125919 0
M  V30 1588 C 165.293 2.62695 -2.46007 0
M  V30 1589 C 164.901 2.19169 -3.90729 0
M  V30 1590 C 166.645 3.40336 -2.53715 0
M  V30 1591 C 164.552 3.33535 -4.88373 0
M  V30 1592 H 163.482 0.545692 -0.520323 0
M  V30 1593 H 166.133 0.756929 -1.67161 0
M  V30 1594 H 164.515 3.34541 -2.11892 0
M  V30 1595 H 165.689 1.54623 -4.34083 0
M  V30 1596 H 164.004 1.54525 -3.86666 0
M  V30 1597 H 166.601 4.2547 -3.2385 0
M  V30 1598 H 166.944 3.85418 -1.5735 0
M  V30 1599 H 167.477 2.75546 -2.86913 0
M  V30 1600 H 164.216 2.93468 -5.86137 0
M  V30 1601 H 163.736 3.96936 -4.49668 0
M  V30 1602 H 165.415 3.99335 -5.09059 0
M  V30 1603 N 165.547 1.27147 0.931209 0
M  V30 1604 C 166.793 1.13446 1.68101 0
M  V30 1605 C 167.126 -0.319628 1.91552 0
M  V30 1606 O 166.401 -1.23407 1.50336 0
M  V30 1607 C 166.684 1.91482 3.0497 0
M  V30 1608 C 166.537 3.44855 2.88782 0
M  V30 1609 C 167.856 1.71651 4.05246 0
M  V30 1610 H 164.975 0.413498 0.610072 0
M  V30 1611 H 167.617 1.56261 1.08086 0
M  V30 1612 H 165.767 1.55095 3.56199 0
M  V30 1613 H 167.439 3.9105 2.44698 0
M  V30 1614 H 165.682 3.71373 2.24198 0
M  V30 1615 H 166.353 3.94694 3.85902 0
M  V30 1616 H 168.829 2.0337 3.63015 0
M  V30 1617 H 167.705 2.28651 4.99009 0
M  V30 1618 H 167.966 0.663555 4.37092 0
M  V30 1619 N 167.025 -1.13721 1.09112 0
M  V30 1620 C 168.273 -1.84559 0.823562 0
M  V30 1621 C 168.594 -1.83754 -0.652658 0
M  V30 1622 O 167.864 -1.29102 -1.47342 0
M  V30 1623 H 166.444 -0.683376 0.301673 0
M  V30 1624 H 169.106 -1.37771 1.37859 0
M  V30 1625 H 168.202 -2.8917 1.17419 0
M  V30 1626 N 168.503 -0.877838 -1.30888 0
M  V30 1627 C 169.78 -0.413052 -1.91189 0
M  V30 1628 C 170.16 1.1056 -1.79832 0
M  V30 1629 O 169.508 1.93771 -1.21099 0
M  V30 1630 C 169.718 -0.903191 -3.3711 0
M  V30 1631 C 171.066 -0.93395 -4.14201 0
M  V30 1632 O 172.09 -0.849373 -3.45925 0
M  V30 1633 O 170.949 -1.05772 -5.36167 0
M  V30 1634 H 168.043 -0.125035 -0.817493 0
M  V30 1635 H 170.589 -0.966269 -1.39504 0
M  V30 1636 H 169.361 -1.94692 -3.39427 0
M  V30 1637 H 168.984 -0.328732 -3.96239 0
M  V30 1638 N 169.982 1.44106 -0.638065 0
M  V30 1639 C 170.945 2.29138 0.0531013 0
M  V30 1640 C 171.945 1.41409 0.765506 0
M  V30 1641 O 173.135 1.63206 0.609046 0
M  V30 1642 C 170.267 3.23144 1.08584 0
M  V30 1643 H 171.46 2.91739 -0.694883 0
M  V30 1644 H 169.013 1.51134 -0.398538 0
M  V30 1645 H 169.748 2.65408 1.86357 0
M  V30 1646 H 169.533 3.87804 0.578852 0
M  V30 1647 H 171.023 3.87004 1.56899 0
M  V30 1648 N 171.46 0.379036 1.52974 0
M  V30 1649 C 172.708 -0.206014 2.01047 0
M  V30 1650 C 173.029 -1.48175 1.26765 0
M  V30 1651 O 172.299 -1.92085 0.384743 0
M  V30 1652 H 170.879 -0.0791184 0.742798 0
M  V30 1653 H 173.541 0.508366 1.88153 0
M  V30 1654 H 172.637 -0.423501 3.09213 0
M  V30 1655 N 172.938 -1.57226 0.108567 0
M  V30 1656 C 174.184 -1.95121 -0.552761 0
M  V30 1657 C 174.517 -0.991345 -1.66991 0
M  V30 1658 O 173.792 -0.0267211 -1.94482 0
M  V30 1659 C 174.075 -3.43039 -1.09528 0
M  V30 1660 C 173.928 -4.49797 0.0177332 0
M  V30 1661 C 175.247 -3.92567 -1.98945 0
M  V30 1662 H 172.366 -0.709496 -0.199461 0
M  V30 1663 H 175.008 -1.89126 0.182011 0
M  V30 1664 H 173.158 -3.48279 -1.72146 0
M  V30 1665 H 174.83 -4.56661 0.652584 0
M  V30 1666 H 173.073 -4.284 0.682309 0
M  V30 1667 H 173.744 -5.50528 -0.402919 0
M  V30 1668 H 176.22 -3.89565 -1.46214 0
M  V30 1669 H 175.096 -4.96605 -2.33827 0
M  V30 1670 H 175.357 -3.32648 -2.91201 0
M  V30 1671 N 174.416 0.165178 -1.56732 0
M  V30 1672 C 175.832 0.517174 -1.50988 0
M  V30 1673 C 176.032 1.84331 -0.813894 0
M  V30 1674 O 175.088 2.49672 -0.37682 0
M  V30 1675 C 176.401 0.544261 -2.95733 0
M  V30 1676 C 177.949 0.631039 -3.06573 0
M  V30 1677 C 178.424 0.68896 -4.52788 0
M  V30 1678 N 179.915 0.751683 -4.5706 0
M  V30 1679 C 180.65 0.817177 -5.67547 0
M  V30 1680 N 180.146 0.843129 -6.8765 0
M  V30 1681 N 181.939 0.856668 -5.55534 0
M  V30 1682 H 174.09 -0.704318 -2.00382 0
M  V30 1683 H 176.353 -0.254687 -0.913148 0
M  V30 1684 H 176.059 -0.361607 -3.49836 0
M  V30 1685 H 175.933 1.3886 -3.5071 0
M  V30 1686 H 178.32 1.52733 -2.52501 0
M  V30 1687 H 178.401 -0.240095 -2.54671 0
M  V30 1688 H 178.045 -0.2031 -5.07494 0
M  V30 1689 H 177.975 1.57633 -5.02454 0
M  V30 1690 H 180.466 0.739661 -3.70591 0
M  V30 1691 H 180.779 0.894448 -7.67606 0
M  V30 1692 H 179.124 0.811304 -6.90248 0
M  V30 1693 H 182.315 0.833437 -4.60621 0
M  V30 1694 H 182.488 0.904247 -6.4166 0
M  V30 1695 N 175.894 1.51508 0.433938 0
M  V30 1696 C 177.142 1.6402 1.18075 0
M  V30 1697 C 177.463 0.360328 1.91642 0
M  V30 1698 O 176.733 -0.623945 1.85698 0
M  V30 1699 H 175.313 0.6045 0.43885 0
M  V30 1700 H 177.975 1.88452 0.497178 0
M  V30 1701 H 177.071 2.46949 1.90847 0
M  V30 1702 N 177.372 -0.689602 1.41712 0
M  V30 1703 C 178.6 -1.47827 1.44758 0
M  V30 1704 C 179.015 -1.88721 0.0545703 0
M  V30 1705 O 178.372 -1.57176 -0.927463 0
M  V30 1706 C 178.423 -2.73698 2.3616 0
M  V30 1707 O 178.144 -2.34524 3.7004 0
M  V30 1708 C 179.645 -3.67389 2.48072 0
M  V30 1709 H 176.865 -0.455357 0.49284 0
M  V30 1710 H 179.409 -0.848574 1.86063 0
M  V30 1711 H 177.564 -3.32891 1.98148 0
M  V30 1712 H 177.978 -3.15701 4.18847 0
M  V30 1713 H 179.452 -4.52475 3.16181 0
M  V30 1714 H 179.929 -4.12284 1.51388 0
M  V30 1715 H 180.535 -3.14097 2.86746 0
M  V30 1716 N 178.85 -1.27639 -0.924453 0
M  V30 1717 C 179.813 -1.10681 -2.00705 0
M  V30 1718 C 180.813 -0.0497823 -1.60723 0
M  V30 1719 O 182.003 -0.294654 -1.7169 0
M  V30 1720 C 179.135 -0.687164 -3.33902 0
M  V30 1721 H 180.328 -2.06817 -2.17179 0
M  V30 1722 H 177.881 -1.10473 -1.10569 0
M  V30 1723 H 178.616 0.275439 -3.23128 0
M  V30 1724 H 178.401 -1.45061 -3.6428 0
M  V30 1725 H 179.891 -0.590853 -4.13399 0
M  V30 1726 N 180.328 1.1314 -1.09713 0
M  V30 1727 C 181.26 2.18343 -0.697056 0
M  V30 1728 C 182.273 1.60669 0.262551 0
M  V30 1729 O 183.462 1.78435 0.0481527 0
M  V30 1730 C 180.562 3.38899 -0.00684728 0
M  V30 1731 C 179.735 4.26078 -0.988741 0
M  V30 1732 C 178.794 5.25155 -0.331394 0
M  V30 1733 O 177.82 5.60701 -0.979926 0
M  V30 1734 N 179.022 5.73271 0.913261 0
M  V30 1735 H 181.787 2.5328 -1.60216 0
M  V30 1736 H 179.348 1.28491 -0.984971 0
M  V30 1737 H 181.34 4.02255 0.444191 0
M  V30 1738 H 179.91 3.02175 0.800551 0
M  V30 1739 H 179.13 3.59453 -1.61826 0
M  V30 1740 H 180.418 4.81178 -1.65364 0
M  V30 1741 H 179.816 5.46544 1.45966 0
M  V30 1742 H 178.373 6.3855 1.30757 0
M  V30 1743 N 181.806 0.884767 1.30421 0
M  V30 1744 C 182.738 0.308655 2.27112 0
M  V30 1745 C 183.751 -0.536655 1.53701 0
M  V30 1746 O 184.94 -0.35624 1.74909 0
M  V30 1747 C 182.04 -0.579782 3.33904 0
M  V30 1748 C 181.213 0.236417 4.36761 0
M  V30 1749 C 180.272 -0.582482 5.22966 0
M  V30 1750 O 179.298 -0.00525502 5.692 0
M  V30 1751 N 180.5 -1.89163 5.48815 0
M  V30 1752 H 183.265 1.13964 2.77186 0
M  V30 1753 H 180.826 0.747731 1.43599 0
M  V30 1754 H 182.818 -1.13366 3.88497 0
M  V30 1755 H 181.388 -1.31144 2.83761 0
M  V30 1756 H 180.608 0.97174 3.82035 0
M  V30 1757 H 181.896 0.795924 5.02536 0
M  V30 1758 H 181.294 -2.38352 5.13035 0
M  V30 1759 H 179.851 -2.39296 6.06284 0
M  V30 1760 N 183.284 -1.43765 0.645699 0
M  V30 1761 C 184.695 -1.85193 0.236719 0
M  V30 1762 C 185.046 -1.54045 -1.21509 0
M  V30 1763 O 184.171 -0.985694 -1.92647 0
M  V30 1764 C 184.766 -3.36151 0.422845 0
M  V30 1765 C 183.325 -3.76338 0.0682492 0
M  V30 1766 C 182.472 -2.67538 0.729306 0
M  V30 1767 H 185.423 -1.34025 0.849883 0
M  V30 1768 H 185.444 -3.79032 -0.333904 0
M  V30 1769 H 184.956 -3.5879 1.47958 0
M  V30 1770 H 183.057 -3.59312 -0.986179 0
M  V30 1771 H 183.17 -4.76603 0.488469 0
M  V30 1772 H 181.534 -2.54176 0.163235 0
M  V30 1773 H 182.317 -2.93006 1.78892 0
M  V30 1774 N 184.763 -0.387143 -1.52771 0
M  V30 1775 C 186.179 -0.037007 -1.59557 0
M  V30 1776 C 186.379 1.44801 -1.40124 0
M  V30 1777 O 185.435 2.21227 -1.21716 0
M  V30 1778 C 186.748 -0.512256 -2.96305 0
M  V30 1779 C 188.296 -0.468328 -3.09476 0
M  V30 1780 C 188.771 -0.919731 -4.4867 0
M  V30 1781 N 190.262 -0.875656 -4.54848 0
M  V30 1782 C 190.997 -1.19637 -5.6078 0
M  V30 1783 N 190.493 -1.58745 -6.74368 0
M  V30 1784 N 192.286 -1.11776 -5.50874 0
M  V30 1785 H 184.437 -1.35395 -1.63652 0
M  V30 1786 H 186.7 -0.554818 -0.768688 0
M  V30 1787 H 186.406 -1.54935 -3.15734 0
M  V30 1788 H 186.28 0.089805 -3.77093 0
M  V30 1789 H 188.667 0.559671 -2.89744 0
M  V30 1790 H 188.748 -1.10616 -2.30646 0
M  V30 1791 H 188.392 -1.94595 -4.69143 0
M  V30 1792 H 188.322 -0.258927 -5.25963 0
M  V30 1793 H 190.813 -0.587843 -3.733 0
M  V30 1794 H 191.126 -1.81586 -7.51163 0
M  V30 1795 H 189.471 -1.6263 -6.75705 0
M  V30 1796 H 192.662 -0.811264 -4.61016 0
M  V30 1797 H 192.835 -1.37103 -6.3333 0
M  V30 1798 N 186.241 1.57166 -0.116904 0
M  V30 1799 C 187.171 2.18222 0.830759 0
M  V30 1800 C 188.152 1.12167 1.27877 0
M  V30 1801 O 189.337 1.40394 1.34176 0
M  V30 1802 C 186.467 2.77996 2.08172 0
M  V30 1803 C 185.421 3.89614 1.77157 0
M  V30 1804 C 184.747 4.36187 3.09265 0
M  V30 1805 C 186.047 5.1181 1.04151 0
M  V30 1806 H 187.741 2.97664 0.321992 0
M  V30 1807 H 185.287 1.4318 0.153434 0
M  V30 1808 H 187.24 3.19366 2.74924 0
M  V30 1809 H 185.964 1.9584 2.6137 0
M  V30 1810 H 184.623 3.48816 1.12796 0
M  V30 1811 H 184.271 3.50893 3.60393 0
M  V30 1812 H 183.971 5.11455 2.89288 0
M  V30 1813 H 185.495 4.80207 3.77139 0
M  V30 1814 H 186.909 5.50214 1.61052 0
M  V30 1815 H 185.306 5.92648 0.942762 0
M  V30 1816 H 186.376 4.84892 0.0279022 0
M  V30 1817 N 187.719 -0.156864 1.56817 0
M  V30 1818 C 188.966 -0.871125 1.82805 0
M  V30 1819 C 189.294 -1.81611 0.696262 0
M  V30 1820 O 188.549 -1.93141 -0.315459 0
M  V30 1821 C 188.848 -1.68737 3.1506 0
M  V30 1822 C 188.514 -0.890045 4.42028 0
M  V30 1823 C 187.176 -0.670042 4.76512 0
M  V30 1824 C 189.528 -0.331769 5.20143 0
M  V30 1825 C 186.856 0.119104 5.86579 0
M  V30 1826 C 189.208 0.444365 6.31037 0
M  V30 1827 C 187.872 0.675035 6.64078 0
M  V30 1828 H 187.142 -0.318767 0.668931 0
M  V30 1829 H 189.789 -0.135274 1.91022 0
M  V30 1830 H 188.094 -2.49304 3.0225 0
M  V30 1831 H 189.791 -2.24331 3.3238 0
M  V30 1832 H 186.381 -1.07157 4.14988 0
M  V30 1833 H 190.565 -0.489043 4.93885 0
M  V30 1834 H 185.821 0.307417 6.10627 0
M  V30 1835 H 189.995 0.884139 6.90765 0
M  V30 1836 H 187.622 1.28839 7.49203 0
M  V30 1837 N 189.197 -1.51736 -0.425897 0
M  V30 1838 C 190.443 -1.65214 -1.1761 0
M  V30 1839 C 190.776 -0.372778 -1.90589 0
M  V30 1840 O 190.051 0.628139 -1.84078 0
M  V30 1841 C 190.334 -2.86312 -2.18398 0
M  V30 1842 C 190.187 -4.24254 -1.49426 0
M  V30 1843 C 191.506 -3.02925 -3.19256 0
M  V30 1844 H 188.625 -0.601263 -0.426206 0
M  V30 1845 H 191.267 -1.8425 -0.463882 0
M  V30 1846 H 189.417 -2.70213 -2.79137 0
M  V30 1847 H 191.089 -4.52046 -0.919362 0
M  V30 1848 H 189.332 -4.26426 -0.796432 0
M  V30 1849 H 190.003 -5.05001 -2.22885 0
M  V30 1850 H 192.479 -3.1781 -2.68581 0
M  V30 1851 H 191.355 -3.89199 -3.8706 0
M  V30 1852 H 191.616 -2.15497 -3.86023 0
M  V30 1853 N 190.675 0.682077 -1.42076 0
M  V30 1854 C 191.923 1.4393 -1.41876 0
M  V30 1855 C 192.244 1.94971 -0.0335599 0
M  V30 1856 O 191.514 1.72591 0.926773 0
M  V30 1857 H 190.094 0.534085 -0.522267 0
M  V30 1858 H 192.756 0.806427 -1.77434 0
M  V30 1859 H 191.852 2.29588 -2.11414 0
M  V30 1860 N 192.153 1.28127 0.917671 0
M  V30 1861 C 193.086 1.06039 2.02067 0
M  V30 1862 C 194.064 -0.0223285 1.62585 0
M  V30 1863 O 195.248 0.124823 1.88086 0
M  V30 1864 C 192.375 0.610596 3.33151 0
M  V30 1865 C 191.421 1.68937 3.91615 0
M  V30 1866 S 192.254 3.28437 4.22953 0
M  V30 1867 C 193.41 2.85283 5.57103 0
M  V30 1868 H 193.643 1.99425 2.20493 0
M  V30 1869 H 191.176 1.12071 1.06205 0
M  V30 1870 H 193.134 0.357778 4.08938 0
M  V30 1871 H 191.795 -0.303364 3.12632 0
M  V30 1872 H 190.988 1.32619 4.86239 0
M  V30 1873 H 190.59 1.89478 3.2245 0
M  V30 1874 H 192.882 2.3121 6.36827 0
M  V30 1875 H 193.825 3.7869 5.98331 0
M  V30 1876 H 194.233 2.24118 5.18104 0
M  V30 1877 N 193.631 -1.12557 1.10312 0
M  V30 1878 C 194.88 -1.83395 0.839588 0
M  V30 1879 C 195.193 -1.84939 -0.636929 0
M  V30 1880 O 196.399 -2.51761 -1.01631 0
M  V30 1881 C 194.855 -3.29303 1.45215 0
M  V30 1882 C 194.463 -3.36122 2.96186 0
M  V30 1883 C 196.207 -4.05121 1.26796 0
M  V30 1884 C 194.114 -4.76357 3.50483 0
M  V30 1885 H 193.044 -0.687133 0.310425 0
M  V30 1886 H 195.695 -1.26746 1.32694 0
M  V30 1887 H 194.077 -3.85812 0.892469 0
M  V30 1888 H 195.251 -2.89559 3.58458 0
M  V30 1889 H 193.566 -2.73776 3.13745 0
M  V30 1890 H 196.163 -5.08668 1.64806 0
M  V30 1891 H 196.506 -4.15773 0.209409 0
M  V30 1892 H 197.039 -3.54967 1.79563 0
M  V30 1893 H 193.778 -4.70899 4.55998 0
M  V30 1894 H 193.298 -5.23377 2.92978 0
M  V30 1895 H 194.977 -5.45294 3.48228 0
M  V30 1896 N 195.109 -0.891671 -1.2995 0
M  V30 1897 C 196.039 -0.379797 -2.30391 0
M  V30 1898 C 197.02 0.540919 -1.6127 0
M  V30 1899 O 198.205 0.453352 -1.88834 0
M  V30 1900 C 195.335 0.400654 -3.44981 0
M  V30 1901 C 194.289 -0.428905 -4.25846 0
M  V30 1902 C 193.615 0.478557 -5.32554 0
M  V30 1903 C 194.915 -1.67458 -4.94727 0
M  V30 1904 H 196.609 -1.21914 -2.73454 0
M  V30 1905 H 194.155 -0.587675 -1.31462 0
M  V30 1906 H 196.108 0.769434 -4.14316 0
M  V30 1907 H 194.832 1.27371 -3.0074 0
M  V30 1908 H 193.491 -0.779911 -3.58208 0
M  V30 1909 H 193.139 1.34951 -4.84559 0
M  V30 1910 H 192.839 -0.0727433 -5.87555 0
M  V30 1911 H 194.363 0.843705 -6.04743 0
M  V30 1912 H 195.777 -1.376 -5.56542 0
M  V30 1913 H 194.174 -2.16659 -5.59624 0
M  V30 1914 H 195.244 -2.41518 -4.20473 0
M  V30 1915 N 196.587 1.43421 -0.653314 0
M  V30 1916 C 197.836 2.01032 -0.164076 0
M  V30 1917 C 198.149 1.52147 1.22926 0
M  V30 1918 O 199.355 2.02031 1.81371 0
M  V30 1919 C 197.811 3.59082 -0.24252 0
M  V30 1920 C 197.419 4.1696 -1.63855 0
M  V30 1921 C 199.163 4.24079 0.18911 0
M  V30 1922 C 197.07 5.67304 -1.67092 0
M  V30 1923 H 196 0.751798 -0.0575769 0
M  V30 1924 H 198.651 1.6439 -0.815362 0
M  V30 1925 H 197.033 3.93125 0.476276 0
M  V30 1926 H 198.207 3.94416 -2.38271 0
M  V30 1927 H 196.522 3.64335 -2.01616 0
M  V30 1928 H 199.119 5.34381 0.184775 0
M  V30 1929 H 199.462 3.98005 1.22056 0
M  V30 1930 H 199.995 3.94918 -0.477938 0
M  V30 1931 H 196.734 5.98145 -2.68146 0
M  V30 1932 H 196.254 5.91904 -0.970014 0
M  V30 1933 H 197.933 6.31344 -1.4147 0
M  V30 1934 N 198.065 0.39524 1.52563 0
M  V30 1935 C 198.995 -0.428384 2.29537 0
M  V30 1936 C 199.976 -1.05831 1.33169 0
M  V30 1937 O 201.161 -1.06995 1.62067 0
M  V30 1938 C 198.291 -1.55274 3.10656 0
M  V30 1939 C 197.245 -1.04855 4.14957 0
M  V30 1940 C 196.571 -2.26543 4.84337 0
M  V30 1941 C 197.871 -0.112324 5.22179 0
M  V30 1942 H 199.565 0.213867 2.98635 0
M  V30 1943 H 197.111 0.104298 1.43622 0
M  V30 1944 H 199.064 -2.1358 3.63265 0
M  V30 1945 H 197.788 -2.22266 2.39302 0
M  V30 1946 H 196.447 -0.487985 3.63338 0
M  V30 1947 H 196.095 -2.92059 4.09525 0
M  V30 1948 H 195.795 -1.93466 5.54837 0
M  V30 1949 H 197.319 -2.85481 5.39753 0
M  V30 1950 H 198.733 -0.603752 5.70112 0
M  V30 1951 H 197.13 0.128968 5.99961 0
M  V30 1952 H 198.2 0.837052 4.77621 0
M  V30 1953 N 199.544 -1.57102 0.125237 0
M  V30 1954 C 200.793 -1.94582 -0.531095 0
M  V30 1955 C 201.106 -1.01126 -1.6743 0
M  V30 1956 O 202.312 -1.28097 -2.39381 0
M  V30 1957 C 200.768 -3.45839 -0.996164 0
M  V30 1958 C 200.376 -4.47842 0.118926 0
M  V30 1959 C 202.12 -3.92227 -1.62352 0
M  V30 1960 C 200.027 -5.90284 -0.363192 0
M  V30 1961 H 198.957 -0.726391 -0.20217 0
M  V30 1962 H 201.608 -1.82339 0.206092 0
M  V30 1963 H 199.99 -3.53338 -1.78796 0
M  V30 1964 H 201.164 -4.52018 0.895358 0
M  V30 1965 H 199.479 -4.11243 0.653324 0
M  V30 1966 H 202.076 -4.96069 -1.99548 0
M  V30 1967 H 202.419 -3.32552 -2.50429 0
M  V30 1968 H 202.952 -3.87554 -0.897019 0
M  V30 1969 H 199.691 -6.53728 0.481679 0
M  V30 1970 H 199.211 -5.89515 -1.10597 0
M  V30 1971 H 200.89 -6.41752 -0.822377 0
M  V30 1972 N 201.022 0.148545 -1.56898 0
M  V30 1973 C 202.269 0.861418 -1.83264 0
M  V30 1974 C 202.597 1.81239 -0.705883 0
M  V30 1975 O 201.852 1.93305 0.305212 0
M  V30 1976 C 202.151 1.67064 -3.1595 0
M  V30 1977 C 201.817 0.866591 -4.42494 0
M  V30 1978 C 200.479 0.644762 -4.76861 0
M  V30 1979 C 202.831 0.30418 -5.20312 0
M  V30 1980 C 200.159 -0.15021 -5.86508 0
M  V30 1981 C 202.511 -0.477824 -6.30793 0
M  V30 1982 C 201.175 -0.710244 -6.63711 0
M  V30 1983 H 200.445 0.315215 -0.670612 0
M  V30 1984 H 203.092 0.125142 -1.91091 0
M  V30 1985 H 201.397 2.47698 -3.03567 0
M  V30 1986 H 203.094 2.22566 -3.33565 0
M  V30 1987 H 199.684 1.04955 -4.15551 0
M  V30 1988 H 203.868 0.462844 -4.94137 0
M  V30 1989 H 199.124 -0.339796 -6.10455 0
M  V30 1990 H 203.298 -0.92076 -6.90286 0
M  V30 1991 H 200.925 -1.3281 -7.48509 0
M  V30 1992 N 202.5 1.5196 0.417844 0
M  V30 1993 C 203.463 1.74065 1.49111 0
M  V30 1994 C 204.463 0.610537 1.48758 0
M  V30 1995 O 205.653 0.87832 1.50437 0
M  V30 1996 C 202.785 1.81502 2.88565 0
M  V30 1997 H 203.978 2.69869 1.30807 0
M  V30 1998 H 201.531 1.42244 0.647785 0
M  V30 1999 H 202.266 0.875813 3.1225 0
M  V30 2000 H 202.051 2.63651 2.90225 0
M  V30 2001 H 203.541 2.00376 3.66387 0
M  V30 2002 N 203.978 -0.674533 1.42435 0
M  V30 2003 C 204.888 -1.81751 1.48337 0
M  V30 2004 C 205.904 -1.69975 0.372099 0
M  V30 2005 O 207.08 -1.91521 0.62304 0
M  V30 2006 C 204.145 -3.17895 1.38361 0
M  V30 2007 C 203.206 -3.41625 2.59982 0
M  V30 2008 C 202.439 -4.71274 2.50473 0
M  V30 2009 O 202.662 -5.49197 1.54075 0
M  V30 2010 O 201.596 -4.96254 3.4061 0
M  V30 2011 H 205.422 -1.79728 2.44809 0
M  V30 2012 H 203.007 -0.830312 1.24202 0
M  V30 2013 H 204.889 -3.99136 1.35161 0
M  V30 2014 H 203.564 -3.20555 0.450144 0
M  V30 2015 H 202.471 -2.60231 2.68757 0
M  V30 2016 H 203.804 -3.43796 3.52229 0
M  V30 2017 N 205.456 -1.28612 -0.910864 0
M  V30 2018 C 206.702 -1.16106 -1.66274 0
M  V30 2019 C 207.035 0.289113 -1.92036 0
M  V30 2020 O 206.31 1.21 -1.52281 0
M  V30 2021 C 206.593 -1.96309 -3.01885 0
M  V30 2022 C 206.446 -3.49405 -2.8326 0
M  V30 2023 C 207.765 -1.78076 -4.02463 0
M  V30 2024 H 204.884 -0.423152 -0.603417 0
M  V30 2025 H 207.526 -1.57961 -1.05586 0
M  V30 2026 H 205.676 -1.60742 -3.53687 0
M  V30 2027 H 207.348 -3.94894 -2.38446 0
M  V30 2028 H 205.591 -3.74893 -2.18261 0
M  V30 2029 H 206.262 -4.00784 -3.79574 0
M  V30 2030 H 208.738 -2.0912 -3.59733 0
M  V30 2031 H 207.614 -2.36561 -4.95308 0
M  V30 2032 H 207.875 -0.733008 -4.35981 0
M  V30 2033 N 206.934 1.1197 -1.10907 0
M  V30 2034 C 207.864 2.19928 -0.784473 0
M  V30 2035 C 208.845 1.6833 0.244726 0
M  V30 2036 O 210.03 1.93892 0.109418 0
M  V30 2037 C 207.16 3.46597 -0.220827 0
M  V30 2038 C 206.114 4.11376 -1.18127 0
M  V30 2039 C 205.44 5.32554 -0.478594 0
M  V30 2040 C 206.74 4.56945 -2.52979 0
M  V30 2041 H 208.434 2.47337 -1.68715 0
M  V30 2042 H 205.98 1.18879 -0.812642 0
M  V30 2043 H 207.933 4.21396 0.0184278 0
M  V30 2044 H 206.657 3.1863 0.717113 0
M  V30 2045 H 205.316 3.38564 -1.40606 0
M  V30 2046 H 204.964 5.00856 0.463976 0
M  V30 2047 H 204.664 5.76844 -1.11912 0
M  V30 2048 H 206.188 6.10096 -0.248 0
M  V30 2049 H 207.602 5.23093 -2.3462 0
M  V30 2050 H 205.999 5.1203 -3.12962 0
M  V30 2051 H 207.069 3.70676 -3.12614 0
M  V30 2052 N 208.412 0.89855 1.29475 0
M  V30 2053 C 209.66 0.522847 1.9522 0
M  V30 2054 C 209.981 -0.93371 1.71192 0
M  V30 2055 O 209.251 -1.65823 1.04305 0
M  V30 2056 H 207.831 0.190366 0.722336 0
M  V30 2057 H 210.493 1.14459 1.5775 0
M  V30 2058 H 209.589 0.704476 3.04045 0
M  V30 2059 N 209.89 -1.43072 0.660911 0
M  V30 2060 C 210.82 -2.33497 -0.0122829 0
M  V30 2061 C 211.801 -1.49903 -0.803925 0
M  V30 2062 O 212.986 -1.78546 -0.763864 0
M  V30 2063 C 210.116 -3.33363 -0.973994 0
M  V30 2064 C 209.07 -4.27003 -0.291928 0
M  V30 2065 C 208.396 -5.16967 -1.36562 0
M  V30 2066 C 209.696 -5.15816 0.820462 0
M  V30 2067 H 211.39 -2.90038 0.742873 0
M  V30 2068 H 208.936 -1.39461 0.358688 0
M  V30 2069 H 210.889 -3.95524 -1.45392 0
M  V30 2070 H 209.613 -2.75095 -1.7604 0
M  V30 2071 H 208.272 -3.66217 0.167623 0
M  V30 2072 H 207.92 -4.55034 -2.14366 0
M  V30 2073 H 207.62 -5.80441 -0.914454 0
M  V30 2074 H 209.144 -5.82003 -1.84675 0
M  V30 2075 H 210.558 -5.71742 0.422366 0
M  V30 2076 H 208.955 -5.8805 1.19656 0
M  V30 2077 H 210.025 -4.55045 1.67518 0
M  V30 2078 N 211.368 -0.403325 -1.52352 0
M  V30 2079 C 212.598 0.17376 -2.05868 0
M  V30 2080 C 213.006 1.39898 -1.27378 0
M  V30 2081 O 212.349 1.80939 -0.31729 0
M  V30 2082 C 212.411 0.594756 -3.54546 0
M  V30 2083 C 212.075 -0.518926 -4.54044 0
M  V30 2084 C 213.072 -1.3807 -5.01231 0
M  V30 2085 C 210.757 -0.689961 -4.97539 0
M  V30 2086 C 212.751 -2.39852 -5.90551 0
M  V30 2087 C 210.438 -1.71109 -5.86656 0
M  V30 2088 C 211.436 -2.56378 -6.33056 0
M  V30 2089 O 211.124 -3.56743 -7.20409 0
M  V30 2090 H 210.856 0.0264951 -0.675481 0
M  V30 2091 H 213.41 -0.571179 -1.97299 0
M  V30 2092 H 211.64 1.39189 -3.60782 0
M  V30 2093 H 213.329 1.0991 -3.90736 0
M  V30 2094 H 214.095 -1.25994 -4.68349 0
M  V30 2095 H 209.974 -0.035939 -4.60986 0
M  V30 2096 H 213.518 -3.06441 -6.26689 0
M  V30 2097 H 209.415 -1.83218 -6.18952 0
M  V30 2098 H 210.183 -3.52918 -7.38506 0
M  V30 2099 N 212.846 1.57033 -0.133567 0
M  V30 2100 C 214.094 1.953 0.519848 0
M  V30 2101 C 214.415 1.01866 1.66278 0
M  V30 2102 O 213.685 0.0776513 1.95746 0
M  V30 2103 H 212.265 0.721091 0.195032 0
M  V30 2104 H 214.927 1.93809 -0.205921 0
M  V30 2105 H 214.023 2.98695 0.904854 0
M  V30 2106 N 214.325 -0.140222 1.56975 0
M  V30 2107 C 215.255 -1.17456 2.01808 0
M  V30 2108 C 216.236 -1.44415 0.898794 0
M  V30 2109 O 217.421 -1.5522 1.16707 0
M  V30 2110 C 214.551 -2.50607 2.40444 0
M  V30 2111 C 213.505 -2.38155 3.55621 0
M  V30 2112 C 212.831 -3.76078 3.80091 0
M  V30 2113 C 214.131 -1.85991 4.88062 0
M  V30 2114 H 215.825 -0.801743 2.88466 0
M  V30 2115 H 213.371 -0.38422 1.38779 0
M  V30 2116 H 215.324 -3.23197 2.7041 0
M  V30 2117 H 214.048 -2.89737 1.50732 0
M  V30 2118 H 212.707 -1.68016 3.25832 0
M  V30 2119 H 212.355 -4.12656 2.87618 0
M  V30 2120 H 212.055 -3.68606 4.57606 0
M  V30 2121 H 213.579 -4.50206 4.12488 0
M  V30 2122 H 214.993 -2.4838 5.16701 0
M  V30 2123 H 213.39 -1.89393 5.6943 0
M  V30 2124 H 214.46 -0.816023 4.77984 0
M  V30 2125 N 215.803 -1.52179 -0.40978 0
M  V30 2126 C 217.052 -1.65434 -1.15388 0
M  V30 2127 C 217.365 -0.390056 -1.91671 0
M  V30 2128 O 218.571 -0.402399 -2.68501 0
M  V30 2129 C 217.027 -2.92279 -2.10003 0
M  V30 2130 C 216.635 -4.25813 -1.39239 0
M  V30 2131 C 218.379 -3.14897 -2.84675 0
M  V30 2132 C 216.286 -5.43782 -2.32498 0
M  V30 2133 H 215.216 -0.616267 -0.434432 0
M  V30 2134 H 217.867 -1.78666 -0.418401 0
M  V30 2135 H 216.249 -2.72744 -2.871 0
M  V30 2136 H 217.423 -4.55828 -0.675099 0
M  V30 2137 H 215.738 -4.09292 -0.766097 0
M  V30 2138 H 218.335 -4.0021 -3.54593 0
M  V30 2139 H 218.678 -2.29103 -3.47588 0
M  V30 2140 H 219.211 -3.34901 -2.14677 0
M  V30 2141 H 215.95 -6.3192 -1.74233 0
M  V30 2142 H 215.47 -5.18106 -3.02201 0
M  V30 2143 H 217.149 -5.76834 -2.93038 0
M  V30 2144 N 217.281 0.66697 -1.42791 0
M  V30 2145 C 218.527 1.4291 -1.43891 0
M  V30 2146 C 218.86 1.94114 -0.0578972 0
M  V30 2147 O 218.135 1.71414 0.91911 0
M  V30 2148 C 218.418 2.62049 -2.46987 0
M  V30 2149 C 218.271 2.16426 -3.94309 0
M  V30 2150 C 219.59 3.64266 -2.46978 0
M  V30 2151 H 216.709 0.518306 -0.523954 0
M  V30 2152 H 219.351 0.757321 -1.74255 0
M  V30 2153 H 217.501 3.19361 -2.21225 0
M  V30 2154 H 219.173 1.64221 -4.31079 0
M  V30 2155 H 217.416 1.47925 -4.078 0
M  V30 2156 H 218.087 3.02038 -4.62036 0
M  V30 2157 H 220.563 3.16686 -2.69906 0
M  V30 2158 H 219.439 4.45196 -3.21079 0
M  V30 2159 H 219.7 4.15927 -1.49857 0
M  V30 2160 N 218.759 1.29093 0.90403 0
M  V30 2161 C 219.722 1.1386 1.98919 0
M  V30 2162 C 220.722 0.0753457 1.60623 0
M  V30 2163 O 221.912 0.321931 1.71199 0
M  V30 2164 C 219.044 0.740198 3.32767 0
M  V30 2165 H 220.237 2.10246 2.13861 0
M  V30 2166 H 217.79 1.12218 1.08797 0
M  V30 2167 H 218.525 -0.223997 3.23525 0
M  V30 2168 H 218.31 1.50838 3.61926 0
M  V30 2169 H 219.8 0.656546 4.12407 0
M  V30 2170 N 220.237 -1.11381 1.11499 0
M  V30 2171 C 221.167 -2.19509 0.796125 0
M  V30 2172 C 222.148 -1.68458 -0.235796 0
M  V30 2173 O 223.333 -1.93947 -0.0991344 0
M  V30 2174 C 220.463 -3.46475 0.239205 0
M  V30 2175 C 219.417 -4.10744 1.20307 0
M  V30 2176 C 218.743 -5.32293 0.50683 0
M  V30 2177 C 220.043 -4.55597 2.55399 0
M  V30 2178 H 221.737 -2.46439 1.70024 0
M  V30 2179 H 219.283 -1.18446 0.818935 0
M  V30 2180 H 221.236 -4.214 0.00392006 0
M  V30 2181 H 219.96 -3.19006 -0.700206 0
M  V30 2182 H 218.619 -3.37813 1.42399 0
M  V30 2183 H 218.267 -5.01095 -0.437408 0
M  V30 2184 H 217.967 -5.76243 1.1497 0
M  V30 2185 H 219.491 -6.09956 0.280351 0
M  V30 2186 H 220.905 -5.21841 2.37391 0
M  V30 2187 H 219.302 -5.10363 3.15673 0
M  V30 2188 H 220.372 -3.69013 3.14575 0
M  V30 2189 N 221.715 -0.905404 -1.28997 0
M  V30 2190 C 222.964 -0.530191 -1.94607 0
M  V30 2191 C 223.277 0.929185 -1.72121 0
M  V30 2192 O 224.483 1.41218 -2.31883 0
M  V30 2193 C 222.939 -0.897333 -3.48534 0
M  V30 2194 C 222.547 -2.37587 -3.79811 0
M  V30 2195 C 224.291 -0.592304 -4.20347 0
M  V30 2196 C 222.198 -2.68357 -5.27009 0
M  V30 2197 H 221.128 -0.194558 -0.728466 0
M  V30 2198 H 223.779 -1.10318 -1.46636 0
M  V30 2199 H 222.161 -0.253214 -3.9519 0
M  V30 2200 H 223.335 -3.06602 -3.43994 0
M  V30 2201 H 221.65 -2.6505 -3.2115 0
M  V30 2202 H 224.247 -0.798975 -5.28697 0
M  V30 2203 H 224.59 0.469474 -4.13644 0
M  V30 2204 H 225.123 -1.19452 -3.79442 0
M  V30 2205 H 221.862 -3.73355 -5.38782 0
M  V30 2206 H 221.382 -2.03971 -5.64053 0
M  V30 2207 H 223.061 -2.54922 -5.94663 0
M  V30 2208 N 223.193 1.4272 -0.668489 0
M  V30 2209 C 224.123 2.335 -0.000100175 0
M  V30 2210 C 225.104 1.50328 0.795964 0
M  V30 2211 O 226.289 1.78949 0.754385 0
M  V30 2212 C 223.419 3.33874 0.956302 0
M  V30 2213 C 222.373 4.27152 0.269278 0
M  V30 2214 C 221.699 5.17684 1.33818 0
M  V30 2215 C 222.999 5.15373 -0.847805 0
M  V30 2216 H 224.693 2.89639 -0.758244 0
M  V30 2217 H 222.239 1.39269 -0.366079 0
M  V30 2218 H 224.192 3.9629 1.43292 0
M  V30 2219 H 222.916 2.76025 1.74579 0
M  V30 2220 H 221.575 3.66123 -0.187042 0
M  V30 2221 H 221.223 4.56165 2.1195 0
M  V30 2222 H 220.923 5.80918 0.883659 0
M  V30 2223 H 222.447 5.82974 1.81586 0
M  V30 2224 H 223.861 5.7151 -0.452681 0
M  V30 2225 H 222.258 5.87407 -1.22773 0
M  V30 2226 H 223.328 4.5415 -1.69929 0
M  V30 2227 N 224.671 0.411399 1.52136 0
M  V30 2228 C 225.896 -0.165538 2.06738 0
M  V30 2229 C 226.321 -1.379 1.27926 0
M  V30 2230 O 225.679 -1.78628 0.310114 0
M  V30 2231 C 225.727 -0.492124 3.57226 0
M  V30 2232 O 224.831 -1.58276 3.80818 0
M  V30 2233 H 224.172 -0.0132132 0.663869 0
M  V30 2234 H 226.702 0.585253 1.96051 0
M  V30 2235 H 226.712 -0.750104 4.01045 0
M  V30 2236 H 225.387 0.394922 4.14021 0
M  V30 2237 H 223.964 -1.31677 3.48877 0
M  V30 2238 N 226.149 -1.5696 0.141893 0
M  V30 2239 C 227.377 -2.00322 -0.517579 0
M  V30 2240 C 227.792 -1.02193 -1.58752 0
M  V30 2241 O 227.149 -0.0181619 -1.82491 0
M  V30 2242 C 227.2 -3.43618 -1.12289 0
M  V30 2243 O 226.921 -4.37995 -0.0956929 0
M  V30 2244 C 228.422 -4.02231 -1.86347 0
M  V30 2245 H 225.642 -0.657243 -0.135177 0
M  V30 2246 H 228.186 -2.03146 0.234973 0
M  V30 2247 H 226.341 -3.41662 -1.82609 0
M  V30 2248 H 226.755 -5.21729 -0.538469 0
M  V30 2249 H 228.229 -5.04509 -2.23997 0
M  V30 2250 H 228.706 -3.42655 -2.74744 0
M  V30 2251 H 229.312 -4.07802 -1.20737 0
M  V30 2252 N 227.627 0.131896 -1.57047 0
M  V30 2253 C 228.574 1.16236 -1.99393 0
M  V30 2254 C 229.544 1.41863 -0.863943 0
M  V30 2255 O 230.729 1.53946 -1.12718 0
M  V30 2256 C 227.869 2.48708 -2.39245 0
M  V30 2257 C 226.982 2.30127 -3.65603 0
M  V30 2258 C 226.117 3.55738 -3.94492 0
M  V30 2259 C 225.156 3.32259 -5.14073 0
M  V30 2260 N 224.293 4.50039 -5.38896 0
M  V30 2261 H 229.133 0.794251 -2.87221 0
M  V30 2262 H 226.67 0.380707 -1.42088 0
M  V30 2263 H 228.628 3.25969 -2.60384 0
M  V30 2264 H 227.258 2.83437 -1.54478 0
M  V30 2265 H 226.31 1.43845 -3.52154 0
M  V30 2266 H 227.622 2.08746 -4.5302 0
M  V30 2267 H 226.776 4.41423 -4.1621 0
M  V30 2268 H 225.515 3.80138 -3.05526 0
M  V30 2269 H 224.52 2.44963 -4.92212 0
M  V30 2270 H 225.745 3.09242 -6.04604 0
M  V30 2271 H 223.691 4.74584 -4.52886 0
M  V30 2272 H 223.608 4.31716 -6.2061 0
M  V30 2273 H 224.876 5.36895 -5.65123 0
M  V30 2274 O 229.144 1.59117 0.276399 0
M  V30 2275 H 229.835 1.70359 0.921826 0
M  V30 END ATOM
M  V30 BEGIN BOND
M  V30 END BOND
M  V30 END CTAB
M  END
$$$$
