drugbank_target|P27448 MAP/microtubule affinity-regulating kinase 3 (DB12010)
 OpenBabel12092121173D

  0  0  0     0  0            999 V3000
M  V30 BEGIN CTAB
M  V30 COUNTS 11867 11973 0 0 0
M  V30 BEGIN ATOM
M  V30 1 H -0.908 1.98254 -0.117106 0
M  V30 2 N 0 1.576 0 0
M  V30 3 C 0.933 2.03868 1.02534 0
M  V30 4 C 1.911 0.928543 1.3348 0
M  V30 5 O 3.095 1.19667 1.45644 0
M  V30 6 C 0.222 2.43627 2.35294 0
M  V30 7 C -0.732 3.65373 2.2001 0
M  V30 8 S 0.101 5.13292 1.52614 0
M  V30 9 C 1.257 5.56322 2.86805 0
M  V30 10 H 1.49 2.90518 0.631377 0
M  V30 11 H -0.977 1.52953 0.210867 0
M  V30 12 H 0.981 2.67203 3.11629 0
M  V30 13 H -0.358 1.57376 2.7183 0
M  V30 14 H -1.165 3.90944 3.18086 0
M  V30 15 H -1.563 3.418 1.51819 0
M  V30 16 H 0.729 5.58782 3.83104 0
M  V30 17 H 1.672 6.56266 2.65933 0
M  V30 18 H 2.08 4.83886 2.90714 0
M  V30 19 N 1.4781 -0.272755 1.55222 0
M  V30 20 C 2.7031 -1.02683 1.80197 0
M  V30 21 C 3.1281 -1.79142 0.573551 0
M  V30 22 O 2.4861 -1.74917 -0.476849 0
M  V30 23 C 2.5341 -1.9609 3.02624 0
M  V30 24 O 1.6381 -3.04863 2.77727 0
M  V30 25 H 0.9791 -0.293557 0.595584 0
M  V30 26 H 3.5091 -0.30159 2.02365 0
M  V30 27 H 3.5191 -2.38039 3.31363 0
M  V30 28 H 2.1941 -1.39851 3.91682 0
M  V30 29 H 0.7711 -2.67228 2.60084 0
M  V30 30 N 2.9562 -1.48159 -0.537278 0
M  V30 31 C 4.1842 -1.59454 -1.31841 0
M  V30 32 C 4.5992 -0.252065 -1.8711 0
M  V30 33 O 3.9562 0.757621 -1.66031 0
M  V30 34 C 4.0072 -2.63546 -2.47439 0
M  V30 35 O 3.7282 -3.92583 -1.94449 0
M  V30 36 C 5.2292 -2.85212 -3.39366 0
M  V30 37 H 2.4492 -0.53785 -0.401196 0
M  V30 38 H 4.9932 -1.93932 -0.648891 0
M  V30 39 H 3.1482 -2.31946 -3.1029 0
M  V30 40 H 3.5622 -4.49629 -2.70063 0
M  V30 41 H 5.0362 -3.61863 -4.16844 0
M  V30 42 H 5.5132 -1.93765 -3.94147 0
M  V30 43 H 6.1192 -3.18086 -2.82314 0
M  V30 44 N 4.4343 0.785586 -1.36625 0
M  V30 45 C 5.8503 1.08419 -1.17122 0
M  V30 46 C 6.0503 2.015 0.00208491 0
M  V30 47 O 5.1063 2.43551 0.666278 0
M  V30 48 C 6.4193 1.69498 -2.48377 0
M  V30 49 C 7.9673 1.81821 -2.54775 0
M  V30 50 C 8.4423 2.46315 -3.86126 0
M  V30 51 N 9.9333 2.53779 -3.87492 0
M  V30 52 C 10.6683 3.045 -4.85868 0
M  V30 53 N 10.1643 3.55499 -5.94637 0
M  V30 54 N 11.9573 3.03247 -4.73284 0
M  V30 55 H 4.1083 0.167264 -2.1174 0
M  V30 56 H 6.3713 0.13682 -0.938075 0
M  V30 57 H 6.0773 1.08571 -3.34522 0
M  V30 58 H 5.9513 2.6896 -2.64462 0
M  V30 59 H 8.3383 2.41884 -1.69045 0
M  V30 60 H 8.4193 0.811532 -2.42586 0
M  V30 61 H 8.0633 1.86895 -4.72263 0
M  V30 62 H 7.9933 3.47561 -3.95612 0
M  V30 63 H 10.4843 2.17672 -3.08913 0
M  V30 64 H 10.7973 3.92562 -6.65669 0
M  V30 65 H 9.1423 3.5364 -5.98301 0
M  V30 66 H 12.3333 2.62696 -3.87438 0
M  V30 67 H 12.5063 3.42467 -5.50109 0
M  V30 68 N 5.9124 1.20967 1.01018 0
M  V30 69 C 7.1404 1.04956 1.78303 0
M  V30 70 C 7.5554 -0.400915 1.84494 0
M  V30 71 O 6.9124 -1.27826 1.30257 0
M  V30 72 C 6.9634 1.63403 3.22462 0
M  V30 73 O 6.6844 3.02775 3.16637 0
M  V30 74 C 8.1854 1.52432 4.16268 0
M  V30 75 H 5.4054 0.368858 0.560522 0
M  V30 76 H 7.9494 1.60193 1.27116 0
M  V30 77 H 6.1044 1.1227 3.70775 0
M  V30 78 H 6.5184 3.30626 4.07169 0
M  V30 79 H 7.9924 1.98078 5.15237 0
M  V30 80 H 8.4694 0.477875 4.36592 0
M  V30 81 H 9.0754 2.02787 3.73841 0
M  V30 82 N 7.3905 -1.2043 1.01659 0
M  V30 83 C 8.8015 -1.71517 0.737482 0
M  V30 84 C 9.1525 -1.81547 -0.743973 0
M  V30 85 O 8.2775 -1.47803 -1.58061 0
M  V30 86 C 8.8725 -3.11515 1.33206 0
M  V30 87 C 7.4315 -3.59912 1.10183 0
M  V30 88 C 6.5785 -2.37116 1.43776 0
M  V30 89 H 9.5295 -1.05444 1.18606 0
M  V30 90 H 9.5505 -3.73575 0.722636 0
M  V30 91 H 9.0625 -3.04182 2.41028 0
M  V30 92 H 7.1635 -3.72577 0.0412756 0
M  V30 93 H 7.2765 -4.44731 1.78188 0
M  V30 94 H 5.6405 -2.39857 0.856778 0
M  V30 95 H 6.4235 -2.32424 2.52654 0
M  V30 96 N 8.8686 -0.792821 -1.36206 0
M  V30 97 C 9.7986 -0.207853 -2.32573 0
M  V30 98 C 10.7796 0.659055 -1.56813 0
M  V30 99 O 11.9646 0.592176 -1.84951 0
M  V30 100 C 9.0946 0.655449 -3.41059 0
M  V30 101 C 8.0486 -0.111842 -4.27854 0
M  V30 102 C 7.3746 0.872274 -5.27537 0
M  V30 103 C 8.6746 -1.30299 -5.05786 0
M  V30 104 H 10.3686 -1.01294 -2.81744 0
M  V30 105 H 7.9146 -0.48854 -1.3546 0
M  V30 106 H 9.8676 1.07464 -4.07467 0
M  V30 107 H 8.5916 1.49328 -2.90463 0
M  V30 108 H 7.2506 -0.512053 -3.63006 0
M  V30 109 H 6.8986 1.70523 -4.73214 0
M  V30 110 H 6.5986 0.363291 -5.86476 0
M  V30 111 H 8.1226 1.28996 -5.96818 0
M  V30 112 H 9.5366 -0.959379 -5.65216 0
M  V30 113 H 7.9336 -1.7455 -5.74154 0
M  V30 114 H 9.0036 -2.09663 -4.37229 0
M  V30 115 N 10.3467 1.47872 -0.545128 0
M  V30 116 C 11.7577 1.86384 -0.108581 0
M  V30 117 C 12.1087 1.45309 1.31832 0
M  V30 118 O 11.2337 0.850641 1.9898 0
M  V30 119 C 11.8287 3.38265 -0.190274 0
M  V30 120 C 10.3877 3.75914 0.191164 0
M  V30 121 C 9.5347 2.71926 -0.543273 0
M  V30 122 H 12.4857 1.39561 -0.755537 0
M  V30 123 H 12.5067 3.75831 0.594217 0
M  V30 124 H 12.0187 3.6813 -1.2289 0
M  V30 125 H 10.1197 3.51665 1.23136 0
M  V30 126 H 10.2327 4.78836 -0.158987 0
M  V30 127 H 8.5967 2.54697 0.0122495 0
M  V30 128 H 9.3797 3.04634 -1.58282 0
M  V30 129 N 11.8248 0.280983 1.55075 0
M  V30 130 C 13.0528 -0.337293 2.04132 0
M  V30 131 C 13.4678 -1.4903 1.15912 0
M  V30 132 O 12.8248 -1.81606 0.180459 0
M  V30 133 C 12.8758 -0.812706 3.52246 0
M  V30 134 O 12.5968 0.294387 4.3711 0
M  V30 135 C 14.0978 -1.4982 4.17216 0
M  V30 136 H 11.3178 -0.0761638 0.666663 0
M  V30 137 H 13.8618 0.414787 2.00249 0
M  V30 138 H 12.0168 -1.51486 3.56554 0
M  V30 139 H 12.4308 -0.0721325 5.2445 0
M  V30 140 H 13.9048 -1.7822 5.22438 0
M  V30 141 H 14.3818 -2.43168 3.65741 0
M  V30 142 H 14.9878 -0.839742 4.16927 0
M  V30 143 N 13.3029 -1.57598 0.00835791 0
M  V30 144 C 14.5489 -1.91211 -0.675732 0
M  V30 145 C 14.8819 -0.883139 -1.72958 0
M  V30 146 O 14.1569 0.097016 -1.94258 0
M  V30 147 C 14.4399 -3.35379 -1.31123 0
M  V30 148 C 14.2929 -4.48999 -0.268356 0
M  V30 149 C 15.6119 -3.7912 -2.23508 0
M  V30 150 H 12.7309 -0.695374 -0.244179 0
M  V30 151 H 15.3729 -1.89901 0.0613655 0
M  V30 152 H 13.5229 -3.36626 -1.93946 0
M  V30 153 H 15.1949 -4.59887 0.360844 0
M  V30 154 H 13.4379 -4.31873 0.408482 0
M  V30 155 H 14.1089 -5.46851 -0.752218 0
M  V30 156 H 16.5849 -3.79477 -1.70693 0
M  V30 157 H 15.4609 -4.80729 -2.64936 0
M  V30 158 H 15.7219 -3.13455 -3.11766 0
M  V30 159 N 14.781 0.264519 -1.55364 0
M  V30 160 C 15.729 1.34702 -1.89626 0
M  V30 161 C 16.723 1.50712 -0.773459 0
M  V30 162 O 17.929 1.52395 -0.957897 0
M  V30 163 H 14.304 0.450682 -0.601988 0
M  V30 164 H 16.275 1.0306 -2.80038 0
M  V30 165 C 15.024 2.6989 -2.19214 0
M  V30 166 H 14.347 2.58365 -3.05103 0
M  V30 167 H 15.787 3.44553 -2.47102 0
M  V30 168 C 14.246 3.21637 -1.00254 0
M  V30 169 O 14.776 4.00973 -0.241501 0
M  V30 170 N 12.982 2.7943 -0.797938 0
M  V30 171 H 12.529 2.15026 -1.4185 0
M  V30 172 H 12.487 3.144 -0.00363422 0
M  V30 173 N 16.2591 1.48442 0.529413 0
M  V30 174 C 17.1691 1.6569 1.66084 0
M  V30 175 C 18.1851 0.539432 1.65427 0
M  V30 176 O 19.3611 0.810572 1.84368 0
M  V30 177 C 16.4261 1.69315 3.02545 0
M  V30 178 C 15.4871 2.92694 3.14052 0
M  V30 179 C 14.7201 2.96137 4.44003 0
M  V30 180 O 14.9431 2.07973 5.31134 0
M  V30 181 O 13.8771 3.88312 4.59888 0
M  V30 182 H 17.7031 2.61483 1.54469 0
M  V30 183 H 15.2881 1.3185 0.702567 0
M  V30 184 H 17.1701 1.74217 3.83701 0
M  V30 185 H 15.8451 0.766966 3.14483 0
M  V30 186 H 14.7521 2.93324 2.32189 0
M  V30 187 H 16.0851 3.84699 3.0703 0
M  V30 188 N 17.7372 -0.778329 1.37039 0
M  V30 189 C 19.1532 -1.07796 1.17695 0
M  V30 190 C 19.3532 -2.01498 0.00860115 0
M  V30 191 O 18.4092 -2.43901 -0.653352 0
M  V30 192 C 19.7222 -1.68178 2.49272 0
M  V30 193 C 21.2702 -1.80467 2.55735 0
M  V30 194 C 21.7452 -2.44263 3.87427 0
M  V30 195 N 23.2362 -2.51721 3.88833 0
M  V30 196 C 23.9712 -3.01919 4.87476 0
M  V30 197 N 23.4672 -3.5234 5.96513 0
M  V30 198 N 25.2602 -3.00733 4.74885 0
M  V30 199 H 17.4112 -0.156032 2.11826 0
M  V30 200 H 19.6742 -0.131844 0.938787 0
M  V30 201 H 19.3802 -1.06796 3.35093 0
M  V30 202 H 19.2542 -2.67554 2.65885 0
M  V30 203 H 21.6412 -2.40984 1.70325 0
M  V30 204 H 21.7222 -0.798656 2.43013 0
M  V30 205 H 21.3662 -1.84388 4.73248 0
M  V30 206 H 21.2962 -3.45458 3.9745 0
M  V30 207 H 23.7872 -2.1603 3.10063 0
M  V30 208 H 24.1002 -3.89027 6.67741 0
M  V30 209 H 22.4452 -3.50462 6.00168 0
M  V30 210 H 25.6362 -2.60638 3.88826 0
M  V30 211 H 25.8092 -3.39545 5.51918 0
M  V30 212 N 19.2153 -1.21501 -1.00376 0
M  V30 213 C 20.4923 -0.941745 -1.71437 0
M  V30 214 C 20.8723 0.546114 -2.03914 0
M  V30 215 O 20.2203 1.51128 -1.71384 0
M  V30 216 C 20.4303 -1.82812 -2.97289 0
M  V30 217 C 21.7783 -2.07771 -3.70292 0
M  V30 218 O 22.8023 -1.80171 -3.07273 0
M  V30 219 O 21.6613 -2.54456 -4.83647 0
M  V30 220 H 18.7553 -0.353243 -0.747762 0
M  V30 221 H 21.3013 -1.32436 -1.06108 0
M  V30 222 H 20.0733 -2.83501 -2.69709 0
M  V30 223 H 19.6963 -1.4464 -3.70358 0
M  V30 224 N 20.6934 1.19889 -1.02296 0
M  V30 225 C 21.9214 1.9339 -0.735399 0
M  V30 226 C 22.3364 1.75148 0.704887 0
M  V30 227 O 21.6934 1.06954 1.47875 0
M  V30 228 C 21.7444 3.45313 -1.06962 0
M  V30 229 O 21.4654 3.62964 -2.45334 0
M  V30 230 C 22.9664 4.35948 -0.804021 0
M  V30 231 H 20.1864 0.61448 -0.269546 0
M  V30 232 H 22.7304 1.522 -1.36585 0
M  V30 233 H 20.8854 3.84359 -0.484455 0
M  V30 234 H 21.2994 4.56886 -2.57595 0
M  V30 235 H 22.7734 5.41174 -1.0879 0
M  V30 236 H 23.2504 4.3842 0.261691 0
M  V30 237 H 23.8564 4.02574 -1.37164 0
M  V30 238 N 22.1715 0.800033 1.35784 0
M  V30 239 C 23.0815 0.207204 2.33683 0
M  V30 240 C 24.0975 -0.64631 1.61551 0
M  V30 241 O 25.2735 -0.559604 1.93469 0
M  V30 242 C 22.3385 -0.639659 3.40748 0
M  V30 243 C 21.3995 0.233585 4.28664 0
M  V30 244 C 20.6325 -0.572954 5.30616 0
M  V30 245 O 20.8555 -1.80816 5.40982 0
M  V30 246 O 19.7895 0.0327285 6.01891 0
M  V30 247 H 23.6155 1.01692 2.86169 0
M  V30 248 H 21.2005 0.561691 1.38439 0
M  V30 249 H 23.0825 -1.12223 4.06182 0
M  V30 250 H 21.7575 -1.42708 2.90544 0
M  V30 251 H 20.6645 0.763147 3.66233 0
M  V30 252 H 21.9975 0.984784 4.82248 0
M  V30 253 N 23.6496 -1.47581 0.552962 0
M  V30 254 C 24.5976 -2.31648 -0.21023 0
M  V30 255 C 25.5916 -1.42663 -0.913432 0
M  V30 256 O 26.7976 -1.5945 -0.835201 0
M  V30 257 H 23.1726 -0.746989 -0.0866676 0
M  V30 258 H 25.1436 -2.93869 0.518051 0
M  V30 259 C 23.8926 -3.25226 -1.22976 0
M  V30 260 H 23.2156 -3.93658 -0.698077 0
M  V30 261 H 24.6556 -3.86889 -1.73473 0
M  V30 262 C 23.1146 -2.48448 -2.27542 0
M  V30 263 O 23.6446 -2.22585 -3.34393 0
M  V30 264 N 21.8506 -2.09532 -2.01357 0
M  V30 265 H 21.3976 -2.30765 -1.14478 0
M  V30 266 H 21.3556 -1.58476 -2.71538 0
M  V30 267 N 25.1277 -0.289203 -1.54924 0
M  V30 268 C 26.0777 0.606939 -2.19773 0
M  V30 269 C 27.0617 1.10783 -1.16687 0
M  V30 270 O 28.2537 1.05057 -1.4245 0
M  V30 271 C 25.3827 1.78398 -2.93307 0
M  V30 272 C 24.4687 1.29961 -4.03697 0
M  V30 273 N 24.8597 0.532377 -5.0299 0
M  V30 274 C 23.1577 1.58136 -4.17024 0
M  V30 275 C 23.8587 0.275912 -5.81045 0
M  V30 276 N 22.8347 0.852365 -5.36876 0
M  V30 277 H 26.6367 0.0130779 -2.93897 0
M  V30 278 H 24.1507 -0.09341 -1.62131 0
M  V30 279 H 26.1477 2.43741 -3.38225 0
M  V30 280 H 24.8077 2.38166 -2.20697 0
M  V30 281 H 25.8187 0.17838 -5.17593 0
M  V30 282 H 22.4957 2.18738 -3.55612 0
M  V30 283 H 23.8857 -0.339502 -6.71042 0
M  V30 284 N 26.6058 1.57591 -0.0167156 0
M  V30 285 C 27.8338 1.95575 0.675128 0
M  V30 286 C 28.2488 0.892542 1.6637 0
M  V30 287 O 27.6058 -0.126912 1.82058 0
M  V30 288 C 27.6568 3.33608 1.39239 0
M  V30 289 O 27.3778 4.3585 0.443444 0
M  V30 290 C 28.8788 3.86151 2.17721 0
M  V30 291 H 26.0988 0.644423 0.186978 0
M  V30 292 H 28.6428 2.0437 -0.0728 0
M  V30 293 H 26.7978 3.2607 2.09182 0
M  V30 294 H 27.2118 5.158 0.951358 0
M  V30 295 H 28.6858 4.85114 2.63379 0
M  V30 296 H 29.1628 3.19738 3.01105 0
M  V30 297 H 29.7688 3.96918 1.52761 0
M  V30 298 N 28.0839 -0.256276 1.55502 0
M  V30 299 C 29.3089 -1.00766 1.81276 0
M  V30 300 C 29.7339 -1.78524 0.59252 0
M  V30 301 O 29.0919 -1.75413 -0.45827 0
M  V30 302 C 29.1399 -1.92869 3.04687 0
M  V30 303 O 28.2439 -3.019 2.80945 0
M  V30 304 H 27.5849 -0.287224 0.598664 0
M  V30 305 H 30.1149 -0.280109 2.02674 0
M  V30 306 H 30.1249 -2.34511 3.33869 0
M  V30 307 H 28.7999 -1.35689 3.93143 0
M  V30 308 H 27.3769 -2.64454 2.62904 0
M  V30 309 N 29.562 -1.4872 -0.521534 0
M  V30 310 C 30.512 -1.60269 -1.62166 0
M  V30 311 C 31.496 -0.45935 -1.54204 0
M  V30 312 O 32.688 -0.711241 -1.62081 0
M  V30 313 C 29.817 -1.65344 -3.00859 0
M  V30 314 C 28.903 -2.85187 -3.13894 0
M  V30 315 N 29.294 -4.09509 -2.96877 0
M  V30 316 C 27.592 -2.82695 -3.44963 0
M  V30 317 C 28.293 -4.89959 -3.13552 0
M  V30 318 N 27.269 -4.22934 -3.41508 0
M  V30 319 H 31.071 -2.5413 -1.47632 0
M  V30 320 H 28.585 -1.45209 -0.727194 0
M  V30 321 H 30.582 -1.71713 -3.79895 0
M  V30 322 H 29.242 -0.726058 -3.16478 0
M  V30 323 H 30.253 -4.39814 -2.73467 0
M  V30 324 H 26.93 -1.99249 -3.66887 0
M  V30 325 H 28.32 -5.98654 -3.05061 0
M  V30 326 N 31.0401 0.771051 -1.3745 0
M  V30 327 C 32.2881 1.52661 -1.32435 0
M  V30 328 C 32.6091 1.9479 0.0905024 0
M  V30 329 O 31.8791 1.66348 1.03466 0
M  V30 330 H 30.4591 0.566218 -0.487244 0
M  V30 331 H 33.1211 0.917636 -1.71946 0
M  V30 332 H 32.2171 2.42568 -1.96385 0
M  V30 333 N 32.5182 1.22032 0.997298 0
M  V30 334 C 33.7952 0.950823 1.70935 0
M  V30 335 C 34.1752 -0.535292 2.042 0
M  V30 336 O 33.5232 -1.50217 1.72183 0
M  V30 337 C 33.7332 1.84386 2.96315 0
M  V30 338 C 35.0812 2.09732 3.69185 0
M  V30 339 O 36.1052 1.81798 3.06314 0
M  V30 340 O 34.9642 2.57018 4.82291 0
M  V30 341 H 32.0582 0.357204 0.745878 0
M  V30 342 H 34.6042 1.32997 1.05404 0
M  V30 343 H 33.3762 2.84928 2.68201 0
M  V30 344 H 32.9992 1.46602 3.69586 0
M  V30 345 N 33.9963 -1.19345 1.0293 0
M  V30 346 C 35.2443 -1.88665 0.724574 0
M  V30 347 C 35.5653 -1.80036 -0.749144 0
M  V30 348 O 34.8353 -1.2111 -1.53978 0
M  V30 349 H 33.4153 -0.698406 0.265025 0
M  V30 350 H 36.0773 -1.44885 1.30362 0
M  V30 351 H 35.1733 -2.94987 1.01926 0
M  V30 352 N 35.4744 -0.807222 -1.35358 0
M  V30 353 C 36.8904 -0.491038 -1.51858 0
M  V30 354 C 37.0904 0.987648 -1.75635 0
M  V30 355 O 36.1464 1.77265 -1.79815 0
M  V30 356 C 37.4594 -1.33695 -2.69344 0
M  V30 357 C 39.0074 -1.33246 -2.83222 0
M  V30 358 C 39.4824 -2.1625 -4.03733 0
M  V30 359 N 40.9734 -2.1379 -4.10911 0
M  V30 360 C 41.7084 -2.74772 -5.03277 0
M  V30 361 N 41.2044 -3.44684 -6.0097 0
M  V30 362 N 42.9974 -2.6441 -4.96028 0
M  V30 363 H 35.1484 -1.76485 -1.18181 0
M  V30 364 H 37.4114 -0.751199 -0.578276 0
M  V30 365 H 37.1174 -2.38634 -2.58354 0
M  V30 366 H 36.9914 -0.990618 -3.6396 0
M  V30 367 H 39.3784 -0.290911 -2.93663 0
M  V30 368 H 39.4594 -1.71866 -1.89461 0
M  V30 369 H 39.1034 -3.20445 -3.94052 0
M  V30 370 H 39.0334 -1.74989 -4.96675 0
M  V30 371 H 41.5244 -1.62923 -3.40976 0
M  V30 372 H 41.8374 -3.88501 -6.68047 0
M  V30 373 H 40.1824 -3.48788 -6.01142 0
M  V30 374 H 43.3734 -2.0938 -4.18662 0
M  V30 375 H 43.5464 -3.12225 -5.6782 0
M  V30 376 N 36.9525 1.47285 -0.560781 0
M  V30 377 C 37.8845 2.28118 0.222438 0
M  V30 378 C 38.8975 1.37219 0.876056 0
M  V30 379 O 40.0865 1.62011 0.749307 0
M  V30 380 C 37.1865 3.1159 1.33285 0
M  V30 381 C 36.3595 4.30473 0.77534 0
M  V30 382 C 35.4185 4.95513 1.77069 0
M  V30 383 O 34.4445 5.53792 1.31539 0
M  V30 384 N 35.6465 4.90531 3.10418 0
M  V30 385 H 38.4115 2.95976 -0.470958 0
M  V30 386 H 35.9725 1.56955 -0.39709 0
M  V30 387 H 37.9645 3.51967 1.99752 0
M  V30 388 H 36.5345 2.45951 1.92943 0
M  V30 389 H 35.7545 3.94144 -0.0662113 0
M  V30 390 H 37.0425 5.07362 0.382272 0
M  V30 391 H 36.4405 4.44389 3.5005 0
M  V30 392 H 34.9975 5.34917 3.72434 0
M  V30 393 N 38.4306 0.297415 1.54768 0
M  V30 394 C 39.3406 -0.58983 2.27064 0
M  V30 395 C 40.3566 -1.15144 1.30453 0
M  V30 396 O 41.5326 -1.17699 1.63428 0
M  V30 397 C 38.5976 -1.74714 2.9946 0
M  V30 398 C 37.6586 -1.21997 4.11601 0
M  V30 399 C 36.8916 -2.32212 4.80535 0
M  V30 400 O 37.1146 -3.52036 4.48806 0
M  V30 401 O 36.0486 -1.99106 5.68014 0
M  V30 402 H 39.8746 -0.00348199 3.037 0
M  V30 403 H 37.4596 0.0640035 1.49263 0
M  V30 404 H 39.3416 -2.42147 3.44881 0
M  V30 405 H 38.0166 -2.32016 2.25722 0
M  V30 406 H 36.9236 -0.511458 3.70587 0
M  V30 407 H 38.2566 -0.692419 4.87305 0
M  V30 408 N 39.9087 -1.5758 0.0250728 0
M  V30 409 C 41.1547 -1.91917 -0.655413 0
M  V30 410 C 41.4877 -0.901433 -1.72011 0
M  V30 411 O 40.7627 0.0764069 -1.9435 0
M  V30 412 C 41.0457 -3.36751 -1.27558 0
M  V30 413 C 40.8987 -4.49258 -0.220719 0
M  V30 414 C 42.2177 -3.81469 -2.19475 0
M  V30 415 H 39.3367 -0.697925 -0.23679 0
M  V30 416 H 41.9787 -1.89825 0.0815036 0
M  V30 417 H 40.1287 -3.38664 -1.90365 0
M  V30 418 H 41.8007 -4.59478 0.409601 0
M  V30 419 H 40.0437 -4.31415 0.454264 0
M  V30 420 H 40.7147 -5.47618 -0.694175 0
M  V30 421 H 43.1907 -3.81266 -1.66659 0
M  V30 422 H 42.0667 -4.83512 -2.59822 0
M  V30 423 H 42.3277 -3.16744 -3.08424 0
M  V30 424 N 41.3868 0.248026 -1.55636 0
M  V30 425 C 42.6148 0.993808 -1.81469 0
M  V30 426 C 43.0298 1.78991 -0.60064 0
M  V30 427 O 42.3868 1.77345 0.430682 0
M  V30 428 C 42.4378 1.93258 -3.05506 0
M  V30 429 O 42.1588 1.16869 -4.22224 0
M  V30 430 C 43.6598 2.79444 -3.4413 0
M  V30 431 H 40.8798 0.292486 -0.603898 0
M  V30 432 H 43.4238 0.271253 -2.02693 0
M  V30 433 H 41.5788 2.60943 -2.86335 0
M  V30 434 H 41.9928 1.80359 -4.92515 0
M  V30 435 H 43.4668 3.41066 -4.34026 0
M  V30 436 H 43.9438 3.50499 -2.64665 0
M  V30 437 H 44.5498 2.17214 -3.65648 0
M  V30 438 N 42.8649 1.48995 0.513639 0
M  V30 439 C 44.0899 1.61792 1.29762 0
M  V30 440 C 44.5149 0.284475 1.85936 0
M  V30 441 O 43.8729 -0.746185 1.65232 0
M  V30 442 C 43.9209 2.67993 2.41272 0
M  V30 443 O 43.0249 2.26287 3.44772 0
M  V30 444 H 42.3659 0.541963 0.38363 0
M  V30 445 H 44.8959 1.95097 0.616307 0
M  V30 446 H 44.9059 2.89772 2.87221 0
M  V30 447 H 43.5809 3.64791 1.9975 0
M  V30 448 H 42.1579 2.14788 3.04829 0
M  V30 449 N 44.343 -0.763751 1.37857 0
M  V30 450 C 45.759 -1.06542 1.18832 0
M  V30 451 C 45.959 -2.01478 0.0299722 0
M  V30 452 O 45.015 -2.4458 -0.627447 0
M  V30 453 C 46.328 -1.65525 2.51042 0
M  V30 454 C 47.876 -1.77745 2.57635 0
M  V30 455 C 48.351 -2.4014 3.89996 0
M  V30 456 N 49.842 -2.47582 3.91481 0
M  V30 457 C 50.577 -2.96732 4.9065 0
M  V30 458 N 50.073 -3.45993 6.00217 0
M  V30 459 N 51.866 -2.95679 4.78048 0
M  V30 460 H 44.017 -0.133556 2.1198 0
M  V30 461 H 46.28 -0.121879 0.940133 0
M  V30 462 H 45.986 -1.03236 3.36207 0
M  V30 463 H 45.86 -2.64719 2.68707 0
M  V30 464 H 48.247 -2.39164 1.72872 0
M  V30 465 H 48.328 -0.772836 2.43846 0
M  V30 466 H 47.972 -1.79358 4.75177 0
M  V30 467 H 47.902 -3.41223 4.01092 0
M  V30 468 H 50.393 -2.1273 3.12337 0
M  V30 469 H 50.706 -3.81922 6.7183 0
M  V30 470 H 49.051 -3.44077 6.03851 0
M  V30 471 H 52.242 -2.56499 3.91568 0
M  V30 472 H 52.415 -3.33672 5.55488 0
M  V30 473 N 45.8211 -1.22559 -0.990812 0
M  V30 474 C 47.0491 -1.07779 -1.76611 0
M  V30 475 C 47.4641 0.371513 -1.85109 0
M  V30 476 O 46.8211 1.25737 -1.32274 0
M  V30 477 C 46.8721 -1.68512 -3.19822 0
M  V30 478 O 46.5931 -3.07774 -3.1178 0
M  V30 479 C 48.0941 -1.59035 -4.13791 0
M  V30 480 H 45.3141 -0.377729 -0.554583 0
M  V30 481 H 47.8581 -1.62195 -1.24551 0
M  V30 482 H 46.0131 -1.18154 -3.68942 0
M  V30 483 H 46.4271 -3.37062 -4.01858 0
M  V30 484 H 47.9011 -2.0625 -5.1202 0
M  V30 485 H 48.3781 -0.547273 -4.35777 0
M  V30 486 H 48.9841 -2.08709 -3.70568 0
M  V30 487 N 47.2992 1.18797 -1.03562 0
M  V30 488 C 48.5242 1.9314 -0.755764 0
M  V30 489 C 48.9492 1.7537 0.68022 0
M  V30 490 O 48.3072 1.06046 1.47051 0
M  V30 491 C 48.3552 3.42747 -1.12058 0
M  V30 492 O 47.4592 4.11683 -0.243124 0
M  V30 493 H 46.8002 0.602724 -0.278604 0
M  V30 494 H 49.3302 1.50678 -1.3841 0
M  V30 495 H 49.3402 3.93437 -1.08035 0
M  V30 496 H 48.0152 3.55002 -2.16672 0
M  V30 497 H 46.5922 3.71323 -0.342539 0
M  V30 498 N 48.7773 0.814389 1.34928 0
M  V30 499 C 50.1933 0.499084 1.51596 0
M  V30 500 C 50.3933 -0.978319 1.76157 0
M  V30 501 O 49.4493 -1.76309 1.80752 0
M  V30 502 C 50.7623 1.35121 2.68631 0
M  V30 503 C 52.3103 1.34746 2.82511 0
M  V30 504 C 52.7853 2.18388 4.0258 0
M  V30 505 N 54.2763 2.15966 4.09772 0
M  V30 506 C 55.0113 2.77437 5.01813 0
M  V30 507 N 54.5073 3.47866 5.99134 0
M  V30 508 N 56.3003 2.67037 4.94619 0
M  V30 509 H 48.4513 1.7711 1.17243 0
M  V30 510 H 50.7143 0.754256 0.574284 0
M  V30 511 H 50.4203 2.40001 2.57085 0
M  V30 512 H 50.2943 1.00991 3.63429 0
M  V30 513 H 52.6813 0.30648 2.93504 0
M  V30 514 H 52.7623 1.72869 1.88547 0
M  V30 515 H 52.4063 3.2253 3.92347 0
M  V30 516 H 52.3363 1.77621 4.9574 0
M  V30 517 H 54.8273 1.64729 3.40107 0
M  V30 518 H 55.1403 3.92038 6.65977 0
M  V30 519 H 53.4853 3.51972 5.99284 0
M  V30 520 H 56.6763 2.11597 4.17546 0
M  V30 521 H 56.8493 3.15232 5.66156 0
M  V30 522 N 50.2554 -1.46986 0.568584 0
M  V30 523 C 51.4804 -2.07335 0.0520528 0
M  V30 524 C 51.9054 -1.41675 -1.23733 0
M  V30 525 O 51.2634 -0.495623 -1.74394 0
M  V30 526 C 51.3114 -3.60417 -0.11501 0
M  V30 527 O 50.4154 -3.95309 -1.17492 0
M  V30 528 H 49.7564 -0.661597 0.0564385 0
M  V30 529 H 52.2864 -1.88837 0.787507 0
M  V30 530 H 52.2964 -4.06698 -0.325644 0
M  V30 531 H 50.9714 -4.07601 0.826675 0
M  V30 532 H 49.5484 -3.60757 -0.943869 0
M  V30 533 N 51.7335 -0.305618 -1.54608 0
M  V30 534 C 52.9815 0.301701 -1.99835 0
M  V30 535 C 53.3025 1.54054 -1.19551 0
M  V30 536 O 52.5725 1.93702 -0.292658 0
M  V30 537 H 51.1525 0.114468 -0.738178 0
M  V30 538 H 53.8145 -0.418016 -1.90364 0
M  V30 539 H 52.9105 0.570548 -3.06841 0
M  V30 540 N 53.2116 1.57565 -0.0334293 0
M  V30 541 C 54.1746 2.09393 0.932048 0
M  V30 542 C 55.1746 1.00986 1.25134 0
M  V30 543 O 56.3646 1.27129 1.19096 0
M  V30 544 C 53.4966 2.56338 2.2473 0
M  V30 545 H 54.6896 2.95984 0.483085 0
M  V30 546 H 52.2426 1.54819 0.21468 0
M  V30 547 H 52.9776 1.7309 2.74245 0
M  V30 548 H 52.7626 3.35542 2.02865 0
M  V30 549 H 54.2526 2.96646 2.93923 0
M  V30 550 N 54.6897 -0.239769 1.55765 0
M  V30 551 C 56.1057 -0.588624 1.48349 0
M  V30 552 C 56.3057 -1.88005 0.72502 0
M  V30 553 O 55.3617 -2.51186 0.257269 0
M  V30 554 C 56.6747 -0.68474 2.928 0
M  V30 555 C 58.2227 -0.77659 3.03213 0
M  V30 556 C 58.6977 -0.904207 4.48986 0
M  V30 557 N 60.1887 -0.968896 4.52953 0
M  V30 558 C 60.9237 -1.08703 5.63002 0
M  V30 559 N 60.4197 -1.17026 6.82845 0
M  V30 560 N 62.2127 -1.12074 5.50814 0
M  V30 561 H 54.3637 0.607911 2.03515 0
M  V30 562 H 56.6267 0.21083 0.924259 0
M  V30 563 H 56.3327 0.194284 3.51163 0
M  V30 564 H 56.2067 -1.55435 3.43686 0
M  V30 565 H 58.5937 -1.64606 2.44926 0
M  V30 566 H 58.6747 0.118315 2.55526 0
M  V30 567 H 58.3187 -0.0392633 5.07885 0
M  V30 568 H 58.2487 -1.81426 4.9436 0
M  V30 569 H 60.7397 -0.915633 3.6664 0
M  V30 570 H 61.0527 -1.25966 7.62465 0
M  V30 571 H 59.3977 -1.13971 6.85591 0
M  V30 572 H 62.5887 -1.05226 4.5612 0
M  V30 573 H 62.7617 -1.20936 6.36615 0
M  V30 574 N 56.1678 -1.49265 -0.50573 0
M  V30 575 C 57.4078 -1.60128 -1.27038 0
M  V30 576 C 57.7718 -0.279557 -1.89954 0
M  V30 577 O 58.9728 -0.263329 -2.67507 0
M  V30 578 C 57.2438 -2.72507 -2.31246 0
M  V30 579 S 58.8028 -3.0329 -3.17113 0
M  V30 580 H 55.6208 -0.564863 -0.4318 0
M  V30 581 H 58.2228 -1.86902 -0.573397 0
M  V30 582 H 56.9268 -3.67068 -1.83546 0
M  V30 583 H 56.4578 -2.4771 -3.05619 0
M  V30 584 H 58.4728 -2.44448 -4.31809 0
M  V30 585 N 57.6459 0.756429 -1.3826 0
M  V30 586 C 59.0619 1.0591 -1.19395 0
M  V30 587 C 59.2619 2.01459 -0.0406567 0
M  V30 588 O 58.3179 2.44909 0.614467 0
M  V30 589 C 59.6309 1.64191 -2.51916 0
M  V30 590 C 61.1789 1.76376 -2.58574 0
M  V30 591 C 61.6539 2.38069 -3.91264 0
M  V30 592 N 63.1449 2.45503 -3.92788 0
M  V30 593 C 63.8799 2.94126 -4.92217 0
M  V30 594 N 63.3759 3.42805 -6.02043 0
M  V30 595 N 65.1689 2.9314 -4.7961 0
M  V30 596 H 57.3199 0.122313 -2.12048 0
M  V30 597 H 59.5829 0.116892 -0.940766 0
M  V30 598 H 59.2889 1.01451 -3.3675 0
M  V30 599 H 59.1629 2.6329 -2.70108 0
M  V30 600 H 61.5499 2.38244 -1.74137 0
M  V30 601 H 61.6309 0.759894 -2.44252 0
M  V30 602 H 61.2749 1.76835 -4.76121 0
M  V30 603 H 61.2049 3.39091 -4.02895 0
M  V30 604 H 63.6959 2.1107 -3.13461 0
M  V30 605 H 64.0089 3.78354 -6.73846 0
M  V30 606 H 62.3539 3.4087 -6.05667 0
M  V30 607 H 65.5449 2.54419 -3.92923 0
M  V30 608 H 65.7179 3.30721 -5.5725 0
M  V30 609 N 59.124 1.23083 0.984299 0
M  V30 610 C 60.072 1.00593 2.09723 0
M  V30 611 C 61.066 -0.0538014 1.69315 0
M  V30 612 O 62.272 0.0993719 1.79725 0
M  V30 613 H 58.647 0.30817 0.685956 0
M  V30 614 H 60.618 1.95012 2.2586 0
M  V30 615 C 59.367 0.609601 3.42314 0
M  V30 616 H 58.69 1.41675 3.73856 0
M  V30 617 H 60.13 0.491726 4.21139 0
M  V30 618 C 58.589 -0.681745 3.2993 0
M  V30 619 O 59.119 -1.73192 3.62446 0
M  V30 620 N 57.325 -0.656178 2.83095 0
M  V30 621 H 56.872 0.198759 2.56832 0
M  V30 622 H 56.83 -1.52044 2.75191 0
M  V30 623 N 60.6021 -1.18246 1.0419 0
M  V30 624 C 61.8271 -1.92736 0.765996 0
M  V30 625 C 62.2521 -1.75728 -0.67091 0
M  V30 626 O 61.6101 -1.06825 -1.46486 0
M  V30 627 C 61.6581 -3.42148 1.13875 0
M  V30 628 O 60.7621 -4.11548 0.264954 0
M  V30 629 H 60.1031 -0.601238 0.281797 0
M  V30 630 H 62.6331 -1.49942 1.39207 0
M  V30 631 H 62.6431 -3.92858 1.1012 0
M  V30 632 H 61.3181 -3.53848 2.18551 0
M  V30 633 H 59.8951 -3.71137 0.362226 0
M  V30 634 N 62.0802 -0.821533 -1.34494 0
M  V30 635 C 63.3292 -0.405355 -1.97585 0
M  V30 636 C 63.6422 1.03677 -1.65863 0
M  V30 637 O 64.8482 1.55679 -2.22433 0
M  V30 638 C 63.3042 -0.673861 -3.53535 0
M  V30 639 C 62.9122 -2.12951 -3.94152 0
M  V30 640 C 64.6562 -0.32378 -4.23263 0
M  V30 641 C 62.5632 -2.34298 -5.43009 0
M  V30 642 H 61.4932 -0.147836 -0.739365 0
M  V30 643 H 64.1442 -1.00769 -1.53355 0
M  V30 644 H 62.5262 -0.00137554 -3.96 0
M  V30 645 H 63.7002 -2.84104 -3.62797 0
M  V30 646 H 62.0152 -2.44089 -3.37356 0
M  V30 647 H 64.6122 -0.461126 -5.32708 0
M  V30 648 H 64.9552 0.731586 -4.09821 0
M  V30 649 H 65.4882 -0.950786 -3.8627 0
M  V30 650 H 62.2272 -3.38335 -5.61435 0
M  V30 651 H 61.7472 -1.67687 -5.75883 0
M  V30 652 H 63.4262 -2.16588 -6.09671 0
M  V30 653 N 63.5583 1.46682 -0.576371 0
M  V30 654 C 64.5213 2.28707 0.150239 0
M  V30 655 C 65.5213 1.38035 0.824794 0
M  V30 656 O 66.7113 1.60476 0.677719 0
M  V30 657 C 63.8433 3.18248 1.22192 0
M  V30 658 H 65.0363 2.94423 -0.570521 0
M  V30 659 H 62.5893 1.52688 -0.334078 0
M  V30 660 H 63.3243 2.57265 1.97447 0
M  V30 661 H 63.1093 3.85 0.742812 0
M  V30 662 H 64.5993 3.80001 1.73172 0
M  V30 663 N 65.0364 0.313813 1.54444 0
M  V30 664 C 66.2614 -0.296681 2.05267 0
M  V30 665 C 66.6864 -1.45757 1.18897 0
M  V30 666 O 66.0444 -1.80239 0.195886 0
M  V30 667 C 66.0924 -0.71831 3.53373 0
M  V30 668 O 65.1964 -1.82175 3.69981 0
M  V30 669 H 64.5374 -0.0554061 0.661684 0
M  V30 670 H 67.0674 0.459387 1.99376 0
M  V30 671 H 67.0774 -1.00364 3.95463 0
M  V30 672 H 65.7524 0.130821 4.15694 0
M  V30 673 H 64.3294 -1.53598 3.39797 0
M  V30 674 N 66.5145 -1.57545 0.0417849 0
M  V30 675 C 67.7545 -1.94185 -0.63809 0
M  V30 676 C 68.1185 -0.919339 -1.68559 0
M  V30 677 O 69.3195 -1.17236 -2.41886 0
M  V30 678 C 67.5905 -3.35672 -1.22714 0
M  V30 679 S 69.1495 -3.94256 -1.92633 0
M  V30 680 H 65.9675 -0.679353 -0.209764 0
M  V30 681 H 68.5695 -1.95199 0.108479 0
M  V30 682 H 67.2735 -4.07898 -0.452503 0
M  V30 683 H 66.8045 -3.38132 -2.01073 0
M  V30 684 H 68.8195 -3.7872 -3.20602 0
M  V30 685 N 67.9926 0.231505 -1.5589 0
M  V30 686 C 68.9556 1.27028 -1.90779 0
M  V30 687 C 69.9556 1.40308 -0.785507 0
M  V30 688 O 71.1456 1.38744 -1.05336 0
M  V30 689 C 68.2776 2.64566 -2.14983 0
M  V30 690 H 69.4706 0.973017 -2.83677 0
M  V30 691 H 67.0236 0.471486 -1.49019 0
M  V30 692 H 67.7586 2.99406 -1.24604 0
M  V30 693 H 67.5436 2.56305 -2.96732 0
M  V30 694 H 69.0336 3.39543 -2.43105 0
M  V30 695 N 69.4707 1.49531 0.497807 0
M  V30 696 C 70.7477 1.49682 1.25915 0
M  V30 697 C 71.1277 0.226339 2.09883 0
M  V30 698 O 70.4757 -0.791189 2.14365 0
M  V30 699 C 70.6857 2.77755 2.11313 0
M  V30 700 C 72.0337 3.27371 2.70395 0
M  V30 701 O 73.0577 2.78894 2.21578 0
M  V30 702 O 71.9167 4.11808 3.59272 0
M  V30 703 H 69.0107 0.599228 0.56996 0
M  V30 704 H 71.5567 1.61798 0.511816 0
M  V30 705 H 70.3287 3.61713 1.49264 0
M  V30 706 H 69.9517 2.68515 2.93233 0
M  V30 707 N 70.9488 -0.749086 1.3866 0
M  V30 708 C 71.8588 -1.89358 1.38494 0
M  V30 709 C 72.8748 -1.71708 0.281476 0
M  V30 710 O 74.0508 -1.94554 0.520643 0
M  V30 711 C 71.1158 -3.24782 1.21316 0
M  V30 712 C 70.1768 -3.54926 2.41508 0
M  V30 713 C 69.4098 -4.83888 2.2514 0
M  V30 714 O 69.6328 -5.56592 1.24746 0
M  V30 715 O 68.5668 -5.13612 3.13826 0
M  V30 716 H 72.3928 -1.92452 2.34938 0
M  V30 717 H 69.9778 -0.894981 1.19626 0
M  V30 718 H 71.8598 -4.05739 1.13814 0
M  V30 719 H 70.5348 -3.2249 0.279592 0
M  V30 720 H 69.4418 -2.74112 2.54585 0
M  V30 721 H 70.7748 -3.61983 3.3351 0
M  V30 722 N 72.4269 -1.23603 -0.977757 0
M  V30 723 C 73.3589 -0.977369 -2.07317 0
M  V30 724 C 74.3719 0.0495845 -1.62724 0
M  V30 725 O 75.5609 -0.186261 -1.77526 0
M  V30 726 C 72.6609 -0.451216 -3.35883 0
M  V30 727 C 71.8339 -1.53896 -4.09432 0
M  V30 728 C 70.8929 -1.01721 -5.16274 0
M  V30 729 O 69.9189 -1.70676 -5.43009 0
M  V30 730 N 71.1209 0.153594 -5.80297 0
M  V30 731 H 73.8859 -1.92047 -2.30082 0
M  V30 732 H 71.4469 -1.14497 -1.14465 0
M  V30 733 H 73.4389 -0.0871574 -4.04606 0
M  V30 734 H 72.0089 0.397368 -3.10064 0
M  V30 735 H 71.2289 -2.07566 -3.35127 0
M  V30 736 H 72.5169 -2.27037 -4.55337 0
M  V30 737 H 71.9149 0.730323 -5.60966 0
M  V30 738 H 70.4719 0.458892 -6.50183 0
M  V30 739 N 73.905 1.17692 -1.04816 0
M  V30 740 C 75.316 1.69501 -0.782698 0
M  V30 741 C 75.667 1.83456 0.695577 0
M  V30 742 O 74.792 1.51942 1.54086 0
M  V30 743 C 75.387 3.07874 -1.41419 0
M  V30 744 C 73.946 3.56864 -1.19686 0
M  V30 745 C 73.093 2.3322 -1.50012 0
M  V30 746 H 76.044 1.02262 -1.2136 0
M  V30 747 H 76.065 3.71528 -0.821428 0
M  V30 748 H 75.577 2.97685 -2.49009 0
M  V30 749 H 73.678 3.72337 -0.140043 0
M  V30 750 H 73.791 4.39851 -1.89916 0
M  V30 751 H 72.155 2.37501 -0.920071 0
M  V30 752 H 72.938 2.25644 -2.58727 0
M  V30 753 N 75.3831 0.828654 1.34056 0
M  V30 754 C 76.3331 0.226828 2.26869 0
M  V30 755 C 77.3171 -0.612243 1.48796 0
M  V30 756 O 78.5091 -0.465884 1.70759 0
M  V30 757 C 75.6381 -0.605654 3.37915 0
M  V30 758 C 74.7241 0.244361 4.23395 0
M  V30 759 N 75.1151 1.31815 4.88322 0
M  V30 760 C 73.4131 0.0296616 4.4599 0
M  V30 761 C 74.1141 1.83895 5.51867 0
M  V30 762 N 73.0901 1.14196 5.3147 0
M  V30 763 H 76.8921 1.04811 2.74576 0
M  V30 764 H 74.4061 0.67205 1.47842 0
M  V30 765 H 76.4031 -1.05302 4.03382 0
M  V30 766 H 75.0631 -1.42504 2.91758 0
M  V30 767 H 76.0741 1.70099 4.8917 0
M  V30 768 H 72.7511 -0.757097 4.10578 0
M  V30 769 H 74.1411 2.7376 6.136 0
M  V30 770 N 76.8612 -1.46375 0.584142 0
M  V30 771 C 78.1102 -2.01585 0.0679741 0
M  V30 772 C 78.4232 -1.46109 -1.30045 0
M  V30 773 O 79.6292 -1.93148 -1.90804 0
M  V30 774 C 78.0852 -3.5983 0.0709207 0
M  V30 775 C 77.6932 -4.24303 1.43775 0
M  V30 776 C 79.4372 -4.22693 -0.391228 0
M  V30 777 C 77.3442 -5.74631 1.39834 0
M  V30 778 H 76.2742 -0.753689 0.0216421 0
M  V30 779 H 78.9252 -1.68093 0.736001 0
M  V30 780 H 77.3072 -3.90405 -0.663299 0
M  V30 781 H 78.4812 -4.05335 2.19181 0
M  V30 782 H 76.7962 -3.73539 1.84004 0
M  V30 783 H 79.3932 -5.3289 -0.439524 0
M  V30 784 H 79.7362 -3.91728 -1.40906 0
M  V30 785 H 80.2692 -3.96749 0.288974 0
M  V30 786 H 77.0082 -6.10258 2.39303 0
M  V30 787 H 76.5282 -5.95858 0.686505 0
M  V30 788 H 78.2072 -6.37375 1.11187 0
M  V30 789 N 78.3393 -0.321999 -1.54275 0
M  V30 790 C 79.5873 0.280489 -2.00144 0
M  V30 791 C 79.9083 1.52777 -1.21178 0
M  V30 792 O 79.1783 1.9338 -0.313187 0
M  V30 793 H 77.7583 0.106632 -0.73935 0
M  V30 794 H 80.4203 -0.438184 -1.8991 0
M  V30 795 H 79.5163 0.537972 -3.07428 0
M  V30 796 N 79.8174 1.5752 -0.0501392 0
M  V30 797 C 80.7654 2.12651 0.942459 0
M  V30 798 C 81.7594 1.05807 1.32292 0
M  V30 799 O 82.9654 1.24217 1.3027 0
M  V30 800 H 79.3404 0.679673 0.321789 0
M  V30 801 H 81.3114 2.94951 0.452356 0
M  V30 802 C 80.0604 2.68565 2.20836 0
M  V30 803 H 79.3834 3.50439 1.92439 0
M  V30 804 H 80.8234 3.10761 2.8845 0
M  V30 805 C 79.2824 1.62291 2.95234 0
M  V30 806 O 79.8124 1.03508 3.88135 0
M  V30 807 N 78.0184 1.33836 2.57946 0
M  V30 808 H 77.5654 1.81826 1.82475 0
M  V30 809 H 77.5234 0.629595 3.08032 0
M  V30 810 N 81.2955 -0.223234 1.56011 0
M  V30 811 C 82.5255 -0.963413 1.82762 0
M  V30 812 C 82.9335 -1.78516 0.626804 0
M  V30 813 O 82.2765 -1.78974 -0.414014 0
M  V30 814 C 82.3385 -1.93126 3.0322 0
M  V30 815 C 82.0025 -1.2942 4.38291 0
M  V30 816 C 82.9995 -0.684916 5.15369 0
M  V30 817 C 80.6845 -1.30647 4.85012 0
M  V30 818 C 82.6785 -0.0963971 6.37327 0
M  V30 819 C 80.3655 -0.71411 6.06913 0
M  V30 820 C 81.3635 -0.110123 6.82911 0
M  V30 821 O 81.0515 0.47303 8.02507 0
M  V30 822 H 80.7835 -0.288011 0.611576 0
M  V30 823 H 83.3375 -0.244103 2.03944 0
M  V30 824 H 81.5675 -2.68952 2.77852 0
M  V30 825 H 83.2565 -2.53685 3.16857 0
M  V30 826 H 84.0225 -0.667774 4.80381 0
M  V30 827 H 79.9015 -1.76598 4.25833 0
M  V30 828 H 83.4455 0.375657 6.96588 0
M  V30 829 H 79.3425 -0.728659 6.41374 0
M  V30 830 H 80.1105 0.367186 8.17676 0
M  V30 831 N 82.7736 -1.49793 -0.48987 0
M  V30 832 C 84.1896 -1.36803 -0.822022 0
M  V30 833 C 84.3896 -0.409652 -1.97292 0
M  V30 834 O 83.4456 0.154614 -2.52026 0
M  V30 835 C 84.7586 -2.77768 -1.15175 0
M  V30 836 C 86.3066 -2.86549 -1.25931 0
M  V30 837 C 86.7816 -4.28306 -1.62228 0
M  V30 838 N 88.2726 -4.31169 -1.69256 0
M  V30 839 C 89.0076 -5.37832 -1.98807 0
M  V30 840 N 88.5036 -6.54726 -2.26507 0
M  V30 841 N 90.2966 -5.25258 -2.00152 0
M  V30 842 H 82.4476 -2.10691 0.268881 0
M  V30 843 H 84.7106 -0.946241 0.057728 0
M  V30 844 H 84.4166 -3.49648 -0.379335 0
M  V30 845 H 84.2906 -3.13836 -2.09253 0
M  V30 846 H 86.6776 -2.14899 -2.02243 0
M  V30 847 H 86.7586 -2.54049 -0.298776 0
M  V30 848 H 86.4026 -5.00486 -0.864622 0
M  V30 849 H 86.3326 -4.58279 -2.594 0
M  V30 850 H 88.8236 -3.4687 -1.49965 0
M  V30 851 H 89.1366 -7.31833 -2.48276 0
M  V30 852 H 87.4816 -6.57933 -2.23939 0
M  V30 853 H 90.6726 -4.32938 -1.77996 0
M  V30 854 H 90.8456 -6.08476 -2.22848 0
M  V30 855 N 84.2517 0.741722 -1.39055 0
M  V30 856 C 85.1817 1.869 -1.39966 0
M  V30 857 C 86.1627 1.6804 -0.26392 0
M  V30 858 O 87.3477 1.88458 -0.468755 0
M  V30 859 C 84.4777 3.24572 -1.23574 0
M  V30 860 C 83.4317 3.58056 -2.34477 0
M  V30 861 C 82.7577 4.94593 -2.0318 0
M  V30 862 C 84.0577 3.61716 -3.76774 0
M  V30 863 H 85.7517 1.86395 -2.34302 0
M  V30 864 H 83.2977 0.895361 -1.1278 0
M  V30 865 H 85.2507 4.031 -1.22834 0
M  V30 866 H 83.9747 3.25587 -0.257045 0
M  V30 867 H 82.6337 2.81854 -2.34423 0
M  V30 868 H 82.2817 4.92181 -1.03765 0
M  V30 869 H 81.9817 5.17964 -2.77465 0
M  V30 870 H 83.5057 5.75486 -2.04079 0
M  V30 871 H 84.9197 4.30335 -3.78794 0
M  V30 872 H 83.3167 3.96603 -4.50362 0
M  V30 873 H 84.3867 2.61672 -4.08235 0
M  V30 874 N 85.7298 1.2412 0.971189 0
M  V30 875 C 86.6598 1.05508 2.08304 0
M  V30 876 C 87.6408 -0.0308864 1.70072 0
M  V30 877 O 88.8258 0.135521 1.93727 0
M  V30 878 C 85.9558 0.655365 3.4106 0
M  V30 879 C 84.9098 1.68971 3.93234 0
M  V30 880 C 84.2358 1.14516 5.22293 0
M  V30 881 C 85.5358 3.08487 4.21465 0
M  V30 882 H 87.2298 1.98507 2.24132 0
M  V30 883 H 84.7758 0.955821 1.07704 0
M  V30 884 H 86.7288 0.51217 4.18276 0
M  V30 885 H 85.4528 -0.31032 3.25122 0
M  V30 886 H 84.1118 1.82106 3.18171 0
M  V30 887 H 83.7598 0.170189 5.02712 0
M  V30 888 H 83.4598 1.83635 5.58168 0
M  V30 889 H 84.9838 1.01401 6.02121 0
M  V30 890 H 86.3978 2.98601 4.89398 0
M  V30 891 H 84.7948 3.74926 4.68562 0
M  V30 892 H 85.8648 3.56787 3.28376 0
M  V30 893 N 87.2079 -1.17134 1.05439 0
M  V30 894 C 88.1549 -2.21235 0.657539 0
M  V30 895 C 89.1249 -1.62551 -0.341543 0
M  V30 896 O 90.3099 -1.89379 -0.232393 0
M  V30 897 C 87.4499 -3.45076 0.0410575 0
M  V30 898 C 86.5629 -4.18042 1.08927 0
M  V30 899 C 85.6979 -5.29376 0.439848 0
M  V30 900 C 84.7369 -5.94132 1.4722 0
M  V30 901 N 83.8739 -6.96975 0.846756 0
M  V30 902 H 88.7139 -2.54534 1.54972 0
M  V30 903 H 86.2509 -1.25028 0.775006 0
M  V30 904 H 88.2089 -4.15862 -0.33383 0
M  V30 905 H 86.8389 -3.12353 -0.814568 0
M  V30 906 H 85.8909 -3.45945 1.58196 0
M  V30 907 H 87.2029 -4.62306 1.87282 0
M  V30 908 H 86.3569 -6.06699 0.0115125 0
M  V30 909 H 85.0959 -4.86251 -0.375656 0
M  V30 910 H 84.1009 -5.15538 1.91052 0
M  V30 911 H 85.3259 -6.39337 2.28965 0
M  V30 912 H 83.2719 -6.5598 0.0518075 0
M  V30 913 H 83.1889 -7.39565 1.5678 0
M  V30 914 H 84.4569 -7.78239 0.443277 0
M  V30 915 N 88.686 -0.835752 -1.33615 0
M  V30 916 C 89.914 -0.443344 -2.02094 0
M  V30 917 C 90.329 0.954522 -1.62894 0
M  V30 918 O 89.686 1.61982 -0.840723 0
M  V30 919 C 89.737 -0.550775 -3.5728 0
M  V30 920 O 89.458 -1.89356 -3.95065 0
M  V30 921 C 90.959 -0.154919 -4.43029 0
M  V30 922 H 88.179 -0.176359 -0.647409 0
M  V30 923 H 90.723 -1.12746 -1.70612 0
M  V30 924 H 88.878 0.0853997 -3.87306 0
M  V30 925 H 89.292 -1.87687 -4.89769 0
M  V30 926 H 90.766 -0.281144 -5.51284 0
M  V30 927 H 91.243 0.902863 -4.2982 0
M  V30 928 H 91.849 -0.765404 -4.18356 0
M  V30 929 N 90.1641 1.46063 -0.591896 0
M  V30 930 C 91.4131 2.01547 -0.0786637 0
M  V30 931 C 91.7261 1.46796 1.29268 0
M  V30 932 O 92.9321 1.94157 1.89777 0
M  V30 933 C 91.3881 3.59787 -0.0900024 0
M  V30 934 C 90.9961 4.23534 -1.46023 0
M  V30 935 C 92.7401 4.22895 0.368806 0
M  V30 936 C 90.6471 5.73881 -1.4288 0
M  V30 937 H 89.5771 0.753564 -0.0256388 0
M  V30 938 H 92.2281 1.677 -0.744905 0
M  V30 939 H 90.6101 3.90752 0.642586 0
M  V30 940 H 91.7841 4.04167 -2.21328 0
M  V30 941 H 90.0991 3.72558 -1.85982 0
M  V30 942 H 92.6961 5.33116 0.411258 0
M  V30 943 H 93.0391 3.9247 1.38827 0
M  V30 944 H 93.5721 3.9659 -0.31001 0
M  V30 945 H 90.3111 6.0898 -2.42536 0
M  V30 946 H 89.8311 5.95486 -0.718095 0
M  V30 947 H 91.5101 6.36776 -1.14565 0
M  V30 948 N 91.6422 0.330177 1.54103 0
M  V30 949 C 92.8902 -0.269871 2.0029 0
M  V30 950 C 93.2112 -1.52133 1.21986 0
M  V30 951 O 92.4812 -1.93212 0.323438 0
M  V30 952 H 91.0612 -0.10271 0.739905 0
M  V30 953 H 93.7232 0.448249 1.89675 0
M  V30 954 H 92.8192 -0.52166 3.07709 0
M  V30 955 N 93.1203 -1.57491 0.0584922 0
M  V30 956 C 94.0673 -2.11958 -0.913376 0
M  V30 957 C 95.0373 -1.02875 -1.30407 0
M  V30 958 O 96.2223 -1.30464 -1.39226 0
M  V30 959 C 93.3623 -2.67497 -2.18035 0
M  V30 960 C 92.4753 -3.90691 -1.84349 0
M  V30 961 C 91.6103 -4.3452 -3.05559 0
M  V30 962 C 90.6493 -5.50395 -2.67827 0
M  V30 963 N 89.7863 -5.89244 -3.81754 0
M  V30 964 H 94.6263 -2.94704 -0.442017 0
M  V30 965 H 92.1633 -1.45643 -0.206545 0
M  V30 966 H 94.1213 -2.978 -2.92183 0
M  V30 967 H 92.7513 -1.87537 -2.62735 0
M  V30 968 H 91.8033 -3.66934 -1.00319 0
M  V30 969 H 93.1153 -4.7489 -1.5258 0
M  V30 970 H 92.2693 -4.66414 -3.87998 0
M  V30 971 H 91.0083 -3.49147 -3.40511 0
M  V30 972 H 90.0133 -5.18165 -1.83806 0
M  V30 973 H 91.2383 -6.3749 -2.34059 0
M  V30 974 H 89.1843 -5.06823 -4.16493 0
M  V30 975 H 89.1013 -6.68151 -3.53708 0
M  V30 976 H 90.3693 -6.25756 -4.64811 0
M  V30 977 N 94.5984 0.214957 -1.56127 0
M  V30 978 C 95.8464 0.936518 -1.79091 0
M  V30 979 C 96.1674 1.84606 -0.628148 0
M  V30 980 O 95.4374 1.92664 0.35462 0
M  V30 981 H 94.0174 0.3488 -0.660566 0
M  V30 982 H 96.6794 0.22523 -1.93594 0
M  V30 983 H 95.7754 1.53943 -2.71492 0
M  V30 984 N 96.0765 1.50051 0.48192 0
M  V30 985 C 97.0245 1.68635 1.60203 0
M  V30 986 C 98.0185 0.552184 1.60148 0
M  V30 987 O 99.2245 0.732377 1.64427 0
M  V30 988 H 95.5995 0.532081 0.531407 0
M  V30 989 H 97.5705 2.62616 1.41688 0
M  V30 990 C 96.3195 1.78775 2.9822 0
M  V30 991 H 95.6425 2.6543 2.98976 0
M  V30 992 H 97.0825 1.95806 3.7608 0
M  V30 993 C 95.5415 0.536849 3.32595 0
M  V30 994 O 96.0715 -0.328897 4.00351 0
M  V30 995 N 94.2775 0.394091 2.87915 0
M  V30 996 H 93.8245 1.09962 2.32951 0
M  V30 997 H 93.7825 -0.441737 3.11281 0
M  V30 998 N 97.5546 -0.734337 1.39446 0
M  V30 999 C 98.8016 -1.49391 1.36706 0
M  V30 1000 C 99.1296 -1.94465 -0.0367813 0
M  V30 1001 O 98.3846 -1.67154 -1.01774 0
M  V30 1002 C 98.6836 -2.74711 2.28623 0
M  V30 1003 C 98.3496 -2.48501 3.76242 0
M  V30 1004 C 97.0116 -2.41062 4.16464 0
M  V30 1005 C 99.3636 -2.26098 4.69606 0
M  V30 1006 C 96.6916 -2.09262 5.48112 0
M  V30 1007 C 99.0436 -1.95814 6.01531 0
M  V30 1008 C 97.7076 -1.86845 6.40816 0
M  V30 1009 H 96.9776 -0.546661 0.500243 0
M  V30 1010 H 99.6246 -0.842788 1.71957 0
M  V30 1011 H 97.9296 -3.44569 1.86492 0
M  V30 1012 H 99.6266 -3.32741 2.23796 0
M  V30 1013 H 96.2166 -2.55169 3.44364 0
M  V30 1014 H 100.401 -2.30812 4.39363 0
M  V30 1015 H 95.6566 -2.00841 5.77471 0
M  V30 1016 H 99.8306 -1.77488 6.73403 0
M  V30 1017 H 97.4576 -1.6197 7.42745 0
M  V30 1018 N 99.0327 -1.24633 -0.964593 0
M  V30 1019 C 99.9957 -1.0424 -2.04124 0
M  V30 1020 C 100.996 0.00137563 -1.608 0
M  V30 1021 O 102.186 -0.239883 -1.7254 0
M  V30 1022 C 99.3177 -0.580588 -3.3592 0
M  V30 1023 H 100.511 -1.99803 -2.23649 0
M  V30 1024 H 98.0637 -1.06899 -1.14027 0
M  V30 1025 H 98.7987 0.3781 -3.22088 0
M  V30 1026 H 98.5837 -1.33398 -3.6871 0
M  V30 1027 H 100.074 -0.459034 -4.15069 0
M  V30 1028 N 100.511 1.16574 -1.06058 0
M  V30 1029 C 101.458 2.20883 -0.669263 0
M  V30 1030 C 102.428 1.62729 0.332918 0
M  V30 1031 O 103.613 1.895 0.222346 0
M  V30 1032 C 100.753 3.45049 -0.0593572 0
M  V30 1033 C 99.8658 4.17458 -1.11143 0
M  V30 1034 C 99.0008 5.29135 -0.467916 0
M  V30 1035 C 98.0398 5.93343 -1.50369 0
M  V30 1036 N 97.1768 6.96516 -0.883706 0
M  V30 1037 H 102.017 2.53709 -1.5632 0
M  V30 1038 H 99.5538 1.24616 -0.781625 0
M  V30 1039 H 101.512 4.16033 0.311771 0
M  V30 1040 H 100.142 3.12781 0.797992 0
M  V30 1041 H 99.1938 3.45101 -1.60029 0
M  V30 1042 H 100.506 4.61307 -1.89731 0
M  V30 1043 H 99.6598 6.06684 -0.0436871 0
M  V30 1044 H 98.3988 4.86443 0.349864 0
M  V30 1045 H 97.4038 5.14517 -1.93784 0
M  V30 1046 H 98.6288 6.38114 -2.32352 0
M  V30 1047 H 96.5748 6.55943 -0.086595 0
M  V30 1048 H 96.4918 7.38723 -1.607 0
M  V30 1049 H 97.7598 7.77993 -0.484543 0
M  V30 1050 N 101.989 0.842826 1.3317 0
M  V30 1051 C 103.235 0.441099 1.97945 0
M  V30 1052 C 103.568 -0.998024 1.66593 0
M  V30 1053 O 102.843 -1.69839 0.947898 0
M  V30 1054 C 103.126 0.666841 3.53872 0
M  V30 1055 C 102.979 2.15352 3.94897 0
M  V30 1056 C 104.298 0.115544 4.39948 0
M  V30 1057 H 101.417 0.161739 0.719034 0
M  V30 1058 H 104.059 1.05907 1.57746 0
M  V30 1059 H 102.209 0.140828 3.88245 0
M  V30 1060 H 103.881 2.7447 3.70761 0
M  V30 1061 H 102.124 2.63653 3.44484 0
M  V30 1062 H 102.795 2.26221 5.03516 0
M  V30 1063 H 105.271 0.565213 4.12243 0
M  V30 1064 H 104.147 0.303152 5.48062 0
M  V30 1065 H 104.408 -0.980935 4.3108 0
M  V30 1066 N 103.467 -1.45747 0.599634 0
M  V30 1067 C 104.414 -2.30467 -0.123849 0
M  V30 1068 C 105.384 -1.41632 -0.86774 0
M  V30 1069 O 106.569 -1.70568 -0.855056 0
M  V30 1070 C 103.709 -3.26402 -1.12051 0
M  V30 1071 C 102.822 -4.3034 -0.37832 0
M  V30 1072 C 101.957 -5.13389 -1.364 0
M  V30 1073 C 100.996 -6.09061 -0.609171 0
M  V30 1074 N 100.133 -6.84918 -1.54374 0
M  V30 1075 H 104.973 -2.91802 0.604627 0
M  V30 1076 H 102.51 -1.43797 0.309972 0
M  V30 1077 H 104.468 -3.80482 -1.7114 0
M  V30 1078 H 103.098 -2.66839 -1.8165 0
M  V30 1079 H 102.15 -3.78984 0.327929 0
M  V30 1080 H 103.462 -4.98354 0.210997 0
M  V30 1081 H 102.616 -5.7183 -2.02719 0
M  V30 1082 H 101.355 -4.45376 -1.98725 0
M  V30 1083 H 100.36 -5.49758 0.0676979 0
M  V30 1084 H 101.585 -6.79099 0.00891991 0
M  V30 1085 H 99.531 -6.19601 -2.15478 0
M  V30 1086 H 99.448 -7.49254 -1.00766 0
M  V30 1087 H 100.716 -7.47906 -2.19676 0
M  V30 1088 N 104.945 -0.338344 -1.53925 0
M  V30 1089 C 105.875 0.51328 -2.27789 0
M  V30 1090 C 106.856 1.107 -1.29149 0
M  V30 1091 O 108.041 1.12937 -1.57984 0
M  V30 1092 C 105.171 1.66697 -3.04679 0
M  V30 1093 C 104.125 1.20183 -4.1078 0
M  V30 1094 C 103.451 2.44363 -4.75595 0
M  V30 1095 C 104.751 0.30605 -5.21403 0
M  V30 1096 H 106.445 -0.102883 -2.99223 0
M  V30 1097 H 103.991 -0.0509219 -1.4391 0
M  V30 1098 H 105.944 2.26915 -3.55088 0
M  V30 1099 H 104.668 2.30995 -2.30887 0
M  V30 1100 H 103.327 0.622499 -3.61276 0
M  V30 1101 H 102.975 3.07057 -3.98403 0
M  V30 1102 H 102.675 2.13925 -5.47275 0
M  V30 1103 H 104.199 3.05317 -5.28786 0
M  V30 1104 H 105.613 0.814929 -5.67478 0
M  V30 1105 H 104.01 0.0937929 -6.00027 0
M  V30 1106 H 105.08 -0.65921 -4.80398 0
M  V30 1107 N 106.423 1.57458 -0.0668435 0
M  V30 1108 C 107.386 2.11323 0.887422 0
M  V30 1109 C 108.386 1.03618 1.22964 0
M  V30 1110 O 109.576 1.29626 1.16373 0
M  V30 1111 C 106.708 2.61048 2.19242 0
M  V30 1112 H 107.901 2.96942 0.420194 0
M  V30 1113 H 105.454 1.55239 0.181793 0
M  V30 1114 H 106.189 1.78868 2.70512 0
M  V30 1115 H 105.974 3.39769 1.95702 0
M  V30 1116 H 107.464 3.02814 2.87565 0
M  V30 1117 N 107.901 -0.206675 1.56239 0
M  V30 1118 C 109.317 -0.557025 1.49564 0
M  V30 1119 C 109.517 -1.86424 0.764735 0
M  V30 1120 O 108.573 -2.50584 0.310491 0
M  V30 1121 C 109.886 -0.622478 2.94186 0
M  V30 1122 C 111.434 -0.712099 3.04792 0
M  V30 1123 C 111.909 -0.808767 4.50803 0
M  V30 1124 N 113.4 -0.8726 4.54907 0
M  V30 1125 C 114.135 -0.967365 5.65181 0
M  V30 1126 N 113.631 -1.02515 6.85173 0
M  V30 1127 N 115.424 -1.00366 5.53067 0
M  V30 1128 H 107.575 0.650943 2.02179 0
M  V30 1129 H 109.838 0.230387 0.919579 0
M  V30 1130 H 109.544 0.268727 3.50672 0
M  V30 1131 H 109.418 -1.4811 3.46905 0
M  V30 1132 H 111.805 -1.59374 2.48363 0
M  V30 1133 H 111.886 0.172489 2.55218 0
M  V30 1134 H 111.53 0.0684754 5.07854 0
M  V30 1135 H 111.46 -1.70899 4.98098 0
M  V30 1136 H 113.951 -0.837657 3.68499 0
M  V30 1137 H 114.264 -1.09765 7.64965 0
M  V30 1138 H 112.609 -0.994026 6.87855 0
M  V30 1139 H 115.8 -0.95527 4.58249 0
M  V30 1140 H 115.973 -1.07405 6.39037 0
M  V30 1141 N 109.379 -1.50304 -0.473955 0
M  V30 1142 C 110.329 -1.65347 -1.56985 0
M  V30 1143 C 111.313 -0.508176 -1.52664 0
M  V30 1144 O 112.505 -0.762446 -1.59737 0
M  V30 1145 C 109.634 -1.74832 -2.95447 0
M  V30 1146 C 108.72 -2.95028 -3.04662 0
M  V30 1147 N 109.111 -4.18747 -2.83698 0
M  V30 1148 C 107.409 -2.93527 -3.35795 0
M  V30 1149 C 108.11 -4.99687 -2.97805 0
M  V30 1150 N 107.086 -4.33585 -3.2788 0
M  V30 1151 H 110.888 -2.58698 -1.39472 0
M  V30 1152 H 108.402 -1.47449 -0.680629 0
M  V30 1153 H 110.399 -1.83712 -3.7424 0
M  V30 1154 H 109.059 -0.826376 -3.14008 0
M  V30 1155 H 110.07 -4.48291 -2.59337 0
M  V30 1156 H 106.747 -2.10821 -3.60362 0
M  V30 1157 H 108.137 -6.08057 -2.85861 0
M  V30 1158 N 110.857 0.726932 -1.39834 0
M  V30 1159 C 112.106 1.48214 -1.36805 0
M  V30 1160 C 112.419 1.95576 0.0305291 0
M  V30 1161 O 113.625 2.7088 0.183417 0
M  V30 1162 C 112.081 2.67854 -2.40379 0
M  V30 1163 C 111.689 2.27408 -3.85992 0
M  V30 1164 C 113.433 3.45641 -2.46439 0
M  V30 1165 C 111.34 3.43819 -4.81189 0
M  V30 1166 H 110.27 0.556606 -0.508631 0
M  V30 1167 H 112.921 0.792216 -1.65518 0
M  V30 1168 H 111.303 3.3896 -2.04749 0
M  V30 1169 H 112.477 1.63795 -4.30706 0
M  V30 1170 H 110.792 1.62692 -3.83302 0
M  V30 1171 H 113.389 4.32244 -3.14753 0
M  V30 1172 H 113.732 3.88669 -1.49139 0
M  V30 1173 H 114.265 2.8157 -2.81004 0
M  V30 1174 H 111.004 3.05834 -5.79781 0
M  V30 1175 H 110.524 4.06385 -4.41148 0
M  V30 1176 H 112.203 4.10043 -5.00474 0
M  V30 1177 N 112.336 1.25143 0.95797 0
M  V30 1178 C 113.266 1.07711 2.07173 0
M  V30 1179 C 114.247 -0.0128462 1.70095 0
M  V30 1180 O 115.432 0.156061 1.93572 0
M  V30 1181 C 112.562 0.691503 3.40346 0
M  V30 1182 C 111.516 1.73132 3.9142 0
M  V30 1183 C 110.842 1.20049 5.21049 0
M  V30 1184 C 112.142 3.1294 4.1817 0
M  V30 1185 H 113.836 2.00873 2.22014 0
M  V30 1186 H 111.382 0.967191 1.06684 0
M  V30 1187 H 113.335 0.556505 4.17709 0
M  V30 1188 H 112.059 -0.275819 3.25433 0
M  V30 1189 H 110.718 1.8547 3.16222 0
M  V30 1190 H 110.366 0.223499 5.02503 0
M  V30 1191 H 110.066 1.89545 5.56189 0
M  V30 1192 H 111.59 1.07782 6.01012 0
M  V30 1193 H 113.004 3.03775 4.86203 0
M  V30 1194 H 111.401 3.79875 4.64559 0
M  V30 1195 H 112.471 3.6025 3.24573 0
M  V30 1196 N 113.814 -1.1601 1.06675 0
M  V30 1197 C 115.042 -1.90527 0.806667 0
M  V30 1198 C 115.457 -1.77643 -0.639396 0
M  V30 1199 O 114.814 -1.12369 -1.43803 0
M  V30 1200 C 114.865 -3.41106 1.19705 0
M  V30 1201 O 114.586 -3.53608 2.58636 0
M  V30 1202 C 116.087 -4.32663 0.965266 0
M  V30 1203 H 113.307 -0.604053 0.292166 0
M  V30 1204 H 115.851 -1.47026 1.4214 0
M  V30 1205 H 114.006 -3.82296 0.626774 0
M  V30 1206 H 114.42 -4.47011 2.74375 0
M  V30 1207 H 115.894 -5.36763 1.288 0
M  V30 1208 H 116.371 -4.39089 -0.0987936 0
M  V30 1209 H 116.977 -3.97206 1.52011 0
M  V30 1210 N 115.292 -0.849877 -1.32721 0
M  V30 1211 C 116.54 -0.450032 -1.97026 0
M  V30 1212 C 116.861 0.996604 -1.67609 0
M  V30 1213 O 116.131 1.6958 -0.980786 0
M  V30 1214 H 114.711 -0.163426 -0.728904 0
M  V30 1215 H 117.373 -1.08526 -1.6189 0
M  V30 1216 H 116.469 -0.591146 -3.0645 0
M  V30 1217 N 116.77 1.45427 -0.607355 0
M  V30 1218 C 118.186 1.57283 -0.270985 0
M  V30 1219 C 118.386 1.59875 1.22647 0
M  V30 1220 O 117.442 1.52893 2.00948 0
M  V30 1221 C 118.755 2.85566 -0.941952 0
M  V30 1222 C 120.303 2.9924 -0.917849 0
M  V30 1223 C 120.778 4.30293 -1.56882 0
M  V30 1224 N 122.269 4.37051 -1.5343 0
M  V30 1225 C 123.004 5.37123 -2.00715 0
M  V30 1226 N 122.5 6.43734 -2.56084 0
M  V30 1227 N 124.293 5.28479 -1.91484 0
M  V30 1228 H 116.444 1.41988 -1.57966 0
M  V30 1229 H 118.707 0.67885 -0.661715 0
M  V30 1230 H 118.413 2.8955 -1.99633 0
M  V30 1231 H 118.287 3.74322 -0.465096 0
M  V30 1232 H 120.674 2.94822 0.127984 0
M  V30 1233 H 120.755 2.11895 -1.43297 0
M  V30 1234 H 120.399 4.35469 -2.61398 0
M  V30 1235 H 120.329 5.16454 -1.02873 0
M  V30 1236 H 122.82 3.60615 -1.12982 0
M  V30 1237 H 123.133 7.16341 -2.89958 0
M  V30 1238 H 121.478 6.44485 -2.60122 0
M  V30 1239 H 124.669 4.44098 -1.47967 0
M  V30 1240 H 124.842 6.0632 -2.28648 0
M  V30 1241 N 118.248 0.346503 1.53744 0
M  V30 1242 C 119.158 -0.517293 2.28826 0
M  V30 1243 C 120.174 -1.10935 1.3405 0
M  V30 1244 O 121.35 -1.1244 1.6709 0
M  V30 1245 C 118.415 -1.65098 3.04866 0
M  V30 1246 C 117.476 -1.0884 4.15274 0
M  V30 1247 C 116.709 -2.16806 4.87679 0
M  V30 1248 O 116.932 -3.3758 4.59778 0
M  V30 1249 O 115.866 -1.80934 5.74061 0
M  V30 1250 H 119.692 0.0931396 3.03557 0
M  V30 1251 H 117.277 0.111458 1.48984 0
M  V30 1252 H 119.159 -2.31053 3.5241 0
M  V30 1253 H 117.834 -2.24717 2.32989 0
M  V30 1254 H 116.741 -0.3933 3.72027 0
M  V30 1255 H 118.074 -0.537036 4.89261 0
M  V30 1256 N 119.726 -1.57421 0.075193 0
M  V30 1257 C 120.972 -1.93905 -0.594025 0
M  V30 1258 C 121.305 -0.955701 -1.69056 0
M  V30 1259 O 120.58 0.0145373 -1.94495 0
M  V30 1260 C 120.863 -3.40638 -1.1678 0
M  V30 1261 C 120.716 -4.49733 -0.0776792 0
M  V30 1262 C 122.035 -3.88259 -2.07228 0
M  V30 1263 H 119.154 -0.705105 -0.214466 0
M  V30 1264 H 121.796 -1.8947 0.141854 0
M  V30 1265 H 119.946 -3.44549 -1.79494 0
M  V30 1266 H 121.618 -4.57942 0.555573 0
M  V30 1267 H 119.861 -4.29751 0.591286 0
M  V30 1268 H 120.532 -5.49549 -0.519603 0
M  V30 1269 H 123.008 -3.86376 -1.54445 0
M  V30 1270 H 121.884 -4.91533 -2.44308 0
M  V30 1271 H 122.145 -3.26396 -2.98191 0
M  V30 1272 N 121.204 0.198386 -1.56346 0
M  V30 1273 C 122.167 1.22952 -1.93431 0
M  V30 1274 C 123.167 1.38611 -0.815092 0
M  V30 1275 O 124.357 1.36479 -1.08255 0
M  V30 1276 C 121.489 2.59946 -2.20546 0
M  V30 1277 H 122.682 0.912626 -2.85677 0
M  V30 1278 H 120.235 0.43977 -1.49986 0
M  V30 1279 H 120.97 2.96696 -1.30927 0
M  V30 1280 H 120.755 2.49953 -3.02102 0
M  V30 1281 H 122.245 3.3431 -2.50253 0
M  V30 1282 N 122.682 1.50554 0.465978 0
M  V30 1283 C 123.931 1.61038 1.21448 0
M  V30 1284 C 124.244 0.31865 1.92987 0
M  V30 1285 O 125.45 0.302469 2.6981 0
M  V30 1286 C 123.906 2.84283 2.20706 0
M  V30 1287 C 123.514 4.20352 1.54946 0
M  V30 1288 C 125.258 3.04115 2.96166 0
M  V30 1289 C 123.165 5.34778 2.5252 0
M  V30 1290 H 122.095 0.599718 0.457005 0
M  V30 1291 H 124.746 1.7699 0.484424 0
M  V30 1292 H 123.128 2.61901 2.97025 0
M  V30 1293 H 124.302 4.53008 0.843811 0
M  V30 1294 H 122.617 4.06167 0.917475 0
M  V30 1295 H 125.214 3.86774 3.69202 0
M  V30 1296 H 125.557 2.16045 3.55852 0
M  V30 1297 H 126.09 3.26702 2.26959 0
M  V30 1298 H 122.829 6.25018 1.97566 0
M  V30 1299 H 122.349 5.06534 3.21222 0
M  V30 1300 H 124.028 5.65561 3.14245 0
M  V30 1301 N 124.16 -0.719506 1.40217 0
M  V30 1302 C 125.107 -1.83359 1.40172 0
M  V30 1303 C 126.077 -1.64065 0.259206 0
M  V30 1304 O 127.262 -1.85254 0.456677 0
M  V30 1305 C 124.402 -3.2103 1.26624 0
M  V30 1306 C 123.515 -3.51923 2.50548 0
M  V30 1307 C 122.65 -4.79079 2.29471 0
M  V30 1308 C 121.689 -5.02863 3.48992 0
M  V30 1309 N 120.826 -6.2123 3.27135 0
M  V30 1310 H 125.666 -1.82733 2.35399 0
M  V30 1311 H 123.203 -0.892688 1.16917 0
M  V30 1312 H 125.161 -4.00524 1.16776 0
M  V30 1313 H 123.791 -3.20895 0.350176 0
M  V30 1314 H 122.843 -2.67014 2.70939 0
M  V30 1315 H 124.155 -3.6541 3.39525 0
M  V30 1316 H 123.309 -5.66582 2.16955 0
M  V30 1317 H 122.048 -4.67794 1.37913 0
M  V30 1318 H 121.053 -4.13816 3.6199 0
M  V30 1319 H 122.278 -5.16023 4.41472 0
M  V30 1320 H 120.224 -6.11204 2.38256 0
M  V30 1321 H 120.141 -6.35375 4.09675 0
M  V30 1322 H 121.409 -7.11532 3.18344 0
M  V30 1323 N 125.638 -1.25649 -0.95132 0
M  V30 1324 C 126.887 -1.09988 -1.69073 0
M  V30 1325 C 127.2 0.358355 -1.92289 0
M  V30 1326 O 128.406 0.635466 -2.63958 0
M  V30 1327 C 126.862 -1.92012 -3.044 0
M  V30 1328 C 126.47 -3.42347 -2.88968 0
M  V30 1329 C 128.214 -1.8493 -3.82101 0
M  V30 1330 C 126.121 -4.16655 -4.19705 0
M  V30 1331 H 125.051 -0.407993 -0.63408 0
M  V30 1332 H 127.702 -1.49873 -1.05879 0
M  V30 1333 H 126.084 -1.44952 -3.68517 0
M  V30 1334 H 127.258 -3.97104 -2.33762 0
M  V30 1335 H 125.573 -3.50557 -2.24719 0
M  V30 1336 H 128.17 -2.37739 -4.78941 0
M  V30 1337 H 128.513 -0.817883 -4.08187 0
M  V30 1338 H 129.046 -2.29758 -3.2474 0
M  V30 1339 H 125.785 -5.20224 -3.98807 0
M  V30 1340 H 125.305 -3.66681 -4.74663 0
M  V30 1341 H 126.984 -4.24551 -4.88227 0
M  V30 1342 N 127.117 1.15442 -1.07289 0
M  V30 1343 C 128.366 1.85557 -0.790669 0
M  V30 1344 C 128.679 1.83186 0.685739 0
M  V30 1345 O 129.885 2.48977 1.0827 0
M  V30 1346 C 128.341 3.33038 -1.36433 0
M  V30 1347 C 127.949 3.43856 -2.8717 0
M  V30 1348 C 129.693 4.0834 -1.1601 0
M  V30 1349 C 127.6 4.85482 -3.3773 0
M  V30 1350 H 126.53 0.695122 -0.292098 0
M  V30 1351 H 129.181 1.30219 -1.29287 0
M  V30 1352 H 127.563 3.88043 -0.789864 0
M  V30 1353 H 128.737 2.98961 -3.50655 0
M  V30 1354 H 127.052 2.81998 -3.06376 0
M  V30 1355 H 129.649 5.12859 -1.51262 0
M  V30 1356 H 129.992 4.16182 -0.0991007 0
M  V30 1357 H 130.525 3.59603 -1.70089 0
M  V30 1358 H 127.264 4.82823 -4.43353 0
M  V30 1359 H 126.784 5.30961 -2.78999 0
M  V30 1360 H 128.463 5.54335 -3.33648 0
M  V30 1361 N 128.595 0.856903 1.32268 0
M  V30 1362 C 129.872 0.382583 1.91822 0
M  V30 1363 C 130.252 -1.13407 1.78051 0
M  V30 1364 O 129.6 -1.95673 1.18001 0
M  V30 1365 C 129.81 0.849446 3.38505 0
M  V30 1366 C 131.158 0.867936 4.15634 0
M  V30 1367 O 132.182 0.794232 3.47232 0
M  V30 1368 O 131.041 0.972286 5.37781 0
M  V30 1369 H 128.135 0.112014 0.819379 0
M  V30 1370 H 130.681 0.943952 1.41024 0
M  V30 1371 H 129.453 1.89267 3.42482 0
M  V30 1372 H 129.076 0.265652 3.96712 0
M  V30 1373 N 130.073 -1.45103 0.615059 0
M  V30 1374 C 131.02 -2.30586 -0.0993978 0
M  V30 1375 C 131.99 -1.42544 -0.852669 0
M  V30 1376 O 133.175 -1.71465 -0.836917 0
M  V30 1377 C 130.315 -3.27572 -1.08583 0
M  V30 1378 C 129.428 -4.30717 -0.332656 0
M  V30 1379 C 128.563 -5.14807 -1.30947 0
M  V30 1380 C 127.602 -6.09673 -0.544538 0
M  V30 1381 N 126.739 -6.86517 -1.47101 0
M  V30 1382 H 131.579 -2.91144 0.635542 0
M  V30 1383 H 129.116 -1.4346 0.325206 0
M  V30 1384 H 131.074 -3.82276 -1.67095 0
M  V30 1385 H 129.704 -2.68751 -1.78809 0
M  V30 1386 H 128.756 -3.78615 0.368107 0
M  V30 1387 H 130.068 -4.98102 0.263842 0
M  V30 1388 H 129.222 -5.73948 -1.96643 0
M  V30 1389 H 127.961 -4.47458 -1.9399 0
M  V30 1390 H 126.966 -5.49656 0.126003 0
M  V30 1391 H 128.191 -6.79052 0.080947 0
M  V30 1392 H 126.137 -6.21851 -2.08895 0
M  V30 1393 H 126.054 -7.50281 -0.928137 0
M  V30 1394 H 127.322 -7.50194 -2.11731 0
M  V30 1395 N 131.551 -0.354651 -1.53558 0
M  V30 1396 C 132.779 0.239515 -2.05509 0
M  V30 1397 C 133.194 1.4333 -1.2289 0
M  V30 1398 O 132.551 1.80538 -0.266899 0
M  V30 1399 C 132.602 0.643719 -3.55723 0
M  V30 1400 O 132.323 -0.502602 -4.35207 0
M  V30 1401 C 133.824 1.29743 -4.23889 0
M  V30 1402 H 131.044 0.0442697 -0.669538 0
M  V30 1403 H 133.588 -0.509856 -1.98042 0
M  V30 1404 H 131.743 1.34302 -3.63376 0
M  V30 1405 H 132.157 -0.178172 -5.24197 0
M  V30 1406 H 133.631 1.53091 -5.30346 0
M  V30 1407 H 134.108 2.25441 -3.76926 0
M  V30 1408 H 134.714 0.639865 -4.20459 0
M  V30 1409 N 133.029 1.57378 -0.0835403 0
M  V30 1410 C 133.961 2.10389 0.909338 0
M  V30 1411 C 134.974 1.03858 1.25369 0
M  V30 1412 O 136.163 1.31338 1.20882 0
M  V30 1413 C 133.263 2.55908 2.2218 0
M  V30 1414 C 132.436 3.86145 2.05453 0
M  V30 1415 C 131.495 4.17633 3.20108 0
M  V30 1416 O 130.521 4.87043 2.94581 0
M  V30 1417 N 131.723 3.72113 4.45547 0
M  V30 1418 H 134.488 2.962 0.456657 0
M  V30 1419 H 132.049 1.61579 0.101877 0
M  V30 1420 H 134.041 2.74027 2.97811 0
M  V30 1421 H 132.611 1.75171 2.58909 0
M  V30 1422 H 131.831 3.7729 1.1422 0
M  V30 1423 H 133.119 4.7137 1.91541 0
M  V30 1424 H 132.517 3.16062 4.69171 0
M  V30 1425 H 131.074 3.95409 5.18165 0
M  V30 1426 N 134.507 -0.190092 1.56449 0
M  V30 1427 C 135.437 -1.23816 1.97969 0
M  V30 1428 C 136.418 -1.47201 0.852395 0
M  V30 1429 O 137.603 -1.58854 1.1171 0
M  V30 1430 C 134.733 -2.5813 2.3235 0
M  V30 1431 C 133.687 -2.49348 3.47864 0
M  V30 1432 C 133.013 -3.8798 3.67934 0
M  V30 1433 C 134.313 -2.01424 4.81898 0
M  V30 1434 H 136.007 -0.89311 2.85769 0
M  V30 1435 H 133.553 -0.428177 1.37487 0
M  V30 1436 H 135.506 -3.31637 2.59991 0
M  V30 1437 H 134.23 -2.94386 1.41438 0
M  V30 1438 H 132.889 -1.78297 3.20321 0
M  V30 1439 H 132.537 -4.21597 2.74344 0
M  V30 1440 H 132.237 -3.82978 4.45648 0
M  V30 1441 H 133.761 -4.63101 3.97957 0
M  V30 1442 H 135.175 -2.64693 5.08538 0
M  V30 1443 H 133.572 -2.07413 5.63116 0
M  V30 1444 H 134.642 -0.967677 4.75146 0
M  V30 1445 N 135.985 -1.50799 -0.457987 0
M  V30 1446 C 136.933 -1.71162 -1.575 0
M  V30 1447 C 137.927 -0.577592 -1.59249 0
M  V30 1448 O 139.133 -0.758443 -1.63241 0
M  V30 1449 H 135.508 -0.540468 -0.522875 0
M  V30 1450 H 137.479 -2.64837 -1.37492 0
M  V30 1451 C 136.228 -1.83496 -2.95338 0
M  V30 1452 H 135.551 -2.70153 -2.94716 0
M  V30 1453 H 136.991 -2.01765 -3.72917 0
M  V30 1454 C 135.45 -0.589694 -3.31699 0
M  V30 1455 O 135.98 0.265163 -4.00824 0
M  V30 1456 N 134.186 -0.439845 -2.87252 0
M  V30 1457 H 133.733 -1.13655 -2.31172 0
M  V30 1458 H 133.691 0.392159 -3.11945 0
M  V30 1459 N 137.463 0.71206 -1.40597 0
M  V30 1460 C 138.874 1.29135 -1.34837 0
M  V30 1461 C 139.225 1.96186 -0.0235395 0
M  V30 1462 O 138.35 1.97768 0.878444 0
M  V30 1463 C 138.945 2.34827 -2.44217 0
M  V30 1464 C 137.504 2.88371 -2.41907 0
M  V30 1465 C 136.651 1.62202 -2.24913 0
M  V30 1466 H 139.602 0.507944 -1.50352 0
M  V30 1467 H 139.623 3.15749 -2.12327 0
M  V30 1468 H 139.135 1.85996 -3.40627 0
M  V30 1469 H 137.236 3.41422 -1.49204 0
M  V30 1470 H 137.349 3.39925 -3.37621 0
M  V30 1471 H 135.713 1.874 -1.72492 0
M  V30 1472 H 136.496 1.15391 -3.23326 0
M  V30 1473 N 138.941 1.26152 0.944643 0
M  V30 1474 C 140.169 1.14259 1.72489 0
M  V30 1475 C 140.584 -0.302555 1.8636 0
M  V30 1476 O 139.941 -1.20741 1.36849 0
M  V30 1477 C 139.992 1.80266 3.13347 0
M  V30 1478 O 139.713 3.19133 3.00143 0
M  V30 1479 C 141.214 1.74283 4.07603 0
M  V30 1480 H 138.434 0.398051 0.540181 0
M  V30 1481 H 140.978 1.66706 1.18446 0
M  V30 1482 H 139.133 1.31766 3.64303 0
M  V30 1483 H 139.547 3.51744 3.89071 0
M  V30 1484 H 141.021 2.25111 5.04013 0
M  V30 1485 H 141.498 0.708631 4.33446 0
M  V30 1486 H 142.104 2.22319 3.62567 0
M  V30 1487 N 140.419 -1.14872 1.07899 0
M  V30 1488 C 141.644 -1.90202 0.826926 0
M  V30 1489 C 142.069 -1.77774 -0.614664 0
M  V30 1490 O 141.427 -1.11431 -1.43013 0
M  V30 1491 C 141.475 -3.38352 1.24702 0
M  V30 1492 O 140.579 -4.10497 0.39575 0
M  V30 1493 H 139.92 -0.591968 0.300782 0
M  V30 1494 H 142.45 -1.45437 1.43907 0
M  V30 1495 H 142.46 -3.89156 1.22563 0
M  V30 1496 H 141.135 -3.46715 2.29698 0
M  V30 1497 H 139.712 -3.69796 0.480117 0
M  V30 1498 N 141.898 -0.863906 -1.31812 0
M  V30 1499 C 142.828 -0.330843 -2.31144 0
M  V30 1500 C 143.809 0.575005 -1.60087 0
M  V30 1501 O 144.994 0.493304 -1.8783 0
M  V30 1502 C 142.124 0.47374 -3.44054 0
M  V30 1503 C 141.078 -0.338481 -4.26659 0
M  V30 1504 C 140.404 0.591412 -5.31419 0
M  V30 1505 C 141.704 -1.56926 -4.98168 0
M  V30 1506 H 143.398 -1.16086 -2.75979 0
M  V30 1507 H 140.944 -0.559657 -1.32679 0
M  V30 1508 H 142.897 0.857143 -4.12591 0
M  V30 1509 H 141.621 1.33721 -2.9797 0
M  V30 1510 H 140.28 -0.703754 -3.59782 0
M  V30 1511 H 139.928 1.45199 -4.81587 0
M  V30 1512 H 139.628 0.0519022 -5.87577 0
M  V30 1513 H 141.152 0.97179 -6.02817 0
M  V30 1514 H 142.566 -1.25764 -5.59336 0
M  V30 1515 H 140.963 -2.04739 -5.64094 0
M  V30 1516 H 142.033 -2.32544 -4.25501 0
M  V30 1517 N 143.376 1.44774 -0.622745 0
M  V30 1518 C 144.308 2.28856 0.125485 0
M  V30 1519 C 145.321 1.40811 0.817069 0
M  V30 1520 O 146.51 1.65044 0.679918 0
M  V30 1521 C 143.61 3.16963 1.19949 0
M  V30 1522 C 142.783 4.33374 0.592064 0
M  V30 1523 C 141.842 5.02577 1.55893 0
M  V30 1524 O 140.868 5.58873 1.07933 0
M  V30 1525 N 142.07 5.03256 2.89334 0
M  V30 1526 H 144.835 2.93713 -0.596068 0
M  V30 1527 H 142.396 1.55129 -0.463303 0
M  V30 1528 H 144.388 3.60123 1.84644 0
M  V30 1529 H 142.958 2.53913 1.82337 0
M  V30 1530 H 142.178 3.93509 -0.233322 0
M  V30 1531 H 143.466 5.08527 0.166738 0
M  V30 1532 H 142.864 4.58836 3.30887 0
M  V30 1533 H 141.421 5.50232 3.49412 0
M  V30 1534 N 144.854 0.36279 1.53368 0
M  V30 1535 C 145.801 -0.485008 2.25646 0
M  V30 1536 C 146.771 -1.07982 1.2621 0
M  V30 1537 O 147.956 -1.11284 1.54986 0
M  V30 1538 C 145.096 -1.62023 3.04701 0
M  V30 1539 C 144.209 -1.05086 4.19024 0
M  V30 1540 C 143.344 -2.15496 4.85525 0
M  V30 1541 C 142.383 -1.5601 5.91884 0
M  V30 1542 N 141.52 -2.60241 6.52088 0
M  V30 1543 H 146.36 0.137864 2.97681 0
M  V30 1544 H 143.897 0.0798061 1.46883 0
M  V30 1545 H 145.855 -2.28887 3.48807 0
M  V30 1546 H 144.485 -2.2138 2.34927 0
M  V30 1547 H 143.537 -0.27259 3.79422 0
M  V30 1548 H 144.849 -0.575926 4.95464 0
M  V30 1549 H 144.003 -2.90186 5.32801 0
M  V30 1550 H 142.742 -2.66341 4.08551 0
M  V30 1551 H 141.747 -0.798338 5.43973 0
M  V30 1552 H 142.972 -1.05994 6.70777 0
M  V30 1553 H 140.918 -3.10304 5.77968 0
M  V30 1554 H 140.835 -2.17426 7.24059 0
M  V30 1555 H 142.103 -3.34641 7.04014 0
M  V30 1556 N 146.332 -1.57332 0.0918853 0
M  V30 1557 C 147.262 -2.16872 -0.865371 0
M  V30 1558 C 148.243 -1.10118 -1.29646 0
M  V30 1559 O 149.428 -1.38242 -1.36392 0
M  V30 1560 C 146.558 -2.74649 -2.12569 0
M  V30 1561 C 145.512 -3.86747 -1.83333 0
M  V30 1562 C 144.838 -4.31212 -3.16166 0
M  V30 1563 C 146.138 -5.10089 -1.1228 0
M  V30 1564 H 147.832 -2.97114 -0.369307 0
M  V30 1565 H 145.378 -1.42918 -0.176194 0
M  V30 1566 H 147.331 -3.14952 -2.7997 0
M  V30 1567 H 146.055 -1.91657 -2.64452 0
M  V30 1568 H 144.714 -3.46978 -1.18331 0
M  V30 1569 H 144.362 -3.45115 -3.6593 0
M  V30 1570 H 144.062 -5.06788 -2.97388 0
M  V30 1571 H 145.586 -4.74146 -3.84731 0
M  V30 1572 H 147 -5.47582 -1.69785 0
M  V30 1573 H 145.397 -5.91073 -1.03693 0
M  V30 1574 H 146.467 -4.84786 -0.105041 0
M  V30 1575 N 147.81 0.181792 -1.56548 0
M  V30 1576 C 149.057 0.900097 -1.81396 0
M  V30 1577 C 149.385 1.82695 -0.667281 0
M  V30 1578 O 148.64 1.92614 0.346146 0
M  V30 1579 C 148.939 1.73728 -3.12335 0
M  V30 1580 C 148.605 0.960255 -4.40556 0
M  V30 1581 C 147.267 0.745766 -4.75386 0
M  V30 1582 C 149.619 0.414477 -5.19549 0
M  V30 1583 C 146.947 -0.0257694 -5.86694 0
M  V30 1584 C 149.299 -0.343916 -6.31664 0
M  V30 1585 C 147.963 -0.569301 -6.65068 0
M  V30 1586 H 147.233 0.329369 -0.663775 0
M  V30 1587 H 149.88 0.165647 -1.90782 0
M  V30 1588 H 148.185 2.54081 -2.98245 0
M  V30 1589 H 149.882 2.29591 -3.28769 0
M  V30 1590 H 146.472 1.13746 -4.13231 0
M  V30 1591 H 150.656 0.567554 -4.93044 0
M  V30 1592 H 145.912 -0.210233 -6.11038 0
M  V30 1593 H 150.086 -0.774133 -6.92084 0
M  V30 1594 H 147.713 -1.16903 -7.51158 0
M  V30 1595 N 149.288 1.51039 0.449983 0
M  V30 1596 C 150.704 1.38934 0.785462 0
M  V30 1597 C 150.904 0.461817 1.96136 0
M  V30 1598 O 149.96 -0.0877389 2.52348 0
M  V30 1599 C 151.273 2.80724 1.0777 0
M  V30 1600 C 152.821 2.89787 1.1829 0
M  V30 1601 C 153.296 4.32457 1.50815 0
M  V30 1602 N 154.787 4.35505 1.57764 0
M  V30 1603 C 155.522 5.42914 1.84477 0
M  V30 1604 N 155.018 6.60502 2.09068 0
M  V30 1605 N 156.811 5.3038 1.86155 0
M  V30 1606 H 148.962 2.09904 -0.324647 0
M  V30 1607 H 151.225 0.944378 -0.0827957 0
M  V30 1608 H 150.931 3.50531 0.286498 0
M  V30 1609 H 150.805 3.19273 2.00859 0
M  V30 1610 H 153.192 2.20186 1.96474 0
M  V30 1611 H 153.273 2.54752 0.231314 0
M  V30 1612 H 152.917 5.02603 0.731622 0
M  V30 1613 H 152.847 4.64995 2.47158 0
M  V30 1614 H 155.338 3.50724 1.40715 0
M  V30 1615 H 155.651 7.38158 2.28785 0
M  V30 1616 H 153.996 6.63639 2.06416 0
M  V30 1617 H 157.187 4.37505 1.66454 0
M  V30 1618 H 157.36 6.1417 2.06637 0
M  V30 1619 N 150.766 -0.704594 1.40972 0
M  V30 1620 C 151.676 -1.84856 1.44448 0
M  V30 1621 C 152.692 -1.70726 0.335961 0
M  V30 1622 O 153.868 -1.92799 0.582276 0
M  V30 1623 C 150.933 -3.20758 1.31587 0
M  V30 1624 C 149.994 -3.47063 2.52677 0
M  V30 1625 C 149.227 -4.76481 2.4042 0
M  V30 1626 O 149.45 -5.52341 1.42391 0
M  V30 1627 O 148.384 -5.03367 3.30007 0
M  V30 1628 H 152.21 -1.8488 2.40942 0
M  V30 1629 H 149.795 -0.85647 1.22413 0
M  V30 1630 H 151.677 -4.01913 1.26665 0
M  V30 1631 H 150.352 -3.21438 0.382049 0
M  V30 1632 H 149.259 -2.65873 2.63177 0
M  V30 1633 H 150.592 -3.5119 3.44858 0
M  V30 1634 N 152.244 -1.26651 -0.937939 0
M  V30 1635 C 153.49 -1.12553 -1.687 0
M  V30 1636 C 153.823 0.329782 -1.91379 0
M  V30 1637 O 153.098 1.24202 -1.4968 0
M  V30 1638 C 153.381 -1.89862 -3.05981 0
M  V30 1639 C 153.234 -3.43318 -2.90607 0
M  V30 1640 C 154.553 -1.69499 -4.0615 0
M  V30 1641 H 151.672 -0.410257 -0.612257 0
M  V30 1642 H 154.314 -1.55685 -1.08913 0
M  V30 1643 H 152.464 -1.53204 -3.57017 0
M  V30 1644 H 154.136 -3.89747 -2.46769 0
M  V30 1645 H 152.379 -3.70179 -2.26164 0
M  V30 1646 H 153.05 -3.92642 -3.8799 0
M  V30 1647 H 155.526 -2.01442 -3.64088 0
M  V30 1648 H 154.402 -2.26002 -5.00214 0
M  V30 1649 H 154.663 -0.640365 -4.37438 0
M  V30 1650 N 153.722 1.14298 -1.08507 0
M  V30 1651 C 155.138 1.37347 -0.812901 0
M  V30 1652 C 155.338 1.93052 0.577325 0
M  V30 1653 O 154.394 2.14389 1.33393 0
M  V30 1654 C 155.707 2.33359 -1.89642 0
M  V30 1655 C 157.255 2.46996 -1.92255 0
M  V30 1656 C 157.73 3.46309 -2.99724 0
M  V30 1657 N 159.221 3.53853 -2.98902 0
M  V30 1658 C 159.956 4.3055 -3.787 0
M  V30 1659 N 159.452 5.10482 -4.6838 0
M  V30 1660 N 161.245 4.25757 -3.66998 0
M  V30 1661 H 153.396 0.764867 -1.9815 0
M  V30 1662 H 155.659 0.398966 -0.859959 0
M  V30 1663 H 155.365 1.99565 -2.89597 0
M  V30 1664 H 155.239 3.33274 -1.76659 0
M  V30 1665 H 157.626 2.80081 -0.929445 0
M  V30 1666 H 157.707 1.47039 -2.09316 0
M  V30 1667 H 157.351 3.13957 -3.99241 0
M  V30 1668 H 157.281 4.46049 -2.79907 0
M  V30 1669 H 159.772 2.96812 -2.33904 0
M  V30 1670 H 160.085 5.66284 -5.25873 0
M  V30 1671 H 158.43 5.09747 -4.72422 0
M  V30 1672 H 161.621 3.62383 -2.96304 0
M  V30 1673 H 161.794 4.85279 -4.29427 0
M  V30 1674 N 155.201 0.870884 1.31352 0
M  V30 1675 C 156.45 0.478408 1.95944 0
M  V30 1676 C 156.763 -0.974493 1.69597 0
M  V30 1677 O 157.969 -1.47316 2.28058 0
M  V30 1678 C 156.425 0.804609 3.50791 0
M  V30 1679 C 156.033 2.27433 3.85977 0
M  V30 1680 C 157.777 0.480648 4.2177 0
M  V30 1681 C 155.684 2.5429 5.33939 0
M  V30 1682 H 154.614 0.175175 0.733369 0
M  V30 1683 H 157.265 1.06391 1.4951 0
M  V30 1684 H 155.647 0.148347 3.95722 0
M  V30 1685 H 156.821 2.97373 3.52002 0
M  V30 1686 H 155.136 2.56442 3.28065 0
M  V30 1687 H 157.733 0.658519 5.30629 0
M  V30 1688 H 158.076 -0.578979 4.12254 0
M  V30 1689 H 158.609 1.09349 3.82476 0
M  V30 1690 H 155.348 3.58939 5.48491 0
M  V30 1691 H 154.868 1.88945 5.69263 0
M  V30 1692 H 156.547 2.39066 6.01212 0
M  V30 1693 N 156.679 -1.44442 0.630414 0
M  V30 1694 C 157.612 -2.27862 -0.124247 0
M  V30 1695 C 158.59 -1.38495 -0.851931 0
M  V30 1696 O 159.774 -1.67935 -0.856166 0
M  V30 1697 C 156.901 -3.17407 -1.18197 0
M  V30 1698 C 155.947 -4.22875 -0.554892 0
M  V30 1699 S 156.78 -5.31485 0.654489 0
M  V30 1700 C 157.936 -6.246 -0.40326 0
M  V30 1701 H 158.169 -2.91519 0.583435 0
M  V30 1702 H 155.702 -1.48618 0.418565 0
M  V30 1703 H 157.66 -3.69549 -1.78728 0
M  V30 1704 H 156.321 -2.52971 -1.86184 0
M  V30 1705 H 155.514 -4.85542 -1.35148 0
M  V30 1706 H 155.116 -3.73992 -0.0242105 0
M  V30 1707 H 157.408 -6.65375 -1.27602 0
M  V30 1708 H 158.351 -7.07851 0.187813 0
M  V30 1709 H 158.759 -5.59775 -0.728837 0
M  V30 1710 N 158.157 -0.370918 -1.53173 0
M  V30 1711 C 159.104 0.473035 -2.259 0
M  V30 1712 C 160.074 1.07311 -1.26781 0
M  V30 1713 O 161.259 1.1046 -1.55574 0
M  V30 1714 C 158.399 1.60405 -3.05556 0
M  V30 1715 C 157.512 1.02863 -4.19575 0
M  V30 1716 C 156.647 2.12918 -4.86661 0
M  V30 1717 C 155.686 1.52869 -5.92704 0
M  V30 1718 N 154.823 2.56779 -6.53459 0
M  V30 1719 H 159.663 -0.153649 -2.97604 0
M  V30 1720 H 157.2 -0.0875946 -1.46839 0
M  V30 1721 H 159.158 2.27034 -3.50016 0
M  V30 1722 H 157.788 2.20131 -2.36097 0
M  V30 1723 H 156.84 0.252465 -3.79561 0
M  V30 1724 H 158.152 0.549642 -4.95762 0
M  V30 1725 H 157.306 2.87356 -5.34333 0
M  V30 1726 H 156.045 2.6417 -4.09958 0
M  V30 1727 H 155.05 0.769479 -5.44389 0
M  V30 1728 H 156.275 1.02435 -6.7133 0
M  V30 1729 H 154.221 3.07235 -5.79606 0
M  V30 1730 H 154.138 2.13583 -7.25202 0
M  V30 1731 H 155.406 3.30903 -7.05779 0
M  V30 1732 N 159.635 1.57281 -0.100228 0
M  V30 1733 C 160.884 1.93713 0.561984 0
M  V30 1734 C 161.197 0.984492 1.69018 0
M  V30 1735 O 162.403 1.24273 2.41389 0
M  V30 1736 C 160.859 3.4421 1.05106 0
M  V30 1737 C 160.467 4.47975 -0.0476628 0
M  V30 1738 C 162.211 3.89595 1.68571 0
M  V30 1739 C 160.118 5.89631 0.457055 0
M  V30 1740 H 159.048 0.723082 0.2137 0
M  V30 1741 H 161.699 1.82644 -0.177057 0
M  V30 1742 H 160.081 3.50449 1.84395 0
M  V30 1743 H 161.255 4.53385 -0.823333 0
M  V30 1744 H 159.57 4.1223 -0.587816 0
M  V30 1745 H 162.167 4.92832 2.07414 0
M  V30 1746 H 162.51 3.28526 2.55688 0
M  V30 1747 H 163.043 3.86078 0.958562 0
M  V30 1748 H 159.782 6.54411 -0.377616 0
M  V30 1749 H 159.302 5.87681 1.19962 0
M  V30 1750 H 160.981 6.40363 0.92437 0
M  V30 1751 N 161.113 -0.173488 1.56642 0
M  V30 1752 C 162.043 -1.2171 1.99271 0
M  V30 1753 C 163.024 -1.46289 0.867959 0
M  V30 1754 O 164.209 -1.5766 1.13388 0
M  V30 1755 C 161.339 -2.55651 2.35074 0
M  V30 1756 C 160.293 -2.45645 3.50489 0
M  V30 1757 C 159.619 -3.84056 3.72028 0
M  V30 1758 C 160.919 -1.96302 4.84007 0
M  V30 1759 H 162.613 -0.86275 2.867 0
M  V30 1760 H 160.159 -0.413571 1.37933 0
M  V30 1761 H 162.112 -3.2886 2.63494 0
M  V30 1762 H 160.836 -2.92869 1.44552 0
M  V30 1763 H 159.495 -1.7489 3.22194 0
M  V30 1764 H 159.143 -4.18664 2.788 0
M  V30 1765 H 158.843 -3.7823 4.49684 0
M  V30 1766 H 160.367 -4.58854 4.02846 0
M  V30 1767 H 161.781 -2.59284 5.11317 0
M  V30 1768 H 160.178 -2.01429 5.65284 0
M  V30 1769 H 161.248 -0.917226 4.76146 0
M  V30 1770 N 162.591 -1.51276 -0.441967 0
M  V30 1771 C 163.539 -1.72823 -1.55676 0
M  V30 1772 C 164.533 -0.59445 -1.58627 0
M  V30 1773 O 165.739 -0.775715 -1.62427 0
M  V30 1774 H 162.114 -0.545983 -0.517113 0
M  V30 1775 H 164.085 -2.6628 -1.34675 0
M  V30 1776 C 162.834 -1.86619 -2.93375 0
M  V30 1777 H 162.157 -2.73264 -2.91834 0
M  V30 1778 H 163.597 -2.05709 -3.70756 0
M  V30 1779 C 162.056 -0.624842 -3.31055 0
M  V30 1780 O 162.586 0.222636 -4.01083 0
M  V30 1781 N 160.792 -0.470288 -2.86769 0
M  V30 1782 H 160.339 -1.161 -2.29953 0
M  V30 1783 H 160.297 0.359051 -3.12343 0
M  V30 1784 N 164.069 0.697108 -1.41344 0
M  V30 1785 C 165.019 1.80313 -1.39539 0
M  V30 1786 C 166.003 1.58618 -0.270001 0
M  V30 1787 O 167.195 1.69477 -0.510551 0
M  V30 1788 C 164.324 3.18606 -1.27848 0
M  V30 1789 C 163.41 3.46001 -2.45244 0
M  V30 1790 N 163.801 3.44103 -3.70711 0
M  V30 1791 C 162.099 3.76542 -2.39023 0
M  V30 1792 C 162.8 3.7036 -4.48563 0
M  V30 1793 N 161.776 3.90027 -3.78655 0
M  V30 1794 H 165.578 1.77207 -2.34468 0
M  V30 1795 H 163.092 0.897031 -1.35378 0
M  V30 1796 H 165.089 3.97833 -1.24637 0
M  V30 1797 H 163.749 3.22925 -0.339032 0
M  V30 1798 H 164.76 3.2452 -4.03618 0
M  V30 1799 H 161.437 3.88241 -1.53542 0
M  V30 1800 H 162.827 3.75042 -5.57488 0
M  V30 1801 N 165.547 1.27147 0.931209 0
M  V30 1802 C 166.958 1.12044 1.49342 0
M  V30 1803 C 167.309 -0.295795 1.93957 0
M  V30 1804 O 166.434 -1.18835 1.80852 0
M  V30 1805 C 167.029 2.02781 2.71414 0
M  V30 1806 C 165.588 1.91794 3.2387 0
M  V30 1807 C 164.735 1.95543 1.96617 0
M  V30 1808 H 167.686 1.40091 0.745672 0
M  V30 1809 H 167.707 1.58156 3.46074 0
M  V30 1810 H 167.219 3.05848 2.38911 0
M  V30 1811 H 165.32 0.916992 3.6114 0
M  V30 1812 H 165.433 2.77852 3.90302 0
M  V30 1813 H 163.797 1.39722 2.12955 0
M  V30 1814 H 164.58 3.00259 1.66432 0
M  V30 1815 N 167.025 -1.13721 1.09112 0
M  V30 1816 C 167.973 -2.21103 0.722219 0
M  V30 1817 C 168.967 -1.67147 -0.275374 0
M  V30 1818 O 170.173 -1.79477 -0.137176 0
M  V30 1819 H 166.548 -0.720445 0.215553 0
M  V30 1820 H 168.519 -2.49483 1.63709 0
M  V30 1821 C 167.268 -3.47352 0.15543 0
M  V30 1822 H 166.591 -3.89206 0.914246 0
M  V30 1823 H 168.031 -4.2395 -0.0647967 0
M  V30 1824 C 166.49 -3.1814 -1.10852 0
M  V30 1825 O 167.02 -3.36604 -2.19227 0
M  V30 1826 N 165.226 -2.72045 -1.02176 0
M  V30 1827 H 164.773 -2.57221 -0.139764 0
M  V30 1828 H 164.731 -2.52875 -1.8682 0
M  V30 1829 N 168.503 -0.877838 -1.30888 0
M  V30 1830 C 169.752 -0.488793 -1.95688 0
M  V30 1831 C 170.065 0.965485 -1.70111 0
M  V30 1832 O 171.271 1.46104 -2.28836 0
M  V30 1833 C 169.727 -0.823201 -3.50359 0
M  V30 1834 C 169.335 -2.29477 -3.84765 0
M  V30 1835 C 171.079 -0.503009 -4.21509 0
M  V30 1836 C 168.986 -2.57118 -5.32583 0
M  V30 1837 H 167.916 -0.179062 -0.732429 0
M  V30 1838 H 170.567 -1.07183 -1.48943 0
M  V30 1839 H 168.949 -0.169331 -3.95638 0
M  V30 1840 H 170.123 -2.99236 -3.5042 0
M  V30 1841 H 168.438 -2.58178 -3.267 0
M  V30 1842 H 171.035 -0.68665 -5.30273 0
M  V30 1843 H 171.378 0.557109 -4.12555 0
M  V30 1844 H 171.911 -1.11376 -3.8189 0
M  V30 1845 H 168.65 -3.61843 -5.4658 0
M  V30 1846 H 168.17 -1.91961 -5.68253 0
M  V30 1847 H 169.849 -2.42251 -5.99936 0
M  V30 1848 N 169.982 1.44106 -0.638065 0
M  V30 1849 C 171.228 2.02277 -0.145546 0
M  V30 1850 C 171.561 1.50125 1.23191 0
M  V30 1851 O 170.836 0.688133 1.8192 0
M  V30 1852 C 171.119 3.59829 -0.139791 0
M  V30 1853 C 170.972 4.22247 -1.55008 0
M  V30 1854 C 172.291 4.36873 0.531966 0
M  V30 1855 H 169.41 0.734992 -0.0543632 0
M  V30 1856 H 172.052 1.71592 -0.815863 0
M  V30 1857 H 170.202 3.86102 0.431007 0
M  V30 1858 H 171.874 4.07057 -2.1703 0
M  V30 1859 H 170.117 3.79476 -2.10191 0
M  V30 1860 H 170.788 5.31284 -1.49804 0
M  V30 1861 H 173.264 4.16074 0.0464781 0
M  V30 1862 H 172.14 5.4657 0.505206 0
M  V30 1863 H 172.401 4.11995 1.60352 0
M  V30 1864 N 171.46 0.379036 1.52974 0
M  V30 1865 C 172.407 -0.461048 2.26148 0
M  V30 1866 C 173.377 -1.06637 1.27349 0
M  V30 1867 O 174.562 -1.09633 1.56157 0
M  V30 1868 C 171.702 -1.58782 3.06402 0
M  V30 1869 C 170.815 -1.00636 4.20115 0
M  V30 1870 C 169.95 -2.10334 4.87784 0
M  V30 1871 C 168.989 -1.49724 5.93506 0
M  V30 1872 N 168.126 -2.5331 6.54812 0
M  V30 1873 H 172.966 0.169429 2.97518 0
M  V30 1874 H 170.503 0.0953806 1.4679 0
M  V30 1875 H 172.461 -2.25174 3.51215 0
M  V30 1876 H 171.091 -2.18876 2.37261 0
M  V30 1877 H 170.143 -0.232332 3.7969 0
M  V30 1878 H 171.455 -0.523343 4.96047 0
M  V30 1879 H 170.609 -2.84519 5.35849 0
M  V30 1880 H 169.348 -2.61992 4.11353 0
M  V30 1881 H 168.353 -0.740598 5.44789 0
M  V30 1882 H 169.578 -0.988732 6.71864 0
M  V30 1883 H 167.524 -3.04156 5.81227 0
M  V30 1884 H 167.441 -2.09734 7.26325 0
M  V30 1885 H 168.709 -3.27155 7.07524 0
M  V30 1886 N 172.938 -1.57226 0.108567 0
M  V30 1887 C 173.868 -2.17778 -0.84232 0
M  V30 1888 C 174.849 -1.11487 -1.2847 0
M  V30 1889 O 176.034 -1.39681 -1.34918 0
M  V30 1890 C 173.164 -2.76888 -2.09644 0
M  V30 1891 C 172.118 -3.88669 -1.79221 0
M  V30 1892 C 171.444 -4.34541 -3.11574 0
M  V30 1893 C 172.744 -5.11251 -1.06864 0
M  V30 1894 H 174.438 -2.97489 -0.337774 0
M  V30 1895 H 171.984 -1.43097 -0.161025 0
M  V30 1896 H 173.937 -3.17904 -2.76614 0
M  V30 1897 H 172.661 -1.94451 -2.62405 0
M  V30 1898 H 171.32 -3.48213 -1.14644 0
M  V30 1899 H 170.968 -3.48977 -3.62249 0
M  V30 1900 H 170.668 -5.09914 -2.91996 0
M  V30 1901 H 172.192 -4.782 -3.7968 0
M  V30 1902 H 173.606 -5.49352 -1.63968 0
M  V30 1903 H 172.003 -5.9214 -0.974178 0
M  V30 1904 H 173.073 -4.8487 -0.0536168 0
M  V30 1905 N 174.416 0.165178 -1.56732 0
M  V30 1906 C 175.663 0.880807 -1.8234 0
M  V30 1907 C 175.991 1.81977 -0.686621 0
M  V30 1908 O 175.246 1.92971 0.325697 0
M  V30 1909 C 175.545 1.70405 -3.1416 0
M  V30 1910 C 175.211 0.913475 -4.4155 0
M  V30 1911 C 173.873 0.695303 -4.7615 0
M  V30 1912 C 176.225 0.359349 -5.1996 0
M  V30 1913 C 173.553 -0.0879947 -5.86634 0
M  V30 1914 C 175.905 -0.410893 -6.31264 0
M  V30 1915 C 174.569 -0.639808 -6.64427 0
M  V30 1916 H 173.839 0.32231 -0.667231 0
M  V30 1917 H 176.486 0.145402 -1.90947 0
M  V30 1918 H 174.791 2.50903 -3.00923 0
M  V30 1919 H 176.488 2.26091 -3.31186 0
M  V30 1920 H 173.078 1.09357 -4.14414 0
M  V30 1921 H 177.262 0.515228 -4.93618 0
M  V30 1922 H 172.518 -0.27503 -6.10781 0
M  V30 1923 H 176.692 -0.847494 -6.91224 0
M  V30 1924 H 174.319 -1.24864 -7.49875 0
M  V30 1925 N 175.894 1.51508 0.433938 0
M  V30 1926 C 176.804 1.75917 1.5521 0
M  V30 1927 C 177.82 0.643545 1.61662 0
M  V30 1928 O 178.996 0.926183 1.7884 0
M  V30 1929 C 176.061 1.88213 2.91164 0
M  V30 1930 C 175.122 3.12074 2.94802 0
M  V30 1931 C 174.355 3.23774 4.24271 0
M  V30 1932 O 174.578 2.4133 5.16833 0
M  V30 1933 O 173.512 4.16774 4.34262 0
M  V30 1934 H 177.338 2.70777 1.37527 0
M  V30 1935 H 174.923 1.36051 0.617293 0
M  V30 1936 H 176.805 1.98267 3.71845 0
M  V30 1937 H 175.48 0.965413 3.08968 0
M  V30 1938 H 174.387 3.07497 2.13065 0
M  V30 1939 H 175.72 4.03446 2.81943 0
M  V30 1940 N 177.372 -0.689602 1.41712 0
M  V30 1941 C 178.618 -1.45181 1.41599 0
M  V30 1942 C 178.951 -1.94181 0.0270081 0
M  V30 1943 O 178.226 -1.6993 -0.946265 0
M  V30 1944 C 178.509 -2.65945 2.42787 0
M  V30 1945 C 178.362 -2.22672 3.90816 0
M  V30 1946 C 179.681 -3.68149 2.41151 0
M  V30 1947 H 176.8 -0.526576 0.515642 0
M  V30 1948 H 179.442 -0.784947 1.73028 0
M  V30 1949 H 177.592 -3.2284 2.16116 0
M  V30 1950 H 179.264 -1.71058 4.28412 0
M  V30 1951 H 177.507 -1.54394 4.05395 0
M  V30 1952 H 178.178 -3.0935 4.57172 0
M  V30 1953 H 180.654 -3.2094 2.64834 0
M  V30 1954 H 179.53 -4.50248 3.13955 0
M  V30 1955 H 179.791 -4.18259 1.43221 0
M  V30 1956 N 178.85 -1.27639 -0.924453 0
M  V30 1957 C 180.099 -1.13549 -1.66702 0
M  V30 1958 C 180.412 0.317487 -1.93006 0
M  V30 1959 O 181.618 0.579333 -2.65247 0
M  V30 1960 C 180.074 -1.98426 -3.00259 0
M  V30 1961 C 179.682 -3.484 -2.81641 0
M  V30 1962 C 181.426 -1.92993 -3.78092 0
M  V30 1963 C 179.333 -4.25464 -4.10773 0
M  V30 1964 H 178.263 -0.421351 -0.625283 0
M  V30 1965 H 180.914 -1.52085 -1.02676 0
M  V30 1966 H 179.296 -1.52736 -3.6536 0
M  V30 1967 H 180.47 -4.01973 -2.25287 0
M  V30 1968 H 178.785 -3.55245 -2.17232 0
M  V30 1969 H 181.382 -2.47844 -4.7379 0
M  V30 1970 H 181.725 -0.904281 -4.0636 0
M  V30 1971 H 182.258 -2.36595 -3.19793 0
M  V30 1972 H 178.997 -5.28566 -3.87683 0
M  V30 1973 H 178.517 -3.76667 -4.66779 0
M  V30 1974 H 180.196 -4.34812 -4.79111 0
M  V30 1975 N 180.328 1.1314 -1.09713 0
M  V30 1976 C 181.238 2.22242 -0.751367 0
M  V30 1977 C 182.254 1.72224 0.247938 0
M  V30 1978 O 183.43 2.01205 0.0885463 0
M  V30 1979 C 180.495 3.46231 -0.180274 0
M  V30 1980 C 179.556 4.11125 -1.2359 0
M  V30 1981 C 178.789 5.29195 -0.691966 0
M  V30 1982 O 179.012 5.68342 0.48414 0
M  V30 1983 O 177.946 5.84214 -1.44838 0
M  V30 1984 H 181.772 2.54197 -1.66186 0
M  V30 1985 H 179.357 1.21331 -0.871735 0
M  V30 1986 H 181.239 4.21185 0.134739 0
M  V30 1987 H 179.914 3.1597 0.703185 0
M  V30 1988 H 178.821 3.37985 -1.60366 0
M  V30 1989 H 180.154 4.45524 -2.09211 0
M  V30 1990 N 181.806 0.884767 1.30421 0
M  V30 1991 C 183.034 0.518044 2.0031 0
M  V30 1992 C 183.449 -0.893408 1.66324 0
M  V30 1993 O 182.806 -1.5875 0.900262 0
M  V30 1994 C 182.857 0.682997 3.54989 0
M  V30 1995 O 182.578 2.03888 3.87764 0
M  V30 1996 C 184.079 0.31924 4.42149 0
M  V30 1997 H 181.299 0.200265 0.640418 0
M  V30 1998 H 183.843 1.19001 1.6631 0
M  V30 1999 H 181.998 0.0584052 3.87356 0
M  V30 2000 H 182.412 2.05735 4.82466 0
M  V30 2001 H 183.886 0.485555 5.4986 0
M  V30 2002 H 184.363 -0.742717 4.32875 0
M  V30 2003 H 184.969 0.920147 4.15227 0
M  V30 2004 N 183.284 -1.43765 0.645699 0
M  V30 2005 C 184.194 -2.34544 -0.0512957 0
M  V30 2006 C 185.21 -1.53455 -0.82022 0
M  V30 2007 O 186.386 -1.86133 -0.769176 0
M  V30 2008 C 183.451 -3.31636 -1.01087 0
M  V30 2009 C 182.512 -4.2863 -0.239712 0
M  V30 2010 C 181.745 -5.21084 -1.15358 0
M  V30 2011 O 181.968 -5.1779 -2.39269 0
M  V30 2012 O 180.902 -5.98593 -0.630038 0
M  V30 2013 H 184.728 -2.95624 0.695718 0
M  V30 2014 H 182.313 -1.43781 0.405882 0
M  V30 2015 H 184.195 -3.9136 -1.56254 0
M  V30 2016 H 182.87 -2.73069 -1.73824 0
M  V30 2017 H 181.777 -3.72408 0.355356 0
M  V30 2018 H 183.11 -4.90157 0.447936 0
M  V30 2019 N 184.763 -0.387143 -1.52771 0
M  V30 2020 C 185.71 0.449048 -2.26389 0
M  V30 2021 C 186.68 1.05961 -1.27912 0
M  V30 2022 O 187.865 1.08804 -1.56737 0
M  V30 2023 C 185.005 1.57155 -3.0724 0
M  V30 2024 C 184.118 0.984066 -4.20643 0
M  V30 2025 C 183.253 2.07745 -4.88892 0
M  V30 2026 C 182.292 1.46574 -5.94292 0
M  V30 2027 N 181.429 2.49834 -6.56146 0
M  V30 2028 H 186.269 -0.185205 -2.97424 0
M  V30 2029 H 183.806 -0.103164 -1.46738 0
M  V30 2030 H 185.764 2.23309 -3.52405 0
M  V30 2031 H 184.394 2.17615 -2.38419 0
M  V30 2032 H 183.446 0.212193 -3.79808 0
M  V30 2033 H 184.758 0.497029 -4.96318 0
M  V30 2034 H 183.912 2.81673 -5.3735 0
M  V30 2035 H 182.651 2.59807 -4.12737 0
M  V30 2036 H 181.656 0.711696 -5.45174 0
M  V30 2037 H 182.881 0.953088 -6.72379 0
M  V30 2038 H 180.827 3.0107 -5.82832 0
M  V30 2039 H 180.744 2.05879 -7.27427 0
M  V30 2040 H 182.012 3.23399 -7.09249 0
M  V30 2041 N 186.241 1.57166 -0.116904 0
M  V30 2042 C 187.469 1.99473 0.549383 0
M  V30 2043 C 187.884 0.996541 1.60357 0
M  V30 2044 O 187.241 -0.0108731 1.82497 0
M  V30 2045 C 187.292 3.41788 1.17741 0
M  V30 2046 O 187.013 4.37788 0.165362 0
M  V30 2047 C 188.514 3.99216 1.92722 0
M  V30 2048 H 185.734 0.655009 0.145616 0
M  V30 2049 H 188.278 2.03494 -0.202625 0
M  V30 2050 H 186.433 3.38713 1.88021 0
M  V30 2051 H 186.847 5.20806 0.621403 0
M  V30 2052 H 188.321 5.00882 2.31995 0
M  V30 2053 H 188.798 3.3824 2.80161 0
M  V30 2054 H 189.404 4.0583 1.27209 0
M  V30 2055 N 187.719 -0.156864 1.56817 0
M  V30 2056 C 188.649 -1.19589 2.00551 0
M  V30 2057 C 189.63 -1.4536 0.883426 0
M  V30 2058 O 190.815 -1.56449 1.15054 0
M  V30 2059 C 187.945 -2.53143 2.37773 0
M  V30 2060 C 186.899 -2.41913 3.53075 0
M  V30 2061 C 186.225 -3.80088 3.76081 0
M  V30 2062 C 187.525 -1.91157 4.86062 0
M  V30 2063 H 189.219 -0.832293 2.87599 0
M  V30 2064 H 186.765 -0.398918 1.38364 0
M  V30 2065 H 188.718 -3.26047 2.66967 0
M  V30 2066 H 187.442 -2.91319 1.4765 0
M  V30 2067 H 186.101 -1.71462 3.24031 0
M  V30 2068 H 185.749 -4.15683 2.83225 0
M  V30 2069 H 185.449 -3.73439 4.53671 0
M  V30 2070 H 186.973 -4.54556 4.0769 0
M  V30 2071 H 188.387 -2.53846 5.14038 0
M  V30 2072 H 186.784 -1.95422 5.67389 0
M  V30 2073 H 187.854 -0.866673 4.77092 0
M  V30 2074 N 189.197 -1.51736 -0.425897 0
M  V30 2075 C 190.427 -1.68549 -1.19476 0
M  V30 2076 C 190.835 -0.387288 -1.85194 0
M  V30 2077 O 190.178 0.645142 -1.71999 0
M  V30 2078 C 190.24 -2.75275 -2.31223 0
M  V30 2079 C 189.904 -4.17534 -1.8578 0
M  V30 2080 C 190.901 -5.01936 -1.35485 0
M  V30 2081 C 188.586 -4.6369 -1.93123 0
M  V30 2082 C 190.58 -6.30559 -0.931347 0
M  V30 2083 C 188.267 -5.92307 -1.50384 0
M  V30 2084 C 189.265 -6.75569 -1.00473 0
M  V30 2085 O 188.953 -8.0178 -0.583452 0
M  V30 2086 H 188.685 -0.568525 -0.365725 0
M  V30 2087 H 191.239 -1.98982 -0.509444 0
M  V30 2088 H 189.469 -2.40182 -3.03067 0
M  V30 2089 H 191.158 -2.80853 -2.93047 0
M  V30 2090 H 191.924 -4.67475 -1.29197 0
M  V30 2091 H 187.803 -3.98997 -2.30916 0
M  V30 2092 H 191.347 -6.95498 -0.541084 0
M  V30 2093 H 187.244 -6.2628 -1.56346 0
M  V30 2094 H 188.012 -8.1543 -0.708275 0
M  V30 2095 N 190.675 0.682077 -1.42076 0
M  V30 2096 C 191.605 1.80796 -1.47767 0
M  V30 2097 C 192.586 1.6677 -0.334954 0
M  V30 2098 O 193.771 1.863 -0.548264 0
M  V30 2099 C 190.901 3.19038 -1.37229 0
M  V30 2100 C 189.855 3.47789 -2.49453 0
M  V30 2101 C 189.181 4.8553 -2.23975 0
M  V30 2102 C 190.481 3.45411 -3.91776 0
M  V30 2103 H 192.175 1.7629 -2.41997 0
M  V30 2104 H 189.721 0.846721 -1.16476 0
M  V30 2105 H 191.674 3.97528 -1.39821 0
M  V30 2106 H 190.398 3.24204 -0.394907 0
M  V30 2107 H 189.057 2.71657 -2.46166 0
M  V30 2108 H 188.705 4.87337 -1.24547 0
M  V30 2109 H 188.405 5.0573 -2.99184 0
M  V30 2110 H 189.929 5.66312 -2.28304 0
M  V30 2111 H 191.343 4.13882 -3.96705 0
M  V30 2112 H 189.74 3.77145 -4.66778 0
M  V30 2113 H 190.81 2.44122 -4.18966 0
M  V30 2114 N 192.153 1.28127 0.917671 0
M  V30 2115 C 193.402 1.14432 1.66097 0
M  V30 2116 C 193.715 -0.307247 1.93172 0
M  V30 2117 O 194.921 -0.565259 2.65551 0
M  V30 2118 C 193.377 2.00015 2.99202 0
M  V30 2119 C 192.985 3.49889 2.79789 0
M  V30 2120 C 194.729 1.94996 3.77064 0
M  V30 2121 C 192.636 4.27636 4.08511 0
M  V30 2122 H 191.566 0.424662 0.62304 0
M  V30 2123 H 194.217 1.52628 1.01868 0
M  V30 2124 H 192.599 1.54672 3.64544 0
M  V30 2125 H 193.773 4.03162 2.23152 0
M  V30 2126 H 192.088 3.56392 2.15345 0
M  V30 2127 H 194.685 2.50354 4.72469 0
M  V30 2128 H 195.028 0.925819 4.05875 0
M  V30 2129 H 195.561 2.38287 3.18534 0
M  V30 2130 H 192.3 5.30615 3.84874 0
M  V30 2131 H 191.82 3.79137 4.64774 0
M  V30 2132 H 193.499 4.37346 4.76799 0
M  V30 2133 N 193.631 -1.12557 1.10312 0
M  V30 2134 C 194.564 -2.1737 0.694674 0
M  V30 2135 C 195.542 -1.59745 -0.303373 0
M  V30 2136 O 196.726 -1.87408 -0.202578 0
M  V30 2137 C 193.853 -3.38691 0.0248052 0
M  V30 2138 C 192.899 -4.14943 0.986121 0
M  V30 2139 S 193.732 -4.73413 2.50281 0
M  V30 2140 C 194.888 -5.9807 1.84562 0
M  V30 2141 H 195.121 -2.5168 1.58255 0
M  V30 2142 H 192.654 -1.23998 0.919992 0
M  V30 2143 H 194.612 -4.08959 -0.355361 0
M  V30 2144 H 193.273 -3.02664 -0.839851 0
M  V30 2145 H 192.466 -5.01854 0.464651 0
M  V30 2146 H 192.068 -3.50377 1.30813 0
M  V30 2147 H 194.36 -6.67232 1.17507 0
M  V30 2148 H 195.303 -6.54841 2.69423 0
M  V30 2149 H 195.711 -5.49073 1.31069 0
M  V30 2150 N 195.109 -0.891671 -1.2995 0
M  V30 2151 C 196.019 -0.367691 -2.31701 0
M  V30 2152 C 197.035 0.533486 -1.6562 0
M  V30 2153 O 198.211 0.424997 -1.96865 0
M  V30 2154 C 195.276 0.403406 -3.44345 0
M  V30 2155 C 194.337 -0.528328 -4.26037 0
M  V30 2156 C 193.57 0.206063 -5.33302 0
M  V30 2157 O 193.793 1.43119 -5.52153 0
M  V30 2158 O 192.727 -0.447281 -6.00236 0
M  V30 2159 H 196.553 -1.21163 -2.78484 0
M  V30 2160 H 194.138 -0.655725 -1.34241 0
M  V30 2161 H 196.02 0.839753 -4.12948 0
M  V30 2162 H 194.695 1.22354 -2.99685 0
M  V30 2163 H 193.602 -1.01362 -3.60106 0
M  V30 2164 H 194.935 -1.31465 -4.74318 0
M  V30 2165 N 196.587 1.43421 -0.653314 0
M  V30 2166 C 197.817 2.05864 -0.174238 0
M  V30 2167 C 198.225 1.49052 1.16534 0
M  V30 2168 O 197.568 0.616481 1.73047 0
M  V30 2169 C 197.63 3.59499 -0.00875873 0
M  V30 2170 C 197.294 4.38893 -1.27364 0
M  V30 2171 C 198.291 4.70947 -2.20239 0
M  V30 2172 C 195.976 4.789 -1.51525 0
M  V30 2173 C 197.97 5.41916 -3.35568 0
M  V30 2174 C 195.657 5.49614 -2.67147 0
M  V30 2175 C 196.655 5.81044 -3.58994 0
M  V30 2176 O 196.343 6.50313 -4.72597 0
M  V30 2177 H 196.075 0.670345 -0.0872549 0
M  V30 2178 H 198.629 1.84913 -0.894226 0
M  V30 2179 H 196.859 3.79025 0.7666 0
M  V30 2180 H 198.548 4.0364 0.427687 0
M  V30 2181 H 199.314 4.40558 -2.02815 0
M  V30 2182 H 195.193 4.53843 -0.809158 0
M  V30 2183 H 198.737 5.66365 -4.07279 0
M  V30 2184 H 194.634 5.79419 -2.84505 0
M  V30 2185 H 195.402 6.68795 -4.71864 0
M  V30 2186 N 198.065 0.39524 1.52563 0
M  V30 2187 C 199.028 -0.425001 2.25225 0
M  V30 2188 C 200.028 -0.985266 1.27079 0
M  V30 2189 O 201.218 -0.866332 1.5113 0
M  V30 2190 C 198.35 -1.59686 3.01186 0
M  V30 2191 H 199.543 0.211233 2.99155 0
M  V30 2192 H 197.096 0.147472 1.55603 0
M  V30 2193 H 197.831 -2.27035 2.31572 0
M  V30 2194 H 197.616 -1.20176 3.73229 0
M  V30 2195 H 199.106 -2.17743 3.5634 0
M  V30 2196 N 199.544 -1.57102 0.125237 0
M  V30 2197 C 200.769 -2.0019 -0.542101 0
M  V30 2198 C 201.194 -1.00449 -1.59034 0
M  V30 2199 O 200.552 0.0229423 -1.81285 0
M  V30 2200 C 200.6 -3.42129 -1.13929 0
M  V30 2201 O 199.704 -3.45307 -2.2547 0
M  V30 2202 H 199.045 -0.650171 -0.134812 0
M  V30 2203 H 201.575 -2.03461 0.215553 0
M  V30 2204 H 201.585 -3.80471 -1.4733 0
M  V30 2205 H 200.26 -4.14237 -0.371531 0
M  V30 2206 H 198.837 -3.1879 -1.93462 0
M  V30 2207 N 201.022 0.148545 -1.56898 0
M  V30 2208 C 202.27 0.859717 -1.82902 0
M  V30 2209 C 202.591 1.81775 -0.70588 0
M  V30 2210 O 201.861 1.93994 0.272586 0
M  V30 2211 H 200.441 0.320469 -0.674766 0
M  V30 2212 H 203.103 0.142918 -1.94375 0
M  V30 2213 H 202.199 1.4229 -2.77777 0
M  V30 2214 N 202.5 1.5196 0.417844 0
M  V30 2215 C 203.748 1.65263 1.16329 0
M  V30 2216 C 204.069 0.380634 1.91249 0
M  V30 2217 O 203.339 -0.604214 1.86349 0
M  V30 2218 H 201.919 0.60912 0.432414 0
M  V30 2219 H 204.581 1.88969 0.477162 0
M  V30 2220 H 203.677 2.4896 1.88217 0
M  V30 2221 N 203.978 -0.674533 1.42435 0
M  V30 2222 C 204.888 -1.81751 1.48337 0
M  V30 2223 C 205.904 -1.69975 0.372099 0
M  V30 2224 O 207.08 -1.91521 0.62304 0
M  V30 2225 C 204.145 -3.17895 1.38361 0
M  V30 2226 C 203.206 -3.41625 2.59982 0
M  V30 2227 C 202.439 -4.71274 2.50473 0
M  V30 2228 O 202.662 -5.49197 1.54075 0
M  V30 2229 O 201.596 -4.96254 3.4061 0
M  V30 2230 H 205.422 -1.79728 2.44809 0
M  V30 2231 H 203.007 -0.830312 1.24202 0
M  V30 2232 H 204.889 -3.99136 1.35161 0
M  V30 2233 H 203.564 -3.20555 0.450144 0
M  V30 2234 H 202.471 -2.60231 2.68757 0
M  V30 2235 H 203.804 -3.43796 3.52229 0
M  V30 2236 N 205.456 -1.28612 -0.910864 0
M  V30 2237 C 206.702 -1.16106 -1.66274 0
M  V30 2238 C 207.035 0.289113 -1.92036 0
M  V30 2239 O 206.31 1.21 -1.52281 0
M  V30 2240 C 206.593 -1.96309 -3.01885 0
M  V30 2241 C 206.446 -3.49405 -2.8326 0
M  V30 2242 C 207.765 -1.78076 -4.02463 0
M  V30 2243 H 204.884 -0.423152 -0.603417 0
M  V30 2244 H 207.526 -1.57961 -1.05586 0
M  V30 2245 H 205.676 -1.60742 -3.53687 0
M  V30 2246 H 207.348 -3.94894 -2.38446 0
M  V30 2247 H 205.591 -3.74893 -2.18261 0
M  V30 2248 H 206.262 -4.00784 -3.79574 0
M  V30 2249 H 208.738 -2.0912 -3.59733 0
M  V30 2250 H 207.614 -2.36561 -4.95308 0
M  V30 2251 H 207.875 -0.733008 -4.35981 0
M  V30 2252 N 206.934 1.1197 -1.10907 0
M  V30 2253 C 208.181 1.83588 -0.854507 0
M  V30 2254 C 208.509 1.84357 0.6199 0
M  V30 2255 O 207.764 1.28809 1.47332 0
M  V30 2256 C 208.063 3.30749 -1.35425 0
M  V30 2257 C 207.729 3.50146 -2.84093 0
M  V30 2258 C 206.391 3.55148 -3.2469 0
M  V30 2259 C 208.743 3.56857 -3.79872 0
M  V30 2260 C 206.071 3.6441 -4.59806 0
M  V30 2261 C 208.423 3.6765 -5.14797 0
M  V30 2262 C 207.087 3.7091 -5.54961 0
M  V30 2263 H 206.357 0.671795 -0.312686 0
M  V30 2264 H 209.004 1.32091 -1.38652 0
M  V30 2265 H 207.309 3.84703 -0.742361 0
M  V30 2266 H 209.006 3.8464 -1.1337 0
M  V30 2267 H 205.596 3.46919 -2.51685 0
M  V30 2268 H 209.78 3.52258 -3.49611 0
M  V30 2269 H 205.036 3.65208 -4.9034 0
M  V30 2270 H 209.21 3.71786 -5.88853 0
M  V30 2271 H 206.837 3.7784 -6.59652 0
M  V30 2272 N 208.412 0.89855 1.29475 0
M  V30 2273 C 209.689 0.443416 1.90508 0
M  V30 2274 C 210.069 -1.07685 1.81569 0
M  V30 2275 O 209.417 -1.9182 1.24166 0
M  V30 2276 C 209.627 0.956708 3.35631 0
M  V30 2277 C 210.975 0.999728 4.12663 0
M  V30 2278 O 211.999 0.904299 3.4453 0
M  V30 2279 O 210.858 1.14289 5.34416 0
M  V30 2280 H 207.952 0.138025 0.815401 0
M  V30 2281 H 210.498 0.98834 1.37949 0
M  V30 2282 H 209.27 2.00067 3.36287 0
M  V30 2283 H 208.893 0.391728 3.95666 0
M  V30 2284 N 209.89 -1.43072 0.660911 0
M  V30 2285 C 211.12 -2.05769 0.185153 0
M  V30 2286 C 211.528 -1.49668 -1.15742 0
M  V30 2287 O 210.871 -0.625649 -1.72717 0
M  V30 2288 C 210.933 -3.59489 0.0278237 0
M  V30 2289 C 210.597 -4.38212 1.2969 0
M  V30 2290 C 211.594 -4.69772 2.22734 0
M  V30 2291 C 209.279 -4.7809 1.54063 0
M  V30 2292 C 211.273 -5.40129 3.38437 0
M  V30 2293 C 208.96 -5.4819 2.70058 0
M  V30 2294 C 209.958 -5.79132 3.62071 0
M  V30 2295 O 209.646 -6.47798 4.76039 0
M  V30 2296 H 209.378 -0.669873 0.0908086 0
M  V30 2297 H 211.932 -1.84436 0.90402 0
M  V30 2298 H 210.162 -3.79426 -0.746489 0
M  V30 2299 H 211.851 -4.03862 -0.406275 0
M  V30 2300 H 212.617 -4.39476 2.05149 0
M  V30 2301 H 208.496 -4.53408 0.833215 0
M  V30 2302 H 212.04 -5.64198 4.10277 0
M  V30 2303 H 207.937 -5.77902 2.87574 0
M  V30 2304 H 208.705 -6.66283 4.75404 0
M  V30 2305 N 211.368 -0.403325 -1.52352 0
M  V30 2306 C 212.298 0.416205 -2.29761 0
M  V30 2307 C 213.279 1.05123 -1.33728 0
M  V30 2308 O 214.464 1.06134 -1.62632 0
M  V30 2309 C 211.594 1.53624 -3.11475 0
M  V30 2310 C 210.548 1.02653 -4.15507 0
M  V30 2311 C 209.874 2.23971 -4.85532 0
M  V30 2312 C 211.174 0.08463 -5.22231 0
M  V30 2313 H 212.868 -0.229701 -2.98518 0
M  V30 2314 H 210.414 -0.111913 -1.43564 0
M  V30 2315 H 212.367 2.1165 -3.64393 0
M  V30 2316 H 211.091 2.20994 -2.40477 0
M  V30 2317 H 209.75 0.46871 -3.63591 0
M  V30 2318 H 209.398 2.89883 -4.11068 0
M  V30 2319 H 209.098 1.90521 -5.55856 0
M  V30 2320 H 210.622 2.82614 -5.41259 0
M  V30 2321 H 212.036 0.573509 -5.70424 0
M  V30 2322 H 210.433 -0.160783 -5.99885 0
M  V30 2323 H 211.503 -0.86237 -4.7717 0
M  V30 2324 N 212.846 1.57033 -0.133567 0
M  V30 2325 C 214.092 1.95976 0.521649 0
M  V30 2326 C 214.425 1.01779 1.65393 0
M  V30 2327 O 213.7 0.0576581 1.94415 0
M  V30 2328 C 213.983 3.44738 1.04057 0
M  V30 2329 C 213.836 4.49711 -0.0892897 0
M  V30 2330 C 215.155 3.95682 1.92675 0
M  V30 2331 H 212.274 0.712579 0.188149 0
M  V30 2332 H 214.916 1.88813 -0.212076 0
M  V30 2333 H 213.066 3.50973 1.66583 0
M  V30 2334 H 214.738 4.55565 -0.725152 0
M  V30 2335 H 212.981 4.27261 -0.750378 0
M  V30 2336 H 213.652 5.51099 0.315284 0
M  V30 2337 H 216.128 3.91841 1.39998 0
M  V30 2338 H 215.004 5.00262 2.25897 0
M  V30 2339 H 215.265 3.37239 2.85872 0
M  V30 2340 N 214.325 -0.140222 1.56975 0
M  V30 2341 C 215.288 -1.15689 1.97861 0
M  V30 2342 C 216.288 -1.3549 0.865974 0
M  V30 2343 O 217.478 -1.32367 1.13246 0
M  V30 2344 C 214.61 -2.51582 2.30042 0
M  V30 2345 H 215.803 -0.805971 2.88867 0
M  V30 2346 H 213.356 -0.383801 1.51515 0
M  V30 2347 H 214.091 -2.91632 1.41849 0
M  V30 2348 H 213.876 -2.38569 3.11171 0
M  V30 2349 H 215.366 -3.24792 2.62488 0
M  V30 2350 N 215.803 -1.52179 -0.40978 0
M  V30 2351 C 216.753 -1.71857 -1.49831 0
M  V30 2352 C 217.737 -0.572469 -1.50372 0
M  V30 2353 O 218.929 -0.829509 -1.56359 0
M  V30 2354 C 216.058 -1.87206 -2.87765 0
M  V30 2355 C 215.144 -3.07685 -2.91875 0
M  V30 2356 N 215.535 -4.30403 -2.65683 0
M  V30 2357 C 213.833 -3.07505 -3.23043 0
M  V30 2358 C 214.534 -5.11868 -2.76344 0
M  V30 2359 N 213.51 -4.47101 -3.09195 0
M  V30 2360 H 217.312 -2.64381 -1.28375 0
M  V30 2361 H 214.826 -1.50203 -0.617479 0
M  V30 2362 H 216.823 -1.99419 -3.66111 0
M  V30 2363 H 215.483 -0.958814 -3.10221 0
M  V30 2364 H 216.494 -4.58887 -2.4009 0
M  V30 2365 H 213.171 -2.25915 -3.51096 0
M  V30 2366 H 214.561 -6.19634 -2.59814 0
M  V30 2367 N 217.281 0.66697 -1.42791 0
M  V30 2368 C 218.529 1.42417 -1.43394 0
M  V30 2369 C 218.85 1.94925 -0.0542373 0
M  V30 2370 O 218.12 1.73564 0.908415 0
M  V30 2371 H 216.7 0.528515 -0.527902 0
M  V30 2372 H 219.362 0.787562 -1.78279 0
M  V30 2373 H 218.458 2.27333 -2.13837 0
M  V30 2374 N 218.759 1.29093 0.90403 0
M  V30 2375 C 220.175 1.07011 1.1841 0
M  V30 2376 C 220.375 -0.181358 2.00682 0
M  V30 2377 O 219.431 -0.880331 2.36657 0
M  V30 2378 C 220.744 2.32311 1.90924 0
M  V30 2379 C 222.292 2.37587 2.03768 0
M  V30 2380 C 222.767 3.62679 2.79693 0
M  V30 2381 N 224.258 3.63376 2.87249 0
M  V30 2382 C 224.993 4.56848 3.46522 0
M  V30 2383 N 224.489 5.60648 4.06996 0
M  V30 2384 N 226.282 4.44426 3.44154 0
M  V30 2385 H 218.433 2.09412 0.354993 0
M  V30 2386 H 220.696 0.922181 0.219742 0
M  V30 2387 H 220.402 3.23536 1.37905 0
M  V30 2388 H 220.276 2.39483 2.91424 0
M  V30 2389 H 222.663 1.46853 2.55965 0
M  V30 2390 H 222.744 2.34403 1.02415 0
M  V30 2391 H 222.388 4.53762 2.28173 0
M  V30 2392 H 222.318 3.63119 3.81381 0
M  V30 2393 H 224.809 2.88321 2.44293 0
M  V30 2394 H 225.122 6.28101 4.50232 0
M  V30 2395 H 223.467 5.64463 4.05471 0
M  V30 2396 H 226.658 3.62529 2.96126 0
M  V30 2397 H 226.831 5.17457 3.90054 0
M  V30 2398 N 220.237 -1.11381 1.11499 0
M  V30 2399 C 221.17 -2.16621 0.71769 0
M  V30 2400 C 222.148 -1.60058 -0.286413 0
M  V30 2401 O 223.332 -1.87613 -0.182689 0
M  V30 2402 C 220.459 -3.38646 0.0607265 0
M  V30 2403 C 219.505 -4.13874 1.03008 0
M  V30 2404 S 220.338 -4.70731 2.55289 0
M  V30 2405 C 221.494 -5.96079 1.90895 0
M  V30 2406 H 221.727 -2.49987 1.60915 0
M  V30 2407 H 219.26 -1.23015 0.933092 0
M  V30 2408 H 221.218 -4.09313 -0.311965 0
M  V30 2409 H 219.879 -3.03537 -0.807702 0
M  V30 2410 H 219.072 -5.01333 0.517853 0
M  V30 2411 H 218.674 -3.4897 1.34522 0
M  V30 2412 H 220.966 -6.65948 1.24577 0
M  V30 2413 H 221.909 -6.51946 2.76354 0
M  V30 2414 H 222.317 -5.47652 1.36885 0
M  V30 2415 N 221.715 -0.905404 -1.28997 0
M  V30 2416 C 222.662 -0.385892 -2.27551 0
M  V30 2417 C 223.632 0.535113 -1.57244 0
M  V30 2418 O 224.817 0.459119 -1.85194 0
M  V30 2419 C 221.957 0.375461 -3.43051 0
M  V30 2420 C 221.07 -0.577092 -4.28128 0
M  V30 2421 C 220.205 0.201879 -5.30816 0
M  V30 2422 C 219.244 -0.744829 -6.07551 0
M  V30 2423 N 218.381 9.42587e-05 -7.021 0
M  V30 2424 H 223.221 -1.23139 -2.71368 0
M  V30 2425 H 220.758 -0.618542 -1.33463 0
M  V30 2426 H 222.716 0.832992 -4.088 0
M  V30 2427 H 221.346 1.18537 -3.00248 0
M  V30 2428 H 220.398 -1.15315 -3.62501 0
M  V30 2429 H 221.71 -1.30152 -4.8152 0
M  V30 2430 H 220.864 0.720351 -6.02408 0
M  V30 2431 H 219.603 0.959413 -4.7817 0
M  V30 2432 H 218.608 -1.27475 -5.34818 0
M  V30 2433 H 219.833 -1.50178 -6.62286 0
M  V30 2434 H 217.779 0.739791 -6.51815 0
M  V30 2435 H 217.696 -0.664321 -7.53076 0
M  V30 2436 H 218.964 0.498644 -7.77903 0
M  V30 2437 N 223.193 1.4272 -0.668489 0
M  V30 2438 C 224.103 2.34596 0.0139753 0
M  V30 2439 C 225.119 1.5474 0.795703 0
M  V30 2440 O 226.295 1.87334 0.739466 0
M  V30 2441 C 223.36 3.33202 0.957982 0
M  V30 2442 C 222.421 4.28957 0.17149 0
M  V30 2443 C 221.654 5.22853 1.07053 0
M  V30 2444 O 221.877 5.21531 2.31001 0
M  V30 2445 O 220.811 5.9952 0.534727 0
M  V30 2446 H 224.637 2.9448 -0.742661 0
M  V30 2447 H 222.222 1.43117 -0.428705 0
M  V30 2448 H 224.104 3.93796 1.50008 0
M  V30 2449 H 222.779 2.758 1.69458 0
M  V30 2450 H 221.686 3.71796 -0.414558 0
M  V30 2451 H 223.019 4.89383 -0.52586 0
M  V30 2452 N 224.671 0.411399 1.52136 0
M  V30 2453 C 225.618 -0.412975 2.27075 0
M  V30 2454 C 226.588 -1.03912 1.29582 0
M  V30 2455 O 227.773 -1.06296 1.58448 0
M  V30 2456 C 224.913 -1.52247 3.09701 0
M  V30 2457 C 224.026 -0.917021 4.22155 0
M  V30 2458 C 223.161 -1.9994 4.92135 0
M  V30 2459 C 222.2 -1.37101 5.96548 0
M  V30 2460 N 221.337 -2.39364 6.60038 0
M  V30 2461 H 226.177 0.232499 2.97092 0
M  V30 2462 H 223.714 0.126496 1.46555 0
M  V30 2463 H 225.672 -2.17674 3.55913 0
M  V30 2464 H 224.302 -2.13794 2.41851 0
M  V30 2465 H 223.354 -0.151742 3.80097 0
M  V30 2466 H 224.666 -0.418006 4.97045 0
M  V30 2467 H 223.82 -2.73088 5.41763 0
M  V30 2468 H 222.559 -2.53208 4.16818 0
M  V30 2469 H 221.564 -0.624873 5.46237 0
M  V30 2470 H 222.789 -0.845998 6.7381 0
M  V30 2471 H 220.735 -2.91759 5.87548 0
M  V30 2472 H 220.652 -1.9428 7.3061 0
M  V30 2473 H 221.92 -3.12074 7.14304 0
M  V30 2474 N 226.149 -1.5696 0.141893 0
M  V30 2475 C 227.059 -2.20066 -0.812905 0
M  V30 2476 C 228.075 -1.18344 -1.27557 0
M  V30 2477 O 229.251 -1.50902 -1.33381 0
M  V30 2478 C 226.316 -2.80583 -2.03652 0
M  V30 2479 C 225.377 -3.97414 -1.62359 0
M  V30 2480 C 224.61 -4.55036 -2.78887 0
M  V30 2481 O 224.833 -4.11538 -3.94959 0
M  V30 2482 O 223.767 -5.45376 -2.54653 0
M  V30 2483 H 227.593 -3.02157 -0.305746 0
M  V30 2484 H 225.178 -1.49159 -0.0848799 0
M  V30 2485 H 227.06 -3.19067 -2.75272 0
M  V30 2486 H 225.735 -2.01508 -2.5333 0
M  V30 2487 H 224.642 -3.63656 -0.877775 0
M  V30 2488 H 225.975 -4.77994 -1.17401 0
M  V30 2489 N 227.627 0.131896 -1.57047 0
M  V30 2490 C 228.59 1.14638 -1.98471 0
M  V30 2491 C 229.59 1.35029 -0.873148 0
M  V30 2492 O 230.78 1.31764 -1.13946 0
M  V30 2493 C 227.912 2.50358 -2.31373 0
M  V30 2494 H 229.105 0.79064 -2.8929 0
M  V30 2495 H 226.658 0.375761 -1.51716 0
M  V30 2496 H 227.393 2.90876 -1.43393 0
M  V30 2497 H 227.178 2.36915 -3.12432 0
M  V30 2498 H 228.668 3.23395 -2.64207 0
M  V30 2499 N 229.106 1.52395 0.401703 0
M  V30 2500 C 230.522 1.41363 0.740864 0
M  V30 2501 C 230.722 0.523982 1.94568 0
M  V30 2502 O 229.778 -0.00741204 2.52499 0
M  V30 2503 C 231.091 2.84011 0.987847 0
M  V30 2504 C 232.639 2.93404 1.09011 0
M  V30 2505 C 233.114 4.37036 1.3698 0
M  V30 2506 N 234.605 4.40304 1.43829 0
M  V30 2507 C 235.34 5.48508 1.67112 0
M  V30 2508 N 234.836 6.66819 1.87949 0
M  V30 2509 N 236.629 5.36034 1.69187 0
M  V30 2510 H 228.78 2.08765 -0.391262 0
M  V30 2511 H 231.043 0.941265 -0.112798 0
M  V30 2512 H 230.749 3.51265 0.174835 0
M  V30 2513 H 230.623 3.25502 1.906 0
M  V30 2514 H 233.01 2.26325 1.8937 0
M  V30 2515 H 233.091 2.55359 0.15015 0
M  V30 2516 H 232.735 5.04676 0.571353 0
M  V30 2517 H 232.665 4.72623 2.3224 0
M  V30 2518 H 235.156 3.55024 1.29486 0
M  V30 2519 H 235.469 7.45063 2.05185 0
M  V30 2520 H 233.814 6.6987 1.85199 0
M  V30 2521 H 237.005 4.42579 1.52451 0
M  V30 2522 H 237.178 6.20434 1.86993 0
M  V30 2523 N 230.584 -0.659388 1.43143 0
M  V30 2524 C 231.809 -1.45221 1.48073 0
M  V30 2525 C 232.234 -1.87845 0.097995 0
M  V30 2526 O 231.592 -1.56985 -0.90694 0
M  V30 2527 C 231.64 -2.66748 2.42647 0
M  V30 2528 O 230.744 -3.65583 1.90848 0
M  V30 2529 H 230.085 -0.435669 0.501088 0
M  V30 2530 H 232.615 -0.807432 1.87994 0
M  V30 2531 H 232.625 -3.14637 2.59745 0
M  V30 2532 H 231.3 -2.35067 3.43098 0
M  V30 2533 H 229.877 -3.24693 1.83381 0
M  V30 2534 N 232.062 -1.29571 -0.897171 0
M  V30 2535 C 233.009 -1.14916 -2.00158 0
M  V30 2536 C 233.979 -0.0418149 -1.66047 0
M  V30 2537 O 235.164 -0.209793 -1.89643 0
M  V30 2538 C 232.304 -0.834307 -3.34863 0
M  V30 2539 C 231.417 -2.02234 -3.8174 0
M  V30 2540 C 230.552 -1.64664 -5.05034 0
M  V30 2541 C 229.591 -2.80033 -5.44286 0
M  V30 2542 N 228.728 -2.42843 -6.58765 0
M  V30 2543 H 233.568 -2.09403 -2.12025 0
M  V30 2544 H 231.105 -1.042 -1.0383 0
M  V30 2545 H 233.063 -0.632436 -4.12379 0
M  V30 2546 H 231.693 0.0736656 -3.22716 0
M  V30 2547 H 230.745 -2.33583 -3.00238 0
M  V30 2548 H 232.057 -2.88673 -4.06779 0
M  V30 2549 H 231.211 -1.4078 -5.9014 0
M  V30 2550 H 229.95 -0.753766 -4.8184 0
M  V30 2551 H 228.955 -3.04596 -4.57713 0
M  V30 2552 H 230.18 -3.69989 -5.6946 0
M  V30 2553 H 228.126 -1.56046 -6.3717 0
M  V30 2554 H 228.043 -3.22815 -6.83613 0
M  V30 2555 H 229.311 -2.22285 -7.47134 0
M  V30 2556 N 233.54 1.10788 -1.12088 0
M  V30 2557 C 234.787 1.82671 -0.873931 0
M  V30 2558 C 235.115 1.85004 0.600311 0
M  V30 2559 O 234.37 1.30365 1.45957 0
M  V30 2560 C 234.669 3.29294 -1.38926 0
M  V30 2561 C 234.335 3.47113 -2.87791 0
M  V30 2562 C 232.997 3.51684 -3.28439 0
M  V30 2563 C 235.349 3.52808 -3.83635 0
M  V30 2564 C 232.677 3.59513 -4.63646 0
M  V30 2565 C 235.029 3.62169 -5.18668 0
M  V30 2566 C 233.693 3.65003 -5.58864 0
M  V30 2567 H 232.963 0.668441 -0.319794 0
M  V30 2568 H 235.61 1.30613 -1.40045 0
M  V30 2569 H 233.915 3.83894 -0.783122 0
M  V30 2570 H 235.612 3.83416 -1.17443 0
M  V30 2571 H 232.202 3.4423 -2.5535 0
M  V30 2572 H 236.386 3.4853 -3.53328 0
M  V30 2573 H 231.642 3.59987 -4.94185 0
M  V30 2574 H 235.816 3.6552 -5.92763 0
M  V30 2575 H 233.443 3.70822 -6.63623 0
M  V30 2576 N 235.018 0.912232 1.28515 0
M  V30 2577 C 236.434 0.610159 1.47476 0
M  V30 2578 C 236.634 -0.844955 1.82928 0
M  V30 2579 O 235.69 -1.62416 1.93332 0
M  V30 2580 C 237.003 1.54675 2.57868 0
M  V30 2581 C 238.551 1.55331 2.71738 0
M  V30 2582 C 239.026 2.47649 3.85272 0
M  V30 2583 N 240.517 2.45767 3.92623 0
M  V30 2584 C 241.252 3.13896 4.79851 0
M  V30 2585 N 240.748 3.9135 5.71679 0
M  V30 2586 N 242.541 3.02991 4.73448 0
M  V30 2587 H 234.692 1.85318 1.03783 0
M  V30 2588 H 236.955 0.794777 0.516753 0
M  V30 2589 H 236.661 2.5841 2.38574 0
M  V30 2590 H 236.535 1.27671 3.54937 0
M  V30 2591 H 238.922 0.52335 2.90422 0
M  V30 2592 H 239.003 1.86378 1.75205 0
M  V30 2593 H 238.647 3.50745 3.67342 0
M  V30 2594 H 238.577 2.13904 4.81199 0
M  V30 2595 H 241.068 1.89503 3.26951 0
M  V30 2596 H 241.381 4.40359 6.35062 0
M  V30 2597 H 239.726 3.95455 5.71524 0
M  V30 2598 H 242.917 2.41987 4.007 0
M  V30 2599 H 243.09 3.5636 5.41213 0
M  V30 2600 N 236.496 -1.42363 0.676048 0
M  V30 2601 C 237.428 -2.29164 -0.0404605 0
M  V30 2602 C 238.441 -1.43747 -0.764245 0
M  V30 2603 O 239.63 -1.67453 -0.618195 0
M  V30 2604 C 236.73 -3.21196 -1.08103 0
M  V30 2605 C 235.903 -4.35273 -0.430812 0
M  V30 2606 C 234.962 -5.08017 -1.37133 0
M  V30 2607 O 233.988 -5.62494 -0.87116 0
M  V30 2608 N 235.19 -5.13647 -2.70456 0
M  V30 2609 H 237.955 -2.91298 0.704667 0
M  V30 2610 H 235.516 -1.53303 0.520559 0
M  V30 2611 H 237.508 -3.66728 -1.71152 0
M  V30 2612 H 236.078 -2.60505 -1.72788 0
M  V30 2613 H 235.298 -3.92372 0.379209 0
M  V30 2614 H 236.586 -5.08795 0.0221132 0
M  V30 2615 H 235.984 -4.708 -3.1363 0
M  V30 2616 H 234.541 -5.62821 -3.28749 0
M  V30 2617 N 237.974 -0.419461 -1.51915 0
M  V30 2618 C 239.223 0.154346 -2.01109 0
M  V30 2619 C 239.536 1.45338 -1.30905 0
M  V30 2620 O 240.742 2.10906 -1.7097 0
M  V30 2621 C 239.198 0.325615 -3.58424 0
M  V30 2622 C 238.806 -0.961934 -4.37551 0
M  V30 2623 C 240.55 0.854155 -4.15818 0
M  V30 2624 C 238.457 -0.757287 -5.86531 0
M  V30 2625 H 237.387 0.0614563 -0.751491 0
M  V30 2626 H 240.038 -0.54649 -1.75173 0
M  V30 2627 H 238.42 1.08903 -3.80731 0
M  V30 2628 H 239.594 -1.7323 -4.26999 0
M  V30 2629 H 237.909 -1.41766 -3.91524 0
M  V30 2630 H 240.506 1.02346 -5.24814 0
M  V30 2631 H 240.849 1.83172 -3.73837 0
M  V30 2632 H 241.382 0.149528 -3.97519 0
M  V30 2633 H 238.121 -1.70671 -6.32892 0
M  V30 2634 H 237.641 -0.0264061 -5.99794 0
M  V30 2635 H 239.32 -0.403482 -6.45741 0
M  V30 2636 N 239.452 1.56882 -0.150215 0
M  V30 2637 C 240.698 1.96518 0.500834 0
M  V30 2638 C 241.031 1.03527 1.64304 0
M  V30 2639 O 240.306 0.0782751 1.94342 0
M  V30 2640 C 240.589 3.45822 1.00395 0
M  V30 2641 C 240.442 4.49591 -0.136983 0
M  V30 2642 C 241.761 3.97704 1.88467 0
M  V30 2643 H 238.88 0.714535 0.18058 0
M  V30 2644 H 241.522 1.88577 -0.232091 0
M  V30 2645 H 239.672 3.5272 1.62851 0
M  V30 2646 H 241.344 4.5477 -0.77343 0
M  V30 2647 H 239.587 4.26441 -0.795652 0
M  V30 2648 H 240.258 5.51402 0.256815 0
M  V30 2649 H 242.734 3.93304 1.35834 0
M  V30 2650 H 241.61 5.0263 2.20578 0
M  V30 2651 H 241.871 3.40252 2.82279 0
M  V30 2652 N 240.93 -0.123565 1.57115 0
M  V30 2653 C 242.155 -0.850398 1.89164 0
M  V30 2654 C 242.58 -1.7286 0.741688 0
M  V30 2655 O 241.938 -1.78665 -0.307958 0
M  V30 2656 C 241.986 -1.66353 3.19936 0
M  V30 2657 O 241.09 -2.77004 3.0552 0
M  V30 2658 H 240.431 -0.235454 0.620852 0
M  V30 2659 H 242.961 -0.107335 2.04318 0
M  V30 2660 H 242.971 -2.05372 3.52543 0
M  V30 2661 H 241.646 -1.01881 4.03228 0
M  V30 2662 H 240.223 -2.41221 2.84371 0
M  V30 2663 N 242.408 -1.52605 -0.393616 0
M  V30 2664 C 243.371 -1.76415 -1.46323 0
M  V30 2665 C 244.371 -0.634126 -1.47768 0
M  V30 2666 O 245.561 -0.902142 -1.4902 0
M  V30 2667 C 242.693 -1.8607 -2.85641 0
M  V30 2668 H 243.886 -2.71916 -1.26498 0
M  V30 2669 H 241.439 -1.43257 -0.625073 0
M  V30 2670 H 242.174 -0.925378 -3.10817 0
M  V30 2671 H 241.959 -2.68235 -2.85993 0
M  V30 2672 H 243.449 -2.06179 -3.63153 0
M  V30 2673 N 243.887 0.651787 -1.4349 0
M  V30 2674 C 245.133 1.41376 -1.45398 0
M  V30 2675 C 245.466 1.94041 -0.0784823 0
M  V30 2676 O 244.741 1.72379 0.900878 0
M  V30 2677 C 245.024 2.59414 -2.49752 0
M  V30 2678 C 244.877 2.12232 -3.96582 0
M  V30 2679 C 246.196 3.61626 -2.50827 0
M  V30 2680 H 243.315 0.512719 -0.529422 0
M  V30 2681 H 245.957 0.738796 -1.75048 0
M  V30 2682 H 244.107 3.16997 -2.246 0
M  V30 2683 H 245.779 1.59639 -4.32797 0
M  V30 2684 H 244.022 1.43592 -4.09346 0
M  V30 2685 H 244.693 2.9712 -4.65214 0
M  V30 2686 H 247.169 3.13805 -2.7325 0
M  V30 2687 H 246.045 4.41766 -3.25783 0
M  V30 2688 H 246.306 4.14314 -1.5426 0
M  V30 2689 N 245.365 1.30045 0.890287 0
M  V30 2690 C 246.297 1.11786 2.00091 0
M  V30 2691 C 247.31 0.0626307 1.62679 0
M  V30 2692 O 248.499 0.308112 1.75821 0
M  V30 2693 C 245.599 0.681527 3.31977 0
M  V30 2694 C 244.772 1.81735 3.97858 0
M  V30 2695 C 243.831 1.37045 5.08041 0
M  V30 2696 O 242.857 2.07677 5.29961 0
M  V30 2697 N 244.059 0.246525 5.79976 0
M  V30 2698 H 246.824 2.07441 2.16306 0
M  V30 2699 H 244.385 1.2211 1.06305 0
M  V30 2700 H 246.377 0.365675 4.03045 0
M  V30 2701 H 244.947 -0.182828 3.12065 0
M  V30 2702 H 244.167 2.30159 3.20032 0
M  V30 2703 H 245.455 2.57865 4.38615 0
M  V30 2704 H 244.853 -0.34215 5.64664 0
M  V30 2705 H 243.41 -0.00990438 6.51799 0
M  V30 2706 N 246.843 -1.10192 1.12674 0
M  V30 2707 C 248.073 -1.85713 0.905213 0
M  V30 2708 C 248.481 -1.81056 -0.549108 0
M  V30 2709 O 247.824 -1.19927 -1.39151 0
M  V30 2710 C 247.886 -3.34972 1.30516 0
M  V30 2711 C 247.55 -3.63385 2.77129 0
M  V30 2712 C 248.547 -3.59772 3.75313 0
M  V30 2713 C 246.232 -3.91981 3.14096 0
M  V30 2714 C 248.226 -3.84354 5.08479 0
M  V30 2715 C 245.913 -4.16218 4.47443 0
M  V30 2716 C 246.911 -4.12395 5.44444 0
M  V30 2717 O 246.599 -4.36014 6.75387 0
M  V30 2718 H 246.331 -0.593719 0.323223 0
M  V30 2719 H 248.885 -1.40198 1.50112 0
M  V30 2720 H 247.115 -3.81156 0.652463 0
M  V30 2721 H 248.804 -3.91886 1.05736 0
M  V30 2722 H 249.57 -3.37716 3.48099 0
M  V30 2723 H 245.449 -3.94085 2.39202 0
M  V30 2724 H 248.993 -3.81285 5.84181 0
M  V30 2725 H 244.89 -4.37754 4.74386 0
M  V30 2726 H 245.658 -4.53516 6.8137 0
M  V30 2727 N 248.321 -0.919034 -1.28029 0
M  V30 2728 C 249.561 -0.562107 -1.96519 0
M  V30 2729 C 249.925 0.878784 -1.70708 0
M  V30 2730 O 251.126 1.34355 -2.32813 0
M  V30 2731 C 249.397 -0.868953 -3.46676 0
M  V30 2732 S 250.956 -0.619237 -4.34409 0
M  V30 2733 H 247.774 -0.2078 -0.679956 0
M  V30 2734 H 250.376 -1.18562 -1.55446 0
M  V30 2735 H 249.08 -1.91547 -3.62957 0
M  V30 2736 H 248.611 -0.234301 -3.92702 0
M  V30 2737 H 250.626 0.526995 -4.93394 0
M  V30 2738 N 249.799 1.42003 -0.683588 0
M  V30 2739 C 250.749 2.27997 0.0121992 0
M  V30 2740 C 251.733 1.4156 0.764822 0
M  V30 2741 O 252.925 1.64935 0.642287 0
M  V30 2742 C 250.054 3.29706 0.956482 0
M  V30 2743 C 249.14 4.23625 0.200739 0
M  V30 2744 N 249.531 4.99448 -0.799087 0
M  V30 2745 C 247.829 4.43845 0.437937 0
M  V30 2746 C 248.53 5.68102 -1.25041 0
M  V30 2747 N 247.506 5.40511 -0.578648 0
M  V30 2748 H 251.308 2.84048 -0.754564 0
M  V30 2749 H 248.822 1.54071 -0.513398 0
M  V30 2750 H 250.819 3.90124 1.47 0
M  V30 2751 H 249.479 2.75216 1.72297 0
M  V30 2752 H 250.49 5.04303 -1.17893 0
M  V30 2753 H 247.167 4.00382 1.18325 0
M  V30 2754 H 248.557 6.38913 -2.07942 0
M  V30 2755 N 251.277 0.427512 1.51691 0
M  V30 2756 C 252.209 -0.424521 2.25234 0
M  V30 2757 C 253.222 -0.994671 1.2888 0
M  V30 2758 O 254.411 -0.890483 1.54702 0
M  V30 2759 C 251.511 -1.60479 2.98496 0
M  V30 2760 C 250.684 -1.15527 4.21868 0
M  V30 2761 C 249.743 -2.20454 4.77793 0
M  V30 2762 O 248.769 -1.8029 5.39893 0
M  V30 2763 N 249.971 -3.52831 4.60967 0
M  V30 2764 H 252.736 0.205749 2.98993 0
M  V30 2765 H 250.297 0.255867 1.59865 0
M  V30 2766 H 252.289 -2.30276 3.32799 0
M  V30 2767 H 250.859 -2.14061 2.27809 0
M  V30 2768 H 250.079 -0.284736 3.9317 0
M  V30 2769 H 251.367 -0.832173 5.01949 0
M  V30 2770 H 250.765 -3.88201 4.11481 0
M  V30 2771 H 249.322 -4.18551 4.99658 0
M  V30 2772 N 252.755 -1.56801 0.158532 0
M  V30 2773 C 253.702 -2.17337 -0.776729 0
M  V30 2774 C 254.672 -1.1096 -1.23601 0
M  V30 2775 O 255.857 -1.39054 -1.30647 0
M  V30 2776 C 252.997 -2.80822 -2.00582 0
M  V30 2777 C 252.11 -4.01624 -1.59129 0
M  V30 2778 C 251.245 -4.53072 -2.77306 0
M  V30 2779 C 250.284 -5.66314 -2.32282 0
M  V30 2780 N 249.421 -6.12329 -3.43508 0
M  V30 2781 H 254.261 -2.96918 -0.253701 0
M  V30 2782 H 251.798 -1.46661 -0.113504 0
M  V30 2783 H 253.756 -3.15779 -2.72652 0
M  V30 2784 H 252.386 -2.03866 -2.50277 0
M  V30 2785 H 251.438 -3.72571 -0.767806 0
M  V30 2786 H 252.75 -4.83633 -1.2207 0
M  V30 2787 H 251.904 -4.90145 -3.57551 0
M  V30 2788 H 250.643 -3.70095 -3.17617 0
M  V30 2789 H 249.648 -5.28806 -1.5048 0
M  V30 2790 H 250.873 -6.51085 -1.93043 0
M  V30 2791 H 248.819 -5.32284 -3.83418 0
M  V30 2792 H 248.736 -6.89293 -3.105 0
M  V30 2793 H 250.004 -6.5405 -4.24075 0
M  V30 2794 N 254.233 0.115231 -1.57178 0
M  V30 2795 C 255.649 0.468877 -1.52557 0
M  V30 2796 C 255.849 1.81649 -0.872125 0
M  V30 2797 O 254.905 2.48347 -0.45606 0
M  V30 2798 C 256.218 0.4499 -2.97315 0
M  V30 2799 C 257.766 0.533185 -3.08425 0
M  V30 2800 C 258.241 0.54456 -4.54751 0
M  V30 2801 N 259.732 0.605892 -4.5922 0
M  V30 2802 C 260.467 0.636203 -5.6986 0
M  V30 2803 N 259.963 0.623931 -6.89985 0
M  V30 2804 N 261.756 0.679496 -5.57978 0
M  V30 2805 H 253.907 -0.767712 -1.9804 0
M  V30 2806 H 256.17 -0.283609 -0.904583 0
M  V30 2807 H 255.876 -0.472721 -3.48509 0
M  V30 2808 H 255.75 1.27632 -3.5495 0
M  V30 2809 H 258.137 1.44623 -2.57232 0
M  V30 2810 H 258.218 -0.320995 -2.53778 0
M  V30 2811 H 257.862 -0.364452 -5.06591 0
M  V30 2812 H 257.792 1.41568 -5.07214 0
M  V30 2813 H 260.283 0.621386 -3.72756 0
M  V30 2814 H 260.596 0.649787 -7.70063 0
M  V30 2815 H 258.941 0.591296 -6.9248 0
M  V30 2816 H 262.132 0.686472 -4.63039 0
M  V30 2817 H 262.305 0.69965 -6.44212 0
M  V30 2818 N 255.711 1.52812 0.385517 0
M  V30 2819 C 256.96 1.67249 1.12741 0
M  V30 2820 C 257.273 0.4205 1.91027 0
M  V30 2821 O 258.479 0.445064 2.67827 0
M  V30 2822 C 256.935 2.95583 2.05326 0
M  V30 2823 C 256.543 4.27974 1.32447 0
M  V30 2824 C 258.287 3.19386 2.7963 0
M  V30 2825 C 256.194 5.47412 2.23818 0
M  V30 2826 H 255.124 0.6231 0.424573 0
M  V30 2827 H 257.775 1.79309 0.389924 0
M  V30 2828 H 256.157 2.77277 2.82725 0
M  V30 2829 H 257.331 4.56844 0.602495 0
M  V30 2830 H 255.646 4.10459 0.700885 0
M  V30 2831 H 258.243 4.05801 3.48181 0
M  V30 2832 H 258.586 2.34604 3.43899 0
M  V30 2833 H 259.119 3.38274 2.09322 0
M  V30 2834 H 255.858 6.34612 1.64157 0
M  V30 2835 H 255.378 5.22849 2.93921 0
M  V30 2836 H 257.057 5.81423 2.83824 0
M  V30 2837 N 257.189 -0.644168 1.43834 0
M  V30 2838 C 258.435 -1.40603 1.46146 0
M  V30 2839 C 258.768 -1.93997 0.0887717 0
M  V30 2840 O 258.043 -1.72854 -0.891724 0
M  V30 2841 C 258.326 -2.58086 2.51124 0
M  V30 2842 C 258.179 -2.10126 3.97702 0
M  V30 2843 C 259.498 -3.60291 2.52742 0
M  V30 2844 H 256.617 -0.509905 0.532134 0
M  V30 2845 H 259.259 -0.729502 1.75437 0
M  V30 2846 H 257.409 -3.15801 2.26278 0
M  V30 2847 H 259.081 -1.57342 4.33637 0
M  V30 2848 H 257.324 -1.41419 4.10101 0
M  V30 2849 H 257.995 -2.94649 4.66783 0
M  V30 2850 H 260.471 -3.12352 2.7491 0
M  V30 2851 H 259.347 -4.40032 3.28121 0
M  V30 2852 H 259.608 -4.1349 1.56455 0
M  V30 2853 N 258.668 -1.30515 -0.883378 0
M  V30 2854 C 259.618 -1.13641 -1.9766 0
M  V30 2855 C 260.602 -0.0511314 -1.60819 0
M  V30 2856 O 261.794 -0.274623 -1.74857 0
M  V30 2857 C 258.923 -0.831976 -3.33066 0
M  V30 2858 C 258.009 -1.95759 -3.76217 0
M  V30 2859 N 258.4 -3.20313 -3.9145 0
M  V30 2860 C 256.698 -1.85431 -4.05625 0
M  V30 2861 C 257.399 -3.93856 -4.2808 0
M  V30 2862 N 256.375 -3.21919 -4.38029 0
M  V30 2863 H 260.177 -2.08106 -2.07531 0
M  V30 2864 H 257.691 -1.21877 -1.0733 0
M  V30 2865 H 259.688 -0.692102 -4.11115 0
M  V30 2866 H 258.348 0.104588 -3.24532 0
M  V30 2867 H 259.359 -3.55583 -3.76538 0
M  V30 2868 H 256.036 -0.991531 -4.05555 0
M  V30 2869 H 257.426 -5.01125 -4.47575 0
M  V30 2870 N 260.146 1.09593 -1.13257 0
M  V30 2871 C 261.562 1.33775 -0.870423 0
M  V30 2872 C 261.762 1.95327 0.494926 0
M  V30 2873 O 260.818 2.19853 1.2418 0
M  V30 2874 C 262.131 2.25106 -1.99369 0
M  V30 2875 C 263.679 2.3862 -2.02558 0
M  V30 2876 C 264.154 3.33285 -3.14142 0
M  V30 2877 N 265.645 3.40857 -3.13641 0
M  V30 2878 C 266.38 4.14101 -3.96621 0
M  V30 2879 N 265.876 4.90157 -4.8961 0
M  V30 2880 N 267.669 4.09808 -3.84726 0
M  V30 2881 H 259.82 0.680136 -2.01216 0
M  V30 2882 H 262.083 0.362133 -0.876107 0
M  V30 2883 H 261.789 1.87103 -2.97801 0
M  V30 2884 H 261.663 3.25481 -1.90635 0
M  V30 2885 H 264.05 2.75887 -1.0474 0
M  V30 2886 H 264.131 1.38028 -2.15364 0
M  V30 2887 H 263.775 2.96741 -4.12198 0
M  V30 2888 H 263.705 4.33776 -2.98574 0
M  V30 2889 H 266.196 2.86624 -2.46282 0
M  V30 2890 H 266.509 5.4347 -5.49418 0
M  V30 2891 H 264.854 4.89251 -4.93617 0
M  V30 2892 H 268.045 3.4949 -3.11408 0
M  V30 2893 H 268.218 4.66629 -4.49623 0
M  V30 2894 N 261.624 0.925811 1.2754 0
M  V30 2895 C 262.901 0.483726 1.89524 0
M  V30 2896 C 263.281 -1.03809 1.83812 0
M  V30 2897 O 262.629 -1.89143 1.28207 0
M  V30 2898 C 262.839 1.02769 3.33526 0
M  V30 2899 C 264.187 1.08703 4.10449 0
M  V30 2900 O 265.211 0.977175 3.42534 0
M  V30 2901 O 264.07 1.25599 5.31871 0
M  V30 2902 H 261.164 0.15529 0.812289 0
M  V30 2903 H 263.71 1.01738 1.35822 0
M  V30 2904 H 262.482 2.07155 3.31967 0
M  V30 2905 H 262.105 0.475567 3.94746 0
M  V30 2906 N 263.102 -1.41638 0.69111 0
M  V30 2907 C 264.032 -2.3347 0.037248 0
M  V30 2908 C 265.013 -1.51575 -0.771947 0
M  V30 2909 O 266.198 -1.80126 -0.72582 0
M  V30 2910 C 263.328 -3.35354 -0.903064 0
M  V30 2911 C 262.282 -4.27526 -0.201288 0
M  V30 2912 C 261.608 -5.19747 -1.25565 0
M  V30 2913 C 262.908 -5.13959 0.929689 0
M  V30 2914 H 264.602 -2.88397 0.804227 0
M  V30 2915 H 262.148 -1.38669 0.388189 0
M  V30 2916 H 264.101 -3.98519 -1.36969 0
M  V30 2917 H 262.825 -2.78767 -1.70166 0
M  V30 2918 H 261.484 -3.65779 0.245265 0
M  V30 2919 H 261.132 -4.59479 -2.04666 0
M  V30 2920 H 260.832 -5.8225 -0.791128 0
M  V30 2921 H 262.356 -5.85789 -1.72288 0
M  V30 2922 H 263.77 -5.70718 0.543546 0
M  V30 2923 H 262.167 -5.85379 1.32103 0
M  V30 2924 H 263.237 -4.51389 1.77133 0
M  V30 2925 N 264.58 -0.43555 -1.51462 0
M  V30 2926 C 265.527 0.376797 -2.27703 0
M  V30 2927 C 266.497 1.01838 -1.31219 0
M  V30 2928 O 267.682 1.03762 -1.60119 0
M  V30 2929 C 264.822 1.47301 -3.12084 0
M  V30 2930 C 263.935 0.849744 -4.2356 0
M  V30 2931 C 263.07 1.92086 -4.95254 0
M  V30 2932 C 262.109 1.27593 -5.98654 0
M  V30 2933 N 261.246 2.28833 -6.63762 0
M  V30 2934 H 266.086 -0.279734 -2.96684 0
M  V30 2935 H 263.623 -0.149795 -1.46335 0
M  V30 2936 H 265.581 2.11984 -3.59331 0
M  V30 2937 H 264.211 2.0992 -2.45221 0
M  V30 2938 H 263.263 0.0912529 -3.80291 0
M  V30 2939 H 264.575 0.338878 -4.97648 0
M  V30 2940 H 263.729 2.64435 -5.46039 0
M  V30 2941 H 262.468 2.46545 -4.20793 0
M  V30 2942 H 261.473 0.537893 -5.47162 0
M  V30 2943 H 262.698 0.738693 -6.7507 0
M  V30 2944 H 260.644 2.82375 -5.92115 0
M  V30 2945 H 260.561 1.82632 -7.33608 0
M  V30 2946 H 261.829 3.00671 -7.19178 0
M  V30 2947 N 266.058 1.56714 -0.166846 0
M  V30 2948 C 267.021 2.16539 0.751232 0
M  V30 2949 C 268.021 1.11228 1.16125 0
M  V30 2950 O 269.211 1.36765 1.07894 0
M  V30 2951 C 266.343 2.74462 2.02196 0
M  V30 2952 H 267.536 2.99013 0.230499 0
M  V30 2953 H 265.089 1.56081 0.0826982 0
M  V30 2954 H 265.824 1.95709 2.58589 0
M  V30 2955 H 265.609 3.51527 1.73698 0
M  V30 2956 H 267.099 3.20489 2.67725 0
M  V30 2957 N 267.536 -0.106894 1.57237 0
M  V30 2958 C 268.446 -1.14911 2.0453 0
M  V30 2959 C 269.462 -1.44592 0.96795 0
M  V30 2960 O 270.638 -1.55468 1.2803 0
M  V30 2961 C 267.703 -2.45272 2.45036 0
M  V30 2962 C 266.764 -2.22879 3.66911 0
M  V30 2963 C 265.997 -3.47024 4.05475 0
M  V30 2964 O 266.22 -4.54804 3.44252 0
M  V30 2965 O 265.154 -3.3731 4.98504 0
M  V30 2966 H 268.98 -0.777461 2.9358 0
M  V30 2967 H 266.565 -0.318563 1.45964 0
M  V30 2968 H 268.447 -3.22055 2.71769 0
M  V30 2969 H 267.122 -2.81886 1.59129 0
M  V30 2970 H 266.029 -1.43915 3.45311 0
M  V30 2971 H 267.362 -1.91163 4.53561 0
M  V30 2972 N 269.014 -1.53014 -0.377408 0
M  V30 2973 C 269.962 -1.7927 -1.48206 0
M  V30 2974 C 270.956 -0.661195 -1.55963 0
M  V30 2975 O 272.162 -0.843908 -1.58991 0
M  V30 2976 H 268.537 -0.567425 -0.493491 0
M  V30 2977 H 270.508 -2.71753 -1.2326 0
M  V30 2978 C 269.257 -1.98894 -2.85196 0
M  V30 2979 H 268.58 -2.85395 -2.79981 0
M  V30 2980 H 270.02 -2.21249 -3.61698 0
M  V30 2981 C 268.479 -0.764691 -3.28107 0
M  V30 2982 O 269.009 0.0523226 -4.01666 0
M  V30 2983 N 267.215 -0.591493 -2.84517 0
M  V30 2984 H 266.762 -1.25749 -2.24822 0
M  V30 2985 H 266.72 0.226253 -3.13585 0
M  V30 2986 N 270.492 0.636531 -1.44174 0
M  V30 2987 C 271.422 1.76003 -1.53444 0
M  V30 2988 C 272.403 1.65619 -0.387841 0
M  V30 2989 O 273.588 1.84461 -0.607257 0
M  V30 2990 C 270.718 3.14511 -1.4731 0
M  V30 2991 C 269.672 3.39677 -2.60391 0
M  V30 2992 C 268.998 4.78159 -2.39308 0
M  V30 2993 C 270.298 3.32772 -4.02567 0
M  V30 2994 H 271.992 1.68501 -2.47483 0
M  V30 2995 H 269.538 0.809237 -1.19111 0
M  V30 2996 H 271.491 3.92878 -1.52397 0
M  V30 2997 H 270.215 3.22783 -0.49785 0
M  V30 2998 H 268.874 2.63688 -2.54684 0
M  V30 2999 H 268.522 4.83128 -1.39988 0
M  V30 3000 H 268.222 4.95956 -3.15122 0
M  V30 3001 H 269.746 5.58762 -2.46205 0
M  V30 3002 H 271.16 4.01051 -4.09672 0
M  V30 3003 H 269.557 3.62104 -4.7854 0
M  V30 3004 H 270.627 2.30669 -4.2652 0
M  V30 3005 N 271.97 1.30982 0.876444 0
M  V30 3006 C 272.9 1.20668 1.99903 0
M  V30 3007 C 273.881 0.095354 1.69833 0
M  V30 3008 O 275.066 0.27885 1.92188 0
M  V30 3009 C 272.196 0.90655 3.3526 0
M  V30 3010 C 271.15 1.97675 3.79617 0
M  V30 3011 C 270.476 1.52943 5.1236 0
M  V30 3012 C 271.776 3.389 3.97422 0
M  V30 3013 H 273.47 2.14586 2.0879 0
M  V30 3014 H 271.016 1.03308 1.00317 0
M  V30 3015 H 272.969 0.821025 4.13324 0
M  V30 3016 H 271.693 -0.0682969 3.26529 0
M  V30 3017 H 270.352 2.05205 3.03787 0
M  V30 3018 H 270 0.54262 5.00065 0
M  V30 3019 H 269.7 2.24532 5.43009 0
M  V30 3020 H 271.224 1.45786 5.92941 0
M  V30 3021 H 272.638 3.34081 4.659 0
M  V30 3022 H 271.035 4.0865 4.3946 0
M  V30 3023 H 272.105 3.80163 3.01006 0
M  V30 3024 N 273.449 -1.08991 1.13837 0
M  V30 3025 C 274.379 -2.17771 0.842507 0
M  V30 3026 C 275.36 -1.6892 -0.20001 0
M  V30 3027 O 276.545 -1.94113 -0.0579731 0
M  V30 3028 C 273.675 -3.4589 0.312644 0
M  V30 3029 C 272.629 -4.08099 1.28992 0
M  V30 3030 C 271.955 -5.31098 0.619623 0
M  V30 3031 C 273.255 -4.50077 2.65005 0
M  V30 3032 H 274.949 -2.42777 1.75213 0
M  V30 3033 H 272.495 -1.16682 0.843875 0
M  V30 3034 H 274.448 -4.21297 0.0933043 0
M  V30 3035 H 273.172 -3.20419 -0.632382 0
M  V30 3036 H 271.831 -3.34717 1.49533 0
M  V30 3037 H 271.479 -5.0191 -0.33102 0
M  V30 3038 H 271.179 -5.73674 1.27167 0
M  V30 3039 H 272.703 -6.09224 0.409669 0
M  V30 3040 H 274.117 -5.16688 2.48407 0
M  V30 3041 H 272.514 -5.03553 3.26427 0
M  V30 3042 H 273.584 -3.62257 3.22332 0
M  V30 3043 N 274.927 -0.932562 -1.27047 0
M  V30 3044 C 276.204 -0.49377 -1.89265 0
M  V30 3045 C 276.584 1.02833 -1.8436 0
M  V30 3046 O 275.932 1.88461 -1.29209 0
M  V30 3047 C 276.142 -1.04536 -3.32976 0
M  V30 3048 C 277.49 -1.10879 -4.09867 0
M  V30 3049 O 278.514 -0.995327 -3.42011 0
M  V30 3050 O 277.373 -1.28417 -5.31198 0
M  V30 3051 H 274.467 -0.159596 -0.811454 0
M  V30 3052 H 277.013 -1.02457 -1.3528 0
M  V30 3053 H 275.785 -2.08913 -3.30864 0
M  V30 3054 H 275.408 -0.496494 -3.94488 0
M  V30 3055 N 276.405 1.4127 -0.698611 0
M  V30 3056 C 277.368 2.29158 -0.044132 0
M  V30 3057 C 278.368 1.44529 0.704841 0
M  V30 3058 O 279.558 1.65643 0.539276 0
M  V30 3059 C 276.69 3.27459 0.947809 0
M  V30 3060 H 277.883 2.88529 -0.817994 0
M  V30 3061 H 275.436 1.49307 -0.46228 0
M  V30 3062 H 276.171 2.73073 1.74933 0
M  V30 3063 H 275.956 3.8991 0.41385 0
M  V30 3064 H 277.446 3.93311 1.40344 0
M  V30 3065 N 277.883 0.443576 1.51229 0
M  V30 3066 C 279.16 -0.181038 1.9476 0
M  V30 3067 C 279.54 -1.59523 1.38259 0
M  V30 3068 O 278.888 -2.2122 0.572198 0
M  V30 3069 C 279.098 -0.152422 3.48667 0
M  V30 3070 C 280.446 -0.354923 4.23114 0
M  V30 3071 O 281.47 -0.230257 3.55455 0
M  V30 3072 O 280.329 -0.603674 5.43156 0
M  V30 3073 H 277.423 -0.1266 0.817252 0
M  V30 3074 H 279.969 0.502004 1.62105 0
M  V30 3075 H 278.741 0.836022 3.82265 0
M  V30 3076 H 278.364 -0.878107 3.87782 0
M  V30 3077 N 279.361 -1.56624 0.175154 0
M  V30 3078 C 280.294 -2.14 -0.792412 0
M  V30 3079 C 281.272 -1.07114 -1.22333 0
M  V30 3080 O 282.456 -1.35112 -1.31442 0
M  V30 3081 C 279.583 -2.68268 -2.0676 0
M  V30 3082 C 278.629 -3.87562 -1.7804 0
M  V30 3083 S 279.462 -5.27074 -0.946222 0
M  V30 3084 C 280.618 -5.8475 -2.23199 0
M  V30 3085 H 280.851 -2.95736 -0.304588 0
M  V30 3086 H 278.384 -1.54349 -0.0395705 0
M  V30 3087 H 280.342 -3.00182 -2.80002 0
M  V30 3088 H 279.003 -1.86612 -2.52656 0
M  V30 3089 H 278.196 -4.23874 -2.72666 0
M  V30 3090 H 277.798 -3.56555 -1.12891 0
M  V30 3091 H 280.09 -5.97898 -3.18629 0
M  V30 3092 H 281.033 -6.81756 -1.91349 0
M  V30 3093 H 281.441 -5.13198 -2.35134 0
M  V30 3094 N 280.839 0.0985539 -1.57292 0
M  V30 3095 C 281.787 1.1387 -2.02821 0
M  V30 3096 C 282.781 1.41676 -0.928666 0
M  V30 3097 O 283.987 1.41398 -1.11385 0
M  V30 3098 H 280.362 0.384419 -0.646317 0
M  V30 3099 H 282.333 0.728347 -2.89375 0
M  V30 3100 C 281.082 2.45166 -2.46554 0
M  V30 3101 H 280.405 2.24613 -3.3074 0
M  V30 3102 H 281.845 3.16456 -2.8219 0
M  V30 3103 C 280.304 3.09216 -1.33742 0
M  V30 3104 O 280.834 3.96163 -0.66464 0
M  V30 3105 N 279.04 2.69413 -1.08928 0
M  V30 3106 H 278.587 1.98801 -1.63817 0
M  V30 3107 H 278.545 3.12594 -0.336458 0
M  V30 3108 N 282.317 1.53212 0.369288 0
M  V30 3109 C 283.566 1.68436 1.10961 0
M  V30 3110 C 283.879 0.440738 1.9057 0
M  V30 3111 O 285.085 0.473446 2.6734 0
M  V30 3112 C 283.541 2.97744 2.0218 0
M  V30 3113 C 283.149 4.29355 1.279 0
M  V30 3114 C 284.893 3.22334 2.76226 0
M  V30 3115 C 282.8 5.49755 2.17999 0
M  V30 3116 H 281.73 0.627568 0.41794 0
M  V30 3117 H 284.381 1.79713 0.370884 0
M  V30 3118 H 282.763 2.8026 2.79768 0
M  V30 3119 H 283.937 4.57458 0.554007 0
M  V30 3120 H 282.252 4.11179 0.657311 0
M  V30 3121 H 284.849 4.09471 3.43857 0
M  V30 3122 H 285.192 2.38238 3.41392 0
M  V30 3123 H 285.725 3.40475 2.05723 0
M  V30 3124 H 282.464 6.36318 1.57417 0
M  V30 3125 H 281.984 5.25937 2.88359 0
M  V30 3126 H 283.663 5.84401 2.77641 0
M  V30 3127 N 283.795 -0.628877 1.44509 0
M  V30 3128 C 284.742 -1.74074 1.51549 0
M  V30 3129 C 285.712 -1.62084 0.363021 0
M  V30 3130 O 286.897 -1.81975 0.573567 0
M  V30 3131 C 284.037 -3.12328 1.46784 0
M  V30 3132 C 283.15 -3.35277 2.72422 0
M  V30 3133 C 282.285 -4.63515 2.59475 0
M  V30 3134 C 281.324 -4.7965 3.80266 0
M  V30 3135 N 280.461 -5.99168 3.65981 0
M  V30 3136 H 285.301 -1.67392 2.46544 0
M  V30 3137 H 282.838 -0.816527 1.22357 0
M  V30 3138 H 284.796 -3.92286 1.42012 0
M  V30 3139 H 283.426 -3.18018 0.553544 0
M  V30 3140 H 282.478 -2.49242 2.87372 0
M  V30 3141 H 283.79 -3.43078 3.62076 0
M  V30 3142 H 282.944 -5.51638 2.52548 0
M  V30 3143 H 281.683 -4.58076 1.67384 0
M  V30 3144 H 280.688 -3.89957 3.87574 0
M  V30 3145 H 281.913 -4.86902 4.73395 0
M  V30 3146 H 279.859 -5.94814 2.76644 0
M  V30 3147 H 279.776 -6.08035 4.49254 0
M  V30 3148 H 281.044 -6.89846 3.6295 0
M  V30 3149 N 285.273 -1.31445 -0.869486 0
M  V30 3150 C 286.522 -1.20517 -1.61736 0
M  V30 3151 C 286.835 0.235341 -1.94179 0
M  V30 3152 O 288.041 0.466312 -2.67465 0
M  V30 3153 C 286.497 -2.10982 -2.91573 0
M  V30 3154 C 286.105 -3.60032 -2.66611 0
M  V30 3155 C 287.849 -2.08856 -3.69567 0
M  V30 3156 C 285.756 -4.42503 -3.92358 0
M  V30 3157 H 284.686 -0.447493 -0.606849 0
M  V30 3158 H 287.337 -1.56303 -0.96133 0
M  V30 3159 H 285.719 -1.68095 -3.58553 0
M  V30 3160 H 286.893 -4.11167 -2.08035 0
M  V30 3161 H 285.208 -3.64139 -2.0197 0
M  V30 3162 H 287.805 -2.67716 -4.62852 0
M  V30 3163 H 288.148 -1.07582 -4.02159 0
M  V30 3164 H 288.681 -2.49945 -3.09471 0
M  V30 3165 H 285.42 -5.44533 -3.64916 0
M  V30 3166 H 284.94 -3.96125 -4.50383 0
M  V30 3167 H 286.619 -4.54741 -4.60238 0
M  V30 3168 N 286.751 1.08385 -1.14413 0
M  V30 3169 C 287.714 2.13486 -0.834048 0
M  V30 3170 C 288.714 1.59988 0.161418 0
M  V30 3171 O 289.904 1.74071 -0.0669575 0
M  V30 3172 C 287.036 3.4003 -0.243354 0
M  V30 3173 H 288.229 2.42425 -1.7655 0
M  V30 3174 H 285.782 1.24101 -0.950189 0
M  V30 3175 H 286.517 3.16726 0.696807 0
M  V30 3176 H 286.302 3.80157 -0.960367 0
M  V30 3177 H 287.792 4.17577 -0.0436242 0
M  V30 3178 N 288.23 0.939286 1.26551 0
M  V30 3179 C 289.507 0.5038 1.89001 0
M  V30 3180 C 289.887 -1.01854 1.84903 0
M  V30 3181 O 289.235 -1.87773 1.30206 0
M  V30 3182 C 289.445 1.063 3.32417 0
M  V30 3183 C 290.793 1.13051 4.09273 0
M  V30 3184 O 291.817 1.01345 3.41479 0
M  V30 3185 O 290.676 1.31233 5.30509 0
M  V30 3186 H 287.77 0.163897 0.810597 0
M  V30 3187 H 290.316 1.03173 1.34735 0
M  V30 3188 H 289.088 2.10665 3.29752 0
M  V30 3189 H 288.711 0.517408 3.94219 0
M  V30 3190 N 289.708 -1.40897 0.706093 0
M  V30 3191 C 290.955 -2.01054 0.241531 0
M  V30 3192 C 291.283 -1.55956 -1.16223 0
M  V30 3193 O 290.538 -0.766336 -1.80072 0
M  V30 3194 C 290.837 -3.5646 0.259099 0
M  V30 3195 C 290.503 -4.21106 1.61184 0
M  V30 3196 C 289.165 -4.38479 1.98216 0
M  V30 3197 C 291.517 -4.57256 2.50132 0
M  V30 3198 C 288.845 -4.89282 3.2376 0
M  V30 3199 C 291.197 -5.09454 3.7502 0
M  V30 3200 C 289.861 -5.25037 4.12181 0
M  V30 3201 H 289.131 -0.73571 0.0883825 0
M  V30 3202 H 291.778 -1.68645 0.907257 0
M  V30 3203 H 290.083 -3.88721 -0.490189 0
M  V30 3204 H 291.78 -4.00826 -0.11804 0
M  V30 3205 H 288.37 -4.07966 1.31384 0
M  V30 3206 H 292.554 -4.43479 2.228 0
M  V30 3207 H 287.81 -4.99531 3.52532 0
M  V30 3208 H 291.984 -5.36404 4.44121 0
M  V30 3209 H 289.611 -5.64164 5.09532 0
M  V30 3210 N 291.186 -0.45159 -1.50991 0
M  V30 3211 C 292.434 0.109857 -2.01801 0
M  V30 3212 C 292.755 1.41958 -1.3369 0
M  V30 3213 O 292.025 1.9003 -0.475951 0
M  V30 3214 H 290.605 0.0435884 -0.745727 0
M  V30 3215 H 293.267 -0.597557 -1.85514 0
M  V30 3216 H 292.363 0.275489 -3.10882 0
M  V30 3217 N 292.664 1.56529 -0.183458 0
M  V30 3218 C 293.911 1.97244 0.458357 0
M  V30 3219 C 294.239 1.06992 1.62428 0
M  V30 3220 O 293.494 0.106542 1.9541 0
M  V30 3221 C 293.793 3.43939 0.971637 0
M  V30 3222 C 293.459 4.5083 -0.0796784 0
M  V30 3223 C 292.121 4.79786 -0.368584 0
M  V30 3224 C 294.473 5.15138 -0.792638 0
M  V30 3225 C 291.801 5.70345 -1.37563 0
M  V30 3226 C 294.153 6.06784 -1.78875 0
M  V30 3227 C 292.817 6.34102 -2.08497 0
M  V30 3228 H 292.087 0.721768 0.167725 0
M  V30 3229 H 294.734 1.89472 -0.277976 0
M  V30 3230 H 293.039 3.48724 1.78602 0
M  V30 3231 H 294.736 3.72791 1.47744 0
M  V30 3232 H 291.326 4.28317 0.155668 0
M  V30 3233 H 295.51 4.92868 -0.582659 0
M  V30 3234 H 290.766 5.89789 -1.61118 0
M  V30 3235 H 294.94 6.55677 -2.3465 0
M  V30 3236 H 292.567 7.04074 -2.86678 0
M  V30 3237 N 294.142 -0.090211 1.57342 0
M  V30 3238 C 295.367 -0.810082 1.90925 0
M  V30 3239 C 295.792 -1.71248 0.778187 0
M  V30 3240 O 295.15 -1.79278 -0.269991 0
M  V30 3241 C 295.198 -1.59529 3.23393 0
M  V30 3242 O 294.302 -2.70461 3.11327 0
M  V30 3243 H 293.643 -0.222231 0.625707 0
M  V30 3244 H 296.173 -0.0639716 2.045 0
M  V30 3245 H 296.183 -1.97847 3.5682 0
M  V30 3246 H 294.858 -0.933055 4.05299 0
M  V30 3247 H 293.435 -2.35135 2.89423 0
M  V30 3248 N 295.62 -1.53406 -0.361157 0
M  V30 3249 C 296.568 -1.80832 -1.46296 0
M  V30 3250 C 297.562 -0.677699 -1.55253 0
M  V30 3251 O 298.768 -0.860723 -1.58087 0
M  V30 3252 H 295.143 -0.572627 -0.487445 0
M  V30 3253 H 297.114 -2.73045 -1.20371 0
M  V30 3254 C 295.863 -2.01907 -2.8307 0
M  V30 3255 H 295.186 -2.88349 -2.76938 0
M  V30 3256 H 296.626 -2.25072 -3.59331 0
M  V30 3257 C 295.085 -0.799449 -3.27277 0
M  V30 3258 O 295.615 0.00971761 -4.01699 0
M  V30 3259 N 293.821 -0.621637 -2.83873 0
M  V30 3260 H 293.368 -1.28126 -2.23476 0
M  V30 3261 H 293.326 0.19298 -3.13807 0
M  V30 3262 N 297.098 0.621204 -1.44841 0
M  V30 3263 C 298.008 1.7612 -1.5498 0
M  V30 3264 C 299.024 1.68477 -0.434927 0
M  V30 3265 O 300.2 1.89076 -0.693693 0
M  V30 3266 C 297.265 3.1254 -1.50065 0
M  V30 3267 C 296.326 3.31741 -2.72482 0
M  V30 3268 C 295.559 4.61653 -2.67792 0
M  V30 3269 O 295.782 5.431 -1.74352 0
M  V30 3270 O 294.716 4.83271 -3.58794 0
M  V30 3271 H 298.542 1.70518 -2.51311 0
M  V30 3272 H 296.127 0.783643 -1.27198 0
M  V30 3273 H 298.009 3.93844 -1.49882 0
M  V30 3274 H 296.684 3.18663 -0.568806 0
M  V30 3275 H 295.591 2.50077 -2.7823 0
M  V30 3276 H 296.924 3.30486 -3.64746 0
M  V30 3277 N 298.576 1.31904 0.862503 0
M  V30 3278 C 299.823 1.22017 1.61611 0
M  V30 3279 C 300.151 -0.21991 1.93253 0
M  V30 3280 O 299.406 -1.17076 1.56817 0
M  V30 3281 C 299.705 2.01713 2.95037 0
M  V30 3282 C 299.371 3.51145 2.82857 0
M  V30 3283 C 298.033 3.91889 2.79243 0
M  V30 3284 C 300.385 4.46204 2.69353 0
M  V30 3285 C 297.713 5.25947 2.59993 0
M  V30 3286 C 300.065 5.80397 2.5164 0
M  V30 3287 C 298.729 6.20352 2.46413 0
M  V30 3288 H 297.999 0.44649 0.591378 0
M  V30 3289 H 300.646 1.63248 1.00111 0
M  V30 3290 H 298.951 1.53185 3.60613 0
M  V30 3291 H 300.648 1.91437 3.52353 0
M  V30 3292 H 297.238 3.1878 2.86491 0
M  V30 3293 H 301.422 4.15652 2.71196 0
M  V30 3294 H 296.678 5.5597 2.54376 0
M  V30 3295 H 300.852 6.53676 2.40169 0
M  V30 3296 H 298.479 7.24172 2.31256 0
M  V30 3297 N 300.054 -1.07777 1.14986 0
M  V30 3298 C 301.282 -1.84018 0.945773 0
M  V30 3299 C 301.697 -1.81897 -0.505863 0
M  V30 3300 O 301.054 -1.22726 -1.35072 0
M  V30 3301 C 301.105 -3.31287 1.44677 0
M  V30 3302 O 300.826 -3.33449 2.84154 0
M  V30 3303 C 302.327 -4.24311 1.28355 0
M  V30 3304 H 299.547 -0.580716 0.336169 0
M  V30 3305 H 302.091 -1.36077 1.52654 0
M  V30 3306 H 300.246 -3.76594 0.908625 0
M  V30 3307 H 300.66 -4.25427 3.06777 0
M  V30 3308 H 302.134 -5.2573 1.68261 0
M  V30 3309 H 302.611 -4.38612 0.227184 0
M  V30 3310 H 303.217 -3.84836 1.81056 0
M  V30 3311 N 301.532 -0.945985 -1.26051 0
M  V30 3312 C 302.778 -0.597002 -1.93814 0
M  V30 3313 C 303.111 0.862484 -1.73997 0
M  V30 3314 O 302.386 1.61769 -1.07986 0
M  V30 3315 C 302.669 -0.945937 -3.47454 0
M  V30 3316 C 302.522 -2.46052 -3.76535 0
M  V30 3317 C 303.841 -0.464785 -4.37639 0
M  V30 3318 H 300.96 -0.218366 -0.703907 0
M  V30 3319 H 303.602 -1.18107 -1.48831 0
M  V30 3320 H 301.752 -0.448902 -3.85898 0
M  V30 3321 H 303.424 -3.03065 -3.47778 0
M  V30 3322 H 301.667 -2.90194 -3.22444 0
M  V30 3323 H 302.338 -2.65517 -4.83947 0
M  V30 3324 H 304.814 -0.891016 -4.06448 0
M  V30 3325 H 303.69 -0.737712 -5.4392 0
M  V30 3326 H 303.951 0.635274 -4.37512 0
M  V30 3327 N 303.011 1.40521 -0.713556 0
M  V30 3328 C 304.259 2.00527 -0.251692 0
M  V30 3329 C 304.58 1.56857 1.15848 0
M  V30 3330 O 303.85 0.807127 1.785 0
M  V30 3331 H 302.43 0.741551 -0.0900646 0
M  V30 3332 H 305.092 1.71887 -0.918733 0
M  V30 3333 H 304.188 3.10813 -0.283192 0
M  V30 3334 N 304.489 0.459591 1.5075 0
M  V30 3335 C 305.737 -0.0991532 2.01857 0
M  V30 3336 C 306.058 -1.41247 1.34441 0
M  V30 3337 O 305.328 -1.89775 0.486022 0
M  V30 3338 H 303.908 -0.039633 0.745948 0
M  V30 3339 H 306.57 0.607387 1.85194 0
M  V30 3340 H 305.666 -0.258998 3.11023 0
M  V30 3341 N 305.967 -1.56429 0.191757 0
M  V30 3342 C 306.914 -2.18936 -0.730454 0
M  V30 3343 C 307.884 -1.13557 -1.21219 0
M  V30 3344 O 309.069 -1.41794 -1.27668 0
M  V30 3345 C 306.209 -2.85013 -1.9458 0
M  V30 3346 C 305.322 -4.04909 -1.50574 0
M  V30 3347 C 304.457 -4.58853 -2.67634 0
M  V30 3348 C 303.496 -5.71114 -2.20217 0
M  V30 3349 N 302.633 -6.19478 -3.30442 0
M  V30 3350 H 307.473 -2.97389 -0.190664 0
M  V30 3351 H 305.01 -1.46869 -0.0823694 0
M  V30 3352 H 306.968 -3.21492 -2.65893 0
M  V30 3353 H 305.598 -2.09129 -2.45896 0
M  V30 3354 H 304.65 -3.74115 -0.688605 0
M  V30 3355 H 305.962 -4.86113 -1.11784 0
M  V30 3356 H 305.116 -4.97619 -3.47074 0
M  V30 3357 H 303.855 -3.76749 -3.09696 0
M  V30 3358 H 302.86 -5.31879 -1.3923 0
M  V30 3359 H 304.085 -6.55033 -1.79189 0
M  V30 3360 H 302.031 -5.40297 -3.72041 0
M  V30 3361 H 301.948 -6.95725 -2.9581 0
M  V30 3362 H 303.216 -6.62898 -4.10106 0
M  V30 3363 N 307.445 0.0818655 -1.57387 0
M  V30 3364 C 308.375 1.09885 -2.06028 0
M  V30 3365 C 309.356 1.4098 -0.951774 0
M  V30 3366 O 310.541 1.50781 -1.22387 0
M  V30 3367 C 307.671 2.4151 -2.4958 0
M  V30 3368 C 306.625 2.24792 -3.64215 0
M  V30 3369 C 305.951 3.61712 -3.93787 0
M  V30 3370 C 307.251 1.67749 -4.94629 0
M  V30 3371 H 308.945 0.694128 -2.91243 0
M  V30 3372 H 306.491 0.332448 -1.4011 0
M  V30 3373 H 308.444 3.12939 -2.82219 0
M  V30 3374 H 307.168 2.83943 -1.61381 0
M  V30 3375 H 305.827 1.55807 -3.31843 0
M  V30 3376 H 305.475 4.01697 -3.02735 0
M  V30 3377 H 305.175 3.51368 -4.70971 0
M  V30 3378 H 306.699 4.34587 -4.28913 0
M  V30 3379 H 308.113 2.29032 -5.25564 0
M  V30 3380 H 306.51 1.68128 -5.76067 0
M  V30 3381 H 307.58 0.638059 -4.80684 0
M  V30 3382 N 308.923 1.53595 0.353017 0
M  V30 3383 C 310.2 1.61002 1.11075 0
M  V30 3384 C 310.58 0.425356 2.0677 0
M  V30 3385 O 309.928 -0.583267 2.2093 0
M  V30 3386 C 310.138 2.96631 1.83877 0
M  V30 3387 C 311.486 3.51653 2.37961 0
M  V30 3388 O 312.51 2.98743 1.93987 0
M  V30 3389 O 311.369 4.44177 3.18386 0
M  V30 3390 H 308.463 0.650825 0.510251 0
M  V30 3391 H 311.009 1.6594 0.35527 0
M  V30 3392 H 309.781 3.74293 1.14108 0
M  V30 3393 H 309.404 2.95242 2.66304 0
M  V30 3394 N 310.401 -0.613514 1.45168 0
M  V30 3395 C 311.629 -1.39946 1.5239 0
M  V30 3396 C 312.044 -1.88167 0.154531 0
M  V30 3397 O 311.401 -1.61872 -0.842843 0
M  V30 3398 C 311.452 -2.60795 2.50337 0
M  V30 3399 O 311.173 -2.1458 3.81952 0
M  V30 3400 C 312.674 -3.53723 2.67198 0
M  V30 3401 H 309.894 -0.428593 0.516284 0
M  V30 3402 H 312.438 -0.748753 1.903 0
M  V30 3403 H 310.593 -3.21919 2.15515 0
M  V30 3404 H 311.007 -2.93055 4.34993 0
M  V30 3405 H 312.481 -4.35079 3.39721 0
M  V30 3406 H 312.958 -4.0368 1.73029 0
M  V30 3407 H 313.564 -2.98456 3.02992 0
M  V30 3408 N 311.879 -1.3236 -0.855495 0
M  V30 3409 C 313.126 -1.22872 -1.60962 0
M  V30 3410 C 313.454 0.209658 -1.93367 0
M  V30 3411 O 312.709 1.16243 -1.57436 0
M  V30 3412 C 313.008 -2.03275 -2.93963 0
M  V30 3413 C 312.674 -3.5264 -2.80991 0
M  V30 3414 C 311.336 -3.93364 -2.7716 0
M  V30 3415 C 313.688 -4.47626 -2.66983 0
M  V30 3416 C 311.016 -5.27319 -2.572 0
M  V30 3417 C 313.368 -5.81723 -2.48558 0
M  V30 3418 C 312.032 -6.2165 -2.4312 0
M  V30 3419 H 311.302 -0.44962 -0.589001 0
M  V30 3420 H 313.949 -1.63777 -0.992442 0
M  V30 3421 H 312.254 -1.55095 -3.59795 0
M  V30 3422 H 313.951 -1.93303 -3.51333 0
M  V30 3423 H 310.541 -3.20295 -2.84797 0
M  V30 3424 H 314.725 -4.17084 -2.68988 0
M  V30 3425 H 309.981 -5.57311 -2.51424 0
M  V30 3426 H 314.155 -6.5494 -2.36699 0
M  V30 3427 H 311.782 -7.25388 -2.27412 0
M  V30 3428 N 313.357 1.07166 -1.15556 0
M  V30 3429 C 314.597 1.81391 -0.94216 0
M  V30 3430 C 314.961 1.84788 0.521272 0
M  V30 3431 O 316.162 2.54904 0.85307 0
M  V30 3432 C 314.433 3.22431 -1.54185 0
M  V30 3433 S 315.992 4.13379 -1.47183 0
M  V30 3434 H 312.81 0.624963 -0.339031 0
M  V30 3435 H 315.412 1.28725 -1.4714 0
M  V30 3436 H 314.116 3.17548 -2.59984 0
M  V30 3437 H 313.647 3.80172 -1.01156 0
M  V30 3438 H 315.662 4.94007 -0.466004 0
M  V30 3439 N 314.835 0.952656 1.25548 0
M  V30 3440 C 316.083 0.605176 1.92826 0
M  V30 3441 C 316.404 -0.860261 1.74999 0
M  V30 3442 O 315.674 -1.6125 1.11244 0
M  V30 3443 H 314.254 0.220832 0.713612 0
M  V30 3444 H 316.916 1.21047 1.52754 0
M  V30 3445 H 316.012 0.832798 3.00784 0
M  V30 3446 N 316.313 -1.40141 0.720998 0
M  V30 3447 C 317.538 -2.05618 0.271258 0
M  V30 3448 C 317.963 -1.53978 -1.08039 0
M  V30 3449 O 317.321 -0.677463 -1.68167 0
M  V30 3450 C 317.369 -3.59609 0.267197 0
M  V30 3451 O 316.473 -4.05526 -0.749814 0
M  V30 3452 H 315.814 -0.651904 0.126162 0
M  V30 3453 H 318.344 -1.79439 0.982997 0
M  V30 3454 H 318.354 -4.0786 0.106744 0
M  V30 3455 H 317.029 -3.96559 1.25354 0
M  V30 3456 H 315.606 -3.68722 -0.556644 0
M  V30 3457 N 317.792 -0.46758 -1.50504 0
M  V30 3458 C 319.203 -0.0116166 -1.86696 0
M  V30 3459 C 319.554 1.39202 -1.38265 0
M  V30 3460 O 318.679 2.0313 -0.746132 0
M  V30 3461 C 319.274 -0.0143044 -3.38797 0
M  V30 3462 C 317.833 0.386175 -3.74414 0
M  V30 3463 C 316.98 -0.401287 -2.74381 0
M  V30 3464 H 319.931 -0.682022 -1.43297 0
M  V30 3465 H 319.952 0.788641 -3.72237 0
M  V30 3466 H 319.464 -1.03602 -3.74016 0
M  V30 3467 H 317.565 1.41237 -3.44794 0
M  V30 3468 H 317.678 0.0899596 -4.79016 0
M  V30 3469 H 316.042 0.144536 -2.5429 0
M  V30 3470 H 316.825 -1.42244 -3.12444 0
M  V30 3471 N 319.27 1.56325 -0.20005 0
M  V30 3472 C 320.681 1.8408 0.31167 0
M  V30 3473 C 321.032 1.12087 1.61031 0
M  V30 3474 O 320.157 0.38332 2.12978 0
M  V30 3475 C 320.752 3.33932 0.57226 0
M  V30 3476 C 319.311 3.6208 1.02834 0
M  V30 3477 C 318.458 2.77186 0.079634 0
M  V30 3478 H 321.409 1.52939 -0.423729 0
M  V30 3479 H 321.43 3.52971 1.42096 0
M  V30 3480 H 320.942 3.86303 -0.37308 0
M  V30 3481 H 319.043 3.15147 1.98778 0
M  V30 3482 H 319.156 4.7023 0.917624 0
M  V30 3483 H 317.52 2.47951 0.582448 0
M  V30 3484 H 318.303 3.32347 -0.860238 0
M  V30 3485 N 320.748 -0.0735177 1.57428 0
M  V30 3486 C 321.978 -0.78483 1.91112 0
M  V30 3487 C 322.386 -1.71729 0.7941 0
M  V30 3488 O 321.729 -1.82105 -0.241542 0
M  V30 3489 C 321.791 -1.63346 3.20247 0
M  V30 3490 C 321.455 -0.870557 4.48632 0
M  V30 3491 C 322.452 -0.19058 5.19551 0
M  V30 3492 C 320.137 -0.838242 4.95256 0
M  V30 3493 C 322.131 0.511503 6.35344 0
M  V30 3494 C 319.818 -0.132386 6.10957 0
M  V30 3495 C 320.816 0.541288 6.80852 0
M  V30 3496 O 320.504 1.23578 7.94345 0
M  V30 3497 H 320.236 -0.228408 0.636244 0
M  V30 3498 H 322.79 -0.0486039 2.05342 0
M  V30 3499 H 321.02 -2.41245 3.02222 0
M  V30 3500 H 322.709 -2.22329 3.39595 0
M  V30 3501 H 323.475 -0.206864 4.84559 0
M  V30 3502 H 319.354 -1.35206 4.40727 0
M  V30 3503 H 322.898 1.03789 6.89836 0
M  V30 3504 H 318.795 -0.114023 6.45399 0
M  V30 3505 H 319.563 1.14487 8.10454 0
M  V30 3506 N 322.226 -1.5378 -0.344866 0
M  V30 3507 C 323.189 -1.80981 -1.40637 0
M  V30 3508 C 324.189 -0.680816 -1.45676 0
M  V30 3509 O 325.379 -0.949095 -1.46075 0
M  V30 3510 C 322.511 -1.95063 -2.79577 0
M  V30 3511 H 323.704 -2.75803 -1.17783 0
M  V30 3512 H 321.257 -1.45173 -0.579181 0
M  V30 3513 H 321.992 -1.02379 -3.07716 0
M  V30 3514 H 321.777 -2.77198 -2.77315 0
M  V30 3515 H 323.267 -2.17629 -3.56409 0
M  V30 3516 N 323.704 0.605807 -1.45491 0
M  V30 3517 C 324.667 1.69836 -1.5391 0
M  V30 3518 C 325.667 1.55261 -0.418424 0
M  V30 3519 O 326.857 1.60296 -0.681965 0
M  V30 3520 C 323.989 3.09117 -1.43734 0
M  V30 3521 H 325.182 1.63738 -2.51257 0
M  V30 3522 H 322.735 0.821689 -1.32959 0
M  V30 3523 H 323.47 3.20791 -0.475788 0
M  V30 3524 H 323.255 3.21104 -2.25021 0
M  V30 3525 H 324.745 3.88696 -1.52661 0
M  V30 3526 N 325.182 1.32811 0.848464 0
M  V30 3527 C 326.593 1.21315 1.41914 0
M  V30 3528 C 326.944 -0.171847 1.95446 0
M  V30 3529 O 326.069 -1.07093 1.88043 0
M  V30 3530 C 326.664 2.19631 2.57968 0
M  V30 3531 C 325.223 2.12003 3.11017 0
M  V30 3532 C 324.37 2.07651 1.83783 0
M  V30 3533 H 327.321 1.44549 0.655071 0
M  V30 3534 H 327.342 1.79845 3.35315 0
M  V30 3535 H 326.854 3.20423 2.18976 0
M  V30 3536 H 324.955 1.14481 3.54577 0
M  V30 3537 H 325.068 3.02111 3.71841 0
M  V30 3538 H 323.432 1.52983 2.03638 0
M  V30 3539 H 324.215 3.10235 1.47 0
M  V30 3540 N 326.66 -1.06551 1.16123 0
M  V30 3541 C 327.57 -2.17484 0.879662 0
M  V30 3542 C 328.586 -1.73377 -0.147104 0
M  V30 3543 O 329.762 -2.01379 0.0289128 0
M  V30 3544 C 326.827 -3.44591 0.381829 0
M  V30 3545 C 325.888 -4.0322 1.4735 0
M  V30 3546 C 325.121 -5.24261 0.999324 0
M  V30 3547 O 325.344 -5.70198 -0.151957 0
M  V30 3548 O 324.278 -5.74775 1.78653 0
M  V30 3549 H 328.104 -2.44075 1.80724 0
M  V30 3550 H 325.689 -1.16042 0.940992 0
M  V30 3551 H 327.571 -4.21254 0.111053 0
M  V30 3552 H 326.246 -3.19532 -0.51777 0
M  V30 3553 H 325.153 -3.2806 1.79798 0
M  V30 3554 H 326.486 -4.32568 2.34831 0
M  V30 3555 N 328.138 -0.959301 -1.25041 0
M  V30 3556 C 329.068 -0.501388 -2.28053 0
M  V30 3557 C 330.049 0.454673 -1.63911 0
M  V30 3558 O 331.234 0.352618 -1.90972 0
M  V30 3559 C 328.364 0.217224 -3.4662 0
M  V30 3560 C 327.318 -0.654034 -4.22973 0
M  V30 3561 C 326.644 0.195589 -5.34342 0
M  V30 3562 C 327.944 -1.93447 -4.85155 0
M  V30 3563 H 329.638 -1.36238 -2.66608 0
M  V30 3564 H 327.184 -0.656534 -1.28163 0
M  V30 3565 H 329.137 0.548732 -4.17812 0
M  V30 3566 H 327.861 1.1125 -3.07068 0
M  V30 3567 H 326.52 -0.968693 -3.5357 0
M  V30 3568 H 326.168 1.09076 -4.91031 0
M  V30 3569 H 325.868 -0.384091 -5.86343 0
M  V30 3570 H 327.392 0.521958 -6.08365 0
M  V30 3571 H 328.806 -1.66908 -5.48466 0
M  V30 3572 H 327.203 -2.46018 -5.47353 0
M  V30 3573 H 328.273 -2.63466 -4.07079 0
M  V30 3574 N 329.616 1.39756 -0.72842 0
M  V30 3575 C 330.863 2.00645 -0.273487 0
M  V30 3576 C 331.191 1.57786 1.13727 0
M  V30 3577 O 330.446 0.794886 1.7883 0
M  V30 3578 C 330.745 3.56002 -0.315776 0
M  V30 3579 C 330.411 4.18489 -1.67863 0
M  V30 3580 C 329.073 4.3527 -2.05166 0
M  V30 3581 C 331.425 4.53219 -2.57375 0
M  V30 3582 C 328.753 4.84069 -3.31503 0
M  V30 3583 C 331.105 5.03423 -3.83077 0
M  V30 3584 C 329.769 5.18413 -4.20481 0
M  V30 3585 H 329.039 0.734211 -0.100076 0
M  V30 3586 H 331.686 1.6718 -0.933972 0
M  V30 3587 H 329.991 3.89452 0.428285 0
M  V30 3588 H 331.688 4.00963 0.0542575 0
M  V30 3589 H 328.278 4.05824 -1.37858 0
M  V30 3590 H 332.462 4.39878 -2.29827 0
M  V30 3591 H 327.718 4.93859 -3.60435 0
M  V30 3592 H 331.892 5.2927 -4.52599 0
M  V30 3593 H 329.519 5.55987 -5.18443 0
M  V30 3594 N 331.094 0.475555 1.50254 0
M  V30 3595 C 332.026 -0.352649 2.26471 0
M  V30 3596 C 333.039 -0.953165 1.3198 0
M  V30 3597 O 334.228 -0.840815 1.57457 0
M  V30 3598 C 331.328 -1.50902 3.0345 0
M  V30 3599 C 330.501 -1.02047 4.25329 0
M  V30 3600 C 329.56 -2.05142 4.84565 0
M  V30 3601 O 328.586 -1.63023 5.45355 0
M  V30 3602 N 329.788 -3.37987 4.71959 0
M  V30 3603 H 332.553 0.300767 2.98187 0
M  V30 3604 H 330.114 0.306598 1.5897 0
M  V30 3605 H 332.106 -2.19572 3.39956 0
M  V30 3606 H 330.676 -2.06705 2.34504 0
M  V30 3607 H 329.896 -0.159507 3.93877 0
M  V30 3608 H 331.184 -0.672061 5.04342 0
M  V30 3609 H 330.582 -3.74913 4.23623 0
M  V30 3610 H 329.139 -4.02443 5.12721 0
M  V30 3611 N 332.573 -1.56217 0.208337 0
M  V30 3612 C 333.821 -1.97558 -0.426076 0
M  V30 3613 C 334.142 -1.09683 -1.61229 0
M  V30 3614 O 333.412 -0.170956 -1.95153 0
M  V30 3615 H 331.992 -0.729575 -0.160405 0
M  V30 3616 H 334.654 -1.92606 0.298155 0
M  V30 3617 H 333.75 -3.02672 -0.761312 0
M  V30 3618 N 334.051 0.0651679 -1.57465 0
M  V30 3619 C 334.998 1.07675 -2.04144 0
M  V30 3620 C 335.968 1.38071 -0.923335 0
M  V30 3621 O 337.153 1.49026 -1.19146 0
M  V30 3622 C 334.293 2.38337 -2.49579 0
M  V30 3623 C 333.406 2.14413 -3.75035 0
M  V30 3624 C 332.541 3.38686 -4.09225 0
M  V30 3625 C 331.58 3.10156 -5.27702 0
M  V30 3626 N 330.717 4.26778 -5.57499 0
M  V30 3627 H 335.557 0.671716 -2.90331 0
M  V30 3628 H 333.094 0.3201 -1.43575 0
M  V30 3629 H 335.052 3.14632 -2.73975 0
M  V30 3630 H 333.682 2.7663 -1.6636 0
M  V30 3631 H 332.734 1.2878 -3.57939 0
M  V30 3632 H 334.046 1.89344 -4.61466 0
M  V30 3633 H 333.2 4.23373 -4.34558 0
M  V30 3634 H 331.939 3.66837 -3.21374 0
M  V30 3635 H 330.944 2.23866 -5.02159 0
M  V30 3636 H 332.169 2.8332 -6.17176 0
M  V30 3637 H 330.115 4.54948 -4.72608 0
M  V30 3638 H 330.032 4.05005 -6.38362 0
M  V30 3639 H 331.3 5.12443 -5.87386 0
M  V30 3640 N 335.529 1.53961 0.336706 0
M  V30 3641 C 336.476 1.82428 1.41381 0
M  V30 3642 C 337.446 0.670444 1.51968 0
M  V30 3643 O 338.631 0.915565 1.67398 0
M  V30 3644 C 335.771 2.04564 2.77934 0
M  V30 3645 C 334.884 3.32267 2.76084 0
M  V30 3646 C 334.019 3.44434 4.04399 0
M  V30 3647 C 333.058 4.66061 3.96804 0
M  V30 3648 N 332.195 4.75224 5.16823 0
M  V30 3649 H 337.035 2.74324 1.16405 0
M  V30 3650 H 334.572 1.35869 0.563752 0
M  V30 3651 H 336.53 2.15388 3.57301 0
M  V30 3652 H 335.16 1.15974 3.01247 0
M  V30 3653 H 334.212 3.3025 1.88784 0
M  V30 3654 H 335.524 4.21733 2.66351 0
M  V30 3655 H 334.678 3.54728 4.92192 0
M  V30 3656 H 333.417 2.53037 4.16921 0
M  V30 3657 H 332.422 4.55838 3.07396 0
M  V30 3658 H 333.647 5.58829 3.85858 0
M  V30 3659 H 331.593 3.86739 5.29876 0
M  V30 3660 H 331.51 5.58636 5.09374 0
M  V30 3661 H 332.778 4.89835 6.06367 0
M  V30 3662 N 337.007 -0.598083 1.45811 0
M  V30 3663 C 338.237 -1.38121 1.53643 0
M  V30 3664 C 338.645 -1.88425 0.171081 0
M  V30 3665 O 337.988 -1.63409 -0.839237 0
M  V30 3666 C 338.05 -2.61432 2.46766 0
M  V30 3667 C 337.714 -2.32702 3.93318 0
M  V30 3668 C 338.711 -1.92479 4.82957 0
M  V30 3669 C 336.396 -2.45321 4.38318 0
M  V30 3670 C 338.39 -1.65248 6.15607 0
M  V30 3671 C 336.077 -2.17703 5.71007 0
M  V30 3672 C 337.075 -1.7773 6.5947 0
M  V30 3673 O 336.763 -1.50441 7.89698 0
M  V30 3674 H 336.495 -0.428863 0.522544 0
M  V30 3675 H 339.049 -0.73557 1.91777 0
M  V30 3676 H 337.279 -3.28749 2.0362 0
M  V30 3677 H 338.968 -3.23487 2.45175 0
M  V30 3678 H 339.734 -1.82258 4.49452 0
M  V30 3679 H 335.613 -2.75399 3.69697 0
M  V30 3680 H 339.157 -1.33973 6.84614 0
M  V30 3681 H 335.054 -2.27544 6.04065 0
M  V30 3682 H 335.822 -1.64415 8.01817 0
M  V30 3683 N 338.485 -1.33259 -0.841409 0
M  V30 3684 C 339.762 -1.15174 -1.58096 0
M  V30 3685 C 340.142 0.282858 -2.09196 0
M  V30 3686 O 339.49 1.28151 -1.89181 0
M  V30 3687 C 339.7 -2.1907 -2.71679 0
M  V30 3688 C 341.048 -2.53093 -3.40924 0
M  V30 3689 O 342.072 -2.17717 -2.81918 0
M  V30 3690 O 340.931 -3.1379 -4.47435 0
M  V30 3691 H 338.025 -0.445303 -0.696875 0
M  V30 3692 H 340.571 -1.44833 -0.884385 0
M  V30 3693 H 339.343 -3.15443 -2.31541 0
M  V30 3694 H 338.966 -1.90481 -3.49002 0
M  V30 3695 N 339.963 1.05934 -1.16686 0
M  V30 3696 C 341.211 1.78447 -0.948744 0
M  V30 3697 C 341.532 1.87813 0.524523 0
M  V30 3698 O 340.802 1.38945 1.38098 0
M  V30 3699 H 339.382 0.660971 -0.348033 0
M  V30 3700 H 342.044 1.27947 -1.47022 0
M  V30 3701 H 341.14 2.80394 -1.37061 0
M  V30 3702 N 341.441 0.965919 1.2453 0
M  V30 3703 C 342.852 0.665929 1.7442 0
M  V30 3704 C 343.203 -0.818407 1.78316 0
M  V30 3705 O 342.328 -1.64037 1.41141 0
M  V30 3706 C 342.923 1.20211 3.16757 0
M  V30 3707 C 341.482 0.952059 3.6416 0
M  V30 3708 C 340.629 1.33848 2.42858 0
M  V30 3709 H 343.58 1.14144 1.10258 0
M  V30 3710 H 343.601 0.567544 3.76244 0
M  V30 3711 H 343.113 2.28244 3.13889 0
M  V30 3712 H 341.214 -0.112821 3.72429 0
M  V30 3713 H 341.327 1.59645 4.51719 0
M  V30 3714 H 339.691 0.756864 2.43195 0
M  V30 3715 H 340.474 2.42827 2.42673 0
M  V30 3716 N 342.919 -1.39368 0.735821 0
M  V30 3717 C 343.829 -2.34395 0.0979693 0
M  V30 3718 C 344.845 -1.58361 -0.720968 0
M  V30 3719 O 346.021 -1.90648 -0.649245 0
M  V30 3720 C 343.086 -3.37393 -0.797916 0
M  V30 3721 C 342.147 -4.29287 0.0333662 0
M  V30 3722 C 341.38 -5.27365 -0.819854 0
M  V30 3723 O 341.603 -5.31959 -2.05855 0
M  V30 3724 O 340.537 -6.01389 -0.248079 0
M  V30 3725 H 344.363 -2.90601 0.882315 0
M  V30 3726 H 341.948 -1.40909 0.4965 0
M  V30 3727 H 343.83 -4.00505 -1.31048 0
M  V30 3728 H 342.505 -2.83571 -1.56106 0
M  V30 3729 H 341.412 -3.69395 0.591475 0
M  V30 3730 H 342.745 -4.86317 0.758752 0
M  V30 3731 N 344.397 -0.483516 -1.5 0
M  V30 3732 C 345.643 0.0672592 -2.02688 0
M  V30 3733 C 345.976 1.38247 -1.36387 0
M  V30 3734 O 345.251 1.88131 -0.493675 0
M  V30 3735 C 345.534 0.238109 -3.59312 0
M  V30 3736 C 345.387 -1.099 -4.36168 0
M  V30 3737 C 346.706 0.986916 -4.28892 0
M  V30 3738 H 343.825 0.0229696 -0.736642 0
M  V30 3739 H 346.467 -0.631527 -1.79197 0
M  V30 3740 H 344.617 0.8333 -3.79458 0
M  V30 3741 H 346.289 -1.73172 -4.27562 0
M  V30 3742 H 344.532 -1.69261 -3.99416 0
M  V30 3743 H 345.203 -0.932954 -5.44059 0
M  V30 3744 H 347.679 0.482302 -4.13295 0
M  V30 3745 H 346.555 1.07527 -5.38265 0
M  V30 3746 H 346.816 2.0265 -3.92919 0
M  V30 3747 N 345.875 1.56104 -0.216619 0
M  V30 3748 C 347.152 1.89988 0.465165 0
M  V30 3749 C 347.532 1.13326 1.78102 0
M  V30 3750 O 346.88 0.241033 2.27225 0
M  V30 3751 C 347.09 3.42646 0.662939 0
M  V30 3752 C 348.438 4.13311 0.972602 0
M  V30 3753 O 349.462 3.48217 0.749901 0
M  V30 3754 O 348.321 5.28396 1.39499 0
M  V30 3755 H 345.415 0.78979 0.245276 0
M  V30 3756 H 347.961 1.67721 -0.258436 0
M  V30 3757 H 346.733 3.90399 -0.26543 0
M  V30 3758 H 346.356 3.70677 1.43821 0
M  V30 3759 N 347.353 -0.0568162 1.57498 0
M  V30 3760 C 348.599 -0.75422 1.88253 0
M  V30 3761 C 348.932 -1.76461 0.810865 0
M  V30 3762 O 348.207 -1.93691 -0.177259 0
M  V30 3763 C 348.49 -1.44878 3.2967 0
M  V30 3764 C 348.343 -0.453789 4.47505 0
M  V30 3765 C 349.662 -2.38994 3.69554 0
M  V30 3766 H 346.781 -0.272724 0.684683 0
M  V30 3767 H 349.423 -0.0172113 1.89992 0
M  V30 3768 H 347.573 -2.077 3.28318 0
M  V30 3769 H 349.245 0.170371 4.60985 0
M  V30 3770 H 347.488 0.229552 4.33192 0
M  V30 3771 H 348.159 -0.977699 5.43273 0
M  V30 3772 H 350.635 -1.86239 3.72095 0
M  V30 3773 H 349.511 -2.84587 4.69363 0
M  V30 3774 H 349.772 -3.24461 3.00296 0
M  V30 3775 N 348.832 -1.54138 -0.328536 0
M  V30 3776 C 350.078 -1.73297 -1.06488 0
M  V30 3777 C 350.433 -0.497958 -1.85844 0
M  V30 3778 O 349.726 0.509591 -1.84699 0
M  V30 3779 C 349.92 -2.9457 -2.02393 0
M  V30 3780 C 349.749 -4.29747 -1.32467 0
M  V30 3781 C 348.519 -4.93987 -1.06324 0
M  V30 3782 C 350.717 -5.08903 -0.743137 0
M  V30 3783 N 348.699 -6.13005 -0.331359 0
M  V30 3784 C 350.07 -6.19836 -0.142602 0
M  V30 3785 C 352.125 -4.93699 -0.64546 0
M  V30 3786 C 350.828 -7.17224 0.546125 0
M  V30 3787 C 352.854 -5.91393 0.0295558 0
M  V30 3788 C 352.216 -7.01674 0.619056 0
M  V30 3789 H 348.315 -0.687017 -0.373539 0
M  V30 3790 H 350.899 -1.91589 -0.346659 0
M  V30 3791 H 349.07 -2.77752 -2.71493 0
M  V30 3792 H 350.802 -3.0238 -2.68977 0
M  V30 3793 H 347.557 -4.53824 -1.35428 0
M  V30 3794 H 347.981 -6.76997 0.0202939 0
M  V30 3795 H 352.623 -4.08589 -1.08695 0
M  V30 3796 H 350.341 -8.01896 0.999459 0
M  V30 3797 H 353.927 -5.81706 0.104705 0
M  V30 3798 H 352.807 -7.75971 1.13309 0
M  V30 3799 N 350.31 0.590341 -1.46126 0
M  V30 3800 C 351.535 1.37991 -1.54833 0
M  V30 3801 C 351.96 1.87163 -0.187506 0
M  V30 3802 O 351.318 1.61133 0.831008 0
M  V30 3803 C 351.366 2.54867 -2.55098 0
M  V30 3804 O 350.47 3.56061 -2.08073 0
M  V30 3805 H 349.811 0.411265 -0.521303 0
M  V30 3806 H 352.341 0.716819 -1.91632 0
M  V30 3807 H 352.351 3.01886 -2.74461 0
M  V30 3808 H 351.026 2.18429 -3.53923 0
M  V30 3809 H 349.603 3.15574 -1.98664 0
M  V30 3810 N 351.788 1.33704 0.83433 0
M  V30 3811 C 352.718 1.26967 1.95963 0
M  V30 3812 C 353.699 0.149337 1.69443 0
M  V30 3813 O 354.884 0.339852 1.91203 0
M  V30 3814 C 352.014 1.01275 3.32206 0
M  V30 3815 C 350.968 2.09652 3.73136 0
M  V30 3816 C 350.294 1.69166 5.07235 0
M  V30 3817 C 351.594 3.51372 3.86439 0
M  V30 3818 H 353.288 2.2112 2.01857 0
M  V30 3819 H 350.834 1.06447 0.969793 0
M  V30 3820 H 352.787 0.952106 4.10503 0
M  V30 3821 H 351.511 0.0356203 3.26581 0
M  V30 3822 H 350.17 2.14766 2.97104 0
M  V30 3823 H 349.818 0.701437 4.98085 0
M  V30 3824 H 349.518 2.41694 5.35591 0
M  V30 3825 H 351.042 1.64576 5.88003 0
M  V30 3826 H 352.456 3.48734 4.55036 0
M  V30 3827 H 350.853 4.22425 4.26236 0
M  V30 3828 H 351.923 3.89546 2.88759 0
M  V30 3829 N 353.266 -1.05314 1.17247 0
M  V30 3830 C 354.514 -1.77941 0.958194 0
M  V30 3831 C 354.835 -1.88089 -0.514556 0
M  V30 3832 O 354.105 -1.39676 -1.37359 0
M  V30 3833 H 352.685 -0.659116 0.351533 0
M  V30 3834 H 355.347 -1.27166 1.47699 0
M  V30 3835 H 354.443 -2.79663 1.38546 0
M  V30 3836 N 354.744 -0.972509 -1.24016 0
M  V30 3837 C 355.99 -0.637978 -1.92504 0
M  V30 3838 C 356.323 0.825383 -1.75787 0
M  V30 3839 O 355.598 1.59442 -1.11393 0
M  V30 3840 C 355.881 -1.01942 -3.45369 0
M  V30 3841 C 355.734 -2.53983 -3.71231 0
M  V30 3842 C 357.053 -0.55751 -4.36555 0
M  V30 3843 H 354.172 -0.233248 -0.699117 0
M  V30 3844 H 356.814 -1.21238 -1.46292 0
M  V30 3845 H 354.964 -0.530656 -3.84859 0
M  V30 3846 H 356.636 -3.10374 -3.41271 0
M  V30 3847 H 354.879 -2.96968 -3.16216 0
M  V30 3848 H 355.55 -2.75723 -4.78206 0
M  V30 3849 H 358.026 -0.977029 -4.04467 0
M  V30 3850 H 356.902 -0.85292 -5.42233 0
M  V30 3851 H 357.163 0.542328 -4.38761 0
M  V30 3852 N 356.222 1.38976 -0.743202 0
M  V30 3853 C 357.471 1.99581 -0.291592 0
M  V30 3854 C 357.784 1.59656 1.13001 0
M  V30 3855 O 358.99 2.13157 1.68156 0
M  V30 3856 C 357.446 3.56813 -0.470391 0
M  V30 3857 C 357.054 4.05695 -1.90041 0
M  V30 3858 C 358.798 4.24423 -0.0809709 0
M  V30 3859 C 356.705 5.5553 -2.02832 0
M  V30 3860 H 355.635 0.746615 -0.105272 0
M  V30 3861 H 358.286 1.58872 -0.918258 0
M  V30 3862 H 356.668 3.95359 0.225299 0
M  V30 3863 H 357.842 3.78464 -2.62872 0
M  V30 3864 H 356.157 3.50775 -2.24379 0
M  V30 3865 H 358.754 5.34474 -0.155445 0
M  V30 3866 H 359.097 4.04962 0.96497 0
M  V30 3867 H 359.63 3.9108 -0.728124 0
M  V30 3868 H 356.369 5.79881 -3.05643 0
M  V30 3869 H 355.889 5.84537 -1.34448 0
M  V30 3870 H 357.568 6.21069 -1.81335 0
M  V30 3871 N 357.7 0.491464 1.49741 0
M  V30 3872 C 358.63 -0.28154 2.31796 0
M  V30 3873 C 359.611 -0.971473 1.3963 0
M  V30 3874 O 360.796 -0.964719 1.68543 0
M  V30 3875 C 357.926 -1.35203 3.19902 0
M  V30 3876 C 356.88 -0.782529 4.20786 0
M  V30 3877 C 356.206 -1.95283 4.97764 0
M  V30 3878 C 357.506 0.21999 5.21837 0
M  V30 3879 H 359.2 0.403355 2.96671 0
M  V30 3880 H 356.746 0.195425 1.42668 0
M  V30 3881 H 358.699 -1.90045 3.76113 0
M  V30 3882 H 357.423 -2.06598 2.52953 0
M  V30 3883 H 356.082 -0.255928 3.65706 0
M  V30 3884 H 355.73 -2.65423 4.2727 0
M  V30 3885 H 355.43 -1.57789 5.66018 0
M  V30 3886 H 356.954 -2.50577 5.56816 0
M  V30 3887 H 358.368 -0.23996 5.72798 0
M  V30 3888 H 356.765 0.51026 5.97927 0
M  V30 3889 H 357.835 1.13911 4.7133 0
M  V30 3890 N 359.178 -1.55987 0.224894 0
M  V30 3891 C 360.408 -2.02489 -0.41007 0
M  V30 3892 C 360.816 -1.10391 -1.53657 0
M  V30 3893 O 360.159 -0.106458 -1.83391 0
M  V30 3894 C 360.221 -3.45319 -0.999757 0
M  V30 3895 C 359.885 -4.56999 -0.00827976 0
M  V30 3896 C 360.882 -5.13812 0.793314 0
M  V30 3897 C 358.567 -5.02176 0.111442 0
M  V30 3898 C 360.561 -6.14276 1.7013 0
M  V30 3899 C 358.248 -6.02477 1.02296 0
M  V30 3900 C 359.246 -6.58403 1.81643 0
M  V30 3901 O 358.934 -7.56751 2.71262 0
M  V30 3902 H 358.666 -0.667915 -0.104235 0
M  V30 3903 H 361.22 -2.0257 0.339782 0
M  V30 3904 H 359.45 -3.42318 -1.79876 0
M  V30 3905 H 361.139 -3.7545 -1.54248 0
M  V30 3906 H 361.905 -4.79756 0.711288 0
M  V30 3907 H 357.784 -4.58323 -0.49605 0
M  V30 3908 H 361.328 -6.57854 2.32107 0
M  V30 3909 H 357.225 -6.35954 1.10599 0
M  V30 3910 H 357.993 -7.74286 2.65375 0
M  V30 3911 N 360.656 0.0484629 -1.57525 0
M  V30 3912 C 361.884 0.755421 -1.92616 0
M  V30 3913 C 362.299 1.69919 -0.822984 0
M  V30 3914 O 361.656 1.81378 0.202085 0
M  V30 3915 C 361.707 1.52915 -3.27566 0
M  V30 3916 O 361.428 0.62329 -4.33644 0
M  V30 3917 C 362.929 2.33502 -3.76818 0
M  V30 3918 H 360.149 0.213465 -0.63614 0
M  V30 3919 H 362.693 0.0117698 -2.04497 0
M  V30 3920 H 360.848 2.22486 -3.17142 0
M  V30 3921 H 361.262 1.16383 -5.11425 0
M  V30 3922 H 362.736 2.83214 -4.73808 0
M  V30 3923 H 363.213 3.14068 -3.07014 0
M  V30 3924 H 363.819 1.69043 -3.90262 0
M  V30 3925 N 362.134 1.5431 0.320358 0
M  V30 3926 C 363.064 1.86912 1.3995 0
M  V30 3927 C 364.045 0.726211 1.53819 0
M  V30 3928 O 365.23 0.980233 1.67646 0
M  V30 3929 C 362.36 2.09932 2.7667 0
M  V30 3930 C 361.314 3.25776 2.77586 0
M  V30 3931 C 360.64 3.34173 4.17412 0
M  V30 3932 C 361.94 4.6335 2.41048 0
M  V30 3933 H 363.634 2.77292 1.12914 0
M  V30 3934 H 361.18 1.33421 0.541738 0
M  V30 3935 H 363.133 2.31324 3.52232 0
M  V30 3936 H 361.857 1.16304 3.0519 0
M  V30 3937 H 360.516 3.04276 2.04479 0
M  V30 3938 H 360.164 2.38098 4.43078 0
M  V30 3939 H 359.864 4.12033 4.18931 0
M  V30 3940 H 361.388 3.57803 4.94782 0
M  V30 3941 H 362.802 4.84602 3.06324 0
M  V30 3942 H 361.199 5.43782 2.53813 0
M  V30 3943 H 362.269 4.65381 1.36193 0
M  V30 3944 N 363.613 -0.582584 1.46437 0
M  V30 3945 C 364.859 -1.34278 1.51978 0
M  V30 3946 C 365.192 -1.93446 0.170973 0
M  V30 3947 O 364.467 -1.76481 -0.817608 0
M  V30 3948 C 364.75 -2.47203 2.61845 0
M  V30 3949 C 364.603 -1.93069 4.06257 0
M  V30 3950 C 365.922 -3.49247 2.67795 0
M  V30 3951 H 363.041 -0.486876 0.553282 0
M  V30 3952 H 365.683 -0.654437 1.78374 0
M  V30 3953 H 363.833 -3.0592 2.39469 0
M  V30 3954 H 365.505 -1.38808 4.3992 0
M  V30 3955 H 363.748 -1.23898 4.1573 0
M  V30 3956 H 364.419 -2.74586 4.7886 0
M  V30 3957 H 366.895 -3.00411 2.8791 0
M  V30 3958 H 365.771 -4.25719 3.46489 0
M  V30 3959 H 366.032 -4.06482 1.73852 0
M  V30 3960 N 365.091 -1.34144 -0.827227 0
M  V30 3961 C 366.316 -1.29476 -1.62021 0
M  V30 3962 C 366.741 0.129292 -1.87655 0
M  V30 3963 O 366.099 1.08967 -1.449 0
M  V30 3964 C 366.147 -2.08702 -2.94068 0
M  V30 3965 O 365.251 -1.45359 -3.85933 0
M  V30 3966 H 364.592 -0.444881 -0.492927 0
M  V30 3967 H 367.122 -1.76882 -1.02829 0
M  V30 3968 H 367.132 -2.19898 -3.43669 0
M  V30 3969 H 365.807 -3.12241 -2.74734 0
M  V30 3970 H 364.384 -1.42879 -3.44442 0
M  V30 3971 N 366.569 1.04691 -1.17803 0
M  V30 3972 C 367.817 1.7743 -0.967617 0
M  V30 3973 C 368.138 1.88359 0.504574 0
M  V30 3974 O 367.408 1.40402 1.36617 0
M  V30 3975 H 365.988 0.657242 -0.355024 0
M  V30 3976 H 368.65 1.2638 -1.48371 0
M  V30 3977 H 367.746 2.78924 -1.40027 0
M  V30 3978 N 368.047 0.979072 1.23499 0
M  V30 3979 C 369.272 0.664845 1.96455 0
M  V30 3980 C 369.697 -0.761287 1.72006 0
M  V30 3981 O 369.055 -1.51837 0.990713 0
M  V30 3982 C 369.103 0.959479 3.47601 0
M  V30 3983 O 368.207 0.0508168 4.12369 0
M  V30 3984 H 367.548 0.250185 0.615064 0
M  V30 3985 H 370.078 1.31231 1.5697 0
M  V30 3986 H 370.088 0.895642 3.98048 0
M  V30 3987 H 368.763 1.99876 3.64723 0
M  V30 3988 H 367.34 0.16895 3.72517 0
M  V30 3989 N 369.525 -1.3858 0.750561 0
M  V30 3990 C 370.455 -2.33102 0.136237 0
M  V30 3991 C 371.436 -1.54713 -0.706965 0
M  V30 3992 O 372.621 -1.83043 -0.648769 0
M  V30 3993 C 369.751 -3.38882 -0.760017 0
M  V30 3994 C 368.705 -4.27995 -0.0197785 0
M  V30 3995 C 368.031 -5.24605 -1.03408 0
M  V30 3996 C 369.331 -5.09554 1.14684 0
M  V30 3997 H 371.025 -2.84726 0.925822 0
M  V30 3998 H 368.571 -1.36898 0.446654 0
M  V30 3999 H 370.524 -4.0397 -1.19943 0
M  V30 4000 H 369.248 -2.85734 -1.58189 0
M  V30 4001 H 367.907 -3.64409 0.400184 0
M  V30 4002 H 367.555 -4.67746 -1.84994 0
M  V30 4003 H 367.255 -5.85081 -0.543464 0
M  V30 4004 H 368.779 -5.9257 -1.47288 0
M  V30 4005 H 370.193 -5.67899 0.785118 0
M  V30 4006 H 368.59 -5.7925 1.56812 0
M  V30 4007 H 369.66 -4.4347 1.96118 0
M  V30 4008 N 371.003 -0.499398 -1.49478 0
M  V30 4009 C 372.414 -0.051215 -1.8663 0
M  V30 4010 C 372.765 1.36238 -1.41186 0
M  V30 4011 O 371.89 2.01502 -0.789051 0
M  V30 4012 C 372.485 -0.0861651 -3.3869 0
M  V30 4013 C 371.044 0.30667 -3.75149 0
M  V30 4014 C 370.191 -0.459397 -2.73468 0
M  V30 4015 H 373.142 -0.712264 -1.41818 0
M  V30 4016 H 373.163 0.709507 -3.73826 0
M  V30 4017 H 372.675 -1.11512 -3.71735 0
M  V30 4018 H 370.776 1.33892 -3.47712 0
M  V30 4019 H 370.889 -0.0116669 -4.79099 0
M  V30 4020 H 369.253 0.0905645 -2.54539 0
M  V30 4021 H 370.036 -1.4884 -3.09357 0
M  V30 4022 N 372.481 1.55866 -0.233164 0
M  V30 4023 C 373.728 1.98603 0.395374 0
M  V30 4024 C 374.056 1.12105 1.58942 0
M  V30 4025 O 373.311 0.168656 1.94972 0
M  V30 4026 C 373.61 3.46856 0.861724 0
M  V30 4027 C 373.276 4.50348 -0.223066 0
M  V30 4028 C 371.938 4.78371 -0.521038 0
M  V30 4029 C 374.29 5.12355 -0.956124 0
M  V30 4030 C 371.618 5.6568 -1.55638 0
M  V30 4031 C 373.97 6.00786 -1.98089 0
M  V30 4032 C 372.634 6.27148 -2.28565 0
M  V30 4033 H 371.904 0.726739 0.144677 0
M  V30 4034 H 374.551 1.88491 -0.338114 0
M  V30 4035 H 372.856 3.5423 1.67418 0
M  V30 4036 H 374.553 3.77302 1.35809 0
M  V30 4037 H 371.143 4.28596 0.0193234 0
M  V30 4038 H 375.327 4.90765 -0.739166 0
M  V30 4039 H 370.583 5.84365 -1.798 0
M  V30 4040 H 374.757 6.4788 -2.55391 0
M  V30 4041 H 372.384 6.94597 -3.08932 0
M  V30 4042 N 373.959 -0.0401083 1.57549 0
M  V30 4043 C 375.236 -0.767917 1.79896 0
M  V30 4044 C 375.616 -1.9416 0.82856 0
M  V30 4045 O 374.964 -2.2812 -0.131671 0
M  V30 4046 C 375.174 -1.2113 3.27305 0
M  V30 4047 C 376.522 -1.63175 3.91994 0
M  V30 4048 O 377.546 -1.30616 3.31388 0
M  V30 4049 O 376.405 -2.23565 4.98679 0
M  V30 4050 H 373.499 -0.370441 0.739393 0
M  V30 4051 H 376.045 -0.017737 1.69691 0
M  V30 4052 H 374.817 -0.372937 3.89519 0
M  V30 4053 H 374.44 -2.02183 3.42356 0
M  V30 4054 N 375.437 -1.54477 -0.31217 0
M  V30 4055 C 376.685 -1.72884 -1.04668 0
M  V30 4056 C 377.006 -0.511477 -1.88173 0
M  V30 4057 O 376.276 0.474407 -1.90069 0
M  V30 4058 H 374.856 -0.637461 -0.389425 0
M  V30 4059 H 377.518 -1.91807 -0.345852 0
M  V30 4060 H 376.614 -2.61334 -1.70619 0
M  V30 4061 N 376.915 0.57481 -1.46744 0
M  V30 4062 C 377.847 1.69804 -1.53946 0
M  V30 4063 C 378.86 1.57098 -0.427106 0
M  V30 4064 O 380.049 1.64378 -0.695863 0
M  V30 4065 C 377.149 3.08125 -1.4111 0
M  V30 4066 C 376.322 3.46757 -2.66605 0
M  V30 4067 C 375.381 4.6417 -2.47855 0
M  V30 4068 O 374.407 4.69634 -3.21609 0
M  V30 4069 N 375.609 5.59553 -1.54534 0
M  V30 4070 H 378.374 1.64077 -2.50796 0
M  V30 4071 H 375.935 0.761 -1.429 0
M  V30 4072 H 377.927 3.84478 -1.26328 0
M  V30 4073 H 376.497 3.08175 -0.524109 0
M  V30 4074 H 375.717 2.6003 -2.96274 0
M  V30 4075 H 377.005 3.69337 -3.49954 0
M  V30 4076 H 376.403 5.57881 -0.937304 0
M  V30 4077 H 374.96 6.35304 -1.45711 0
M  V30 4078 N 378.394 1.34581 0.820102 0
M  V30 4079 C 379.342 1.26401 1.95258 0
M  V30 4080 C 380.336 0.161553 1.68628 0
M  V30 4081 O 381.542 0.326703 1.7701 0
M  V30 4082 H 377.917 0.392749 0.64129 0
M  V30 4083 H 379.888 2.22105 1.99279 0
M  V30 4084 C 378.637 1.03919 3.31807 0
M  V30 4085 H 377.96 1.87984 3.52848 0
M  V30 4086 H 379.4 1.02232 4.11491 0
M  V30 4087 C 377.859 -0.257433 3.35915 0
M  V30 4088 O 378.389 -1.25784 3.81499 0
M  V30 4089 N 376.595 -0.291524 2.89134 0
M  V30 4090 H 376.142 0.523161 2.52232 0
M  V30 4091 H 376.1 -1.15883 2.92264 0
M  V30 4092 N 379.872 -1.04064 1.18357 0
M  V30 4093 C 380.802 -2.14001 0.934113 0
M  V30 4094 C 381.783 -1.69616 -0.128186 0
M  V30 4095 O 382.968 -1.94185 0.0244093 0
M  V30 4096 C 380.098 -3.44253 0.459066 0
M  V30 4097 C 379.052 -4.02261 1.46185 0
M  V30 4098 C 378.378 -5.27992 0.844322 0
M  V30 4099 C 379.678 -4.38432 2.83856 0
M  V30 4100 H 381.372 -2.35127 1.85352 0
M  V30 4101 H 378.918 -1.12998 0.892604 0
M  V30 4102 H 380.871 -4.20522 0.271907 0
M  V30 4103 H 379.595 -3.22813 -0.495912 0
M  V30 4104 H 378.254 -3.28074 1.63595 0
M  V30 4105 H 377.902 -5.02862 -0.117845 0
M  V30 4106 H 377.602 -5.67765 1.51384 0
M  V30 4107 H 379.126 -6.06938 0.667693 0
M  V30 4108 H 380.54 -5.05688 2.70098 0
M  V30 4109 H 378.937 -4.89254 3.47491 0
M  V30 4110 H 380.007 -3.4826 3.37406 0
M  V30 4111 N 381.35 -0.985608 -1.22978 0
M  V30 4112 C 382.297 -0.529825 -2.24636 0
M  V30 4113 C 383.267 0.434028 -1.60329 0
M  V30 4114 O 384.452 0.340414 -1.87739 0
M  V30 4115 C 381.592 0.156533 -3.44745 0
M  V30 4116 C 380.705 -0.848197 -4.23591 0
M  V30 4117 C 379.84 -0.136109 -5.31026 0
M  V30 4118 C 378.879 -1.1297 -6.01585 0
M  V30 4119 N 378.016 -0.446415 -7.00679 0
M  V30 4120 H 382.856 -1.40148 -2.62988 0
M  V30 4121 H 380.393 -0.702168 -1.29259 0
M  V30 4122 H 382.351 0.571324 -4.1327 0
M  V30 4123 H 380.981 0.992025 -3.07179 0
M  V30 4124 H 380.033 -1.38135 -3.54433 0
M  V30 4125 H 381.345 -1.60512 -4.72268 0
M  V30 4126 H 380.499 0.335784 -6.0577 0
M  V30 4127 H 379.238 0.653373 -4.83304 0
M  V30 4128 H 378.243 -1.6123 -5.25628 0
M  V30 4129 H 379.468 -1.91993 -6.51395 0
M  V30 4130 H 377.414 0.323763 -6.55201 0
M  V30 4131 H 377.331 -1.1419 -7.47326 0
M  V30 4132 H 378.599 0.00291697 -7.795 0
M  V30 4133 N 382.828 1.3818 -0.7579 0
M  V30 4134 C 383.738 2.3421 -0.135247 0
M  V30 4135 C 384.754 1.59487 0.695683 0
M  V30 4136 O 385.93 1.91657 0.618832 0
M  V30 4137 C 382.995 3.3862 0.744139 0
M  V30 4138 C 382.056 4.2918 -0.101658 0
M  V30 4139 C 381.289 5.28603 0.735851 0
M  V30 4140 O 381.512 5.35166 1.97366 0
M  V30 4141 O 380.446 6.01707 0.152372 0
M  V30 4142 H 384.272 2.8916 -0.928436 0
M  V30 4143 H 381.857 1.40101 -0.518855 0
M  V30 4144 H 383.739 4.02539 1.2466 0
M  V30 4145 H 382.414 2.86019 1.51575 0
M  V30 4146 H 381.321 3.68407 -0.650167 0
M  V30 4147 H 382.654 4.85048 -0.836024 0
M  V30 4148 N 384.306 0.507319 1.49211 0
M  V30 4149 C 385.236 -0.256939 2.32082 0
M  V30 4150 C 386.217 -0.956609 1.40652 0
M  V30 4151 O 387.402 -0.946788 1.69557 0
M  V30 4152 C 384.532 -1.31802 3.21318 0
M  V30 4153 C 383.486 -0.737855 4.21592 0
M  V30 4154 C 382.812 -1.89992 4.99807 0
M  V30 4155 C 384.112 0.275325 5.21574 0
M  V30 4156 H 385.806 0.434798 2.96226 0
M  V30 4157 H 383.352 0.210546 1.42452 0
M  V30 4158 H 385.305 -1.86045 3.78107 0
M  V30 4159 H 384.029 -2.03903 2.5513 0
M  V30 4160 H 382.688 -0.217126 3.65956 0
M  V30 4161 H 382.336 -2.60877 4.30061 0
M  V30 4162 H 382.036 -1.51777 5.6766 0
M  V30 4163 H 383.56 -2.44657 5.59442 0
M  V30 4164 H 384.974 -0.179193 5.7302 0
M  V30 4165 H 383.371 0.573649 5.97352 0
M  V30 4166 H 384.441 1.18903 4.70096 0
M  V30 4167 N 385.784 -1.5574 0.241426 0
M  V30 4168 C 387.2 -1.59196 -0.113548 0
M  V30 4169 C 387.4 -1.25852 -1.57364 0
M  V30 4170 O 386.456 -1.00322 -2.31715 0
M  V30 4171 C 387.769 -2.99814 0.230695 0
M  V30 4172 C 389.317 -3.12513 0.174547 0
M  V30 4173 C 389.792 -4.55342 0.492744 0
M  V30 4174 N 391.283 -4.61076 0.443043 0
M  V30 4175 C 392.018 -5.6956 0.662484 0
M  V30 4176 N 391.514 -6.86328 0.944761 0
M  V30 4177 N 393.307 -5.58957 0.593564 0
M  V30 4178 H 385.458 -1.75685 1.19368 0
M  V30 4179 H 387.721 -0.81756 0.479896 0
M  V30 4180 H 387.427 -3.28932 1.24485 0
M  V30 4181 H 387.301 -3.74568 -0.444833 0
M  V30 4182 H 389.688 -2.83179 -0.830277 0
M  V30 4183 H 389.769 -2.40045 0.883845 0
M  V30 4184 H 389.413 -4.85396 1.4951 0
M  V30 4185 H 389.343 -5.26062 -0.23797 0
M  V30 4186 H 391.834 -3.77179 0.233374 0
M  V30 4187 H 392.147 -7.64935 1.09977 0
M  V30 4188 H 390.492 -6.88025 0.982175 0
M  V30 4189 H 393.683 -4.66611 0.373123 0
M  V30 4190 H 393.856 -6.43433 0.767981 0
M  V30 4191 N 387.262 0.0317525 -1.57568 0
M  V30 4192 C 388.172 1.05021 -2.0978 0
M  V30 4193 C 389.188 1.39809 -1.03583 0
M  V30 4194 O 390.364 1.49182 -1.35302 0
M  V30 4195 C 387.429 2.33301 -2.56459 0
M  V30 4196 C 386.49 2.0512 -3.77127 0
M  V30 4197 C 385.723 3.27283 -4.2157 0
M  V30 4198 O 385.946 4.37861 -3.65559 0
M  V30 4199 O 384.88 3.13141 -5.14029 0
M  V30 4200 H 388.706 0.636505 -2.96955 0
M  V30 4201 H 386.291 0.248559 -1.47318 0
M  V30 4202 H 388.173 3.08722 -2.86825 0
M  V30 4203 H 386.848 2.73973 -1.72397 0
M  V30 4204 H 385.755 1.27276 -3.51784 0
M  V30 4205 H 387.088 1.69305 -4.62165 0
M  V30 4206 N 388.74 1.54641 0.303973 0
M  V30 4207 C 390.156 1.45788 0.649463 0
M  V30 4208 C 390.356 0.64666 1.90842 0
M  V30 4209 O 389.412 0.153183 2.52035 0
M  V30 4210 C 390.725 2.89718 0.805227 0
M  V30 4211 C 392.273 2.99742 0.901305 0
M  V30 4212 C 392.748 4.44863 1.08909 0
M  V30 4213 N 394.239 4.48559 1.15536 0
M  V30 4214 C 394.974 5.58026 1.3189 0
M  V30 4215 N 394.47 6.77422 1.45161 0
M  V30 4216 N 396.263 5.45708 1.34755 0
M  V30 4217 H 388.414 2.05854 -0.523237 0
M  V30 4218 H 390.677 0.932186 -0.172431 0
M  V30 4219 H 390.383 3.51666 -0.0489108 0
M  V30 4220 H 390.257 3.36964 1.69513 0
M  V30 4221 H 392.644 2.3791 1.74593 0
M  V30 4222 H 392.725 2.55797 -0.0125531 0
M  V30 4223 H 392.369 5.07288 0.249241 0
M  V30 4224 H 392.299 4.86436 2.01713 0
M  V30 4225 H 394.79 3.6254 1.06646 0
M  V30 4226 H 395.103 7.56604 1.57387 0
M  V30 4227 H 393.448 6.80292 1.42223 0
M  V30 4228 H 396.639 4.51378 1.23996 0
M  V30 4229 H 396.812 6.3107 1.47157 0
M  V30 4230 N 390.218 -0.567019 1.47046 0
M  V30 4231 C 391.464 -1.32658 1.53394 0
M  V30 4232 C 391.797 -1.93254 0.19148 0
M  V30 4233 O 391.072 -1.77338 -0.798844 0
M  V30 4234 C 391.355 -2.44412 2.64452 0
M  V30 4235 C 391.208 -1.88749 4.08282 0
M  V30 4236 C 392.527 -3.46387 2.71485 0
M  V30 4237 H 389.646 -0.48098 0.558415 0
M  V30 4238 H 392.288 -0.635481 1.79058 0
M  V30 4239 H 390.438 -3.03363 2.427 0
M  V30 4240 H 392.11 -1.34134 4.41368 0
M  V30 4241 H 390.353 -1.19481 4.17021 0
M  V30 4242 H 391.024 -2.69491 4.81745 0
M  V30 4243 H 393.5 -2.9734 2.91081 0
M  V30 4244 H 392.376 -4.2202 3.50985 0
M  V30 4245 H 392.637 -4.04616 1.78153 0
M  V30 4246 N 391.696 -1.35014 -0.812953 0
M  V30 4247 C 392.626 -1.30069 -1.93919 0
M  V30 4248 C 393.607 -0.176275 -1.69184 0
M  V30 4249 O 394.792 -0.370227 -1.90638 0
M  V30 4250 C 391.922 -1.06547 -3.30552 0
M  V30 4251 C 390.876 -2.15561 -3.69753 0
M  V30 4252 C 390.202 -1.77214 -5.04479 0
M  V30 4253 C 391.502 -3.57476 -3.808 0
M  V30 4254 H 393.196 -2.24303 -1.98314 0
M  V30 4255 H 390.742 -1.07977 -0.952736 0
M  V30 4256 H 392.695 -1.01729 -4.08937 0
M  V30 4257 H 391.419 -0.0875719 -3.26483 0
M  V30 4258 H 390.078 -2.19466 -2.9365 0
M  V30 4259 H 389.726 -0.780589 -4.96906 0
M  V30 4260 H 389.426 -2.50184 -5.31678 0
M  V30 4261 H 390.95 -1.7391 -5.8531 0
M  V30 4262 H 392.364 -3.55929 -4.4943 0
M  V30 4263 H 390.761 -4.29152 -4.19462 0
M  V30 4264 H 391.831 -3.94091 -2.82525 0
M  V30 4265 N 393.175 1.03435 -1.18907 0
M  V30 4266 C 394.591 1.28973 -0.940111 0
M  V30 4267 C 394.791 1.97676 0.390691 0
M  V30 4268 O 393.847 2.26127 1.12352 0
M  V30 4269 C 395.16 2.14221 -2.11021 0
M  V30 4270 C 396.708 2.27547 -2.14922 0
M  V30 4271 C 397.183 3.16164 -3.31367 0
M  V30 4272 N 398.674 3.23752 -3.31269 0
M  V30 4273 C 399.409 3.92495 -4.18014 0
M  V30 4274 N 398.905 4.63515 -5.14904 0
M  V30 4275 N 400.698 3.88838 -4.05908 0
M  V30 4276 H 392.849 0.57252 -2.04538 0
M  V30 4277 H 395.112 0.315184 -0.894071 0
M  V30 4278 H 394.818 1.71054 -3.073 0
M  V30 4279 H 394.692 3.14919 -2.0762 0
M  V30 4280 H 397.079 2.69947 -1.19217 0
M  V30 4281 H 397.16 1.26418 -2.22378 0
M  V30 4282 H 396.804 2.74474 -4.27348 0
M  V30 4283 H 396.734 4.17339 -3.21148 0
M  V30 4284 H 399.225 2.73167 -2.61129 0
M  V30 4285 H 399.538 5.13583 -5.77453 0
M  V30 4286 H 397.883 4.62398 -5.18857 0
M  V30 4287 H 401.074 3.32491 -3.29495 0
M  V30 4288 H 401.247 4.4214 -4.73726 0
M  V30 4289 N 394.653 0.992116 1.22453 0
M  V30 4290 C 395.901 0.666215 1.90804 0
M  V30 4291 C 396.222 -0.804152 1.77647 0
M  V30 4292 O 395.492 -1.57629 1.16318 0
M  V30 4293 H 394.072 0.243423 0.706225 0
M  V30 4294 H 396.734 1.25845 1.48825 0
M  V30 4295 H 395.83 0.928069 2.97982 0
M  V30 4296 N 396.131 -1.37776 0.765217 0
M  V30 4297 C 397.078 -2.30342 0.145274 0
M  V30 4298 C 398.048 -1.5077 -0.696971 0
M  V30 4299 O 399.233 -1.79362 -0.650689 0
M  V30 4300 C 396.373 -3.37227 -0.732939 0
M  V30 4301 C 395.486 -4.31819 0.125199 0
M  V30 4302 C 394.621 -5.25777 -0.757107 0
M  V30 4303 C 393.66 -6.12012 0.103963 0
M  V30 4304 N 392.797 -6.98232 -0.735953 0
M  V30 4305 H 397.637 -2.8278 0.940195 0
M  V30 4306 H 395.174 -1.39211 0.475255 0
M  V30 4307 H 397.132 -3.97818 -1.25686 0
M  V30 4308 H 395.762 -2.86171 -1.49353 0
M  V30 4309 H 394.814 -3.7259 0.766865 0
M  V30 4310 H 396.126 -4.92509 0.789683 0
M  V30 4311 H 395.28 -5.91541 -1.34776 0
M  V30 4312 H 394.019 -4.65481 -1.45529 0
M  V30 4313 H 393.024 -5.45233 0.707197 0
M  V30 4314 H 394.249 -6.74379 0.799381 0
M  V30 4315 H 392.195 -6.40472 -1.41887 0
M  V30 4316 H 392.112 -7.55891 -0.128624 0
M  V30 4317 H 393.38 -7.68393 -1.31121 0
M  V30 4318 N 397.609 -0.515225 -1.4894 0
M  V30 4319 C 398.839 0.0205735 -2.0659 0
M  V30 4320 C 399.247 1.30064 -1.37405 0
M  V30 4321 O 398.59 1.78087 -0.450632 0
M  V30 4322 C 398.652 0.330124 -3.57981 0
M  V30 4323 C 398.316 -0.854295 -4.48944 0
M  V30 4324 C 399.313 -1.7487 -4.89609 0
M  V30 4325 C 396.998 -1.05712 -4.9105 0
M  V30 4326 C 398.992 -2.82996 -5.71132 0
M  V30 4327 C 396.679 -2.14154 -5.72347 0
M  V30 4328 C 397.677 -3.0263 -6.12294 0
M  V30 4329 O 397.365 -4.09198 -6.91962 0
M  V30 4330 H 397.097 -0.0236833 -0.675585 0
M  V30 4331 H 399.651 -0.715956 -1.92518 0
M  V30 4332 H 397.881 1.12044 -3.70112 0
M  V30 4333 H 399.57 0.806233 -3.97812 0
M  V30 4334 H 400.336 -1.60388 -4.57712 0
M  V30 4335 H 396.215 -0.377788 -4.59449 0
M  V30 4336 H 399.759 -3.52083 -6.02232 0
M  V30 4337 H 395.656 -2.28626 -6.03656 0
M  V30 4338 H 396.424 -4.06726 -7.10293 0
M  V30 4339 N 399.087 1.5561 -0.249682 0
M  V30 4340 C 400.503 1.59254 0.105103 0
M  V30 4341 C 400.703 1.26685 1.56694 0
M  V30 4342 O 399.759 1.0155 2.31179 0
M  V30 4343 C 401.072 2.99687 -0.246592 0
M  V30 4344 C 402.62 3.12416 -0.191118 0
M  V30 4345 C 403.095 4.55074 -0.516885 0
M  V30 4346 N 404.586 4.60835 -0.467489 0
M  V30 4347 C 405.321 5.69201 -0.69268 0
M  V30 4348 N 404.817 6.85817 -0.981146 0
M  V30 4349 N 406.61 5.58635 -0.623198 0
M  V30 4350 H 398.761 1.75049 -1.20298 0
M  V30 4351 H 401.024 0.815003 -0.484225 0
M  V30 4352 H 400.73 3.28267 -1.26228 0
M  V30 4353 H 400.604 3.74798 0.424962 0
M  V30 4354 H 402.991 2.83615 0.815247 0
M  V30 4355 H 403.072 2.39573 -0.896563 0
M  V30 4356 H 402.716 4.84596 -1.52082 0
M  V30 4357 H 402.646 5.26181 0.210068 0
M  V30 4358 H 405.137 3.7705 -0.253373 0
M  V30 4359 H 405.45 7.64341 -1.14032 0
M  V30 4360 H 403.795 6.87494 -1.01865 0
M  V30 4361 H 406.986 4.66406 -0.397863 0
M  V30 4362 H 407.159 6.43017 -0.802093 0
M  V30 4363 N 400.565 -0.0233959 1.57583 0
M  V30 4364 C 401.814 -0.712133 1.8871 0
M  V30 4365 C 402.127 -1.76217 0.848944 0
M  V30 4366 O 403.333 -2.50389 1.04964 0
M  V30 4367 C 401.789 -1.3177 3.3491 0
M  V30 4368 C 401.397 -0.303715 4.46969 0
M  V30 4369 C 403.141 -1.98598 3.75179 0
M  V30 4370 C 401.048 -0.917945 5.84233 0
M  V30 4371 H 399.978 -0.269735 0.704101 0
M  V30 4372 H 402.629 0.0333114 1.8347 0
M  V30 4373 H 401.011 -2.11304 3.34913 0
M  V30 4374 H 402.185 0.465325 4.58445 0
M  V30 4375 H 400.5 0.2628 4.1557 0
M  V30 4376 H 403.097 -2.45416 4.75053 0
M  V30 4377 H 403.44 -2.80659 3.07468 0
M  V30 4378 H 403.973 -1.25831 3.77374 0
M  V30 4379 H 400.712 -0.136633 6.55358 0
M  V30 4380 H 400.232 -1.65669 5.76467 0
M  V30 4381 H 401.911 -1.4236 6.31144 0
M  V30 4382 N 402.043 -1.548 -0.295768 0
M  V30 4383 C 403.454 -1.65274 -0.868411 0
M  V30 4384 C 403.805 -0.56481 -1.87894 0
M  V30 4385 O 402.93 0.29767 -2.14343 0
M  V30 4386 C 403.525 -2.99603 -1.58188 0
M  V30 4387 C 402.084 -3.12181 -2.10286 0
M  V30 4388 C 401.231 -2.6098 -0.93727 0
M  V30 4389 H 404.182 -1.58534 -0.0726422 0
M  V30 4390 H 404.203 -2.91319 -2.44772 0
M  V30 4391 H 403.715 -3.78764 -0.846151 0
M  V30 4392 H 401.816 -2.3775 -2.8689 0
M  V30 4393 H 401.929 -4.18415 -2.33379 0
M  V30 4394 H 400.293 -2.17564 -1.32431 0
M  V30 4395 H 401.076 -3.42623 -0.215414 0
M  V30 4396 N 403.521 0.559213 -1.47345 0
M  V30 4397 C 404.768 1.31648 -1.53867 0
M  V30 4398 C 405.096 1.93468 -0.200104 0
M  V30 4399 O 404.351 1.78295 0.806799 0
M  V30 4400 C 404.65 2.44853 -2.6035 0
M  V30 4401 C 404.316 2.00876 -4.03683 0
M  V30 4402 C 402.978 1.88599 -4.42701 0
M  V30 4403 C 405.33 1.67279 -4.93626 0
M  V30 4404 C 402.658 1.41017 -5.69501 0
M  V30 4405 C 405.01 1.21169 -6.20887 0
M  V30 4406 C 403.674 1.07487 -6.58789 0
M  V30 4407 H 402.944 0.481734 -0.56304 0
M  V30 4408 H 405.591 0.627301 -1.80934 0
M  V30 4409 H 403.896 3.19318 -2.27032 0
M  V30 4410 H 405.593 3.03039 -2.62619 0
M  V30 4411 H 402.183 2.11374 -3.72853 0
M  V30 4412 H 406.367 1.75638 -4.64182 0
M  V30 4413 H 401.623 1.29086 -5.97618 0
M  V30 4414 H 405.797 0.942345 -6.89995 0
M  V30 4415 H 403.424 0.703946 -7.56934 0
M  V30 4416 N 404.999 1.35443 0.805782 0
M  V30 4417 C 406.229 1.31687 1.59192 0
M  V30 4418 C 406.637 -0.10756 1.88894 0
M  V30 4419 O 405.98 -1.07017 1.49309 0
M  V30 4420 C 406.042 2.05686 2.94845 0
M  V30 4421 C 405.706 3.54868 2.87954 0
M  V30 4422 C 406.703 4.49444 2.61335 0
M  V30 4423 C 404.388 3.97528 3.07046 0
M  V30 4424 C 406.382 5.84655 2.53885 0
M  V30 4425 C 404.069 5.32833 2.99219 0
M  V30 4426 C 405.067 6.26209 2.72674 0
M  V30 4427 O 404.755 7.59032 2.64811 0
M  V30 4428 H 404.487 0.453878 0.50097 0
M  V30 4429 H 407.041 1.78892 1.0093 0
M  V30 4430 H 405.271 1.5312 3.55093 0
M  V30 4431 H 406.96 1.94998 3.55993 0
M  V30 4432 H 407.726 4.17804 2.46303 0
M  V30 4433 H 403.605 3.25233 3.26718 0
M  V30 4434 H 407.149 6.57508 2.33086 0
M  V30 4435 H 403.046 5.64087 3.13809 0
M  V30 4436 H 403.814 7.68967 2.80413 0
M  V30 4437 N 406.477 -1.02803 1.19454 0
M  V30 4438 C 407.41 -2.107 0.876396 0
M  V30 4439 C 408.388 -1.61741 -0.166897 0
M  V30 4440 O 409.572 -1.88451 -0.0430195 0
M  V30 4441 C 406.699 -3.37262 0.311758 0
M  V30 4442 C 405.745 -4.05093 1.33424 0
M  V30 4443 S 406.578 -4.50498 2.89503 0
M  V30 4444 C 407.734 -5.80277 2.34584 0
M  V30 4445 H 407.967 -2.37362 1.79016 0
M  V30 4446 H 405.5 -1.15755 1.02177 0
M  V30 4447 H 407.458 -4.10499 -0.00748752 0
M  V30 4448 H 406.119 -3.08693 -0.58032 0
M  V30 4449 H 405.312 -4.9611 0.888302 0
M  V30 4450 H 404.914 -3.3803 1.60037 0
M  V30 4451 H 407.206 -6.54873 1.73633 0
M  V30 4452 H 408.149 -6.29651 3.23952 0
M  V30 4453 H 408.557 -5.3599 1.77131 0
M  V30 4454 N 407.956 -0.998596 -1.21925 0
M  V30 4455 C 409.181 -0.696015 -1.95372 0
M  V30 4456 C 409.606 0.733826 -1.73195 0
M  V30 4457 O 408.964 1.50242 -1.01474 0
M  V30 4458 C 409.012 -1.01466 -3.4603 0
M  V30 4459 O 408.116 -0.116415 -4.12236 0
M  V30 4460 H 407.457 -0.259938 -0.611006 0
M  V30 4461 H 409.987 -1.33711 -1.54863 0
M  V30 4462 H 409.997 -0.958855 -3.96573 0
M  V30 4463 H 408.672 -2.05653 -3.61497 0
M  V30 4464 H 407.249 -0.228193 -3.72201 0
M  V30 4465 N 409.434 1.37368 -0.772513 0
M  V30 4466 C 410.662 2.03942 -0.348588 0
M  V30 4467 C 411.077 1.58264 1.02947 0
M  V30 4468 O 410.434 0.764246 1.65727 0
M  V30 4469 C 410.485 3.5946 -0.38351 0
M  V30 4470 O 410.206 4.03468 -1.70721 0
M  V30 4471 C 411.707 4.4327 0.0519152 0
M  V30 4472 H 408.927 0.654931 -0.145966 0
M  V30 4473 H 411.471 1.75686 -1.04665 0
M  V30 4474 H 409.626 3.86486 0.265978 0
M  V30 4475 H 410.04 4.97991 -1.64636 0
M  V30 4476 H 411.514 5.51995 -0.0236733 0
M  V30 4477 H 411.991 4.2514 1.10238 0
M  V30 4478 H 412.597 4.21471 -0.569415 0
M  V30 4479 N 410.912 0.523116 1.48665 0
M  V30 4480 C 412.189 -0.0775449 1.95446 0
M  V30 4481 C 412.569 -1.5197 1.4652 0
M  V30 4482 O 411.917 -2.17876 0.688657 0
M  V30 4483 C 412.127 0.0326135 3.48985 0
M  V30 4484 C 413.475 -0.130141 4.24401 0
M  V30 4485 O 414.499 -0.0415142 3.56176 0
M  V30 4486 O 413.358 -0.31491 5.45592 0
M  V30 4487 H 410.452 -0.0831012 0.822814 0
M  V30 4488 H 412.998 0.587227 1.59216 0
M  V30 4489 H 411.77 1.03748 3.77296 0
M  V30 4490 H 411.393 -0.671317 3.91892 0
M  V30 4491 N 412.39 -1.55475 0.257931 0
M  V30 4492 C 413.63 -2.01112 -0.365129 0
M  V30 4493 C 413.994 -1.1423 -1.54323 0
M  V30 4494 O 415.195 -1.49371 -2.23477 0
M  V30 4495 C 413.466 -3.49353 -0.754117 0
M  V30 4496 S 415.025 -4.16992 -1.36614 0
M  V30 4497 H 411.843 -0.701737 -0.114397 0
M  V30 4498 H 414.445 -1.91855 0.375747 0
M  V30 4499 H 413.149 -4.10246 0.112441 0
M  V30 4500 H 412.68 -3.6256 -1.52689 0
M  V30 4501 H 414.695 -4.19191 -2.65505 0
M  V30 4502 N 413.868 0.0150385 -1.57593 0
M  V30 4503 C 414.778 1.02791 -2.10882 0
M  V30 4504 C 415.794 1.38702 -1.0506 0
M  V30 4505 O 416.97 1.47739 -1.36877 0
M  V30 4506 C 414.035 2.30568 -2.58919 0
M  V30 4507 C 413.096 2.01108 -3.79281 0
M  V30 4508 C 412.329 3.22794 -4.25018 0
M  V30 4509 O 412.552 4.33959 -3.70183 0
M  V30 4510 O 411.486 3.07672 -5.17322 0
M  V30 4511 H 415.312 0.604973 -2.97613 0
M  V30 4512 H 412.897 0.23292 -1.47573 0
M  V30 4513 H 414.779 3.05662 -2.90084 0
M  V30 4514 H 413.454 2.72129 -1.75293 0
M  V30 4515 H 412.361 1.23537 -3.53114 0
M  V30 4516 H 413.694 1.64394 -4.63935 0
M  V30 4517 N 415.346 1.54954 0.287554 0
M  V30 4518 C 416.294 1.87606 1.37502 0
M  V30 4519 C 417.288 0.751001 1.51843 0
M  V30 4520 O 418.494 0.935169 1.53801 0
M  V30 4521 H 414.869 0.595231 0.459569 0
M  V30 4522 H 416.84 2.78477 1.07206 0
M  V30 4523 C 415.589 2.15183 2.73115 0
M  V30 4524 H 414.912 3.01234 2.62866 0
M  V30 4525 H 416.352 2.4196 3.48183 0
M  V30 4526 C 414.811 0.954686 3.2309 0
M  V30 4527 O 415.341 0.181949 4.01288 0
M  V30 4528 N 413.547 0.756368 2.80584 0
M  V30 4529 H 413.094 1.38643 2.17108 0
M  V30 4530 H 413.052 -0.0430391 3.14371 0
M  V30 4531 N 416.824 -0.551391 1.4764 0
M  V30 4532 C 417.754 -1.66757 1.63445 0
M  V30 4533 C 418.735 -1.63077 0.483742 0
M  V30 4534 O 419.92 -1.80607 0.71377 0
M  V30 4535 C 417.05 -3.05387 1.65396 0
M  V30 4536 C 416.004 -3.23918 2.79752 0
M  V30 4537 C 415.33 -4.63393 2.66779 0
M  V30 4538 C 416.63 -3.08735 4.21284 0
M  V30 4539 H 418.324 -1.53786 2.56886 0
M  V30 4540 H 415.87 -0.738415 1.23626 0
M  V30 4541 H 417.823 -3.83325 1.75043 0
M  V30 4542 H 416.547 -3.19332 0.685195 0
M  V30 4543 H 415.206 -2.48391 2.69625 0
M  V30 4544 H 414.854 -4.74144 1.67918 0
M  V30 4545 H 414.554 -4.7674 3.43501 0
M  V30 4546 H 416.078 -5.43458 2.78364 0
M  V30 4547 H 417.492 -3.76484 4.32357 0
M  V30 4548 H 415.889 -3.33588 4.98838 0
M  V30 4549 H 416.959 -2.0541 4.39243 0
M  V30 4550 N 418.302 -1.35869 -0.798587 0
M  V30 4551 C 419.232 -1.32118 -1.92528 0
M  V30 4552 C 420.213 -0.194209 -1.68988 0
M  V30 4553 O 421.398 -0.390426 -1.90235 0
M  V30 4554 C 418.528 -1.10047 -3.29404 0
M  V30 4555 C 417.482 -2.19471 -3.67446 0
M  V30 4556 C 416.808 -1.82555 -5.02571 0
M  V30 4557 C 418.108 -3.61495 -3.76987 0
M  V30 4558 H 419.802 -2.26394 -1.95924 0
M  V30 4559 H 417.348 -1.08981 -0.94123 0
M  V30 4560 H 419.301 -1.06061 -4.07835 0
M  V30 4561 H 418.025 -0.122195 -3.26371 0
M  V30 4562 H 416.684 -2.22568 -2.91306 0
M  V30 4563 H 416.332 -0.833249 -4.9605 0
M  V30 4564 H 416.032 -2.5581 -5.28995 0
M  V30 4565 H 417.556 -1.80108 -5.83432 0
M  V30 4566 H 418.97 -3.60676 -4.4563 0
M  V30 4567 H 417.367 -4.33577 -4.14887 0
M  V30 4568 H 418.437 -3.97065 -2.78329 0
M  V30 4569 N 419.78 1.02168 -1.19998 0
M  V30 4570 C 420.727 2.10601 -0.944228 0
M  V30 4571 C 421.697 1.65639 0.123664 0
M  V30 4572 O 422.882 1.9079 -0.0199941 0
M  V30 4573 C 420.022 3.41504 -0.496865 0
M  V30 4574 C 419.135 3.99973 -1.63234 0
M  V30 4575 C 418.27 5.18915 -1.13579 0
M  V30 4576 C 417.309 5.69456 -2.24468 0
M  V30 4577 N 416.446 6.79665 -1.76068 0
M  V30 4578 H 421.286 2.31814 -1.8726 0
M  V30 4579 H 418.823 1.13686 -0.933483 0
M  V30 4580 H 420.781 4.16626 -0.218843 0
M  V30 4581 H 419.411 3.2038 0.394508 0
M  V30 4582 H 418.463 3.21997 -2.0254 0
M  V30 4583 H 419.775 4.33492 -2.46752 0
M  V30 4584 H 418.929 6.01222 -0.813429 0
M  V30 4585 H 417.668 4.8695 -0.270434 0
M  V30 4586 H 416.673 4.85757 -2.57526 0
M  V30 4587 H 417.898 6.03459 -3.11472 0
M  V30 4588 H 415.844 6.49538 -0.918516 0
M  V30 4589 H 415.761 7.12349 -2.5317 0
M  V30 4590 H 417.029 7.65549 -1.46817 0
M  V30 4591 N 421.258 1.00505 1.21394 0
M  V30 4592 C 422.674 0.717873 1.42544 0
M  V30 4593 C 422.874 -0.706936 1.88692 0
M  V30 4594 O 421.93 -1.47627 2.04847 0
M  V30 4595 C 423.243 1.73377 2.45684 0
M  V30 4596 C 424.791 1.75059 2.59467 0
M  V30 4597 C 425.266 2.75545 3.6584 0
M  V30 4598 N 426.757 2.74213 3.73311 0
M  V30 4599 C 427.492 3.48626 4.55245 0
M  V30 4600 N 426.988 4.32678 5.41075 0
M  V30 4601 N 428.781 3.37276 4.49668 0
M  V30 4602 H 420.932 1.92506 0.897503 0
M  V30 4603 H 423.195 0.830919 0.456375 0
M  V30 4604 H 422.901 2.75395 2.18748 0
M  V30 4605 H 422.775 1.53647 3.44489 0
M  V30 4606 H 425.162 0.737337 2.8574 0
M  V30 4607 H 425.243 1.98861 1.60897 0
M  V30 4608 H 424.887 3.77028 3.40313 0
M  V30 4609 H 424.817 2.49009 4.64007 0
M  V30 4610 H 427.308 2.13234 3.11993 0
M  V30 4611 H 427.621 4.86253 6.00648 0
M  V30 4612 H 425.966 4.3676 5.40616 0
M  V30 4613 H 429.157 2.71043 3.81646 0
M  V30 4614 H 429.33 3.95524 5.13288 0
M  V30 4615 N 422.737 -1.36956 0.779787 0
M  V30 4616 C 423.984 -1.99491 0.347766 0
M  V30 4617 C 424.312 -1.61898 -1.07793 0
M  V30 4618 O 423.567 -0.86071 -1.75756 0
M  V30 4619 C 423.866 -3.54585 0.447686 0
M  V30 4620 C 423.532 -4.1197 1.83279 0
M  V30 4621 C 422.194 -4.27356 2.2118 0
M  V30 4622 C 424.546 -4.43354 2.74019 0
M  V30 4623 C 421.874 -4.71432 3.4924 0
M  V30 4624 C 424.226 -4.88858 4.01497 0
M  V30 4625 C 422.89 -5.0245 4.39432 0
M  V30 4626 H 422.16 -0.729991 0.127257 0
M  V30 4627 H 424.807 -1.63599 0.995376 0
M  V30 4628 H 423.112 -3.90773 -0.283447 0
M  V30 4629 H 424.809 -4.00888 0.0945948 0
M  V30 4630 H 421.399 -4.00428 1.52825 0
M  V30 4631 H 425.583 -4.31045 2.45995 0
M  V30 4632 H 420.839 -4.80141 3.78516 0
M  V30 4633 H 425.013 -5.12108 4.71931 0
M  V30 4634 H 422.64 -5.36362 5.38721 0
M  V30 4635 N 424.215 -0.530993 -1.48385 0
M  V30 4636 C 425.145 0.219985 -2.32461 0
M  V30 4637 C 426.126 0.934111 -1.42156 0
M  V30 4638 O 427.311 0.919694 -1.71042 0
M  V30 4639 C 424.441 1.26674 -3.23375 0
M  V30 4640 C 423.395 0.67069 -4.22712 0
M  V30 4641 C 422.721 1.82017 -5.02766 0
M  V30 4642 C 424.021 -0.358268 -5.2107 0
M  V30 4643 H 425.715 -0.48187 -2.95497 0
M  V30 4644 H 423.261 -0.233182 -1.42099 0
M  V30 4645 H 425.214 1.80006 -3.81019 0
M  V30 4646 H 423.938 1.99818 -2.58341 0
M  V30 4647 H 422.597 0.158878 -3.66256 0
M  V30 4648 H 422.245 2.54002 -4.34157 0
M  V30 4649 H 421.945 1.42727 -5.70003 0
M  V30 4650 H 423.469 2.35725 -5.63264 0
M  V30 4651 H 424.883 0.0880081 -5.73232 0
M  V30 4652 H 423.28 -0.66861 -5.96364 0
M  V30 4653 H 424.35 -1.26367 -4.68145 0
M  V30 4654 N 425.693 1.55336 -0.266172 0
M  V30 4655 C 426.939 1.99692 0.353681 0
M  V30 4656 C 427.272 1.1543 1.56172 0
M  V30 4657 O 426.547 0.222218 1.93226 0
M  V30 4658 C 426.83 3.52316 0.74466 0
M  V30 4659 C 426.683 4.47337 -0.470101 0
M  V30 4660 C 428.002 4.10588 1.58447 0
M  V30 4661 H 425.121 0.725961 0.12708 0
M  V30 4662 H 427.763 1.86336 -0.371333 0
M  V30 4663 H 425.913 3.63829 1.36239 0
M  V30 4664 H 427.585 4.4778 -1.10864 0
M  V30 4665 H 425.828 4.19364 -1.10978 0
M  V30 4666 H 426.499 5.51788 -0.15291 0
M  V30 4667 H 428.975 4.02297 1.06286 0
M  V30 4668 H 427.851 5.17607 1.82686 0
M  V30 4669 H 428.112 3.60253 2.56262 0
M  V30 4670 N 427.171 -0.0066808 1.57599 0
M  V30 4671 C 428.101 -0.999296 2.11036 0
M  V30 4672 C 429.082 -1.36278 1.01795 0
M  V30 4673 O 430.267 -1.4477 1.29442 0
M  V30 4674 C 427.397 -2.29328 2.60818 0
M  V30 4675 C 426.351 -2.07159 3.74525 0
M  V30 4676 C 425.677 -3.42512 4.10596 0
M  V30 4677 C 426.977 -1.43959 5.02069 0
M  V30 4678 H 428.671 -0.554382 2.94223 0
M  V30 4679 H 426.217 -0.265221 1.41536 0
M  V30 4680 H 428.17 -2.99117 2.96828 0
M  V30 4681 H 426.894 -2.7592 1.74745 0
M  V30 4682 H 425.553 -1.39797 3.38899 0
M  V30 4683 H 425.201 -3.86795 3.21556 0
M  V30 4684 H 424.901 -3.28498 4.87199 0
M  V30 4685 H 426.425 -4.13628 4.4916 0
M  V30 4686 H 427.839 -2.03696 5.35893 0
M  V30 4687 H 426.236 -1.40452 5.83432 0
M  V30 4688 H 427.306 -0.407992 4.83181 0
M  V30 4689 N 428.649 -1.55105 -0.279332 0
M  V30 4690 C 429.597 -1.88333 -1.36505 0
M  V30 4691 C 430.591 -0.759043 -1.51443 0
M  V30 4692 O 431.797 -0.943312 -1.53302 0
M  V30 4693 H 428.172 -0.59766 -0.456406 0
M  V30 4694 H 430.143 -2.79041 -1.05728 0
M  V30 4695 C 428.892 -2.16628 -2.7197 0
M  V30 4696 H 428.215 -3.02624 -2.61264 0
M  V30 4697 H 429.655 -2.43803 -3.46895 0
M  V30 4698 C 428.114 -0.971807 -3.22579 0
M  V30 4699 O 428.644 -0.203228 -4.01186 0
M  V30 4700 N 426.85 -0.771238 -2.80179 0
M  V30 4701 H 426.397 -1.39792 -2.1637 0
M  V30 4702 H 426.355 0.0263667 -3.14389 0
M  V30 4703 N 430.127 0.543554 -1.4793 0
M  V30 4704 C 431.538 1.12561 -1.48953 0
M  V30 4705 C 431.889 1.94578 -0.251754 0
M  V30 4706 O 431.014 2.0665 0.642255 0
M  V30 4707 C 431.609 2.04801 -2.69892 0
M  V30 4708 C 430.168 2.58251 -2.73831 0
M  V30 4709 C 429.315 1.34918 -2.42265 0
M  V30 4710 H 432.266 0.32947 -1.55242 0
M  V30 4711 H 432.287 2.88886 -2.47639 0
M  V30 4712 H 431.799 1.4508 -3.59963 0
M  V30 4713 H 429.9 3.21732 -1.87934 0
M  V30 4714 H 430.013 2.98312 -3.74895 0
M  V30 4715 H 428.377 1.66046 -1.93134 0
M  V30 4716 H 429.16 0.769693 -3.3456 0
M  V30 4717 N 431.605 1.3629 0.791371 0
M  V30 4718 C 432.854 1.29742 1.54434 0
M  V30 4719 C 433.167 -0.121729 1.95221 0
M  V30 4720 O 434.373 -0.309579 2.69729 0
M  V30 4721 C 432.829 2.27623 2.78776 0
M  V30 4722 C 432.437 3.74963 2.45166 0
M  V30 4723 C 434.181 2.30047 3.56761 0
M  V30 4724 C 432.088 4.64626 3.65891 0
M  V30 4725 H 431.018 0.482113 0.579727 0
M  V30 4726 H 433.669 1.61642 0.868565 0
M  V30 4727 H 432.051 1.88714 3.48142 0
M  V30 4728 H 433.225 4.22596 1.83709 0
M  V30 4729 H 431.54 3.75295 1.80396 0
M  V30 4730 H 434.137 2.94247 4.46456 0
M  V30 4731 H 434.48 1.30846 3.95203 0
M  V30 4732 H 435.013 2.67563 2.94372 0
M  V30 4733 H 431.752 5.64883 3.32547 0
M  V30 4734 H 431.272 4.2171 4.26521 0
M  V30 4735 H 432.951 4.80801 4.32943 0
M  V30 4736 N 433.083 -1.0153 1.20538 0
M  V30 4737 C 434.03 -2.10098 0.955383 0
M  V30 4738 C 435 -1.65702 -0.114878 0
M  V30 4739 O 436.185 -1.90776 0.0301118 0
M  V30 4740 C 433.325 -3.41236 0.514969 0
M  V30 4741 C 432.438 -3.99102 1.65353 0
M  V30 4742 C 431.573 -5.18306 1.16329 0
M  V30 4743 C 430.612 -5.68258 2.27485 0
M  V30 4744 N 429.749 -6.78722 1.7967 0
M  V30 4745 H 434.589 -2.30818 1.88486 0
M  V30 4746 H 432.126 -1.13189 0.939499 0
M  V30 4747 H 434.084 -4.16504 0.240935 0
M  V30 4748 H 432.714 -3.20585 -0.377512 0
M  V30 4749 H 431.766 -3.20918 2.04245 0
M  V30 4750 H 433.078 -4.32177 2.49047 0
M  V30 4751 H 432.232 -6.00782 0.845302 0
M  V30 4752 H 430.971 -4.86799 0.296254 0
M  V30 4753 H 429.976 -4.84385 2.60099 0
M  V30 4754 H 431.201 -6.01798 3.14667 0
M  V30 4755 H 429.147 -6.49042 0.95295 0
M  V30 4756 H 429.064 -7.10996 2.56944 0
M  V30 4757 H 430.332 -7.64759 1.50875 0
M  V30 4758 N 434.561 -1.01147 -1.20859 0
M  V30 4759 C 435.977 -0.725422 -1.42161 0
M  V30 4760 C 436.177 0.696919 -1.89064 0
M  V30 4761 O 435.233 1.46539 -2.05627 0
M  V30 4762 C 436.546 -1.74678 -2.44761 0
M  V30 4763 C 438.094 -1.76433 -2.58535 0
M  V30 4764 C 438.569 -2.77481 -3.64374 0
M  V30 4765 N 440.06 -2.76189 -3.71852 0
M  V30 4766 C 440.795 -3.51035 -4.53389 0
M  V30 4767 N 440.291 -4.35541 -5.38773 0
M  V30 4768 N 442.084 -3.39655 -4.47873 0
M  V30 4769 H 434.235 -1.92979 -0.887282 0
M  V30 4770 H 436.498 -0.833327 -0.451962 0
M  V30 4771 H 436.204 -2.76551 -2.17285 0
M  V30 4772 H 436.078 -1.55472 -3.43669 0
M  V30 4773 H 438.465 -0.75248 -2.85345 0
M  V30 4774 H 438.546 -1.99712 -1.5984 0
M  V30 4775 H 438.19 -3.78827 -3.38308 0
M  V30 4776 H 438.12 -2.51466 -4.6268 0
M  V30 4777 H 440.611 -2.14885 -3.10858 0
M  V30 4778 H 440.924 -4.89432 -5.98061 0
M  V30 4779 H 439.269 -4.39621 -5.38292 0
M  V30 4780 H 442.46 -2.73063 -3.80203 0
M  V30 4781 H 442.633 -3.9824 -5.11184 0
M  V30 4782 N 436.039 1.36541 -0.78704 0
M  V30 4783 C 437.287 1.98911 -0.357633 0
M  V30 4784 C 437.608 1.62778 1.07371 0
M  V30 4785 O 436.878 0.900612 1.73971 0
M  V30 4786 H 435.458 0.735734 -0.129246 0
M  V30 4787 H 438.12 1.66776 -1.00855 0
M  V30 4788 H 437.216 3.08874 -0.447549 0
M  V30 4789 N 437.518 0.538854 1.48102 0
M  V30 4790 C 438.746 0.0123136 2.06896 0
M  V30 4791 C 439.161 -1.27312 1.39417 0
M  V30 4792 O 438.518 -1.75949 0.484582 0
M  V30 4793 C 438.569 -0.206118 3.60912 0
M  V30 4794 O 438.29 1.0284 4.25859 0
M  V30 4795 C 439.791 -0.772033 4.36526 0
M  V30 4796 H 437.011 0.0375239 0.66995 0
M  V30 4797 H 439.555 0.747032 1.90367 0
M  V30 4798 H 437.71 -0.89091 3.77017 0
M  V30 4799 H 438.124 0.814654 5.18135 0
M  V30 4800 H 439.598 -0.874251 5.45033 0
M  V30 4801 H 440.075 -1.77904 4.01555 0
M  V30 4802 H 440.681 -0.123526 4.25121 0
M  V30 4803 N 438.996 -1.55193 0.274407 0
M  V30 4804 C 439.926 -2.25471 -0.607032 0
M  V30 4805 C 440.907 -1.24461 -1.15946 0
M  V30 4806 O 442.092 -1.53179 -1.19373 0
M  V30 4807 C 439.222 -2.97526 -1.79153 0
M  V30 4808 C 438.176 -4.05459 -1.37067 0
M  V30 4809 C 437.502 -4.65084 -2.6382 0
M  V30 4810 C 438.802 -5.19691 -0.521389 0
M  V30 4811 H 440.496 -2.99393 -0.0209343 0
M  V30 4812 H 438.042 -1.43997 -0.00862866 0
M  V30 4813 H 439.995 -3.45402 -2.41404 0
M  V30 4814 H 438.719 -2.21138 -2.40344 0
M  V30 4815 H 437.378 -3.58393 -0.771355 0
M  V30 4816 H 437.026 -3.85365 -3.23268 0
M  V30 4817 H 436.726 -5.37961 -2.36372 0
M  V30 4818 H 438.25 -5.15708 -3.26921 0
M  V30 4819 H 439.664 -5.63623 -1.04889 0
M  V30 4820 H 438.061 -5.99126 -0.341825 0
M  V30 4821 H 439.131 -4.82713 0.46 0
M  V30 4822 N 440.474 -0.00167713 -1.576 0
M  V30 4823 C 441.384 1.00548 -2.1196 0
M  V30 4824 C 442.4 1.3758 -1.06526 0
M  V30 4825 O 443.576 1.46278 -1.38436 0
M  V30 4826 C 440.641 2.27809 -2.6135 0
M  V30 4827 C 439.702 1.97074 -3.81393 0
M  V30 4828 C 438.935 3.18267 -4.28417 0
M  V30 4829 O 439.158 4.30009 -3.74765 0
M  V30 4830 O 438.092 3.02167 -5.20556 0
M  V30 4831 H 441.918 0.573373 -2.98238 0
M  V30 4832 H 439.503 0.217255 -1.47812 0
M  V30 4833 H 441.385 3.02568 -2.93309 0
M  V30 4834 H 440.06 2.70254 -1.78169 0
M  V30 4835 H 438.967 1.19785 -3.54404 0
M  V30 4836 H 440.3 1.59464 -4.65652 0
M  V30 4837 N 441.952 1.55251 0.271103 0
M  V30 4838 C 442.884 1.84675 1.35749 0
M  V30 4839 C 443.897 0.731366 1.45447 0
M  V30 4840 O 445.086 1.00924 1.4723 0
M  V30 4841 C 442.186 1.99638 2.73857 0
M  V30 4842 C 441.359 3.30312 2.86727 0
M  V30 4843 C 440.418 3.35318 4.05522 0
M  V30 4844 O 439.444 4.08682 3.96191 0
M  V30 4845 N 440.646 2.62857 5.17577 0
M  V30 4846 H 443.411 2.78445 1.10853 0
M  V30 4847 H 440.972 1.55191 0.461218 0
M  V30 4848 H 442.964 2.00355 3.51625 0
M  V30 4849 H 441.534 1.12725 2.91568 0
M  V30 4850 H 440.754 3.42118 1.95829 0
M  V30 4851 H 442.042 4.16488 2.92258 0
M  V30 4852 H 441.44 2.02939 5.28046 0
M  V30 4853 H 439.997 2.69295 5.93568 0
M  V30 4854 N 443.43 -0.535701 1.48216 0
M  V30 4855 C 444.679 -1.28828 1.55197 0
M  V30 4856 C 444.992 -1.94263 0.228278 0
M  V30 4857 O 446.198 -2.70927 0.176278 0
M  V30 4858 C 444.654 -2.33727 2.73678 0
M  V30 4859 C 444.262 -1.74386 4.12666 0
M  V30 4860 C 446.006 -3.1003 2.89968 0
M  V30 4861 C 443.913 -2.77192 5.22416 0
M  V30 4862 H 442.843 -0.484484 0.577747 0
M  V30 4863 H 445.494 -0.56646 1.74538 0
M  V30 4864 H 443.876 -3.08919 2.4776 0
M  V30 4865 H 445.05 -1.05421 4.48579 0
M  V30 4866 H 443.365 -1.10595 4.01445 0
M  V30 4867 H 445.962 -3.86842 3.6913 0
M  V30 4868 H 446.305 -3.65542 1.9921 0
M  V30 4869 H 446.838 -2.41952 3.15759 0
M  V30 4870 H 443.577 -2.26507 6.15122 0
M  V30 4871 H 443.097 -3.44502 4.90998 0
M  V30 4872 H 444.776 -3.40285 5.50286 0
M  V30 4873 N 444.908 -1.36708 -0.784132 0
M  V30 4874 C 445.841 -1.25827 -1.90375 0
M  V30 4875 C 446.819 -0.141331 -1.61985 0
M  V30 4876 O 448.003 -0.313389 -1.85877 0
M  V30 4877 C 445.13 -0.942621 -3.25319 0
M  V30 4878 C 444.176 -2.07474 -3.72635 0
M  V30 4879 S 445.009 -3.69317 -3.8777 0
M  V30 4880 C 446.165 -3.39876 -5.25581 0
M  V30 4881 H 446.398 -2.20593 -1.99314 0
M  V30 4882 H 443.931 -1.22186 -0.943926 0
M  V30 4883 H 445.889 -0.767321 -4.03265 0
M  V30 4884 H 444.55 -0.0126566 -3.14097 0
M  V30 4885 H 443.743 -1.80858 -4.70432 0
M  V30 4886 H 443.345 -2.20953 -3.01754 0
M  V30 4887 H 445.637 -2.94097 -6.10339 0
M  V30 4888 H 446.58 -4.36956 -5.57203 0
M  V30 4889 H 446.988 -2.75098 -4.92931 0
M  V30 4890 N 446.386 1.0089 -1.21074 0
M  V30 4891 C 447.333 2.09588 -0.966512 0
M  V30 4892 C 448.303 1.65761 0.106089 0
M  V30 4893 O 449.488 1.90758 -0.0402287 0
M  V30 4894 C 446.628 3.40958 -0.533058 0
M  V30 4895 C 445.741 3.9822 -1.67467 0
M  V30 4896 C 444.876 5.17682 -1.19076 0
M  V30 4897 C 443.915 5.67043 -2.30496 0
M  V30 4898 N 443.052 6.77759 -1.83267 0
M  V30 4899 H 447.892 2.29815 -1.89708 0
M  V30 4900 H 445.429 1.12689 -0.945489 0
M  V30 4901 H 447.387 4.1637 -0.263019 0
M  V30 4902 H 446.017 3.20781 0.360505 0
M  V30 4903 H 445.069 3.1983 -2.05944 0
M  V30 4904 H 446.381 4.3085 -2.51336 0
M  V30 4905 H 445.535 6.00326 -0.877151 0
M  V30 4906 H 444.274 4.86635 -0.322066 0
M  V30 4907 H 443.279 4.82999 -2.62664 0
M  V30 4908 H 444.504 6.00121 -3.17855 0
M  V30 4909 H 442.45 6.48527 -0.987356 0
M  V30 4910 H 442.367 7.09624 -2.60711 0
M  V30 4911 H 443.635 7.63949 -1.54928 0
M  V30 4912 N 447.864 1.01787 1.20321 0
M  V30 4913 C 449.141 0.622978 1.85414 0
M  V30 4914 C 449.521 -0.898887 1.91006 0
M  V30 4915 O 448.869 -1.79112 1.41884 0
M  V30 4916 C 449.079 1.27226 3.24984 0
M  V30 4917 C 450.427 1.3885 4.01255 0
M  V30 4918 O 451.451 1.22857 3.34342 0
M  V30 4919 O 450.31 1.64705 5.2109 0
M  V30 4920 H 447.404 0.215116 0.798533 0
M  V30 4921 H 449.95 1.11533 1.27901 0
M  V30 4922 H 448.722 2.31209 3.15687 0
M  V30 4923 H 448.345 0.767069 3.90131 0
M  V30 4924 N 449.342 -1.36122 0.79427 0
M  V30 4925 C 450.758 -1.5232 0.476525 0
M  V30 4926 C 450.958 -1.74685 -1.00436 0
M  V30 4927 O 450.014 -1.78115 -1.78973 0
M  V30 4928 C 451.327 -2.70607 1.31119 0
M  V30 4929 C 452.875 -2.8448 1.30537 0
M  V30 4930 C 453.35 -4.05778 2.12387 0
M  V30 4931 N 454.841 -4.12933 2.09859 0
M  V30 4932 C 455.576 -5.05876 2.69957 0
M  V30 4933 N 455.072 -6.04232 3.38934 0
M  V30 4934 N 456.865 -4.98528 2.59665 0
M  V30 4935 H 449.016 -1.1986 1.75349 0
M  V30 4936 H 451.279 -0.585418 0.745647 0
M  V30 4937 H 450.985 -2.60619 2.36158 0
M  V30 4938 H 450.859 -3.64888 0.955843 0
M  V30 4939 H 453.246 -2.93927 0.262876 0
M  V30 4940 H 453.327 -1.91093 1.70051 0
M  V30 4941 H 452.971 -3.97092 3.1667 0
M  V30 4942 H 452.901 -4.98323 1.70242 0
M  V30 4943 H 455.392 -3.42515 1.59662 0
M  V30 4944 H 455.705 -6.71724 3.82109 0
M  V30 4945 H 454.05 -6.04443 3.43036 0
M  V30 4946 H 457.241 -4.20641 2.05375 0
M  V30 4947 H 457.414 -5.70773 3.06793 0
M  V30 4948 N 450.82 -0.546701 -1.47814 0
M  V30 4949 C 452.066 -0.0269594 -2.03382 0
M  V30 4950 C 452.421 1.30406 -1.41464 0
M  V30 4951 O 451.714 1.8332 -0.557151 0
M  V30 4952 C 451.908 0.134869 -3.57145 0
M  V30 4953 C 451.737 -1.17891 -4.33972 0
M  V30 4954 C 450.507 -1.74336 -4.74273 0
M  V30 4955 C 452.705 -2.09361 -4.69758 0
M  V30 4956 N 450.687 -2.99829 -5.35701 0
M  V30 4957 C 452.058 -3.19431 -5.31379 0
M  V30 4958 C 454.113 -2.09484 -4.51687 0
M  V30 4959 C 452.816 -4.2971 -5.76838 0
M  V30 4960 C 454.842 -3.18767 -4.98138 0
M  V30 4961 C 454.204 -4.27557 -5.59799 0
M  V30 4962 H 450.303 -0.0517733 -0.780284 0
M  V30 4963 H 452.887 -0.731673 -1.80429 0
M  V30 4964 H 451.058 0.80869 -3.79888 0
M  V30 4965 H 452.79 0.655726 -3.99352 0
M  V30 4966 H 449.545 -1.28265 -4.559 0
M  V30 4967 H 449.969 -3.63765 -5.70968 0
M  V30 4968 H 454.611 -1.26663 -4.03381 0
M  V30 4969 H 452.329 -5.13297 -6.24141 0
M  V30 4970 H 455.915 -3.19937 -4.85934 0
M  V30 4971 H 454.795 -5.10725 -5.95088 0
M  V30 4972 N 452.299 1.55045 -0.282633 0
M  V30 4973 C 453.548 1.98938 0.332667 0
M  V30 4974 C 453.861 1.17455 1.56409 0
M  V30 4975 O 455.067 1.51527 2.25282 0
M  V30 4976 C 453.523 3.54105 0.643226 0
M  V30 4977 C 453.131 4.44374 -0.568814 0
M  V30 4978 C 454.875 4.06569 1.22074 0
M  V30 4979 C 452.782 5.90943 -0.232426 0
M  V30 4980 H 451.712 0.743043 0.128075 0
M  V30 4981 H 454.363 1.79341 -0.388464 0
M  V30 4982 H 452.745 3.69532 1.42346 0
M  V30 4983 H 453.919 4.40718 -1.34551 0
M  V30 4984 H 452.234 4.02585 -1.06369 0
M  V30 4985 H 454.831 5.13626 1.48635 0
M  V30 4986 H 455.174 3.56057 2.15707 0
M  V30 4987 H 455.707 3.94612 0.502621 0
M  V30 4988 H 452.446 6.45567 -1.13683 0
M  V30 4989 H 451.966 5.9765 0.507357 0
M  V30 4990 H 453.645 6.4677 0.172657 0
M  V30 4991 N 453.777 0.010035 1.57597 0
M  V30 4992 C 454.725 -0.996272 2.10184 0
M  V30 4993 C 455.719 -1.34942 1.02406 0
M  V30 4994 O 456.925 -1.33389 1.20861 0
M  V30 4995 H 453.3 -0.338982 0.671264 0
M  V30 4996 H 455.271 -0.527272 2.93705 0
M  V30 4997 C 454.02 -2.27599 2.62857 0
M  V30 4998 H 453.343 -2.01295 3.45428 0
M  V30 4999 H 454.783 -2.96265 3.0332 0
M  V30 5000 C 453.242 -2.99269 1.54725 0
M  V30 5001 O 453.772 -3.90644 0.93597 0
M  V30 5002 N 451.978 -2.61269 1.27228 0
M  V30 5003 H 451.525 -1.87043 1.77123 0
M  V30 5004 H 451.483 -3.09534 0.550999 0
M  V30 5005 N 455.255 -1.55392 -0.262866 0
M  V30 5006 C 456.218 -1.88181 -1.30846 0
M  V30 5007 C 457.218 -0.757079 -1.41862 0
M  V30 5008 O 458.408 -1.02519 -1.40838 0
M  V30 5009 C 455.54 -2.09609 -2.68844 0
M  V30 5010 H 456.733 -2.81659 -1.02997 0
M  V30 5011 H 454.286 -1.48039 -0.501414 0
M  V30 5012 H 455.021 -1.18547 -3.01856 0
M  V30 5013 H 454.806 -2.91508 -2.62231 0
M  V30 5014 H 456.296 -2.36215 -3.44372 0
M  V30 5015 N 456.733 0.527833 -1.48498 0
M  V30 5016 C 457.981 1.28101 -1.56316 0
M  V30 5017 C 458.302 1.9352 -0.239781 0
M  V30 5018 O 457.572 1.81433 0.738849 0
M  V30 5019 H 456.152 0.475793 -0.575873 0
M  V30 5020 H 458.814 0.614052 -1.84974 0
M  V30 5021 H 457.91 2.05916 -2.34532 0
M  V30 5022 N 458.211 1.37122 0.776871 0
M  V30 5023 C 459.161 1.28989 1.88005 0
M  V30 5024 C 460.145 0.178765 1.59904 0
M  V30 5025 O 461.337 0.412705 1.72121 0
M  V30 5026 C 458.466 1.09402 3.25402 0
M  V30 5027 C 457.552 2.25036 3.59471 0
M  V30 5028 N 457.943 3.50407 3.64759 0
M  V30 5029 C 456.241 2.17078 3.89607 0
M  V30 5030 C 456.942 4.26628 3.95428 0
M  V30 5031 N 455.918 3.55709 4.11062 0
M  V30 5032 H 459.72 2.2394 1.90337 0
M  V30 5033 H 457.234 1.30021 0.973052 0
M  V30 5034 H 459.231 1.01661 4.04315 0
M  V30 5035 H 457.891 0.153632 3.24336 0
M  V30 5036 H 458.902 3.8438 3.47091 0
M  V30 5037 H 455.579 1.31067 3.96393 0
M  V30 5038 H 456.969 5.35107 4.06338 0
M  V30 5039 N 459.689 -1.00246 1.21608 0
M  V30 5040 C 460.599 -2.12515 0.993709 0
M  V30 5041 C 461.615 -1.73913 -0.0549939 0
M  V30 5042 O 462.791 -2.00943 0.135619 0
M  V30 5043 C 459.856 -3.42083 0.563953 0
M  V30 5044 C 458.917 -3.94843 1.68516 0
M  V30 5045 C 458.15 -5.18226 1.27582 0
M  V30 5046 O 458.373 -5.70201 0.150506 0
M  V30 5047 O 457.307 -5.64497 2.0887 0
M  V30 5048 H 461.133 -2.34152 1.93407 0
M  V30 5049 H 458.718 -1.10891 1.00118 0
M  V30 5050 H 460.6 -4.20073 0.334194 0
M  V30 5051 H 459.275 -3.21828 -0.347665 0
M  V30 5052 H 458.182 -3.18068 1.96935 0
M  V30 5053 H 459.515 -4.19512 2.5743 0
M  V30 5054 N 461.167 -1.02423 -1.1978 0
M  V30 5055 C 462.077 -0.610919 -2.26506 0
M  V30 5056 C 463.093 0.355152 -1.70337 0
M  V30 5057 O 464.269 0.214195 -2.00258 0
M  V30 5058 C 461.334 0.0365921 -3.46681 0
M  V30 5059 C 460.395 -0.976389 -4.18049 0
M  V30 5060 C 459.628 -0.359683 -5.32487 0
M  V30 5061 O 459.851 0.838601 -5.64202 0
M  V30 5062 O 458.785 -1.08022 -5.92127 0
M  V30 5063 H 462.611 -1.49965 -2.64091 0
M  V30 5064 H 460.196 -0.794156 -1.26545 0
M  V30 5065 H 462.078 0.39786 -4.19518 0
M  V30 5066 H 460.753 0.899398 -3.10954 0
M  V30 5067 H 459.66 -1.38916 -3.47352 0
M  V30 5068 H 460.993 -1.80941 -4.57735 0
M  V30 5069 N 462.645 1.35699 -0.801477 0
M  V30 5070 C 463.922 1.9324 -0.302937 0
M  V30 5071 C 464.302 1.73209 1.20672 0
M  V30 5072 O 463.65 1.09809 2.00385 0
M  V30 5073 C 463.86 3.41728 -0.708747 0
M  V30 5074 C 465.208 4.18868 -0.695328 0
M  V30 5075 O 466.232 3.5022 -0.649971 0
M  V30 5076 O 465.091 5.41342 -0.749081 0
M  V30 5077 H 462.185 0.82331 -0.0780367 0
M  V30 5078 H 464.731 1.44806 -0.884832 0
M  V30 5079 H 463.503 3.50015 -1.74944 0
M  V30 5080 H 463.126 3.97471 -0.101384 0
M  V30 5081 N 464.123 0.554532 1.47522 0
M  V30 5082 C 465.033 -0.197865 2.33764 0
M  V30 5083 C 466.049 -0.914576 1.48025 0
M  V30 5084 O 467.225 -0.884067 1.80959 0
M  V30 5085 C 464.29 -1.21628 3.24665 0
M  V30 5086 C 463.351 -0.507283 4.26292 0
M  V30 5087 C 462.584 -1.47718 5.1285 0
M  V30 5088 O 462.807 -2.7118 5.01814 0
M  V30 5089 O 461.741 -1.00313 5.93482 0
M  V30 5090 H 465.567 0.50949 2.99396 0
M  V30 5091 H 463.152 0.315176 1.46038 0
M  V30 5092 H 465.034 -1.80421 3.80823 0
M  V30 5093 H 463.709 -1.9056 2.61665 0
M  V30 5094 H 462.616 0.121778 3.73902 0
M  V30 5095 H 463.949 0.140544 4.91999 0
M  V30 5096 N 465.601 -1.54893 0.290851 0
M  V30 5097 C 466.531 -2.26103 -0.583084 0
M  V30 5098 C 467.512 -1.25684 -1.14619 0
M  V30 5099 O 468.697 -1.54436 -1.17741 0
M  V30 5100 C 465.827 -2.99409 -1.75987 0
M  V30 5101 C 464.781 -4.0689 -1.32758 0
M  V30 5102 C 464.107 -4.67856 -2.58872 0
M  V30 5103 C 465.407 -5.20215 -0.46624 0
M  V30 5104 H 467.101 -2.99398 0.0108214 0
M  V30 5105 H 464.647 -1.43998 0.00664468 0
M  V30 5106 H 466.6 -3.47943 -2.37727 0
M  V30 5107 H 465.324 -2.23675 -2.37985 0
M  V30 5108 H 463.983 -3.59191 -0.733299 0
M  V30 5109 H 463.631 -3.88772 -3.19163 0
M  V30 5110 H 463.331 -5.40438 -2.30653 0
M  V30 5111 H 464.855 -5.19147 -3.21433 0
M  V30 5112 H 466.269 -5.64704 -0.989047 0
M  V30 5113 H 464.666 -5.99455 -0.27826 0
M  V30 5114 H 465.736 -4.82198 0.511173 0
M  V30 5115 N 467.08 -0.0183926 -1.57589 0
M  V30 5116 C 468.027 0.967022 -2.09565 0
M  V30 5117 C 468.997 1.32983 -0.995225 0
M  V30 5118 O 470.182 1.42501 -1.26878 0
M  V30 5119 C 467.322 2.24772 -2.61861 0
M  V30 5120 C 466.435 1.94232 -3.85873 0
M  V30 5121 C 465.57 3.16518 -4.26603 0
M  V30 5122 C 464.609 2.81748 -5.43401 0
M  V30 5123 N 463.746 3.96626 -5.79338 0
M  V30 5124 H 468.586 0.516874 -2.93483 0
M  V30 5125 H 466.123 0.243544 -1.4507 0
M  V30 5126 H 468.081 2.99667 -2.90268 0
M  V30 5127 H 466.711 2.67423 -1.8079 0
M  V30 5128 H 465.763 1.09625 -3.64262 0
M  V30 5129 H 467.075 1.64616 -4.70853 0
M  V30 5130 H 466.229 3.99743 -4.56389 0
M  V30 5131 H 464.968 3.49286 -3.40368 0
M  V30 5132 H 463.973 1.96933 -5.1332 0
M  V30 5133 H 465.198 2.50207 -6.31327 0
M  V30 5134 H 463.144 4.29257 -4.96059 0
M  V30 5135 H 463.061 3.70598 -6.58933 0
M  V30 5136 H 464.329 4.80586 -6.13724 0
M  V30 5137 N 468.558 1.5553 0.254621 0
M  V30 5138 C 469.969 1.67518 0.824286 0
M  V30 5139 C 470.32 0.614429 1.86331 0
M  V30 5140 O 469.445 -0.240736 2.15057 0
M  V30 5141 C 470.04 3.03692 1.50189 0
M  V30 5142 C 468.599 3.17646 2.01935 0
M  V30 5143 C 467.746 2.63373 0.867746 0
M  V30 5144 H 470.697 1.58671 0.0305843 0
M  V30 5145 H 470.718 2.97706 2.36962 0
M  V30 5146 H 470.23 3.80874 0.745431 0
M  V30 5147 H 468.331 2.45273 2.80485 0
M  V30 5148 H 468.444 4.24455 2.22204 0
M  V30 5149 H 466.808 2.20999 1.26616 0
M  V30 5150 H 467.591 3.43074 0.124498 0
M  V30 5151 N 470.036 -0.519951 1.48776 0
M  V30 5152 C 471.283 -1.27522 1.57303 0
M  V30 5153 C 471.611 -1.92869 0.251328 0
M  V30 5154 O 470.866 -1.80372 -0.759243 0
M  V30 5155 C 471.165 -2.37864 2.6675 0
M  V30 5156 C 470.831 -1.90103 4.08867 0
M  V30 5157 C 469.493 -1.76795 4.47546 0
M  V30 5158 C 471.845 -1.54133 4.97888 0
M  V30 5159 C 469.173 -1.25868 5.73039 0
M  V30 5160 C 471.525 -1.04665 6.23881 0
M  V30 5161 C 470.189 -0.899823 6.61407 0
M  V30 5162 H 469.459 -0.466636 0.575614 0
M  V30 5163 H 472.106 -0.579109 1.82534 0
M  V30 5164 H 470.411 -3.13186 2.35418 0
M  V30 5165 H 472.108 -2.95969 2.70561 0
M  V30 5166 H 468.698 -2.01414 3.78326 0
M  V30 5167 H 472.882 -1.6327 4.68675 0
M  V30 5168 H 468.138 -1.13196 6.0083 0
M  V30 5169 H 472.312 -0.759074 6.92251 0
M  V30 5170 H 469.939 -0.503011 7.58534 0
M  V30 5171 N 471.514 -1.37532 -0.769588 0
M  V30 5172 C 472.76 -1.33057 -1.53048 0
M  V30 5173 C 473.093 0.0841865 -1.94017 0
M  V30 5174 O 472.368 1.04198 -1.64235 0
M  V30 5175 C 472.651 -2.27166 -2.79406 0
M  V30 5176 C 472.504 -3.77429 -2.44677 0
M  V30 5177 C 473.823 -2.19683 -3.81349 0
M  V30 5178 H 470.942 -0.484655 -0.555228 0
M  V30 5179 H 473.584 -1.68251 -0.882702 0
M  V30 5180 H 471.734 -1.97283 -3.34682 0
M  V30 5181 H 473.406 -4.17918 -1.953 0
M  V30 5182 H 471.649 -3.95892 -1.77346 0
M  V30 5183 H 472.32 -4.38716 -3.35011 0
M  V30 5184 H 474.796 -2.46029 -3.35573 0
M  V30 5185 H 473.672 -2.87668 -4.67481 0
M  V30 5186 H 473.933 -1.19045 -4.25771 0
M  V30 5187 N 472.992 0.995999 -1.22138 0
M  V30 5188 C 473.902 2.11985 -1.00496 0
M  V30 5189 C 474.918 1.7394 0.0457701 0
M  V30 5190 O 476.094 2.00868 -0.146273 0
M  V30 5191 C 473.159 3.41779 -0.582086 0
M  V30 5192 C 472.22 3.93943 -1.70608 0
M  V30 5193 C 471.453 5.17542 -1.30328 0
M  V30 5194 O 471.676 5.70114 -0.180743 0
M  V30 5195 O 470.61 5.63382 -2.11861 0
M  V30 5196 H 474.436 2.33123 -1.94647 0
M  V30 5197 H 472.021 1.10358 -1.00705 0
M  V30 5198 H 473.903 4.1989 -0.356467 0
M  V30 5199 H 472.578 3.22007 0.330592 0
M  V30 5200 H 471.485 3.17019 -1.98619 0
M  V30 5201 H 472.818 4.18141 -2.59651 0
M  V30 5202 N 474.47 1.03057 1.19235 0
M  V30 5203 C 475.881 0.757449 1.70645 0
M  V30 5204 C 476.232 -0.722735 1.82403 0
M  V30 5205 O 475.357 -1.56325 1.49638 0
M  V30 5206 C 475.952 1.36833 3.09939 0
M  V30 5207 C 474.511 1.14375 3.58602 0
M  V30 5208 C 473.658 1.46533 2.35422 0
M  V30 5209 H 476.609 1.19828 1.04052 0
M  V30 5210 H 476.63 0.766184 3.72706 0
M  V30 5211 H 476.142 2.44562 3.01349 0
M  V30 5212 H 474.243 0.0847542 3.72504 0
M  V30 5213 H 474.356 1.83366 4.42622 0
M  V30 5214 H 472.72 0.884712 2.38841 0
M  V30 5215 H 473.503 2.55349 2.2946 0
M  V30 5216 N 475.948 -1.35272 0.808662 0
M  V30 5217 C 476.858 -2.33546 0.222079 0
M  V30 5218 C 477.874 -1.6196 -0.636011 0
M  V30 5219 O 479.05 -1.93822 -0.547274 0
M  V30 5220 C 476.115 -3.41148 -0.61795 0
M  V30 5221 C 475.176 -4.28507 0.260875 0
M  V30 5222 C 474.409 -5.3097 -0.539156 0
M  V30 5223 O 474.632 -5.42123 -1.77367 0
M  V30 5224 O 473.566 -6.01858 0.0710526 0
M  V30 5225 H 477.392 -2.85515 1.03512 0
M  V30 5226 H 474.977 -1.38079 0.570495 0
M  V30 5227 H 476.859 -4.06889 -1.09634 0
M  V30 5228 H 475.534 -2.91447 -1.40855 0
M  V30 5229 H 474.441 -3.6574 0.786451 0
M  V30 5230 H 475.774 -4.81611 1.01547 0
M  V30 5231 N 477.426 -0.562348 -1.47226 0
M  V30 5232 C 478.356 0.170627 -2.32876 0
M  V30 5233 C 479.337 0.903748 -1.44106 0
M  V30 5234 O 480.522 0.883206 -1.72954 0
M  V30 5235 C 477.652 1.19786 -3.25989 0
M  V30 5236 C 476.606 0.580875 -4.2404 0
M  V30 5237 C 475.932 1.71311 -5.06514 0
M  V30 5238 C 477.232 -0.468714 -5.20193 0
M  V30 5239 H 478.926 -0.544441 -2.94408 0
M  V30 5240 H 476.472 -0.263271 -1.41573 0
M  V30 5241 H 478.425 1.71884 -3.84752 0
M  V30 5242 H 477.149 1.94294 -2.62521 0
M  V30 5243 H 475.808 0.0811538 -3.6651 0
M  V30 5244 H 475.456 2.44736 -4.39447 0
M  V30 5245 H 475.156 1.30604 -5.72902 0
M  V30 5246 H 476.68 2.23725 -5.68137 0
M  V30 5247 H 478.094 -0.0336028 -5.7329 0
M  V30 5248 H 476.491 -0.794957 -5.94811 0
M  V30 5249 H 477.561 -1.36269 -4.65359 0
M  V30 5250 N 478.904 1.54736 -0.299062 0
M  V30 5251 C 480.181 1.92187 0.363802 0
M  V30 5252 C 480.561 1.22607 1.71845 0
M  V30 5253 O 479.909 0.361141 2.25628 0
M  V30 5254 C 480.119 3.45678 0.480377 0
M  V30 5255 C 481.467 4.17885 0.752147 0
M  V30 5256 O 482.491 3.51702 0.564264 0
M  V30 5257 O 481.35 5.35048 1.11294 0
M  V30 5258 H 478.444 0.801681 0.203066 0
M  V30 5259 H 480.99 1.66115 -0.346978 0
M  V30 5260 H 479.762 3.88443 -0.471999 0
M  V30 5261 H 479.385 3.77779 1.2397 0
M  V30 5262 N 480.382 0.0267497 1.57577 0
M  V30 5263 C 481.631 -0.651736 1.9088 0
M  V30 5264 C 481.944 -1.73427 0.904576 0
M  V30 5265 O 483.15 -2.46923 1.12877 0
M  V30 5266 C 481.606 -1.21048 3.38933 0
M  V30 5267 C 481.214 -0.161362 4.47709 0
M  V30 5268 C 482.958 -1.86562 3.81307 0
M  V30 5269 C 480.865 -0.731611 5.86857 0
M  V30 5270 H 479.795 -0.247198 0.712326 0
M  V30 5271 H 482.446 0.0916641 1.83271 0
M  V30 5272 H 480.828 -2.00542 3.41466 0
M  V30 5273 H 482.002 0.61094 4.56732 0
M  V30 5274 H 480.317 0.394877 4.14523 0
M  V30 5275 H 482.914 -2.30178 4.8262 0
M  V30 5276 H 483.257 -2.70735 3.16241 0
M  V30 5277 H 483.79 -1.13762 3.81186 0
M  V30 5278 H 480.529 0.0719329 6.55461 0
M  V30 5279 H 480.049 -1.47245 5.81445 0
M  V30 5280 H 481.728 -1.22208 6.35354 0
M  V30 5281 N 481.861 -1.55662 -0.24637 0
M  V30 5282 C 483.086 -1.81914 -0.996093 0
M  V30 5283 C 483.511 -0.603875 -1.78143 0
M  V30 5284 O 482.869 0.447091 -1.75701 0
M  V30 5285 C 482.917 -3.05908 -1.90925 0
M  V30 5286 O 482.021 -2.82861 -3.00105 0
M  V30 5287 H 481.362 -0.600481 -0.283406 0
M  V30 5288 H 483.892 -2.02848 -0.267199 0
M  V30 5289 H 483.902 -3.35356 -2.3238 0
M  V30 5290 H 482.577 -3.93999 -1.33183 0
M  V30 5291 H 481.154 -2.64583 -2.62775 0
M  V30 5292 N 483.339 0.512053 -1.4905 0
M  V30 5293 C 484.616 1.27337 -1.48474 0
M  V30 5294 C 484.996 2.1009 -0.206301 0
M  V30 5295 O 484.344 2.136 0.811609 0
M  V30 5296 C 484.554 2.13954 -2.75726 0
M  V30 5297 C 485.902 2.73507 -3.24776 0
M  V30 5298 O 486.926 2.24229 -2.76767 0
M  V30 5299 O 485.785 3.63186 -4.08361 0
M  V30 5300 H 482.879 0.575652 -0.593762 0
M  V30 5301 H 485.425 0.527232 -1.61302 0
M  V30 5302 H 484.197 1.52709 -3.60272 0
M  V30 5303 H 483.82 2.95782 -2.65705 0
M  V30 5304 N 484.817 1.37938 0.762283 0
M  V30 5305 C 485.749 1.30349 1.88525 0
M  V30 5306 C 486.762 0.217402 1.61342 0
M  V30 5307 O 487.951 0.474291 1.72084 0
M  V30 5308 C 485.051 0.994844 3.23969 0
M  V30 5309 C 484.224 2.18829 3.78725 0
M  V30 5310 C 483.283 1.84844 4.92665 0
M  V30 5311 O 482.309 2.57244 5.07754 0
M  V30 5312 N 483.511 0.798201 5.74986 0
M  V30 5313 H 486.276 2.27114 1.95549 0
M  V30 5314 H 483.837 1.31686 0.941825 0
M  V30 5315 H 485.829 0.748168 3.97724 0
M  V30 5316 H 484.399 0.115446 3.12387 0
M  V30 5317 H 483.619 2.59615 2.96637 0
M  V30 5318 H 484.907 2.98497 4.1204 0
M  V30 5319 H 484.305 0.197611 5.65355 0
M  V30 5320 H 482.862 0.611396 6.48926 0
M  V30 5321 N 486.295 -0.989507 1.22664 0
M  V30 5322 C 487.242 -2.08024 0.999733 0
M  V30 5323 C 488.212 -1.65909 -0.0797047 0
M  V30 5324 O 489.397 -1.90669 0.0705715 0
M  V30 5325 C 486.537 -3.40067 0.587234 0
M  V30 5326 C 485.65 -3.95505 1.73781 0
M  V30 5327 C 484.785 -5.15722 1.27297 0
M  V30 5328 C 483.824 -5.63305 2.39488 0
M  V30 5329 N 482.961 -6.74758 1.94026 0
M  V30 5330 H 487.801 -2.26768 1.9334 0
M  V30 5331 H 485.338 -1.11171 0.963297 0
M  V30 5332 H 487.296 -4.15899 0.329227 0
M  V30 5333 H 485.926 -3.21314 -0.309426 0
M  V30 5334 H 484.978 -3.16513 2.11006 0
M  V30 5335 H 486.29 -4.26797 2.58158 0
M  V30 5336 H 485.444 -5.98854 0.972546 0
M  V30 5337 H 484.183 -4.86061 0.399445 0
M  V30 5338 H 483.188 -4.78759 2.70315 0
M  V30 5339 H 484.413 -5.94988 3.27362 0
M  V30 5340 H 482.359 -6.46874 1.09041 0
M  V30 5341 H 482.276 -7.05386 2.71968 0
M  V30 5342 H 483.544 -7.61387 1.67062 0
M  V30 5343 N 487.773 -1.03688 -1.18687 0
M  V30 5344 C 489.189 -0.755413 -1.4059 0
M  V30 5345 C 489.389 0.656659 -1.905 0
M  V30 5346 O 488.445 1.42144 -2.08689 0
M  V30 5347 C 489.758 -1.7983 -2.41001 0
M  V30 5348 C 491.306 -1.81877 -2.54735 0
M  V30 5349 C 491.781 -2.85148 -3.58406 0
M  V30 5350 N 493.272 -2.84015 -3.6591 0
M  V30 5351 C 494.007 -3.60573 -4.45841 0
M  V30 5352 N 493.503 -4.46871 -5.29413 0
M  V30 5353 N 495.296 -3.49079 -4.40568 0
M  V30 5354 H 487.447 -1.94818 -0.846148 0
M  V30 5355 H 489.71 -0.842727 -0.434184 0
M  V30 5356 H 489.416 -2.81097 -2.1137 0
M  V30 5357 H 489.29 -1.62727 -3.40294 0
M  V30 5358 H 491.677 -0.812836 -2.83685 0
M  V30 5359 H 491.758 -2.03057 -1.55568 0
M  V30 5360 H 491.402 -3.85918 -3.30197 0
M  V30 5361 H 491.332 -2.61224 -4.57241 0
M  V30 5362 H 493.823 -2.21431 -3.0623 0
M  V30 5363 H 494.136 -5.02007 -5.87545 0
M  V30 5364 H 492.481 -4.5094 -5.28846 0
M  V30 5365 H 495.672 -2.81066 -3.74325 0
M  V30 5366 H 495.845 -4.08994 -5.02621 0
M  V30 5367 N 489.251 1.34841 -0.815825 0
M  V30 5368 C 490.5 1.97755 -0.396976 0
M  V30 5369 C 490.813 1.65422 1.04379 0
M  V30 5370 O 492.019 2.21771 1.5662 0
M  V30 5371 C 490.475 3.53818 -0.658869 0
M  V30 5372 C 490.083 3.95051 -2.11278 0
M  V30 5373 C 491.827 4.23397 -0.305834 0
M  V30 5374 C 489.734 5.43997 -2.31994 0
M  V30 5375 H 488.664 0.739985 -0.1447 0
M  V30 5376 H 491.315 1.53781 -1.00118 0
M  V30 5377 H 489.697 3.95997 0.0154112 0
M  V30 5378 H 490.871 3.63998 -2.82564 0
M  V30 5379 H 489.186 3.38388 -2.42657 0
M  V30 5380 H 491.783 5.32899 -0.43854 0
M  V30 5381 H 492.126 4.09508 0.748952 0
M  V30 5382 H 492.659 3.8667 -0.934403 0
M  V30 5383 H 489.398 5.62865 -3.35952 0
M  V30 5384 H 488.918 5.76589 -1.65244 0
M  V30 5385 H 490.597 6.10584 -2.14001 0
M  V30 5386 N 490.729 0.570148 1.46925 0
M  V30 5387 C 492.006 -0.0153259 1.95594 0
M  V30 5388 C 492.386 -1.47232 1.51281 0
M  V30 5389 O 491.734 -2.15574 0.757624 0
M  V30 5390 C 491.944 0.143624 3.48704 0
M  V30 5391 C 493.292 0.00494484 4.246 0
M  V30 5392 O 494.316 0.0718214 3.56128 0
M  V30 5393 O 493.175 -0.141175 5.46318 0
M  V30 5394 H 490.269 -0.0568819 0.825041 0
M  V30 5395 H 492.815 0.637583 1.57267 0
M  V30 5396 H 491.587 1.15699 3.73804 0
M  V30 5397 H 491.21 -0.5463 3.93829 0
M  V30 5398 N 492.207 -1.54576 0.307264 0
M  V30 5399 C 493.456 -1.99442 -0.300976 0
M  V30 5400 C 493.769 -1.19928 -1.5452 0
M  V30 5401 O 494.975 -1.55092 -2.22842 0
M  V30 5402 C 493.431 -3.55084 -0.586809 0
M  V30 5403 C 493.039 -4.43413 0.639438 0
M  V30 5404 C 494.783 -4.0846 -1.1559 0
M  V30 5405 C 492.69 -5.90499 0.326411 0
M  V30 5406 H 491.62 -0.744986 -0.116238 0
M  V30 5407 H 494.271 -1.787 0.416947 0
M  V30 5408 H 492.653 -3.71749 -1.36449 0
M  V30 5409 H 493.827 -4.38522 1.41545 0
M  V30 5410 H 492.142 -4.00842 1.1276 0
M  V30 5411 H 494.739 -5.15926 -1.40445 0
M  V30 5412 H 495.082 -3.59443 -2.10015 0
M  V30 5413 H 495.615 -3.95362 -0.439778 0
M  V30 5414 H 492.354 -6.43676 1.23939 0
M  V30 5415 H 491.874 -5.98382 -0.412212 0
M  V30 5416 H 493.553 -6.46962 -0.0697393 0
M  V30 5417 N 493.685 -0.035106 -1.57561 0
M  V30 5418 C 494.618 0.979673 -2.06101 0
M  V30 5419 C 495.596 1.31378 -0.958046 0
M  V30 5420 O 496.78 1.42942 -1.22881 0
M  V30 5421 C 493.907 2.29809 -2.48808 0
M  V30 5422 C 492.953 2.11817 -3.70184 0
M  V30 5423 S 493.786 1.41143 -5.16565 0
M  V30 5424 C 494.942 2.74341 -5.62572 0
M  V30 5425 H 495.175 0.566506 -2.91853 0
M  V30 5426 H 492.708 0.176744 -1.53385 0
M  V30 5427 H 494.666 3.056 -2.74078 0
M  V30 5428 H 493.327 2.68257 -1.63392 0
M  V30 5429 H 492.52 3.09299 -3.97933 0
M  V30 5430 H 492.122 1.44168 -3.45097 0
M  V30 5431 H 494.414 3.70562 -5.67177 0
M  V30 5432 H 495.357 2.51249 -6.62027 0
M  V30 5433 H 495.765 2.79863 -4.90242 0
M  V30 5434 N 495.163 1.55791 0.238111 0
M  V30 5435 C 496.409 1.78297 0.966337 0
M  V30 5436 C 496.742 0.601903 1.84637 0
M  V30 5437 O 496.017 -0.399499 1.90353 0
M  V30 5438 C 496.3 3.10758 1.81939 0
M  V30 5439 C 496.153 4.39283 0.966958 0
M  V30 5440 C 497.472 3.39519 2.80027 0
M  V30 5441 H 494.591 0.648654 0.349882 0
M  V30 5442 H 497.233 1.88525 0.236253 0
M  V30 5443 H 495.383 3.02168 2.44185 0
M  V30 5444 H 497.055 4.59873 0.362514 0
M  V30 5445 H 495.298 4.32948 0.271669 0
M  V30 5446 H 495.969 5.28368 1.59784 0
M  V30 5447 H 498.445 3.48128 2.27917 0
M  V30 5448 H 497.321 4.33402 3.36829 0
M  V30 5449 H 497.582 2.60864 3.56934 0
M  V30 5450 N 496.642 -0.504142 1.49319 0
M  V30 5451 C 497.89 -1.25598 1.58334 0
M  V30 5452 C 498.211 -1.93114 0.270538 0
M  V30 5453 O 497.481 -1.82585 -0.709891 0
M  V30 5454 H 496.061 -0.466571 0.58337 0
M  V30 5455 H 498.723 -0.584547 1.85928 0
M  V30 5456 H 497.819 -2.02159 2.37778 0
M  V30 5457 N 498.12 -1.38341 -0.754957 0
M  V30 5458 C 499.053 -1.29837 -1.87663 0
M  V30 5459 C 500.031 -0.175659 -1.61648 0
M  V30 5460 O 501.215 -0.352745 -1.8517 0
M  V30 5461 C 498.342 -1.01141 -3.23246 0
M  V30 5462 C 497.388 -2.15331 -3.6815 0
M  V30 5463 S 498.221 -3.77459 -3.79849 0
M  V30 5464 C 499.377 -3.50948 -5.18253 0
M  V30 5465 H 499.61 -2.24771 -1.9459 0
M  V30 5466 H 497.143 -1.24161 -0.917796 0
M  V30 5467 H 499.101 -0.852687 -4.01546 0
M  V30 5468 H 497.762 -0.0792784 -3.14 0
M  V30 5469 H 496.955 -1.90795 -4.6649 0
M  V30 5470 H 496.557 -2.27304 -2.97 0
M  V30 5471 H 498.849 -3.06977 -6.03963 0
M  V30 5472 H 499.792 -4.48677 -5.47809 0
M  V30 5473 H 500.2 -2.85492 -4.86985 0
M  V30 5474 N 499.598 0.982988 -1.23187 0
M  V30 5475 C 500.846 1.72052 -1.06031 0
M  V30 5476 C 501.167 1.90769 0.404019 0
M  V30 5477 O 500.437 1.47446 1.28982 0
M  V30 5478 H 499.017 0.637499 -0.389363 0
M  V30 5479 H 501.679 1.18338 -1.54862 0
M  V30 5480 H 500.775 2.7111 -1.54615 0
M  V30 5481 N 501.076 1.04316 1.18135 0
M  V30 5482 C 502.306 0.767003 1.91835 0
M  V30 5483 C 502.714 -0.68002 1.76557 0
M  V30 5484 O 502.057 -1.47548 1.09432 0
M  V30 5485 C 502.119 1.05674 3.43618 0
M  V30 5486 C 501.783 2.49818 3.82675 0
M  V30 5487 C 502.78 3.48003 3.86251 0
M  V30 5488 C 500.465 2.84596 4.13897 0
M  V30 5489 C 502.459 4.79016 4.20503 0
M  V30 5490 C 500.146 4.15813 4.4782 0
M  V30 5491 C 501.144 5.12834 4.51099 0
M  V30 5492 O 500.832 6.41699 4.84229 0
M  V30 5493 H 500.564 0.278948 0.615763 0
M  V30 5494 H 503.118 1.3946 1.50798 0
M  V30 5495 H 501.348 0.372029 3.84906 0
M  V30 5496 H 503.037 0.767994 3.98568 0
M  V30 5497 H 503.803 3.22475 3.62264 0
M  V30 5498 H 499.682 2.09748 4.1052 0
M  V30 5499 H 503.226 5.54739 4.22978 0
M  V30 5500 H 499.123 4.41109 4.71268 0
M  V30 5501 H 499.891 6.46387 5.02121 0
M  V30 5502 N 502.554 -1.34406 0.822964 0
M  V30 5503 C 503.779 -2.0304 0.423034 0
M  V30 5504 C 504.204 -1.61568 -0.963196 0
M  V30 5505 O 503.562 -0.800339 -1.62678 0
M  V30 5506 C 503.61 -3.56636 0.53321 0
M  V30 5507 O 502.714 -4.09971 -0.446939 0
M  V30 5508 H 502.055 -0.64075 0.174171 0
M  V30 5509 H 504.585 -1.71653 1.11339 0
M  V30 5510 H 504.595 -4.05945 0.408991 0
M  V30 5511 H 503.27 -3.86168 1.54425 0
M  V30 5512 H 501.847 -3.71835 -0.281601 0
M  V30 5513 N 504.032 -0.577932 -1.46621 0
M  V30 5514 C 504.964 0.195801 -2.28362 0
M  V30 5515 C 505.977 0.859983 -1.38232 0
M  V30 5516 O 507.166 0.730349 -1.62875 0
M  V30 5517 C 504.266 1.29639 -3.13124 0
M  V30 5518 C 503.439 0.725049 -4.31349 0
M  V30 5519 C 502.498 1.71274 -4.97546 0
M  V30 5520 O 501.524 1.25067 -5.5529 0
M  V30 5521 N 502.726 3.04672 -4.94121 0
M  V30 5522 H 505.491 -0.505468 -2.95407 0
M  V30 5523 H 503.052 -0.415381 -1.56481 0
M  V30 5524 H 505.044 1.95631 -3.54275 0
M  V30 5525 H 503.614 1.90059 -2.48186 0
M  V30 5526 H 502.834 -0.112205 -3.9404 0
M  V30 5527 H 504.122 0.323034 -5.07774 0
M  V30 5528 H 503.52 3.4484 -4.48444 0
M  V30 5529 H 502.077 3.66166 -5.39227 0
M  V30 5530 N 505.51 1.54411 -0.315457 0
M  V30 5531 C 506.42 2.27737 0.56329 0
M  V30 5532 C 507.436 1.31787 1.13614 0
M  V30 5533 O 508.612 1.64791 1.15784 0
M  V30 5534 C 505.677 3.01478 1.71207 0
M  V30 5535 C 504.738 4.12997 1.17185 0
M  V30 5536 C 503.971 4.83212 2.26588 0
M  V30 5537 O 504.194 4.52884 3.46775 0
M  V30 5538 O 503.128 5.70299 1.92463 0
M  V30 5539 H 506.954 3.03683 -0.0319614 0
M  V30 5540 H 504.539 1.49178 -0.0814188 0
M  V30 5541 H 506.421 3.47683 2.38106 0
M  V30 5542 H 505.096 2.28414 2.29366 0
M  V30 5543 H 504.003 3.71159 0.468174 0
M  V30 5544 H 505.336 4.8808 0.635501 0
M  V30 5545 N 506.988 0.0434614 1.5754 0
M  V30 5546 C 507.898 -0.94893 2.14552 0
M  V30 5547 C 508.914 -1.34707 1.10136 0
M  V30 5548 O 510.09 -1.42557 1.42266 0
M  V30 5549 C 507.155 -2.208 2.67298 0
M  V30 5550 C 506.216 -1.86893 3.86484 0
M  V30 5551 C 505.449 -3.06797 4.36705 0
M  V30 5552 O 505.672 -4.19921 3.86034 0
M  V30 5553 O 504.606 -2.8826 5.28384 0
M  V30 5554 H 508.432 -0.494099 2.99654 0
M  V30 5555 H 506.017 -0.177989 1.48336 0
M  V30 5556 H 507.899 -2.94686 3.01228 0
M  V30 5557 H 506.574 -2.65436 1.85272 0
M  V30 5558 H 505.481 -1.10347 3.57455 0
M  V30 5559 H 506.814 -1.47062 4.69716 0
M  V30 5560 N 508.466 -1.55915 -0.229846 0
M  V30 5561 C 509.715 -1.77742 -0.953455 0
M  V30 5562 C 510.028 -0.610524 -1.85828 0
M  V30 5563 O 511.234 -0.712219 -2.61992 0
M  V30 5564 C 509.69 -3.14738 -1.74551 0
M  V30 5565 C 509.298 -4.39126 -0.887242 0
M  V30 5566 C 511.042 -3.45895 -2.46084 0
M  V30 5567 C 508.949 -5.67149 -1.67617 0
M  V30 5568 H 507.879 -0.662648 -0.359741 0
M  V30 5569 H 510.53 -1.82322 -0.207576 0
M  V30 5570 H 508.912 -3.04311 -2.53399 0
M  V30 5571 H 510.086 -4.60588 -0.139892 0
M  V30 5572 H 508.401 -4.15427 -0.284443 0
M  V30 5573 H 510.998 -4.38767 -3.05594 0
M  V30 5574 H 511.341 -2.68007 -3.18556 0
M  V30 5575 H 511.874 -3.57614 -1.74233 0
M  V30 5576 H 508.613 -6.47906 -0.994881 0
M  V30 5577 H 508.133 -5.49763 -2.39836 0
M  V30 5578 H 509.812 -6.07025 -2.23898 0
M  V30 5579 N 509.944 0.496216 -1.49584 0
M  V30 5580 C 510.876 1.61404 -1.62731 0
M  V30 5581 C 511.889 1.54613 -0.50978 0
M  V30 5582 O 513.078 1.60458 -0.782017 0
M  V30 5583 C 510.178 3.00212 -1.57245 0
M  V30 5584 C 509.351 3.32138 -2.84611 0
M  V30 5585 C 508.41 4.5038 -2.72112 0
M  V30 5586 O 507.436 4.51926 -3.46051 0
M  V30 5587 N 508.638 5.50575 -1.83977 0
M  V30 5588 H 511.403 1.50552 -2.59141 0
M  V30 5589 H 508.964 0.684182 -1.46733 0
M  V30 5590 H 510.956 3.77241 -1.4653 0
M  V30 5591 H 509.526 3.04964 -0.686729 0
M  V30 5592 H 508.746 2.4396 -3.09641 0
M  V30 5593 H 510.034 3.50268 -3.69039 0
M  V30 5594 H 509.432 5.52128 -1.23171 0
M  V30 5595 H 507.989 6.26687 -1.79182 0
M  V30 5596 N 511.423 1.38739 0.74761 0
M  V30 5597 C 512.333 1.38696 1.89211 0
M  V30 5598 C 513.349 0.283303 1.71678 0
M  V30 5599 O 514.525 0.522713 1.94498 0
M  V30 5600 C 511.59 1.21662 3.24653 0
M  V30 5601 C 510.651 2.41886 3.54669 0
M  V30 5602 C 509.884 2.25655 4.83648 0
M  V30 5603 O 510.107 1.25339 5.56459 0
M  V30 5604 O 509.041 3.14372 5.13277 0
M  V30 5605 H 512.867 2.35143 1.92202 0
M  V30 5606 H 510.452 1.19721 0.893708 0
M  V30 5607 H 512.334 1.14246 4.05618 0
M  V30 5608 H 511.009 0.283024 3.2246 0
M  V30 5609 H 509.916 2.54877 2.73841 0
M  V30 5610 H 511.249 3.33895 3.61628 0
M  V30 5611 N 512.901 -0.976442 1.23707 0
M  V30 5612 C 514.126 -1.75875 1.09922 0
M  V30 5613 C 514.551 -1.84911 -0.34489 0
M  V30 5614 O 513.909 -1.31363 -1.24954 0
M  V30 5615 C 513.957 -3.16179 1.73388 0
M  V30 5616 O 513.061 -4.00124 0.99871 0
M  V30 5617 H 512.402 -0.540954 0.385052 0
M  V30 5618 H 514.932 -1.22546 1.6384 0
M  V30 5619 H 514.942 -3.66741 1.78788 0
M  V30 5620 H 513.617 -3.08917 2.78466 0
M  V30 5621 H 512.194 -3.58624 1.02193 0
M  V30 5622 N 514.379 -1.04941 -1.1758 0
M  V30 5623 C 515.309 -0.669172 -2.23706 0
M  V30 5624 C 516.29 0.331835 -1.66832 0
M  V30 5625 O 517.475 0.209988 -1.93061 0
M  V30 5626 C 514.605 -0.0404889 -3.47276 0
M  V30 5627 C 513.559 -0.965983 -4.16957 0
M  V30 5628 C 512.885 -0.201312 -5.34321 0
M  V30 5629 C 514.185 -2.28902 -4.69469 0
M  V30 5630 H 515.879 -1.55639 -2.55767 0
M  V30 5631 H 513.425 -0.749793 -1.22939 0
M  V30 5632 H 515.378 0.237298 -4.20731 0
M  V30 5633 H 514.102 0.881658 -3.14475 0
M  V30 5634 H 512.761 -1.22829 -3.45411 0
M  V30 5635 H 512.409 0.723519 -4.97769 0
M  V30 5636 H 512.109 -0.817968 -5.81879 0
M  V30 5637 H 513.633 0.0692499 -6.10561 0
M  V30 5638 H 515.047 -2.07132 -5.34574 0
M  V30 5639 H 513.444 -2.85942 -5.27596 0
M  V30 5640 H 514.514 -2.92937 -3.86414 0
M  V30 5641 N 515.857 1.33968 -0.830081 0
M  V30 5642 C 517.082 2.02813 -0.433796 0
M  V30 5643 C 517.507 1.62076 0.954614 0
M  V30 5644 O 516.865 0.808955 1.62252 0
M  V30 5645 C 516.913 3.56348 -0.552115 0
M  V30 5646 O 516.017 4.10202 0.425191 0
M  V30 5647 H 515.358 0.639817 -0.177567 0
M  V30 5648 H 517.888 1.7106 -1.12248 0
M  V30 5649 H 517.898 4.05722 -0.430513 0
M  V30 5650 H 516.573 3.85344 -1.56471 0
M  V30 5651 H 515.15 3.71979 0.261878 0
M  V30 5652 N 517.335 0.585699 1.46312 0
M  V30 5653 C 518.282 -0.145835 2.30339 0
M  V30 5654 C 519.252 -0.881215 1.40797 0
M  V30 5655 O 520.437 -0.871293 1.69744 0
M  V30 5656 C 517.577 -1.15161 3.25318 0
M  V30 5657 C 516.69 -0.419367 4.2996 0
M  V30 5658 C 515.825 -1.41293 5.12064 0
M  V30 5659 C 514.864 -0.667261 6.08452 0
M  V30 5660 N 514.001 -1.60903 6.83414 0
M  V30 5661 H 518.841 0.576755 2.92365 0
M  V30 5662 H 516.378 0.296237 1.44086 0
M  V30 5663 H 518.336 -1.74763 3.78832 0
M  V30 5664 H 516.966 -1.84188 2.65094 0
M  V30 5665 H 516.018 0.291751 3.7928 0
M  V30 5666 H 517.33 0.163433 4.98532 0
M  V30 5667 H 516.484 -2.08167 5.6987 0
M  V30 5668 H 515.223 -2.02966 4.43459 0
M  V30 5669 H 514.228 0.0152356 5.49798 0
M  V30 5670 H 515.453 -0.0558817 6.79077 0
M  V30 5671 H 513.399 -2.21381 6.17516 0
M  V30 5672 H 513.316 -1.07911 7.48259 0
M  V30 5673 H 514.584 -2.26802 7.45775 0
M  V30 5674 N 518.813 -1.54241 0.323641 0
M  V30 5675 C 519.746 -2.20579 -0.584833 0
M  V30 5676 C 520.724 -1.18286 -1.11567 0
M  V30 5677 O 521.908 -1.47025 -1.17966 0
M  V30 5678 C 519.035 -2.86754 -1.80249 0
M  V30 5679 C 518.081 -4.02767 -1.4029 0
M  V30 5680 S 518.914 -5.33693 -0.439539 0
M  V30 5681 C 520.07 -6.03362 -1.66448 0
M  V30 5682 H 520.303 -2.97292 -0.0213238 0
M  V30 5683 H 517.836 -1.54024 0.107726 0
M  V30 5684 H 519.794 -3.25503 -2.50116 0
M  V30 5685 H 518.455 -2.09844 -2.33719 0
M  V30 5686 H 517.648 -4.47933 -2.31024 0
M  V30 5687 H 517.25 -3.65692 -0.783928 0
M  V30 5688 H 519.542 -6.25546 -2.6019 0
M  V30 5689 H 520.485 -6.9689 -1.25498 0
M  V30 5690 H 520.893 -5.33273 -1.85149 0
M  V30 5691 N 520.291 -0.0518155 -1.57515 0
M  V30 5692 C 521.238 0.922352 -2.11569 0
M  V30 5693 C 522.208 1.30842 -1.02321 0
M  V30 5694 O 523.393 1.39778 -1.29872 0
M  V30 5695 C 520.533 2.19167 -2.6657 0
M  V30 5696 C 519.646 1.86003 -3.89906 0
M  V30 5697 C 518.781 3.07398 -4.33221 0
M  V30 5698 C 517.82 2.70158 -5.49255 0
M  V30 5699 N 516.957 3.84248 -5.8762 0
M  V30 5700 H 521.797 0.454506 -2.94514 0
M  V30 5701 H 519.334 0.212718 -1.45554 0
M  V30 5702 H 521.292 2.93443 -2.96559 0
M  V30 5703 H 519.922 2.63528 -1.86421 0
M  V30 5704 H 518.974 1.01874 -3.66505 0
M  V30 5705 H 520.286 1.54592 -4.74239 0
M  V30 5706 H 519.44 3.89972 -4.64765 0
M  V30 5707 H 518.179 3.41988 -3.477 0
M  V30 5708 H 517.184 1.86001 -5.17382 0
M  V30 5709 H 518.409 2.36759 -6.36492 0
M  V30 5710 H 516.355 4.18638 -5.05053 0
M  V30 5711 H 516.272 3.56538 -6.66646 0
M  V30 5712 H 517.54 4.6746 -6.2378 0
M  V30 5713 N 521.769 1.56035 0.221574 0
M  V30 5714 C 522.999 1.82864 0.961468 0
M  V30 5715 C 523.407 0.628703 1.78449 0
M  V30 5716 O 522.75 -0.412109 1.79018 0
M  V30 5717 C 522.812 3.03425 1.92804 0
M  V30 5718 C 522.476 4.38429 1.28954 0
M  V30 5719 C 523.473 5.15441 0.679431 0
M  V30 5720 C 521.158 4.85151 1.30131 0
M  V30 5721 C 523.152 6.37337 0.0896148 0
M  V30 5722 C 520.839 6.06989 0.707651 0
M  V30 5723 C 521.837 6.82923 0.102855 0
M  V30 5724 O 521.525 8.02456 -0.48157 0
M  V30 5725 H 521.257 0.611883 0.28736 0
M  V30 5726 H 523.811 2.0397 0.241932 0
M  V30 5727 H 522.041 2.78138 2.68656 0
M  V30 5728 H 523.73 3.17127 2.53348 0
M  V30 5729 H 524.496 4.80452 0.662661 0
M  V30 5730 H 520.375 4.26021 1.76145 0
M  V30 5731 H 523.919 6.96547 -0.383069 0
M  V30 5732 H 519.816 6.41451 0.721834 0
M  V30 5733 H 520.584 8.17636 -0.375887 0
M  V30 5734 N 523.247 -0.488276 1.49845 0
M  V30 5735 C 524.524 -1.24959 1.50481 0
M  V30 5736 C 524.904 -2.09735 0.239698 0
M  V30 5737 O 524.252 -2.14865 -0.777524 0
M  V30 5738 C 524.462 -2.0954 2.79095 0
M  V30 5739 C 525.81 -2.68305 3.29086 0
M  V30 5740 O 526.834 -2.19797 2.80299 0
M  V30 5741 O 525.693 -3.56643 4.14087 0
M  V30 5742 H 522.787 -0.566133 0.602845 0
M  V30 5743 H 525.333 -0.501504 1.6212 0
M  V30 5744 H 524.105 -1.46958 3.62656 0
M  V30 5745 H 523.728 -2.91517 2.70377 0
M  V30 5746 N 524.725 -1.39134 -0.740242 0
M  V30 5747 C 525.635 -1.39697 -1.88473 0
M  V30 5748 C 526.651 -0.292403 -1.71526 0
M  V30 5749 O 527.827 -0.533021 -1.94219 0
M  V30 5750 C 524.892 -1.23382 -3.24003 0
M  V30 5751 C 523.953 -2.43763 -3.53381 0
M  V30 5752 C 523.186 -2.28216 -4.82445 0
M  V30 5753 O 523.409 -1.28288 -5.55786 0
M  V30 5754 O 522.343 -3.1709 -5.11603 0
M  V30 5755 H 526.169 -2.36159 -1.90952 0
M  V30 5756 H 523.754 -1.20194 -0.887346 0
M  V30 5757 H 525.636 -1.16395 -4.05006 0
M  V30 5758 H 524.311 -0.300121 -3.22306 0
M  V30 5759 H 523.218 -2.56325 -2.72485 0
M  V30 5760 H 524.551 -3.35808 -3.59852 0
M  V30 5761 N 526.204 0.969867 -1.24223 0
M  V30 5762 C 527.453 1.70687 -1.07466 0
M  V30 5763 C 527.766 1.91736 0.386861 0
M  V30 5764 O 528.972 2.62986 0.674581 0
M  V30 5765 C 527.428 3.07217 -1.87472 0
M  V30 5766 C 527.036 2.94018 -3.3802 0
M  V30 5767 C 528.78 3.84804 -1.79237 0
M  V30 5768 C 526.687 4.25844 -4.10379 0
M  V30 5769 H 525.617 0.640067 -0.398536 0
M  V30 5770 H 528.268 1.08092 -1.48285 0
M  V30 5771 H 526.65 3.70628 -1.39466 0
M  V30 5772 H 527.824 2.39632 -3.9359 0
M  V30 5773 H 526.139 2.29898 -3.47183 0
M  V30 5774 H 528.736 4.82417 -2.30603 0
M  V30 5775 H 529.079 4.09356 -0.757197 0
M  V30 5776 H 529.612 3.28115 -2.24912 0
M  V30 5777 H 526.351 4.06486 -5.14246 0
M  V30 5778 H 525.871 4.80054 -3.59594 0
M  V30 5779 H 527.55 4.94475 -4.17257 0
M  V30 5780 N 527.682 1.05563 1.17022 0
M  V30 5781 C 528.91 0.78845 1.91288 0
M  V30 5782 C 529.325 -0.656318 1.77025 0
M  V30 5783 O 528.682 -1.44869 1.10992 0
M  V30 5784 C 528.733 1.16444 3.42232 0
M  V30 5785 O 528.454 2.5525 3.5606 0
M  V30 5786 C 529.955 0.923937 4.33565 0
M  V30 5787 H 527.175 0.286389 0.606813 0
M  V30 5788 H 529.719 1.4073 1.48375 0
M  V30 5789 H 527.874 0.590266 3.82877 0
M  V30 5790 H 528.288 2.70097 4.49609 0
M  V30 5791 H 529.762 1.23672 5.37968 0
M  V30 5792 H 530.239 -0.140688 4.38975 0
M  V30 5793 H 530.845 1.48214 3.98639 0
M  V30 5794 N 529.16 -1.33526 0.837174 0
M  V30 5795 C 530.123 -2.27551 0.274421 0
M  V30 5796 C 531.123 -1.50886 -0.555881 0
M  V30 5797 O 532.313 -1.70227 -0.369918 0
M  V30 5798 C 529.445 -3.35332 -0.613605 0
M  V30 5799 H 530.638 -2.78837 1.10408 0
M  V30 5800 H 528.191 -1.439 0.610126 0
M  V30 5801 H 528.926 -2.89285 -1.46577 0
M  V30 5802 H 528.711 -3.92095 -0.0195341 0
M  V30 5803 H 530.201 -4.05433 -1.00068 0
M  V30 5804 N 530.638 -0.59345 -1.46 0
M  V30 5805 C 531.866 -0.0890934 -2.06708 0
M  V30 5806 C 532.281 1.2205 -1.44046 0
M  V30 5807 O 531.638 1.74029 -0.549551 0
M  V30 5808 C 531.689 0.0720263 -3.61428 0
M  V30 5809 O 531.41 -1.18574 -4.21748 0
M  V30 5810 C 532.911 0.609487 -4.3909 0
M  V30 5811 H 530.131 -0.0623628 -0.668096 0
M  V30 5812 H 532.675 -0.817171 -1.87464 0
M  V30 5813 H 530.83 0.750369 -3.80063 0
M  V30 5814 H 531.244 -1.0064 -5.14754 0
M  V30 5815 H 532.718 0.671363 -5.47902 0
M  V30 5816 H 533.195 1.62878 -4.07882 0
M  V30 5817 H 533.801 -0.03434 -4.25286 0
M  V30 5818 N 532.116 1.54067 -0.331816 0
M  V30 5819 C 533.346 2.04833 0.269605 0
M  V30 5820 C 533.754 1.20714 1.45687 0
M  V30 5821 O 533.097 0.232539 1.82222 0
M  V30 5822 C 533.159 3.51386 0.759499 0
M  V30 5823 C 532.823 4.55971 -0.306557 0
M  V30 5824 C 533.82 5.07126 -1.14538 0
M  V30 5825 C 531.505 5.00216 -0.457116 0
M  V30 5826 C 533.499 6.01096 -2.12042 0
M  V30 5827 C 531.186 5.93999 -1.43556 0
M  V30 5828 C 532.184 6.44326 -2.26568 0
M  V30 5829 O 531.872 7.36267 -3.22749 0
M  V30 5830 H 531.604 0.673509 0.0579763 0
M  V30 5831 H 534.158 1.99748 -0.478521 0
M  V30 5832 H 532.388 3.53896 1.55867 0
M  V30 5833 H 534.077 3.85184 1.28017 0
M  V30 5834 H 534.843 4.73716 -1.04009 0
M  V30 5835 H 530.722 4.60652 0.179142 0
M  V30 5836 H 534.266 6.40302 -2.76873 0
M  V30 5837 H 530.163 6.26825 -1.54146 0
M  V30 5838 H 530.931 7.54165 -3.18083 0
M  V30 5839 N 533.594 0.0601682 1.57485 0
M  V30 5840 C 534.524 -0.90889 2.15085 0
M  V30 5841 C 535.505 -1.31838 1.07484 0
M  V30 5842 O 536.69 -1.3915 1.35466 0
M  V30 5843 C 533.82 -2.18059 2.7031 0
M  V30 5844 C 532.774 -1.91088 3.82974 0
M  V30 5845 C 532.1 -3.24789 4.24754 0
M  V30 5846 C 533.4 -1.22535 5.07723 0
M  V30 5847 H 535.094 -0.429093 2.96309 0
M  V30 5848 H 532.64 -0.204952 1.42534 0
M  V30 5849 H 534.593 -2.86258 3.09248 0
M  V30 5850 H 533.317 -2.6826 1.8629 0
M  V30 5851 H 531.976 -1.25297 3.44523 0
M  V30 5852 H 531.624 -3.72809 3.37672 0
M  V30 5853 H 531.324 -3.07538 5.00694 0
M  V30 5854 H 532.848 -3.94205 4.66299 0
M  V30 5855 H 534.262 -1.80783 5.4405 0
M  V30 5856 H 532.659 -1.1558 5.88864 0
M  V30 5857 H 533.729 -0.202692 4.84476 0
M  V30 5858 N 535.072 -1.5615 -0.213296 0
M  V30 5859 C 536.002 -1.96109 -1.26742 0
M  V30 5860 C 536.983 -0.830448 -1.48451 0
M  V30 5861 O 538.168 -1.09339 -1.60495 0
M  V30 5862 C 535.298 -2.28492 -2.61551 0
M  V30 5863 C 534.252 -3.44124 -2.54485 0
M  V30 5864 C 533.578 -3.62134 -3.93399 0
M  V30 5865 C 534.878 -4.78855 -2.08556 0
M  V30 5866 H 536.572 -2.84412 -0.935434 0
M  V30 5867 H 534.118 -1.36836 -0.44854 0
M  V30 5868 H 536.071 -2.55039 -3.3546 0
M  V30 5869 H 534.795 -1.37052 -2.96453 0
M  V30 5870 H 533.454 -3.17639 -1.83033 0
M  V30 5871 H 533.102 -2.68055 -4.25623 0
M  V30 5872 H 532.802 -4.39913 -3.89551 0
M  V30 5873 H 534.326 -3.91038 -4.68958 0
M  V30 5874 H 535.74 -5.04552 -2.72213 0
M  V30 5875 H 534.137 -5.59975 -2.1575 0
M  V30 5876 H 535.207 -4.73657 -1.03811 0
M  V30 5877 N 536.55 0.480323 -1.50102 0
M  V30 5878 C 537.48 1.58769 -1.71215 0
M  V30 5879 C 538.461 1.60583 -0.560997 0
M  V30 5880 O 539.646 1.76996 -0.799127 0
M  V30 5881 C 536.776 2.97148 -1.79778 0
M  V30 5882 C 535.73 3.10201 -2.94888 0
M  V30 5883 C 535.056 4.50137 -2.88584 0
M  V30 5884 C 536.356 2.88283 -4.35534 0
M  V30 5885 H 538.05 1.41354 -2.6393 0
M  V30 5886 H 535.596 0.678591 -1.27008 0
M  V30 5887 H 537.549 3.74536 -1.93133 0
M  V30 5888 H 536.273 3.15699 -0.836772 0
M  V30 5889 H 534.932 2.35244 -2.81169 0
M  V30 5890 H 534.58 4.65593 -1.90349 0
M  V30 5891 H 534.28 4.59808 -3.65856 0
M  V30 5892 H 535.804 5.29558 -3.03976 0
M  V30 5893 H 537.218 3.55427 -4.49827 0
M  V30 5894 H 535.615 3.09408 -5.14186 0
M  V30 5895 H 536.685 1.84219 -4.48544 0
M  V30 5896 N 538.028 1.39524 0.732853 0
M  V30 5897 C 539.276 1.36594 1.48951 0
M  V30 5898 C 539.597 -0.0367507 1.94965 0
M  V30 5899 O 538.867 -0.988391 1.69138 0
M  V30 5900 H 537.447 0.502673 0.552566 0
M  V30 5901 H 540.109 1.74411 0.869869 0
M  V30 5902 H 539.205 2.03 2.3706 0
M  V30 5903 N 539.506 -0.963266 1.24736 0
M  V30 5904 C 540.922 -1.23273 1.01371 0
M  V30 5905 C 541.122 -1.99618 -0.274776 0
M  V30 5906 O 540.178 -2.32293 -0.989769 0
M  V30 5907 C 541.491 -2.01554 2.23152 0
M  V30 5908 C 543.039 -2.14629 2.27823 0
M  V30 5909 C 543.514 -2.96307 3.49237 0
M  V30 5910 N 545.005 -3.03887 3.49581 0
M  V30 5911 C 545.74 -3.67456 4.40186 0
M  V30 5912 N 545.236 -4.32706 5.41052 0
M  V30 5913 N 547.029 -3.64511 4.27888 0
M  V30 5914 H 539.18 -0.452294 2.07528 0
M  V30 5915 H 541.443 -0.262521 0.910926 0
M  V30 5916 H 541.149 -1.52847 3.1675 0
M  V30 5917 H 541.023 -3.02278 2.25628 0
M  V30 5918 H 543.41 -2.62537 1.34753 0
M  V30 5919 H 543.491 -1.13238 2.2937 0
M  V30 5920 H 543.135 -2.49091 4.42624 0
M  V30 5921 H 543.065 -3.97905 3.44933 0
M  V30 5922 H 545.556 -2.57477 2.76611 0
M  V30 5923 H 545.869 -4.79042 6.06415 0
M  V30 5924 H 544.214 -4.31361 5.44934 0
M  V30 5925 H 547.405 -3.12715 3.4832 0
M  V30 5926 H 547.578 -4.13768 4.98698 0
M  V30 5927 N 540.985 -1.06182 -1.16461 0
M  V30 5928 C 541.932 -0.671613 -2.20812 0
M  V30 5929 C 542.902 0.331186 -1.62765 0
M  V30 5930 O 544.087 0.22033 -1.89524 0
M  V30 5931 C 541.227 -0.063029 -3.45042 0
M  V30 5932 C 540.34 -1.11587 -4.1734 0
M  V30 5933 C 539.475 -0.473546 -5.29085 0
M  V30 5934 C 538.514 -1.51 -5.93182 0
M  V30 5935 N 537.651 -0.891118 -6.96422 0
M  V30 5936 H 542.491 -1.56589 -2.53542 0
M  V30 5937 H 540.028 -0.782951 -1.24532 0
M  V30 5938 H 541.986 0.307344 -4.16066 0
M  V30 5939 H 540.616 0.794663 -3.12866 0
M  V30 5940 H 539.668 -1.60396 -3.44931 0
M  V30 5941 H 540.98 -1.90221 -4.61104 0
M  V30 5942 H 540.134 -0.0501432 -6.06679 0
M  V30 5943 H 538.873 0.344687 -4.8648 0
M  V30 5944 H 537.878 -1.94331 -5.14311 0
M  V30 5945 H 539.103 -2.33031 -6.37866 0
M  V30 5946 H 537.049 -0.0935753 -6.55933 0
M  V30 5947 H 536.966 -1.61486 -7.38551 0
M  V30 5948 H 538.234 -0.492822 -7.77941 0
M  V30 5949 N 542.463 1.3308 -0.844243 0
M  V30 5950 C 543.688 2.02341 -0.455282 0
M  V30 5951 C 544.113 1.6308 0.93737 0
M  V30 5952 O 543.471 0.826118 1.61385 0
M  V30 5953 C 543.519 3.55743 -0.58988 0
M  V30 5954 O 542.623 4.1063 0.38166 0
M  V30 5955 H 541.964 0.637898 -0.184343 0
M  V30 5956 H 544.494 1.6986 -1.14056 0
M  V30 5957 H 544.504 4.05243 -0.473522 0
M  V30 5958 H 543.179 3.83662 -1.60549 0
M  V30 5959 H 541.756 3.72236 0.22241 0
M  V30 5960 N 543.941 0.601185 1.45683 0
M  V30 5961 C 545.166 0.0982245 2.07167 0
M  V30 5962 C 545.591 -1.20546 1.44396 0
M  V30 5963 O 544.949 -1.73247 0.534347 0
M  V30 5964 C 544.997 -0.0346976 3.60583 0
M  V30 5965 O 544.101 -1.08657 3.97828 0
M  V30 5966 H 543.442 0.0711618 0.660176 0
M  V30 5967 H 545.972 0.829376 1.87036 0
M  V30 5968 H 545.982 -0.234969 4.07323 0
M  V30 5969 H 544.657 0.917265 4.05659 0
M  V30 5970 H 543.234 -0.863275 3.6277 0
M  V30 5971 N 545.419 -1.53889 0.339982 0
M  V30 5972 C 546.329 -2.28604 -0.526988 0
M  V30 5973 C 547.345 -1.33578 -1.11503 0
M  V30 5974 O 548.521 -1.66612 -1.13148 0
M  V30 5975 C 545.586 -3.04164 -1.66389 0
M  V30 5976 C 544.647 -4.14809 -1.10599 0
M  V30 5977 C 543.88 -4.86756 -2.18871 0
M  V30 5978 O 544.103 -4.58343 -3.39526 0
M  V30 5979 O 543.037 -5.73289 -1.83366 0
M  V30 5980 H 546.863 -3.03594 0.0802707 0
M  V30 5981 H 544.448 -1.4903 0.105141 0
M  V30 5982 H 546.33 -3.51427 -2.32544 0
M  V30 5983 H 545.005 -2.32035 -2.25703 0
M  V30 5984 H 543.912 -3.71857 -0.409067 0
M  V30 5985 H 545.245 -4.89029 -0.557771 0
M  V30 5986 N 546.897 -0.0685191 -1.57451 0
M  V30 5987 C 547.827 0.89747 -2.15564 0
M  V30 5988 C 548.808 1.31266 -1.08181 0
M  V30 5989 O 549.993 1.38429 -1.36202 0
M  V30 5990 C 547.123 2.16623 -2.71463 0
M  V30 5991 C 546.077 1.89054 -3.83982 0
M  V30 5992 C 545.403 3.22532 -4.26471 0
M  V30 5993 C 546.703 1.1984 -5.08366 0
M  V30 5994 H 548.397 0.413373 -2.96533 0
M  V30 5995 H 545.943 0.197391 -1.42641 0
M  V30 5996 H 547.896 2.84614 -3.10761 0
M  V30 5997 H 546.62 2.67269 -1.8771 0
M  V30 5998 H 545.279 1.23469 -3.45183 0
M  V30 5999 H 544.927 3.71013 -3.39644 0
M  V30 6000 H 544.627 3.04879 -5.02317 0
M  V30 6001 H 546.151 3.91727 -4.68383 0
M  V30 6002 H 547.565 1.77896 -5.45001 0
M  V30 6003 H 545.962 1.12456 -5.89469 0
M  V30 6004 H 547.032 0.176996 -4.84577 0
M  V30 6005 N 548.375 1.56261 0.205012 0
M  V30 6006 C 549.652 1.70856 0.952233 0
M  V30 6007 C 550.032 0.620501 2.01775 0
M  V30 6008 O 549.38 -0.370035 2.25484 0
M  V30 6009 C 549.59 3.12807 1.54767 0
M  V30 6010 C 550.938 3.72733 2.0336 0
M  V30 6011 O 551.962 3.15873 1.64629 0
M  V30 6012 O 550.821 4.72501 2.746 0
M  V30 6013 H 547.915 0.696496 0.445895 0
M  V30 6014 H 550.461 1.6857 0.195489 0
M  V30 6015 H 549.233 3.83465 0.779132 0
M  V30 6016 H 548.856 3.1928 2.36951 0
M  V30 6017 N 549.853 -0.472356 1.50355 0
M  V30 6018 C 550.816 -1.5529 1.68576 0
M  V30 6019 C 551.816 -1.50863 0.556511 0
M  V30 6020 O 553.006 -1.53505 0.823516 0
M  V30 6021 C 550.138 -2.94921 1.70981 0
M  V30 6022 H 551.331 -1.40451 2.64978 0
M  V30 6023 H 548.884 -0.698645 1.39816 0
M  V30 6024 H 549.619 -3.15204 0.762675 0
M  V30 6025 H 549.404 -2.99541 2.53017 0
M  V30 6026 H 550.894 -3.73372 1.87037 0
M  V30 6027 N 551.331 -1.39911 -0.725443 0
M  V30 6028 C 552.556 -1.41137 -1.5197 0
M  V30 6029 C 552.981 -0.010262 -1.88097 0
M  V30 6030 O 552.339 0.979184 -1.52583 0
M  V30 6031 C 552.387 -2.2994 -2.77777 0
M  V30 6032 O 551.491 -1.73586 -3.74088 0
M  V30 6033 H 550.832 -0.480219 -0.458569 0
M  V30 6034 H 553.362 -1.84023 -0.894249 0
M  V30 6035 H 553.372 -2.44785 -3.26411 0
M  V30 6036 H 552.047 -3.31759 -2.50816 0
M  V30 6037 H 550.624 -1.68035 -3.32894 0
M  V30 6038 N 552.809 0.956637 -1.25245 0
M  V30 6039 C 554.086 1.67716 -1.00651 0
M  V30 6040 C 554.466 2.0585 0.467866 0
M  V30 6041 O 553.814 1.77029 1.44475 0
M  V30 6042 C 554.024 2.90093 -1.94028 0
M  V30 6043 C 555.372 3.6209 -2.21756 0
M  V30 6044 O 556.396 3.00171 -1.9177 0
M  V30 6045 O 555.255 4.7358 -2.72735 0
M  V30 6046 H 552.349 0.733731 -0.381533 0
M  V30 6047 H 554.895 1.00974 -1.3639 0
M  V30 6048 H 553.667 2.58689 -2.93591 0
M  V30 6049 H 553.29 3.64566 -1.58674 0
M  V30 6050 N 554.287 1.06798 1.15896 0
M  V30 6051 C 555.512 0.808739 1.90982 0
M  V30 6052 C 555.937 -0.6316 1.77179 0
M  V30 6053 O 555.295 -1.4407 1.10061 0
M  V30 6054 C 555.343 1.21468 3.39526 0
M  V30 6055 O 554.447 0.356562 4.10856 0
M  V30 6056 H 553.788 0.29512 0.594811 0
M  V30 6057 H 556.318 1.42513 1.46804 0
M  V30 6058 H 556.328 1.18844 3.90308 0
M  V30 6059 H 555.003 2.26379 3.48891 0
M  V30 6060 H 553.58 0.444808 3.70238 0
M  V30 6061 N 555.766 -1.3263 0.851289 0
M  V30 6062 C 556.991 -2.02097 0.466006 0
M  V30 6063 C 557.416 -1.63574 -0.928709 0
M  V30 6064 O 556.774 -0.834665 -1.60944 0
M  V30 6065 C 556.822 -3.55425 0.608737 0
M  V30 6066 O 555.926 -4.10827 -0.359878 0
M  V30 6067 H 555.267 -0.636911 0.187724 0
M  V30 6068 H 557.797 -1.69253 1.14955 0
M  V30 6069 H 557.807 -4.04986 0.495006 0
M  V30 6070 H 556.482 -3.82806 1.62581 0
M  V30 6071 H 555.059 -3.72349 -0.202666 0
M  V30 6072 N 557.244 -0.608902 -1.45362 0
M  V30 6073 C 558.469 -0.10921 -2.07112 0
M  V30 6074 C 558.894 1.19779 -1.45033 0
M  V30 6075 O 558.252 1.72961 -0.543527 0
M  V30 6076 C 558.3 0.0155745 -3.60597 0
M  V30 6077 O 557.404 1.06546 -3.98399 0
M  V30 6078 H 556.745 -0.0746619 -0.659789 0
M  V30 6079 H 559.275 -0.839283 -1.86594 0
M  V30 6080 H 559.285 0.213364 -4.07442 0
M  V30 6081 H 557.96 -0.938765 -4.05167 0
M  V30 6082 H 556.537 0.844024 -3.63223 0
M  V30 6083 N 558.722 1.53707 -0.348139 0
M  V30 6084 C 559.947 2.05877 0.250883 0
M  V30 6085 C 560.372 1.22115 1.43072 0
M  V30 6086 O 559.73 0.235986 1.79758 0
M  V30 6087 C 559.778 3.54886 0.639416 0
M  V30 6088 O 558.882 3.73948 1.73888 0
M  V30 6089 H 558.223 0.662754 0.040653 0
M  V30 6090 H 560.753 1.98303 -0.503685 0
M  V30 6091 H 560.763 3.97601 0.915295 0
M  V30 6092 H 559.438 4.153 -0.223386 0
M  V30 6093 H 558.015 3.43134 1.45991 0
M  V30 6094 N 560.2 0.0768682 1.57412 0
M  V30 6095 C 561.425 -0.603404 1.98428 0
M  V30 6096 C 561.85 -1.62047 0.955108 0
M  V30 6097 O 561.208 -1.81129 -0.0786778 0
M  V30 6098 C 561.256 -1.24396 3.38464 0
M  V30 6099 O 560.36 -2.35982 3.3821 0
M  V30 6100 H 559.701 -0.154741 0.645718 0
M  V30 6101 H 562.231 0.152885 2.04028 0
M  V30 6102 H 562.241 -1.5896 3.7576 0
M  V30 6103 H 560.916 -0.498735 4.12899 0
M  V30 6104 H 559.493 -2.03173 3.1269 0
M  V30 6105 N 561.678 -1.56367 -0.196722 0
M  V30 6106 C 562.626 -1.95304 -1.2633 0
M  V30 6107 C 563.62 -0.838252 -1.47206 0
M  V30 6108 O 564.826 -1.02325 -1.48087 0
M  V30 6109 H 561.201 -0.621013 -0.424083 0
M  V30 6110 H 563.172 -2.84254 -0.907879 0
M  V30 6111 C 561.921 -2.3074 -2.60104 0
M  V30 6112 H 561.244 -3.16047 -2.44856 0
M  V30 6113 H 562.684 -2.61849 -3.33484 0
M  V30 6114 C 561.143 -1.14143 -3.16975 0
M  V30 6115 O 561.673 -0.415602 -3.99544 0
M  V30 6116 N 559.879 -0.91867 -2.75697 0
M  V30 6117 H 559.426 -1.51065 -2.08656 0
M  V30 6118 H 559.384 -0.140321 -3.14087 0
M  V30 6119 N 563.156 0.464375 -1.50603 0
M  V30 6120 C 564.086 1.56944 -1.72889 0
M  V30 6121 C 565.067 1.59979 -0.577997 0
M  V30 6122 O 566.252 1.76138 -0.817855 0
M  V30 6123 C 563.382 2.95225 -1.8292 0
M  V30 6124 C 562.336 3.07056 -2.98162 0
M  V30 6125 C 561.662 4.47051 -2.93343 0
M  V30 6126 C 562.962 2.83648 -4.38567 0
M  V30 6127 H 564.656 1.38547 -2.65415 0
M  V30 6128 H 562.202 0.665082 -1.27721 0
M  V30 6129 H 564.155 3.72467 -1.97095 0
M  V30 6130 H 562.879 3.14793 -0.870209 0
M  V30 6131 H 561.538 2.32248 -2.83648 0
M  V30 6132 H 561.186 4.63547 -1.95276 0
M  V30 6133 H 560.886 4.55902 -3.70712 0
M  V30 6134 H 562.41 5.26304 -3.09575 0
M  V30 6135 H 563.824 3.50636 -4.53572 0
M  V30 6136 H 562.221 3.03937 -5.17438 0
M  V30 6137 H 563.291 1.79451 -4.50472 0
M  V30 6138 N 564.634 1.40294 0.718013 0
M  V30 6139 C 565.859 1.41941 1.5122 0
M  V30 6140 C 566.284 0.0202371 1.88089 0
M  V30 6141 O 565.642 -0.971078 1.53101 0
M  V30 6142 C 565.69 2.3141 2.76554 0
M  V30 6143 O 564.794 1.75567 3.73162 0
M  V30 6144 H 564.135 0.482644 0.456016 0
M  V30 6145 H 566.665 1.84494 0.884478 0
M  V30 6146 H 566.675 2.46513 3.25108 0
M  V30 6147 H 565.35 3.33085 2.49053 0
M  V30 6148 H 563.927 1.69798 3.31999 0
M  V30 6149 N 566.112 -0.949982 1.2575 0
M  V30 6150 C 567.042 -2.06483 1.09028 0
M  V30 6151 C 568.023 -1.701 -0.00201532 0
M  V30 6152 O 569.208 -1.93469 0.168383 0
M  V30 6153 C 566.338 -3.39899 0.71316 0
M  V30 6154 C 565.292 -3.90309 1.75621 0
M  V30 6155 C 564.618 -5.20274 1.23365 0
M  V30 6156 C 565.918 -4.16169 3.15596 0
M  V30 6157 H 567.612 -2.20731 2.02283 0
M  V30 6158 H 565.158 -1.06066 0.973964 0
M  V30 6159 H 567.111 -4.17346 0.58309 0
M  V30 6160 H 565.835 -3.25602 -0.255091 0
M  V30 6161 H 564.494 -3.15035 1.8748 0
M  V30 6162 H 564.142 -5.02351 0.255491 0
M  V30 6163 H 563.842 -5.54971 1.93082 0
M  V30 6164 H 565.366 -6.00314 1.11607 0
M  V30 6165 H 566.78 -4.84259 3.06864 0
M  V30 6166 H 565.177 -4.62131 3.82825 0
M  V30 6167 H 566.247 -3.22273 3.6231 0
M  V30 6168 N 567.59 -1.07411 -1.15328 0
M  V30 6169 C 568.553 -0.698914 -2.18284 0
M  V30 6170 C 569.553 0.261149 -1.58665 0
M  V30 6171 O 570.743 0.0420277 -1.74149 0
M  V30 6172 C 567.875 -0.0302427 -3.40887 0
M  V30 6173 H 569.068 -1.61045 -2.52991 0
M  V30 6174 H 566.621 -0.870724 -1.298 0
M  V30 6175 H 567.356 0.893505 -3.11748 0
M  V30 6176 H 567.141 -0.720759 -3.85419 0
M  V30 6177 H 568.631 0.21759 -4.17033 0
M  V30 6178 N 569.068 1.32177 -0.85831 0
M  V30 6179 C 570.015 2.28794 -0.303607 0
M  V30 6180 C 570.985 1.55213 0.591453 0
M  V30 6181 O 572.17 1.83418 0.525585 0
M  V30 6182 C 569.31 3.41475 0.49889 0
M  V30 6183 C 568.423 4.2993 -0.422373 0
M  V30 6184 C 567.558 5.29743 0.393111 0
M  V30 6185 C 566.597 6.09842 -0.525317 0
M  V30 6186 N 565.734 7.01643 0.253208 0
M  V30 6187 H 570.574 2.75631 -1.13276 0
M  V30 6188 H 568.111 1.35606 -0.570026 0
M  V30 6189 H 570.069 4.05531 0.979826 0
M  V30 6190 H 568.699 2.95779 1.29284 0
M  V30 6191 H 567.751 3.66422 -1.02171 0
M  V30 6192 H 569.063 4.85899 -1.12709 0
M  V30 6193 H 568.217 5.9942 0.937056 0
M  V30 6194 H 566.956 4.744 1.13117 0
M  V30 6195 H 565.961 5.39066 -1.08112 0
M  V30 6196 H 567.186 6.6727 -1.26205 0
M  V30 6197 H 565.132 6.48725 0.974295 0
M  V30 6198 H 565.049 7.54981 -0.392398 0
M  V30 6199 H 566.317 7.756 0.778761 0
M  V30 6200 N 570.547 0.616602 1.45037 0
M  V30 6201 C 571.793 0.115501 2.02471 0
M  V30 6202 C 572.126 -1.25406 1.4828 0
M  V30 6203 O 571.401 -1.82922 0.661051 0
M  V30 6204 C 571.684 0.0863588 3.59996 0
M  V30 6205 C 571.537 1.48723 4.24501 0
M  V30 6206 C 572.856 -0.596762 4.36035 0
M  V30 6207 H 569.975 0.0434461 0.735718 0
M  V30 6208 H 572.617 0.7903 1.72784 0
M  V30 6209 H 570.767 -0.488277 3.85419 0
M  V30 6210 H 572.439 2.10964 4.10234 0
M  V30 6211 H 570.682 2.04534 3.82555 0
M  V30 6212 H 571.353 1.419 5.3345 0
M  V30 6213 H 573.829 -0.10824 4.15959 0
M  V30 6214 H 572.705 -0.586289 5.4576 0
M  V30 6215 H 572.966 -1.66451 4.09569 0
M  V30 6216 N 572.025 -1.5352 0.356285 0
M  V30 6217 C 573.441 -1.59599 0.00485267 0
M  V30 6218 C 573.641 -1.37179 -1.47595 0
M  V30 6219 O 572.697 -1.17234 -2.23635 0
M  V30 6220 C 574.01 -2.97277 0.452454 0
M  V30 6221 C 575.558 -3.10357 0.405881 0
M  V30 6222 C 576.033 -4.50432 0.829148 0
M  V30 6223 N 577.524 -4.5652 0.783838 0
M  V30 6224 C 578.259 -5.63077 1.08315 0
M  V30 6225 N 577.755 -6.77429 1.45126 0
M  V30 6226 N 579.548 -5.53014 1.00655 0
M  V30 6227 H 571.699 -1.66346 1.32071 0
M  V30 6228 H 573.962 -0.77971 0.539218 0
M  V30 6229 H 573.668 -3.18792 1.48542 0
M  V30 6230 H 573.542 -3.76836 -0.165762 0
M  V30 6231 H 575.929 -2.88558 -0.617934 0
M  V30 6232 H 576.01 -2.32828 1.05947 0
M  V30 6233 H 575.654 -4.72968 1.85103 0
M  V30 6234 H 575.584 -5.26378 0.152906 0
M  V30 6235 H 578.075 -3.74408 0.512513 0
M  V30 6236 H 578.388 -7.54669 1.66415 0
M  V30 6237 H 576.733 -6.78844 1.48983 0
M  V30 6238 H 579.924 -4.62557 0.718215 0
M  V30 6239 H 580.097 -6.35964 1.24315 0
M  V30 6240 N 573.503 -0.0852151 -1.57369 0
M  V30 6241 C 574.914 0.445428 -1.81309 0
M  V30 6242 C 575.265 1.68795 -1.00013 0
M  V30 6243 O 574.39 2.15211 -0.226573 0
M  V30 6244 C 574.985 0.814887 -3.28854 0
M  V30 6245 C 573.544 1.29032 -3.53592 0
M  V30 6246 C 572.691 0.282089 -2.75861 0
M  V30 6247 H 575.642 -0.310771 -1.55627 0
M  V30 6248 H 575.663 1.67524 -3.41637 0
M  V30 6249 H 575.175 -0.0896309 -3.87996 0
M  V30 6250 H 573.276 2.21289 -2.9977 0
M  V30 6251 H 573.389 1.25898 -4.62262 0
M  V30 6252 H 571.753 0.762182 -2.43029 0
M  V30 6253 H 572.536 -0.614936 -3.37748 0
M  V30 6254 N 574.981 1.5647 0.188427 0
M  V30 6255 C 576.206 1.85486 0.927891 0
M  V30 6256 C 576.631 0.669575 1.75779 0
M  V30 6257 O 575.989 -0.381573 1.77239 0
M  V30 6258 C 576.037 3.12784 1.7944 0
M  V30 6259 O 575.141 2.93805 2.894 0
M  V30 6260 H 574.482 0.610585 0.260925 0
M  V30 6261 H 577.012 2.037 0.191729 0
M  V30 6262 H 577.022 3.43749 2.19774 0
M  V30 6263 H 575.697 3.98671 1.18468 0
M  V30 6264 H 574.274 2.74153 2.52774 0
M  V30 6265 N 576.459 -0.456382 1.50847 0
M  V30 6266 C 577.684 -1.2349 1.66628 0
M  V30 6267 C 578.109 -1.84715 0.355254 0
M  V30 6268 O 577.467 -1.67961 -0.682559 0
M  V30 6269 C 577.515 -2.30865 2.77009 0
M  V30 6270 O 576.619 -3.35882 2.39285 0
M  V30 6271 H 575.96 -0.36266 0.556214 0
M  V30 6272 H 578.49 -0.541374 1.97308 0
M  V30 6273 H 578.5 -2.75949 3.00526 0
M  V30 6274 H 577.175 -1.85677 3.72152 0
M  V30 6275 H 575.752 -2.96406 2.26269 0
M  V30 6276 N 577.937 -1.40673 -0.710563 0
M  V30 6277 C 579.214 -1.29718 -1.46398 0
M  V30 6278 C 579.594 0.082177 -2.1094 0
M  V30 6279 O 578.942 1.09536 -2.00534 0
M  V30 6280 C 579.152 -2.43967 -2.49562 0
M  V30 6281 C 580.5 -2.84436 -3.15248 0
M  V30 6282 O 581.524 -2.43597 -2.59883 0
M  V30 6283 O 580.383 -3.55008 -4.1549 0
M  V30 6284 H 577.477 -0.509697 -0.651258 0
M  V30 6285 H 580.023 -1.52603 -0.742312 0
M  V30 6286 H 578.795 -3.36076 -2.0042 0
M  V30 6287 H 578.418 -2.22879 -3.29258 0
M  V30 6288 N 579.415 0.9433 -1.26252 0
M  V30 6289 C 580.345 2.05902 -1.10122 0
M  V30 6290 C 581.326 1.70099 -0.00700552 0
M  V30 6291 O 582.511 1.93377 -0.178641 0
M  V30 6292 C 579.641 3.39516 -0.731175 0
M  V30 6293 C 578.595 3.89372 -1.77688 0
M  V30 6294 C 577.921 5.19613 -1.26122 0
M  V30 6295 C 579.221 4.14489 -3.17799 0
M  V30 6296 H 580.915 2.19655 -2.03451 0
M  V30 6297 H 578.461 1.05548 -0.979576 0
M  V30 6298 H 580.414 4.17031 -0.605215 0
M  V30 6299 H 579.138 3.25733 0.23782 0
M  V30 6300 H 577.797 3.14036 -1.89148 0
M  V30 6301 H 577.445 5.02208 -0.282128 0
M  V30 6302 H 577.145 5.53939 -1.96023 0
M  V30 6303 H 578.669 5.99713 -1.14789 0
M  V30 6304 H 580.083 4.82625 -3.09428 0
M  V30 6305 H 578.48 4.60094 -3.85271 0
M  V30 6306 H 579.55 3.20347 -3.64014 0
M  V30 6307 N 580.893 1.08022 1.14757 0
M  V30 6308 C 581.841 0.701088 2.21783 0
M  V30 6309 C 582.835 -0.291311 1.66876 0
M  V30 6310 O 584.041 -0.154296 1.79337 0
M  V30 6311 H 580.416 0.208668 0.722469 0
M  V30 6312 H 582.387 1.61321 2.51034 0
M  V30 6313 C 581.136 0.122278 3.47485 0
M  V30 6314 H 580.459 0.877065 3.90061 0
M  V30 6315 H 581.899 -0.105248 4.23869 0
M  V30 6316 C 580.358 -1.13883 3.17068 0
M  V30 6317 O 580.888 -2.22429 3.34497 0
M  V30 6318 N 579.094 -1.04767 2.71058 0
M  V30 6319 H 578.641 -0.164302 2.57075 0
M  V30 6320 H 578.599 -1.89224 2.51081 0
M  V30 6321 N 582.371 -1.3172 0.865308 0
M  V30 6322 C 583.319 -2.30569 0.306674 0
M  V30 6323 C 584.313 -1.59317 -0.575724 0
M  V30 6324 O 585.519 -1.73961 -0.462343 0
M  V30 6325 H 581.894 -0.747681 0.0804834 0
M  V30 6326 H 583.865 -2.75165 1.15441 0
M  V30 6327 C 582.614 -3.44358 -0.480952 0
M  V30 6328 H 581.937 -3.99354 0.18876 0
M  V30 6329 H 583.377 -4.15652 -0.837241 0
M  V30 6330 C 581.836 -2.92574 -1.67039 0
M  V30 6331 O 582.366 -2.90954 -2.76964 0
M  V30 6332 N 580.572 -2.48835 -1.50097 0
M  V30 6333 H 580.119 -2.50353 -0.606738 0
M  V30 6334 H 580.077 -2.14543 -2.29823 0
M  V30 6335 N 583.85 -0.624285 -1.44708 0
M  V30 6336 C 585.075 -0.131171 -2.06985 0
M  V30 6337 C 585.5 1.18234 -1.46295 0
M  V30 6338 O 584.858 1.72375 -0.561842 0
M  V30 6339 C 584.906 -0.0226724 -3.60593 0
M  V30 6340 O 584.01 1.02314 -3.99507 0
M  V30 6341 H 583.351 -0.0816556 -0.65896 0
M  V30 6342 H 585.88 -0.859027 -1.85693 0
M  V30 6343 H 585.891 0.170138 -4.07645 0
M  V30 6344 H 584.566 -0.981685 -4.04148 0
M  V30 6345 H 583.143 0.805452 -3.64097 0
M  V30 6346 N 585.328 1.53329 -0.364422 0
M  V30 6347 C 586.556 2.05657 0.226424 0
M  V30 6348 C 586.971 1.23801 1.42544 0
M  V30 6349 O 586.328 0.27839 1.80364 0
M  V30 6350 C 586.379 3.56125 0.621056 0
M  V30 6351 O 586.1 4.34879 -0.530304 0
M  V30 6352 C 587.601 4.24706 1.27041 0
M  V30 6353 H 584.821 0.669806 0.0400056 0
M  V30 6354 H 587.365 1.97714 -0.522456 0
M  V30 6355 H 585.52 3.64223 1.31985 0
M  V30 6356 H 585.934 5.24073 -0.211546 0
M  V30 6357 H 587.408 5.3131 1.49711 0
M  V30 6358 H 587.885 3.78354 2.23036 0
M  V30 6359 H 588.491 4.20858 0.613079 0
M  V30 6360 N 586.806 0.0935595 1.57322 0
M  V30 6361 C 588.054 -0.569383 1.93913 0
M  V30 6362 C 588.375 -1.68817 0.976009 0
M  V30 6363 O 587.645 -1.9588 0.0278099 0
M  V30 6364 H 586.225 -0.21332 0.715894 0
M  V30 6365 H 588.887 0.156531 1.9427 0
M  V30 6366 H 587.983 -0.980577 2.96296 0
M  V30 6367 N 588.284 -1.56567 -0.180126 0
M  V30 6368 C 589.216 -1.92275 -1.24751 0
M  V30 6369 C 590.229 -0.814922 -1.40936 0
M  V30 6370 O 591.418 -1.09336 -1.41095 0
M  V30 6371 C 588.518 -2.15265 -2.61752 0
M  V30 6372 C 587.691 -3.46467 -2.66981 0
M  V30 6373 C 586.75 -3.58391 -3.85283 0
M  V30 6374 O 585.776 -4.31086 -3.7169 0
M  V30 6375 N 586.978 -2.92587 -5.01371 0
M  V30 6376 H 589.743 -2.84435 -0.944302 0
M  V30 6377 H 587.304 -1.57617 -0.369952 0
M  V30 6378 H 589.296 -2.20515 -3.39345 0
M  V30 6379 H 587.866 -1.29533 -2.845 0
M  V30 6380 H 587.086 -3.52953 -1.75549 0
M  V30 6381 H 588.374 -4.32819 -2.67479 0
M  V30 6382 H 587.772 -2.3338 -5.15316 0
M  V30 6383 H 586.329 -3.03444 -5.76858 0
M  V30 6384 N 589.762 0.448376 -1.51087 0
M  V30 6385 C 590.987 1.22605 -1.6728 0
M  V30 6386 C 591.412 1.84524 -0.365045 0
M  V30 6387 O 590.77 1.6832 0.673642 0
M  V30 6388 C 590.818 2.29393 -2.78229 0
M  V30 6389 O 589.922 3.34608 -2.41063 0
M  V30 6390 H 589.263 0.359705 -0.558129 0
M  V30 6391 H 591.793 0.530903 -1.97592 0
M  V30 6392 H 591.803 2.74352 -3.01986 0
M  V30 6393 H 590.478 1.83701 -3.73131 0
M  V30 6394 H 589.055 2.95202 -2.27838 0
M  V30 6395 N 591.24 1.41047 0.703093 0
M  V30 6396 C 592.651 1.35657 1.28274 0
M  V30 6397 C 593.002 0.0360309 1.96167 0
M  V30 6398 O 592.127 -0.865833 1.98324 0
M  V30 6399 C 592.722 2.45707 2.33267 0
M  V30 6400 C 591.281 2.43738 2.86825 0
M  V30 6401 C 590.428 2.25941 1.60767 0
M  V30 6402 H 593.379 1.50672 0.49836 0
M  V30 6403 H 593.4 2.14333 3.14391 0
M  V30 6404 H 592.912 3.41805 1.83824 0
M  V30 6405 H 591.013 1.51375 3.40465 0
M  V30 6406 H 591.126 3.39779 3.37768 0
M  V30 6407 H 589.49 1.73681 1.86298 0
M  V30 6408 H 590.273 3.24054 1.1333 0
M  V30 6409 N 592.718 -0.936591 1.26751 0
M  V30 6410 C 593.668 -2.0219 1.05371 0
M  V30 6411 C 594.652 -1.60893 -0.0154112 0
M  V30 6412 O 595.844 -1.75843 0.202085 0
M  V30 6413 C 592.973 -3.36222 0.693541 0
M  V30 6414 C 592.059 -3.8399 1.80035 0
M  V30 6415 N 592.45 -4.0436 3.03852 0
M  V30 6416 C 590.748 -4.12945 1.685 0
M  V30 6417 C 591.449 -4.44 3.75818 0
M  V30 6418 N 590.425 -4.50966 3.03531 0
M  V30 6419 H 594.227 -2.15958 1.99347 0
M  V30 6420 H 591.741 -1.12277 1.17335 0
M  V30 6421 H 593.738 -4.13625 0.521513 0
M  V30 6422 H 592.398 -3.23821 -0.238693 0
M  V30 6423 H 593.409 -3.9092 3.39709 0
M  V30 6424 H 590.086 -4.09308 0.822986 0
M  V30 6425 H 591.476 -4.67914 4.82189 0
M  V30 6426 N 594.196 -1.08629 -1.14182 0
M  V30 6427 C 595.146 -0.687882 -2.17376 0
M  V30 6428 C 596.13 0.293632 -1.58198 0
M  V30 6429 O 597.322 0.105292 -1.76687 0
M  V30 6430 C 594.451 -0.101184 -3.43151 0
M  V30 6431 C 593.537 -1.10862 -4.09354 0
M  V30 6432 N 593.928 -2.29285 -4.50846 0
M  V30 6433 C 592.226 -0.944897 -4.35876 0
M  V30 6434 C 592.927 -2.93305 -5.02342 0
M  V30 6435 N 591.903 -2.20903 -4.96692 0
M  V30 6436 H 595.705 -1.58963 -2.472 0
M  V30 6437 H 593.219 -0.961329 -1.3089 0
M  V30 6438 H 595.216 0.202209 -4.16409 0
M  V30 6439 H 593.876 0.795522 -3.14804 0
M  V30 6440 H 594.887 -2.66927 -4.43813 0
M  V30 6441 H 591.564 -0.102186 -4.17375 0
M  V30 6442 H 592.954 -3.93932 -5.44304 0
M  V30 6443 N 595.674 1.31259 -0.872281 0
M  V30 6444 C 596.621 2.28459 -0.327857 0
M  V30 6445 C 597.591 1.55831 0.574957 0
M  V30 6446 O 598.776 1.83965 0.506101 0
M  V30 6447 C 595.916 3.41985 0.462644 0
M  V30 6448 C 595.029 4.29458 -0.467949 0
M  V30 6449 C 594.164 5.30131 0.336903 0
M  V30 6450 C 593.203 6.0925 -0.58997 0
M  V30 6451 N 592.34 7.01872 0.178775 0
M  V30 6452 H 597.18 2.74414 -1.16193 0
M  V30 6453 H 594.717 1.34994 -0.584376 0
M  V30 6454 H 596.675 4.06547 0.936759 0
M  V30 6455 H 595.305 2.97134 1.2614 0
M  V30 6456 H 594.357 3.65318 -1.06052 0
M  V30 6457 H 595.669 4.84677 -1.17856 0
M  V30 6458 H 594.823 6.0038 0.873427 0
M  V30 6459 H 593.562 4.75573 1.08079 0
M  V30 6460 H 592.567 5.37889 -1.13823 0
M  V30 6461 H 593.792 6.65894 -1.33275 0
M  V30 6462 H 591.738 6.49721 0.905435 0
M  V30 6463 H 591.655 7.54522 -0.472452 0
M  V30 6464 H 592.923 7.76382 0.696454 0
M  V30 6465 N 597.152 0.631951 1.44375 0
M  V30 6466 C 598.398 0.13697 2.02337 0
M  V30 6467 C 598.731 -1.23826 1.49602 0
M  V30 6468 O 598.006 -1.8221 0.680415 0
M  V30 6469 C 598.289 0.124536 3.59885 0
M  V30 6470 C 598.142 1.53217 4.229 0
M  V30 6471 C 599.461 -0.550481 4.36644 0
M  V30 6472 H 596.58 0.051247 0.735216 0
M  V30 6473 H 599.222 0.808581 1.71936 0
M  V30 6474 H 597.372 -0.44737 3.85916 0
M  V30 6475 H 599.044 2.15303 4.07973 0
M  V30 6476 H 597.287 2.0858 3.80364 0
M  V30 6477 H 597.958 1.4755 5.31914 0
M  V30 6478 H 600.434 -0.0641154 4.16051 0
M  V30 6479 H 599.31 -0.528371 5.46351 0
M  V30 6480 H 599.571 -1.62097 4.11311 0
M  V30 6481 N 598.631 -1.53133 0.372548 0
M  V30 6482 C 599.563 -2.23557 -0.505444 0
M  V30 6483 C 600.576 -1.25211 -1.04049 0
M  V30 6484 O 601.765 -1.51391 -0.945675 0
M  V30 6485 C 598.865 -2.92516 -1.71136 0
M  V30 6486 C 598.038 -4.17428 -1.30661 0
M  V30 6487 C 597.097 -4.69535 -2.37536 0
M  V30 6488 O 596.123 -5.33042 -1.99637 0
M  V30 6489 N 597.325 -4.47947 -3.6922 0
M  V30 6490 H 600.09 -2.9954 0.0978259 0
M  V30 6491 H 597.651 -1.60684 0.198068 0
M  V30 6492 H 599.643 -3.24281 -2.42124 0
M  V30 6493 H 598.213 -2.19944 -2.22134 0
M  V30 6494 H 597.433 -3.91888 -0.426292 0
M  V30 6495 H 598.721 -4.98622 -1.01259 0
M  V30 6496 H 598.119 -3.97219 -4.02783 0
M  V30 6497 H 596.676 -4.84245 -4.36292 0
M  V30 6498 N 600.109 -0.101901 -1.5727 0
M  V30 6499 C 601.525 0.254739 -1.57554 0
M  V30 6500 C 601.725 1.67937 -1.11352 0
M  V30 6501 O 600.781 2.39722 -0.793081 0
M  V30 6502 C 602.094 0.036975 -3.00677 0
M  V30 6503 C 603.642 0.104199 -3.12827 0
M  V30 6504 C 604.117 -0.0856565 -4.5792 0
M  V30 6505 N 605.608 -0.0310498 -4.6319 0
M  V30 6506 C 606.343 -0.153099 -5.73196 0
M  V30 6507 N 605.839 -0.330364 -6.92012 0
M  V30 6508 N 607.632 -0.0938854 -5.62022 0
M  V30 6509 H 599.783 -1.03263 -1.85609 0
M  V30 6510 H 602.046 -0.405251 -0.857016 0
M  V30 6511 H 601.752 -0.947254 -3.38703 0
M  V30 6512 H 601.626 0.776335 -3.69124 0
M  V30 6513 H 604.013 1.07894 -2.74669 0
M  V30 6514 H 604.094 -0.666762 -2.46957 0
M  V30 6515 H 603.738 -1.05729 -4.96773 0
M  V30 6516 H 603.668 0.705082 -5.21858 0
M  V30 6517 H 606.159 0.103141 -3.77759 0
M  V30 6518 H 606.472 -0.41482 -7.71686 0
M  V30 6519 H 604.817 -0.366119 -6.94035 0
M  V30 6520 H 608.008 0.0435168 -4.6808 0
M  V30 6521 H 608.181 -0.19245 -6.47714 0
M  V30 6522 N 601.587 1.56661 0.17182 0
M  V30 6523 C 602.812 1.86459 0.908165 0
M  V30 6524 C 603.237 0.688181 1.75059 0
M  V30 6525 O 602.595 -0.362753 1.77634 0
M  V30 6526 C 602.643 3.14669 1.76112 0
M  V30 6527 O 601.747 2.96858 2.86268 0
M  V30 6528 H 601.088 0.613318 0.254434 0
M  V30 6529 H 603.618 2.03892 0.170113 0
M  V30 6530 H 603.628 3.46061 2.16115 0
M  V30 6531 H 602.303 3.99905 1.14233 0
M  V30 6532 H 600.88 2.76819 2.49852 0
M  V30 6533 N 603.065 -0.440357 1.51323 0
M  V30 6534 C 604.311 -1.19181 1.64085 0
M  V30 6535 C 604.644 -1.90936 0.354575 0
M  V30 6536 O 603.919 -1.8347 -0.645675 0
M  V30 6537 C 604.202 -2.2112 2.84215 0
M  V30 6538 C 604.055 -1.53468 4.22809 0
M  V30 6539 C 605.374 -3.22133 2.99864 0
M  V30 6540 H 602.493 -0.431924 0.597169 0
M  V30 6541 H 605.135 -0.481443 1.83799 0
M  V30 6542 H 603.285 -2.81703 2.67537 0
M  V30 6543 H 604.957 -0.962455 4.51148 0
M  V30 6544 H 603.2 -0.837086 4.25647 0
M  V30 6545 H 603.871 -2.27694 5.02852 0
M  V30 6546 H 606.347 -2.71601 3.15233 0
M  V30 6547 H 605.223 -3.90756 3.85488 0
M  V30 6548 H 605.484 -3.88061 2.11804 0
M  V30 6549 N 604.543 -1.41418 -0.695603 0
M  V30 6550 C 605.768 -1.44329 -1.48942 0
M  V30 6551 C 606.193 -0.0501579 -1.88033 0
M  V30 6552 O 605.551 0.946598 -1.54626 0
M  V30 6553 C 605.599 -2.3578 -2.72837 0
M  V30 6554 O 604.703 -1.81482 -3.70322 0
M  V30 6555 H 604.044 -0.489838 -0.44828 0
M  V30 6556 H 606.574 -1.85878 -0.855014 0
M  V30 6557 H 606.584 -2.51654 -3.21145 0
M  V30 6558 H 605.259 -3.37005 -2.43722 0
M  V30 6559 H 603.836 -1.75058 -3.29255 0
M  V30 6560 N 606.021 0.929856 -1.27246 0
M  V30 6561 C 607.246 1.71674 -1.16374 0
M  V30 6562 C 607.671 1.86064 0.276024 0
M  V30 6563 O 607.029 1.3591 1.19992 0
M  V30 6564 C 607.077 3.09526 -1.85003 0
M  V30 6565 O 606.181 3.96142 -1.14653 0
M  V30 6566 H 605.522 0.52629 -0.404863 0
M  V30 6567 H 608.052 1.16381 -1.68276 0
M  V30 6568 H 608.062 3.59852 -1.92276 0
M  V30 6569 H 606.737 2.98369 -2.89739 0
M  V30 6570 H 605.314 3.54584 -1.15433 0
M  V30 6571 N 607.499 1.09233 1.13605 0
M  V30 6572 C 608.724 0.849067 1.89224 0
M  V30 6573 C 609.149 -0.593875 1.78479 0
M  V30 6574 O 608.507 -1.41703 1.13092 0
M  V30 6575 C 608.555 1.28642 3.36873 0
M  V30 6576 O 607.659 0.44363 4.10007 0
M  V30 6577 H 607 0.30767 0.588417 0
M  V30 6578 H 609.53 1.45595 1.43748 0
M  V30 6579 H 609.54 1.27096 3.87699 0
M  V30 6580 H 608.215 2.33729 3.44011 0
M  V30 6581 H 606.792 0.523241 3.69211 0
M  V30 6582 N 608.977 -1.30795 0.87923 0
M  V30 6583 C 609.909 -2.27241 0.299025 0
M  V30 6584 C 610.922 -1.53472 -0.543166 0
M  V30 6585 O 612.111 -1.74756 -0.363651 0
M  V30 6586 C 609.211 -3.33655 -0.593931 0
M  V30 6587 C 608.384 -4.36857 0.2179 0
M  V30 6588 C 607.443 -5.22715 -0.604646 0
M  V30 6589 O 606.469 -5.69192 -0.0293838 0
M  V30 6590 N 607.671 -5.48008 -1.91488 0
M  V30 6591 H 610.436 -2.77667 1.12788 0
M  V30 6592 H 607.997 -1.43914 0.741637 0
M  V30 6593 H 609.989 -3.88013 -1.15012 0
M  V30 6594 H 608.559 -2.83202 -1.32346 0
M  V30 6595 H 607.779 -3.82444 0.955536 0
M  V30 6596 H 609.067 -5.02869 0.774614 0
M  V30 6597 H 608.465 -5.1202 -2.40525 0
M  V30 6598 H 607.022 -6.05264 -2.41864 0
M  V30 6599 N 610.455 -0.639598 -1.44038 0
M  V30 6600 C 611.402 0.0602458 -2.30721 0
M  V30 6601 C 612.372 0.828352 -1.43971 0
M  V30 6602 O 613.557 0.807693 -1.72861 0
M  V30 6603 C 610.697 1.03008 -3.29368 0
M  V30 6604 C 609.81 0.259502 -4.3122 0
M  V30 6605 C 608.945 1.22191 -5.16955 0
M  V30 6606 C 607.984 0.440978 -6.10509 0
M  V30 6607 N 607.121 1.35428 -6.88915 0
M  V30 6608 H 611.961 -0.684867 -2.90023 0
M  V30 6609 H 609.498 -0.349509 -1.42888 0
M  V30 6610 H 611.456 1.60583 -3.85057 0
M  V30 6611 H 610.086 1.74222 -2.71747 0
M  V30 6612 H 609.138 -0.432317 -3.77935 0
M  V30 6613 H 610.45 -0.348347 -4.97582 0
M  V30 6614 H 609.604 1.86873 -5.77203 0
M  V30 6615 H 608.343 1.86367 -4.50687 0
M  V30 6616 H 607.348 -0.219279 -5.49363 0
M  V30 6617 H 608.573 -0.196192 -6.78817 0
M  V30 6618 H 606.519 1.9831 -6.25307 0
M  V30 6619 H 606.436 0.800657 -7.51748 0
M  V30 6620 H 607.704 1.98967 -7.53679 0
M  V30 6621 N 611.933 1.52934 -0.380664 0
M  V30 6622 C 612.865 2.23822 0.493581 0
M  V30 6623 C 613.878 1.25761 1.03383 0
M  V30 6624 O 615.067 1.5189 0.937633 0
M  V30 6625 C 612.167 2.9342 1.69582 0
M  V30 6626 C 611.34 4.18115 1.28445 0
M  V30 6627 C 610.399 4.70788 2.35042 0
M  V30 6628 O 609.425 5.34093 1.96807 0
M  V30 6629 N 610.627 4.49899 3.66839 0
M  V30 6630 H 613.392 2.99484 -0.11371 0
M  V30 6631 H 610.953 1.60577 -0.206587 0
M  V30 6632 H 612.945 3.2556 2.40401 0
M  V30 6633 H 611.515 2.21119 2.20965 0
M  V30 6634 H 610.735 3.92109 0.405503 0
M  V30 6635 H 612.023 4.99152 0.986132 0
M  V30 6636 H 611.421 3.99349 4.0067 0
M  V30 6637 H 609.978 4.86551 4.33718 0
M  V30 6638 N 613.412 0.11024 1.57214 0
M  V30 6639 C 614.828 -0.24638 1.57687 0
M  V30 6640 C 615.028 -1.67344 1.12241 0
M  V30 6641 O 614.084 -2.39298 0.805783 0
M  V30 6642 C 615.397 -0.0210288 3.00693 0
M  V30 6643 C 616.945 -0.0876077 3.12877 0
M  V30 6644 C 617.42 0.10994 4.57868 0
M  V30 6645 N 618.911 0.0556135 4.63167 0
M  V30 6646 C 619.646 0.183495 5.73106 0
M  V30 6647 N 619.142 0.367058 6.91827 0
M  V30 6648 N 620.935 0.123689 5.61964 0
M  V30 6649 H 613.086 1.04246 1.85058 0
M  V30 6650 H 615.349 0.40979 0.854854 0
M  V30 6651 H 615.055 0.965203 3.38196 0
M  V30 6652 H 614.929 -0.756748 3.69531 0
M  V30 6653 H 617.316 -1.06436 2.75237 0
M  V30 6654 H 617.397 0.67985 2.466 0
M  V30 6655 H 617.041 1.08362 4.96206 0
M  V30 6656 H 616.971 -0.677397 5.22225 0
M  V30 6657 H 619.462 -0.0831062 3.77809 0
M  V30 6658 H 619.775 0.455739 7.71455 0
M  V30 6659 H 618.12 0.40292 6.93831 0
M  V30 6660 H 621.311 -0.0186928 4.68096 0
M  V30 6661 H 621.484 0.226797 6.47603 0
M  V30 6662 N 614.89 -1.56749 -0.16351 0
M  V30 6663 C 616.306 -1.51043 -0.515567 0
M  V30 6664 C 616.506 -0.815855 -1.84245 0
M  V30 6665 O 615.562 -0.379477 -2.49632 0
M  V30 6666 C 616.875 -2.95791 -0.541114 0
M  V30 6667 C 618.423 -3.0664 -0.627776 0
M  V30 6668 C 618.898 -4.52861 -0.684141 0
M  V30 6669 N 620.389 -4.5714 -0.746818 0
M  V30 6670 C 621.124 -5.67634 -0.811137 0
M  V30 6671 N 620.62 -6.8774 -0.835811 0
M  V30 6672 N 622.413 -5.55624 -0.850756 0
M  V30 6673 H 614.564 -2.00307 0.70645 0
M  V30 6674 H 616.827 -0.912876 0.255659 0
M  V30 6675 H 616.533 -3.49797 0.365329 0
M  V30 6676 H 616.407 -3.50858 -1.38487 0
M  V30 6677 H 618.794 -2.52663 -1.52464 0
M  V30 6678 H 618.875 -2.54645 0.242805 0
M  V30 6679 H 618.519 -5.07472 0.2085 0
M  V30 6680 H 618.449 -5.02621 -1.57098 0
M  V30 6681 H 620.94 -3.70669 -0.735717 0
M  V30 6682 H 621.253 -7.67701 -0.886279 0
M  V30 6683 H 619.598 -6.90334 -0.803958 0
M  V30 6684 H 622.789 -4.60709 -0.828535 0
M  V30 6685 H 622.962 -6.41756 -0.897418 0
M  V30 6686 N 616.368 0.432326 -1.51554 0
M  V30 6687 C 617.598 1.2019 -1.68042 0
M  V30 6688 C 618.006 1.85356 -0.379434 0
M  V30 6689 O 617.349 1.71724 0.652427 0
M  V30 6690 C 617.411 2.32387 -2.74292 0
M  V30 6691 C 617.075 1.87548 -4.16743 0
M  V30 6692 C 618.072 1.37611 -5.01357 0
M  V30 6693 C 615.757 1.95087 -4.62868 0
M  V30 6694 C 617.751 0.958069 -6.30159 0
M  V30 6695 C 615.438 1.52894 -5.91664 0
M  V30 6696 C 616.436 1.03336 -6.75137 0
M  V30 6697 O 616.124 0.617435 -8.01525 0
M  V30 6698 H 615.856 0.368132 -0.56697 0
M  V30 6699 H 618.41 0.517875 -1.98764 0
M  V30 6700 H 616.64 3.04082 -2.38895 0
M  V30 6701 H 618.329 2.94235 -2.79608 0
M  V30 6702 H 619.095 1.31178 -4.66923 0
M  V30 6703 H 614.974 2.32606 -3.98015 0
M  V30 6704 H 618.518 0.570562 -6.95263 0
M  V30 6705 H 614.415 1.58999 -6.25611 0
M  V30 6706 H 615.183 0.742835 -8.15122 0
M  V30 6707 N 617.846 1.41785 0.688094 0
M  V30 6708 C 619.071 1.45117 1.48175 0
M  V30 6709 C 619.496 0.060129 1.88004 0
M  V30 6710 O 618.854 -0.938385 1.55126 0
M  V30 6711 C 618.902 2.37224 2.71583 0
M  V30 6712 O 618.006 1.83443 3.69354 0
M  V30 6713 H 617.347 0.492208 0.445676 0
M  V30 6714 H 619.877 1.86329 0.845145 0
M  V30 6715 H 619.887 2.53353 3.19806 0
M  V30 6716 H 618.562 3.38293 2.41931 0
M  V30 6717 H 617.139 1.76802 3.28322 0
M  V30 6718 N 619.324 -0.923095 1.27737 0
M  V30 6719 C 620.601 -1.64989 1.05062 0
M  V30 6720 C 620.981 -2.07018 -0.413124 0
M  V30 6721 O 620.329 -1.80797 -1.39731 0
M  V30 6722 C 620.539 -2.84847 2.01652 0
M  V30 6723 C 621.887 -3.56083 2.31279 0
M  V30 6724 O 622.911 -2.94981 1.99662 0
M  V30 6725 O 621.77 -4.66182 2.85196 0
M  V30 6726 H 618.864 -0.723357 0.400853 0
M  V30 6727 H 621.41 -0.973224 1.3902 0
M  V30 6728 H 620.182 -2.50814 3.00347 0
M  V30 6729 H 619.805 -3.60231 1.68284 0
M  V30 6730 N 620.802 -1.09834 -1.13024 0
M  V30 6731 C 621.752 -0.710899 -2.16634 0
M  V30 6732 C 622.736 0.276836 -1.58501 0
M  V30 6733 O 623.928 0.0865457 -1.76788 0
M  V30 6734 C 621.057 -0.137574 -3.43024 0
M  V30 6735 C 620.143 -1.15198 -4.08155 0
M  V30 6736 N 620.534 -2.34054 -4.48388 0
M  V30 6737 C 618.832 -0.991074 -4.34849 0
M  V30 6738 C 619.533 -2.98616 -4.99203 0
M  V30 6739 N 618.509 -2.26159 -4.94321 0
M  V30 6740 H 622.311 -1.61576 -2.455 0
M  V30 6741 H 619.825 -0.975158 -1.29863 0
M  V30 6742 H 621.822 0.158031 -4.166 0
M  V30 6743 H 620.482 0.762088 -3.1563 0
M  V30 6744 H 621.493 -2.7162 -4.40957 0
M  V30 6745 H 618.17 -0.146448 -4.17243 0
M  V30 6746 H 619.56 -3.99683 -5.40096 0
M  V30 6747 N 622.28 1.30327 -0.886154 0
M  V30 6748 C 623.243 2.26376 -0.358687 0
M  V30 6749 C 624.243 1.52845 0.499498 0
M  V30 6750 O 625.433 1.71483 0.306485 0
M  V30 6751 C 622.565 3.37379 0.488726 0
M  V30 6752 H 623.758 2.74547 -1.20681 0
M  V30 6753 H 621.311 1.41536 -0.663113 0
M  V30 6754 H 622.046 2.94526 1.35739 0
M  V30 6755 H 621.831 3.91897 -0.126003 0
M  V30 6756 H 623.321 4.08868 0.84952 0
M  V30 6757 N 623.758 0.647228 1.43697 0
M  V30 6758 C 625.006 0.157876 2.01482 0
M  V30 6759 C 625.327 -1.23039 1.51282 0
M  V30 6760 O 624.597 -1.82071 0.722982 0
M  V30 6761 H 623.177 0.0553745 0.744945 0
M  V30 6762 H 625.839 0.83755 1.75986 0
M  V30 6763 H 624.935 0.137895 3.11795 0
M  V30 6764 N 625.236 -1.5273 0.388769 0
M  V30 6765 C 626.647 -1.86505 -0.0853788 0
M  V30 6766 C 626.998 -1.30847 -1.46197 0
M  V30 6767 O 626.123 -0.639609 -2.06732 0
M  V30 6768 C 626.718 -3.38414 -0.161703 0
M  V30 6769 C 625.277 -3.71902 -0.580144 0
M  V30 6770 C 624.424 -2.76095 0.258218 0
M  V30 6771 H 627.375 -1.46647 0.606665 0
M  V30 6772 H 627.396 -3.67638 -0.980936 0
M  V30 6773 H 626.908 -3.78893 0.840333 0
M  V30 6774 H 625.009 -3.36992 -1.58957 0
M  V30 6775 H 625.122 -4.77902 -0.338663 0
M  V30 6776 H 623.486 -2.53195 -0.276432 0
M  V30 6777 H 624.269 -3.19411 1.25822 0
M  V30 6778 N 626.714 -0.118576 -1.57153 0
M  V30 6779 C 627.677 0.817464 -2.14127 0
M  V30 6780 C 628.677 1.1949 -1.07604 0
M  V30 6781 O 629.867 1.12048 -1.33382 0
M  V30 6782 C 626.999 2.10541 -2.68115 0
M  V30 6783 H 628.192 0.322339 -2.98163 0
M  V30 6784 H 625.745 0.130655 -1.55753 0
M  V30 6785 H 626.48 2.64485 -1.87665 0
M  V30 6786 H 626.265 1.84425 -3.4602 0
M  V30 6787 H 627.755 2.77453 -3.12105 0
M  V30 6788 N 628.193 1.56834 0.155195 0
M  V30 6789 C 629.442 1.82088 0.867567 0
M  V30 6790 C 629.755 0.69849 1.82703 0
M  V30 6791 O 630.961 0.836407 2.58295 0
M  V30 6792 C 629.417 3.22707 1.59336 0
M  V30 6793 C 629.025 4.42859 0.676719 0
M  V30 6794 C 630.769 3.57242 2.293 0
M  V30 6795 C 628.676 5.74501 1.40367 0
M  V30 6796 H 627.606 0.679057 0.327715 0
M  V30 6797 H 630.257 1.83105 0.120351 0
M  V30 6798 H 628.639 3.16054 2.38591 0
M  V30 6799 H 629.813 4.60731 -0.0800196 0
M  V30 6800 H 628.128 4.16311 0.0859129 0
M  V30 6801 H 630.725 4.52847 2.84312 0
M  V30 6802 H 631.068 2.82901 3.05406 0
M  V30 6803 H 631.601 3.6552 1.56972 0
M  V30 6804 H 628.34 6.51915 0.684623 0
M  V30 6805 H 627.86 5.60579 2.13332 0
M  V30 6806 H 629.539 6.17016 1.94681 0
M  V30 6807 N 629.671 -0.424282 1.51781 0
M  V30 6808 C 631.082 -1.00368 1.57427 0
M  V30 6809 C 631.433 -1.91962 0.40558 0
M  V30 6810 O 630.558 -2.111 -0.47601 0
M  V30 6811 C 631.153 -1.82707 2.85313 0
M  V30 6812 C 629.712 -2.35675 2.93487 0
M  V30 6813 C 628.859 -1.1524 2.5222 0
M  V30 6814 H 631.81 -0.205064 1.5737 0
M  V30 6815 H 631.831 -2.68294 2.69812 0
M  V30 6816 H 631.343 -1.16017 3.70353 0
M  V30 6817 H 629.444 -3.05781 2.12906 0
M  V30 6818 H 629.557 -2.67578 3.97415 0
M  V30 6819 H 627.921 -1.50174 2.05718 0
M  V30 6820 H 628.704 -0.5014 3.39619 0
M  V30 6821 N 631.149 -1.42148 -0.680565 0
M  V30 6822 C 632.374 -1.45901 -1.47403 0
M  V30 6823 C 632.799 -0.0700985 -1.87969 0
M  V30 6824 O 632.157 0.930145 -1.55621 0
M  V30 6825 C 632.205 -2.38661 -2.70321 0
M  V30 6826 O 631.309 -1.85399 -3.68376 0
M  V30 6827 H 630.65 -0.494565 -0.443059 0
M  V30 6828 H 633.18 -1.86774 -0.835251 0
M  V30 6829 H 633.19 -2.55046 -3.18458 0
M  V30 6830 H 631.865 -3.39571 -2.40134 0
M  V30 6831 H 630.442 -1.78541 -3.2738 0
M  V30 6832 N 632.627 0.916307 -1.28225 0
M  V30 6833 C 633.873 1.66765 -1.154 0
M  V30 6834 C 634.206 1.91912 0.297251 0
M  V30 6835 O 633.481 1.51766 1.21644 0
M  V30 6836 C 633.764 3.02715 -1.95028 0
M  V30 6837 C 633.617 2.84738 -3.48201 0
M  V30 6838 C 634.936 4.03215 -1.76369 0
M  V30 6839 H 632.055 0.605205 -0.42059 0
M  V30 6840 H 634.697 1.06255 -1.57512 0
M  V30 6841 H 632.847 3.54365 -1.59242 0
M  V30 6842 H 634.519 2.40118 -3.9388 0
M  V30 6843 H 632.762 2.19848 -3.73964 0
M  V30 6844 H 633.433 3.8127 -3.99171 0
M  V30 6845 H 635.909 3.60617 -2.07593 0
M  V30 6846 H 634.785 4.96306 -2.34459 0
M  V30 6847 H 635.046 4.36288 -0.71452 0
M  V30 6848 N 634.105 1.10431 1.1244 0
M  V30 6849 C 635.351 0.847972 1.84221 0
M  V30 6850 C 635.684 -0.624903 1.83871 0
M  V30 6851 O 634.959 -1.46074 1.28423 0
M  V30 6852 C 635.242 1.39695 3.319 0
M  V30 6853 C 635.095 2.93668 3.40704 0
M  V30 6854 C 636.414 1.03924 4.27654 0
M  V30 6855 H 633.533 0.309502 0.668863 0
M  V30 6856 H 636.175 1.36745 1.31912 0
M  V30 6857 H 634.325 0.955095 3.76577 0
M  V30 6858 H 635.997 3.46379 3.04662 0
M  V30 6859 H 634.24 3.30272 2.81252 0
M  V30 6860 H 634.911 3.27162 4.446 0
M  V30 6861 H 637.387 1.42049 3.91102 0
M  V30 6862 H 636.263 1.45027 5.29394 0
M  V30 6863 H 636.524 -0.051336 4.4207 0
M  V30 6864 N 635.583 -1.29855 0.893053 0
M  V30 6865 C 636.546 -2.26183 0.370687 0
M  V30 6866 C 637.546 -1.53108 -0.491385 0
M  V30 6867 O 638.736 -1.71643 -0.297386 0
M  V30 6868 C 635.868 -3.37633 -0.470827 0
M  V30 6869 H 637.061 -2.73903 1.22135 0
M  V30 6870 H 634.614 -1.41183 0.67061 0
M  V30 6871 H 635.349 -2.95241 -1.34175 0
M  V30 6872 H 635.134 -3.91825 0.146784 0
M  V30 6873 H 636.624 -4.09313 -0.827825 0
M  V30 6874 N 637.061 -0.65484 -1.43351 0
M  V30 6875 C 638.291 -0.176429 -2.05845 0
M  V30 6876 C 638.699 1.16375 -1.49176 0
M  V30 6877 O 638.042 1.72981 -0.618322 0
M  V30 6878 C 638.104 -0.0125844 -3.59498 0
M  V30 6879 C 637.768 -1.27831 -4.38758 0
M  V30 6880 C 638.765 -2.2074 -4.70712 0
M  V30 6881 C 636.45 -1.52035 -4.78739 0
M  V30 6882 C 638.444 -3.36145 -5.41558 0
M  V30 6883 C 636.131 -2.67732 -5.49329 0
M  V30 6884 C 637.129 -3.59612 -5.80662 0
M  V30 6885 O 636.817 -4.73289 -6.4981 0
M  V30 6886 H 636.549 -0.0879682 -0.670252 0
M  V30 6887 H 639.103 -0.896193 -1.84818 0
M  V30 6888 H 637.333 0.762567 -3.79107 0
M  V30 6889 H 639.022 0.423392 -4.03686 0
M  V30 6890 H 639.788 -2.03284 -4.40341 0
M  V30 6891 H 635.667 -0.813987 -4.53757 0
M  V30 6892 H 639.211 -4.07881 -5.65932 0
M  V30 6893 H 635.108 -2.85122 -5.79116 0
M  V30 6894 H 635.876 -4.72575 -6.68293 0
M  V30 6895 N 638.539 1.52521 -0.396863 0
M  V30 6896 C 639.95 1.86547 0.0754868 0
M  V30 6897 C 640.301 1.31621 1.45501 0
M  V30 6898 O 639.426 0.650563 2.0639 0
M  V30 6899 C 640.021 3.38495 0.143754 0
M  V30 6900 C 638.58 3.72205 0.560413 0
M  V30 6901 C 637.727 2.75954 -0.272856 0
M  V30 6902 H 640.678 1.46323 -0.614434 0
M  V30 6903 H 640.699 3.68153 0.961425 0
M  V30 6904 H 640.211 3.78442 -0.860415 0
M  V30 6905 H 638.312 3.3783 1.57167 0
M  V30 6906 H 638.425 4.78074 0.313314 0
M  V30 6907 H 636.789 2.53339 0.263 0
M  V30 6908 H 637.572 3.1874 -1.27515 0
M  V30 6909 N 640.017 0.126909 1.57088 0
M  V30 6910 C 640.964 -0.82036 2.15728 0
M  V30 6911 C 641.934 -1.25811 1.08447 0
M  V30 6912 O 643.119 -1.33422 1.36393 0
M  V30 6913 C 640.259 -2.06199 2.76724 0
M  V30 6914 C 639.372 -1.67188 3.98337 0
M  V30 6915 C 638.507 -2.86378 4.47393 0
M  V30 6916 C 637.546 -2.43644 5.61519 0
M  V30 6917 N 636.683 -3.55775 6.05284 0
M  V30 6918 H 641.523 -0.313472 2.96347 0
M  V30 6919 H 639.06 -0.14303 1.46403 0
M  V30 6920 H 641.018 -2.78959 3.10222 0
M  V30 6921 H 639.648 -2.54333 1.98782 0
M  V30 6922 H 638.7 -0.842714 3.70948 0
M  V30 6923 H 640.012 -1.31789 4.81075 0
M  V30 6924 H 639.166 -3.67353 4.82842 0
M  V30 6925 H 637.905 -3.25009 3.63621 0
M  V30 6926 H 636.91 -1.61104 5.25667 0
M  V30 6927 H 638.135 -2.06122 6.47063 0
M  V30 6928 H 636.081 -3.94065 5.24451 0
M  V30 6929 H 635.998 -3.24325 6.82898 0
M  V30 6930 H 637.266 -4.37166 6.45373 0
M  V30 6931 N 641.495 -1.56914 -0.146875 0
M  V30 6932 C 642.911 -1.51582 -0.499518 0
M  V30 6933 C 643.111 -0.83535 -1.83369 0
M  V30 6934 O 642.167 -0.405932 -2.49216 0
M  V30 6935 C 643.48 -2.96349 -0.509711 0
M  V30 6936 C 645.028 -3.07288 -0.595217 0
M  V30 6937 C 645.503 -4.53562 -0.636071 0
M  V30 6938 N 646.994 -4.57906 -0.69829 0
M  V30 6939 C 647.729 -5.68462 -0.750886 0
M  V30 6940 N 647.225 -6.88588 -0.76282 0
M  V30 6941 N 649.018 -5.56496 -0.791777 0
M  V30 6942 H 641.169 -1.99547 0.727656 0
M  V30 6943 H 643.432 -0.910113 0.265327 0
M  V30 6944 H 643.138 -3.4939 0.402409 0
M  V30 6945 H 643.012 -3.52307 -1.34758 0
M  V30 6946 H 645.399 -2.54266 -1.49776 0
M  V30 6947 H 645.48 -2.54373 0.2698 0
M  V30 6948 H 645.124 -5.07222 0.262313 0
M  V30 6949 H 645.054 -5.04259 -1.51758 0
M  V30 6950 H 647.545 -3.71429 -0.696362 0
M  V30 6951 H 647.858 -7.68598 -0.804804 0
M  V30 6952 H 646.203 -6.91148 -0.730694 0
M  V30 6953 H 649.394 -4.61562 -0.779624 0
M  V30 6954 H 649.567 -6.42671 -0.829301 0
M  V30 6955 N 642.974 0.416227 -1.52004 0
M  V30 6956 C 644.199 1.19029 -1.69843 0
M  V30 6957 C 644.624 1.83708 -0.404103 0
M  V30 6958 O 643.982 1.69711 0.637787 0
M  V30 6959 C 644.03 2.23439 -2.83032 0
M  V30 6960 O 643.134 3.29419 -2.48106 0
M  V30 6961 H 642.475 0.347785 -0.565634 0
M  V30 6962 H 645.005 0.488871 -1.98674 0
M  V30 6963 H 645.015 2.67884 -3.07737 0
M  V30 6964 H 643.69 1.75745 -3.76944 0
M  V30 6965 H 642.267 2.90303 -2.34048 0
M  V30 6966 N 644.452 1.42507 0.673017 0
M  V30 6967 C 645.384 1.42074 1.79854 0
M  V30 6968 C 646.397 0.319569 1.59633 0
M  V30 6969 O 647.586 0.582769 1.68719 0
M  V30 6970 C 644.686 1.19886 3.16987 0
M  V30 6971 C 643.859 2.42471 3.64042 0
M  V30 6972 C 642.918 2.15802 4.79913 0
M  V30 6973 O 641.944 2.89015 4.90366 0
M  V30 6974 N 643.146 1.16225 5.68746 0
M  V30 6975 H 645.911 2.3909 1.8071 0
M  V30 6976 H 643.472 1.37409 0.856171 0
M  V30 6977 H 645.464 0.999591 3.92161 0
M  V30 6978 H 644.034 0.313879 3.1102 0
M  V30 6979 H 643.254 2.77954 2.79526 0
M  V30 6980 H 644.542 3.24097 3.92223 0
M  V30 6981 H 643.94 0.556756 5.62954 0
M  V30 6982 H 642.497 1.02285 6.43724 0
M  V30 6983 N 645.93 -0.909495 1.28709 0
M  V30 6984 C 647.158 -1.69272 1.18973 0
M  V30 6985 C 647.573 -1.87123 -0.251048 0
M  V30 6986 O 646.93 -1.40127 -1.16922 0
M  V30 6987 C 646.981 -3.08257 1.88839 0
M  V30 6988 O 646.702 -2.91228 3.27289 0
M  V30 6989 C 648.203 -4.02642 1.85457 0
M  V30 6990 H 645.423 -0.528999 0.412797 0
M  V30 6991 H 647.967 -1.13803 1.69909 0
M  V30 6992 H 646.122 -3.6053 1.41762 0
M  V30 6993 H 646.536 -3.79223 3.6234 0
M  V30 6994 H 648.01 -4.97613 2.38925 0
M  V30 6995 H 648.487 -4.31327 0.827893 0
M  V30 6996 H 649.093 -3.56298 2.32233 0
M  V30 6997 N 647.408 -1.11026 -1.11852 0
M  V30 6998 C 648.633 -0.879064 -1.87849 0
M  V30 6999 C 649.058 0.565406 -1.79401 0
M  V30 7000 O 648.416 1.39886 -1.15333 0
M  V30 7001 C 648.464 -1.33985 -3.34784 0
M  V30 7002 O 647.568 -0.508803 -4.09249 0
M  V30 7003 H 646.909 -0.316992 -0.583448 0
M  V30 7004 H 649.439 -1.47863 -1.41413 0
M  V30 7005 H 649.449 -1.33248 -3.85628 0
M  V30 7006 H 648.124 -2.39172 -3.40249 0
M  V30 7007 H 646.701 -0.581913 -3.68332 0
M  V30 7008 N 648.886 1.2938 -0.899927 0
M  V30 7009 C 650.114 1.99691 -0.541386 0
M  V30 7010 C 650.529 1.67355 0.873936 0
M  V30 7011 O 649.886 0.918728 1.57688 0
M  V30 7012 C 649.937 3.54168 -0.72438 0
M  V30 7013 O 649.658 3.85359 -2.08399 0
M  V30 7014 C 651.159 4.41746 -0.370819 0
M  V30 7015 H 648.379 0.638037 -0.207726 0
M  V30 7016 H 650.923 1.6491 -1.20934 0
M  V30 7017 H 649.078 3.87261 -0.103607 0
M  V30 7018 H 649.492 4.80032 -2.11352 0
M  V30 7019 H 650.966 5.49256 -0.549693 0
M  V30 7020 H 651.443 4.33712 0.692148 0
M  V30 7021 H 652.049 4.14125 -0.968543 0
M  V30 7022 N 650.364 0.662433 1.43002 0
M  V30 7023 C 651.327 -0.0142016 2.29196 0
M  V30 7024 C 652.327 -0.741394 1.42688 0
M  V30 7025 O 653.517 -0.581257 1.64216 0
M  V30 7026 C 650.649 -1.03084 3.24941 0
M  V30 7027 H 651.842 0.7443 2.90517 0
M  V30 7028 H 649.395 0.424133 1.50435 0
M  V30 7029 H 650.13 -1.81826 2.68533 0
M  V30 7030 H 649.915 -0.512946 3.8873 0
M  V30 7031 H 651.405 -1.50308 3.89612 0
M  V30 7032 N 651.842 -1.52309 0.404946 0
M  V30 7033 C 653.119 -1.94237 -0.230544 0
M  V30 7034 C 653.499 -1.34154 -1.6299 0
M  V30 7035 O 652.847 -0.515713 -2.22604 0
M  V30 7036 C 653.057 -3.48166 -0.241106 0
M  V30 7037 C 654.405 -4.22074 -0.462488 0
M  V30 7038 O 655.429 -3.54754 -0.320644 0
M  V30 7039 O 654.288 -5.41443 -0.741708 0
M  V30 7040 H 651.382 -0.813766 -0.147358 0
M  V30 7041 H 653.928 -1.6333 0.460587 0
M  V30 7042 H 652.7 -3.84269 0.738467 0
M  V30 7043 H 652.323 -3.85422 -0.97651 0
M  V30 7044 N 653.32 -0.135238 -1.57019 0
M  V30 7045 C 654.545 0.529343 -2.00531 0
M  V30 7046 C 654.97 1.58391 -1.01459 0
M  V30 7047 O 654.328 1.81296 0.0113986 0
M  V30 7048 C 654.376 1.11748 -3.42848 0
M  V30 7049 O 653.48 2.23267 -3.46736 0
M  V30 7050 H 652.821 0.130669 -0.651016 0
M  V30 7051 H 655.351 -0.228503 -2.0332 0
M  V30 7052 H 655.361 1.44905 -3.81401 0
M  V30 7053 H 654.036 0.345147 -4.14465 0
M  V30 7054 H 652.613 1.91428 -3.20015 0
M  V30 7055 N 654.798 1.5699 0.138552 0
M  V30 7056 C 656.075 1.74741 0.87891 0
M  V30 7057 C 656.455 0.705522 1.98961 0
M  V30 7058 O 655.803 -0.274066 2.2685 0
M  V30 7059 C 656.013 3.1909 1.4136 0
M  V30 7060 C 657.361 3.81023 1.87368 0
M  V30 7061 O 658.385 3.22571 1.51084 0
M  V30 7062 O 657.244 4.83722 2.54312 0
M  V30 7063 H 654.338 0.714781 0.415953 0
M  V30 7064 H 656.884 1.69248 0.123817 0
M  V30 7065 H 655.656 3.86424 0.61579 0
M  V30 7066 H 655.279 3.29043 2.23196 0
M  V30 7067 N 656.276 -0.40816 1.52223 0
M  V30 7068 C 657.206 -1.5042 1.78595 0
M  V30 7069 C 658.187 -1.57723 0.636974 0
M  V30 7070 O 659.372 -1.72982 0.882664 0
M  V30 7071 C 656.502 -2.88232 1.93751 0
M  V30 7072 C 655.456 -2.95779 3.09352 0
M  V30 7073 C 654.782 -4.35855 3.09732 0
M  V30 7074 C 656.082 -2.67175 4.48793 0
M  V30 7075 H 657.776 -1.28601 2.70374 0
M  V30 7076 H 655.322 -0.617221 1.30101 0
M  V30 7077 H 657.275 -3.64895 2.10783 0
M  V30 7078 H 655.999 -3.11347 0.986443 0
M  V30 7079 H 654.658 -2.21561 2.92072 0
M  V30 7080 H 654.306 -4.55981 2.12346 0
M  V30 7081 H 654.006 -4.41829 3.87377 0
M  V30 7082 H 655.53 -5.14451 3.28895 0
M  V30 7083 H 656.944 -3.3356 4.66273 0
M  V30 7084 H 655.341 -2.84523 5.28362 0
M  V30 7085 H 656.411 -1.62609 4.56822 0
M  V30 7086 N 657.755 -1.42862 -0.66545 0
M  V30 7087 C 658.702 -1.4707 -1.77874 0
M  V30 7088 C 659.672 -0.321654 -1.62956 0
M  V30 7089 O 660.857 -0.52707 -1.83376 0
M  V30 7090 C 657.997 -1.38788 -3.15962 0
M  V30 7091 C 657.11 -2.63801 -3.42101 0
M  V30 7092 C 656.245 -2.47594 -4.69969 0
M  V30 7093 C 655.284 -3.67936 -4.89172 0
M  V30 7094 N 654.421 -3.50614 -6.08288 0
M  V30 7095 H 659.261 -2.42204 -1.73613 0
M  V30 7096 H 656.798 -1.20239 -0.847401 0
M  V30 7097 H 658.756 -1.31982 -3.95773 0
M  V30 7098 H 657.386 -0.472431 -3.19324 0
M  V30 7099 H 656.438 -2.80935 -2.56475 0
M  V30 7100 H 657.75 -3.53228 -3.52181 0
M  V30 7101 H 656.904 -2.38427 -5.57886 0
M  V30 7102 H 655.643 -1.55672 -4.62188 0
M  V30 7103 H 654.648 -3.77525 -3.99694 0
M  V30 7104 H 655.873 -4.60851 -4.98792 0
M  V30 7105 H 653.819 -2.61417 -6.01662 0
M  V30 7106 H 653.736 -4.33634 -6.19272 0
M  V30 7107 H 655.004 -3.45276 -6.98859 0
M  V30 7108 N 659.233 0.902656 -1.29189 0
M  V30 7109 C 660.143 2.03946 -1.15944 0
M  V30 7110 C 661.159 1.738 -0.0833803 0
M  V30 7111 O 662.335 1.9923 -0.29487 0
M  V30 7112 C 659.4 3.36519 -0.834006 0
M  V30 7113 C 658.461 3.80203 -1.9936 0
M  V30 7114 C 657.694 5.06449 -1.68359 0
M  V30 7115 O 657.917 5.67202 -0.603141 0
M  V30 7116 O 656.851 5.46114 -2.53067 0
M  V30 7117 H 660.677 2.18043 -2.11403 0
M  V30 7118 H 658.262 1.02584 -1.08613 0
M  V30 7119 H 660.144 4.16089 -0.666949 0
M  V30 7120 H 658.819 3.23573 0.0908245 0
M  V30 7121 H 657.726 3.01413 -2.21588 0
M  V30 7122 H 659.059 3.97729 -2.89952 0
M  V30 7123 N 660.711 1.11618 1.11262 0
M  V30 7124 C 661.988 0.777876 1.79467 0
M  V30 7125 C 662.368 -0.733774 1.97937 0
M  V30 7126 O 661.716 -1.66443 1.56554 0
M  V30 7127 C 661.926 1.5431 3.13032 0
M  V30 7128 C 663.274 1.72357 3.88044 0
M  V30 7129 O 664.298 1.5075 3.22727 0
M  V30 7130 O 663.157 2.08276 5.05256 0
M  V30 7131 H 660.251 0.282018 0.777428 0
M  V30 7132 H 662.797 1.21971 1.17988 0
M  V30 7133 H 661.569 2.57132 2.94956 0
M  V30 7134 H 661.192 1.09495 3.82226 0
M  V30 7135 N 662.189 -1.289 0.906776 0
M  V30 7136 C 663.437 -1.94883 0.535266 0
M  V30 7137 C 663.758 -1.71784 -0.922791 0
M  V30 7138 O 663.028 -1.05359 -1.65156 0
M  V30 7139 H 661.608 -0.721109 0.194962 0
M  V30 7140 H 664.27 -1.57018 1.15461 0
M  V30 7141 H 663.366 -3.03591 0.723821 0
M  V30 7142 N 663.667 -0.670007 -1.42649 0
M  V30 7143 C 664.916 -0.187526 -2.00826 0
M  V30 7144 C 665.229 1.21142 -1.53571 0
M  V30 7145 O 666.435 1.79001 -2.04134 0
M  V30 7146 C 664.891 -0.284409 -3.58774 0
M  V30 7147 C 664.499 -1.6871 -4.15019 0
M  V30 7148 C 666.243 0.139605 -4.2427 0
M  V30 7149 C 664.15 -1.73701 -5.65316 0
M  V30 7150 H 663.08 -0.0663468 -0.751075 0
M  V30 7151 H 665.731 -0.834492 -1.63427 0
M  V30 7152 H 664.113 0.430364 -3.93655 0
M  V30 7153 H 665.287 -2.42857 -3.91608 0
M  V30 7154 H 663.602 -2.05855 -3.61957 0
M  V30 7155 H 666.199 0.122398 -5.3456 0
M  V30 7156 H 666.542 1.17403 -3.99402 0
M  V30 7157 H 667.075 -0.523995 -3.94334 0
M  V30 7158 H 663.814 -2.75109 -5.94975 0
M  V30 7159 H 663.334 -1.03903 -5.90732 0
M  V30 7160 H 665.013 -1.48829 -6.2965 0
M  V30 7161 N 665.145 1.52092 -0.413018 0
M  V30 7162 C 666.37 2.06756 0.163338 0
M  V30 7163 C 666.795 1.28073 1.37764 0
M  V30 7164 O 666.153 0.312015 1.78595 0
M  V30 7165 C 666.201 3.57278 0.488322 0
M  V30 7166 O 665.305 3.80986 1.57871 0
M  V30 7167 H 664.646 0.663882 0.0125068 0
M  V30 7168 H 667.176 1.95988 -0.587339 0
M  V30 7169 H 667.186 4.01125 0.745836 0
M  V30 7170 H 665.861 4.13978 -0.399327 0
M  V30 7171 H 664.438 3.49017 1.31306 0
M  V30 7172 N 666.623 0.143563 1.56945 0
M  V30 7173 C 667.848 -0.518701 2.00809 0
M  V30 7174 C 668.273 -1.5785 1.02298 0
M  V30 7175 O 667.631 -1.813 -0.0017839 0
M  V30 7176 C 667.679 -1.09929 3.43436 0
M  V30 7177 O 666.783 -2.21425 3.47915 0
M  V30 7178 H 666.124 -0.127215 0.6517 0
M  V30 7179 H 668.654 0.239283 2.03196 0
M  V30 7180 H 668.664 -1.4288 3.82164 0
M  V30 7181 H 667.339 -0.323162 4.14643 0
M  V30 7182 H 665.916 -1.89728 3.21026 0
M  V30 7183 N 668.101 -1.57061 -0.130224 0
M  V30 7184 C 669.517 -1.52103 -0.483413 0
M  V30 7185 C 669.717 -0.854752 -1.82473 0
M  V30 7186 O 668.773 -0.432342 -2.48771 0
M  V30 7187 C 670.086 -2.96872 -0.47825 0
M  V30 7188 C 671.634 -3.07902 -0.562592 0
M  V30 7189 C 672.109 -4.54211 -0.587929 0
M  V30 7190 N 673.6 -4.58621 -0.649684 0
M  V30 7191 C 674.335 -5.69227 -0.690551 0
M  V30 7192 N 673.831 -6.89358 -0.689743 0
M  V30 7193 N 675.624 -5.57304 -0.732708 0
M  V30 7194 H 667.775 -1.98764 0.748779 0
M  V30 7195 H 670.038 -0.907248 0.274965 0
M  V30 7196 H 669.744 -3.48944 0.439444 0
M  V30 7197 H 669.618 -3.53716 -1.31013 0
M  V30 7198 H 672.005 -2.5584 -1.47071 0
M  V30 7199 H 672.086 -2.54073 0.296764 0
M  V30 7200 H 671.73 -5.06915 0.316096 0
M  V30 7201 H 671.66 -5.0584 -1.46401 0
M  V30 7202 H 674.151 -3.72146 -0.656927 0
M  V30 7203 H 674.464 -7.69408 -0.723239 0
M  V30 7204 H 672.809 -6.91884 -0.657347 0
M  V30 7205 H 676 -4.62363 -0.730625 0
M  V30 7206 H 676.173 -6.43515 -0.76109 0
M  V30 7207 N 669.579 0.400081 -1.52437 0
M  V30 7208 C 670.526 1.48803 -1.76426 0
M  V30 7209 C 671.496 1.5461 -0.607032 0
M  V30 7210 O 672.681 1.71041 -0.845563 0
M  V30 7211 C 669.821 2.86156 -1.92896 0
M  V30 7212 C 668.934 2.89587 -3.20567 0
M  V30 7213 C 668.069 4.18296 -3.27417 0
M  V30 7214 C 667.108 4.15736 -4.49255 0
M  V30 7215 N 666.245 5.36032 -4.53447 0
M  V30 7216 H 671.085 1.27649 -2.69276 0
M  V30 7217 H 668.622 0.619451 -1.33421 0
M  V30 7218 H 670.58 3.65901 -2.00429 0
M  V30 7219 H 669.21 3.05785 -1.03418 0
M  V30 7220 H 668.262 2.02278 -3.22161 0
M  V30 7221 H 669.574 2.83562 -4.10358 0
M  V30 7222 H 668.728 5.06439 -3.34072 0
M  V30 7223 H 667.467 4.27028 -2.35581 0
M  V30 7224 H 666.472 3.25982 -4.42737 0
M  V30 7225 H 667.697 4.08636 -5.42396 0
M  V30 7226 H 665.643 5.45415 -3.64498 0
M  V30 7227 H 665.56 5.32038 -5.37096 0
M  V30 7228 H 666.828 6.26104 -4.64343 0
M  V30 7229 N 671.057 1.43213 0.657864 0
M  V30 7230 C 672.282 1.48227 1.45064 0
M  V30 7231 C 672.707 0.0999939 1.87834 0
M  V30 7232 O 672.065 -0.905269 1.57081 0
M  V30 7233 C 672.113 2.42931 2.6649 0
M  V30 7234 O 671.217 1.91237 3.6538 0
M  V30 7235 H 670.558 0.501551 0.435135 0
M  V30 7236 H 673.088 1.8808 0.805431 0
M  V30 7237 H 673.098 2.6008 3.1436 0
M  V30 7238 H 671.773 3.43348 2.34701 0
M  V30 7239 H 670.35 1.83726 3.24498 0
M  V30 7240 N 672.536 -0.895792 1.29666 0
M  V30 7241 C 673.761 -1.68528 1.20885 0
M  V30 7242 C 674.186 -1.8673 -0.226595 0
M  V30 7243 O 673.544 -1.39044 -1.16347 0
M  V30 7244 C 673.592 -3.04512 1.93144 0
M  V30 7245 O 672.696 -3.92963 1.25115 0
M  V30 7246 H 672.037 -0.515371 0.418675 0
M  V30 7247 H 674.567 -1.11878 1.71302 0
M  V30 7248 H 674.577 -3.54628 2.0175 0
M  V30 7249 H 673.252 -2.90582 2.97548 0
M  V30 7250 H 671.829 -3.51399 1.24794 0
M  V30 7251 N 674.014 -1.12206 -1.10668 0
M  V30 7252 C 675.262 -0.874144 -1.82217 0
M  V30 7253 C 675.583 0.601736 -1.85484 0
M  V30 7254 O 674.853 1.43725 -1.33116 0
M  V30 7255 H 673.433 -0.320404 -0.674797 0
M  V30 7256 H 676.095 -1.41606 -1.33917 0
M  V30 7257 H 675.191 -1.25349 -2.85822 0
M  V30 7258 N 675.492 1.28418 -0.913599 0
M  V30 7259 C 676.717 1.99643 -0.561899 0
M  V30 7260 C 677.142 1.67819 0.849608 0
M  V30 7261 O 676.5 0.910503 1.56779 0
M  V30 7262 C 676.548 3.52116 -0.777622 0
M  V30 7263 O 675.652 4.12076 0.163457 0
M  V30 7264 H 674.993 0.627229 -0.217898 0
M  V30 7265 H 677.523 1.63575 -1.229 0
M  V30 7266 H 677.533 4.02163 -0.687666 0
M  V30 7267 H 676.208 3.74613 -1.8066 0
M  V30 7268 H 674.785 3.72892 0.0247827 0
M  V30 7269 N 676.97 0.677563 1.42291 0
M  V30 7270 C 677.933 0.0101085 2.29198 0
M  V30 7271 C 678.933 -0.726219 1.43467 0
M  V30 7272 O 680.123 -0.563807 1.64824 0
M  V30 7273 C 677.255 -0.996316 3.26016 0
M  V30 7274 H 678.448 0.775071 2.89711 0
M  V30 7275 H 676.001 0.440065 1.49977 0
M  V30 7276 H 676.736 -1.78967 2.70446 0
M  V30 7277 H 676.521 -0.471687 3.89253 0
M  V30 7278 H 678.011 -1.46167 3.91184 0
M  V30 7279 N 678.448 -1.51871 0.421078 0
M  V30 7280 C 679.694 -2.02237 -0.151014 0
M  V30 7281 C 680.027 -1.30554 -1.43768 0
M  V30 7282 O 679.302 -0.41546 -1.90011 0
M  V30 7283 C 679.585 -3.5802 -0.386482 0
M  V30 7284 C 679.438 -4.40339 0.9177 0
M  V30 7285 C 680.757 -4.24444 -1.16342 0
M  V30 7286 H 677.876 -0.735062 -0.0534102 0
M  V30 7287 H 680.518 -1.81656 0.556888 0
M  V30 7288 H 678.668 -3.75688 -0.989494 0
M  V30 7289 H 680.34 -4.34357 1.55344 0
M  V30 7290 H 678.583 -4.06073 1.526 0
M  V30 7291 H 679.254 -5.47451 0.707187 0
M  V30 7292 H 681.73 -4.10948 -0.652788 0
M  V30 7293 H 680.606 -5.33358 -1.29693 0
M  V30 7294 H 680.867 -3.84204 -2.18724 0
M  V30 7295 N 679.926 -0.151884 -1.56866 0
M  V30 7296 C 681.174 0.497021 -1.95893 0
M  V30 7297 C 681.495 1.65078 -1.03799 0
M  V30 7298 O 680.765 1.95642 -0.10049 0
M  V30 7299 H 679.345 0.186603 -0.723318 0
M  V30 7300 H 682.007 -0.228525 -1.93556 0
M  V30 7301 H 681.103 0.869933 -2.99731 0
M  V30 7302 N 681.404 1.57128 0.121893 0
M  V30 7303 C 682.652 1.84335 0.828548 0
M  V30 7304 C 682.973 0.736632 1.80551 0
M  V30 7305 O 682.243 -0.23962 1.94429 0
M  V30 7306 H 680.823 0.680108 0.30897 0
M  V30 7307 H 683.485 1.9459 0.109906 0
M  V30 7308 H 682.581 2.80152 1.37554 0
M  V30 7309 N 682.882 -0.391992 1.52647 0
M  V30 7310 C 683.829 -1.47866 1.77213 0
M  V30 7311 C 684.799 -1.54286 0.615223 0
M  V30 7312 O 685.984 -1.7059 0.854622 0
M  V30 7313 C 683.124 -2.85129 1.94411 0
M  V30 7314 C 682.237 -2.87883 3.22098 0
M  V30 7315 C 681.372 -4.16553 3.29631 0
M  V30 7316 C 680.411 -4.13348 4.51453 0
M  V30 7317 N 679.548 -5.33619 4.56284 0
M  V30 7318 H 684.388 -1.26219 2.6995 0
M  V30 7319 H 681.925 -0.612367 1.33748 0
M  V30 7320 H 683.883 -3.64833 2.02367 0
M  V30 7321 H 682.513 -3.05232 1.05038 0
M  V30 7322 H 681.565 -2.00567 3.23229 0
M  V30 7323 H 682.877 -2.81382 4.11856 0
M  V30 7324 H 682.031 -5.0466 3.36753 0
M  V30 7325 H 680.77 -4.25773 2.37842 0
M  V30 7326 H 679.775 -3.23629 4.44459 0
M  V30 7327 H 681 -4.05754 5.44555 0
M  V30 7328 H 678.946 -5.43474 3.67385 0
M  V30 7329 H 678.863 -5.29182 5.3991 0
M  V30 7330 H 680.131 -6.23632 4.67657 0
M  V30 7331 N 684.36 -1.4356 -0.65026 0
M  V30 7332 C 685.608 -1.45046 -1.40734 0
M  V30 7333 C 685.929 -0.0769822 -1.94848 0
M  V30 7334 O 685.199 0.888098 -1.74613 0
M  V30 7335 H 683.779 -0.534034 -0.522318 0
M  V30 7336 H 686.441 -1.79186 -0.766703 0
M  V30 7337 H 685.537 -2.16476 -2.24822 0
M  V30 7338 N 685.838 0.888903 -1.30139 0
M  V30 7339 C 687.087 1.63507 -1.18103 0
M  V30 7340 C 687.4 1.93808 0.264141 0
M  V30 7341 O 688.606 2.66744 0.505966 0
M  V30 7342 C 687.062 2.94673 -2.0663 0
M  V30 7343 C 686.67 2.71926 -3.56034 0
M  V30 7344 C 688.414 3.72626 -2.03346 0
M  V30 7345 C 686.321 3.98884 -4.3663 0
M  V30 7346 H 685.251 0.613426 -0.438435 0
M  V30 7347 H 687.902 0.984427 -1.54859 0
M  V30 7348 H 686.284 3.61009 -1.62754 0
M  V30 7349 H 687.458 2.14116 -4.08033 0
M  V30 7350 H 685.773 2.07353 -3.61101 0
M  V30 7351 H 688.37 4.66775 -2.60816 0
M  V30 7352 H 688.713 4.03712 -1.016 0
M  V30 7353 H 689.246 3.13147 -2.45324 0
M  V30 7354 H 685.985 3.72959 -5.39056 0
M  V30 7355 H 685.505 4.56214 -3.89396 0
M  V30 7356 H 687.184 4.66938 -4.47859 0
M  V30 7357 N 687.317 1.12792 1.10072 0
M  V30 7358 C 688.28 0.802264 2.14701 0
M  V30 7359 C 689.28 -0.18515 1.59731 0
M  V30 7360 O 690.47 0.041109 1.74151 0
M  V30 7361 C 687.602 0.19285 3.40354 0
M  V30 7362 H 688.795 1.72932 2.45019 0
M  V30 7363 H 686.348 0.931662 1.25498 0
M  V30 7364 H 687.083 -0.743748 3.15656 0
M  V30 7365 H 686.868 0.903827 3.81541 0
M  V30 7366 H 688.358 -0.0183704 4.17596 0
M  V30 7367 N 688.795 -1.27931 0.920396 0
M  V30 7368 C 690.206 -1.76707 0.602616 0
M  V30 7369 C 690.557 -1.75249 -0.882159 0
M  V30 7370 O 689.682 -1.35135 -1.69019 0
M  V30 7371 C 690.277 -3.20884 1.08714 0
M  V30 7372 C 688.836 -3.67356 0.820157 0
M  V30 7373 C 687.983 -2.47525 1.25006 0
M  V30 7374 H 690.934 -1.14301 1.10095 0
M  V30 7375 H 690.955 -3.78045 0.431535 0
M  V30 7376 H 690.467 -3.21913 2.1678 0
M  V30 7377 H 688.568 -3.7178 -0.247012 0
M  V30 7378 H 688.681 -4.57181 1.43257 0
M  V30 7379 H 687.045 -2.45765 0.668698 0
M  V30 7380 H 687.828 -2.51269 2.3392 0
M  V30 7381 N 690.273 -0.685099 -1.4193 0
M  V30 7382 C 691.236 -0.0222632 -2.29189 0
M  V30 7383 C 692.236 0.7186 -1.4385 0
M  V30 7384 O 693.426 0.555058 -1.6512 0
M  V30 7385 C 690.558 0.979013 -3.2654 0
M  V30 7386 H 691.751 -0.790424 -2.89296 0
M  V30 7387 H 689.304 -0.448012 -1.49742 0
M  V30 7388 H 690.039 1.77531 -2.71392 0
M  V30 7389 H 689.824 0.451037 -3.89497 0
M  V30 7390 H 691.314 1.44091 -3.91954 0
M  V30 7391 N 691.751 1.51645 -0.429126 0
M  V30 7392 C 692.976 2.06917 0.141399 0
M  V30 7393 C 693.401 1.29527 1.36398 0
M  V30 7394 O 692.759 0.33094 1.78254 0
M  V30 7395 C 692.807 3.57776 0.4504 0
M  V30 7396 O 691.911 3.82639 1.53821 0
M  V30 7397 H 691.252 0.663978 0.0054647 0
M  V30 7398 H 693.782 1.95355 -0.608093 0
M  V30 7399 H 693.792 4.01894 0.703249 0
M  V30 7400 H 692.467 4.13532 -0.443213 0
M  V30 7401 H 691.044 3.5039 1.27597 0
M  V30 7402 N 693.229 0.160201 1.56784 0
M  V30 7403 C 694.64 -0.358417 1.83227 0
M  V30 7404 C 694.991 -1.63831 1.07952 0
M  V30 7405 O 694.116 -2.13885 0.328995 0
M  V30 7406 C 694.711 -0.657058 3.32368 0
M  V30 7407 C 693.27 -1.12015 3.59346 0
M  V30 7408 C 692.417 -0.15015 2.76893 0
M  V30 7409 H 695.368 0.384669 1.53967 0
M  V30 7410 H 695.389 -1.51033 3.49241 0
M  V30 7411 H 694.901 0.274647 3.87127 0
M  V30 7412 H 693.002 -2.06734 3.09987 0
M  V30 7413 H 693.115 -1.037 4.67743 0
M  V30 7414 H 691.479 -0.645361 2.46388 0
M  V30 7415 H 692.262 0.775379 3.34429 0
M  V30 7416 N 694.707 -1.5719 -0.113559 0
M  V30 7417 C 695.64 -1.9595 -1.16957 0
M  V30 7418 C 696.618 -0.829951 -1.39823 0
M  V30 7419 O 697.802 -1.08861 -1.53888 0
M  V30 7420 C 694.929 -2.2604 -2.52237 0
M  V30 7421 C 693.975 -3.48571 -2.45765 0
M  V30 7422 S 694.808 -5.00962 -1.89203 0
M  V30 7423 C 695.964 -5.3421 -3.26145 0
M  V30 7424 H 696.197 -2.85214 -0.839069 0
M  V30 7425 H 693.73 -1.51036 -0.320529 0
M  V30 7426 H 695.688 -2.44054 -3.30073 0
M  V30 7427 H 694.349 -1.3738 -2.82463 0
M  V30 7428 H 693.542 -3.67008 -3.45429 0
M  V30 7429 H 693.144 -3.29972 -1.76053 0
M  V30 7430 H 695.436 -5.29725 -4.22371 0
M  V30 7431 H 696.379 -6.35398 -3.12529 0
M  V30 7432 H 696.787 -4.61681 -3.24825 0
M  V30 7433 N 696.185 0.383891 -1.52853 0
M  V30 7434 C 697.115 1.47559 -1.80965 0
M  V30 7435 C 698.096 1.5669 -0.661986 0
M  V30 7436 O 699.281 1.71556 -0.910072 0
M  V30 7437 C 696.411 2.85114 -1.98312 0
M  V30 7438 C 695.365 2.9082 -3.14019 0
M  V30 7439 C 694.691 4.30873 -3.16627 0
M  V30 7440 C 695.991 2.60001 -4.52986 0
M  V30 7441 H 697.685 1.24283 -2.72386 0
M  V30 7442 H 695.231 0.596445 -1.31067 0
M  V30 7443 H 697.184 3.61496 -2.16561 0
M  V30 7444 H 695.908 3.09738 -1.03585 0
M  V30 7445 H 694.567 2.16886 -2.9556 0
M  V30 7446 H 694.215 4.52545 -2.19573 0
M  V30 7447 H 693.915 4.3561 -3.94357 0
M  V30 7448 H 695.439 5.09154 -3.37038 0
M  V30 7449 H 696.853 3.261 -4.71521 0
M  V30 7450 H 695.25 2.76081 -5.32822 0
M  V30 7451 H 696.32 1.5532 -4.59351 0
M  V30 7452 N 697.663 1.43903 0.642637 0
M  V30 7453 C 698.911 1.45791 1.39962 0
M  V30 7454 C 699.232 0.0873144 1.94804 0
M  V30 7455 O 698.502 -0.878825 1.75081 0
M  V30 7456 H 697.082 0.536797 0.519479 0
M  V30 7457 H 699.744 1.7959 0.757189 0
M  V30 7458 H 698.84 2.17665 2.2367 0
M  V30 7459 N 699.141 -0.881989 1.30609 0
M  V30 7460 C 700.089 -2.00942 1.17155 0
M  V30 7461 C 701.083 -1.69198 0.0827154 0
M  V30 7462 O 702.289 -1.78342 0.243775 0
M  V30 7463 H 698.664 -0.658913 0.362406 0
M  V30 7464 H 700.635 -2.09423 2.12567 0
M  V30 7465 C 699.384 -3.36294 0.883273 0
M  V30 7466 H 698.707 -3.61233 1.7132 0
M  V30 7467 H 700.147 -4.15812 0.829255 0
M  V30 7468 C 698.606 -3.34348 -0.413851 0
M  V30 7469 O 699.136 -3.75216 -1.43444 0
M  V30 7470 N 697.342 -2.87459 -0.426082 0
M  V30 7471 H 696.889 -2.54397 0.40493 0
M  V30 7472 H 696.847 -2.8654 -1.29391 0
M  V30 7473 N 700.619 -1.13374 -1.09472 0
M  V30 7474 C 701.582 -0.813639 -2.14272 0
M  V30 7475 C 702.582 0.176677 -1.59826 0
M  V30 7476 O 703.772 -0.0503441 -1.74127 0
M  V30 7477 C 700.904 -0.210897 -3.40247 0
M  V30 7478 H 702.097 -1.74229 -2.44099 0
M  V30 7479 H 699.65 -0.938304 -1.25002 0
M  V30 7480 H 700.385 0.726998 -3.16046 0
M  V30 7481 H 700.17 -0.924048 -3.81056 0
M  V30 7482 H 701.66 -0.00377603 -4.176 0
M  V30 7483 N 702.098 1.27442 -0.927168 0
M  V30 7484 C 703.323 1.99036 -0.583042 0
M  V30 7485 C 703.748 1.68711 0.83176 0
M  V30 7486 O 703.106 0.927081 1.55804 0
M  V30 7487 C 703.154 3.51271 -0.814925 0
M  V30 7488 O 702.258 4.12226 0.119742 0
M  V30 7489 H 701.599 0.624883 -0.224538 0
M  V30 7490 H 704.129 1.62263 -1.24628 0
M  V30 7491 H 704.139 4.01411 -0.730282 0
M  V30 7492 H 702.814 3.72676 -1.84623 0
M  V30 7493 H 701.391 3.72897 -0.0147688 0
M  V30 7494 N 703.576 0.692616 1.41565 0
M  V30 7495 C 704.524 0.0139952 2.32596 0
M  V30 7496 C 705.518 -0.771691 1.50802 0
M  V30 7497 O 706.724 -0.677646 1.66757 0
M  V30 7498 H 703.099 -0.0142745 0.751865 0
M  V30 7499 H 705.07 0.798851 2.87508 0
M  V30 7500 C 703.819 -0.910602 3.35564 0
M  V30 7501 H 703.142 -0.315446 3.98554 0
M  V30 7502 H 704.582 -1.3538 4.01806 0
M  V30 7503 C 703.041 -2.02539 2.6922 0
M  V30 7504 O 703.571 -3.11386 2.53775 0
M  V30 7505 N 701.777 -1.80227 2.27962 0
M  V30 7506 H 701.324 -0.917054 2.40724 0
M  V30 7507 H 701.282 -2.55001 1.83907 0
M  V30 7508 N 705.054 -1.51416 0.437162 0
M  V30 7509 C 706.465 -1.86682 -0.0260005 0
M  V30 7510 C 706.816 -1.35432 -1.4196 0
M  V30 7511 O 705.941 -0.705055 -2.04592 0
M  V30 7512 C 706.536 -3.38757 -0.0539577 0
M  V30 7513 C 705.095 -3.7356 -0.461532 0
M  V30 7514 C 704.242 -2.75134 0.345924 0
M  V30 7515 H 707.193 -1.44642 0.653013 0
M  V30 7516 H 707.214 -3.70573 -0.863478 0
M  V30 7517 H 706.726 -3.76028 0.96045 0
M  V30 7518 H 704.827 -3.41878 -1.48155 0
M  V30 7519 H 704.94 -4.78737 -0.186451 0
M  V30 7520 H 703.304 -2.53947 -0.195739 0
M  V30 7521 H 704.087 -3.15247 1.35921 0
M  V30 7522 N 706.532 -0.168513 -1.56696 0
M  V30 7523 C 707.48 0.779791 -2.19139 0
M  V30 7524 C 708.474 1.23957 -1.1546 0
M  V30 7525 O 709.68 1.20555 -1.33666 0
M  V30 7526 H 706.055 0.269739 -0.701958 0
M  V30 7527 H 708.026 0.229156 -2.97519 0
M  V30 7528 C 706.775 2.00003 -2.84419 0
M  V30 7529 H 706.098 1.65527 -3.63924 0
M  V30 7530 H 707.538 2.64251 -3.31583 0
M  V30 7531 C 705.997 2.82187 -1.84044 0
M  V30 7532 O 706.527 3.79247 -1.32418 0
M  V30 7533 N 704.733 2.47145 -1.52864 0
M  V30 7534 H 704.28 1.68277 -1.9504 0
M  V30 7535 H 704.238 3.02422 -0.859569 0
M  V30 7536 N 708.01 1.57248 0.105221 0
M  V30 7537 C 708.957 2.01338 1.12835 0
M  V30 7538 C 709.927 0.887897 1.40377 0
M  V30 7539 O 711.112 1.15315 1.5201 0
M  V30 7540 C 708.252 2.43432 2.44611 0
M  V30 7541 C 707.365 3.69457 2.23888 0
M  V30 7542 C 706.5 4.00473 3.48991 0
M  V30 7543 C 705.539 5.19638 3.23485 0
M  V30 7544 N 704.676 5.46457 4.40828 0
M  V30 7545 H 709.516 2.88527 0.745386 0
M  V30 7546 H 707.053 1.42714 0.356535 0
M  V30 7547 H 709.011 2.65879 3.21503 0
M  V30 7548 H 707.641 1.59266 2.80774 0
M  V30 7549 H 706.693 3.54545 1.37847 0
M  V30 7550 H 708.005 4.56497 2.01026 0
M  V30 7551 H 707.159 4.23642 4.34295 0
M  V30 7552 H 705.898 3.11935 3.74897 0
M  V30 7553 H 704.903 4.96299 2.36574 0
M  V30 7554 H 706.128 6.09766 2.98935 0
M  V30 7555 H 704.074 4.60876 4.66829 0
M  V30 7556 H 703.991 6.27849 4.2112 0
M  V30 7557 H 705.259 5.74155 5.27225 0
M  V30 7558 N 709.488 -0.375779 1.53054 0
M  V30 7559 C 710.451 -1.44254 1.7811 0
M  V30 7560 C 711.451 -1.47018 0.651328 0
M  V30 7561 O 712.641 -1.47957 0.919472 0
M  V30 7562 C 709.773 -2.8345 1.89391 0
M  V30 7563 H 710.966 -1.23316 2.73374 0
M  V30 7564 H 708.519 -0.608312 1.43977 0
M  V30 7565 H 709.254 -3.09716 0.961589 0
M  V30 7566 H 709.039 -2.82844 2.71555 0
M  V30 7567 H 710.529 -3.60722 2.10404 0
M  V30 7568 N 710.966 -1.44241 -0.634997 0
M  V30 7569 C 712.243 -1.37296 -1.39317 0
M  V30 7570 C 712.623 -0.0297532 -2.11079 0
M  V30 7571 O 711.971 0.987524 -2.06059 0
M  V30 7572 C 712.181 -2.56853 -2.36279 0
M  V30 7573 C 713.529 -3.00747 -2.99728 0
M  V30 7574 O 714.553 -2.5703 -2.46605 0
M  V30 7575 O 713.412 -3.76533 -3.96087 0
M  V30 7576 H 710.506 -0.543503 -0.623325 0
M  V30 7577 H 713.052 -1.56324 -0.660376 0
M  V30 7578 H 711.824 -3.46228 -1.82324 0
M  V30 7579 H 711.447 -2.40019 -3.16981 0
M  V30 7580 N 712.444 0.87505 -1.31075 0
M  V30 7581 C 713.693 1.62245 -1.19831 0
M  V30 7582 C 714.006 1.94078 0.24357 0
M  V30 7583 O 715.212 2.67265 0.477646 0
M  V30 7584 C 713.668 2.92464 -2.09744 0
M  V30 7585 C 713.276 2.68134 -3.58898 0
M  V30 7586 C 715.02 3.70449 -2.07287 0
M  V30 7587 C 712.927 3.9423 -4.40836 0
M  V30 7588 H 711.857 0.608741 -0.444916 0
M  V30 7589 H 714.508 0.967947 -1.55894 0
M  V30 7590 H 712.89 3.59262 -1.66574 0
M  V30 7591 H 714.064 2.09776 -4.10281 0
M  V30 7592 H 712.379 2.03511 -3.6328 0
M  V30 7593 H 714.976 4.63983 -2.65752 0
M  V30 7594 H 715.319 4.02611 -1.05876 0
M  V30 7595 H 715.852 3.10528 -2.48631 0
M  V30 7596 H 712.591 3.67221 -5.42982 0
M  V30 7597 H 712.111 4.52058 -3.94213 0
M  V30 7598 H 713.79 4.62162 -4.52786 0
M  V30 7599 N 713.922 1.13953 1.08869 0
M  V30 7600 C 715.333 0.916649 1.62648 0
M  V30 7601 C 715.684 -0.545589 1.88462 0
M  V30 7602 O 714.809 -1.41351 1.63856 0
M  V30 7603 C 715.404 1.65751 2.95486 0
M  V30 7604 C 713.963 1.48034 3.46068 0
M  V30 7605 C 713.11 1.68305 2.20383 0
M  V30 7606 H 716.061 1.292 0.921572 0
M  V30 7607 H 716.082 1.11794 3.63707 0
M  V30 7608 H 715.594 2.72171 2.76667 0
M  V30 7609 H 713.695 0.439416 3.7 0
M  V30 7610 H 713.808 2.24719 4.23129 0
M  V30 7611 H 712.172 1.10833 2.29321 0
M  V30 7612 H 712.955 2.76057 2.04077 0
M  V30 7613 N 715.4 -1.26948 0.933913 0
M  V30 7614 C 716.31 -2.30366 0.443671 0
M  V30 7615 C 717.326 -1.67284 -0.478745 0
M  V30 7616 O 718.502 -1.98156 -0.360043 0
M  V30 7617 C 715.567 -3.45485 -0.289974 0
M  V30 7618 C 714.628 -4.24069 0.668114 0
M  V30 7619 C 713.861 -5.33691 -0.0306138 0
M  V30 7620 O 714.084 -5.5656 -1.24888 0
M  V30 7621 O 713.018 -5.98441 0.644384 0
M  V30 7622 H 716.844 -2.74349 1.30254 0
M  V30 7623 H 714.429 -1.32012 0.699506 0
M  V30 7624 H 716.311 -4.15486 -0.70353 0
M  V30 7625 H 714.986 -3.03546 -1.12435 0
M  V30 7626 H 713.893 -3.56579 1.13147 0
M  V30 7627 H 715.226 -4.69739 1.46989 0
M  V30 7628 N 716.879 -0.700114 -1.41195 0
M  V30 7629 C 718.295 -0.372114 -1.55201 0
M  V30 7630 C 718.495 1.12053 -1.6747 0
M  V30 7631 O 717.551 1.90642 -1.65566 0
M  V30 7632 C 718.864 -1.12462 -2.78878 0
M  V30 7633 C 720.412 -1.10941 -2.92679 0
M  V30 7634 C 720.887 -1.84376 -4.19249 0
M  V30 7635 N 722.378 -1.81368 -4.26216 0
M  V30 7636 C 723.113 -2.35024 -5.23021 0
M  V30 7637 N 722.609 -2.9717 -6.25829 0
M  V30 7638 N 724.402 -2.25254 -5.14992 0
M  V30 7639 H 716.553 -1.66816 -1.31477 0
M  V30 7640 H 718.816 -0.704223 -0.634644 0
M  V30 7641 H 718.522 -2.17937 -2.76037 0
M  V30 7642 H 718.396 -0.706152 -3.70531 0
M  V30 7643 H 720.783 -0.062911 -2.95033 0
M  V30 7644 H 720.864 -1.56698 -2.02187 0
M  V30 7645 H 720.508 -2.89008 -4.17656 0
M  V30 7646 H 720.438 -1.3605 -5.08722 0
M  V30 7647 H 722.929 -1.36062 -3.52556 0
M  V30 7648 H 723.242 -3.35668 -6.96094 0
M  V30 7649 H 721.587 -3.01249 -6.26318 0
M  V30 7650 H 724.778 -1.76372 -4.33602 0
M  V30 7651 H 724.951 -2.67373 -5.90268 0
M  V30 7652 N 718.357 1.51182 -0.445186 0
M  V30 7653 C 719.304 2.27939 0.362291 0
M  V30 7654 C 720.274 1.31864 1.01 0
M  V30 7655 O 721.459 1.60776 1.02741 0
M  V30 7656 C 718.599 3.13016 1.45311 0
M  V30 7657 C 717.712 4.24093 0.822757 0
M  V30 7658 C 716.847 4.96467 1.88928 0
M  V30 7659 C 715.886 5.99454 1.23778 0
M  V30 7660 N 715.023 6.65206 2.24602 0
M  V30 7661 H 719.863 2.965 -0.29862 0
M  V30 7662 H 717.4 1.46237 -0.15911 0
M  V30 7663 H 719.358 3.60673 2.09692 0
M  V30 7664 H 717.988 2.46553 2.08354 0
M  V30 7665 H 717.04 3.80341 0.0670364 0
M  V30 7666 H 718.352 4.97853 0.307184 0
M  V30 7667 H 717.506 5.47712 2.60953 0
M  V30 7668 H 716.245 4.22355 2.4386 0
M  V30 7669 H 715.25 5.47494 0.503042 0
M  V30 7670 H 716.475 6.75527 0.695694 0
M  V30 7671 H 714.421 5.93901 2.78599 0
M  V30 7672 H 714.338 7.34756 1.77958 0
M  V30 7673 H 715.606 7.21078 2.96085 0
M  V30 7674 N 719.835 0.176821 1.56605 0
M  V30 7675 C 720.782 -0.751312 2.18229 0
M  V30 7676 C 721.752 -1.22297 1.12395 0
M  V30 7677 O 722.937 -1.29015 1.40569 0
M  V30 7678 C 720.077 -1.97291 2.83143 0
M  V30 7679 C 719.19 -1.54431 4.03454 0
M  V30 7680 C 718.325 -2.72 4.56278 0
M  V30 7681 C 717.364 -2.25657 5.68986 0
M  V30 7682 N 716.501 -3.36338 6.16296 0
M  V30 7683 H 721.341 -0.219033 2.97194 0
M  V30 7684 H 718.878 -0.0963803 1.46784 0
M  V30 7685 H 720.836 -2.68949 3.1894 0
M  V30 7686 H 719.466 -2.4788 2.06773 0
M  V30 7687 H 718.518 -0.724273 3.73441 0
M  V30 7688 H 719.83 -1.16417 4.85024 0
M  V30 7689 H 718.984 -3.51806 4.94285 0
M  V30 7690 H 717.723 -3.13277 3.73777 0
M  V30 7691 H 716.728 -1.44299 5.30526 0
M  V30 7692 H 717.953 -1.85432 6.53293 0
M  V30 7693 H 715.899 -3.7718 5.36723 0
M  V30 7694 H 715.816 -3.02435 6.9287 0
M  V30 7695 H 717.084 -4.16413 6.58954 0
M  V30 7696 N 721.313 -1.57302 -0.09688 0
M  V30 7697 C 722.538 -1.9058 -0.818169 0
M  V30 7698 C 722.963 -0.770921 -1.71576 0
M  V30 7699 O 722.321 0.277588 -1.79162 0
M  V30 7700 C 722.369 -3.22714 -1.60898 0
M  V30 7701 O 721.473 -3.10178 -2.71779 0
M  V30 7702 H 720.814 -0.624759 -0.224882 0
M  V30 7703 H 723.344 -2.04471 -0.07264 0
M  V30 7704 H 723.354 -3.55978 -1.99358 0
M  V30 7705 H 722.029 -4.04899 -0.950227 0
M  V30 7706 H 720.606 -2.88424 -2.3636 0
M  V30 7707 N 722.791 0.367657 -1.53252 0
M  V30 7708 C 724.016 1.13566 -1.73544 0
M  V30 7709 C 724.441 1.82329 -0.462344 0
M  V30 7710 O 723.799 1.71655 0.583472 0
M  V30 7711 C 723.847 2.14322 -2.89997 0
M  V30 7712 O 722.951 3.21359 -2.58461 0
M  V30 7713 H 722.292 0.329614 -0.576412 0
M  V30 7714 H 724.822 0.425417 -2.00128 0
M  V30 7715 H 724.832 2.57958 -3.16104 0
M  V30 7716 H 723.507 1.63664 -3.82344 0
M  V30 7717 H 722.084 2.8271 -2.43165 0
M  V30 7718 N 724.269 1.44576 0.627338 0
M  V30 7719 C 725.497 1.51048 1.41394 0
M  V30 7720 C 725.912 0.136568 1.88305 0
M  V30 7721 O 725.269 -0.858251 1.6106 0
M  V30 7722 C 725.32 2.47837 2.63172 0
M  V30 7723 O 725.041 3.79887 2.18215 0
M  V30 7724 C 726.542 2.63811 3.56257 0
M  V30 7725 H 723.762 0.512171 0.4335 0
M  V30 7726 H 726.306 1.89576 0.766878 0
M  V30 7727 H 724.461 2.12433 3.23961 0
M  V30 7728 H 724.875 4.32177 2.97192 0
M  V30 7729 H 726.349 3.35554 4.38301 0
M  V30 7730 H 726.826 1.69169 4.05313 0
M  V30 7731 H 727.432 3.0013 3.01333 0
M  V30 7732 N 725.747 -0.868086 1.31537 0
M  V30 7733 C 726.993 -1.62367 1.2151 0
M  V30 7734 C 727.326 -1.92883 -0.225819 0
M  V30 7735 O 726.601 -1.56176 -1.15927 0
M  V30 7736 C 726.884 -2.95268 2.06129 0
M  V30 7737 C 726.737 -2.71619 3.58529 0
M  V30 7738 C 728.056 -3.96391 1.91212 0
M  V30 7739 H 725.175 -0.589178 0.442762 0
M  V30 7740 H 727.817 -1.00336 1.61347 0
M  V30 7741 H 725.967 -3.4821 1.72284 0
M  V30 7742 H 727.639 -2.25334 4.0252 0
M  V30 7743 H 725.882 -2.05817 3.81866 0
M  V30 7744 H 726.553 -3.66192 4.13047 0
M  V30 7745 H 729.029 -3.52663 2.20834 0
M  V30 7746 H 727.905 -4.87263 2.52718 0
M  V30 7747 H 728.166 -4.33335 0.875953 0
M  V30 7748 N 727.225 -1.14528 -1.08264 0
M  V30 7749 C 728.636 -0.925261 -1.6216 0
M  V30 7750 C 728.987 0.535587 -1.88748 0
M  V30 7751 O 728.112 1.4048 -1.64604 0
M  V30 7752 C 728.707 -1.67316 -2.94603 0
M  V30 7753 C 727.266 -1.49868 -3.45278 0
M  V30 7754 C 726.413 -1.69471 -2.19487 0
M  V30 7755 H 729.364 -1.29687 -0.914707 0
M  V30 7756 H 729.385 -1.13721 -3.63109 0
M  V30 7757 H 728.897 -2.73635 -2.75219 0
M  V30 7758 H 726.998 -0.459032 -3.69762 0
M  V30 7759 H 727.111 -2.2696 -4.21931 0
M  V30 7760 H 725.475 -1.12048 -2.2873 0
M  V30 7761 H 726.258 -2.77136 -2.0261 0
M  V30 7762 N 728.703 1.26451 -0.940633 0
M  V30 7763 C 729.928 1.98407 -0.60412 0
M  V30 7764 C 730.353 1.69584 0.81382 0
M  V30 7765 O 729.711 0.943553 1.54812 0
M  V30 7766 C 729.759 3.50387 -0.852136 0
M  V30 7767 O 728.863 4.1233 0.076013 0
M  V30 7768 H 728.204 0.622466 -0.231153 0
M  V30 7769 H 730.734 1.60932 -1.26342 0
M  V30 7770 H 730.744 4.00614 -0.772816 0
M  V30 7771 H 729.419 3.70696 -1.88566 0
M  V30 7772 H 727.996 3.7286 -0.0543187 0
M  V30 7773 N 730.181 0.707592 1.40822 0
M  V30 7774 C 731.406 0.251626 2.05868 0
M  V30 7775 C 731.831 -1.09503 1.5294 0
M  V30 7776 O 731.189 -1.68806 0.661385 0
M  V30 7777 C 731.237 0.23287 3.59847 0
M  V30 7778 O 730.341 -0.788477 4.04792 0
M  V30 7779 H 729.682 0.119936 0.653078 0
M  V30 7780 H 732.212 0.96583 1.80369 0
M  V30 7781 H 732.222 0.0678204 4.07944 0
M  V30 7782 H 730.897 1.21565 3.97737 0
M  V30 7783 H 729.474 -0.591802 3.68174 0
M  V30 7784 N 731.66 -1.50943 0.453197 0
M  V30 7785 C 732.608 -2.29728 -0.364419 0
M  V30 7786 C 733.602 -1.36246 -1.00664 0
M  V30 7787 O 734.808 -1.53518 -0.939794 0
M  V30 7788 H 731.183 -0.739536 -0.136347 0
M  V30 7789 H 733.154 -2.96672 0.320696 0
M  V30 7790 C 731.903 -3.1629 -1.44415 0
M  V30 7791 H 731.226 -3.88119 -0.959343 0
M  V30 7792 H 732.666 -3.74444 -1.98917 0
M  V30 7793 C 731.125 -2.32702 -2.43622 0
M  V30 7794 O 731.655 -1.99763 -3.48508 0
M  V30 7795 N 729.861 -1.95621 -2.14897 0
M  V30 7796 H 729.408 -2.22607 -1.29629 0
M  V30 7797 H 729.366 -1.39993 -2.81513 0
M  V30 7798 N 733.138 -0.185124 -1.56509 0
M  V30 7799 C 734.366 0.462139 -2.01673 0
M  V30 7800 C 734.781 1.55873 -1.06532 0
M  V30 7801 O 734.138 1.82371 -0.0684805 0
M  V30 7802 C 734.189 1.0277 -3.46584 0
M  V30 7803 O 733.91 -0.0251296 -4.38093 0
M  V30 7804 C 735.411 1.75183 -4.07217 0
M  V30 7805 H 732.631 0.117001 -0.660721 0
M  V30 7806 H 735.175 -0.290905 -2.0242 0
M  V30 7807 H 733.33 1.73118 -3.46568 0
M  V30 7808 H 733.744 0.394387 -5.23015 0
M  V30 7809 H 735.218 2.09999 -5.10494 0
M  V30 7810 H 735.695 2.6519 -3.50101 0
M  V30 7811 H 736.301 1.09445 -4.10977 0
M  V30 7812 N 734.616 1.57351 0.0885366 0
M  V30 7813 C 735.579 2.01557 1.09121 0
M  V30 7814 C 736.579 0.910052 1.3257 0
M  V30 7815 O 737.769 1.17537 1.28572 0
M  V30 7816 C 734.901 2.38189 2.43883 0
M  V30 7817 H 736.094 2.91361 0.710562 0
M  V30 7818 H 733.647 1.52694 0.333779 0
M  V30 7819 H 734.382 1.5136 2.86811 0
M  V30 7820 H 734.167 3.18846 2.28209 0
M  V30 7821 H 735.657 2.73025 3.15986 0
M  V30 7822 N 736.094 -0.359525 1.53444 0
M  V30 7823 C 737.319 -1.12644 1.74144 0
M  V30 7824 C 737.744 -1.82082 0.472007 0
M  V30 7825 O 737.102 -1.71962 -0.57436 0
M  V30 7826 C 737.15 -2.12781 2.9113 0
M  V30 7827 O 736.254 -3.19984 2.60162 0
M  V30 7828 H 735.595 -0.326553 0.578152 0
M  V30 7829 H 738.125 -0.414798 2.00351 0
M  V30 7830 H 738.135 -2.56278 3.17467 0
M  V30 7831 H 736.81 -1.61634 3.83207 0
M  V30 7832 H 735.387 -2.81417 2.44661 0
M  V30 7833 N 737.572 -1.44907 -0.619662 0
M  V30 7834 C 738.82 -1.47999 -1.37625 0
M  V30 7835 C 739.141 -0.118295 -1.94641 0
M  V30 7836 O 738.411 0.85086 -1.76457 0
M  V30 7837 H 736.991 -0.544993 -0.510873 0
M  V30 7838 H 739.653 -1.80772 -0.728522 0
M  V30 7839 H 738.749 -2.21196 -2.20179 0
M  V30 7840 N 739.05 0.861098 -1.31996 0
M  V30 7841 C 740.298 1.61162 -1.21947 0
M  V30 7842 C 740.619 1.93751 0.220351 0
M  V30 7843 O 739.889 1.59069 1.14341 0
M  V30 7844 H 738.469 0.597485 -0.448353 0
M  V30 7845 H 741.131 1.03039 -1.65436 0
M  V30 7846 H 740.227 2.55138 -1.79752 0
M  V30 7847 N 740.528 1.15101 1.07655 0
M  V30 7848 C 741.461 0.788522 2.14144 0
M  V30 7849 C 742.439 -0.233635 1.60913 0
M  V30 7850 O 743.623 -0.120908 1.88112 0
M  V30 7851 C 740.75 0.172033 3.38263 0
M  V30 7852 C 739.796 1.16559 4.10264 0
M  V30 7853 S 740.629 2.70627 4.62084 0
M  V30 7854 C 741.785 2.10389 5.8948 0
M  V30 7855 H 742.018 1.69047 2.44561 0
M  V30 7856 H 739.551 0.973033 1.19881 0
M  V30 7857 H 741.509 -0.177223 4.10117 0
M  V30 7858 H 740.17 -0.707468 3.06029 0
M  V30 7859 H 739.363 0.6824 4.99359 0
M  V30 7860 H 738.965 1.45923 3.44358 0
M  V30 7861 H 741.257 1.46405 6.61492 0
M  V30 7862 H 742.2 2.97639 6.42508 0
M  V30 7863 H 742.608 1.54816 5.42856 0
M  V30 7864 N 742.006 -1.2595 0.947325 0
M  V30 7865 C 743.234 -1.97544 0.615127 0
M  V30 7866 C 743.649 -1.70484 -0.811221 0
M  V30 7867 O 743.006 -0.97662 -1.5417 0
M  V30 7868 C 743.057 -3.51236 0.855328 0
M  V30 7869 O 742.778 -3.77359 2.22558 0
M  V30 7870 C 744.279 -4.40066 0.534515 0
M  V30 7871 H 741.499 -0.629888 0.231263 0
M  V30 7872 H 744.043 -1.60308 1.26971 0
M  V30 7873 H 742.198 -3.8661 0.247266 0
M  V30 7874 H 742.612 -4.71857 2.29022 0
M  V30 7875 H 744.086 -5.46838 0.753168 0
M  V30 7876 H 744.563 -4.35982 -0.530701 0
M  V30 7877 H 745.169 -4.10245 1.12158 0
M  V30 7878 N 743.484 -0.715051 -1.40445 0
M  V30 7879 C 744.9 -0.388555 -1.54798 0
M  V30 7880 C 745.1 1.10271 -1.68649 0
M  V30 7881 O 744.156 1.88875 -1.67578 0
M  V30 7882 C 745.469 -1.15414 -2.77669 0
M  V30 7883 C 747.017 -1.14039 -2.91486 0
M  V30 7884 C 747.492 -1.88812 -4.1727 0
M  V30 7885 N 748.983 -1.85878 -4.24268 0
M  V30 7886 C 749.718 -2.40558 -5.20499 0
M  V30 7887 N 749.214 -3.03791 -6.22642 0
M  V30 7888 N 751.007 -2.30703 -5.12574 0
M  V30 7889 H 743.158 -1.68201 -1.297 0
M  V30 7890 H 745.421 -0.710915 -0.627139 0
M  V30 7891 H 745.127 -2.20853 -2.7371 0
M  V30 7892 H 745.001 -0.745412 -3.69761 0
M  V30 7893 H 747.388 -0.0941996 -2.9495 0
M  V30 7894 H 747.469 -1.58834 -2.00513 0
M  V30 7895 H 747.113 -2.93422 -4.14568 0
M  V30 7896 H 747.043 -1.41438 -5.0725 0
M  V30 7897 H 749.534 -1.39794 -3.51093 0
M  V30 7898 H 749.847 -3.43032 -6.92495 0
M  V30 7899 H 748.192 -3.07875 -6.23087 0
M  V30 7900 H 751.383 -1.80961 -4.31707 0
M  V30 7901 H 751.556 -2.73618 -5.87398 0
M  V30 7902 N 744.962 1.50701 -0.461195 0
M  V30 7903 C 746.378 1.59187 -0.114786 0
M  V30 7904 C 746.578 1.4702 1.37794 0
M  V30 7905 O 745.634 1.32361 2.15027 0
M  V30 7906 C 746.947 2.93453 -0.656167 0
M  V30 7907 C 748.495 3.06824 -0.618715 0
M  V30 7908 C 748.97 4.4365 -1.13747 0
M  V30 7909 N 750.461 4.50035 -1.09646 0
M  V30 7910 C 751.196 5.54278 -1.46846 0
M  V30 7911 N 750.692 6.65822 -1.91448 0
M  V30 7912 N 752.485 5.44767 -1.38512 0
M  V30 7913 H 744.636 1.56853 -1.43216 0
M  V30 7914 H 746.899 0.740712 -0.59165 0
M  V30 7915 H 746.605 3.07802 -1.7015 0
M  V30 7916 H 746.479 3.77082 -0.0942261 0
M  V30 7917 H 748.866 2.92129 0.417685 0
M  V30 7918 H 748.947 2.24976 -1.21734 0
M  V30 7919 H 748.591 4.59093 -2.17245 0
M  V30 7920 H 748.521 5.24074 -0.515153 0
M  V30 7921 H 751.012 3.69988 -0.769217 0
M  V30 7922 H 751.325 7.41413 -2.18007 0
M  V30 7923 H 749.67 6.66968 -1.95393 0
M  V30 7924 H 752.861 4.56511 -1.03516 0
M  V30 7925 H 753.034 6.25889 -1.6783 0
M  V30 7926 N 746.441 0.193421 1.56409 0
M  V30 7927 C 747.389 -0.744829 2.20352 0
M  V30 7928 C 748.383 -1.22104 1.17418 0
M  V30 7929 O 749.589 -1.18413 1.35567 0
M  V30 7930 H 745.964 -0.258538 0.70616 0
M  V30 7931 H 747.935 -0.181794 2.97846 0
M  V30 7932 C 746.684 -1.95453 2.87565 0
M  V30 7933 H 746.007 -1.59716 3.66512 0
M  V30 7934 H 747.447 -2.58942 3.35745 0
M  V30 7935 C 745.906 -2.79223 1.8851 0
M  V30 7936 O 746.436 -3.77093 1.38434 0
M  V30 7937 N 744.642 -2.44682 1.56777 0
M  V30 7938 H 744.189 -1.65153 1.97692 0
M  V30 7939 H 744.147 -3.01016 0.907573 0
M  V30 7940 N 747.919 -1.57396 -0.0801906 0
M  V30 7941 C 749.147 -1.91055 -0.794075 0
M  V30 7942 C 749.562 -0.788583 -1.71542 0
M  V30 7943 O 748.919 0.238587 -1.80934 0
M  V30 7944 C 748.97 -3.24418 -1.59484 0
M  V30 7945 O 748.691 -4.323 -0.710532 0
M  V30 7946 C 750.192 -3.72037 -2.41046 0
M  V30 7947 H 747.412 -0.63171 -0.226238 0
M  V30 7948 H 749.956 -2.04431 -0.0529685 0
M  V30 7949 H 748.111 -3.12595 -2.2883 0
M  V30 7950 H 748.525 -5.08976 -1.26663 0
M  V30 7951 H 749.999 -4.68006 -2.92702 0
M  V30 7952 H 750.476 -3.00624 -3.2019 0
M  V30 7953 H 751.082 -3.86777 -1.76871 0
M  V30 7954 N 749.397 0.351382 -1.53633 0
M  V30 7955 C 750.627 1.11113 -1.74176 0
M  V30 7956 C 751.035 1.83084 -0.477154 0
M  V30 7957 O 750.378 1.74941 0.560483 0
M  V30 7958 C 750.44 2.17521 -2.86225 0
M  V30 7959 C 750.104 1.65193 -4.26099 0
M  V30 7960 C 751.101 1.10842 -5.07947 0
M  V30 7961 C 748.786 1.70277 -4.72558 0
M  V30 7962 C 750.78 0.622689 -6.34351 0
M  V30 7963 C 748.467 1.21316 -5.98937 0
M  V30 7964 C 749.465 0.674033 -6.79666 0
M  V30 7965 O 749.153 0.191696 -8.03671 0
M  V30 7966 H 748.885 0.33756 -0.585687 0
M  V30 7967 H 751.439 0.411786 -2.0123 0
M  V30 7968 H 749.669 2.90991 -2.54678 0
M  V30 7969 H 751.358 2.78999 -2.94812 0
M  V30 7970 H 752.124 1.06243 -4.7322 0
M  V30 7971 H 748.003 2.11181 -4.09785 0
M  V30 7972 H 751.547 0.201216 -6.9731 0
M  V30 7973 H 747.444 1.25613 -6.3316 0
M  V30 7974 H 748.212 0.309712 -8.17914 0
M  V30 7975 N 750.875 1.45233 0.611969 0
M  V30 7976 C 752.121 1.49242 1.37312 0
M  V30 7977 C 752.454 0.131963 1.93751 0
M  V30 7978 O 751.729 -0.852999 1.74798 0
M  V30 7979 C 752.012 2.56811 2.52428 0
M  V30 7980 C 751.865 4.02284 2.01215 0
M  V30 7981 C 753.184 2.60705 3.54572 0
M  V30 7982 H 750.303 0.54336 0.497925 0
M  V30 7983 H 752.945 1.77019 0.690242 0
M  V30 7984 H 751.095 2.33256 3.10683 0
M  V30 7985 H 752.767 4.37035 1.47643 0
M  V30 7986 H 751.01 4.1315 1.32248 0
M  V30 7987 H 751.681 4.7323 2.84178 0
M  V30 7988 H 754.157 2.81799 3.06151 0
M  V30 7989 H 753.033 3.37841 4.32614 0
M  V30 7990 H 753.294 1.65627 4.09903 0
M  V30 7991 N 752.353 -0.854086 1.3245 0
M  V30 7992 C 753.593 -1.62216 1.2436 0
M  V30 7993 C 753.957 -1.91042 -0.191564 0
M  V30 7994 O 755.158 -2.65864 -0.396211 0
M  V30 7995 C 753.429 -2.9066 2.0797 0
M  V30 7996 S 754.988 -3.81438 2.16911 0
M  V30 7997 H 751.806 -0.556386 0.442669 0
M  V30 7998 H 754.408 -1.01139 1.67305 0
M  V30 7999 H 753.112 -2.6743 3.11302 0
M  V30 8000 H 752.643 -3.56753 1.65805 0
M  V30 8001 H 754.658 -4.78347 1.31903 0
M  V30 8002 N 753.831 -1.1567 -1.07043 0
M  V30 8003 C 755.056 -0.957946 -1.83952 0
M  V30 8004 C 755.481 0.488807 -1.81638 0
M  V30 8005 O 754.839 1.34869 -1.21162 0
M  V30 8006 C 754.887 -1.48064 -3.288 0
M  V30 8007 O 753.991 -0.681921 -4.06723 0
M  V30 8008 H 753.332 -0.341453 -0.569479 0
M  V30 8009 H 755.862 -1.53728 -1.35015 0
M  V30 8010 H 755.872 -1.49484 -3.7963 0
M  V30 8011 H 754.547 -2.53388 -3.29799 0
M  V30 8012 H 753.124 -0.737612 -3.65532 0
M  V30 8013 N 755.309 1.25446 -0.953992 0
M  V30 8014 C 756.219 2.29632 -0.480264 0
M  V30 8015 C 757.235 1.68025 0.452071 0
M  V30 8016 O 758.411 1.98703 0.328472 0
M  V30 8017 C 755.476 3.45903 0.234974 0
M  V30 8018 C 754.537 4.22953 -0.735495 0
M  V30 8019 C 753.77 5.33672 -0.0542957 0
M  V30 8020 O 753.993 5.58477 1.16018 0
M  V30 8021 O 752.927 5.9734 -0.739509 0
M  V30 8022 H 756.753 2.72242 -1.34602 0
M  V30 8023 H 754.338 1.30883 -0.720419 0
M  V30 8024 H 756.22 4.16552 0.637341 0
M  V30 8025 H 754.895 3.05296 1.07592 0
M  V30 8026 H 753.802 3.54734 -1.18806 0
M  V30 8027 H 755.135 4.67341 -1.54444 0
M  V30 8028 N 756.787 0.722489 1.40064 0
M  V30 8029 C 758.203 0.396758 1.5459 0
M  V30 8030 C 758.403 -1.09375 1.69232 0
M  V30 8031 O 757.459 -1.87984 1.68578 0
M  V30 8032 C 758.772 1.16885 2.77053 0
M  V30 8033 C 760.32 1.15583 2.90877 0
M  V30 8034 C 760.795 1.91023 4.16262 0
M  V30 8035 N 762.286 1.88126 4.23276 0
M  V30 8036 C 763.021 2.43315 5.19216 0
M  V30 8037 N 762.517 3.07089 6.21022 0
M  V30 8038 N 764.31 2.33418 5.11344 0
M  V30 8039 H 756.461 1.68887 1.28806 0
M  V30 8040 H 758.724 0.714231 0.62336 0
M  V30 8041 H 758.43 2.22301 2.72534 0
M  V30 8042 H 758.304 0.765011 3.69361 0
M  V30 8043 H 760.691 0.10984 2.94896 0
M  V30 8044 H 760.772 1.59895 1.99668 0
M  V30 8045 H 760.416 2.95616 4.13006 0
M  V30 8046 H 760.346 1.44126 5.06493 0
M  V30 8047 H 762.837 1.41654 3.50346 0
M  V30 8048 H 763.15 3.467 6.90666 0
M  V30 8049 H 761.495 3.11175 6.21446 0
M  V30 8050 H 764.686 1.83248 4.30741 0
M  V30 8051 H 764.859 2.7673 5.85939 0
M  V30 8052 N 758.265 -1.50454 0.469181 0
M  V30 8053 C 759.493 -2.06729 -0.0842134 0
M  V30 8054 C 759.908 -1.33326 -1.33677 0
M  V30 8055 O 759.265 -0.401977 -1.78018 0
M  V30 8056 C 759.316 -3.59557 -0.374253 0
M  V30 8057 O 759.037 -4.30192 0.828622 0
M  V30 8058 C 760.538 -4.32449 -0.974824 0
M  V30 8059 H 757.758 -0.670971 0.006231 0
M  V30 8060 H 760.302 -1.93645 0.657415 0
M  V30 8061 H 758.457 -3.7245 -1.06581 0
M  V30 8062 H 758.871 -5.21371 0.572066 0
M  V30 8063 H 760.345 -5.40361 -1.12755 0
M  V30 8064 H 760.822 -3.92819 -1.96442 0
M  V30 8065 H 761.428 -4.24082 -0.321703 0
M  V30 8066 N 759.743 -0.201713 -1.56304 0
M  V30 8067 C 760.971 0.440723 -2.02152 0
M  V30 8068 C 761.386 1.54735 -1.08179 0
M  V30 8069 O 760.743 1.82289 -0.0878196 0
M  V30 8070 C 760.794 0.990884 -3.47655 0
M  V30 8071 O 760.515 -0.0715937 -4.38041 0
M  V30 8072 C 762.016 1.70854 -4.09052 0
M  V30 8073 H 759.236 0.109987 -0.661924 0
M  V30 8074 H 761.78 -0.312358 -2.021 0
M  V30 8075 H 759.935 1.69432 -3.48384 0
M  V30 8076 H 760.349 0.338892 -5.23404 0
M  V30 8077 H 761.823 2.04572 -5.12693 0
M  V30 8078 H 762.3 2.61462 -3.52894 0
M  V30 8079 H 762.906 1.0508 -4.12114 0
M  V30 8080 N 761.222 1.57436 0.0718424 0
M  V30 8081 C 762.185 2.02703 1.06977 0
M  V30 8082 C 763.185 0.924062 1.31597 0
M  V30 8083 O 764.375 1.18894 1.27318 0
M  V30 8084 C 761.507 2.40763 2.41342 0
M  V30 8085 H 762.7 2.92098 0.679619 0
M  V30 8086 H 760.253 1.5304 0.317565 0
M  V30 8087 H 760.988 1.54394 2.8519 0
M  V30 8088 H 760.773 3.21249 2.24814 0
M  V30 8089 H 762.263 2.76361 3.13073 0
M  V30 8090 N 762.7 -0.34323 1.53817 0
M  V30 8091 C 763.977 -1.10047 1.61706 0
M  V30 8092 C 764.357 -2.06495 0.438514 0
M  V30 8093 O 763.705 -2.21297 -0.569188 0
M  V30 8094 C 763.915 -1.81985 2.97796 0
M  V30 8095 C 765.263 -2.35717 3.53161 0
M  V30 8096 O 766.287 -1.9208 2.99973 0
M  V30 8097 O 765.146 -3.15551 4.46195 0
M  V30 8098 H 762.24 -0.506096 0.654061 0
M  V30 8099 H 764.786 -0.344697 1.66162 0
M  V30 8100 H 763.558 -1.11722 3.75012 0
M  V30 8101 H 763.181 -2.64419 2.96931 0
M  V30 8102 N 764.178 -1.45556 -0.604258 0
M  V30 8103 C 765.594 -1.30035 -0.925368 0
M  V30 8104 C 765.794 -0.255833 -1.99869 0
M  V30 8105 O 764.85 0.349076 -2.50075 0
M  V30 8106 C 766.163 -2.68028 -1.36314 0
M  V30 8107 C 767.711 -2.75951 -1.47717 0
M  V30 8108 C 768.186 -4.14476 -1.94868 0
M  V30 8109 N 769.677 -4.16787 -2.02097 0
M  V30 8110 C 770.412 -5.20845 -2.39809 0
M  V30 8111 N 769.908 -6.35246 -2.76467 0
M  V30 8112 N 771.701 -5.08204 -2.40177 0
M  V30 8113 H 763.852 -2.1214 0.10512 0
M  V30 8114 H 766.115 -0.947871 -0.0156303 0
M  V30 8115 H 765.821 -3.45667 -0.648628 0
M  V30 8116 H 765.695 -2.96711 -2.329 0
M  V30 8117 H 768.082 -1.98613 -2.18258 0
M  V30 8118 H 768.163 -2.50977 -0.494371 0
M  V30 8119 H 767.807 -4.923 -1.24912 0
M  V30 8120 H 767.737 -4.36843 -2.94068 0
M  V30 8121 H 770.228 -3.34233 -1.76343 0
M  V30 8122 H 770.541 -7.10438 -3.04134 0
M  V30 8123 H 768.886 -6.38642 -2.74155 0
M  V30 8124 H 772.077 -4.17874 -2.10947 0
M  V30 8125 H 772.25 -5.89417 -2.69242 0
M  V30 8126 N 765.656 0.84705 -1.32902 0
M  V30 8127 C 766.606 1.94451 -1.19049 0
M  V30 8128 C 767.59 1.60617 -0.095461 0
M  V30 8129 O 768.782 1.74033 -0.322739 0
M  V30 8130 C 765.911 3.30645 -0.923509 0
M  V30 8131 C 764.997 3.70675 -2.0606 0
M  V30 8132 N 765.388 3.82468 -3.30986 0
M  V30 8133 C 763.686 4.00357 -1.96547 0
M  V30 8134 C 764.387 4.17056 -4.05511 0
M  V30 8135 N 763.363 4.28985 -3.33876 0
M  V30 8136 H 767.165 2.01713 -2.1375 0
M  V30 8137 H 764.679 1.03928 -1.24791 0
M  V30 8138 H 766.676 4.0905 -0.805212 0
M  V30 8139 H 765.336 3.24697 0.0150523 0
M  V30 8140 H 766.347 3.66589 -3.65832 0
M  V30 8141 H 763.024 4.02666 -1.10299 0
M  V30 8142 H 764.414 4.33585 -5.13277 0
M  V30 8143 N 767.134 1.16236 1.06428 0
M  V30 8144 C 768.359 0.967688 1.83441 0
M  V30 8145 C 768.784 -0.479167 1.81894 0
M  V30 8146 O 768.142 -1.34224 1.21875 0
M  V30 8147 C 768.19 1.49806 3.2801 0
M  V30 8148 O 767.294 0.703481 4.06356 0
M  V30 8149 H 766.635 0.344468 0.56766 0
M  V30 8150 H 769.165 1.54442 1.34197 0
M  V30 8151 H 769.175 1.51495 3.78831 0
M  V30 8152 H 767.85 2.55133 3.2845 0
M  V30 8153 H 766.427 0.756986 3.65136 0
M  V30 8154 N 768.612 -1.24939 0.960631 0
M  V30 8155 C 769.858 -1.93104 0.61958 0
M  V30 8156 C 770.191 -1.74991 -0.84212 0
M  V30 8157 O 769.466 -1.09867 -1.60498 0
M  V30 8158 C 769.749 -3.46326 0.986422 0
M  V30 8159 C 769.602 -3.73638 2.50429 0
M  V30 8160 C 770.921 -4.37067 0.515827 0
M  V30 8161 H 768.04 -0.701311 0.226566 0
M  V30 8162 H 770.682 -1.47442 1.19836 0
M  V30 8163 H 768.832 -3.85348 0.493907 0
M  V30 8164 H 770.504 -3.44217 3.07103 0
M  V30 8165 H 768.747 -3.19035 2.93937 0
M  V30 8166 H 769.418 -4.80815 2.71147 0
M  V30 8167 H 771.894 -4.05381 0.938389 0
M  V30 8168 H 770.77 -5.43022 0.80114 0
M  V30 8169 H 771.031 -4.38224 -0.584171 0
M  V30 8170 N 770.09 -0.729906 -1.39679 0
M  V30 8171 C 771.339 -0.272534 -1.9985 0
M  V30 8172 C 771.652 1.14519 -1.58571 0
M  V30 8173 O 772.858 1.70182 -2.11543 0
M  V30 8174 C 771.314 -0.436322 -3.57245 0
M  V30 8175 C 770.922 -1.86161 -4.0749 0
M  V30 8176 C 772.666 -0.0404679 -4.24481 0
M  V30 8177 C 770.573 -1.97522 -5.5744 0
M  V30 8178 H 769.503 -0.0981428 -0.747585 0
M  V30 8179 H 772.154 -0.903056 -1.59741 0
M  V30 8180 H 770.536 0.263015 -3.95126 0
M  V30 8181 H 771.71 -2.59248 -3.80955 0
M  V30 8182 H 770.025 -2.21021 -3.529 0
M  V30 8183 H 772.622 -0.104437 -5.34598 0
M  V30 8184 H 772.965 1.00357 -4.04023 0
M  V30 8185 H 773.498 -0.690774 -3.91757 0
M  V30 8186 H 770.237 -3.00096 -5.82771 0
M  V30 8187 H 769.757 -1.28864 -5.85794 0
M  V30 8188 H 771.436 -1.754 -6.22771 0
M  V30 8189 N 771.568 1.50203 -0.477153 0
M  V30 8190 C 772.5 2.26508 0.350239 0
M  V30 8191 C 773.513 1.32081 0.95176 0
M  V30 8192 O 774.702 1.57546 0.839139 0
M  V30 8193 C 771.802 3.0361 1.50579 0
M  V30 8194 C 770.975 4.25438 1.01595 0
M  V30 8195 C 770.034 4.84783 2.04626 0
M  V30 8196 O 769.06 5.45528 1.62442 0
M  V30 8197 N 770.262 4.72318 3.37485 0
M  V30 8198 H 773.027 2.98155 -0.30394 0
M  V30 8199 H 770.588 1.58938 -0.308289 0
M  V30 8200 H 772.58 3.4019 2.1921 0
M  V30 8201 H 771.15 2.34724 2.06455 0
M  V30 8202 H 770.37 3.93894 0.155316 0
M  V30 8203 H 771.658 5.04413 0.666694 0
M  V30 8204 H 771.056 4.24022 3.74462 0
M  V30 8205 H 769.613 5.13149 4.01897 0
M  V30 8206 N 773.046 0.209999 1.56195 0
M  V30 8207 C 773.994 -0.721416 2.2113 0
M  V30 8208 C 774.988 -1.20852 1.18706 0
M  V30 8209 O 776.194 -1.16968 1.36815 0
M  V30 8210 H 772.569 -0.251033 0.708863 0
M  V30 8211 H 774.54 -0.150193 2.98022 0
M  V30 8212 C 773.289 -1.92392 2.89621 0
M  V30 8213 H 772.612 -1.5582 3.68185 0
M  V30 8214 H 774.052 -2.55367 3.38473 0
M  V30 8215 C 772.511 -2.77208 1.91461 0
M  V30 8216 O 773.041 -3.75603 1.42426 0
M  V30 8217 N 771.247 -2.43006 1.59363 0
M  V30 8218 H 770.794 -1.63047 1.99433 0
M  V30 8219 H 770.752 -3.00036 0.939449 0
M  V30 8220 N 774.524 -1.57472 -0.0634922 0
M  V30 8221 C 775.772 -1.87283 -0.759563 0
M  V30 8222 C 776.093 -0.803135 -1.77693 0
M  V30 8223 O 775.363 0.167293 -1.95184 0
M  V30 8224 H 773.943 -0.691106 -0.283516 0
M  V30 8225 H 776.605 -1.94864 -0.0376091 0
M  V30 8226 H 775.701 -2.85064 -1.27062 0
M  V30 8227 N 776.003 0.335068 -1.53997 0
M  V30 8228 C 776.95 1.41187 -1.82579 0
M  V30 8229 C 777.92 1.51897 -0.672061 0
M  V30 8230 O 779.105 1.673 -0.917346 0
M  V30 8231 C 776.245 2.77717 -2.0486 0
M  V30 8232 C 775.358 2.7573 -3.32561 0
M  V30 8233 C 774.493 4.04032 -3.44864 0
M  V30 8234 C 773.532 3.96308 -4.66483 0
M  V30 8235 N 772.669 5.16317 -4.75774 0
M  V30 8236 H 777.509 1.16113 -2.74448 0
M  V30 8237 H 775.046 0.562305 -1.35928 0
M  V30 8238 H 777.004 3.57071 -2.15768 0
M  V30 8239 H 775.634 3.01124 -1.16294 0
M  V30 8240 H 774.686 1.88432 -3.3045 0
M  V30 8241 H 775.998 2.65902 -4.22016 0
M  V30 8242 H 775.152 4.91814 -3.55251 0
M  V30 8243 H 773.891 4.16652 -2.53481 0
M  V30 8244 H 772.896 3.06911 -4.56164 0
M  V30 8245 H 774.121 3.85263 -5.5924 0
M  V30 8246 H 772.067 5.29464 -3.87303 0
M  V30 8247 H 771.984 5.08779 -5.59178 0
M  V30 8248 H 773.252 6.05846 -4.9048 0
M  V30 8249 N 777.481 1.45874 0.596531 0
M  V30 8250 C 778.391 1.57947 1.73464 0
M  V30 8251 C 779.407 0.463461 1.67714 0
M  V30 8252 O 780.583 0.725685 1.87872 0
M  V30 8253 C 777.648 1.55348 3.09948 0
M  V30 8254 C 776.709 2.78074 3.27068 0
M  V30 8255 C 775.942 2.75589 4.57041 0
M  V30 8256 O 776.165 1.83545 5.40063 0
M  V30 8257 O 775.099 3.66945 4.77111 0
M  V30 8258 H 778.925 2.54169 1.66228 0
M  V30 8259 H 776.51 1.2851 0.76194 0
M  V30 8260 H 778.392 1.56545 3.91244 0
M  V30 8261 H 777.067 0.622811 3.17652 0
M  V30 8262 H 775.974 2.82435 2.45319 0
M  V30 8263 H 777.307 3.70303 3.24248 0
M  V30 8264 N 778.959 -0.83999 1.33349 0
M  V30 8265 C 779.907 -1.97113 1.23488 0
M  V30 8266 C 780.901 -1.68849 0.136503 0
M  V30 8267 O 782.107 -1.77476 0.300389 0
M  V30 8268 H 778.482 -0.647049 0.383185 0
M  V30 8269 H 780.453 -2.02554 2.19122 0
M  V30 8270 C 779.202 -3.33314 0.989815 0
M  V30 8271 H 778.525 -3.556 1.82726 0
M  V30 8272 H 779.965 -4.12963 0.961123 0
M  V30 8273 C 778.424 -3.35496 -0.307272 0
M  V30 8274 O 778.954 -3.79589 -1.31434 0
M  V30 8275 N 777.16 -2.88669 -0.334414 0
M  V30 8276 H 776.707 -2.5298 0.485659 0
M  V30 8277 H 776.665 -2.90512 -1.20209 0
M  V30 8278 N 780.437 -1.16799 -1.0581 0
M  V30 8279 C 781.662 -0.977402 -1.82925 0
M  V30 8280 C 782.087 0.469514 -1.82146 0
M  V30 8281 O 781.445 1.33576 -1.22585 0
M  V30 8282 C 781.493 -1.51543 -3.27211 0
M  V30 8283 O 780.597 -0.725021 -4.05977 0
M  V30 8284 H 779.938 -0.347474 -0.565825 0
M  V30 8285 H 782.468 -1.55151 -1.33376 0
M  V30 8286 H 782.478 -1.53502 -3.78023 0
M  V30 8287 H 781.153 -2.56872 -3.27093 0
M  V30 8288 H 779.73 -0.77634 -3.64729 0
M  V30 8289 N 781.915 1.24427 -0.967243 0
M  V30 8290 C 783.143 1.96541 -0.646477 0
M  V30 8291 C 783.558 1.71753 0.783996 0
M  V30 8292 O 782.915 1.00102 1.52597 0
M  V30 8293 C 782.966 3.4983 -0.911098 0
M  V30 8294 O 782.687 3.7377 -2.28534 0
M  V30 8295 C 784.188 4.3916 -0.604458 0
M  V30 8296 H 781.408 0.626129 -0.241255 0
M  V30 8297 H 783.952 1.58268 -1.29505 0
M  V30 8298 H 782.107 3.86168 -0.308741 0
M  V30 8299 H 782.521 4.68154 -2.365 0
M  V30 8300 H 783.995 5.4557 -0.840069 0
M  V30 8301 H 784.472 4.36771 0.461273 0
M  V30 8302 H 785.078 4.08409 -1.1867 0
M  V30 8303 N 783.393 0.737304 1.3929 0
M  V30 8304 C 784.642 0.283129 1.99703 0
M  V30 8305 C 784.955 -1.13677 1.59176 0
M  V30 8306 O 786.161 -1.69058 2.12442 0
M  V30 8307 C 784.617 0.455262 3.57009 0
M  V30 8308 C 784.225 1.88319 4.06497 0
M  V30 8309 C 785.969 0.0629786 4.24453 0
M  V30 8310 C 783.876 2.00475 5.56385 0
M  V30 8311 H 782.806 0.102106 0.747054 0
M  V30 8312 H 785.457 0.911515 1.5926 0
M  V30 8313 H 783.839 -0.242057 3.9526 0
M  V30 8314 H 785.013 2.61265 3.79575 0
M  V30 8315 H 783.328 2.2289 3.51723 0
M  V30 8316 H 785.925 0.132787 5.34535 0
M  V30 8317 H 786.268 -0.982128 4.04549 0
M  V30 8318 H 786.801 0.71154 3.91385 0
M  V30 8319 H 783.54 3.03182 5.81172 0
M  V30 8320 H 783.06 1.31969 5.85102 0
M  V30 8321 H 784.739 1.787 6.21832 0
M  V30 8322 N 784.871 -1.49948 0.485112 0
M  V30 8323 C 786.282 -1.8667 0.0334041 0
M  V30 8324 C 786.633 -1.3988 -1.37579 0
M  V30 8325 O 785.758 -0.769788 -2.02245 0
M  V30 8326 C 786.353 -3.38757 0.0538426 0
M  V30 8327 C 784.912 -3.74839 -0.342453 0
M  V30 8328 C 784.059 -2.73894 0.433281 0
M  V30 8329 H 787.01 -1.42492 0.698699 0
M  V30 8330 H 787.031 -3.73132 -0.745146 0
M  V30 8331 H 786.543 -3.72782 1.07959 0
M  V30 8332 H 784.644 -3.46419 -1.37203 0
M  V30 8333 H 784.757 -4.79088 -0.0340503 0
M  V30 8334 H 783.121 -2.54441 -0.114849 0
M  V30 8335 H 783.904 -3.10763 1.45881 0
M  V30 8336 N 786.349 -0.21828 -1.56081 0
M  V30 8337 C 787.626 0.463143 -1.90038 0
M  V30 8338 C 788.006 1.77982 -1.13515 0
M  V30 8339 O 787.354 2.27199 -0.24345 0
M  V30 8340 C 787.564 0.659292 -3.42716 0
M  V30 8341 C 788.912 0.968203 -4.13414 0
M  V30 8342 O 789.936 0.746195 -3.48296 0
M  V30 8343 O 788.795 1.38936 -5.28544 0
M  V30 8344 H 785.889 0.244435 -0.790051 0
M  V30 8345 H 788.435 -0.260221 -1.67693 0
M  V30 8346 H 787.207 -0.269584 -3.9037 0
M  V30 8347 H 786.83 1.43426 -3.7083 0
M  V30 8348 N 787.827 1.57504 0.0551401 0
M  V30 8349 C 788.759 2.0158 1.09078 0
M  V30 8350 C 789.772 0.92434 1.34014 0
M  V30 8351 O 790.961 1.20202 1.31961 0
M  V30 8352 C 788.061 2.35385 2.43818 0
M  V30 8353 C 787.234 3.66588 2.38605 0
M  V30 8354 C 786.293 3.87874 3.55585 0
M  V30 8355 O 785.319 4.59259 3.36258 0
M  V30 8356 N 786.521 3.31503 4.76536 0
M  V30 8357 H 789.286 2.91039 0.71529 0
M  V30 8358 H 786.847 1.60058 0.243532 0
M  V30 8359 H 788.839 2.46784 3.20749 0
M  V30 8360 H 787.409 1.51731 2.73307 0
M  V30 8361 H 786.629 3.65787 1.46947 0
M  V30 8362 H 787.917 4.52706 2.32239 0
M  V30 8363 H 787.315 2.73592 4.9514 0
M  V30 8364 H 785.872 3.48324 5.50921 0
M  V30 8365 N 789.305 -0.326896 1.54172 0
M  V30 8366 C 790.721 -0.671034 1.44808 0
M  V30 8367 C 790.921 -1.91781 0.618258 0
M  V30 8368 O 789.977 -2.52235 0.115751 0
M  V30 8369 C 791.29 -0.848147 2.88491 0
M  V30 8370 C 792.838 -0.945702 2.98371 0
M  V30 8371 C 793.313 -1.15501 4.43197 0
M  V30 8372 N 794.804 -1.22183 4.46795 0
M  V30 8373 C 795.539 -1.4016 5.56006 0
M  V30 8374 N 795.035 -1.55202 6.75192 0
M  V30 8375 N 796.828 -1.42841 5.43648 0
M  V30 8376 H 788.979 0.49262 2.06608 0
M  V30 8377 H 791.242 0.158574 0.934643 0
M  V30 8378 H 790.948 -0.00329969 3.517 0
M  V30 8379 H 790.822 -1.74497 3.34411 0
M  V30 8380 H 793.209 -1.78106 2.35292 0
M  V30 8381 H 793.29 -0.0254215 2.55787 0
M  V30 8382 H 792.934 -0.324521 5.06862 0
M  V30 8383 H 792.864 -2.08911 4.83388 0
M  V30 8384 H 795.355 -1.12016 3.60917 0
M  V30 8385 H 795.668 -1.68601 7.54184 0
M  V30 8386 H 794.013 -1.52306 6.78106 0
M  V30 8387 H 797.204 -1.30683 4.49488 0
M  V30 8388 H 797.377 -1.56509 6.28816 0
M  V30 8389 N 790.784 -1.46188 -0.588786 0
M  V30 8390 C 792.012 -1.54743 -1.37339 0
M  V30 8391 C 792.427 -0.186446 -1.87877 0
M  V30 8392 O 791.784 0.815247 -1.63279 0
M  V30 8393 C 791.835 -2.54727 -2.56508 0
M  V30 8394 O 791.556 -3.85539 -2.08066 0
M  V30 8395 C 793.057 -2.73163 -3.49137 0
M  V30 8396 H 790.277 -0.523484 -0.419768 0
M  V30 8397 H 792.821 -1.91543 -0.716345 0
M  V30 8398 H 790.976 -2.20948 -3.18215 0
M  V30 8399 H 791.39 -4.39905 -2.85629 0
M  V30 8400 H 792.864 -3.47057 -4.2925 0
M  V30 8401 H 793.341 -1.79856 -4.00685 0
M  V30 8402 H 793.947 -3.08014 -2.9327 0
M  V30 8403 N 792.262 0.832906 -1.33792 0
M  V30 8404 C 793.673 1.40489 -1.22963 0
M  V30 8405 C 794.024 1.95633 0.149026 0
M  V30 8406 O 793.149 1.8928 1.04891 0
M  V30 8407 C 793.744 2.55387 -2.22627 0
M  V30 8408 C 792.303 3.08522 -2.15618 0
M  V30 8409 C 791.45 1.81347 -2.09782 0
M  V30 8410 H 794.401 0.638156 -1.45304 0
M  V30 8411 H 794.422 3.33193 -1.83746 0
M  V30 8412 H 793.934 2.15222 -3.22957 0
M  V30 8413 H 792.035 3.53217 -1.18611 0
M  V30 8414 H 792.148 3.6829 -3.0643 0
M  V30 8415 H 790.512 2.01839 -1.55349 0
M  V30 8416 H 791.295 1.43369 -3.1193 0
M  V30 8417 N 793.74 1.17359 1.05189 0
M  V30 8418 C 794.986 0.963413 1.78455 0
M  V30 8419 C 795.319 -0.506703 1.87473 0
M  V30 8420 O 794.594 -1.37611 1.37453 0
M  V30 8421 C 794.877 1.60519 3.22344 0
M  V30 8422 C 794.73 3.14741 3.21338 0
M  V30 8423 C 796.049 1.3091 4.20179 0
M  V30 8424 H 793.168 0.351412 0.647826 0
M  V30 8425 H 795.81 1.44858 1.22948 0
M  V30 8426 H 793.96 1.19265 3.69741 0
M  V30 8427 H 795.632 3.65053 2.82017 0
M  V30 8428 H 793.875 3.4749 2.59679 0
M  V30 8429 H 794.546 3.54775 4.22894 0
M  V30 8430 H 797.022 1.66635 3.81277 0
M  V30 8431 H 795.898 1.784 5.191 0
M  V30 8432 H 796.159 0.229908 4.41502 0
M  V30 8433 N 795.218 -1.23913 0.973828 0
M  V30 8434 C 796.181 -2.23367 0.51378 0
M  V30 8435 C 797.181 -1.55923 -0.39302 0
M  V30 8436 O 798.371 -1.73187 -0.187626 0
M  V30 8437 C 795.503 -3.39944 -0.255152 0
M  V30 8438 H 796.696 -2.65581 1.39307 0
M  V30 8439 H 794.249 -1.36632 0.759039 0
M  V30 8440 H 794.984 -3.03177 -1.15127 0
M  V30 8441 H 794.769 -3.90098 0.395673 0
M  V30 8442 H 796.259 -4.13749 -0.565842 0
M  V30 8443 N 796.696 -0.74468 -1.38897 0
M  V30 8444 C 797.921 -0.306119 -2.05128 0
M  V30 8445 C 798.346 1.0541 -1.55789 0
M  V30 8446 O 797.704 1.66993 -0.705909 0
M  V30 8447 C 797.752 -0.328195 -3.59103 0
M  V30 8448 O 796.856 0.680876 -4.06741 0
M  V30 8449 H 796.197 -0.137209 -0.649669 0
M  V30 8450 H 798.727 -1.01331 -1.77745 0
M  V30 8451 H 798.737 -0.175956 -4.0762 0
M  V30 8452 H 797.412 -1.32067 -3.94374 0
M  V30 8453 H 795.989 0.49398 -3.69614 0
M  V30 8454 N 798.174 1.49689 -0.493057 0
M  V30 8455 C 799.402 2.06836 0.0513141 0
M  V30 8456 C 799.817 1.35436 1.31539 0
M  V30 8457 O 799.174 0.430248 1.77356 0
M  V30 8458 C 799.225 3.60107 0.317003 0
M  V30 8459 O 798.946 4.2882 -0.896957 0
M  V30 8460 C 800.447 4.33945 0.905902 0
M  V30 8461 H 797.667 0.670787 -0.0169048 0
M  V30 8462 H 800.211 1.92574 -0.688139 0
M  V30 8463 H 798.366 3.74099 1.00642 0
M  V30 8464 H 798.78 5.20395 -0.654939 0
M  V30 8465 H 800.254 5.42087 1.04144 0
M  V30 8466 H 800.731 3.95895 1.90168 0
M  V30 8467 H 801.337 4.2454 0.254195 0
M  V30 8468 N 799.652 0.226554 1.55963 0
M  V30 8469 C 800.602 -0.694986 2.1715 0
M  V30 8470 C 801.586 -1.15394 1.12129 0
M  V30 8471 O 802.778 -1.1071 1.38102 0
M  V30 8472 C 799.907 -1.9007 2.85882 0
M  V30 8473 C 798.993 -1.46119 3.98133 0
M  V30 8474 N 799.384 -0.734584 5.00437 0
M  V30 8475 C 797.682 -1.74809 4.10314 0
M  V30 8476 C 798.383 -0.509773 5.79462 0
M  V30 8477 N 797.359 -1.06796 5.33006 0
M  V30 8478 H 801.161 -0.131469 2.93606 0
M  V30 8479 H 798.675 0.0280165 1.62376 0
M  V30 8480 H 800.672 -2.57169 3.28131 0
M  V30 8481 H 799.332 -2.46864 2.10923 0
M  V30 8482 H 800.343 -0.386757 5.16454 0
M  V30 8483 H 797.02 -2.32887 3.46511 0
M  V30 8484 H 798.41 0.0688847 6.71865 0
M  V30 8485 N 801.13 -1.57531 -0.0467866 0
M  V30 8486 C 802.355 -1.93087 -0.757123 0
M  V30 8487 C 802.78 -0.825116 -1.69037 0
M  V30 8488 O 802.138 0.220449 -1.79955 0
M  V30 8489 C 802.186 -3.27669 -1.5055 0
M  V30 8490 O 801.29 -3.18667 -2.61773 0
M  V30 8491 H 800.631 -0.631597 -0.204892 0
M  V30 8492 H 803.161 -2.04599 -0.00755232 0
M  V30 8493 H 803.171 -3.6214 -1.87932 0
M  V30 8494 H 801.846 -4.07717 -0.820931 0
M  V30 8495 H 800.423 -2.95798 -2.27064 0
M  V30 8496 N 802.608 0.318715 -1.54344 0
M  V30 8497 C 803.857 1.05363 -1.71993 0
M  V30 8498 C 804.17 1.89018 -0.503155 0
M  V30 8499 O 805.376 2.65639 -0.561085 0
M  V30 8500 C 803.832 1.92281 -3.0423 0
M  V30 8501 C 803.44 1.13715 -4.33328 0
M  V30 8502 C 805.184 2.65479 -3.31242 0
M  V30 8503 C 803.091 1.99806 -5.56625 0
M  V30 8504 H 802.021 0.397081 -0.64097 0
M  V30 8505 H 804.672 0.311598 -1.80835 0
M  V30 8506 H 803.054 2.70402 -2.89307 0
M  V30 8507 H 804.228 0.403305 -4.59032 0
M  V30 8508 H 802.543 0.521769 -4.13118 0
M  V30 8509 H 805.14 3.30209 -4.20555 0
M  V30 8510 H 805.483 3.33374 -2.49334 0
M  V30 8511 H 806.016 1.94417 -3.47054 0
M  V30 8512 H 802.755 1.36411 -6.41149 0
M  V30 8513 H 802.275 2.70911 -5.35133 0
M  V30 8514 H 803.954 2.58277 -5.93213 0
M  V30 8515 N 804.086 1.46499 0.581025 0
M  V30 8516 C 805.311 1.55708 1.37002 0
M  V30 8517 C 805.736 0.19942 1.8704 0
M  V30 8518 O 805.094 -0.820731 1.61659 0
M  V30 8519 C 805.142 2.56716 2.53238 0
M  V30 8520 O 804.246 2.10336 3.54729 0
M  V30 8521 H 803.587 0.523912 0.407937 0
M  V30 8522 H 806.117 1.92085 0.704602 0
M  V30 8523 H 806.127 2.76378 3.00132 0
M  V30 8524 H 804.802 3.55307 2.16171 0
M  V30 8525 H 803.379 2.00669 3.14303 0
M  V30 8526 N 805.565 -0.825799 1.34232 0
M  V30 8527 C 806.79 -1.61883 1.29648 0
M  V30 8528 C 807.215 -1.87669 -0.127295 0
M  V30 8529 O 806.573 -1.45016 -1.08813 0
M  V30 8530 C 806.621 -2.93846 2.09014 0
M  V30 8531 O 805.725 -3.85778 1.4577 0
M  V30 8532 H 805.066 -0.492454 0.445405 0
M  V30 8533 H 807.596 -1.02641 1.76992 0
M  V30 8534 H 807.606 -3.43435 2.20264 0
M  V30 8535 H 806.281 -2.74401 3.12533 0
M  V30 8536 H 804.858 -3.4429 1.43245 0
M  V30 8537 N 807.043 -1.17915 -1.04565 0
M  V30 8538 C 808.006 -0.903787 -2.10628 0
M  V30 8539 C 809.006 0.10873 -1.60432 0
M  V30 8540 O 810.196 -0.124152 -1.73757 0
M  V30 8541 C 807.328 -0.355017 -3.39046 0
M  V30 8542 H 808.521 -1.84425 -2.3649 0
M  V30 8543 H 806.074 -0.990477 -1.2091 0
M  V30 8544 H 806.809 0.592297 -3.18845 0
M  V30 8545 H 806.594 -1.08484 -3.76794 0
M  V30 8546 H 808.084 -0.180891 -4.17208 0
M  V30 8547 N 808.521 1.23394 -0.980386 0
M  V30 8548 C 809.484 2.23092 -0.525619 0
M  V30 8549 C 810.484 1.56129 0.384745 0
M  V30 8550 O 811.674 1.73284 0.178439 0
M  V30 8551 C 808.806 3.40074 0.23712 0
M  V30 8552 H 809.999 2.64839 -1.40714 0
M  V30 8553 H 807.552 1.36227 -0.766275 0
M  V30 8554 H 808.287 3.03783 1.13518 0
M  V30 8555 H 808.072 3.89883 -0.416356 0
M  V30 8556 H 809.562 4.14043 0.543892 0
M  V30 8557 N 809.999 0.752036 1.385 0
M  V30 8558 C 811.227 0.318274 2.04437 0
M  V30 8559 C 811.642 -1.05285 1.56718 0
M  V30 8560 O 810.999 -1.66844 0.73956 0
M  V30 8561 C 811.05 0.330106 3.5999 0
M  V30 8562 O 810.771 1.64712 4.05957 0
M  V30 8563 C 812.272 -0.117713 4.43144 0
M  V30 8564 H 809.492 0.136228 0.657026 0
M  V30 8565 H 812.036 1.02045 1.7722 0
M  V30 8566 H 810.191 -0.323323 3.86048 0
M  V30 8567 H 810.605 1.57225 5.0038 0
M  V30 8568 H 812.079 -0.0582735 5.51969 0
M  V30 8569 H 812.556 -1.16538 4.23457 0
M  V30 8570 H 813.162 0.506784 4.2227 0
M  V30 8571 N 811.477 -1.49425 0.500989 0
M  V30 8572 C 812.888 -1.86624 0.0532011 0
M  V30 8573 C 813.239 -1.41331 -1.36088 0
M  V30 8574 O 812.364 -0.791195 -2.01418 0
M  V30 8575 C 812.959 -3.38681 0.0897693 0
M  V30 8576 C 811.518 -3.75181 -0.302677 0
M  V30 8577 C 810.665 -2.73419 0.462307 0
M  V30 8578 H 813.616 -1.41743 0.713773 0
M  V30 8579 H 813.637 -3.73902 -0.705528 0
M  V30 8580 H 813.149 -3.71616 1.11907 0
M  V30 8581 H 811.25 -3.47855 -1.33521 0
M  V30 8582 H 811.363 -4.79097 0.0167653 0
M  V30 8583 H 809.727 -2.54548 -0.0878557 0
M  V30 8584 H 810.51 -3.09198 1.49169 0
M  V30 8585 N 812.955 -0.234822 -1.55841 0
M  V30 8586 C 814.232 0.442961 -1.90518 0
M  V30 8587 C 814.612 1.76768 -1.15397 0
M  V30 8588 O 813.96 2.26928 -0.267534 0
M  V30 8589 C 814.17 0.622905 -3.43396 0
M  V30 8590 C 815.518 0.9243 -4.14417 0
M  V30 8591 O 816.542 0.709211 -3.49068 0
M  V30 8592 O 815.401 1.33323 -5.29988 0
M  V30 8593 H 812.495 0.236042 -0.792599 0
M  V30 8594 H 815.041 -0.277992 -1.67408 0
M  V30 8595 H 813.813 -0.310973 -3.90062 0
M  V30 8596 H 813.436 1.39485 -3.7233 0
M  V30 8597 N 814.433 1.57553 0.0384317 0
M  V30 8598 C 815.849 1.54663 0.39391 0
M  V30 8599 C 816.049 0.959685 1.77179 0
M  V30 8600 O 815.105 0.576647 2.45827 0
M  V30 8601 C 816.418 2.99156 0.304352 0
M  V30 8602 C 817.966 3.10659 0.382119 0
M  V30 8603 C 818.441 4.56866 0.322111 0
M  V30 8604 N 819.932 4.61629 0.38119 0
M  V30 8605 C 820.667 5.72284 0.357501 0
M  V30 8606 N 820.163 6.92207 0.286654 0
M  V30 8607 N 821.956 5.60628 0.406538 0
M  V30 8608 H 814.107 1.9406 -0.86339 0
M  V30 8609 H 816.37 0.889673 -0.327392 0
M  V30 8610 H 816.076 3.45788 -0.642141 0
M  V30 8611 H 815.95 3.60753 1.10168 0
M  V30 8612 H 818.337 2.6398 1.31904 0
M  V30 8613 H 818.418 2.5191 -0.444391 0
M  V30 8614 H 818.062 5.0421 -0.611104 0
M  V30 8615 H 817.992 5.13515 1.1666 0
M  V30 8616 H 820.483 3.75343 0.438838 0
M  V30 8617 H 820.796 7.72316 0.273421 0
M  V30 8618 H 819.141 6.9454 0.252841 0
M  V30 8619 H 822.332 4.65836 0.459812 0
M  V30 8620 H 822.505 6.46858 0.384608 0
M  V30 8621 N 815.911 -0.310526 1.54511 0
M  V30 8622 C 817.16 -1.0445 1.72549 0
M  V30 8623 C 817.473 -1.88748 0.513172 0
M  V30 8624 O 818.679 -2.65338 0.575165 0
M  V30 8625 C 817.135 -1.90665 3.05246 0
M  V30 8626 C 816.743 -1.11415 4.33925 0
M  V30 8627 C 818.487 -2.63719 3.32645 0
M  V30 8628 C 816.394 -1.96852 5.57677 0
M  V30 8629 H 815.324 -0.393676 0.643067 0
M  V30 8630 H 817.975 -0.302003 1.80998 0
M  V30 8631 H 816.357 -2.68864 2.90737 0
M  V30 8632 H 817.531 -0.378956 4.59239 0
M  V30 8633 H 815.846 -0.499853 4.13389 0
M  V30 8634 H 818.443 -3.27974 4.223 0
M  V30 8635 H 818.786 -3.32047 2.51098 0
M  V30 8636 H 819.319 -1.92574 3.48081 0
M  V30 8637 H 816.058 -1.33009 6.41864 0
M  V30 8638 H 815.578 -2.68069 5.36562 0
M  V30 8639 H 817.257 -2.55127 5.94575 0
M  V30 8640 N 817.389 -1.46805 -0.573248 0
M  V30 8641 C 818.805 -1.31969 -0.897577 0
M  V30 8642 C 819.005 -0.298171 -1.99282 0
M  V30 8643 O 818.061 0.295953 -2.5076 0
M  V30 8644 C 819.374 -2.70859 -1.30598 0
M  V30 8645 C 820.922 -2.79022 -1.4183 0
M  V30 8646 C 821.397 -4.18516 -1.86033 0
M  V30 8647 N 822.888 -4.2098 -1.9321 0
M  V30 8648 C 823.623 -5.25814 -2.28707 0
M  V30 8649 N 823.119 -6.40968 -2.6293 0
M  V30 8650 N 824.912 -5.13184 -2.29343 0
M  V30 8651 H 817.063 -2.11869 0.150094 0
M  V30 8652 H 819.326 -0.947989 0.00447895 0
M  V30 8653 H 819.032 -3.46965 -0.575161 0
M  V30 8654 H 818.906 -3.01585 -2.26554 0
M  V30 8655 H 821.293 -2.03198 -2.13996 0
M  V30 8656 H 821.374 -2.51969 -0.441024 0
M  V30 8657 H 821.018 -4.94839 -1.14442 0
M  V30 8658 H 820.948 -4.42982 -2.84735 0
M  V30 8659 H 823.439 -3.37898 -1.69214 0
M  V30 8660 H 823.752 -7.16729 -2.88996 0
M  V30 8661 H 822.097 -6.44314 -2.60547 0
M  V30 8662 H 825.288 -4.22255 -2.02036 0
M  V30 8663 H 825.461 -5.94996 -2.56679 0
M  V30 8664 N 818.867 0.818669 -1.34668 0
M  V30 8665 C 820.114 1.57512 -1.27264 0
M  V30 8666 C 820.442 1.93871 0.156254 0
M  V30 8667 O 819.697 1.60582 1.11857 0
M  V30 8668 C 819.996 2.88245 -2.11304 0
M  V30 8669 C 819.662 2.71159 -3.60255 0
M  V30 8670 C 818.324 2.66207 -4.00858 0
M  V30 8671 C 820.676 2.54538 -4.54819 0
M  V30 8672 C 818.004 2.4256 -5.34211 0
M  V30 8673 C 820.356 2.32421 -5.88356 0
M  V30 8674 C 819.02 2.25884 -6.28118 0
M  V30 8675 H 818.29 0.576378 -0.465692 0
M  V30 8676 H 820.937 0.9469 -1.66451 0
M  V30 8677 H 819.242 3.55381 -1.64958 0
M  V30 8678 H 820.939 3.45869 -2.02919 0
M  V30 8679 H 817.529 2.75856 -3.28027 0
M  V30 8680 H 821.713 2.57384 -4.24343 0
M  V30 8681 H 816.969 2.35959 -5.64033 0
M  V30 8682 H 821.143 2.18548 -6.61218 0
M  V30 8683 H 818.77 2.07322 -7.31383 0
M  V30 8684 N 820.346 1.18468 1.03938 0
M  V30 8685 C 821.757 0.984808 1.58614 0
M  V30 8686 C 822.108 -0.465165 1.90606 0
M  V30 8687 O 821.233 -1.34274 1.69704 0
M  V30 8688 C 821.828 1.78135 2.8819 0
M  V30 8689 C 820.387 1.62579 3.39478 0
M  V30 8690 C 819.534 1.77501 2.13046 0
M  V30 8691 H 822.485 1.32993 0.865944 0
M  V30 8692 H 822.506 1.27119 3.58638 0
M  V30 8693 H 822.018 2.83661 2.64874 0
M  V30 8694 H 820.119 0.59595 3.67803 0
M  V30 8695 H 820.232 2.42463 4.13217 0
M  V30 8696 H 818.596 1.2046 2.24414 0
M  V30 8697 H 819.379 2.84464 1.92185 0
M  V30 8698 N 821.824 -1.22873 0.986916 0
M  V30 8699 C 823.24 -1.43594 0.696633 0
M  V30 8700 C 823.44 -1.87622 -0.734869 0
M  V30 8701 O 822.496 -2.02633 -1.50652 0
M  V30 8702 C 823.809 -2.48231 1.69711 0
M  V30 8703 C 825.357 -2.62037 1.71188 0
M  V30 8704 C 825.832 -3.6989 2.70084 0
M  V30 8705 N 827.323 -3.77341 2.68641 0
M  V30 8706 C 828.058 -4.6037 3.41829 0
M  V30 8707 N 827.554 -5.47438 4.24598 0
M  V30 8708 N 829.347 -4.54626 3.30563 0
M  V30 8709 H 821.498 -0.925982 1.91153 0
M  V30 8710 H 823.761 -0.46866 0.824052 0
M  V30 8711 H 823.467 -2.22812 2.72117 0
M  V30 8712 H 823.341 -3.46731 1.48516 0
M  V30 8713 H 825.728 -2.86803 0.694837 0
M  V30 8714 H 825.809 -1.63831 1.96451 0
M  V30 8715 H 825.453 -3.45872 3.71934 0
M  V30 8716 H 825.383 -4.67652 2.42093 0
M  V30 8717 H 827.874 -3.15124 2.08578 0
M  V30 8718 H 828.187 -6.078 4.77283 0
M  V30 8719 H 826.532 -5.4704 4.28687 0
M  V30 8720 H 829.723 -3.85627 2.65347 0
M  V30 8721 H 829.896 -5.19103 3.8786 0
M  V30 8722 N 823.302 -0.75937 -1.38099 0
M  V30 8723 C 824.55 -0.317485 -1.99591 0
M  V30 8724 C 824.871 1.10628 -1.60581 0
M  V30 8725 O 824.141 1.7575 -0.865378 0
M  V30 8726 H 822.721 -0.114397 -0.738189 0
M  V30 8727 H 825.383 -0.974749 -1.68774 0
M  V30 8728 H 824.479 -0.385227 -3.09713 0
M  V30 8729 N 824.78 1.49157 -0.508906 0
M  V30 8730 C 826.008 2.06879 0.0293734 0
M  V30 8731 C 826.423 1.36823 1.30095 0
M  V30 8732 O 825.78 0.449034 1.7689 0
M  V30 8733 C 825.831 3.60423 0.278791 0
M  V30 8734 O 825.552 4.27844 -0.942389 0
M  V30 8735 C 827.053 4.34881 0.859825 0
M  V30 8736 H 824.273 0.67057 -0.0240184 0
M  V30 8737 H 826.817 1.91834 -0.708526 0
M  V30 8738 H 824.972 3.75145 0.966689 0
M  V30 8739 H 825.386 5.19671 -0.710097 0
M  V30 8740 H 826.86 5.43161 0.983884 0
M  V30 8741 H 827.337 3.9789 1.85958 0
M  V30 8742 H 827.943 4.24785 0.209152 0
M  V30 8743 N 826.258 0.243083 1.55714 0
M  V30 8744 C 827.221 -0.644723 2.19945 0
M  V30 8745 C 828.221 -1.10562 1.16759 0
M  V30 8746 O 829.411 -1.01095 1.41865 0
M  V30 8747 C 826.543 -1.88569 2.83997 0
M  V30 8748 H 827.736 -0.0843839 2.99781 0
M  V30 8749 H 825.289 -0.00647246 1.56299 0
M  V30 8750 H 826.024 -2.48736 2.08089 0
M  V30 8751 H 825.809 -1.56345 3.59581 0
M  V30 8752 H 827.299 -2.51774 3.33166 0
M  V30 8753 N 827.736 -1.57571 -0.0300757 0
M  V30 8754 C 828.961 -1.93879 -0.736601 0
M  V30 8755 C 829.386 -0.842998 -1.68152 0
M  V30 8756 O 828.744 0.20135 -1.80178 0
M  V30 8757 C 828.792 -3.29247 -1.47066 0
M  V30 8758 O 827.896 -3.21426 -2.58378 0
M  V30 8759 H 827.237 -0.633735 -0.198181 0
M  V30 8760 H 829.767 -2.04595 0.0141485 0
M  V30 8761 H 829.777 -3.64113 -1.84081 0
M  V30 8762 H 828.452 -4.08565 -0.77764 0
M  V30 8763 H 827.029 -2.98189 -2.23914 0
M  V30 8764 N 829.214 0.302327 -1.54673 0
M  V30 8765 C 830.63 0.647911 -1.45857 0
M  V30 8766 C 830.83 1.90773 -0.64869 0
M  V30 8767 O 829.886 2.52018 -0.155865 0
M  V30 8768 C 831.199 0.802144 -2.89804 0
M  V30 8769 C 832.747 0.898114 -2.99838 0
M  V30 8770 C 833.222 1.08436 -4.44978 0
M  V30 8771 N 834.713 1.15059 -4.48682 0
M  V30 8772 C 835.448 1.31296 -5.58166 0
M  V30 8773 N 834.944 1.4444 -6.77576 0
M  V30 8774 N 836.737 1.34174 -5.45851 0
M  V30 8775 H 828.888 -0.525428 -2.05798 0
M  V30 8776 H 831.151 -0.173423 -0.932002 0
M  V30 8777 H 830.857 -0.0526531 -3.51661 0
M  V30 8778 H 830.731 1.69155 -3.37145 0
M  V30 8779 H 833.118 1.7434 -2.38096 0
M  V30 8780 H 833.199 -0.0152752 -2.55795 0
M  V30 8781 H 832.843 0.243843 -5.07314 0
M  V30 8782 H 832.773 2.01195 -4.8665 0
M  V30 8783 H 835.264 1.0626 -3.62653 0
M  V30 8784 H 835.577 1.56582 -7.56771 0
M  V30 8785 H 833.922 1.41499 -6.80443 0
M  V30 8786 H 837.113 1.23516 -4.5151 0
M  V30 8787 H 837.286 1.46485 -6.31226 0
M  V30 8788 N 830.692 1.47107 0.565454 0
M  V30 8789 C 831.917 1.57153 1.35343 0
M  V30 8790 C 832.342 0.219247 1.86818 0
M  V30 8791 O 831.7 -0.803539 1.62521 0
M  V30 8792 C 831.748 2.59387 2.50501 0
M  V30 8793 O 830.852 2.14086 3.52478 0
M  V30 8794 H 830.193 0.528209 0.402357 0
M  V30 8795 H 832.723 1.92821 0.684189 0
M  V30 8796 H 832.733 2.79546 2.97184 0
M  V30 8797 H 831.408 3.57579 2.12391 0
M  V30 8798 H 829.985 2.03991 3.12157 0
M  V30 8799 N 832.17 -0.811516 1.35101 0
M  V30 8800 C 833.398 -1.59981 1.31201 0
M  V30 8801 C 833.813 -1.8847 -0.111552 0
M  V30 8802 O 833.17 -1.48414 -1.06205 0
M  V30 8803 C 833.221 -2.934 2.11184 0
M  V30 8804 O 832.942 -2.66148 3.4799 0
M  V30 8805 C 834.443 -3.87776 2.14813 0
M  V30 8806 H 831.663 -0.496921 0.450899 0
M  V30 8807 H 834.207 -1.00886 1.77883 0
M  V30 8808 H 832.362 -3.49022 1.68115 0
M  V30 8809 H 832.776 -3.51301 3.89471 0
M  V30 8810 H 834.25 -4.7852 2.75178 0
M  V30 8811 H 834.727 -4.23997 1.14556 0
M  V30 8812 H 835.333 -3.3809 2.58022 0
M  V30 8813 N 833.648 -1.19017 -1.03309 0
M  V30 8814 C 834.895 -0.990214 -1.76638 0
M  V30 8815 C 835.223 0.479435 -1.88498 0
M  V30 8816 O 834.478 1.37223 -1.39529 0
M  V30 8817 C 834.777 -1.59927 -3.19622 0
M  V30 8818 C 834.443 -3.09632 -3.27779 0
M  V30 8819 C 833.105 -3.50491 -3.29712 0
M  V30 8820 C 835.457 -4.05644 -3.27264 0
M  V30 8821 C 832.785 -4.85921 -3.28782 0
M  V30 8822 C 835.137 -5.41 -3.27875 0
M  V30 8823 C 833.801 -5.81295 -3.28104 0
M  V30 8824 H 833.071 -0.362345 -0.646364 0
M  V30 8825 H 835.718 -1.48197 -1.21284 0
M  V30 8826 H 834.023 -1.0297 -3.78027 0
M  V30 8827 H 835.72 -1.41989 -3.7502 0
M  V30 8828 H 832.31 -2.77073 -3.26999 0
M  V30 8829 H 836.494 -3.75124 -3.24955 0
M  V30 8830 H 831.75 -5.16427 -3.27281 0
M  V30 8831 H 835.924 -6.15157 -3.26428 0
M  V30 8832 H 833.551 -6.86211 -3.27138 0
M  V30 8833 N 835.127 1.22348 -0.993418 0
M  V30 8834 C 836.077 2.221 -0.515333 0
M  V30 8835 C 837.061 1.55409 0.416762 0
M  V30 8836 O 838.253 1.75317 0.243497 0
M  V30 8837 C 835.382 3.42888 0.168173 0
M  V30 8838 C 834.468 4.16786 -0.784257 0
M  V30 8839 N 834.859 4.67435 -1.93231 0
M  V30 8840 C 833.157 4.41942 -0.600243 0
M  V30 8841 C 833.858 5.23792 -2.53016 0
M  V30 8842 N 832.834 5.12483 -1.8128 0
M  V30 8843 H 836.636 2.58902 -1.39093 0
M  V30 8844 H 834.15 1.38024 -0.855747 0
M  V30 8845 H 836.147 4.13542 0.528069 0
M  V30 8846 H 834.807 3.07598 1.03989 0
M  V30 8847 H 835.818 4.63375 -2.31309 0
M  V30 8848 H 832.495 4.16891 0.225369 0
M  V30 8849 H 833.885 5.73515 -3.50043 0
M  V30 8850 N 836.605 0.766683 1.37694 0
M  V30 8851 C 837.853 0.328065 1.9942 0
M  V30 8852 C 838.174 -1.09775 1.61166 0
M  V30 8853 O 837.444 -1.75288 0.874686 0
M  V30 8854 H 836.024 0.11831 0.737572 0
M  V30 8855 H 838.686 0.983686 1.68255 0
M  V30 8856 H 837.782 0.401647 3.09505 0
M  V30 8857 N 838.083 -1.48885 0.516809 0
M  V30 8858 C 839.015 -2.27357 -0.290061 0
M  V30 8859 C 840.028 -1.34558 -0.916406 0
M  V30 8860 O 841.217 -1.59715 -0.797073 0
M  V30 8861 C 838.317 -3.07496 -1.42476 0
M  V30 8862 C 837.49 -4.27982 -0.902793 0
M  V30 8863 C 836.549 -4.90038 -1.91701 0
M  V30 8864 O 835.575 -5.49643 -1.47922 0
M  V30 8865 N 836.777 -4.811 -3.24843 0
M  V30 8866 H 839.542 -2.97244 0.382884 0
M  V30 8867 H 837.103 -1.58064 0.35032 0
M  V30 8868 H 839.095 -3.45882 -2.10113 0
M  V30 8869 H 837.665 -2.40115 -2.00159 0
M  V30 8870 H 836.885 -3.94167 -0.0508272 0
M  V30 8871 H 838.173 -5.06003 -0.532723 0
M  V30 8872 H 837.571 -4.33801 -3.63088 0
M  V30 8873 H 836.128 -5.23625 -3.8815 0
M  V30 8874 N 839.561 -0.251338 -1.55583 0
M  V30 8875 C 840.972 0.25098 -1.85005 0
M  V30 8876 C 841.323 1.57259 -1.17321 0
M  V30 8877 O 840.448 2.11603 -0.453136 0
M  V30 8878 C 841.043 0.462161 -3.35633 0
M  V30 8879 C 839.602 0.908737 -3.65266 0
M  V30 8880 C 838.749 -0.0115418 -2.77298 0
M  V30 8881 H 841.7 -0.473782 -1.51463 0
M  V30 8882 H 841.721 1.30415 -3.57452 0
M  V30 8883 H 841.233 -0.499886 -3.84867 0
M  V30 8884 H 839.334 1.8831 -3.21512 0
M  V30 8885 H 839.447 0.762526 -4.72993 0
M  V30 8886 H 837.811 0.500612 -2.49732 0
M  V30 8887 H 838.594 -0.969042 -3.29339 0
M  V30 8888 N 841.039 1.57585 0.0217189 0
M  V30 8889 C 842.455 1.55072 0.377484 0
M  V30 8890 C 842.655 0.978423 1.76151 0
M  V30 8891 O 841.711 0.602688 2.45202 0
M  V30 8892 C 843.024 2.99462 0.272605 0
M  V30 8893 C 844.572 3.11047 0.349148 0
M  V30 8894 C 845.047 4.57182 0.273636 0
M  V30 8895 N 846.538 4.62007 0.332206 0
M  V30 8896 C 847.273 5.72631 0.296782 0
M  V30 8897 N 846.769 6.92472 0.21322 0
M  V30 8898 N 848.562 5.61028 0.347053 0
M  V30 8899 H 840.713 1.93133 -0.883925 0
M  V30 8900 H 842.976 0.886151 -0.33681 0
M  V30 8901 H 842.682 3.45088 -0.67878 0
M  V30 8902 H 842.556 3.61901 1.06335 0
M  V30 8903 H 844.943 2.65364 1.29097 0
M  V30 8904 H 845.024 2.51425 -0.471085 0
M  V30 8905 H 844.668 5.03534 -0.664548 0
M  V30 8906 H 844.598 5.14724 1.11207 0
M  V30 8907 H 847.089 3.75788 0.399003 0
M  V30 8908 H 847.402 7.72563 0.191492 0
M  V30 8909 H 845.747 6.94769 0.179161 0
M  V30 8910 H 848.938 4.66298 0.410378 0
M  V30 8911 H 849.111 6.47229 0.315979 0
M  V30 8912 N 842.517 -0.29412 1.54831 0
M  V30 8913 C 843.427 -1.3854 1.89325 0
M  V30 8914 C 844.443 -1.55127 0.788133 0
M  V30 8915 O 845.619 -1.6966 1.08524 0
M  V30 8916 C 842.684 -2.72809 2.13954 0
M  V30 8917 C 841.745 -2.65148 3.37631 0
M  V30 8918 C 840.978 -3.93014 3.61076 0
M  V30 8919 O 841.201 -4.927 2.87406 0
M  V30 8920 O 840.135 -3.94491 4.54599 0
M  V30 8921 H 843.961 -1.12289 2.82179 0
M  V30 8922 H 841.546 -0.490793 1.41108 0
M  V30 8923 H 843.428 -3.52238 2.31315 0
M  V30 8924 H 842.103 -2.9889 1.24285 0
M  V30 8925 H 841.01 -1.84168 3.25627 0
M  V30 8926 H 842.343 -2.4402 4.27452 0
M  V30 8927 N 843.995 -1.47404 -0.557645 0
M  V30 8928 C 845.411 -1.32913 -0.88353 0
M  V30 8929 C 845.611 -0.31929 -1.98954 0
M  V30 8930 O 844.667 0.26934 -2.51059 0
M  V30 8931 C 845.98 -2.72229 -1.27718 0
M  V30 8932 C 847.528 -2.8051 -1.38863 0
M  V30 8933 C 848.003 -4.20466 -1.81583 0
M  V30 8934 N 849.494 -4.23005 -1.88735 0
M  V30 8935 C 850.229 -5.2821 -2.23118 0
M  V30 8936 N 849.725 -6.4372 -2.56117 0
M  V30 8937 N 851.518 -5.15588 -2.23888 0
M  V30 8938 H 843.669 -2.11698 0.172557 0
M  V30 8939 H 845.932 -0.947889 0.0145334 0
M  V30 8940 H 845.638 -3.47556 -0.538329 0
M  V30 8941 H 845.512 -3.03971 -2.23342 0
M  V30 8942 H 847.899 -2.05457 -2.11829 0
M  V30 8943 H 847.98 -2.52423 -0.414274 0
M  V30 8944 H 847.624 -4.96025 -1.09187 0
M  V30 8945 H 847.554 -4.45977 -2.80021 0
M  V30 8946 H 850.045 -3.39674 -1.65621 0
M  V30 8947 H 850.358 -7.19754 -2.81378 0
M  V30 8948 H 848.703 -6.47041 -2.53698 0
M  V30 8949 H 851.894 -4.24374 -1.97546 0
M  V30 8950 H 852.067 -5.97685 -2.50353 0
M  V30 8951 N 845.473 0.80434 -1.35529 0
M  V30 8952 C 846.889 1.10023 -1.15616 0
M  V30 8953 C 847.089 2.01478 0.0298535 0
M  V30 8954 O 846.145 2.42609 0.699778 0
M  V30 8955 C 847.458 1.72905 -2.46017 0
M  V30 8956 C 849.006 1.85315 -2.52245 0
M  V30 8957 C 849.481 2.51612 -3.82695 0
M  V30 8958 N 850.972 2.59095 -3.83958 0
M  V30 8959 C 851.707 3.11167 -4.81625 0
M  V30 8960 N 851.203 3.63659 -5.89681 0
M  V30 8961 N 852.996 3.09741 -4.6906 0
M  V30 8962 H 845.147 0.196428 -2.1149 0
M  V30 8963 H 847.41 0.149735 -0.9361 0
M  V30 8964 H 847.116 1.13171 -3.32994 0
M  V30 8965 H 846.99 2.72579 -2.6073 0
M  V30 8966 H 849.377 2.44191 -1.65695 0
M  V30 8967 H 849.458 0.844886 -2.41444 0
M  V30 8968 H 849.102 1.93385 -4.69643 0
M  V30 8969 H 849.032 3.5298 -3.90785 0
M  V30 8970 H 851.523 2.21908 -3.05884 0
M  V30 8971 H 851.836 4.01699 -6.60195 0
M  V30 8972 H 850.181 3.61852 -5.9337 0
M  V30 8973 H 853.372 2.68011 -3.83781 0
M  V30 8974 H 853.545 3.50016 -5.45338 0
M  V30 8975 N 846.951 1.19563 1.02676 0
M  V30 8976 C 848.179 1.02488 1.79732 0
M  V30 8977 C 848.594 -0.426302 1.83924 0
M  V30 8978 O 847.951 -1.29609 1.28483 0
M  V30 8979 C 848.002 1.58944 3.24683 0
M  V30 8980 O 847.723 2.98382 3.2078 0
M  V30 8981 C 849.224 1.46681 4.1833 0
M  V30 8982 H 846.444 0.361098 0.565552 0
M  V30 8983 H 848.988 1.58426 1.29311 0
M  V30 8984 H 847.143 1.0715 3.72287 0
M  V30 8985 H 847.557 3.24983 4.11687 0
M  V30 8986 H 849.031 1.90959 5.17918 0
M  V30 8987 H 849.508 0.417663 4.3721 0
M  V30 8988 H 850.114 1.97616 3.76601 0
M  V30 8989 N 848.429 -1.21819 0.999893 0
M  V30 8990 C 849.392 -2.22227 0.561044 0
M  V30 8991 C 850.392 -1.56722 -0.359858 0
M  V30 8992 O 851.582 -1.73546 -0.150848 0
M  V30 8993 C 848.714 -3.40409 -0.182987 0
M  V30 8994 H 849.907 -2.62567 1.44909 0
M  V30 8995 H 847.46 -1.34991 0.78785 0
M  V30 8996 H 848.195 -3.05551 -1.08671 0
M  V30 8997 H 847.98 -3.89171 0.47833 0
M  V30 8998 H 849.47 -4.14856 -0.477952 0
M  V30 8999 N 849.908 -0.773975 -1.37286 0
M  V30 9000 C 851.136 -0.350758 -2.03905 0
M  V30 9001 C 851.551 1.02779 -1.58373 0
M  V30 9002 O 850.908 1.65646 -0.766009 0
M  V30 9003 C 850.959 -0.387335 -3.59419 0
M  V30 9004 O 850.68 -1.7115 -4.03286 0
M  V30 9005 C 852.181 0.047198 -4.43275 0
M  V30 9006 H 849.401 -0.146663 -0.654775 0
M  V30 9007 H 851.945 -1.04852 -1.75574 0
M  V30 9008 H 850.1 0.261865 -3.86514 0
M  V30 9009 H 850.514 -1.65166 -4.97816 0
M  V30 9010 H 851.988 -0.0295474 -5.51992 0
M  V30 9011 H 852.465 1.09786 -4.25257 0
M  V30 9012 H 853.071 -0.573899 -4.2141 0
M  V30 9013 N 851.386 1.48609 -0.524698 0
M  V30 9014 C 852.616 2.06599 0.00741868 0
M  V30 9015 C 853.024 1.3823 1.29186 0
M  V30 9016 O 852.367 0.461962 1.77797 0
M  V30 9017 C 852.429 3.58184 0.307324 0
M  V30 9018 C 852.093 4.48391 -0.882864 0
M  V30 9019 C 853.09 4.88485 -1.77984 0
M  V30 9020 C 850.775 4.90367 -1.08837 0
M  V30 9021 C 852.769 5.69319 -2.86627 0
M  V30 9022 C 850.456 5.70972 -2.17794 0
M  V30 9023 C 851.454 6.10355 -3.06523 0
M  V30 9024 O 851.142 6.89343 -4.13596 0
M  V30 9025 H 850.874 0.675421 -0.0279846 0
M  V30 9026 H 853.428 1.92058 -0.7282 0
M  V30 9027 H 851.658 3.70818 1.09685 0
M  V30 9028 H 853.347 3.98318 0.780886 0
M  V30 9029 H 854.113 4.56682 -1.63299 0
M  V30 9030 H 849.992 4.592 -0.407035 0
M  V30 9031 H 853.536 5.99978 -3.55911 0
M  V30 9032 H 849.433 6.02188 -2.32465 0
M  V30 9033 H 850.201 7.07689 -4.1124 0
M  V30 9034 N 852.864 0.259585 1.55447 0
M  V30 9035 C 853.812 -0.6507 2.23313 0
M  V30 9036 C 854.806 -1.17014 1.22491 0
M  V30 9037 O 856.012 -1.12557 1.40467 0
M  V30 9038 H 852.387 -0.228354 0.71649 0
M  V30 9039 H 854.358 -0.0553039 2.98349 0
M  V30 9040 C 853.107 -1.83081 2.95596 0
M  V30 9041 H 852.43 -1.44027 3.72956 0
M  V30 9042 H 853.87 -2.44469 3.46426 0
M  V30 9043 C 852.329 -2.70976 2.00184 0
M  V30 9044 O 852.859 -3.70882 1.54304 0
M  V30 9045 N 851.065 -2.37813 1.67014 0
M  V30 9046 H 850.612 -1.5662 2.04519 0
M  V30 9047 H 850.57 -2.96896 1.03443 0
M  V30 9048 N 854.342 -1.57594 -0.0133615 0
M  V30 9049 C 855.59 -1.89605 -0.699596 0
M  V30 9050 C 855.911 -0.85926 -1.75048 0
M  V30 9051 O 855.181 0.105112 -1.95618 0
M  V30 9052 H 853.761 -0.699776 -0.261385 0
M  V30 9053 H 856.423 -1.94885 0.0244044 0
M  V30 9054 H 855.519 -2.88962 -1.17928 0
M  V30 9055 N 855.82 0.285905 -1.54985 0
M  V30 9056 C 857.231 0.857869 -1.65824 0
M  V30 9057 C 857.582 1.87531 -0.576763 0
M  V30 9058 O 856.707 2.14528 0.284016 0
M  V30 9059 C 857.302 1.56277 -3.00604 0
M  V30 9060 C 855.861 2.08294 -3.13513 0
M  V30 9061 C 855.008 0.920633 -2.61571 0
M  V30 9062 H 857.959 0.0625463 -1.58577 0
M  V30 9063 H 857.98 2.42912 -2.92872 0
M  V30 9064 H 857.492 0.822017 -3.79295 0
M  V30 9065 H 855.593 2.8537 -2.39572 0
M  V30 9066 H 855.706 2.3071 -4.19892 0
M  V30 9067 H 854.07 1.31043 -2.18403 0
M  V30 9068 H 854.853 0.193594 -3.42754 0
M  V30 9069 N 857.298 1.47698 0.54982 0
M  V30 9070 C 858.709 1.48474 1.13191 0
M  V30 9071 C 859.06 0.243504 1.94683 0
M  V30 9072 O 858.185 -0.651009 2.06375 0
M  V30 9073 C 858.78 2.69022 2.05944 0
M  V30 9074 C 857.339 2.72733 2.5941 0
M  V30 9075 C 856.486 2.41691 1.35944 0
M  V30 9076 H 859.437 1.55101 0.336048 0
M  V30 9077 H 859.458 2.46412 2.89934 0
M  V30 9078 H 858.97 3.59345 1.46605 0
M  V30 9079 H 857.071 1.86568 3.22526 0
M  V30 9080 H 857.184 3.73628 2.99899 0
M  V30 9081 H 855.548 1.92428 1.66864 0
M  V30 9082 H 856.331 3.34231 0.783869 0
M  V30 9083 N 858.776 -0.797141 1.35954 0
M  V30 9084 C 859.739 -1.89104 1.29508 0
M  V30 9085 C 860.739 -1.59495 0.204444 0
M  V30 9086 O 861.929 -1.68051 0.458746 0
M  V30 9087 C 859.061 -3.25726 1.00576 0
M  V30 9088 H 860.254 -1.96237 2.26785 0
M  V30 9089 H 857.807 -0.994075 1.20614 0
M  V30 9090 H 858.542 -3.24279 0.0372519 0
M  V30 9091 H 858.327 -3.48604 1.79492 0
M  V30 9092 H 859.817 -4.0578 0.986508 0
M  V30 9093 N 860.254 -1.20106 -1.0204 0
M  V30 9094 C 861.479 -1.0351 -1.79723 0
M  V30 9095 C 861.904 0.411328 -1.83548 0
M  V30 9096 O 861.262 1.29608 -1.26773 0
M  V30 9097 C 861.31 -1.61876 -3.22224 0
M  V30 9098 O 860.414 -0.853813 -4.03465 0
M  V30 9099 H 859.755 -0.365299 -0.554484 0
M  V30 9100 H 862.285 -1.59316 -1.28373 0
M  V30 9101 H 862.295 -1.65451 -3.72948 0
M  V30 9102 H 860.97 -2.67148 -3.18755 0
M  V30 9103 H 859.547 -0.891983 -3.62075 0
M  V30 9104 N 861.732 1.21287 -1.00634 0
M  V30 9105 C 863.143 1.72136 -0.722914 0
M  V30 9106 C 863.494 1.8091 0.759338 0
M  V30 9107 O 862.619 1.46458 1.59308 0
M  V30 9108 C 863.214 3.12633 -1.30561 0
M  V30 9109 C 861.773 3.60833 -1.07127 0
M  V30 9110 C 860.92 2.38326 -1.4176 0
M  V30 9111 H 863.871 1.06445 -1.17708 0
M  V30 9112 H 863.892 3.74174 -0.690937 0
M  V30 9113 H 863.404 3.06215 -2.38441 0
M  V30 9114 H 861.505 3.72599 -0.00968671 0
M  V30 9115 H 861.618 4.46226 -1.74411 0
M  V30 9116 H 859.982 2.40575 -0.836412 0
M  V30 9117 H 860.765 2.34558 -2.50674 0
M  V30 9118 N 863.21 0.781244 1.36873 0
M  V30 9119 C 864.435 0.360398 2.04245 0
M  V30 9120 C 864.86 -1.01242 1.58529 0
M  V30 9121 O 864.218 -1.65063 0.749936 0
M  V30 9122 C 864.266 0.42329 3.58107 0
M  V30 9123 O 863.37 -0.572796 4.08403 0
M  V30 9124 H 862.711 0.154386 0.645803 0
M  V30 9125 H 865.241 1.06008 1.74996 0
M  V30 9126 H 865.251 0.283967 4.07011 0
M  V30 9127 H 863.926 1.42477 3.90734 0
M  V30 9128 H 862.503 -0.395809 3.70793 0
M  V30 9129 N 864.689 -1.48329 0.532571 0
M  V30 9130 C 865.619 -2.32485 -0.217511 0
M  V30 9131 C 866.6 -1.42255 -0.932598 0
M  V30 9132 O 867.785 -1.7114 -0.917873 0
M  V30 9133 C 864.915 -3.23509 -1.26329 0
M  V30 9134 C 863.869 -4.22784 -0.666191 0
M  V30 9135 C 863.195 -5.0296 -1.81482 0
M  V30 9136 C 864.495 -5.21031 0.363813 0
M  V30 9137 H 866.189 -2.95445 0.485014 0
M  V30 9138 H 863.735 -1.42075 0.234694 0
M  V30 9139 H 865.688 -3.81211 -1.79601 0
M  V30 9140 H 864.412 -2.58554 -1.99543 0
M  V30 9141 H 863.071 -3.66272 -0.15498 0
M  V30 9142 H 862.719 -4.34427 -2.5354 0
M  V30 9143 H 862.419 -5.70154 -1.4212 0
M  V30 9144 H 863.943 -5.63514 -2.35126 0
M  V30 9145 H 865.357 -5.73241 -0.0819079 0
M  V30 9146 H 863.754 -5.96292 0.674956 0
M  V30 9147 H 864.824 -4.6801 1.26865 0
M  V30 9148 N 866.167 -0.267825 -1.55308 0
M  V30 9149 C 867.392 0.357487 -2.04296 0
M  V30 9150 C 867.817 1.49222 -1.14518 0
M  V30 9151 O 867.175 1.80741 -0.142292 0
M  V30 9152 C 867.223 0.822899 -3.51085 0
M  V30 9153 O 866.327 1.93078 -3.6441 0
M  V30 9154 H 865.668 0.075025 -0.659748 0
M  V30 9155 H 868.198 -0.399996 -2.00652 0
M  V30 9156 H 868.208 1.12059 -3.92309 0
M  V30 9157 H 866.883 -0.0073562 -4.15899 0
M  V30 9158 H 865.46 1.63618 -3.35087 0
M  V30 9159 N 867.645 1.57599 0.00500368 0
M  V30 9160 C 868.595 2.04585 1.00643 0
M  V30 9161 C 869.579 0.939622 1.30614 0
M  V30 9162 O 870.771 1.20342 1.29796 0
M  V30 9163 C 867.9 2.5486 2.30002 0
M  V30 9164 C 866.986 3.7235 2.03017 0
M  V30 9165 N 867.377 4.84218 1.46173 0
M  V30 9166 C 865.675 3.80185 2.33185 0
M  V30 9167 C 866.376 5.65688 1.35544 0
M  V30 9168 N 865.352 5.11536 1.83933 0
M  V30 9169 H 869.154 2.8849 0.561332 0
M  V30 9170 H 866.668 1.61026 0.210808 0
M  V30 9171 H 868.665 2.86794 3.0258 0
M  V30 9172 H 867.325 1.72372 2.75169 0
M  V30 9173 H 868.336 5.0517 1.1412 0
M  V30 9174 H 865.013 3.08543 2.81261 0
M  V30 9175 H 866.403 6.65588 0.918791 0
M  V30 9176 N 869.123 -0.277682 1.55134 0
M  V30 9177 C 870.033 -1.36524 1.90783 0
M  V30 9178 C 871.049 -1.54283 0.804542 0
M  V30 9179 O 872.225 -1.68499 1.10318 0
M  V30 9180 C 869.29 -2.70524 2.16835 0
M  V30 9181 C 868.351 -2.61552 3.40424 0
M  V30 9182 C 867.584 -3.89162 3.65224 0
M  V30 9183 O 867.807 -4.89624 2.92616 0
M  V30 9184 O 866.741 -3.89647 4.58758 0
M  V30 9185 H 870.567 -1.0929 2.83354 0
M  V30 9186 H 868.152 -0.475799 1.41621 0
M  V30 9187 H 870.034 -3.49765 2.35038 0
M  V30 9188 H 868.709 -2.97555 1.27448 0
M  V30 9189 H 867.616 -1.80704 3.27562 0
M  V30 9190 H 868.949 -2.39472 4.30016 0
M  V30 9191 N 870.601 -1.47988 -0.541979 0
M  V30 9192 C 871.564 -1.61148 -1.62984 0
M  V30 9193 C 872.564 -0.48553 -1.53295 0
M  V30 9194 O 873.754 -0.751012 -1.5718 0
M  V30 9195 C 870.886 -1.57038 -3.02576 0
M  V30 9196 H 872.079 -2.58138 -1.52659 0
M  V30 9197 H 869.632 -1.36405 -0.763106 0
M  V30 9198 H 870.367 -0.614807 -3.18419 0
M  V30 9199 H 870.152 -2.38769 -3.11018 0
M  V30 9200 H 871.642 -1.69416 -3.81691 0
M  V30 9201 N 872.079 0.78992 -1.36375 0
M  V30 9202 C 873.307 1.57873 -1.3373 0
M  V30 9203 C 873.722 1.88624 0.0815544 0
M  V30 9204 O 873.079 1.50085 1.03831 0
M  V30 9205 C 873.13 2.90003 -2.15825 0
M  V30 9206 O 872.851 2.60578 -3.5218 0
M  V30 9207 C 874.352 3.84309 -2.20955 0
M  V30 9208 H 871.572 0.489685 -0.458748 0
M  V30 9209 H 874.116 0.980436 -1.79465 0
M  V30 9210 H 872.271 3.46303 -1.73646 0
M  V30 9211 H 872.685 3.4506 -3.95011 0
M  V30 9212 H 874.159 4.74081 -2.82756 0
M  V30 9213 H 874.636 4.22121 -1.21287 0
M  V30 9214 H 875.242 3.33942 -2.63368 0
M  V30 9215 N 873.557 1.20646 1.01402 0
M  V30 9216 C 874.968 1.01823 1.56489 0
M  V30 9217 C 875.319 -0.42463 1.9155 0
M  V30 9218 O 874.444 -1.30644 1.72514 0
M  V30 9219 C 875.039 1.84208 2.84347 0
M  V30 9220 C 873.598 1.69743 3.35953 0
M  V30 9221 C 872.745 1.8198 2.09233 0
M  V30 9222 H 875.696 1.348 0.837539 0
M  V30 9223 H 875.717 1.34698 3.55861 0
M  V30 9224 H 875.229 2.89215 2.58798 0
M  V30 9225 H 873.33 0.673833 3.66456 0
M  V30 9226 H 873.443 2.51173 4.07981 0
M  V30 9227 H 871.807 1.25193 2.21808 0
M  V30 9228 H 872.59 2.88477 1.86107 0
M  V30 9229 N 875.035 -1.20752 1.01276 0
M  V30 9230 C 875.965 -2.25658 0.600064 0
M  V30 9231 C 876.946 -1.65733 -0.38298 0
M  V30 9232 O 878.131 -1.92324 -0.269256 0
M  V30 9233 C 875.261 -3.47237 -0.0663197 0
M  V30 9234 C 874.215 -4.1973 0.83731 0
M  V30 9235 C 873.541 -5.34687 0.0369102 0
M  V30 9236 C 874.841 -4.76286 2.14357 0
M  V30 9237 H 876.535 -2.60432 1.477 0
M  V30 9238 H 874.081 -1.25187 0.711634 0
M  V30 9239 H 876.034 -4.19803 -0.366563 0
M  V30 9240 H 874.758 -3.11615 -0.977944 0
M  V30 9241 H 873.417 -3.49024 1.1215 0
M  V30 9242 H 873.065 -4.95309 -0.876244 0
M  V30 9243 H 872.765 -5.84119 0.63865 0
M  V30 9244 H 874.289 -6.10059 -0.256968 0
M  V30 9245 H 875.703 -5.40691 1.90595 0
M  V30 9246 H 874.1 -5.36139 2.69583 0
M  V30 9247 H 875.17 -3.9524 2.80916 0
M  V30 9248 N 876.513 -0.788492 -1.36457 0
M  V30 9249 C 877.738 -0.371224 -2.04051 0
M  V30 9250 C 878.163 1.004 -1.59064 0
M  V30 9251 O 877.521 1.64663 -0.758679 0
M  V30 9252 C 877.569 -0.442275 -3.57877 0
M  V30 9253 O 876.673 0.55113 -4.08701 0
M  V30 9254 H 876.014 -0.157808 -0.644975 0
M  V30 9255 H 878.544 -1.06935 -1.74431 0
M  V30 9256 H 878.554 -0.305548 -4.06854 0
M  V30 9257 H 877.229 -1.44547 -3.89973 0
M  V30 9258 H 875.806 0.37614 -3.70998 0
M  V30 9259 N 877.991 1.48044 -0.54043 0
M  V30 9260 C 878.923 2.2779 0.253854 0
M  V30 9261 C 879.936 1.35999 0.894883 0
M  V30 9262 O 881.125 1.60963 0.771563 0
M  V30 9263 C 878.225 3.09724 1.37566 0
M  V30 9264 C 877.398 4.29364 0.83459 0
M  V30 9265 C 876.457 4.93026 1.83881 0
M  V30 9266 O 875.483 5.51927 1.39159 0
M  V30 9267 N 876.685 4.86207 3.17149 0
M  V30 9268 H 879.45 2.96597 -0.430125 0
M  V30 9269 H 877.011 1.57487 -0.375423 0
M  V30 9270 H 879.003 3.49181 2.04584 0
M  V30 9271 H 877.573 2.43269 1.96314 0
M  V30 9272 H 876.793 3.94198 -0.0118878 0
M  V30 9273 H 878.081 5.06787 0.452155 0
M  V30 9274 H 877.479 4.39523 3.56141 0
M  V30 9275 H 876.036 5.29733 3.79771 0
M  V30 9276 N 879.47 0.276058 1.55163 0
M  V30 9277 C 880.698 -0.343772 2.04024 0
M  V30 9278 C 881.113 -1.49397 1.15438 0
M  V30 9279 O 880.47 -1.81662 0.174692 0
M  V30 9280 C 880.521 -0.823885 3.51986 0
M  V30 9281 O 880.242 0.280507 4.37201 0
M  V30 9282 C 881.743 -1.51143 4.16738 0
M  V30 9283 H 878.963 -0.07828 0.666418 0
M  V30 9284 H 881.507 0.408427 2.0038 0
M  V30 9285 H 879.662 -1.52617 3.56071 0
M  V30 9286 H 880.076 -0.0887831 5.24425 0
M  V30 9287 H 881.55 -1.79878 5.2187 0
M  V30 9288 H 882.027 -2.44327 3.64967 0
M  V30 9289 H 882.633 -0.852975 4.16659 0
M  V30 9290 N 880.948 -1.576 0.00335426 0
M  V30 9291 C 882.364 -1.55653 -0.352766 0
M  V30 9292 C 882.564 -1.00632 -1.74572 0
M  V30 9293 O 881.62 -0.641621 -2.44212 0
M  V30 9294 C 882.933 -2.99858 -0.224929 0
M  V30 9295 C 884.481 -3.11563 -0.299619 0
M  V30 9296 C 884.956 -4.57559 -0.200868 0
M  V30 9297 N 886.447 -4.62477 -0.258663 0
M  V30 9298 C 887.182 -5.73031 -0.205644 0
M  V30 9299 N 886.678 -6.92723 -0.103027 0
M  V30 9300 N 888.471 -5.61509 -0.257754 0
M  V30 9301 H 880.622 -1.91703 0.914539 0
M  V30 9302 H 882.885 -0.88068 0.350865 0
M  V30 9303 H 882.591 -3.43964 0.733595 0
M  V30 9304 H 882.465 -3.63547 -1.00564 0
M  V30 9305 H 884.852 -2.67384 -1.24859 0
M  V30 9306 H 884.933 -2.50644 0.511025 0
M  V30 9307 H 884.577 -5.02413 0.744572 0
M  V30 9308 H 884.507 -5.16428 -1.03004 0
M  V30 9309 H 886.998 -3.76375 -0.339168 0
M  V30 9310 H 887.311 -7.7277 -0.0685593 0
M  V30 9311 H 885.656 -6.94966 -0.0686069 0
M  V30 9312 H 888.847 -4.66892 -0.336142 0
M  V30 9313 H 889.02 -6.4765 -0.21297 0
M  V30 9314 N 882.426 0.269451 -1.5528 0
M  V30 9315 C 883.651 1.02299 -1.80415 0
M  V30 9316 C 884.076 1.7902 -0.577363 0
M  V30 9317 O 883.434 1.75018 0.473125 0
M  V30 9318 C 883.482 1.95445 -3.0304 0
M  V30 9319 O 882.586 3.04271 -2.78375 0
M  V30 9320 H 881.927 0.292289 -0.596207 0
M  V30 9321 H 884.457 0.297282 -2.02429 0
M  V30 9322 H 884.467 2.37333 -3.31869 0
M  V30 9323 H 883.142 1.39017 -3.91978 0
M  V30 9324 H 881.719 2.66673 -2.60653 0
M  V30 9325 N 883.904 1.48273 0.534124 0
M  V30 9326 C 885.32 1.34302 0.862272 0
M  V30 9327 C 885.52 0.350902 1.98421 0
M  V30 9328 O 884.576 -0.229364 2.51456 0
M  V30 9329 C 885.889 2.74227 1.23371 0
M  V30 9330 C 887.437 2.82684 1.34383 0
M  V30 9331 C 887.912 4.23301 1.74871 0
M  V30 9332 N 889.403 4.25954 1.81981 0
M  V30 9333 C 890.138 5.31693 2.14686 0
M  V30 9334 N 889.634 6.47714 2.45844 0
M  V30 9335 N 891.427 5.19084 2.15657 0
M  V30 9336 H 883.578 2.11397 -0.206215 0
M  V30 9337 H 885.841 0.947537 -0.0296116 0
M  V30 9338 H 885.547 3.48368 0.482967 0
M  V30 9339 H 885.421 3.07485 2.18478 0
M  V30 9340 H 887.808 2.08801 2.08534 0
M  V30 9341 H 887.889 2.5305 0.374063 0
M  V30 9342 H 887.533 4.97699 1.01282 0
M  V30 9343 H 887.463 4.50376 2.7289 0
M  V30 9344 H 889.954 3.42266 1.60196 0
M  V30 9345 H 890.267 7.2414 2.69892 0
M  V30 9346 H 888.612 6.50995 2.43372 0
M  V30 9347 H 891.803 4.27463 1.9077 0
M  V30 9348 H 891.976 6.01592 2.40813 0
M  V30 9349 N 885.382 -0.782676 1.36792 0
M  V30 9350 C 886.63 -1.53778 1.31136 0
M  V30 9351 C 886.951 -1.94706 -0.107014 0
M  V30 9352 O 886.221 -1.65465 -1.04872 0
M  V30 9353 H 884.801 -0.570328 0.482426 0
M  V30 9354 H 887.463 -0.932181 1.71162 0
M  V30 9355 H 886.559 -2.44224 1.94321 0
M  V30 9356 N 886.86 -1.21182 -1.00761 0
M  V30 9357 C 888.085 -1.05411 -1.78615 0
M  V30 9358 C 888.51 0.391837 -1.83973 0
M  V30 9359 O 887.868 1.28256 -1.28141 0
M  V30 9360 C 887.916 -1.65285 -3.20489 0
M  V30 9361 O 887.02 -0.896558 -4.02536 0
M  V30 9362 H 886.361 -0.37116 -0.550578 0
M  V30 9363 H 888.891 -1.60669 -1.26676 0
M  V30 9364 H 888.901 -1.69397 -3.71172 0
M  V30 9365 H 887.576 -2.70514 -3.15904 0
M  V30 9366 H 886.153 -0.930335 -3.61108 0
M  V30 9367 N 888.338 1.20213 -1.01915 0
M  V30 9368 C 889.566 1.93622 -0.729255 0
M  V30 9369 C 889.981 1.74923 0.710444 0
M  V30 9370 O 889.338 1.06484 1.48214 0
M  V30 9371 C 889.389 3.45651 -1.05865 0
M  V30 9372 O 889.11 3.63741 -2.44181 0
M  V30 9373 C 890.611 4.36201 -0.790176 0
M  V30 9374 H 887.831 0.615333 -0.267594 0
M  V30 9375 H 890.375 1.52633 -1.36101 0
M  V30 9376 H 888.53 3.84511 -0.47225 0
M  V30 9377 H 888.944 4.57702 -2.56143 0
M  V30 9378 H 890.418 5.41516 -1.07071 0
M  V30 9379 H 890.895 4.38334 0.275609 0
M  V30 9380 H 891.501 4.03008 -1.35885 0
M  V30 9381 N 889.816 0.795718 1.36037 0
M  V30 9382 C 890.764 0.18649 2.31851 0
M  V30 9383 C 891.758 -0.657704 1.56111 0
M  V30 9384 O 892.964 -0.552083 1.71324 0
M  V30 9385 H 889.339 0.0415363 0.750852 0
M  V30 9386 H 891.31 1.00992 2.8079 0
M  V30 9387 C 890.059 -0.65918 3.41394 0
M  V30 9388 H 889.382 -0.01894 3.99796 0
M  V30 9389 H 890.822 -1.05202 4.10741 0
M  V30 9390 C 889.281 -1.82011 2.83502 0
M  V30 9391 O 889.811 -2.91703 2.76174 0
M  V30 9392 N 888.017 -1.62821 2.40703 0
M  V30 9393 H 887.564 -0.735965 2.46863 0
M  V30 9394 H 887.522 -2.40657 2.02316 0
M  V30 9395 N 891.294 -1.47756 0.548274 0
M  V30 9396 C 892.224 -2.32702 -0.19284 0
M  V30 9397 C 893.205 -1.43237 -0.917457 0
M  V30 9398 O 894.39 -1.72103 -0.89967 0
M  V30 9399 C 891.52 -3.24831 -1.22891 0
M  V30 9400 C 890.474 -4.23466 -0.621312 0
M  V30 9401 C 889.8 -5.04856 -1.76137 0
M  V30 9402 C 891.1 -5.20616 0.419055 0
M  V30 9403 H 892.794 -2.94914 0.516323 0
M  V30 9404 H 890.34 -1.41818 0.24975 0
M  V30 9405 H 892.293 -3.83094 -1.75547 0
M  V30 9406 H 891.017 -2.60656 -1.9679 0
M  V30 9407 H 889.676 -3.66416 -0.116123 0
M  V30 9408 H 889.324 -4.37091 -2.48918 0
M  V30 9409 H 889.024 -5.71629 -1.36065 0
M  V30 9410 H 890.548 -5.65976 -2.29136 0
M  V30 9411 H 891.962 -5.73296 -0.0211034 0
M  V30 9412 H 890.359 -5.95543 0.738163 0
M  V30 9413 H 891.429 -4.66638 1.31822 0
M  V30 9414 N 892.772 -0.284283 -1.55015 0
M  V30 9415 C 894.019 0.329864 -1.99795 0
M  V30 9416 C 894.347 1.55171 -1.1727 0
M  V30 9417 O 893.602 1.94312 -0.232667 0
M  V30 9418 C 893.901 0.747219 -3.49502 0
M  V30 9419 C 893.567 -0.37101 -4.49371 0
M  V30 9420 C 892.229 -0.678034 -4.76399 0
M  V30 9421 C 894.581 -1.12406 -5.08935 0
M  V30 9422 C 891.909 -1.74152 -5.60257 0
M  V30 9423 C 894.261 -2.17734 -5.93948 0
M  V30 9424 C 892.925 -2.49061 -6.19294 0
M  V30 9425 H 892.195 0.120706 -0.731103 0
M  V30 9426 H 894.842 -0.399904 -1.87278 0
M  V30 9427 H 893.147 1.55681 -3.59542 0
M  V30 9428 H 894.844 1.2333 -3.81563 0
M  V30 9429 H 891.434 -0.1216 -4.28427 0
M  V30 9430 H 895.618 -0.900119 -4.88069 0
M  V30 9431 H 890.874 -1.98915 -5.78137 0
M  V30 9432 H 895.048 -2.76553 -6.39133 0
M  V30 9433 H 892.675 -3.31602 -6.84064 0
M  V30 9434 N 894.251 1.57596 -0.0117121 0
M  V30 9435 C 895.476 1.95764 0.684938 0
M  V30 9436 C 895.901 0.887285 1.65858 0
M  V30 9437 O 895.259 -0.153508 1.80649 0
M  V30 9438 C 895.307 3.33031 1.38285 0
M  V30 9439 O 894.411 3.28163 2.49765 0
M  V30 9440 H 893.752 0.638767 0.181309 0
M  V30 9441 H 896.282 2.04486 -0.0683883 0
M  V30 9442 H 896.292 3.68866 1.74362 0
M  V30 9443 H 894.967 4.10483 0.669043 0
M  V30 9444 H 893.544 3.04021 2.15929 0
M  V30 9445 N 895.729 -0.261212 1.5542 0
M  V30 9446 C 896.676 -1.32315 1.89107 0
M  V30 9447 C 897.646 -1.48517 0.743767 0
M  V30 9448 O 898.831 -1.62733 0.996123 0
M  V30 9449 C 895.971 -2.67626 2.17877 0
M  V30 9450 C 895.084 -2.59549 3.45338 0
M  V30 9451 C 894.219 -3.87118 3.63748 0
M  V30 9452 C 893.258 -3.736 4.8486 0
M  V30 9453 N 892.395 -4.93029 4.99867 0
M  V30 9454 H 897.235 -1.02886 2.79675 0
M  V30 9455 H 894.772 -0.496812 1.38456 0
M  V30 9456 H 896.73 -3.4637 2.32559 0
M  V30 9457 H 895.36 -2.95232 1.30529 0
M  V30 9458 H 894.412 -1.72452 3.39064 0
M  V30 9459 H 895.724 -2.45465 4.34222 0
M  V30 9460 H 894.878 -4.74305 3.78312 0
M  V30 9461 H 893.617 -4.04084 2.73071 0
M  V30 9462 H 892.622 -2.84797 4.70288 0
M  V30 9463 H 893.847 -3.58143 5.76984 0
M  V30 9464 H 891.793 -5.10383 4.12123 0
M  V30 9465 H 891.71 -4.81521 5.82815 0
M  V30 9466 H 892.978 -5.81754 5.18828 0
M  V30 9467 N 897.207 -1.48554 -0.526253 0
M  V30 9468 C 898.137 -1.66252 -1.63959 0
M  V30 9469 C 899.118 -0.511351 -1.62232 0
M  V30 9470 O 900.303 -0.744322 -1.7937 0
M  V30 9471 C 897.433 -1.70556 -3.02536 0
M  V30 9472 C 896.387 -2.8521 -3.19123 0
M  V30 9473 C 895.713 -2.74606 -4.58798 0
M  V30 9474 C 897.013 -4.26463 -3.0154 0
M  V30 9475 H 898.707 -2.59459 -1.49404 0
M  V30 9476 H 896.253 -1.24862 -0.717326 0
M  V30 9477 H 898.206 -1.81524 -3.80298 0
M  V30 9478 H 896.93 -0.739297 -3.18123 0
M  V30 9479 H 895.589 -2.73802 -2.43779 0
M  V30 9480 H 895.237 -1.75941 -4.71226 0
M  V30 9481 H 894.937 -3.51544 -4.70841 0
M  V30 9482 H 896.461 -2.87548 -5.38655 0
M  V30 9483 H 897.875 -4.38685 -3.69091 0
M  V30 9484 H 896.272 -5.04428 -3.25073 0
M  V30 9485 H 897.342 -4.42667 -1.97925 0
M  V30 9486 N 898.685 0.775411 -1.37205 0
M  V30 9487 C 899.913 1.56446 -1.35397 0
M  V30 9488 C 900.328 1.887 0.0615437 0
M  V30 9489 O 899.685 1.51178 1.02233 0
M  V30 9490 C 899.736 2.87697 -2.18889 0
M  V30 9491 O 899.457 2.56828 -3.54924 0
M  V30 9492 C 900.958 3.81944 -2.25019 0
M  V30 9493 H 898.178 0.484792 -0.463916 0
M  V30 9494 H 900.722 0.961346 -1.80495 0
M  V30 9495 H 898.877 3.44442 -1.7731 0
M  V30 9496 H 899.291 3.40851 -3.98649 0
M  V30 9497 H 900.765 4.71055 -2.87769 0
M  V30 9498 H 901.242 4.20811 -1.25757 0
M  V30 9499 H 901.848 3.3113 -2.66895 0
M  V30 9500 N 900.163 1.21714 1.00117 0
M  V30 9501 C 901.388 1.06357 1.78054 0
M  V30 9502 C 901.813 -0.382075 1.84179 0
M  V30 9503 O 901.171 -1.27575 1.28819 0
M  V30 9504 C 901.219 1.66982 3.19608 0
M  V30 9505 O 900.323 0.917892 4.02055 0
M  V30 9506 H 899.664 0.374074 0.548602 0
M  V30 9507 H 902.194 1.61338 1.25822 0
M  V30 9508 H 902.204 1.71363 3.70268 0
M  V30 9509 H 900.879 2.72185 3.14465 0
M  V30 9510 H 899.456 0.949473 3.6061 0
M  V30 9511 N 901.641 -1.19671 1.02551 0
M  V30 9512 C 902.588 -2.22773 0.603394 0
M  V30 9513 C 903.558 -1.61669 -0.381081 0
M  V30 9514 O 904.743 -1.88756 -0.278505 0
M  V30 9515 C 901.883 -3.45073 -0.0431034 0
M  V30 9516 C 900.996 -4.20574 0.987006 0
M  V30 9517 C 900.131 -5.30291 0.310626 0
M  V30 9518 C 899.17 -5.97545 1.32688 0
M  V30 9519 N 898.307 -6.98833 0.676542 0
M  V30 9520 H 903.147 -2.58238 1.48719 0
M  V30 9521 H 900.684 -1.26881 0.744286 0
M  V30 9522 H 902.642 -4.14925 -0.435141 0
M  V30 9523 H 901.272 -3.10274 -0.890495 0
M  V30 9524 H 900.324 -3.497 1.49713 0
M  V30 9525 H 901.636 -4.66736 1.75952 0
M  V30 9526 H 900.79 -6.06547 -0.136438 0
M  V30 9527 H 899.529 -4.8519 -0.49412 0
M  V30 9528 H 898.534 -5.20043 1.78424 0
M  V30 9529 H 899.759 -6.4473 2.13306 0
M  V30 9530 H 897.705 -6.55911 -0.108172 0
M  V30 9531 H 897.622 -7.43168 1.38699 0
M  V30 9532 H 898.89 -7.79088 0.253367 0
M  V30 9533 N 903.119 -0.802921 -1.35613 0
M  V30 9534 C 904.049 -0.225131 -2.32412 0
M  V30 9535 C 905.03 0.647383 -1.57299 0
M  V30 9536 O 906.215 0.578414 -1.85386 0
M  V30 9537 C 903.345 0.630085 -3.41537 0
M  V30 9538 C 902.299 -0.143635 -4.27759 0
M  V30 9539 C 901.625 0.833046 -5.28171 0
M  V30 9540 C 902.925 -1.34054 -5.04804 0
M  V30 9541 H 904.619 -1.03385 -2.80984 0
M  V30 9542 H 902.165 -0.498593 -1.35093 0
M  V30 9543 H 904.118 1.04433 -4.08254 0
M  V30 9544 H 902.842 1.47165 -2.91565 0
M  V30 9545 H 901.501 -0.539015 -3.62616 0
M  V30 9546 H 901.149 1.67001 -4.74468 0
M  V30 9547 H 900.849 0.319697 -5.8673 0
M  V30 9548 H 902.373 1.24558 -5.97761 0
M  V30 9549 H 903.787 -1.00136 -5.64487 0
M  V30 9550 H 902.184 -1.78812 -5.72841 0
M  V30 9551 H 903.254 -2.12906 -4.35659 0
M  V30 9552 N 904.597 1.47463 -0.556102 0
M  V30 9553 C 905.825 2.06868 -0.0364585 0
M  V30 9554 C 906.24 1.40893 1.25677 0
M  V30 9555 O 905.597 0.505083 1.75371 0
M  V30 9556 C 905.648 3.61128 0.163984 0
M  V30 9557 O 905.369 4.24629 -1.07803 0
M  V30 9558 C 906.87 4.37397 0.721036 0
M  V30 9559 H 904.09 0.669466 -0.0453399 0
M  V30 9560 H 906.634 1.89482 -0.769198 0
M  V30 9561 H 904.789 3.78031 0.84685 0
M  V30 9562 H 905.203 5.17149 -0.875067 0
M  V30 9563 H 906.677 5.46016 0.810584 0
M  V30 9564 H 907.154 4.03604 1.73206 0
M  V30 9565 H 907.76 4.25236 0.073904 0
M  V30 9566 N 906.075 0.2925 1.54862 0
M  V30 9567 C 907.491 -0.0611461 1.59483 0
M  V30 9568 C 907.691 -1.53141 1.30958 0
M  V30 9569 O 906.747 -2.28291 1.07887 0
M  V30 9570 C 908.06 0.329143 2.98893 0
M  V30 9571 C 909.608 0.2772 3.1177 0
M  V30 9572 C 910.083 0.642185 4.53475 0
M  V30 9573 N 911.574 0.594396 4.5937 0
M  V30 9574 C 912.309 0.849385 5.67074 0
M  V30 9575 N 911.805 1.1699 6.82851 0
M  V30 9576 N 913.598 0.777016 5.56704 0
M  V30 9577 H 905.749 1.25079 1.71665 0
M  V30 9578 H 908.012 0.506516 0.80134 0
M  V30 9579 H 907.718 1.35233 3.24661 0
M  V30 9580 H 907.592 -0.321442 3.75828 0
M  V30 9581 H 909.979 -0.736725 2.85756 0
M  V30 9582 H 910.06 0.962289 2.3701 0
M  V30 9583 H 909.704 1.65388 4.80218 0
M  V30 9584 H 909.634 -0.0648831 5.2656 0
M  V30 9585 H 912.125 0.357256 3.76208 0
M  V30 9586 H 912.438 1.35067 7.60905 0
M  V30 9587 H 910.783 1.20785 6.84424 0
M  V30 9588 H 913.974 0.526333 4.65132 0
M  V30 9589 H 914.147 0.979113 6.4056 0
M  V30 9590 N 907.553 -1.57587 0.0200696 0
M  V30 9591 C 908.969 -1.56018 -0.336237 0
M  V30 9592 C 909.169 -1.02478 -1.73495 0
M  V30 9593 O 908.225 -0.667487 -2.43518 0
M  V30 9594 C 909.538 -3.00079 -0.193112 0
M  V30 9595 C 911.086 -3.11863 -0.266557 0
M  V30 9596 C 911.561 -4.57747 -0.152326 0
M  V30 9597 N 913.052 -4.62726 -0.209596 0
M  V30 9598 C 913.787 -5.73217 -0.144855 0
M  V30 9599 N 913.283 -6.92794 -0.0295487 0
M  V30 9600 N 915.076 -5.61751 -0.198184 0
M  V30 9601 H 907.227 -1.90722 0.93482 0
M  V30 9602 H 909.49 -0.876909 0.360186 0
M  V30 9603 H 909.196 -3.43167 0.770036 0
M  V30 9604 H 909.07 -3.64593 -0.967029 0
M  V30 9605 H 911.457 -2.68693 -1.22016 0
M  V30 9606 H 911.538 -2.50087 0.53758 0
M  V30 9607 H 911.182 -5.01595 0.797817 0
M  V30 9608 H 911.112 -5.17491 -0.97521 0
M  V30 9609 H 913.603 -3.76713 -0.299229 0
M  V30 9610 H 913.916 -7.72799 0.0134071 0
M  V30 9611 H 912.261 -6.95 0.00510737 0
M  V30 9612 H 915.452 -4.67222 -0.286603 0
M  V30 9613 H 915.625 -6.47839 -0.144266 0
M  V30 9614 N 909.032 0.252966 -1.55557 0
M  V30 9615 C 909.98 1.33289 -1.90622 0
M  V30 9616 C 910.974 1.50133 -0.784638 0
M  V30 9617 O 912.18 1.51679 -0.969196 0
M  V30 9618 H 908.555 0.446196 -0.605321 0
M  V30 9619 H 910.526 1.00977 -2.80796 0
M  V30 9620 C 909.275 2.68254 -2.21213 0
M  V30 9621 H 908.598 2.5609 -3.07014 0
M  V30 9622 H 910.038 3.42707 -2.49656 0
M  V30 9623 C 908.497 3.20884 -1.02642 0
M  V30 9624 O 909.027 4.00783 -0.271292 0
M  V30 9625 N 907.233 2.7883 -0.818682 0
M  V30 9626 H 906.78 2.13966 -1.43444 0
M  V30 9627 H 906.738 3.14388 -0.0269989 0
M  V30 9628 N 910.51 1.48831 0.518367 0
M  V30 9629 C 911.443 1.588 1.63884 0
M  V30 9630 C 912.421 0.437847 1.56594 0
M  V30 9631 O 913.605 0.651042 1.769 0
M  V30 9632 C 910.732 1.52681 3.02335 0
M  V30 9633 C 909.778 2.7268 3.27945 0
M  V30 9634 S 910.611 4.34536 3.12951 0
M  V30 9635 C 911.767 4.31034 4.53828 0
M  V30 9636 H 912 2.53587 1.5518 0
M  V30 9637 H 909.533 1.37507 0.702218 0
M  V30 9638 H 911.491 1.49837 3.82177 0
M  V30 9639 H 910.152 0.592107 3.08469 0
M  V30 9640 H 909.345 2.64569 4.28974 0
M  V30 9641 H 908.947 2.72847 2.55794 0
M  V30 9642 H 911.239 4.01683 5.45579 0
M  V30 9643 H 912.182 5.32282 4.66991 0
M  V30 9644 H 912.59 3.61343 4.33695 0
M  V30 9645 N 911.988 -0.768124 1.37614 0
M  V30 9646 C 913.213 -1.56239 1.36397 0
M  V30 9647 C 913.638 -1.8804 -0.0475839 0
M  V30 9648 O 912.996 -1.495 -1.02564 0
M  V30 9649 C 913.044 -2.84716 2.21289 0
M  V30 9650 O 912.148 -3.79249 1.62001 0
M  V30 9651 H 911.489 -0.473119 0.465891 0
M  V30 9652 H 914.019 -0.950415 1.81186 0
M  V30 9653 H 914.029 -3.33784 2.34632 0
M  V30 9654 H 912.704 -2.60899 3.2389 0
M  V30 9655 H 911.281 -3.37904 1.57719 0
M  V30 9656 N 913.466 -1.22244 -0.994698 0
M  V30 9657 C 914.713 -1.04591 -1.73398 0
M  V30 9658 C 915.041 0.419223 -1.89928 0
M  V30 9659 O 914.296 1.32714 -1.43824 0
M  V30 9660 C 914.595 -1.70014 -3.14372 0
M  V30 9661 C 914.261 -3.19903 -3.17762 0
M  V30 9662 C 912.923 -3.60803 -3.18394 0
M  V30 9663 C 915.275 -4.15851 -3.14194 0
M  V30 9664 C 912.603 -4.96135 -3.13157 0
M  V30 9665 C 914.955 -5.51157 -3.10498 0
M  V30 9666 C 913.619 -5.91439 -3.09445 0
M  V30 9667 H 912.889 -0.382725 -0.63451 0
M  V30 9668 H 915.536 -1.51981 -1.16508 0
M  V30 9669 H 913.841 -1.14945 -3.7456 0
M  V30 9670 H 915.538 -1.53848 -3.70313 0
M  V30 9671 H 912.128 -2.87336 -3.18019 0
M  V30 9672 H 916.312 -3.85272 -3.12857 0
M  V30 9673 H 911.568 -5.26578 -3.10685 0
M  V30 9674 H 915.742 -6.2523 -3.06692 0
M  V30 9675 H 913.369 -6.96271 -3.05141 0
M  V30 9676 N 914.944 1.19125 -1.03184 0
M  V30 9677 C 916.36 1.40909 -0.749447 0
M  V30 9678 C 916.56 1.9022 0.664729 0
M  V30 9679 O 915.616 2.08085 1.43028 0
M  V30 9680 C 916.929 2.41761 -1.78807 0
M  V30 9681 C 918.477 2.55503 -1.80796 0
M  V30 9682 C 918.952 3.59612 -2.83626 0
M  V30 9683 N 920.443 3.6711 -2.82461 0
M  V30 9684 C 921.178 4.47366 -3.5868 0
M  V30 9685 N 920.674 5.31302 -4.44623 0
M  V30 9686 N 922.467 4.42044 -3.47208 0
M  V30 9687 H 914.618 0.854399 -1.94458 0
M  V30 9688 H 916.881 0.437753 -0.840878 0
M  V30 9689 H 916.587 2.12559 -2.80199 0
M  V30 9690 H 916.461 3.40981 -1.61283 0
M  V30 9691 H 918.848 2.84027 -0.800803 0
M  V30 9692 H 918.929 1.56427 -2.02396 0
M  V30 9693 H 918.573 3.3183 -3.84515 0
M  V30 9694 H 918.503 4.58345 -2.59283 0
M  V30 9695 H 920.994 3.07166 -2.2013 0
M  V30 9696 H 921.307 5.89667 -4.99512 0
M  V30 9697 H 919.652 5.30753 -4.48694 0
M  V30 9698 H 922.843 3.75513 -2.79477 0
M  V30 9699 H 923.016 5.0435 -4.06859 0
M  V30 9700 N 916.422 0.810101 1.35185 0
M  V30 9701 C 917.669 0.392117 1.98667 0
M  V30 9702 C 917.997 -1.0416 1.64259 0
M  V30 9703 O 917.252 -1.73795 0.899647 0
M  V30 9704 C 917.551 0.526561 3.535 0
M  V30 9705 C 917.217 1.92411 4.07785 0
M  V30 9706 C 915.879 2.30644 4.22323 0
M  V30 9707 C 918.231 2.83827 4.37141 0
M  V30 9708 C 915.559 3.59655 4.63536 0
M  V30 9709 C 917.911 4.12287 4.79794 0
M  V30 9710 C 916.575 4.50515 4.92536 0
M  V30 9711 H 915.845 0.143486 0.726975 0
M  V30 9712 H 918.492 1.03157 1.61341 0
M  V30 9713 H 916.797 -0.19633 3.91308 0
M  V30 9714 H 918.494 0.183871 4.00578 0
M  V30 9715 H 915.084 1.61707 3.96924 0
M  V30 9716 H 919.268 2.55536 4.25459 0
M  V30 9717 H 914.524 3.89117 4.71591 0
M  V30 9718 H 918.698 4.83221 5.01468 0
M  V30 9719 H 916.325 5.50535 5.24229 0
M  V30 9720 N 917.9 -1.47166 0.563914 0
M  V30 9721 C 919.149 -2.0166 0.0401871 0
M  V30 9722 C 919.462 -1.44303 -1.32046 0
M  V30 9723 O 920.668 -1.905 -1.93448 0
M  V30 9724 C 919.124 -3.59894 0.0213257 0
M  V30 9725 C 918.732 -4.26244 1.37914 0
M  V30 9726 C 920.476 -4.22114 -0.449442 0
M  V30 9727 C 918.383 -5.76503 1.31902 0
M  V30 9728 H 917.313 -0.753916 0.0112534 0
M  V30 9729 H 919.964 -1.69091 0.712766 0
M  V30 9730 H 918.346 -3.89454 -0.717038 0
M  V30 9731 H 919.52 -4.08317 2.13574 0
M  V30 9732 H 917.835 -3.76039 1.78839 0
M  V30 9733 H 920.432 -5.32234 -0.51292 0
M  V30 9734 H 920.775 -3.89749 -1.46291 0
M  V30 9735 H 921.308 -3.9711 0.23427 0
M  V30 9736 H 918.047 -6.13498 2.3087 0
M  V30 9737 H 917.567 -5.96748 0.604324 0
M  V30 9738 H 919.246 -6.38846 1.02392 0
M  V30 9739 N 919.378 -0.300708 -1.54705 0
M  V30 9740 C 920.325 0.57552 -2.23509 0
M  V30 9741 C 921.295 1.12979 -1.21758 0
M  V30 9742 O 922.48 1.17437 -1.50377 0
M  V30 9743 C 919.62 1.74167 -2.97926 0
M  V30 9744 C 918.733 1.21882 -4.1445 0
M  V30 9745 C 917.868 2.34881 -4.7645 0
M  V30 9746 C 916.907 1.79729 -5.85119 0
M  V30 9747 N 916.044 2.863 -6.41075 0
M  V30 9748 H 920.884 -0.0178257 -2.97995 0
M  V30 9749 H 918.421 -0.0205666 -1.47086 0
M  V30 9750 H 920.379 2.42753 -3.39303 0
M  V30 9751 H 919.009 2.30665 -2.25817 0
M  V30 9752 H 918.061 0.425227 -3.78016 0
M  V30 9753 H 919.373 0.775065 -4.92741 0
M  V30 9754 H 918.527 3.11415 -5.20678 0
M  V30 9755 H 917.266 2.82584 -3.97489 0
M  V30 9756 H 916.271 1.01684 -5.40315 0
M  V30 9757 H 917.496 1.32931 -6.65963 0
M  V30 9758 H 915.442 3.33337 -5.64998 0
M  V30 9759 H 915.359 2.46419 -7.14712 0
M  V30 9760 H 916.627 3.62732 -6.89961 0
M  V30 9761 N 920.856 1.57574 -0.0284266 0
M  V30 9762 C 922.272 1.56194 0.327958 0
M  V30 9763 C 922.472 1.03397 1.72949 0
M  V30 9764 O 921.528 0.680392 2.4316 0
M  V30 9765 C 922.841 3.00177 0.177196 0
M  V30 9766 C 924.389 3.12 0.250014 0
M  V30 9767 C 924.864 4.57821 0.128049 0
M  V30 9768 N 926.355 4.6283 0.185054 0
M  V30 9769 C 927.09 5.73286 0.114454 0
M  V30 9770 N 926.586 6.928 -0.00719225 0
M  V30 9771 N 928.379 5.61848 0.16839 0
M  V30 9772 H 920.53 1.90224 -0.944921 0
M  V30 9773 H 922.793 0.874987 -0.364832 0
M  V30 9774 H 922.499 3.42753 -0.788224 0
M  V30 9775 H 922.373 3.65101 0.94768 0
M  V30 9776 H 924.76 2.69337 1.20589 0
M  V30 9777 H 924.841 2.49799 -0.550835 0
M  V30 9778 H 924.485 5.01165 -0.824407 0
M  V30 9779 H 924.415 5.18001 0.947753 0
M  V30 9780 H 926.906 3.76867 0.279247 0
M  V30 9781 H 927.219 7.72781 -0.0543903 0
M  V30 9782 H 925.564 6.94987 -0.0419648 0
M  V30 9783 H 928.755 4.67367 0.261821 0
M  V30 9784 H 928.928 6.47907 0.109908 0
M  V30 9785 N 922.334 -0.244713 1.55689 0
M  V30 9786 C 923.264 -1.30667 1.93516 0
M  V30 9787 C 924.245 -1.50094 0.800371 0
M  V30 9788 O 925.43 -1.62665 1.06083 0
M  V30 9789 C 922.56 -2.66101 2.23176 0
M  V30 9790 C 921.514 -2.61366 3.38927 0
M  V30 9791 C 920.84 -4.00616 3.54134 0
M  V30 9792 C 922.14 -2.18161 4.74555 0
M  V30 9793 H 923.834 -0.992546 2.82469 0
M  V30 9794 H 921.38 -0.476018 1.35905 0
M  V30 9795 H 923.333 -3.4053 2.48228 0
M  V30 9796 H 922.057 -2.99154 1.31051 0
M  V30 9797 H 920.716 -1.89395 3.13887 0
M  V30 9798 H 920.364 -4.30938 2.59426 0
M  V30 9799 H 920.064 -3.98335 4.31975 0
M  V30 9800 H 921.588 -4.76741 3.8151 0
M  V30 9801 H 923.002 -2.82323 4.98965 0
M  V30 9802 H 921.399 -2.26988 5.55515 0
M  V30 9803 H 922.469 -1.13333 4.7147 0
M  V30 9804 N 923.813 -1.49104 -0.510467 0
M  V30 9805 C 925.224 -1.51423 -1.09215 0
M  V30 9806 C 925.575 -0.295035 -1.93969 0
M  V30 9807 O 924.7 0.596064 -2.08029 0
M  V30 9808 C 925.295 -2.74387 -1.98739 0
M  V30 9809 C 923.854 -2.79515 -2.52088 0
M  V30 9810 C 923.001 -2.4521 -1.29488 0
M  V30 9811 H 925.952 -1.55938 -0.294807 0
M  V30 9812 H 925.973 -2.54012 -2.83298 0
M  V30 9813 H 925.485 -3.63105 -1.37026 0
M  V30 9814 H 923.586 -1.95054 -3.17466 0
M  V30 9815 H 923.699 -3.81447 -2.89887 0
M  V30 9816 H 922.063 -1.96785 -1.61703 0
M  V30 9817 H 922.846 -3.36192 -0.694978 0
M  V30 9818 N 925.291 0.760815 -1.38019 0
M  V30 9819 C 926.519 1.55001 -1.37048 0
M  V30 9820 C 926.934 1.88754 0.0415261 0
M  V30 9821 O 926.291 1.52254 1.00624 0
M  V30 9822 C 926.342 2.8536 -2.21928 0
M  V30 9823 O 926.063 2.53049 -3.57628 0
M  V30 9824 C 927.564 3.79536 -2.29057 0
M  V30 9825 H 924.784 0.479844 -0.469032 0
M  V30 9826 H 927.328 0.942148 -1.81504 0
M  V30 9827 H 925.483 3.42542 -1.80953 0
M  V30 9828 H 925.897 3.36604 -4.02241 0
M  V30 9829 H 927.371 4.67977 -2.92749 0
M  V30 9830 H 927.848 4.19453 -1.30213 0
M  V30 9831 H 928.454 3.28281 -2.70392 0
M  V30 9832 N 926.769 1.22769 0.988202 0
M  V30 9833 C 927.679 1.01844 2.11341 0
M  V30 9834 C 928.695 -0.0346937 1.73965 0
M  V30 9835 O 929.871 0.159061 2.00771 0
M  V30 9836 C 926.936 0.603837 3.41401 0
M  V30 9837 C 925.997 1.73113 3.92849 0
M  V30 9838 C 925.23 1.33621 5.16702 0
M  V30 9839 O 925.453 0.217041 5.69987 0
M  V30 9840 O 924.387 2.15444 5.62021 0
M  V30 9841 H 928.213 1.96127 2.31879 0
M  V30 9842 H 925.798 1.01405 1.09715 0
M  V30 9843 H 927.68 0.383196 4.19654 0
M  V30 9844 H 926.355 -0.310082 3.22211 0
M  V30 9845 H 925.262 2.00634 3.15748 0
M  V30 9846 H 926.595 2.62308 4.1648 0
M  V30 9847 N 928.247 -1.18576 1.03814 0
M  V30 9848 C 929.477 -1.92158 0.758864 0
M  V30 9849 C 929.885 -1.76267 -0.687498 0
M  V30 9850 O 929.228 -1.08806 -1.4801 0
M  V30 9851 C 929.29 -3.44063 1.04217 0
M  V30 9852 C 928.954 -3.8373 2.48193 0
M  V30 9853 C 929.951 -3.87722 3.46363 0
M  V30 9854 C 927.636 -4.151 2.82838 0
M  V30 9855 C 929.63 -4.2253 4.77229 0
M  V30 9856 C 927.317 -4.49578 4.13911 0
M  V30 9857 C 928.315 -4.53269 5.10917 0
M  V30 9858 O 928.003 -4.86945 6.39641 0
M  V30 9859 H 927.735 -0.61694 0.276335 0
M  V30 9860 H 930.289 -1.51388 1.38819 0
M  V30 9861 H 928.519 -3.85061 0.355709 0
M  V30 9862 H 930.208 -3.9889 0.751091 0
M  V30 9863 H 930.974 -3.63627 3.20936 0
M  V30 9864 H 926.853 -4.11406 2.08006 0
M  V30 9865 H 930.397 -4.25326 5.52941 0
M  V30 9866 H 926.294 -4.73133 4.39107 0
M  V30 9867 H 927.062 -5.04857 6.44253 0
M  V30 9868 N 929.725 -0.817259 -1.34754 0
M  V30 9869 C 930.635 -0.236946 -2.334 0
M  V30 9870 C 931.651 0.625685 -1.62361 0
M  V30 9871 O 932.827 0.534921 -1.94166 0
M  V30 9872 C 929.892 0.596215 -3.41535 0
M  V30 9873 C 928.953 -0.288154 -4.28332 0
M  V30 9874 C 928.186 0.505337 -5.31302 0
M  V30 9875 O 928.409 1.73912 -5.43241 0
M  V30 9876 O 927.343 -0.109374 -6.01801 0
M  V30 9877 H 931.169 -1.05327 -2.84851 0
M  V30 9878 H 928.754 -0.579275 -1.37713 0
M  V30 9879 H 930.636 1.07041 -4.07578 0
M  V30 9880 H 929.311 1.38997 -2.92338 0
M  V30 9881 H 928.218 -0.809724 -3.65232 0
M  V30 9882 H 929.551 -1.04612 -4.80955 0
M  V30 9883 N 931.203 1.46865 -0.571711 0
M  V30 9884 C 932.619 1.57897 -0.23255 0
M  V30 9885 C 932.819 1.56836 1.26509 0
M  V30 9886 O 931.875 1.47947 2.04617 0
M  V30 9887 C 933.188 2.87778 -0.872036 0
M  V30 9888 C 934.736 3.01389 -0.844605 0
M  V30 9889 C 935.211 4.33991 -1.46343 0
M  V30 9890 N 936.702 4.40662 -1.42727 0
M  V30 9891 C 937.437 5.41858 -1.87557 0
M  V30 9892 N 936.933 6.49787 -2.4031 0
M  V30 9893 N 938.726 5.32992 -1.7854 0
M  V30 9894 H 930.877 1.45798 -1.54457 0
M  V30 9895 H 933.14 0.694785 -0.644964 0
M  V30 9896 H 932.846 2.94332 -1.92513 0
M  V30 9897 H 932.72 3.75345 -0.373677 0
M  V30 9898 H 935.107 2.94423 0.19984 0
M  V30 9899 H 935.188 2.15327 -1.38087 0
M  V30 9900 H 934.832 4.41714 -2.50701 0
M  V30 9901 H 934.762 5.18809 -0.902479 0
M  V30 9902 H 937.253 3.63263 -1.04155 0
M  V30 9903 H 937.566 7.23199 -2.72403 0
M  V30 9904 H 935.911 6.50637 -2.44329 0
M  V30 9905 H 939.102 4.47575 -1.37093 0
M  V30 9906 H 939.275 6.11716 -2.13794 0
M  V30 9907 N 932.681 0.308908 1.54543 0
M  V30 9908 C 933.629 -0.579326 2.2527 0
M  V30 9909 C 934.623 -1.13058 1.26152 0
M  V30 9910 O 935.829 -1.08031 1.43977 0
M  V30 9911 H 932.204 -0.205444 0.723392 0
M  V30 9912 H 934.175 0.0396415 2.98374 0
M  V30 9913 C 932.924 -1.73584 3.01271 0
M  V30 9914 H 932.247 -1.32089 3.77349 0
M  V30 9915 H 933.687 -2.33324 3.54028 0
M  V30 9916 C 932.146 -2.6447 2.08703 0
M  V30 9917 O 932.676 -3.65785 1.66025 0
M  V30 9918 N 930.882 -2.32379 1.74495 0
M  V30 9919 H 930.429 -1.50034 2.09398 0
M  V30 9920 H 930.387 -2.93454 1.12836 0
M  V30 9921 N 934.159 -1.57557 0.0367827 0
M  V30 9922 C 935.407 -1.91735 -0.63892 0
M  V30 9923 C 935.728 -0.914515 -1.72226 0
M  V30 9924 O 934.998 0.0428248 -1.95853 0
M  V30 9925 H 933.578 -0.707738 -0.23899 0
M  V30 9926 H 936.24 -1.94708 0.0863931 0
M  V30 9927 H 935.336 -2.92568 -1.08676 0
M  V30 9928 N 935.637 0.236453 -1.55816 0
M  V30 9929 C 937.053 0.585465 -1.48474 0
M  V30 9930 C 937.253 1.8785 -0.72902 0
M  V30 9931 O 936.309 2.51131 -0.262614 0
M  V30 9932 C 937.622 0.678506 -2.92945 0
M  V30 9933 C 939.17 0.770135 -3.03378 0
M  V30 9934 C 939.645 0.894649 -4.49177 0
M  V30 9935 N 941.136 0.959253 -4.53158 0
M  V30 9936 C 941.871 1.07505 -5.63232 0
M  V30 9937 N 941.367 1.15572 -6.83092 0
M  V30 9938 N 943.16 1.10902 -5.51051 0
M  V30 9939 H 935.311 -0.612241 -2.03385 0
M  V30 9940 H 937.574 -0.212796 -0.923808 0
M  V30 9941 H 937.28 -0.201757 -3.51121 0
M  V30 9942 H 937.154 1.54703 -3.44016 0
M  V30 9943 H 939.541 1.64085 -2.45276 0
M  V30 9944 H 939.622 -0.123753 -2.555 0
M  V30 9945 H 939.266 0.0284537 -5.07892 0
M  V30 9946 H 939.196 1.80373 -4.94745 0
M  V30 9947 H 941.687 0.907827 -3.66834 0
M  V30 9948 H 942 1.24343 -7.62731 0
M  V30 9949 H 940.345 1.12511 -6.85833 0
M  V30 9950 H 943.536 1.04255 -4.56343 0
M  V30 9951 H 943.709 1.19581 -6.36871 0
M  V30 9952 N 937.115 1.49373 0.502552 0
M  V30 9953 C 938.345 1.62252 1.27898 0
M  V30 9954 C 938.753 0.292555 1.86924 0
M  V30 9955 O 938.096 -0.731823 1.68493 0
M  V30 9956 C 938.158 2.63153 2.4493 0
M  V30 9957 C 937.822 4.07541 2.06784 0
M  V30 9958 C 938.819 4.94392 1.60849 0
M  V30 9959 C 936.504 4.53263 2.16466 0
M  V30 9960 C 938.498 6.25003 1.25098 0
M  V30 9961 C 936.185 5.83888 1.80327 0
M  V30 9962 C 937.183 6.69582 1.34718 0
M  V30 9963 O 936.871 7.97773 0.990661 0
M  V30 9964 H 936.603 0.54918 0.394179 0
M  V30 9965 H 939.157 1.96132 0.610031 0
M  V30 9966 H 937.387 2.2445 3.14895 0
M  V30 9967 H 939.076 2.65578 3.06957 0
M  V30 9968 H 939.842 4.60296 1.52816 0
M  V30 9969 H 935.721 3.86731 2.50919 0
M  V30 9970 H 939.265 6.91844 0.894269 0
M  V30 9971 H 935.162 6.17513 1.8801 0
M  V30 9972 H 935.93 8.1077 1.12227 0
M  V30 9973 N 938.594 -0.753485 1.38421 0
M  V30 9974 C 939.504 -1.89797 1.37892 0
M  V30 9975 C 940.52 -1.71797 0.276023 0
M  V30 9976 O 941.696 -1.94718 0.514464 0
M  V30 9977 C 938.761 -3.25166 1.20284 0
M  V30 9978 C 937.822 -3.55691 2.4038 0
M  V30 9979 C 937.055 -4.84601 2.23602 0
M  V30 9980 O 937.278 -5.56985 1.22979 0
M  V30 9981 O 936.212 -5.14605 3.12194 0
M  V30 9982 H 940.038 -1.93197 2.34326 0
M  V30 9983 H 937.623 -0.898775 1.19342 0
M  V30 9984 H 939.505 -4.06099 1.12525 0
M  V30 9985 H 938.18 -3.22577 0.269352 0
M  V30 9986 H 937.087 -2.74919 2.53714 0
M  V30 9987 H 938.42 -3.6304 3.32359 0
M  V30 9988 N 940.072 -1.23292 -0.981677 0
M  V30 9989 C 941.32 -1.06214 -1.71939 0
M  V30 9990 C 941.641 0.401989 -1.90812 0
M  V30 9991 O 940.911 1.28825 -1.47584 0
M  V30 9992 H 939.491 -0.390042 -0.637084 0
M  V30 9993 H 942.153 -1.54988 -1.18173 0
M  V30 9994 H 941.249 -1.54904 -2.70945 0
M  V30 9995 N 941.55 1.18024 -1.04442 0
M  V30 9996 C 942.775 1.92573 -0.770097 0
M  V30 9997 C 943.2 1.75871 0.667169 0
M  V30 9998 O 942.558 1.07136 1.46258 0
M  V30 9999 C 942.606 3.41904 -1.14602 0
M  V30 10000 O 941.71 4.11491 -0.273712 0
M  V30 10001 H 941.051 0.600636 -0.283076 0
M  V30 10002 H 943.581 1.49645 -1.39526 0
M  V30 10003 H 943.591 3.92623 -1.10956 0
M  V30 10004 H 942.266 3.53382 -2.19304 0
M  V30 10005 H 940.843 3.71059 -0.370124 0
M  V30 10006 N 943.028 0.824394 1.34319 0
M  V30 10007 C 944.253 0.425194 2.02995 0
M  V30 10008 C 944.678 -0.961476 1.6167 0
M  V30 10009 O 944.036 -1.62593 0.80207 0
M  V30 10010 C 944.084 0.537004 3.56579 0
M  V30 10011 O 943.188 -0.442576 4.10018 0
M  V30 10012 H 942.529 0.174853 0.640564 0
M  V30 10013 H 945.059 1.11522 1.71534 0
M  V30 10014 H 945.069 0.413311 4.05901 0
M  V30 10015 H 943.744 1.54836 3.86004 0
M  V30 10016 H 942.321 -0.277644 3.71865 0
M  V30 10017 N 944.506 -1.46559 0.579492 0
M  V30 10018 C 945.922 -1.57771 0.240921 0
M  V30 10019 C 946.122 -1.57505 -1.25676 0
M  V30 10020 O 945.178 -1.4903 -2.03829 0
M  V30 10021 C 946.491 -2.87311 0.887285 0
M  V30 10022 C 948.039 -3.00937 0.860576 0
M  V30 10023 C 948.514 -4.33208 1.48642 0
M  V30 10024 N 950.005 -4.39899 1.45062 0
M  V30 10025 C 950.74 -5.40856 1.90428 0
M  V30 10026 N 950.236 -6.48503 2.43752 0
M  V30 10027 N 952.029 -5.32037 1.81364 0
M  V30 10028 H 944.18 -1.44976 1.55228 0
M  V30 10029 H 946.443 -0.691354 0.648639 0
M  V30 10030 H 946.149 -2.93307 1.94071 0
M  V30 10031 H 946.023 -3.75141 0.393577 0
M  V30 10032 H 948.41 -2.94524 -0.184223 0
M  V30 10033 H 948.491 -2.14591 1.39227 0
M  V30 10034 H 948.135 -4.40378 2.5304 0
M  V30 10035 H 948.065 -5.18323 0.92998 0
M  V30 10036 H 950.556 -3.62706 1.0608 0
M  V30 10037 H 950.869 -7.21744 2.76234 0
M  V30 10038 H 949.214 -6.49332 2.47776 0
M  V30 10039 H 952.405 -4.46841 1.39465 0
M  V30 10040 H 952.578 -6.10573 2.17035 0
M  V30 10041 N 945.984 -0.3171 -1.54377 0
M  V30 10042 C 946.932 0.567371 -2.25574 0
M  V30 10043 C 947.926 1.12387 -1.2675 0
M  V30 10044 O 949.132 1.07266 -1.44548 0
M  V30 10045 H 945.507 0.201605 -0.724472 0
M  V30 10046 H 947.478 -0.0554644 -2.98348 0
M  V30 10047 C 946.227 1.71984 -3.02187 0
M  V30 10048 H 945.55 1.30086 -3.78044 0
M  V30 10049 H 946.99 2.31443 -3.5526 0
M  V30 10050 C 945.449 2.6336 -2.10103 0
M  V30 10051 O 945.979 3.64899 -1.67962 0
M  V30 10052 N 944.185 2.3145 -1.75725 0
M  V30 10053 H 943.732 1.48921 -2.10191 0
M  V30 10054 H 943.69 2.92852 -1.14391 0
M  V30 10055 N 947.462 1.57535 -0.0451378 0
M  V30 10056 C 948.708 1.92736 0.630921 0
M  V30 10057 C 949.041 0.923265 1.70849 0
M  V30 10058 O 948.316 -0.0516512 1.94431 0
M  V30 10059 C 948.599 3.38348 1.23259 0
M  V30 10060 C 948.452 4.49503 0.16349 0
M  V30 10061 C 949.771 3.84233 2.14599 0
M  V30 10062 H 946.89 0.700884 0.227883 0
M  V30 10063 H 949.532 1.89706 -0.10567 0
M  V30 10064 H 947.682 3.41061 1.86037 0
M  V30 10065 H 949.354 4.58919 -0.46808 0
M  V30 10066 H 947.597 4.30802 -0.509166 0
M  V30 10067 H 948.268 5.48457 0.624382 0
M  V30 10068 H 950.744 3.83358 1.6179 0
M  V30 10069 H 949.62 4.86781 2.53644 0
M  V30 10070 H 949.881 3.20646 3.04366 0
M  V30 10071 N 948.94 -0.228186 1.55939 0
M  V30 10072 C 950.165 -0.974795 1.83064 0
M  V30 10073 C 950.59 -1.77426 0.624624 0
M  V30 10074 O 949.948 -1.76211 -0.426556 0
M  V30 10075 C 949.996 -1.87342 3.08116 0
M  V30 10076 O 949.1 -2.96784 2.86344 0
M  V30 10077 H 948.441 -0.276379 0.603747 0
M  V30 10078 H 950.971 -0.243507 2.03146 0
M  V30 10079 H 950.981 -2.28451 3.38045 0
M  V30 10080 H 949.656 -1.28575 3.95526 0
M  V30 10081 H 948.233 -2.59669 2.67631 0
M  V30 10082 N 950.418 -1.49637 -0.494624 0
M  V30 10083 C 951.381 -1.66252 -1.57775 0
M  V30 10084 C 952.381 -0.534054 -1.51672 0
M  V30 10085 O 953.571 -0.800637 -1.54711 0
M  V30 10086 C 950.703 -1.66584 -2.97426 0
M  V30 10087 H 951.896 -2.62864 -1.4437 0
M  V30 10088 H 949.449 -1.38764 -0.719323 0
M  V30 10089 H 950.184 -0.715798 -3.16302 0
M  V30 10090 H 949.969 -2.48543 -3.03264 0
M  V30 10091 H 951.459 -1.81474 -3.76108 0
M  V30 10092 N 951.896 0.746133 -1.38819 0
M  V30 10093 C 952.806 1.89063 -1.38897 0
M  V30 10094 C 953.822 1.71648 -0.28513 0
M  V30 10095 O 954.998 1.94443 -0.524783 0
M  V30 10096 C 952.063 3.24523 -1.22007 0
M  V30 10097 C 951.124 3.54411 -2.42263 0
M  V30 10098 C 950.357 4.83408 -2.26169 0
M  V30 10099 O 950.58 5.56325 -1.25931 0
M  V30 10100 O 949.514 5.12943 -3.14918 0
M  V30 10101 H 953.34 1.91951 -2.35347 0
M  V30 10102 H 950.925 0.892433 -1.19816 0
M  V30 10103 H 952.807 4.05496 -1.14677 0
M  V30 10104 H 951.482 3.2243 -0.286455 0
M  V30 10105 H 950.389 2.73569 -2.55168 0
M  V30 10106 H 951.722 3.61273 -3.3428 0
M  V30 10107 N 953.375 1.23811 0.975125 0
M  V30 10108 C 954.307 0.981779 2.07108 0
M  V30 10109 C 955.32 -0.0461211 1.62735 0
M  V30 10110 O 956.509 0.190039 1.77486 0
M  V30 10111 C 953.609 0.458364 3.35786 0
M  V30 10112 C 952.782 1.54767 4.09104 0
M  V30 10113 C 951.841 1.0282 5.16057 0
M  V30 10114 O 950.867 1.71831 5.42644 0
M  V30 10115 N 952.069 -0.141243 5.80328 0
M  V30 10116 H 954.834 1.92537 2.29673 0
M  V30 10117 H 952.395 1.1474 1.14221 0
M  V30 10118 H 954.387 0.0957686 4.04587 0
M  V30 10119 H 952.957 -0.390768 3.10148 0
M  V30 10120 H 952.177 2.08279 3.34684 0
M  V30 10121 H 953.465 2.28006 4.54853 0
M  V30 10122 H 952.863 -0.718382 5.6112 0
M  V30 10123 H 951.42 -0.445052 6.50279 0
M  V30 10124 N 954.853 -1.17469 1.05066 0
M  V30 10125 C 955.8 -2.21443 0.650512 0
M  V30 10126 C 956.77 -1.62441 -0.346702 0
M  V30 10127 O 957.955 -1.89305 -0.238404 0
M  V30 10128 C 955.095 -3.45087 0.0301014 0
M  V30 10129 C 954.208 -4.18385 1.07599 0
M  V30 10130 C 953.343 -5.29513 0.423038 0
M  V30 10131 C 952.382 -5.94596 1.45333 0
M  V30 10132 N 951.519 -6.97241 0.824623 0
M  V30 10133 H 956.359 -2.55025 1.54163 0
M  V30 10134 H 953.896 -1.25274 0.771032 0
M  V30 10135 H 955.854 -4.15754 -0.347032 0
M  V30 10136 H 954.484 -3.12093 -0.824481 0
M  V30 10137 H 953.536 -3.46446 1.57097 0
M  V30 10138 H 954.848 -4.62899 1.85813 0
M  V30 10139 H 954.002 -6.067 -0.00774975 0
M  V30 10140 H 952.741 -4.86129 -0.391092 0
M  V30 10141 H 951.746 -5.16142 1.89415 0
M  V30 10142 H 952.971 -6.40061 2.26934 0
M  V30 10143 H 950.917 -6.55993 0.0309804 0
M  V30 10144 H 950.834 -7.40059 1.54432 0
M  V30 10145 H 952.102 -7.78375 0.418567 0
M  V30 10146 N 956.331 -0.831506 -1.3388 0
M  V30 10147 C 957.608 -0.345907 -1.92517 0
M  V30 10148 C 957.988 1.16784 -1.75854 0
M  V30 10149 O 957.336 1.97889 -1.14245 0
M  V30 10150 C 957.546 -0.784692 -3.40064 0
M  V30 10151 C 958.894 -0.78846 -4.17215 0
M  V30 10152 O 959.918 -0.727823 -3.48685 0
M  V30 10153 O 958.777 -0.869481 -5.39539 0
M  V30 10154 H 955.871 -0.0963568 -0.821367 0
M  V30 10155 H 958.417 -0.916868 -1.42799 0
M  V30 10156 H 957.189 -1.82697 -3.46031 0
M  V30 10157 H 956.812 -0.189897 -3.97146 0
M  V30 10158 N 957.809 1.4625 -0.587256 0
M  V30 10159 C 958.719 2.34147 0.145744 0
M  V30 10160 C 959.735 1.50026 0.881376 0
M  V30 10161 O 960.911 1.82884 0.843539 0
M  V30 10162 C 957.976 3.27294 1.14366 0
M  V30 10163 C 957.037 4.27317 0.412199 0
M  V30 10164 C 956.27 5.16013 1.36257 0
M  V30 10165 O 956.493 5.0773 2.59934 0
M  V30 10166 O 955.427 5.95569 0.870681 0
M  V30 10167 H 959.253 2.98187 -0.576055 0
M  V30 10168 H 956.838 1.45299 -0.347628 0
M  V30 10169 H 958.72 3.84747 1.71894 0
M  V30 10170 H 957.395 2.65845 1.84684 0
M  V30 10171 H 956.302 3.73538 -0.205036 0
M  V30 10172 H 957.635 4.91564 -0.250104 0
M  V30 10173 N 959.287 0.325282 1.54207 0
M  V30 10174 C 960.235 -0.5554 2.25872 0
M  V30 10175 C 961.229 -1.11714 1.27344 0
M  V30 10176 O 962.435 -1.06498 1.45115 0
M  V30 10177 H 958.81 -0.19776 0.725531 0
M  V30 10178 H 960.781 0.0712858 2.98315 0
M  V30 10179 C 959.53 -1.70379 3.03095 0
M  V30 10180 H 958.853 -1.2808 3.78729 0
M  V30 10181 H 960.293 -2.29556 3.56483 0
M  V30 10182 C 958.752 -2.62242 2.11496 0
M  V30 10183 O 959.282 -3.64003 1.69895 0
M  V30 10184 N 957.488 -2.30515 1.7695 0
M  V30 10185 H 957.035 -1.47805 2.10978 0
M  V30 10186 H 956.993 -2.92241 1.15942 0
M  V30 10187 N 960.765 -1.57509 0.0534917 0
M  V30 10188 C 961.712 -2.11667 -0.920101 0
M  V30 10189 C 962.682 -1.0246 -1.30733 0
M  V30 10190 O 963.867 -1.30021 -1.39639 0
M  V30 10191 C 961.007 -2.66803 -2.18883 0
M  V30 10192 C 960.12 -3.90104 -1.85588 0
M  V30 10193 C 959.255 -4.33547 -3.06937 0
M  V30 10194 C 958.294 -5.49542 -2.69573 0
M  V30 10195 N 957.431 -5.88029 -3.83623 0
M  V30 10196 H 962.271 -2.94562 -0.451371 0
M  V30 10197 H 959.808 -1.45576 -0.211168 0
M  V30 10198 H 961.766 -2.96871 -2.93127 0
M  V30 10199 H 960.396 -1.86702 -2.63329 0
M  V30 10200 H 959.448 -3.66613 -1.01484 0
M  V30 10201 H 960.76 -4.74404 -1.54087 0
M  V30 10202 H 959.914 -4.6518 -3.89477 0
M  V30 10203 H 958.653 -3.48064 -3.41618 0
M  V30 10204 H 957.658 -5.17579 -1.8545 0
M  V30 10205 H 958.883 -6.36743 -2.36082 0
M  V30 10206 H 956.829 -5.05498 -4.181 0
M  V30 10207 H 956.746 -6.67025 -3.55828 0
M  V30 10208 H 958.014 -6.24277 -4.66796 0
M  V30 10209 N 962.243 0.219913 -1.56058 0
M  V30 10210 C 963.153 1.29349 -1.95719 0
M  V30 10211 C 964.169 1.5119 -0.861248 0
M  V30 10212 O 965.345 1.64289 -1.16495 0
M  V30 10213 C 962.41 2.6229 -2.26726 0
M  V30 10214 C 961.471 2.48738 -3.49897 0
M  V30 10215 C 960.704 3.75339 -3.79416 0
M  V30 10216 O 960.927 4.78427 -3.10586 0
M  V30 10217 O 959.861 3.72352 -4.72903 0
M  V30 10218 H 963.687 0.986979 -2.87215 0
M  V30 10219 H 961.272 0.42291 -1.43289 0
M  V30 10220 H 963.154 3.408 -2.47857 0
M  V30 10221 H 961.829 2.92619 -1.38404 0
M  V30 10222 H 960.736 1.68422 -3.34043 0
M  V30 10223 H 962.069 2.23347 -4.38608 0
M  V30 10224 N 963.721 1.49897 0.486681 0
M  V30 10225 C 964.684 1.67086 1.56891 0
M  V30 10226 C 965.684 0.54209 1.51387 0
M  V30 10227 O 966.874 0.80883 1.54284 0
M  V30 10228 C 964.006 1.68159 2.96539 0
M  V30 10229 H 965.199 2.63626 1.42974 0
M  V30 10230 H 962.752 1.39143 0.711954 0
M  V30 10231 H 963.487 0.732562 3.15918 0
M  V30 10232 H 963.272 2.50147 3.01942 0
M  V30 10233 H 964.762 1.83466 3.7514 0
M  V30 10234 N 965.199 -0.738761 1.39212 0
M  V30 10235 C 966.146 -1.85273 1.37631 0
M  V30 10236 C 967.116 -1.64407 0.236572 0
M  V30 10237 O 968.301 -1.85866 0.431104 0
M  V30 10238 C 965.441 -3.22745 1.22188 0
M  V30 10239 C 964.554 -3.55342 2.45674 0
M  V30 10240 C 963.689 -4.82195 2.22847 0
M  V30 10241 C 962.728 -5.07625 3.42029 0
M  V30 10242 N 961.865 -6.25679 3.18543 0
M  V30 10243 H 966.705 -1.85959 2.32859 0
M  V30 10244 H 964.242 -0.908716 1.15675 0
M  V30 10245 H 966.2 -4.02095 1.11245 0
M  V30 10246 H 964.83 -3.21347 0.30592 0
M  V30 10247 H 963.882 -2.70722 2.67233 0
M  V30 10248 H 965.194 -3.70054 3.34457 0
M  V30 10249 H 964.348 -5.69518 2.09126 0
M  V30 10250 H 963.087 -4.6965 1.31454 0
M  V30 10251 H 962.092 -4.18765 3.56253 0
M  V30 10252 H 963.317 -5.22058 4.34319 0
M  V30 10253 H 961.263 -6.14429 2.2981 0
M  V30 10254 H 961.18 -6.40961 4.0088 0
M  V30 10255 H 962.448 -7.15851 3.08508 0
M  V30 10256 N 966.677 -1.24326 -0.968545 0
M  V30 10257 C 968.088 -1.07561 -1.52603 0
M  V30 10258 C 968.439 0.353245 -1.92994 0
M  V30 10259 O 967.564 1.24151 -1.77244 0
M  V30 10260 C 968.159 -1.94634 -2.77314 0
M  V30 10261 C 966.718 -1.82095 -3.29421 0
M  V30 10262 C 965.865 -1.8962 -2.02335 0
M  V30 10263 H 968.816 -1.37815 -0.786932 0
M  V30 10264 H 968.837 -1.47812 -3.50616 0
M  V30 10265 H 968.349 -2.98621 -2.47885 0
M  V30 10266 H 966.45 -0.809376 -3.63703 0
M  V30 10267 H 966.563 -2.66142 -3.98378 0
M  V30 10268 H 964.927 -1.33339 -2.17009 0
M  V30 10269 H 965.71 -2.95185 -1.75273 0
M  V30 10270 N 968.156 1.1691 -1.05688 0
M  V30 10271 C 969.572 1.39288 -0.779167 0
M  V30 10272 C 969.772 1.91587 0.624231 0
M  V30 10273 O 968.828 2.11072 1.38582 0
M  V30 10274 C 970.141 2.37914 -1.83895 0
M  V30 10275 C 971.689 2.51611 -1.86175 0
M  V30 10276 C 972.164 3.53514 -2.9119 0
M  V30 10277 N 973.655 3.61036 -2.90184 0
M  V30 10278 C 974.39 4.39657 -3.68088 0
M  V30 10279 N 973.886 5.21752 -4.55793 0
M  V30 10280 N 975.679 4.3458 -3.56507 0
M  V30 10281 H 967.83 0.81296 -1.96226 0
M  V30 10282 H 970.093 0.419818 -0.849975 0
M  V30 10283 H 969.799 2.06568 -2.84645 0
M  V30 10284 H 969.673 3.37483 -1.68479 0
M  V30 10285 H 972.06 2.82264 -0.86087 0
M  V30 10286 H 972.141 1.52099 -2.05668 0
M  V30 10287 H 971.785 3.23599 -3.91467 0
M  V30 10288 H 971.715 4.52742 -2.68947 0
M  V30 10289 H 974.206 3.02428 -2.26596 0
M  V30 10290 H 974.519 5.78939 -5.11907 0
M  V30 10291 H 972.864 5.21116 -4.59851 0
M  V30 10292 H 976.055 3.69501 -2.87379 0
M  V30 10293 H 976.228 4.95607 -4.17466 0
M  V30 10294 N 969.634 0.838594 1.33437 0
M  V30 10295 C 970.859 0.446701 2.02532 0
M  V30 10296 C 971.284 -0.944275 1.62681 0
M  V30 10297 O 970.642 -1.61733 0.81927 0
M  V30 10298 C 970.69 0.574794 3.55989 0
M  V30 10299 O 969.794 -0.399063 4.10465 0
M  V30 10300 H 969.135 0.181637 0.638674 0
M  V30 10301 H 971.665 1.13335 1.70342 0
M  V30 10302 H 971.675 0.456339 4.0544 0
M  V30 10303 H 970.35 1.58921 3.8434 0
M  V30 10304 H 968.927 -0.238187 3.72139 0
M  V30 10305 N 971.112 -1.45937 0.595003 0
M  V30 10306 C 972.042 -2.33198 -0.11871 0
M  V30 10307 C 973.023 -1.46083 -0.871423 0
M  V30 10308 O 974.208 -1.74879 -0.844461 0
M  V30 10309 C 971.338 -3.28576 -1.12495 0
M  V30 10310 C 970.292 -4.25229 -0.486275 0
M  V30 10311 C 969.618 -5.10204 -1.59986 0
M  V30 10312 C 970.918 -5.19019 0.584473 0
M  V30 10313 H 972.612 -2.93122 0.609886 0
M  V30 10314 H 970.158 -1.40951 0.294742 0
M  V30 10315 H 972.111 -3.88485 -1.6327 0
M  V30 10316 H 970.835 -2.66784 -1.88398 0
M  V30 10317 H 969.494 -3.666 0.000507962 0
M  V30 10318 H 969.142 -4.44789 -2.34886 0
M  V30 10319 H 968.842 -5.75669 -1.1781 0
M  V30 10320 H 970.366 -5.7298 -2.11014 0
M  V30 10321 H 971.78 -5.73073 0.161297 0
M  V30 10322 H 970.177 -5.92893 0.927256 0
M  V30 10323 H 971.247 -4.62208 1.46601 0
M  V30 10324 N 972.59 -0.333456 -1.54032 0
M  V30 10325 C 974.006 0.0188405 -1.59589 0
M  V30 10326 C 974.206 1.49615 -1.34972 0
M  V30 10327 O 973.262 2.2535 -1.13901 0
M  V30 10328 C 974.575 -0.408273 -2.97915 0
M  V30 10329 C 976.123 -0.359763 -3.10926 0
M  V30 10330 C 976.598 -0.76219 -4.51613 0
M  V30 10331 N 978.089 -0.715981 -4.57633 0
M  V30 10332 C 978.824 -0.999436 -5.64623 0
M  V30 10333 N 978.32 -1.35053 -6.79509 0
M  V30 10334 N 980.113 -0.924343 -5.54448 0
M  V30 10335 H 972.264 -1.29587 -1.68289 0
M  V30 10336 H 974.527 -0.527584 -0.787629 0
M  V30 10337 H 974.233 -1.43793 -3.20962 0
M  V30 10338 H 974.107 0.221685 -3.76548 0
M  V30 10339 H 976.494 0.660703 -2.87609 0
M  V30 10340 H 976.575 -1.02479 -2.34375 0
M  V30 10341 H 976.219 -1.78062 -4.75664 0
M  V30 10342 H 976.149 -0.0747478 -5.26547 0
M  V30 10343 H 978.64 -0.456875 -3.75128 0
M  V30 10344 H 978.953 -1.55194 -7.57057 0
M  V30 10345 H 977.298 -1.38889 -6.80981 0
M  V30 10346 H 980.489 -0.649469 -4.63573 0
M  V30 10347 H 980.662 -1.1486 -6.37739 0
M  V30 10348 N 974.068 1.57479 -0.061844 0
M  V30 10349 C 975.315 1.93108 0.60954 0
M  V30 10350 C 975.643 0.941086 1.70217 0
M  V30 10351 O 974.898 -0.044914 1.95648 0
M  V30 10352 C 975.197 3.35394 1.23474 0
M  V30 10353 C 974.863 4.50095 0.269247 0
M  V30 10354 C 973.525 4.812 0.00360316 0
M  V30 10355 C 975.877 5.19725 -0.391839 0
M  V30 10356 C 973.205 5.79276 -0.930383 0
M  V30 10357 C 975.557 6.18801 -1.31408 0
M  V30 10358 C 974.221 6.48328 -1.58829 0
M  V30 10359 H 973.491 0.706634 0.223046 0
M  V30 10360 H 976.138 1.91054 -0.1306 0
M  V30 10361 H 974.443 3.33866 2.05039 0
M  V30 10362 H 976.14 3.60247 1.76134 0
M  V30 10363 H 972.73 4.2583 0.486477 0
M  V30 10364 H 976.914 4.95898 -0.199713 0
M  V30 10365 H 972.17 6.00484 -1.15019 0
M  V30 10366 H 976.344 6.71862 -1.83234 0
M  V30 10367 H 973.971 7.24137 -2.31363 0
M  V30 10368 N 975.546 -0.211634 1.56173 0
M  V30 10369 C 976.774 -0.951184 1.83739 0
M  V30 10370 C 977.189 -1.7754 0.642252 0
M  V30 10371 O 976.546 -1.78302 -0.389174 0
M  V30 10372 C 976.597 -1.86075 3.09933 0
M  V30 10373 O 976.318 -1.06983 4.24837 0
M  V30 10374 C 977.819 -2.71337 3.50559 0
M  V30 10375 H 975.039 -0.278312 0.61056 0
M  V30 10376 H 977.583 -0.223871 2.03271 0
M  V30 10377 H 975.738 -2.54189 2.92347 0
M  V30 10378 H 976.152 -1.68815 4.9659 0
M  V30 10379 H 977.626 -3.30843 4.41868 0
M  V30 10380 H 978.103 -3.44226 2.72773 0
M  V30 10381 H 978.709 -2.0862 3.70618 0
M  V30 10382 N 977.024 -1.50153 -0.478725 0
M  V30 10383 C 978.27 -1.61968 -1.23036 0
M  V30 10384 C 978.625 -0.312529 -1.89845 0
M  V30 10385 O 977.918 0.688995 -1.78783 0
M  V30 10386 C 978.112 -2.73208 -2.30417 0
M  V30 10387 C 977.941 -4.14614 -1.74142 0
M  V30 10388 C 976.711 -4.81116 -1.54452 0
M  V30 10389 C 978.909 -4.99111 -1.24066 0
M  V30 10390 N 976.891 -6.06763 -0.933399 0
M  V30 10391 C 978.262 -6.15419 -0.752286 0
M  V30 10392 C 980.317 -4.84943 -1.12849 0
M  V30 10393 C 979.02 -7.19116 -0.162808 0
M  V30 10394 C 981.046 -5.88809 -0.552955 0
M  V30 10395 C 980.408 -7.0436 -0.0749195 0
M  V30 10396 H 976.507 -0.646894 -0.439377 0
M  V30 10397 H 979.091 -1.87244 -0.53364 0
M  V30 10398 H 977.262 -2.49667 -2.97525 0
M  V30 10399 H 978.994 -2.74423 -2.97446 0
M  V30 10400 H 975.749 -4.38282 -1.7946 0
M  V30 10401 H 976.173 -6.73906 -0.64647 0
M  V30 10402 H 980.815 -3.959 -1.48402 0
M  V30 10403 H 978.533 -8.0784 0.204943 0
M  V30 10404 H 982.119 -5.7991 -0.468633 0
M  V30 10405 H 980.999 -7.83357 0.363455 0
M  V30 10406 N 978.502 0.731368 -1.39602 0
M  V30 10407 C 979.727 1.52567 -1.40492 0
M  V30 10408 C 980.152 1.881 -0.00228828 0
M  V30 10409 O 979.51 1.52167 0.985643 0
M  V30 10410 C 979.558 2.78749 -2.2876 0
M  V30 10411 O 978.662 3.7482 -1.71999 0
M  V30 10412 H 978.003 0.460601 -0.478271 0
M  V30 10413 H 980.533 0.902042 -1.83642 0
M  V30 10414 H 980.543 3.27446 -2.43399 0
M  V30 10415 H 979.218 2.5222 -3.30693 0
M  V30 10416 H 977.795 3.33604 -1.66622 0
M  V30 10417 N 979.98 1.24838 0.961938 0
M  V30 10418 C 980.913 0.989041 2.05653 0
M  V30 10419 C 981.891 -0.079199 1.62407 0
M  V30 10420 O 983.075 0.0589397 1.88408 0
M  V30 10421 C 980.202 0.493661 3.35083 0
M  V30 10422 C 979.248 1.55132 3.97286 0
M  V30 10423 S 980.081 3.13438 4.34185 0
M  V30 10424 C 981.237 2.65617 5.66744 0
M  V30 10425 H 981.47 1.91588 2.27335 0
M  V30 10426 H 979.003 1.08287 1.10061 0
M  V30 10427 H 980.961 0.214482 4.09939 0
M  V30 10428 H 979.622 -0.412559 3.11379 0
M  V30 10429 H 978.815 1.15525 4.90581 0
M  V30 10430 H 978.417 1.78081 3.28882 0
M  V30 10431 H 980.709 2.08788 6.44526 0
M  V30 10432 H 981.652 3.57524 6.11214 0
M  V30 10433 H 982.06 2.05853 5.25628 0
M  V30 10434 N 981.458 -1.16348 1.06306 0
M  V30 10435 C 982.405 -2.20741 0.673962 0
M  V30 10436 C 983.375 -1.628 -0.329454 0
M  V30 10437 O 984.56 -1.89547 -0.218313 0
M  V30 10438 C 981.7 -3.45036 0.0667008 0
M  V30 10439 C 980.813 -4.17221 1.12031 0
M  V30 10440 C 979.948 -5.29034 0.479176 0
M  V30 10441 C 978.987 -5.93021 1.51631 0
M  V30 10442 N 978.124 -6.96327 0.898528 0
M  V30 10443 H 982.964 -2.53376 1.56859 0
M  V30 10444 H 980.501 -1.24449 0.784276 0
M  V30 10445 H 982.459 -4.16099 -0.302916 0
M  V30 10446 H 981.089 -3.1295 -0.791333 0
M  V30 10447 H 980.141 -3.4476 1.60763 0
M  V30 10448 H 981.453 -4.60902 1.90712 0
M  V30 10449 H 980.607 -6.06674 0.0565993 0
M  V30 10450 H 979.346 -4.86517 -0.33951 0
M  V30 10451 H 978.351 -5.14104 1.94878 0
M  V30 10452 H 979.576 -6.37618 2.3371 0
M  V30 10453 H 977.522 -6.55923 0.100555 0
M  V30 10454 H 977.439 -7.38379 1.62272 0
M  V30 10455 H 978.707 -7.77888 0.5011 0
M  V30 10456 N 982.937 -0.845659 -1.3299 0
M  V30 10457 C 984.165 -0.45835 -2.01759 0
M  V30 10458 C 984.58 0.94239 -1.63598 0
M  V30 10459 O 983.937 1.61353 -0.852738 0
M  V30 10460 C 983.988 -0.577311 -3.5686 0
M  V30 10461 O 983.709 -1.92287 -3.93646 0
M  V30 10462 C 985.21 -0.187839 -4.42902 0
M  V30 10463 H 982.43 -0.181165 -0.646081 0
M  V30 10464 H 984.974 -1.14011 -1.6977 0
M  V30 10465 H 983.129 0.0566146 -3.87359 0
M  V30 10466 H 983.543 -1.91322 -4.88361 0
M  V30 10467 H 985.017 -0.322105 -5.51059 0
M  V30 10468 H 985.494 0.870896 -4.30479 0
M  V30 10469 H 986.1 -0.796473 -4.17776 0
M  V30 10470 N 984.415 1.45619 -0.602734 0
M  V30 10471 C 985.643 2.06647 -0.102253 0
M  V30 10472 C 986.058 1.4482 1.21131 0
M  V30 10473 O 985.415 0.560621 1.73676 0
M  V30 10474 C 985.466 3.61467 0.0490113 0
M  V30 10475 O 985.187 4.20985 -1.21257 0
M  V30 10476 C 986.688 4.39469 0.581517 0
M  V30 10477 H 983.908 0.667685 -0.0666155 0
M  V30 10478 H 986.452 1.86939 -0.829091 0
M  V30 10479 H 984.607 3.80534 0.726153 0
M  V30 10480 H 985.021 5.14103 -1.03915 0
M  V30 10481 H 986.495 5.48318 0.636462 0
M  V30 10482 H 986.972 4.0891 1.60277 0
M  V30 10483 H 987.578 4.25256 -0.061419 0
M  V30 10484 N 985.893 0.34162 1.53853 0
M  V30 10485 C 987.118 -0.259608 2.05769 0
M  V30 10486 C 987.543 -1.43588 1.21507 0
M  V30 10487 O 986.901 -1.79856 0.228364 0
M  V30 10488 C 986.949 -0.654455 3.54611 0
M  V30 10489 O 986.053 -1.75472 3.73207 0
M  V30 10490 H 985.394 -0.0434621 0.662576 0
M  V30 10491 H 987.924 0.495274 1.98515 0
M  V30 10492 H 987.934 -0.932142 3.97209 0
M  V30 10493 H 986.609 0.205779 4.15391 0
M  V30 10494 H 985.186 -1.47444 3.42512 0
M  V30 10495 N 987.371 -1.57444 0.0701946 0
M  V30 10496 C 988.596 -1.98171 -0.61181 0
M  V30 10497 C 989.021 -0.94823 -1.62451 0
M  V30 10498 O 988.379 0.0863553 -1.81094 0
M  V30 10499 C 988.427 -3.37934 -1.2583 0
M  V30 10500 O 987.531 -3.37207 -2.37414 0
M  V30 10501 H 986.872 -0.645056 -0.157477 0
M  V30 10502 H 989.402 -2.04091 0.144235 0
M  V30 10503 H 989.412 -3.75083 -1.60552 0
M  V30 10504 H 988.087 -4.12684 -0.516234 0
M  V30 10505 H 986.664 -3.11826 -2.04497 0
M  V30 10506 N 988.849 0.203349 -1.56283 0
M  V30 10507 C 989.782 1.27982 -1.88934 0
M  V30 10508 C 990.76 1.44345 -0.748555 0
M  V30 10509 O 991.944 1.59867 -0.998741 0
M  V30 10510 C 989.071 2.64762 -2.11231 0
M  V30 10511 C 988.117 2.65315 -3.33932 0
M  V30 10512 S 988.95 2.17568 -4.8931 0
M  V30 10513 C 990.106 3.56189 -5.14665 0
M  V30 10514 H 990.339 1.00095 -2.79943 0
M  V30 10515 H 987.872 0.406458 -1.48954 0
M  V30 10516 H 989.83 3.43501 -2.2476 0
M  V30 10517 H 988.491 2.89864 -1.20986 0
M  V30 10518 H 987.684 3.6587 -3.46634 0
M  V30 10519 H 987.286 1.94652 -3.19353 0
M  V30 10520 H 989.578 4.52001 -5.0468 0
M  V30 10521 H 990.521 3.48387 -6.16467 0
M  V30 10522 H 990.929 3.50719 -4.42331 0
M  V30 10523 N 990.327 1.50405 0.470755 0
M  V30 10524 C 991.604 1.51929 1.23195 0
M  V30 10525 C 991.984 0.264159 2.09441 0
M  V30 10526 O 991.332 -0.752395 2.15757 0
M  V30 10527 C 991.542 2.81521 2.06269 0
M  V30 10528 C 992.89 3.32195 2.64446 0
M  V30 10529 O 993.914 2.82845 2.16511 0
M  V30 10530 O 992.773 4.18221 3.51786 0
M  V30 10531 H 989.867 0.609411 0.559059 0
M  V30 10532 H 992.413 1.62695 0.482549 0
M  V30 10533 H 991.185 3.64346 1.42715 0
M  V30 10534 H 990.808 2.7376 2.88342 0
M  V30 10535 N 991.805 -0.723954 1.39988 0
M  V30 10536 C 993.216 -1.30273 1.33738 0
M  V30 10537 C 993.567 -1.96199 0.00690581 0
M  V30 10538 O 992.692 -1.97016 -0.895179 0
M  V30 10539 C 993.287 -2.36889 2.42217 0
M  V30 10540 C 991.846 -2.90412 2.39453 0
M  V30 10541 C 990.993 -1.64103 2.2353 0
M  V30 10542 H 993.944 -0.520672 1.49916 0
M  V30 10543 H 993.965 -3.17538 2.09642 0
M  V30 10544 H 993.477 -1.88878 3.39038 0
M  V30 10545 H 991.578 -3.42674 1.46304 0
M  V30 10546 H 991.691 -3.42775 3.34727 0
M  V30 10547 H 990.055 -1.88855 1.70897 0
M  V30 10548 H 990.838 -1.18128 3.22336 0
M  V30 10549 N 993.283 -1.25346 -0.955304 0
M  V30 10550 C 994.531 -1.09837 -1.69647 0
M  V30 10551 C 994.852 0.361425 -1.91621 0
M  V30 10552 O 994.122 1.25666 -1.50283 0
M  V30 10553 H 992.702 -0.403467 -0.628668 0
M  V30 10554 H 995.364 -1.57459 -1.14859 0
M  V30 10555 H 994.46 -1.60616 -2.67598 0
M  V30 10556 N 994.761 1.15782 -1.06922 0
M  V30 10557 C 996.038 1.8253 -0.703 0
M  V30 10558 C 996.418 1.94733 0.814994 0
M  V30 10559 O 995.766 1.49537 1.72774 0
M  V30 10560 C 995.976 3.19145 -1.41234 0
M  V30 10561 C 997.324 3.94839 -1.56164 0
M  V30 10562 O 998.348 3.28685 -1.37277 0
M  V30 10563 O 997.207 5.13436 -1.87205 0
M  V30 10564 H 994.301 0.788425 -0.24963 0
M  V30 10565 H 996.847 1.22931 -1.16988 0
M  V30 10566 H 995.619 3.05336 -2.44715 0
M  V30 10567 H 995.242 3.86427 -0.935959 0
M  V30 10568 N 996.239 0.8527 1.3254 0
M  V30 10569 C 997.172 0.240733 2.26927 0
M  V30 10570 C 998.15 -0.620158 1.50309 0
M  V30 10571 O 999.334 -0.577389 1.79439 0
M  V30 10572 C 996.461 -0.660644 3.32195 0
M  V30 10573 C 995.507 0.126604 4.26312 0
M  V30 10574 S 996.34 1.49372 5.14245 0
M  V30 10575 C 997.496 0.598002 6.23037 0
M  V30 10576 H 997.729 1.04088 2.78483 0
M  V30 10577 H 995.262 0.650222 1.40041 0
M  V30 10578 H 997.22 -1.17506 3.93323 0
M  V30 10579 H 995.881 -1.43458 2.79426 0
M  V30 10580 H 995.074 -0.559851 5.00881 0
M  V30 10581 H 994.676 0.572536 3.69592 0
M  V30 10582 H 996.968 -0.198555 6.77209 0
M  V30 10583 H 997.911 1.31428 6.95796 0
M  V30 10584 H 998.319 0.173211 5.64234 0
M  V30 10585 N 997.718 -1.45297 0.610449 0
M  V30 10586 C 998.651 -2.27669 -0.155637 0
M  V30 10587 C 999.629 -1.37308 -0.870936 0
M  V30 10588 O 1000.81 -1.66739 -0.879228 0
M  V30 10589 C 997.94 -3.15748 -1.2256 0
M  V30 10590 C 996.986 -4.2207 -0.613116 0
M  V30 10591 S 997.819 -5.32337 0.581183 0
M  V30 10592 C 998.975 -6.23985 -0.489298 0
M  V30 10593 H 999.208 -2.92295 0.543205 0
M  V30 10594 H 996.741 -1.49181 0.398044 0
M  V30 10595 H 998.699 -3.67051 -1.83804 0
M  V30 10596 H 997.36 -2.50381 -1.89652 0
M  V30 10597 H 996.553 -4.83633 -1.41827 0
M  V30 10598 H 996.155 -3.73923 -0.0757482 0
M  V30 10599 H 998.447 -6.63553 -1.36759 0
M  V30 10600 H 999.39 -7.08042 0.0902456 0
M  V30 10601 H 999.798 -5.58718 -0.805911 0
M  V30 10602 N 999.196 -0.349774 -1.5367 0
M  V30 10603 C 1000.61 0.00191293 -1.596 0
M  V30 10604 C 1000.81 1.48175 -1.36552 0
M  V30 10605 O 999.868 2.24129 -1.16285 0
M  V30 10606 C 1001.18 -0.439848 -2.97466 0
M  V30 10607 C 1002.73 -0.392721 -3.10526 0
M  V30 10608 C 1003.2 -0.810047 -4.5078 0
M  V30 10609 N 1004.69 -0.764478 -4.56848 0
M  V30 10610 C 1005.43 -1.05927 -5.63531 0
M  V30 10611 N 1004.93 -1.42253 -6.78038 0
M  V30 10612 N 1006.72 -0.983098 -5.53436 0
M  V30 10613 H 998.87 -1.31364 -1.66905 0
M  V30 10614 H 1001.13 -0.535908 -0.781989 0
M  V30 10615 H 1000.84 -1.47189 -3.19419 0
M  V30 10616 H 1000.71 0.181735 -3.76762 0
M  V30 10617 H 1003.1 0.630161 -2.88293 0
M  V30 10618 H 1003.18 -1.04959 -2.33275 0
M  V30 10619 H 1002.82 -1.83097 -4.73749 0
M  V30 10620 H 1002.75 -0.130591 -5.26438 0
M  V30 10621 H 1005.25 -0.496637 -3.74622 0
M  V30 10622 H 1005.56 -1.63215 -7.55368 0
M  V30 10623 H 1003.9 -1.46104 -6.79469 0
M  V30 10624 H 1007.09 -0.698601 -4.62858 0
M  V30 10625 H 1007.27 -1.21618 -6.36485 0
M  V30 10626 N 1000.67 1.57404 -0.0785433 0
M  V30 10627 C 1001.58 2.16612 0.900902 0
M  V30 10628 C 1002.6 1.13109 1.32221 0
M  V30 10629 O 1003.78 1.45406 1.39352 0
M  V30 10630 C 1000.84 2.7215 2.14791 0
M  V30 10631 C 999.902 3.90551 1.78237 0
M  V30 10632 C 999.135 4.43431 2.96993 0
M  V30 10633 O 999.358 3.95292 4.11218 0
M  V30 10634 O 998.292 5.34674 2.76418 0
M  V30 10635 H 1002.12 3.0068 0.427227 0
M  V30 10636 H 999.703 1.48696 0.144902 0
M  V30 10637 H 1001.58 3.07718 2.87902 0
M  V30 10638 H 1000.26 1.91139 2.61243 0
M  V30 10639 H 999.167 3.59825 1.02357 0
M  V30 10640 H 1000.5 4.72876 1.36562 0
M  V30 10641 N 1002.15 -0.195058 1.56388 0
M  V30 10642 C 1003.4 -0.913626 1.79821 0
M  V30 10643 C 1003.71 -1.84422 0.651767 0
M  V30 10644 O 1004.92 -2.6034 0.770402 0
M  V30 10645 C 1003.38 -1.67497 3.18548 0
M  V30 10646 C 1002.98 -0.789205 4.40994 0
M  V30 10647 C 1004.73 -2.38318 3.5129 0
M  V30 10648 C 1002.63 -1.54942 5.70742 0
M  V30 10649 H 1001.56 -0.344891 0.670497 0
M  V30 10650 H 1004.22 -0.166912 1.82739 0
M  V30 10651 H 1002.6 -2.46557 3.0988 0
M  V30 10652 H 1003.77 -0.0372595 4.60785 0
M  V30 10653 H 1002.09 -0.191834 4.15958 0
M  V30 10654 H 1004.68 -2.95745 4.45465 0
M  V30 10655 H 1005.03 -3.12507 2.75037 0
M  V30 10656 H 1005.56 -1.66224 3.61406 0
M  V30 10657 H 1002.3 -0.85031 6.49962 0
M  V30 10658 H 1001.82 -2.2753 5.54969 0
M  V30 10659 H 1003.5 -2.1032 6.11861 0
M  V30 10660 N 1003.63 -1.50653 -0.462772 0
M  V30 10661 C 1005.05 -1.38263 -0.797213 0
M  V30 10662 C 1005.25 -0.445172 -1.96521 0
M  V30 10663 O 1004.3 0.10913 -2.52264 0
M  V30 10664 C 1005.61 -2.798 -1.10146 0
M  V30 10665 C 1007.16 -2.88774 -1.20742 0
M  V30 10666 C 1007.64 -4.31163 -1.54476 0
M  V30 10667 N 1009.13 -4.34152 -1.61451 0
M  V30 10668 C 1009.86 -5.4133 -1.89074 0
M  V30 10669 N 1009.36 -6.58705 -2.1466 0
M  V30 10670 N 1011.15 -5.28783 -1.90645 0
M  V30 10671 H 1003.3 -2.10172 0.30684 0
M  V30 10672 H 1005.57 -0.945046 0.0747862 0
M  V30 10673 H 1005.27 -3.50276 -0.316207 0
M  V30 10674 H 1005.15 -3.17559 -2.03559 0
M  V30 10675 H 1007.53 -2.18512 -1.98334 0
M  V30 10676 H 1007.61 -2.54547 -0.252904 0
M  V30 10677 H 1007.26 -5.01965 -0.774207 0
M  V30 10678 H 1007.19 -4.62883 -2.51092 0
M  V30 10679 H 1009.68 -3.49519 -1.43684 0
M  V30 10680 H 1009.99 -7.36192 -2.35035 0
M  V30 10681 H 1008.34 -6.61866 -2.12035 0
M  V30 10682 H 1011.53 -4.36078 -1.70158 0
M  V30 10683 H 1011.7 -6.12396 -2.11836 0
M  V30 10684 N 1005.11 0.71652 -1.4037 0
M  V30 10685 C 1006.06 1.8306 -1.40562 0
M  V30 10686 C 1007.03 1.64009 -0.262697 0
M  V30 10687 O 1008.21 1.85157 -0.460619 0
M  V30 10688 C 1005.35 3.2076 -1.27307 0
M  V30 10689 C 1004.46 3.51389 -2.51296 0
M  V30 10690 C 1003.6 4.78589 -2.30491 0
M  V30 10691 C 1002.64 5.02119 -3.50061 0
M  V30 10692 N 1001.77 6.20533 -3.28457 0
M  V30 10693 H 1006.61 1.82231 -2.35788 0
M  V30 10694 H 1004.15 0.890198 -1.17106 0
M  V30 10695 H 1006.11 4.00274 -1.17628 0
M  V30 10696 H 1004.74 3.2082 -0.357005 0
M  V30 10697 H 1003.79 2.66436 -2.71507 0
M  V30 10698 H 1005.1 3.64686 -3.40302 0
M  V30 10699 H 1004.26 5.66119 -2.1816 0
M  V30 10700 H 1003 4.67499 -1.38909 0
M  V30 10701 H 1002 4.13044 -3.6287 0
M  V30 10702 H 1003.23 5.15082 -4.42569 0
M  V30 10703 H 1001.17 6.10695 -2.39556 0
M  V30 10704 H 1001.09 6.34502 -4.11027 0
M  V30 10705 H 1002.36 7.10853 -3.19857 0
M  V30 10706 N 1006.59 1.25851 0.948643 0
M  V30 10707 C 1007.83 1.11119 1.69648 0
M  V30 10708 C 1008.17 -0.345995 1.91093 0
M  V30 10709 O 1007.44 -1.25467 1.48621 0
M  V30 10710 C 1007.72 1.87261 3.0758 0
M  V30 10711 C 1007.58 3.40842 2.93507 0
M  V30 10712 C 1008.9 1.6605 4.07573 0
M  V30 10713 H 1006.01 0.405052 0.615713 0
M  V30 10714 H 1008.66 1.54756 1.10229 0
M  V30 10715 H 1006.81 1.50172 3.58303 0
M  V30 10716 H 1008.48 3.87641 2.50064 0
M  V30 10717 H 1006.72 3.68248 2.29294 0
M  V30 10718 H 1007.39 3.89339 3.91305 0
M  V30 10719 H 1009.87 1.98348 3.65783 0
M  V30 10720 H 1008.74 2.21753 5.02113 0
M  V30 10721 H 1009.01 0.603256 4.37965 0
M  V30 10722 N 1008.06 -1.15214 1.07534 0
M  V30 10723 C 1008.99 -2.2216 0.718837 0
M  V30 10724 C 1009.98 -1.6753 -0.29459 0
M  V30 10725 O 1011.16 -1.93481 -0.166931 0
M  V30 10726 C 1008.29 -3.471 0.117836 0
M  V30 10727 C 1007.24 -4.14701 1.05862 0
M  V30 10728 C 1006.57 -5.3374 0.320284 0
M  V30 10729 C 1007.87 -4.64254 2.39302 0
M  V30 10730 H 1009.56 -2.52237 1.61297 0
M  V30 10731 H 1007.11 -1.21239 0.776992 0
M  V30 10732 H 1009.06 -4.21156 -0.143519 0
M  V30 10733 H 1007.79 -3.16361 -0.811389 0
M  V30 10734 H 1006.45 -3.42589 1.30493 0
M  V30 10735 H 1006.09 -4.99257 -0.61246 0
M  V30 10736 H 1005.79 -5.79912 0.947381 0
M  V30 10737 H 1007.32 -6.10563 0.0667721 0
M  V30 10738 H 1008.73 -5.29827 2.18988 0
M  V30 10739 H 1007.13 -5.21095 2.97623 0
M  V30 10740 H 1008.2 -3.79793 3.01472 0
M  V30 10741 N 1009.54 -0.859717 -1.32086 0
M  V30 10742 C 1010.82 -0.386665 -1.9174 0
M  V30 10743 C 1011.2 1.13028 -1.78292 0
M  V30 10744 O 1010.55 1.95422 -1.18417 0
M  V30 10745 C 1010.76 -0.856648 -3.38323 0
M  V30 10746 C 1012.11 -0.87678 -4.15449 0
M  V30 10747 O 1013.13 -0.80162 -3.47063 0
M  V30 10748 O 1011.99 -0.98373 -5.37573 0
M  V30 10749 H 1009.08 -0.113758 -0.819139 0
M  V30 10750 H 1011.63 -0.946952 -1.40822 0
M  V30 10751 H 1010.4 -1.89996 -3.42078 0
M  V30 10752 H 1010.02 -0.274095 -3.96654 0
M  V30 10753 N 1011.02 1.44971 -0.618145 0
M  V30 10754 C 1011.98 2.29044 0.0846739 0
M  V30 10755 C 1012.98 1.40341 0.784921 0
M  V30 10756 O 1014.17 1.62351 0.631479 0
M  V30 10757 C 1011.31 3.21617 1.13027 0
M  V30 10758 H 1012.5 2.92668 -0.654612 0
M  V30 10759 H 1010.05 1.51668 -0.377672 0
M  V30 10760 H 1010.79 2.62815 1.89997 0
M  V30 10761 H 1010.57 3.86969 0.63224 0
M  V30 10762 H 1012.06 3.84805 1.62218 0
M  V30 10763 N 1012.5 0.357919 1.53482 0
M  V30 10764 C 1013.45 -0.507364 2.26999 0
M  V30 10765 C 1014.44 -1.08987 1.29685 0
M  V30 10766 O 1015.65 -1.03396 1.47341 0
M  V30 10767 H 1012.02 -0.182326 0.729562 0
M  V30 10768 H 1013.99 0.134547 2.98097 0
M  V30 10769 C 1012.74 -1.63911 3.06641 0
M  V30 10770 H 1012.06 -1.20017 3.81361 0
M  V30 10771 H 1013.5 -2.21943 3.61272 0
M  V30 10772 C 1011.96 -2.57697 2.17011 0
M  V30 10773 O 1012.49 -3.60318 1.77578 0
M  V30 10774 N 1010.7 -2.2671 1.818 0
M  V30 10775 H 1010.25 -1.43296 2.14065 0
M  V30 10776 H 1010.2 -2.89716 1.22115 0
M  V30 10777 N 1013.98 -1.5736 0.0868897 0
M  V30 10778 C 1014.92 -2.14793 -0.892571 0
M  V30 10779 C 1015.92 -1.08866 -1.29787 0
M  V30 10780 O 1017.12 -1.27223 -1.27335 0
M  V30 10781 H 1013.5 -0.686998 -0.305838 0
M  V30 10782 H 1015.47 -2.95927 -0.383393 0
M  V30 10783 C 1014.22 -2.73646 -2.14507 0
M  V30 10784 H 1013.54 -3.54835 -1.84207 0
M  V30 10785 H 1014.98 -3.17409 -2.81118 0
M  V30 10786 C 1013.44 -1.69138 -2.91366 0
M  V30 10787 O 1013.97 -1.12539 -3.85614 0
M  V30 10788 N 1012.18 -1.3982 -2.54752 0
M  V30 10789 H 1011.72 -1.86035 -1.78182 0
M  V30 10790 H 1011.68 -0.701316 -3.06478 0
M  V30 10791 N 1015.45 0.186762 -1.56489 0
M  V30 10792 C 1016.69 0.912523 -1.829 0
M  V30 10793 C 1017.06 1.80094 -0.665598 0
M  V30 10794 O 1018.26 2.56312 -0.809787 0
M  V30 10795 C 1016.53 1.70022 -3.14368 0
M  V30 10796 S 1018.09 2.47686 -3.62211 0
M  V30 10797 H 1014.91 0.305916 -0.641823 0
M  V30 10798 H 1017.51 0.175289 -1.94713 0
M  V30 10799 H 1016.21 1.03832 -3.97048 0
M  V30 10800 H 1015.74 2.47912 -3.05456 0
M  V30 10801 H 1017.76 3.72058 -3.28309 0
M  V30 10802 N 1016.93 1.50896 0.454776 0
M  V30 10803 C 1018.21 1.53227 1.21576 0
M  V30 10804 C 1018.59 0.286358 2.09149 0
M  V30 10805 O 1017.94 -0.729469 2.16543 0
M  V30 10806 C 1018.15 2.83693 2.03271 0
M  V30 10807 C 1019.5 3.34981 2.60908 0
M  V30 10808 O 1020.52 2.85126 2.13499 0
M  V30 10809 O 1019.38 4.21929 3.4733 0
M  V30 10810 H 1016.47 0.615306 0.552564 0
M  V30 10811 H 1019.02 1.63197 0.465266 0
M  V30 10812 H 1017.79 3.65839 1.38843 0
M  V30 10813 H 1017.41 2.76803 2.85422 0
M  V30 10814 N 1018.41 -0.709066 1.40748 0
M  V30 10815 C 1019.64 -1.49591 1.425 0
M  V30 10816 C 1020.05 -1.89184 0.0248343 0
M  V30 10817 O 1019.39 -1.56429 -0.963109 0
M  V30 10818 C 1019.45 -2.79735 2.25807 0
M  V30 10819 C 1019.12 -2.62426 3.74141 0
M  V30 10820 C 1020.11 -2.29256 4.66624 0
M  V30 10821 C 1017.8 -2.78487 4.18032 0
M  V30 10822 C 1019.79 -2.12366 6.00982 0
M  V30 10823 C 1017.48 -2.61215 5.52458 0
M  V30 10824 C 1018.48 -2.28203 6.43749 0
M  V30 10825 O 1018.17 -2.11069 7.75697 0
M  V30 10826 H 1017.9 -0.467994 0.487809 0
M  V30 10827 H 1020.45 -0.881694 1.85514 0
M  V30 10828 H 1018.68 -3.43513 1.77584 0
M  V30 10829 H 1020.37 -3.41481 2.19421 0
M  V30 10830 H 1021.14 -2.16474 4.34009 0
M  V30 10831 H 1017.02 -3.03168 3.4729 0
M  V30 10832 H 1020.56 -1.86522 6.72202 0
M  V30 10833 H 1016.46 -2.73582 5.84656 0
M  V30 10834 H 1017.23 -2.25938 7.86698 0
M  V30 10835 N 1019.89 -1.26353 -0.941956 0
M  V30 10836 C 1020.8 -1.09618 -2.07415 0
M  V30 10837 C 1021.82 -0.0298963 -1.73974 0
M  V30 10838 O 1022.99 -0.233466 -2.00042 0
M  V30 10839 C 1020.06 -0.73013 -3.38925 0
M  V30 10840 C 1019.12 -1.87574 -3.86153 0
M  V30 10841 C 1018.35 -1.52706 -5.11387 0
M  V30 10842 O 1018.57 -0.428438 -5.68789 0
M  V30 10843 O 1017.51 -2.36154 -5.53638 0
M  V30 10844 H 1021.33 -2.04598 -2.2444 0
M  V30 10845 H 1018.92 -1.05407 -1.05876 0
M  V30 10846 H 1020.8 -0.538684 -4.17943 0
M  V30 10847 H 1019.48 0.190282 -3.2314 0
M  V30 10848 H 1018.38 -2.12214 -3.08084 0
M  V30 10849 H 1019.72 -2.77585 -4.06457 0
M  V30 10850 N 1021.37 1.14642 -1.08144 0
M  V30 10851 C 1022.3 2.19283 -0.6669 0
M  V30 10852 C 1023.31 1.60292 0.284668 0
M  V30 10853 O 1024.5 1.78352 0.0727383 0
M  V30 10854 C 1021.6 3.38877 0.0398572 0
M  V30 10855 C 1020.77 4.274 -0.929929 0
M  V30 10856 C 1019.83 5.25562 -0.258991 0
M  V30 10857 O 1018.86 5.61999 -0.902563 0
M  V30 10858 N 1020.06 5.71958 0.992177 0
M  V30 10859 H 1022.83 2.55464 -1.5671 0
M  V30 10860 H 1020.39 1.29836 -0.96717 0
M  V30 10861 H 1022.38 4.01605 0.499583 0
M  V30 10862 H 1020.95 3.01043 0.842118 0
M  V30 10863 H 1020.17 3.61649 -1.56857 0
M  V30 10864 H 1021.46 4.83411 -1.58717 0
M  V30 10865 H 1020.86 5.44481 1.53484 0
M  V30 10866 H 1019.41 6.36687 1.39544 0
M  V30 10867 N 1022.85 0.866709 1.31628 0
M  V30 10868 C 1024.26 0.558188 1.49521 0
M  V30 10869 C 1024.46 -0.90844 1.7986 0
M  V30 10870 O 1023.52 -1.6908 1.87531 0
M  V30 10871 C 1024.83 1.45559 2.63122 0
M  V30 10872 C 1026.38 1.45728 2.77006 0
M  V30 10873 C 1026.85 2.34017 3.937 0
M  V30 10874 N 1028.34 2.31879 4.00982 0
M  V30 10875 C 1029.08 2.96915 4.90539 0
M  V30 10876 N 1028.58 3.71109 5.85021 0
M  V30 10877 N 1030.37 2.86241 4.83759 0
M  V30 10878 H 1022.52 1.81574 1.10203 0
M  V30 10879 H 1024.78 0.77621 0.544244 0
M  V30 10880 H 1024.49 2.49904 2.47469 0
M  V30 10881 H 1024.36 1.15174 3.59186 0
M  V30 10882 H 1026.75 0.421419 2.92075 0
M  V30 10883 H 1026.83 1.80134 1.81619 0
M  V30 10884 H 1026.47 3.37678 3.79389 0
M  V30 10885 H 1026.4 1.96937 4.88388 0
M  V30 10886 H 1028.9 1.77948 3.33381 0
M  V30 10887 H 1029.21 4.1787 6.5008 0
M  V30 10888 H 1027.55 3.75217 5.8501 0
M  V30 10889 H 1030.74 2.27819 4.08921 0
M  V30 10890 H 1030.92 3.37206 5.5335 0
M  V30 10891 N 1024.32 -1.44642 0.625825 0
M  V30 10892 C 1025.23 -2.34451 -0.0836134 0
M  V30 10893 C 1026.25 -1.5231 -0.841289 0
M  V30 10894 O 1027.43 -1.85056 -0.794754 0
M  V30 10895 C 1024.49 -3.30211 -1.05648 0
M  V30 10896 C 1023.55 -4.28259 -0.298759 0
M  V30 10897 C 1022.78 -5.19444 -1.22528 0
M  V30 10898 O 1023.01 -5.14444 -2.46382 0
M  V30 10899 O 1021.94 -5.97668 -0.71247 0
M  V30 10900 H 1025.77 -2.96555 0.654912 0
M  V30 10901 H 1023.35 -1.44327 0.386029 0
M  V30 10902 H 1025.23 -3.8917 -1.61632 0
M  V30 10903 H 1023.91 -2.70648 -1.77571 0
M  V30 10904 H 1022.82 -3.72863 0.304001 0
M  V30 10905 H 1024.15 -4.90728 0.380345 0
M  V30 10906 N 1025.8 -0.366053 -1.5329 0
M  V30 10907 C 1027.22 -0.0150149 -1.59593 0
M  V30 10908 C 1027.42 1.46719 -1.38116 0
M  V30 10909 O 1026.47 2.22884 -1.18656 0
M  V30 10910 C 1027.79 -0.471374 -2.96982 0
M  V30 10911 C 1029.33 -0.425634 -3.10092 0
M  V30 10912 C 1029.81 -0.857812 -4.49895 0
M  V30 10913 N 1031.3 -0.81289 -4.56011 0
M  V30 10914 C 1032.04 -1.11898 -5.62376 0
M  V30 10915 N 1031.53 -1.49436 -6.76491 0
M  V30 10916 N 1033.32 -1.04174 -5.52362 0
M  V30 10917 H 1025.48 -1.33127 -1.65502 0
M  V30 10918 H 1027.74 -0.544172 -0.776261 0
M  V30 10919 H 1027.44 -1.50569 -3.1784 0
M  V30 10920 H 1027.32 0.141764 -3.76934 0
M  V30 10921 H 1029.71 0.599548 -2.88945 0
M  V30 10922 H 1029.79 -1.07427 -2.32149 0
M  V30 10923 H 1029.43 -1.88111 -4.7178 0
M  V30 10924 H 1029.36 -0.186419 -5.2627 0
M  V30 10925 H 1031.85 -0.536343 -3.74075 0
M  V30 10926 H 1032.16 -1.71217 -7.53594 0
M  V30 10927 H 1030.51 -1.53302 -6.77882 0
M  V30 10928 H 1033.7 -0.747654 -4.62091 0
M  V30 10929 H 1033.87 -1.28362 -6.35159 0
M  V30 10930 N 1027.28 1.57312 -0.0952337 0
M  V30 10931 C 1028.53 1.94358 0.568442 0
M  V30 10932 C 1028.85 0.97698 1.68182 0
M  V30 10933 O 1028.11 -0.00340398 1.957 0
M  V30 10934 C 1028.41 3.37937 1.16332 0
M  V30 10935 C 1028.07 4.50565 0.173715 0
M  V30 10936 C 1026.74 4.81099 -0.0984673 0
M  V30 10937 C 1029.09 5.18777 -0.501992 0
M  V30 10938 C 1026.42 5.77172 -1.05305 0
M  V30 10939 C 1028.77 6.15874 -1.44505 0
M  V30 10940 C 1027.43 6.44813 -1.72546 0
M  V30 10941 H 1026.7 0.711206 0.208007 0
M  V30 10942 H 1029.35 1.90734 -0.171096 0
M  V30 10943 H 1027.65 3.3814 1.97911 0
M  V30 10944 H 1029.35 3.63902 1.68453 0
M  V30 10945 H 1025.94 4.26766 0.396042 0
M  V30 10946 H 1030.13 4.95363 -0.304855 0
M  V30 10947 H 1025.38 5.97909 -1.2773 0
M  V30 10948 H 1029.56 6.67824 -1.97444 0
M  V30 10949 H 1027.18 7.19067 -2.46671 0
M  V30 10950 N 1028.76 -0.17846 1.56586 0
M  V30 10951 C 1029.69 -1.22342 1.98884 0
M  V30 10952 C 1030.67 -1.46564 0.86331 0
M  V30 10953 O 1031.85 -1.58019 1.12887 0
M  V30 10954 C 1028.98 -2.56396 2.34261 0
M  V30 10955 C 1027.94 -2.46756 3.49708 0
M  V30 10956 C 1027.26 -3.85235 3.70807 0
M  V30 10957 C 1028.56 -1.97838 4.83381 0
M  V30 10958 H 1030.26 -0.871848 2.86425 0
M  V30 10959 H 1027.8 -0.417948 1.37801 0
M  V30 10960 H 1029.76 -3.29695 2.62448 0
M  V30 10961 H 1028.48 -2.93327 1.43621 0
M  V30 10962 H 1027.14 -1.75912 3.21637 0
M  V30 10963 H 1026.79 -4.19547 2.7747 0
M  V30 10964 H 1026.49 -3.79655 4.48481 0
M  V30 10965 H 1028.01 -4.60131 4.01387 0
M  V30 10966 H 1029.43 -2.60906 5.10491 0
M  V30 10967 H 1027.82 -2.03223 5.64642 0
M  V30 10968 H 1028.89 -0.932339 4.75852 0
M  V30 10969 N 1030.24 -1.51135 -0.446768 0
M  V30 10970 C 1031.17 -1.74709 -1.54916 0
M  V30 10971 C 1032.15 -0.596628 -1.59293 0
M  V30 10972 O 1033.33 -0.838356 -1.75172 0
M  V30 10973 C 1030.46 -1.86353 -2.9307 0
M  V30 10974 C 1029.42 -3.01725 -3.03556 0
M  V30 10975 C 1028.74 -2.9854 -4.43597 0
M  V30 10976 C 1030.04 -4.41848 -2.7851 0
M  V30 10977 H 1031.74 -2.67014 -1.3544 0
M  V30 10978 H 1029.28 -1.28489 -0.650131 0
M  V30 10979 H 1031.23 -2.01428 -3.70141 0
M  V30 10980 H 1029.96 -0.906887 -3.13756 0
M  V30 10981 H 1028.62 -2.86339 -2.28922 0
M  V30 10982 H 1028.27 -2.00673 -4.61237 0
M  V30 10983 H 1027.97 -3.76008 -4.51544 0
M  V30 10984 H 1029.49 -3.15696 -5.22655 0
M  V30 10985 H 1030.9 -4.57633 -3.45319 0
M  V30 10986 H 1029.3 -5.2095 -2.97877 0
M  V30 10987 H 1030.37 -4.52536 -1.74182 0
M  V30 10988 N 1031.71 0.701592 -1.41122 0
M  V30 10989 C 1032.96 1.4616 -1.40155 0
M  V30 10990 C 1033.29 1.94498 -0.00861553 0
M  V30 10991 O 1032.54 1.69484 0.978452 0
M  V30 10992 C 1032.84 2.693 -2.34973 0
M  V30 10993 C 1032.51 2.39652 -3.81939 0
M  V30 10994 C 1031.17 2.31277 -4.21977 0
M  V30 10995 C 1033.52 2.15076 -4.74755 0
M  V30 10996 C 1030.85 1.96413 -5.52846 0
M  V30 10997 C 1033.2 1.81722 -6.05937 0
M  V30 10998 C 1031.87 1.71838 -6.45002 0
M  V30 10999 H 1031.14 0.534837 -0.512865 0
M  V30 11000 H 1033.78 0.802425 -1.73878 0
M  V30 11001 H 1032.09 3.40123 -1.94484 0
M  V30 11002 H 1033.79 3.27427 -2.31501 0
M  V30 11003 H 1030.38 2.47063 -3.50226 0
M  V30 11004 H 1034.56 2.20495 -4.4463 0
M  V30 11005 H 1029.82 1.87308 -5.82001 0
M  V30 11006 H 1033.99 1.61723 -6.77362 0
M  V30 11007 H 1031.62 1.44591 -7.46323 0
M  V30 11008 N 1033.19 1.2685 0.935242 0
M  V30 11009 C 1034.43 1.13972 1.69675 0
M  V30 11010 C 1034.8 -0.310655 1.8947 0
M  V30 11011 O 1036 -0.561692 2.62866 0
M  V30 11012 C 1034.27 1.89387 3.03096 0
M  V30 11013 S 1035.83 1.92633 3.94256 0
M  V30 11014 H 1032.64 0.407009 0.582979 0
M  V30 11015 H 1035.25 1.60653 1.11404 0
M  V30 11016 H 1033.95 2.9397 2.86374 0
M  V30 11017 H 1033.48 1.43171 3.66423 0
M  V30 11018 H 1035.5 1.01732 4.85659 0
M  V30 11019 N 1034.67 -1.14067 1.0875 0
M  V30 11020 C 1035.92 -1.85459 0.82053 0
M  V30 11021 C 1036.25 -1.82923 -0.65213 0
M  V30 11022 O 1035.52 -1.26241 -1.47965 0
M  V30 11023 C 1035.81 -3.33937 1.34752 0
M  V30 11024 C 1035.66 -3.45026 2.88578 0
M  V30 11025 C 1036.98 -4.2915 0.975636 0
M  V30 11026 H 1034.1 -0.673384 0.299538 0
M  V30 11027 H 1036.74 -1.33927 1.34772 0
M  V30 11028 H 1034.89 -3.77953 0.899086 0
M  V30 11029 H 1036.56 -3.09771 3.41818 0
M  V30 11030 H 1034.81 -2.86124 3.26061 0
M  V30 11031 H 1035.48 -4.49408 3.20526 0
M  V30 11032 H 1037.95 -3.93168 1.36228 0
M  V30 11033 H 1036.83 -5.31489 1.37152 0
M  V30 11034 H 1037.09 -4.41945 -0.116956 0
M  V30 11035 N 1036.15 -0.873678 -1.31166 0
M  V30 11036 C 1037.1 -0.303699 -2.25968 0
M  V30 11037 C 1038.08 0.561387 -1.50789 0
M  V30 11038 O 1039.27 0.407658 -1.72242 0
M  V30 11039 C 1036.4 0.490612 -3.39776 0
M  V30 11040 C 1035.49 -0.387927 -4.22322 0
M  V30 11041 N 1035.88 -1.48313 -4.83567 0
M  V30 11042 C 1034.18 -0.18102 -4.45632 0
M  V30 11043 C 1034.88 -2.0252 -5.45308 0
M  V30 11044 N 1033.86 -1.32169 -5.27288 0
M  V30 11045 H 1037.66 -1.14071 -2.7086 0
M  V30 11046 H 1035.17 -0.721843 -1.45476 0
M  V30 11047 H 1037.17 0.9155 -4.06724 0
M  V30 11048 H 1035.83 1.32519 -2.96427 0
M  V30 11049 H 1036.84 -1.86604 -4.83114 0
M  V30 11050 H 1033.52 0.617304 -4.12911 0
M  V30 11051 H 1034.91 -2.94429 -6.03955 0
M  V30 11052 N 1037.63 1.44308 -0.633487 0
M  V30 11053 C 1038.87 2.01624 -0.138643 0
M  V30 11054 C 1039.2 1.50101 1.24477 0
M  V30 11055 O 1038.47 0.705575 1.82752 0
M  V30 11056 H 1037.05 0.745439 -0.0482636 0
M  V30 11057 H 1039.71 1.76777 -0.820719 0
M  V30 11058 H 1038.8 3.11913 -0.108136 0
M  V30 11059 N 1039.1 0.374177 1.53094 0
M  V30 11060 C 1040.38 -0.269632 1.93733 0
M  V30 11061 C 1040.76 -1.6566 1.30843 0
M  V30 11062 O 1040.11 -2.23598 0.470759 0
M  V30 11063 C 1040.32 -0.311204 3.4761 0
M  V30 11064 C 1041.67 -0.547432 4.21056 0
M  V30 11065 O 1042.69 -0.392053 3.54036 0
M  V30 11066 O 1041.55 -0.850645 5.39839 0
M  V30 11067 H 1038.64 -0.163723 0.810632 0
M  V30 11068 H 1041.19 0.427586 1.64225 0
M  V30 11069 H 1039.96 0.660897 3.85678 0
M  V30 11070 H 1039.59 -1.05397 3.83376 0
M  V30 11071 N 1040.58 -1.57259 0.103575 0
M  V30 11072 C 1041.83 -1.94272 -0.557024 0
M  V30 11073 C 1042.15 -0.986739 -1.68192 0
M  V30 11074 O 1041.42 -0.0402818 -1.95859 0
M  V30 11075 H 1040 -0.717237 -0.208757 0
M  V30 11076 H 1042.66 -1.94167 0.168898 0
M  V30 11077 H 1041.76 -2.96914 -0.961691 0
M  V30 11078 N 1042.06 0.170153 -1.56679 0
M  V30 11079 C 1043.01 1.21531 -1.9291 0
M  V30 11080 C 1043.99 1.39742 -0.797553 0
M  V30 11081 O 1045.19 1.41693 -1.06075 0
M  V30 11082 C 1042.32 2.55447 -2.29351 0
M  V30 11083 C 1041.4 2.40925 -3.49022 0
M  V30 11084 N 1041.79 1.96118 -4.66231 0
M  V30 11085 C 1040.09 2.71747 -3.53652 0
M  V30 11086 C 1040.79 1.94086 -5.48366 0
M  V30 11087 N 1039.77 2.36533 -4.89441 0
M  V30 11088 H 1043.57 0.860602 -2.81018 0
M  V30 11089 H 1041.08 0.378415 -1.5793 0
M  V30 11090 H 1043.08 3.30972 -2.53502 0
M  V30 11091 H 1041.74 2.9172 -1.42583 0
M  V30 11092 H 1042.75 1.66438 -4.90427 0
M  V30 11093 H 1039.43 3.1205 -2.77365 0
M  V30 11094 H 1040.82 1.61132 -6.52293 0
M  V30 11095 N 1043.54 1.5137 0.438746 0
M  V30 11096 C 1044.5 1.71993 1.51496 0
M  V30 11097 C 1045.5 0.589978 1.49586 0
M  V30 11098 O 1046.69 0.857505 1.51633 0
M  V30 11099 C 1043.82 1.77508 2.91039 0
M  V30 11100 H 1045.02 2.68041 1.34514 0
M  V30 11101 H 1042.57 1.41338 0.667326 0
M  V30 11102 H 1043.3 0.832698 3.13427 0
M  V30 11103 H 1043.09 2.59627 2.9383 0
M  V30 11104 H 1044.58 1.95308 3.69113 0
M  V30 11105 N 1045.02 -0.694098 1.41492 0
M  V30 11106 C 1045.93 -1.83778 1.45818 0
M  V30 11107 C 1046.94 -1.70471 0.348639 0
M  V30 11108 O 1048.12 -1.92361 0.596588 0
M  V30 11109 C 1045.18 -3.19771 1.33967 0
M  V30 11110 C 1044.24 -3.45175 2.5525 0
M  V30 11111 C 1043.48 -4.74681 2.43955 0
M  V30 11112 O 1043.7 -5.51268 1.46491 0
M  V30 11113 O 1042.63 -5.00901 3.33739 0
M  V30 11114 H 1046.46 -1.83084 2.42309 0
M  V30 11115 H 1044.05 -0.847349 1.23046 0
M  V30 11116 H 1045.93 -4.00961 1.29648 0
M  V30 11117 H 1044.6 -3.21145 0.405926 0
M  V30 11118 H 1043.51 -2.6391 2.65146 0
M  V30 11119 H 1044.84 -3.48617 3.47458 0
M  V30 11120 N 1046.49 -1.27344 -0.928501 0
M  V30 11121 C 1047.44 -1.09835 -2.05034 0
M  V30 11122 C 1048.44 -0.0216643 -1.69386 0
M  V30 11123 O 1049.64 -0.179323 -1.79105 0
M  V30 11124 H 1046.02 -0.338416 -0.671549 0
M  V30 11125 H 1047.99 -2.04879 -2.1695 0
M  V30 11126 C 1046.74 -0.761462 -3.3926 0
M  V30 11127 H 1046.06 -1.58186 -3.67175 0
M  V30 11128 H 1047.5 -0.678812 -4.18531 0
M  V30 11129 C 1045.96 0.534118 -3.32639 0
M  V30 11130 O 1046.49 1.56877 -3.69801 0
M  V30 11131 N 1044.7 0.529437 -2.85736 0
M  V30 11132 H 1044.24 -0.312954 -2.55692 0
M  V30 11133 H 1044.2 1.39637 -2.81689 0
M  V30 11134 N 1047.97 1.13488 -1.09353 0
M  V30 11135 C 1048.9 2.20988 -0.75409 0
M  V30 11136 C 1049.88 1.67977 0.267901 0
M  V30 11137 O 1051.07 1.93722 0.136128 0
M  V30 11138 C 1048.2 3.46869 -0.173042 0
M  V30 11139 C 1047.15 4.12965 -1.12446 0
M  V30 11140 C 1046.48 5.33163 -0.405157 0
M  V30 11141 C 1047.78 4.60388 -2.46658 0
M  V30 11142 H 1049.47 2.49639 -1.6529 0
M  V30 11143 H 1047.02 1.19987 -0.796182 0
M  V30 11144 H 1048.97 4.21331 0.0764988 0
M  V30 11145 H 1047.7 3.17611 0.760956 0
M  V30 11146 H 1046.35 3.40469 -1.35927 0
M  V30 11147 H 1046 5.00169 0.532955 0
M  V30 11148 H 1045.7 5.78332 -1.03952 0
M  V30 11149 H 1047.23 6.1038 -0.163899 0
M  V30 11150 H 1048.64 5.26276 -2.27389 0
M  V30 11151 H 1047.04 5.16294 -3.05876 0
M  V30 11152 H 1048.11 3.74949 -3.07476 0
M  V30 11153 N 1049.45 0.880621 1.30701 0
M  V30 11154 C 1050.7 0.497611 1.966 0
M  V30 11155 C 1051.03 -0.949901 1.69383 0
M  V30 11156 O 1050.31 -1.67054 0.996152 0
M  V30 11157 C 1050.59 0.767919 3.51817 0
M  V30 11158 C 1050.44 2.26574 3.88567 0
M  V30 11159 C 1051.76 0.241502 4.39437 0
M  V30 11160 H 1048.88 0.182267 0.714106 0
M  V30 11161 H 1051.52 1.10382 1.54648 0
M  V30 11162 H 1049.67 0.251967 3.87682 0
M  V30 11163 H 1051.34 2.84977 3.62748 0
M  V30 11164 H 1049.59 2.73411 3.36792 0
M  V30 11165 H 1050.26 2.40549 4.9683 0
M  V30 11166 H 1052.73 0.683051 4.10455 0
M  V30 11167 H 1051.61 0.459997 5.46969 0
M  V30 11168 H 1051.87 -0.857068 4.33713 0
M  V30 11169 N 1050.93 -1.4397 0.641131 0
M  V30 11170 C 1051.86 -2.28997 -0.0963315 0
M  V30 11171 C 1052.87 -1.4184 -0.799071 0
M  V30 11172 O 1054.06 -1.65896 -0.658846 0
M  V30 11173 C 1051.16 -3.18465 -1.15903 0
M  V30 11174 C 1050.34 -4.34093 -0.536828 0
M  V30 11175 C 1049.4 -5.04522 -1.4948 0
M  V30 11176 O 1048.42 -5.60202 -1.00807 0
M  V30 11177 N 1049.62 -5.06899 -2.82901 0
M  V30 11178 H 1052.39 -2.9293 0.633422 0
M  V30 11179 H 1049.95 -1.54527 0.48302 0
M  V30 11180 H 1051.94 -3.62445 -1.80044 0
M  V30 11181 H 1050.51 -2.56214 -1.79089 0
M  V30 11182 H 1049.73 -3.9318 0.283414 0
M  V30 11183 H 1051.02 -5.08698 -0.101966 0
M  V30 11184 H 1050.42 -4.63012 -3.25017 0
M  V30 11185 H 1048.97 -5.54637 -3.42376 0
M  V30 11186 N 1052.41 -0.382291 -1.52893 0
M  V30 11187 C 1053.65 0.194935 -2.02464 0
M  V30 11188 C 1054.01 1.45051 -1.26404 0
M  V30 11189 O 1053.3 1.88302 -0.353968 0
M  V30 11190 C 1053.5 0.523437 -3.53546 0
M  V30 11191 C 1053.32 -0.698754 -4.44238 0
M  V30 11192 C 1052.09 -1.2159 -4.90453 0
M  V30 11193 C 1054.29 -1.56899 -4.89783 0
M  V30 11194 N 1052.27 -2.39637 -5.65197 0
M  V30 11195 C 1053.65 -2.59595 -5.63037 0
M  V30 11196 C 1055.7 -1.58991 -4.71833 0
M  V30 11197 C 1054.4 -3.6426 -6.20248 0
M  V30 11198 C 1056.43 -2.62559 -5.29922 0
M  V30 11199 C 1055.79 -3.63977 -6.03076 0
M  V30 11200 H 1051.89 0.0336043 -0.781278 0
M  V30 11201 H 1054.47 -0.530603 -1.8733 0
M  V30 11202 H 1052.65 1.21804 -3.68807 0
M  V30 11203 H 1054.38 1.0872 -3.89823 0
M  V30 11204 H 1051.13 -0.777967 -4.67167 0
M  V30 11205 H 1051.56 -2.99348 -6.07223 0
M  V30 11206 H 1056.2 -0.819305 -4.14786 0
M  V30 11207 H 1053.92 -4.42192 -6.76382 0
M  V30 11208 H 1057.5 -2.65052 -5.17918 0
M  V30 11209 H 1056.38 -4.42802 -6.47222 0
M  V30 11210 N 1053.89 1.57202 -0.111913 0
M  V30 11211 C 1054.8 2.18475 0.854753 0
M  V30 11212 C 1055.81 1.15888 1.29792 0
M  V30 11213 O 1056.99 1.48329 1.36237 0
M  V30 11214 C 1054.05 2.76645 2.0897 0
M  V30 11215 C 1053.11 3.94244 1.69913 0
M  V30 11216 C 1052.35 4.49631 2.8752 0
M  V30 11217 O 1052.57 4.03926 4.02741 0
M  V30 11218 O 1051.5 5.40417 2.65015 0
M  V30 11219 H 1055.33 3.01519 0.363352 0
M  V30 11220 H 1052.91 1.4897 0.113329 0
M  V30 11221 H 1054.8 3.13755 2.81311 0
M  V30 11222 H 1053.47 1.96637 2.5713 0
M  V30 11223 H 1052.38 3.61915 0.947013 0
M  V30 11224 H 1053.71 4.75666 1.26501 0
M  V30 11225 N 1055.36 -0.161842 1.56767 0
M  V30 11226 C 1056.3 -1.22927 1.9226 0
M  V30 11227 C 1057.27 -1.42309 0.786562 0
M  V30 11228 O 1058.46 -1.57163 1.04078 0
M  V30 11229 C 1055.59 -2.59069 2.18177 0
M  V30 11230 C 1054.63 -2.56368 3.40849 0
M  V30 11231 S 1055.46 -2.04518 4.94907 0
M  V30 11232 C 1056.62 -3.42418 5.23928 0
M  V30 11233 H 1056.85 -0.926377 2.82499 0
M  V30 11234 H 1054.39 -0.366822 1.49979 0
M  V30 11235 H 1056.34 -3.37421 2.33789 0
M  V30 11236 H 1055.01 -2.86554 1.28629 0
M  V30 11237 H 1054.2 -3.56551 3.56213 0
M  V30 11238 H 1053.8 -1.86116 3.24402 0
M  V30 11239 H 1056.09 -4.38461 5.16486 0
M  V30 11240 H 1057.04 -3.3192 6.25487 0
M  V30 11241 H 1057.44 -3.38868 4.51474 0
M  V30 11242 N 1056.84 -1.516 -0.430713 0
M  V30 11243 C 1057.75 -1.76247 -1.54836 0
M  V30 11244 C 1058.77 -0.646985 -1.61524 0
M  V30 11245 O 1059.94 -0.929987 -1.78643 0
M  V30 11246 C 1057.01 -1.88833 -2.90763 0
M  V30 11247 C 1056.07 -3.12701 -2.94137 0
M  V30 11248 C 1055.3 -3.24676 -4.23581 0
M  V30 11249 O 1055.53 -2.42429 -5.16318 0
M  V30 11250 O 1054.46 -4.17697 -4.33374 0
M  V30 11251 H 1058.29 -2.71069 -1.3695 0
M  V30 11252 H 1055.87 -1.36182 -0.614396 0
M  V30 11253 H 1057.75 -1.99057 -3.71422 0
M  V30 11254 H 1056.43 -0.971987 -3.08762 0
M  V30 11255 H 1055.33 -3.0795 -2.1241 0
M  V30 11256 H 1056.67 -4.04045 -2.81084 0
M  V30 11257 N 1058.32 0.686584 -1.41858 0
M  V30 11258 C 1059.57 1.44879 -1.41908 0
M  V30 11259 C 1059.9 1.94175 -0.0311408 0
M  V30 11260 O 1059.17 1.70131 0.942646 0
M  V30 11261 C 1059.46 2.65428 -2.43352 0
M  V30 11262 C 1059.31 2.2184 -3.91289 0
M  V30 11263 C 1060.63 3.67635 -2.41934 0
M  V30 11264 H 1057.75 0.525477 -0.516762 0
M  V30 11265 H 1060.39 0.781263 -1.73194 0
M  V30 11266 H 1058.54 3.2238 -2.16803 0
M  V30 11267 H 1060.21 1.70146 -4.28775 0
M  V30 11268 H 1058.45 1.53531 -4.05722 0
M  V30 11269 H 1059.13 3.08376 -4.5783 0
M  V30 11270 H 1061.6 3.20376 -2.65516 0
M  V30 11271 H 1060.48 4.49579 -3.14913 0
M  V30 11272 H 1060.74 4.17953 -1.44111 0
M  V30 11273 N 1059.8 1.27835 0.921735 0
M  V30 11274 C 1061.04 1.15766 1.68457 0
M  V30 11275 C 1061.4 -0.290542 1.89789 0
M  V30 11276 O 1062.6 -0.53378 2.63447 0
M  V30 11277 C 1060.87 1.92591 3.0107 0
M  V30 11278 S 1062.43 1.96804 3.92191 0
M  V30 11279 H 1059.25 0.413169 0.578629 0
M  V30 11280 H 1061.85 1.61826 1.09693 0
M  V30 11281 H 1060.56 2.96991 2.8324 0
M  V30 11282 H 1060.09 1.47049 3.64884 0
M  V30 11283 H 1062.1 1.06877 4.84553 0
M  V30 11284 N 1061.28 -1.12907 1.09954 0
M  V30 11285 C 1062.22 -2.18485 0.743848 0
M  V30 11286 C 1063.19 -1.63766 -0.277494 0
M  V30 11287 O 1064.38 -1.90146 -0.157899 0
M  V30 11288 C 1061.52 -3.44649 0.176437 0
M  V30 11289 C 1060.63 -4.13445 1.25248 0
M  V30 11290 C 1059.77 -5.27242 0.647242 0
M  V30 11291 C 1058.8 -5.87897 1.70421 0
M  V30 11292 N 1057.94 -6.93116 1.1196 0
M  V30 11293 H 1062.78 -2.48257 1.64841 0
M  V30 11294 H 1060.32 -1.21891 0.823471 0
M  V30 11295 H 1062.28 -4.16852 -0.170384 0
M  V30 11296 H 1060.91 -3.15309 -0.69137 0
M  V30 11297 H 1059.96 -3.39471 1.7165 0
M  V30 11298 H 1061.27 -4.54601 2.05279 0
M  V30 11299 H 1060.42 -6.06186 0.249579 0
M  V30 11300 H 1059.16 -4.87351 -0.184556 0
M  V30 11301 H 1058.17 -5.07643 2.11136 0
M  V30 11302 H 1059.39 -6.2986 2.53877 0
M  V30 11303 H 1057.34 -6.55271 0.309181 0
M  V30 11304 H 1057.26 -7.32843 1.85681 0
M  V30 11305 H 1058.52 -7.759 0.748326 0
M  V30 11306 N 1062.75 -0.88754 -1.30232 0
M  V30 11307 C 1063.68 -0.372481 -2.3051 0
M  V30 11308 C 1064.66 0.546037 -1.61098 0
M  V30 11309 O 1065.85 0.459345 -1.88689 0
M  V30 11310 C 1062.98 0.411605 -3.44852 0
M  V30 11311 C 1061.93 -0.415383 -4.2598 0
M  V30 11312 C 1061.26 0.495463 -5.324 0
M  V30 11313 C 1062.56 -1.65886 -4.95257 0
M  V30 11314 H 1064.25 -1.21045 -2.7384 0
M  V30 11315 H 1061.8 -0.583498 -1.31648 0
M  V30 11316 H 1063.75 0.782584 -4.1407 0
M  V30 11317 H 1062.48 1.28325 -3.00334 0
M  V30 11318 H 1061.14 -0.768534 -3.58454 0
M  V30 11319 H 1060.78 1.36489 -4.84128 0
M  V30 11320 H 1060.48 -0.0540885 -5.87575 0
M  V30 11321 H 1062.01 0.862901 -6.04472 0
M  V30 11322 H 1063.42 -1.35832 -5.56976 0
M  V30 11323 H 1061.82 -2.14881 -5.60309 0
M  V30 11324 H 1062.89 -2.40181 -4.21237 0
M  V30 11325 N 1064.23 1.43628 -0.648757 0
M  V30 11326 C 1065.64 1.85142 -0.24066 0
M  V30 11327 C 1065.99 1.54304 1.21181 0
M  V30 11328 O 1065.12 0.989792 1.92437 0
M  V30 11329 C 1065.71 3.3606 -0.429999 0
M  V30 11330 C 1064.27 3.76323 -0.0762588 0
M  V30 11331 C 1063.42 2.67382 -0.734999 0
M  V30 11332 H 1066.37 1.33844 -0.852734 0
M  V30 11333 H 1066.39 3.79102 0.325836 0
M  V30 11334 H 1065.9 3.58474 -1.48721 0
M  V30 11335 H 1064.01 3.59521 0.978529 0
M  V30 11336 H 1064.12 4.76498 -0.498612 0
M  V30 11337 H 1062.48 2.54141 -0.168644 0
M  V30 11338 H 1063.27 2.92625 -1.79515 0
M  V30 11339 N 1065.71 0.390394 1.52688 0
M  V30 11340 C 1067.13 0.0404028 1.59549 0
M  V30 11341 C 1067.33 -1.44503 1.40432 0
M  V30 11342 O 1066.38 -2.20968 1.22187 0
M  V30 11343 C 1067.7 0.518561 2.96195 0
M  V30 11344 C 1069.24 0.474913 3.09376 0
M  V30 11345 C 1069.72 0.929278 4.48473 0
M  V30 11346 N 1071.21 0.885335 4.5466 0
M  V30 11347 C 1071.94 1.2083 5.60524 0
M  V30 11348 N 1071.44 1.6018 6.74028 0
M  V30 11349 N 1073.23 1.12949 5.50635 0
M  V30 11350 H 1065.38 1.35743 1.63363 0
M  V30 11351 H 1067.65 0.556453 0.767505 0
M  V30 11352 H 1067.35 1.55606 3.15404 0
M  V30 11353 H 1067.23 -0.081779 3.77111 0
M  V30 11354 H 1069.61 -0.553503 2.89863 0
M  V30 11355 H 1069.7 1.11107 2.3041 0
M  V30 11356 H 1069.34 1.95593 4.68728 0
M  V30 11357 H 1069.27 0.270121 5.25907 0
M  V30 11358 H 1071.76 0.595787 3.73174 0
M  V30 11359 H 1072.07 1.83184 7.50775 0
M  V30 11360 H 1070.42 1.64067 6.75357 0
M  V30 11361 H 1073.61 0.821074 4.60843 0
M  V30 11362 H 1073.78 1.3845 6.33037 0
M  V30 11363 N 1067.19 -1.57141 0.120249 0
M  V30 11364 C 1068.12 -2.18398 -0.826112 0
M  V30 11365 C 1069.1 -1.12439 -1.27638 0
M  V30 11366 O 1070.28 -1.40679 -1.33877 0
M  V30 11367 C 1067.41 -2.78438 -2.0758 0
M  V30 11368 C 1066.37 -3.89991 -1.76327 0
M  V30 11369 C 1065.69 -4.36844 -3.08336 0
M  V30 11370 C 1066.99 -5.12031 -1.03062 0
M  V30 11371 H 1068.69 -2.97731 -0.315656 0
M  V30 11372 H 1066.23 -1.43213 -0.150387 0
M  V30 11373 H 1068.19 -3.19951 -2.74243 0
M  V30 11374 H 1066.91 -1.96396 -2.60953 0
M  V30 11375 H 1065.57 -3.49055 -1.12053 0
M  V30 11376 H 1065.22 -3.51659 -3.59646 0
M  V30 11377 H 1064.92 -5.1207 -2.88199 0
M  V30 11378 H 1066.44 -4.81009 -3.76116 0
M  V30 11379 H 1067.86 -5.50555 -1.59881 0
M  V30 11380 H 1066.25 -5.92848 -0.930146 0
M  V30 11381 H 1067.32 -4.84897 -0.017582 0
M  V30 11382 N 1068.67 0.153526 -1.5685 0
M  V30 11383 C 1069.89 0.886343 -1.87507 0
M  V30 11384 C 1070.32 1.74244 -0.708565 0
M  V30 11385 O 1069.67 1.78045 0.341997 0
M  V30 11386 C 1069.72 1.72428 -3.16703 0
M  V30 11387 O 1068.83 2.82784 -3.00178 0
M  V30 11388 H 1068.17 0.247259 -0.616246 0
M  V30 11389 H 1070.7 0.146306 -2.04076 0
M  V30 11390 H 1070.71 2.12062 -3.4856 0
M  V30 11391 H 1069.38 1.09558 -4.01211 0
M  V30 11392 H 1067.96 2.46604 -2.79716 0
M  V30 11393 N 1070.14 1.51827 0.422667 0
M  V30 11394 C 1071.07 1.77152 1.52117 0
M  V30 11395 C 1072.06 0.621895 1.58324 0
M  V30 11396 O 1073.24 0.866118 1.73816 0
M  V30 11397 C 1070.37 1.90991 2.90068 0
M  V30 11398 C 1069.32 3.06516 2.98717 0
M  V30 11399 C 1068.65 3.05559 4.38791 0
M  V30 11400 C 1069.95 4.46223 2.71445 0
M  V30 11401 H 1071.64 2.69135 1.31175 0
M  V30 11402 H 1069.19 1.29507 0.629607 0
M  V30 11403 H 1071.14 2.07291 3.6689 0
M  V30 11404 H 1069.87 0.956688 3.12274 0
M  V30 11405 H 1068.53 2.89945 2.24338 0
M  V30 11406 H 1068.17 2.07985 4.57986 0
M  V30 11407 H 1067.87 3.83144 4.45505 0
M  V30 11408 H 1069.4 3.23971 5.17566 0
M  V30 11409 H 1070.81 4.63069 3.37994 0
M  V30 11410 H 1069.21 5.25623 2.89552 0
M  V30 11411 H 1070.28 4.5525 1.6696 0
M  V30 11412 N 1071.62 -0.679052 1.4222 0
M  V30 11413 C 1072.57 -1.81398 1.45594 0
M  V30 11414 C 1073.56 -1.66112 0.332127 0
M  V30 11415 O 1074.77 -1.72772 0.504942 0
M  V30 11416 H 1071.15 -0.598045 0.455902 0
M  V30 11417 H 1073.12 -1.7567 2.41211 0
M  V30 11418 C 1071.87 -3.19525 1.37109 0
M  V30 11419 H 1071.19 -3.31912 2.22878 0
M  V30 11420 H 1072.63 -3.98967 1.43531 0
M  V30 11421 C 1071.09 -3.36792 0.0853593 0
M  V30 11422 O 1071.62 -3.92309 -0.863532 0
M  V30 11423 N 1069.82 -2.906 0.00389229 0
M  V30 11424 H 1069.37 -2.45607 0.776846 0
M  V30 11425 H 1069.33 -3.0253 -0.855742 0
M  V30 11426 N 1073.1 -1.28322 -0.914942 0
M  V30 11427 C 1074.35 -1.15179 -1.66067 0
M  V30 11428 C 1074.67 0.300279 -1.92674 0
M  V30 11429 O 1073.94 1.20821 -1.54205 0
M  V30 11430 H 1072.52 -0.423264 -0.615513 0
M  V30 11431 H 1075.18 -1.61034 -1.09791 0
M  V30 11432 H 1074.28 -1.69048 -2.62353 0
M  V30 11433 N 1074.58 1.12322 -1.10551 0
M  V30 11434 C 1075.82 1.8413 -0.849932 0
M  V30 11435 C 1076.16 1.83938 0.622946 0
M  V30 11436 O 1075.43 1.28579 1.45937 0
M  V30 11437 C 1075.72 3.31751 -1.40048 0
M  V30 11438 C 1075.57 3.40391 -2.9403 0
M  V30 11439 C 1076.89 4.27543 -1.04379 0
M  V30 11440 H 1074.01 0.668533 -0.310213 0
M  V30 11441 H 1076.65 1.31766 -1.36886 0
M  V30 11442 H 1074.8 3.76475 -0.959102 0
M  V30 11443 H 1076.47 3.04294 -3.46703 0
M  V30 11444 H 1074.71 2.809 -3.30571 0
M  V30 11445 H 1075.38 4.44252 -3.27635 0
M  V30 11446 H 1077.86 3.90951 -1.42466 0
M  V30 11447 H 1076.74 5.2924 -1.4559 0
M  V30 11448 H 1077 4.42075 0.0466316 0
M  V30 11449 N 1076.06 0.894434 1.2976 0
M  V30 11450 C 1077.47 0.589778 1.48303 0
M  V30 11451 C 1077.67 -0.870085 1.81746 0
M  V30 11452 O 1076.73 -1.65065 1.91076 0
M  V30 11453 C 1078.04 1.51107 2.59975 0
M  V30 11454 C 1079.59 1.51571 2.73853 0
M  V30 11455 C 1080.06 2.42316 3.88648 0
M  V30 11456 N 1081.56 2.40333 3.95973 0
M  V30 11457 C 1082.29 3.07254 4.84131 0
M  V30 11458 N 1081.79 3.83435 5.77018 0
M  V30 11459 N 1083.58 2.96438 4.77578 0
M  V30 11460 H 1075.73 1.83871 1.06327 0
M  V30 11461 H 1077.99 0.78758 0.527657 0
M  V30 11462 H 1077.7 2.55097 2.42112 0
M  V30 11463 H 1077.57 1.22767 3.56662 0
M  V30 11464 H 1079.96 0.483277 2.91116 0
M  V30 11465 H 1080.04 1.83946 1.77757 0
M  V30 11466 H 1079.69 3.4565 3.72141 0
M  V30 11467 H 1079.62 2.07252 4.84101 0
M  V30 11468 H 1082.11 1.84979 3.29532 0
M  V30 11469 H 1082.42 4.31565 6.4107 0
M  V30 11470 H 1080.76 3.87542 5.7692 0
M  V30 11471 H 1083.96 2.36442 4.03996 0
M  V30 11472 H 1084.13 3.48867 5.46073 0
M  V30 11473 N 1077.53 -1.43282 0.656365 0
M  V30 11474 C 1078.78 -2.01776 0.171039 0
M  V30 11475 C 1079.11 -1.51795 -1.21609 0
M  V30 11476 O 1078.36 -0.702864 -1.82643 0
M  V30 11477 C 1078.66 -3.57148 0.134225 0
M  V30 11478 C 1078.33 -4.26488 1.46352 0
M  V30 11479 C 1076.99 -4.45146 1.82753 0
M  V30 11480 C 1079.34 -4.65728 2.33981 0
M  V30 11481 C 1076.67 -5.0031 3.06443 0
M  V30 11482 C 1079.02 -5.22263 3.56966 0
M  V30 11483 C 1077.69 -5.39136 3.93559 0
M  V30 11484 H 1076.96 -0.738352 0.0625878 0
M  V30 11485 H 1079.6 -1.71716 0.847697 0
M  V30 11486 H 1077.91 -3.86768 -0.625892 0
M  V30 11487 H 1079.61 -4.00168 -0.258207 0
M  V30 11488 H 1076.2 -4.12313 1.1703 0
M  V30 11489 H 1080.38 -4.51003 2.07148 0
M  V30 11490 H 1075.64 -5.11559 3.34839 0
M  V30 11491 H 1079.81 -5.51614 4.25082 0
M  V30 11492 H 1077.44 -5.81646 4.89481 0
M  V30 11493 N 1079.01 -0.398486 -1.52479 0
M  V30 11494 C 1079.96 0.432212 -2.26717 0
M  V30 11495 C 1080.93 1.05007 -1.28696 0
M  V30 11496 O 1082.12 1.07636 -1.57541 0
M  V30 11497 C 1079.26 1.54868 -3.08399 0
M  V30 11498 C 1078.37 0.952779 -4.21362 0
M  V30 11499 C 1077.5 2.04106 -4.90423 0
M  V30 11500 C 1076.54 1.42153 -5.95364 0
M  V30 11501 N 1075.68 2.44951 -6.57984 0
M  V30 11502 H 1080.52 -0.207303 -2.97278 0
M  V30 11503 H 1078.06 -0.114066 -1.46657 0
M  V30 11504 H 1080.01 2.20684 -3.54054 0
M  V30 11505 H 1078.64 2.15837 -2.4003 0
M  V30 11506 H 1077.7 0.183962 -3.79955 0
M  V30 11507 H 1079.01 0.460131 -4.96673 0
M  V30 11508 H 1078.16 2.77672 -5.39429 0
M  V30 11509 H 1076.9 2.56733 -4.14656 0
M  V30 11510 H 1075.91 0.671161 -5.45688 0
M  V30 11511 H 1077.13 0.903093 -6.73068 0
M  V30 11512 H 1075.08 2.9673 -5.85053 0
M  V30 11513 H 1074.99 2.00468 -7.28937 0
M  V30 11514 H 1076.26 3.18119 -7.11632 0
M  V30 11515 N 1080.49 1.57075 -0.12858 0
M  V30 11516 C 1081.91 1.57964 0.227961 0
M  V30 11517 C 1082.11 1.14186 1.66023 0
M  V30 11518 O 1081.16 0.833655 2.38341 0
M  V30 11519 C 1082.48 3.00697 -0.0140648 0
M  V30 11520 C 1084.02 3.12958 0.0510876 0
M  V30 11521 C 1084.5 4.57709 -0.163368 0
M  V30 11522 N 1085.99 4.6307 -0.109663 0
M  V30 11523 C 1086.73 5.72853 -0.250366 0
M  V30 11524 N 1086.22 6.91351 -0.447772 0
M  V30 11525 N 1088.01 5.61781 -0.189265 0
M  V30 11526 H 1080.17 1.83829 -1.06398 0
M  V30 11527 H 1082.43 0.850014 -0.419739 0
M  V30 11528 H 1082.13 3.37047 -1.00461 0
M  V30 11529 H 1082.01 3.70389 0.713571 0
M  V30 11530 H 1084.4 2.7646 1.03216 0
M  V30 11531 H 1084.48 2.4579 -0.708583 0
M  V30 11532 H 1084.12 4.94907 -1.14146 0
M  V30 11533 H 1084.05 5.2298 0.616405 0
M  V30 11534 H 1086.54 3.7788 0.0390086 0
M  V30 11535 H 1086.85 7.70871 -0.54574 0
M  V30 11536 H 1085.2 6.93314 -0.483866 0
M  V30 11537 H 1088.39 4.68086 -0.0359374 0
M  V30 11538 H 1088.56 6.47294 -0.302359 0
M  V30 11539 N 1081.97 -0.145205 1.5693 0
M  V30 11540 C 1083.22 -0.855955 1.82637 0
M  V30 11541 C 1083.53 -1.82255 0.710109 0
M  V30 11542 O 1084.74 -2.57758 0.852837 0
M  V30 11543 C 1083.19 -1.57278 3.23715 0
M  V30 11544 C 1082.8 -0.648507 4.43281 0
M  V30 11545 C 1084.55 -2.27021 3.58695 0
M  V30 11546 C 1082.45 -1.36706 5.75383 0
M  V30 11547 H 1081.38 -0.323385 0.68113 0
M  V30 11548 H 1084.03 -0.10869 1.83178 0
M  V30 11549 H 1082.42 -2.36574 3.17567 0
M  V30 11550 H 1083.59 0.109355 4.6067 0
M  V30 11551 H 1081.9 -0.0594029 4.16358 0
M  V30 11552 H 1084.5 -2.81423 4.54648 0
M  V30 11553 H 1084.84 -3.03598 2.8484 0
M  V30 11554 H 1085.38 -1.54642 3.66512 0
M  V30 11555 H 1082.12 -0.6431 6.52338 0
M  V30 11556 H 1081.64 -2.09759 5.61926 0
M  V30 11557 H 1083.32 -1.90748 6.18243 0
M  V30 11558 N 1083.45 -1.52049 -0.414609 0
M  V30 11559 C 1084.67 -1.6997 -1.18848 0
M  V30 11560 C 1085.1 -0.406058 -1.83665 0
M  V30 11561 O 1084.46 0.635981 -1.69779 0
M  V30 11562 C 1084.5 -2.8327 -2.23138 0
M  V30 11563 O 1083.61 -2.48457 -3.29155 0
M  V30 11564 H 1082.95 -0.566003 -0.347183 0
M  V30 11565 H 1085.48 -1.98726 -0.486757 0
M  V30 11566 H 1085.49 -3.08022 -2.67557 0
M  V30 11567 H 1084.16 -3.7713 -1.75344 0
M  V30 11568 H 1082.74 -2.34357 -2.90054 0
M  V30 11569 N 1084.93 0.6715 -1.42579 0
M  V30 11570 C 1086.17 1.42871 -1.42941 0
M  V30 11571 C 1086.49 1.94941 -0.0480483 0
M  V30 11572 O 1085.76 1.73275 0.913921 0
M  V30 11573 H 1084.34 0.530189 -0.526221 0
M  V30 11574 H 1087.01 0.793219 -1.78028 0
M  V30 11575 H 1086.1 2.2801 -2.13114 0
M  V30 11576 N 1086.4 1.28806 0.908124 0
M  V30 11577 C 1087.63 1.19153 1.69146 0
M  V30 11578 C 1088.05 -0.249056 1.8715 0
M  V30 11579 O 1087.4 -1.16772 1.40251 0
M  V30 11580 C 1087.45 1.89167 3.08055 0
M  V30 11581 O 1087.18 3.27599 2.90879 0
M  V30 11582 C 1088.68 1.85886 4.02444 0
M  V30 11583 H 1085.9 0.413359 0.528559 0
M  V30 11584 H 1088.44 1.7003 1.13622 0
M  V30 11585 H 1086.6 1.42146 3.60379 0
M  V30 11586 H 1087.01 3.62743 3.78837 0
M  V30 11587 H 1088.48 2.39454 4.97359 0
M  V30 11588 H 1088.96 0.832483 4.31238 0
M  V30 11589 H 1089.57 2.32612 3.5605 0
M  V30 11590 N 1087.88 -1.11734 1.11145 0
M  V30 11591 C 1089.11 -1.87755 0.881062 0
M  V30 11592 C 1089.53 -1.79461 -0.563496 0
M  V30 11593 O 1088.89 -1.15481 -1.39763 0
M  V30 11594 C 1088.94 -3.34641 1.34342 0
M  V30 11595 O 1088.04 -4.09195 0.513157 0
M  V30 11596 H 1087.38 -0.583111 0.317613 0
M  V30 11597 H 1089.91 -1.41256 1.48013 0
M  V30 11598 H 1089.92 -3.85486 1.33658 0
M  V30 11599 H 1088.6 -3.39994 2.39534 0
M  V30 11600 H 1087.17 -3.68269 0.585833 0
M  V30 11601 N 1089.36 -0.901303 -1.29284 0
M  V30 11602 C 1090.61 -0.52401 -1.94774 0
M  V30 11603 C 1090.92 0.934645 -1.71825 0
M  V30 11604 O 1092.13 1.41953 -2.31434 0
M  V30 11605 C 1090.58 -0.886262 -3.48817 0
M  V30 11606 C 1090.19 -2.3638 -3.80564 0
M  V30 11607 C 1091.94 -0.578955 -4.20533 0
M  V30 11608 C 1089.84 -2.66682 -5.27858 0
M  V30 11609 H 1088.77 -0.192244 -0.72908 0
M  V30 11610 H 1091.42 -1.09852 -1.46986 0
M  V30 11611 H 1089.81 -0.240666 -3.95268 0
M  V30 11612 H 1090.98 -3.05508 -3.44966 0
M  V30 11613 H 1089.29 -2.64029 -3.2199 0
M  V30 11614 H 1091.89 -0.782185 -5.28948 0
M  V30 11615 H 1092.23 0.482605 -4.13493 0
M  V30 11616 H 1092.77 -1.18246 -3.79819 0
M  V30 11617 H 1089.51 -3.71643 -5.39965 0
M  V30 11618 H 1089.03 -2.02179 -5.64698 0
M  V30 11619 H 1090.71 -2.53033 -5.95469 0
M  V30 11620 N 1090.84 1.42931 -0.663954 0
M  V30 11621 C 1091.8 2.29197 0.0117626 0
M  V30 11622 C 1092.8 1.42767 0.739875 0
M  V30 11623 O 1093.99 1.64278 0.579509 0
M  V30 11624 C 1091.12 3.2505 1.02738 0
M  V30 11625 H 1092.32 2.90438 -0.747391 0
M  V30 11626 H 1089.87 1.5039 -0.425733 0
M  V30 11627 H 1090.6 2.68726 1.8154 0
M  V30 11628 H 1090.39 3.88785 0.508809 0
M  V30 11629 H 1091.88 3.89771 1.49893 0
M  V30 11630 N 1092.32 0.406567 1.52266 0
M  V30 11631 C 1093.56 -0.170053 2.01785 0
M  V30 11632 C 1093.89 -1.45361 1.2923 0
M  V30 11633 O 1093.15 -1.91849 0.386342 0
M  V30 11634 C 1093.44 -0.467124 3.54334 0
M  V30 11635 C 1093.11 0.72693 4.45002 0
M  V30 11636 C 1091.77 1.05446 4.69505 0
M  V30 11637 C 1094.12 1.52493 4.98393 0
M  V30 11638 C 1091.45 2.18123 5.44646 0
M  V30 11639 C 1093.8 2.64244 5.74768 0
M  V30 11640 C 1092.47 2.97486 5.97544 0
M  V30 11641 H 1091.74 -0.0622267 0.738383 0
M  V30 11642 H 1094.39 0.54746 1.83508 0
M  V30 11643 H 1092.69 -1.26617 3.70777 0
M  V30 11644 H 1094.39 -0.926194 3.90157 0
M  V30 11645 H 1090.98 0.461666 4.26106 0
M  V30 11646 H 1095.16 1.28512 4.79373 0
M  V30 11647 H 1090.42 2.44228 5.60502 0
M  V30 11648 H 1094.59 3.26468 6.15136 0
M  V30 11649 H 1092.22 3.84913 6.5555 0
M  V30 11650 N 1093.79 -1.57004 0.136909 0
M  V30 11651 C 1094.74 -2.16246 -0.806607 0
M  V30 11652 C 1095.71 -1.09246 -1.25118 0
M  V30 11653 O 1096.9 -1.3724 -1.32551 0
M  V30 11654 C 1094.04 -2.78031 -2.04433 0
M  V30 11655 C 1093.15 -3.99393 -1.64649 0
M  V30 11656 C 1092.28 -4.49208 -2.83524 0
M  V30 11657 C 1091.32 -5.63059 -2.40064 0
M  V30 11658 N 1090.46 -6.07537 -3.51913 0
M  V30 11659 H 1095.3 -2.9654 -0.294596 0
M  V30 11660 H 1092.84 -1.46491 -0.133705 0
M  V30 11661 H 1094.8 -3.11992 -2.76978 0
M  V30 11662 H 1093.43 -2.00398 -2.53062 0
M  V30 11663 H 1092.48 -3.71477 -0.819077 0
M  V30 11664 H 1093.79 -4.81904 -1.28723 0
M  V30 11665 H 1092.94 -4.85171 -3.64271 0
M  V30 11666 H 1091.68 -3.65683 -3.22688 0
M  V30 11667 H 1090.69 -5.26682 -1.57754 0
M  V30 11668 H 1091.91 -6.48362 -2.01997 0
M  V30 11669 H 1089.86 -5.2695 -3.90717 0
M  V30 11670 H 1089.78 -6.84949 -3.1997 0
M  V30 11671 H 1091.04 -6.48143 -4.33048 0
M  V30 11672 N 1095.27 0.136881 -1.57004 0
M  V30 11673 C 1096.22 1.18782 -1.99984 0
M  V30 11674 C 1097.21 1.43899 -0.893841 0
M  V30 11675 O 1098.42 1.44072 -1.07904 0
M  V30 11676 H 1094.8 0.400065 -0.636751 0
M  V30 11677 H 1096.77 0.798696 -2.87512 0
M  V30 11678 C 1095.52 2.51105 -2.40502 0
M  V30 11679 H 1094.84 2.32611 -3.25165 0
M  V30 11680 H 1096.28 3.23244 -2.74389 0
M  V30 11681 C 1094.74 3.12386 -1.26161 0
M  V30 11682 O 1095.27 3.97666 -0.567836 0
M  V30 11683 N 1093.47 2.71989 -1.02326 0
M  V30 11684 H 1093.02 2.02736 -1.58921 0
M  V30 11685 H 1092.98 3.13322 -0.26013 0
M  V30 11686 N 1096.75 1.52266 0.40654 0
M  V30 11687 C 1098 1.6568 1.15035 0
M  V30 11688 C 1098.31 0.394135 1.91588 0
M  V30 11689 O 1099.52 0.408113 2.68415 0
M  V30 11690 C 1097.97 2.92725 2.0938 0
M  V30 11691 C 1097.58 4.26108 1.38332 0
M  V30 11692 C 1099.33 3.15502 2.84004 0
M  V30 11693 C 1097.23 5.44275 2.3134 0
M  V30 11694 H 1096.16 0.61719 0.43312 0
M  V30 11695 H 1098.81 1.78755 0.414598 0
M  V30 11696 H 1097.2 2.73355 2.86519 0
M  V30 11697 H 1098.37 4.55971 0.665396 0
M  V30 11698 H 1096.69 4.09454 0.757384 0
M  V30 11699 H 1099.28 4.00964 3.5374 0
M  V30 11700 H 1099.63 2.29842 3.471 0
M  V30 11701 H 1100.16 3.35357 2.13964 0
M  V30 11702 H 1096.9 6.3229 1.72887 0
M  V30 11703 H 1096.42 5.18749 3.01098 0
M  V30 11704 H 1098.1 5.77457 2.91809 0
M  V30 11705 N 1098.23 -0.663929 1.42933 0
M  V30 11706 C 1099.19 -1.75899 1.46943 0
M  V30 11707 C 1100.19 -1.5682 0.355535 0
M  V30 11708 O 1101.38 -1.62914 0.616833 0
M  V30 11709 C 1098.51 -3.14657 1.31164 0
M  V30 11710 H 1099.71 -1.73727 2.44456 0
M  V30 11711 H 1097.26 -0.874587 1.2954 0
M  V30 11712 H 1097.99 -3.22447 0.346165 0
M  V30 11713 H 1097.78 -3.29909 2.11902 0
M  V30 11714 H 1099.27 -3.9453 1.36878 0
M  V30 11715 N 1099.71 -1.29285 -0.901281 0
M  V30 11716 C 1100.93 -1.20169 -1.69039 0
M  V30 11717 C 1101.36 0.234509 -1.86632 0
M  V30 11718 O 1100.71 1.16935 -1.38549 0
M  V30 11719 C 1100.76 -1.91852 -3.05328 0
M  V30 11720 O 1099.87 -1.23448 -3.9349 0
M  V30 11721 H 1099.21 -0.416486 -0.517141 0
M  V30 11722 H 1101.74 -1.70826 -1.12603 0
M  V30 11723 H 1101.75 -2.00244 -3.5548 0
M  V30 11724 H 1100.42 -2.96313 -2.91841 0
M  V30 11725 H 1099 -1.23303 -3.51924 0
M  V30 11726 N 1101.18 1.11143 -1.11736 0
M  V30 11727 C 1102.13 2.17274 -0.778513 0
M  V30 11728 C 1103.1 1.64186 0.251405 0
M  V30 11729 O 1104.29 1.90373 0.127629 0
M  V30 11730 C 1101.43 3.44324 -0.231246 0
M  V30 11731 C 1100.54 4.114 -1.31809 0
M  V30 11732 C 1099.67 5.26146 -0.73104 0
M  V30 11733 C 1098.71 5.85112 -1.79752 0
M  V30 11734 N 1097.85 6.91247 -1.22973 0
M  V30 11735 H 1102.69 2.45603 -1.68769 0
M  V30 11736 H 1100.23 1.20565 -0.842759 0
M  V30 11737 H 1102.19 4.1707 0.104045 0
M  V30 11738 H 1100.82 3.16369 0.641119 0
M  V30 11739 H 1099.87 3.36697 -1.77029 0
M  V30 11740 H 1101.18 4.51278 -2.12485 0
M  V30 11741 H 1100.33 6.05713 -0.345987 0
M  V30 11742 H 1099.07 4.87583 0.107 0
M  V30 11743 H 1098.08 5.0422 -2.19185 0
M  V30 11744 H 1099.3 6.25741 -2.63865 0
M  V30 11745 H 1097.25 6.54696 -0.41339 0
M  V30 11746 H 1097.17 7.29796 -1.97316 0
M  V30 11747 H 1098.43 7.74611 -0.87167 0
M  V30 11748 N 1102.66 0.908147 1.28804 0
M  V30 11749 C 1103.91 0.534332 1.94494 0
M  V30 11750 C 1104.22 -0.92552 1.72318 0
M  V30 11751 O 1105.43 -1.40724 2.32183 0
M  V30 11752 C 1103.89 0.904748 3.48342 0
M  V30 11753 C 1103.49 2.38394 3.79305 0
M  V30 11754 C 1105.24 0.601249 4.2022 0
M  V30 11755 C 1103.15 2.69478 5.26437 0
M  V30 11756 H 1102.08 0.196107 0.728051 0
M  V30 11757 H 1104.73 1.1063 1.46401 0
M  V30 11758 H 1103.11 0.261624 3.95135 0
M  V30 11759 H 1104.28 3.07333 3.43341 0
M  V30 11760 H 1102.6 2.65733 3.20586 0
M  V30 11761 H 1105.19 0.810225 5.28526 0
M  V30 11762 H 1105.54 -0.460669 4.13743 0
M  V30 11763 H 1106.07 1.20259 3.79187 0
M  V30 11764 H 1102.81 3.74501 5.37986 0
M  V30 11765 H 1102.33 2.05171 5.63618 0
M  V30 11766 H 1104.01 2.56187 5.94119 0
M  V30 11767 N 1104.14 -1.42577 0.671525 0
M  V30 11768 C 1105.1 -2.292 0.000392482 0
M  V30 11769 C 1106.1 -1.43158 -0.732294 0
M  V30 11770 O 1107.29 -1.64583 -0.570789 0
M  V30 11771 C 1104.43 -3.25591 -1.01013 0
M  V30 11772 H 1105.62 -2.90037 0.762783 0
M  V30 11773 H 1103.17 -1.50162 0.433703 0
M  V30 11774 H 1103.91 -2.69685 -1.80112 0
M  V30 11775 H 1103.69 -3.89049 -0.488183 0
M  V30 11776 H 1105.18 -3.90561 -1.47824 0
M  V30 11777 N 1105.62 -0.414636 -1.52048 0
M  V30 11778 C 1106.57 0.422766 -2.28726 0
M  V30 11779 C 1107.56 1.04099 -1.3364 0
M  V30 11780 O 1108.77 0.978559 -1.51077 0
M  V30 11781 H 1105.14 0.155123 -0.735827 0
M  V30 11782 H 1107.11 -0.245091 -2.97392 0
M  V30 11783 C 1105.86 1.52418 -3.12513 0
M  V30 11784 H 1105.18 1.05781 -3.85552 0
M  V30 11785 H 1106.62 2.08382 -3.6926 0
M  V30 11786 C 1105.08 2.49465 -2.26426 0
M  V30 11787 O 1105.61 3.53479 -1.90829 0
M  V30 11788 N 1103.82 2.19806 -1.90088 0
M  V30 11789 H 1103.37 1.35253 -2.19236 0
M  V30 11790 H 1103.32 2.84984 -1.32783 0
M  V30 11791 N 1107.1 1.56929 -0.145233 0
M  V30 11792 C 1108.01 2.20238 0.808219 0
M  V30 11793 C 1109.02 1.18615 1.27304 0
M  V30 11794 O 1110.2 1.51186 1.3306 0
M  V30 11795 C 1107.26 2.81016 2.03055 0
M  V30 11796 C 1106.32 3.97759 1.61512 0
M  V30 11797 C 1105.56 4.55628 2.77918 0
M  V30 11798 O 1105.78 4.12378 3.94082 0
M  V30 11799 O 1104.71 5.45917 2.53492 0
M  V30 11800 H 1108.54 3.02221 0.299314 0
M  V30 11801 H 1106.13 1.49176 0.0817051 0
M  V30 11802 H 1108.01 3.19652 2.74592 0
M  V30 11803 H 1106.68 2.02047 2.52901 0
M  V30 11804 H 1105.59 3.63842 0.870033 0
M  V30 11805 H 1106.92 4.78242 1.16383 0
M  V30 11806 N 1108.58 -0.128553 1.57075 0
M  V30 11807 C 1109.51 -1.15953 2.02675 0
M  V30 11808 C 1110.49 -1.43743 0.909501 0
M  V30 11809 O 1111.67 -1.54348 1.17857 0
M  V30 11810 C 1108.8 -2.48813 2.423 0
M  V30 11811 C 1107.76 -2.35506 3.57381 0
M  V30 11812 C 1107.08 -3.73243 3.82875 0
M  V30 11813 C 1108.38 -1.82359 4.89431 0
M  V30 11814 H 1110.08 -0.780283 2.89054 0
M  V30 11815 H 1107.62 -0.373896 1.39061 0
M  V30 11816 H 1109.57 -3.21179 2.72804 0
M  V30 11817 H 1108.3 -2.88609 1.52881 0
M  V30 11818 H 1106.96 -1.6559 3.27071 0
M  V30 11819 H 1106.61 -4.10507 2.90677 0
M  V30 11820 H 1106.31 -3.65195 4.60333 0
M  V30 11821 H 1107.83 -4.47128 4.15823 0
M  V30 11822 H 1109.24 -2.44533 5.18533 0
M  V30 11823 H 1107.64 -1.85156 5.70822 0
M  V30 11824 H 1108.71 -0.780478 4.78578 0
M  V30 11825 N 1110.05 -1.5248 -0.398459 0
M  V30 11826 C 1111 -1.76585 -1.48615 0
M  V30 11827 C 1111.97 -0.608677 -1.54546 0
M  V30 11828 O 1113.16 -0.847383 -1.7095 0
M  V30 11829 C 1110.3 -1.93201 -2.8595 0
M  V30 11830 C 1109.41 -3.20875 -2.89246 0
M  V30 11831 C 1108.54 -3.27862 -4.17947 0
M  V30 11832 C 1107.58 -4.49697 -4.15258 0
M  V30 11833 N 1106.72 -4.54017 -5.35549 0
M  V30 11834 H 1111.56 -2.69412 -1.27362 0
M  V30 11835 H 1109.1 -1.33487 -0.618031 0
M  V30 11836 H 1111.05 -2.00819 -3.65688 0
M  V30 11837 H 1109.68 -1.03743 -3.05675 0
M  V30 11838 H 1108.74 -3.22376 -2.01935 0
M  V30 11839 H 1110.05 -4.1066 -2.83125 0
M  V30 11840 H 1109.2 -3.34611 -5.06083 0
M  V30 11841 H 1107.94 -2.36035 -4.26777 0
M  V30 11842 H 1106.95 -4.43083 -3.25511 0
M  V30 11843 H 1108.17 -5.42831 -4.08059 0
M  V30 11844 H 1106.12 -3.65078 -5.45027 0
M  V30 11845 H 1106.03 -5.37661 -5.31466 0
M  V30 11846 H 1107.3 -4.65009 -6.25609 0
M  V30 11847 N 1111.53 0.65634 -1.43283 0
M  V30 11848 C 1112.46 1.78101 -1.51004 0
M  V30 11849 C 1113.44 1.66138 -0.36498 0
M  V30 11850 O 1114.63 1.85281 -0.581778 0
M  V30 11851 C 1111.76 3.16511 -1.42961 0
M  V30 11852 C 1110.71 3.43233 -2.55685 0
M  V30 11853 C 1110.04 4.81411 -2.32696 0
M  V30 11854 C 1111.34 3.38288 -3.97943 0
M  V30 11855 H 1113.03 1.71896 -2.45137 0
M  V30 11856 H 1110.58 0.825575 -1.17984 0
M  V30 11857 H 1112.53 3.94941 -1.46968 0
M  V30 11858 H 1111.25 3.23439 -0.45332 0
M  V30 11859 H 1109.91 2.67173 -2.51026 0
M  V30 11860 H 1109.56 4.85011 -1.33317 0
M  V30 11861 H 1109.26 5.00251 -3.08257 0
M  V30 11862 H 1110.79 5.62102 -2.38481 0
M  V30 11863 H 1112.2 4.06659 -4.04106 0
M  V30 11864 H 1110.6 3.68664 -4.73505 0
M  V30 11865 H 1111.67 2.36525 -4.23301 0
M  V30 11866 O 1113.05 1.40333 0.799307 0
M  V30 11867 H 1113.74 1.29035 1.44464 0
M  V30 END ATOM
M  V30 BEGIN BOND
M  V30 END BOND
M  V30 END CTAB
M  END
$$$$
