drugbank_target|P27505 Pyrroloquinoline-quinone synthase (DB03205)
 OpenBabel12092120273D

  0  0  0     0  0            999 V3000
M  V30 BEGIN CTAB
M  V30 COUNTS 4024 4082 0 0 0
M  V30 BEGIN ATOM
M  V30 1 H -0.908 1.98254 -0.117106 0
M  V30 2 N 0 1.576 0 0
M  V30 3 C 0.933 2.03868 1.02534 0
M  V30 4 C 1.911 0.928543 1.3348 0
M  V30 5 O 3.095 1.19667 1.45644 0
M  V30 6 C 0.222 2.43627 2.35294 0
M  V30 7 C -0.732 3.65373 2.2001 0
M  V30 8 S 0.101 5.13292 1.52614 0
M  V30 9 C 1.257 5.56322 2.86805 0
M  V30 10 H 1.49 2.90518 0.631377 0
M  V30 11 H -0.977 1.52953 0.210867 0
M  V30 12 H 0.981 2.67203 3.11629 0
M  V30 13 H -0.358 1.57376 2.7183 0
M  V30 14 H -1.165 3.90944 3.18086 0
M  V30 15 H -1.563 3.418 1.51819 0
M  V30 16 H 0.729 5.58782 3.83104 0
M  V30 17 H 1.672 6.56266 2.65933 0
M  V30 18 H 2.08 4.83886 2.90714 0
M  V30 19 N 1.4781 -0.272755 1.55222 0
M  V30 20 C 2.4081 -1.34136 1.91127 0
M  V30 21 C 3.3891 -1.51513 0.773168 0
M  V30 22 O 4.5741 -1.64552 1.03132 0
M  V30 23 C 1.7041 -2.70083 2.1834 0
M  V30 24 C 0.6581 -2.67437 3.34158 0
M  V30 25 C -0.0159 -4.06938 3.46851 0
M  V30 26 C 1.2841 -2.26686 4.70543 0
M  V30 27 H 2.9781 -1.04333 2.80633 0
M  V30 28 H 0.5241 -0.500454 1.35024 0
M  V30 29 H 2.4771 -3.44952 2.42046 0
M  V30 30 H 1.2011 -3.01469 1.25634 0
M  V30 31 H -0.1399 -1.95026 3.1042 0
M  V30 32 H -0.4919 -4.35547 2.51611 0
M  V30 33 H -0.7919 -4.06062 4.2472 0
M  V30 34 H 0.7321 -4.83545 3.72849 0
M  V30 35 H 2.1461 -2.91277 4.93792 0
M  V30 36 H 0.5431 -2.36971 5.5133 0
M  V30 37 H 1.6131 -1.21818 4.69349 0
M  V30 38 N 2.9562 -1.48159 -0.537278 0
M  V30 39 C 4.2052 -1.5506 -1.28993 0
M  V30 40 C 4.5182 -0.226211 -1.94288 0
M  V30 41 O 5.7242 -0.173395 -2.70946 0
M  V30 42 C 4.1802 -2.73429 -2.34018 0
M  V30 43 C 3.7882 -4.1248 -1.74825 0
M  V30 44 C 5.5322 -2.89638 -3.10339 0
M  V30 45 C 3.4392 -5.22121 -2.77747 0
M  V30 46 H 2.3692 -0.577231 -0.485098 0
M  V30 47 H 5.0202 -1.74478 -0.568317 0
M  V30 48 H 3.4022 -2.47431 -3.09182 0
M  V30 49 H 4.5762 -4.48466 -1.05899 0
M  V30 50 H 2.8912 -4.01327 -1.11022 0
M  V30 51 H 5.4882 -3.68718 -3.87235 0
M  V30 52 H 5.8312 -1.9882 -3.65754 0
M  V30 53 H 6.3642 -3.15502 -2.42288 0
M  V30 54 H 3.1032 -6.1488 -2.27161 0
M  V30 55 H 2.6232 -4.90631 -3.45024 0
M  V30 56 H 4.3022 -5.49924 -3.4087 0
M  V30 57 N 4.4343 0.785586 -1.36625 0
M  V30 58 C 5.6623 1.57448 -1.3423 0
M  V30 59 C 6.0773 1.88649 0.0755653 0
M  V30 60 O 5.4343 1.50414 1.03354 0
M  V30 61 C 5.4853 2.89316 -2.16745 0
M  V30 62 O 5.2063 2.59459 -3.53005 0
M  V30 63 C 6.7073 3.83606 -2.22174 0
M  V30 64 H 3.9273 0.488226 -0.4603 0
M  V30 65 H 6.4713 0.974733 -1.79775 0
M  V30 66 H 4.6263 3.4575 -1.74745 0
M  V30 67 H 5.0403 3.43804 -3.96105 0
M  V30 68 H 6.5143 4.73181 -2.8426 0
M  V30 69 H 6.9913 4.21734 -1.22627 0
M  V30 70 H 7.5973 3.33104 -2.64427 0
M  V30 71 N 5.9124 1.20967 1.01018 0
M  V30 72 C 7.1894 0.93264 1.71934 0
M  V30 73 C 7.5694 -0.55692 2.03621 0
M  V30 74 O 6.9174 -1.52035 1.7058 0
M  V30 75 C 7.1274 1.81233 2.98254 0
M  V30 76 C 8.4754 2.05804 3.71389 0
M  V30 77 O 9.4994 1.78539 3.08225 0
M  V30 78 O 8.3584 2.51888 4.84989 0
M  V30 79 H 5.4524 0.349272 0.749625 0
M  V30 80 H 7.9984 1.31871 1.06808 0
M  V30 81 H 6.7704 2.82067 2.71208 0
M  V30 82 H 6.3934 1.42674 3.7112 0
M  V30 83 N 7.3905 -1.2043 1.01659 0
M  V30 84 C 8.6185 -1.93777 0.725132 0
M  V30 85 C 9.0335 -1.74772 -0.714166 0
M  V30 86 O 8.3905 -1.06169 -1.4844 0
M  V30 87 C 8.4415 -3.45876 1.05129 0
M  V30 88 O 8.1625 -3.6426 2.43406 0
M  V30 89 C 9.6635 -4.36368 0.780891 0
M  V30 90 H 6.8835 -0.615901 0.266284 0
M  V30 91 H 9.4275 -1.52922 1.35776 0
M  V30 92 H 7.5825 -3.8461 0.464065 0
M  V30 93 H 7.9965 -4.58246 2.55169 0
M  V30 94 H 9.4705 -5.41743 1.05918 0
M  V30 95 H 9.9475 -4.38275 -0.284937 0
M  V30 96 H 10.5535 -4.03296 1.35027 0
M  V30 97 N 8.8686 -0.792821 -1.36206 0
M  V30 98 C 9.7986 -0.207853 -2.32573 0
M  V30 99 C 10.7796 0.659055 -1.56813 0
M  V30 100 O 11.9646 0.592176 -1.84951 0
M  V30 101 C 9.0946 0.655449 -3.41059 0
M  V30 102 C 8.0486 -0.111842 -4.27854 0
M  V30 103 C 7.3746 0.872274 -5.27537 0
M  V30 104 C 8.6746 -1.30299 -5.05786 0
M  V30 105 H 10.3686 -1.01294 -2.81744 0
M  V30 106 H 7.9146 -0.48854 -1.3546 0
M  V30 107 H 9.8676 1.07464 -4.07467 0
M  V30 108 H 8.5916 1.49328 -2.90463 0
M  V30 109 H 7.2506 -0.512053 -3.63006 0
M  V30 110 H 6.8986 1.70523 -4.73214 0
M  V30 111 H 6.5986 0.363291 -5.86476 0
M  V30 112 H 8.1226 1.28996 -5.96818 0
M  V30 113 H 9.5366 -0.959379 -5.65216 0
M  V30 114 H 7.9336 -1.7455 -5.74154 0
M  V30 115 H 9.0036 -2.09663 -4.37229 0
M  V30 116 N 10.3467 1.47872 -0.545128 0
M  V30 117 C 11.5717 2.07391 -0.0190611 0
M  V30 118 C 11.9967 1.39688 1.25971 0
M  V30 119 O 11.3547 0.467816 1.7516 0
M  V30 120 C 11.4027 3.60188 0.172335 0
M  V30 121 O 10.5067 3.9339 1.23766 0
M  V30 122 H 9.8477 0.662411 -0.0459059 0
M  V30 123 H 12.3777 1.90066 -0.757365 0
M  V30 124 H 12.3877 4.06129 0.390305 0
M  V30 125 H 11.0627 4.08865 -0.761725 0
M  V30 126 H 9.6397 3.5921 1.00114 0
M  V30 127 N 11.8248 0.280983 1.55075 0
M  V30 128 C 13.2358 -0.215629 1.85451 0
M  V30 129 C 13.5868 -1.54991 1.203 0
M  V30 130 O 12.7118 -2.10699 0.493435 0
M  V30 131 C 13.3068 -0.398026 3.36454 0
M  V30 132 C 11.8658 -0.838866 3.66933 0
M  V30 133 C 11.0128 0.064458 2.77225 0
M  V30 134 H 13.9638 0.502601 1.50531 0
M  V30 135 H 13.9848 -1.23569 3.59876 0
M  V30 136 H 13.4968 0.573241 3.83843 0
M  V30 137 H 11.5978 -1.8214 3.25048 0
M  V30 138 H 11.7108 -0.672123 4.74362 0
M  V30 139 H 10.0748 -0.452863 2.50642 0
M  V30 140 H 10.8578 1.03172 3.2743 0
M  V30 141 N 13.3029 -1.57598 0.00835791 0
M  V30 142 C 14.2349 -2.05811 -1.00868 0
M  V30 143 C 15.2479 -0.977579 -1.30182 0
M  V30 144 O 16.4369 -1.25421 -1.27011 0
M  V30 145 C 13.5369 -2.45016 -2.34137 0
M  V30 146 C 12.7099 -3.75903 -2.23643 0
M  V30 147 C 11.7689 -4.01884 -3.3967 0
M  V30 148 O 10.7949 -4.72433 -3.17483 0
M  V30 149 N 11.9969 -3.50432 -4.62793 0
M  V30 150 H 14.7619 -2.93684 -0.597458 0
M  V30 151 H 12.3229 -1.60909 -0.178852 0
M  V30 152 H 14.3149 -2.59506 -3.10546 0
M  V30 153 H 12.8849 -1.62618 -2.66972 0
M  V30 154 H 12.1049 -3.7141 -1.32091 0
M  V30 155 H 13.3929 -4.61695 -2.13812 0
M  V30 156 H 12.7909 -2.93317 -4.83716 0
M  V30 157 H 11.3479 -3.70236 -5.3644 0
M  V30 158 N 14.781 0.264519 -1.55364 0
M  V30 159 C 15.744 1.31046 -1.88042 0
M  V30 160 C 16.744 1.41943 -0.755569 0
M  V30 161 O 17.934 1.40947 -1.02369 0
M  V30 162 C 15.066 2.69067 -2.09323 0
M  V30 163 H 16.259 1.03297 -2.81549 0
M  V30 164 H 13.812 0.502989 -1.47986 0
M  V30 165 H 14.547 3.01982 -1.18226 0
M  V30 166 H 14.332 2.62542 -2.91229 0
M  V30 167 H 15.822 3.44623 -2.35848 0
M  V30 168 N 16.2591 1.48442 0.529413 0
M  V30 169 C 17.5061 1.56488 1.28521 0
M  V30 170 C 17.8341 0.239042 1.93025 0
M  V30 171 O 17.0891 -0.770713 1.79885 0
M  V30 172 C 17.3881 2.6523 2.39558 0
M  V30 173 C 17.0541 4.07648 1.92702 0
M  V30 174 C 15.7161 4.46411 1.79641 0
M  V30 175 C 18.0681 4.96896 1.573 0
M  V30 176 C 15.3961 5.72226 1.29514 0
M  V30 177 C 17.7481 6.23202 1.08636 0
M  V30 178 C 16.4121 6.60821 0.941919 0
M  V30 179 H 15.6821 0.572631 0.470292 0
M  V30 180 H 18.3291 1.82161 0.59072 0
M  V30 181 H 16.6341 2.33419 3.14679 0
M  V30 182 H 18.3311 2.68671 2.97686 0
M  V30 183 H 14.9211 3.77036 2.03819 0
M  V30 184 H 19.1051 4.67626 1.66251 0
M  V30 185 H 14.3611 6.00097 1.17019 0
M  V30 186 H 18.5351 6.91753 0.803136 0
M  V30 187 H 16.1621 7.58198 0.5513 0
M  V30 188 N 17.7372 -0.778329 1.37039 0
M  V30 189 C 18.6472 -1.92253 1.34446 0
M  V30 190 C 19.6632 -1.72267 0.244991 0
M  V30 191 O 20.8392 -1.95615 0.479258 0
M  V30 192 C 17.9042 -3.27282 1.144 0
M  V30 193 C 16.9652 -3.59969 2.33925 0
M  V30 194 C 16.1982 -4.88555 2.14825 0
M  V30 195 O 16.4212 -5.59113 1.12912 0
M  V30 196 O 15.3552 -5.20153 3.02861 0
M  V30 197 H 19.1812 -1.97392 2.30803 0
M  V30 198 H 16.7662 -0.920154 1.17701 0
M  V30 199 H 18.6482 -4.08062 1.05182 0
M  V30 200 H 17.3232 -3.23011 0.211124 0
M  V30 201 H 16.2302 -2.7945 2.48714 0
M  V30 202 H 17.5632 -3.68976 3.25757 0
M  V30 203 N 19.2153 -1.21501 -1.00376 0
M  V30 204 C 20.1253 -0.991447 -2.12621 0
M  V30 205 C 21.1413 0.0568446 -1.73907 0
M  V30 206 O 22.3173 -0.13348 -2.00957 0
M  V30 207 C 19.3823 -0.560312 -3.42142 0
M  V30 208 C 18.4433 -1.68096 -3.95022 0
M  V30 209 C 17.6763 -1.2703 -5.18362 0
M  V30 210 O 17.8993 -0.144438 -5.70217 0
M  V30 211 O 16.8333 -2.08269 -5.64719 0
M  V30 212 H 20.6593 -1.93158 -2.34358 0
M  V30 213 H 18.2443 -0.999999 -1.10997 0
M  V30 214 H 20.1263 -0.329724 -4.20108 0
M  V30 215 H 18.8013 0.351089 -3.2179 0
M  V30 216 H 17.7083 -1.96597 -3.18278 0
M  V30 217 H 19.0413 -2.56983 -4.19786 0
M  V30 218 N 20.6934 1.19889 -1.02296 0
M  V30 219 C 21.6564 2.21116 -0.603351 0
M  V30 220 C 22.6564 1.5738 0.329884 0
M  V30 221 O 23.8464 1.73802 0.117702 0
M  V30 222 C 20.9784 3.40696 0.117992 0
M  V30 223 H 22.1714 2.59754 -1.49893 0
M  V30 224 H 19.7244 1.33463 -0.813468 0
M  V30 225 H 20.4594 3.07569 1.0282 0
M  V30 226 H 20.2444 3.88188 -0.552511 0
M  V30 227 H 21.7344 4.15692 0.398696 0
M  V30 228 N 22.1715 0.800033 1.35784 0
M  V30 229 C 23.1015 0.220184 2.3246 0
M  V30 230 C 24.0825 -0.65073 1.57161 0
M  V30 231 O 25.2675 -0.582359 1.85263 0
M  V30 232 C 22.3975 -0.637353 3.41402 0
M  V30 233 C 21.3515 0.134531 4.27789 0
M  V30 234 C 20.6775 -0.844285 5.27992 0
M  V30 235 C 21.9775 1.32979 5.05088 0
M  V30 236 H 23.6715 1.02787 2.81203 0
M  V30 237 H 21.2175 0.495717 1.35199 0
M  V30 238 H 23.1705 -1.05302 4.08031 0
M  V30 239 H 21.8945 -1.47785 2.91251 0
M  V30 240 H 20.5535 0.531296 3.6273 0
M  V30 241 H 20.2015 -1.68011 4.74111 0
M  V30 242 H 19.9015 -0.332184 5.8666 0
M  V30 243 H 21.4255 -1.2583 5.97494 0
M  V30 244 H 22.8395 0.98934 5.64699 0
M  V30 245 H 21.2365 1.77593 5.7322 0
M  V30 246 H 22.3065 2.11978 4.36111 0
M  V30 247 N 23.6496 -1.47581 0.552962 0
M  V30 248 C 25.0656 -1.5818 0.212424 0
M  V30 249 C 25.2656 -1.55213 -1.28496 0
M  V30 250 O 24.3216 -1.45329 -2.06484 0
M  V30 251 C 25.6346 -2.88865 0.835318 0
M  V30 252 C 27.1826 -3.0244 0.806156 0
M  V30 253 C 27.6576 -4.35819 1.40804 0
M  V30 254 N 29.1486 -4.42444 1.37103 0
M  V30 255 C 29.8836 -5.44202 1.80641 0
M  V30 256 N 29.3796 -6.52795 2.32015 0
M  V30 257 N 31.1726 -5.35222 1.71738 0
M  V30 258 H 23.3236 -1.47753 1.52587 0
M  V30 259 H 25.5866 -0.702941 0.636064 0
M  V30 260 H 25.2926 -2.9676 1.88749 0
M  V30 261 H 25.1666 -3.7579 0.325848 0
M  V30 262 H 27.5536 -2.94144 -0.237317 0
M  V30 263 H 27.6346 -2.17068 1.35334 0
M  V30 264 H 27.2786 -4.44871 2.45056 0
M  V30 265 H 27.2086 -5.19916 0.836338 0
M  V30 266 H 29.6996 -3.6456 0.995202 0
M  V30 267 H 30.0126 -7.26609 2.63171 0
M  V30 268 H 28.3576 -6.53696 2.36023 0
M  V30 269 H 31.5486 -4.49284 1.31382 0
M  V30 270 H 31.7216 -6.14389 2.05987 0
M  V30 271 N 25.1277 -0.289203 -1.54924 0
M  V30 272 C 26.0907 0.579144 -2.21762 0
M  V30 273 C 27.0907 1.07047 -1.1999 0
M  V30 274 O 28.2807 0.968384 -1.44803 0
M  V30 275 C 25.4127 1.80055 -2.8947 0
M  V30 276 H 26.6057 -0.00464908 -2.999 0
M  V30 277 H 24.1587 -0.0399306 -1.56249 0
M  V30 278 H 24.8937 2.42449 -2.15381 0
M  V30 279 H 24.6787 1.45602 -3.64064 0
M  V30 280 H 26.1687 2.41773 -3.40493 0
M  V30 281 N 26.6058 1.57591 -0.0167156 0
M  V30 282 C 27.5528 2.09462 0.969251 0
M  V30 283 C 28.5228 0.99381 1.33089 0
M  V30 284 O 29.7078 1.26726 1.42636 0
M  V30 285 C 26.8478 2.61622 2.25051 0
M  V30 286 C 25.9608 3.85666 1.94642 0
M  V30 287 C 25.0958 4.26266 3.16972 0
M  V30 288 C 24.1348 5.43101 2.82326 0
M  V30 289 N 23.2718 5.78915 3.97243 0
M  V30 290 H 28.1118 2.93428 0.519997 0
M  V30 291 H 25.6488 1.45044 0.245087 0
M  V30 292 H 27.6068 2.89949 2.99976 0
M  V30 293 H 26.2368 1.80505 2.67615 0
M  V30 294 H 25.2888 3.64145 1.10013 0
M  V30 295 H 26.6008 4.70678 1.65117 0
M  V30 296 H 25.7548 4.55963 4.00228 0
M  V30 297 H 24.4938 3.39996 3.49648 0
M  V30 298 H 23.4988 5.1311 1.97479 0
M  V30 299 H 24.7238 6.3106 2.50879 0
M  V30 300 H 22.6698 4.95602 4.29785 0
M  V30 301 H 22.5868 6.58539 3.71299 0
M  V30 302 H 23.8548 6.13212 4.81239 0
M  V30 303 N 28.0839 -0.256276 1.55502 0
M  V30 304 C 29.3319 -0.983672 1.76545 0
M  V30 305 C 29.6529 -1.86206 0.578982 0
M  V30 306 O 28.9229 -1.91656 -0.405577 0
M  V30 307 H 27.5029 -0.366191 0.651086 0
M  V30 308 H 30.1649 -0.276479 1.92929 0
M  V30 309 H 29.2609 -1.61087 2.67315 0
M  V30 310 N 29.562 -1.4872 -0.521534 0
M  V30 311 C 30.525 -1.63379 -1.60748 0
M  V30 312 C 31.525 -0.50661 -1.52611 0
M  V30 313 O 32.715 -0.772601 -1.5613 0
M  V30 314 C 29.847 -1.61192 -3.00383 0
M  V30 315 H 31.04 -2.60217 -1.49087 0
M  V30 316 H 28.593 -1.37444 -0.744235 0
M  V30 317 H 29.328 -0.65863 -3.17541 0
M  V30 318 H 29.113 -2.43032 -3.07698 0
M  V30 319 H 30.603 -1.7466 -3.7932 0
M  V30 320 N 31.0401 0.771051 -1.3745 0
M  V30 321 C 32.2871 1.52963 -1.32697 0
M  V30 322 C 32.6151 1.94299 0.0883274 0
M  V30 323 O 31.8701 1.64397 1.0617 0
M  V30 324 C 32.1691 2.80676 -2.2126 0
M  V30 325 C 31.8351 2.58389 -3.69521 0
M  V30 326 C 30.4971 2.52019 -4.09927 0
M  V30 327 C 32.8491 2.38469 -4.63446 0
M  V30 328 C 30.1771 2.23721 -5.42371 0
M  V30 329 C 32.5291 2.11694 -5.96128 0
M  V30 330 C 31.1931 2.03769 -6.35637 0
M  V30 331 H 30.4631 0.559732 -0.485573 0
M  V30 332 H 33.1101 0.888083 -1.69662 0
M  V30 333 H 31.4151 3.49392 -1.77291 0
M  V30 334 H 33.1121 3.38557 -2.14895 0
M  V30 335 H 29.7021 2.6421 -3.37478 0
M  V30 336 H 33.8861 2.4238 -4.33089 0
M  V30 337 H 29.1421 2.16081 -5.71943 0
M  V30 338 H 33.3161 1.9528 -6.6846 0
M  V30 339 H 30.9431 1.81606 -7.38189 0
M  V30 340 N 32.5182 1.22032 0.997298 0
M  V30 341 C 33.7482 1.06686 1.76923 0
M  V30 342 C 34.1562 -0.385838 1.85224 0
M  V30 343 O 33.4992 -1.27929 1.31833 0
M  V30 344 C 33.5612 1.59802 3.22031 0
M  V30 345 C 33.2252 3.08362 3.37286 0
M  V30 346 C 34.2222 4.05835 3.24952 0
M  V30 347 C 31.9072 3.47727 3.6248 0
M  V30 348 C 33.9012 5.4066 3.37588 0
M  V30 349 C 31.5882 4.82701 3.74757 0
M  V30 350 C 32.5862 5.78977 3.62319 0
M  V30 351 O 32.2742 7.11502 3.74193 0
M  V30 352 H 32.0062 0.374767 0.562606 0
M  V30 353 H 34.5602 1.61991 1.26286 0
M  V30 354 H 32.7902 0.989003 3.73839 0
M  V30 355 H 34.4792 1.40184 3.80924 0
M  V30 356 H 35.2452 3.76766 3.05405 0
M  V30 357 H 31.1242 2.73317 3.7124 0
M  V30 358 H 34.6682 6.15788 3.27796 0
M  V30 359 H 30.5652 5.11453 3.9381 0
M  V30 360 H 31.3332 7.19019 3.91093 0
M  V30 361 N 33.9963 -1.19345 1.0293 0
M  V30 362 C 34.9463 -2.20472 0.58104 0
M  V30 363 C 35.9303 -1.56578 -0.370442 0
M  V30 364 O 37.1223 -1.75963 -0.191344 0
M  V30 365 C 34.2513 -3.43236 -0.066306 0
M  V30 366 C 33.3373 -4.14274 0.907642 0
M  V30 367 N 33.7283 -4.61492 2.07023 0
M  V30 368 C 32.0263 -4.39966 0.731177 0
M  V30 369 C 32.7273 -5.1605 2.68454 0
M  V30 370 N 31.7033 -5.06875 1.96414 0
M  V30 371 H 35.5053 -2.54659 1.46717 0
M  V30 372 H 33.0193 -1.35423 0.896345 0
M  V30 373 H 35.0163 -4.14927 -0.405068 0
M  V30 374 H 33.6763 -3.10549 -0.948118 0
M  V30 375 H 34.6873 -4.56304 2.44963 0
M  V30 376 H 31.3643 -4.17377 -0.101507 0
M  V30 377 H 32.7543 -5.6287 3.66915 0
M  V30 378 N 35.4744 -0.807222 -1.35358 0
M  V30 379 C 36.7234 -0.384376 -1.98004 0
M  V30 380 C 37.0364 1.0543 -1.64754 0
M  V30 381 O 38.2424 1.58029 -2.20769 0
M  V30 382 C 36.6984 -0.636326 -3.5423 0
M  V30 383 C 36.3064 -2.08759 -3.96388 0
M  V30 384 C 38.0504 -0.278869 -4.23583 0
M  V30 385 C 35.9574 -2.28525 -5.45463 0
M  V30 386 H 34.8874 -0.139986 -0.740891 0
M  V30 387 H 37.5384 -0.991369 -1.54415 0
M  V30 388 H 35.9204 0.0406256 -3.95979 0
M  V30 389 H 37.0944 -2.8024 -3.6579 0
M  V30 390 H 35.4094 -2.40497 -3.39926 0
M  V30 391 H 38.0064 -0.404599 -5.33167 0
M  V30 392 H 38.3494 0.775012 -4.09022 0
M  V30 393 H 38.8824 -0.909764 -3.87257 0
M  V30 394 H 35.6214 -3.32361 -5.64992 0
M  V30 395 H 35.1414 -1.61569 -5.77629 0
M  V30 396 H 36.8204 -2.10109 -6.11934 0
M  V30 397 N 36.9525 1.47285 -0.560781 0
M  V30 398 C 37.9025 2.27073 0.205384 0
M  V30 399 C 38.8865 1.34569 0.882044 0
M  V30 400 O 40.0785 1.58899 0.77976 0
M  V30 401 C 37.2075 3.20414 1.23247 0
M  V30 402 C 36.2935 4.20399 0.559041 0
M  V30 403 N 36.6845 5.04423 -0.372927 0
M  V30 404 C 34.9825 4.38536 0.812522 0
M  V30 405 C 35.6835 5.76655 -0.764446 0
M  V30 406 N 34.6595 5.43471 -0.11848 0
M  V30 407 H 38.4615 2.89422 -0.511117 0
M  V30 408 H 35.9755 1.57868 -0.380975 0
M  V30 409 H 37.9725 3.76262 1.79534 0
M  V30 410 H 36.6325 2.59623 1.95002 0
M  V30 411 H 37.6435 5.1248 -0.747287 0
M  V30 412 H 34.3205 3.88913 1.51832 0
M  V30 413 H 35.7105 6.54238 -1.53045 0
M  V30 414 N 38.4306 0.297415 1.54768 0
M  V30 415 C 39.3806 -0.595275 2.20092 0
M  V30 416 C 40.3646 -1.10163 1.17273 0
M  V30 417 O 41.5566 -1.043 1.43006 0
M  V30 418 C 38.6856 -1.7684 2.94249 0
M  V30 419 C 37.7716 -1.27818 4.0438 0
M  V30 420 N 38.1626 -0.505695 5.03266 0
M  V30 421 C 36.4606 -1.55923 4.17857 0
M  V30 422 C 37.1616 -0.245094 5.81183 0
M  V30 423 N 36.1376 -0.823881 5.3732 0
M  V30 424 H 39.9396 0.00250837 2.939 0
M  V30 425 H 37.4536 0.102007 1.62079 0
M  V30 426 H 39.4506 -2.41944 3.39513 0
M  V30 427 H 38.1106 -2.36992 2.21957 0
M  V30 428 H 39.1216 -0.150928 5.1768 0
M  V30 429 H 35.7986 -2.16849 3.56767 0
M  V30 430 H 37.1886 0.375084 6.70852 0
M  V30 431 N 39.9087 -1.5758 0.0250728 0
M  V30 432 C 41.3197 -1.79476 -0.514323 0
M  V30 433 C 41.6707 -0.934956 -1.72491 0
M  V30 434 O 40.7957 -0.144245 -2.15919 0
M  V30 435 C 41.3907 -3.25503 -0.939842 0
M  V30 436 C 39.9497 -3.48408 -1.42438 0
M  V30 437 C 39.0967 -2.74583 -0.387201 0
M  V30 438 H 42.0477 -1.567 0.25113 0
M  V30 439 H 42.0687 -3.34992 -1.80445 0
M  V30 440 H 41.5807 -3.88056 -0.0585628 0
M  V30 441 H 39.6817 -2.91103 -2.32572 0
M  V30 442 H 39.7947 -4.57119 -1.43455 0
M  V30 443 H 38.1587 -2.39942 -0.854409 0
M  V30 444 H 38.9417 -3.39849 0.485543 0
M  V30 445 N 41.3868 0.248026 -1.55636 0
M  V30 446 C 42.6168 0.992367 -1.81206 0
M  V30 447 C 43.0248 1.7949 -0.598324 0
M  V30 448 O 42.3678 1.78292 0.442434 0
M  V30 449 C 42.4298 1.97926 -3.00109 0
M  V30 450 C 42.0938 1.36377 -4.36177 0
M  V30 451 C 43.0908 0.76682 -5.14214 0
M  V30 452 C 40.7758 1.38347 -4.82872 0
M  V30 453 C 42.7698 0.197778 -6.37093 0
M  V30 454 C 40.4568 0.810574 -6.057 0
M  V30 455 C 41.4548 0.218754 -6.8265 0
M  V30 456 O 41.1428 -0.345298 -8.03158 0
M  V30 457 H 40.8748 0.297704 -0.606917 0
M  V30 458 H 43.4288 0.276517 -2.0353 0
M  V30 459 H 41.6588 2.73339 -2.73538 0
M  V30 460 H 43.3478 2.58694 -3.12781 0
M  V30 461 H 44.1138 0.744114 -4.79258 0
M  V30 462 H 39.9928 1.8335 -4.2297 0
M  V30 463 H 43.5368 -0.264788 -6.97097 0
M  V30 464 H 39.4338 0.830604 -6.40134 0
M  V30 465 H 40.2018 -0.237055 -8.18157 0
M  V30 466 N 42.8649 1.48995 0.513639 0
M  V30 467 C 43.8149 1.61127 1.61314 0
M  V30 468 C 44.7989 0.467521 1.53958 0
M  V30 469 O 45.9909 0.719826 1.61702 0
M  V30 470 C 43.1199 1.66937 2.99978 0
M  V30 471 C 42.2059 2.86847 3.12377 0
M  V30 472 N 42.5969 4.11078 2.94701 0
M  V30 473 C 40.8949 2.84521 3.43459 0
M  V30 474 C 41.5959 4.91615 3.10949 0
M  V30 475 N 40.5719 4.24739 3.3926 0
M  V30 476 H 44.3739 2.54909 1.46282 0
M  V30 477 H 41.8879 1.45593 0.719483 0
M  V30 478 H 43.8849 1.73725 3.78979 0
M  V30 479 H 42.5449 0.742831 3.16089 0
M  V30 480 H 43.5559 4.41258 2.71131 0
M  V30 481 H 40.2329 2.01192 3.65825 0
M  V30 482 H 41.6229 6.00264 3.01882 0
M  V30 483 N 44.343 -0.763751 1.37857 0
M  V30 484 C 45.592 -1.51789 1.32827 0
M  V30 485 C 45.905 -1.95426 -0.0823719 0
M  V30 486 O 47.111 -2.70298 -0.255172 0
M  V30 487 C 45.567 -2.74133 2.33193 0
M  V30 488 C 45.175 -2.37562 3.79827 0
M  V30 489 C 46.919 -3.52054 2.37188 0
M  V30 490 C 44.826 -3.56456 4.71904 0
M  V30 491 H 43.756 -0.569896 0.493695 0
M  V30 492 H 46.407 -0.835822 1.63359 0
M  V30 493 H 44.789 -3.4427 1.9569 0
M  V30 494 H 45.963 -1.75157 4.26212 0
M  V30 495 H 44.278 -1.72798 3.78853 0
M  V30 496 H 46.875 -4.40437 3.03182 0
M  V30 497 H 47.218 -3.92486 1.38782 0
M  V30 498 H 47.751 -2.88921 2.7344 0
M  V30 499 H 44.49 -3.21099 5.71468 0
M  V30 500 H 44.01 -4.17938 4.30218 0
M  V30 501 H 45.689 -4.23168 4.89426 0
M  V30 502 N 45.8211 -1.22559 -0.990812 0
M  V30 503 C 46.7841 -0.998863 -2.0629 0
M  V30 504 C 47.7841 0.0354834 -1.60761 0
M  V30 505 O 48.9741 -0.203231 -1.7301 0
M  V30 506 C 46.1061 -0.509203 -3.37076 0
M  V30 507 H 47.2991 -1.95014 -2.27837 0
M  V30 508 H 44.8521 -1.04456 -1.16269 0
M  V30 509 H 45.5871 0.446335 -3.21214 0
M  V30 510 H 45.3721 -1.25547 -3.71457 0
M  V30 511 H 46.8621 -0.370888 -4.1595 0
M  V30 512 N 47.2992 1.18797 -1.03562 0
M  V30 513 C 48.2322 2.2105 -0.56676 0
M  V30 514 C 49.2102 1.57704 0.395993 0
M  V30 515 O 50.3942 1.85908 0.311498 0
M  V30 516 C 47.5212 3.38259 0.172704 0
M  V30 517 C 46.5672 4.19987 -0.74252 0
M  V30 518 S 47.4002 4.87199 -2.22254 0
M  V30 519 C 48.5562 6.07813 -1.49379 0
M  V30 520 H 48.7892 2.60478 -1.43312 0
M  V30 521 H 46.3222 1.29151 -0.846133 0
M  V30 522 H 48.2802 4.06191 0.593191 0
M  V30 523 H 46.9412 2.97252 1.01488 0
M  V30 524 H 46.1342 5.03709 -0.171265 0
M  V30 525 H 45.7362 3.57408 -1.10163 0
M  V30 526 H 48.0282 6.72948 -0.784056 0
M  V30 527 H 48.9712 6.69435 -2.30786 0
M  V30 528 H 49.3792 5.55781 -0.988331 0
M  V30 529 N 48.7773 0.814389 1.34928 0
M  V30 530 C 49.7273 0.202752 2.27097 0
M  V30 531 C 50.7113 -0.62799 1.48139 0
M  V30 532 O 51.9033 -0.483969 1.70255 0
M  V30 533 C 49.0323 -0.64146 3.37254 0
M  V30 534 C 48.1183 0.19944 4.23631 0
M  V30 535 N 48.5093 1.26628 4.89693 0
M  V30 536 C 46.8073 -0.0176433 4.45997 0
M  V30 537 C 47.5083 1.78031 5.53787 0
M  V30 538 N 46.4843 1.08553 5.32651 0
M  V30 539 H 50.2863 1.01893 2.75672 0
M  V30 540 H 47.8003 0.656332 1.48546 0
M  V30 541 H 49.7973 -1.09575 4.02243 0
M  V30 542 H 48.4573 -1.4559 2.9023 0
M  V30 543 H 49.4683 1.64901 4.90946 0
M  V30 544 H 46.1453 -0.800601 4.09752 0
M  V30 545 H 47.5353 2.67236 6.16469 0
M  V30 546 N 50.2554 -1.46986 0.568584 0
M  V30 547 C 51.2034 -2.31858 -0.185649 0
M  V30 548 C 52.1974 -1.43624 -0.898249 0
M  V30 549 O 53.4034 -1.60327 -0.818242 0
M  V30 550 H 49.7784 -0.747866 -0.0787399 0
M  V30 551 H 51.7494 -2.93303 0.549191 0
M  V30 552 C 50.4984 -3.26513 -1.19519 0
M  V30 553 H 49.8214 -3.94377 -0.656285 0
M  V30 554 H 51.2614 -3.88707 -1.6936 0
M  V30 555 C 49.7204 -2.50847 -2.24894 0
M  V30 556 O 50.2504 -2.26119 -3.32014 0
M  V30 557 N 48.4564 -2.11656 -1.99124 0
M  V30 558 H 48.0034 -2.31966 -1.12024 0
M  V30 559 H 47.9614 -1.61347 -2.69842 0
M  V30 560 N 51.7335 -0.305618 -1.54608 0
M  V30 561 C 52.9815 0.301701 -1.99835 0
M  V30 562 C 53.3025 1.54054 -1.19551 0
M  V30 563 O 52.5725 1.93702 -0.292658 0
M  V30 564 H 51.1525 0.114468 -0.738178 0
M  V30 565 H 53.8145 -0.418016 -1.90364 0
M  V30 566 H 52.9105 0.570548 -3.06841 0
M  V30 567 N 53.2116 1.57565 -0.0334293 0
M  V30 568 C 54.4886 1.83282 0.683163 0
M  V30 569 C 54.8686 0.91823 1.90084 0
M  V30 570 O 54.2166 -0.025113 2.28486 0
M  V30 571 C 54.4266 3.32599 1.0573 0
M  V30 572 C 55.7746 3.99179 1.44711 0
M  V30 573 O 56.7986 3.3712 1.15015 0
M  V30 574 O 55.6576 5.08565 2.0006 0
M  V30 575 H 52.7516 0.755869 0.335546 0
M  V30 576 H 55.2976 1.69589 -0.0614402 0
M  V30 577 H 54.0696 3.90834 0.190828 0
M  V30 578 H 53.6926 3.51415 1.85993 0
M  V30 579 N 54.6897 -0.239769 1.55765 0
M  V30 580 C 55.6527 -1.28038 1.90103 0
M  V30 581 C 56.6527 -1.40723 0.778055 0
M  V30 582 O 57.8427 -1.39301 1.04599 0
M  V30 583 C 54.9747 -2.65702 2.13577 0
M  V30 584 H 56.1677 -0.988048 2.83157 0
M  V30 585 H 53.7207 -0.479382 1.48767 0
M  V30 586 H 54.4557 -3.00063 1.23015 0
M  V30 587 H 54.2407 -2.57875 2.95369 0
M  V30 588 H 55.7307 -3.40828 2.41301 0
M  V30 589 N 56.1678 -1.49265 -0.50573 0
M  V30 590 C 57.3958 -1.62215 -1.28429 0
M  V30 591 C 57.8108 -0.291697 -1.86533 0
M  V30 592 O 57.1678 0.722233 -1.67601 0
M  V30 593 C 57.2188 -2.68735 -2.41793 0
M  V30 594 O 56.9398 -3.96619 -1.86078 0
M  V30 595 C 58.4408 -2.92346 -3.3324 0
M  V30 596 H 55.6608 -0.546239 -0.389697 0
M  V30 597 H 58.2048 -1.95265 -0.607609 0
M  V30 598 H 56.3598 -2.38476 -3.053 0
M  V30 599 H 56.7738 -4.55256 -2.60465 0
M  V30 600 H 58.2478 -3.70623 -4.09075 0
M  V30 601 H 58.7248 -2.02081 -3.89948 0
M  V30 602 H 59.3308 -3.24003 -2.75503 0
M  V30 603 N 57.6459 0.756429 -1.3826 0
M  V30 604 C 59.0619 1.0591 -1.19395 0
M  V30 605 C 59.2619 2.01459 -0.0406567 0
M  V30 606 O 58.3179 2.44909 0.614467 0
M  V30 607 C 59.6309 1.64191 -2.51916 0
M  V30 608 C 61.1789 1.76376 -2.58574 0
M  V30 609 C 61.6539 2.38069 -3.91264 0
M  V30 610 N 63.1449 2.45503 -3.92788 0
M  V30 611 C 63.8799 2.94126 -4.92217 0
M  V30 612 N 63.3759 3.42805 -6.02043 0
M  V30 613 N 65.1689 2.9314 -4.7961 0
M  V30 614 H 57.3199 0.122313 -2.12048 0
M  V30 615 H 59.5829 0.116892 -0.940766 0
M  V30 616 H 59.2889 1.01451 -3.3675 0
M  V30 617 H 59.1629 2.6329 -2.70108 0
M  V30 618 H 61.5499 2.38244 -1.74137 0
M  V30 619 H 61.6309 0.759894 -2.44252 0
M  V30 620 H 61.2749 1.76835 -4.76121 0
M  V30 621 H 61.2049 3.39091 -4.02895 0
M  V30 622 H 63.6959 2.1107 -3.13461 0
M  V30 623 H 64.0089 3.78354 -6.73846 0
M  V30 624 H 62.3539 3.4087 -6.05667 0
M  V30 625 H 65.5449 2.54419 -3.92923 0
M  V30 626 H 65.7179 3.30721 -5.5725 0
M  V30 627 N 59.124 1.23083 0.984299 0
M  V30 628 C 60.071 1.00854 2.07598 0
M  V30 629 C 61.041 -0.0726709 1.65941 0
M  V30 630 O 62.226 0.0786535 1.90638 0
M  V30 631 C 59.366 0.601645 3.39815 0
M  V30 632 C 58.479 1.75456 3.94765 0
M  V30 633 C 57.614 1.29482 5.15177 0
M  V30 634 C 56.653 2.41873 5.62284 0
M  V30 635 N 55.79 1.96885 6.73929 0
M  V30 636 H 60.63 1.943 2.25946 0
M  V30 637 H 58.167 0.968001 1.10762 0
M  V30 638 H 60.125 0.346854 4.15756 0
M  V30 639 H 58.755 -0.295803 3.21442 0
M  V30 640 H 57.807 2.12346 3.15616 0
M  V30 641 H 59.119 2.59965 4.25699 0
M  V30 642 H 58.273 0.997923 5.98437 0
M  V30 643 H 57.012 0.420046 4.85888 0
M  V30 644 H 56.017 2.72342 4.77608 0
M  V30 645 H 57.242 3.29881 5.93595 0
M  V30 646 H 55.188 1.11782 6.46406 0
M  V30 647 H 55.105 2.74956 7.04227 0
M  V30 648 H 56.373 1.70289 7.60672 0
M  V30 649 N 60.6021 -1.18246 1.0419 0
M  V30 650 C 61.5341 -2.2142 0.592088 0
M  V30 651 C 62.5471 -1.59233 -0.338909 0
M  V30 652 O 63.7361 -1.78002 -0.133231 0
M  V30 653 C 60.8361 -3.38546 -0.154854 0
M  V30 654 C 60.0091 -4.3031 0.784328 0
M  V30 655 C 59.0681 -5.26138 0.0804583 0
M  V30 656 O 58.0941 -5.64738 0.711292 0
M  V30 657 N 59.2961 -5.68261 -1.18574 0
M  V30 658 H 62.0611 -2.60636 1.47949 0
M  V30 659 H 59.6221 -1.33044 0.922544 0
M  V30 660 H 61.6141 -3.99678 -0.635606 0
M  V30 661 H 60.1841 -2.98012 -0.943811 0
M  V30 662 H 59.4041 -3.66764 1.44491 0
M  V30 663 H 60.6921 -4.8852 1.42218 0
M  V30 664 H 60.0901 -5.38957 -1.71876 0
M  V30 665 H 58.6471 -6.31584 -1.61074 0
M  V30 666 N 62.0802 -0.821533 -1.34494 0
M  V30 667 C 63.3292 -0.405355 -1.97585 0
M  V30 668 C 63.6422 1.03677 -1.65863 0
M  V30 669 O 64.8482 1.55679 -2.22433 0
M  V30 670 C 63.3042 -0.673861 -3.53535 0
M  V30 671 C 62.9122 -2.12951 -3.94152 0
M  V30 672 C 64.6562 -0.32378 -4.23263 0
M  V30 673 C 62.5632 -2.34298 -5.43009 0
M  V30 674 H 61.4932 -0.147836 -0.739365 0
M  V30 675 H 64.1442 -1.00769 -1.53355 0
M  V30 676 H 62.5262 -0.00137554 -3.96 0
M  V30 677 H 63.7002 -2.84104 -3.62797 0
M  V30 678 H 62.0152 -2.44089 -3.37356 0
M  V30 679 H 64.6122 -0.461126 -5.32708 0
M  V30 680 H 64.9552 0.731586 -4.09821 0
M  V30 681 H 65.4882 -0.950786 -3.8627 0
M  V30 682 H 62.2272 -3.38335 -5.61435 0
M  V30 683 H 61.7472 -1.67687 -5.75883 0
M  V30 684 H 63.4262 -2.16588 -6.09671 0
M  V30 685 N 63.5583 1.46682 -0.576371 0
M  V30 686 C 64.4903 2.28341 0.198231 0
M  V30 687 C 65.5033 1.38141 0.861453 0
M  V30 688 O 66.6923 1.62797 0.732082 0
M  V30 689 C 63.7923 3.12986 1.29972 0
M  V30 690 C 62.9653 4.31271 0.729639 0
M  V30 691 C 62.0243 4.97363 1.71803 0
M  V30 692 O 61.0503 5.55156 1.25658 0
M  V30 693 N 62.2523 4.93796 3.05198 0
M  V30 694 H 65.0173 2.9546 -0.502324 0
M  V30 695 H 62.5783 1.56525 -0.413715 0
M  V30 696 H 64.5703 3.54066 1.96008 0
M  V30 697 H 63.1403 2.47984 1.90323 0
M  V30 698 H 62.3603 3.94052 -0.108012 0
M  V30 699 H 63.6483 5.07739 0.328438 0
M  V30 700 H 63.0463 4.48077 3.45317 0
M  V30 701 H 61.6033 5.38837 3.6674 0
M  V30 702 N 65.0364 0.313813 1.54444 0
M  V30 703 C 66.2844 -0.291099 1.99993 0
M  V30 704 C 66.6054 -1.53418 1.20366 0
M  V30 705 O 65.8754 -1.93544 0.302927 0
M  V30 706 H 64.4554 -0.110552 0.738774 0
M  V30 707 H 67.1174 0.428106 1.9014 0
M  V30 708 H 66.2134 -0.554268 3.07139 0
M  V30 709 N 66.5145 -1.57545 0.0417849 0
M  V30 710 C 67.7605 -1.93424 -0.629168 0
M  V30 711 C 68.1155 -0.919564 -1.69002 0
M  V30 712 O 67.4085 0.0626178 -1.91498 0
M  V30 713 C 67.6025 -3.33794 -1.27735 0
M  V30 714 C 67.4315 -4.48822 -0.280806 0
M  V30 715 C 66.2015 -5.05148 0.123869 0
M  V30 716 C 68.3995 -5.12148 0.470012 0
M  V30 717 N 66.3815 -6.03703 1.11426 0
M  V30 718 C 67.7525 -6.05921 1.31377 0
M  V30 719 C 69.8075 -4.95078 0.529343 0
M  V30 720 C 68.5105 -6.84459 2.21152 0
M  V30 721 C 70.5365 -5.74235 1.41448 0
M  V30 722 C 69.8985 -6.67634 2.24598 0
M  V30 723 H 65.9975 -0.755418 -0.202158 0
M  V30 724 H 68.5815 -1.94378 0.111923 0
M  V30 725 H 66.7525 -3.33635 -1.98852 0
M  V30 726 H 68.4845 -3.56988 -1.90635 0
M  V30 727 H 65.2395 -4.72923 -0.253178 0
M  V30 728 H 65.6635 -6.57674 1.60607 0
M  V30 729 H 70.3055 -4.22683 -0.0992798 0
M  V30 730 H 68.0235 -7.56151 2.85063 0
M  V30 731 H 71.6095 -5.63057 1.46484 0
M  V30 732 H 70.4895 -7.27817 2.9198 0
M  V30 733 N 67.9926 0.231505 -1.5589 0
M  V30 734 C 69.2386 0.95877 -1.78705 0
M  V30 735 C 69.5716 1.8438 -0.609725 0
M  V30 736 O 68.8466 1.90521 0.391426 0
M  V30 737 C 69.1296 1.8062 -3.11526 0
M  V30 738 C 68.9826 0.948328 -4.39689 0
M  V30 739 C 70.3016 2.78585 -3.40703 0
M  V30 740 H 67.4206 0.347129 -0.650131 0
M  V30 741 H 70.0626 0.228259 -1.88624 0
M  V30 742 H 68.2126 2.42902 -3.03201 0
M  V30 743 H 69.8846 0.343016 -4.60023 0
M  V30 744 H 68.1276 0.253314 -4.3306 0
M  V30 745 H 68.7986 1.57543 -5.29041 0
M  V30 746 H 71.2746 2.26439 -3.49091 0
M  V30 747 H 70.1506 3.34988 -4.34826 0
M  V30 748 H 70.4116 3.55825 -2.62375 0
M  V30 749 N 69.4707 1.49531 0.497807 0
M  V30 750 C 70.4337 1.65916 1.58128 0
M  V30 751 C 71.4337 0.530825 1.51786 0
M  V30 752 O 72.6237 0.797342 1.54881 0
M  V30 753 C 69.7557 1.65951 2.9778 0
M  V30 754 H 70.9487 2.62556 1.44929 0
M  V30 755 H 68.5017 1.38611 0.722275 0
M  V30 756 H 69.2367 0.709065 3.16453 0
M  V30 757 H 69.0217 2.47897 3.03792 0
M  V30 758 H 70.5117 1.80673 3.76493 0
M  V30 759 N 70.9488 -0.749086 1.3866 0
M  V30 760 C 71.8968 -1.88428 1.36373 0
M  V30 761 C 72.8908 -1.67561 0.248929 0
M  V30 762 O 74.0968 -1.75074 0.41821 0
M  V30 763 H 70.4718 -0.620023 0.42553 0
M  V30 764 H 72.4428 -1.87473 2.32156 0
M  V30 765 C 71.1918 -3.25961 1.21014 0
M  V30 766 H 70.5148 -3.42607 2.06059 0
M  V30 767 H 71.9548 -4.05625 1.23469 0
M  V30 768 C 70.4138 -3.36799 -0.0825941 0
M  V30 769 O 70.9438 -3.87517 -1.05797 0
M  V30 770 N 69.1498 -2.90258 -0.140939 0
M  V30 771 H 68.6968 -2.49174 0.653477 0
M  V30 772 H 68.6548 -2.97889 -1.00545 0
M  V30 773 N 72.4269 -1.23603 -0.977757 0
M  V30 774 C 73.8429 -0.999251 -1.24447 0
M  V30 775 C 74.0429 0.298053 -1.99283 0
M  V30 776 O 73.0989 1.01681 -2.31122 0
M  V30 777 C 74.4119 -2.20784 -2.04144 0
M  V30 778 C 75.9599 -2.25303 -2.17273 0
M  V30 779 C 76.4349 -3.45755 -3.00362 0
M  V30 780 N 77.9259 -3.4601 -3.07947 0
M  V30 781 C 78.6609 -4.35868 -3.72568 0
M  V30 782 N 78.1569 -5.35966 -4.38991 0
M  V30 783 N 79.9499 -4.23605 -3.6948 0
M  V30 784 H 72.1009 -2.06986 -0.476483 0
M  V30 785 H 74.3639 -0.907801 -0.273134 0
M  V30 786 H 74.0699 -3.14945 -1.56533 0
M  V30 787 H 73.9439 -2.22085 -3.04891 0
M  V30 788 H 76.3309 -1.3168 -2.64092 0
M  V30 789 H 76.4119 -2.28033 -1.15907 0
M  V30 790 H 76.0559 -4.39687 -2.5424 0
M  V30 791 H 75.9859 -3.40266 -4.01904 0
M  V30 792 H 78.4769 -2.73588 -2.60688 0
M  V30 793 H 78.7899 -6.00783 -4.86086 0
M  V30 794 H 77.1349 -5.39863 -4.37691 0
M  V30 795 H 80.3259 -3.44647 -3.16759 0
M  V30 796 H 80.4989 -4.93836 -4.1956 0
M  V30 797 N 73.905 1.17692 -1.04816 0
M  V30 798 C 75.152 1.87859 -0.75599 0
M  V30 799 C 75.48 1.80812 0.716752 0
M  V30 800 O 74.735 1.20819 1.53952 0
M  V30 801 C 75.034 3.37462 -1.17703 0
M  V30 802 C 74.7 3.64713 -2.65133 0
M  V30 803 C 73.362 3.71859 -3.05408 0
M  V30 804 C 75.714 3.76492 -3.60421 0
M  V30 805 C 73.042 3.88271 -4.39843 0
M  V30 806 C 75.394 3.94421 -4.94585 0
M  V30 807 C 74.058 3.99806 -5.3452 0
M  V30 808 H 73.328 0.687425 -0.276636 0
M  V30 809 H 75.975 1.39255 -1.31455 0
M  V30 810 H 74.28 3.88097 -0.537395 0
M  V30 811 H 75.977 3.90109 -0.928218 0
M  V30 812 H 72.567 3.59772 -2.32942 0
M  V30 813 H 76.751 3.70295 -3.30447 0
M  V30 814 H 72.007 3.90687 -4.70291 0
M  V30 815 H 76.181 4.02477 -5.68318 0
M  V30 816 H 73.808 4.12276 -6.38696 0
M  V30 817 N 75.3831 0.828654 1.34056 0
M  V30 818 C 76.6131 0.431993 2.02033 0
M  V30 819 C 77.0211 -0.96844 1.62536 0
M  V30 820 O 76.3641 -1.6391 0.829408 0
M  V30 821 C 76.4261 0.461224 3.56529 0
M  V30 822 C 76.0901 1.81599 4.1937 0
M  V30 823 C 77.0871 2.7777 4.39477 0
M  V30 824 C 74.7721 2.10604 4.56017 0
M  V30 825 C 76.7661 4.01115 4.95364 0
M  V30 826 C 74.4531 3.34207 5.11614 0
M  V30 827 C 75.4511 4.2928 5.31232 0
M  V30 828 O 75.1391 5.50699 5.8565 0
M  V30 829 H 74.8711 0.170943 0.654029 0
M  V30 830 H 77.4251 1.11988 1.72185 0
M  V30 831 H 75.6551 -0.283388 3.8566 0
M  V30 832 H 77.3441 0.0838149 4.05813 0
M  V30 833 H 78.1101 2.56659 4.11523 0
M  V30 834 H 73.9891 1.37402 4.40047 0
M  V30 835 H 77.5331 4.75333 5.10592 0
M  V30 836 H 73.4301 3.55179 5.38997 0
M  V30 837 H 74.1981 5.52298 6.04077 0
M  V30 838 N 76.8612 -1.46375 0.584142 0
M  V30 839 C 78.0912 -2.06461 0.0758195 0
M  V30 840 C 78.4992 -1.43322 -1.23512 0
M  V30 841 O 77.8422 -0.533216 -1.75791 0
M  V30 842 C 77.9042 -3.59131 -0.162773 0
M  V30 843 C 77.5682 -4.4447 1.06279 0
M  V30 844 C 78.5652 -4.80918 1.97519 0
M  V30 845 C 76.2502 -4.85584 1.28504 0
M  V30 846 C 78.2442 -5.57309 3.09331 0
M  V30 847 C 75.9312 -5.61734 2.4062 0
M  V30 848 C 76.9292 -5.9751 3.30863 0
M  V30 849 O 76.6172 -6.72121 4.41032 0
M  V30 850 H 76.3492 -0.673745 0.0551725 0
M  V30 851 H 78.9032 -1.88969 0.804984 0
M  V30 852 H 77.1332 -3.74936 -0.946565 0
M  V30 853 H 78.8222 -4.0114 -0.619782 0
M  V30 854 H 79.5882 -4.49732 1.81565 0
M  V30 855 H 75.4672 -4.57187 0.591702 0
M  V30 856 H 79.0112 -5.85152 3.79793 0
M  V30 857 H 74.9082 -5.92334 2.56537 0
M  V30 858 H 75.6762 -6.90547 4.39417 0
M  V30 859 N 78.3393 -0.321999 -1.54275 0
M  V30 860 C 79.2713 0.578671 -2.21775 0
M  V30 861 C 80.2843 1.08109 -1.21722 0
M  V30 862 O 81.4733 0.994938 -1.482 0
M  V30 863 C 78.5733 1.80661 -2.86731 0
M  V30 864 C 77.7463 1.44314 -4.12907 0
M  V30 865 C 76.8053 2.52845 -4.61472 0
M  V30 866 O 75.8313 2.17054 -5.2619 0
M  V30 867 N 77.0333 3.83748 -4.35566 0
M  V30 868 H 79.7983 0.000709447 -2.997 0
M  V30 869 H 77.3593 -0.145132 -1.61248 0
M  V30 870 H 79.3513 2.52655 -3.16145 0
M  V30 871 H 77.9213 2.29245 -2.12521 0
M  V30 872 H 77.1413 0.554906 -3.90275 0
M  V30 873 H 78.4293 1.17598 -4.95023 0
M  V30 874 H 77.8273 4.15625 -3.83761 0
M  V30 875 H 76.3843 4.51977 -4.69638 0
M  V30 876 N 79.8174 1.5752 -0.0501392 0
M  V30 877 C 81.0454 1.96963 0.633492 0
M  V30 878 C 81.4604 0.927631 1.6444 0
M  V30 879 O 80.8174 -0.0882665 1.82286 0
M  V30 880 C 80.8684 3.36487 1.32132 0
M  V30 881 O 80.5894 4.36693 0.350894 0
M  V30 882 C 82.0904 3.90682 2.09481 0
M  V30 883 H 79.3104 0.648244 0.173266 0
M  V30 884 H 81.8544 2.0417 -0.116134 0
M  V30 885 H 80.0094 3.30434 2.02218 0
M  V30 886 H 80.4234 5.17702 0.841735 0
M  V30 887 H 81.8974 4.90591 2.5303 0
M  V30 888 H 82.3744 3.26053 2.94255 0
M  V30 889 H 82.9804 4.00069 1.44307 0
M  V30 890 N 81.2955 -0.223234 1.56011 0
M  V30 891 C 82.5235 -0.964812 1.83027 0
M  V30 892 C 82.9385 -1.78013 0.62904 0
M  V30 893 O 82.2955 -1.78008 -0.402414 0
M  V30 894 C 82.3465 -1.88373 3.08542 0
M  V30 895 O 82.0675 -1.10137 4.2403 0
M  V30 896 C 83.5685 -2.73934 3.48533 0
M  V30 897 H 80.7885 -0.282842 0.608475 0
M  V30 898 H 83.3325 -0.238971 2.03099 0
M  V30 899 H 81.4875 -2.56354 2.9045 0
M  V30 900 H 81.9015 -1.72501 4.95322 0
M  V30 901 H 83.3755 -3.34117 4.39397 0
M  V30 902 H 83.8525 -3.46244 2.70207 0
M  V30 903 H 84.4585 -2.11369 3.69057 0
M  V30 904 N 82.7736 -1.49793 -0.48987 0
M  V30 905 C 84.0226 -1.59085 -1.23995 0
M  V30 906 C 84.3356 -0.287907 -1.9347 0
M  V30 907 O 85.5416 -0.259506 -2.70257 0
M  V30 908 C 83.9976 -2.80736 -2.252 0
M  V30 909 C 83.6056 -4.17833 -1.61614 0
M  V30 910 C 85.3496 -2.99364 -3.00967 0
M  V30 911 C 83.2566 -5.30693 -2.60996 0
M  V30 912 H 82.1866 -0.592372 -0.466488 0
M  V30 913 H 84.8376 -1.76197 -0.51252 0
M  V30 914 H 83.2196 -2.57142 -3.01154 0
M  V30 915 H 84.3936 -4.51608 -0.915774 0
M  V30 916 H 82.7086 -4.04656 -0.981977 0
M  V30 917 H 85.3056 -3.80851 -3.75308 0
M  V30 918 H 85.6486 -2.10356 -3.59244 0
M  V30 919 H 86.1816 -3.2305 -2.32128 0
M  V30 920 H 82.9206 -6.21796 -2.07485 0
M  V30 921 H 82.4406 -5.01359 -3.2924 0
M  V30 922 H 84.1196 -5.6049 -3.23202 0
M  V30 923 N 84.2517 0.741722 -1.39055 0
M  V30 924 C 85.6627 1.31966 -1.32068 0
M  V30 925 C 86.0137 1.96192 0.0180797 0
M  V30 926 O 85.1387 1.95861 0.920196 0
M  V30 927 C 85.7337 2.39954 -2.39181 0
M  V30 928 C 84.2927 2.93438 -2.35735 0
M  V30 929 C 83.4397 1.66936 -2.21422 0
M  V30 930 H 86.3907 0.539721 -1.4924 0
M  V30 931 H 86.4117 3.20182 -2.05581 0
M  V30 932 H 85.9237 1.9318 -3.36605 0
M  V30 933 H 84.0247 3.4451 -1.41929 0
M  V30 934 H 84.1377 3.4701 -3.30335 0
M  V30 935 H 82.5017 1.91016 -1.68478 0
M  V30 936 H 83.2847 1.22224 -3.20806 0
M  V30 937 N 85.7298 1.2412 0.971189 0
M  V30 938 C 86.6598 1.05508 2.08304 0
M  V30 939 C 87.6408 -0.0308864 1.70072 0
M  V30 940 O 88.8258 0.135521 1.93727 0
M  V30 941 C 85.9558 0.655365 3.4106 0
M  V30 942 C 84.9098 1.68971 3.93234 0
M  V30 943 C 84.2358 1.14516 5.22293 0
M  V30 944 C 85.5358 3.08487 4.21465 0
M  V30 945 H 87.2298 1.98507 2.24132 0
M  V30 946 H 84.7758 0.955821 1.07704 0
M  V30 947 H 86.7288 0.51217 4.18276 0
M  V30 948 H 85.4528 -0.31032 3.25122 0
M  V30 949 H 84.1118 1.82106 3.18171 0
M  V30 950 H 83.7598 0.170189 5.02712 0
M  V30 951 H 83.4598 1.83635 5.58168 0
M  V30 952 H 84.9838 1.01401 6.02121 0
M  V30 953 H 86.3978 2.98601 4.89398 0
M  V30 954 H 84.7948 3.74926 4.68562 0
M  V30 955 H 85.8648 3.56787 3.28376 0
M  V30 956 N 87.2079 -1.17134 1.05439 0
M  V30 957 C 88.1549 -2.21235 0.657539 0
M  V30 958 C 89.1249 -1.62551 -0.341543 0
M  V30 959 O 90.3099 -1.89379 -0.232393 0
M  V30 960 C 87.4499 -3.45076 0.0410575 0
M  V30 961 C 86.5629 -4.18042 1.08927 0
M  V30 962 C 85.6979 -5.29376 0.439848 0
M  V30 963 C 84.7369 -5.94132 1.4722 0
M  V30 964 N 83.8739 -6.96975 0.846756 0
M  V30 965 H 88.7139 -2.54534 1.54972 0
M  V30 966 H 86.2509 -1.25028 0.775006 0
M  V30 967 H 88.2089 -4.15862 -0.33383 0
M  V30 968 H 86.8389 -3.12353 -0.814568 0
M  V30 969 H 85.8909 -3.45945 1.58196 0
M  V30 970 H 87.2029 -4.62306 1.87282 0
M  V30 971 H 86.3569 -6.06699 0.0115125 0
M  V30 972 H 85.0959 -4.86251 -0.375656 0
M  V30 973 H 84.1009 -5.15538 1.91052 0
M  V30 974 H 85.3259 -6.39337 2.28965 0
M  V30 975 H 83.2719 -6.5598 0.0518075 0
M  V30 976 H 83.1889 -7.39565 1.5678 0
M  V30 977 H 84.4569 -7.78239 0.443277 0
M  V30 978 N 88.686 -0.835752 -1.33615 0
M  V30 979 C 89.963 -0.352017 -1.92406 0
M  V30 980 C 90.343 1.16225 -1.76224 0
M  V30 981 O 89.691 1.97526 -1.14873 0
M  V30 982 C 89.901 -0.795485 -3.39813 0
M  V30 983 C 91.249 -0.801703 -4.16963 0
M  V30 984 O 92.273 -0.738889 -3.48452 0
M  V30 985 O 91.132 -0.886607 -5.3926 0
M  V30 986 H 88.226 -0.0989641 -0.821057 0
M  V30 987 H 90.772 -0.921397 -1.42507 0
M  V30 988 H 89.544 -1.83795 -3.45449 0
M  V30 989 H 89.167 -0.202505 -3.97084 0
M  V30 990 N 90.1641 1.46063 -0.591896 0
M  V30 991 C 91.1271 2.28854 0.125973 0
M  V30 992 C 92.1271 1.38903 0.810107 0
M  V30 993 O 93.3171 1.61186 0.66066 0
M  V30 994 C 90.4491 3.19526 1.1881 0
M  V30 995 H 91.6421 2.93802 -0.601717 0
M  V30 996 H 89.1951 1.52325 -0.350254 0
M  V30 997 H 89.9301 2.59345 1.94707 0
M  V30 998 H 89.7151 3.85766 0.701936 0
M  V30 999 H 91.2051 3.81817 1.69132 0
M  V30 1000 N 91.6422 0.330177 1.54103 0
M  V30 1001 C 92.6052 -0.520144 2.2322 0
M  V30 1002 C 93.6052 -1.03828 1.22786 0
M  V30 1003 O 94.7952 -0.929652 1.4732 0
M  V30 1004 C 91.9272 -1.72317 2.94142 0
M  V30 1005 H 93.1202 0.0841605 2.99782 0
M  V30 1006 H 90.6732 0.0813433 1.56088 0
M  V30 1007 H 91.4082 -2.36653 2.21734 0
M  V30 1008 H 91.1932 -1.35898 3.67796 0
M  V30 1009 H 92.6832 -2.3266 3.46784 0
M  V30 1010 N 93.1203 -1.57491 0.0584922 0
M  V30 1011 C 94.3693 -1.92155 -0.613146 0
M  V30 1012 C 94.6823 -0.939334 -1.71569 0
M  V30 1013 O 95.8883 -1.17829 -2.44599 0
M  V30 1014 C 94.3443 -3.41303 -1.14195 0
M  V30 1015 C 93.9523 -4.47944 -0.0711265 0
M  V30 1016 C 95.6963 -3.84988 -1.78841 0
M  V30 1017 C 93.6033 -5.88212 -0.613225 0
M  V30 1018 H 92.5333 -0.717162 -0.232796 0
M  V30 1019 H 95.1843 -1.83049 0.12857 0
M  V30 1020 H 93.5663 -3.45437 -1.93621 0
M  V30 1021 H 94.7403 -4.55408 0.702836 0
M  V30 1022 H 93.0553 -4.13644 0.478313 0
M  V30 1023 H 95.6523 -4.87159 -2.20408 0
M  V30 1024 H 95.9953 -3.21632 -2.64308 0
M  V30 1025 H 96.5283 -3.83401 -1.06059 0
M  V30 1026 H 93.2673 -6.55183 0.203978 0
M  V30 1027 H 92.7873 -5.84294 -1.35501 0
M  V30 1028 H 94.4663 -6.37687 -1.09383 0
M  V30 1029 N 94.5984 0.214957 -1.56127 0
M  V30 1030 C 95.5314 1.29382 -1.87977 0
M  V30 1031 C 96.5094 1.44897 -0.737807 0
M  V30 1032 O 97.6934 1.60605 -0.986833 0
M  V30 1033 C 94.8204 2.66325 -2.09258 0
M  V30 1034 C 93.8664 2.67789 -3.31951 0
M  V30 1035 S 94.6994 2.21198 -4.8768 0
M  V30 1036 C 95.8554 3.60003 -5.12004 0
M  V30 1037 H 96.0884 1.02173 -2.79192 0
M  V30 1038 H 93.6214 0.417516 -1.48648 0
M  V30 1039 H 95.5794 3.45162 -2.22201 0
M  V30 1040 H 94.2404 2.90755 -1.18829 0
M  V30 1041 H 93.4334 3.68436 -3.43906 0
M  V30 1042 H 93.0354 1.9702 -3.17898 0
M  V30 1043 H 95.3274 4.55739 -5.01307 0
M  V30 1044 H 96.2704 3.52959 -6.13861 0
M  V30 1045 H 96.6784 3.53996 -4.39712 0
M  V30 1046 N 96.0765 1.50051 0.48192 0
M  V30 1047 C 97.0395 1.67584 1.5636 0
M  V30 1048 C 98.0395 0.546894 1.51214 0
M  V30 1049 O 99.2295 0.813725 1.54026 0
M  V30 1050 C 96.3615 1.691 2.96003 0
M  V30 1051 H 97.5545 2.64078 1.42136 0
M  V30 1052 H 95.1075 1.39369 0.707533 0
M  V30 1053 H 95.8425 0.742589 3.15684 0
M  V30 1054 H 95.6275 2.51105 3.01146 0
M  V30 1055 H 97.1175 1.84656 3.74556 0
M  V30 1056 N 97.5546 -0.734337 1.39446 0
M  V30 1057 C 98.5026 -1.86971 1.38364 0
M  V30 1058 C 99.4966 -1.67288 0.266687 0
M  V30 1059 O 100.703 -1.74621 0.436755 0
M  V30 1060 H 97.0776 -0.615474 0.432082 0
M  V30 1061 H 99.0486 -1.85 2.34132 0
M  V30 1062 C 97.7976 -3.2466 1.24465 0
M  V30 1063 H 97.1206 -3.40402 2.09682 0
M  V30 1064 H 98.5606 -4.04292 1.27764 0
M  V30 1065 C 97.0196 -3.36867 -0.0468674 0
M  V30 1066 O 97.5496 -3.88618 -1.01681 0
M  V30 1067 N 95.7556 -2.90391 -0.110145 0
M  V30 1068 H 95.3026 -2.48466 0.679868 0
M  V30 1069 H 95.2606 -2.98939 -0.973799 0
M  V30 1070 N 99.0327 -1.24633 -0.964593 0
M  V30 1071 C 100.273 -1.09981 -1.72289 0
M  V30 1072 C 100.637 0.354792 -1.88693 0
M  V30 1073 O 101.838 0.62289 -2.61483 0
M  V30 1074 C 100.109 -1.82262 -3.07434 0
M  V30 1075 S 101.668 -1.83379 -3.98645 0
M  V30 1076 H 98.4857 -0.393292 -0.59232 0
M  V30 1077 H 101.088 -1.58009 -1.15123 0
M  V30 1078 H 99.7917 -2.87206 -2.93157 0
M  V30 1079 H 99.3227 -1.3458 -3.69664 0
M  V30 1080 H 101.338 -0.903691 -4.87901 0
M  V30 1081 N 100.511 1.16574 -1.06058 0
M  V30 1082 C 101.922 1.68662 -0.800632 0
M  V30 1083 C 102.273 1.84184 0.67608 0
M  V30 1084 O 101.398 1.53568 1.52466 0
M  V30 1085 C 101.993 3.06356 -1.44676 0
M  V30 1086 C 100.552 3.55575 -1.23465 0
M  V30 1087 C 99.6988 2.31616 -1.52477 0
M  V30 1088 H 102.65 1.00969 -1.22438 0
M  V30 1089 H 102.671 3.70636 -0.860788 0
M  V30 1090 H 102.183 2.95027 -2.52152 0
M  V30 1091 H 100.284 3.72167 -0.179527 0
M  V30 1092 H 100.397 4.37812 -1.94571 0
M  V30 1093 H 98.7608 2.36512 -0.945209 0
M  V30 1094 H 99.5438 2.22887 -2.61106 0
M  V30 1095 N 101.989 0.842826 1.3317 0
M  V30 1096 C 103.266 0.362216 1.92217 0
M  V30 1097 C 103.646 -1.15289 1.76838 0
M  V30 1098 O 102.994 -1.96914 1.15919 0
M  V30 1099 C 103.204 0.813495 3.39387 0
M  V30 1100 C 104.552 0.823804 4.16532 0
M  V30 1101 O 105.576 0.757358 3.48055 0
M  V30 1102 O 104.435 0.915193 5.38782 0
M  V30 1103 H 101.529 0.103317 0.820521 0
M  V30 1104 H 104.075 0.928942 1.42017 0
M  V30 1105 H 102.847 1.85624 3.4447 0
M  V30 1106 H 102.47 0.223561 3.96971 0
M  V30 1107 N 103.467 -1.45747 0.599634 0
M  V30 1108 C 104.43 -2.28917 -0.113835 0
M  V30 1109 C 105.43 -1.3933 -0.802729 0
M  V30 1110 O 106.62 -1.61534 -0.652103 0
M  V30 1111 C 103.752 -3.20152 -1.17114 0
M  V30 1112 H 104.945 -2.93478 0.617289 0
M  V30 1113 H 102.498 -1.52137 0.358327 0
M  V30 1114 H 103.233 -2.60374 -1.93329 0
M  V30 1115 H 103.018 -3.86133 -0.681468 0
M  V30 1116 H 104.508 -3.82708 -1.67105 0
M  V30 1117 N 104.945 -0.338344 -1.53925 0
M  V30 1118 C 105.877 0.555117 -2.22376 0
M  V30 1119 C 106.89 1.06812 -1.22862 0
M  V30 1120 O 108.079 0.979163 -1.49247 0
M  V30 1121 C 105.179 1.77609 -2.88631 0
M  V30 1122 C 104.352 1.39927 -4.14414 0
M  V30 1123 C 103.411 2.47936 -4.64127 0
M  V30 1124 O 102.437 2.11461 -5.28463 0
M  V30 1125 N 103.639 3.79107 -4.39612 0
M  V30 1126 H 106.404 -0.0310778 -2.99684 0
M  V30 1127 H 103.965 -0.162226 -1.61085 0
M  V30 1128 H 105.957 2.49287 -3.18807 0
M  V30 1129 H 104.527 2.26978 -2.14941 0
M  V30 1130 H 103.747 0.513481 -3.90841 0
M  V30 1131 H 105.035 1.12341 -4.96243 0
M  V30 1132 H 104.433 4.11531 -3.88148 0
M  V30 1133 H 102.99 4.4697 -4.74406 0
M  V30 1134 N 106.423 1.57458 -0.0668435 0
M  V30 1135 C 107.651 1.97624 0.612565 0
M  V30 1136 C 108.066 0.94502 1.63447 0
M  V30 1137 O 107.423 -0.0689276 1.8237 0
M  V30 1138 C 107.474 3.37869 1.28555 0
M  V30 1139 O 107.195 4.3704 0.304557 0
M  V30 1140 C 108.696 3.92882 2.05325 0
M  V30 1141 H 105.916 0.650045 0.166381 0
M  V30 1142 H 108.46 2.04035 -0.137782 0
M  V30 1143 H 106.615 3.3256 1.98702 0
M  V30 1144 H 107.029 5.18565 0.786779 0
M  V30 1145 H 108.503 4.93247 2.47812 0
M  V30 1146 H 108.98 3.29156 2.9078 0
M  V30 1147 H 109.586 4.01577 1.40056 0
M  V30 1148 N 107.901 -0.206675 1.56239 0
M  V30 1149 C 109.317 -0.557025 1.49564 0
M  V30 1150 C 109.517 -1.86424 0.764735 0
M  V30 1151 O 108.573 -2.50584 0.310491 0
M  V30 1152 C 109.886 -0.622478 2.94186 0
M  V30 1153 C 111.434 -0.712099 3.04792 0
M  V30 1154 C 111.909 -0.808767 4.50803 0
M  V30 1155 N 113.4 -0.8726 4.54907 0
M  V30 1156 C 114.135 -0.967365 5.65181 0
M  V30 1157 N 113.631 -1.02515 6.85173 0
M  V30 1158 N 115.424 -1.00366 5.53067 0
M  V30 1159 H 107.575 0.650943 2.02179 0
M  V30 1160 H 109.838 0.230387 0.919579 0
M  V30 1161 H 109.544 0.268727 3.50672 0
M  V30 1162 H 109.418 -1.4811 3.46905 0
M  V30 1163 H 111.805 -1.59374 2.48363 0
M  V30 1164 H 111.886 0.172489 2.55218 0
M  V30 1165 H 111.53 0.0684754 5.07854 0
M  V30 1166 H 111.46 -1.70899 4.98098 0
M  V30 1167 H 113.951 -0.837657 3.68499 0
M  V30 1168 H 114.264 -1.09765 7.64965 0
M  V30 1169 H 112.609 -0.994026 6.87855 0
M  V30 1170 H 115.8 -0.95527 4.58249 0
M  V30 1171 H 115.973 -1.07405 6.39037 0
M  V30 1172 N 109.379 -1.50304 -0.473955 0
M  V30 1173 C 110.795 -1.37667 -0.807466 0
M  V30 1174 C 110.995 -0.430555 -1.96846 0
M  V30 1175 O 110.051 0.127874 -2.52176 0
M  V30 1176 C 111.364 -2.78974 -1.12223 0
M  V30 1177 C 112.912 -2.87868 -1.22885 0
M  V30 1178 C 113.387 -4.30003 -1.57676 0
M  V30 1179 N 114.878 -4.3294 -1.64673 0
M  V30 1180 C 115.613 -5.3991 -1.93091 0
M  V30 1181 N 115.109 -6.57092 -2.1955 0
M  V30 1182 N 116.902 -5.27351 -1.94569 0
M  V30 1183 H 109.053 -2.10394 0.291212 0
M  V30 1184 H 111.316 -0.945575 0.0677609 0
M  V30 1185 H 111.022 -3.50031 -0.342229 0
M  V30 1186 H 110.896 -3.16038 -2.05913 0
M  V30 1187 H 113.283 -2.17032 -1.99953 0
M  V30 1188 H 113.364 -2.54352 -0.271814 0
M  V30 1189 H 113.008 -5.01375 -0.81149 0
M  V30 1190 H 112.938 -4.61004 -2.54525 0
M  V30 1191 H 115.429 -3.48441 -1.46277 0
M  V30 1192 H 115.742 -7.34425 -2.405 0
M  V30 1193 H 114.087 -6.60272 -2.16948 0
M  V30 1194 H 117.278 -4.34801 -1.73394 0
M  V30 1195 H 117.451 -6.10805 -2.16381 0
M  V30 1196 N 110.857 0.726932 -1.39834 0
M  V30 1197 C 111.804 1.841 -1.39197 0
M  V30 1198 C 112.774 1.642 -0.250502 0
M  V30 1199 O 113.959 1.85494 -0.446846 0
M  V30 1200 C 111.099 3.21697 -1.24919 0
M  V30 1201 C 110.212 3.53247 -2.48678 0
M  V30 1202 C 109.347 4.80289 -2.26928 0
M  V30 1203 C 108.386 5.04707 -3.4632 0
M  V30 1204 N 107.523 6.22956 -3.23836 0
M  V30 1205 H 112.363 1.83979 -2.34427 0
M  V30 1206 H 109.9 0.898876 -1.16442 0
M  V30 1207 H 111.858 4.01137 -1.1465 0
M  V30 1208 H 110.488 3.21076 -0.333153 0
M  V30 1209 H 109.54 2.68447 -2.69519 0
M  V30 1210 H 110.852 3.67205 -3.37582 0
M  V30 1211 H 110.006 5.67725 -2.13947 0
M  V30 1212 H 108.745 4.68519 -1.35431 0
M  V30 1213 H 107.75 4.1573 -3.5979 0
M  V30 1214 H 108.975 5.18357 -4.38729 0
M  V30 1215 H 106.921 6.12459 -2.35011 0
M  V30 1216 H 106.838 6.37539 -4.063 0
M  V30 1217 H 108.106 7.1321 -3.14566 0
M  V30 1218 N 112.336 1.25143 0.95797 0
M  V30 1219 C 113.582 1.10863 1.70531 0
M  V30 1220 C 113.937 -0.347391 1.89238 0
M  V30 1221 O 113.23 -1.25262 1.44983 0
M  V30 1222 C 113.424 1.79272 3.09187 0
M  V30 1223 C 113.253 3.31376 3.04006 0
M  V30 1224 C 112.023 4.0062 3.07948 0
M  V30 1225 C 114.221 4.27825 2.8543 0
M  V30 1226 N 112.203 5.39526 2.9289 0
M  V30 1227 C 113.574 5.53794 2.78769 0
M  V30 1228 C 115.629 4.1828 2.70085 0
M  V30 1229 C 114.332 6.7131 2.58331 0
M  V30 1230 C 116.358 5.35485 2.51017 0
M  V30 1231 C 115.72 6.60393 2.45073 0
M  V30 1232 H 111.819 0.460362 0.632132 0
M  V30 1233 H 114.403 1.58196 1.13499 0
M  V30 1234 H 112.574 1.34439 3.64391 0
M  V30 1235 H 114.306 1.57764 3.72683 0
M  V30 1236 H 111.061 3.51855 3.17009 0
M  V30 1237 H 111.485 6.12416 2.88574 0
M  V30 1238 H 116.127 3.22461 2.73457 0
M  V30 1239 H 113.845 7.67243 2.53701 0
M  V30 1240 H 117.431 5.29959 2.40073 0
M  V30 1241 H 116.311 7.49557 2.30509 0
M  V30 1242 N 113.814 -1.1601 1.06675 0
M  V30 1243 C 115.06 -1.86909 0.786945 0
M  V30 1244 C 115.393 -1.81717 -0.685018 0
M  V30 1245 O 114.668 -1.23551 -1.50218 0
M  V30 1246 C 114.951 -3.36313 1.28707 0
M  V30 1247 C 114.804 -3.50175 2.82308 0
M  V30 1248 C 116.123 -4.3084 0.898071 0
M  V30 1249 H 113.242 -0.678677 0.287343 0
M  V30 1250 H 115.884 -1.36336 1.32334 0
M  V30 1251 H 114.034 -3.79513 0.830768 0
M  V30 1252 H 115.706 -3.15886 3.36175 0
M  V30 1253 H 113.949 -2.91959 3.20847 0
M  V30 1254 H 114.62 -4.55116 3.12368 0
M  V30 1255 H 117.096 -3.95561 1.29114 0
M  V30 1256 H 115.972 -5.33876 1.27543 0
M  V30 1257 H 116.233 -4.41662 -0.196651 0
M  V30 1258 N 115.292 -0.849877 -1.32721 0
M  V30 1259 C 116.224 -0.248332 -2.27851 0
M  V30 1260 C 117.237 0.577218 -1.52224 0
M  V30 1261 O 118.426 0.402489 -1.73903 0
M  V30 1262 C 115.526 0.668107 -3.32249 0
M  V30 1263 C 114.699 -0.120534 -4.37234 0
M  V30 1264 C 113.758 0.720932 -5.21238 0
M  V30 1265 O 112.784 0.156166 -5.68986 0
M  V30 1266 N 113.986 2.03647 -5.43607 0
M  V30 1267 H 116.751 -1.06575 -2.80111 0
M  V30 1268 H 114.312 -0.709395 -1.45531 0
M  V30 1269 H 116.304 1.23627 -3.85355 0
M  V30 1270 H 114.874 1.38621 -2.80184 0
M  V30 1271 H 114.094 -0.870108 -3.84477 0
M  V30 1272 H 115.382 -0.662406 -5.0447 0
M  V30 1273 H 114.78 2.51871 -5.06535 0
M  V30 1274 H 113.337 2.55287 -5.99727 0
M  V30 1275 N 116.77 1.45427 -0.607355 0
M  V30 1276 C 118.186 1.57283 -0.270985 0
M  V30 1277 C 118.386 1.59875 1.22647 0
M  V30 1278 O 117.442 1.52893 2.00948 0
M  V30 1279 C 118.755 2.85566 -0.941952 0
M  V30 1280 C 120.303 2.9924 -0.917849 0
M  V30 1281 C 120.778 4.30293 -1.56882 0
M  V30 1282 N 122.269 4.37051 -1.5343 0
M  V30 1283 C 123.004 5.37123 -2.00715 0
M  V30 1284 N 122.5 6.43734 -2.56084 0
M  V30 1285 N 124.293 5.28479 -1.91484 0
M  V30 1286 H 116.444 1.41988 -1.57966 0
M  V30 1287 H 118.707 0.67885 -0.661715 0
M  V30 1288 H 118.413 2.8955 -1.99633 0
M  V30 1289 H 118.287 3.74322 -0.465096 0
M  V30 1290 H 120.674 2.94822 0.127984 0
M  V30 1291 H 120.755 2.11895 -1.43297 0
M  V30 1292 H 120.399 4.35469 -2.61398 0
M  V30 1293 H 120.329 5.16454 -1.02873 0
M  V30 1294 H 122.82 3.60615 -1.12982 0
M  V30 1295 H 123.133 7.16341 -2.89958 0
M  V30 1296 H 121.478 6.44485 -2.60122 0
M  V30 1297 H 124.669 4.44098 -1.47967 0
M  V30 1298 H 124.842 6.0632 -2.28648 0
M  V30 1299 N 118.248 0.346503 1.53744 0
M  V30 1300 C 119.497 -0.250122 2.00143 0
M  V30 1301 C 119.81 -1.51418 1.23822 0
M  V30 1302 O 121.016 -2.18823 1.60713 0
M  V30 1303 C 119.472 -0.496252 3.56462 0
M  V30 1304 C 119.08 0.752077 4.41642 0
M  V30 1305 C 120.824 -1.05157 4.11269 0
M  V30 1306 C 118.731 0.476583 5.89477 0
M  V30 1307 H 117.661 -0.0972409 0.747703 0
M  V30 1308 H 120.312 0.46229 1.77581 0
M  V30 1309 H 118.694 -1.26944 3.75102 0
M  V30 1310 H 119.868 1.5266 4.34778 0
M  V30 1311 H 118.183 1.22925 3.97842 0
M  V30 1312 H 120.78 -1.27269 5.19333 0
M  V30 1313 H 121.123 -2.00799 3.64672 0
M  V30 1314 H 121.656 -0.339019 3.96353 0
M  V30 1315 H 118.395 1.4028 6.40314 0
M  V30 1316 H 117.915 -0.259794 5.99237 0
M  V30 1317 H 119.594 0.0949315 6.4693 0
M  V30 1318 N 119.726 -1.57421 0.075193 0
M  V30 1319 C 120.656 -2.15942 -0.888324 0
M  V30 1320 C 121.637 -1.08737 -1.30806 0
M  V30 1321 O 122.822 -1.36787 -1.37851 0
M  V30 1322 C 119.952 -2.72379 -2.1547 0
M  V30 1323 C 118.906 -3.8478 -1.87425 0
M  V30 1324 C 118.232 -4.27834 -3.20721 0
M  V30 1325 C 119.532 -5.08869 -1.17684 0
M  V30 1326 H 121.226 -2.96705 -0.400799 0
M  V30 1327 H 118.772 -1.42723 -0.191342 0
M  V30 1328 H 120.725 -3.11965 -2.83295 0
M  V30 1329 H 119.449 -1.88841 -2.6647 0
M  V30 1330 H 118.108 -3.45703 -1.22004 0
M  V30 1331 H 117.756 -3.41214 -3.6957 0
M  V30 1332 H 117.456 -5.03605 -3.02746 0
M  V30 1333 H 118.98 -4.70039 -3.89738 0
M  V30 1334 H 120.394 -5.4575 -1.75584 0
M  V30 1335 H 118.791 -5.8994 -1.09956 0
M  V30 1336 H 119.861 -4.84648 -0.156453 0
M  V30 1337 N 121.204 0.198386 -1.56346 0
M  V30 1338 C 122.481 0.944982 -1.71258 0
M  V30 1339 C 122.861 2.0151 -0.629048 0
M  V30 1340 O 122.209 2.25639 0.360473 0
M  V30 1341 C 122.419 1.5344 -3.1346 0
M  V30 1342 C 123.767 2.01778 -3.73591 0
M  V30 1343 O 124.791 1.63288 -3.16568 0
M  V30 1344 O 123.65 2.72594 -4.73661 0
M  V30 1345 H 120.744 0.442939 -0.69838 0
M  V30 1346 H 123.29 0.188342 -1.68652 0
M  V30 1347 H 122.062 0.762869 -3.83792 0
M  V30 1348 H 121.685 2.35596 -3.20282 0
M  V30 1349 N 122.682 1.50554 0.465978 0
M  V30 1350 C 123.632 1.66177 1.56106 0
M  V30 1351 C 124.616 0.516265 1.52393 0
M  V30 1352 O 125.808 0.770906 1.5933 0
M  V30 1353 C 122.937 1.76396 2.94515 0
M  V30 1354 C 122.023 2.9664 3.03093 0
M  V30 1355 N 122.414 4.20245 2.81474 0
M  V30 1356 C 120.712 2.95304 3.34233 0
M  V30 1357 C 121.413 5.01259 2.95151 0
M  V30 1358 N 120.389 4.35318 3.25576 0
M  V30 1359 H 124.191 2.59434 1.38099 0
M  V30 1360 H 121.705 1.47808 0.6728 0
M  V30 1361 H 123.702 1.85694 3.73261 0
M  V30 1362 H 122.362 0.843017 3.13565 0
M  V30 1363 H 123.373 4.4966 2.56956 0
M  V30 1364 H 120.05 2.12729 3.59239 0
M  V30 1365 H 121.44 6.09564 2.82632 0
M  V30 1366 N 124.16 -0.719506 1.40217 0
M  V30 1367 C 125.437 -1.47221 1.28784 0
M  V30 1368 C 125.817 -2.10883 -0.0956067 0
M  V30 1369 O 125.165 -1.99833 -1.10811 0
M  V30 1370 C 125.375 -2.5111 2.42373 0
M  V30 1371 C 126.723 -3.17053 2.82423 0
M  V30 1372 O 127.747 -2.61429 2.41937 0
M  V30 1373 O 126.606 -4.17742 3.52355 0
M  V30 1374 H 123.7 -0.654491 0.50554 0
M  V30 1375 H 126.246 -0.752014 1.52128 0
M  V30 1376 H 125.018 -2.02556 3.34793 0
M  V30 1377 H 124.641 -3.3067 2.20778 0
M  V30 1378 N 125.638 -1.25649 -0.95132 0
M  V30 1379 C 126.886 -1.10375 -1.69298 0
M  V30 1380 C 127.207 0.355339 -1.91735 0
M  V30 1381 O 126.477 1.25188 -1.50681 0
M  V30 1382 H 125.057 -0.405461 -0.627384 0
M  V30 1383 H 127.719 -1.57823 -1.14358 0
M  V30 1384 H 126.815 -1.61465 -2.67087 0
M  V30 1385 N 127.117 1.15442 -1.07289 0
M  V30 1386 C 128.342 1.90638 -0.816828 0
M  V30 1387 C 128.767 1.77445 0.624083 0
M  V30 1388 O 128.125 1.10671 1.43602 0
M  V30 1389 C 128.173 3.39008 -1.22906 0
M  V30 1390 O 127.277 4.10701 -0.373975 0
M  V30 1391 H 126.618 0.593555 -0.297638 0
M  V30 1392 H 129.148 1.46198 -1.43134 0
M  V30 1393 H 129.158 3.89801 -1.20497 0
M  V30 1394 H 127.833 3.47929 -2.27856 0
M  V30 1395 H 126.41 3.70046 -0.460499 0
M  V30 1396 N 128.595 0.856903 1.32268 0
M  V30 1397 C 129.545 0.274899 2.26337 0
M  V30 1398 C 130.529 -0.580543 1.50062 0
M  V30 1399 O 131.721 -0.429559 1.71708 0
M  V30 1400 C 128.85 -0.533841 3.39124 0
M  V30 1401 C 127.936 0.334114 4.22782 0
M  V30 1402 N 128.327 1.42143 4.85416 0
M  V30 1403 C 126.625 0.124256 4.45827 0
M  V30 1404 C 127.326 1.95559 5.47843 0
M  V30 1405 N 126.302 1.25444 5.28928 0
M  V30 1406 H 130.104 1.10612 2.72291 0
M  V30 1407 H 127.618 0.703258 1.46383 0
M  V30 1408 H 129.615 -0.96722 4.05525 0
M  V30 1409 H 128.275 -1.36283 2.94715 0
M  V30 1410 H 129.286 1.80436 4.85451 0
M  V30 1411 H 125.963 -0.669837 4.12092 0
M  V30 1412 H 127.353 2.86714 6.07655 0
M  V30 1413 N 130.073 -1.45103 0.615059 0
M  V30 1414 C 131.321 -2.01784 0.112955 0
M  V30 1415 C 131.642 -1.48504 -1.26378 0
M  V30 1416 O 130.912 -0.682245 -1.83636 0
M  V30 1417 H 129.492 -0.745993 0.0387668 0
M  V30 1418 H 132.154 -1.77808 0.798141 0
M  V30 1419 H 131.25 -3.12025 0.0684069 0
M  V30 1420 N 131.551 -0.354651 -1.53558 0
M  V30 1421 C 132.461 0.50515 -2.29097 0
M  V30 1422 C 133.477 1.10223 -1.34636 0
M  V30 1423 O 134.653 1.11553 -1.67684 0
M  V30 1424 C 131.718 1.63479 -3.05738 0
M  V30 1425 C 130.779 1.06636 -4.15845 0
M  V30 1426 C 130.012 2.14217 -4.88822 0
M  V30 1427 O 130.235 3.35137 -4.61562 0
M  V30 1428 O 129.169 1.77887 -5.75013 0
M  V30 1429 H 132.995 -0.109237 -3.03503 0
M  V30 1430 H 130.58 -0.119357 -1.48922 0
M  V30 1431 H 132.462 2.2918 -3.5363 0
M  V30 1432 H 131.137 2.23478 -2.34178 0
M  V30 1433 H 130.044 0.373565 -3.7223 0
M  V30 1434 H 131.377 0.511081 -4.89539 0
M  V30 1435 N 133.029 1.57378 -0.0835403 0
M  V30 1436 C 134.306 1.85363 0.624507 0
M  V30 1437 C 134.686 0.978239 1.87066 0
M  V30 1438 O 134.034 0.0475908 2.2845 0
M  V30 1439 C 134.244 3.35795 0.950947 0
M  V30 1440 C 135.592 4.03581 1.31939 0
M  V30 1441 O 136.616 3.40609 1.04232 0
M  V30 1442 O 135.475 5.14672 1.83779 0
M  V30 1443 H 132.569 0.766162 0.311329 0
M  V30 1444 H 135.115 1.69307 -0.115362 0
M  V30 1445 H 133.887 3.91244 0.0663899 0
M  V30 1446 H 133.51 3.57154 1.74719 0
M  V30 1447 N 134.507 -0.190092 1.56449 0
M  V30 1448 C 135.755 -0.907908 1.80559 0
M  V30 1449 C 136.076 -1.83583 0.657438 0
M  V30 1450 O 135.346 -1.93203 -0.323924 0
M  V30 1451 H 133.926 -0.338247 0.666032 0
M  V30 1452 H 136.588 -0.194403 1.93928 0
M  V30 1453 H 135.684 -1.49604 2.73907 0
M  V30 1454 N 135.985 -1.50799 -0.457987 0
M  V30 1455 C 137.233 -1.62121 -1.2067 0
M  V30 1456 C 137.554 -0.329793 -1.92191 0
M  V30 1457 O 136.824 0.653409 -1.84682 0
M  V30 1458 H 135.404 -0.597441 -0.448411 0
M  V30 1459 H 138.066 -1.87637 -0.527096 0
M  V30 1460 H 137.162 -2.43882 -1.94751 0
M  V30 1461 N 137.463 0.71206 -1.40597 0
M  V30 1462 C 138.712 1.46754 -1.38369 0
M  V30 1463 C 139.025 1.95598 0.0097839 0
M  V30 1464 O 140.231 2.71059 0.154677 0
M  V30 1465 C 138.687 2.65289 -2.43207 0
M  V30 1466 C 138.295 2.23301 -3.88382 0
M  V30 1467 C 140.039 3.43008 -2.50091 0
M  V30 1468 C 137.946 3.38696 -4.84808 0
M  V30 1469 H 136.876 0.55118 -0.514506 0
M  V30 1470 H 139.527 0.774616 -1.66349 0
M  V30 1471 H 137.909 3.36769 -2.08332 0
M  V30 1472 H 139.083 1.59218 -4.32419 0
M  V30 1473 H 137.398 1.58618 -3.85006 0
M  V30 1474 H 139.995 4.28881 -3.1932 0
M  V30 1475 H 140.338 3.87065 -1.53253 0
M  V30 1476 H 140.871 2.78574 -2.83974 0
M  V30 1477 H 137.61 2.99668 -5.82992 0
M  V30 1478 H 137.13 4.01683 -4.45433 0
M  V30 1479 H 138.809 4.04712 -5.04794 0
M  V30 1480 N 138.941 1.26152 0.944643 0
M  V30 1481 C 139.851 1.09176 2.07648 0
M  V30 1482 C 140.867 0.0261935 1.7398 0
M  V30 1483 O 142.043 0.229208 2.00091 0
M  V30 1484 C 139.108 0.722915 3.39079 0
M  V30 1485 C 138.169 1.86752 3.86552 0
M  V30 1486 C 137.402 1.51617 5.11711 0
M  V30 1487 O 137.625 0.416331 5.68879 0
M  V30 1488 O 136.559 2.34975 5.54139 0
M  V30 1489 H 140.385 2.0412 2.24875 0
M  V30 1490 H 137.97 1.05182 1.061 0
M  V30 1491 H 139.852 0.529787 4.18056 0
M  V30 1492 H 138.527 -0.197159 3.23099 0
M  V30 1493 H 137.434 2.11558 3.08535 0
M  V30 1494 H 138.767 2.76719 4.07047 0
M  V30 1495 N 140.419 -1.14872 1.07899 0
M  V30 1496 C 141.382 -2.17986 0.708161 0
M  V30 1497 C 142.382 -1.58775 -0.25442 0
M  V30 1498 O 143.572 -1.74166 -0.034645 0
M  V30 1499 C 140.704 -3.40871 0.0446929 0
M  V30 1500 H 141.897 -2.52306 1.62116 0
M  V30 1501 H 139.45 -1.2943 0.876218 0
M  V30 1502 H 140.185 -3.12124 -0.880281 0
M  V30 1503 H 139.97 -3.8511 0.737091 0
M  V30 1504 H 141.46 -4.17121 -0.19991 0
M  V30 1505 N 141.898 -0.863906 -1.31812 0
M  V30 1506 C 143.144 -0.481841 -1.9761 0
M  V30 1507 C 143.499 0.954048 -1.6708 0
M  V30 1508 O 142.792 1.66182 -0.953624 0
M  V30 1509 C 142.986 -0.668547 -3.51091 0
M  V30 1510 C 142.815 -2.12103 -3.96538 0
M  V30 1511 C 141.585 -2.76141 -4.23171 0
M  V30 1512 C 143.783 -3.09265 -4.10925 0
M  V30 1513 N 141.765 -4.12205 -4.54929 0
M  V30 1514 C 143.136 -4.30341 -4.46326 0
M  V30 1515 C 145.191 -3.05337 -3.93286 0
M  V30 1516 C 143.894 -5.48 -4.65928 0
M  V30 1517 C 145.92 -4.22248 -4.14078 0
M  V30 1518 C 145.282 -5.42085 -4.49804 0
M  V30 1519 H 141.381 -0.225238 -0.74886 0
M  V30 1520 H 143.965 -1.11723 -1.59455 0
M  V30 1521 H 142.136 -0.0627898 -3.88349 0
M  V30 1522 H 143.868 -0.255467 -4.03893 0
M  V30 1523 H 140.623 -2.27125 -4.15585 0
M  V30 1524 H 141.047 -4.82416 -4.74978 0
M  V30 1525 H 145.689 -2.138 -3.64759 0
M  V30 1526 H 143.407 -6.40059 -4.93305 0
M  V30 1527 H 146.993 -4.20654 -4.01922 0
M  V30 1528 H 145.873 -6.31044 -4.65567 0
M  V30 1529 N 143.376 1.44774 -0.622745 0
M  V30 1530 C 144.306 2.33382 0.0741861 0
M  V30 1531 C 145.287 1.47719 0.843387 0
M  V30 1532 O 146.472 1.76458 0.810934 0
M  V30 1533 C 143.602 3.30663 1.06204 0
M  V30 1534 C 142.556 4.26079 0.405037 0
M  V30 1535 C 141.882 5.13165 1.5022 0
M  V30 1536 C 143.182 5.1781 -0.683414 0
M  V30 1537 H 144.876 2.91905 -0.665713 0
M  V30 1538 H 142.422 1.40363 -0.321587 0
M  V30 1539 H 144.375 3.9153 1.55827 0
M  V30 1540 H 143.099 2.70331 1.83272 0
M  V30 1541 H 141.758 3.66532 -0.0704683 0
M  V30 1542 H 141.406 4.49191 2.26355 0
M  V30 1543 H 141.106 5.77812 1.06803 0
M  V30 1544 H 142.63 5.76902 2.00041 0
M  V30 1545 H 144.044 5.72661 -0.270631 0
M  V30 1546 H 142.441 5.91015 -1.04023 0
M  V30 1547 H 143.511 4.59326 -1.55395 0
M  V30 1548 N 144.854 0.36279 1.53368 0
M  V30 1549 C 146.27 0.0116182 1.59596 0
M  V30 1550 C 146.47 -1.47012 1.37803 0
M  V30 1551 O 145.526 -2.23136 1.18181 0
M  V30 1552 C 146.839 0.465052 2.97082 0
M  V30 1553 C 148.387 0.419033 3.10182 0
M  V30 1554 C 148.862 0.848235 4.50077 0
M  V30 1555 N 150.353 0.803183 4.56183 0
M  V30 1556 C 151.088 1.107 5.62613 0
M  V30 1557 N 150.584 1.47996 6.76808 0
M  V30 1558 N 152.377 1.02998 5.52583 0
M  V30 1559 H 144.528 1.32775 1.65785 0
M  V30 1560 H 146.791 0.542518 0.777417 0
M  V30 1561 H 146.497 1.49892 3.18159 0
M  V30 1562 H 146.371 -0.149786 3.76902 0
M  V30 1563 H 148.758 -0.605696 2.88817 0
M  V30 1564 H 148.839 1.06933 2.32377 0
M  V30 1565 H 148.483 1.87107 4.7218 0
M  V30 1566 H 148.413 0.175218 5.26308 0
M  V30 1567 H 150.904 0.52838 3.74188 0
M  V30 1568 H 151.217 1.69613 7.53957 0
M  V30 1569 H 149.562 1.51859 6.78206 0
M  V30 1570 H 152.753 0.737817 4.62249 0
M  V30 1571 H 152.926 1.2701 6.35431 0
M  V30 1572 N 146.332 -1.57332 0.0918853 0
M  V30 1573 C 147.262 -2.16872 -0.865371 0
M  V30 1574 C 148.243 -1.10118 -1.29646 0
M  V30 1575 O 149.428 -1.38242 -1.36392 0
M  V30 1576 C 146.558 -2.74649 -2.12569 0
M  V30 1577 C 145.512 -3.86747 -1.83333 0
M  V30 1578 C 144.838 -4.31212 -3.16166 0
M  V30 1579 C 146.138 -5.10089 -1.1228 0
M  V30 1580 H 147.832 -2.97114 -0.369307 0
M  V30 1581 H 145.378 -1.42918 -0.176194 0
M  V30 1582 H 147.331 -3.14952 -2.7997 0
M  V30 1583 H 146.055 -1.91657 -2.64452 0
M  V30 1584 H 144.714 -3.46978 -1.18331 0
M  V30 1585 H 144.362 -3.45115 -3.6593 0
M  V30 1586 H 144.062 -5.06788 -2.97388 0
M  V30 1587 H 145.586 -4.74146 -3.84731 0
M  V30 1588 H 147 -5.47582 -1.69785 0
M  V30 1589 H 145.397 -5.91073 -1.03693 0
M  V30 1590 H 146.467 -4.84786 -0.105041 0
M  V30 1591 N 147.81 0.181792 -1.56548 0
M  V30 1592 C 149.058 0.89832 -1.81038 0
M  V30 1593 C 149.379 1.83232 -0.667164 0
M  V30 1594 O 148.649 1.93372 0.313673 0
M  V30 1595 H 147.229 0.33471 -0.667816 0
M  V30 1596 H 149.891 0.184116 -1.94028 0
M  V30 1597 H 148.987 1.4815 -2.74696 0
M  V30 1598 N 149.288 1.51039 0.449983 0
M  V30 1599 C 150.198 1.74261 1.57067 0
M  V30 1600 C 151.214 0.626363 1.62335 0
M  V30 1601 O 152.39 0.907162 1.79812 0
M  V30 1602 C 149.455 1.85114 2.93144 0
M  V30 1603 C 148.516 3.0893 2.98095 0
M  V30 1604 C 147.749 3.19256 4.27681 0
M  V30 1605 O 147.972 2.35835 5.19363 0
M  V30 1606 O 146.906 4.12144 4.38658 0
M  V30 1607 H 150.732 2.69303 1.40391 0
M  V30 1608 H 148.317 1.35389 0.631688 0
M  V30 1609 H 150.199 1.94311 3.73926 0
M  V30 1610 H 148.874 0.932588 3.09975 0
M  V30 1611 H 147.781 3.0522 2.16314 0
M  V30 1612 H 149.114 4.00433 2.86206 0
M  V30 1613 N 150.766 -0.704594 1.40972 0
M  V30 1614 C 151.729 -1.80035 1.41845 0
M  V30 1615 C 152.729 -1.57774 0.310474 0
M  V30 1616 O 153.919 -1.64613 0.56992 0
M  V30 1617 C 151.051 -3.18284 1.22098 0
M  V30 1618 H 152.244 -1.80658 2.3938 0
M  V30 1619 H 149.797 -0.911329 1.26982 0
M  V30 1620 H 150.532 -3.23306 0.253672 0
M  V30 1621 H 150.317 -3.35843 2.02366 0
M  V30 1622 H 151.807 -3.98289 1.25522 0
M  V30 1623 N 152.244 -1.26651 -0.937939 0
M  V30 1624 C 153.49 -1.12553 -1.687 0
M  V30 1625 C 153.823 0.329782 -1.91379 0
M  V30 1626 O 153.098 1.24202 -1.4968 0
M  V30 1627 C 153.381 -1.89862 -3.05981 0
M  V30 1628 C 153.234 -3.43318 -2.90607 0
M  V30 1629 C 154.553 -1.69499 -4.0615 0
M  V30 1630 H 151.672 -0.410257 -0.612257 0
M  V30 1631 H 154.314 -1.55685 -1.08913 0
M  V30 1632 H 152.464 -1.53204 -3.57017 0
M  V30 1633 H 154.136 -3.89747 -2.46769 0
M  V30 1634 H 152.379 -3.70179 -2.26164 0
M  V30 1635 H 153.05 -3.92642 -3.8799 0
M  V30 1636 H 155.526 -2.01442 -3.64088 0
M  V30 1637 H 154.402 -2.26002 -5.00214 0
M  V30 1638 H 154.663 -0.640365 -4.37438 0
M  V30 1639 N 153.722 1.14298 -1.08507 0
M  V30 1640 C 154.97 1.84993 -0.813763 0
M  V30 1641 C 155.291 1.83405 0.662393 0
M  V30 1642 O 154.561 1.28319 1.48024 0
M  V30 1643 H 153.141 0.684966 -0.298045 0
M  V30 1644 H 155.803 1.385 -1.37126 0
M  V30 1645 H 154.899 2.89788 -1.15884 0
M  V30 1646 N 155.201 0.870884 1.31352 0
M  V30 1647 C 156.131 0.343096 2.30966 0
M  V30 1648 C 157.112 -0.566507 1.60389 0
M  V30 1649 O 158.297 -0.483336 1.88089 0
M  V30 1650 C 155.427 -0.455487 3.443 0
M  V30 1651 C 154.381 0.361103 4.26474 0
M  V30 1652 C 153.707 -0.563221 5.31725 0
M  V30 1653 C 155.007 1.59566 4.97329 0
M  V30 1654 H 156.701 1.17548 2.75359 0
M  V30 1655 H 154.247 0.566686 1.32381 0
M  V30 1656 H 156.2 -0.83525 4.13039 0
M  V30 1657 H 154.924 -1.32139 2.98675 0
M  V30 1658 H 153.583 0.722825 3.59403 0
M  V30 1659 H 153.231 -1.42643 4.82351 0
M  V30 1660 H 152.931 -0.0207409 5.87596 0
M  V30 1661 H 154.455 -0.939808 6.03324 0
M  V30 1662 H 155.869 1.28728 5.58661 0
M  V30 1663 H 154.266 2.07728 5.63 0
M  V30 1664 H 155.336 2.34798 4.24262 0
M  V30 1665 N 156.679 -1.44442 0.630414 0
M  V30 1666 C 157.904 -2.06927 0.139944 0
M  V30 1667 C 158.329 -1.46795 -1.17613 0
M  V30 1668 O 157.687 -0.569144 -1.72135 0
M  V30 1669 C 157.735 -3.6058 0.0379581 0
M  V30 1670 O 156.839 -3.99937 -1.0062 0
M  V30 1671 H 156.18 -0.658608 0.0844483 0
M  V30 1672 H 158.71 -1.85327 0.866891 0
M  V30 1673 H 158.72 -4.07714 -0.152856 0
M  V30 1674 H 157.395 -4.03728 0.998809 0
M  V30 1675 H 155.972 -3.64436 -0.79001 0
M  V30 1676 N 158.157 -0.370918 -1.53173 0
M  V30 1677 C 159.573 -0.0200818 -1.59587 0
M  V30 1678 C 159.773 1.46279 -1.38581 0
M  V30 1679 O 158.829 2.22506 -1.19363 0
M  V30 1680 C 160.142 -0.4808 -2.96831 0
M  V30 1681 C 161.69 -0.435477 -3.09956 0
M  V30 1682 C 162.165 -0.872092 -4.4962 0
M  V30 1683 N 163.656 -0.827364 -4.55751 0
M  V30 1684 C 164.391 -1.13683 -5.62018 0
M  V30 1685 N 163.887 -1.51584 -6.76014 0
M  V30 1686 N 165.68 -1.05927 -5.52029 0
M  V30 1687 H 157.831 -1.33652 -1.65079 0
M  V30 1688 H 160.094 -0.546634 -0.774529 0
M  V30 1689 H 159.8 -1.51577 -3.1736 0
M  V30 1690 H 159.674 0.129796 -3.76977 0
M  V30 1691 H 162.061 0.590371 -2.89134 0
M  V30 1692 H 162.142 -1.08164 -2.31806 0
M  V30 1693 H 161.786 -1.89608 -4.71181 0
M  V30 1694 H 161.716 -0.203127 -5.26208 0
M  V30 1695 H 164.207 -0.548216 -3.73902 0
M  V30 1696 H 164.52 -1.73609 -7.53047 0
M  V30 1697 H 162.865 -1.55454 -6.77391 0
M  V30 1698 H 166.056 -0.762321 -4.61851 0
M  V30 1699 H 166.229 -1.30378 -6.34749 0
M  V30 1700 N 159.635 1.57281 -0.100228 0
M  V30 1701 C 160.912 1.86014 0.604812 0
M  V30 1702 C 161.292 0.998025 1.86018 0
M  V30 1703 O 160.64 0.0718184 2.28387 0
M  V30 1704 C 160.85 3.36784 0.915278 0
M  V30 1705 C 162.198 4.04957 1.27651 0
M  V30 1706 O 163.222 3.41695 1.00613 0
M  V30 1707 O 162.081 5.16593 1.7831 0
M  V30 1708 H 159.175 0.76942 0.303185 0
M  V30 1709 H 161.721 1.69176 -0.133313 0
M  V30 1710 H 160.493 3.91292 0.0248896 0
M  V30 1711 H 160.116 3.58987 1.70921 0
M  V30 1712 N 161.113 -0.173488 1.56642 0
M  V30 1713 C 162.39 -0.917617 1.7274 0
M  V30 1714 C 162.77 -2.00484 0.661027 0
M  V30 1715 O 162.118 -2.26184 -0.32453 0
M  V30 1716 C 162.328 -1.48433 3.15862 0
M  V30 1717 C 163.676 -1.95809 3.76754 0
M  V30 1718 O 164.7 -1.58231 3.19126 0
M  V30 1719 O 163.559 -2.65024 4.77938 0
M  V30 1720 H 160.653 -0.431772 0.705338 0
M  V30 1721 H 163.199 -0.161487 1.6893 0
M  V30 1722 H 161.971 -0.701715 3.84957 0
M  V30 1723 H 161.594 -2.30471 3.23989 0
M  V30 1724 N 162.591 -1.51276 -0.441967 0
M  V30 1725 C 163.521 -1.752 -1.54361 0
M  V30 1726 C 164.502 -0.601682 -1.59103 0
M  V30 1727 O 165.687 -0.843913 -1.74905 0
M  V30 1728 C 162.817 -1.87282 -2.92477 0
M  V30 1729 C 161.771 -3.02687 -3.02596 0
M  V30 1730 C 161.097 -2.99947 -4.42647 0
M  V30 1731 C 162.397 -4.4273 -2.77106 0
M  V30 1732 H 164.091 -2.67442 -1.34592 0
M  V30 1733 H 161.637 -1.28694 -0.646048 0
M  V30 1734 H 163.59 -2.02602 -3.695 0
M  V30 1735 H 162.314 -0.916844 -3.13467 0
M  V30 1736 H 160.973 -2.87065 -2.28012 0
M  V30 1737 H 160.621 -2.02136 -4.60597 0
M  V30 1738 H 160.321 -3.77439 -4.50348 0
M  V30 1739 H 161.845 -3.17354 -5.2165 0
M  V30 1740 H 163.259 -4.58727 -3.43864 0
M  V30 1741 H 161.656 -5.21893 -2.96222 0
M  V30 1742 H 162.726 -4.53087 -1.72744 0
M  V30 1743 N 164.069 0.697108 -1.41344 0
M  V30 1744 C 164.999 1.82353 -1.45841 0
M  V30 1745 C 165.98 1.67115 -0.317247 0
M  V30 1746 O 167.165 1.86871 -0.528474 0
M  V30 1747 C 164.295 3.20476 -1.33838 0
M  V30 1748 C 163.249 3.50415 -2.4575 0
M  V30 1749 C 162.575 4.87878 -2.18813 0
M  V30 1750 C 163.875 3.49546 -3.88091 0
M  V30 1751 H 165.569 1.78846 -2.40113 0
M  V30 1752 H 163.115 0.859028 -1.15571 0
M  V30 1753 H 165.068 3.98988 -1.35596 0
M  V30 1754 H 163.792 3.24604 -0.360498 0
M  V30 1755 H 162.451 2.74253 -2.43271 0
M  V30 1756 H 162.099 4.8863 -1.19371 0
M  V30 1757 H 161.799 5.08875 -2.93803 0
M  V30 1758 H 163.323 5.68702 -2.22284 0
M  V30 1759 H 164.737 4.18066 -3.92293 0
M  V30 1760 H 163.134 3.82075 -4.62751 0
M  V30 1761 H 164.204 2.48552 -4.16353 0
M  V30 1762 N 165.547 1.27147 0.931209 0
M  V30 1763 C 166.772 1.16191 1.71797 0
M  V30 1764 C 167.197 -0.278004 1.86034 0
M  V30 1765 O 166.555 -1.20137 1.35782 0
M  V30 1766 C 166.603 1.84673 3.09723 0
M  V30 1767 O 165.707 1.14231 3.96264 0
M  V30 1768 H 165.048 0.404303 0.526721 0
M  V30 1769 H 167.578 1.68152 1.1656 0
M  V30 1770 H 167.588 1.91893 3.60057 0
M  V30 1771 H 166.263 2.89421 2.98677 0
M  V30 1772 H 164.84 1.15056 3.54706 0
M  V30 1773 N 167.025 -1.13721 1.09112 0
M  V30 1774 C 167.935 -2.22638 0.73957 0
M  V30 1775 C 168.951 -1.72091 -0.257068 0
M  V30 1776 O 170.127 -2.01155 -0.0992154 0
M  V30 1777 C 167.192 -3.46322 0.16191 0
M  V30 1778 C 166.253 -4.11775 1.21408 0
M  V30 1779 C 165.486 -5.29555 0.663891 0
M  V30 1780 O 165.709 -5.68077 -0.514274 0
M  V30 1781 O 164.643 -5.84973 1.41738 0
M  V30 1782 H 168.469 -2.55074 1.64836 0
M  V30 1783 H 166.054 -1.21791 0.865289 0
M  V30 1784 H 167.936 -4.21107 -0.157073 0
M  V30 1785 H 166.611 -3.15593 -0.719932 0
M  V30 1786 H 165.518 -3.3883 1.58571 0
M  V30 1787 H 166.851 -4.46627 2.06845 0
M  V30 1788 N 168.503 -0.877838 -1.30888 0
M  V30 1789 C 169.919 -0.570844 -1.49042 0
M  V30 1790 C 170.119 0.893159 -1.80624 0
M  V30 1791 O 169.175 1.67485 -1.88958 0
M  V30 1792 C 170.488 -1.47784 -2.61878 0
M  V30 1793 C 172.036 -1.48071 -2.75761 0
M  V30 1794 C 172.511 -2.37347 -3.91702 0
M  V30 1795 N 174.002 -2.35271 -3.99001 0
M  V30 1796 C 174.737 -3.01063 -4.88004 0
M  V30 1797 N 174.233 -3.76055 -5.81854 0
M  V30 1798 N 176.026 -2.90332 -4.81315 0
M  V30 1799 H 168.177 -1.82502 -1.0866 0
M  V30 1800 H 170.44 -0.780797 -0.537644 0
M  V30 1801 H 170.146 -2.51993 -2.45341 0
M  V30 1802 H 170.02 -1.18215 -3.58197 0
M  V30 1803 H 172.407 -0.446166 -2.91708 0
M  V30 1804 H 172.488 -1.81668 -1.80085 0
M  V30 1805 H 172.132 -3.40883 -3.76512 0
M  V30 1806 H 172.062 -2.01071 -4.86701 0
M  V30 1807 H 174.553 -1.80768 -3.3186 0
M  V30 1808 H 174.866 -4.23366 -6.46514 0
M  V30 1809 H 173.211 -3.80163 -5.81808 0
M  V30 1810 H 176.402 -2.31278 -4.06974 0
M  V30 1811 H 176.575 -3.41885 -5.50471 0
M  V30 1812 N 169.982 1.44106 -0.638065 0
M  V30 1813 C 170.932 2.27843 0.0847285 0
M  V30 1814 C 171.916 1.39055 0.809471 0
M  V30 1815 O 173.108 1.62808 0.694435 0
M  V30 1816 C 170.237 3.26497 1.06089 0
M  V30 1817 C 169.323 4.22772 0.33541 0
M  V30 1818 N 169.714 5.01737 -0.639787 0
M  V30 1819 C 168.012 4.42227 0.578921 0
M  V30 1820 C 168.713 5.71792 -1.06904 0
M  V30 1821 N 167.689 5.42079 -0.406395 0
M  V30 1822 H 171.491 2.86305 -0.663814 0
M  V30 1823 H 169.005 1.55627 -0.464122 0
M  V30 1824 H 171.002 3.8525 1.59337 0
M  V30 1825 H 169.662 2.69595 1.80966 0
M  V30 1826 H 170.673 5.07799 -1.01789 0
M  V30 1827 H 167.35 3.96415 1.31003 0
M  V30 1828 H 168.74 6.45205 -1.8751 0
M  V30 1829 N 171.46 0.379036 1.52974 0
M  V30 1830 C 172.706 -0.206727 2.01744 0
M  V30 1831 C 173.039 -1.47314 1.26539 0
M  V30 1832 O 172.314 -1.91084 0.362903 0
M  V30 1833 C 172.597 -0.485066 3.56818 0
M  V30 1834 C 172.45 0.795919 4.42702 0
M  V30 1835 C 173.769 -1.28003 4.21074 0
M  V30 1836 H 170.888 -0.0736607 0.73331 0
M  V30 1837 H 173.53 0.506581 1.83122 0
M  V30 1838 H 171.68 -1.09272 3.72816 0
M  V30 1839 H 173.352 1.43307 4.38476 0
M  V30 1840 H 171.595 1.41344 4.10127 0
M  V30 1841 H 172.266 0.555947 5.49193 0
M  V30 1842 H 174.742 -0.765867 4.08991 0
M  V30 1843 H 173.618 -1.44352 5.29579 0
M  V30 1844 H 173.879 -2.29236 3.78026 0
M  V30 1845 N 172.938 -1.57226 0.108567 0
M  V30 1846 C 173.868 -2.17778 -0.84232 0
M  V30 1847 C 174.849 -1.11487 -1.2847 0
M  V30 1848 O 176.034 -1.39681 -1.34918 0
M  V30 1849 C 173.164 -2.76888 -2.09644 0
M  V30 1850 C 172.118 -3.88669 -1.79221 0
M  V30 1851 C 171.444 -4.34541 -3.11574 0
M  V30 1852 C 172.744 -5.11251 -1.06864 0
M  V30 1853 H 174.438 -2.97489 -0.337774 0
M  V30 1854 H 171.984 -1.43097 -0.161025 0
M  V30 1855 H 173.937 -3.17904 -2.76614 0
M  V30 1856 H 172.661 -1.94451 -2.62405 0
M  V30 1857 H 171.32 -3.48213 -1.14644 0
M  V30 1858 H 170.968 -3.48977 -3.62249 0
M  V30 1859 H 170.668 -5.09914 -2.91996 0
M  V30 1860 H 172.192 -4.782 -3.7968 0
M  V30 1861 H 173.606 -5.49352 -1.63968 0
M  V30 1862 H 172.003 -5.9214 -0.974178 0
M  V30 1863 H 173.073 -4.8487 -0.0536168 0
M  V30 1864 N 174.416 0.165178 -1.56732 0
M  V30 1865 C 175.827 0.727046 -1.71962 0
M  V30 1866 C 176.178 1.82508 -0.720078 0
M  V30 1867 O 175.303 2.16082 0.117242 0
M  V30 1868 C 175.898 1.32559 -3.11791 0
M  V30 1869 C 174.457 1.83422 -3.28684 0
M  V30 1870 C 173.604 0.715567 -2.67908 0
M  V30 1871 H 176.555 -0.0602896 -1.58585 0
M  V30 1872 H 176.576 2.19533 -3.10782 0
M  V30 1873 H 176.088 0.526195 -3.84516 0
M  V30 1874 H 174.189 2.65986 -2.60926 0
M  V30 1875 H 174.302 1.97543 -4.36478 0
M  V30 1876 H 172.666 1.13758 -2.27884 0
M  V30 1877 H 173.449 -0.0720836 -3.43224 0
M  V30 1878 N 175.894 1.51508 0.433938 0
M  V30 1879 C 177.142 1.6402 1.18075 0
M  V30 1880 C 177.463 0.360328 1.91642 0
M  V30 1881 O 176.733 -0.623945 1.85698 0
M  V30 1882 H 175.313 0.6045 0.43885 0
M  V30 1883 H 177.975 1.88452 0.497178 0
M  V30 1884 H 177.071 2.46949 1.90847 0
M  V30 1885 N 177.372 -0.689602 1.41712 0
M  V30 1886 C 178.618 -1.45181 1.41599 0
M  V30 1887 C 178.951 -1.94181 0.0270081 0
M  V30 1888 O 178.226 -1.6993 -0.946265 0
M  V30 1889 C 178.509 -2.65945 2.42787 0
M  V30 1890 C 178.362 -2.22672 3.90816 0
M  V30 1891 C 179.681 -3.68149 2.41151 0
M  V30 1892 H 176.8 -0.526576 0.515642 0
M  V30 1893 H 179.442 -0.784947 1.73028 0
M  V30 1894 H 177.592 -3.2284 2.16116 0
M  V30 1895 H 179.264 -1.71058 4.28412 0
M  V30 1896 H 177.507 -1.54394 4.05395 0
M  V30 1897 H 178.178 -3.0935 4.57172 0
M  V30 1898 H 180.654 -3.2094 2.64834 0
M  V30 1899 H 179.53 -4.50248 3.13955 0
M  V30 1900 H 179.791 -4.18259 1.43221 0
M  V30 1901 N 178.85 -1.27639 -0.924453 0
M  V30 1902 C 180.266 -1.05113 -1.20097 0
M  V30 1903 C 180.466 0.213262 -2.00368 0
M  V30 1904 O 179.522 0.91787 -2.35226 0
M  V30 1905 C 180.835 -2.29244 -1.94596 0
M  V30 1906 C 182.383 -2.34315 -2.07522 0
M  V30 1907 C 182.858 -3.58183 -2.85427 0
M  V30 1908 N 184.349 -3.5876 -2.92994 0
M  V30 1909 C 185.084 -4.51277 -3.53746 0
M  V30 1910 N 184.58 -5.54102 -4.15863 0
M  V30 1911 N 186.373 -4.38894 -3.51181 0
M  V30 1912 H 178.524 -2.08821 -0.388264 0
M  V30 1913 H 180.787 -0.918568 -0.234385 0
M  V30 1914 H 180.493 -3.21301 -1.43034 0
M  V30 1915 H 180.367 -2.34816 -2.95197 0
M  V30 1916 H 182.754 -1.42762 -2.58269 0
M  V30 1917 H 182.835 -2.32744 -1.06131 0
M  V30 1918 H 182.479 -4.50074 -2.35363 0
M  V30 1919 H 182.409 -3.57006 -3.8711 0
M  V30 1920 H 184.9 -2.84398 -2.4885 0
M  V30 1921 H 185.213 -6.20859 -4.60168 0
M  V30 1922 H 183.558 -5.57941 -4.144 0
M  V30 1923 H 186.749 -3.57772 -3.01856 0
M  V30 1924 H 186.922 -5.11186 -3.98237 0
M  V30 1925 N 180.328 1.1314 -1.09713 0
M  V30 1926 C 181.575 1.84484 -0.834987 0
M  V30 1927 C 181.903 1.83689 0.639418 0
M  V30 1928 O 181.158 1.2724 1.4869 0
M  V30 1929 C 181.457 3.32167 -1.3191 0
M  V30 1930 C 181.123 3.53139 -2.80363 0
M  V30 1931 C 179.785 3.58571 -3.20905 0
M  V30 1932 C 182.137 3.60866 -3.76065 0
M  V30 1933 C 179.465 3.69267 -4.55916 0
M  V30 1934 C 181.817 3.73089 -5.10869 0
M  V30 1935 C 180.481 3.76775 -5.50996 0
M  V30 1936 H 179.751 0.675073 -0.305544 0
M  V30 1937 H 182.398 1.33554 -1.37243 0
M  V30 1938 H 180.703 3.85469 -0.701517 0
M  V30 1939 H 182.4 3.85821 -1.09284 0
M  V30 1940 H 178.99 3.49569 -2.47991 0
M  V30 1941 H 183.174 3.55946 -3.45855 0
M  V30 1942 H 178.43 3.70388 -4.86438 0
M  V30 1943 H 182.604 3.78011 -5.84877 0
M  V30 1944 H 180.231 3.84815 -6.55608 0
M  V30 1945 N 181.806 0.884767 1.30421 0
M  V30 1946 C 182.769 0.356277 2.26414 0
M  V30 1947 C 183.769 -0.501124 1.52792 0
M  V30 1948 O 184.959 -0.30831 1.7145 0
M  V30 1949 C 182.091 -0.492316 3.37326 0
M  V30 1950 H 183.284 1.20389 2.74675 0
M  V30 1951 H 180.837 0.661607 1.41607 0
M  V30 1952 H 181.572 -1.36052 2.94381 0
M  V30 1953 H 181.357 0.121832 3.91911 0
M  V30 1954 H 182.847 -0.853871 4.08777 0
M  V30 1955 N 183.284 -1.43765 0.645699 0
M  V30 1956 C 184.53 -2.02197 0.156271 0
M  V30 1957 C 184.863 -1.50776 -1.22393 0
M  V30 1958 O 184.138 -0.697771 -1.81553 0
M  V30 1959 C 184.421 -3.59749 0.158872 0
M  V30 1960 C 184.274 -4.21419 1.57245 0
M  V30 1961 C 185.593 -4.37149 -0.50879 0
M  V30 1962 H 182.712 -0.734694 0.0582602 0
M  V30 1963 H 185.354 -1.71157 0.824951 0
M  V30 1964 H 183.504 -3.86325 -0.410525 0
M  V30 1965 H 185.176 -4.059 2.19186 0
M  V30 1966 H 183.419 -3.78356 2.122 0
M  V30 1967 H 184.09 -5.30482 1.52619 0
M  V30 1968 H 186.566 -4.16093 -0.024412 0
M  V30 1969 H 185.442 -5.4683 -0.476213 0
M  V30 1970 H 185.703 -4.12839 -1.58165 0
M  V30 1971 N 184.763 -0.387143 -1.52771 0
M  V30 1972 C 186.04 0.253197 -1.93954 0
M  V30 1973 C 186.42 1.64545 -1.32243 0
M  V30 1974 O 185.768 2.23191 -0.489699 0
M  V30 1975 C 185.978 0.281722 -3.47861 0
M  V30 1976 C 187.326 0.511715 -4.21505 0
M  V30 1977 O 188.35 0.362023 -3.54356 0
M  V30 1978 O 187.209 0.804847 -5.40541 0
M  V30 1979 H 184.303 0.156845 -0.811991 0
M  V30 1980 H 186.849 -0.441494 -1.63856 0
M  V30 1981 H 185.621 -0.693571 -3.85104 0
M  V30 1982 H 185.244 1.02142 -3.84256 0
M  V30 1983 N 186.241 1.57166 -0.116904 0
M  V30 1984 C 187.204 2.14039 0.819742 0
M  V30 1985 C 188.204 1.07477 1.19605 0
M  V30 1986 O 189.394 1.33263 1.1219 0
M  V30 1987 C 186.526 2.67891 2.10826 0
M  V30 1988 H 187.719 2.98128 0.325511 0
M  V30 1989 H 185.272 1.55739 0.132312 0
M  V30 1990 H 186.007 1.87384 2.64685 0
M  V30 1991 H 185.792 3.45823 1.84793 0
M  V30 1992 H 187.282 3.11809 2.77785 0
M  V30 1993 N 187.719 -0.156864 1.56817 0
M  V30 1994 C 188.949 -0.885031 1.86684 0
M  V30 1995 C 189.357 -1.75696 0.701954 0
M  V30 1996 O 188.7 -1.80569 -0.337732 0
M  V30 1997 C 188.762 -1.80092 3.11138 0
M  V30 1998 C 188.426 -1.10714 4.43386 0
M  V30 1999 C 189.423 -0.465714 5.1781 0
M  V30 2000 C 187.108 -1.09959 4.90117 0
M  V30 2001 C 189.102 0.174002 6.37162 0
M  V30 2002 C 186.789 -0.456055 6.09396 0
M  V30 2003 C 187.787 0.179622 6.82764 0
M  V30 2004 O 187.475 0.812975 7.99779 0
M  V30 2005 H 187.207 -0.261813 0.623242 0
M  V30 2006 H 189.761 -0.157383 2.04796 0
M  V30 2007 H 187.991 -2.56926 2.89009 0
M  V30 2008 H 189.68 -2.40018 3.27332 0
M  V30 2009 H 190.446 -0.463427 4.82781 0
M  V30 2010 H 186.325 -1.58378 4.3294 0
M  V30 2011 H 189.869 0.670765 6.94368 0
M  V30 2012 H 185.766 -0.455975 6.43888 0
M  V30 2013 H 186.534 0.71366 8.15383 0
M  V30 2014 N 189.197 -1.51736 -0.425897 0
M  V30 2015 C 190.127 -1.76827 -1.52494 0
M  V30 2016 C 191.108 -0.618524 -1.58456 0
M  V30 2017 O 192.293 -0.862416 -1.74 0
M  V30 2018 C 189.423 -1.90374 -2.90474 0
M  V30 2019 C 188.377 -3.0588 -2.99369 0
M  V30 2020 C 187.703 -3.04625 -4.3944 0
M  V30 2021 C 189.003 -4.45644 -2.72394 0
M  V30 2022 H 190.697 -2.68855 -1.31748 0
M  V30 2023 H 188.243 -1.29372 -0.632362 0
M  V30 2024 H 190.196 -2.0651 -3.6733 0
M  V30 2025 H 188.92 -0.95004 -3.12477 0
M  V30 2026 H 187.579 -2.89467 -2.24954 0
M  V30 2027 H 187.227 -2.0701 -4.58428 0
M  V30 2028 H 186.927 -3.82195 -4.46319 0
M  V30 2029 H 188.451 -3.22869 -5.18255 0
M  V30 2030 H 189.865 -4.62348 -3.38979 0
M  V30 2031 H 188.262 -5.25006 -2.9067 0
M  V30 2032 H 189.332 -4.54893 -1.67929 0
M  V30 2033 N 190.675 0.682077 -1.42076 0
M  V30 2034 C 191.623 1.81707 -1.45208 0
M  V30 2035 C 192.617 1.66183 -0.328591 0
M  V30 2036 O 193.823 1.7288 -0.501264 0
M  V30 2037 H 190.198 0.599014 -0.454628 0
M  V30 2038 H 192.169 1.76183 -2.40836 0
M  V30 2039 C 190.918 3.19816 -1.36428 0
M  V30 2040 H 190.241 3.32385 -2.22171 0
M  V30 2041 H 191.681 3.99272 -1.42681 0
M  V30 2042 C 190.14 3.36809 -0.078191 0
M  V30 2043 O 190.67 3.92124 0.87188 0
M  V30 2044 N 188.876 2.906 0.00229266 0
M  V30 2045 H 188.423 2.45772 -0.771616 0
M  V30 2046 H 188.381 3.02347 0.862179 0
M  V30 2047 N 192.153 1.28127 0.917671 0
M  V30 2048 C 193.4 1.15052 1.66641 0
M  V30 2049 C 193.728 -0.301677 1.92146 0
M  V30 2050 O 192.983 -1.23622 1.51711 0
M  V30 2051 C 193.282 1.89018 3.03327 0
M  V30 2052 C 192.948 3.38832 2.97496 0
M  V30 2053 C 191.61 3.79693 2.95613 0
M  V30 2054 C 193.962 4.34378 2.88036 0
M  V30 2055 C 191.29 5.14447 2.82066 0
M  V30 2056 C 193.642 5.69201 2.7603 0
M  V30 2057 C 192.306 6.09343 2.72502 0
M  V30 2058 H 191.576 0.421006 0.609783 0
M  V30 2059 H 194.223 1.58855 1.06945 0
M  V30 2060 H 192.528 1.37752 3.66785 0
M  V30 2061 H 194.225 1.76321 3.60156 0
M  V30 2062 H 190.815 3.06342 2.99754 0
M  V30 2063 H 194.999 4.03775 2.88581 0
M  V30 2064 H 190.255 5.44681 2.77728 0
M  V30 2065 H 194.429 6.42901 2.67678 0
M  V30 2066 H 192.056 7.13712 2.61762 0
M  V30 2067 N 193.631 -1.12557 1.10312 0
M  V30 2068 C 194.594 -2.16434 0.75424 0
M  V30 2069 C 195.594 -1.59278 -0.220685 0
M  V30 2070 O 196.784 -1.742 0.00230591 0
M  V30 2071 C 193.916 -3.40699 0.116987 0
M  V30 2072 H 195.109 -2.48811 1.67431 0
M  V30 2073 H 192.662 -1.27542 0.903475 0
M  V30 2074 H 193.397 -3.13921 -0.813877 0
M  V30 2075 H 193.182 -3.83459 0.818613 0
M  V30 2076 H 194.672 -4.17451 -0.111387 0
M  V30 2077 N 195.109 -0.891671 -1.2995 0
M  V30 2078 C 196.525 -0.58662 -1.48428 0
M  V30 2079 C 196.725 0.873951 -1.81561 0
M  V30 2080 O 195.781 1.65471 -1.90724 0
M  V30 2081 C 197.094 -1.50553 -2.60296 0
M  V30 2082 C 198.642 -1.50988 -2.74175 0
M  V30 2083 C 199.117 -2.41488 -3.89163 0
M  V30 2084 N 200.608 -2.39489 -3.96483 0
M  V30 2085 C 201.343 -3.06223 -4.84784 0
M  V30 2086 N 200.839 -3.82206 -5.77833 0
M  V30 2087 N 202.632 -2.95421 -4.78208 0
M  V30 2088 H 194.783 -1.83644 -1.06718 0
M  V30 2089 H 197.046 -0.786455 -0.529332 0
M  V30 2090 H 196.752 -2.54581 -2.42654 0
M  V30 2091 H 196.626 -1.22008 -3.56923 0
M  V30 2092 H 199.013 -0.47708 -2.91218 0
M  V30 2093 H 199.094 -1.83567 -1.78148 0
M  V30 2094 H 198.738 -3.44857 -3.72876 0
M  V30 2095 H 198.668 -2.06222 -4.84541 0
M  V30 2096 H 201.159 -1.84278 -3.29924 0
M  V30 2097 H 201.472 -4.302 -6.41988 0
M  V30 2098 H 199.817 -3.86313 -5.77743 0
M  V30 2099 H 203.008 -2.35581 -4.04499 0
M  V30 2100 H 203.181 -3.47704 -5.46814 0
M  V30 2101 N 196.587 1.43421 -0.653314 0
M  V30 2102 C 198.003 1.56341 -0.320886 0
M  V30 2103 C 198.203 1.63696 1.17499 0
M  V30 2104 O 197.259 1.59208 1.95982 0
M  V30 2105 C 198.572 2.82424 -1.03233 0
M  V30 2106 C 200.12 2.96168 -1.01259 0
M  V30 2107 C 200.595 4.25084 -1.70492 0
M  V30 2108 N 202.086 4.31948 -1.67257 0
M  V30 2109 C 202.821 5.30466 -2.17701 0
M  V30 2110 N 202.317 6.35261 -2.76434 0
M  V30 2111 N 204.11 5.2212 -2.082 0
M  V30 2112 H 196.261 1.3689 -1.62403 0
M  V30 2113 H 198.524 0.657455 -0.682977 0
M  V30 2114 H 198.23 2.83053 -2.08744 0
M  V30 2115 H 198.104 3.72653 -0.583948 0
M  V30 2116 H 200.491 2.9508 0.0341235 0
M  V30 2117 H 200.572 2.07229 -1.49966 0
M  V30 2118 H 200.216 4.26932 -2.7512 0
M  V30 2119 H 200.146 5.1292 -1.19251 0
M  V30 2120 H 202.637 3.56838 -1.24398 0
M  V30 2121 H 202.95 7.06754 -3.12601 0
M  V30 2122 H 201.295 6.35884 -2.80495 0
M  V30 2123 H 204.486 4.39166 -1.62021 0
M  V30 2124 H 204.659 5.98739 -2.47822 0
M  V30 2125 N 198.065 0.39524 1.52563 0
M  V30 2126 C 199.028 -0.425001 2.25225 0
M  V30 2127 C 200.028 -0.985266 1.27079 0
M  V30 2128 O 201.218 -0.866332 1.5113 0
M  V30 2129 C 198.35 -1.59686 3.01186 0
M  V30 2130 H 199.543 0.211233 2.99155 0
M  V30 2131 H 197.096 0.147472 1.55603 0
M  V30 2132 H 197.831 -2.27035 2.31572 0
M  V30 2133 H 197.616 -1.20176 3.73229 0
M  V30 2134 H 199.106 -2.17743 3.5634 0
M  V30 2135 N 199.544 -1.57102 0.125237 0
M  V30 2136 C 200.784 -1.97294 -0.534259 0
M  V30 2137 C 201.148 -1.0074 -1.63449 0
M  V30 2138 O 202.349 -1.29893 -2.35332 0
M  V30 2139 C 200.62 -3.41705 -1.04748 0
M  V30 2140 S 202.179 -4.03913 -1.71463 0
M  V30 2141 H 198.997 -0.689517 -0.173458 0
M  V30 2142 H 201.599 -1.94349 0.211797 0
M  V30 2143 H 200.303 -4.09723 -0.235649 0
M  V30 2144 H 199.834 -3.48315 -1.82867 0
M  V30 2145 H 201.849 -3.95182 -3.00077 0
M  V30 2146 N 201.022 0.148545 -1.56898 0
M  V30 2147 C 202.268 0.857877 -1.84424 0
M  V30 2148 C 202.623 1.7886 -0.709006 0
M  V30 2149 O 201.916 1.89344 0.293139 0
M  V30 2150 C 202.11 1.67064 -3.1595 0
M  V30 2151 C 201.939 0.82011 -4.42159 0
M  V30 2152 C 200.709 0.486328 -5.02954 0
M  V30 2153 C 202.907 0.151155 -5.14078 0
M  V30 2154 N 200.889 -0.377956 -6.12735 0
M  V30 2155 C 202.26 -0.573333 -6.17343 0
M  V30 2156 C 204.315 0.0716685 -4.97848 0
M  V30 2157 C 203.018 -1.3698 -7.06137 0
M  V30 2158 C 205.044 -0.711532 -5.87104 0
M  V30 2159 C 204.406 -1.42431 -6.8985 0
M  V30 2160 H 200.505 0.291798 -0.725519 0
M  V30 2161 H 203.089 0.123347 -1.94309 0
M  V30 2162 H 201.26 2.37642 -3.07215 0
M  V30 2163 H 202.992 2.32302 -3.31388 0
M  V30 2164 H 199.747 0.821753 -4.66416 0
M  V30 2165 H 200.171 -0.801077 -6.72244 0
M  V30 2166 H 204.813 0.608381 -4.184 0
M  V30 2167 H 202.531 -1.91778 -7.85014 0
M  V30 2168 H 206.117 -0.775005 -5.76615 0
M  V30 2169 H 204.997 -2.02061 -7.57721 0
M  V30 2170 N 202.5 1.5196 0.417844 0
M  V30 2171 C 203.432 1.70895 1.52733 0
M  V30 2172 C 204.445 0.589405 1.51756 0
M  V30 2173 O 205.634 0.864312 1.56179 0
M  V30 2174 C 202.734 1.72627 2.91639 0
M  V30 2175 C 201.907 3.01479 3.16905 0
M  V30 2176 C 200.966 2.95139 4.35637 0
M  V30 2177 O 199.992 3.69059 4.3334 0
M  V30 2178 N 201.194 2.12328 5.40275 0
M  V30 2179 H 203.959 2.66612 1.36888 0
M  V30 2180 H 201.52 1.50089 0.607037 0
M  V30 2181 H 203.512 1.65928 3.6912 0
M  V30 2182 H 202.082 0.844216 3.00985 0
M  V30 2183 H 201.302 3.21895 2.27546 0
M  V30 2184 H 202.59 3.86736 3.30625 0
M  V30 2185 H 201.988 1.51685 5.44985 0
M  V30 2186 H 200.545 2.11494 6.16534 0
M  V30 2187 N 203.978 -0.674533 1.42435 0
M  V30 2188 C 204.888 -1.81751 1.48337 0
M  V30 2189 C 205.904 -1.69975 0.372099 0
M  V30 2190 O 207.08 -1.91521 0.62304 0
M  V30 2191 C 204.145 -3.17895 1.38361 0
M  V30 2192 C 203.206 -3.41625 2.59982 0
M  V30 2193 C 202.439 -4.71274 2.50473 0
M  V30 2194 O 202.662 -5.49197 1.54075 0
M  V30 2195 O 201.596 -4.96254 3.4061 0
M  V30 2196 H 205.422 -1.79728 2.44809 0
M  V30 2197 H 203.007 -0.830312 1.24202 0
M  V30 2198 H 204.889 -3.99136 1.35161 0
M  V30 2199 H 203.564 -3.20555 0.450144 0
M  V30 2200 H 202.471 -2.60231 2.68757 0
M  V30 2201 H 203.804 -3.43796 3.52229 0
M  V30 2202 N 205.456 -1.28612 -0.910864 0
M  V30 2203 C 206.419 -1.12803 -1.9952 0
M  V30 2204 C 207.419 -0.0668264 -1.60661 0
M  V30 2205 O 208.609 -0.312847 -1.71368 0
M  V30 2206 C 205.741 -0.72254 -3.33155 0
M  V30 2207 H 206.934 -2.09109 -2.14973 0
M  V30 2208 H 204.487 -1.11639 -1.09391 0
M  V30 2209 H 205.222 0.241152 -3.23402 0
M  V30 2210 H 205.007 -1.48916 -3.62721 0
M  V30 2211 H 206.497 -0.634666 -4.12749 0
M  V30 2212 N 206.934 1.1197 -1.10907 0
M  V30 2213 C 207.897 2.16031 -0.765707 0
M  V30 2214 C 208.897 1.59393 0.212235 0
M  V30 2215 O 210.087 1.74196 -0.0115441 0
M  V30 2216 C 207.219 3.40632 -0.135053 0
M  V30 2217 H 208.412 2.47919 -1.68748 0
M  V30 2218 H 205.965 1.27061 -0.910226 0
M  V30 2219 H 206.7 3.14348 0.797218 0
M  V30 2220 H 206.485 3.8302 -0.838937 0
M  V30 2221 H 207.975 4.17505 0.0892469 0
M  V30 2222 N 208.412 0.89855 1.29475 0
M  V30 2223 C 209.652 0.530771 1.97388 0
M  V30 2224 C 210.016 -0.905832 1.69289 0
M  V30 2225 O 211.217 -1.38042 2.30646 0
M  V30 2226 C 209.488 0.81369 3.48014 0
M  V30 2227 S 211.047 0.550048 4.35339 0
M  V30 2228 H 207.865 0.196956 0.683176 0
M  V30 2229 H 210.467 1.16074 1.57312 0
M  V30 2230 H 209.171 1.85749 3.65958 0
M  V30 2231 H 208.702 0.171795 3.93025 0
M  V30 2232 H 210.717 -0.605423 4.92493 0
M  V30 2233 N 209.89 -1.43072 0.660911 0
M  V30 2234 C 211.115 -2.06584 0.183805 0
M  V30 2235 C 211.54 -1.49257 -1.14472 0
M  V30 2236 O 210.898 -0.605528 -1.70889 0
M  V30 2237 C 210.946 -3.60418 0.114434 0
M  V30 2238 O 210.05 -4.01981 -0.921137 0
M  V30 2239 H 209.391 -0.656669 0.0983994 0
M  V30 2240 H 211.921 -1.83447 0.906006 0
M  V30 2241 H 211.931 -4.07946 -0.0663394 0
M  V30 2242 H 210.606 -4.01519 1.08422 0
M  V30 2243 H 209.183 -3.66029 -0.71253 0
M  V30 2244 N 211.368 -0.403325 -1.52352 0
M  V30 2245 C 212.593 0.176499 -2.06648 0
M  V30 2246 C 213.018 1.38577 -1.27193 0
M  V30 2247 O 212.376 1.7879 -0.300637 0
M  V30 2248 C 212.424 0.511061 -3.5696 0
M  V30 2249 O 211.528 1.60294 -3.79973 0
M  V30 2250 H 210.869 0.0167337 -0.663789 0
M  V30 2251 H 213.399 -0.574848 -1.96359 0
M  V30 2252 H 213.409 0.771362 -4.00642 0
M  V30 2253 H 212.084 -0.37296 -4.14224 0
M  V30 2254 H 210.661 1.33526 -3.48174 0
M  V30 2255 N 212.846 1.57033 -0.133567 0
M  V30 2256 C 213.776 2.1909 0.807567 0
M  V30 2257 C 214.757 1.13517 1.26681 0
M  V30 2258 O 215.942 1.41809 1.32679 0
M  V30 2259 C 213.072 2.80188 2.05212 0
M  V30 2260 C 212.026 3.91471 1.73015 0
M  V30 2261 C 211.352 4.39443 3.04622 0
M  V30 2262 C 212.652 5.12886 0.987168 0
M  V30 2263 H 214.346 2.97988 0.290403 0
M  V30 2264 H 211.892 1.43335 0.138239 0
M  V30 2265 H 213.845 3.22264 2.71521 0
M  V30 2266 H 212.569 1.98601 2.59278 0
M  V30 2267 H 211.228 3.49993 1.0909 0
M  V30 2268 H 210.876 3.54695 3.56651 0
M  V30 2269 H 210.576 5.14495 2.83847 0
M  V30 2270 H 212.1 4.8418 3.72024 0
M  V30 2271 H 213.514 5.51891 1.55208 0
M  V30 2272 H 211.911 5.93615 0.87985 0
M  V30 2273 H 212.981 4.84894 -0.0235286 0
M  V30 2274 N 214.325 -0.140222 1.56975 0
M  V30 2275 C 215.553 -0.866437 1.87884 0
M  V30 2276 C 215.968 -1.74428 0.722517 0
M  V30 2277 O 215.325 -1.79891 -0.30749 0
M  V30 2278 C 215.376 -1.71753 3.18093 0
M  V30 2279 O 215.097 -0.875056 4.29272 0
M  V30 2280 C 216.598 -2.55074 3.62563 0
M  V30 2281 H 213.818 -0.25019 0.622612 0
M  V30 2282 H 216.362 -0.130977 2.0408 0
M  V30 2283 H 214.517 -2.40598 3.03631 0
M  V30 2284 H 214.931 -1.46002 5.03769 0
M  V30 2285 H 216.405 -3.10356 4.5649 0
M  V30 2286 H 216.882 -3.31434 2.88181 0
M  V30 2287 H 217.488 -1.91509 3.79743 0
M  V30 2288 N 215.803 -1.52179 -0.40978 0
M  V30 2289 C 216.713 -1.78364 -1.52392 0
M  V30 2290 C 217.729 -0.669183 -1.60617 0
M  V30 2291 O 218.905 -0.954518 -1.77344 0
M  V30 2292 C 215.97 -1.92822 -2.88133 0
M  V30 2293 C 215.031 -3.16725 -2.898 0
M  V30 2294 C 214.264 -3.30483 -4.19067 0
M  V30 2295 O 214.487 -2.49522 -5.12928 0
M  V30 2296 O 213.421 -4.2363 -4.27576 0
M  V30 2297 H 217.247 -2.72931 -1.33201 0
M  V30 2298 H 214.832 -1.37016 -0.59557 0
M  V30 2299 H 216.714 -2.04157 -3.68643 0
M  V30 2300 H 215.389 -1.01444 -3.07393 0
M  V30 2301 H 214.296 -3.10848 -2.08146 0
M  V30 2302 H 215.629 -4.07881 -2.75489 0
M  V30 2303 N 217.281 0.66697 -1.42791 0
M  V30 2304 C 218.211 1.79218 -1.49677 0
M  V30 2305 C 219.192 1.66405 -0.352623 0
M  V30 2306 O 220.377 1.85708 -0.567993 0
M  V30 2307 C 217.507 3.17565 -1.40605 0
M  V30 2308 C 216.461 3.45124 -2.53127 0
M  V30 2309 C 215.787 4.83127 -2.29112 0
M  V30 2310 C 217.087 3.41236 -3.95418 0
M  V30 2311 H 218.781 1.73713 -2.43853 0
M  V30 2312 H 216.327 0.83432 -1.17367 0
M  V30 2313 H 218.28 3.96022 -1.44029 0
M  V30 2314 H 217.004 3.23767 -0.429271 0
M  V30 2315 H 215.663 2.69031 -2.49034 0
M  V30 2316 H 215.311 4.85988 -1.29709 0
M  V30 2317 H 215.011 5.02528 -3.04531 0
M  V30 2318 H 216.535 5.63859 -2.34297 0
M  V30 2319 H 217.949 4.09651 -4.01073 0
M  V30 2320 H 216.346 3.72173 -4.70752 0
M  V30 2321 H 217.416 2.39665 -4.21532 0
M  V30 2322 N 218.759 1.29093 0.90403 0
M  V30 2323 C 220.006 1.16813 1.65411 0
M  V30 2324 C 220.334 -0.28128 1.92455 0
M  V30 2325 O 219.589 -1.22006 1.53013 0
M  V30 2326 C 219.888 1.92224 3.01305 0
M  V30 2327 C 219.554 3.41968 2.93885 0
M  V30 2328 C 218.216 3.82807 2.91569 0
M  V30 2329 C 220.568 4.37409 2.83413 0
M  V30 2330 C 217.896 5.1741 2.76594 0
M  V30 2331 C 220.248 5.72097 2.69977 0
M  V30 2332 C 218.912 6.12199 2.66024 0
M  V30 2333 H 218.182 0.42745 0.605283 0
M  V30 2334 H 220.829 1.59981 1.05254 0
M  V30 2335 H 219.134 1.41635 3.65304 0
M  V30 2336 H 220.831 1.80131 3.58265 0
M  V30 2337 H 217.421 3.09504 2.96488 0
M  V30 2338 H 221.605 4.06813 2.84283 0
M  V30 2339 H 216.861 5.47596 2.71935 0
M  V30 2340 H 221.035 6.45704 2.60844 0
M  V30 2341 H 218.662 7.16448 2.54178 0
M  V30 2342 N 220.237 -1.11381 1.11499 0
M  V30 2343 C 221.2 -2.15622 0.777153 0
M  V30 2344 C 222.2 -1.59504 -0.203779 0
M  V30 2345 O 223.39 -1.74188 0.020782 0
M  V30 2346 C 220.522 -3.40556 0.153116 0
M  V30 2347 H 221.715 -2.47021 1.70061 0
M  V30 2348 H 219.268 -1.26577 0.916952 0
M  V30 2349 H 220.003 -3.14767 -0.780536 0
M  V30 2350 H 219.788 -3.8257 0.859238 0
M  V30 2351 H 221.278 -4.17546 -0.0671044 0
M  V30 2352 N 221.715 -0.905404 -1.28997 0
M  V30 2353 C 223.126 -0.581953 -1.77398 0
M  V30 2354 C 223.477 0.902552 -1.74208 0
M  V30 2355 O 222.602 1.70584 -1.33154 0
M  V30 2356 C 223.197 -1.04961 -3.22131 0
M  V30 2357 C 221.756 -0.777229 -3.68288 0
M  V30 2358 C 220.903 -1.22109 -2.48967 0
M  V30 2359 H 223.854 -1.08754 -1.15578 0
M  V30 2360 H 223.875 -0.387387 -3.78523 0
M  V30 2361 H 223.387 -2.13008 -3.24421 0
M  V30 2362 H 221.488 0.290383 -3.71467 0
M  V30 2363 H 221.601 -1.37911 -4.58822 0
M  V30 2364 H 219.965 -0.639971 -2.46529 0
M  V30 2365 H 220.748 -2.30972 -2.53982 0
M  V30 2366 N 223.193 1.4272 -0.668489 0
M  V30 2367 C 224.125 2.2914 0.052613 0
M  V30 2368 C 225.138 1.43339 0.771857 0
M  V30 2369 O 226.327 1.67123 0.627067 0
M  V30 2370 C 223.427 3.20618 1.09804 0
M  V30 2371 C 222.6 4.35039 0.45389 0
M  V30 2372 C 221.659 5.07282 1.39825 0
M  V30 2373 O 220.685 5.62024 0.900978 0
M  V30 2374 N 221.887 5.12206 2.73176 0
M  V30 2375 H 224.652 2.91668 -0.689209 0
M  V30 2376 H 222.213 1.53577 -0.512422 0
M  V30 2377 H 224.205 3.65815 1.73094 0
M  V30 2378 H 222.775 2.59585 1.74167 0
M  V30 2379 H 221.995 3.92567 -0.358396 0
M  V30 2380 H 223.283 5.088 0.00486972 0
M  V30 2381 H 222.681 4.6913 3.16122 0
M  V30 2382 H 221.238 5.61069 3.31729 0
M  V30 2383 N 224.671 0.411399 1.52136 0
M  V30 2384 C 225.92 -0.165009 2.01024 0
M  V30 2385 C 226.233 -1.4603 1.30133 0
M  V30 2386 O 227.439 -2.1181 1.69849 0
M  V30 2387 C 225.895 -0.344618 3.58246 0
M  V30 2388 C 225.503 0.938716 4.38055 0
M  V30 2389 C 227.247 -0.876195 4.15359 0
M  V30 2390 C 225.154 0.726172 5.86925 0
M  V30 2391 H 224.084 -0.0654407 0.751155 0
M  V30 2392 H 226.735 0.537192 1.75461 0
M  V30 2393 H 225.117 -1.10921 3.80148 0
M  V30 2394 H 226.291 1.70963 4.27912 0
M  V30 2395 H 224.606 1.39688 3.92271 0
M  V30 2396 H 227.203 -1.05128 5.24263 0
M  V30 2397 H 227.546 -1.85152 3.7286 0
M  V30 2398 H 228.079 -0.170607 3.97434 0
M  V30 2399 H 224.818 1.67312 6.33788 0
M  V30 2400 H 224.338 -0.00540283 5.998 0
M  V30 2401 H 226.017 0.369231 6.45946 0
M  V30 2402 N 226.149 -1.5696 0.141893 0
M  V30 2403 C 227.099 -2.13074 -0.811383 0
M  V30 2404 C 228.083 -1.05726 -1.21288 0
M  V30 2405 O 229.275 -1.31914 -1.18015 0
M  V30 2406 C 226.404 -2.75186 -2.0525 0
M  V30 2407 C 225.49 -3.8965 -1.67432 0
M  V30 2408 N 225.881 -4.95733 -1.0041 0
M  V30 2409 C 224.179 -4.00262 -1.96739 0
M  V30 2410 C 224.88 -5.75858 -0.822345 0
M  V30 2411 N 223.856 -5.26452 -1.3546 0
M  V30 2412 H 227.658 -2.92465 -0.290031 0
M  V30 2413 H 225.172 -1.6229 -0.0598218 0
M  V30 2414 H 227.169 -3.13745 -2.74535 0
M  V30 2415 H 225.829 -1.97266 -2.57907 0
M  V30 2416 H 226.84 -5.13607 -0.665441 0
M  V30 2417 H 223.517 -3.33412 -2.51282 0
M  V30 2418 H 224.907 -6.71254 -0.294496 0
M  V30 2419 N 227.627 0.131896 -1.57047 0
M  V30 2420 C 228.559 1.1878 -1.9602 0
M  V30 2421 C 229.572 1.38363 -0.857875 0
M  V30 2422 O 230.761 1.37666 -1.13623 0
M  V30 2423 C 227.861 2.55008 -2.23213 0
M  V30 2424 C 227.034 2.56201 -3.54513 0
M  V30 2425 C 226.093 3.7408 -3.70069 0
M  V30 2426 O 225.119 3.58258 -4.42312 0
M  V30 2427 N 226.321 4.92137 -3.07866 0
M  V30 2428 H 229.086 0.85639 -2.87204 0
M  V30 2429 H 226.647 0.321309 -1.5868 0
M  V30 2430 H 228.639 3.32404 -2.30846 0
M  V30 2431 H 227.209 2.80382 -1.3822 0
M  V30 2432 H 226.429 1.64613 -3.58185 0
M  V30 2433 H 227.717 2.54043 -4.4084 0
M  V30 2434 H 227.115 5.07895 -2.49116 0
M  V30 2435 H 225.672 5.67254 -3.21039 0
M  V30 2436 N 229.106 1.52395 0.401703 0
M  V30 2437 C 230.331 1.70972 1.17403 0
M  V30 2438 C 230.756 0.421615 1.83314 0
M  V30 2439 O 230.114 -0.621564 1.70312 0
M  V30 2440 C 230.162 2.85151 2.20728 0
M  V30 2441 O 229.266 2.51238 3.27037 0
M  V30 2442 H 228.607 0.568927 0.342372 0
M  V30 2443 H 231.137 1.99131 0.469891 0
M  V30 2444 H 231.147 3.10279 2.64936 0
M  V30 2445 H 229.822 3.78603 1.7214 0
M  V30 2446 H 228.399 2.36808 2.88057 0
M  V30 2447 N 230.584 -0.659388 1.43143 0
M  V30 2448 C 232 -0.974337 1.26407 0
M  V30 2449 C 232.2 -2.007 0.179341 0
M  V30 2450 O 231.256 -2.4856 -0.444295 0
M  V30 2451 C 232.569 -1.46447 2.62628 0
M  V30 2452 C 234.117 -1.58144 2.7011 0
M  V30 2453 C 234.592 -2.1055 4.06734 0
M  V30 2454 N 236.083 -2.17861 4.08767 0
M  V30 2455 C 236.818 -2.59519 5.1131 0
M  V30 2456 N 236.314 -3.00518 6.24228 0
M  V30 2457 N 238.107 -2.59404 4.98664 0
M  V30 2458 H 230.258 0.0240528 2.12386 0
M  V30 2459 H 232.521 -0.0518065 0.946583 0
M  V30 2460 H 232.227 -0.780123 3.42939 0
M  V30 2461 H 232.101 -2.44058 2.87603 0
M  V30 2462 H 234.488 -2.25682 1.90136 0
M  V30 2463 H 234.569 -0.589828 2.48907 0
M  V30 2464 H 234.213 -1.43616 4.87172 0
M  V30 2465 H 234.143 -3.10531 4.25298 0
M  V30 2466 H 236.634 -1.88975 3.27257 0
M  V30 2467 H 236.947 -3.31036 6.98309 0
M  V30 2468 H 235.292 -2.98337 6.2771 0
M  V30 2469 H 238.483 -2.26747 4.09516 0
M  V30 2470 H 238.656 -2.91548 5.78709 0
M  V30 2471 N 232.062 -1.29571 -0.897171 0
M  V30 2472 C 232.992 -1.17473 -2.01798 0
M  V30 2473 C 233.973 -0.068323 -1.69963 0
M  V30 2474 O 235.158 -0.248239 -1.92607 0
M  V30 2475 C 232.288 -0.853099 -3.36659 0
M  V30 2476 C 231.242 -1.9161 -3.82713 0
M  V30 2477 C 230.568 -1.44773 -5.14728 0
M  V30 2478 C 231.868 -3.32535 -4.02763 0
M  V30 2479 H 233.562 -2.11237 -2.12177 0
M  V30 2480 H 231.108 -1.01699 -1.01948 0
M  V30 2481 H 233.061 -0.755165 -4.14578 0
M  V30 2482 H 231.785 0.120236 -3.26379 0
M  V30 2483 H 230.444 -2.00346 -3.07013 0
M  V30 2484 H 230.092 -0.462995 -5.00865 0
M  V30 2485 H 229.792 -2.15865 -5.46513 0
M  V30 2486 H 231.316 -1.36334 -5.95185 0
M  V30 2487 H 232.73 -3.26626 -4.71156 0
M  V30 2488 H 231.127 -4.01607 -4.45905 0
M  V30 2489 H 232.197 -3.75326 -3.07016 0
M  V30 2490 N 233.54 1.10788 -1.12088 0
M  V30 2491 C 234.817 1.79136 -0.785476 0
M  V30 2492 C 235.197 1.98246 0.725377 0
M  V30 2493 O 234.545 1.57258 1.65778 0
M  V30 2494 C 234.755 3.12375 -1.55636 0
M  V30 2495 C 236.103 3.8731 -1.74001 0
M  V30 2496 O 237.127 3.22085 -1.52117 0
M  V30 2497 O 235.986 5.04369 -2.10415 0
M  V30 2498 H 233.08 0.776226 -0.285311 0
M  V30 2499 H 235.626 1.1747 -1.2247 0
M  V30 2500 H 234.398 2.93863 -2.5838 0
M  V30 2501 H 234.021 3.81758 -1.11114 0
M  V30 2502 N 235.018 0.912232 1.28515 0
M  V30 2503 C 236.243 0.559774 1.99703 0
M  V30 2504 C 236.668 -0.851393 1.67729 0
M  V30 2505 O 236.026 -1.56875 0.908834 0
M  V30 2506 C 236.074 0.773874 3.52198 0
M  V30 2507 O 235.178 -0.167842 4.12058 0
M  V30 2508 H 234.519 0.21723 0.627461 0
M  V30 2509 H 237.049 1.22725 1.63706 0
M  V30 2510 H 237.059 0.683386 4.02236 0
M  V30 2511 H 235.734 1.80261 3.74805 0
M  V30 2512 H 234.311 -0.0287509 3.72889 0
M  V30 2513 N 236.496 -1.42363 0.676048 0
M  V30 2514 C 237.742 -2.02336 0.207809 0
M  V30 2515 C 238.097 -1.52506 -1.17302 0
M  V30 2516 O 237.39 -0.718048 -1.77636 0
M  V30 2517 C 237.584 -3.56929 0.183431 0
M  V30 2518 C 237.413 -4.21762 1.56036 0
M  V30 2519 C 236.183 -4.56881 2.15842 0
M  V30 2520 C 238.381 -4.49267 2.50327 0
M  V30 2521 N 236.363 -5.069 3.46303 0
M  V30 2522 C 237.734 -5.00851 3.65443 0
M  V30 2523 C 239.789 -4.31257 2.48841 0
M  V30 2524 C 238.492 -5.36317 4.79329 0
M  V30 2525 C 240.518 -4.678 3.61824 0
M  V30 2526 C 239.88 -5.19537 4.75668 0
M  V30 2527 H 235.979 -0.772583 0.120993 0
M  V30 2528 H 238.563 -1.73203 0.889306 0
M  V30 2529 H 236.734 -3.85576 -0.467483 0
M  V30 2530 H 238.466 -4.03603 -0.297808 0
M  V30 2531 H 235.221 -4.4268 1.68319 0
M  V30 2532 H 235.645 -5.36338 4.13123 0
M  V30 2533 H 240.287 -3.90511 1.62051 0
M  V30 2534 H 238.005 -5.75995 5.66794 0
M  V30 2535 H 241.591 -4.55541 3.61903 0
M  V30 2536 H 240.471 -5.47287 5.61646 0
M  V30 2537 N 237.974 -0.419461 -1.51915 0
M  V30 2538 C 239.385 0.0477853 -1.86639 0
M  V30 2539 C 239.736 1.43531 -1.33766 0
M  V30 2540 O 238.861 2.05401 -0.68113 0
M  V30 2541 C 239.456 0.0934885 -3.38671 0
M  V30 2542 C 238.015 0.505097 -3.72996 0
M  V30 2543 C 237.162 -0.313792 -2.75519 0
M  V30 2544 H 240.113 -0.636088 -1.45395 0
M  V30 2545 H 240.134 0.906667 -3.6954 0
M  V30 2546 H 239.646 -0.916501 -3.77123 0
M  V30 2547 H 237.747 1.52135 -3.40126 0
M  V30 2548 H 237.86 0.242309 -4.78487 0
M  V30 2549 H 236.224 0.225363 -2.53701 0
M  V30 2550 H 237.007 -1.32232 -3.16812 0
M  V30 2551 N 239.452 1.56882 -0.150215 0
M  V30 2552 C 240.384 2.14057 0.819286 0
M  V30 2553 C 241.397 1.09082 1.20851 0
M  V30 2554 O 242.586 1.36347 1.15203 0
M  V30 2555 C 239.686 2.65102 2.11127 0
M  V30 2556 C 238.859 3.94511 1.88891 0
M  V30 2557 C 237.918 4.30834 3.02107 0
M  V30 2558 O 236.944 4.99099 2.73659 0
M  V30 2559 N 238.146 3.90676 4.29363 0
M  V30 2560 H 240.911 2.97871 0.330618 0
M  V30 2561 H 238.472 1.61866 0.0332538 0
M  V30 2562 H 240.464 2.86411 2.85921 0
M  V30 2563 H 239.034 1.85994 2.51247 0
M  V30 2564 H 238.254 3.81795 0.981152 0
M  V30 2565 H 239.542 4.7907 1.71376 0
M  V30 2566 H 238.94 3.35677 4.55343 0
M  V30 2567 H 237.497 4.1703 5.00928 0
M  V30 2568 N 240.93 -0.123565 1.57115 0
M  V30 2569 C 241.88 -1.1575 1.96433 0
M  V30 2570 C 242.864 -1.37313 0.838686 0
M  V30 2571 O 244.056 -1.38482 1.10235 0
M  V30 2572 C 241.185 -2.48526 2.36833 0
M  V30 2573 C 240.271 -2.30457 3.5602 0
M  V30 2574 N 240.662 -1.8219 4.71848 0
M  V30 2575 C 238.96 -2.61129 3.61563 0
M  V30 2576 C 239.661 -1.77721 5.53886 0
M  V30 2577 N 238.637 -2.21899 4.96248 0
M  V30 2578 H 242.439 -0.776797 2.83449 0
M  V30 2579 H 239.953 -0.331364 1.58983 0
M  V30 2580 H 241.95 -3.233 2.63216 0
M  V30 2581 H 240.61 -2.87358 1.5118 0
M  V30 2582 H 241.621 -1.51805 4.95152 0
M  V30 2583 H 238.298 -3.03678 2.86507 0
M  V30 2584 H 239.688 -1.41697 6.56789 0
M  V30 2585 N 242.408 -1.52605 -0.393616 0
M  V30 2586 C 243.638 -1.71046 -1.15874 0
M  V30 2587 C 244.046 -0.426483 -1.84331 0
M  V30 2588 O 243.389 0.608513 -1.73329 0
M  V30 2589 C 243.451 -2.80118 -2.25332 0
M  V30 2590 C 243.115 -4.21381 -1.76881 0
M  V30 2591 C 244.112 -5.04697 -1.24808 0
M  V30 2592 C 241.797 -4.67683 -1.83244 0
M  V30 2593 C 243.791 -6.32393 -0.797387 0
M  V30 2594 C 241.478 -5.95364 -1.37787 0
M  V30 2595 C 242.476 -6.77549 -0.861208 0
M  V30 2596 O 242.164 -8.02837 -0.413252 0
M  V30 2597 H 241.896 -0.576155 -0.353583 0
M  V30 2598 H 244.45 -2.00018 -0.467123 0
M  V30 2599 H 242.68 -2.46557 -2.97904 0
M  V30 2600 H 244.369 -2.87006 -2.87023 0
M  V30 2601 H 245.135 -4.70111 -1.19252 0
M  V30 2602 H 241.014 -4.03805 -2.22401 0
M  V30 2603 H 244.558 -6.9649 -0.393437 0
M  V30 2604 H 240.455 -6.29455 -1.43026 0
M  V30 2605 H 241.223 -8.16749 -0.53515 0
M  V30 2606 N 243.887 0.651787 -1.4349 0
M  V30 2607 C 245.298 1.233 -1.40193 0
M  V30 2608 C 245.649 1.9591 -0.106727 0
M  V30 2609 O 244.774 2.01316 0.793773 0
M  V30 2610 C 245.369 2.24257 -2.53957 0
M  V30 2611 C 243.928 2.77852 -2.5392 0
M  V30 2612 C 243.075 1.52517 -2.3159 0
M  V30 2613 H 246.026 0.443717 -1.52371 0
M  V30 2614 H 246.047 3.0646 -2.25528 0
M  V30 2615 H 245.559 1.71382 -3.4821 0
M  V30 2616 H 243.66 3.34786 -1.63551 0
M  V30 2617 H 243.773 3.25299 -3.51735 0
M  V30 2618 H 242.137 1.79915 -1.80285 0
M  V30 2619 H 242.92 1.01574 -3.27929 0
M  V30 2620 N 245.365 1.30045 0.890287 0
M  V30 2621 C 246.611 1.19747 1.64415 0
M  V30 2622 C 246.966 -0.246591 1.90813 0
M  V30 2623 O 246.259 -1.174 1.51419 0
M  V30 2624 C 246.453 1.95409 2.99249 0
M  V30 2625 C 246.282 3.47025 2.86013 0
M  V30 2626 C 245.052 4.1638 2.86279 0
M  V30 2627 C 247.25 4.42353 2.62351 0
M  V30 2628 N 245.232 5.54293 2.63879 0
M  V30 2629 C 246.603 5.67792 2.49022 0
M  V30 2630 C 248.658 4.32009 2.47533 0
M  V30 2631 C 247.361 6.8406 2.22383 0
M  V30 2632 C 249.387 5.48038 2.22279 0
M  V30 2633 C 248.749 6.72455 2.09722 0
M  V30 2634 H 244.848 0.493223 0.60684 0
M  V30 2635 H 247.432 1.6399 1.04954 0
M  V30 2636 H 245.603 1.53565 3.56752 0
M  V30 2637 H 247.335 1.77298 3.63796 0
M  V30 2638 H 244.09 3.68164 2.97913 0
M  V30 2639 H 244.514 6.26852 2.55706 0
M  V30 2640 H 249.156 3.36503 2.55979 0
M  V30 2641 H 246.874 7.79612 2.12675 0
M  V30 2642 H 250.46 5.41939 2.11643 0
M  V30 2643 H 249.34 7.60722 1.90453 0
M  V30 2644 N 246.843 -1.10192 1.12674 0
M  V30 2645 C 248.092 -1.81573 0.8783 0
M  V30 2646 C 248.405 -1.86249 -0.597557 0
M  V30 2647 O 249.611 -2.5386 -0.962681 0
M  V30 2648 C 248.067 -3.26149 1.52167 0
M  V30 2649 C 247.675 -3.29763 3.03249 0
M  V30 2650 C 249.419 -4.0234 1.3536 0
M  V30 2651 C 247.326 -4.68815 3.60508 0
M  V30 2652 H 246.256 -0.680394 0.324931 0
M  V30 2653 H 248.907 -1.23902 1.35353 0
M  V30 2654 H 247.289 -3.83832 0.974104 0
M  V30 2655 H 248.463 -2.8189 3.6452 0
M  V30 2656 H 246.778 -2.67059 3.19481 0
M  V30 2657 H 249.375 -5.05058 1.75559 0
M  V30 2658 H 249.718 -4.15235 0.297554 0
M  V30 2659 H 250.251 -3.51079 1.87052 0
M  V30 2660 H 246.99 -4.61121 4.65884 0
M  V30 2661 H 246.51 -5.17045 3.04014 0
M  V30 2662 H 248.189 -5.37785 3.59717 0
M  V30 2663 N 248.321 -0.919034 -1.28029 0
M  V30 2664 C 249.268 -0.410005 -2.27129 0
M  V30 2665 C 250.238 0.518405 -1.57803 0
M  V30 2666 O 251.423 0.439451 -1.8567 0
M  V30 2667 C 248.563 0.339054 -3.4343 0
M  V30 2668 C 247.676 -0.622468 -4.27492 0
M  V30 2669 C 246.811 0.145567 -5.31001 0
M  V30 2670 C 245.85 -0.809226 -6.06727 0
M  V30 2671 N 244.987 -0.0743728 -7.02061 0
M  V30 2672 H 249.827 -1.26011 -2.70047 0
M  V30 2673 H 247.364 -0.632663 -1.328 0
M  V30 2674 H 249.322 0.789586 -4.0966 0
M  V30 2675 H 247.952 1.15346 -3.01488 0
M  V30 2676 H 247.004 -1.19153 -3.61257 0
M  V30 2677 H 248.316 -1.35252 -4.80113 0
M  V30 2678 H 247.47 0.656417 -6.03139 0
M  V30 2679 H 246.209 0.908643 -4.79161 0
M  V30 2680 H 245.214 -1.3314 -5.33436 0
M  V30 2681 H 246.439 -1.57194 -6.60656 0
M  V30 2682 H 244.385 0.670616 -6.52563 0
M  V30 2683 H 244.302 -0.744157 -7.52329 0
M  V30 2684 H 245.57 0.416109 -7.78389 0
M  V30 2685 N 249.799 1.42003 -0.683588 0
M  V30 2686 C 250.709 2.34597 -0.0109075 0
M  V30 2687 C 251.725 1.55576 0.779245 0
M  V30 2688 O 252.901 1.88107 0.719555 0
M  V30 2689 C 249.966 3.34199 0.922588 0
M  V30 2690 C 249.027 4.29115 0.125984 0
M  V30 2691 C 248.26 5.23959 1.01502 0
M  V30 2692 O 248.483 5.23952 2.25456 0
M  V30 2693 O 247.417 6.00053 0.47111 0
M  V30 2694 H 251.243 2.93675 -0.773853 0
M  V30 2695 H 248.828 1.42654 -0.443861 0
M  V30 2696 H 250.71 3.95365 1.45823 0
M  V30 2697 H 249.385 2.77582 1.66523 0
M  V30 2698 H 248.292 3.71335 -0.453969 0
M  V30 2699 H 249.625 4.88798 -0.577736 0
M  V30 2700 N 251.277 0.427512 1.51691 0
M  V30 2701 C 252.187 -0.39527 2.31246 0
M  V30 2702 C 253.203 -1.03674 1.39742 0
M  V30 2703 O 254.379 -1.03425 1.72816 0
M  V30 2704 C 251.444 -1.48706 3.13189 0
M  V30 2705 C 250.505 -0.866743 4.20459 0
M  V30 2706 C 249.738 -1.90651 4.98486 0
M  V30 2707 O 249.961 -3.12733 4.77026 0
M  V30 2708 O 248.895 -1.5025 5.82845 0
M  V30 2709 H 252.721 0.253918 3.02637 0
M  V30 2710 H 250.306 0.190274 1.48183 0
M  V30 2711 H 252.188 -2.12047 3.64162 0
M  V30 2712 H 250.863 -2.12051 2.44573 0
M  V30 2713 H 249.77 -0.195544 3.73589 0
M  V30 2714 H 251.103 -0.276934 4.9142 0
M  V30 2715 N 252.755 -1.56801 0.158532 0
M  V30 2716 C 254.003 -1.96102 -0.488712 0
M  V30 2717 C 254.324 -1.04498 -1.64636 0
M  V30 2718 O 253.594 -0.108783 -1.95598 0
M  V30 2719 H 252.174 -0.724102 -0.183535 0
M  V30 2720 H 254.836 -1.93457 0.236728 0
M  V30 2721 H 253.932 -3.00097 -0.857219 0
M  V30 2722 N 254.233 0.115231 -1.57178 0
M  V30 2723 C 255.463 0.835224 -1.88964 0
M  V30 2724 C 255.871 1.73774 -0.74829 0
M  V30 2725 O 255.214 1.81401 0.289739 0
M  V30 2726 C 255.276 1.7178 -3.15804 0
M  V30 2727 C 254.94 0.989198 -4.46166 0
M  V30 2728 C 255.937 0.328263 -5.18863 0
M  V30 2729 C 253.622 0.969256 -4.9286 0
M  V30 2730 C 255.616 -0.342873 -6.36477 0
M  V30 2731 C 253.303 0.294324 -6.10391 0
M  V30 2732 C 254.301 -0.360582 -6.82048 0
M  V30 2733 O 253.989 -1.02474 -7.97342 0
M  V30 2734 H 253.721 0.245197 -0.629964 0
M  V30 2735 H 256.275 0.10303 -2.05141 0
M  V30 2736 H 254.505 2.49173 -2.95719 0
M  V30 2737 H 256.194 2.31255 -3.33581 0
M  V30 2738 H 256.96 0.335263 -4.8384 0
M  V30 2739 H 252.839 1.46844 -4.36987 0
M  V30 2740 H 256.383 -0.854629 -6.92345 0
M  V30 2741 H 252.28 0.285099 -6.4487 0
M  V30 2742 H 253.048 -0.929594 -8.13204 0
M  V30 2743 N 255.711 1.52812 0.385517 0
M  V30 2744 C 256.958 1.68026 1.1302 0
M  V30 2745 C 257.286 0.421934 1.89868 0
M  V30 2746 O 256.541 -0.595749 1.86412 0
M  V30 2747 C 256.84 2.86856 2.13187 0
M  V30 2748 C 256.506 4.24159 1.5297 0
M  V30 2749 C 255.168 4.61501 1.36274 0
M  V30 2750 C 257.52 5.09627 1.09223 0
M  V30 2751 C 254.848 5.81966 0.743837 0
M  V30 2752 C 257.2 6.30719 0.487411 0
M  V30 2753 C 255.864 6.6679 0.307777 0
M  V30 2754 H 255.134 0.614849 0.413571 0
M  V30 2755 H 257.781 1.86962 0.414405 0
M  V30 2756 H 256.086 2.6235 2.90998 0
M  V30 2757 H 257.783 2.95821 2.70722 0
M  V30 2758 H 254.373 3.94746 1.66954 0
M  V30 2759 H 258.557 4.81343 1.20922 0
M  V30 2760 H 253.813 6.08519 0.592891 0
M  V30 2761 H 257.987 6.96259 0.140143 0
M  V30 2762 H 255.614 7.60001 -0.173879 0
M  V30 2763 N 257.189 -0.644168 1.43834 0
M  V30 2764 C 258.419 -1.42939 1.49171 0
M  V30 2765 C 258.827 -1.88874 0.111048 0
M  V30 2766 O 258.17 -1.60656 -0.8908 0
M  V30 2767 C 258.232 -2.69151 2.38324 0
M  V30 2768 C 257.896 -2.45097 3.85715 0
M  V30 2769 C 258.893 -2.07747 4.76589 0
M  V30 2770 C 256.578 -2.59141 4.30292 0
M  V30 2771 C 258.572 -1.8475 6.10038 0
M  V30 2772 C 256.259 -2.35759 5.63792 0
M  V30 2773 C 257.257 -1.9862 6.53482 0
M  V30 2774 O 256.945 -1.75489 7.84512 0
M  V30 2775 H 256.677 -0.445271 0.508635 0
M  V30 2776 H 259.231 -0.79621 1.8934 0
M  V30 2777 H 257.461 -3.3506 1.93058 0
M  V30 2778 H 259.15 -3.31123 2.3476 0
M  V30 2779 H 259.916 -1.96465 4.43426 0
M  V30 2780 H 255.795 -2.87022 3.60749 0
M  V30 2781 H 259.339 -1.55686 6.80006 0
M  V30 2782 H 255.236 -2.46646 5.9652 0
M  V30 2783 H 256.004 -1.89841 7.9618 0
M  V30 2784 N 258.668 -1.30515 -0.883378 0
M  V30 2785 C 259.915 -1.1943 -1.63532 0
M  V30 2786 C 260.243 0.250627 -1.92878 0
M  V30 2787 O 259.498 1.19556 -1.54935 0
M  V30 2788 C 259.797 -1.96994 -2.98209 0
M  V30 2789 C 259.463 -3.466 -2.88408 0
M  V30 2790 C 258.125 -3.87397 -2.85442 0
M  V30 2791 C 260.477 -4.41863 -2.76418 0
M  V30 2792 C 257.805 -5.21745 -2.68327 0
M  V30 2793 C 260.157 -5.7632 -2.60841 0
M  V30 2794 C 258.821 -6.16354 -2.56251 0
M  V30 2795 H 258.091 -0.437025 -0.598406 0
M  V30 2796 H 260.738 -1.61635 -1.02696 0
M  V30 2797 H 259.043 -1.47429 -3.63004 0
M  V30 2798 H 260.74 -1.85808 -3.55354 0
M  V30 2799 H 257.33 -3.14182 -2.91527 0
M  V30 2800 H 261.514 -4.11285 -2.77775 0
M  V30 2801 H 256.77 -5.51853 -2.63189 0
M  V30 2802 H 260.944 -6.49772 -2.50538 0
M  V30 2803 H 258.571 -7.20401 -2.42748 0
M  V30 2804 N 260.146 1.09593 -1.13257 0
M  V30 2805 C 261.562 1.33775 -0.870423 0
M  V30 2806 C 261.762 1.95327 0.494926 0
M  V30 2807 O 260.818 2.19853 1.2418 0
M  V30 2808 C 262.131 2.25106 -1.99369 0
M  V30 2809 C 263.679 2.3862 -2.02558 0
M  V30 2810 C 264.154 3.33285 -3.14142 0
M  V30 2811 N 265.645 3.40857 -3.13641 0
M  V30 2812 C 266.38 4.14101 -3.96621 0
M  V30 2813 N 265.876 4.90157 -4.8961 0
M  V30 2814 N 267.669 4.09808 -3.84726 0
M  V30 2815 H 259.82 0.680136 -2.01216 0
M  V30 2816 H 262.083 0.362133 -0.876107 0
M  V30 2817 H 261.789 1.87103 -2.97801 0
M  V30 2818 H 261.663 3.25481 -1.90635 0
M  V30 2819 H 264.05 2.75887 -1.0474 0
M  V30 2820 H 264.131 1.38028 -2.15364 0
M  V30 2821 H 263.775 2.96741 -4.12198 0
M  V30 2822 H 263.705 4.33776 -2.98574 0
M  V30 2823 H 266.196 2.86624 -2.46282 0
M  V30 2824 H 266.509 5.4347 -5.49418 0
M  V30 2825 H 264.854 4.89251 -4.93617 0
M  V30 2826 H 268.045 3.4949 -3.11408 0
M  V30 2827 H 268.218 4.66629 -4.49623 0
M  V30 2828 N 261.624 0.925811 1.2754 0
M  V30 2829 C 262.849 0.580924 1.99098 0
M  V30 2830 C 263.274 -0.833555 1.68622 0
M  V30 2831 O 262.632 -1.55903 0.925422 0
M  V30 2832 C 262.68 0.811186 3.51358 0
M  V30 2833 O 261.784 -0.124129 4.12213 0
M  V30 2834 H 261.125 0.223873 0.625122 0
M  V30 2835 H 263.655 1.24455 1.62395 0
M  V30 2836 H 263.665 0.72601 4.01489 0
M  V30 2837 H 262.34 1.84227 3.72872 0
M  V30 2838 H 260.917 0.0108006 3.72898 0
M  V30 2839 N 263.102 -1.41638 0.69111 0
M  V30 2840 C 264.518 -1.55435 0.362224 0
M  V30 2841 C 264.718 -1.66754 -1.13117 0
M  V30 2842 O 263.774 -1.64348 -1.91692 0
M  V30 2843 C 265.087 -2.79588 1.10684 0
M  V30 2844 C 266.635 -2.9338 1.09075 0
M  V30 2845 C 267.11 -4.20414 1.81703 0
M  V30 2846 N 268.601 -4.27362 1.7865 0
M  V30 2847 C 269.336 -5.24507 2.31689 0
M  V30 2848 N 268.832 -6.27708 2.93179 0
M  V30 2849 N 270.625 -5.16416 2.2197 0
M  V30 2850 H 262.776 -1.32536 1.65976 0
M  V30 2851 H 265.039 -0.639115 0.700168 0
M  V30 2852 H 264.745 -2.77419 2.16175 0
M  V30 2853 H 264.619 -3.70973 0.682545 0
M  V30 2854 H 267.006 -2.95067 0.0441238 0
M  V30 2855 H 267.087 -2.0318 1.55407 0
M  V30 2856 H 266.731 -4.19488 2.86343 0
M  V30 2857 H 266.661 -5.09578 1.32808 0
M  V30 2858 H 269.152 -3.53415 1.33815 0
M  V30 2859 H 269.465 -6.98217 3.31229 0
M  V30 2860 H 267.81 -6.28223 2.97255 0
M  V30 2861 H 271.001 -4.34716 1.73607 0
M  V30 2862 H 271.174 -5.91958 2.63609 0
M  V30 2863 N 264.58 -0.43555 -1.51462 0
M  V30 2864 C 265.51 0.367376 -2.30592 0
M  V30 2865 C 266.491 1.02263 -1.35928 0
M  V30 2866 O 267.676 1.02661 -1.64847 0
M  V30 2867 C 264.806 1.46983 -3.14664 0
M  V30 2868 C 263.76 0.938161 -4.17591 0
M  V30 2869 C 263.086 2.13622 -4.90173 0
M  V30 2870 C 264.386 -0.0261621 -5.22293 0
M  V30 2871 H 266.08 -0.292969 -2.97963 0
M  V30 2872 H 263.626 -0.14234 -1.43295 0
M  V30 2873 H 265.579 2.03873 -3.688 0
M  V30 2874 H 264.303 2.15843 -2.4511 0
M  V30 2875 H 262.962 0.391481 -3.64504 0
M  V30 2876 H 262.61 2.81098 -4.17124 0
M  V30 2877 H 262.31 1.78688 -5.59772 0
M  V30 2878 H 263.834 2.7107 -5.47132 0
M  V30 2879 H 265.248 0.452384 -5.71512 0
M  V30 2880 H 263.645 -0.287992 -5.99409 0
M  V30 2881 H 264.715 -0.963391 -4.75233 0
M  V30 2882 N 266.058 1.56714 -0.166846 0
M  V30 2883 C 267.283 2.01557 0.488833 0
M  V30 2884 C 267.708 1.0463 1.56314 0
M  V30 2885 O 267.066 0.0251304 1.81283 0
M  V30 2886 C 267.114 3.4503 1.04818 0
M  V30 2887 O 266.218 3.51163 2.16236 0
M  V30 2888 H 265.559 0.653516 0.117526 0
M  V30 2889 H 268.089 2.02818 -0.269421 0
M  V30 2890 H 268.099 3.84243 1.37191 0
M  V30 2891 H 266.774 4.15077 0.261572 0
M  V30 2892 H 265.351 3.23807 1.84942 0
M  V30 2893 N 267.536 -0.106894 1.57237 0
M  V30 2894 C 268.468 -1.15646 1.97885 0
M  V30 2895 C 269.481 -1.36981 0.879779 0
M  V30 2896 O 270.67 -1.35841 1.15799 0
M  V30 2897 C 267.77 -2.51425 2.27241 0
M  V30 2898 C 266.943 -2.50529 3.58545 0
M  V30 2899 C 266.002 -3.68145 3.75973 0
M  V30 2900 O 265.028 -3.51176 4.47956 0
M  V30 2901 N 266.23 -4.87177 3.15656 0
M  V30 2902 H 268.995 -0.81059 2.8853 0
M  V30 2903 H 266.556 -0.296024 1.59171 0
M  V30 2904 H 268.548 -3.28689 2.36105 0
M  V30 2905 H 267.118 -2.78147 1.42663 0
M  V30 2906 H 266.338 -1.58894 3.60758 0
M  V30 2907 H 267.626 -2.46997 4.44826 0
M  V30 2908 H 267.024 -5.03868 2.57165 0
M  V30 2909 H 265.581 -5.62075 3.30023 0
M  V30 2910 N 269.014 -1.53014 -0.377408 0
M  V30 2911 C 269.977 -1.77957 -1.44444 0
M  V30 2912 C 270.977 -0.649763 -1.47087 0
M  V30 2913 O 272.167 -0.917897 -1.48055 0
M  V30 2914 C 269.299 -1.89089 -2.83651 0
M  V30 2915 H 270.492 -2.73243 -1.23606 0
M  V30 2916 H 268.045 -1.43912 -0.609844 0
M  V30 2917 H 268.78 -0.958293 -3.09818 0
M  V30 2918 H 268.565 -2.71254 -2.83132 0
M  V30 2919 H 270.055 -2.1002 -3.60945 0
M  V30 2920 N 270.492 0.636531 -1.44174 0
M  V30 2921 C 271.44 1.76995 -1.50915 0
M  V30 2922 C 272.434 1.65053 -0.381295 0
M  V30 2923 O 273.64 1.71197 -0.55601 0
M  V30 2924 H 270.015 0.584247 -0.473455 0
M  V30 2925 H 271.986 1.68432 -2.4632 0
M  V30 2926 C 270.735 3.15314 -1.46534 0
M  V30 2927 H 270.058 3.25149 -2.32633 0
M  V30 2928 H 271.498 3.9453 -1.55312 0
M  V30 2929 C 269.957 3.3639 -0.185305 0
M  V30 2930 O 270.487 3.94699 0.746688 0
M  V30 2931 N 268.693 2.9046 -0.0901606 0
M  V30 2932 H 268.24 2.43193 -0.849416 0
M  V30 2933 H 268.198 3.04937 0.765553 0
M  V30 2934 N 271.97 1.30982 0.876444 0
M  V30 2935 C 273.386 1.09498 1.16113 0
M  V30 2936 C 273.586 -0.13875 2.01022 0
M  V30 2937 O 272.642 -0.829935 2.38471 0
M  V30 2938 C 273.955 2.36308 1.85954 0
M  V30 2939 C 275.503 2.41856 1.98683 0
M  V30 2940 C 275.978 3.6853 2.71937 0
M  V30 2941 N 277.469 3.69387 2.79477 0
M  V30 2942 C 278.204 4.64096 3.36753 0
M  V30 2943 N 277.7 5.69155 3.95012 0
M  V30 2944 N 279.493 4.51626 3.3465 0
M  V30 2945 H 271.644 2.10118 0.310494 0
M  V30 2946 H 273.907 0.926634 0.200131 0
M  V30 2947 H 273.613 3.26388 1.31011 0
M  V30 2948 H 273.487 2.4561 2.86278 0
M  V30 2949 H 275.874 1.52249 2.52793 0
M  V30 2950 H 275.955 2.36523 0.9742 0
M  V30 2951 H 275.599 4.58499 2.18496 0
M  V30 2952 H 275.529 3.71127 3.73593 0
M  V30 2953 H 278.02 2.93438 2.38123 0
M  V30 2954 H 278.333 6.3751 4.36808 0
M  V30 2955 H 276.678 5.72937 3.93406 0
M  V30 2956 H 279.869 3.68728 2.8837 0
M  V30 2957 H 280.042 5.25614 3.7899 0
M  V30 2958 N 273.449 -1.08991 1.13837 0
M  V30 2959 C 274.726 -1.77863 0.813876 0
M  V30 2960 C 275.106 -1.99375 -0.693746 0
M  V30 2961 O 274.454 -1.59875 -1.63255 0
M  V30 2962 C 274.664 -3.0986 1.60586 0
M  V30 2963 C 276.012 -3.84493 1.8014 0
M  V30 2964 O 277.036 -3.19624 1.57222 0
M  V30 2965 O 275.895 -5.00957 2.18413 0
M  V30 2966 H 272.989 -0.771589 0.297624 0
M  V30 2967 H 275.535 -1.15507 1.24323 0
M  V30 2968 H 274.307 -2.89715 2.63022 0
M  V30 2969 H 273.93 -3.79942 1.17173 0
M  V30 2970 N 274.927 -0.932562 -1.27047 0
M  V30 2971 C 276.173 -0.576412 -1.94436 0
M  V30 2972 C 276.506 0.880891 -1.73072 0
M  V30 2973 O 275.781 1.62905 -1.06264 0
M  V30 2974 C 276.064 -0.909031 -3.48437 0
M  V30 2975 C 275.917 -2.42044 -3.79123 0
M  V30 2976 C 277.236 -0.418341 -4.38107 0
M  V30 2977 H 274.355 -0.210888 -0.706184 0
M  V30 2978 H 276.997 -1.16522 -1.50075 0
M  V30 2979 H 275.147 -0.407947 -3.86352 0
M  V30 2980 H 276.819 -2.99359 -3.50973 0
M  V30 2981 H 275.062 -2.86758 -3.25503 0
M  V30 2982 H 275.733 -2.6037 -4.86736 0
M  V30 2983 H 278.209 -0.847856 -4.0737 0
M  V30 2984 H 277.085 -0.679981 -5.44672 0
M  V30 2985 H 277.346 0.681642 -4.36814 0
M  V30 2986 N 276.405 1.4127 -0.698611 0
M  V30 2987 C 277.315 2.34573 -0.0357891 0
M  V30 2988 C 278.331 1.56393 0.762701 0
M  V30 2989 O 279.507 1.8886 0.699564 0
M  V30 2990 C 276.572 3.35159 0.887089 0
M  V30 2991 C 275.633 4.29225 0.0804634 0
M  V30 2992 C 274.866 5.25006 0.959387 0
M  V30 2993 O 275.089 5.26314 2.19886 0
M  V30 2994 O 274.023 6.00519 0.407439 0
M  V30 2995 H 277.849 2.92838 -0.804957 0
M  V30 2996 H 275.434 1.42175 -0.458966 0
M  V30 2997 H 277.316 3.9689 1.41621 0
M  V30 2998 H 275.991 2.79333 1.6357 0
M  V30 2999 H 274.898 3.70833 -0.493328 0
M  V30 3000 H 276.231 4.88157 -0.629547 0
M  V30 3001 N 277.883 0.443576 1.51229 0
M  V30 3002 C 278.833 -0.382787 2.24764 0
M  V30 3003 C 279.817 -0.984836 1.27239 0
M  V30 3004 O 281.009 -0.901943 1.52296 0
M  V30 3005 C 278.138 -1.47989 3.09765 0
M  V30 3006 C 277.224 -0.886931 4.14722 0
M  V30 3007 N 277.615 -0.0237103 5.05794 0
M  V30 3008 C 275.913 -1.15385 4.30816 0
M  V30 3009 C 276.614 0.309971 5.80874 0
M  V30 3010 N 275.59 -0.307989 5.42727 0
M  V30 3011 H 279.392 0.282624 2.92538 0
M  V30 3012 H 276.906 0.256027 1.60369 0
M  V30 3013 H 278.903 -2.08482 3.61027 0
M  V30 3014 H 277.563 -2.14758 2.43535 0
M  V30 3015 H 278.574 0.34318 5.16762 0
M  V30 3016 H 275.251 -1.81857 3.75812 0
M  V30 3017 H 276.641 1.01279 6.64223 0
M  V30 3018 N 279.361 -1.56624 0.175154 0
M  V30 3019 C 280.609 -1.96609 -0.467885 0
M  V30 3020 C 280.93 -1.06238 -1.63519 0
M  V30 3021 O 280.2 -0.129523 -1.95471 0
M  V30 3022 H 278.78 -0.726008 -0.175845 0
M  V30 3023 H 281.442 -1.93195 0.257234 0
M  V30 3024 H 280.538 -3.00989 -0.825342 0
M  V30 3025 N 280.839 0.0985539 -1.57292 0
M  V30 3026 C 281.769 1.12064 -2.04851 0
M  V30 3027 C 282.75 1.41981 -0.936767 0
M  V30 3028 O 283.935 1.52071 -1.20781 0
M  V30 3029 C 281.065 2.44144 -2.47004 0
M  V30 3030 C 280.019 2.28643 -3.6181 0
M  V30 3031 C 279.345 3.65869 -3.89929 0
M  V30 3032 C 280.645 1.72986 -4.92822 0
M  V30 3033 H 282.339 0.724979 -2.9049 0
M  V30 3034 H 279.885 0.34729 -1.39749 0
M  V30 3035 H 281.838 3.15914 -2.78884 0
M  V30 3036 H 280.562 2.85639 -1.5836 0
M  V30 3037 H 279.221 1.59318 -3.30172 0
M  V30 3038 H 278.869 4.04885 -2.98458 0
M  V30 3039 H 278.569 3.56344 -4.67218 0
M  V30 3040 H 280.093 4.39112 -4.2428 0
M  V30 3041 H 281.507 2.34593 -5.23105 0
M  V30 3042 H 279.904 1.74229 -5.74251 0
M  V30 3043 H 280.974 0.689007 -4.7998 0
M  V30 3044 N 282.317 1.53212 0.369288 0
M  V30 3045 C 283.28 1.7872 1.43498 0
M  V30 3046 C 284.28 0.657554 1.46741 0
M  V30 3047 O 285.47 0.925736 1.47566 0
M  V30 3048 C 282.602 1.90591 2.82645 0
M  V30 3049 H 283.795 2.73894 1.22156 0
M  V30 3050 H 281.348 1.44233 0.602203 0
M  V30 3051 H 282.083 0.974709 3.09306 0
M  V30 3052 H 281.868 2.72751 2.8169 0
M  V30 3053 H 283.358 2.11931 3.59826 0
M  V30 3054 N 283.795 -0.628877 1.44509 0
M  V30 3055 C 284.725 -1.75187 1.54376 0
M  V30 3056 C 285.706 -1.65411 0.396618 0
M  V30 3057 O 286.891 -1.84137 0.617031 0
M  V30 3058 C 284.021 -3.13725 1.48976 0
M  V30 3059 C 282.975 -3.38291 2.62189 0
M  V30 3060 C 282.301 -4.76883 2.41841 0
M  V30 3061 C 283.601 -3.30632 4.04326 0
M  V30 3062 H 285.295 -1.67187 2.48373 0
M  V30 3063 H 282.841 -0.802909 1.19538 0
M  V30 3064 H 284.794 -3.92064 1.54478 0
M  V30 3065 H 283.518 -3.22515 0.514961 0
M  V30 3066 H 282.177 -2.62334 2.56079 0
M  V30 3067 H 281.825 -4.82378 1.42548 0
M  V30 3068 H 281.525 -4.94278 3.17747 0
M  V30 3069 H 283.049 -5.57449 2.49165 0
M  V30 3070 H 284.463 -3.98873 4.11793 0
M  V30 3071 H 282.86 -3.59561 4.80454 0
M  V30 3072 H 283.93 -2.28404 4.27738 0
M  V30 3073 N 285.273 -1.31445 -0.869486 0
M  V30 3074 C 286.236 -1.19094 -1.9583 0
M  V30 3075 C 287.236 -0.117906 -1.60367 0
M  V30 3076 O 288.426 -0.367208 -1.70286 0
M  V30 3077 C 285.558 -0.828165 -3.30688 0
M  V30 3078 H 286.751 -2.15842 -2.08212 0
M  V30 3079 H 284.304 -1.15063 -1.05784 0
M  V30 3080 H 285.039 0.138142 -3.24006 0
M  V30 3081 H 284.824 -1.6038 -3.578 0
M  V30 3082 H 286.314 -0.765658 -4.10521 0
M  V30 3083 N 286.751 1.08385 -1.14413 0
M  V30 3084 C 287.698 2.15311 -0.831265 0
M  V30 3085 C 288.668 1.64751 0.211292 0
M  V30 3086 O 289.853 1.90627 0.0811674 0
M  V30 3087 C 286.993 3.43658 -0.315143 0
M  V30 3088 C 286.106 4.08064 -1.41802 0
M  V30 3089 C 285.241 5.24207 -0.859126 0
M  V30 3090 C 284.28 5.80554 -1.93967 0
M  V30 3091 N 283.417 6.88042 -1.39793 0
M  V30 3092 H 288.257 2.41415 -1.74708 0
M  V30 3093 H 285.794 1.18474 -0.871909 0
M  V30 3094 H 287.752 4.172 0.00230884 0
M  V30 3095 H 286.382 3.17839 0.56378 0
M  V30 3096 H 285.434 3.3228 -1.85187 0
M  V30 3097 H 286.746 4.45962 -2.23427 0
M  V30 3098 H 285.9 6.04689 -0.49359 0
M  V30 3099 H 284.639 4.87699 -0.011932 0
M  V30 3100 H 283.644 4.98725 -2.31415 0
M  V30 3101 H 284.869 6.19121 -2.79046 0
M  V30 3102 H 282.815 6.53493 -0.572919 0
M  V30 3103 H 282.732 7.24767 -2.15054 0
M  V30 3104 H 284 7.72255 -1.0603 0
M  V30 3105 N 288.23 0.939286 1.26551 0
M  V30 3106 C 289.193 0.451987 2.24699 0
M  V30 3107 C 290.193 -0.435869 1.5478 0
M  V30 3108 O 291.383 -0.235314 1.72603 0
M  V30 3109 C 288.515 -0.348801 3.39111 0
M  V30 3110 H 289.708 1.3193 2.69322 0
M  V30 3111 H 287.261 0.721072 1.38673 0
M  V30 3112 H 287.996 -1.23444 2.99887 0
M  V30 3113 H 287.781 0.287945 3.91041 0
M  V30 3114 H 289.271 -0.679726 4.12031 0
M  V30 3115 N 289.708 -1.40897 0.706093 0
M  V30 3116 C 290.938 -2.05075 0.250523 0
M  V30 3117 C 291.346 -1.53275 -1.10921 0
M  V30 3118 O 290.689 -0.680281 -1.7064 0
M  V30 3119 C 290.751 -3.59219 0.142178 0
M  V30 3120 C 290.415 -4.33864 1.43566 0
M  V30 3121 C 291.412 -4.62448 2.37566 0
M  V30 3122 C 289.097 -4.72946 1.69195 0
M  V30 3123 C 291.091 -5.29088 3.5545 0
M  V30 3124 C 288.778 -5.3932 2.87362 0
M  V30 3125 C 289.776 -5.6732 3.80312 0
M  V30 3126 O 289.464 -6.32325 4.96408 0
M  V30 3127 H 289.196 -0.666645 0.112074 0
M  V30 3128 H 291.75 -1.81467 0.962239 0
M  V30 3129 H 289.98 -3.81609 -0.6254 0
M  V30 3130 H 291.669 -4.0495 -0.277584 0
M  V30 3131 H 292.435 -4.32727 2.19027 0
M  V30 3132 H 288.314 -4.50527 0.977042 0
M  V30 3133 H 291.858 -5.50859 4.28018 0
M  V30 3134 H 287.755 -5.68461 3.05814 0
M  V30 3135 H 288.523 -6.50821 4.9636 0
M  V30 3136 N 291.186 -0.45159 -1.50991 0
M  V30 3137 C 292.426 0.109066 -2.04109 0
M  V30 3138 C 292.79 1.38716 -1.32747 0
M  V30 3139 O 293.991 2.02896 -1.76314 0
M  V30 3140 C 292.262 0.308354 -3.56067 0
M  V30 3141 S 293.821 0.830369 -4.30872 0
M  V30 3142 H 290.639 0.0251531 -0.710555 0
M  V30 3143 H 293.241 -0.614264 -1.85599 0
M  V30 3144 H 291.945 -0.627962 -4.05567 0
M  V30 3145 H 291.476 1.05836 -3.78896 0
M  V30 3146 H 293.491 2.10626 -4.49279 0
M  V30 3147 N 292.664 1.56529 -0.183458 0
M  V30 3148 C 293.941 1.88959 0.50536 0
M  V30 3149 C 294.321 1.09523 1.80466 0
M  V30 3150 O 293.669 0.19278 2.27685 0
M  V30 3151 C 293.879 3.41162 0.73547 0
M  V30 3152 C 295.227 4.11155 1.06005 0
M  V30 3153 O 296.251 3.46548 0.823594 0
M  V30 3154 O 295.11 5.25318 1.50675 0
M  V30 3155 H 292.204 0.78441 0.261973 0
M  V30 3156 H 294.75 1.68231 -0.222802 0
M  V30 3157 H 293.522 3.90874 -0.182561 0
M  V30 3158 H 293.145 3.67543 1.51651 0
M  V30 3159 N 294.142 -0.090211 1.57342 0
M  V30 3160 C 295.367 -0.810082 1.90925 0
M  V30 3161 C 295.792 -1.71248 0.778187 0
M  V30 3162 O 295.15 -1.79278 -0.269991 0
M  V30 3163 C 295.198 -1.59529 3.23393 0
M  V30 3164 O 294.302 -2.70461 3.11327 0
M  V30 3165 H 293.643 -0.222231 0.625707 0
M  V30 3166 H 296.173 -0.0639716 2.045 0
M  V30 3167 H 296.183 -1.97847 3.5682 0
M  V30 3168 H 294.858 -0.933055 4.05299 0
M  V30 3169 H 293.435 -2.35135 2.89423 0
M  V30 3170 N 295.62 -1.53406 -0.361157 0
M  V30 3171 C 296.583 -1.79479 -1.42548 0
M  V30 3172 C 297.583 -0.665327 -1.4639 0
M  V30 3173 O 298.773 -0.933549 -1.47073 0
M  V30 3174 C 295.905 -1.92087 -2.8163 0
M  V30 3175 H 297.098 -2.74538 -1.20701 0
M  V30 3176 H 294.651 -1.4455 -0.594546 0
M  V30 3177 H 295.386 -0.991099 -3.08784 0
M  V30 3178 H 295.171 -2.74241 -2.80239 0
M  V30 3179 H 296.661 -2.13836 -3.58697 0
M  V30 3180 N 297.098 0.621204 -1.44841 0
M  V30 3181 C 298.008 1.7612 -1.5498 0
M  V30 3182 C 299.024 1.68477 -0.434927 0
M  V30 3183 O 300.2 1.89076 -0.693693 0
M  V30 3184 C 297.265 3.1254 -1.50065 0
M  V30 3185 C 296.326 3.31741 -2.72482 0
M  V30 3186 C 295.559 4.61653 -2.67792 0
M  V30 3187 O 295.782 5.431 -1.74352 0
M  V30 3188 O 294.716 4.83271 -3.58794 0
M  V30 3189 H 298.542 1.70518 -2.51311 0
M  V30 3190 H 296.127 0.783643 -1.27198 0
M  V30 3191 H 298.009 3.93844 -1.49882 0
M  V30 3192 H 296.684 3.18663 -0.568806 0
M  V30 3193 H 295.591 2.50077 -2.7823 0
M  V30 3194 H 296.924 3.30486 -3.64746 0
M  V30 3195 N 298.576 1.31904 0.862503 0
M  V30 3196 C 299.523 1.20182 1.9704 0
M  V30 3197 C 300.493 0.0858247 1.65878 0
M  V30 3198 O 301.678 0.26 1.8902 0
M  V30 3199 C 298.818 0.922797 3.32533 0
M  V30 3200 C 297.931 2.12284 3.76244 0
M  V30 3201 C 297.066 1.77996 5.00491 0
M  V30 3202 C 296.105 2.94366 5.36671 0
M  V30 3203 N 295.242 2.60223 6.52095 0
M  V30 3204 H 300.082 2.14951 2.06398 0
M  V30 3205 H 297.619 1.06917 1.01031 0
M  V30 3206 H 299.577 0.741548 4.10557 0
M  V30 3207 H 298.207 0.0119227 3.22798 0
M  V30 3208 H 297.259 2.41461 2.9394 0
M  V30 3209 H 298.571 2.99357 3.98982 0
M  V30 3210 H 297.725 1.56377 5.862 0
M  V30 3211 H 296.464 0.881252 4.79672 0
M  V30 3212 H 295.469 3.16625 4.49476 0
M  V30 3213 H 296.694 3.84957 5.59451 0
M  V30 3214 H 294.64 1.72884 6.32809 0
M  V30 3215 H 294.557 3.40827 6.74814 0
M  V30 3216 H 295.825 2.42016 7.40978 0
M  V30 3217 N 300.054 -1.07777 1.14986 0
M  V30 3218 C 300.986 -2.14769 0.800436 0
M  V30 3219 C 301.999 -1.61739 -0.185595 0
M  V30 3220 O 303.188 -1.78462 0.0370358 0
M  V30 3221 C 300.288 -3.38481 0.168533 0
M  V30 3222 C 299.461 -4.20876 1.1909 0
M  V30 3223 C 298.52 -5.22976 0.581575 0
M  V30 3224 O 297.546 -5.55388 1.24633 0
M  V30 3225 N 298.748 -5.76976 -0.638706 0
M  V30 3226 H 301.513 -2.45348 1.72118 0
M  V30 3227 H 299.074 -1.23645 1.04515 0
M  V30 3228 H 301.066 -4.03916 -0.251764 0
M  V30 3229 H 299.636 -3.05651 -0.655467 0
M  V30 3230 H 298.856 -3.51322 1.78791 0
M  V30 3231 H 300.144 -4.7274 1.88133 0
M  V30 3232 H 299.542 -5.52886 -1.19723 0
M  V30 3233 H 298.099 -6.44061 -1.00142 0
M  V30 3234 N 301.532 -0.945985 -1.26051 0
M  V30 3235 C 302.48 -0.450259 -2.282 0
M  V30 3236 C 303.474 0.47497 -1.62605 0
M  V30 3237 O 304.68 0.352653 -1.76512 0
M  V30 3238 H 301.055 -0.127081 -0.741184 0
M  V30 3239 H 303.026 -1.32422 -2.67408 0
M  V30 3240 C 301.775 0.26467 -3.46691 0
M  V30 3241 H 301.098 -0.438123 -3.97392 0
M  V30 3242 H 302.538 0.575678 -4.20074 0
M  V30 3243 C 300.997 1.48416 -3.02447 0
M  V30 3244 O 301.527 2.58227 -3.07704 0
M  V30 3245 N 299.733 1.34243 -2.57735 0
M  V30 3246 H 299.28 0.448994 -2.53657 0
M  V30 3247 H 299.238 2.15957 -2.28495 0
M  V30 3248 N 303.011 1.40521 -0.713556 0
M  V30 3249 C 304.427 1.54839 -0.386907 0
M  V30 3250 C 304.627 1.68532 1.1045 0
M  V30 3251 O 303.683 1.67377 1.89053 0
M  V30 3252 C 304.996 2.77792 -1.15118 0
M  V30 3253 C 306.544 2.91607 -1.13729 0
M  V30 3254 C 307.019 4.1747 -1.88368 0
M  V30 3255 N 308.51 4.24466 -1.85427 0
M  V30 3256 C 309.245 5.20755 -2.40004 0
M  V30 3257 N 308.741 6.22965 -3.03129 0
M  V30 3258 N 310.534 5.1282 -2.30158 0
M  V30 3259 H 302.685 1.29879 -1.68063 0
M  V30 3260 H 304.948 0.627896 -0.710247 0
M  V30 3261 H 304.654 2.73944 -2.20561 0
M  V30 3262 H 304.528 3.6984 -0.741477 0
M  V30 3263 H 306.915 2.94959 -0.0910608 0
M  V30 3264 H 306.996 2.00682 -1.5862 0
M  V30 3265 H 306.64 4.1488 -2.9298 0
M  V30 3266 H 306.57 5.074 -1.40898 0
M  V30 3267 H 309.061 3.51241 -1.3942 0
M  V30 3268 H 309.374 6.92859 -3.42295 0
M  V30 3269 H 307.719 6.23415 -3.07212 0
M  V30 3270 H 310.91 4.31899 -1.80501 0
M  V30 3271 H 311.083 5.87689 -2.72993 0
M  V30 3272 N 304.489 0.459591 1.5075 0
M  V30 3273 C 305.422 -0.386257 2.24907 0
M  V30 3274 C 306.4 -1.006 1.27744 0
M  V30 3275 O 307.584 -1.04416 1.56938 0
M  V30 3276 C 304.711 -1.54021 3.01654 0
M  V30 3277 C 303.757 -1.03898 4.13651 0
M  V30 3278 S 304.59 0.0370501 5.35487 0
M  V30 3279 C 305.746 -1.12105 6.15779 0
M  V30 3280 H 305.979 0.243272 2.96303 0
M  V30 3281 H 303.512 0.244339 1.52454 0
M  V30 3282 H 305.47 -2.20163 3.46466 0
M  V30 3283 H 304.131 -2.14121 2.29806 0
M  V30 3284 H 303.324 -1.90254 4.66711 0
M  V30 3285 H 302.926 -0.45545 3.71216 0
M  V30 3286 H 305.218 -2.03501 6.46215 0
M  V30 3287 H 306.161 -0.62995 7.05292 0
M  V30 3288 H 306.569 -1.36967 5.47631 0
M  V30 3289 N 305.967 -1.56429 0.191757 0
M  V30 3290 C 306.897 -2.21937 -0.725696 0
M  V30 3291 C 307.878 -1.1814 -1.2238 0
M  V30 3292 O 309.063 -1.46636 -1.27325 0
M  V30 3293 C 306.193 -2.87611 -1.94672 0
M  V30 3294 C 305.147 -3.97623 -1.58366 0
M  V30 3295 C 304.473 -4.50446 -2.88102 0
M  V30 3296 C 305.773 -5.16197 -0.796133 0
M  V30 3297 H 307.467 -2.98861 -0.179606 0
M  V30 3298 H 305.013 -1.43749 -0.0849464 0
M  V30 3299 H 306.966 -3.3212 -2.59373 0
M  V30 3300 H 305.69 -2.08087 -2.51728 0
M  V30 3301 H 304.349 -3.53801 -0.960247 0
M  V30 3302 H 303.997 -3.67688 -3.43241 0
M  V30 3303 H 303.697 -5.24675 -2.64556 0
M  V30 3304 H 305.221 -4.97654 -3.53798 0
M  V30 3305 H 306.635 -5.57271 -1.34618 0
M  V30 3306 H 305.032 -5.96471 -0.658928 0
M  V30 3307 H 306.102 -4.84473 0.203478 0
M  V30 3308 N 307.445 0.0818655 -1.57387 0
M  V30 3309 C 308.355 1.11642 -2.06333 0
M  V30 3310 C 309.371 1.43033 -0.99083 0
M  V30 3311 O 310.547 1.53411 -1.30488 0
M  V30 3312 C 307.612 2.41342 -2.48907 0
M  V30 3313 C 306.673 2.17014 -3.7041 0
M  V30 3314 C 305.906 3.4053 -4.10944 0
M  V30 3315 O 306.129 4.4927 -3.51444 0
M  V30 3316 O 305.063 3.29336 -5.03807 0
M  V30 3317 H 308.889 0.730657 -2.9478 0
M  V30 3318 H 306.474 0.295301 -1.46452 0
M  V30 3319 H 308.356 3.17691 -2.76858 0
M  V30 3320 H 307.031 2.79319 -1.63593 0
M  V30 3321 H 305.938 1.38403 -3.47556 0
M  V30 3322 H 307.271 1.83923 -4.56545 0
M  V30 3323 N 308.923 1.53595 0.353017 0
M  V30 3324 C 310.172 1.69603 1.09168 0
M  V30 3325 C 310.485 0.460925 1.90092 0
M  V30 3326 O 311.691 0.501774 2.66823 0
M  V30 3327 C 310.147 2.99872 1.9901 0
M  V30 3328 C 309.755 4.30687 1.23339 0
M  V30 3329 C 311.499 3.25246 2.72792 0
M  V30 3330 C 309.406 5.52036 2.12156 0
M  V30 3331 H 308.336 0.631966 0.411261 0
M  V30 3332 H 310.987 1.80096 0.351802 0
M  V30 3333 H 309.369 2.83212 2.7678 0
M  V30 3334 H 310.543 4.58019 0.505456 0
M  V30 3335 H 308.858 4.11853 0.613663 0
M  V30 3336 H 311.455 4.13095 3.39495 0
M  V30 3337 H 311.798 2.41846 3.38846 0
M  V30 3338 H 312.331 3.42638 2.021 0
M  V30 3339 H 309.07 6.37951 1.50659 0
M  V30 3340 H 308.59 5.28966 2.82764 0
M  V30 3341 H 310.269 5.87313 2.71427 0
M  V30 3342 N 310.401 -0.613514 1.45168 0
M  V30 3343 C 311.331 -1.7354 1.56225 0
M  V30 3344 C 312.312 -1.64981 0.41414 0
M  V30 3345 O 313.497 -1.83472 0.636526 0
M  V30 3346 C 310.627 -3.12128 1.52295 0
M  V30 3347 C 309.581 -3.35491 2.65762 0
M  V30 3348 C 308.907 -4.74291 2.46885 0
M  V30 3349 C 310.207 -3.26325 4.0781 0
M  V30 3350 H 311.901 -1.64543 2.50132 0
M  V30 3351 H 309.447 -0.790185 1.20383 0
M  V30 3352 H 311.4 -3.90404 1.58628 0
M  V30 3353 H 310.124 -3.2195 0.549139 0
M  V30 3354 H 308.783 -2.59603 2.58847 0
M  V30 3355 H 308.431 -4.80839 1.47657 0
M  V30 3356 H 308.131 -4.9088 3.22972 0
M  V30 3357 H 309.655 -5.54775 2.55063 0
M  V30 3358 H 311.069 -3.94483 4.16 0
M  V30 3359 H 309.466 -3.54445 4.8424 0
M  V30 3360 H 310.536 -2.23855 4.30136 0
M  V30 3361 N 311.879 -1.3236 -0.855495 0
M  V30 3362 C 312.811 -1.17052 -1.97057 0
M  V30 3363 C 313.824 -0.10574 -1.62456 0
M  V30 3364 O 315.013 -0.354619 -1.74942 0
M  V30 3365 C 312.113 -0.769305 -3.30053 0
M  V30 3366 C 311.286 -1.9222 -3.929 0
M  V30 3367 C 310.345 -1.50466 -5.04228 0
M  V30 3368 O 309.371 -2.21655 -5.24269 0
M  V30 3369 N 310.573 -0.400209 -5.79119 0
M  V30 3370 H 313.338 -2.13103 -2.1073 0
M  V30 3371 H 310.899 -1.24885 -1.0303 0
M  V30 3372 H 312.891 -0.472407 -4.01933 0
M  V30 3373 H 311.461 0.100025 -3.1244 0
M  V30 3374 H 310.681 -2.38563 -3.13817 0
M  V30 3375 H 311.969 -2.69403 -4.31624 0
M  V30 3376 H 311.367 0.192319 -5.65373 0
M  V30 3377 H 309.924 -0.162912 -6.51596 0
M  V30 3378 N 313.357 1.07166 -1.15556 0
M  V30 3379 C 314.604 1.79798 -0.931604 0
M  V30 3380 C 314.932 1.8682 0.54115 0
M  V30 3381 O 314.187 1.34942 1.41736 0
M  V30 3382 C 314.486 3.24707 -1.49332 0
M  V30 3383 C 314.152 3.37781 -2.98688 0
M  V30 3384 C 312.814 3.41057 -3.39461 0
M  V30 3385 C 315.166 3.40424 -3.94665 0
M  V30 3386 C 312.494 3.4458 -4.74849 0
M  V30 3387 C 314.846 3.45485 -5.29927 0
M  V30 3388 C 313.51 3.47039 -5.70193 0
M  V30 3389 H 312.78 0.657928 -0.340898 0
M  V30 3390 H 315.427 1.26091 -1.44129 0
M  V30 3391 H 313.732 3.81208 -0.904859 0
M  V30 3392 H 315.429 3.79486 -1.29582 0
M  V30 3393 H 312.019 3.35932 -2.66172 0
M  V30 3394 H 316.203 3.37113 -3.64237 0
M  V30 3395 H 311.459 3.44083 -5.05388 0
M  V30 3396 H 315.633 3.46476 -6.04092 0
M  V30 3397 H 313.26 3.49522 -6.75084 0
M  V30 3398 N 314.835 0.952656 1.25548 0
M  V30 3399 C 315.782 0.47008 2.25962 0
M  V30 3400 C 316.752 -0.476384 1.59122 0
M  V30 3401 O 317.937 -0.39007 1.8677 0
M  V30 3402 C 315.077 -0.247881 3.44209 0
M  V30 3403 C 314.19 0.735591 4.25691 0
M  V30 3404 C 313.325 -0.0047306 5.312 0
M  V30 3405 C 312.364 0.969805 6.04368 0
M  V30 3406 N 311.501 0.260486 7.01617 0
M  V30 3407 H 316.341 1.33126 2.66611 0
M  V30 3408 H 313.878 0.66765 1.31076 0
M  V30 3409 H 315.836 -0.680695 4.1161 0
M  V30 3410 H 314.466 -1.07312 3.0444 0
M  V30 3411 H 313.518 1.28689 3.57971 0
M  V30 3412 H 314.83 1.47934 4.76358 0
M  V30 3413 H 313.984 -0.496275 6.04667 0
M  V30 3414 H 312.723 -0.781282 4.81401 0
M  V30 3415 H 311.728 1.47237 5.29718 0
M  V30 3416 H 312.953 1.74655 6.56256 0
M  V30 3417 H 310.899 -0.497364 6.54112 0
M  V30 3418 H 310.816 0.943362 7.50091 0
M  V30 3419 H 312.084 -0.209587 7.79218 0
M  V30 3420 N 316.313 -1.40141 0.720998 0
M  V30 3421 C 317.243 -2.33339 0.0867621 0
M  V30 3422 C 318.224 -1.53178 -0.739622 0
M  V30 3423 O 319.409 -1.81625 -0.687449 0
M  V30 3424 C 316.539 -3.37194 -0.831728 0
M  V30 3425 C 315.493 -4.27857 -0.110558 0
M  V30 3426 C 314.819 -5.22294 -1.14513 0
M  V30 3427 C 316.119 -5.11872 1.0385 0
M  V30 3428 H 317.813 -2.86626 0.865219 0
M  V30 3429 H 315.359 -1.37814 0.417516 0
M  V30 3430 H 317.312 -4.01335 -1.28485 0
M  V30 3431 H 316.036 -2.82314 -1.64214 0
M  V30 3432 H 314.695 -3.65176 0.322797 0
M  V30 3433 H 314.343 -4.63717 -1.94874 0
M  V30 3434 H 314.043 -5.83797 -0.667446 0
M  V30 3435 H 315.567 -5.89312 -1.59824 0
M  V30 3436 H 316.981 -5.69436 0.664482 0
M  V30 3437 H 315.378 -5.82445 1.4449 0
M  V30 3438 H 316.448 -4.4753 1.86668 0
M  V30 3439 N 317.792 -0.46758 -1.50504 0
M  V30 3440 C 319.069 0.15003 -1.95024 0
M  V30 3441 C 319.449 1.57304 -1.40779 0
M  V30 3442 O 318.797 2.20281 -0.607319 0
M  V30 3443 C 319.007 0.0969324 -3.48865 0
M  V30 3444 C 320.355 0.287565 -4.23625 0
M  V30 3445 O 321.379 0.173678 -3.55776 0
M  V30 3446 O 320.238 0.517186 -5.44047 0
M  V30 3447 H 317.332 0.113582 -0.819163 0
M  V30 3448 H 319.878 -0.52773 -1.61286 0
M  V30 3449 H 318.65 -0.896732 -3.80886 0
M  V30 3450 H 318.273 0.816303 -3.8913 0
M  V30 3451 N 319.27 1.56325 -0.20005 0
M  V30 3452 C 320.519 1.96895 0.437652 0
M  V30 3453 C 320.832 1.08999 1.62415 0
M  V30 3454 O 322.038 1.39372 2.32997 0
M  V30 3455 C 320.494 3.50198 0.830025 0
M  V30 3456 C 320.102 4.46765 -0.332461 0
M  V30 3457 C 321.846 3.99526 1.43453 0
M  V30 3458 C 319.753 5.91344 0.0811468 0
M  V30 3459 H 318.683 0.735209 0.167282 0
M  V30 3460 H 321.334 1.81148 -0.292853 0
M  V30 3461 H 319.716 3.61467 1.61734 0
M  V30 3462 H 320.89 4.47231 -1.11 0
M  V30 3463 H 319.205 4.07657 -0.848789 0
M  V30 3464 H 321.802 5.05025 1.75652 0
M  V30 3465 H 322.145 3.44122 2.34277 0
M  V30 3466 H 322.678 3.91393 0.71109 0
M  V30 3467 H 319.417 6.50685 -0.793033 0
M  V30 3468 H 318.937 5.94121 0.823445 0
M  V30 3469 H 320.616 6.44945 0.515252 0
M  V30 3470 N 320.748 -0.0735177 1.57428 0
M  V30 3471 C 321.678 -1.0879 2.06608 0
M  V30 3472 C 322.659 -1.40473 0.959237 0
M  V30 3473 O 323.844 -1.5013 1.23185 0
M  V30 3474 C 320.974 -2.40183 2.50857 0
M  V30 3475 C 319.928 -2.22858 3.65402 0
M  V30 3476 C 319.254 -3.59619 3.957 0
M  V30 3477 C 320.554 -1.65123 4.95511 0
M  V30 3478 H 322.248 -0.678673 2.91607 0
M  V30 3479 H 319.794 -0.325013 1.40284 0
M  V30 3480 H 321.747 -3.11437 2.83874 0
M  V30 3481 H 320.471 -2.83083 1.62885 0
M  V30 3482 H 319.13 -1.54045 3.32664 0
M  V30 3483 H 318.778 -4.00086 3.04861 0
M  V30 3484 H 318.478 -3.48866 4.72828 0
M  V30 3485 H 320.002 -4.32306 4.31212 0
M  V30 3486 H 321.416 -2.26241 5.26771 0
M  V30 3487 H 319.813 -1.65071 5.7695 0
M  V30 3488 H 320.883 -0.612559 4.81015 0
M  V30 3489 N 322.226 -1.5378 -0.344866 0
M  V30 3490 C 323.472 -1.72158 -1.0832 0
M  V30 3491 C 323.827 -0.478218 -1.86362 0
M  V30 3492 O 323.12 0.529152 -1.84148 0
M  V30 3493 C 323.314 -2.92407 -2.05506 0
M  V30 3494 C 323.143 -4.28318 -1.37017 0
M  V30 3495 C 321.913 -4.92832 -1.11558 0
M  V30 3496 C 324.111 -5.08086 -0.797071 0
M  V30 3497 N 322.093 -6.12619 -0.396358 0
M  V30 3498 C 323.464 -6.1965 -0.208336 0
M  V30 3499 C 325.519 -4.92986 -0.697787 0
M  V30 3500 C 324.222 -7.17763 0.470023 0
M  V30 3501 C 326.248 -5.91391 -0.033171 0
M  V30 3502 C 325.61 -7.02292 0.544599 0
M  V30 3503 H 321.709 -0.683017 -0.380805 0
M  V30 3504 H 324.293 -1.91211 -0.366961 0
M  V30 3505 H 322.464 -2.74857 -2.74423 0
M  V30 3506 H 324.196 -2.9951 -2.72169 0
M  V30 3507 H 320.951 -4.52362 -1.40234 0
M  V30 3508 H 321.375 -6.7698 -0.0515119 0
M  V30 3509 H 326.017 -4.07414 -1.13022 0
M  V30 3510 H 323.735 -8.0291 0.914351 0
M  V30 3511 H 327.321 -5.81784 0.0430009 0
M  V30 3512 H 326.201 -7.77129 1.05073 0
M  V30 3513 N 323.704 0.605807 -1.45491 0
M  V30 3514 C 324.929 1.39625 -1.53361 0
M  V30 3515 C 325.354 1.87351 -0.167645 0
M  V30 3516 O 324.712 1.60243 0.848051 0
M  V30 3517 C 324.76 2.57559 -2.5238 0
M  V30 3518 O 323.864 3.58248 -2.04285 0
M  V30 3519 H 323.205 0.416771 -0.516912 0
M  V30 3520 H 325.735 0.737103 -1.90861 0
M  V30 3521 H 325.745 3.0478 -2.71244 0
M  V30 3522 H 324.42 2.22171 -3.51586 0
M  V30 3523 H 322.997 3.17664 -1.95305 0
M  V30 3524 N 325.182 1.32811 0.848464 0
M  V30 3525 C 326.115 1.16601 1.96162 0
M  V30 3526 C 327.093 0.0638855 1.62474 0
M  V30 3527 O 328.277 0.224348 1.8716 0
M  V30 3528 C 325.404 0.786333 3.29446 0
M  V30 3529 C 324.45 1.89459 3.8211 0
M  V30 3530 S 325.283 3.50395 4.04949 0
M  V30 3531 C 326.439 3.14413 5.41198 0
M  V30 3532 H 326.672 2.10832 2.09612 0
M  V30 3533 H 324.205 1.17543 1.00115 0
M  V30 3534 H 326.163 0.574044 4.06466 0
M  V30 3535 H 324.824 -0.137218 3.138 0
M  V30 3536 H 324.017 1.58207 4.78526 0
M  V30 3537 H 323.619 2.06304 3.11953 0
M  V30 3538 H 325.911 2.64642 6.23675 0
M  V30 3539 H 326.854 4.09874 5.77416 0
M  V30 3540 H 327.262 2.51266 5.05495 0
M  V30 3541 N 326.66 -1.06551 1.16123 0
M  V30 3542 C 327.59 -2.15935 0.88851 0
M  V30 3543 C 328.571 -1.69306 -0.164135 0
M  V30 3544 O 329.756 -1.94193 -0.0167857 0
M  V30 3545 C 326.886 -3.45149 0.385942 0
M  V30 3546 C 325.84 -4.05271 1.3762 0
M  V30 3547 C 325.166 -5.29664 0.732137 0
M  V30 3548 C 326.466 -4.44355 2.74493 0
M  V30 3549 H 328.16 -2.39006 1.80323 0
M  V30 3550 H 325.706 -1.14866 0.868435 0
M  V30 3551 H 327.659 -4.21004 0.182647 0
M  V30 3552 H 326.383 -3.21689 -0.564274 0
M  V30 3553 H 325.042 -3.3147 1.56599 0
M  V30 3554 H 324.69 -5.02499 -0.224483 0
M  V30 3555 H 324.39 -5.70848 1.39307 0
M  V30 3556 H 325.914 -6.08218 0.538802 0
M  V30 3557 H 327.328 -5.11303 2.59311 0
M  V30 3558 H 325.725 -4.96515 3.37035 0
M  V30 3559 H 326.795 -3.55339 3.29943 0
M  V30 3560 N 328.138 -0.959301 -1.25041 0
M  V30 3561 C 329.415 -0.533805 -1.88175 0
M  V30 3562 C 329.795 0.988994 -1.865 0
M  V30 3563 O 329.143 1.85677 -1.33177 0
M  V30 3564 C 329.353 -1.11575 -3.30684 0
M  V30 3565 C 330.701 -1.19548 -4.07423 0
M  V30 3566 O 331.725 -1.06765 -3.39823 0
M  V30 3567 O 330.584 -1.39656 -5.28354 0
M  V30 3568 H 327.678 -0.176772 -0.807887 0
M  V30 3569 H 330.224 -1.05303 -1.33076 0
M  V30 3570 H 328.996 -2.15884 -3.26358 0
M  V30 3571 H 328.619 -0.580059 -3.93346 0
M  V30 3572 N 329.616 1.39756 -0.72842 0
M  V30 3573 C 330.579 2.29012 -0.0927297 0
M  V30 3574 C 331.579 1.45992 0.674025 0
M  V30 3575 O 332.769 1.66749 0.50402 0
M  V30 3576 C 329.901 3.29396 0.878137 0
M  V30 3577 H 331.094 2.86729 -0.879011 0
M  V30 3578 H 328.647 1.48293 -0.493847 0
M  V30 3579 H 329.382 2.76722 1.69101 0
M  V30 3580 H 329.167 3.907 0.331051 0
M  V30 3581 H 330.657 3.96199 1.3197 0
M  V30 3582 N 331.094 0.475555 1.50254 0
M  V30 3583 C 332.027 -0.362381 2.25304 0
M  V30 3584 C 333.005 -0.992393 1.28803 0
M  V30 3585 O 334.189 -1.02746 1.58036 0
M  V30 3586 C 331.316 -1.50813 3.03271 0
M  V30 3587 C 330.362 -0.995044 4.1473 0
M  V30 3588 S 331.195 0.0938436 5.35418 0
M  V30 3589 C 332.351 -1.05567 6.16933 0
M  V30 3590 H 332.584 0.274686 2.96028 0
M  V30 3591 H 330.117 0.260495 1.52187 0
M  V30 3592 H 332.075 -2.16476 3.48781 0
M  V30 3593 H 330.736 -2.11672 2.32064 0
M  V30 3594 H 329.929 -1.85293 4.68703 0
M  V30 3595 H 329.531 -0.416052 3.71679 0
M  V30 3596 H 331.823 -1.96636 6.48337 0
M  V30 3597 H 332.766 -0.555109 7.05921 0
M  V30 3598 H 333.174 -1.31151 5.49053 0
M  V30 3599 N 332.573 -1.56217 0.208337 0
M  V30 3600 C 333.801 -2.02337 -0.43215 0
M  V30 3601 C 334.216 -1.08834 -1.54275 0
M  V30 3602 O 333.573 -0.0955462 -1.8225 0
M  V30 3603 C 333.624 -3.48072 -0.976138 0
M  V30 3604 O 333.345 -4.38007 0.0901621 0
M  V30 3605 C 334.846 -4.09773 -1.69119 0
M  V30 3606 H 332.066 -0.662385 -0.10718 0
M  V30 3607 H 334.61 -2.01966 0.320923 0
M  V30 3608 H 332.765 -3.49099 -1.67954 0
M  V30 3609 H 333.179 -5.23543 -0.316701 0
M  V30 3610 H 334.653 -5.13556 -2.02397 0
M  V30 3611 H 335.13 -3.53999 -2.59964 0
M  V30 3612 H 335.736 -4.12556 -1.03332 0
M  V30 3613 N 334.051 0.0651679 -1.57465 0
M  V30 3614 C 334.984 1.10876 -1.99453 0
M  V30 3615 C 335.962 1.37205 -0.872555 0
M  V30 3616 O 337.146 1.50468 -1.13542 0
M  V30 3617 C 334.273 2.45167 -2.3369 0
M  V30 3618 C 333.319 2.3493 -3.55964 0
M  V30 3619 S 334.152 1.73708 -5.06543 0
M  V30 3620 C 335.308 3.09563 -5.43987 0
M  V30 3621 H 335.541 0.750967 -2.87659 0
M  V30 3622 H 333.074 0.273933 -1.51951 0
M  V30 3623 H 335.032 3.22412 -2.54088 0
M  V30 3624 H 333.693 2.78105 -1.46001 0
M  V30 3625 H 332.886 3.3398 -3.77457 0
M  V30 3626 H 332.488 1.65823 -3.3523 0
M  V30 3627 H 334.78 4.05882 -5.42463 0
M  V30 3628 H 335.723 2.92843 -6.44708 0
M  V30 3629 H 336.131 3.10474 -4.71451 0
M  V30 3630 N 335.529 1.53961 0.336706 0
M  V30 3631 C 336.492 1.81724 1.39675 0
M  V30 3632 C 337.492 0.688532 1.45313 0
M  V30 3633 O 338.682 0.956829 1.45569 0
M  V30 3634 C 335.814 1.96543 2.78538 0
M  V30 3635 H 337.007 2.76424 1.16318 0
M  V30 3636 H 334.56 1.45478 0.571474 0
M  V30 3637 H 335.295 1.0401 3.07168 0
M  V30 3638 H 335.08 2.78665 2.75841 0
M  V30 3639 H 336.57 2.19516 3.5525 0
M  V30 3640 N 337.007 -0.598083 1.45811 0
M  V30 3641 C 338.237 -1.38121 1.53643 0
M  V30 3642 C 338.645 -1.88425 0.171081 0
M  V30 3643 O 337.988 -1.63409 -0.839237 0
M  V30 3644 C 338.05 -2.61432 2.46766 0
M  V30 3645 C 337.714 -2.32702 3.93318 0
M  V30 3646 C 338.711 -1.92479 4.82957 0
M  V30 3647 C 336.396 -2.45321 4.38318 0
M  V30 3648 C 338.39 -1.65248 6.15607 0
M  V30 3649 C 336.077 -2.17703 5.71007 0
M  V30 3650 C 337.075 -1.7773 6.5947 0
M  V30 3651 O 336.763 -1.50441 7.89698 0
M  V30 3652 H 336.495 -0.428863 0.522544 0
M  V30 3653 H 339.049 -0.73557 1.91777 0
M  V30 3654 H 337.279 -3.28749 2.0362 0
M  V30 3655 H 338.968 -3.23487 2.45175 0
M  V30 3656 H 339.734 -1.82258 4.49452 0
M  V30 3657 H 335.613 -2.75399 3.69697 0
M  V30 3658 H 339.157 -1.33973 6.84614 0
M  V30 3659 H 335.054 -2.27544 6.04065 0
M  V30 3660 H 335.822 -1.64415 8.01817 0
M  V30 3661 N 338.485 -1.33259 -0.841409 0
M  V30 3662 C 339.448 -1.23221 -1.9326 0
M  V30 3663 C 340.448 -0.151895 -1.60081 0
M  V30 3664 O 341.638 -0.403246 -1.69468 0
M  V30 3665 C 338.77 -0.898123 -3.28856 0
M  V30 3666 H 339.963 -2.2021 -2.03587 0
M  V30 3667 H 337.516 -1.17281 -1.03319 0
M  V30 3668 H 338.251 0.0693841 -3.24226 0
M  V30 3669 H 338.036 -1.67934 -3.54317 0
M  V30 3670 H 339.526 -0.852563 -4.08805 0
M  V30 3671 N 339.963 1.05934 -1.16686 0
M  V30 3672 C 340.893 2.1546 -0.899949 0
M  V30 3673 C 341.874 1.69391 0.155154 0
M  V30 3674 O 343.059 1.94199 0.00648693 0
M  V30 3675 C 340.189 3.44939 -0.404241 0
M  V30 3676 C 339.143 4.04536 -1.39767 0
M  V30 3677 C 338.469 5.29268 -0.760216 0
M  V30 3678 C 339.769 4.42893 -2.76845 0
M  V30 3679 H 341.463 2.38046 -1.81588 0
M  V30 3680 H 339.009 1.14404 -0.874514 0
M  V30 3681 H 340.962 4.20901 -0.204971 0
M  V30 3682 H 339.686 3.21983 0.547206 0
M  V30 3683 H 338.345 3.30635 -1.58355 0
M  V30 3684 H 337.993 5.02611 0.197831 0
M  V30 3685 H 337.693 5.70101 -1.42332 0
M  V30 3686 H 339.217 6.07924 -0.57105 0
M  V30 3687 H 340.631 5.09921 -2.62019 0
M  V30 3688 H 339.028 4.94721 -3.39663 0
M  V30 3689 H 340.098 3.53584 -3.31823 0
M  V30 3690 N 341.441 0.965919 1.2453 0
M  V30 3691 C 342.373 0.452465 2.2469 0
M  V30 3692 C 343.386 -0.437821 1.56802 0
M  V30 3693 O 344.575 -0.244283 1.76821 0
M  V30 3694 C 341.675 -0.366258 3.36915 0
M  V30 3695 C 340.848 0.513701 4.34373 0
M  V30 3696 C 339.907 -0.248716 5.25612 0
M  V30 3697 O 338.933 0.356745 5.68081 0
M  V30 3698 N 340.135 -1.53877 5.59734 0
M  V30 3699 H 342.9 1.31361 2.69378 0
M  V30 3700 H 340.461 0.837541 1.38553 0
M  V30 3701 H 342.453 -0.884297 3.94921 0
M  V30 3702 H 341.023 -1.12832 2.91526 0
M  V30 3703 H 340.243 1.21273 3.75082 0
M  V30 3704 H 341.531 1.11391 4.96457 0
M  V30 3705 H 340.929 -2.05243 5.27154 0
M  V30 3706 H 339.486 -2.00254 6.20275 0
M  V30 3707 N 342.919 -1.39368 0.735821 0
M  V30 3708 C 344.335 -1.54204 0.411492 0
M  V30 3709 C 344.535 -1.70268 -1.07755 0
M  V30 3710 O 343.591 -1.70364 -1.86366 0
M  V30 3711 C 344.904 -2.75925 1.19523 0
M  V30 3712 C 346.452 -2.89761 1.18354 0
M  V30 3713 C 346.927 -4.14421 1.94986 0
M  V30 3714 N 348.418 -4.21462 1.92156 0
M  V30 3715 C 349.153 -5.16871 2.48258 0
M  V30 3716 N 348.649 -6.18063 3.13001 0
M  V30 3717 N 350.442 -5.09093 2.38287 0
M  V30 3718 H 342.593 -1.27189 1.70108 0
M  V30 3719 H 344.856 -0.616517 0.720147 0
M  V30 3720 H 344.562 -2.70401 2.24892 0
M  V30 3721 H 344.436 -3.68614 0.800222 0
M  V30 3722 H 346.823 -2.94777 0.137975 0
M  V30 3723 H 346.904 -1.98133 1.61793 0
M  V30 3724 H 346.548 -4.10166 2.99543 0
M  V30 3725 H 346.478 -5.05095 1.48953 0
M  V30 3726 H 348.969 -3.48979 1.44991 0
M  V30 3727 H 349.282 -6.87326 3.53275 0
M  V30 3728 H 347.627 -6.18448 3.17091 0
M  V30 3729 H 350.818 -4.28973 1.8735 0
M  V30 3730 H 350.991 -5.83272 2.82308 0
M  V30 3731 N 344.397 -0.483516 -1.5 0
M  V30 3732 C 345.808 -0.0314176 -1.86674 0
M  V30 3733 C 346.159 1.37728 -1.39733 0
M  V30 3734 O 345.284 2.02327 -0.767635 0
M  V30 3735 C 345.879 -0.0502376 -3.38763 0
M  V30 3736 C 344.438 0.346442 -3.74802 0
M  V30 3737 C 343.585 -0.430366 -2.7394 0
M  V30 3738 H 346.536 -0.697182 -1.42566 0
M  V30 3739 H 346.557 0.749116 -3.73053 0
M  V30 3740 H 346.069 -1.07563 -3.72897 0
M  V30 3741 H 344.17 1.37572 -3.46273 0
M  V30 3742 H 344.283 0.0391486 -4.79084 0
M  V30 3743 H 342.647 0.117557 -2.54429 0
M  V30 3744 H 343.43 -1.4555 -3.10918 0
M  V30 3745 N 345.875 1.56104 -0.216619 0
M  V30 3746 C 347.286 1.844 0.292128 0
M  V30 3747 C 347.637 1.13788 1.59833 0
M  V30 3748 O 346.762 0.405888 2.12559 0
M  V30 3749 C 347.357 3.3452 0.53681 0
M  V30 3750 C 345.916 3.63151 0.989876 0
M  V30 3751 C 345.063 2.77255 0.0502302 0
M  V30 3752 H 348.014 1.52481 -0.439926 0
M  V30 3753 H 348.035 3.54459 1.38345 0
M  V30 3754 H 347.547 3.85885 -0.414031 0
M  V30 3755 H 345.648 3.17238 1.95425 0
M  V30 3756 H 345.761 4.71177 0.867698 0
M  V30 3757 H 344.125 2.48555 0.556117 0
M  V30 3758 H 344.908 3.31416 -0.89544 0
M  V30 3759 N 347.353 -0.0568162 1.57498 0
M  V30 3760 C 348.583 -0.764515 1.91934 0
M  V30 3761 C 348.991 -1.70877 0.81227 0
M  V30 3762 O 348.334 -1.82351 -0.222213 0
M  V30 3763 C 348.396 -1.5994 3.21962 0
M  V30 3764 C 348.06 -0.822925 4.4953 0
M  V30 3765 C 349.057 -0.135464 5.19723 0
M  V30 3766 C 346.742 -0.785666 4.96117 0
M  V30 3767 C 348.736 0.578861 6.34766 0
M  V30 3768 C 346.423 -0.0675784 6.11063 0
M  V30 3769 C 347.421 0.613471 6.80239 0
M  V30 3770 O 347.109 1.31996 7.92989 0
M  V30 3771 H 346.841 -0.221647 0.63863 0
M  V30 3772 H 349.395 -0.0268218 2.05382 0
M  V30 3773 H 347.625 -2.38026 3.04763 0
M  V30 3774 H 349.314 -2.18715 3.41934 0
M  V30 3775 H 350.08 -0.155458 4.84751 0
M  V30 3776 H 345.959 -1.30524 4.42136 0
M  V30 3777 H 349.503 1.111 6.88696 0
M  V30 3778 H 345.4 -0.0455636 6.45484 0
M  V30 3779 H 346.168 1.23077 8.09194 0
M  V30 3780 N 348.832 -1.54138 -0.328536 0
M  V30 3781 C 349.782 -1.79557 -1.4051 0
M  V30 3782 C 350.766 -0.651373 -1.47126 0
M  V30 3783 O 351.958 -0.911226 -1.51742 0
M  V30 3784 C 349.087 -2.02196 -2.77438 0
M  V30 3785 C 348.173 -3.22724 -2.75155 0
M  V30 3786 N 348.564 -4.43881 -2.42494 0
M  V30 3787 C 346.862 -3.24196 -3.06289 0
M  V30 3788 C 347.563 -5.25797 -2.48822 0
M  V30 3789 N 346.539 -4.62862 -2.8506 0
M  V30 3790 H 350.341 -2.70814 -1.1418 0
M  V30 3791 H 347.855 -1.53265 -0.536991 0
M  V30 3792 H 349.852 -2.18546 -3.55026 0
M  V30 3793 H 348.512 -1.12191 -3.04702 0
M  V30 3794 H 349.523 -4.70969 -2.15428 0
M  V30 3795 H 346.2 -2.44208 -3.38627 0
M  V30 3796 H 347.59 -6.32535 -2.26603 0
M  V30 3797 N 350.31 0.590341 -1.46126 0
M  V30 3798 C 351.538 1.37504 -1.54597 0
M  V30 3799 C 351.953 1.87897 -0.184447 0
M  V30 3800 O 351.31 1.63192 0.816984 0
M  V30 3801 C 351.361 2.56779 -2.54454 0
M  V30 3802 O 351.082 2.08476 -3.85317 0
M  V30 3803 C 352.583 3.49427 -2.72792 0
M  V30 3804 H 349.803 0.420325 -0.523037 0
M  V30 3805 H 352.347 0.718383 -1.91467 0
M  V30 3806 H 350.502 3.1845 -2.20609 0
M  V30 3807 H 350.916 2.86097 -4.396 0
M  V30 3808 H 352.39 4.29619 -3.466 0
M  V30 3809 H 352.867 4.00876 -1.79429 0
M  V30 3810 H 353.473 2.93598 -3.07702 0
M  V30 3811 N 351.788 1.33704 0.83433 0
M  V30 3812 C 353.034 1.25603 1.59222 0
M  V30 3813 C 353.367 -0.176659 1.93395 0
M  V30 3814 O 352.642 -1.11915 1.59076 0
M  V30 3815 C 352.925 2.13576 2.89926 0
M  V30 3816 C 352.778 3.65326 2.62406 0
M  V30 3817 C 354.097 2.01238 3.91397 0
M  V30 3818 H 351.216 0.457613 0.577719 0
M  V30 3819 H 353.858 1.63848 0.961972 0
M  V30 3820 H 352.008 1.8109 3.43713 0
M  V30 3821 H 353.68 4.08124 2.15017 0
M  V30 3822 H 351.923 3.8698 1.96033 0
M  V30 3823 H 352.594 4.22232 3.55562 0
M  V30 3824 H 355.07 2.29738 3.46929 0
M  V30 3825 H 353.946 2.65036 4.80673 0
M  V30 3826 H 354.207 0.985951 4.30966 0
M  V30 3827 N 353.266 -1.05314 1.17247 0
M  V30 3828 C 354.494 -1.81971 0.984593 0
M  V30 3829 C 354.909 -1.82929 -0.467166 0
M  V30 3830 O 354.266 -1.25564 -1.32438 0
M  V30 3831 C 354.317 -3.28143 1.51672 0
M  V30 3832 O 354.038 -3.27347 2.91163 0
M  V30 3833 C 355.539 -4.21493 1.37326 0
M  V30 3834 H 352.759 -0.573455 0.348411 0
M  V30 3835 H 355.303 -1.32808 1.55506 0
M  V30 3836 H 353.458 -3.74582 0.988302 0
M  V30 3837 H 353.872 -4.18824 3.15732 0
M  V30 3838 H 355.346 -5.22043 1.79375 0
M  V30 3839 H 355.823 -4.38031 0.320169 0
M  V30 3840 H 356.429 -3.80909 1.89178 0
M  V30 3841 N 354.744 -0.972509 -1.24016 0
M  V30 3842 C 356.021 -0.553733 -1.87598 0
M  V30 3843 C 356.401 0.969158 -1.87538 0
M  V30 3844 O 355.749 1.84255 -1.35139 0
M  V30 3845 C 355.959 -1.15076 -3.29482 0
M  V30 3846 C 357.307 -1.23862 -4.06132 0
M  V30 3847 O 358.331 -1.10363 -3.38672 0
M  V30 3848 O 357.19 -1.45252 -5.26844 0
M  V30 3849 H 354.284 -0.185331 -0.805966 0
M  V30 3850 H 356.83 -1.06709 -1.31952 0
M  V30 3851 H 355.602 -2.19333 -3.2405 0
M  V30 3852 H 355.225 -0.621746 -3.92709 0
M  V30 3853 N 356.222 1.38976 -0.743202 0
M  V30 3854 C 357.169 2.30544 -0.10861 0
M  V30 3855 C 358.139 1.49642 0.720869 0
M  V30 3856 O 359.324 1.78304 0.679142 0
M  V30 3857 C 356.464 3.36018 0.786496 0
M  V30 3858 C 355.577 4.31963 -0.0564849 0
M  V30 3859 C 354.712 5.24506 0.840657 0
M  V30 3860 C 353.751 6.121 -0.00658363 0
M  V30 3861 N 352.888 6.96973 0.846943 0
M  V30 3862 H 357.728 2.8424 -0.895088 0
M  V30 3863 H 355.265 1.3995 -0.453048 0
M  V30 3864 H 357.223 3.95768 1.31999 0
M  V30 3865 H 355.853 2.83758 1.53887 0
M  V30 3866 H 354.905 3.73763 -0.707492 0
M  V30 3867 H 356.217 4.93703 -0.711229 0
M  V30 3868 H 355.371 5.89322 1.4417 0
M  V30 3869 H 354.11 4.63107 1.52916 0
M  V30 3870 H 353.115 5.46289 -0.620366 0
M  V30 3871 H 354.34 6.75565 -0.691992 0
M  V30 3872 H 352.286 6.38133 1.52059 0
M  V30 3873 H 352.203 7.5559 0.248864 0
M  V30 3874 H 353.471 7.6621 1.43328 0
M  V30 3875 N 357.7 0.491464 1.49741 0
M  V30 3876 C 358.663 -0.280906 2.27472 0
M  V30 3877 C 359.663 -0.902454 1.33088 0
M  V30 3878 O 360.853 -0.768465 1.56334 0
M  V30 3879 C 357.985 -1.40209 3.10732 0
M  V30 3880 H 359.178 0.401056 2.97206 0
M  V30 3881 H 356.731 0.246131 1.5435 0
M  V30 3882 H 357.466 -2.11849 2.45541 0
M  V30 3883 H 357.251 -0.961969 3.80117 0
M  V30 3884 H 358.741 -1.9464 3.69466 0
M  V30 3885 N 359.178 -1.55987 0.224894 0
M  V30 3886 C 360.141 -2.19178 -0.670348 0
M  V30 3887 C 361.141 -1.15461 -1.11917 0
M  V30 3888 O 362.331 -1.40675 -1.02743 0
M  V30 3889 C 359.463 -2.81777 -1.9187 0
M  V30 3890 H 360.656 -2.99662 -0.119364 0
M  V30 3891 H 358.209 -1.5628 -0.0247128 0
M  V30 3892 H 358.944 -2.05172 -2.51147 0
M  V30 3893 H 358.729 -3.57732 -1.60531 0
M  V30 3894 H 360.219 -3.30205 -2.55645 0
M  V30 3895 N 360.656 0.0484629 -1.57525 0
M  V30 3896 C 361.902 0.738854 -1.89506 0
M  V30 3897 C 362.257 1.73989 -0.821319 0
M  V30 3898 O 361.55 1.90825 0.172129 0
M  V30 3899 C 361.744 1.46632 -3.25935 0
M  V30 3900 C 361.573 0.537254 -4.46479 0
M  V30 3901 C 360.343 0.165484 -5.05029 0
M  V30 3902 C 362.541 -0.176085 -5.13998 0
M  V30 3903 N 360.523 -0.766868 -6.09091 0
M  V30 3904 C 361.894 -0.96478 -6.12448 0
M  V30 3905 C 363.949 -0.24509 -4.97296 0
M  V30 3906 C 362.652 -1.8161 -6.95996 0
M  V30 3907 C 364.678 -1.08347 -5.81391 0
M  V30 3908 C 364.04 -1.86014 -6.79395 0
M  V30 3909 H 360.139 0.245067 -0.742608 0
M  V30 3910 H 362.723 -0.000476161 -1.947 0
M  V30 3911 H 360.894 2.17623 -3.21706 0
M  V30 3912 H 362.626 2.10757 -3.45491 0
M  V30 3913 H 359.381 0.523466 -4.70698 0
M  V30 3914 H 359.805 -1.22698 -6.65788 0
M  V30 3915 H 364.447 0.341063 -4.21422 0
M  V30 3916 H 362.165 -2.41313 -7.71229 0
M  V30 3917 H 365.751 -1.14014 -5.70519 0
M  V30 3918 H 364.631 -2.4984 -7.43337 0
M  V30 3919 N 362.134 1.5431 0.320358 0
M  V30 3920 C 363.084 1.803 1.39556 0
M  V30 3921 C 364.068 0.659166 1.46778 0
M  V30 3922 O 365.26 0.91926 1.51257 0
M  V30 3923 C 362.389 2.03665 2.76361 0
M  V30 3924 C 361.475 3.24178 2.73439 0
M  V30 3925 N 361.866 4.4516 2.40137 0
M  V30 3926 C 360.164 3.25816 3.04565 0
M  V30 3927 C 360.865 5.27109 2.4603 0
M  V30 3928 N 359.841 4.64368 2.82601 0
M  V30 3929 H 363.643 2.71416 1.12742 0
M  V30 3930 H 361.157 1.53548 0.528856 0
M  V30 3931 H 363.154 2.20425 3.53862 0
M  V30 3932 H 361.814 1.13805 3.04103 0
M  V30 3933 H 362.825 4.72104 2.12927 0
M  V30 3934 H 359.502 2.46001 3.37328 0
M  V30 3935 H 360.892 6.33728 2.23246 0
M  V30 3936 N 363.613 -0.582584 1.46437 0
M  V30 3937 C 364.841 -1.36682 1.55324 0
M  V30 3938 C 365.256 -1.87796 0.194409 0
M  V30 3939 O 364.613 -1.63623 -0.808318 0
M  V30 3940 C 364.664 -2.55426 2.55812 0
M  V30 3941 O 364.385 -2.0643 3.86417 0
M  V30 3942 C 365.886 -3.47976 2.74641 0
M  V30 3943 H 363.106 -0.417545 0.525259 0
M  V30 3944 H 365.65 -0.708219 1.91845 0
M  V30 3945 H 363.805 -3.17275 2.22295 0
M  V30 3946 H 364.219 -2.83762 4.41111 0
M  V30 3947 H 365.693 -4.27775 3.48874 0
M  V30 3948 H 366.17 -3.99919 1.81553 0
M  V30 3949 H 366.776 -2.91962 3.09255 0
M  V30 3950 N 365.091 -1.34144 -0.827227 0
M  V30 3951 C 366.319 -1.29325 -1.61501 0
M  V30 3952 C 366.734 0.13354 -1.88327 0
M  V30 3953 O 366.091 1.0793 -1.47164 0
M  V30 3954 C 366.142 -2.07746 -2.95844 0
M  V30 3955 O 365.863 -3.4486 -2.70191 0
M  V30 3956 C 367.364 -2.10273 -3.90256 0
M  V30 3957 H 364.584 -0.445069 -0.50215 0
M  V30 3958 H 367.128 -1.76693 -1.02955 0
M  V30 3959 H 365.283 -1.6403 -3.5096 0
M  V30 3960 H 365.697 -3.85345 -3.55822 0
M  V30 3961 H 367.171 -2.69575 -4.81698 0
M  V30 3962 H 367.648 -1.096 -4.25305 0
M  V30 3963 H 368.254 -2.54059 -3.41078 0
M  V30 3964 N 366.569 1.04691 -1.17803 0
M  V30 3965 C 367.985 1.29963 -0.926379 0
M  V30 3966 C 368.185 1.97251 0.411635 0
M  V30 3967 O 367.241 2.24922 1.14744 0
M  V30 3968 C 368.554 2.16447 -2.08737 0
M  V30 3969 C 370.102 2.29814 -2.12496 0
M  V30 3970 C 370.577 3.19661 -3.27995 0
M  V30 3971 N 372.068 3.27247 -3.27816 0
M  V30 3972 C 372.803 3.96906 -4.13827 0
M  V30 3973 N 372.299 4.6895 -5.09959 0
M  V30 3974 N 374.092 3.93122 -4.01761 0
M  V30 3975 H 366.243 0.594182 -2.0392 0
M  V30 3976 H 368.506 0.324649 -0.890678 0
M  V30 3977 H 368.212 1.74304 -3.05469 0
M  V30 3978 H 368.086 3.17103 -2.04268 0
M  V30 3979 H 370.473 2.71196 -1.16347 0
M  V30 3980 H 370.554 1.2877 -2.21025 0
M  V30 3981 H 370.198 2.78991 -4.24413 0
M  V30 3982 H 370.128 4.20722 -3.16703 0
M  V30 3983 H 372.619 2.75921 -2.58217 0
M  V30 3984 H 372.932 5.19679 -5.71974 0
M  V30 3985 H 371.277 4.67875 -5.13924 0
M  V30 3986 H 374.468 3.35967 -3.2595 0
M  V30 3987 H 374.641 4.47139 -4.6901 0
M  V30 3988 N 368.047 0.979072 1.23499 0
M  V30 3989 C 368.977 0.537606 2.27227 0
M  V30 3990 C 369.958 -0.428539 1.64613 0
M  V30 3991 O 371.143 -0.322191 1.91509 0
M  V30 3992 C 368.273 -0.162052 3.46922 0
M  V30 3993 C 367.227 0.721242 4.21879 0
M  V30 3994 C 366.553 -0.110555 5.34586 0
M  V30 3995 C 367.853 2.01141 4.82016 0
M  V30 3996 H 369.547 1.40462 2.64406 0
M  V30 3997 H 367.093 0.67684 1.27102 0
M  V30 3998 H 369.046 -0.482192 4.18632 0
M  V30 3999 H 367.77 -1.06351 3.08799 0
M  V30 4000 H 366.429 1.02482 3.51984 0
M  V30 4001 H 366.077 -1.0125 4.92704 0
M  V30 4002 H 365.777 0.477325 5.85658 0
M  V30 4003 H 367.301 -0.425107 6.09118 0
M  V30 4004 H 368.715 1.75612 5.45741 0
M  V30 4005 H 367.112 2.54695 5.43369 0
M  V30 4006 H 368.182 2.69909 4.02836 0
M  V30 4007 N 369.525 -1.3858 0.750561 0
M  V30 4008 C 370.771 -2.00481 0.305825 0
M  V30 4009 C 371.104 -1.5944 -1.10872 0
M  V30 4010 O 370.379 -0.83052 -1.75877 0
M  V30 4011 C 370.662 -3.5758 0.425287 0
M  V30 4012 C 370.515 -4.08594 1.88072 0
M  V30 4013 C 371.834 -4.39719 -0.183122 0
M  V30 4014 H 368.953 -0.728348 0.112598 0
M  V30 4015 H 371.595 -1.64566 0.949638 0
M  V30 4016 H 369.745 -3.88306 -0.122828 0
M  V30 4017 H 371.417 -3.88523 2.48691 0
M  V30 4018 H 369.66 -3.61574 2.39681 0
M  V30 4019 H 370.331 -5.177 1.91548 0
M  V30 4020 H 372.807 -4.15128 0.284303 0
M  V30 4021 H 371.683 -5.48856 -0.0692757 0
M  V30 4022 H 371.944 -4.23434 -1.27106 0
M  V30 4023 O 371.042 -0.64105 -1.48232 0
M  V30 4024 H 371.733 -0.162855 -1.93014 0
M  V30 END ATOM
M  V30 BEGIN BOND
M  V30 END BOND
M  V30 END CTAB
M  END
$$$$
