drugbank_target|P27623 Glycerol-3-phosphate cytidylyltransferase (DB02431; DB02484)
 OpenBabel12092119573D

  0  0  0     0  0            999 V3000
M  V30 BEGIN CTAB
M  V30 COUNTS 2161 2184 0 0 0
M  V30 BEGIN ATOM
M  V30 1 H -0.908 1.98254 -0.117106 0
M  V30 2 N 0 1.576 0 0
M  V30 3 C 0.933 2.03868 1.02534 0
M  V30 4 C 1.911 0.928543 1.3348 0
M  V30 5 O 3.095 1.19667 1.45644 0
M  V30 6 C 0.222 2.43627 2.35294 0
M  V30 7 C -0.732 3.65373 2.2001 0
M  V30 8 S 0.101 5.13292 1.52614 0
M  V30 9 C 1.257 5.56322 2.86805 0
M  V30 10 H 1.49 2.90518 0.631377 0
M  V30 11 H -0.977 1.52953 0.210867 0
M  V30 12 H 0.981 2.67203 3.11629 0
M  V30 13 H -0.358 1.57376 2.7183 0
M  V30 14 H -1.165 3.90944 3.18086 0
M  V30 15 H -1.563 3.418 1.51819 0
M  V30 16 H 0.729 5.58782 3.83104 0
M  V30 17 H 1.672 6.56266 2.65933 0
M  V30 18 H 2.08 4.83886 2.90714 0
M  V30 19 N 1.4781 -0.272755 1.55222 0
M  V30 20 C 2.4251 -1.33716 1.88119 0
M  V30 21 C 3.3951 -1.49066 0.73271 0
M  V30 22 O 4.5801 -1.63469 0.984002 0
M  V30 23 C 1.7201 -2.69238 2.15882 0
M  V30 24 C 0.8331 -2.62108 3.43399 0
M  V30 25 C -0.0319 -3.89811 3.60861 0
M  V30 26 C -0.9929 -3.77193 4.8207 0
M  V30 27 N -1.8559 -4.9673 4.96189 0
M  V30 28 H 2.9841 -1.04962 2.78903 0
M  V30 29 H 0.5211 -0.507088 1.38083 0
M  V30 30 H 2.4791 -3.48089 2.29978 0
M  V30 31 H 1.1091 -2.96194 1.28331 0
M  V30 32 H 0.1611 -1.74967 3.37773 0
M  V30 33 H 1.4731 -2.48685 4.32386 0
M  V30 34 H 0.6271 -4.77103 3.74777 0
M  V30 35 H -0.6339 -4.06102 2.7006 0
M  V30 36 H -1.6289 -2.88284 4.68159 0
M  V30 37 H -0.4039 -3.62421 5.74307 0
M  V30 38 H -2.4579 -5.13431 4.08319 0
M  V30 39 H -2.5409 -4.85839 5.79221 0
M  V30 40 H -1.2729 -5.85594 5.1449 0
M  V30 41 N 2.9562 -1.48159 -0.537278 0
M  V30 42 C 3.9032 -1.62138 -1.64256 0
M  V30 43 C 4.8732 -0.463668 -1.59497 0
M  V30 44 O 6.0582 -0.686241 -1.78032 0
M  V30 45 C 3.1982 -1.66028 -3.02537 0
M  V30 46 C 2.3112 -2.92855 -3.17585 0
M  V30 47 C 1.4462 -2.87952 -4.46382 0
M  V30 48 C 0.4852 -4.09516 -4.54932 0
M  V30 49 N -0.3778 -4.02733 -5.75109 0
M  V30 50 H 4.4622 -2.56529 -1.51647 0
M  V30 51 H 1.9992 -1.27224 -0.738414 0
M  V30 52 H 3.9572 -1.66265 -3.82638 0
M  V30 53 H 2.5872 -0.751331 -3.13934 0
M  V30 54 H 1.6392 -3.02395 -2.30784 0
M  V30 55 H 2.9512 -3.82822 -3.19764 0
M  V30 56 H 2.1052 -2.8655 -5.34765 0
M  V30 57 H 0.8442 -1.95702 -4.46712 0
M  V30 58 H -0.1508 -4.11201 -3.64957 0
M  V30 59 H 1.0742 -5.02917 -4.56346 0
M  V30 60 H -0.9798 -3.13299 -5.76351 0
M  V30 61 H -1.0628 -4.86397 -5.78752 0
M  V30 62 H 0.2052 -4.05379 -6.65799 0
M  V30 63 N 4.4343 0.785586 -1.36625 0
M  V30 64 C 5.6803 1.54591 -1.31261 0
M  V30 65 C 6.0133 1.93906 0.106823 0
M  V30 66 O 5.2883 1.63007 1.06108 0
M  V30 67 C 5.5713 2.82038 -2.23889 0
M  V30 68 C 5.4243 2.49066 -3.74548 0
M  V30 69 C 6.7433 3.83887 -2.15217 0
M  V30 70 H 3.8623 0.560846 -0.478143 0
M  V30 71 H 6.5043 0.902278 -1.67209 0
M  V30 72 H 4.6543 3.36961 -1.93363 0
M  V30 73 H 6.3263 2.00164 -4.15611 0
M  V30 74 H 4.5693 1.81954 -3.93796 0
M  V30 75 H 5.2403 3.40109 -4.34776 0
M  V30 76 H 7.7163 3.38421 -2.42096 0
M  V30 77 H 6.5923 4.70806 -2.82193 0
M  V30 78 H 6.8533 4.27131 -1.14068 0
M  V30 79 N 5.9124 1.20967 1.01018 0
M  V30 80 C 7.1614 1.01796 1.74128 0
M  V30 81 C 7.4744 -0.449691 1.90361 0
M  V30 82 O 8.6804 -0.76068 2.60626 0
M  V30 83 C 7.1364 1.7727 3.13215 0
M  V30 84 C 6.7444 3.28171 3.04972 0
M  V30 85 C 8.4884 1.66489 3.90489 0
M  V30 86 C 6.3954 3.96156 4.39107 0
M  V30 87 H 5.3254 0.377276 0.652824 0
M  V30 88 H 7.9764 1.44651 1.12909 0
M  V30 89 H 6.3584 1.27205 3.75013 0
M  V30 90 H 7.5324 3.85499 2.52443 0
M  V30 91 H 5.8474 3.39437 2.41188 0
M  V30 92 H 8.4444 2.14617 4.89738 0
M  V30 93 H 8.7874 0.6222 4.11624 0
M  V30 94 H 9.3204 2.14003 3.35332 0
M  V30 95 H 6.0594 5.00604 4.23174 0
M  V30 96 H 5.5794 3.43617 4.91617 0
M  V30 97 H 7.2584 4.00774 5.07926 0
M  V30 98 N 7.3905 -1.2043 1.01659 0
M  V30 99 C 8.6185 -1.93777 0.725132 0
M  V30 100 C 9.0335 -1.74772 -0.714166 0
M  V30 101 O 8.3905 -1.06169 -1.4844 0
M  V30 102 C 8.4415 -3.45876 1.05129 0
M  V30 103 O 8.1625 -3.6426 2.43406 0
M  V30 104 C 9.6635 -4.36368 0.780891 0
M  V30 105 H 6.8835 -0.615901 0.266284 0
M  V30 106 H 9.4275 -1.52922 1.35776 0
M  V30 107 H 7.5825 -3.8461 0.464065 0
M  V30 108 H 7.9965 -4.58246 2.55169 0
M  V30 109 H 9.4705 -5.41743 1.05918 0
M  V30 110 H 9.9475 -4.38275 -0.284937 0
M  V30 111 H 10.5535 -4.03296 1.35027 0
M  V30 112 N 8.8686 -0.792821 -1.36206 0
M  V30 113 C 10.0986 -0.378275 -2.03107 0
M  V30 114 C 10.5066 1.01119 -1.59911 0
M  V30 115 O 9.8496 1.66052 -0.785658 0
M  V30 116 C 9.9116 -0.366535 -3.57627 0
M  V30 117 C 9.5756 -1.70416 -4.24037 0
M  V30 118 C 10.5726 -2.6602 -4.46687 0
M  V30 119 C 8.2576 -1.98439 -4.6144 0
M  V30 120 C 10.2516 -3.8784 -5.05825 0
M  V30 121 C 7.9386 -3.20525 -5.20295 0
M  V30 122 C 8.9366 -4.15044 -5.42427 0
M  V30 123 O 8.6246 -5.34978 -6.00045 0
M  V30 124 H 8.3566 -0.153543 -0.658332 0
M  V30 125 H 10.9106 -1.07383 -1.75094 0
M  V30 126 H 9.1406 0.385539 -3.84773 0
M  V30 127 H 10.8296 0.0238088 -4.05893 0
M  V30 128 H 11.5956 -2.45658 -4.18183 0
M  V30 129 H 7.4746 -1.25686 -4.43536 0
M  V30 130 H 11.0186 -4.61628 -5.23015 0
M  V30 131 H 6.9156 -3.40764 -5.48225 0
M  V30 132 H 7.6836 -5.36088 -6.18508 0
M  V30 133 N 10.3467 1.47872 -0.545128 0
M  V30 134 C 11.5947 2.02093 -0.016553 0
M  V30 135 C 11.9157 1.42305 1.3332 0
M  V30 136 O 11.1857 0.593853 1.86682 0
M  V30 137 H 9.7657 0.746993 -0.00313038 0
M  V30 138 H 12.4277 1.81414 -0.712397 0
M  V30 139 H 11.5237 3.11996 0.0805422 0
M  V30 140 N 11.8248 0.280983 1.55075 0
M  V30 141 C 13.0528 -0.337293 2.04132 0
M  V30 142 C 13.4678 -1.4903 1.15912 0
M  V30 143 O 12.8248 -1.81606 0.180459 0
M  V30 144 C 12.8758 -0.812706 3.52246 0
M  V30 145 O 12.5968 0.294387 4.3711 0
M  V30 146 C 14.0978 -1.4982 4.17216 0
M  V30 147 H 11.3178 -0.0761638 0.666663 0
M  V30 148 H 13.8618 0.414787 2.00249 0
M  V30 149 H 12.0168 -1.51486 3.56554 0
M  V30 150 H 12.4308 -0.0721325 5.2445 0
M  V30 151 H 13.9048 -1.7822 5.22438 0
M  V30 152 H 14.3818 -2.43168 3.65741 0
M  V30 153 H 14.9878 -0.839742 4.16927 0
M  V30 154 N 13.3029 -1.57598 0.00835791 0
M  V30 155 C 14.5499 -1.90928 -0.674732 0
M  V30 156 C 14.8779 -0.88277 -1.73313 0
M  V30 157 O 14.1329 0.111294 -1.95383 0
M  V30 158 C 14.4319 -3.3101 -1.34787 0
M  V30 159 C 14.0979 -4.48922 -0.421861 0
M  V30 160 C 12.7599 -4.8091 -0.166927 0
M  V30 161 C 15.1119 -5.20755 0.215211 0
M  V30 162 C 12.4399 -5.821 0.733232 0
M  V30 163 C 14.7919 -6.22905 1.1033 0
M  V30 164 C 13.4559 -6.53346 1.36733 0
M  V30 165 H 12.7259 -0.698656 -0.246902 0
M  V30 166 H 15.3729 -1.91387 0.0656779 0
M  V30 167 H 13.6779 -3.26714 -2.16253 0
M  V30 168 H 15.3749 -3.54061 -1.8826 0
M  V30 169 H 11.9649 -4.23934 -0.630729 0
M  V30 170 H 16.1489 -4.9629 0.0312829 0
M  V30 171 H 11.4049 -6.04042 0.945712 0
M  V30 172 H 15.5789 -6.77694 1.60325 0
M  V30 173 H 13.2059 -7.31573 2.06652 0
M  V30 174 N 14.781 0.264519 -1.55364 0
M  V30 175 C 16.058 1.01677 -1.67096 0
M  V30 176 C 16.438 2.03996 -0.543015 0
M  V30 177 O 15.786 2.23907 0.45585 0
M  V30 178 C 15.996 1.66596 -3.0667 0
M  V30 179 C 17.344 2.17442 -3.64697 0
M  V30 180 O 18.368 1.76568 -3.09358 0
M  V30 181 O 17.227 2.92439 -4.61673 0
M  V30 182 H 14.321 0.472161 -0.678965 0
M  V30 183 H 16.867 0.259703 -1.67701 0
M  V30 184 H 15.639 0.924962 -3.80211 0
M  V30 185 H 15.262 2.48968 -3.10001 0
M  V30 186 N 16.2591 1.48442 0.529413 0
M  V30 187 C 17.1891 1.65902 1.64313 0
M  V30 188 C 18.1701 0.507897 1.6234 0
M  V30 189 O 19.3551 0.740503 1.79528 0
M  V30 190 C 16.4851 1.69911 3.02898 0
M  V30 191 C 15.4391 2.8453 3.19729 0
M  V30 192 C 14.7651 2.73629 4.59381 0
M  V30 193 C 16.0651 4.25821 3.02447 0
M  V30 194 H 17.7591 2.5914 1.49955 0
M  V30 195 H 15.3051 1.24709 0.719982 0
M  V30 196 H 17.2581 1.80715 3.80684 0
M  V30 197 H 15.9821 0.732524 3.18279 0
M  V30 198 H 14.6411 2.73283 2.44361 0
M  V30 199 H 14.2891 1.74938 4.71599 0
M  V30 200 H 13.9891 3.50541 4.71588 0
M  V30 201 H 15.5131 2.86401 5.39265 0
M  V30 202 H 16.9271 4.37898 3.70024 0
M  V30 203 H 15.3241 5.03735 3.26146 0
M  V30 204 H 16.3941 4.42244 1.98867 0
M  V30 205 N 17.7372 -0.778329 1.37039 0
M  V30 206 C 18.6672 -1.90546 1.34962 0
M  V30 207 C 19.6482 -1.68681 0.219274 0
M  V30 208 O 20.8332 -1.89634 0.418624 0
M  V30 209 C 17.9632 -3.27734 1.14925 0
M  V30 210 C 16.9172 -3.64147 2.24902 0
M  V30 211 C 16.2432 -4.99806 1.89996 0
M  V30 212 C 17.5432 -3.71579 3.67051 0
M  V30 213 H 19.2372 -1.92541 2.29277 0
M  V30 214 H 16.7832 -0.924948 1.10366 0
M  V30 215 H 18.7362 -4.06215 1.12104 0
M  V30 216 H 17.4602 -3.26154 0.170631 0
M  V30 217 H 16.1192 -2.8797 2.26868 0
M  V30 218 H 15.7672 -4.94759 0.906796 0
M  V30 219 H 15.4672 -5.25139 2.63634 0
M  V30 220 H 16.9912 -5.80694 1.88749 0
M  V30 221 H 18.4052 -4.40227 3.67251 0
M  V30 222 H 16.8022 -4.08405 4.39688 0
M  V30 223 H 17.8722 -2.72404 4.01154 0
M  V30 224 N 19.2153 -1.21501 -1.00376 0
M  V30 225 C 20.1653 -0.942843 -2.07592 0
M  V30 226 C 21.1493 0.102384 -1.60574 0
M  V30 227 O 22.3413 -0.10671 -1.76678 0
M  V30 228 C 19.4703 -0.510729 -3.3948 0
M  V30 229 C 18.5563 -1.59009 -3.93163 0
M  V30 230 N 18.9473 -2.81544 -4.20198 0
M  V30 231 C 17.2453 -1.45925 -4.21452 0
M  V30 232 C 17.9463 -3.51261 -4.63671 0
M  V30 233 N 16.9223 -2.78703 -4.66718 0
M  V30 234 H 20.7243 -1.87378 -2.26421 0
M  V30 235 H 18.2383 -1.11093 -1.18458 0
M  V30 236 H 20.2353 -0.297101 -4.1584 0
M  V30 237 H 18.8953 0.413436 -3.22057 0
M  V30 238 H 19.9063 -3.18075 -4.08716 0
M  V30 239 H 16.5833 -0.600467 -4.13159 0
M  V30 240 H 17.9733 -4.56183 -4.93302 0
M  V30 241 N 20.6934 1.19889 -1.02296 0
M  V30 242 C 21.9394 1.89973 -0.726759 0
M  V30 243 C 22.2944 1.7776 0.73614 0
M  V30 244 O 21.5874 1.15523 1.52856 0
M  V30 245 C 21.7814 3.39883 -1.10518 0
M  V30 246 C 21.6104 3.66684 -2.60332 0
M  V30 247 C 20.3804 3.85045 -3.27213 0
M  V30 248 C 22.5784 3.68727 -3.58532 0
M  V30 249 N 20.5604 3.99422 -4.66192 0
M  V30 250 C 21.9314 3.88604 -4.83101 0
M  V30 251 C 23.9864 3.51722 -3.52414 0
M  V30 252 C 22.6894 3.9324 -6.02292 0
M  V30 253 C 24.7154 3.57632 -4.71013 0
M  V30 254 C 24.0774 3.77988 -5.94394 0
M  V30 255 H 20.1764 0.714551 -0.317712 0
M  V30 256 H 22.7604 1.44123 -1.30907 0
M  V30 257 H 20.9314 3.8447 -0.551142 0
M  V30 258 H 22.6634 3.97464 -0.761853 0
M  V30 259 H 19.4184 3.83689 -2.77632 0
M  V30 260 H 19.8424 4.10473 -5.38368 0
M  V30 261 H 24.4844 3.34945 -2.58015 0
M  V30 262 H 22.2024 4.08811 -6.97065 0
M  V30 263 H 25.7884 3.45773 -4.67902 0
M  V30 264 H 24.6684 3.82428 -6.8463 0
M  V30 265 N 22.1715 0.800033 1.35784 0
M  V30 266 C 23.4195 0.376597 1.9856 0
M  V30 267 C 23.7405 -1.05812 1.63795 0
M  V30 268 O 23.0105 -1.73103 0.917171 0
M  V30 269 H 21.5905 0.136261 0.734467 0
M  V30 270 H 24.2525 1.02442 1.65806 0
M  V30 271 H 23.3485 0.477002 3.08433 0
M  V30 272 N 23.6496 -1.47581 0.552962 0
M  V30 273 C 24.5996 -2.26961 -0.217423 0
M  V30 274 C 25.5836 -1.34099 -0.889168 0
M  V30 275 O 26.7756 -1.58483 -0.788176 0
M  V30 276 C 23.9046 -3.19756 -1.24944 0
M  V30 277 C 22.9906 -4.20097 -0.581327 0
M  V30 278 N 23.3816 -5.04614 0.346171 0
M  V30 279 C 21.6796 -4.38099 -0.835767 0
M  V30 280 C 22.3806 -5.77052 0.733854 0
M  V30 281 N 21.3566 -5.43526 0.0896567 0
M  V30 282 H 25.1586 -2.89688 0.495761 0
M  V30 283 H 22.6726 -1.58068 0.372597 0
M  V30 284 H 24.6696 -3.75305 -1.81527 0
M  V30 285 H 23.3296 -2.58585 -1.96376 0
M  V30 286 H 24.3406 -5.12869 0.720098 0
M  V30 287 H 21.0176 -3.88102 -1.53892 0
M  V30 288 H 22.4076 -6.5504 1.49574 0
M  V30 289 N 25.1277 -0.289203 -1.54924 0
M  V30 290 C 26.3767 0.324231 -1.99077 0
M  V30 291 C 26.6897 1.5591 -1.18117 0
M  V30 292 O 27.8957 2.24637 -1.52481 0
M  V30 293 C 26.3517 0.628209 -3.54375 0
M  V30 294 C 25.9597 -0.587647 -4.44129 0
M  V30 295 C 27.7037 1.20349 -4.07083 0
M  V30 296 C 25.6107 -0.257475 -5.90839 0
M  V30 297 H 24.5407 0.124924 -0.743579 0
M  V30 298 H 27.1917 -0.396063 -1.79175 0
M  V30 299 H 25.5737 1.40778 -3.70132 0
M  V30 300 H 26.7477 -1.36418 -4.40144 0
M  V30 301 H 25.0627 -1.08074 -4.0213 0
M  V30 302 H 27.6597 1.46456 -5.14252 0
M  V30 303 H 28.0027 2.14195 -3.56968 0
M  V30 304 H 28.5357 0.485889 -3.94821 0
M  V30 305 H 25.2747 -1.16419 -6.45079 0
M  V30 306 H 24.7947 0.482018 -5.9786 0
M  V30 307 H 26.4737 0.145238 -6.46837 0
M  V30 308 N 26.6058 1.57591 -0.0167156 0
M  V30 309 C 27.5528 2.09462 0.969251 0
M  V30 310 C 28.5228 0.99381 1.33089 0
M  V30 311 O 29.7078 1.26726 1.42636 0
M  V30 312 C 26.8478 2.61622 2.25051 0
M  V30 313 C 25.9608 3.85666 1.94642 0
M  V30 314 C 25.0958 4.26266 3.16972 0
M  V30 315 C 24.1348 5.43101 2.82326 0
M  V30 316 N 23.2718 5.78915 3.97243 0
M  V30 317 H 28.1118 2.93428 0.519997 0
M  V30 318 H 25.6488 1.45044 0.245087 0
M  V30 319 H 27.6068 2.89949 2.99976 0
M  V30 320 H 26.2368 1.80505 2.67615 0
M  V30 321 H 25.2888 3.64145 1.10013 0
M  V30 322 H 26.6008 4.70678 1.65117 0
M  V30 323 H 25.7548 4.55963 4.00228 0
M  V30 324 H 24.4938 3.39996 3.49648 0
M  V30 325 H 23.4988 5.1311 1.97479 0
M  V30 326 H 24.7238 6.3106 2.50879 0
M  V30 327 H 22.6698 4.95602 4.29785 0
M  V30 328 H 22.5868 6.58539 3.71299 0
M  V30 329 H 23.8548 6.13212 4.81239 0
M  V30 330 N 28.0839 -0.256276 1.55502 0
M  V30 331 C 29.0139 -1.32102 1.92539 0
M  V30 332 C 29.9949 -1.50684 0.789194 0
M  V30 333 O 31.1799 -1.63449 1.04872 0
M  V30 334 C 28.3099 -2.67752 2.21192 0
M  V30 335 C 27.2639 -2.63878 3.36975 0
M  V30 336 C 26.5899 -4.03236 3.51147 0
M  V30 337 C 27.8899 -2.21682 4.72921 0
M  V30 338 H 29.5839 -1.01351 2.81724 0
M  V30 339 H 27.1299 -0.486105 1.35547 0
M  V30 340 H 29.0829 -3.42365 2.45691 0
M  V30 341 H 27.8069 -3.0012 1.28824 0
M  V30 342 H 26.4659 -1.91722 3.12471 0
M  V30 343 H 26.1139 -4.32854 2.56216 0
M  V30 344 H 25.8139 -4.01535 4.29003 0
M  V30 345 H 27.3379 -4.79563 3.77957 0
M  V30 346 H 28.7519 -2.86023 4.96854 0
M  V30 347 H 27.1489 -2.3111 5.53812 0
M  V30 348 H 28.2189 -1.16833 4.70615 0
M  V30 349 N 29.562 -1.4872 -0.521534 0
M  V30 350 C 30.492 -1.66771 -1.63431 0
M  V30 351 C 31.473 -0.516499 -1.62069 0
M  V30 352 O 32.658 -0.750013 -1.79132 0
M  V30 353 C 29.788 -1.71515 -3.01993 0
M  V30 354 C 28.742 -2.86222 -3.18216 0
M  V30 355 C 28.068 -2.76061 -4.57924 0
M  V30 356 C 29.368 -4.27419 -3.00184 0
M  V30 357 H 31.062 -2.59932 -1.48579 0
M  V30 358 H 28.608 -1.25089 -0.713358 0
M  V30 359 H 30.561 -1.82731 -3.7972 0
M  V30 360 H 29.285 -0.749393 -3.17886 0
M  V30 361 H 27.944 -2.74575 -2.42908 0
M  V30 362 H 27.592 -1.77437 -4.70665 0
M  V30 363 H 27.292 -3.53037 -4.69722 0
M  V30 364 H 28.816 -2.89256 -5.37739 0
M  V30 365 H 30.23 -4.39855 -3.67697 0
M  V30 366 H 28.627 -5.05458 -3.2347 0
M  V30 367 H 29.697 -4.43293 -1.96518 0
M  V30 368 N 31.0401 0.771051 -1.3745 0
M  V30 369 C 31.9501 1.91538 -1.35464 0
M  V30 370 C 32.9661 1.72134 -0.254123 0
M  V30 371 O 34.1421 1.95358 -0.489626 0
M  V30 372 C 31.2071 3.26671 -1.16134 0
M  V30 373 C 30.2681 3.58723 -2.35831 0
M  V30 374 C 29.5011 4.87409 -2.17413 0
M  V30 375 O 29.7241 5.58506 -1.15876 0
M  V30 376 O 28.6581 5.18539 -3.05615 0
M  V30 377 H 32.4841 1.96165 -2.31847 0
M  V30 378 H 30.0691 0.9139 -1.18187 0
M  V30 379 H 31.9511 4.07499 -1.07345 0
M  V30 380 H 30.6261 3.22894 -0.228251 0
M  V30 381 H 29.5331 2.78127 -2.50192 0
M  V30 382 H 30.8661 3.67243 -3.27709 0
M  V30 383 N 32.5182 1.22032 0.997298 0
M  V30 384 C 33.9342 0.979326 1.26021 0
M  V30 385 C 34.1342 -0.32972 1.98784 0
M  V30 386 O 33.1902 -1.05345 2.29475 0
M  V30 387 C 34.5032 2.17509 2.07631 0
M  V30 388 C 36.0512 2.21817 2.2083 0
M  V30 389 C 36.5262 3.40933 3.05825 0
M  V30 390 N 38.0172 3.41067 3.13412 0
M  V30 391 C 38.7522 4.29885 3.79455 0
M  V30 392 N 38.2482 5.28914 4.47462 0
M  V30 393 N 40.0412 4.17673 3.76173 0
M  V30 394 H 32.1922 2.06202 0.509352 0
M  V30 395 H 34.4552 0.90334 0.287541 0
M  V30 396 H 34.1612 3.12415 1.61524 0
M  V30 397 H 34.0352 2.17206 3.08385 0
M  V30 398 H 36.4222 1.27462 2.66153 0
M  V30 399 H 36.5032 2.2616 1.1952 0
M  V30 400 H 36.1472 4.35586 2.61203 0
M  V30 401 H 36.0772 3.33829 4.07266 0
M  V30 402 H 38.5682 2.69406 2.65007 0
M  V30 403 H 38.8812 5.92973 4.95583 0
M  V30 404 H 37.2262 5.32831 4.46224 0
M  V30 405 H 40.4172 3.39564 3.22202 0
M  V30 406 H 40.5902 4.87098 4.27363 0
M  V30 407 N 33.9963 -1.19345 1.0293 0
M  V30 408 C 34.9593 -2.20793 0.615069 0
M  V30 409 C 35.9593 -1.57553 -0.321533 0
M  V30 410 O 37.1493 -1.73862 -0.108483 0
M  V30 411 C 34.2813 -3.40754 -0.0999222 0
M  V30 412 H 35.4743 -2.58955 1.51269 0
M  V30 413 H 33.0273 -1.3303 0.820534 0
M  V30 414 H 33.7623 -3.0811 -1.01187 0
M  V30 415 H 33.5473 -3.87889 0.57309 0
M  V30 416 H 35.0373 -4.15898 -0.376645 0
M  V30 417 N 35.4744 -0.807222 -1.35358 0
M  V30 418 C 36.4214 -0.216037 -2.29787 0
M  V30 419 C 37.3914 0.650278 -1.52842 0
M  V30 420 O 38.5764 0.595227 -1.81278 0
M  V30 421 C 35.7164 0.628893 -3.39321 0
M  V30 422 C 34.8294 -0.257927 -4.31229 0
M  V30 423 C 33.9644 0.595069 -5.27856 0
M  V30 424 C 33.0034 -0.292111 -6.11403 0
M  V30 425 N 32.1404 0.520895 -7.00165 0
M  V30 426 H 36.9804 -1.02671 -2.79755 0
M  V30 427 H 34.5174 -0.517839 -1.37684 0
M  V30 428 H 36.4754 1.13393 -4.01494 0
M  V30 429 H 35.1054 1.40482 -2.90628 0
M  V30 430 H 34.1574 -0.881076 -3.70056 0
M  V30 431 H 35.4694 -0.940759 -4.89848 0
M  V30 432 H 34.6234 1.16522 -5.95405 0
M  V30 433 H 33.3624 1.31146 -4.69736 0
M  V30 434 H 32.3674 -0.874525 -5.428 0
M  V30 435 H 33.5924 -1.00638 -6.71602 0
M  V30 436 H 31.5384 1.22125 -6.44532 0
M  V30 437 H 31.4554 -0.103877 -7.55929 0
M  V30 438 H 32.7234 1.0743 -7.72062 0
M  V30 439 N 36.9525 1.47285 -0.560781 0
M  V30 440 C 37.8845 2.28118 0.222438 0
M  V30 441 C 38.8975 1.37219 0.876056 0
M  V30 442 O 40.0865 1.62011 0.749307 0
M  V30 443 C 37.1865 3.1159 1.33285 0
M  V30 444 C 36.3595 4.30473 0.77534 0
M  V30 445 C 35.4185 4.95513 1.77069 0
M  V30 446 O 34.4445 5.53792 1.31539 0
M  V30 447 N 35.6465 4.90531 3.10418 0
M  V30 448 H 38.4115 2.95976 -0.470958 0
M  V30 449 H 35.9725 1.56955 -0.39709 0
M  V30 450 H 37.9645 3.51967 1.99752 0
M  V30 451 H 36.5345 2.45951 1.92943 0
M  V30 452 H 35.7545 3.94144 -0.0662113 0
M  V30 453 H 37.0425 5.07362 0.382272 0
M  V30 454 H 36.4405 4.44389 3.5005 0
M  V30 455 H 34.9975 5.34917 3.72434 0
M  V30 456 N 38.4306 0.297415 1.54768 0
M  V30 457 C 39.3606 -0.573494 2.26348 0
M  V30 458 C 40.3416 -1.14085 1.26169 0
M  V30 459 O 41.5266 -1.17086 1.54934 0
M  V30 460 C 38.6566 -1.74716 3.00153 0
M  V30 461 C 37.6106 -1.31032 4.07449 0
M  V30 462 C 36.9366 -2.56887 4.68949 0
M  V30 463 C 38.2366 -0.444183 5.20408 0
M  V30 464 H 39.9306 0.0235131 2.99391 0
M  V30 465 H 37.4766 0.0127488 1.43994 0
M  V30 466 H 39.4296 -2.3625 3.48947 0
M  V30 467 H 38.1536 -2.37035 2.24682 0
M  V30 468 H 36.8126 -0.718066 3.59499 0
M  V30 469 H 36.4606 -3.17512 3.90122 0
M  V30 470 H 36.1606 -2.2836 5.41411 0
M  V30 471 H 37.6846 -3.19229 5.20505 0
M  V30 472 H 39.0986 -0.9651 5.65118 0
M  V30 473 H 37.4956 -0.252846 5.99567 0
M  V30 474 H 38.5656 0.531609 4.81977 0
M  V30 475 N 39.9087 -1.5758 0.0250728 0
M  V30 476 C 41.1567 -1.91255 -0.653151 0
M  V30 477 C 41.4777 -0.901691 -1.729 0
M  V30 478 O 40.7477 0.0573785 -1.95816 0
M  V30 479 H 39.3277 -0.705942 -0.244243 0
M  V30 480 H 41.9897 -1.94767 0.0719209 0
M  V30 481 H 41.0857 -2.91752 -1.10847 0
M  V30 482 N 41.3868 0.248026 -1.55636 0
M  V30 483 C 42.6638 0.998988 -1.68165 0
M  V30 484 C 43.0438 2.03409 -0.564621 0
M  V30 485 O 42.3918 2.24378 0.432076 0
M  V30 486 C 42.6018 1.63334 -3.0842 0
M  V30 487 C 43.9498 2.13562 -3.66983 0
M  V30 488 O 44.9738 1.73277 -3.11213 0
M  V30 489 O 43.8328 2.87526 -4.64749 0
M  V30 490 H 40.9268 0.464933 -0.683935 0
M  V30 491 H 43.4728 0.241902 -1.67967 0
M  V30 492 H 42.2448 0.884583 -3.8117 0
M  V30 493 H 41.8678 2.45666 -3.12624 0
M  V30 494 N 42.8649 1.48995 0.513639 0
M  V30 495 C 44.0949 1.61297 1.291 0
M  V30 496 C 44.5029 0.278656 1.87137 0
M  V30 497 O 43.8459 -0.744325 1.67945 0
M  V30 498 C 43.9079 2.61326 2.46879 0
M  V30 499 C 43.5719 4.05993 2.09807 0
M  V30 500 C 44.5689 4.93183 1.64519 0
M  V30 501 C 42.2539 4.51642 2.19829 0
M  V30 502 C 44.2479 6.24056 1.2974 0
M  V30 503 C 41.9349 5.82532 1.84662 0
M  V30 504 C 42.9329 6.68562 1.3969 0
M  V30 505 O 42.6209 7.97014 1.04992 0
M  V30 506 H 42.3529 0.546236 0.39825 0
M  V30 507 H 44.9069 1.95673 0.62459 0
M  V30 508 H 43.1369 2.22104 3.16554 0
M  V30 509 H 44.8259 2.6329 3.08923 0
M  V30 510 H 45.5919 4.59147 1.56233 0
M  V30 511 H 41.4709 3.84855 2.53786 0
M  V30 512 H 45.0149 6.91161 0.945659 0
M  V30 513 H 40.9119 6.16099 1.92594 0
M  V30 514 H 41.6799 8.09913 1.18249 0
M  V30 515 N 44.343 -0.763751 1.37857 0
M  V30 516 C 45.273 -1.89103 1.36975 0
M  V30 517 C 46.254 -1.68439 0.237152 0
M  V30 518 O 47.439 -1.8918 0.438713 0
M  V30 519 C 44.569 -3.26496 1.18395 0
M  V30 520 C 43.523 -3.61741 2.28751 0
M  V30 521 C 42.849 -4.97762 1.95286 0
M  V30 522 C 44.149 -3.67665 3.70972 0
M  V30 523 H 45.843 -1.90099 2.31307 0
M  V30 524 H 43.389 -0.91319 1.11341 0
M  V30 525 H 45.342 -4.05003 1.16406 0
M  V30 526 H 44.066 -3.25955 0.205215 0
M  V30 527 H 42.725 -2.85547 2.29909 0
M  V30 528 H 42.373 -4.93769 0.959221 0
M  V30 529 H 42.073 -5.22313 2.69189 0
M  V30 530 H 43.597 -5.7866 1.94898 0
M  V30 531 H 45.011 -4.36307 3.719 0
M  V30 532 H 43.408 -4.03718 4.43995 0
M  V30 533 H 44.478 -2.68134 4.0402 0
M  V30 534 N 45.8211 -1.22559 -0.990812 0
M  V30 535 C 47.0671 -1.05297 -1.73322 0
M  V30 536 C 47.4001 0.410655 -1.89808 0
M  V30 537 O 46.6751 1.30439 -1.44277 0
M  V30 538 C 46.9581 -1.76713 -3.13759 0
M  V30 539 C 46.8111 -3.30684 -3.04907 0
M  V30 540 C 48.1301 -1.52121 -4.12974 0
M  V30 541 H 45.2491 -0.38392 -0.629106 0
M  V30 542 H 47.8911 -1.50926 -1.15418 0
M  V30 543 H 46.0411 -1.37924 -3.63193 0
M  V30 544 H 47.7131 -3.7893 -2.63077 0
M  V30 545 H 45.9561 -3.60253 -2.41661 0
M  V30 546 H 46.6271 -3.75833 -4.04294 0
M  V30 547 H 49.1031 -1.85819 -3.72304 0
M  V30 548 H 47.9791 -2.04582 -5.0935 0
M  V30 549 H 48.2401 -0.454257 -4.3976 0
M  V30 550 N 47.2992 1.18797 -1.03562 0
M  V30 551 C 48.5452 1.8893 -0.737113 0
M  V30 552 C 48.8782 1.79837 0.732956 0
M  V30 553 O 48.1532 1.19525 1.5344 0
M  V30 554 C 48.4362 3.39607 -1.19745 0
M  V30 555 C 48.2892 3.57537 -2.72924 0
M  V30 556 C 49.6082 4.33069 -0.783526 0
M  V30 557 H 46.7272 0.686057 -0.269249 0
M  V30 558 H 49.3692 1.39797 -1.28673 0
M  V30 559 H 47.5192 3.81583 -0.729855 0
M  V30 560 H 49.1912 3.24688 -3.27682 0
M  V30 561 H 47.4342 3.00363 -3.12993 0
M  V30 562 H 48.1052 4.63238 -3.00191 0
M  V30 563 H 50.5812 3.98846 -1.18581 0
M  V30 564 H 49.4572 5.3707 -1.13343 0
M  V30 565 H 49.7182 4.40986 0.313681 0
M  V30 566 N 48.7773 0.814389 1.34928 0
M  V30 567 C 49.7403 0.235759 2.27984 0
M  V30 568 C 50.7403 -0.581412 1.49921 0
M  V30 569 O 51.9303 -0.398758 1.69575 0
M  V30 570 C 49.0623 -0.670433 3.34242 0
M  V30 571 H 50.2553 1.05659 2.80671 0
M  V30 572 H 47.8083 0.585614 1.44915 0
M  V30 573 H 48.5433 -1.51466 2.86755 0
M  V30 574 H 48.3283 -0.0860822 3.92005 0
M  V30 575 H 49.8183 -1.06935 4.03676 0
M  V30 576 N 50.2554 -1.46986 0.568584 0
M  V30 577 C 51.5044 -2.01646 0.0465894 0
M  V30 578 C 51.8174 -1.44721 -1.31587 0
M  V30 579 O 53.0234 -1.91113 -1.92842 0
M  V30 580 C 51.4794 -3.59885 0.032752 0
M  V30 581 C 51.0874 -4.25804 1.39266 0
M  V30 582 C 52.8314 -4.22255 -0.436038 0
M  V30 583 C 50.7384 -5.76081 1.33732 0
M  V30 584 H 49.6684 -0.753876 0.013647 0
M  V30 585 H 52.3194 -1.68864 0.718131 0
M  V30 586 H 50.7014 -3.8968 -0.704669 0
M  V30 587 H 51.8754 -4.07637 2.1487 0
M  V30 588 H 50.1904 -3.7547 1.80032 0
M  V30 589 H 52.7874 -5.32394 -0.49602 0
M  V30 590 H 53.1304 -3.90212 -1.45053 0
M  V30 591 H 53.6634 -3.97033 0.246877 0
M  V30 592 H 50.4024 -6.12761 2.32817 0
M  V30 593 H 49.9224 -5.96553 0.623267 0
M  V30 594 H 51.6014 -6.38518 1.0442 0
M  V30 595 N 51.7335 -0.305618 -1.54608 0
M  V30 596 C 52.9585 0.307562 -2.05107 0
M  V30 597 C 53.3835 1.46385 -1.18123 0
M  V30 598 O 52.7415 1.8034 -0.186324 0
M  V30 599 C 52.7895 0.73704 -3.52987 0
M  V30 600 O 51.8935 1.84134 -3.6901 0
M  V30 601 H 51.2345 0.0589143 -0.661381 0
M  V30 602 H 53.7645 -0.448807 -1.99617 0
M  V30 603 H 53.7745 1.02459 -3.94925 0
M  V30 604 H 52.4495 -0.108773 -4.15758 0
M  V30 605 H 51.0265 1.55398 -3.38978 0
M  V30 606 N 53.2116 1.57565 -0.0334293 0
M  V30 607 C 54.4396 1.9628 0.654347 0
M  V30 608 C 54.8546 0.910138 1.65414 0
M  V30 609 O 54.2116 -0.107595 1.82183 0
M  V30 610 C 54.2626 3.35067 1.35693 0
M  V30 611 O 53.9836 4.36296 0.397191 0
M  V30 612 C 55.4846 3.88439 2.13613 0
M  V30 613 H 52.7046 0.646369 0.180132 0
M  V30 614 H 55.2486 2.04282 -0.0944721 0
M  V30 615 H 53.4036 3.2827 2.05712 0
M  V30 616 H 53.8176 5.1678 0.896597 0
M  V30 617 H 55.2916 4.8788 2.58219 0
M  V30 618 H 55.7686 3.22914 2.97696 0
M  V30 619 H 56.3746 3.98516 1.48543 0
M  V30 620 N 54.6897 -0.239769 1.55765 0
M  V30 621 C 55.9667 -0.990056 1.68693 0
M  V30 622 C 56.3467 -2.03107 0.5754 0
M  V30 623 O 55.6947 -2.24604 -0.42017 0
M  V30 624 C 55.9047 -1.61696 3.09282 0
M  V30 625 C 57.2527 -2.11613 3.6811 0
M  V30 626 O 58.2767 -1.71624 3.12127 0
M  V30 627 O 57.1357 -2.85057 4.66267 0
M  V30 628 H 54.2297 -0.461299 0.686391 0
M  V30 629 H 56.7757 -0.232991 1.68093 0
M  V30 630 H 55.5477 -0.864357 3.81634 0
M  V30 631 H 55.1707 -2.44005 3.13923 0
M  V30 632 N 56.1678 -1.49265 -0.50573 0
M  V30 633 C 57.0778 -1.68312 -1.63427 0
M  V30 634 C 58.0938 -0.565682 -1.64548 0
M  V30 635 O 59.2698 -0.839801 -1.83055 0
M  V30 636 C 56.3348 -1.74107 -2.99813 0
M  V30 637 C 55.3958 -2.97653 -3.09356 0
M  V30 638 C 54.6288 -3.03163 -4.39236 0
M  V30 639 O 54.8518 -2.16396 -5.27758 0
M  V30 640 O 53.7858 -3.9558 -4.53652 0
M  V30 641 H 57.6118 -2.63907 -1.50289 0
M  V30 642 H 55.1968 -1.32951 -0.681502 0
M  V30 643 H 57.0788 -1.803 -3.80881 0
M  V30 644 H 55.7538 -0.816901 -3.13223 0
M  V30 645 H 54.6608 -2.96981 -2.27493 0
M  V30 646 H 55.9938 -3.89535 -3.00871 0
M  V30 647 N 57.6459 0.756429 -1.3826 0
M  V30 648 C 58.8929 1.51547 -1.34312 0
M  V30 649 C 59.2209 1.94382 0.0677144 0
M  V30 650 O 58.4759 1.65514 1.04421 0
M  V30 651 C 58.7749 2.78313 -2.24224 0
M  V30 652 C 58.4409 2.54455 -3.72241 0
M  V30 653 C 57.1029 2.47657 -4.12576 0
M  V30 654 C 59.4549 2.3354 -4.65949 0
M  V30 655 C 56.7829 2.17956 -5.44713 0
M  V30 656 C 59.1349 2.05359 -5.9834 0
M  V30 657 C 57.7989 1.97016 -6.37762 0
M  V30 658 H 57.0689 0.55455 -0.491482 0
M  V30 659 H 59.7159 0.870039 -1.70595 0
M  V30 660 H 58.0209 3.47492 -1.80987 0
M  V30 661 H 59.7179 3.36259 -2.18474 0
M  V30 662 H 56.3079 2.60616 -3.40261 0
M  V30 663 H 60.4919 2.37772 -4.35635 0
M  V30 664 H 55.7479 2.10003 -5.74203 0
M  V30 665 H 59.9219 1.88179 -6.70494 0
M  V30 666 H 57.5489 1.73766 -7.40074 0
M  V30 667 N 59.124 1.23083 0.984299 0
M  V30 668 C 60.072 1.00593 2.09723 0
M  V30 669 C 61.066 -0.0538014 1.69315 0
M  V30 670 O 62.272 0.0993719 1.79725 0
M  V30 671 H 58.647 0.30817 0.685956 0
M  V30 672 H 60.618 1.95012 2.2586 0
M  V30 673 C 59.367 0.609601 3.42314 0
M  V30 674 H 58.69 1.41675 3.73856 0
M  V30 675 H 60.13 0.491726 4.21139 0
M  V30 676 C 58.589 -0.681745 3.2993 0
M  V30 677 O 59.119 -1.73192 3.62446 0
M  V30 678 N 57.325 -0.656178 2.83095 0
M  V30 679 H 56.872 0.198759 2.56832 0
M  V30 680 H 56.83 -1.52044 2.75191 0
M  V30 681 N 60.6021 -1.18246 1.0419 0
M  V30 682 C 61.5321 -2.24127 0.654914 0
M  V30 683 C 62.5131 -1.66617 -0.342451 0
M  V30 684 O 63.6981 -1.92924 -0.222277 0
M  V30 685 C 60.8281 -3.47295 0.0183757 0
M  V30 686 C 59.7821 -4.17563 0.939414 0
M  V30 687 C 59.1081 -5.34438 0.167286 0
M  V30 688 C 60.4081 -4.70917 2.25908 0
M  V30 689 H 62.1021 -2.56753 1.54007 0
M  V30 690 H 59.6481 -1.23414 0.74195 0
M  V30 691 H 61.6011 -4.20572 -0.264082 0
M  V30 692 H 60.3251 -3.13907 -0.901664 0
M  V30 693 H 58.9841 -3.46186 1.20628 0
M  V30 694 H 58.6321 -4.97298 -0.7552 0
M  V30 695 H 58.3321 -5.82388 0.780901 0
M  V30 696 H 59.8561 -6.10504 -0.108125 0
M  V30 697 H 61.2701 -5.35882 2.03724 0
M  V30 698 H 59.6671 -5.29406 2.82577 0
M  V30 699 H 60.7371 -3.88272 2.9047 0
M  V30 700 N 62.0802 -0.821533 -1.34494 0
M  V30 701 C 63.0122 -0.199946 -2.28326 0
M  V30 702 C 64.0252 0.609377 -1.50965 0
M  V30 703 O 65.2142 0.439285 -1.7301 0
M  V30 704 C 62.3142 0.738431 -3.30757 0
M  V30 705 C 61.4872 -0.0277632 -4.37391 0
M  V30 706 C 60.5462 0.831332 -5.19591 0
M  V30 707 O 59.5722 0.276822 -5.68526 0
M  V30 708 N 60.7742 2.15132 -5.39165 0
M  V30 709 H 63.5392 -1.00609 -2.82308 0
M  V30 710 H 61.1002 -0.678366 -1.47003 0
M  V30 711 H 63.0922 1.31773 -3.82646 0
M  V30 712 H 61.6622 1.44533 -2.7718 0
M  V30 713 H 60.8822 -0.788359 -3.86236 0
M  V30 714 H 62.1702 -0.555251 -5.05761 0
M  V30 715 H 61.5682 2.62559 -5.01078 0
M  V30 716 H 60.1252 2.6795 -5.94177 0
M  V30 717 N 63.5583 1.46682 -0.576371 0
M  V30 718 C 64.5053 2.30241 0.160499 0
M  V30 719 C 65.4753 1.40233 0.890162 0
M  V30 720 O 66.6603 1.69186 0.882084 0
M  V30 721 C 63.8003 3.24578 1.1723 0
M  V30 722 C 62.9133 4.29684 0.446736 0
M  V30 723 C 62.0483 5.11154 1.44551 0
M  V30 724 C 61.0873 6.08015 0.70599 0
M  V30 725 N 60.2243 6.82376 1.65251 0
M  V30 726 H 65.0643 2.92727 -0.558127 0
M  V30 727 H 62.6013 1.44272 -0.287056 0
M  V30 728 H 64.5593 3.77711 1.77172 0
M  V30 729 H 63.1893 2.63916 1.85872 0
M  V30 730 H 62.2413 3.79458 -0.267594 0
M  V30 731 H 63.5533 4.98626 -0.131686 0
M  V30 732 H 62.7073 5.68533 2.11791 0
M  V30 733 H 61.4463 4.42158 2.05786 0
M  V30 734 H 60.4513 5.49796 0.0197725 0
M  V30 735 H 61.6763 6.79028 0.09912 0
M  V30 736 H 59.6223 6.16094 2.25308 0
M  V30 737 H 59.5393 7.47556 1.12673 0
M  V30 738 H 60.8073 7.44316 2.31546 0
M  V30 739 N 65.0364 0.313813 1.54444 0
M  V30 740 C 65.9684 -0.590425 2.21465 0
M  V30 741 C 66.9814 -1.08753 1.21147 0
M  V30 742 O 68.1704 -1.00278 1.4767 0
M  V30 743 C 65.2704 -1.82179 2.85769 0
M  V30 744 C 64.4434 -1.46502 4.12136 0
M  V30 745 C 63.5024 -2.55288 4.60124 0
M  V30 746 O 62.5284 -2.19842 5.25032 0
M  V30 747 N 63.7304 -3.86053 4.33525 0
M  V30 748 H 66.4954 -0.0166033 2.99695 0
M  V30 749 H 64.0564 0.136578 1.61323 0
M  V30 750 H 66.0484 -2.54328 3.14801 0
M  V30 751 H 64.6184 -2.30369 2.11303 0
M  V30 752 H 63.8384 -0.575595 3.89975 0
M  V30 753 H 65.1264 -1.20221 4.94393 0
M  V30 754 H 64.5244 -4.17654 3.81552 0
M  V30 755 H 63.0814 -4.54461 4.67235 0
M  V30 756 N 66.5145 -1.57545 0.0417849 0
M  V30 757 C 67.4615 -2.10977 -0.935805 0
M  V30 758 C 68.4315 -1.01486 -1.31491 0
M  V30 759 O 69.6165 -1.2898 -1.40602 0
M  V30 760 C 66.7565 -2.65169 -2.2086 0
M  V30 761 C 65.8695 -3.88714 -1.88482 0
M  V30 762 C 65.0045 -4.31254 -3.1015 0
M  V30 763 C 64.0435 -5.47524 -2.7365 0
M  V30 764 N 63.1805 -5.85162 -3.87982 0
M  V30 765 H 68.0205 -2.94218 -0.473249 0
M  V30 766 H 65.5575 -1.45415 -0.221981 0
M  V30 767 H 67.5155 -2.94685 -2.95325 0
M  V30 768 H 66.1455 -1.8474 -2.64709 0
M  V30 769 H 65.1975 -3.65849 -1.04205 0
M  V30 770 H 66.5095 -4.73245 -1.57608 0
M  V30 771 H 65.6635 -4.62273 -3.92923 0
M  V30 772 H 64.4025 -3.45516 -3.44195 0
M  V30 773 H 63.4075 -5.16187 -1.89291 0
M  V30 774 H 64.6325 -6.34971 -2.40807 0
M  V30 775 H 62.5785 -5.02377 -4.21846 0
M  V30 776 H 62.4955 -6.64362 -3.60775 0
M  V30 777 H 63.7635 -6.20791 -4.71422 0
M  V30 778 N 67.9926 0.231505 -1.5589 0
M  V30 779 C 68.9396 1.28682 -1.91598 0
M  V30 780 C 69.9096 1.47071 -0.771974 0
M  V30 781 O 71.0946 1.60802 -1.027 0
M  V30 782 C 68.2346 2.6342 -2.22944 0
M  V30 783 C 67.3476 2.52912 -3.50228 0
M  V30 784 C 66.4826 3.80106 -3.7107 0
M  V30 785 C 65.5216 3.64279 -4.91902 0
M  V30 786 N 64.6586 4.834 -5.09184 0
M  V30 787 H 69.4986 0.975305 -2.81588 0
M  V30 788 H 67.0356 0.470299 -1.39379 0
M  V30 789 H 68.9936 3.41869 -2.39126 0
M  V30 790 H 67.6236 2.92687 -1.36139 0
M  V30 791 H 66.6756 1.6595 -3.42294 0
M  V30 792 H 67.9876 2.37133 -4.38827 0
M  V30 793 H 67.1416 4.66999 -3.87295 0
M  V30 794 H 65.8806 3.98799 -2.80733 0
M  V30 795 H 64.8856 2.7577 -4.75637 0
M  V30 796 H 66.1106 3.47067 -5.83714 0
M  V30 797 H 64.0566 5.02425 -4.21788 0
M  V30 798 H 63.9736 4.70311 -5.91898 0
M  V30 799 H 65.2416 5.71747 -5.29835 0
M  V30 800 N 69.4707 1.49531 0.497807 0
M  V30 801 C 70.4337 1.65916 1.58128 0
M  V30 802 C 71.4337 0.530825 1.51786 0
M  V30 803 O 72.6237 0.797342 1.54881 0
M  V30 804 C 69.7557 1.65951 2.9778 0
M  V30 805 H 70.9487 2.62556 1.44929 0
M  V30 806 H 68.5017 1.38611 0.722275 0
M  V30 807 H 69.2367 0.709065 3.16453 0
M  V30 808 H 69.0217 2.47897 3.03792 0
M  V30 809 H 70.5117 1.80673 3.76493 0
M  V30 810 N 70.9488 -0.749086 1.3866 0
M  V30 811 C 72.1788 -1.53611 1.38157 0
M  V30 812 C 72.5868 -1.89177 -0.0293595 0
M  V30 813 O 71.9298 -1.53606 -1.00752 0
M  V30 814 C 71.9918 -2.86087 2.17702 0
M  V30 815 C 71.6558 -2.73034 3.66472 0
M  V30 816 C 72.6528 -2.42526 4.59866 0
M  V30 817 C 70.3378 -2.90345 4.09884 0
M  V30 818 C 72.3318 -2.29492 5.94653 0
M  V30 819 C 70.0188 -2.7693 5.4475 0
M  V30 820 C 71.0168 -2.46547 6.36949 0
M  V30 821 O 70.7048 -2.33199 7.69333 0
M  V30 822 H 70.4368 -0.481773 0.474205 0
M  V30 823 H 72.9908 -0.934465 1.82912 0
M  V30 824 H 71.2208 -3.48458 1.67672 0
M  V30 825 H 72.9098 -3.47625 2.09551 0
M  V30 826 H 73.6758 -2.28816 4.27631 0
M  V30 827 H 69.5548 -3.1299 3.38464 0
M  V30 828 H 73.0988 -2.05698 6.66584 0
M  V30 829 H 68.9958 -2.90215 5.76581 0
M  V30 830 H 69.7638 -2.48376 7.79905 0
M  V30 831 N 72.4269 -1.23603 -0.977757 0
M  V30 832 C 73.3769 -0.986664 -2.05545 0
M  V30 833 C 74.3609 0.0683009 -1.60755 0
M  V30 834 O 75.5529 -0.144162 -1.76412 0
M  V30 835 C 72.6819 -0.582623 -3.3832 0
M  V30 836 C 71.7679 -1.67313 -3.89701 0
M  V30 837 N 72.1589 -2.90394 -4.14132 0
M  V30 838 C 70.4569 -1.54832 -4.18262 0
M  V30 839 C 71.1579 -3.61017 -4.56116 0
M  V30 840 N 70.1339 -2.8854 -4.60701 0
M  V30 841 H 73.9359 -1.92139 -2.22396 0
M  V30 842 H 71.4499 -1.1358 -1.16074 0
M  V30 843 H 73.4469 -0.38524 -4.15116 0
M  V30 844 H 72.1069 0.34503 -3.22862 0
M  V30 845 H 73.1179 -3.26673 -4.01877 0
M  V30 846 H 69.7949 -0.687969 -4.11793 0
M  V30 847 H 71.1849 -4.66544 -4.83514 0
M  V30 848 N 73.905 1.17692 -1.04816 0
M  V30 849 C 75.13 1.92327 -0.776207 0
M  V30 850 C 75.555 1.76082 0.661581 0
M  V30 851 O 74.913 1.076 1.45917 0
M  V30 852 C 74.961 3.41539 -1.15687 0
M  V30 853 O 74.065 4.11402 -0.286775 0
M  V30 854 H 73.406 0.599735 -0.284981 0
M  V30 855 H 75.936 1.49201 -1.4 0
M  V30 856 H 75.946 3.92269 -1.12202 0
M  V30 857 H 74.621 3.52684 -2.20425 0
M  V30 858 H 73.198 3.70939 -0.381903 0
M  V30 859 N 75.3831 0.828654 1.34056 0
M  V30 860 C 76.6131 0.431993 2.02033 0
M  V30 861 C 77.0211 -0.96844 1.62536 0
M  V30 862 O 76.3641 -1.6391 0.829408 0
M  V30 863 C 76.4261 0.461224 3.56529 0
M  V30 864 C 76.0901 1.81599 4.1937 0
M  V30 865 C 77.0871 2.7777 4.39477 0
M  V30 866 C 74.7721 2.10604 4.56017 0
M  V30 867 C 76.7661 4.01115 4.95364 0
M  V30 868 C 74.4531 3.34207 5.11614 0
M  V30 869 C 75.4511 4.2928 5.31232 0
M  V30 870 O 75.1391 5.50699 5.8565 0
M  V30 871 H 74.8711 0.170943 0.654029 0
M  V30 872 H 77.4251 1.11988 1.72185 0
M  V30 873 H 75.6551 -0.283388 3.8566 0
M  V30 874 H 77.3441 0.0838149 4.05813 0
M  V30 875 H 78.1101 2.56659 4.11523 0
M  V30 876 H 73.9891 1.37402 4.40047 0
M  V30 877 H 77.5331 4.75333 5.10592 0
M  V30 878 H 73.4301 3.55179 5.38997 0
M  V30 879 H 74.1981 5.52298 6.04077 0
M  V30 880 N 76.8612 -1.46375 0.584142 0
M  V30 881 C 77.7712 -2.34115 -0.150728 0
M  V30 882 C 78.7872 -1.49838 -0.884567 0
M  V30 883 O 79.9632 -1.82704 -0.847429 0
M  V30 884 C 77.0282 -3.2705 -1.15062 0
M  V30 885 C 76.0892 -4.27228 -0.421293 0
M  V30 886 C 75.3222 -5.15722 -1.37355 0
M  V30 887 O 75.5452 -5.07176 -2.61014 0
M  V30 888 O 74.4792 -5.95383 -0.883355 0
M  V30 889 H 78.3052 -2.98309 0.569708 0
M  V30 890 H 75.8902 -1.45373 0.344535 0
M  V30 891 H 77.7722 -3.84381 -1.72712 0
M  V30 892 H 76.4472 -2.65451 -1.8525 0
M  V30 893 H 75.3542 -3.7358 0.197085 0
M  V30 894 H 76.6872 -4.91616 0.239641 0
M  V30 895 N 78.3393 -0.321999 -1.54275 0
M  V30 896 C 79.2893 0.560185 -2.21011 0
M  V30 897 C 80.2733 1.08283 -1.19011 0
M  V30 898 O 81.4653 1.02011 -1.44647 0
M  V30 899 C 78.5943 1.72137 -2.97025 0
M  V30 900 C 77.6803 1.21369 -4.06363 0
M  V30 901 N 78.0713 0.425566 -5.04007 0
M  V30 902 C 76.3693 1.49255 -4.20284 0
M  V30 903 C 77.0703 0.152601 -5.815 0
M  V30 904 N 76.0463 0.738294 -5.38563 0
M  V30 905 H 79.8483 -0.049265 -2.93859 0
M  V30 906 H 77.3623 -0.127779 -1.61897 0
M  V30 907 H 79.3593 2.36512 -3.43319 0
M  V30 908 H 78.0193 2.33431 -2.25699 0
M  V30 909 H 79.0303 0.068551 -5.17855 0
M  V30 910 H 75.7073 2.11145 -3.60172 0
M  V30 911 H 77.0973 -0.481764 -6.70171 0
M  V30 912 N 79.8174 1.5752 -0.0501392 0
M  V30 913 C 81.2334 1.56631 0.306402 0
M  V30 914 C 81.4334 1.0577 1.71508 0
M  V30 915 O 80.4894 0.713837 2.422 0
M  V30 916 C 81.8024 3.00393 0.135811 0
M  V30 917 C 83.3504 3.12315 0.206993 0
M  V30 918 C 83.8254 4.57954 0.064944 0
M  V30 919 N 85.3164 4.63041 0.121254 0
M  V30 920 C 86.0514 5.73389 0.0354381 0
M  V30 921 N 85.5474 6.92724 -0.102666 0
M  V30 922 N 87.3404 5.62026 0.090946 0
M  V30 923 H 79.4914 1.88903 -0.971046 0
M  V30 924 H 81.7544 0.869876 -0.376855 0
M  V30 925 H 81.4604 3.41635 -0.835384 0
M  V30 926 H 81.3344 3.66373 0.897275 0
M  V30 927 H 83.7214 2.70973 1.16866 0
M  V30 928 H 83.8024 2.49016 -0.585208 0
M  V30 929 H 83.4464 4.99981 -0.893394 0
M  V30 930 H 83.3764 5.19258 0.876277 0
M  V30 931 H 85.8674 3.77216 0.227284 0
M  V30 932 H 86.1804 7.72633 -0.160882 0
M  V30 933 H 84.5254 6.94864 -0.137737 0
M  V30 934 H 87.7164 4.67684 0.197388 0
M  V30 935 H 87.8894 6.47997 0.0206089 0
M  V30 936 N 81.2955 -0.223234 1.56011 0
M  V30 937 C 82.2425 -1.27664 1.92277 0
M  V30 938 C 83.2125 -1.46659 0.779763 0
M  V30 939 O 84.3975 -1.60256 1.03551 0
M  V30 940 C 81.5375 -2.62234 2.24338 0
M  V30 941 C 80.6505 -2.51051 3.51564 0
M  V30 942 C 79.7855 -3.78133 3.7308 0
M  V30 943 C 78.8245 -3.61665 4.93827 0
M  V30 944 N 77.9615 -4.80693 5.11741 0
M  V30 945 H 82.8015 -0.960358 2.82101 0
M  V30 946 H 80.3385 -0.462901 1.39627 0
M  V30 947 H 82.2965 -3.40596 2.40936 0
M  V30 948 H 80.9265 -2.91961 1.3769 0
M  V30 949 H 79.9785 -1.64132 3.43169 0
M  V30 950 H 81.2905 -2.34803 4.40079 0
M  V30 951 H 80.4445 -4.64938 3.89766 0
M  V30 952 H 79.1835 -3.97304 2.82844 0
M  V30 953 H 78.1885 -2.73244 4.77093 0
M  V30 954 H 79.4135 -3.43966 5.85546 0
M  V30 955 H 77.3595 -5.00181 4.24446 0
M  V30 956 H 77.2765 -4.67165 5.94384 0
M  V30 957 H 78.5445 -5.6893 5.3286 0
M  V30 958 N 82.7736 -1.49793 -0.48987 0
M  V30 959 C 83.7036 -1.70201 -1.59856 0
M  V30 960 C 84.6846 -0.55076 -1.60937 0
M  V30 961 O 85.8696 -0.787841 -1.77501 0
M  V30 962 C 82.9996 -1.77882 -2.98287 0
M  V30 963 C 81.9536 -2.92907 -3.12073 0
M  V30 964 C 81.2796 -2.85712 -4.51965 0
M  V30 965 C 82.5796 -4.3369 -2.91051 0
M  V30 966 H 84.2736 -2.63025 -1.43032 0
M  V30 967 H 81.8196 -1.26574 -0.686664 0
M  V30 968 H 83.7726 -1.90744 -3.75759 0
M  V30 969 H 82.4966 -0.816653 -3.16225 0
M  V30 970 H 81.1556 -2.79665 -2.37029 0
M  V30 971 H 80.8036 -1.8738 -4.66795 0
M  V30 972 H 80.5036 -3.62921 -4.62128 0
M  V30 973 H 82.0276 -3.00598 -5.31482 0
M  V30 974 H 83.4416 -4.47555 -3.58284 0
M  V30 975 H 81.8386 -5.12205 -3.12675 0
M  V30 976 H 82.9086 -4.47362 -1.87071 0
M  V30 977 N 84.2517 0.741722 -1.39055 0
M  V30 978 C 85.5007 1.49656 -1.35225 0
M  V30 979 C 85.8137 1.95533 0.0512708 0
M  V30 980 O 87.0197 2.7067 0.212138 0
M  V30 981 C 85.4757 2.70389 -2.37525 0
M  V30 982 C 85.0837 2.31489 -3.83558 0
M  V30 983 C 86.8277 3.48236 -2.42759 0
M  V30 984 C 84.7347 3.48903 -4.77515 0
M  V30 985 H 83.6647 0.56197 -0.502699 0
M  V30 986 H 86.3157 0.809727 -1.64668 0
M  V30 987 H 84.6977 3.41113 -2.01142 0
M  V30 988 H 85.8717 1.68354 -4.28945 0
M  V30 989 H 84.1867 1.66749 -3.81554 0
M  V30 990 H 86.7837 4.35558 -3.1015 0
M  V30 991 H 87.1267 3.90229 -1.45008 0
M  V30 992 H 87.6597 2.84535 -2.78002 0
M  V30 993 H 84.3987 3.11966 -5.76504 0
M  V30 994 H 83.9187 4.11041 -4.36813 0
M  V30 995 H 85.5977 4.15328 -4.96096 0
M  V30 996 N 85.7298 1.2412 0.971189 0
M  V30 997 C 86.6598 1.05508 2.08304 0
M  V30 998 C 87.6408 -0.0308864 1.70072 0
M  V30 999 O 88.8258 0.135521 1.93727 0
M  V30 1000 C 85.9558 0.655365 3.4106 0
M  V30 1001 C 84.9098 1.68971 3.93234 0
M  V30 1002 C 84.2358 1.14516 5.22293 0
M  V30 1003 C 85.5358 3.08487 4.21465 0
M  V30 1004 H 87.2298 1.98507 2.24132 0
M  V30 1005 H 84.7758 0.955821 1.07704 0
M  V30 1006 H 86.7288 0.51217 4.18276 0
M  V30 1007 H 85.4528 -0.31032 3.25122 0
M  V30 1008 H 84.1118 1.82106 3.18171 0
M  V30 1009 H 83.7598 0.170189 5.02712 0
M  V30 1010 H 83.4598 1.83635 5.58168 0
M  V30 1011 H 84.9838 1.01401 6.02121 0
M  V30 1012 H 86.3978 2.98601 4.89398 0
M  V30 1013 H 84.7948 3.74926 4.68562 0
M  V30 1014 H 85.8648 3.56787 3.28376 0
M  V30 1015 N 87.2079 -1.17134 1.05439 0
M  V30 1016 C 88.1179 -2.24878 0.668365 0
M  V30 1017 C 89.1339 -1.71186 -0.311687 0
M  V30 1018 O 90.3099 -2.00738 -0.163161 0
M  V30 1019 C 87.3749 -3.46662 0.051648 0
M  V30 1020 C 86.4359 -4.15429 1.08246 0
M  V30 1021 C 85.6689 -5.31399 0.495082 0
M  V30 1022 O 85.8919 -5.66153 -0.694743 0
M  V30 1023 O 84.8259 -5.89187 1.23056 0
M  V30 1024 H 88.6519 -2.60189 1.56637 0
M  V30 1025 H 86.2369 -1.24482 0.826104 0
M  V30 1026 H 88.1189 -4.20394 -0.290966 0
M  V30 1027 H 86.7939 -3.13142 -0.819971 0
M  V30 1028 H 85.7009 -3.43704 1.47711 0
M  V30 1029 H 87.0339 -4.52982 1.92532 0
M  V30 1030 N 88.686 -0.835752 -1.33615 0
M  V30 1031 C 89.914 -0.443344 -2.02094 0
M  V30 1032 C 90.329 0.954522 -1.62894 0
M  V30 1033 O 89.686 1.61982 -0.840723 0
M  V30 1034 C 89.737 -0.550775 -3.5728 0
M  V30 1035 O 89.458 -1.89356 -3.95065 0
M  V30 1036 C 90.959 -0.154919 -4.43029 0
M  V30 1037 H 88.179 -0.176359 -0.647409 0
M  V30 1038 H 90.723 -1.12746 -1.70612 0
M  V30 1039 H 88.878 0.0853997 -3.87306 0
M  V30 1040 H 89.292 -1.87687 -4.89769 0
M  V30 1041 H 90.766 -0.281144 -5.51284 0
M  V30 1042 H 91.243 0.902863 -4.2982 0
M  V30 1043 H 91.849 -0.765404 -4.18356 0
M  V30 1044 N 90.1641 1.46063 -0.591896 0
M  V30 1045 C 91.4131 2.01547 -0.0786637 0
M  V30 1046 C 91.7261 1.46796 1.29268 0
M  V30 1047 O 92.9321 1.94157 1.89777 0
M  V30 1048 C 91.3881 3.59787 -0.0900024 0
M  V30 1049 C 90.9961 4.23534 -1.46023 0
M  V30 1050 C 92.7401 4.22895 0.368806 0
M  V30 1051 C 90.6471 5.73881 -1.4288 0
M  V30 1052 H 89.5771 0.753564 -0.0256388 0
M  V30 1053 H 92.2281 1.677 -0.744905 0
M  V30 1054 H 90.6101 3.90752 0.642586 0
M  V30 1055 H 91.7841 4.04167 -2.21328 0
M  V30 1056 H 90.0991 3.72558 -1.85982 0
M  V30 1057 H 92.6961 5.33116 0.411258 0
M  V30 1058 H 93.0391 3.9247 1.38827 0
M  V30 1059 H 93.5721 3.9659 -0.31001 0
M  V30 1060 H 90.3111 6.0898 -2.42536 0
M  V30 1061 H 89.8311 5.95486 -0.718095 0
M  V30 1062 H 91.5101 6.36776 -1.14565 0
M  V30 1063 N 91.6422 0.330177 1.54103 0
M  V30 1064 C 93.0582 -0.0222371 1.59585 0
M  V30 1065 C 93.2582 -1.49902 1.34654 0
M  V30 1066 O 92.3142 -2.25592 1.13421 0
M  V30 1067 C 93.6272 0.401932 2.98002 0
M  V30 1068 C 95.1752 0.353145 3.11001 0
M  V30 1069 C 95.6502 0.752576 4.51775 0
M  V30 1070 N 97.1412 0.706239 4.57784 0
M  V30 1071 C 97.8762 0.987417 5.64834 0
M  V30 1072 N 97.3722 1.33607 6.79795 0
M  V30 1073 N 99.1652 0.91254 5.54643 0
M  V30 1074 H 91.3162 1.29228 1.68564 0
M  V30 1075 H 93.5792 0.525906 0.78875 0
M  V30 1076 H 93.2852 1.4311 3.21267 0
M  V30 1077 H 93.1592 -0.229699 3.765 0
M  V30 1078 H 95.5462 -0.666822 2.87467 0
M  V30 1079 H 95.6272 1.0198 2.34593 0
M  V30 1080 H 95.2712 1.77049 4.76042 0
M  V30 1081 H 95.2012 0.0635409 5.26562 0
M  V30 1082 H 97.6922 0.44889 3.75224 0
M  V30 1083 H 98.0052 1.53582 7.57385 0
M  V30 1084 H 96.3502 1.37439 6.81275 0
M  V30 1085 H 99.5412 0.639601 4.6371 0
M  V30 1086 H 99.7142 1.13503 6.37982 0
M  V30 1087 N 93.1203 -1.57491 0.0584922 0
M  V30 1088 C 94.3503 -1.9701 -0.622134 0
M  V30 1089 C 94.7583 -0.935034 -1.6448 0
M  V30 1090 O 94.1013 0.0882904 -1.83488 0
M  V30 1091 C 94.1633 -3.32794 -1.35972 0
M  V30 1092 C 93.8273 -4.54343 -0.492043 0
M  V30 1093 C 94.8243 -5.19323 0.244901 0
M  V30 1094 C 92.5093 -5.00534 -0.420821 0
M  V30 1095 C 94.5033 -6.28835 1.04143 0
M  V30 1096 C 92.1903 -6.09921 0.379389 0
M  V30 1097 C 93.1883 -6.73933 1.10919 0
M  V30 1098 O 92.8763 -7.81216 1.89623 0
M  V30 1099 H 92.6083 -0.653127 -0.174359 0
M  V30 1100 H 95.1623 -2.05029 0.123418 0
M  V30 1101 H 93.3923 -3.21351 -2.15105 0
M  V30 1102 H 95.0813 -3.5701 -1.93129 0
M  V30 1103 H 95.8473 -4.8459 0.19939 0
M  V30 1104 H 91.7263 -4.50496 -0.978474 0
M  V30 1105 H 95.2703 -6.7873 1.61157 0
M  V30 1106 H 91.1673 -6.44089 0.426512 0
M  V30 1107 H 91.9353 -7.98029 1.81913 0
M  V30 1108 N 94.5984 0.214957 -1.56127 0
M  V30 1109 C 95.8444 0.939762 -1.79712 0
M  V30 1110 C 96.1774 1.83723 -0.629247 0
M  V30 1111 O 95.4524 1.90925 0.371197 0
M  V30 1112 C 95.7354 1.77306 -3.13424 0
M  V30 1113 C 95.5884 0.90164 -4.40671 0
M  V30 1114 C 96.9074 2.74956 -3.43638 0
M  V30 1115 H 94.0264 0.340214 -0.653776 0
M  V30 1116 H 96.6684 0.20824 -1.88855 0
M  V30 1117 H 94.8184 2.39673 -3.0576 0
M  V30 1118 H 96.4904 0.294206 -4.60361 0
M  V30 1119 H 94.7334 0.207368 -4.33304 0
M  V30 1120 H 95.4044 1.51923 -5.30682 0
M  V30 1121 H 97.8804 2.22724 -3.51473 0
M  V30 1122 H 96.7564 3.30358 -4.38355 0
M  V30 1123 H 97.0174 3.53023 -2.66134 0
M  V30 1124 N 96.0765 1.50051 0.48192 0
M  V30 1125 C 97.3535 1.51009 1.2432 0
M  V30 1126 C 97.7335 0.248587 2.09631 0
M  V30 1127 O 97.0815 -0.768409 2.15192 0
M  V30 1128 C 97.2915 2.79981 2.08355 0
M  V30 1129 C 98.6395 3.3022 2.66908 0
M  V30 1130 O 99.6635 2.81228 2.18607 0
M  V30 1131 O 98.5225 4.15595 3.54884 0
M  V30 1132 H 95.6165 0.605239 0.563573 0
M  V30 1133 H 98.1625 1.62332 0.494627 0
M  V30 1134 H 96.9345 3.63275 1.45419 0
M  V30 1135 H 96.5575 2.7161 2.90368 0
M  V30 1136 N 97.5546 -0.734337 1.39446 0
M  V30 1137 C 98.4646 -1.87879 1.40495 0
M  V30 1138 C 99.4806 -1.714 0.299672 0
M  V30 1139 O 100.657 -1.93991 0.541249 0
M  V30 1140 C 97.7216 -3.23477 1.24754 0
M  V30 1141 C 96.7826 -3.52344 2.45259 0
M  V30 1142 C 96.0156 -4.81473 2.30259 0
M  V30 1143 O 96.2386 -5.55237 1.30643 0
M  V30 1144 O 95.1726 -5.10254 3.19256 0
M  V30 1145 H 98.9986 -1.89949 2.36966 0
M  V30 1146 H 96.5836 -0.882243 1.20569 0
M  V30 1147 H 98.4656 -4.04509 1.18111 0
M  V30 1148 H 97.1406 -3.22176 0.313781 0
M  V30 1149 H 96.0476 -2.71396 2.57478 0
M  V30 1150 H 97.3806 -3.58426 3.37331 0
M  V30 1151 N 99.0327 -1.24633 -0.964593 0
M  V30 1152 C 100.279 -1.08949 -1.71049 0
M  V30 1153 C 100.612 0.370302 -1.90637 0
M  V30 1154 O 99.8867 1.27349 -1.47011 0
M  V30 1155 C 100.17 -1.83329 -3.0994 0
M  V30 1156 C 100.023 -3.37077 -2.97824 0
M  V30 1157 C 101.342 -1.60846 -4.09654 0
M  V30 1158 H 98.4607 -0.397178 -0.620821 0
M  V30 1159 H 101.103 -1.5334 -1.12191 0
M  V30 1160 H 99.2527 -1.45597 -3.60186 0
M  V30 1161 H 100.925 -3.84425 -2.5498 0
M  V30 1162 H 99.1677 -3.65298 -2.33965 0
M  V30 1163 H 99.8387 -3.84324 -3.96231 0
M  V30 1164 H 102.315 -1.93674 -3.68279 0
M  V30 1165 H 101.191 -2.1534 -5.04896 0
M  V30 1166 H 101.452 -0.547434 -4.38698 0
M  V30 1167 N 100.511 1.16574 -1.06058 0
M  V30 1168 C 101.76 1.86385 -0.770944 0
M  V30 1169 C 102.073 1.82448 0.705129 0
M  V30 1170 O 103.279 2.47815 1.10905 0
M  V30 1171 C 101.735 3.34466 -1.32893 0
M  V30 1172 C 101.343 3.46883 -2.83507 0
M  V30 1173 C 103.087 4.09548 -1.11672 0
M  V30 1174 C 100.994 4.89036 -3.32562 0
M  V30 1175 H 99.9238 0.698181 -0.284709 0
M  V30 1176 H 102.575 1.31583 -1.27899 0
M  V30 1177 H 100.957 3.88859 -0.748662 0
M  V30 1178 H 102.131 3.02663 -3.47465 0
M  V30 1179 H 100.446 2.85232 -3.03368 0
M  V30 1180 H 103.043 5.14434 -1.45814 0
M  V30 1181 H 103.386 4.16264 -0.0549535 0
M  V30 1182 H 103.919 3.61387 -1.66265 0
M  V30 1183 H 100.658 4.87499 -4.38207 0
M  V30 1184 H 100.178 5.3389 -2.73351 0
M  V30 1185 H 101.857 5.57843 -3.2775 0
M  V30 1186 N 101.989 0.842826 1.3317 0
M  V30 1187 C 103.4 0.496651 1.79973 0
M  V30 1188 C 103.751 -0.984641 1.69703 0
M  V30 1189 O 102.876 -1.76743 1.24863 0
M  V30 1190 C 103.471 0.894727 3.26772 0
M  V30 1191 C 102.03 0.600629 3.71577 0
M  V30 1192 C 101.177 1.10091 2.5451 0
M  V30 1193 H 104.128 1.03116 1.20635 0
M  V30 1194 H 104.149 0.206347 3.7994 0
M  V30 1195 H 103.661 1.97287 3.34215 0
M  V30 1196 H 101.762 -0.467284 3.69658 0
M  V30 1197 H 101.875 1.15863 4.64879 0
M  V30 1198 H 100.239 0.52162 2.49301 0
M  V30 1199 H 101.022 2.18591 2.64713 0
M  V30 1200 N 103.467 -1.45747 0.599634 0
M  V30 1201 C 104.377 -2.34262 -0.125888 0
M  V30 1202 C 105.393 -1.50768 -0.868625 0
M  V30 1203 O 106.569 -1.83592 -0.828003 0
M  V30 1204 C 103.634 -3.28252 -1.11587 0
M  V30 1205 C 102.695 -4.27651 -0.375956 0
M  V30 1206 C 101.928 -5.1715 -1.31877 0
M  V30 1207 O 102.151 -5.09916 -2.55621 0
M  V30 1208 O 101.085 -5.96286 -0.820157 0
M  V30 1209 H 104.911 -2.97688 0.601315 0
M  V30 1210 H 102.496 -1.44999 0.359934 0
M  V30 1211 H 104.378 -3.86191 -1.68626 0
M  V30 1212 H 103.053 -2.67401 -1.82424 0
M  V30 1213 H 101.96 -3.7335 0.236698 0
M  V30 1214 H 103.293 -4.91334 0.29177 0
M  V30 1215 N 104.945 -0.338344 -1.53925 0
M  V30 1216 C 105.892 0.520845 -2.24846 0
M  V30 1217 C 106.862 1.09976 -1.24477 0
M  V30 1218 O 108.047 1.13735 -1.53196 0
M  V30 1219 C 105.187 1.6685 -3.02084 0
M  V30 1220 C 104.3 1.11739 -4.17299 0
M  V30 1221 C 103.435 2.23193 -4.82036 0
M  V30 1222 C 102.474 1.65407 -5.89328 0
M  V30 1223 N 101.611 2.70582 -6.47866 0
M  V30 1224 H 106.451 -0.0904881 -2.97863 0
M  V30 1225 H 103.988 -0.0564282 -1.46992 0
M  V30 1226 H 105.946 2.34407 -3.45122 0
M  V30 1227 H 104.576 2.2509 -2.31375 0
M  V30 1228 H 103.628 0.332919 -3.7894 0
M  V30 1229 H 104.94 0.654677 -4.94485 0
M  V30 1230 H 104.094 2.98626 -5.28117 0
M  V30 1231 H 102.833 2.72807 -4.04262 0
M  V30 1232 H 101.838 0.884779 -5.42634 0
M  V30 1233 H 103.063 1.16652 -6.69006 0
M  V30 1234 H 101.009 3.1946 -5.72959 0
M  V30 1235 H 100.926 2.28917 -7.20509 0
M  V30 1236 H 102.194 3.45799 -6.98601 0
M  V30 1237 N 106.423 1.57458 -0.0668435 0
M  V30 1238 C 107.371 2.13639 0.919851 0
M  V30 1239 C 108.365 1.07204 1.31163 0
M  V30 1240 O 109.571 1.25591 1.28945 0
M  V30 1241 H 105.946 0.683048 0.314562 0
M  V30 1242 H 107.917 2.95415 0.421047 0
M  V30 1243 C 106.666 2.70892 2.17975 0
M  V30 1244 H 105.989 3.5246 1.88711 0
M  V30 1245 H 107.429 3.13803 2.85138 0
M  V30 1246 C 105.888 1.65414 2.93496 0
M  V30 1247 O 106.418 1.07619 3.87015 0
M  V30 1248 N 104.624 1.36564 2.56512 0
M  V30 1249 H 104.171 1.83751 1.80536 0
M  V30 1250 H 104.129 0.66223 3.07347 0
M  V30 1251 N 107.901 -0.206675 1.56239 0
M  V30 1252 C 109.147 -0.925733 1.81113 0
M  V30 1253 C 109.502 -1.81368 0.642135 0
M  V30 1254 O 108.795 -1.88126 -0.363211 0
M  V30 1255 C 108.989 -1.78675 3.09532 0
M  V30 1256 C 108.818 -0.98365 4.3881 0
M  V30 1257 C 107.588 -0.672661 5.00803 0
M  V30 1258 C 109.786 -0.341847 5.13163 0
M  V30 1259 N 107.768 0.150283 6.13716 0
M  V30 1260 C 109.139 0.343815 6.19046 0
M  V30 1261 C 111.194 -0.256392 4.97239 0
M  V30 1262 C 109.897 1.10678 7.10734 0
M  V30 1263 C 111.923 0.493142 5.8934 0
M  V30 1264 C 111.285 1.16729 6.94661 0
M  V30 1265 H 107.384 -0.318524 0.714189 0
M  V30 1266 H 109.968 -0.195378 1.93717 0
M  V30 1267 H 108.139 -2.4888 2.98183 0
M  V30 1268 H 109.871 -2.44441 3.22538 0
M  V30 1269 H 106.626 -0.994294 4.63045 0
M  V30 1270 H 107.05 0.551026 6.74754 0
M  V30 1271 H 111.692 -0.763249 4.15854 0
M  V30 1272 H 109.41 1.6251 7.91591 0
M  V30 1273 H 112.996 0.560465 5.79094 0
M  V30 1274 H 111.876 1.738 7.64698 0
M  V30 1275 N 109.379 -1.50304 -0.473955 0
M  V30 1276 C 110.289 -1.7174 -1.5982 0
M  V30 1277 C 111.305 -0.600457 -1.63311 0
M  V30 1278 O 112.481 -0.878441 -1.81233 0
M  V30 1279 C 109.546 -1.80427 -2.96052 0
M  V30 1280 C 108.607 -3.04148 -3.02972 0
M  V30 1281 C 107.84 -3.12411 -4.32706 0
M  V30 1282 O 108.063 -2.27542 -5.23049 0
M  V30 1283 O 106.997 -4.05113 -4.45159 0
M  V30 1284 H 110.823 -2.67035 -1.44657 0
M  V30 1285 H 108.408 -1.34366 -0.653148 0
M  V30 1286 H 110.29 -1.88338 -3.7697 0
M  V30 1287 H 108.965 -0.883156 -3.11419 0
M  V30 1288 H 107.872 -3.0174 -2.21142 0
M  V30 1289 H 109.205 -3.95829 -2.92541 0
M  V30 1290 N 110.857 0.726932 -1.39834 0
M  V30 1291 C 111.789 1.85147 -1.35104 0
M  V30 1292 C 112.802 1.60736 -0.258392 0
M  V30 1293 O 113.991 1.70821 -0.517931 0
M  V30 1294 C 111.091 3.21332 -1.07697 0
M  V30 1295 C 110.264 3.73033 -2.28396 0
M  V30 1296 C 109.323 4.87802 -1.97322 0
M  V30 1297 O 108.349 5.01043 -2.70083 0
M  V30 1298 N 109.551 5.72768 -0.944273 0
M  V30 1299 H 112.316 1.89706 -2.32017 0
M  V30 1300 H 109.877 0.908006 -1.3404 0
M  V30 1301 H 111.869 3.95691 -0.849144 0
M  V30 1302 H 110.439 3.11992 -0.194909 0
M  V30 1303 H 109.659 2.89934 -2.6708 0
M  V30 1304 H 110.947 4.0431 -3.08887 0
M  V30 1305 H 110.345 5.64669 -0.341427 0
M  V30 1306 H 108.902 6.4716 -0.776346 0
M  V30 1307 N 112.336 1.25143 0.95797 0
M  V30 1308 C 113.283 1.05235 2.05412 0
M  V30 1309 C 114.253 -0.0374561 1.66058 0
M  V30 1310 O 115.438 0.119073 1.90428 0
M  V30 1311 C 112.578 0.673589 3.38462 0
M  V30 1312 C 111.691 1.8379 3.90954 0
M  V30 1313 C 110.826 1.40381 5.12315 0
M  V30 1314 C 109.865 2.53746 5.57027 0
M  V30 1315 N 109.002 2.11136 6.69601 0
M  V30 1316 H 113.842 1.99048 2.21774 0
M  V30 1317 H 111.379 0.991277 1.08683 0
M  V30 1318 H 113.337 0.434964 4.14926 0
M  V30 1319 H 111.967 -0.227554 3.21997 0
M  V30 1320 H 111.019 2.18992 3.11041 0
M  V30 1321 H 112.331 2.68937 4.20089 0
M  V30 1322 H 111.485 1.12464 5.96185 0
M  V30 1323 H 110.224 0.523015 4.84887 0
M  V30 1324 H 109.229 2.82412 4.71724 0
M  V30 1325 H 110.454 3.42398 5.86464 0
M  V30 1326 H 108.4 1.25468 6.4389 0
M  V30 1327 H 108.317 2.89832 6.98236 0
M  V30 1328 H 109.585 1.86385 7.56889 0
M  V30 1329 N 113.814 -1.1601 1.06675 0
M  V30 1330 C 114.761 -2.20525 0.680967 0
M  V30 1331 C 115.731 -1.62904 -0.324283 0
M  V30 1332 O 116.916 -1.89615 -0.212294 0
M  V30 1333 C 114.056 -3.45013 0.0776551 0
M  V30 1334 C 113.169 -4.16863 1.13355 0
M  V30 1335 C 112.304 -5.2888 0.49597 0
M  V30 1336 C 111.343 -5.92537 1.53513 0
M  V30 1337 N 110.48 -6.96038 0.920631 0
M  V30 1338 H 115.32 -2.52876 1.57663 0
M  V30 1339 H 112.857 -1.24199 0.788223 0
M  V30 1340 H 114.815 -4.16193 -0.289704 0
M  V30 1341 H 113.445 -3.132 -0.781393 0
M  V30 1342 H 112.497 -3.44248 1.61857 0
M  V30 1343 H 113.809 -4.60294 1.92174 0
M  V30 1344 H 112.963 -6.06653 0.0758604 0
M  V30 1345 H 111.702 -4.86622 -0.324062 0
M  V30 1346 H 110.707 -5.13482 1.9651 0
M  V30 1347 H 111.932 -6.36873 2.35733 0
M  V30 1348 H 109.878 -6.55888 0.12138 0
M  V30 1349 H 109.795 -7.3786 1.64616 0
M  V30 1350 H 111.063 -7.77725 0.525795 0
M  V30 1351 N 115.292 -0.849877 -1.32721 0
M  V30 1352 C 116.224 -0.248332 -2.27851 0
M  V30 1353 C 117.237 0.577218 -1.52224 0
M  V30 1354 O 118.426 0.402489 -1.73903 0
M  V30 1355 C 115.526 0.668107 -3.32249 0
M  V30 1356 C 114.699 -0.120534 -4.37234 0
M  V30 1357 C 113.758 0.720932 -5.21238 0
M  V30 1358 O 112.784 0.156166 -5.68986 0
M  V30 1359 N 113.986 2.03647 -5.43607 0
M  V30 1360 H 116.751 -1.06575 -2.80111 0
M  V30 1361 H 114.312 -0.709395 -1.45531 0
M  V30 1362 H 116.304 1.23627 -3.85355 0
M  V30 1363 H 114.874 1.38621 -2.80184 0
M  V30 1364 H 114.094 -0.870108 -3.84477 0
M  V30 1365 H 115.382 -0.662406 -5.0447 0
M  V30 1366 H 114.78 2.51871 -5.06535 0
M  V30 1367 H 113.337 2.55287 -5.99727 0
M  V30 1368 N 116.77 1.45427 -0.607355 0
M  V30 1369 C 118.047 1.9557 -0.0344566 0
M  V30 1370 C 118.427 1.54979 1.43334 0
M  V30 1371 O 117.775 0.812241 2.13576 0
M  V30 1372 C 117.985 3.48226 -0.232321 0
M  V30 1373 C 119.333 4.2445 -0.113001 0
M  V30 1374 O 120.357 3.55829 -0.162431 0
M  V30 1375 O 119.216 5.465 0.00209442 0
M  V30 1376 H 116.31 0.826222 0.0358667 0
M  V30 1377 H 118.856 1.55594 -0.6774 0
M  V30 1378 H 117.628 3.70739 -1.25174 0
M  V30 1379 H 117.251 3.95092 0.445896 0
M  V30 1380 N 118.248 0.346503 1.53744 0
M  V30 1381 C 119.497 -0.250122 2.00143 0
M  V30 1382 C 119.81 -1.51418 1.23822 0
M  V30 1383 O 121.016 -2.18823 1.60713 0
M  V30 1384 C 119.472 -0.496252 3.56462 0
M  V30 1385 C 119.08 0.752077 4.41642 0
M  V30 1386 C 120.824 -1.05157 4.11269 0
M  V30 1387 C 118.731 0.476583 5.89477 0
M  V30 1388 H 117.661 -0.0972409 0.747703 0
M  V30 1389 H 120.312 0.46229 1.77581 0
M  V30 1390 H 118.694 -1.26944 3.75102 0
M  V30 1391 H 119.868 1.5266 4.34778 0
M  V30 1392 H 118.183 1.22925 3.97842 0
M  V30 1393 H 120.78 -1.27269 5.19333 0
M  V30 1394 H 121.123 -2.00799 3.64672 0
M  V30 1395 H 121.656 -0.339019 3.96353 0
M  V30 1396 H 118.395 1.4028 6.40314 0
M  V30 1397 H 117.915 -0.259794 5.99237 0
M  V30 1398 H 119.594 0.0949315 6.4693 0
M  V30 1399 N 119.726 -1.57421 0.075193 0
M  V30 1400 C 120.975 -1.92794 -0.592731 0
M  V30 1401 C 121.288 -0.957478 -1.70563 0
M  V30 1402 O 122.494 -1.20417 -2.43335 0
M  V30 1403 C 120.95 -3.42495 -1.10569 0
M  V30 1404 C 120.558 -4.47994 -0.0236121 0
M  V30 1405 C 122.302 -3.86864 -1.74748 0
M  V30 1406 C 120.209 -5.88829 -0.550803 0
M  V30 1407 H 119.139 -0.719591 -0.225177 0
M  V30 1408 H 121.79 -1.82902 0.147978 0
M  V30 1409 H 120.172 -3.47471 -1.89947 0
M  V30 1410 H 121.346 -4.54637 0.751099 0
M  V30 1411 H 119.661 -4.13113 0.522159 0
M  V30 1412 H 122.258 -4.8947 -2.15229 0
M  V30 1413 H 122.601 -3.24417 -2.60882 0
M  V30 1414 H 123.134 -3.84504 -1.01986 0
M  V30 1415 H 119.873 -6.54929 0.273457 0
M  V30 1416 H 119.393 -5.85698 -1.29296 0
M  V30 1417 H 121.072 -6.38811 -1.02613 0
M  V30 1418 N 121.204 0.198386 -1.56346 0
M  V30 1419 C 122.481 0.944982 -1.71258 0
M  V30 1420 C 122.861 2.0151 -0.629048 0
M  V30 1421 O 122.209 2.25639 0.360473 0
M  V30 1422 C 122.419 1.5344 -3.1346 0
M  V30 1423 C 123.767 2.01778 -3.73591 0
M  V30 1424 O 124.791 1.63288 -3.16568 0
M  V30 1425 O 123.65 2.72594 -4.73661 0
M  V30 1426 H 120.744 0.442939 -0.69838 0
M  V30 1427 H 123.29 0.188342 -1.68652 0
M  V30 1428 H 122.062 0.762869 -3.83792 0
M  V30 1429 H 121.685 2.35596 -3.20282 0
M  V30 1430 N 122.682 1.50554 0.465978 0
M  V30 1431 C 123.632 1.66177 1.56106 0
M  V30 1432 C 124.616 0.516265 1.52393 0
M  V30 1433 O 125.808 0.770906 1.5933 0
M  V30 1434 C 122.937 1.76396 2.94515 0
M  V30 1435 C 122.023 2.9664 3.03093 0
M  V30 1436 N 122.414 4.20245 2.81474 0
M  V30 1437 C 120.712 2.95304 3.34233 0
M  V30 1438 C 121.413 5.01259 2.95151 0
M  V30 1439 N 120.389 4.35318 3.25576 0
M  V30 1440 H 124.191 2.59434 1.38099 0
M  V30 1441 H 121.705 1.47808 0.6728 0
M  V30 1442 H 123.702 1.85694 3.73261 0
M  V30 1443 H 122.362 0.843017 3.13565 0
M  V30 1444 H 123.373 4.4966 2.56956 0
M  V30 1445 H 120.05 2.12729 3.59239 0
M  V30 1446 H 121.44 6.09564 2.82632 0
M  V30 1447 N 124.16 -0.719506 1.40217 0
M  V30 1448 C 125.108 -1.85493 1.40339 0
M  V30 1449 C 126.102 -1.66995 0.284415 0
M  V30 1450 O 127.308 -1.74148 0.455252 0
M  V30 1451 H 123.683 -0.610857 0.438586 0
M  V30 1452 H 125.654 -1.82506 2.36081 0
M  V30 1453 C 124.403 -3.23321 1.27901 0
M  V30 1454 H 123.726 -3.38159 2.1328 0
M  V30 1455 H 125.166 -4.02914 1.32045 0
M  V30 1456 C 123.625 -3.36898 -0.0111355 0
M  V30 1457 O 124.155 -3.89674 -0.975538 0
M  V30 1458 N 122.361 -2.90492 -0.0793393 0
M  V30 1459 H 121.908 -2.47731 0.706183 0
M  V30 1460 H 121.866 -2.99955 -0.942038 0
M  V30 1461 N 125.638 -1.25649 -0.95132 0
M  V30 1462 C 126.887 -1.09988 -1.69073 0
M  V30 1463 C 127.2 0.358355 -1.92289 0
M  V30 1464 O 128.406 0.635466 -2.63958 0
M  V30 1465 C 126.862 -1.92012 -3.044 0
M  V30 1466 C 126.47 -3.42347 -2.88968 0
M  V30 1467 C 128.214 -1.8493 -3.82101 0
M  V30 1468 C 126.121 -4.16655 -4.19705 0
M  V30 1469 H 125.051 -0.407993 -0.63408 0
M  V30 1470 H 127.702 -1.49873 -1.05879 0
M  V30 1471 H 126.084 -1.44952 -3.68517 0
M  V30 1472 H 127.258 -3.97104 -2.33762 0
M  V30 1473 H 125.573 -3.50557 -2.24719 0
M  V30 1474 H 128.17 -2.37739 -4.78941 0
M  V30 1475 H 128.513 -0.817883 -4.08187 0
M  V30 1476 H 129.046 -2.29758 -3.2474 0
M  V30 1477 H 125.785 -5.20224 -3.98807 0
M  V30 1478 H 125.305 -3.66681 -4.74663 0
M  V30 1479 H 126.984 -4.24551 -4.88227 0
M  V30 1480 N 127.117 1.15442 -1.07289 0
M  V30 1481 C 128.394 1.82306 -0.708792 0
M  V30 1482 C 128.774 1.94991 0.808807 0
M  V30 1483 O 128.122 1.50085 1.72298 0
M  V30 1484 C 128.332 3.18695 -1.42247 0
M  V30 1485 C 129.68 3.94341 -1.57417 0
M  V30 1486 O 130.704 3.28247 -1.38319 0
M  V30 1487 O 129.563 5.12839 -1.88834 0
M  V30 1488 H 126.657 0.787628 -0.252132 0
M  V30 1489 H 129.203 1.22559 -1.17377 0
M  V30 1490 H 127.975 3.04557 -2.45684 0
M  V30 1491 H 127.598 3.86128 -0.948223 0
M  V30 1492 N 128.595 0.856903 1.32268 0
M  V30 1493 C 129.841 0.462069 1.97466 0
M  V30 1494 C 130.174 -0.980298 1.67642 0
M  V30 1495 O 129.449 -1.68824 0.965858 0
M  V30 1496 C 129.732 0.704336 3.53145 0
M  V30 1497 C 129.585 2.19529 3.9259 0
M  V30 1498 C 130.904 0.1622 4.39801 0
M  V30 1499 H 128.023 0.169357 0.717278 0
M  V30 1500 H 130.665 1.07574 1.56614 0
M  V30 1501 H 128.815 0.181999 3.88073 0
M  V30 1502 H 130.487 2.78387 3.67829 0
M  V30 1503 H 128.73 2.67292 3.41668 0
M  V30 1504 H 129.401 2.31549 5.01088 0
M  V30 1505 H 131.877 0.608905 4.11621 0
M  V30 1506 H 130.753 0.361265 5.4771 0
M  V30 1507 H 131.014 -0.935158 4.32096 0
M  V30 1508 N 130.073 -1.45103 0.615059 0
M  V30 1509 C 131.32 -2.02183 0.113179 0
M  V30 1510 C 131.648 -1.48249 -1.25906 0
M  V30 1511 O 130.903 -0.650265 -1.84581 0
M  V30 1512 C 131.202 -3.57386 0.0318797 0
M  V30 1513 C 130.868 -4.30505 1.34077 0
M  V30 1514 C 129.53 -4.50197 1.69929 0
M  V30 1515 C 131.882 -4.72238 2.20546 0
M  V30 1516 C 129.21 -5.08881 2.91988 0
M  V30 1517 C 131.562 -5.32272 3.41861 0
M  V30 1518 C 130.226 -5.50187 3.77956 0
M  V30 1519 H 129.496 -0.739842 0.0414151 0
M  V30 1520 H 132.143 -1.74073 0.798168 0
M  V30 1521 H 130.448 -3.84817 -0.736409 0
M  V30 1522 H 132.145 -3.99264 -0.372712 0
M  V30 1523 H 128.735 -4.15496 1.05173 0
M  V30 1524 H 132.919 -4.56751 1.94146 0
M  V30 1525 H 128.175 -5.20939 3.2005 0
M  V30 1526 H 132.349 -5.63563 4.09109 0
M  V30 1527 H 129.976 -5.95427 4.72622 0
M  V30 1528 N 131.551 -0.354651 -1.53558 0
M  V30 1529 C 132.797 0.238797 -2.01389 0
M  V30 1530 C 133.13 1.49309 -1.2418 0
M  V30 1531 O 132.405 1.91638 -0.332457 0
M  V30 1532 C 132.688 0.541771 -3.56001 0
M  V30 1533 C 132.541 -0.725388 -4.43912 0
M  V30 1534 C 133.86 1.34685 -4.18984 0
M  V30 1535 H 130.979 0.0853177 -0.732045 0
M  V30 1536 H 133.621 -0.477384 -1.83905 0
M  V30 1537 H 131.771 1.15189 -3.71031 0
M  V30 1538 H 133.443 -1.36313 -4.407 0
M  V30 1539 H 131.686 -1.34801 -4.12324 0
M  V30 1540 H 132.357 -0.468505 -5.50008 0
M  V30 1541 H 134.833 0.830837 -4.07721 0
M  V30 1542 H 133.709 1.52759 -5.27215 0
M  V30 1543 H 133.97 2.35221 -3.74331 0
M  V30 1544 N 133.029 1.57378 -0.0835403 0
M  V30 1545 C 133.962 2.09016 0.915833 0
M  V30 1546 C 134.94 0.997993 1.2837 0
M  V30 1547 O 136.124 1.27219 1.39096 0
M  V30 1548 C 133.251 2.55757 2.22049 0
M  V30 1549 C 132.297 3.76522 2.00333 0
M  V30 1550 S 133.13 5.20661 1.25191 0
M  V30 1551 C 134.286 5.70743 2.56912 0
M  V30 1552 H 134.519 2.93457 0.476492 0
M  V30 1553 H 132.052 1.53856 0.129493 0
M  V30 1554 H 134.01 2.83346 2.97027 0
M  V30 1555 H 132.671 1.71564 2.63106 0
M  V30 1556 H 131.864 4.07256 2.96916 0
M  V30 1557 H 131.466 3.49367 1.33488 0
M  V30 1558 H 133.758 5.78304 3.52946 0
M  V30 1559 H 134.701 6.6944 2.30772 0
M  V30 1560 H 135.109 4.98616 2.64655 0
M  V30 1561 N 134.507 -0.190092 1.56449 0
M  V30 1562 C 135.755 -0.907908 1.80559 0
M  V30 1563 C 136.076 -1.83583 0.657438 0
M  V30 1564 O 135.346 -1.93203 -0.323924 0
M  V30 1565 H 133.926 -0.338247 0.666032 0
M  V30 1566 H 136.588 -0.194403 1.93928 0
M  V30 1567 H 135.684 -1.49604 2.73907 0
M  V30 1568 N 135.985 -1.50799 -0.457987 0
M  V30 1569 C 137.262 -1.52968 -1.21902 0
M  V30 1570 C 137.642 -0.281906 -2.09209 0
M  V30 1571 O 136.99 0.734076 -2.16388 0
M  V30 1572 C 137.2 -2.8326 -2.03875 0
M  V30 1573 C 138.548 -3.34425 -2.6162 0
M  V30 1574 O 139.572 -2.8467 -2.14106 0
M  V30 1575 O 138.431 -4.21188 -3.48228 0
M  V30 1576 H 135.525 -0.614129 -0.553873 0
M  V30 1577 H 138.071 -1.63098 -0.468739 0
M  V30 1578 H 136.843 -3.65543 -1.39621 0
M  V30 1579 H 136.466 -2.76195 -2.8601 0
M  V30 1580 N 137.463 0.71206 -1.40597 0
M  V30 1581 C 138.74 1.46536 -1.29563 0
M  V30 1582 C 139.12 2.10931 0.0844217 0
M  V30 1583 O 138.468 2.00418 1.0975 0
M  V30 1584 C 138.678 2.49821 -2.43701 0
M  V30 1585 C 140.026 3.15551 -2.841 0
M  V30 1586 O 141.05 2.60142 -2.4332 0
M  V30 1587 O 139.909 4.15867 -3.54566 0
M  V30 1588 H 137.003 0.651801 -0.509004 0
M  V30 1589 H 139.549 0.743935 -1.52524 0
M  V30 1590 H 138.321 2.00778 -3.35863 0
M  V30 1591 H 137.944 3.29495 -2.22528 0
M  V30 1592 N 138.941 1.26152 0.944643 0
M  V30 1593 C 140.187 1.12665 1.69346 0
M  V30 1594 C 140.542 -0.3273 1.89596 0
M  V30 1595 O 139.835 -1.23717 1.46303 0
M  V30 1596 C 140.029 1.82541 3.07268 0
M  V30 1597 C 139.858 3.34582 3.00475 0
M  V30 1598 C 138.628 4.03863 3.03681 0
M  V30 1599 C 140.826 4.30828 2.80877 0
M  V30 1600 N 138.808 5.42603 2.87151 0
M  V30 1601 C 140.179 5.5672 2.7288 0
M  V30 1602 C 142.234 4.21122 2.65633 0
M  V30 1603 C 140.937 6.74013 2.51196 0
M  V30 1604 C 142.963 5.38118 2.45323 0
M  V30 1605 C 142.325 6.62955 2.38055 0
M  V30 1606 H 138.424 0.467041 0.627214 0
M  V30 1607 H 141.008 1.59391 1.11815 0
M  V30 1608 H 139.179 1.38296 3.62945 0
M  V30 1609 H 140.911 1.61708 3.70989 0
M  V30 1610 H 137.666 3.55198 3.1326 0
M  V30 1611 H 138.09 6.15443 2.82063 0
M  V30 1612 H 142.732 3.25344 2.70021 0
M  V30 1613 H 140.45 7.6989 2.4555 0
M  V30 1614 H 144.036 5.32475 2.34439 0
M  V30 1615 H 142.916 7.51959 2.22546 0
M  V30 1616 N 140.419 -1.14872 1.07899 0
M  V30 1617 C 141.329 -2.2341 0.715915 0
M  V30 1618 C 142.345 -1.71808 -0.275306 0
M  V30 1619 O 143.521 -2.01039 -0.120545 0
M  V30 1620 C 140.586 -3.46474 0.125168 0
M  V30 1621 C 139.647 -4.13039 1.17034 0
M  V30 1622 C 138.88 -5.30229 0.607688 0
M  V30 1623 O 139.103 -5.675 -0.574497 0
M  V30 1624 O 138.037 -5.86444 1.35526 0
M  V30 1625 H 141.863 -2.56808 1.62121 0
M  V30 1626 H 139.448 -1.22702 0.852322 0
M  V30 1627 H 141.33 -4.20917 -0.201729 0
M  V30 1628 H 140.005 -3.14811 -0.753364 0
M  V30 1629 H 138.912 -3.40493 1.54968 0
M  V30 1630 H 140.245 -4.48796 2.02097 0
M  V30 1631 N 141.898 -0.863906 -1.31812 0
M  V30 1632 C 143.146 -0.470904 -1.96537 0
M  V30 1633 C 143.467 0.978771 -1.68657 0
M  V30 1634 O 142.737 1.6853 -0.998717 0
M  V30 1635 H 141.317 -0.171148 -0.72713 0
M  V30 1636 H 143.979 -1.10236 -1.60729 0
M  V30 1637 H 143.075 -0.623616 -3.05806 0
M  V30 1638 N 143.376 1.44774 -0.622745 0
M  V30 1639 C 144.323 2.30635 0.0871679 0
M  V30 1640 C 145.293 1.42994 0.845097 0
M  V30 1641 O 146.478 1.71907 0.827812 0
M  V30 1642 C 143.618 3.28144 1.06844 0
M  V30 1643 C 142.731 4.30888 0.309809 0
M  V30 1644 C 141.866 5.15494 1.28215 0
M  V30 1645 C 140.905 6.09953 0.512198 0
M  V30 1646 N 140.042 6.87287 1.43458 0
M  V30 1647 H 144.882 2.90803 -0.650974 0
M  V30 1648 H 142.419 1.43286 -0.33281 0
M  V30 1649 H 144.377 3.83157 1.65066 0
M  V30 1650 H 143.007 2.69695 1.77382 0
M  V30 1651 H 142.059 3.78414 -0.388181 0
M  V30 1652 H 143.371 4.97955 -0.290254 0
M  V30 1653 H 142.525 5.74983 1.93596 0
M  V30 1654 H 141.264 4.48481 1.91614 0
M  V30 1655 H 140.269 5.49581 -0.155151 0
M  V30 1656 H 141.494 6.78999 -0.116958 0
M  V30 1657 H 139.44 6.2295 2.05594 0
M  V30 1658 H 139.357 7.50763 0.888335 0
M  V30 1659 H 140.625 7.51306 2.07749 0
M  V30 1660 N 144.854 0.36279 1.53368 0
M  V30 1661 C 146.101 -0.227776 2.01215 0
M  V30 1662 C 146.429 -1.49003 1.25014 0
M  V30 1663 O 145.684 -1.92876 0.331236 0
M  V30 1664 C 145.983 -0.568417 3.52851 0
M  V30 1665 C 145.649 0.59918 4.46901 0
M  V30 1666 C 144.311 0.919559 4.72332 0
M  V30 1667 C 146.663 1.38156 5.02556 0
M  V30 1668 C 143.991 2.02434 5.5067 0
M  V30 1669 C 146.343 2.47674 5.821 0
M  V30 1670 C 145.007 2.8025 6.05819 0
M  V30 1671 H 144.277 -0.083349 0.736297 0
M  V30 1672 H 146.924 0.494677 1.85001 0
M  V30 1673 H 145.229 -1.37185 3.66998 0
M  V30 1674 H 146.926 -1.03756 3.87344 0
M  V30 1675 H 143.516 0.339437 4.27254 0
M  V30 1676 H 147.7 1.14729 4.82857 0
M  V30 1677 H 142.956 2.28075 5.67267 0
M  V30 1678 H 147.13 3.08716 6.24234 0
M  V30 1679 H 144.757 3.65979 6.66306 0
M  V30 1680 N 146.332 -1.57332 0.0918853 0
M  V30 1681 C 147.609 -1.85691 -0.614668 0
M  V30 1682 C 147.989 -0.988146 -1.86545 0
M  V30 1683 O 147.337 -0.0597055 -2.28422 0
M  V30 1684 C 147.547 -3.36294 -0.933126 0
M  V30 1685 C 148.895 -4.04275 -1.29796 0
M  V30 1686 O 149.919 -3.41157 -1.02424 0
M  V30 1687 O 148.778 -5.1564 -1.81047 0
M  V30 1688 H 145.872 -0.767802 -0.307261 0
M  V30 1689 H 148.418 -1.69244 0.12434 0
M  V30 1690 H 147.19 -3.91273 -0.0456404 0
M  V30 1691 H 146.813 -3.58076 -1.72822 0
M  V30 1692 N 147.81 0.181792 -1.56548 0
M  V30 1693 C 149.057 0.900097 -1.81396 0
M  V30 1694 C 149.385 1.82695 -0.667281 0
M  V30 1695 O 148.64 1.92614 0.346146 0
M  V30 1696 C 148.939 1.73728 -3.12335 0
M  V30 1697 C 148.605 0.960255 -4.40556 0
M  V30 1698 C 147.267 0.745766 -4.75386 0
M  V30 1699 C 149.619 0.414477 -5.19549 0
M  V30 1700 C 146.947 -0.0257694 -5.86694 0
M  V30 1701 C 149.299 -0.343916 -6.31664 0
M  V30 1702 C 147.963 -0.569301 -6.65068 0
M  V30 1703 H 147.233 0.329369 -0.663775 0
M  V30 1704 H 149.88 0.165647 -1.90782 0
M  V30 1705 H 148.185 2.54081 -2.98245 0
M  V30 1706 H 149.882 2.29591 -3.28769 0
M  V30 1707 H 146.472 1.13746 -4.13231 0
M  V30 1708 H 150.656 0.567554 -4.93044 0
M  V30 1709 H 145.912 -0.210233 -6.11038 0
M  V30 1710 H 150.086 -0.774133 -6.92084 0
M  V30 1711 H 147.713 -1.16903 -7.51158 0
M  V30 1712 N 149.288 1.51039 0.449983 0
M  V30 1713 C 150.218 1.74379 1.55288 0
M  V30 1714 C 151.199 0.593236 1.5942 0
M  V30 1715 O 152.384 0.834625 1.7535 0
M  V30 1716 C 149.514 1.85728 2.93466 0
M  V30 1717 C 148.468 3.01078 3.04197 0
M  V30 1718 C 147.794 2.97595 4.44231 0
M  V30 1719 C 149.094 4.41254 2.7945 0
M  V30 1720 H 150.788 2.66725 1.36008 0
M  V30 1721 H 148.334 1.2835 0.652864 0
M  V30 1722 H 150.287 2.0064 3.70569 0
M  V30 1723 H 149.011 0.900207 3.13949 0
M  V30 1724 H 147.67 2.85851 2.29531 0
M  V30 1725 H 147.318 1.99691 4.61663 0
M  V30 1726 H 147.018 3.75046 4.52343 0
M  V30 1727 H 148.542 3.14583 5.23326 0
M  V30 1728 H 149.956 4.56897 3.46292 0
M  V30 1729 H 148.353 5.20315 2.98985 0
M  V30 1730 H 149.423 4.52164 1.75144 0
M  V30 1731 N 150.766 -0.704594 1.40972 0
M  V30 1732 C 151.713 -1.81862 1.42109 0
M  V30 1733 C 152.683 -1.63781 0.276593 0
M  V30 1734 O 153.868 -1.84759 0.4763 0
M  V30 1735 C 151.008 -3.19669 1.30022 0
M  V30 1736 C 150.121 -3.49246 2.54267 0
M  V30 1737 C 149.256 -4.76618 2.3454 0
M  V30 1738 C 148.295 -4.99133 3.54306 0
M  V30 1739 N 147.432 -6.17726 3.33706 0
M  V30 1740 H 152.272 -1.80226 2.37324 0
M  V30 1741 H 149.809 -0.880238 1.17857 0
M  V30 1742 H 151.767 -3.99263 1.21018 0
M  V30 1743 H 150.397 -3.20506 0.384192 0
M  V30 1744 H 149.449 -2.64125 2.73756 0
M  V30 1745 H 150.761 -3.61788 3.43381 0
M  V30 1746 H 149.915 -5.64249 2.22952 0
M  V30 1747 H 148.654 -4.66305 1.42867 0
M  V30 1748 H 147.659 -4.09953 3.66359 0
M  V30 1749 H 148.884 -5.11311 4.4692 0
M  V30 1750 H 146.83 -6.08642 2.44725 0
M  V30 1751 H 146.747 -6.30995 4.16391 0
M  V30 1752 H 148.015 -7.08115 3.25873 0
M  V30 1753 N 152.244 -1.26651 -0.937939 0
M  V30 1754 C 153.521 -1.0313 -1.66204 0
M  V30 1755 C 153.901 0.437256 -2.06522 0
M  V30 1756 O 153.249 1.41831 -1.79154 0
M  V30 1757 C 153.459 -1.98314 -2.87181 0
M  V30 1758 C 154.807 -2.27107 -3.58758 0
M  V30 1759 O 155.831 -1.96205 -2.97291 0
M  V30 1760 O 154.69 -2.79736 -4.69479 0
M  V30 1761 H 151.784 -0.392384 -0.727986 0
M  V30 1762 H 154.33 -1.37874 -0.989382 0
M  V30 1763 H 153.102 -2.97399 -2.54302 0
M  V30 1764 H 152.725 -1.64068 -3.6217 0
M  V30 1765 N 153.722 1.14298 -1.08507 0
M  V30 1766 C 154.654 2.1907 -0.673859 0
M  V30 1767 C 155.667 1.60381 0.279577 0
M  V30 1768 O 156.856 1.78374 0.0670754 0
M  V30 1769 C 153.956 3.38888 0.0290979 0
M  V30 1770 C 153.129 4.27103 -0.943494 0
M  V30 1771 C 152.188 5.25477 -0.275676 0
M  V30 1772 O 151.214 5.61709 -0.920401 0
M  V30 1773 N 152.416 5.7227 0.974013 0
M  V30 1774 H 155.181 2.54965 -1.57521 0
M  V30 1775 H 152.742 1.29528 -0.971287 0
M  V30 1776 H 154.734 4.01761 0.48683 0
M  V30 1777 H 153.304 3.01309 0.832555 0
M  V30 1778 H 152.524 3.61149 -1.58004 0
M  V30 1779 H 153.812 4.82905 -1.60251 0
M  V30 1780 H 153.21 5.44965 1.51755 0
M  V30 1781 H 151.767 6.37127 1.37522 0
M  V30 1782 N 155.201 0.870884 1.31352 0
M  V30 1783 C 156.441 0.488783 1.9847 0
M  V30 1784 C 156.805 -0.941536 1.67329 0
M  V30 1785 O 158.006 -1.42903 2.27667 0
M  V30 1786 C 156.277 0.739688 3.49662 0
M  V30 1787 S 157.836 0.457582 4.36408 0
M  V30 1788 H 154.654 0.18242 0.6872 0
M  V30 1789 H 157.256 1.12711 1.59739 0
M  V30 1790 H 155.96 1.77944 3.69816 0
M  V30 1791 H 155.491 0.0883905 3.93301 0
M  V30 1792 H 157.506 -0.709752 4.91098 0
M  V30 1793 N 156.679 -1.44442 0.630414 0
M  V30 1794 C 157.589 -2.34476 -0.0761693 0
M  V30 1795 C 158.605 -1.52576 -0.836449 0
M  V30 1796 O 159.781 -1.85307 -0.788874 0
M  V30 1797 C 156.846 -3.30545 -1.04599 0
M  V30 1798 C 155.907 -4.28352 -0.28516 0
M  V30 1799 C 155.14 -5.19831 -1.20878 0
M  V30 1800 O 155.363 -5.15223 -2.44747 0
M  V30 1801 O 154.297 -5.97892 -0.693491 0
M  V30 1802 H 158.123 -2.96345 0.664324 0
M  V30 1803 H 155.708 -1.44203 0.39061 0
M  V30 1804 H 157.59 -3.89681 -1.60396 0
M  V30 1805 H 156.265 -2.7121 -1.76711 0
M  V30 1806 H 155.172 -3.72764 0.315837 0
M  V30 1807 H 156.505 -4.90605 0.395924 0
M  V30 1808 N 158.157 -0.370918 -1.53173 0
M  V30 1809 C 159.403 0.217423 -2.01631 0
M  V30 1810 C 159.736 1.47983 -1.25756 0
M  V30 1811 O 159.011 1.91274 -0.352764 0
M  V30 1812 C 159.294 0.503982 -3.56556 0
M  V30 1813 C 159.147 -0.77243 -4.43118 0
M  V30 1814 C 160.466 1.30234 -4.20389 0
M  V30 1815 H 157.585 0.0775486 -0.732909 0
M  V30 1816 H 160.227 -0.496863 -1.83388 0
M  V30 1817 H 158.377 1.11248 -3.72231 0
M  V30 1818 H 160.049 -1.4098 -4.39229 0
M  V30 1819 H 158.292 -1.39167 -4.10871 0
M  V30 1820 H 158.963 -0.526815 -5.4948 0
M  V30 1821 H 161.439 0.787546 -4.08579 0
M  V30 1822 H 160.315 1.47158 -5.28806 0
M  V30 1823 H 160.576 2.31237 -3.76805 0
M  V30 1824 N 159.635 1.57281 -0.100228 0
M  V30 1825 C 160.881 1.94826 0.563101 0
M  V30 1826 C 161.214 0.982475 1.67514 0
M  V30 1827 O 160.489 0.0164069 1.94493 0
M  V30 1828 C 160.772 3.42453 1.11346 0
M  V30 1829 C 160.625 4.498 0.00612081 0
M  V30 1830 C 161.944 3.91506 2.01024 0
M  V30 1831 H 159.063 0.708428 0.203221 0
M  V30 1832 H 161.705 1.8922 -0.171979 0
M  V30 1833 H 159.855 3.47361 1.7399 0
M  V30 1834 H 161.527 4.57 -0.628357 0
M  V30 1835 H 159.77 4.28756 -0.659581 0
M  V30 1836 H 160.441 5.50306 0.432109 0
M  V30 1837 H 162.917 3.88784 1.48278 0
M  V30 1838 H 161.793 4.95358 2.36457 0
M  V30 1839 H 162.054 3.31099 2.92961 0
M  V30 1840 N 161.113 -0.173488 1.56642 0
M  V30 1841 C 162.343 -0.904781 1.85734 0
M  V30 1842 C 162.751 -1.76431 0.68328 0
M  V30 1843 O 162.094 -1.802 -0.356865 0
M  V30 1844 C 162.156 -1.83382 3.09211 0
M  V30 1845 C 161.82 -1.15411 4.42187 0
M  V30 1846 C 162.817 -0.520609 5.17287 0
M  V30 1847 C 160.502 -1.15151 4.88923 0
M  V30 1848 C 162.496 0.106412 6.37311 0
M  V30 1849 C 160.183 -0.520664 6.08878 0
M  V30 1850 C 161.181 0.107196 6.82916 0
M  V30 1851 O 160.869 0.728102 8.00596 0
M  V30 1852 H 160.601 -0.268408 0.62043 0
M  V30 1853 H 163.155 -0.179096 2.04618 0
M  V30 1854 H 161.385 -2.59976 2.86268 0
M  V30 1855 H 163.074 -2.43476 3.24768 0
M  V30 1856 H 163.84 -0.514606 4.82262 0
M  V30 1857 H 159.719 -1.62961 4.31236 0
M  V30 1858 H 163.263 0.597081 6.9504 0
M  V30 1859 H 159.16 -0.524242 6.43368 0
M  V30 1860 H 159.928 0.627138 8.16094 0
M  V30 1861 N 162.591 -1.51276 -0.441967 0
M  V30 1862 C 163.521 -1.752 -1.54361 0
M  V30 1863 C 164.502 -0.601682 -1.59103 0
M  V30 1864 O 165.687 -0.843913 -1.74905 0
M  V30 1865 C 162.817 -1.87282 -2.92477 0
M  V30 1866 C 161.771 -3.02687 -3.02596 0
M  V30 1867 C 161.097 -2.99947 -4.42647 0
M  V30 1868 C 162.397 -4.4273 -2.77106 0
M  V30 1869 H 164.091 -2.67442 -1.34592 0
M  V30 1870 H 161.637 -1.28694 -0.646048 0
M  V30 1871 H 163.59 -2.02602 -3.695 0
M  V30 1872 H 162.314 -0.916844 -3.13467 0
M  V30 1873 H 160.973 -2.87065 -2.28012 0
M  V30 1874 H 160.621 -2.02136 -4.60597 0
M  V30 1875 H 160.321 -3.77439 -4.50348 0
M  V30 1876 H 161.845 -3.17354 -5.2165 0
M  V30 1877 H 163.259 -4.58727 -3.43864 0
M  V30 1878 H 161.656 -5.21893 -2.96222 0
M  V30 1879 H 162.726 -4.53087 -1.72744 0
M  V30 1880 N 164.069 0.697108 -1.41344 0
M  V30 1881 C 165.48 1.27697 -1.36199 0
M  V30 1882 C 165.831 1.9615 -0.0443463 0
M  V30 1883 O 164.956 1.98689 0.857419 0
M  V30 1884 C 165.551 2.32223 -2.46694 0
M  V30 1885 C 164.11 2.8579 -2.44952 0
M  V30 1886 C 163.257 1.59807 -2.26621 0
M  V30 1887 H 166.208 0.491968 -1.50882 0
M  V30 1888 H 166.229 3.1348 -2.15664 0
M  V30 1889 H 165.741 1.82373 -3.42581 0
M  V30 1890 H 163.842 3.3982 -1.52817 0
M  V30 1891 H 163.955 3.36325 -3.41207 0
M  V30 1892 H 162.319 1.8556 -1.7447 0
M  V30 1893 H 163.102 1.11956 -3.24532 0
M  V30 1894 N 165.547 1.27147 0.931209 0
M  V30 1895 C 166.963 1.04475 1.20653 0
M  V30 1896 C 167.163 -0.223885 2.00252 0
M  V30 1897 O 166.219 -0.930332 2.34736 0
M  V30 1898 C 167.532 2.28209 1.95809 0
M  V30 1899 C 169.08 2.33211 2.08762 0
M  V30 1900 C 169.555 3.56665 2.87323 0
M  V30 1901 N 171.046 3.57201 2.94892 0
M  V30 1902 C 171.781 4.49395 3.56134 0
M  V30 1903 N 171.277 5.51889 4.18796 0
M  V30 1904 N 173.07 4.37026 3.53504 0
M  V30 1905 H 165.221 2.08612 0.399333 0
M  V30 1906 H 167.484 0.917312 0.239253 0
M  V30 1907 H 167.19 3.20538 1.44736 0
M  V30 1908 H 167.064 2.33247 2.96438 0
M  V30 1909 H 169.451 1.41391 2.59023 0
M  V30 1910 H 169.532 2.32178 1.07364 0
M  V30 1911 H 169.176 4.4882 2.37746 0
M  V30 1912 H 169.106 3.54948 3.88998 0
M  V30 1913 H 171.597 2.83074 2.50354 0
M  V30 1914 H 171.91 6.18409 4.63454 0
M  V30 1915 H 170.255 5.55735 4.17353 0
M  V30 1916 H 173.446 3.56166 3.03749 0
M  V30 1917 H 173.619 5.09067 4.00942 0
M  V30 1918 N 167.025 -1.13721 1.09112 0
M  V30 1919 C 168.253 -1.88773 0.846899 0
M  V30 1920 C 168.668 -1.7896 -0.601572 0
M  V30 1921 O 168.025 -1.15394 -1.41388 0
M  V30 1922 C 168.076 -3.3849 1.26913 0
M  V30 1923 O 167.797 -3.48043 2.66079 0
M  V30 1924 C 169.298 -4.30518 1.05682 0
M  V30 1925 H 166.518 -0.59772 0.304914 0
M  V30 1926 H 169.062 -1.43977 1.45227 0
M  V30 1927 H 167.217 -3.80881 0.707723 0
M  V30 1928 H 167.631 -4.4109 2.83795 0
M  V30 1929 H 169.105 -5.3391 1.40156 0
M  V30 1930 H 169.582 -4.392 -0.00563416 0
M  V30 1931 H 170.188 -3.93893 1.60402 0
M  V30 1932 N 168.503 -0.877838 -1.30888 0
M  V30 1933 C 169.413 -0.343096 -2.32078 0
M  V30 1934 C 170.429 0.551022 -1.65045 0
M  V30 1935 O 171.605 0.445854 -1.96403 0
M  V30 1936 C 168.67 0.439905 -3.43898 0
M  V30 1937 C 167.731 -0.483111 -4.26573 0
M  V30 1938 C 166.964 0.262616 -5.33053 0
M  V30 1939 O 167.187 1.48967 -5.50604 0
M  V30 1940 O 166.121 -0.383593 -6.00676 0
M  V30 1941 H 169.947 -1.18203 -2.79753 0
M  V30 1942 H 167.532 -0.64145 -1.34929 0
M  V30 1943 H 169.414 0.883504 -4.12034 0
M  V30 1944 H 168.089 1.25526 -2.98371 0
M  V30 1945 H 166.996 -0.975374 -3.61161 0
M  V30 1946 H 168.329 -1.26427 -4.75686 0
M  V30 1947 N 169.982 1.44106 -0.638065 0
M  V30 1948 C 171.23 2.01579 -0.145043 0
M  V30 1949 C 171.551 1.50496 1.24 0
M  V30 1950 O 170.821 0.711374 1.82527 0
M  V30 1951 H 169.401 0.745282 -0.05063 0
M  V30 1952 H 172.063 1.76516 -0.826327 0
M  V30 1953 H 171.159 3.11877 -0.118039 0
M  V30 1954 N 171.46 0.379036 1.52974 0
M  V30 1955 C 172.709 -0.207612 2.00629 0
M  V30 1956 C 173.022 -1.48758 1.27006 0
M  V30 1957 O 174.228 -2.15365 1.65318 0
M  V30 1958 C 172.684 -0.42053 3.57435 0
M  V30 1959 C 172.292 0.845587 4.39948 0
M  V30 1960 C 174.036 -0.964102 4.13407 0
M  V30 1961 C 171.943 0.601513 5.88333 0
M  V30 1962 H 170.873 -0.0813591 0.749598 0
M  V30 1963 H 173.524 0.499853 1.76561 0
M  V30 1964 H 171.906 -1.18959 3.7771 0
M  V30 1965 H 173.08 1.61848 4.31442 0
M  V30 1966 H 171.395 1.31336 3.95145 0
M  V30 1967 H 173.992 -1.16225 5.21916 0
M  V30 1968 H 174.335 -1.93019 3.68849 0
M  V30 1969 H 174.868 -0.25487 3.96983 0
M  V30 1970 H 171.607 1.53831 6.37194 0
M  V30 1971 H 171.127 -0.132628 5.99653 0
M  V30 1972 H 172.806 0.232134 6.46583 0
M  V30 1973 N 172.938 -1.57226 0.108567 0
M  V30 1974 C 174.163 -1.99604 -0.563303 0
M  V30 1975 C 174.588 -0.987563 -1.6009 0
M  V30 1976 O 173.946 0.0421687 -1.81251 0
M  V30 1977 C 173.994 -3.40902 -1.17552 0
M  V30 1978 O 173.098 -3.42896 -2.2912 0
M  V30 1979 H 172.439 -0.648704 -0.1417 0
M  V30 1980 H 174.969 -2.03679 0.193961 0
M  V30 1981 H 174.979 -3.78886 -1.51357 0
M  V30 1982 H 173.654 -4.1382 -0.415445 0
M  V30 1983 H 172.231 -3.1672 -1.96832 0
M  V30 1984 N 174.416 0.165178 -1.56732 0
M  V30 1985 C 175.644 0.896218 -1.86482 0
M  V30 1986 C 176.059 1.75555 -0.694675 0
M  V30 1987 O 175.416 1.79379 0.33607 0
M  V30 1988 C 175.467 1.76792 -3.1532 0
M  V30 1989 O 175.188 0.943239 -4.27825 0
M  V30 1990 C 176.689 2.6081 -3.58459 0
M  V30 1991 H 173.909 0.260064 -0.618553 0
M  V30 1992 H 176.453 0.163428 -2.03846 0
M  V30 1993 H 174.608 2.45398 -2.99764 0
M  V30 1994 H 175.022 1.53998 -5.01383 0
M  V30 1995 H 176.496 3.17579 -4.51495 0
M  V30 1996 H 176.973 3.35977 -2.82872 0
M  V30 1997 H 177.579 1.97526 -3.76648 0
M  V30 1998 N 175.894 1.51508 0.433938 0
M  V30 1999 C 177.122 1.68157 1.20543 0
M  V30 2000 C 177.537 0.380362 1.84929 0
M  V30 2001 O 176.894 -0.641446 1.70856 0
M  V30 2002 C 176.945 2.79965 2.28696 0
M  V30 2003 O 176.666 4.05045 1.66943 0
M  V30 2004 C 178.167 3.07912 3.18912 0
M  V30 2005 H 175.387 0.56421 0.363191 0
M  V30 2006 H 177.931 1.97941 0.513754 0
M  V30 2007 H 176.086 2.5277 2.93574 0
M  V30 2008 H 176.5 4.67165 2.38448 0
M  V30 2009 H 177.974 3.89719 3.90926 0
M  V30 2010 H 178.451 2.20456 3.79863 0
M  V30 2011 H 179.057 3.36779 2.59731 0
M  V30 2012 N 177.372 -0.689602 1.41712 0
M  V30 2013 C 178.319 -1.80345 1.44029 0
M  V30 2014 C 179.289 -1.63478 0.293948 0
M  V30 2015 O 180.474 -1.84244 0.495869 0
M  V30 2016 C 177.614 -3.18272 1.33405 0
M  V30 2017 C 176.727 -3.46529 2.57956 0
M  V30 2018 C 175.862 -4.74103 2.39582 0
M  V30 2019 C 174.901 -4.95347 3.5958 0
M  V30 2020 N 174.038 -6.14151 3.40239 0
M  V30 2021 H 178.878 -1.77698 2.39222 0
M  V30 2022 H 176.415 -0.867688 1.18784 0
M  V30 2023 H 178.373 -3.97956 1.25246 0
M  V30 2024 H 177.003 -3.2008 0.418164 0
M  V30 2025 H 176.055 -2.61207 2.76542 0
M  V30 2026 H 177.367 -3.58126 3.47199 0
M  V30 2027 H 176.521 -5.61853 2.28924 0
M  V30 2028 H 175.26 -4.64763 1.47805 0
M  V30 2029 H 174.265 -4.06044 3.70686 0
M  V30 2030 H 175.49 -5.06542 4.52318 0
M  V30 2031 H 173.436 -6.06013 2.51167 0
M  V30 2032 H 173.353 -6.26543 4.23061 0
M  V30 2033 H 174.621 -7.04619 3.33365 0
M  V30 2034 N 178.85 -1.27639 -0.924453 0
M  V30 2035 C 180.099 -1.13549 -1.66702 0
M  V30 2036 C 180.412 0.317487 -1.93006 0
M  V30 2037 O 181.618 0.579333 -2.65247 0
M  V30 2038 C 180.074 -1.98426 -3.00259 0
M  V30 2039 C 179.682 -3.484 -2.81641 0
M  V30 2040 C 181.426 -1.92993 -3.78092 0
M  V30 2041 C 179.333 -4.25464 -4.10773 0
M  V30 2042 H 178.263 -0.421351 -0.625283 0
M  V30 2043 H 180.914 -1.52085 -1.02676 0
M  V30 2044 H 179.296 -1.52736 -3.6536 0
M  V30 2045 H 180.47 -4.01973 -2.25287 0
M  V30 2046 H 178.785 -3.55245 -2.17232 0
M  V30 2047 H 181.382 -2.47844 -4.7379 0
M  V30 2048 H 181.725 -0.904281 -4.0636 0
M  V30 2049 H 182.258 -2.36595 -3.19793 0
M  V30 2050 H 178.997 -5.28566 -3.87683 0
M  V30 2051 H 178.517 -3.76667 -4.66779 0
M  V30 2052 H 180.196 -4.34812 -4.79111 0
M  V30 2053 N 180.328 1.1314 -1.09713 0
M  V30 2054 C 181.275 2.18642 -0.739196 0
M  V30 2055 C 182.245 1.63706 0.280978 0
M  V30 2056 O 183.43 1.90111 0.161946 0
M  V30 2057 C 180.57 3.44685 -0.169102 0
M  V30 2058 C 179.683 4.13711 -1.24367 0
M  V30 2059 C 178.818 5.27379 -0.636019 0
M  V30 2060 C 177.857 5.88259 -1.69169 0
M  V30 2061 N 176.994 6.93352 -1.10485 0
M  V30 2062 H 181.834 2.48607 -1.64312 0
M  V30 2063 H 179.371 1.22066 -0.820875 0
M  V30 2064 H 181.329 4.16815 0.179256 0
M  V30 2065 H 179.959 3.15161 0.698079 0
M  V30 2066 H 179.011 3.39835 -1.70927 0
M  V30 2067 H 180.323 4.55037 -2.04311 0
M  V30 2068 H 179.477 6.06238 -0.236677 0
M  V30 2069 H 178.216 4.8731 0.194928 0
M  V30 2070 H 177.221 5.08092 -2.10055 0
M  V30 2071 H 178.446 6.30399 -2.52536 0
M  V30 2072 H 176.392 6.55335 -0.295234 0
M  V30 2073 H 176.309 7.33236 -1.84121 0
M  V30 2074 H 177.577 7.76057 -0.73181 0
M  V30 2075 N 181.806 0.884767 1.30421 0
M  V30 2076 C 182.716 0.355398 2.31892 0
M  V30 2077 C 183.732 -0.542261 1.65335 0
M  V30 2078 O 184.908 -0.435432 1.96637 0
M  V30 2079 C 181.973 -0.421661 3.44126 0
M  V30 2080 C 181.034 0.505727 4.26311 0
M  V30 2081 C 180.267 -0.234343 5.33185 0
M  V30 2082 O 180.49 -1.46045 5.51386 0
M  V30 2083 O 179.424 0.415443 6.00465 0
M  V30 2084 H 183.25 1.19685 2.79122 0
M  V30 2085 H 180.835 0.648596 1.34587 0
M  V30 2086 H 182.717 -0.861641 4.12497 0
M  V30 2087 H 181.392 -1.23942 2.99032 0
M  V30 2088 H 180.299 0.994513 3.60639 0
M  V30 2089 H 181.632 1.28948 4.75009 0
M  V30 2090 N 183.284 -1.43765 0.645699 0
M  V30 2091 C 184.194 -2.34544 -0.0512957 0
M  V30 2092 C 185.21 -1.53455 -0.82022 0
M  V30 2093 O 186.386 -1.86133 -0.769176 0
M  V30 2094 C 183.451 -3.31636 -1.01087 0
M  V30 2095 C 182.512 -4.2863 -0.239712 0
M  V30 2096 C 181.745 -5.21084 -1.15358 0
M  V30 2097 O 181.968 -5.1779 -2.39269 0
M  V30 2098 O 180.902 -5.98593 -0.630038 0
M  V30 2099 H 184.728 -2.95624 0.695718 0
M  V30 2100 H 182.313 -1.43781 0.405882 0
M  V30 2101 H 184.195 -3.9136 -1.56254 0
M  V30 2102 H 182.87 -2.73069 -1.73824 0
M  V30 2103 H 181.777 -3.72408 0.355356 0
M  V30 2104 H 183.11 -4.90157 0.447936 0
M  V30 2105 N 184.763 -0.387143 -1.52771 0
M  V30 2106 C 186.012 0.19697 -2.00736 0
M  V30 2107 C 186.325 1.48082 -1.27793 0
M  V30 2108 O 187.531 2.14485 -1.66458 0
M  V30 2109 C 185.987 0.401568 -3.57653 0
M  V30 2110 C 185.595 -0.868907 -4.39493 0
M  V30 2111 C 187.339 0.942164 -4.13912 0
M  V30 2112 C 185.246 -0.632705 -5.88006 0
M  V30 2113 H 184.176 0.0773827 -0.750019 0
M  V30 2114 H 186.827 -0.50921 -1.76293 0
M  V30 2115 H 185.209 1.16954 -3.78335 0
M  V30 2116 H 186.383 -1.64133 -4.30577 0
M  V30 2117 H 184.698 -1.33429 -3.94443 0
M  V30 2118 H 187.295 1.13455 -5.22525 0
M  V30 2119 H 187.638 1.9106 -3.69867 0
M  V30 2120 H 188.171 0.233814 -3.97112 0
M  V30 2121 H 184.91 -1.57208 -6.36369 0
M  V30 2122 H 184.43 0.100825 -5.99715 0
M  V30 2123 H 186.109 -0.26642 -6.46451 0
M  V30 2124 N 186.241 1.57166 -0.116904 0
M  V30 2125 C 187.204 2.14039 0.819742 0
M  V30 2126 C 188.204 1.07477 1.19605 0
M  V30 2127 O 189.394 1.33263 1.1219 0
M  V30 2128 C 186.526 2.67891 2.10826 0
M  V30 2129 H 187.719 2.98128 0.325511 0
M  V30 2130 H 185.272 1.55739 0.132312 0
M  V30 2131 H 186.007 1.87384 2.64685 0
M  V30 2132 H 185.792 3.45823 1.84793 0
M  V30 2133 H 187.282 3.11809 2.77785 0
M  V30 2134 N 187.719 -0.156864 1.56817 0
M  V30 2135 C 188.967 -0.869404 1.82444 0
M  V30 2136 C 189.288 -1.82147 0.69623 0
M  V30 2137 O 188.558 -1.93847 -0.28287 0
M  V30 2138 H 187.138 -0.324043 0.673056 0
M  V30 2139 H 189.8 -0.153224 1.94297 0
M  V30 2140 H 188.896 -1.43761 2.77019 0
M  V30 2141 N 189.197 -1.51736 -0.425897 0
M  V30 2142 C 190.127 -1.76827 -1.52494 0
M  V30 2143 C 191.108 -0.618524 -1.58456 0
M  V30 2144 O 192.293 -0.862416 -1.74 0
M  V30 2145 C 189.423 -1.90374 -2.90474 0
M  V30 2146 C 188.377 -3.0588 -2.99369 0
M  V30 2147 C 187.703 -3.04625 -4.3944 0
M  V30 2148 C 189.003 -4.45644 -2.72394 0
M  V30 2149 H 190.697 -2.68855 -1.31748 0
M  V30 2150 H 188.243 -1.29372 -0.632362 0
M  V30 2151 H 190.196 -2.0651 -3.6733 0
M  V30 2152 H 188.92 -0.95004 -3.12477 0
M  V30 2153 H 187.579 -2.89467 -2.24954 0
M  V30 2154 H 187.227 -2.0701 -4.58428 0
M  V30 2155 H 186.927 -3.82195 -4.46319 0
M  V30 2156 H 188.451 -3.22869 -5.18255 0
M  V30 2157 H 189.865 -4.62348 -3.38979 0
M  V30 2158 H 188.262 -5.25006 -2.9067 0
M  V30 2159 H 189.332 -4.54893 -1.67929 0
M  V30 2160 O 190.714 0.571711 -1.51042 0
M  V30 2161 H 191.405 1.22676 -1.49901 0
M  V30 END ATOM
M  V30 BEGIN BOND
M  V30 END BOND
M  V30 END CTAB
M  END
$$$$
