drugbank_target|P27695 DNA-(apurinic or apyrimidinic site) lyase (DB04967)
 OpenBabel12092120143D

  0  0  0     0  0            999 V3000
M  V30 BEGIN CTAB
M  V30 COUNTS 12810 13741 0 0 0
M  V30 BEGIN ATOM
M  V30 1 H -1.547 9.37743 -1.21644 0
M  V30 2 O -1.44 8.89599 -0.40059 0
M  V30 3 P 0 8.91 0 0
M  V30 4 O 0.22 10.1746 0.733838 0
M  V30 5 O 0.79 8.73346 -1.23964 0
M  V30 6 O 0.25 7.66872 0.971405 0
M  V30 7 C -0.69 7.42405 2.04668 0
M  V30 8 C 0.04 6.86059 3.24661 0
M  V30 9 O 0.25 5.42934 3.03695 0
M  V30 10 C 1.44 7.41287 3.50796 0
M  V30 11 O 1.83 7.27073 4.86816 0
M  V30 12 C 2.32 6.5273 2.63741 0
M  V30 13 C 1.61 5.1842 2.73198 0
M  V30 14 N 1.66 4.38762 1.4784 0
M  V30 15 H -1.178 8.36899 2.3252 0
M  V30 16 H -1.45 6.70391 1.71179 0
M  V30 17 H -0.582 7.03638 4.13219 0
M  V30 18 H 2.073 4.59931 3.54016 0
M  V30 19 H 2.353 6.88995 1.59871 0
M  V30 20 H 3.344 6.4684 3.0373 0
M  V30 21 H 1.51 8.47002 3.20749 0
M  V30 22 P 3.37998 7.20834 5.23717 0
M  V30 23 O 3.59998 7.79853 6.57286 0
M  V30 24 O 4.16998 7.79239 4.12957 0
M  V30 25 O 3.62998 5.63315 5.29344 0
M  V30 26 C 2.68998 4.80255 6.01876 0
M  V30 27 C 3.41998 3.64202 6.65911 0
M  V30 28 O 3.62998 2.60694 5.64732 0
M  V30 29 C 4.81998 3.93473 7.1943 0
M  V30 30 O 5.20998 3.02071 8.21205 0
M  V30 31 C 5.69998 3.73047 5.97036 0
M  V30 32 C 4.98998 2.58828 5.25741 0
M  V30 33 N 5.03998 2.68068 3.77503 0
M  V30 34 H 2.20098 5.40332 6.79951 0
M  V30 35 H 1.93098 4.41613 5.32378 0
M  V30 36 H 2.79798 3.26331 7.47797 0
M  V30 37 P 6.75996 2.75334 8.47391 0
M  V30 38 O 6.97996 2.44571 9.90142 0
M  V30 39 O 7.54996 3.87688 7.92115 0
M  V30 40 O 7.00996 1.4459 7.59357 0
M  V30 41 C 6.06996 0.347608 7.69215 0
M  V30 42 C 6.79996 -0.96767 7.52806 0
M  V30 43 O 7.00996 -1.21036 6.1011 0
M  V30 44 C 8.19996 -1.04544 8.13308 0
M  V30 45 O 8.58996 -2.38311 8.41922 0
M  V30 46 C 9.07996 -0.491279 7.02284 0
M  V30 47 C 8.36996 -0.996264 5.77469 0
M  V30 48 N 8.41996 -0.0501916 4.62973 0
M  V30 49 H 5.58096 0.374722 8.67691 0
M  V30 50 H 5.31096 0.443485 6.90277 0
M  V30 51 H 6.17796 -1.75537 7.96793 0
M  V30 52 P 10.1399 -2.75334 8.47391 0
M  V30 53 O 10.3599 -3.84128 9.44797 0
M  V30 54 O 10.9299 -1.51947 8.68712 0
M  V30 55 O 10.3899 -3.29363 6.99321 0
M  V30 56 C 9.44994 -4.24011 6.4274 0
M  V30 57 C 10.1799 -5.20775 5.52155 0
M  V30 58 O 10.3899 -4.56534 4.22446 0
M  V30 59 C 11.5799 -5.62629 5.96531 0
M  V30 60 O 11.9699 -6.87667 5.41053 0
M  V30 61 C 12.4599 -4.52537 5.39283 0
M  V30 62 C 11.7499 -4.20027 4.08623 0
M  V30 63 N 11.7999 -2.76189 3.71603 0
M  V30 64 C 11.7199 -1.64862 4.52822 0
M  V30 65 N 11.7999 -0.512671 3.88633 0
M  V30 66 C 11.9399 -0.888083 2.54977 0
M  V30 67 C 12.0699 -0.094668 1.38677 0
M  V30 68 N 12.1899 -0.890102 0.232633 0
M  V30 69 C 12.1899 -2.26958 0.21772 0
M  V30 70 N 12.3199 -2.84626 -0.97925 0
M  V30 71 N 12.0599 -3.0178 1.31033 0
M  V30 72 C 11.9399 -2.26781 2.43843 0
M  V30 73 H 8.96094 -4.797 7.24003 0
M  V30 74 H 8.69094 -3.69856 5.84513 0
M  V30 75 H 9.55794 -6.10356 5.41441 0
M  V30 76 P 13.5199 -7.20834 5.23717 0
M  V30 77 O 13.7399 -8.66104 5.38572 0
M  V30 78 O 14.3099 -6.33544 6.1349 0
M  V30 79 O 13.7699 -6.7751 3.72168 0
M  V30 80 C 12.8299 -7.20825 2.7076 0
M  V30 81 C 13.5599 -7.45864 1.40599 0
M  V30 82 O 13.7699 -6.17651 0.734225 0
M  V30 83 C 14.9599 -8.05808 1.51899 0
M  V30 84 O 15.3499 -8.74358 0.335205 0
M  V30 85 C 15.8399 -6.83093 1.70294 0
M  V30 86 C 15.1299 -5.79992 0.836974 0
M  V30 87 N 15.1799 -4.41864 1.38293 0
M  V30 88 C 15.0999 -3.99538 2.69438 0
M  V30 89 N 15.1799 -2.69909 2.84277 0
M  V30 90 C 15.3199 -2.21719 1.5408 0
M  V30 91 C 15.4499 -0.891712 1.06628 0
M  V30 92 O 15.4699 0.161298 1.70137 0
M  V30 93 N 15.5699 -0.856846 -0.334985 0
M  V30 94 C 15.5699 -1.9641 -1.15789 0
M  V30 95 N 15.6999 -1.72708 -2.46522 0
M  V30 96 N 15.4399 -3.21165 -0.713741 0
M  V30 97 C 15.3199 -3.26797 0.639748 0
M  V30 98 H 12.3409 -8.13644 3.0377 0
M  V30 99 H 12.0709 -6.42788 2.55485 0
M  V30 100 H 12.9379 -8.12039 0.792769 0
M  V30 101 H 15.5929 -5.80061 -0.166416 0
M  V30 102 H 15.8719 -6.51287 2.75604 0
M  V30 103 H 16.8639 -7.01734 1.34462 0
M  V30 104 H 15.0299 -8.73674 2.38337 0
M  V30 105 H 14.9809 -4.68207 3.53221 0
M  V30 106 H 15.6629 0.0398818 -0.767965 0
M  V30 107 H 15.6999 -2.50995 -3.13503 0
M  V30 108 H 15.8009 -0.759148 -2.80716 0
M  V30 109 P 16.8999 -8.91 1.09116e-15 0
M  V30 110 O 17.1199 -10.1726 -0.733694 0
M  V30 111 O 17.6899 -8.73148 1.23936 0
M  V30 112 O 17.1499 -7.66872 -0.971405 0
M  V30 113 C 16.2099 -7.42309 -2.04641 0
M  V30 114 C 16.9399 -6.86059 -3.24661 0
M  V30 115 O 17.1499 -5.42847 -3.03646 0
M  V30 116 C 18.3399 -7.41196 -3.50753 0
M  V30 117 O 18.7299 -7.27073 -4.86816 0
M  V30 118 C 19.2199 -6.5273 -2.63741 0
M  V30 119 C 18.5099 -5.1842 -2.73198 0
M  V30 120 N 18.5599 -4.38762 -1.4784 0
M  V30 121 H 15.7209 -8.36803 -2.32493 0
M  V30 122 H 15.4509 -6.70197 -1.71129 0
M  V30 123 H 16.3179 -7.03551 -4.13168 0
M  V30 124 P 20.2799 -7.20834 -5.23717 0
M  V30 125 O 20.4999 -7.79853 -6.57286 0
M  V30 126 O 21.0699 -7.79239 -4.12957 0
M  V30 127 O 20.5299 -5.63315 -5.29344 0
M  V30 128 C 19.5899 -4.80255 -6.01876 0
M  V30 129 C 20.3199 -3.64202 -6.65911 0
M  V30 130 O 20.5299 -2.60694 -5.64732 0
M  V30 131 C 21.7199 -3.93473 -7.1943 0
M  V30 132 O 22.1099 -3.02071 -8.21205 0
M  V30 133 C 22.5999 -3.73047 -5.97036 0
M  V30 134 C 21.8899 -2.58828 -5.25741 0
M  V30 135 N 21.9399 -2.68068 -3.77503 0
M  V30 136 H 19.1009 -5.40332 -6.79951 0
M  V30 137 H 18.8309 -4.41613 -5.32378 0
M  V30 138 H 19.6979 -3.26331 -7.47797 0
M  V30 139 P 23.6599 -2.75334 -8.47391 0
M  V30 140 O 23.8799 -2.44571 -9.90142 0
M  V30 141 O 24.4499 -3.87688 -7.92115 0
M  V30 142 O 23.9099 -1.4459 -7.59357 0
M  V30 143 C 22.9699 -0.347608 -7.69215 0
M  V30 144 C 23.6999 0.96767 -7.52806 0
M  V30 145 O 23.9099 1.21036 -6.1011 0
M  V30 146 C 25.0999 1.04544 -8.13308 0
M  V30 147 O 25.4899 2.38311 -8.41922 0
M  V30 148 C 25.9799 0.491279 -7.02284 0
M  V30 149 C 25.2699 0.996264 -5.77469 0
M  V30 150 N 25.3199 0.0501916 -4.62973 0
M  V30 151 C 25.2399 -1.32786 -4.63244 0
M  V30 152 N 25.3199 -1.86957 -3.44545 0
M  V30 153 C 25.4599 -0.780241 -2.58481 0
M  V30 154 C 25.5899 -0.738536 -1.17757 0
M  V30 155 O 25.6099 -1.66794 -0.372349 0
M  V30 156 N 25.7099 0.58337 -0.711393 0
M  V30 157 C 25.7099 1.70816 -1.51017 0
M  V30 158 N 25.8399 2.87826 -0.880757 0
M  V30 159 N 25.5799 1.67126 -2.8339 0
M  V30 160 C 25.4599 0.401421 -3.30572 0
M  V30 161 H 22.4809 -0.374722 -8.67691 0
M  V30 162 H 22.2109 -0.443485 -6.90277 0
M  V30 163 H 23.0779 1.75537 -7.96793 0
M  V30 164 H 25.7329 1.95076 -5.46529 0
M  V30 165 H 26.0119 -0.608565 -7.04577 0
M  V30 166 H 27.0039 0.889672 -7.08939 0
M  V30 167 H 25.1699 0.43308 -9.04564 0
M  V30 168 H 25.1209 -1.91249 -5.54442 0
M  V30 169 H 25.8029 0.718054 0.275244 0
M  V30 170 H 25.8399 3.75721 -1.41832 0
M  V30 171 H 25.9409 2.90436 0.145468 0
M  V30 172 P 27.0398 2.75334 -8.47391 0
M  V30 173 O 27.2598 3.84204 -9.44982 0
M  V30 174 O 27.8298 1.51982 -8.68909 0
M  V30 175 O 27.2898 3.29363 -6.99321 0
M  V30 176 C 26.3498 4.24066 -6.42823 0
M  V30 177 C 27.0798 5.20775 -5.52155 0
M  V30 178 O 27.2898 4.56607 -4.22514 0
M  V30 179 C 28.4798 5.62697 -5.96604 0
M  V30 180 O 28.8698 6.87667 -5.41053 0
M  V30 181 C 29.3598 4.52537 -5.39283 0
M  V30 182 C 28.6498 4.20027 -4.08623 0
M  V30 183 N 28.6998 2.76189 -3.71603 0
M  V30 184 C 28.6198 1.66944 -4.54297 0
M  V30 185 N 28.6898 0.536169 -3.91344 0
M  V30 186 C 28.8398 0.901569 -2.58849 0
M  V30 187 C 28.9698 0.146599 -1.40236 0
M  V30 188 N 28.9798 -1.18234 -1.37046 0
M  V30 189 N 29.0898 0.822941 -0.249738 0
M  V30 190 C 29.0798 2.15179 -0.280525 0
M  V30 191 N 28.9598 2.96414 -1.30822 0
M  V30 192 C 28.8398 2.25804 -2.44748 0
M  V30 193 H 25.8618 4.79756 -7.24086 0
M  V30 194 H 25.5898 3.69963 -5.84682 0
M  V30 195 H 26.4578 6.10431 -5.41508 0
M  V30 196 H 29.1128 4.78816 -3.28024 0
M  V30 197 H 29.3928 3.64957 -6.05871 0
M  V30 198 H 30.3838 4.88748 -5.21323 0
M  V30 199 H 28.5498 5.66789 -7.0643 0
M  V30 200 H 28.5088 1.74684 -5.62396 0
M  V30 201 H 28.8898 -1.71949 -2.24394 0
M  V30 202 H 29.0788 -1.67511 -0.470742 0
M  V30 203 H 29.1868 2.63704 0.6828 0
M  V30 204 P 30.4198 7.20834 -5.23717 0
M  V30 205 O 30.6398 8.66104 -5.38572 0
M  V30 206 O 31.2098 6.33544 -6.1349 0
M  V30 207 O 30.6698 6.7751 -3.72168 0
M  V30 208 C 29.7298 7.20825 -2.7076 0
M  V30 209 C 30.4598 7.45864 -1.40599 0
M  V30 210 O 30.6698 6.17651 -0.734225 0
M  V30 211 C 31.8598 8.05808 -1.51899 0
M  V30 212 O 32.2498 8.74358 -0.335205 0
M  V30 213 C 32.7398 6.83093 -1.70294 0
M  V30 214 C 32.0298 5.79992 -0.836974 0
M  V30 215 N 32.0798 4.41864 -1.38293 0
M  V30 216 H 29.2408 8.13644 -3.0377 0
M  V30 217 H 28.9708 6.42788 -2.55485 0
M  V30 218 H 29.8378 8.12039 -0.792769 0
M  V30 219 P 33.7998 8.91 -2.18232e-15 0
M  V30 220 O 34.0198 10.1746 0.733838 0
M  V30 221 O 34.5898 8.73346 -1.23964 0
M  V30 222 O 34.0498 7.66872 0.971405 0
M  V30 223 C 33.1098 7.42405 2.04668 0
M  V30 224 C 33.8398 6.86059 3.24661 0
M  V30 225 O 34.0498 5.42934 3.03695 0
M  V30 226 C 35.2398 7.41287 3.50796 0
M  V30 227 O 35.6298 7.27073 4.86816 0
M  V30 228 C 36.1198 6.5273 2.63741 0
M  V30 229 C 35.4098 5.1842 2.73198 0
M  V30 230 N 35.4598 4.38762 1.4784 0
M  V30 231 C 35.3798 4.83651 0.183876 0
M  V30 232 N 35.4498 3.88759 -0.699393 0
M  V30 233 C 35.5998 2.7404 0.0575568 0
M  V30 234 C 35.7298 1.37902 -0.293928 0
M  V30 235 N 35.7398 0.938021 -1.54797 0
M  V30 236 N 35.8498 0.491817 0.70549 0
M  V30 237 C 35.8398 0.931735 1.95979 0
M  V30 238 N 35.7198 2.16017 2.41481 0
M  V30 239 C 35.5998 3.02547 1.39121 0
M  V30 240 H 32.6218 8.36899 2.3252 0
M  V30 241 H 32.3498 6.70391 1.71179 0
M  V30 242 H 33.2178 7.03638 4.13219 0
M  V30 243 H 35.8728 4.59931 3.54016 0
M  V30 244 H 36.1528 6.88995 1.59871 0
M  V30 245 H 37.1438 6.4684 3.0373 0
M  V30 246 H 35.3098 8.47002 3.20749 0
M  V30 247 H 35.2688 5.8885 -0.0765548 0
M  V30 248 H 35.6498 1.60276 -2.32875 0
M  V30 249 H 35.8388 -0.0699355 -1.73859 0
M  V30 250 H 35.9468 0.165507 2.71897 0
M  V30 251 P 37.1798 7.20834 5.23717 0
M  V30 252 O 37.3998 7.79853 6.57286 0
M  V30 253 O 37.9698 7.79239 4.12957 0
M  V30 254 O 37.4298 5.63315 5.29344 0
M  V30 255 C 36.4898 4.80255 6.01876 0
M  V30 256 C 37.2198 3.64202 6.65911 0
M  V30 257 O 37.4298 2.60694 5.64732 0
M  V30 258 C 38.6198 3.93473 7.1943 0
M  V30 259 O 39.0098 3.02071 8.21205 0
M  V30 260 C 39.4998 3.73047 5.97036 0
M  V30 261 C 38.7898 2.58828 5.25741 0
M  V30 262 N 38.8398 2.68068 3.77503 0
M  V30 263 H 36.0008 5.40332 6.79951 0
M  V30 264 H 35.7308 4.41613 5.32378 0
M  V30 265 H 36.5978 3.26331 7.47797 0
M  V30 266 P 40.5598 2.75334 8.47391 0
M  V30 267 O 40.7798 2.44571 9.90142 0
M  V30 268 O 41.3498 3.87688 7.92115 0
M  V30 269 O 40.8098 1.4459 7.59357 0
M  V30 270 C 39.8698 0.347608 7.69215 0
M  V30 271 C 40.5998 -0.96767 7.52806 0
M  V30 272 O 40.8098 -1.21036 6.1011 0
M  V30 273 C 41.9998 -1.04544 8.13308 0
M  V30 274 O 42.3898 -2.38311 8.41922 0
M  V30 275 C 42.8798 -0.491279 7.02284 0
M  V30 276 C 42.1698 -0.996264 5.77469 0
M  V30 277 N 42.2198 -0.0501916 4.62973 0
M  V30 278 H 39.3808 0.374722 8.67691 0
M  V30 279 H 39.1108 0.443485 6.90277 0
M  V30 280 H 39.9778 -1.75537 7.96793 0
M  V30 281 P 43.9397 -2.75334 8.47391 0
M  V30 282 O 44.1597 -3.84128 9.44797 0
M  V30 283 O 44.7297 -1.51947 8.68712 0
M  V30 284 O 44.1897 -3.29363 6.99321 0
M  V30 285 C 43.2497 -4.24011 6.4274 0
M  V30 286 C 43.9797 -5.20775 5.52155 0
M  V30 287 O 44.1897 -4.56534 4.22446 0
M  V30 288 C 45.3797 -5.62629 5.96531 0
M  V30 289 O 45.7697 -6.87667 5.41053 0
M  V30 290 C 46.2597 -4.52537 5.39283 0
M  V30 291 C 45.5497 -4.20027 4.08623 0
M  V30 292 N 45.5997 -2.76189 3.71603 0
M  V30 293 C 45.5197 -1.64862 4.52822 0
M  V30 294 N 45.5997 -0.512671 3.88633 0
M  V30 295 C 45.7397 -0.888083 2.54977 0
M  V30 296 C 45.8697 -0.094668 1.38677 0
M  V30 297 O 45.8897 1.13053 1.28163 0
M  V30 298 N 45.9897 -0.890102 0.232633 0
M  V30 299 C 45.9897 -2.26958 0.21772 0
M  V30 300 N 46.1197 -2.84626 -0.97925 0
M  V30 301 N 45.8597 -3.0178 1.31033 0
M  V30 302 C 45.7397 -2.26781 2.43843 0
M  V30 303 H 42.7607 -4.797 7.24003 0
M  V30 304 H 42.4907 -3.69856 5.84513 0
M  V30 305 H 43.3577 -6.10356 5.41441 0
M  V30 306 H 46.0127 -4.79061 3.27488 0
M  V30 307 H 46.2917 -3.64906 6.05785 0
M  V30 308 H 47.2837 -4.8868 5.2125 0
M  V30 309 H 45.4497 -5.66726 7.06352 0
M  V30 310 H 45.4007 -1.71169 5.60966 0
M  V30 311 H 46.0827 -0.419134 -0.644739 0
M  V30 312 H 46.1197 -3.87332 -1.06098 0
M  V30 313 H 46.2207 -2.26417 -1.82483 0
M  V30 314 P 47.3197 -7.20834 5.23717 0
M  V30 315 O 47.5397 -8.66104 5.38572 0
M  V30 316 O 48.1097 -6.33544 6.1349 0
M  V30 317 O 47.5697 -6.7751 3.72168 0
M  V30 318 C 46.6297 -7.20825 2.7076 0
M  V30 319 C 47.3597 -7.45864 1.40599 0
M  V30 320 O 47.5697 -6.17651 0.734225 0
M  V30 321 C 48.7597 -8.05808 1.51899 0
M  V30 322 O 49.1497 -8.74358 0.335205 0
M  V30 323 C 49.6397 -6.83093 1.70294 0
M  V30 324 C 48.9297 -5.79992 0.836974 0
M  V30 325 N 48.9797 -4.41864 1.38293 0
M  V30 326 H 46.1407 -8.13644 3.0377 0
M  V30 327 H 45.8707 -6.42788 2.55485 0
M  V30 328 H 46.7377 -8.12039 0.792769 0
M  V30 329 P 50.6997 -8.91 3.27348e-15 0
M  V30 330 O 50.9197 -10.1726 -0.733694 0
M  V30 331 O 51.4897 -8.73148 1.23936 0
M  V30 332 O 50.9497 -7.66872 -0.971405 0
M  V30 333 C 50.0097 -7.42309 -2.04641 0
M  V30 334 C 50.7397 -6.86059 -3.24661 0
M  V30 335 O 50.9497 -5.42847 -3.03646 0
M  V30 336 C 52.1397 -7.41196 -3.50753 0
M  V30 337 O 52.5297 -7.27073 -4.86816 0
M  V30 338 C 53.0197 -6.5273 -2.63741 0
M  V30 339 C 52.3097 -5.1842 -2.73198 0
M  V30 340 N 52.3597 -4.38762 -1.4784 0
M  V30 341 H 49.5207 -8.36803 -2.32493 0
M  V30 342 H 49.2507 -6.70197 -1.71129 0
M  V30 343 H 50.1177 -7.03551 -4.13168 0
M  V30 344 P 54.0797 -7.20834 -5.23717 0
M  V30 345 O 54.2997 -7.79853 -6.57286 0
M  V30 346 O 54.8697 -7.79239 -4.12957 0
M  V30 347 O 54.3297 -5.63315 -5.29344 0
M  V30 348 C 53.3897 -4.80255 -6.01876 0
M  V30 349 C 54.1197 -3.64202 -6.65911 0
M  V30 350 O 54.3297 -2.60694 -5.64732 0
M  V30 351 C 55.5197 -3.93473 -7.1943 0
M  V30 352 O 55.9097 -3.02071 -8.21205 0
M  V30 353 C 56.3997 -3.73047 -5.97036 0
M  V30 354 C 55.6897 -2.58828 -5.25741 0
M  V30 355 N 55.7397 -2.68068 -3.77503 0
M  V30 356 H 52.9007 -5.40332 -6.79951 0
M  V30 357 H 52.6307 -4.41613 -5.32378 0
M  V30 358 H 53.4977 -3.26331 -7.47797 0
M  V30 359 P 57.4597 -2.75334 -8.47391 0
M  V30 360 O 57.6797 -2.44571 -9.90142 0
M  V30 361 O 58.2497 -3.87688 -7.92115 0
M  V30 362 O 57.7097 -1.4459 -7.59357 0
M  V30 363 C 56.7697 -0.347608 -7.69215 0
M  V30 364 C 57.4997 0.96767 -7.52806 0
M  V30 365 O 57.7097 1.21036 -6.1011 0
M  V30 366 C 58.8997 1.04544 -8.13308 0
M  V30 367 O 59.2897 2.38311 -8.41922 0
M  V30 368 C 59.7797 0.491279 -7.02284 0
M  V30 369 C 59.0697 0.996264 -5.77469 0
M  V30 370 N 59.1197 0.0501916 -4.62973 0
M  V30 371 C 59.0397 -1.32786 -4.63244 0
M  V30 372 N 59.1197 -1.86957 -3.44545 0
M  V30 373 C 59.2597 -0.780241 -2.58481 0
M  V30 374 C 59.3897 -0.738536 -1.17757 0
M  V30 375 N 59.5097 0.58337 -0.711393 0
M  V30 376 C 59.5097 1.70816 -1.51017 0
M  V30 377 N 59.6397 2.87826 -0.880757 0
M  V30 378 N 59.3797 1.67126 -2.8339 0
M  V30 379 C 59.2597 0.401421 -3.30572 0
M  V30 380 H 56.2807 -0.374722 -8.67691 0
M  V30 381 H 56.0107 -0.443485 -6.90277 0
M  V30 382 H 56.8777 1.75537 -7.96793 0
M  V30 383 P 60.8396 2.75334 -8.47391 0
M  V30 384 O 61.0596 3.84166 -9.4489 0
M  V30 385 O 61.6296 1.51964 -8.6881 0
M  V30 386 O 61.0896 3.29363 -6.99321 0
M  V30 387 C 60.1496 4.23956 -6.42656 0
M  V30 388 C 60.8796 5.20775 -5.52155 0
M  V30 389 O 61.0896 4.56534 -4.22446 0
M  V30 390 C 62.2796 5.62629 -5.96531 0
M  V30 391 O 62.6696 6.87667 -5.41053 0
M  V30 392 C 63.1596 4.52537 -5.39283 0
M  V30 393 C 62.4496 4.20027 -4.08623 0
M  V30 394 N 62.4996 2.7613 -3.71522 0
M  V30 395 C 62.6496 2.45612 -2.37989 0
M  V30 396 O 62.7396 3.30919 -1.51621 0
M  V30 397 N 62.6896 1.10684 -2.08435 0
M  V30 398 C 62.5996 0.0690084 -2.9792 0
M  V30 399 O 62.6496 -1.10553 -2.59426 0
M  V30 400 C 62.4496 0.481522 -4.35345 0
M  V30 401 C 62.3396 -0.618778 -5.36443 0
M  V30 402 C 62.3996 1.78906 -4.67968 0
M  V30 403 H 59.6596 4.797 -7.24003 0
M  V30 404 H 59.3906 3.69802 -5.84429 0
M  V30 405 H 60.2576 6.10356 -5.41441 0
M  V30 406 H 62.9126 4.78651 -3.27911 0
M  V30 407 H 63.1916 3.64957 -6.05871 0
M  V30 408 H 64.1836 4.8868 -5.2125 0
M  V30 409 H 62.3496 5.66726 -7.06352 0
M  V30 410 H 62.2786 2.07737 -5.72367 0
M  V30 411 H 63.3086 -0.754375 -5.86871 0
M  V30 412 H 61.5716 -0.359721 -6.10641 0
M  V30 413 H 62.0596 -1.55533 -4.8581 0
M  V30 414 H 62.7956 0.862651 -1.12037 0
M  V30 415 P 64.2196 7.20834 -5.23717 0
M  V30 416 O 64.4396 8.66104 -5.38572 0
M  V30 417 O 65.0096 6.33544 -6.1349 0
M  V30 418 O 64.4696 6.7751 -3.72168 0
M  V30 419 C 63.5296 7.20825 -2.7076 0
M  V30 420 C 64.2596 7.45864 -1.40599 0
M  V30 421 O 64.4696 6.17651 -0.734225 0
M  V30 422 C 65.6596 8.05808 -1.51899 0
M  V30 423 O 66.0496 8.74358 -0.335205 0
M  V30 424 C 66.5396 6.83093 -1.70294 0
M  V30 425 C 65.8296 5.79992 -0.836974 0
M  V30 426 N 65.8796 4.41864 -1.38293 0
M  V30 427 H 63.0406 8.13644 -3.0377 0
M  V30 428 H 62.7706 6.42788 -2.55485 0
M  V30 429 H 63.6376 8.12039 -0.792769 0
M  V30 430 P 67.5996 8.91 -4.36464e-15 0
M  V30 431 O 67.8196 10.1726 0.733694 0
M  V30 432 O 68.3896 8.73148 -1.23936 0
M  V30 433 O 67.8496 7.66872 0.971405 0
M  V30 434 C 66.9096 7.42309 2.04641 0
M  V30 435 C 67.6396 6.86059 3.24661 0
M  V30 436 O 67.8496 5.42847 3.03646 0
M  V30 437 C 69.0396 7.41196 3.50753 0
M  V30 438 O 69.4296 7.27073 4.86816 0
M  V30 439 C 69.9196 6.5273 2.63741 0
M  V30 440 C 69.2096 5.1842 2.73198 0
M  V30 441 N 69.2596 4.38762 1.4784 0
M  V30 442 H 66.4206 8.36803 2.32493 0
M  V30 443 H 66.1506 6.70197 1.71129 0
M  V30 444 H 67.0176 7.03551 4.13168 0
M  V30 445 P 70.9796 7.20834 5.23717 0
M  V30 446 O 71.1996 7.79853 6.57286 0
M  V30 447 O 71.7696 7.79239 4.12957 0
M  V30 448 O 71.2296 5.63315 5.29344 0
M  V30 449 C 70.2896 4.80255 6.01876 0
M  V30 450 C 71.0196 3.64202 6.65911 0
M  V30 451 O 71.2296 2.60694 5.64732 0
M  V30 452 C 72.4196 3.93473 7.1943 0
M  V30 453 O 72.8096 3.02071 8.21205 0
M  V30 454 C 73.2996 3.73047 5.97036 0
M  V30 455 C 72.5896 2.58828 5.25741 0
M  V30 456 N 72.6396 2.68068 3.77503 0
M  V30 457 H 69.8006 5.40332 6.79951 0
M  V30 458 H 69.5306 4.41613 5.32378 0
M  V30 459 H 70.3976 3.26331 7.47797 0
M  V30 460 P 74.3596 2.75334 8.47391 0
M  V30 461 O 74.5796 2.44619 9.90336 0
M  V30 462 O 75.1496 3.87776 7.92294 0
M  V30 463 O 74.6096 1.4459 7.59357 0
M  V30 464 C 73.6696 0.347653 7.69315 0
M  V30 465 C 74.3996 -0.96767 7.52806 0
M  V30 466 O 74.6096 -1.21055 6.10208 0
M  V30 467 C 75.7996 -1.04557 8.13408 0
M  V30 468 O 76.1896 -2.38311 8.41922 0
M  V30 469 C 76.6796 -0.491279 7.02284 0
M  V30 470 C 75.9696 -0.996264 5.77469 0
M  V30 471 N 76.0196 -0.0501916 4.62973 0
M  V30 472 C 75.9396 1.31969 4.65661 0
M  V30 473 N 76.0096 1.86649 3.48119 0
M  V30 474 C 76.1596 0.792089 2.62406 0
M  V30 475 C 76.2896 0.705684 1.2207 0
M  V30 476 N 76.2996 1.76207 0.413762 0
M  V30 477 N 76.4096 -0.518981 0.685754 0
M  V30 478 C 76.3996 -1.57595 1.49174 0
M  V30 479 N 76.2796 -1.62909 2.80066 0
M  V30 480 C 76.1596 -0.388195 3.3073 0
M  V30 481 H 73.1816 0.374765 8.67791 0
M  V30 482 H 72.9096 0.443613 6.90476 0
M  V30 483 H 73.7776 -1.75559 7.96891 0
M  V30 484 H 76.4326 -1.94563 5.46818 0
M  V30 485 H 76.7126 0.608651 7.04676 0
M  V30 486 H 77.7036 -0.889796 7.09039 0
M  V30 487 H 75.8696 -0.433128 9.04664 0
M  V30 488 H 75.8286 1.89246 5.57664 0
M  V30 489 H 76.2096 2.71005 0.804694 0
M  V30 490 H 76.3986 1.63189 -0.603768 0
M  V30 491 H 76.5066 -2.53475 0.997614 0
M  V30 492 P 77.7395 -2.75334 8.47391 0
M  V30 493 O 77.9595 -3.84128 9.44797 0
M  V30 494 O 78.5295 -1.51947 8.68712 0
M  V30 495 O 77.9895 -3.29363 6.99321 0
M  V30 496 C 77.0495 -4.24011 6.4274 0
M  V30 497 C 77.7795 -5.20775 5.52155 0
M  V30 498 O 77.9895 -4.56534 4.22446 0
M  V30 499 C 79.1795 -5.62629 5.96531 0
M  V30 500 O 79.5695 -6.87667 5.41053 0
M  V30 501 C 80.0595 -4.52537 5.39283 0
M  V30 502 C 79.3495 -4.20027 4.08623 0
M  V30 503 N 79.3995 -2.76189 3.71603 0
M  V30 504 H 76.5605 -4.797 7.24003 0
M  V30 505 H 76.2905 -3.69856 5.84513 0
M  V30 506 H 77.1575 -6.10356 5.41441 0
M  V30 507 P 81.1195 -7.20834 5.23717 0
M  V30 508 O 81.3395 -8.66104 5.38572 0
M  V30 509 O 81.9095 -6.33544 6.1349 0
M  V30 510 O 81.3695 -6.7751 3.72168 0
M  V30 511 C 80.4295 -7.20825 2.7076 0
M  V30 512 C 81.1595 -7.45864 1.40599 0
M  V30 513 O 81.3695 -6.17651 0.734225 0
M  V30 514 C 82.5595 -8.05808 1.51899 0
M  V30 515 O 82.9495 -8.74358 0.335205 0
M  V30 516 C 83.4395 -6.83093 1.70294 0
M  V30 517 C 82.7295 -5.79992 0.836974 0
M  V30 518 N 82.7795 -4.41864 1.38293 0
M  V30 519 H 79.9405 -8.13644 3.0377 0
M  V30 520 H 79.6705 -6.42788 2.55485 0
M  V30 521 H 80.5375 -8.12039 0.792769 0
M  V30 522 P 84.4995 -8.91 5.4558e-15 0
M  V30 523 O 84.7195 -10.1726 -0.733694 0
M  V30 524 O 85.2895 -8.73148 1.23936 0
M  V30 525 O 84.7495 -7.66872 -0.971405 0
M  V30 526 C 83.8095 -7.42309 -2.04641 0
M  V30 527 C 84.5395 -6.86059 -3.24661 0
M  V30 528 O 84.7495 -5.42847 -3.03646 0
M  V30 529 C 85.9395 -7.41196 -3.50753 0
M  V30 530 O 86.3295 -7.27073 -4.86816 0
M  V30 531 C 86.8195 -6.5273 -2.63741 0
M  V30 532 C 86.1095 -5.1842 -2.73198 0
M  V30 533 N 86.1595 -4.38762 -1.4784 0
M  V30 534 H 83.3205 -8.36803 -2.32493 0
M  V30 535 H 83.0505 -6.70197 -1.71129 0
M  V30 536 H 83.9175 -7.03551 -4.13168 0
M  V30 537 P 87.8795 -7.20834 -5.23717 0
M  V30 538 O 88.0995 -7.79853 -6.57286 0
M  V30 539 O 88.6695 -7.79239 -4.12957 0
M  V30 540 O 88.1295 -5.63315 -5.29344 0
M  V30 541 C 87.1895 -4.80255 -6.01876 0
M  V30 542 C 87.9195 -3.64202 -6.65911 0
M  V30 543 O 88.1295 -2.60694 -5.64732 0
M  V30 544 C 89.3195 -3.93473 -7.1943 0
M  V30 545 O 89.7095 -3.02071 -8.21205 0
M  V30 546 C 90.1995 -3.73047 -5.97036 0
M  V30 547 C 89.4895 -2.58828 -5.25741 0
M  V30 548 N 89.5395 -2.68068 -3.77503 0
M  V30 549 H 86.7005 -5.40332 -6.79951 0
M  V30 550 H 86.4305 -4.41613 -5.32378 0
M  V30 551 H 87.2975 -3.26331 -7.47797 0
M  V30 552 P 91.2595 -2.75334 -8.47391 0
M  V30 553 O 91.4795 -2.44595 -9.90239 0
M  V30 554 O 92.0495 -3.87732 -7.92204 0
M  V30 555 O 91.5095 -1.4459 -7.59357 0
M  V30 556 C 90.5695 -0.347563 -7.69115 0
M  V30 557 C 91.2995 0.96767 -7.52806 0
M  V30 558 O 91.5095 1.21036 -6.1011 0
M  V30 559 C 92.6995 1.04544 -8.13308 0
M  V30 560 O 93.0895 2.38311 -8.41922 0
M  V30 561 C 93.5795 0.491279 -7.02284 0
M  V30 562 C 92.8695 0.996264 -5.77469 0
M  V30 563 N 92.9195 0.0501808 -4.62873 0
M  V30 564 C 93.0695 0.588177 -3.36904 0
M  V30 565 O 93.1595 1.78598 -3.17173 0
M  V30 566 N 93.1095 -0.329694 -2.33686 0
M  V30 567 C 93.0195 -1.6953 -2.45079 0
M  V30 568 O 93.0695 -2.41926 -1.44899 0
M  V30 569 C 92.8695 -2.16933 -3.80505 0
M  V30 570 C 92.7595 -3.65373 -3.97621 0
M  V30 571 C 92.8195 -1.30326 -4.83752 0
M  V30 572 H 90.0795 -0.374722 -8.67691 0
M  V30 573 H 89.8105 -0.443421 -6.90177 0
M  V30 574 H 90.6775 1.75537 -7.96793 0
M  V30 575 H 93.3325 1.94496 -5.46629 0
M  V30 576 H 93.6115 -0.608651 -7.04676 0
M  V30 577 H 94.6035 0.889672 -7.08939 0
M  V30 578 H 92.7695 0.43308 -9.04564 0
M  V30 579 H 92.6985 -1.68366 -5.8516 0
M  V30 580 H 93.7285 -4.05985 -4.30448 0
M  V30 581 H 91.9915 -3.88028 -4.72875 0
M  V30 582 H 92.4795 -4.11381 -3.01609 0
M  V30 583 H 93.2155 0.0393617 -1.41345 0
M  V30 584 P 94.6394 2.75334 -8.47391 0
M  V30 585 O 94.8594 3.84204 -9.44982 0
M  V30 586 O 95.4294 1.51982 -8.68909 0
M  V30 587 O 94.8894 3.29363 -6.99321 0
M  V30 588 C 93.9494 4.24066 -6.42823 0
M  V30 589 C 94.6794 5.20775 -5.52155 0
M  V30 590 O 94.8894 4.56607 -4.22514 0
M  V30 591 C 96.0794 5.62697 -5.96604 0
M  V30 592 O 96.4694 6.87667 -5.41053 0
M  V30 593 C 96.9594 4.52537 -5.39283 0
M  V30 594 C 96.2494 4.20027 -4.08623 0
M  V30 595 N 96.2994 2.76189 -3.71603 0
M  V30 596 C 96.2194 1.66944 -4.54297 0
M  V30 597 N 96.2894 0.536169 -3.91344 0
M  V30 598 C 96.4394 0.901569 -2.58849 0
M  V30 599 C 96.5694 0.146599 -1.40236 0
M  V30 600 N 96.5794 -1.18234 -1.37046 0
M  V30 601 N 96.6894 0.822941 -0.249738 0
M  V30 602 C 96.6794 2.15179 -0.280525 0
M  V30 603 N 96.5594 2.96414 -1.30822 0
M  V30 604 C 96.4394 2.25804 -2.44748 0
M  V30 605 H 93.4614 4.79756 -7.24086 0
M  V30 606 H 93.1894 3.69963 -5.84682 0
M  V30 607 H 94.0574 6.10431 -5.41508 0
M  V30 608 H 96.7124 4.78816 -3.28024 0
M  V30 609 H 96.9924 3.64957 -6.05871 0
M  V30 610 H 97.9834 4.88748 -5.21323 0
M  V30 611 H 96.1494 5.66789 -7.0643 0
M  V30 612 H 96.1084 1.74684 -5.62396 0
M  V30 613 H 96.4894 -1.71949 -2.24394 0
M  V30 614 H 96.6784 -1.67511 -0.470742 0
M  V30 615 H 96.7864 2.63704 0.6828 0
M  V30 616 P 98.0194 7.20834 -5.23717 0
M  V30 617 O 98.2394 8.66274 -5.38678 0
M  V30 618 O 98.8094 6.33687 -6.13629 0
M  V30 619 O 98.2694 6.7751 -3.72168 0
M  V30 620 C 97.3294 7.20919 -2.70795 0
M  V30 621 C 98.0594 7.45864 -1.40599 0
M  V30 622 O 98.2694 6.17751 -0.734343 0
M  V30 623 C 99.4594 8.05906 -1.51917 0
M  V30 624 O 99.8494 8.74358 -0.335205 0
M  V30 625 C 100.339 6.83093 -1.70294 0
M  V30 626 C 99.6294 5.79992 -0.836974 0
M  V30 627 N 99.6794 4.41864 -1.38293 0
M  V30 628 C 99.5994 4.02089 -2.69407 0
M  V30 629 N 99.6694 2.73403 -2.85089 0
M  V30 630 C 99.8194 2.25086 -1.5642 0
M  V30 631 C 99.9494 0.942887 -1.04836 0
M  V30 632 N 99.9594 -0.150999 -1.80369 0
M  V30 633 N 100.069 0.812565 0.28167 0
M  V30 634 C 100.059 1.90572 1.03784 0
M  V30 635 N 99.9394 3.167 0.683905 0
M  V30 636 C 99.8194 3.26538 -0.652815 0
M  V30 637 H 96.8414 8.13738 -3.03804 0
M  V30 638 H 96.5694 6.42974 -2.55559 0
M  V30 639 H 97.4374 8.12139 -0.792866 0
M  V30 640 H 100.092 5.80178 0.160643 0
M  V30 641 H 100.372 6.51379 -2.75643 0
M  V30 642 H 101.363 7.01832 -1.3448 0
M  V30 643 H 99.5294 8.73771 -2.38364 0
M  V30 644 H 99.4884 4.7189 -3.52311 0
M  V30 645 H 99.8694 -0.0721434 -2.82608 0
M  V30 646 H 100.058 -1.0785 -1.36544 0
M  V30 647 H 100.166 1.73207 2.10241 0
M  V30 648 P 101.399 8.91 -6.54696e-15 0
M  V30 649 O 101.619 10.1726 0.733694 0
M  V30 650 O 102.189 8.73148 -1.23936 0
M  V30 651 O 101.649 7.66872 0.971405 0
M  V30 652 C 100.709 7.42309 2.04641 0
M  V30 653 C 101.439 6.86059 3.24661 0
M  V30 654 O 101.649 5.42847 3.03646 0
M  V30 655 C 102.839 7.41196 3.50753 0
M  V30 656 O 103.229 7.27073 4.86816 0
M  V30 657 C 103.719 6.5273 2.63741 0
M  V30 658 C 103.009 5.1842 2.73198 0
M  V30 659 N 103.059 4.38762 1.4784 0
M  V30 660 H 100.22 8.36803 2.32493 0
M  V30 661 H 99.9504 6.70197 1.71129 0
M  V30 662 H 100.817 7.03551 4.13168 0
M  V30 663 P 104.779 7.20834 5.23717 0
M  V30 664 O 104.999 7.79853 6.57286 0
M  V30 665 O 105.569 7.79239 4.12957 0
M  V30 666 O 105.029 5.63315 5.29344 0
M  V30 667 C 104.089 4.80255 6.01876 0
M  V30 668 C 104.819 3.64202 6.65911 0
M  V30 669 O 105.029 2.60694 5.64732 0
M  V30 670 C 106.219 3.93473 7.1943 0
M  V30 671 O 106.609 3.02071 8.21205 0
M  V30 672 C 107.099 3.73047 5.97036 0
M  V30 673 C 106.389 2.58828 5.25741 0
M  V30 674 N 106.439 2.68068 3.77503 0
M  V30 675 H 103.6 5.40332 6.79951 0
M  V30 676 H 103.33 4.41613 5.32378 0
M  V30 677 H 104.197 3.26331 7.47797 0
M  V30 678 P 108.159 2.75334 8.47391 0
M  V30 679 O 108.379 2.44571 9.90142 0
M  V30 680 O 108.949 3.87688 7.92115 0
M  V30 681 O 108.409 1.4459 7.59357 0
M  V30 682 C 107.469 0.347608 7.69215 0
M  V30 683 C 108.199 -0.96767 7.52806 0
M  V30 684 O 108.409 -1.21036 6.1011 0
M  V30 685 C 109.599 -1.04544 8.13308 0
M  V30 686 O 109.989 -2.38311 8.41922 0
M  V30 687 C 110.479 -0.491279 7.02284 0
M  V30 688 C 109.769 -0.996264 5.77469 0
M  V30 689 N 109.819 -0.0501916 4.62973 0
M  V30 690 H 106.98 0.374722 8.67691 0
M  V30 691 H 106.71 0.443485 6.90277 0
M  V30 692 H 107.577 -1.75537 7.96793 0
M  V30 693 P 111.539 -2.75334 8.47391 0
M  V30 694 O 111.759 -3.84128 9.44797 0
M  V30 695 O 112.329 -1.51947 8.68712 0
M  V30 696 O 111.789 -3.29363 6.99321 0
M  V30 697 C 110.849 -4.24011 6.4274 0
M  V30 698 C 111.579 -5.20775 5.52155 0
M  V30 699 O 111.789 -4.56534 4.22446 0
M  V30 700 C 112.979 -5.62629 5.96531 0
M  V30 701 O 113.369 -6.87667 5.41053 0
M  V30 702 C 113.859 -4.52537 5.39283 0
M  V30 703 C 113.149 -4.20027 4.08623 0
M  V30 704 N 113.199 -2.76189 3.71603 0
M  V30 705 H 110.36 -4.797 7.24003 0
M  V30 706 H 110.09 -3.69856 5.84513 0
M  V30 707 H 110.957 -6.10356 5.41441 0
M  V30 708 P 114.919 -7.20834 5.23717 0
M  V30 709 O 115.139 -8.66104 5.38572 0
M  V30 710 O 115.709 -6.33544 6.1349 0
M  V30 711 O 115.169 -6.7751 3.72168 0
M  V30 712 C 114.229 -7.20825 2.7076 0
M  V30 713 C 114.959 -7.45864 1.40599 0
M  V30 714 O 115.169 -6.17651 0.734225 0
M  V30 715 C 116.359 -8.05808 1.51899 0
M  V30 716 O 116.749 -8.74358 0.335205 0
M  V30 717 C 117.239 -6.83093 1.70294 0
M  V30 718 C 116.529 -5.79992 0.836974 0
M  V30 719 N 116.579 -4.41864 1.38293 0
M  V30 720 H 113.74 -8.13644 3.0377 0
M  V30 721 H 113.47 -6.42788 2.55485 0
M  V30 722 H 114.337 -8.12039 0.792769 0
M  V30 723 P 118.299 -8.91 7.63812e-15 0
M  V30 724 O 118.519 -10.1726 -0.733694 0
M  V30 725 O 119.089 -8.73148 1.23936 0
M  V30 726 O 118.549 -7.66872 -0.971405 0
M  V30 727 C 117.609 -7.42309 -2.04641 0
M  V30 728 C 118.339 -6.86059 -3.24661 0
M  V30 729 O 118.549 -5.42847 -3.03646 0
M  V30 730 C 119.739 -7.41196 -3.50753 0
M  V30 731 O 120.129 -7.27073 -4.86816 0
M  V30 732 C 120.619 -6.5273 -2.63741 0
M  V30 733 C 119.909 -5.1842 -2.73198 0
M  V30 734 N 119.959 -4.38762 -1.4784 0
M  V30 735 H 117.12 -8.36803 -2.32493 0
M  V30 736 H 116.85 -6.70197 -1.71129 0
M  V30 737 H 117.717 -7.03551 -4.13168 0
M  V30 738 P 121.679 -7.20834 -5.23717 0
M  V30 739 O 121.899 -7.80006 -6.57415 0
M  V30 740 O 122.469 -7.79416 -4.13051 0
M  V30 741 O 121.929 -5.63315 -5.29344 0
M  V30 742 C 120.989 -4.80318 -6.01954 0
M  V30 743 C 121.719 -3.64202 -6.65911 0
M  V30 744 O 121.929 -2.60736 -5.64823 0
M  V30 745 C 123.119 -3.93521 -7.19518 0
M  V30 746 O 123.509 -3.02071 -8.21205 0
M  V30 747 C 123.999 -3.73047 -5.97036 0
M  V30 748 C 123.289 -2.58828 -5.25741 0
M  V30 749 N 123.339 -2.68068 -3.77503 0
M  V30 750 C 123.259 -3.80474 -2.99159 0
M  V30 751 N 123.329 -3.55622 -1.71925 0
M  V30 752 C 123.479 -2.1832 -1.65733 0
M  V30 753 C 123.609 -1.28842 -0.572777 0
M  V30 754 N 123.619 -1.66875 0.70098 0
M  V30 755 N 123.729 0.016788 -0.859836 0
M  V30 756 C 123.719 0.398145 -2.13316 0
M  V30 757 N 123.599 -0.328224 -3.22333 0
M  V30 758 C 123.479 -1.62992 -2.90383 0
M  V30 759 H 120.501 -5.40394 -6.8003 0
M  V30 760 H 120.229 -4.41741 -5.32532 0
M  V30 761 H 121.097 -3.26371 -7.47889 0
M  V30 762 H 123.752 -1.64007 -5.56746 0
M  V30 763 H 124.032 -4.63439 -5.3432 0
M  V30 764 H 125.023 -3.44776 -6.25925 0
M  V30 765 H 123.189 -4.96707 -7.57347 0
M  V30 766 H 123.148 -4.8089 -3.39924 0
M  V30 767 H 123.529 -2.66547 0.941919 0
M  V30 768 H 123.718 -0.965341 1.44766 0
M  V30 769 H 123.826 1.46427 -2.29697 0
M  V30 770 P 125.059 -2.75334 -8.47391 0
M  V30 771 O 125.279 -2.44619 -9.90336 0
M  V30 772 O 125.849 -3.87776 -7.92294 0
M  V30 773 O 125.309 -1.4459 -7.59357 0
M  V30 774 C 124.369 -0.347653 -7.69315 0
M  V30 775 C 125.099 0.96767 -7.52806 0
M  V30 776 O 125.309 1.21055 -6.10208 0
M  V30 777 C 126.499 1.04557 -8.13408 0
M  V30 778 O 126.889 2.38311 -8.41922 0
M  V30 779 C 127.379 0.491279 -7.02284 0
M  V30 780 C 126.669 0.996264 -5.77469 0
M  V30 781 N 126.719 0.0501916 -4.62973 0
M  V30 782 C 126.639 -1.31969 -4.65661 0
M  V30 783 N 126.709 -1.86649 -3.48119 0
M  V30 784 C 126.859 -0.792089 -2.62406 0
M  V30 785 C 126.989 -0.705684 -1.2207 0
M  V30 786 N 126.999 -1.76207 -0.413762 0
M  V30 787 N 127.109 0.518981 -0.685754 0
M  V30 788 C 127.099 1.57595 -1.49174 0
M  V30 789 N 126.979 1.62909 -2.80066 0
M  V30 790 C 126.859 0.388195 -3.3073 0
M  V30 791 H 123.881 -0.374765 -8.67791 0
M  V30 792 H 123.609 -0.443613 -6.90476 0
M  V30 793 H 124.477 1.75559 -7.96891 0
M  V30 794 H 127.132 1.94563 -5.46818 0
M  V30 795 H 127.412 -0.608651 -7.04676 0
M  V30 796 H 128.403 0.889796 -7.09039 0
M  V30 797 H 126.569 0.433128 -9.04664 0
M  V30 798 H 126.528 -1.89246 -5.57664 0
M  V30 799 H 126.909 -2.71005 -0.804694 0
M  V30 800 H 127.098 -1.63189 0.603768 0
M  V30 801 H 127.206 2.53475 -0.997614 0
M  V30 802 P 128.439 2.75334 -8.47391 0
M  V30 803 O 128.659 3.84128 -9.44797 0
M  V30 804 O 129.229 1.51947 -8.68712 0
M  V30 805 O 128.689 3.29363 -6.99321 0
M  V30 806 C 127.749 4.24011 -6.4274 0
M  V30 807 C 128.479 5.20775 -5.52155 0
M  V30 808 O 128.689 4.56534 -4.22446 0
M  V30 809 C 129.879 5.62629 -5.96531 0
M  V30 810 O 130.269 6.87667 -5.41053 0
M  V30 811 C 130.759 4.52537 -5.39283 0
M  V30 812 C 130.049 4.20027 -4.08623 0
M  V30 813 N 130.099 2.76189 -3.71603 0
M  V30 814 C 130.019 1.64862 -4.52822 0
M  V30 815 N 130.099 0.512671 -3.88633 0
M  V30 816 C 130.239 0.888083 -2.54977 0
M  V30 817 C 130.369 0.094668 -1.38677 0
M  V30 818 O 130.389 -1.13053 -1.28163 0
M  V30 819 N 130.489 0.890102 -0.232633 0
M  V30 820 C 130.489 2.26958 -0.21772 0
M  V30 821 N 130.619 2.84626 0.97925 0
M  V30 822 N 130.359 3.0178 -1.31033 0
M  V30 823 C 130.239 2.26781 -2.43843 0
M  V30 824 H 127.26 4.797 -7.24003 0
M  V30 825 H 126.99 3.69856 -5.84513 0
M  V30 826 H 127.857 6.10356 -5.41441 0
M  V30 827 H 130.512 4.79061 -3.27488 0
M  V30 828 H 130.791 3.64906 -6.05785 0
M  V30 829 H 131.783 4.8868 -5.2125 0
M  V30 830 H 129.949 5.66726 -7.06352 0
M  V30 831 H 129.9 1.71169 -5.60966 0
M  V30 832 H 130.582 0.419134 0.644739 0
M  V30 833 H 130.619 3.87332 1.06098 0
M  V30 834 H 130.72 2.26417 1.82483 0
M  V30 835 P 131.819 7.20834 -5.23717 0
M  V30 836 O 132.039 8.66104 -5.38572 0
M  V30 837 O 132.609 6.33544 -6.1349 0
M  V30 838 O 132.069 6.7751 -3.72168 0
M  V30 839 C 131.129 7.20825 -2.7076 0
M  V30 840 C 131.859 7.45864 -1.40599 0
M  V30 841 O 132.069 6.17651 -0.734225 0
M  V30 842 C 133.259 8.05808 -1.51899 0
M  V30 843 O 133.649 8.74358 -0.335205 0
M  V30 844 C 134.139 6.83093 -1.70294 0
M  V30 845 C 133.429 5.79992 -0.836974 0
M  V30 846 N 133.479 4.41864 -1.38293 0
M  V30 847 H 130.64 8.13644 -3.0377 0
M  V30 848 H 130.37 6.42788 -2.55485 0
M  V30 849 H 131.237 8.12039 -0.792769 0
M  V30 850 P 135.199 8.91 -8.72928e-15 0
M  V30 851 O 135.419 10.1726 0.733694 0
M  V30 852 O 135.989 8.73148 -1.23936 0
M  V30 853 O 135.449 7.66872 0.971405 0
M  V30 854 C 134.509 7.42309 2.04641 0
M  V30 855 C 135.239 6.86059 3.24661 0
M  V30 856 O 135.449 5.42847 3.03646 0
M  V30 857 C 136.639 7.41196 3.50753 0
M  V30 858 O 137.029 7.27073 4.86816 0
M  V30 859 C 137.519 6.5273 2.63741 0
M  V30 860 C 136.809 5.1842 2.73198 0
M  V30 861 N 136.859 4.38762 1.4784 0
M  V30 862 C 136.779 4.81605 0.168631 0
M  V30 863 N 136.859 3.85454 -0.713363 0
M  V30 864 C 136.999 2.6994 0.0566958 0
M  V30 865 C 137.129 1.34815 -0.338502 0
M  V30 866 O 137.149 0.869548 -1.47125 0
M  V30 867 N 137.249 0.496304 0.77465 0
M  V30 868 C 137.249 0.908403 2.09122 0
M  V30 869 N 137.379 -0.0517805 3.00955 0
M  V30 870 N 137.119 2.17875 2.46519 0
M  V30 871 C 136.999 3.01988 1.4033 0
M  V30 872 H 134.02 8.36803 2.32493 0
M  V30 873 H 133.75 6.70197 1.71129 0
M  V30 874 H 134.617 7.03551 4.13168 0
M  V30 875 H 137.272 4.59498 3.54415 0
M  V30 876 H 137.551 6.88898 1.59848 0
M  V30 877 H 138.543 6.46749 3.03687 0
M  V30 878 H 136.709 8.46908 3.20714 0
M  V30 879 H 136.66 5.86405 -0.105564 0
M  V30 880 H 137.342 -0.483664 0.597855 0
M  V30 881 H 137.379 0.187865 4.0116 0
M  V30 882 H 137.48 -1.03585 2.71726 0
M  V30 883 P 138.579 7.20834 5.23717 0
M  V30 884 O 138.799 7.79853 6.57286 0
M  V30 885 O 139.369 7.79239 4.12957 0
M  V30 886 O 138.829 5.63315 5.29344 0
M  V30 887 C 137.889 4.80255 6.01876 0
M  V30 888 C 138.619 3.64202 6.65911 0
M  V30 889 O 138.829 2.60694 5.64732 0
M  V30 890 C 140.019 3.93473 7.1943 0
M  V30 891 O 140.409 3.02071 8.21205 0
M  V30 892 C 140.899 3.73047 5.97036 0
M  V30 893 C 140.189 2.58828 5.25741 0
M  V30 894 N 140.239 2.68068 3.77503 0
M  V30 895 H 137.4 5.40332 6.79951 0
M  V30 896 H 137.13 4.41613 5.32378 0
M  V30 897 H 137.997 3.26331 7.47797 0
M  V30 898 P 141.959 2.75334 8.47391 0
M  V30 899 O 142.179 2.44619 9.90336 0
M  V30 900 O 142.749 3.87776 7.92294 0
M  V30 901 O 142.209 1.4459 7.59357 0
M  V30 902 C 141.269 0.347653 7.69315 0
M  V30 903 C 141.999 -0.96767 7.52806 0
M  V30 904 O 142.209 -1.21055 6.10208 0
M  V30 905 C 143.399 -1.04557 8.13408 0
M  V30 906 O 143.789 -2.38311 8.41922 0
M  V30 907 C 144.279 -0.491279 7.02284 0
M  V30 908 C 143.569 -0.996264 5.77469 0
M  V30 909 N 143.619 -0.0501916 4.62973 0
M  V30 910 C 143.539 1.31969 4.65661 0
M  V30 911 N 143.609 1.86649 3.48119 0
M  V30 912 C 143.759 0.792089 2.62406 0
M  V30 913 C 143.889 0.705684 1.2207 0
M  V30 914 N 143.899 1.76207 0.413762 0
M  V30 915 N 144.009 -0.518981 0.685754 0
M  V30 916 C 143.999 -1.57595 1.49174 0
M  V30 917 N 143.879 -1.62909 2.80066 0
M  V30 918 C 143.759 -0.388195 3.3073 0
M  V30 919 H 140.781 0.374765 8.67791 0
M  V30 920 H 140.509 0.443613 6.90476 0
M  V30 921 H 141.377 -1.75559 7.96891 0
M  V30 922 H 144.032 -1.94563 5.46818 0
M  V30 923 H 144.312 0.608651 7.04676 0
M  V30 924 H 145.303 -0.889796 7.09039 0
M  V30 925 H 143.469 -0.433128 9.04664 0
M  V30 926 H 143.428 1.89246 5.57664 0
M  V30 927 H 143.809 2.71005 0.804694 0
M  V30 928 H 143.998 1.63189 -0.603768 0
M  V30 929 H 144.106 -2.53475 0.997614 0
M  V30 930 P 145.339 -2.75334 8.47391 0
M  V30 931 O 145.559 -3.84128 9.44797 0
M  V30 932 O 146.129 -1.51947 8.68712 0
M  V30 933 O 145.589 -3.29363 6.99321 0
M  V30 934 C 144.649 -4.24011 6.4274 0
M  V30 935 C 145.379 -5.20775 5.52155 0
M  V30 936 O 145.589 -4.56534 4.22446 0
M  V30 937 C 146.779 -5.62629 5.96531 0
M  V30 938 O 147.169 -6.87667 5.41053 0
M  V30 939 C 147.659 -4.52537 5.39283 0
M  V30 940 C 146.949 -4.20027 4.08623 0
M  V30 941 N 146.999 -2.76189 3.71603 0
M  V30 942 H 144.16 -4.797 7.24003 0
M  V30 943 H 143.89 -3.69856 5.84513 0
M  V30 944 H 144.757 -6.10356 5.41441 0
M  V30 945 P 148.719 -7.20834 5.23717 0
M  V30 946 O 148.939 -8.66189 5.38625 0
M  V30 947 O 149.509 -6.33615 6.1356 0
M  V30 948 O 148.969 -6.7751 3.72168 0
M  V30 949 C 148.029 -7.20732 2.70725 0
M  V30 950 C 148.759 -7.45864 1.40599 0
M  V30 951 O 148.969 -6.17651 0.734225 0
M  V30 952 C 150.159 -8.05808 1.51899 0
M  V30 953 O 150.549 -8.74358 0.335205 0
M  V30 954 C 151.039 -6.83093 1.70294 0
M  V30 955 C 150.329 -5.79992 0.836974 0
M  V30 956 N 150.379 -4.41769 1.38263 0
M  V30 957 C 150.529 -3.38591 0.481702 0
M  V30 958 O 150.619 -3.56839 -0.718452 0
M  V30 959 N 150.569 -2.1206 1.03569 0
M  V30 960 C 150.479 -1.80696 2.36966 0
M  V30 961 C 150.329 -2.94845 3.23898 0
M  V30 962 C 150.279 -4.19803 2.73435 0
M  V30 963 H 147.539 -8.13644 3.0377 0
M  V30 964 H 147.27 -6.42695 2.55448 0
M  V30 965 H 148.137 -8.12039 0.792769 0
M  V30 966 H 150.792 -5.79978 -0.160587 0
M  V30 967 H 151.071 -6.51379 2.75643 0
M  V30 968 H 152.063 -7.01734 1.34462 0
M  V30 969 H 150.229 -8.73674 2.38337 0
M  V30 970 H 150.158 -5.04492 3.4095 0
M  V30 971 P 152.099 -8.91 9.82044e-15 0
M  V30 972 O 152.319 -10.1726 -0.733694 0
M  V30 973 O 152.889 -8.73148 1.23936 0
M  V30 974 O 152.349 -7.66872 -0.971405 0
M  V30 975 C 151.409 -7.42309 -2.04641 0
M  V30 976 C 152.139 -6.86059 -3.24661 0
M  V30 977 O 152.349 -5.42847 -3.03646 0
M  V30 978 C 153.539 -7.41196 -3.50753 0
M  V30 979 O 153.929 -7.27073 -4.86816 0
M  V30 980 C 154.419 -6.5273 -2.63741 0
M  V30 981 C 153.709 -5.1842 -2.73198 0
M  V30 982 N 153.759 -4.38762 -1.4784 0
M  V30 983 H 150.92 -8.36803 -2.32493 0
M  V30 984 H 150.65 -6.70197 -1.71129 0
M  V30 985 H 151.517 -7.03551 -4.13168 0
M  V30 986 P 155.479 -7.20834 -5.23717 0
M  V30 987 O 155.699 -7.79853 -6.57286 0
M  V30 988 O 156.269 -7.79239 -4.12957 0
M  V30 989 O 155.729 -5.63315 -5.29344 0
M  V30 990 C 154.789 -4.80255 -6.01876 0
M  V30 991 C 155.519 -3.64202 -6.65911 0
M  V30 992 O 155.729 -2.60694 -5.64732 0
M  V30 993 C 156.919 -3.93473 -7.1943 0
M  V30 994 O 157.309 -3.02071 -8.21205 0
M  V30 995 C 157.799 -3.73047 -5.97036 0
M  V30 996 C 157.089 -2.58828 -5.25741 0
M  V30 997 N 157.139 -2.68068 -3.77503 0
M  V30 998 H 154.3 -5.40332 -6.79951 0
M  V30 999 H 154.03 -4.41613 -5.32378 0
M  V30 1000 H 154.897 -3.26331 -7.47797 0
M  V30 1001 P 158.859 -2.75334 -8.47391 0
M  V30 1002 O 159.079 -2.44571 -9.90142 0
M  V30 1003 O 159.649 -3.87688 -7.92115 0
M  V30 1004 O 159.109 -1.4459 -7.59357 0
M  V30 1005 C 158.169 -0.347608 -7.69215 0
M  V30 1006 C 158.899 0.96767 -7.52806 0
M  V30 1007 O 159.109 1.21036 -6.1011 0
M  V30 1008 C 160.299 1.04544 -8.13308 0
M  V30 1009 O 160.689 2.38311 -8.41922 0
M  V30 1010 C 161.179 0.491279 -7.02284 0
M  V30 1011 C 160.469 0.996264 -5.77469 0
M  V30 1012 N 160.519 0.0501916 -4.62973 0
M  V30 1013 H 157.68 -0.374722 -8.67691 0
M  V30 1014 H 157.41 -0.443485 -6.90277 0
M  V30 1015 H 158.277 1.75537 -7.96793 0
M  V30 1016 P 162.239 2.75334 -8.47391 0
M  V30 1017 O 162.459 3.84128 -9.44797 0
M  V30 1018 O 163.029 1.51947 -8.68712 0
M  V30 1019 O 162.489 3.29363 -6.99321 0
M  V30 1020 C 161.549 4.24011 -6.4274 0
M  V30 1021 C 162.279 5.20775 -5.52155 0
M  V30 1022 O 162.489 4.56534 -4.22446 0
M  V30 1023 C 163.679 5.62629 -5.96531 0
M  V30 1024 O 164.069 6.87667 -5.41053 0
M  V30 1025 C 164.559 4.52537 -5.39283 0
M  V30 1026 C 163.849 4.20027 -4.08623 0
M  V30 1027 N 163.899 2.76189 -3.71603 0
M  V30 1028 H 161.06 4.797 -7.24003 0
M  V30 1029 H 160.79 3.69856 -5.84513 0
M  V30 1030 H 161.657 6.10356 -5.41441 0
M  V30 1031 P 165.619 7.20834 -5.23717 0
M  V30 1032 O 165.839 8.66104 -5.38572 0
M  V30 1033 O 166.409 6.33544 -6.1349 0
M  V30 1034 O 165.869 6.7751 -3.72168 0
M  V30 1035 C 164.929 7.20825 -2.7076 0
M  V30 1036 C 165.659 7.45864 -1.40599 0
M  V30 1037 O 165.869 6.17651 -0.734225 0
M  V30 1038 C 167.059 8.05808 -1.51899 0
M  V30 1039 O 167.449 8.74358 -0.335205 0
M  V30 1040 C 167.939 6.83093 -1.70294 0
M  V30 1041 C 167.229 5.79992 -0.836974 0
M  V30 1042 N 167.279 4.41864 -1.38293 0
M  V30 1043 H 164.44 8.13644 -3.0377 0
M  V30 1044 H 164.17 6.42788 -2.55485 0
M  V30 1045 H 165.037 8.12039 -0.792769 0
M  V30 1046 P 168.999 8.91 -1.09116e-14 0
M  V30 1047 O 169.219 10.1726 0.733694 0
M  V30 1048 O 169.789 8.73148 -1.23936 0
M  V30 1049 O 169.249 7.66872 0.971405 0
M  V30 1050 C 168.309 7.42309 2.04641 0
M  V30 1051 C 169.039 6.86059 3.24661 0
M  V30 1052 O 169.249 5.42847 3.03646 0
M  V30 1053 C 170.439 7.41196 3.50753 0
M  V30 1054 O 170.829 7.27073 4.86816 0
M  V30 1055 C 171.319 6.5273 2.63741 0
M  V30 1056 C 170.609 5.1842 2.73198 0
M  V30 1057 N 170.659 4.38762 1.4784 0
M  V30 1058 H 167.82 8.36803 2.32493 0
M  V30 1059 H 167.55 6.70197 1.71129 0
M  V30 1060 H 168.417 7.03551 4.13168 0
M  V30 1061 P 172.379 7.20834 5.23717 0
M  V30 1062 O 172.599 7.79853 6.57286 0
M  V30 1063 O 173.169 7.79239 4.12957 0
M  V30 1064 O 172.629 5.63315 5.29344 0
M  V30 1065 C 171.689 4.80255 6.01876 0
M  V30 1066 C 172.419 3.64202 6.65911 0
M  V30 1067 O 172.629 2.60694 5.64732 0
M  V30 1068 C 173.819 3.93473 7.1943 0
M  V30 1069 O 174.209 3.02071 8.21205 0
M  V30 1070 C 174.699 3.73047 5.97036 0
M  V30 1071 C 173.989 2.58828 5.25741 0
M  V30 1072 N 174.039 2.68068 3.77503 0
M  V30 1073 H 171.2 5.40332 6.79951 0
M  V30 1074 H 170.93 4.41613 5.32378 0
M  V30 1075 H 171.797 3.26331 7.47797 0
M  V30 1076 P 175.759 2.75334 8.47391 0
M  V30 1077 O 175.979 2.44595 9.90239 0
M  V30 1078 O 176.549 3.87732 7.92204 0
M  V30 1079 O 176.009 1.4459 7.59357 0
M  V30 1080 C 175.069 0.347563 7.69115 0
M  V30 1081 C 175.799 -0.96767 7.52806 0
M  V30 1082 O 176.009 -1.21036 6.1011 0
M  V30 1083 C 177.199 -1.04544 8.13308 0
M  V30 1084 O 177.589 -2.38311 8.41922 0
M  V30 1085 C 178.079 -0.491279 7.02284 0
M  V30 1086 C 177.369 -0.996264 5.77469 0
M  V30 1087 N 177.419 -0.0501808 4.62873 0
M  V30 1088 C 177.569 -0.588177 3.36904 0
M  V30 1089 O 177.659 -1.78598 3.17173 0
M  V30 1090 N 177.609 0.329694 2.33686 0
M  V30 1091 C 177.519 1.6953 2.45079 0
M  V30 1092 O 177.569 2.41926 1.44899 0
M  V30 1093 C 177.369 2.16933 3.80505 0
M  V30 1094 C 177.259 3.65373 3.97621 0
M  V30 1095 C 177.319 1.30326 4.83752 0
M  V30 1096 H 174.579 0.374722 8.67691 0
M  V30 1097 H 174.31 0.443421 6.90177 0
M  V30 1098 H 175.177 -1.75537 7.96793 0
M  V30 1099 H 177.832 -1.94496 5.46629 0
M  V30 1100 H 178.111 0.608651 7.04676 0
M  V30 1101 H 179.103 -0.889672 7.08939 0
M  V30 1102 H 177.269 -0.43308 9.04564 0
M  V30 1103 H 177.198 1.68366 5.8516 0
M  V30 1104 H 178.228 4.05985 4.30448 0
M  V30 1105 H 176.491 3.88028 4.72875 0
M  V30 1106 H 176.979 4.11381 3.01609 0
M  V30 1107 H 177.715 -0.0393617 1.41345 0
M  V30 1108 P 179.139 -2.75334 8.47391 0
M  V30 1109 O 179.359 -3.84128 9.44797 0
M  V30 1110 O 179.929 -1.51947 8.68712 0
M  V30 1111 O 179.389 -3.29363 6.99321 0
M  V30 1112 C 178.449 -4.24011 6.4274 0
M  V30 1113 C 179.179 -5.20775 5.52155 0
M  V30 1114 O 179.389 -4.56534 4.22446 0
M  V30 1115 C 180.579 -5.62629 5.96531 0
M  V30 1116 O 180.969 -6.87667 5.41053 0
M  V30 1117 C 181.459 -4.52537 5.39283 0
M  V30 1118 C 180.749 -4.20027 4.08623 0
M  V30 1119 N 180.799 -2.76189 3.71603 0
M  V30 1120 H 177.96 -4.797 7.24003 0
M  V30 1121 H 177.69 -3.69856 5.84513 0
M  V30 1122 H 178.557 -6.10356 5.41441 0
M  V30 1123 P 182.519 -7.20834 5.23717 0
M  V30 1124 O 182.739 -8.66104 5.38572 0
M  V30 1125 O 183.309 -6.33544 6.1349 0
M  V30 1126 O 182.769 -6.7751 3.72168 0
M  V30 1127 C 181.829 -7.20825 2.7076 0
M  V30 1128 C 182.559 -7.45864 1.40599 0
M  V30 1129 O 182.769 -6.17651 0.734225 0
M  V30 1130 C 183.959 -8.05808 1.51899 0
M  V30 1131 O 184.349 -8.74358 0.335205 0
M  V30 1132 C 184.839 -6.83093 1.70294 0
M  V30 1133 C 184.129 -5.79992 0.836974 0
M  V30 1134 N 184.179 -4.41864 1.38293 0
M  V30 1135 H 181.34 -8.13644 3.0377 0
M  V30 1136 H 181.07 -6.42788 2.55485 0
M  V30 1137 H 181.937 -8.12039 0.792769 0
M  V30 1138 P 185.899 -8.91 -8.29613e-14 0
M  V30 1139 O 186.119 -10.1726 -0.733694 0
M  V30 1140 O 186.689 -8.73148 1.23936 0
M  V30 1141 O 186.149 -7.66872 -0.971405 0
M  V30 1142 C 185.209 -7.42309 -2.04641 0
M  V30 1143 C 185.939 -6.86059 -3.24661 0
M  V30 1144 O 186.149 -5.42847 -3.03646 0
M  V30 1145 C 187.339 -7.41196 -3.50753 0
M  V30 1146 O 187.729 -7.27073 -4.86816 0
M  V30 1147 C 188.219 -6.5273 -2.63741 0
M  V30 1148 C 187.509 -5.1842 -2.73198 0
M  V30 1149 N 187.559 -4.38762 -1.4784 0
M  V30 1150 H 184.72 -8.36803 -2.32493 0
M  V30 1151 H 184.45 -6.70197 -1.71129 0
M  V30 1152 H 185.317 -7.03551 -4.13168 0
M  V30 1153 P 189.279 -7.20834 -5.23717 0
M  V30 1154 O 189.499 -7.79853 -6.57286 0
M  V30 1155 O 190.069 -7.79239 -4.12957 0
M  V30 1156 O 189.529 -5.63315 -5.29344 0
M  V30 1157 C 188.589 -4.80255 -6.01876 0
M  V30 1158 C 189.319 -3.64202 -6.65911 0
M  V30 1159 O 189.529 -2.60694 -5.64732 0
M  V30 1160 C 190.719 -3.93473 -7.1943 0
M  V30 1161 O 191.109 -3.02071 -8.21205 0
M  V30 1162 C 191.599 -3.73047 -5.97036 0
M  V30 1163 C 190.889 -2.58828 -5.25741 0
M  V30 1164 N 190.939 -2.68068 -3.77503 0
M  V30 1165 C 190.859 -3.79715 -2.96723 0
M  V30 1166 N 190.939 -3.5377 -1.68852 0
M  V30 1167 C 191.079 -2.15054 -1.63254 0
M  V30 1168 C 191.209 -1.28964 -0.518571 0
M  V30 1169 O 191.229 -1.56826 0.679156 0
M  V30 1170 N 191.329 0.0538097 -0.918425 0
M  V30 1171 C 191.329 0.494275 -2.22578 0
M  V30 1172 N 191.459 1.81086 -2.40434 0
M  V30 1173 N 191.199 -0.313645 -3.27502 0
M  V30 1174 C 191.079 -1.61829 -2.91033 0
M  V30 1175 H 188.1 -5.40332 -6.79951 0
M  V30 1176 H 187.83 -4.41613 -5.32378 0
M  V30 1177 H 188.697 -3.26331 -7.47797 0
M  V30 1178 H 191.352 -1.63422 -5.56814 0
M  V30 1179 H 191.631 -4.63374 -5.34244 0
M  V30 1180 H 192.623 -3.44728 -6.25838 0
M  V30 1181 H 190.789 -4.96652 -7.57263 0
M  V30 1182 H 190.74 -4.80617 -3.3614 0
M  V30 1183 H 191.422 0.742702 -0.199384 0
M  V30 1184 H 191.459 2.20598 -3.35588 0
M  V30 1185 H 191.56 2.43518 -1.58945 0
M  V30 1186 P 192.659 -2.75334 -8.47391 0
M  V30 1187 O 192.879 -2.44571 -9.90142 0
M  V30 1188 O 193.449 -3.87688 -7.92115 0
M  V30 1189 O 192.909 -1.4459 -7.59357 0
M  V30 1190 C 191.969 -0.347608 -7.69215 0
M  V30 1191 C 192.699 0.96767 -7.52806 0
M  V30 1192 O 192.909 1.21036 -6.1011 0
M  V30 1193 C 194.099 1.04544 -8.13308 0
M  V30 1194 O 194.489 2.38311 -8.41922 0
M  V30 1195 C 194.979 0.491279 -7.02284 0
M  V30 1196 C 194.269 0.996264 -5.77469 0
M  V30 1197 N 194.319 0.0501916 -4.62973 0
M  V30 1198 H 191.48 -0.374722 -8.67691 0
M  V30 1199 H 191.21 -0.443485 -6.90277 0
M  V30 1200 H 192.077 1.75537 -7.96793 0
M  V30 1201 P 196.039 2.75334 -8.47391 0
M  V30 1202 O 196.259 3.84128 -9.44797 0
M  V30 1203 O 196.829 1.51947 -8.68712 0
M  V30 1204 O 196.289 3.29363 -6.99321 0
M  V30 1205 C 195.349 4.24011 -6.4274 0
M  V30 1206 C 196.079 5.20775 -5.52155 0
M  V30 1207 O 196.289 4.56534 -4.22446 0
M  V30 1208 C 197.479 5.62629 -5.96531 0
M  V30 1209 O 197.869 6.87667 -5.41053 0
M  V30 1210 C 198.359 4.52537 -5.39283 0
M  V30 1211 C 197.649 4.20027 -4.08623 0
M  V30 1212 N 197.699 2.76189 -3.71603 0
M  V30 1213 H 194.86 4.797 -7.24003 0
M  V30 1214 H 194.59 3.69856 -5.84513 0
M  V30 1215 H 195.457 6.10356 -5.41441 0
M  V30 1216 P 199.419 7.20834 -5.23717 0
M  V30 1217 O 199.639 8.66274 -5.38678 0
M  V30 1218 O 200.209 6.33687 -6.13629 0
M  V30 1219 O 199.669 6.7751 -3.72168 0
M  V30 1220 C 198.729 7.20919 -2.70795 0
M  V30 1221 C 199.459 7.45864 -1.40599 0
M  V30 1222 O 199.669 6.17751 -0.734343 0
M  V30 1223 C 200.859 8.05906 -1.51917 0
M  V30 1224 O 201.249 8.74358 -0.335205 0
M  V30 1225 C 201.739 6.83093 -1.70294 0
M  V30 1226 C 201.029 5.79992 -0.836974 0
M  V30 1227 N 201.079 4.41864 -1.38293 0
M  V30 1228 C 200.999 4.02089 -2.69407 0
M  V30 1229 N 201.069 2.73403 -2.85089 0
M  V30 1230 C 201.219 2.25086 -1.5642 0
M  V30 1231 C 201.349 0.942887 -1.04836 0
M  V30 1232 N 201.359 -0.150999 -1.80369 0
M  V30 1233 N 201.469 0.812565 0.28167 0
M  V30 1234 C 201.459 1.90572 1.03784 0
M  V30 1235 N 201.339 3.167 0.683905 0
M  V30 1236 C 201.219 3.26538 -0.652815 0
M  V30 1237 H 198.241 8.13738 -3.03804 0
M  V30 1238 H 197.969 6.42974 -2.55559 0
M  V30 1239 H 198.837 8.12139 -0.792866 0
M  V30 1240 H 201.492 5.80178 0.160643 0
M  V30 1241 H 201.772 6.51379 -2.75643 0
M  V30 1242 H 202.763 7.01832 -1.3448 0
M  V30 1243 H 200.929 8.73771 -2.38364 0
M  V30 1244 H 200.888 4.7189 -3.52311 0
M  V30 1245 H 201.269 -0.0721434 -2.82608 0
M  V30 1246 H 201.458 -1.0785 -1.36544 0
M  V30 1247 H 201.566 1.73207 2.10241 0
M  V30 1248 P 202.799 8.91 2.40144e-13 0
M  V30 1249 O 203.019 10.1736 0.733766 0
M  V30 1250 O 203.589 8.73247 -1.2395 0
M  V30 1251 O 203.049 7.66872 0.971405 0
M  V30 1252 C 202.109 7.42212 2.04614 0
M  V30 1253 C 202.839 6.86059 3.24661 0
M  V30 1254 O 203.049 5.42847 3.03646 0
M  V30 1255 C 204.239 7.41196 3.50753 0
M  V30 1256 O 204.629 7.27073 4.86816 0
M  V30 1257 C 205.119 6.5273 2.63741 0
M  V30 1258 C 204.409 5.1842 2.73198 0
M  V30 1259 N 204.459 4.38668 1.47808 0
M  V30 1260 C 204.609 3.02239 1.60048 0
M  V30 1261 O 204.699 2.46459 2.67869 0
M  V30 1262 N 204.649 2.32436 0.408571 0
M  V30 1263 C 204.559 2.85471 -0.854993 0
M  V30 1264 O 204.609 2.12566 -1.8531 0
M  V30 1265 C 204.409 4.28918 -0.887335 0
M  V30 1266 C 204.299 4.91066 -2.24619 0
M  V30 1267 C 204.359 5.00349 0.255399 0
M  V30 1268 H 201.619 8.36803 2.32493 0
M  V30 1269 H 201.35 6.701 1.71105 0
M  V30 1270 H 202.217 7.03551 4.13168 0
M  V30 1271 H 204.872 4.59773 3.53894 0
M  V30 1272 H 205.151 6.88995 1.59871 0
M  V30 1273 H 206.143 6.46749 3.03687 0
M  V30 1274 H 204.309 8.46908 3.20714 0
M  V30 1275 H 204.238 6.08548 0.206986 0
M  V30 1276 H 205.268 5.34836 -2.53099 0
M  V30 1277 H 203.531 5.69638 -2.2291 0
M  V30 1278 H 204.019 4.13971 -2.98044 0
M  V30 1279 H 204.755 1.33211 0.474216 0
M  V30 1280 P 206.179 7.20834 5.23717 0
M  V30 1281 O 206.399 7.79853 6.57286 0
M  V30 1282 O 206.969 7.79239 4.12957 0
M  V30 1283 O 206.429 5.63315 5.29344 0
M  V30 1284 C 205.489 4.80255 6.01876 0
M  V30 1285 C 206.219 3.64202 6.65911 0
M  V30 1286 O 206.429 2.60694 5.64732 0
M  V30 1287 C 207.619 3.93473 7.1943 0
M  V30 1288 O 208.009 3.02071 8.21205 0
M  V30 1289 C 208.499 3.73047 5.97036 0
M  V30 1290 C 207.789 2.58828 5.25741 0
M  V30 1291 N 207.839 2.68068 3.77503 0
M  V30 1292 H 205 5.40332 6.79951 0
M  V30 1293 H 204.73 4.41613 5.32378 0
M  V30 1294 H 205.597 3.26331 7.47797 0
M  V30 1295 P 209.559 2.75334 8.47391 0
M  V30 1296 O 209.779 2.44571 9.90142 0
M  V30 1297 O 210.349 3.87688 7.92115 0
M  V30 1298 O 209.809 1.4459 7.59357 0
M  V30 1299 C 208.869 0.347608 7.69215 0
M  V30 1300 C 209.599 -0.96767 7.52806 0
M  V30 1301 O 209.809 -1.21036 6.1011 0
M  V30 1302 C 210.999 -1.04544 8.13308 0
M  V30 1303 O 211.389 -2.38311 8.41922 0
M  V30 1304 C 211.879 -0.491279 7.02284 0
M  V30 1305 C 211.169 -0.996264 5.77469 0
M  V30 1306 N 211.219 -0.0501916 4.62973 0
M  V30 1307 H 208.38 0.374722 8.67691 0
M  V30 1308 H 208.11 0.443485 6.90277 0
M  V30 1309 H 208.977 -1.75537 7.96793 0
M  V30 1310 P 212.939 -2.75334 8.47391 0
M  V30 1311 O 213.159 -3.84128 9.44797 0
M  V30 1312 O 213.729 -1.51947 8.68712 0
M  V30 1313 O 213.189 -3.29363 6.99321 0
M  V30 1314 C 212.249 -4.24011 6.4274 0
M  V30 1315 C 212.979 -5.20775 5.52155 0
M  V30 1316 O 213.189 -4.56534 4.22446 0
M  V30 1317 C 214.379 -5.62629 5.96531 0
M  V30 1318 O 214.769 -6.87667 5.41053 0
M  V30 1319 C 215.259 -4.52537 5.39283 0
M  V30 1320 C 214.549 -4.20027 4.08623 0
M  V30 1321 N 214.599 -2.76189 3.71603 0
M  V30 1322 H 211.76 -4.797 7.24003 0
M  V30 1323 H 211.49 -3.69856 5.84513 0
M  V30 1324 H 212.357 -6.10356 5.41441 0
M  V30 1325 P 216.319 -7.20834 5.23717 0
M  V30 1326 O 216.539 -8.66189 5.38625 0
M  V30 1327 O 217.109 -6.33615 6.1356 0
M  V30 1328 O 216.569 -6.7751 3.72168 0
M  V30 1329 C 215.629 -7.20825 2.7076 0
M  V30 1330 C 216.359 -7.45864 1.40599 0
M  V30 1331 O 216.569 -6.17651 0.734225 0
M  V30 1332 C 217.759 -8.05808 1.51899 0
M  V30 1333 O 218.149 -8.74358 0.335205 0
M  V30 1334 C 218.639 -6.83093 1.70294 0
M  V30 1335 C 217.929 -5.79992 0.836974 0
M  V30 1336 N 217.979 -4.41769 1.38263 0
M  V30 1337 C 218.129 -3.36514 0.485617 0
M  V30 1338 O 218.219 -3.61814 -0.724703 0
M  V30 1339 N 218.179 -2.00746 1.14492 0
M  V30 1340 C 218.079 -1.85887 2.27776 0
M  V30 1341 N 218.129 -0.600907 2.69379 0
M  V30 1342 C 217.929 -2.92182 3.22265 0
M  V30 1343 C 217.879 -4.18399 2.71925 0
M  V30 1344 H 215.139 -8.1355 3.03735 0
M  V30 1345 H 214.87 -6.42695 2.55448 0
M  V30 1346 H 215.737 -8.12139 0.792866 0
M  V30 1347 H 218.392 -5.80078 -0.160615 0
M  V30 1348 H 218.671 -6.51379 2.75643 0
M  V30 1349 H 219.663 -7.01734 1.34462 0
M  V30 1350 H 217.829 -8.73674 2.38337 0
M  V30 1351 H 217.757 -5.02669 3.39718 0
M  V30 1352 H 217.859 -2.73001 4.29239 0
M  V30 1353 H 218.247 0.162318 2.01146 0
M  V30 1354 H 218.05 -0.387742 3.69773 0
M  V30 1355 P 219.699 -8.91 -3.97326e-13 0
M  V30 1356 O 219.919 -10.1726 -0.733694 0
M  V30 1357 O 220.489 -8.73148 1.23936 0
M  V30 1358 O 219.949 -7.66872 -0.971405 0
M  V30 1359 C 219.009 -7.42309 -2.04641 0
M  V30 1360 C 219.739 -6.86059 -3.24661 0
M  V30 1361 O 219.949 -5.42847 -3.03646 0
M  V30 1362 C 221.139 -7.41196 -3.50753 0
M  V30 1363 O 221.529 -7.27073 -4.86816 0
M  V30 1364 C 222.019 -6.5273 -2.63741 0
M  V30 1365 C 221.309 -5.1842 -2.73198 0
M  V30 1366 N 221.359 -4.38762 -1.4784 0
M  V30 1367 H 218.52 -8.36803 -2.32493 0
M  V30 1368 H 218.25 -6.70197 -1.71129 0
M  V30 1369 H 219.117 -7.03551 -4.13168 0
M  V30 1370 P 223.079 -7.20834 -5.23717 0
M  V30 1371 O 223.299 -7.80006 -6.57415 0
M  V30 1372 O 223.869 -7.79416 -4.13051 0
M  V30 1373 O 223.329 -5.63315 -5.29344 0
M  V30 1374 C 222.389 -4.80318 -6.01954 0
M  V30 1375 C 223.119 -3.64202 -6.65911 0
M  V30 1376 O 223.329 -2.60736 -5.64823 0
M  V30 1377 C 224.519 -3.93521 -7.19518 0
M  V30 1378 O 224.909 -3.02071 -8.21205 0
M  V30 1379 C 225.399 -3.73047 -5.97036 0
M  V30 1380 C 224.689 -2.58828 -5.25741 0
M  V30 1381 N 224.739 -2.68068 -3.77503 0
M  V30 1382 H 221.901 -5.40394 -6.8003 0
M  V30 1383 H 221.629 -4.41741 -5.32532 0
M  V30 1384 H 222.497 -3.26371 -7.47889 0
M  V30 1385 H 225.152 -1.64007 -5.56746 0
M  V30 1386 H 225.432 -4.63439 -5.3432 0
M  V30 1387 H 226.423 -3.44776 -6.25925 0
M  V30 1388 H 224.589 -4.96707 -7.57347 0
M  V30 1389 P 226.459 -2.75334 -8.47391 0
M  V30 1390 O 226.679 -2.44571 -9.90142 0
M  V30 1391 O 227.249 -3.87688 -7.92115 0
M  V30 1392 O 226.709 -1.4459 -7.59357 0
M  V30 1393 C 225.769 -0.347608 -7.69215 0
M  V30 1394 C 226.499 0.96767 -7.52806 0
M  V30 1395 O 226.709 1.21036 -6.1011 0
M  V30 1396 C 227.899 1.04544 -8.13308 0
M  V30 1397 O 228.289 2.38311 -8.41922 0
M  V30 1398 C 228.779 0.491279 -7.02284 0
M  V30 1399 C 228.069 0.996264 -5.77469 0
M  V30 1400 N 228.119 0.0501916 -4.62973 0
M  V30 1401 H 225.28 -0.374722 -8.67691 0
M  V30 1402 H 225.01 -0.443485 -6.90277 0
M  V30 1403 H 225.877 1.75537 -7.96793 0
M  V30 1404 P 229.839 2.75334 -8.47391 0
M  V30 1405 O 230.059 3.84128 -9.44797 0
M  V30 1406 O 230.629 1.51947 -8.68712 0
M  V30 1407 O 230.089 3.29363 -6.99321 0
M  V30 1408 C 229.149 4.24011 -6.4274 0
M  V30 1409 C 229.879 5.20775 -5.52155 0
M  V30 1410 O 230.089 4.56534 -4.22446 0
M  V30 1411 C 231.279 5.62629 -5.96531 0
M  V30 1412 O 231.669 6.87667 -5.41053 0
M  V30 1413 C 232.159 4.52537 -5.39283 0
M  V30 1414 C 231.449 4.20027 -4.08623 0
M  V30 1415 N 231.499 2.76189 -3.71603 0
M  V30 1416 H 228.66 4.797 -7.24003 0
M  V30 1417 H 228.39 3.69856 -5.84513 0
M  V30 1418 H 229.257 6.10356 -5.41441 0
M  V30 1419 P 233.219 7.20834 -5.23717 0
M  V30 1420 O 233.439 8.66104 -5.38572 0
M  V30 1421 O 234.009 6.33544 -6.1349 0
M  V30 1422 O 233.469 6.7751 -3.72168 0
M  V30 1423 C 232.529 7.20825 -2.7076 0
M  V30 1424 C 233.259 7.45864 -1.40599 0
M  V30 1425 O 233.469 6.17651 -0.734225 0
M  V30 1426 C 234.659 8.05808 -1.51899 0
M  V30 1427 O 235.049 8.74358 -0.335205 0
M  V30 1428 C 235.539 6.83093 -1.70294 0
M  V30 1429 C 234.829 5.79992 -0.836974 0
M  V30 1430 N 234.879 4.41864 -1.38293 0
M  V30 1431 H 232.04 8.13644 -3.0377 0
M  V30 1432 H 231.77 6.42788 -2.55485 0
M  V30 1433 H 232.637 8.12039 -0.792769 0
M  V30 1434 P 236.599 8.91 5.54508e-13 0
M  V30 1435 O 236.819 10.1726 0.733694 0
M  V30 1436 O 237.389 8.73148 -1.23936 0
M  V30 1437 O 236.849 7.66872 0.971405 0
M  V30 1438 C 235.909 7.42309 2.04641 0
M  V30 1439 C 236.639 6.86059 3.24661 0
M  V30 1440 O 236.849 5.42847 3.03646 0
M  V30 1441 C 238.039 7.41196 3.50753 0
M  V30 1442 O 238.429 7.27073 4.86816 0
M  V30 1443 C 238.919 6.5273 2.63741 0
M  V30 1444 C 238.209 5.1842 2.73198 0
M  V30 1445 N 238.259 4.38762 1.4784 0
M  V30 1446 C 238.179 4.81605 0.168631 0
M  V30 1447 N 238.259 3.85454 -0.713363 0
M  V30 1448 C 238.399 2.6994 0.0566958 0
M  V30 1449 C 238.529 1.34815 -0.338502 0
M  V30 1450 O 238.549 0.869548 -1.47125 0
M  V30 1451 N 238.649 0.496304 0.77465 0
M  V30 1452 C 238.649 0.908403 2.09122 0
M  V30 1453 N 238.779 -0.0517805 3.00955 0
M  V30 1454 N 238.519 2.17875 2.46519 0
M  V30 1455 C 238.399 3.01988 1.4033 0
M  V30 1456 H 235.42 8.36803 2.32493 0
M  V30 1457 H 235.15 6.70197 1.71129 0
M  V30 1458 H 236.017 7.03551 4.13168 0
M  V30 1459 H 238.672 4.59498 3.54415 0
M  V30 1460 H 238.951 6.88898 1.59848 0
M  V30 1461 H 239.943 6.46749 3.03687 0
M  V30 1462 H 238.109 8.46908 3.20714 0
M  V30 1463 H 238.06 5.86405 -0.105564 0
M  V30 1464 H 238.742 -0.483664 0.597855 0
M  V30 1465 H 238.779 0.187865 4.0116 0
M  V30 1466 H 238.88 -1.03585 2.71726 0
M  V30 1467 P 239.979 7.20834 5.23717 0
M  V30 1468 O 240.199 7.79853 6.57286 0
M  V30 1469 O 240.769 7.79239 4.12957 0
M  V30 1470 O 240.229 5.63315 5.29344 0
M  V30 1471 C 239.289 4.80255 6.01876 0
M  V30 1472 C 240.019 3.64202 6.65911 0
M  V30 1473 O 240.229 2.60694 5.64732 0
M  V30 1474 C 241.419 3.93473 7.1943 0
M  V30 1475 O 241.809 3.02071 8.21205 0
M  V30 1476 C 242.299 3.73047 5.97036 0
M  V30 1477 C 241.589 2.58828 5.25741 0
M  V30 1478 N 241.639 2.68068 3.77503 0
M  V30 1479 H 238.8 5.40332 6.79951 0
M  V30 1480 H 238.53 4.41613 5.32378 0
M  V30 1481 H 239.397 3.26331 7.47797 0
M  V30 1482 P 243.359 2.75334 8.47391 0
M  V30 1483 O 243.579 2.44571 9.90142 0
M  V30 1484 O 244.149 3.87688 7.92115 0
M  V30 1485 O 243.609 1.4459 7.59357 0
M  V30 1486 C 242.669 0.347608 7.69215 0
M  V30 1487 C 243.399 -0.96767 7.52806 0
M  V30 1488 O 243.609 -1.21036 6.1011 0
M  V30 1489 C 244.799 -1.04544 8.13308 0
M  V30 1490 O 245.189 -2.38311 8.41922 0
M  V30 1491 C 245.679 -0.491279 7.02284 0
M  V30 1492 C 244.969 -0.996264 5.77469 0
M  V30 1493 N 245.019 -0.0501916 4.62973 0
M  V30 1494 C 244.939 1.32786 4.63244 0
M  V30 1495 N 245.019 1.86957 3.44545 0
M  V30 1496 C 245.159 0.780241 2.58481 0
M  V30 1497 C 245.289 0.738536 1.17757 0
M  V30 1498 N 245.409 -0.58337 0.711393 0
M  V30 1499 C 245.409 -1.70816 1.51017 0
M  V30 1500 N 245.539 -2.87826 0.880757 0
M  V30 1501 N 245.279 -1.67126 2.8339 0
M  V30 1502 C 245.159 -0.401421 3.30572 0
M  V30 1503 H 242.18 0.374722 8.67691 0
M  V30 1504 H 241.91 0.443485 6.90277 0
M  V30 1505 H 242.777 -1.75537 7.96793 0
M  V30 1506 P 246.739 -2.75334 8.47391 0
M  V30 1507 O 246.959 -3.84204 9.44982 0
M  V30 1508 O 247.529 -1.51982 8.68909 0
M  V30 1509 O 246.989 -3.29363 6.99321 0
M  V30 1510 C 246.049 -4.24066 6.42823 0
M  V30 1511 C 246.779 -5.20775 5.52155 0
M  V30 1512 O 246.989 -4.56607 4.22514 0
M  V30 1513 C 248.179 -5.62697 5.96604 0
M  V30 1514 O 248.569 -6.87667 5.41053 0
M  V30 1515 C 249.059 -4.52537 5.39283 0
M  V30 1516 C 248.349 -4.20027 4.08623 0
M  V30 1517 N 248.399 -2.76189 3.71603 0
M  V30 1518 C 248.319 -1.66944 4.54297 0
M  V30 1519 N 248.389 -0.536169 3.91344 0
M  V30 1520 C 248.539 -0.901569 2.58849 0
M  V30 1521 C 248.669 -0.146599 1.40236 0
M  V30 1522 N 248.679 1.18234 1.37046 0
M  V30 1523 N 248.789 -0.822941 0.249738 0
M  V30 1524 C 248.779 -2.15179 0.280525 0
M  V30 1525 N 248.659 -2.96414 1.30822 0
M  V30 1526 C 248.539 -2.25804 2.44748 0
M  V30 1527 H 245.561 -4.79756 7.24086 0
M  V30 1528 H 245.289 -3.69963 5.84682 0
M  V30 1529 H 246.157 -6.10431 5.41508 0
M  V30 1530 H 248.812 -4.78816 3.28024 0
M  V30 1531 H 249.092 -3.64957 6.05871 0
M  V30 1532 H 250.083 -4.88748 5.21323 0
M  V30 1533 H 248.249 -5.66789 7.0643 0
M  V30 1534 H 248.208 -1.74684 5.62396 0
M  V30 1535 H 248.589 1.71949 2.24394 0
M  V30 1536 H 248.778 1.67511 0.470742 0
M  V30 1537 H 248.886 -2.63704 -0.6828 0
M  V30 1538 P 250.119 -7.20834 5.23717 0
M  V30 1539 O 250.339 -8.66274 5.38678 0
M  V30 1540 O 250.909 -6.33687 6.13629 0
M  V30 1541 O 250.369 -6.7751 3.72168 0
M  V30 1542 C 249.429 -7.20919 2.70795 0
M  V30 1543 C 250.159 -7.45864 1.40599 0
M  V30 1544 O 250.369 -6.17751 0.734343 0
M  V30 1545 C 251.559 -8.05906 1.51917 0
M  V30 1546 O 251.949 -8.74358 0.335205 0
M  V30 1547 C 252.439 -6.83093 1.70294 0
M  V30 1548 C 251.729 -5.79992 0.836974 0
M  V30 1549 N 251.779 -4.41864 1.38293 0
M  V30 1550 H 248.941 -8.13738 3.03804 0
M  V30 1551 H 248.669 -6.42974 2.55559 0
M  V30 1552 H 249.537 -8.12139 0.792866 0
M  V30 1553 H 252.192 -5.80178 -0.160643 0
M  V30 1554 H 252.472 -6.51379 2.75643 0
M  V30 1555 H 253.463 -7.01832 1.3448 0
M  V30 1556 H 251.629 -8.73771 2.38364 0
M  V30 1557 P 253.498 -8.91 -7.1169e-13 0
M  V30 1558 O 253.718 -10.1726 -0.733694 0
M  V30 1559 O 254.288 -8.73148 1.23936 0
M  V30 1560 O 253.748 -7.66872 -0.971405 0
M  V30 1561 C 252.808 -7.42309 -2.04641 0
M  V30 1562 C 253.538 -6.86059 -3.24661 0
M  V30 1563 O 253.748 -5.42847 -3.03646 0
M  V30 1564 C 254.938 -7.41196 -3.50753 0
M  V30 1565 O 255.328 -7.27073 -4.86816 0
M  V30 1566 C 255.818 -6.5273 -2.63741 0
M  V30 1567 C 255.108 -5.1842 -2.73198 0
M  V30 1568 N 255.158 -4.38762 -1.4784 0
M  V30 1569 H 252.319 -8.36803 -2.32493 0
M  V30 1570 H 252.049 -6.70197 -1.71129 0
M  V30 1571 H 252.916 -7.03551 -4.13168 0
M  V30 1572 P 256.878 -7.20834 -5.23717 0
M  V30 1573 O 257.098 -7.79853 -6.57286 0
M  V30 1574 O 257.668 -7.79239 -4.12957 0
M  V30 1575 O 257.128 -5.63315 -5.29344 0
M  V30 1576 C 256.188 -4.80255 -6.01876 0
M  V30 1577 C 256.918 -3.64202 -6.65911 0
M  V30 1578 O 257.128 -2.60694 -5.64732 0
M  V30 1579 C 258.318 -3.93473 -7.1943 0
M  V30 1580 O 258.708 -3.02071 -8.21205 0
M  V30 1581 C 259.198 -3.73047 -5.97036 0
M  V30 1582 C 258.488 -2.58828 -5.25741 0
M  V30 1583 N 258.538 -2.68068 -3.77503 0
M  V30 1584 H 255.699 -5.40332 -6.79951 0
M  V30 1585 H 255.429 -4.41613 -5.32378 0
M  V30 1586 H 256.296 -3.26331 -7.47797 0
M  V30 1587 P 260.258 -2.75334 -8.47391 0
M  V30 1588 O 260.478 -2.44571 -9.90142 0
M  V30 1589 O 261.048 -3.87688 -7.92115 0
M  V30 1590 O 260.508 -1.4459 -7.59357 0
M  V30 1591 C 259.568 -0.347608 -7.69215 0
M  V30 1592 C 260.298 0.96767 -7.52806 0
M  V30 1593 O 260.508 1.21036 -6.1011 0
M  V30 1594 C 261.698 1.04544 -8.13308 0
M  V30 1595 O 262.088 2.38311 -8.41922 0
M  V30 1596 C 262.578 0.491279 -7.02284 0
M  V30 1597 C 261.868 0.996264 -5.77469 0
M  V30 1598 N 261.918 0.0501916 -4.62973 0
M  V30 1599 H 259.079 -0.374722 -8.67691 0
M  V30 1600 H 258.809 -0.443485 -6.90277 0
M  V30 1601 H 259.676 1.75537 -7.96793 0
M  V30 1602 P 263.638 2.75334 -8.47391 0
M  V30 1603 O 263.858 3.84128 -9.44797 0
M  V30 1604 O 264.428 1.51947 -8.68712 0
M  V30 1605 O 263.888 3.29363 -6.99321 0
M  V30 1606 C 262.948 4.24011 -6.4274 0
M  V30 1607 C 263.678 5.20775 -5.52155 0
M  V30 1608 O 263.888 4.56534 -4.22446 0
M  V30 1609 C 265.078 5.62629 -5.96531 0
M  V30 1610 O 265.468 6.87667 -5.41053 0
M  V30 1611 C 265.958 4.52537 -5.39283 0
M  V30 1612 C 265.248 4.20027 -4.08623 0
M  V30 1613 N 265.298 2.76189 -3.71603 0
M  V30 1614 H 262.459 4.797 -7.24003 0
M  V30 1615 H 262.189 3.69856 -5.84513 0
M  V30 1616 H 263.056 6.10356 -5.41441 0
M  V30 1617 P 267.018 7.20834 -5.23717 0
M  V30 1618 O 267.238 8.66104 -5.38572 0
M  V30 1619 O 267.808 6.33544 -6.1349 0
M  V30 1620 O 267.268 6.7751 -3.72168 0
M  V30 1621 C 266.328 7.20825 -2.7076 0
M  V30 1622 C 267.058 7.45864 -1.40599 0
M  V30 1623 O 267.268 6.17651 -0.734225 0
M  V30 1624 C 268.458 8.05808 -1.51899 0
M  V30 1625 O 268.848 8.74358 -0.335205 0
M  V30 1626 C 269.338 6.83093 -1.70294 0
M  V30 1627 C 268.628 5.79992 -0.836974 0
M  V30 1628 N 268.678 4.41864 -1.38293 0
M  V30 1629 C 268.598 3.99538 -2.69438 0
M  V30 1630 N 268.678 2.69909 -2.84277 0
M  V30 1631 C 268.818 2.21719 -1.5408 0
M  V30 1632 C 268.948 0.891712 -1.06628 0
M  V30 1633 O 268.968 -0.161298 -1.70137 0
M  V30 1634 N 269.068 0.856846 0.334985 0
M  V30 1635 C 269.068 1.9641 1.15789 0
M  V30 1636 N 269.198 1.72708 2.46522 0
M  V30 1637 N 268.938 3.21165 0.713741 0
M  V30 1638 C 268.818 3.26797 -0.639748 0
M  V30 1639 H 265.839 8.13644 -3.0377 0
M  V30 1640 H 265.569 6.42788 -2.55485 0
M  V30 1641 H 266.436 8.12039 -0.792769 0
M  V30 1642 H 269.091 5.80061 0.166416 0
M  V30 1643 H 269.37 6.51287 -2.75604 0
M  V30 1644 H 270.362 7.01734 -1.34462 0
M  V30 1645 H 268.528 8.73674 -2.38337 0
M  V30 1646 H 268.479 4.68207 -3.53221 0
M  V30 1647 H 269.161 -0.0398818 0.767965 0
M  V30 1648 H 269.198 2.50995 3.13503 0
M  V30 1649 H 269.299 0.759148 2.80716 0
M  V30 1650 P 270.398 8.91 8.68872e-13 0
M  V30 1651 O 270.618 10.1726 0.733694 0
M  V30 1652 O 271.188 8.73148 -1.23936 0
M  V30 1653 O 270.648 7.66872 0.971405 0
M  V30 1654 C 269.708 7.42309 2.04641 0
M  V30 1655 C 270.438 6.86059 3.24661 0
M  V30 1656 O 270.648 5.42847 3.03646 0
M  V30 1657 C 271.838 7.41196 3.50753 0
M  V30 1658 O 272.228 7.27073 4.86816 0
M  V30 1659 C 272.718 6.5273 2.63741 0
M  V30 1660 C 272.008 5.1842 2.73198 0
M  V30 1661 N 272.058 4.38762 1.4784 0
M  V30 1662 H 269.219 8.36803 2.32493 0
M  V30 1663 H 268.949 6.70197 1.71129 0
M  V30 1664 H 269.816 7.03551 4.13168 0
M  V30 1665 P 273.778 7.20834 5.23717 0
M  V30 1666 O 273.998 7.79853 6.57286 0
M  V30 1667 O 274.568 7.79239 4.12957 0
M  V30 1668 O 274.028 5.63315 5.29344 0
M  V30 1669 C 273.088 4.80255 6.01876 0
M  V30 1670 C 273.818 3.64202 6.65911 0
M  V30 1671 O 274.028 2.60694 5.64732 0
M  V30 1672 C 275.218 3.93473 7.1943 0
M  V30 1673 O 275.608 3.02071 8.21205 0
M  V30 1674 C 276.098 3.73047 5.97036 0
M  V30 1675 C 275.388 2.58828 5.25741 0
M  V30 1676 N 275.438 2.68068 3.77503 0
M  V30 1677 H 272.599 5.40332 6.79951 0
M  V30 1678 H 272.329 4.41613 5.32378 0
M  V30 1679 H 273.196 3.26331 7.47797 0
M  V30 1680 P 277.158 2.75334 8.47391 0
M  V30 1681 O 277.378 2.44619 9.90336 0
M  V30 1682 O 277.948 3.87776 7.92294 0
M  V30 1683 O 277.408 1.4459 7.59357 0
M  V30 1684 C 276.468 0.347653 7.69315 0
M  V30 1685 C 277.198 -0.96767 7.52806 0
M  V30 1686 O 277.408 -1.21055 6.10208 0
M  V30 1687 C 278.598 -1.04557 8.13408 0
M  V30 1688 O 278.988 -2.38311 8.41922 0
M  V30 1689 C 279.478 -0.491279 7.02284 0
M  V30 1690 C 278.768 -0.996264 5.77469 0
M  V30 1691 N 278.818 -0.0501916 4.62973 0
M  V30 1692 H 275.98 0.374765 8.67791 0
M  V30 1693 H 275.708 0.443613 6.90476 0
M  V30 1694 H 276.576 -1.75559 7.96891 0
M  V30 1695 H 279.231 -1.94563 5.46818 0
M  V30 1696 H 279.511 0.608651 7.04676 0
M  V30 1697 H 280.502 -0.889796 7.09039 0
M  V30 1698 H 278.668 -0.433128 9.04664 0
M  V30 1699 P 280.538 -2.75334 8.47391 0
M  V30 1700 O 280.758 -3.84128 9.44797 0
M  V30 1701 O 281.328 -1.51947 8.68712 0
M  V30 1702 O 280.788 -3.29363 6.99321 0
M  V30 1703 C 279.848 -4.24011 6.4274 0
M  V30 1704 C 280.578 -5.20775 5.52155 0
M  V30 1705 O 280.788 -4.56534 4.22446 0
M  V30 1706 C 281.978 -5.62629 5.96531 0
M  V30 1707 O 282.368 -6.87667 5.41053 0
M  V30 1708 C 282.858 -4.52537 5.39283 0
M  V30 1709 C 282.148 -4.20027 4.08623 0
M  V30 1710 N 282.198 -2.76189 3.71603 0
M  V30 1711 H 279.359 -4.797 7.24003 0
M  V30 1712 H 279.089 -3.69856 5.84513 0
M  V30 1713 H 279.956 -6.10356 5.41441 0
M  V30 1714 P 283.918 -7.20834 5.23717 0
M  V30 1715 O 284.138 -8.66104 5.38572 0
M  V30 1716 O 284.708 -6.33544 6.1349 0
M  V30 1717 O 284.168 -6.7751 3.72168 0
M  V30 1718 C 283.228 -7.20825 2.7076 0
M  V30 1719 C 283.958 -7.45864 1.40599 0
M  V30 1720 O 284.168 -6.17651 0.734225 0
M  V30 1721 C 285.358 -8.05808 1.51899 0
M  V30 1722 O 285.748 -8.74358 0.335205 0
M  V30 1723 C 286.238 -6.83093 1.70294 0
M  V30 1724 C 285.528 -5.79992 0.836974 0
M  V30 1725 N 285.578 -4.41864 1.38293 0
M  V30 1726 H 282.739 -8.13644 3.0377 0
M  V30 1727 H 282.469 -6.42788 2.55485 0
M  V30 1728 H 283.336 -8.12039 0.792769 0
M  V30 1729 P 287.298 -8.91 -1.02605e-12 0
M  V30 1730 O 287.518 -10.1726 -0.733694 0
M  V30 1731 O 288.088 -8.73148 1.23936 0
M  V30 1732 O 287.548 -7.66872 -0.971405 0
M  V30 1733 C 286.608 -7.42309 -2.04641 0
M  V30 1734 C 287.338 -6.86059 -3.24661 0
M  V30 1735 O 287.548 -5.42847 -3.03646 0
M  V30 1736 C 288.738 -7.41196 -3.50753 0
M  V30 1737 O 289.128 -7.27073 -4.86816 0
M  V30 1738 C 289.618 -6.5273 -2.63741 0
M  V30 1739 C 288.908 -5.1842 -2.73198 0
M  V30 1740 N 288.958 -4.38762 -1.4784 0
M  V30 1741 H 286.119 -8.36803 -2.32493 0
M  V30 1742 H 285.849 -6.70197 -1.71129 0
M  V30 1743 H 286.716 -7.03551 -4.13168 0
M  V30 1744 P 290.678 -7.20834 -5.23717 0
M  V30 1745 O 290.898 -7.79853 -6.57286 0
M  V30 1746 O 291.468 -7.79239 -4.12957 0
M  V30 1747 O 290.928 -5.63315 -5.29344 0
M  V30 1748 C 289.988 -4.80255 -6.01876 0
M  V30 1749 C 290.718 -3.64202 -6.65911 0
M  V30 1750 O 290.928 -2.60694 -5.64732 0
M  V30 1751 C 292.118 -3.93473 -7.1943 0
M  V30 1752 O 292.508 -3.02071 -8.21205 0
M  V30 1753 C 292.998 -3.73047 -5.97036 0
M  V30 1754 C 292.288 -2.58828 -5.25741 0
M  V30 1755 N 292.338 -2.68068 -3.77503 0
M  V30 1756 H 289.499 -5.40332 -6.79951 0
M  V30 1757 H 289.229 -4.41613 -5.32378 0
M  V30 1758 H 290.096 -3.26331 -7.47797 0
M  V30 1759 P 294.058 -2.75334 -8.47391 0
M  V30 1760 O 294.278 -2.44619 -9.90336 0
M  V30 1761 O 294.848 -3.87776 -7.92294 0
M  V30 1762 O 294.308 -1.4459 -7.59357 0
M  V30 1763 C 293.368 -0.347653 -7.69315 0
M  V30 1764 C 294.098 0.96767 -7.52806 0
M  V30 1765 O 294.308 1.21055 -6.10208 0
M  V30 1766 C 295.498 1.04557 -8.13408 0
M  V30 1767 O 295.888 2.38311 -8.41922 0
M  V30 1768 C 296.378 0.491279 -7.02284 0
M  V30 1769 C 295.668 0.996264 -5.77469 0
M  V30 1770 N 295.718 0.0501916 -4.62973 0
M  V30 1771 C 295.638 -1.31969 -4.65661 0
M  V30 1772 N 295.708 -1.86649 -3.48119 0
M  V30 1773 C 295.858 -0.792089 -2.62406 0
M  V30 1774 C 295.988 -0.705684 -1.2207 0
M  V30 1775 N 295.998 -1.76207 -0.413762 0
M  V30 1776 N 296.108 0.518981 -0.685754 0
M  V30 1777 C 296.098 1.57595 -1.49174 0
M  V30 1778 N 295.978 1.62909 -2.80066 0
M  V30 1779 C 295.858 0.388195 -3.3073 0
M  V30 1780 H 292.88 -0.374765 -8.67791 0
M  V30 1781 H 292.608 -0.443613 -6.90476 0
M  V30 1782 H 293.476 1.75559 -7.96891 0
M  V30 1783 H 296.131 1.94563 -5.46818 0
M  V30 1784 H 296.411 -0.608651 -7.04676 0
M  V30 1785 H 297.402 0.889796 -7.09039 0
M  V30 1786 H 295.568 0.433128 -9.04664 0
M  V30 1787 H 295.527 -1.89246 -5.57664 0
M  V30 1788 H 295.908 -2.71005 -0.804694 0
M  V30 1789 H 296.097 -1.63189 0.603768 0
M  V30 1790 H 296.205 2.53475 -0.997614 0
M  V30 1791 P 297.438 2.75334 -8.47391 0
M  V30 1792 O 297.658 3.84128 -9.44797 0
M  V30 1793 O 298.228 1.51947 -8.68712 0
M  V30 1794 O 297.688 3.29363 -6.99321 0
M  V30 1795 C 296.748 4.24011 -6.4274 0
M  V30 1796 C 297.478 5.20775 -5.52155 0
M  V30 1797 O 297.688 4.56534 -4.22446 0
M  V30 1798 C 298.878 5.62629 -5.96531 0
M  V30 1799 O 299.268 6.87667 -5.41053 0
M  V30 1800 C 299.758 4.52537 -5.39283 0
M  V30 1801 C 299.048 4.20027 -4.08623 0
M  V30 1802 N 299.098 2.76189 -3.71603 0
M  V30 1803 H 296.259 4.797 -7.24003 0
M  V30 1804 H 295.989 3.69856 -5.84513 0
M  V30 1805 H 296.856 6.10356 -5.41441 0
M  V30 1806 P 300.818 7.20834 -5.23717 0
M  V30 1807 O 301.038 8.66104 -5.38572 0
M  V30 1808 O 301.608 6.33544 -6.1349 0
M  V30 1809 O 301.068 6.7751 -3.72168 0
M  V30 1810 C 300.128 7.20825 -2.7076 0
M  V30 1811 C 300.858 7.45864 -1.40599 0
M  V30 1812 O 301.068 6.17651 -0.734225 0
M  V30 1813 C 302.258 8.05808 -1.51899 0
M  V30 1814 O 302.648 8.74358 -0.335205 0
M  V30 1815 C 303.138 6.83093 -1.70294 0
M  V30 1816 C 302.428 5.79992 -0.836974 0
M  V30 1817 N 302.478 4.41864 -1.38293 0
M  V30 1818 H 299.639 8.13644 -3.0377 0
M  V30 1819 H 299.369 6.42788 -2.55485 0
M  V30 1820 H 300.236 8.12039 -0.792769 0
M  V30 1821 P 304.198 8.91 1.18324e-12 0
M  V30 1822 O 304.418 10.1726 0.733694 0
M  V30 1823 O 304.988 8.73148 -1.23936 0
M  V30 1824 O 304.448 7.66872 0.971405 0
M  V30 1825 C 303.508 7.42309 2.04641 0
M  V30 1826 C 304.238 6.86059 3.24661 0
M  V30 1827 O 304.448 5.42847 3.03646 0
M  V30 1828 C 305.638 7.41196 3.50753 0
M  V30 1829 O 306.028 7.27073 4.86816 0
M  V30 1830 C 306.518 6.5273 2.63741 0
M  V30 1831 C 305.808 5.1842 2.73198 0
M  V30 1832 N 305.858 4.38762 1.4784 0
M  V30 1833 H 303.019 8.36803 2.32493 0
M  V30 1834 H 302.749 6.70197 1.71129 0
M  V30 1835 H 303.616 7.03551 4.13168 0
M  V30 1836 P 307.578 7.20834 5.23717 0
M  V30 1837 O 307.798 7.79853 6.57286 0
M  V30 1838 O 308.368 7.79239 4.12957 0
M  V30 1839 O 307.828 5.63315 5.29344 0
M  V30 1840 C 306.888 4.80255 6.01876 0
M  V30 1841 C 307.618 3.64202 6.65911 0
M  V30 1842 O 307.828 2.60694 5.64732 0
M  V30 1843 C 309.018 3.93473 7.1943 0
M  V30 1844 O 309.408 3.02071 8.21205 0
M  V30 1845 C 309.898 3.73047 5.97036 0
M  V30 1846 C 309.188 2.58828 5.25741 0
M  V30 1847 N 309.238 2.68068 3.77503 0
M  V30 1848 H 306.399 5.40332 6.79951 0
M  V30 1849 H 306.129 4.41613 5.32378 0
M  V30 1850 H 306.996 3.26331 7.47797 0
M  V30 1851 P 310.958 2.75334 8.47391 0
M  V30 1852 O 311.178 2.44595 9.90239 0
M  V30 1853 O 311.748 3.87732 7.92204 0
M  V30 1854 O 311.208 1.4459 7.59357 0
M  V30 1855 C 310.268 0.347608 7.69215 0
M  V30 1856 C 310.998 -0.96767 7.52806 0
M  V30 1857 O 311.208 -1.21036 6.1011 0
M  V30 1858 C 312.398 -1.04544 8.13308 0
M  V30 1859 O 312.788 -2.38311 8.41922 0
M  V30 1860 C 313.278 -0.491279 7.02284 0
M  V30 1861 C 312.568 -0.996264 5.77469 0
M  V30 1862 N 312.618 -0.0501808 4.62873 0
M  V30 1863 C 312.768 -0.578037 3.3505 0
M  V30 1864 O 312.858 -1.8073 3.21711 0
M  V30 1865 N 312.818 0.468541 2.263 0
M  V30 1866 C 312.718 1.59186 2.47176 0
M  V30 1867 N 312.768 2.37626 1.40392 0
M  V30 1868 C 312.568 2.16203 3.77467 0
M  V30 1869 C 312.518 1.29324 4.8195 0
M  V30 1870 H 309.778 0.374679 8.67591 0
M  V30 1871 H 309.509 0.443421 6.90177 0
M  V30 1872 H 310.376 -1.75559 7.96891 0
M  V30 1873 H 313.031 -1.94529 5.46723 0
M  V30 1874 H 313.31 0.608651 7.04676 0
M  V30 1875 H 314.302 -0.889672 7.08939 0
M  V30 1876 H 312.468 -0.43308 9.04564 0
M  V30 1877 H 312.396 1.67758 5.83046 0
M  V30 1878 H 312.498 3.23869 3.92281 0
M  V30 1879 H 312.886 1.96317 0.467202 0
M  V30 1880 H 312.689 3.39693 1.51142 0
M  V30 1881 P 314.338 -2.75334 8.47391 0
M  V30 1882 O 314.558 -3.84128 9.44797 0
M  V30 1883 O 315.128 -1.51947 8.68712 0
M  V30 1884 O 314.588 -3.29363 6.99321 0
M  V30 1885 C 313.648 -4.24011 6.4274 0
M  V30 1886 C 314.378 -5.20775 5.52155 0
M  V30 1887 O 314.588 -4.56534 4.22446 0
M  V30 1888 C 315.778 -5.62629 5.96531 0
M  V30 1889 O 316.168 -6.87667 5.41053 0
M  V30 1890 C 316.658 -4.52537 5.39283 0
M  V30 1891 C 315.948 -4.20027 4.08623 0
M  V30 1892 N 315.998 -2.76189 3.71603 0
M  V30 1893 H 313.159 -4.797 7.24003 0
M  V30 1894 H 312.889 -3.69856 5.84513 0
M  V30 1895 H 313.756 -6.10356 5.41441 0
M  V30 1896 P 317.718 -7.20834 5.23717 0
M  V30 1897 O 317.938 -8.66104 5.38572 0
M  V30 1898 O 318.508 -6.33544 6.1349 0
M  V30 1899 O 317.968 -6.7751 3.72168 0
M  V30 1900 C 317.028 -7.20825 2.7076 0
M  V30 1901 C 317.758 -7.45864 1.40599 0
M  V30 1902 O 317.968 -6.17651 0.734225 0
M  V30 1903 C 319.158 -8.05808 1.51899 0
M  V30 1904 O 319.548 -8.74358 0.335205 0
M  V30 1905 C 320.038 -6.83093 1.70294 0
M  V30 1906 C 319.328 -5.79992 0.836974 0
M  V30 1907 N 319.378 -4.41864 1.38293 0
M  V30 1908 H 316.539 -8.13644 3.0377 0
M  V30 1909 H 316.269 -6.42788 2.55485 0
M  V30 1910 H 317.136 -8.12039 0.792769 0
M  V30 1911 P 321.098 -8.91 -1.34042e-12 0
M  V30 1912 O 321.318 -10.1726 -0.733694 0
M  V30 1913 O 321.888 -8.73148 1.23936 0
M  V30 1914 O 321.348 -7.66872 -0.971405 0
M  V30 1915 C 320.408 -7.42309 -2.04641 0
M  V30 1916 C 321.138 -6.86059 -3.24661 0
M  V30 1917 O 321.348 -5.42847 -3.03646 0
M  V30 1918 C 322.538 -7.41196 -3.50753 0
M  V30 1919 O 322.928 -7.27073 -4.86816 0
M  V30 1920 C 323.418 -6.5273 -2.63741 0
M  V30 1921 C 322.708 -5.1842 -2.73198 0
M  V30 1922 N 322.758 -4.38762 -1.4784 0
M  V30 1923 H 319.919 -8.36803 -2.32493 0
M  V30 1924 H 319.649 -6.70197 -1.71129 0
M  V30 1925 H 320.516 -7.03551 -4.13168 0
M  V30 1926 P 324.478 -7.20834 -5.23717 0
M  V30 1927 O 324.698 -7.7993 -6.57351 0
M  V30 1928 O 325.268 -7.79328 -4.13004 0
M  V30 1929 O 324.728 -5.63315 -5.29344 0
M  V30 1930 C 323.788 -4.80193 -6.01798 0
M  V30 1931 C 324.518 -3.64202 -6.65911 0
M  V30 1932 O 324.728 -2.60694 -5.64732 0
M  V30 1933 C 325.918 -3.93473 -7.1943 0
M  V30 1934 O 326.308 -3.02071 -8.21205 0
M  V30 1935 C 326.798 -3.73047 -5.97036 0
M  V30 1936 C 326.088 -2.58828 -5.25741 0
M  V30 1937 N 326.138 -2.6801 -3.77422 0
M  V30 1938 C 326.288 -1.50443 -3.07133 0
M  V30 1939 O 326.378 -0.419406 -3.61576 0
M  V30 1940 N 326.328 -1.6403 -1.69677 0
M  V30 1941 C 326.238 -2.81206 -0.986255 0
M  V30 1942 O 326.288 -2.80892 0.249754 0
M  V30 1943 C 326.088 -3.99158 -1.80325 0
M  V30 1944 C 325.978 -5.29309 -1.06921 0
M  V30 1945 C 326.038 -3.89779 -3.1476 0
M  V30 1946 H 323.298 -5.40332 -6.79951 0
M  V30 1947 H 323.029 -4.41549 -5.32301 0
M  V30 1948 H 323.896 -3.26331 -7.47797 0
M  V30 1949 H 326.551 -1.6395 -5.56554 0
M  V30 1950 H 326.83 -4.63439 -5.3432 0
M  V30 1951 H 327.822 -3.44728 -6.25838 0
M  V30 1952 H 325.988 -4.96652 -7.57263 0
M  V30 1953 H 325.917 -4.80159 -3.74441 0
M  V30 1954 H 326.947 -5.81459 -1.09608 0
M  V30 1955 H 325.21 -5.9187 -1.54487 0
M  V30 1956 H 325.698 -5.10095 -0.0220288 0
M  V30 1957 H 326.434 -0.798962 -1.16664 0
M  V30 1958 P 327.858 -2.75334 -8.47391 0
M  V30 1959 O 328.078 -2.44571 -9.90142 0
M  V30 1960 O 328.648 -3.87688 -7.92115 0
M  V30 1961 O 328.108 -1.4459 -7.59357 0
M  V30 1962 C 327.168 -0.347608 -7.69215 0
M  V30 1963 C 327.898 0.96767 -7.52806 0
M  V30 1964 O 328.108 1.21036 -6.1011 0
M  V30 1965 C 329.298 1.04544 -8.13308 0
M  V30 1966 O 329.688 2.38311 -8.41922 0
M  V30 1967 C 330.178 0.491279 -7.02284 0
M  V30 1968 C 329.468 0.996264 -5.77469 0
M  V30 1969 N 329.518 0.0501916 -4.62973 0
M  V30 1970 H 326.679 -0.374722 -8.67691 0
M  V30 1971 H 326.409 -0.443485 -6.90277 0
M  V30 1972 H 327.276 1.75537 -7.96793 0
M  V30 1973 P 331.238 2.75334 -8.47391 0
M  V30 1974 O 331.458 3.84166 -9.4489 0
M  V30 1975 O 332.028 1.51964 -8.6881 0
M  V30 1976 O 331.488 3.29363 -6.99321 0
M  V30 1977 C 330.548 4.24011 -6.4274 0
M  V30 1978 C 331.278 5.20775 -5.52155 0
M  V30 1979 O 331.488 4.56534 -4.22446 0
M  V30 1980 C 332.678 5.62629 -5.96531 0
M  V30 1981 O 333.068 6.87667 -5.41053 0
M  V30 1982 C 333.558 4.52537 -5.39283 0
M  V30 1983 C 332.848 4.20027 -4.08623 0
M  V30 1984 N 332.898 2.7613 -3.71522 0
M  V30 1985 C 333.048 2.43702 -2.37085 0
M  V30 1986 O 333.138 3.3531 -1.54039 0
M  V30 1987 N 333.098 0.951103 -2.10621 0
M  V30 1988 C 332.998 0.165021 -2.93537 0
M  V30 1989 N 333.048 -1.09723 -2.53253 0
M  V30 1990 C 332.848 0.469576 -4.32458 0
M  V30 1991 C 332.798 1.78658 -4.65921 0
M  V30 1992 H 330.058 4.79645 -7.23919 0
M  V30 1993 H 329.789 3.69802 -5.84429 0
M  V30 1994 H 330.656 6.10431 -5.41508 0
M  V30 1995 H 333.311 4.78733 -3.27967 0
M  V30 1996 H 333.59 3.64957 -6.05871 0
M  V30 1997 H 334.582 4.8868 -5.2125 0
M  V30 1998 H 332.748 5.66726 -7.06352 0
M  V30 1999 H 332.676 2.06987 -5.70299 0
M  V30 2000 H 332.778 -0.314383 -5.07728 0
M  V30 2001 H 333.166 -1.31363 -1.5319 0
M  V30 2002 H 332.969 -1.85978 -3.21943 0
M  V30 2003 P 334.618 7.20834 -5.23717 0
M  V30 2004 O 334.838 8.66104 -5.38572 0
M  V30 2005 O 335.408 6.33544 -6.1349 0
M  V30 2006 O 334.868 6.7751 -3.72168 0
M  V30 2007 C 333.928 7.20825 -2.7076 0
M  V30 2008 C 334.658 7.45864 -1.40599 0
M  V30 2009 O 334.868 6.17651 -0.734225 0
M  V30 2010 C 336.058 8.05808 -1.51899 0
M  V30 2011 O 336.448 8.74358 -0.335205 0
M  V30 2012 C 336.938 6.83093 -1.70294 0
M  V30 2013 C 336.228 5.79992 -0.836974 0
M  V30 2014 N 336.278 4.41864 -1.38293 0
M  V30 2015 H 333.439 8.13644 -3.0377 0
M  V30 2016 H 333.169 6.42788 -2.55485 0
M  V30 2017 H 334.036 8.12039 -0.792769 0
M  V30 2018 P 337.998 8.91 1.4976e-12 0
M  V30 2019 O 338.218 10.1726 0.733694 0
M  V30 2020 O 338.788 8.73148 -1.23936 0
M  V30 2021 O 338.248 7.66872 0.971405 0
M  V30 2022 C 337.308 7.42309 2.04641 0
M  V30 2023 C 338.038 6.86059 3.24661 0
M  V30 2024 O 338.248 5.42847 3.03646 0
M  V30 2025 C 339.438 7.41196 3.50753 0
M  V30 2026 O 339.828 7.27073 4.86816 0
M  V30 2027 C 340.318 6.5273 2.63741 0
M  V30 2028 C 339.608 5.1842 2.73198 0
M  V30 2029 N 339.658 4.38762 1.4784 0
M  V30 2030 H 336.819 8.36803 2.32493 0
M  V30 2031 H 336.549 6.70197 1.71129 0
M  V30 2032 H 337.416 7.03551 4.13168 0
M  V30 2033 P 341.378 7.20834 5.23717 0
M  V30 2034 O 341.598 7.79853 6.57286 0
M  V30 2035 O 342.168 7.79239 4.12957 0
M  V30 2036 O 341.628 5.63315 5.29344 0
M  V30 2037 C 340.688 4.80255 6.01876 0
M  V30 2038 C 341.418 3.64202 6.65911 0
M  V30 2039 O 341.628 2.60694 5.64732 0
M  V30 2040 C 342.818 3.93473 7.1943 0
M  V30 2041 O 343.208 3.02071 8.21205 0
M  V30 2042 C 343.698 3.73047 5.97036 0
M  V30 2043 C 342.988 2.58828 5.25741 0
M  V30 2044 N 343.038 2.68068 3.77503 0
M  V30 2045 H 340.199 5.40332 6.79951 0
M  V30 2046 H 339.929 4.41613 5.32378 0
M  V30 2047 H 340.796 3.26331 7.47797 0
M  V30 2048 P 344.758 2.75334 8.47391 0
M  V30 2049 O 344.978 2.44571 9.90142 0
M  V30 2050 O 345.548 3.87688 7.92115 0
M  V30 2051 O 345.008 1.4459 7.59357 0
M  V30 2052 C 344.068 0.347608 7.69215 0
M  V30 2053 C 344.798 -0.96767 7.52806 0
M  V30 2054 O 345.008 -1.21036 6.1011 0
M  V30 2055 C 346.198 -1.04544 8.13308 0
M  V30 2056 O 346.588 -2.38311 8.41922 0
M  V30 2057 C 347.078 -0.491279 7.02284 0
M  V30 2058 C 346.368 -0.996264 5.77469 0
M  V30 2059 N 346.418 -0.0501916 4.62973 0
M  V30 2060 H 343.579 0.374722 8.67691 0
M  V30 2061 H 343.309 0.443485 6.90277 0
M  V30 2062 H 344.176 -1.75537 7.96793 0
M  V30 2063 P 348.138 -2.75334 8.47391 0
M  V30 2064 O 348.358 -3.84128 9.44797 0
M  V30 2065 O 348.928 -1.51947 8.68712 0
M  V30 2066 O 348.388 -3.29363 6.99321 0
M  V30 2067 C 347.448 -4.24011 6.4274 0
M  V30 2068 C 348.178 -5.20775 5.52155 0
M  V30 2069 O 348.388 -4.56534 4.22446 0
M  V30 2070 C 349.578 -5.62629 5.96531 0
M  V30 2071 O 349.968 -6.87667 5.41053 0
M  V30 2072 C 350.458 -4.52537 5.39283 0
M  V30 2073 C 349.748 -4.20027 4.08623 0
M  V30 2074 N 349.798 -2.76189 3.71603 0
M  V30 2075 H 346.959 -4.797 7.24003 0
M  V30 2076 H 346.689 -3.69856 5.84513 0
M  V30 2077 H 347.556 -6.10356 5.41441 0
M  V30 2078 P 351.518 -7.20834 5.23717 0
M  V30 2079 O 351.738 -8.66104 5.38572 0
M  V30 2080 O 352.308 -6.33544 6.1349 0
M  V30 2081 O 351.768 -6.7751 3.72168 0
M  V30 2082 C 350.828 -7.20825 2.7076 0
M  V30 2083 C 351.558 -7.45864 1.40599 0
M  V30 2084 O 351.768 -6.17651 0.734225 0
M  V30 2085 C 352.958 -8.05808 1.51899 0
M  V30 2086 O 353.348 -8.74358 0.335205 0
M  V30 2087 C 353.838 -6.83093 1.70294 0
M  V30 2088 C 353.128 -5.79992 0.836974 0
M  V30 2089 N 353.178 -4.41864 1.38293 0
M  V30 2090 H 350.339 -8.13644 3.0377 0
M  V30 2091 H 350.069 -6.42788 2.55485 0
M  V30 2092 H 350.936 -8.12039 0.792769 0
M  V30 2093 P 354.898 -8.91 -1.65478e-12 0
M  V30 2094 O 355.118 -10.1746 -0.733838 0
M  V30 2095 O 355.688 -8.73346 1.23964 0
M  V30 2096 O 355.148 -7.66872 -0.971405 0
M  V30 2097 C 354.208 -7.42405 -2.04668 0
M  V30 2098 C 354.938 -6.86059 -3.24661 0
M  V30 2099 O 355.148 -5.42934 -3.03695 0
M  V30 2100 C 356.338 -7.41287 -3.50796 0
M  V30 2101 O 356.728 -7.27073 -4.86816 0
M  V30 2102 C 357.218 -6.5273 -2.63741 0
M  V30 2103 C 356.508 -5.1842 -2.73198 0
M  V30 2104 N 356.558 -4.38762 -1.4784 0
M  V30 2105 C 356.478 -4.83651 -0.183876 0
M  V30 2106 N 356.548 -3.88759 0.699393 0
M  V30 2107 C 356.698 -2.7404 -0.0575568 0
M  V30 2108 C 356.828 -1.37902 0.293928 0
M  V30 2109 N 356.838 -0.938021 1.54797 0
M  V30 2110 N 356.948 -0.491817 -0.70549 0
M  V30 2111 C 356.938 -0.931735 -1.95979 0
M  V30 2112 N 356.818 -2.16017 -2.41481 0
M  V30 2113 C 356.698 -3.02547 -1.39121 0
M  V30 2114 H 353.72 -8.36899 -2.3252 0
M  V30 2115 H 353.448 -6.70391 -1.71179 0
M  V30 2116 H 354.316 -7.03638 -4.13219 0
M  V30 2117 H 356.971 -4.59931 -3.54016 0
M  V30 2118 H 357.251 -6.88995 -1.59871 0
M  V30 2119 H 358.242 -6.4684 -3.0373 0
M  V30 2120 H 356.408 -8.47002 -3.20749 0
M  V30 2121 H 356.367 -5.8885 0.0765548 0
M  V30 2122 H 356.748 -1.60276 2.32875 0
M  V30 2123 H 356.937 0.0699355 1.73859 0
M  V30 2124 H 357.045 -0.165507 -2.71897 0
M  V30 2125 P 358.278 -7.20834 -5.23717 0
M  V30 2126 O 358.498 -7.79853 -6.57286 0
M  V30 2127 O 359.068 -7.79239 -4.12957 0
M  V30 2128 O 358.528 -5.63315 -5.29344 0
M  V30 2129 C 357.588 -4.80255 -6.01876 0
M  V30 2130 C 358.318 -3.64202 -6.65911 0
M  V30 2131 O 358.528 -2.60694 -5.64732 0
M  V30 2132 C 359.718 -3.93473 -7.1943 0
M  V30 2133 O 360.108 -3.02071 -8.21205 0
M  V30 2134 C 360.598 -3.73047 -5.97036 0
M  V30 2135 C 359.888 -2.58828 -5.25741 0
M  V30 2136 N 359.938 -2.68068 -3.77503 0
M  V30 2137 H 357.099 -5.40332 -6.79951 0
M  V30 2138 H 356.829 -4.41613 -5.32378 0
M  V30 2139 H 357.696 -3.26331 -7.47797 0
M  V30 2140 P 361.658 -2.75334 -8.47391 0
M  V30 2141 O 361.878 -2.44571 -9.90142 0
M  V30 2142 O 362.448 -3.87688 -7.92115 0
M  V30 2143 O 361.908 -1.4459 -7.59357 0
M  V30 2144 C 360.968 -0.347608 -7.69215 0
M  V30 2145 C 361.698 0.96767 -7.52806 0
M  V30 2146 O 361.908 1.21036 -6.1011 0
M  V30 2147 C 363.098 1.04544 -8.13308 0
M  V30 2148 O 363.488 2.38311 -8.41922 0
M  V30 2149 C 363.978 0.491279 -7.02284 0
M  V30 2150 C 363.268 0.996264 -5.77469 0
M  V30 2151 N 363.318 0.0501916 -4.62973 0
M  V30 2152 H 360.479 -0.374722 -8.67691 0
M  V30 2153 H 360.209 -0.443485 -6.90277 0
M  V30 2154 H 361.076 1.75537 -7.96793 0
M  V30 2155 P 365.038 2.75334 -8.47391 0
M  V30 2156 O 365.258 3.84128 -9.44797 0
M  V30 2157 O 365.828 1.51947 -8.68712 0
M  V30 2158 O 365.288 3.29363 -6.99321 0
M  V30 2159 C 364.348 4.24011 -6.4274 0
M  V30 2160 C 365.078 5.20775 -5.52155 0
M  V30 2161 O 365.288 4.56534 -4.22446 0
M  V30 2162 C 366.478 5.62629 -5.96531 0
M  V30 2163 O 366.868 6.87667 -5.41053 0
M  V30 2164 C 367.358 4.52537 -5.39283 0
M  V30 2165 C 366.648 4.20027 -4.08623 0
M  V30 2166 N 366.698 2.76189 -3.71603 0
M  V30 2167 H 363.859 4.797 -7.24003 0
M  V30 2168 H 363.589 3.69856 -5.84513 0
M  V30 2169 H 364.456 6.10356 -5.41441 0
M  V30 2170 P 368.418 7.20834 -5.23717 0
M  V30 2171 O 368.638 8.66104 -5.38572 0
M  V30 2172 O 369.208 6.33544 -6.1349 0
M  V30 2173 O 368.668 6.7751 -3.72168 0
M  V30 2174 C 367.728 7.20825 -2.7076 0
M  V30 2175 C 368.458 7.45864 -1.40599 0
M  V30 2176 O 368.668 6.17651 -0.734225 0
M  V30 2177 C 369.858 8.05808 -1.51899 0
M  V30 2178 O 370.248 8.74358 -0.335205 0
M  V30 2179 C 370.738 6.83093 -1.70294 0
M  V30 2180 C 370.028 5.79992 -0.836974 0
M  V30 2181 N 370.078 4.41864 -1.38293 0
M  V30 2182 H 367.239 8.13644 -3.0377 0
M  V30 2183 H 366.969 6.42788 -2.55485 0
M  V30 2184 H 367.836 8.12039 -0.792769 0
M  V30 2185 P 371.798 8.91 1.81197e-12 0
M  V30 2186 O 372.018 10.1726 0.733694 0
M  V30 2187 O 372.588 8.73148 -1.23936 0
M  V30 2188 O 372.048 7.66872 0.971405 0
M  V30 2189 C 371.108 7.42309 2.04641 0
M  V30 2190 C 371.838 6.86059 3.24661 0
M  V30 2191 O 372.048 5.42847 3.03646 0
M  V30 2192 C 373.238 7.41196 3.50753 0
M  V30 2193 O 373.628 7.27073 4.86816 0
M  V30 2194 C 374.118 6.5273 2.63741 0
M  V30 2195 C 373.408 5.1842 2.73198 0
M  V30 2196 N 373.458 4.38762 1.4784 0
M  V30 2197 H 370.619 8.36803 2.32493 0
M  V30 2198 H 370.349 6.70197 1.71129 0
M  V30 2199 H 371.216 7.03551 4.13168 0
M  V30 2200 P 375.178 7.20834 5.23717 0
M  V30 2201 O 375.398 7.79853 6.57286 0
M  V30 2202 O 375.968 7.79239 4.12957 0
M  V30 2203 O 375.428 5.63315 5.29344 0
M  V30 2204 C 374.488 4.80255 6.01876 0
M  V30 2205 C 375.218 3.64202 6.65911 0
M  V30 2206 O 375.428 2.60694 5.64732 0
M  V30 2207 C 376.618 3.93473 7.1943 0
M  V30 2208 O 377.008 3.02071 8.21205 0
M  V30 2209 C 377.498 3.73047 5.97036 0
M  V30 2210 C 376.788 2.58828 5.25741 0
M  V30 2211 N 376.838 2.68068 3.77503 0
M  V30 2212 H 373.999 5.40332 6.79951 0
M  V30 2213 H 373.729 4.41613 5.32378 0
M  V30 2214 H 374.596 3.26331 7.47797 0
M  V30 2215 P 378.558 2.75334 8.47391 0
M  V30 2216 O 378.778 2.44571 9.90142 0
M  V30 2217 O 379.348 3.87688 7.92115 0
M  V30 2218 O 378.808 1.4459 7.59357 0
M  V30 2219 C 377.868 0.347608 7.69215 0
M  V30 2220 C 378.598 -0.96767 7.52806 0
M  V30 2221 O 378.808 -1.21036 6.1011 0
M  V30 2222 C 379.998 -1.04544 8.13308 0
M  V30 2223 O 380.388 -2.38311 8.41922 0
M  V30 2224 C 380.878 -0.491279 7.02284 0
M  V30 2225 C 380.168 -0.996264 5.77469 0
M  V30 2226 N 380.218 -0.0501916 4.62973 0
M  V30 2227 C 380.138 1.32786 4.63244 0
M  V30 2228 N 380.218 1.86957 3.44545 0
M  V30 2229 C 380.358 0.780241 2.58481 0
M  V30 2230 C 380.488 0.738536 1.17757 0
M  V30 2231 O 380.508 1.66794 0.372349 0
M  V30 2232 N 380.608 -0.58337 0.711393 0
M  V30 2233 C 380.608 -1.70816 1.51017 0
M  V30 2234 N 380.738 -2.87826 0.880757 0
M  V30 2235 N 380.478 -1.67126 2.8339 0
M  V30 2236 C 380.358 -0.401421 3.30572 0
M  V30 2237 H 377.379 0.374722 8.67691 0
M  V30 2238 H 377.109 0.443485 6.90277 0
M  V30 2239 H 377.976 -1.75537 7.96793 0
M  V30 2240 H 380.631 -1.95076 5.46529 0
M  V30 2241 H 380.91 0.608565 7.04577 0
M  V30 2242 H 381.902 -0.889672 7.08939 0
M  V30 2243 H 380.068 -0.43308 9.04564 0
M  V30 2244 H 380.019 1.91249 5.54442 0
M  V30 2245 H 380.701 -0.718054 -0.275244 0
M  V30 2246 H 380.738 -3.75721 1.41832 0
M  V30 2247 H 380.839 -2.90436 -0.145468 0
M  V30 2248 P 381.938 -2.75334 8.47391 0
M  V30 2249 O 382.158 -3.84128 9.44797 0
M  V30 2250 O 382.728 -1.51947 8.68712 0
M  V30 2251 O 382.188 -3.29363 6.99321 0
M  V30 2252 C 381.248 -4.24011 6.4274 0
M  V30 2253 C 381.978 -5.20775 5.52155 0
M  V30 2254 O 382.188 -4.56534 4.22446 0
M  V30 2255 C 383.378 -5.62629 5.96531 0
M  V30 2256 O 383.768 -6.87667 5.41053 0
M  V30 2257 C 384.258 -4.52537 5.39283 0
M  V30 2258 C 383.548 -4.20027 4.08623 0
M  V30 2259 N 383.598 -2.76189 3.71603 0
M  V30 2260 H 380.759 -4.797 7.24003 0
M  V30 2261 H 380.489 -3.69856 5.84513 0
M  V30 2262 H 381.356 -6.10356 5.41441 0
M  V30 2263 P 385.318 -7.20834 5.23717 0
M  V30 2264 O 385.538 -8.66104 5.38572 0
M  V30 2265 O 386.108 -6.33544 6.1349 0
M  V30 2266 O 385.568 -6.7751 3.72168 0
M  V30 2267 C 384.628 -7.20825 2.7076 0
M  V30 2268 C 385.358 -7.45864 1.40599 0
M  V30 2269 O 385.568 -6.17651 0.734225 0
M  V30 2270 C 386.758 -8.05808 1.51899 0
M  V30 2271 O 387.148 -8.74358 0.335205 0
M  V30 2272 C 387.638 -6.83093 1.70294 0
M  V30 2273 C 386.928 -5.79992 0.836974 0
M  V30 2274 N 386.978 -4.41864 1.38293 0
M  V30 2275 H 384.139 -8.13644 3.0377 0
M  V30 2276 H 383.869 -6.42788 2.55485 0
M  V30 2277 H 384.736 -8.12039 0.792769 0
M  V30 2278 P 388.698 -8.91 -1.96915e-12 0
M  V30 2279 O 388.918 -10.1746 -0.733838 0
M  V30 2280 O 389.488 -8.73346 1.23964 0
M  V30 2281 O 388.948 -7.66872 -0.971405 0
M  V30 2282 C 388.008 -7.42405 -2.04668 0
M  V30 2283 C 388.738 -6.86059 -3.24661 0
M  V30 2284 O 388.948 -5.42934 -3.03695 0
M  V30 2285 C 390.138 -7.41287 -3.50796 0
M  V30 2286 O 390.528 -7.27073 -4.86816 0
M  V30 2287 C 391.018 -6.5273 -2.63741 0
M  V30 2288 C 390.308 -5.1842 -2.73198 0
M  V30 2289 N 390.358 -4.38762 -1.4784 0
M  V30 2290 H 387.52 -8.36899 -2.3252 0
M  V30 2291 H 387.248 -6.70391 -1.71179 0
M  V30 2292 H 388.116 -7.03638 -4.13219 0
M  V30 2293 H 390.771 -4.59931 -3.54016 0
M  V30 2294 H 391.051 -6.88995 -1.59871 0
M  V30 2295 H 392.042 -6.4684 -3.0373 0
M  V30 2296 H 390.208 -8.47002 -3.20749 0
M  V30 2297 P 392.078 -7.20834 -5.23717 0
M  V30 2298 O 392.298 -7.79853 -6.57286 0
M  V30 2299 O 392.868 -7.79239 -4.12957 0
M  V30 2300 O 392.328 -5.63315 -5.29344 0
M  V30 2301 C 391.388 -4.80255 -6.01876 0
M  V30 2302 C 392.118 -3.64202 -6.65911 0
M  V30 2303 O 392.328 -2.60694 -5.64732 0
M  V30 2304 C 393.518 -3.93473 -7.1943 0
M  V30 2305 O 393.908 -3.02071 -8.21205 0
M  V30 2306 C 394.398 -3.73047 -5.97036 0
M  V30 2307 C 393.688 -2.58828 -5.25741 0
M  V30 2308 N 393.738 -2.68068 -3.77503 0
M  V30 2309 H 390.899 -5.40332 -6.79951 0
M  V30 2310 H 390.629 -4.41613 -5.32378 0
M  V30 2311 H 391.496 -3.26331 -7.47797 0
M  V30 2312 P 395.458 -2.75334 -8.47391 0
M  V30 2313 O 395.678 -2.44595 -9.90239 0
M  V30 2314 O 396.248 -3.87732 -7.92204 0
M  V30 2315 O 395.708 -1.4459 -7.59357 0
M  V30 2316 C 394.768 -0.347563 -7.69115 0
M  V30 2317 C 395.498 0.96767 -7.52806 0
M  V30 2318 O 395.708 1.21036 -6.1011 0
M  V30 2319 C 396.898 1.04544 -8.13308 0
M  V30 2320 O 397.288 2.38311 -8.41922 0
M  V30 2321 C 397.778 0.491279 -7.02284 0
M  V30 2322 C 397.068 0.996264 -5.77469 0
M  V30 2323 N 397.118 0.0501808 -4.62873 0
M  V30 2324 C 397.268 0.588177 -3.36904 0
M  V30 2325 O 397.358 1.78598 -3.17173 0
M  V30 2326 N 397.308 -0.329694 -2.33686 0
M  V30 2327 C 397.218 -1.6953 -2.45079 0
M  V30 2328 C 397.068 -2.16933 -3.80505 0
M  V30 2329 C 397.018 -1.30326 -4.83752 0
M  V30 2330 H 394.278 -0.374722 -8.67691 0
M  V30 2331 H 394.009 -0.443421 -6.90177 0
M  V30 2332 H 394.876 1.75537 -7.96793 0
M  V30 2333 H 397.531 1.94496 -5.46629 0
M  V30 2334 H 397.81 -0.608651 -7.04676 0
M  V30 2335 H 398.802 0.889672 -7.08939 0
M  V30 2336 H 396.968 0.43308 -9.04564 0
M  V30 2337 H 396.897 -1.68366 -5.8516 0
M  V30 2338 P 398.838 2.75334 -8.47391 0
M  V30 2339 O 399.058 3.84204 -9.44982 0
M  V30 2340 O 399.628 1.51982 -8.68909 0
M  V30 2341 O 399.088 3.29363 -6.99321 0
M  V30 2342 C 398.148 4.24066 -6.42823 0
M  V30 2343 C 398.878 5.20775 -5.52155 0
M  V30 2344 O 399.088 4.56607 -4.22514 0
M  V30 2345 C 400.278 5.62697 -5.96604 0
M  V30 2346 O 400.668 6.87667 -5.41053 0
M  V30 2347 C 401.158 4.52537 -5.39283 0
M  V30 2348 C 400.448 4.20027 -4.08623 0
M  V30 2349 N 400.498 2.76189 -3.71603 0
M  V30 2350 H 397.66 4.79756 -7.24086 0
M  V30 2351 H 397.388 3.69963 -5.84682 0
M  V30 2352 H 398.256 6.10431 -5.41508 0
M  V30 2353 H 400.911 4.78816 -3.28024 0
M  V30 2354 H 401.191 3.64957 -6.05871 0
M  V30 2355 H 402.182 4.88748 -5.21323 0
M  V30 2356 H 400.348 5.66789 -7.0643 0
M  V30 2357 P 402.218 7.20834 -5.23717 0
M  V30 2358 O 402.438 8.66104 -5.38572 0
M  V30 2359 O 403.008 6.33544 -6.1349 0
M  V30 2360 O 402.468 6.7751 -3.72168 0
M  V30 2361 C 401.528 7.20825 -2.7076 0
M  V30 2362 C 402.258 7.45864 -1.40599 0
M  V30 2363 O 402.468 6.17651 -0.734225 0
M  V30 2364 C 403.658 8.05808 -1.51899 0
M  V30 2365 O 404.048 8.74358 -0.335205 0
M  V30 2366 C 404.538 6.83093 -1.70294 0
M  V30 2367 C 403.828 5.79992 -0.836974 0
M  V30 2368 N 403.878 4.41864 -1.38293 0
M  V30 2369 H 401.039 8.13644 -3.0377 0
M  V30 2370 H 400.769 6.42788 -2.55485 0
M  V30 2371 H 401.636 8.12039 -0.792769 0
M  V30 2372 P 405.598 8.91 2.12633e-12 0
M  V30 2373 O 405.818 10.1746 0.733838 0
M  V30 2374 O 406.388 8.73346 -1.23964 0
M  V30 2375 O 405.848 7.66872 0.971405 0
M  V30 2376 C 404.908 7.42405 2.04668 0
M  V30 2377 C 405.638 6.86059 3.24661 0
M  V30 2378 O 405.848 5.42934 3.03695 0
M  V30 2379 C 407.038 7.41287 3.50796 0
M  V30 2380 O 407.428 7.27073 4.86816 0
M  V30 2381 C 407.918 6.5273 2.63741 0
M  V30 2382 C 407.208 5.1842 2.73198 0
M  V30 2383 N 407.258 4.38762 1.4784 0
M  V30 2384 C 407.178 4.83651 0.183876 0
M  V30 2385 N 407.248 3.88759 -0.699393 0
M  V30 2386 C 407.398 2.7404 0.0575568 0
M  V30 2387 C 407.528 1.37902 -0.293928 0
M  V30 2388 N 407.538 0.938021 -1.54797 0
M  V30 2389 N 407.648 0.491817 0.70549 0
M  V30 2390 C 407.638 0.931735 1.95979 0
M  V30 2391 N 407.518 2.16017 2.41481 0
M  V30 2392 C 407.398 3.02547 1.39121 0
M  V30 2393 H 404.42 8.36899 2.3252 0
M  V30 2394 H 404.148 6.70391 1.71179 0
M  V30 2395 H 405.016 7.03638 4.13219 0
M  V30 2396 H 407.671 4.59931 3.54016 0
M  V30 2397 H 407.951 6.88995 1.59871 0
M  V30 2398 H 408.942 6.4684 3.0373 0
M  V30 2399 H 407.108 8.47002 3.20749 0
M  V30 2400 H 407.067 5.8885 -0.0765548 0
M  V30 2401 H 407.448 1.60276 -2.32875 0
M  V30 2402 H 407.637 -0.0699355 -1.73859 0
M  V30 2403 H 407.745 0.165507 2.71897 0
M  V30 2404 P 408.978 7.20834 5.23717 0
M  V30 2405 O 409.198 7.79853 6.57286 0
M  V30 2406 O 409.768 7.79239 4.12957 0
M  V30 2407 O 409.228 5.63315 5.29344 0
M  V30 2408 C 408.288 4.80255 6.01876 0
M  V30 2409 C 409.018 3.64202 6.65911 0
M  V30 2410 O 409.228 2.60694 5.64732 0
M  V30 2411 C 410.418 3.93473 7.1943 0
M  V30 2412 O 410.808 3.02071 8.21205 0
M  V30 2413 C 411.298 3.73047 5.97036 0
M  V30 2414 C 410.588 2.58828 5.25741 0
M  V30 2415 N 410.638 2.68068 3.77503 0
M  V30 2416 H 407.799 5.40332 6.79951 0
M  V30 2417 H 407.529 4.41613 5.32378 0
M  V30 2418 H 408.396 3.26331 7.47797 0
M  V30 2419 P 412.358 2.75334 8.47391 0
M  V30 2420 O 412.578 2.44571 9.90142 0
M  V30 2421 O 413.148 3.87688 7.92115 0
M  V30 2422 O 412.608 1.4459 7.59357 0
M  V30 2423 C 411.668 0.347608 7.69215 0
M  V30 2424 C 412.398 -0.96767 7.52806 0
M  V30 2425 O 412.608 -1.21036 6.1011 0
M  V30 2426 C 413.798 -1.04544 8.13308 0
M  V30 2427 O 414.188 -2.38311 8.41922 0
M  V30 2428 C 414.678 -0.491279 7.02284 0
M  V30 2429 C 413.968 -0.996264 5.77469 0
M  V30 2430 N 414.018 -0.0501916 4.62973 0
M  V30 2431 H 411.179 0.374722 8.67691 0
M  V30 2432 H 410.909 0.443485 6.90277 0
M  V30 2433 H 411.776 -1.75537 7.96793 0
M  V30 2434 P 415.738 -2.75334 8.47391 0
M  V30 2435 O 415.958 -3.84128 9.44797 0
M  V30 2436 O 416.528 -1.51947 8.68712 0
M  V30 2437 O 415.988 -3.29363 6.99321 0
M  V30 2438 C 415.048 -4.24011 6.4274 0
M  V30 2439 C 415.778 -5.20775 5.52155 0
M  V30 2440 O 415.988 -4.56534 4.22446 0
M  V30 2441 C 417.178 -5.62629 5.96531 0
M  V30 2442 O 417.568 -6.87667 5.41053 0
M  V30 2443 C 418.058 -4.52537 5.39283 0
M  V30 2444 C 417.348 -4.20027 4.08623 0
M  V30 2445 N 417.398 -2.76189 3.71603 0
M  V30 2446 H 414.559 -4.797 7.24003 0
M  V30 2447 H 414.289 -3.69856 5.84513 0
M  V30 2448 H 415.156 -6.10356 5.41441 0
M  V30 2449 P 419.118 -7.20834 5.23717 0
M  V30 2450 O 419.338 -8.66104 5.38572 0
M  V30 2451 O 419.908 -6.33544 6.1349 0
M  V30 2452 O 419.368 -6.7751 3.72168 0
M  V30 2453 C 418.428 -7.20825 2.7076 0
M  V30 2454 C 419.158 -7.45864 1.40599 0
M  V30 2455 O 419.368 -6.17651 0.734225 0
M  V30 2456 C 420.558 -8.05808 1.51899 0
M  V30 2457 O 420.948 -8.74358 0.335205 0
M  V30 2458 C 421.438 -6.83093 1.70294 0
M  V30 2459 C 420.728 -5.79992 0.836974 0
M  V30 2460 N 420.778 -4.41864 1.38293 0
M  V30 2461 H 417.939 -8.13644 3.0377 0
M  V30 2462 H 417.669 -6.42788 2.55485 0
M  V30 2463 H 418.536 -8.12039 0.792769 0
M  V30 2464 P 422.497 -8.91 -2.28351e-12 0
M  V30 2465 O 422.717 -10.1726 -0.733694 0
M  V30 2466 O 423.287 -8.73148 1.23936 0
M  V30 2467 O 422.747 -7.66872 -0.971405 0
M  V30 2468 C 421.807 -7.42309 -2.04641 0
M  V30 2469 C 422.537 -6.86059 -3.24661 0
M  V30 2470 O 422.747 -5.42847 -3.03646 0
M  V30 2471 C 423.937 -7.41196 -3.50753 0
M  V30 2472 O 424.327 -7.27073 -4.86816 0
M  V30 2473 C 424.817 -6.5273 -2.63741 0
M  V30 2474 C 424.107 -5.1842 -2.73198 0
M  V30 2475 N 424.157 -4.38762 -1.4784 0
M  V30 2476 H 421.318 -8.36803 -2.32493 0
M  V30 2477 H 421.048 -6.70197 -1.71129 0
M  V30 2478 H 421.915 -7.03551 -4.13168 0
M  V30 2479 P 425.877 -7.20834 -5.23717 0
M  V30 2480 O 426.097 -7.79853 -6.57286 0
M  V30 2481 O 426.667 -7.79239 -4.12957 0
M  V30 2482 O 426.127 -5.63315 -5.29344 0
M  V30 2483 C 425.187 -4.80255 -6.01876 0
M  V30 2484 C 425.917 -3.64202 -6.65911 0
M  V30 2485 O 426.127 -2.60694 -5.64732 0
M  V30 2486 C 427.317 -3.93473 -7.1943 0
M  V30 2487 O 427.707 -3.02071 -8.21205 0
M  V30 2488 C 428.197 -3.73047 -5.97036 0
M  V30 2489 C 427.487 -2.58828 -5.25741 0
M  V30 2490 N 427.537 -2.68068 -3.77503 0
M  V30 2491 C 427.457 -3.79715 -2.96723 0
M  V30 2492 N 427.537 -3.5377 -1.68852 0
M  V30 2493 C 427.677 -2.15054 -1.63254 0
M  V30 2494 C 427.807 -1.28964 -0.518571 0
M  V30 2495 O 427.827 -1.56826 0.679156 0
M  V30 2496 N 427.927 0.0538097 -0.918425 0
M  V30 2497 C 427.927 0.494275 -2.22578 0
M  V30 2498 N 428.057 1.81086 -2.40434 0
M  V30 2499 N 427.797 -0.313645 -3.27502 0
M  V30 2500 C 427.677 -1.61829 -2.91033 0
M  V30 2501 H 424.698 -5.40332 -6.79951 0
M  V30 2502 H 424.428 -4.41613 -5.32378 0
M  V30 2503 H 425.295 -3.26331 -7.47797 0
M  V30 2504 H 427.95 -1.63422 -5.56814 0
M  V30 2505 H 428.229 -4.63374 -5.34244 0
M  V30 2506 H 429.221 -3.44728 -6.25838 0
M  V30 2507 H 427.387 -4.96652 -7.57263 0
M  V30 2508 H 427.338 -4.80617 -3.3614 0
M  V30 2509 H 428.02 0.742702 -0.199384 0
M  V30 2510 H 428.057 2.20598 -3.35588 0
M  V30 2511 H 428.158 2.43518 -1.58945 0
M  V30 2512 P 429.257 -2.75334 -8.47391 0
M  V30 2513 O 429.477 -2.44595 -9.90239 0
M  V30 2514 O 430.047 -3.87732 -7.92204 0
M  V30 2515 O 429.507 -1.4459 -7.59357 0
M  V30 2516 C 428.567 -0.347563 -7.69115 0
M  V30 2517 C 429.297 0.96767 -7.52806 0
M  V30 2518 O 429.507 1.21036 -6.1011 0
M  V30 2519 C 430.697 1.04544 -8.13308 0
M  V30 2520 O 431.087 2.38311 -8.41922 0
M  V30 2521 C 431.577 0.491279 -7.02284 0
M  V30 2522 C 430.867 0.996264 -5.77469 0
M  V30 2523 N 430.917 0.0501808 -4.62873 0
M  V30 2524 C 431.067 0.588177 -3.36904 0
M  V30 2525 O 431.157 1.78598 -3.17173 0
M  V30 2526 N 431.107 -0.329694 -2.33686 0
M  V30 2527 C 431.017 -1.6953 -2.45079 0
M  V30 2528 C 430.867 -2.16933 -3.80505 0
M  V30 2529 C 430.817 -1.30326 -4.83752 0
M  V30 2530 H 428.077 -0.374722 -8.67691 0
M  V30 2531 H 427.808 -0.443421 -6.90177 0
M  V30 2532 H 428.675 1.75537 -7.96793 0
M  V30 2533 H 431.33 1.94496 -5.46629 0
M  V30 2534 H 431.609 -0.608651 -7.04676 0
M  V30 2535 H 432.601 0.889672 -7.08939 0
M  V30 2536 H 430.767 0.43308 -9.04564 0
M  V30 2537 H 430.696 -1.68366 -5.8516 0
M  V30 2538 P 432.637 2.75334 -8.47391 0
M  V30 2539 O 432.857 3.84128 -9.44797 0
M  V30 2540 O 433.427 1.51947 -8.68712 0
M  V30 2541 O 432.887 3.29363 -6.99321 0
M  V30 2542 C 431.947 4.24011 -6.4274 0
M  V30 2543 C 432.677 5.20775 -5.52155 0
M  V30 2544 O 432.887 4.56534 -4.22446 0
M  V30 2545 C 434.077 5.62629 -5.96531 0
M  V30 2546 O 434.467 6.87667 -5.41053 0
M  V30 2547 C 434.957 4.52537 -5.39283 0
M  V30 2548 C 434.247 4.20027 -4.08623 0
M  V30 2549 N 434.297 2.76189 -3.71603 0
M  V30 2550 H 431.458 4.797 -7.24003 0
M  V30 2551 H 431.188 3.69856 -5.84513 0
M  V30 2552 H 432.055 6.10356 -5.41441 0
M  V30 2553 P 436.017 7.20834 -5.23717 0
M  V30 2554 O 436.237 8.66104 -5.38572 0
M  V30 2555 O 436.807 6.33544 -6.1349 0
M  V30 2556 O 436.267 6.7751 -3.72168 0
M  V30 2557 C 435.327 7.20825 -2.7076 0
M  V30 2558 C 436.057 7.45864 -1.40599 0
M  V30 2559 O 436.267 6.17651 -0.734225 0
M  V30 2560 C 437.457 8.05808 -1.51899 0
M  V30 2561 O 437.847 8.74358 -0.335205 0
M  V30 2562 C 438.337 6.83093 -1.70294 0
M  V30 2563 C 437.627 5.79992 -0.836974 0
M  V30 2564 N 437.677 4.41864 -1.38293 0
M  V30 2565 C 437.597 3.99538 -2.69438 0
M  V30 2566 N 437.677 2.69909 -2.84277 0
M  V30 2567 C 437.817 2.21719 -1.5408 0
M  V30 2568 C 437.947 0.891712 -1.06628 0
M  V30 2569 O 437.967 -0.161298 -1.70137 0
M  V30 2570 N 438.067 0.856846 0.334985 0
M  V30 2571 C 438.067 1.9641 1.15789 0
M  V30 2572 N 438.197 1.72708 2.46522 0
M  V30 2573 N 437.937 3.21165 0.713741 0
M  V30 2574 C 437.817 3.26797 -0.639748 0
M  V30 2575 H 434.838 8.13644 -3.0377 0
M  V30 2576 H 434.568 6.42788 -2.55485 0
M  V30 2577 H 435.435 8.12039 -0.792769 0
M  V30 2578 H 438.09 5.80061 0.166416 0
M  V30 2579 H 438.369 6.51287 -2.75604 0
M  V30 2580 H 439.361 7.01734 -1.34462 0
M  V30 2581 H 437.527 8.73674 -2.38337 0
M  V30 2582 H 437.478 4.68207 -3.53221 0
M  V30 2583 H 438.16 -0.0398818 0.767965 0
M  V30 2584 H 438.197 2.50995 3.13503 0
M  V30 2585 H 438.298 0.759148 2.80716 0
M  V30 2586 P 439.397 8.91 2.44069e-12 0
M  V30 2587 O 439.617 10.1726 0.733694 0
M  V30 2588 O 440.187 8.73148 -1.23936 0
M  V30 2589 O 439.647 7.66872 0.971405 0
M  V30 2590 C 438.707 7.42309 2.04641 0
M  V30 2591 C 439.437 6.86059 3.24661 0
M  V30 2592 O 439.647 5.42847 3.03646 0
M  V30 2593 C 440.837 7.41196 3.50753 0
M  V30 2594 O 441.227 7.27073 4.86816 0
M  V30 2595 C 441.717 6.5273 2.63741 0
M  V30 2596 C 441.007 5.1842 2.73198 0
M  V30 2597 N 441.057 4.38762 1.4784 0
M  V30 2598 H 438.218 8.36803 2.32493 0
M  V30 2599 H 437.948 6.70197 1.71129 0
M  V30 2600 H 438.815 7.03551 4.13168 0
M  V30 2601 P 442.777 7.20834 5.23717 0
M  V30 2602 O 442.997 7.79853 6.57286 0
M  V30 2603 O 443.567 7.79239 4.12957 0
M  V30 2604 O 443.027 5.63315 5.29344 0
M  V30 2605 C 442.087 4.80255 6.01876 0
M  V30 2606 C 442.817 3.64202 6.65911 0
M  V30 2607 O 443.027 2.60694 5.64732 0
M  V30 2608 C 444.217 3.93473 7.1943 0
M  V30 2609 O 444.607 3.02071 8.21205 0
M  V30 2610 C 445.097 3.73047 5.97036 0
M  V30 2611 C 444.387 2.58828 5.25741 0
M  V30 2612 N 444.437 2.68068 3.77503 0
M  V30 2613 C 444.357 3.79715 2.96723 0
M  V30 2614 N 444.437 3.5377 1.68852 0
M  V30 2615 C 444.577 2.15054 1.63254 0
M  V30 2616 C 444.707 1.28964 0.518571 0
M  V30 2617 O 444.727 1.56826 -0.679156 0
M  V30 2618 N 444.827 -0.0538097 0.918425 0
M  V30 2619 C 444.827 -0.494275 2.22578 0
M  V30 2620 N 444.957 -1.81086 2.40434 0
M  V30 2621 N 444.697 0.313645 3.27502 0
M  V30 2622 C 444.577 1.61829 2.91033 0
M  V30 2623 H 441.598 5.40332 6.79951 0
M  V30 2624 H 441.328 4.41613 5.32378 0
M  V30 2625 H 442.195 3.26331 7.47797 0
M  V30 2626 H 444.85 1.63422 5.56814 0
M  V30 2627 H 445.129 4.63374 5.34244 0
M  V30 2628 H 446.121 3.44728 6.25838 0
M  V30 2629 H 444.287 4.96652 7.57263 0
M  V30 2630 H 444.238 4.80617 3.3614 0
M  V30 2631 H 444.92 -0.742702 0.199384 0
M  V30 2632 H 444.957 -2.20598 3.35588 0
M  V30 2633 H 445.058 -2.43518 1.58945 0
M  V30 2634 P 446.157 2.75334 8.47391 0
M  V30 2635 O 446.377 2.44571 9.90142 0
M  V30 2636 O 446.947 3.87688 7.92115 0
M  V30 2637 O 446.407 1.4459 7.59357 0
M  V30 2638 C 445.467 0.347608 7.69215 0
M  V30 2639 C 446.197 -0.96767 7.52806 0
M  V30 2640 O 446.407 -1.21036 6.1011 0
M  V30 2641 C 447.597 -1.04544 8.13308 0
M  V30 2642 O 447.987 -2.38311 8.41922 0
M  V30 2643 C 448.477 -0.491279 7.02284 0
M  V30 2644 C 447.767 -0.996264 5.77469 0
M  V30 2645 N 447.817 -0.0501916 4.62973 0
M  V30 2646 H 444.978 0.374722 8.67691 0
M  V30 2647 H 444.708 0.443485 6.90277 0
M  V30 2648 H 445.575 -1.75537 7.96793 0
M  V30 2649 P 449.537 -2.75334 8.47391 0
M  V30 2650 O 449.757 -3.84128 9.44797 0
M  V30 2651 O 450.327 -1.51947 8.68712 0
M  V30 2652 O 449.787 -3.29363 6.99321 0
M  V30 2653 C 448.847 -4.24011 6.4274 0
M  V30 2654 C 449.577 -5.20775 5.52155 0
M  V30 2655 O 449.787 -4.56534 4.22446 0
M  V30 2656 C 450.977 -5.62629 5.96531 0
M  V30 2657 O 451.367 -6.87667 5.41053 0
M  V30 2658 C 451.857 -4.52537 5.39283 0
M  V30 2659 C 451.147 -4.20027 4.08623 0
M  V30 2660 N 451.197 -2.76189 3.71603 0
M  V30 2661 H 448.358 -4.797 7.24003 0
M  V30 2662 H 448.088 -3.69856 5.84513 0
M  V30 2663 H 448.955 -6.10356 5.41441 0
M  V30 2664 P 452.917 -7.20834 5.23717 0
M  V30 2665 O 453.137 -8.66104 5.38572 0
M  V30 2666 O 453.707 -6.33544 6.1349 0
M  V30 2667 O 453.167 -6.7751 3.72168 0
M  V30 2668 C 452.227 -7.20825 2.7076 0
M  V30 2669 C 452.957 -7.45864 1.40599 0
M  V30 2670 O 453.167 -6.17651 0.734225 0
M  V30 2671 C 454.357 -8.05808 1.51899 0
M  V30 2672 O 454.747 -8.74358 0.335205 0
M  V30 2673 C 455.237 -6.83093 1.70294 0
M  V30 2674 C 454.527 -5.79992 0.836974 0
M  V30 2675 N 454.577 -4.41864 1.38293 0
M  V30 2676 H 451.738 -8.13644 3.0377 0
M  V30 2677 H 451.468 -6.42788 2.55485 0
M  V30 2678 H 452.335 -8.12039 0.792769 0
M  V30 2679 P 456.297 -8.91 -2.59788e-12 0
M  V30 2680 O 456.517 -10.1726 -0.733694 0
M  V30 2681 O 457.087 -8.73148 1.23936 0
M  V30 2682 O 456.547 -7.66872 -0.971405 0
M  V30 2683 C 455.607 -7.42309 -2.04641 0
M  V30 2684 C 456.337 -6.86059 -3.24661 0
M  V30 2685 O 456.547 -5.42847 -3.03646 0
M  V30 2686 C 457.737 -7.41196 -3.50753 0
M  V30 2687 O 458.127 -7.27073 -4.86816 0
M  V30 2688 C 458.617 -6.5273 -2.63741 0
M  V30 2689 C 457.907 -5.1842 -2.73198 0
M  V30 2690 N 457.957 -4.38762 -1.4784 0
M  V30 2691 C 457.877 -4.81605 -0.168631 0
M  V30 2692 N 457.957 -3.85454 0.713363 0
M  V30 2693 C 458.097 -2.6994 -0.0566958 0
M  V30 2694 C 458.227 -1.34815 0.338502 0
M  V30 2695 N 458.347 -0.496304 -0.77465 0
M  V30 2696 C 458.347 -0.908403 -2.09122 0
M  V30 2697 N 458.477 0.0517805 -3.00955 0
M  V30 2698 N 458.217 -2.17875 -2.46519 0
M  V30 2699 C 458.097 -3.01988 -1.4033 0
M  V30 2700 H 455.118 -8.36803 -2.32493 0
M  V30 2701 H 454.848 -6.70197 -1.71129 0
M  V30 2702 H 455.715 -7.03551 -4.13168 0
M  V30 2703 P 459.677 -7.20834 -5.23717 0
M  V30 2704 O 459.897 -7.79853 -6.57286 0
M  V30 2705 O 460.467 -7.79239 -4.12957 0
M  V30 2706 O 459.927 -5.63315 -5.29344 0
M  V30 2707 C 458.987 -4.80255 -6.01876 0
M  V30 2708 C 459.717 -3.64202 -6.65911 0
M  V30 2709 O 459.927 -2.60694 -5.64732 0
M  V30 2710 C 461.117 -3.93473 -7.1943 0
M  V30 2711 O 461.507 -3.02071 -8.21205 0
M  V30 2712 C 461.997 -3.73047 -5.97036 0
M  V30 2713 C 461.287 -2.58828 -5.25741 0
M  V30 2714 N 461.337 -2.68068 -3.77503 0
M  V30 2715 H 458.498 -5.40332 -6.79951 0
M  V30 2716 H 458.228 -4.41613 -5.32378 0
M  V30 2717 H 459.095 -3.26331 -7.47797 0
M  V30 2718 P 463.057 -2.75334 -8.47391 0
M  V30 2719 O 463.277 -2.44595 -9.90239 0
M  V30 2720 O 463.847 -3.87732 -7.92204 0
M  V30 2721 O 463.307 -1.4459 -7.59357 0
M  V30 2722 C 462.367 -0.347608 -7.69215 0
M  V30 2723 C 463.097 0.96767 -7.52806 0
M  V30 2724 O 463.307 1.21036 -6.1011 0
M  V30 2725 C 464.497 1.04544 -8.13308 0
M  V30 2726 O 464.887 2.38311 -8.41922 0
M  V30 2727 C 465.377 0.491279 -7.02284 0
M  V30 2728 C 464.667 0.996264 -5.77469 0
M  V30 2729 N 464.717 0.0501808 -4.62873 0
M  V30 2730 C 464.867 0.578037 -3.3505 0
M  V30 2731 O 464.957 1.8073 -3.21711 0
M  V30 2732 N 464.917 -0.468541 -2.263 0
M  V30 2733 C 464.817 -1.59186 -2.47176 0
M  V30 2734 N 464.867 -2.37626 -1.40392 0
M  V30 2735 C 464.667 -2.16203 -3.77467 0
M  V30 2736 C 464.617 -1.29324 -4.8195 0
M  V30 2737 H 461.877 -0.374679 -8.67591 0
M  V30 2738 H 461.608 -0.443421 -6.90177 0
M  V30 2739 H 462.475 1.75559 -7.96891 0
M  V30 2740 H 465.13 1.94529 -5.46723 0
M  V30 2741 H 465.409 -0.608651 -7.04676 0
M  V30 2742 H 466.401 0.889672 -7.08939 0
M  V30 2743 H 464.567 0.43308 -9.04564 0
M  V30 2744 H 464.495 -1.67758 -5.83046 0
M  V30 2745 H 464.597 -3.23869 -3.92281 0
M  V30 2746 H 464.985 -1.96317 -0.467202 0
M  V30 2747 H 464.788 -3.39693 -1.51142 0
M  V30 2748 P 466.437 2.75334 -8.47391 0
M  V30 2749 O 466.657 3.84128 -9.44797 0
M  V30 2750 O 467.227 1.51947 -8.68712 0
M  V30 2751 O 466.687 3.29363 -6.99321 0
M  V30 2752 C 465.747 4.24011 -6.4274 0
M  V30 2753 C 466.477 5.20775 -5.52155 0
M  V30 2754 O 466.687 4.56534 -4.22446 0
M  V30 2755 C 467.877 5.62629 -5.96531 0
M  V30 2756 O 468.267 6.87667 -5.41053 0
M  V30 2757 C 468.757 4.52537 -5.39283 0
M  V30 2758 C 468.047 4.20027 -4.08623 0
M  V30 2759 N 468.097 2.76189 -3.71603 0
M  V30 2760 H 465.258 4.797 -7.24003 0
M  V30 2761 H 464.988 3.69856 -5.84513 0
M  V30 2762 H 465.855 6.10356 -5.41441 0
M  V30 2763 P 469.817 7.20834 -5.23717 0
M  V30 2764 O 470.037 8.66104 -5.38572 0
M  V30 2765 O 470.607 6.33544 -6.1349 0
M  V30 2766 O 470.067 6.7751 -3.72168 0
M  V30 2767 C 469.127 7.20825 -2.7076 0
M  V30 2768 C 469.857 7.45864 -1.40599 0
M  V30 2769 O 470.067 6.17651 -0.734225 0
M  V30 2770 C 471.257 8.05808 -1.51899 0
M  V30 2771 O 471.647 8.74358 -0.335205 0
M  V30 2772 C 472.137 6.83093 -1.70294 0
M  V30 2773 C 471.427 5.79992 -0.836974 0
M  V30 2774 N 471.477 4.41864 -1.38293 0
M  V30 2775 H 468.638 8.13644 -3.0377 0
M  V30 2776 H 468.368 6.42788 -2.55485 0
M  V30 2777 H 469.235 8.12039 -0.792769 0
M  V30 2778 P 473.197 8.91 2.75506e-12 0
M  V30 2779 O 473.417 10.1726 0.733694 0
M  V30 2780 O 473.987 8.73148 -1.23936 0
M  V30 2781 O 473.447 7.66872 0.971405 0
M  V30 2782 C 472.507 7.42309 2.04641 0
M  V30 2783 C 473.237 6.86059 3.24661 0
M  V30 2784 O 473.447 5.42847 3.03646 0
M  V30 2785 C 474.637 7.41196 3.50753 0
M  V30 2786 O 475.027 7.27073 4.86816 0
M  V30 2787 C 475.517 6.5273 2.63741 0
M  V30 2788 C 474.807 5.1842 2.73198 0
M  V30 2789 N 474.857 4.38762 1.4784 0
M  V30 2790 H 472.018 8.36803 2.32493 0
M  V30 2791 H 471.748 6.70197 1.71129 0
M  V30 2792 H 472.615 7.03551 4.13168 0
M  V30 2793 P 476.577 7.20834 5.23717 0
M  V30 2794 O 476.797 7.79853 6.57286 0
M  V30 2795 O 477.367 7.79239 4.12957 0
M  V30 2796 O 476.827 5.63315 5.29344 0
M  V30 2797 C 475.887 4.80255 6.01876 0
M  V30 2798 C 476.617 3.64202 6.65911 0
M  V30 2799 O 476.827 2.60694 5.64732 0
M  V30 2800 C 478.017 3.93473 7.1943 0
M  V30 2801 O 478.407 3.02071 8.21205 0
M  V30 2802 C 478.897 3.73047 5.97036 0
M  V30 2803 C 478.187 2.58828 5.25741 0
M  V30 2804 N 478.237 2.68068 3.77503 0
M  V30 2805 H 475.398 5.40332 6.79951 0
M  V30 2806 H 475.128 4.41613 5.32378 0
M  V30 2807 H 475.995 3.26331 7.47797 0
M  V30 2808 P 479.957 2.75334 8.47391 0
M  V30 2809 O 480.177 2.44571 9.90142 0
M  V30 2810 O 480.747 3.87688 7.92115 0
M  V30 2811 O 480.207 1.4459 7.59357 0
M  V30 2812 C 479.267 0.347608 7.69215 0
M  V30 2813 C 479.997 -0.96767 7.52806 0
M  V30 2814 O 480.207 -1.21036 6.1011 0
M  V30 2815 C 481.397 -1.04544 8.13308 0
M  V30 2816 O 481.787 -2.38311 8.41922 0
M  V30 2817 C 482.277 -0.491279 7.02284 0
M  V30 2818 C 481.567 -0.996264 5.77469 0
M  V30 2819 N 481.617 -0.0501916 4.62973 0
M  V30 2820 H 478.778 0.374722 8.67691 0
M  V30 2821 H 478.508 0.443485 6.90277 0
M  V30 2822 H 479.375 -1.75537 7.96793 0
M  V30 2823 P 483.337 -2.75334 8.47391 0
M  V30 2824 O 483.557 -3.84166 9.4489 0
M  V30 2825 O 484.127 -1.51964 8.6881 0
M  V30 2826 O 483.587 -3.29363 6.99321 0
M  V30 2827 C 482.647 -4.23956 6.42656 0
M  V30 2828 C 483.377 -5.20775 5.52155 0
M  V30 2829 O 483.587 -4.56534 4.22446 0
M  V30 2830 C 484.777 -5.62629 5.96531 0
M  V30 2831 O 485.167 -6.87667 5.41053 0
M  V30 2832 C 485.657 -4.52537 5.39283 0
M  V30 2833 C 484.947 -4.20027 4.08623 0
M  V30 2834 N 484.997 -2.7613 3.71522 0
M  V30 2835 C 485.147 -2.45612 2.37989 0
M  V30 2836 O 485.237 -3.30919 1.51621 0
M  V30 2837 N 485.187 -1.10684 2.08435 0
M  V30 2838 C 485.097 -0.0690084 2.9792 0
M  V30 2839 C 484.947 -0.481522 4.35345 0
M  V30 2840 C 484.897 -1.78906 4.67968 0
M  V30 2841 H 482.157 -4.797 7.24003 0
M  V30 2842 H 481.888 -3.69802 5.84429 0
M  V30 2843 H 482.755 -6.10356 5.41441 0
M  V30 2844 H 485.41 -4.78651 3.27911 0
M  V30 2845 H 485.689 -3.64957 6.05871 0
M  V30 2846 H 486.681 -4.8868 5.2125 0
M  V30 2847 H 484.847 -5.66726 7.06352 0
M  V30 2848 H 484.776 -2.07737 5.72367 0
M  V30 2849 P 486.717 -7.20834 5.23717 0
M  V30 2850 O 486.937 -8.66104 5.38572 0
M  V30 2851 O 487.507 -6.33544 6.1349 0
M  V30 2852 O 486.967 -6.7751 3.72168 0
M  V30 2853 C 486.027 -7.20825 2.7076 0
M  V30 2854 C 486.757 -7.45864 1.40599 0
M  V30 2855 O 486.967 -6.17651 0.734225 0
M  V30 2856 C 488.157 -8.05808 1.51899 0
M  V30 2857 O 488.547 -8.74358 0.335205 0
M  V30 2858 C 489.037 -6.83093 1.70294 0
M  V30 2859 C 488.327 -5.79992 0.836974 0
M  V30 2860 N 488.377 -4.41864 1.38293 0
M  V30 2861 C 488.297 -3.99538 2.69438 0
M  V30 2862 N 488.377 -2.69909 2.84277 0
M  V30 2863 C 488.517 -2.21719 1.5408 0
M  V30 2864 C 488.647 -0.891712 1.06628 0
M  V30 2865 O 488.667 0.161298 1.70137 0
M  V30 2866 N 488.767 -0.856846 -0.334985 0
M  V30 2867 C 488.767 -1.9641 -1.15789 0
M  V30 2868 N 488.897 -1.72708 -2.46522 0
M  V30 2869 N 488.637 -3.21165 -0.713741 0
M  V30 2870 C 488.517 -3.26797 0.639748 0
M  V30 2871 H 485.538 -8.13644 3.0377 0
M  V30 2872 H 485.268 -6.42788 2.55485 0
M  V30 2873 H 486.135 -8.12039 0.792769 0
M  V30 2874 H 488.79 -5.80061 -0.166416 0
M  V30 2875 H 489.069 -6.51287 2.75604 0
M  V30 2876 H 490.061 -7.01734 1.34462 0
M  V30 2877 H 488.227 -8.73674 2.38337 0
M  V30 2878 H 488.178 -4.68207 3.53221 0
M  V30 2879 H 488.86 0.0398818 -0.767965 0
M  V30 2880 H 488.897 -2.50995 -3.13503 0
M  V30 2881 H 488.998 -0.759148 -2.80716 0
M  V30 2882 P 490.097 -8.91 -2.91224e-12 0
M  V30 2883 O 490.317 -10.1726 -0.733694 0
M  V30 2884 O 490.887 -8.73148 1.23936 0
M  V30 2885 O 490.347 -7.66872 -0.971405 0
M  V30 2886 C 489.407 -7.42309 -2.04641 0
M  V30 2887 C 490.137 -6.86059 -3.24661 0
M  V30 2888 O 490.347 -5.42847 -3.03646 0
M  V30 2889 C 491.537 -7.41196 -3.50753 0
M  V30 2890 O 491.927 -7.27073 -4.86816 0
M  V30 2891 C 492.417 -6.5273 -2.63741 0
M  V30 2892 C 491.707 -5.1842 -2.73198 0
M  V30 2893 N 491.757 -4.38762 -1.4784 0
M  V30 2894 H 488.918 -8.36803 -2.32493 0
M  V30 2895 H 488.648 -6.70197 -1.71129 0
M  V30 2896 H 489.515 -7.03551 -4.13168 0
M  V30 2897 P 493.477 -7.20834 -5.23717 0
M  V30 2898 O 493.697 -7.79853 -6.57286 0
M  V30 2899 O 494.267 -7.79239 -4.12957 0
M  V30 2900 O 493.727 -5.63315 -5.29344 0
M  V30 2901 C 492.787 -4.80255 -6.01876 0
M  V30 2902 C 493.517 -3.64202 -6.65911 0
M  V30 2903 O 493.727 -2.60694 -5.64732 0
M  V30 2904 C 494.917 -3.93473 -7.1943 0
M  V30 2905 O 495.307 -3.02071 -8.21205 0
M  V30 2906 C 495.797 -3.73047 -5.97036 0
M  V30 2907 C 495.087 -2.58828 -5.25741 0
M  V30 2908 N 495.137 -2.68068 -3.77503 0
M  V30 2909 C 495.057 -3.79715 -2.96723 0
M  V30 2910 N 495.137 -3.5377 -1.68852 0
M  V30 2911 C 495.277 -2.15054 -1.63254 0
M  V30 2912 C 495.407 -1.28964 -0.518571 0
M  V30 2913 O 495.427 -1.56826 0.679156 0
M  V30 2914 N 495.527 0.0538097 -0.918425 0
M  V30 2915 C 495.527 0.494275 -2.22578 0
M  V30 2916 N 495.657 1.81086 -2.40434 0
M  V30 2917 N 495.397 -0.313645 -3.27502 0
M  V30 2918 C 495.277 -1.61829 -2.91033 0
M  V30 2919 H 492.298 -5.40332 -6.79951 0
M  V30 2920 H 492.028 -4.41613 -5.32378 0
M  V30 2921 H 492.895 -3.26331 -7.47797 0
M  V30 2922 H 495.55 -1.63422 -5.56814 0
M  V30 2923 H 495.829 -4.63374 -5.34244 0
M  V30 2924 H 496.821 -3.44728 -6.25838 0
M  V30 2925 H 494.987 -4.96652 -7.57263 0
M  V30 2926 H 494.938 -4.80617 -3.3614 0
M  V30 2927 H 495.62 0.742702 -0.199384 0
M  V30 2928 H 495.657 2.20598 -3.35588 0
M  V30 2929 H 495.758 2.43518 -1.58945 0
M  V30 2930 P 496.857 -2.75334 -8.47391 0
M  V30 2931 O 497.077 -2.44571 -9.90142 0
M  V30 2932 O 497.647 -3.87688 -7.92115 0
M  V30 2933 O 497.107 -1.4459 -7.59357 0
M  V30 2934 C 496.167 -0.347608 -7.69215 0
M  V30 2935 C 496.897 0.96767 -7.52806 0
M  V30 2936 O 497.107 1.21036 -6.1011 0
M  V30 2937 C 498.297 1.04544 -8.13308 0
M  V30 2938 O 498.687 2.38311 -8.41922 0
M  V30 2939 C 499.177 0.491279 -7.02284 0
M  V30 2940 C 498.467 0.996264 -5.77469 0
M  V30 2941 N 498.517 0.0501916 -4.62973 0
M  V30 2942 H 495.678 -0.374722 -8.67691 0
M  V30 2943 H 495.408 -0.443485 -6.90277 0
M  V30 2944 H 496.275 1.75537 -7.96793 0
M  V30 2945 P 500.237 2.75334 -8.47391 0
M  V30 2946 O 500.457 3.84128 -9.44797 0
M  V30 2947 O 501.027 1.51947 -8.68712 0
M  V30 2948 O 500.487 3.29363 -6.99321 0
M  V30 2949 C 499.547 4.24011 -6.4274 0
M  V30 2950 C 500.277 5.20775 -5.52155 0
M  V30 2951 O 500.487 4.56534 -4.22446 0
M  V30 2952 C 501.677 5.62629 -5.96531 0
M  V30 2953 O 502.067 6.87667 -5.41053 0
M  V30 2954 C 502.557 4.52537 -5.39283 0
M  V30 2955 C 501.847 4.20027 -4.08623 0
M  V30 2956 N 501.897 2.76189 -3.71603 0
M  V30 2957 H 499.058 4.797 -7.24003 0
M  V30 2958 H 498.788 3.69856 -5.84513 0
M  V30 2959 H 499.655 6.10356 -5.41441 0
M  V30 2960 P 503.617 7.20834 -5.23717 0
M  V30 2961 O 503.837 8.66104 -5.38572 0
M  V30 2962 O 504.407 6.33544 -6.1349 0
M  V30 2963 O 503.867 6.7751 -3.72168 0
M  V30 2964 C 502.927 7.20825 -2.7076 0
M  V30 2965 C 503.657 7.45864 -1.40599 0
M  V30 2966 O 503.867 6.17651 -0.734225 0
M  V30 2967 C 505.057 8.05808 -1.51899 0
M  V30 2968 O 505.447 8.74358 -0.335205 0
M  V30 2969 C 505.937 6.83093 -1.70294 0
M  V30 2970 C 505.227 5.79992 -0.836974 0
M  V30 2971 N 505.277 4.41864 -1.38293 0
M  V30 2972 H 502.438 8.13644 -3.0377 0
M  V30 2973 H 502.168 6.42788 -2.55485 0
M  V30 2974 H 503.035 8.12039 -0.792769 0
M  V30 2975 P 506.997 8.91 3.06942e-12 0
M  V30 2976 O 507.217 10.1746 0.733838 0
M  V30 2977 O 507.787 8.73346 -1.23964 0
M  V30 2978 O 507.247 7.66872 0.971405 0
M  V30 2979 C 506.307 7.42405 2.04668 0
M  V30 2980 C 507.037 6.86059 3.24661 0
M  V30 2981 O 507.247 5.42934 3.03695 0
M  V30 2982 C 508.437 7.41287 3.50796 0
M  V30 2983 O 508.827 7.27073 4.86816 0
M  V30 2984 C 509.317 6.5273 2.63741 0
M  V30 2985 C 508.607 5.1842 2.73198 0
M  V30 2986 N 508.657 4.38762 1.4784 0
M  V30 2987 H 505.819 8.36899 2.3252 0
M  V30 2988 H 505.547 6.70391 1.71179 0
M  V30 2989 H 506.415 7.03638 4.13219 0
M  V30 2990 H 509.07 4.59931 3.54016 0
M  V30 2991 H 509.35 6.88995 1.59871 0
M  V30 2992 H 510.341 6.4684 3.0373 0
M  V30 2993 H 508.507 8.47002 3.20749 0
M  V30 2994 P 510.377 7.20834 5.23717 0
M  V30 2995 O 510.597 7.79853 6.57286 0
M  V30 2996 O 511.167 7.79239 4.12957 0
M  V30 2997 O 510.627 5.63315 5.29344 0
M  V30 2998 C 509.687 4.80255 6.01876 0
M  V30 2999 C 510.417 3.64202 6.65911 0
M  V30 3000 O 510.627 2.60694 5.64732 0
M  V30 3001 C 511.817 3.93473 7.1943 0
M  V30 3002 O 512.207 3.02071 8.21205 0
M  V30 3003 C 512.697 3.73047 5.97036 0
M  V30 3004 C 511.987 2.58828 5.25741 0
M  V30 3005 N 512.037 2.68068 3.77503 0
M  V30 3006 H 509.198 5.40332 6.79951 0
M  V30 3007 H 508.928 4.41613 5.32378 0
M  V30 3008 H 509.795 3.26331 7.47797 0
M  V30 3009 P 513.757 2.75334 8.47391 0
M  V30 3010 O 513.977 2.44571 9.90142 0
M  V30 3011 O 514.547 3.87688 7.92115 0
M  V30 3012 O 514.007 1.4459 7.59357 0
M  V30 3013 C 513.067 0.347608 7.69215 0
M  V30 3014 C 513.797 -0.96767 7.52806 0
M  V30 3015 O 514.007 -1.21036 6.1011 0
M  V30 3016 C 515.197 -1.04544 8.13308 0
M  V30 3017 O 515.587 -2.38311 8.41922 0
M  V30 3018 C 516.077 -0.491279 7.02284 0
M  V30 3019 C 515.367 -0.996264 5.77469 0
M  V30 3020 N 515.417 -0.0501916 4.62973 0
M  V30 3021 H 512.578 0.374722 8.67691 0
M  V30 3022 H 512.308 0.443485 6.90277 0
M  V30 3023 H 513.175 -1.75537 7.96793 0
M  V30 3024 P 517.137 -2.75334 8.47391 0
M  V30 3025 O 517.357 -3.84128 9.44797 0
M  V30 3026 O 517.927 -1.51947 8.68712 0
M  V30 3027 O 517.387 -3.29363 6.99321 0
M  V30 3028 C 516.447 -4.24011 6.4274 0
M  V30 3029 C 517.177 -5.20775 5.52155 0
M  V30 3030 O 517.387 -4.56534 4.22446 0
M  V30 3031 C 518.577 -5.62629 5.96531 0
M  V30 3032 O 518.967 -6.87667 5.41053 0
M  V30 3033 C 519.457 -4.52537 5.39283 0
M  V30 3034 C 518.747 -4.20027 4.08623 0
M  V30 3035 N 518.797 -2.76189 3.71603 0
M  V30 3036 H 515.958 -4.797 7.24003 0
M  V30 3037 H 515.688 -3.69856 5.84513 0
M  V30 3038 H 516.555 -6.10356 5.41441 0
M  V30 3039 P 520.517 -7.20834 5.23717 0
M  V30 3040 O 520.737 -8.66104 5.38572 0
M  V30 3041 O 521.307 -6.33544 6.1349 0
M  V30 3042 O 520.767 -6.7751 3.72168 0
M  V30 3043 C 519.827 -7.20825 2.7076 0
M  V30 3044 C 520.557 -7.45864 1.40599 0
M  V30 3045 O 520.767 -6.17651 0.734225 0
M  V30 3046 C 521.957 -8.05808 1.51899 0
M  V30 3047 O 522.347 -8.74358 0.335205 0
M  V30 3048 C 522.837 -6.83093 1.70294 0
M  V30 3049 C 522.127 -5.79992 0.836974 0
M  V30 3050 N 522.177 -4.41864 1.38293 0
M  V30 3051 C 522.097 -3.99538 2.69438 0
M  V30 3052 N 522.177 -2.69909 2.84277 0
M  V30 3053 C 522.317 -2.21719 1.5408 0
M  V30 3054 C 522.447 -0.891712 1.06628 0
M  V30 3055 O 522.467 0.161298 1.70137 0
M  V30 3056 N 522.567 -0.856846 -0.334985 0
M  V30 3057 C 522.567 -1.9641 -1.15789 0
M  V30 3058 N 522.697 -1.72708 -2.46522 0
M  V30 3059 N 522.437 -3.21165 -0.713741 0
M  V30 3060 C 522.317 -3.26797 0.639748 0
M  V30 3061 H 519.338 -8.13644 3.0377 0
M  V30 3062 H 519.068 -6.42788 2.55485 0
M  V30 3063 H 519.935 -8.12039 0.792769 0
M  V30 3064 H 522.59 -5.80061 -0.166416 0
M  V30 3065 H 522.869 -6.51287 2.75604 0
M  V30 3066 H 523.861 -7.01734 1.34462 0
M  V30 3067 H 522.027 -8.73674 2.38337 0
M  V30 3068 H 521.978 -4.68207 3.53221 0
M  V30 3069 H 522.66 0.0398818 -0.767965 0
M  V30 3070 H 522.697 -2.50995 -3.13503 0
M  V30 3071 H 522.798 -0.759148 -2.80716 0
M  V30 3072 P 523.897 -8.91 -3.22661e-12 0
M  V30 3073 O 524.117 -10.1726 -0.733694 0
M  V30 3074 O 524.687 -8.73148 1.23936 0
M  V30 3075 O 524.147 -7.66872 -0.971405 0
M  V30 3076 C 523.207 -7.42309 -2.04641 0
M  V30 3077 C 523.937 -6.86059 -3.24661 0
M  V30 3078 O 524.147 -5.42847 -3.03646 0
M  V30 3079 C 525.337 -7.41196 -3.50753 0
M  V30 3080 O 525.727 -7.27073 -4.86816 0
M  V30 3081 C 526.217 -6.5273 -2.63741 0
M  V30 3082 C 525.507 -5.1842 -2.73198 0
M  V30 3083 N 525.557 -4.38762 -1.4784 0
M  V30 3084 C 525.477 -4.81605 -0.168631 0
M  V30 3085 N 525.557 -3.85454 0.713363 0
M  V30 3086 C 525.697 -2.6994 -0.0566958 0
M  V30 3087 C 525.827 -1.34815 0.338502 0
M  V30 3088 N 525.947 -0.496304 -0.77465 0
M  V30 3089 C 525.947 -0.908403 -2.09122 0
M  V30 3090 N 526.077 0.0517805 -3.00955 0
M  V30 3091 N 525.817 -2.17875 -2.46519 0
M  V30 3092 C 525.697 -3.01988 -1.4033 0
M  V30 3093 H 522.718 -8.36803 -2.32493 0
M  V30 3094 H 522.448 -6.70197 -1.71129 0
M  V30 3095 H 523.315 -7.03551 -4.13168 0
M  V30 3096 P 527.277 -7.20834 -5.23717 0
M  V30 3097 O 527.497 -7.79853 -6.57286 0
M  V30 3098 O 528.067 -7.79239 -4.12957 0
M  V30 3099 O 527.527 -5.63315 -5.29344 0
M  V30 3100 C 526.587 -4.80255 -6.01876 0
M  V30 3101 C 527.317 -3.64202 -6.65911 0
M  V30 3102 O 527.527 -2.60694 -5.64732 0
M  V30 3103 C 528.717 -3.93473 -7.1943 0
M  V30 3104 O 529.107 -3.02071 -8.21205 0
M  V30 3105 C 529.597 -3.73047 -5.97036 0
M  V30 3106 C 528.887 -2.58828 -5.25741 0
M  V30 3107 N 528.937 -2.68068 -3.77503 0
M  V30 3108 H 526.098 -5.40332 -6.79951 0
M  V30 3109 H 525.828 -4.41613 -5.32378 0
M  V30 3110 H 526.695 -3.26331 -7.47797 0
M  V30 3111 P 530.657 -2.75334 -8.47391 0
M  V30 3112 O 530.877 -2.44571 -9.90142 0
M  V30 3113 O 531.447 -3.87688 -7.92115 0
M  V30 3114 O 530.907 -1.4459 -7.59357 0
M  V30 3115 C 529.967 -0.347608 -7.69215 0
M  V30 3116 C 530.697 0.96767 -7.52806 0
M  V30 3117 O 530.907 1.21036 -6.1011 0
M  V30 3118 C 532.097 1.04544 -8.13308 0
M  V30 3119 O 532.487 2.38311 -8.41922 0
M  V30 3120 C 532.977 0.491279 -7.02284 0
M  V30 3121 C 532.267 0.996264 -5.77469 0
M  V30 3122 N 532.317 0.0501916 -4.62973 0
M  V30 3123 H 529.478 -0.374722 -8.67691 0
M  V30 3124 H 529.208 -0.443485 -6.90277 0
M  V30 3125 H 530.075 1.75537 -7.96793 0
M  V30 3126 P 534.037 2.75334 -8.47391 0
M  V30 3127 O 534.257 3.84128 -9.44797 0
M  V30 3128 O 534.827 1.51947 -8.68712 0
M  V30 3129 O 534.287 3.29363 -6.99321 0
M  V30 3130 C 533.347 4.24011 -6.4274 0
M  V30 3131 C 534.077 5.20775 -5.52155 0
M  V30 3132 O 534.287 4.56534 -4.22446 0
M  V30 3133 C 535.477 5.62629 -5.96531 0
M  V30 3134 O 535.867 6.87667 -5.41053 0
M  V30 3135 C 536.357 4.52537 -5.39283 0
M  V30 3136 C 535.647 4.20027 -4.08623 0
M  V30 3137 N 535.697 2.76189 -3.71603 0
M  V30 3138 H 532.858 4.797 -7.24003 0
M  V30 3139 H 532.588 3.69856 -5.84513 0
M  V30 3140 H 533.455 6.10356 -5.41441 0
M  V30 3141 P 537.417 7.20834 -5.23717 0
M  V30 3142 O 537.637 8.66274 -5.38678 0
M  V30 3143 O 538.207 6.33687 -6.13629 0
M  V30 3144 O 537.667 6.7751 -3.72168 0
M  V30 3145 C 536.727 7.20919 -2.70795 0
M  V30 3146 C 537.457 7.45864 -1.40599 0
M  V30 3147 O 537.667 6.17751 -0.734343 0
M  V30 3148 C 538.857 8.05906 -1.51917 0
M  V30 3149 O 539.247 8.74358 -0.335205 0
M  V30 3150 C 539.737 6.83093 -1.70294 0
M  V30 3151 C 539.027 5.79992 -0.836974 0
M  V30 3152 N 539.077 4.41864 -1.38293 0
M  V30 3153 C 538.997 4.02089 -2.69407 0
M  V30 3154 N 539.067 2.73403 -2.85089 0
M  V30 3155 C 539.217 2.25086 -1.5642 0
M  V30 3156 C 539.347 0.942887 -1.04836 0
M  V30 3157 N 539.357 -0.150999 -1.80369 0
M  V30 3158 N 539.467 0.812565 0.28167 0
M  V30 3159 C 539.457 1.90572 1.03784 0
M  V30 3160 N 539.337 3.167 0.683905 0
M  V30 3161 C 539.217 3.26538 -0.652815 0
M  V30 3162 H 536.239 8.13738 -3.03804 0
M  V30 3163 H 535.967 6.42974 -2.55559 0
M  V30 3164 H 536.835 8.12139 -0.792866 0
M  V30 3165 H 539.49 5.80178 0.160643 0
M  V30 3166 H 539.77 6.51379 -2.75643 0
M  V30 3167 H 540.761 7.01832 -1.3448 0
M  V30 3168 H 538.927 8.73771 -2.38364 0
M  V30 3169 H 538.886 4.7189 -3.52311 0
M  V30 3170 H 539.267 -0.0721434 -2.82608 0
M  V30 3171 H 539.456 -1.0785 -1.36544 0
M  V30 3172 H 539.564 1.73207 2.10241 0
M  V30 3173 P 540.797 8.91 3.38379e-12 0
M  V30 3174 O 541.017 10.1726 0.733694 0
M  V30 3175 O 541.587 8.73148 -1.23936 0
M  V30 3176 O 541.047 7.66872 0.971405 0
M  V30 3177 C 540.107 7.42309 2.04641 0
M  V30 3178 C 540.837 6.86059 3.24661 0
M  V30 3179 O 541.047 5.42847 3.03646 0
M  V30 3180 C 542.237 7.41196 3.50753 0
M  V30 3181 O 542.627 7.27073 4.86816 0
M  V30 3182 C 543.117 6.5273 2.63741 0
M  V30 3183 C 542.407 5.1842 2.73198 0
M  V30 3184 N 542.457 4.38762 1.4784 0
M  V30 3185 H 539.618 8.36803 2.32493 0
M  V30 3186 H 539.348 6.70197 1.71129 0
M  V30 3187 H 540.215 7.03551 4.13168 0
M  V30 3188 P 544.177 7.20834 5.23717 0
M  V30 3189 O 544.397 7.79853 6.57286 0
M  V30 3190 O 544.967 7.79239 4.12957 0
M  V30 3191 O 544.427 5.63315 5.29344 0
M  V30 3192 C 543.487 4.80255 6.01876 0
M  V30 3193 C 544.217 3.64202 6.65911 0
M  V30 3194 O 544.427 2.60694 5.64732 0
M  V30 3195 C 545.617 3.93473 7.1943 0
M  V30 3196 O 546.007 3.02071 8.21205 0
M  V30 3197 C 546.497 3.73047 5.97036 0
M  V30 3198 C 545.787 2.58828 5.25741 0
M  V30 3199 N 545.837 2.68068 3.77503 0
M  V30 3200 H 542.998 5.40332 6.79951 0
M  V30 3201 H 542.728 4.41613 5.32378 0
M  V30 3202 H 543.595 3.26331 7.47797 0
M  V30 3203 P 547.557 2.75334 8.47391 0
M  V30 3204 O 547.777 2.44571 9.90142 0
M  V30 3205 O 548.347 3.87688 7.92115 0
M  V30 3206 O 547.807 1.4459 7.59357 0
M  V30 3207 C 546.867 0.347608 7.69215 0
M  V30 3208 C 547.597 -0.96767 7.52806 0
M  V30 3209 O 547.807 -1.21036 6.1011 0
M  V30 3210 C 548.997 -1.04544 8.13308 0
M  V30 3211 O 549.387 -2.38311 8.41922 0
M  V30 3212 C 549.877 -0.491279 7.02284 0
M  V30 3213 C 549.167 -0.996264 5.77469 0
M  V30 3214 N 549.217 -0.0501916 4.62973 0
M  V30 3215 H 546.378 0.374722 8.67691 0
M  V30 3216 H 546.108 0.443485 6.90277 0
M  V30 3217 H 546.975 -1.75537 7.96793 0
M  V30 3218 P 550.937 -2.75334 8.47391 0
M  V30 3219 O 551.157 -3.84128 9.44797 0
M  V30 3220 O 551.727 -1.51947 8.68712 0
M  V30 3221 O 551.187 -3.29363 6.99321 0
M  V30 3222 C 550.247 -4.24011 6.4274 0
M  V30 3223 C 550.977 -5.20775 5.52155 0
M  V30 3224 O 551.187 -4.56534 4.22446 0
M  V30 3225 C 552.377 -5.62629 5.96531 0
M  V30 3226 O 552.767 -6.87667 5.41053 0
M  V30 3227 C 553.257 -4.52537 5.39283 0
M  V30 3228 C 552.547 -4.20027 4.08623 0
M  V30 3229 N 552.597 -2.76189 3.71603 0
M  V30 3230 H 549.758 -4.797 7.24003 0
M  V30 3231 H 549.488 -3.69856 5.84513 0
M  V30 3232 H 550.355 -6.10356 5.41441 0
M  V30 3233 P 554.317 -7.20834 5.23717 0
M  V30 3234 O 554.537 -8.66104 5.38572 0
M  V30 3235 O 555.107 -6.33544 6.1349 0
M  V30 3236 O 554.567 -6.7751 3.72168 0
M  V30 3237 C 553.627 -7.20825 2.7076 0
M  V30 3238 C 554.357 -7.45864 1.40599 0
M  V30 3239 O 554.567 -6.17651 0.734225 0
M  V30 3240 C 555.757 -8.05808 1.51899 0
M  V30 3241 O 556.147 -8.74358 0.335205 0
M  V30 3242 C 556.637 -6.83093 1.70294 0
M  V30 3243 C 555.927 -5.79992 0.836974 0
M  V30 3244 N 555.977 -4.41864 1.38293 0
M  V30 3245 H 553.138 -8.13644 3.0377 0
M  V30 3246 H 552.868 -6.42788 2.55485 0
M  V30 3247 H 553.735 -8.12039 0.792769 0
M  V30 3248 P 557.697 -8.91 -3.54097e-12 0
M  V30 3249 O 557.917 -10.1726 -0.733694 0
M  V30 3250 O 558.487 -8.73148 1.23936 0
M  V30 3251 O 557.947 -7.66872 -0.971405 0
M  V30 3252 C 557.007 -7.42309 -2.04641 0
M  V30 3253 C 557.737 -6.86059 -3.24661 0
M  V30 3254 O 557.947 -5.42847 -3.03646 0
M  V30 3255 C 559.137 -7.41196 -3.50753 0
M  V30 3256 O 559.527 -7.27073 -4.86816 0
M  V30 3257 C 560.017 -6.5273 -2.63741 0
M  V30 3258 C 559.307 -5.1842 -2.73198 0
M  V30 3259 N 559.357 -4.38762 -1.4784 0
M  V30 3260 H 556.518 -8.36803 -2.32493 0
M  V30 3261 H 556.248 -6.70197 -1.71129 0
M  V30 3262 H 557.115 -7.03551 -4.13168 0
M  V30 3263 P 561.077 -7.20834 -5.23717 0
M  V30 3264 O 561.297 -7.79853 -6.57286 0
M  V30 3265 O 561.867 -7.79239 -4.12957 0
M  V30 3266 O 561.327 -5.63315 -5.29344 0
M  V30 3267 C 560.387 -4.80255 -6.01876 0
M  V30 3268 C 561.117 -3.64202 -6.65911 0
M  V30 3269 O 561.327 -2.60694 -5.64732 0
M  V30 3270 C 562.517 -3.93473 -7.1943 0
M  V30 3271 O 562.907 -3.02071 -8.21205 0
M  V30 3272 C 563.397 -3.73047 -5.97036 0
M  V30 3273 C 562.687 -2.58828 -5.25741 0
M  V30 3274 N 562.737 -2.68068 -3.77503 0
M  V30 3275 H 559.898 -5.40332 -6.79951 0
M  V30 3276 H 559.628 -4.41613 -5.32378 0
M  V30 3277 H 560.495 -3.26331 -7.47797 0
M  V30 3278 P 564.457 -2.75334 -8.47391 0
M  V30 3279 O 564.677 -2.44571 -9.90142 0
M  V30 3280 O 565.247 -3.87688 -7.92115 0
M  V30 3281 O 564.707 -1.4459 -7.59357 0
M  V30 3282 C 563.767 -0.347608 -7.69215 0
M  V30 3283 C 564.497 0.96767 -7.52806 0
M  V30 3284 O 564.707 1.21036 -6.1011 0
M  V30 3285 C 565.897 1.04544 -8.13308 0
M  V30 3286 O 566.287 2.38311 -8.41922 0
M  V30 3287 C 566.777 0.491279 -7.02284 0
M  V30 3288 C 566.067 0.996264 -5.77469 0
M  V30 3289 N 566.117 0.0501916 -4.62973 0
M  V30 3290 H 563.278 -0.374722 -8.67691 0
M  V30 3291 H 563.008 -0.443485 -6.90277 0
M  V30 3292 H 563.875 1.75537 -7.96793 0
M  V30 3293 P 567.837 2.75334 -8.47391 0
M  V30 3294 O 568.057 3.84166 -9.4489 0
M  V30 3295 O 568.627 1.51964 -8.6881 0
M  V30 3296 O 568.087 3.29363 -6.99321 0
M  V30 3297 C 567.147 4.23956 -6.42656 0
M  V30 3298 C 567.877 5.20775 -5.52155 0
M  V30 3299 O 568.087 4.56534 -4.22446 0
M  V30 3300 C 569.277 5.62629 -5.96531 0
M  V30 3301 O 569.667 6.87667 -5.41053 0
M  V30 3302 C 570.157 4.52537 -5.39283 0
M  V30 3303 C 569.447 4.20027 -4.08623 0
M  V30 3304 N 569.497 2.7613 -3.71522 0
M  V30 3305 C 569.647 2.45612 -2.37989 0
M  V30 3306 O 569.737 3.30919 -1.51621 0
M  V30 3307 N 569.687 1.10684 -2.08435 0
M  V30 3308 C 569.597 0.0690084 -2.9792 0
M  V30 3309 O 569.647 -1.10553 -2.59426 0
M  V30 3310 C 569.447 0.481522 -4.35345 0
M  V30 3311 C 569.337 -0.618778 -5.36443 0
M  V30 3312 C 569.397 1.78906 -4.67968 0
M  V30 3313 H 566.657 4.797 -7.24003 0
M  V30 3314 H 566.388 3.69802 -5.84429 0
M  V30 3315 H 567.255 6.10356 -5.41441 0
M  V30 3316 H 569.91 4.78651 -3.27911 0
M  V30 3317 H 570.189 3.64957 -6.05871 0
M  V30 3318 H 571.181 4.8868 -5.2125 0
M  V30 3319 H 569.347 5.66726 -7.06352 0
M  V30 3320 H 569.276 2.07737 -5.72367 0
M  V30 3321 H 570.306 -0.754375 -5.86871 0
M  V30 3322 H 568.569 -0.359721 -6.10641 0
M  V30 3323 H 569.057 -1.55533 -4.8581 0
M  V30 3324 H 569.793 0.862651 -1.12037 0
M  V30 3325 P 571.217 7.20834 -5.23717 0
M  V30 3326 O 571.437 8.66274 -5.38678 0
M  V30 3327 O 572.007 6.33687 -6.13629 0
M  V30 3328 O 571.467 6.7751 -3.72168 0
M  V30 3329 C 570.527 7.20919 -2.70795 0
M  V30 3330 C 571.257 7.45864 -1.40599 0
M  V30 3331 O 571.467 6.17751 -0.734343 0
M  V30 3332 C 572.657 8.05906 -1.51917 0
M  V30 3333 O 573.047 8.74358 -0.335205 0
M  V30 3334 C 573.537 6.83093 -1.70294 0
M  V30 3335 C 572.827 5.79992 -0.836974 0
M  V30 3336 N 572.877 4.41864 -1.38293 0
M  V30 3337 C 572.797 4.02089 -2.69407 0
M  V30 3338 N 572.867 2.73403 -2.85089 0
M  V30 3339 C 573.017 2.25086 -1.5642 0
M  V30 3340 C 573.147 0.942887 -1.04836 0
M  V30 3341 N 573.157 -0.150999 -1.80369 0
M  V30 3342 N 573.267 0.812565 0.28167 0
M  V30 3343 C 573.257 1.90572 1.03784 0
M  V30 3344 N 573.137 3.167 0.683905 0
M  V30 3345 C 573.017 3.26538 -0.652815 0
M  V30 3346 H 570.039 8.13738 -3.03804 0
M  V30 3347 H 569.767 6.42974 -2.55559 0
M  V30 3348 H 570.635 8.12139 -0.792866 0
M  V30 3349 H 573.29 5.80178 0.160643 0
M  V30 3350 H 573.57 6.51379 -2.75643 0
M  V30 3351 H 574.561 7.01832 -1.3448 0
M  V30 3352 H 572.727 8.73771 -2.38364 0
M  V30 3353 H 572.686 4.7189 -3.52311 0
M  V30 3354 H 573.067 -0.0721434 -2.82608 0
M  V30 3355 H 573.256 -1.0785 -1.36544 0
M  V30 3356 H 573.364 1.73207 2.10241 0
M  V30 3357 P 574.597 8.91 3.69815e-12 0
M  V30 3358 O 574.817 10.1736 0.733766 0
M  V30 3359 O 575.387 8.73247 -1.2395 0
M  V30 3360 O 574.847 7.66872 0.971405 0
M  V30 3361 C 573.907 7.42212 2.04614 0
M  V30 3362 C 574.637 6.86059 3.24661 0
M  V30 3363 O 574.847 5.42847 3.03646 0
M  V30 3364 C 576.037 7.41196 3.50753 0
M  V30 3365 O 576.427 7.27073 4.86816 0
M  V30 3366 C 576.917 6.5273 2.63741 0
M  V30 3367 C 576.207 5.1842 2.73198 0
M  V30 3368 N 576.257 4.38668 1.47808 0
M  V30 3369 C 576.407 3.02239 1.60048 0
M  V30 3370 O 576.497 2.46459 2.67869 0
M  V30 3371 N 576.447 2.32436 0.408571 0
M  V30 3372 C 576.357 2.85471 -0.854993 0
M  V30 3373 C 576.207 4.28918 -0.887335 0
M  V30 3374 C 576.157 5.00349 0.255399 0
M  V30 3375 H 573.417 8.36803 2.32493 0
M  V30 3376 H 573.148 6.701 1.71105 0
M  V30 3377 H 574.015 7.03551 4.13168 0
M  V30 3378 H 576.67 4.59773 3.53894 0
M  V30 3379 H 576.949 6.88995 1.59871 0
M  V30 3380 H 577.941 6.46749 3.03687 0
M  V30 3381 H 576.107 8.46908 3.20714 0
M  V30 3382 H 576.036 6.08548 0.206986 0
M  V30 3383 P 577.977 7.20834 5.23717 0
M  V30 3384 O 578.197 7.79853 6.57286 0
M  V30 3385 O 578.767 7.79239 4.12957 0
M  V30 3386 O 578.227 5.63315 5.29344 0
M  V30 3387 C 577.287 4.80255 6.01876 0
M  V30 3388 C 578.017 3.64202 6.65911 0
M  V30 3389 O 578.227 2.60694 5.64732 0
M  V30 3390 C 579.417 3.93473 7.1943 0
M  V30 3391 O 579.807 3.02071 8.21205 0
M  V30 3392 C 580.297 3.73047 5.97036 0
M  V30 3393 C 579.587 2.58828 5.25741 0
M  V30 3394 N 579.637 2.68068 3.77503 0
M  V30 3395 H 576.798 5.40332 6.79951 0
M  V30 3396 H 576.528 4.41613 5.32378 0
M  V30 3397 H 577.395 3.26331 7.47797 0
M  V30 3398 P 581.357 2.75334 8.47391 0
M  V30 3399 O 581.577 2.44571 9.90142 0
M  V30 3400 O 582.147 3.87688 7.92115 0
M  V30 3401 O 581.607 1.4459 7.59357 0
M  V30 3402 C 580.667 0.347608 7.69215 0
M  V30 3403 C 581.397 -0.96767 7.52806 0
M  V30 3404 O 581.607 -1.21036 6.1011 0
M  V30 3405 C 582.797 -1.04544 8.13308 0
M  V30 3406 O 583.187 -2.38311 8.41922 0
M  V30 3407 C 583.677 -0.491279 7.02284 0
M  V30 3408 C 582.967 -0.996264 5.77469 0
M  V30 3409 N 583.017 -0.0501916 4.62973 0
M  V30 3410 H 580.178 0.374722 8.67691 0
M  V30 3411 H 579.908 0.443485 6.90277 0
M  V30 3412 H 580.775 -1.75537 7.96793 0
M  V30 3413 P 584.737 -2.75334 8.47391 0
M  V30 3414 O 584.957 -3.84128 9.44797 0
M  V30 3415 O 585.527 -1.51947 8.68712 0
M  V30 3416 O 584.987 -3.29363 6.99321 0
M  V30 3417 C 584.047 -4.24011 6.4274 0
M  V30 3418 C 584.777 -5.20775 5.52155 0
M  V30 3419 O 584.987 -4.56534 4.22446 0
M  V30 3420 C 586.177 -5.62629 5.96531 0
M  V30 3421 O 586.567 -6.87667 5.41053 0
M  V30 3422 C 587.057 -4.52537 5.39283 0
M  V30 3423 C 586.347 -4.20027 4.08623 0
M  V30 3424 N 586.397 -2.76189 3.71603 0
M  V30 3425 H 583.558 -4.797 7.24003 0
M  V30 3426 H 583.288 -3.69856 5.84513 0
M  V30 3427 H 584.155 -6.10356 5.41441 0
M  V30 3428 P 588.117 -7.20834 5.23717 0
M  V30 3429 O 588.337 -8.66274 5.38678 0
M  V30 3430 O 588.907 -6.33687 6.13629 0
M  V30 3431 O 588.367 -6.7751 3.72168 0
M  V30 3432 C 587.427 -7.20919 2.70795 0
M  V30 3433 C 588.157 -7.45864 1.40599 0
M  V30 3434 O 588.367 -6.17751 0.734343 0
M  V30 3435 C 589.557 -8.05906 1.51917 0
M  V30 3436 O 589.947 -8.74358 0.335205 0
M  V30 3437 C 590.437 -6.83093 1.70294 0
M  V30 3438 C 589.727 -5.79992 0.836974 0
M  V30 3439 N 589.777 -4.41864 1.38293 0
M  V30 3440 C 589.697 -4.02089 2.69407 0
M  V30 3441 N 589.767 -2.73403 2.85089 0
M  V30 3442 C 589.917 -2.25086 1.5642 0
M  V30 3443 C 590.047 -0.942887 1.04836 0
M  V30 3444 N 590.057 0.150999 1.80369 0
M  V30 3445 N 590.167 -0.812565 -0.28167 0
M  V30 3446 C 590.157 -1.90572 -1.03784 0
M  V30 3447 N 590.037 -3.167 -0.683905 0
M  V30 3448 C 589.917 -3.26538 0.652815 0
M  V30 3449 H 586.939 -8.13738 3.03804 0
M  V30 3450 H 586.667 -6.42974 2.55559 0
M  V30 3451 H 587.535 -8.12139 0.792866 0
M  V30 3452 H 590.19 -5.80178 -0.160643 0
M  V30 3453 H 590.47 -6.51379 2.75643 0
M  V30 3454 H 591.461 -7.01832 1.3448 0
M  V30 3455 H 589.627 -8.73771 2.38364 0
M  V30 3456 H 589.586 -4.7189 3.52311 0
M  V30 3457 H 589.967 0.0721434 2.82608 0
M  V30 3458 H 590.156 1.0785 1.36544 0
M  V30 3459 H 590.264 -1.73207 -2.10241 0
M  V30 3460 P 591.496 -8.91 -3.85533e-12 0
M  V30 3461 O 591.716 -10.1726 -0.733694 0
M  V30 3462 O 592.286 -8.73148 1.23936 0
M  V30 3463 O 591.746 -7.66872 -0.971405 0
M  V30 3464 C 590.806 -7.42309 -2.04641 0
M  V30 3465 C 591.536 -6.86059 -3.24661 0
M  V30 3466 O 591.746 -5.42847 -3.03646 0
M  V30 3467 C 592.937 -7.41196 -3.50753 0
M  V30 3468 O 593.327 -7.27073 -4.86816 0
M  V30 3469 C 593.817 -6.5273 -2.63741 0
M  V30 3470 C 593.106 -5.1842 -2.73198 0
M  V30 3471 N 593.156 -4.38762 -1.4784 0
M  V30 3472 C 593.077 -4.81605 -0.168631 0
M  V30 3473 N 593.156 -3.85454 0.713363 0
M  V30 3474 C 593.296 -2.6994 -0.0566958 0
M  V30 3475 C 593.426 -1.34815 0.338502 0
M  V30 3476 O 593.447 -0.869548 1.47125 0
M  V30 3477 N 593.546 -0.496304 -0.77465 0
M  V30 3478 C 593.546 -0.908403 -2.09122 0
M  V30 3479 N 593.676 0.0517805 -3.00955 0
M  V30 3480 N 593.416 -2.17875 -2.46519 0
M  V30 3481 C 593.296 -3.01988 -1.4033 0
M  V30 3482 H 590.317 -8.36803 -2.32493 0
M  V30 3483 H 590.048 -6.70197 -1.71129 0
M  V30 3484 H 590.914 -7.03551 -4.13168 0
M  V30 3485 H 593.569 -4.59498 -3.54415 0
M  V30 3486 H 593.848 -6.88898 -1.59848 0
M  V30 3487 H 594.841 -6.46749 -3.03687 0
M  V30 3488 H 593.006 -8.46908 -3.20714 0
M  V30 3489 H 592.957 -5.86405 0.105564 0
M  V30 3490 H 593.639 0.483664 -0.597855 0
M  V30 3491 H 593.676 -0.187865 -4.0116 0
M  V30 3492 H 593.777 1.03585 -2.71726 0
M  V30 3493 P 594.876 -7.20834 -5.23717 0
M  V30 3494 O 595.096 -7.79853 -6.57286 0
M  V30 3495 O 595.666 -7.79239 -4.12957 0
M  V30 3496 O 595.126 -5.63315 -5.29344 0
M  V30 3497 C 594.186 -4.80255 -6.01876 0
M  V30 3498 C 594.916 -3.64202 -6.65911 0
M  V30 3499 O 595.126 -2.60694 -5.64732 0
M  V30 3500 C 596.316 -3.93473 -7.1943 0
M  V30 3501 O 596.706 -3.02071 -8.21205 0
M  V30 3502 C 597.196 -3.73047 -5.97036 0
M  V30 3503 C 596.486 -2.58828 -5.25741 0
M  V30 3504 N 596.536 -2.68068 -3.77503 0
M  V30 3505 C 596.456 -3.79715 -2.96723 0
M  V30 3506 N 596.536 -3.5377 -1.68852 0
M  V30 3507 C 596.676 -2.15054 -1.63254 0
M  V30 3508 C 596.806 -1.28964 -0.518571 0
M  V30 3509 N 596.926 0.0538097 -0.918425 0
M  V30 3510 C 596.926 0.494275 -2.22578 0
M  V30 3511 N 597.056 1.81086 -2.40434 0
M  V30 3512 N 596.796 -0.313645 -3.27502 0
M  V30 3513 C 596.676 -1.61829 -2.91033 0
M  V30 3514 H 593.697 -5.40332 -6.79951 0
M  V30 3515 H 593.427 -4.41613 -5.32378 0
M  V30 3516 H 594.294 -3.26331 -7.47797 0
M  V30 3517 P 598.256 -2.75334 -8.47391 0
M  V30 3518 O 598.476 -2.44571 -9.90142 0
M  V30 3519 O 599.046 -3.87688 -7.92115 0
M  V30 3520 O 598.506 -1.4459 -7.59357 0
M  V30 3521 C 597.566 -0.347608 -7.69215 0
M  V30 3522 C 598.296 0.96767 -7.52806 0
M  V30 3523 O 598.506 1.21036 -6.1011 0
M  V30 3524 C 599.696 1.04544 -8.13308 0
M  V30 3525 O 600.086 2.38311 -8.41922 0
M  V30 3526 C 600.576 0.491279 -7.02284 0
M  V30 3527 C 599.866 0.996264 -5.77469 0
M  V30 3528 N 599.916 0.0501916 -4.62973 0
M  V30 3529 C 599.836 -1.32786 -4.63244 0
M  V30 3530 N 599.916 -1.86957 -3.44545 0
M  V30 3531 C 600.056 -0.780241 -2.58481 0
M  V30 3532 C 600.186 -0.738536 -1.17757 0
M  V30 3533 O 600.206 -1.66794 -0.372349 0
M  V30 3534 N 600.306 0.58337 -0.711393 0
M  V30 3535 C 600.306 1.70816 -1.51017 0
M  V30 3536 N 600.436 2.87826 -0.880757 0
M  V30 3537 N 600.176 1.67126 -2.8339 0
M  V30 3538 C 600.056 0.401421 -3.30572 0
M  V30 3539 H 597.077 -0.374722 -8.67691 0
M  V30 3540 H 596.807 -0.443485 -6.90277 0
M  V30 3541 H 597.674 1.75537 -7.96793 0
M  V30 3542 H 600.329 1.95076 -5.46529 0
M  V30 3543 H 600.608 -0.608565 -7.04577 0
M  V30 3544 H 601.6 0.889672 -7.08939 0
M  V30 3545 H 599.766 0.43308 -9.04564 0
M  V30 3546 H 599.717 -1.91249 -5.54442 0
M  V30 3547 H 600.399 0.718054 0.275244 0
M  V30 3548 H 600.436 3.75721 -1.41832 0
M  V30 3549 H 600.537 2.90436 0.145468 0
M  V30 3550 P 601.636 2.75334 -8.47391 0
M  V30 3551 O 601.856 3.84128 -9.44797 0
M  V30 3552 O 602.426 1.51947 -8.68712 0
M  V30 3553 O 601.886 3.29363 -6.99321 0
M  V30 3554 C 600.946 4.24011 -6.4274 0
M  V30 3555 C 601.676 5.20775 -5.52155 0
M  V30 3556 O 601.886 4.56534 -4.22446 0
M  V30 3557 C 603.076 5.62629 -5.96531 0
M  V30 3558 O 603.466 6.87667 -5.41053 0
M  V30 3559 C 603.956 4.52537 -5.39283 0
M  V30 3560 C 603.246 4.20027 -4.08623 0
M  V30 3561 N 603.296 2.76189 -3.71603 0
M  V30 3562 H 600.457 4.797 -7.24003 0
M  V30 3563 H 600.187 3.69856 -5.84513 0
M  V30 3564 H 601.054 6.10356 -5.41441 0
M  V30 3565 P 605.016 7.20834 -5.23717 0
M  V30 3566 O 605.236 8.66104 -5.38572 0
M  V30 3567 O 605.806 6.33544 -6.1349 0
M  V30 3568 O 605.266 6.7751 -3.72168 0
M  V30 3569 C 604.326 7.20825 -2.7076 0
M  V30 3570 C 605.056 7.45864 -1.40599 0
M  V30 3571 O 605.266 6.17651 -0.734225 0
M  V30 3572 C 606.456 8.05808 -1.51899 0
M  V30 3573 O 606.846 8.74358 -0.335205 0
M  V30 3574 C 607.336 6.83093 -1.70294 0
M  V30 3575 C 606.626 5.79992 -0.836974 0
M  V30 3576 N 606.676 4.41864 -1.38293 0
M  V30 3577 H 603.837 8.13644 -3.0377 0
M  V30 3578 H 603.567 6.42788 -2.55485 0
M  V30 3579 H 604.434 8.12039 -0.792769 0
M  V30 3580 P 608.396 8.91 4.01252e-12 0
M  V30 3581 O 608.616 10.1726 0.733694 0
M  V30 3582 O 609.186 8.73148 -1.23936 0
M  V30 3583 O 608.646 7.66872 0.971405 0
M  V30 3584 C 607.706 7.42309 2.04641 0
M  V30 3585 C 608.436 6.86059 3.24661 0
M  V30 3586 O 608.646 5.42847 3.03646 0
M  V30 3587 C 609.836 7.41196 3.50753 0
M  V30 3588 O 610.226 7.27073 4.86816 0
M  V30 3589 C 610.716 6.5273 2.63741 0
M  V30 3590 C 610.006 5.1842 2.73198 0
M  V30 3591 N 610.056 4.38762 1.4784 0
M  V30 3592 C 609.976 4.81605 0.168631 0
M  V30 3593 N 610.056 3.85454 -0.713363 0
M  V30 3594 C 610.196 2.6994 0.0566958 0
M  V30 3595 C 610.326 1.34815 -0.338502 0
M  V30 3596 N 610.446 0.496304 0.77465 0
M  V30 3597 C 610.446 0.908403 2.09122 0
M  V30 3598 N 610.576 -0.0517805 3.00955 0
M  V30 3599 N 610.316 2.17875 2.46519 0
M  V30 3600 C 610.196 3.01988 1.4033 0
M  V30 3601 H 607.217 8.36803 2.32493 0
M  V30 3602 H 606.947 6.70197 1.71129 0
M  V30 3603 H 607.814 7.03551 4.13168 0
M  V30 3604 P 611.776 7.20834 5.23717 0
M  V30 3605 O 611.996 7.79853 6.57286 0
M  V30 3606 O 612.566 7.79239 4.12957 0
M  V30 3607 O 612.026 5.63315 5.29344 0
M  V30 3608 C 611.086 4.80255 6.01876 0
M  V30 3609 C 611.816 3.64202 6.65911 0
M  V30 3610 O 612.026 2.60694 5.64732 0
M  V30 3611 C 613.216 3.93473 7.1943 0
M  V30 3612 O 613.606 3.02071 8.21205 0
M  V30 3613 C 614.096 3.73047 5.97036 0
M  V30 3614 C 613.386 2.58828 5.25741 0
M  V30 3615 N 613.436 2.68068 3.77503 0
M  V30 3616 H 610.597 5.40332 6.79951 0
M  V30 3617 H 610.327 4.41613 5.32378 0
M  V30 3618 H 611.194 3.26331 7.47797 0
M  V30 3619 P 615.156 2.75334 8.47391 0
M  V30 3620 O 615.376 2.44571 9.90142 0
M  V30 3621 O 615.946 3.87688 7.92115 0
M  V30 3622 O 615.406 1.4459 7.59357 0
M  V30 3623 C 614.466 0.347608 7.69215 0
M  V30 3624 C 615.196 -0.96767 7.52806 0
M  V30 3625 O 615.406 -1.21036 6.1011 0
M  V30 3626 C 616.596 -1.04544 8.13308 0
M  V30 3627 O 616.986 -2.38311 8.41922 0
M  V30 3628 C 617.476 -0.491279 7.02284 0
M  V30 3629 C 616.766 -0.996264 5.77469 0
M  V30 3630 N 616.816 -0.0501916 4.62973 0
M  V30 3631 H 613.977 0.374722 8.67691 0
M  V30 3632 H 613.707 0.443485 6.90277 0
M  V30 3633 H 614.574 -1.75537 7.96793 0
M  V30 3634 P 618.536 -2.75334 8.47391 0
M  V30 3635 O 618.756 -3.84166 9.4489 0
M  V30 3636 O 619.326 -1.51964 8.6881 0
M  V30 3637 O 618.786 -3.29363 6.99321 0
M  V30 3638 C 617.846 -4.23956 6.42656 0
M  V30 3639 C 618.576 -5.20775 5.52155 0
M  V30 3640 O 618.786 -4.56534 4.22446 0
M  V30 3641 C 619.976 -5.62629 5.96531 0
M  V30 3642 O 620.366 -6.87667 5.41053 0
M  V30 3643 C 620.856 -4.52537 5.39283 0
M  V30 3644 C 620.146 -4.20027 4.08623 0
M  V30 3645 N 620.196 -2.7613 3.71522 0
M  V30 3646 C 620.346 -2.45612 2.37989 0
M  V30 3647 O 620.436 -3.30919 1.51621 0
M  V30 3648 N 620.386 -1.10684 2.08435 0
M  V30 3649 C 620.296 -0.0690084 2.9792 0
M  V30 3650 C 620.146 -0.481522 4.35345 0
M  V30 3651 C 620.096 -1.78906 4.67968 0
M  V30 3652 H 617.356 -4.797 7.24003 0
M  V30 3653 H 617.087 -3.69802 5.84429 0
M  V30 3654 H 617.954 -6.10356 5.41441 0
M  V30 3655 H 620.609 -4.78651 3.27911 0
M  V30 3656 H 620.888 -3.64957 6.05871 0
M  V30 3657 H 621.88 -4.8868 5.2125 0
M  V30 3658 H 620.046 -5.66726 7.06352 0
M  V30 3659 H 619.975 -2.07737 5.72367 0
M  V30 3660 P 621.916 -7.20834 5.23717 0
M  V30 3661 O 622.136 -8.66104 5.38572 0
M  V30 3662 O 622.706 -6.33544 6.1349 0
M  V30 3663 O 622.166 -6.7751 3.72168 0
M  V30 3664 C 621.226 -7.20825 2.7076 0
M  V30 3665 C 621.956 -7.45864 1.40599 0
M  V30 3666 O 622.166 -6.17651 0.734225 0
M  V30 3667 C 623.356 -8.05808 1.51899 0
M  V30 3668 O 623.746 -8.74358 0.335205 0
M  V30 3669 C 624.236 -6.83093 1.70294 0
M  V30 3670 C 623.526 -5.79992 0.836974 0
M  V30 3671 N 623.576 -4.41864 1.38293 0
M  V30 3672 C 623.496 -3.99538 2.69438 0
M  V30 3673 N 623.576 -2.69909 2.84277 0
M  V30 3674 C 623.716 -2.21719 1.5408 0
M  V30 3675 C 623.846 -0.891712 1.06628 0
M  V30 3676 N 623.966 -0.856846 -0.334985 0
M  V30 3677 C 623.966 -1.9641 -1.15789 0
M  V30 3678 N 624.096 -1.72708 -2.46522 0
M  V30 3679 N 623.836 -3.21165 -0.713741 0
M  V30 3680 C 623.716 -3.26797 0.639748 0
M  V30 3681 H 620.737 -8.13644 3.0377 0
M  V30 3682 H 620.467 -6.42788 2.55485 0
M  V30 3683 H 621.334 -8.12039 0.792769 0
M  V30 3684 P 625.296 -8.91 -4.1697e-12 0
M  V30 3685 O 625.516 -10.1726 -0.733694 0
M  V30 3686 O 626.086 -8.73148 1.23936 0
M  V30 3687 O 625.546 -7.66872 -0.971405 0
M  V30 3688 C 624.606 -7.42309 -2.04641 0
M  V30 3689 C 625.336 -6.86059 -3.24661 0
M  V30 3690 O 625.546 -5.42847 -3.03646 0
M  V30 3691 C 626.736 -7.41196 -3.50753 0
M  V30 3692 O 627.126 -7.27073 -4.86816 0
M  V30 3693 C 627.616 -6.5273 -2.63741 0
M  V30 3694 C 626.906 -5.1842 -2.73198 0
M  V30 3695 N 626.956 -4.38762 -1.4784 0
M  V30 3696 H 624.117 -8.36803 -2.32493 0
M  V30 3697 H 623.847 -6.70197 -1.71129 0
M  V30 3698 H 624.714 -7.03551 -4.13168 0
M  V30 3699 P 628.676 -7.20834 -5.23717 0
M  V30 3700 O 628.896 -7.79853 -6.57286 0
M  V30 3701 O 629.466 -7.79239 -4.12957 0
M  V30 3702 O 628.926 -5.63315 -5.29344 0
M  V30 3703 C 627.986 -4.80255 -6.01876 0
M  V30 3704 C 628.716 -3.64202 -6.65911 0
M  V30 3705 O 628.926 -2.60694 -5.64732 0
M  V30 3706 C 630.116 -3.93473 -7.1943 0
M  V30 3707 O 630.506 -3.02071 -8.21205 0
M  V30 3708 C 630.996 -3.73047 -5.97036 0
M  V30 3709 C 630.286 -2.58828 -5.25741 0
M  V30 3710 N 630.336 -2.68068 -3.77503 0
M  V30 3711 C 630.256 -3.79715 -2.96723 0
M  V30 3712 N 630.336 -3.5377 -1.68852 0
M  V30 3713 C 630.476 -2.15054 -1.63254 0
M  V30 3714 C 630.606 -1.28964 -0.518571 0
M  V30 3715 N 630.726 0.0538097 -0.918425 0
M  V30 3716 C 630.726 0.494275 -2.22578 0
M  V30 3717 N 630.856 1.81086 -2.40434 0
M  V30 3718 N 630.596 -0.313645 -3.27502 0
M  V30 3719 C 630.476 -1.61829 -2.91033 0
M  V30 3720 H 627.497 -5.40332 -6.79951 0
M  V30 3721 H 627.227 -4.41613 -5.32378 0
M  V30 3722 H 628.094 -3.26331 -7.47797 0
M  V30 3723 P 632.056 -2.75334 -8.47391 0
M  V30 3724 O 632.276 -2.44619 -9.90336 0
M  V30 3725 O 632.846 -3.87776 -7.92294 0
M  V30 3726 O 632.306 -1.4459 -7.59357 0
M  V30 3727 C 631.366 -0.347653 -7.69315 0
M  V30 3728 C 632.096 0.96767 -7.52806 0
M  V30 3729 O 632.306 1.21055 -6.10208 0
M  V30 3730 C 633.496 1.04557 -8.13408 0
M  V30 3731 O 633.886 2.38311 -8.41922 0
M  V30 3732 C 634.376 0.491279 -7.02284 0
M  V30 3733 C 633.666 0.996264 -5.77469 0
M  V30 3734 N 633.716 0.0501916 -4.62973 0
M  V30 3735 H 630.878 -0.374765 -8.67791 0
M  V30 3736 H 630.606 -0.443613 -6.90476 0
M  V30 3737 H 631.474 1.75559 -7.96891 0
M  V30 3738 H 634.129 1.94563 -5.46818 0
M  V30 3739 H 634.409 -0.608651 -7.04676 0
M  V30 3740 H 635.4 0.889796 -7.09039 0
M  V30 3741 H 633.566 0.433128 -9.04664 0
M  V30 3742 P 635.436 2.75334 -8.47391 0
M  V30 3743 O 635.656 3.84128 -9.44797 0
M  V30 3744 O 636.226 1.51947 -8.68712 0
M  V30 3745 O 635.686 3.29363 -6.99321 0
M  V30 3746 C 634.746 4.24011 -6.4274 0
M  V30 3747 C 635.476 5.20775 -5.52155 0
M  V30 3748 O 635.686 4.56534 -4.22446 0
M  V30 3749 C 636.876 5.62629 -5.96531 0
M  V30 3750 O 637.266 6.87667 -5.41053 0
M  V30 3751 C 637.756 4.52537 -5.39283 0
M  V30 3752 C 637.046 4.20027 -4.08623 0
M  V30 3753 N 637.096 2.76189 -3.71603 0
M  V30 3754 H 634.257 4.797 -7.24003 0
M  V30 3755 H 633.987 3.69856 -5.84513 0
M  V30 3756 H 634.854 6.10356 -5.41441 0
M  V30 3757 P 638.816 7.20834 -5.23717 0
M  V30 3758 O 639.036 8.66104 -5.38572 0
M  V30 3759 O 639.606 6.33544 -6.1349 0
M  V30 3760 O 639.066 6.7751 -3.72168 0
M  V30 3761 C 638.126 7.20825 -2.7076 0
M  V30 3762 C 638.856 7.45864 -1.40599 0
M  V30 3763 O 639.066 6.17651 -0.734225 0
M  V30 3764 C 640.256 8.05808 -1.51899 0
M  V30 3765 O 640.646 8.74358 -0.335205 0
M  V30 3766 C 641.136 6.83093 -1.70294 0
M  V30 3767 C 640.426 5.79992 -0.836974 0
M  V30 3768 N 640.476 4.41864 -1.38293 0
M  V30 3769 H 637.637 8.13644 -3.0377 0
M  V30 3770 H 637.367 6.42788 -2.55485 0
M  V30 3771 H 638.234 8.12039 -0.792769 0
M  V30 3772 P 642.196 8.91 4.32688e-12 0
M  V30 3773 O 642.416 10.1746 0.733838 0
M  V30 3774 O 642.986 8.73346 -1.23964 0
M  V30 3775 O 642.446 7.66872 0.971405 0
M  V30 3776 C 641.506 7.42405 2.04668 0
M  V30 3777 C 642.236 6.86059 3.24661 0
M  V30 3778 O 642.446 5.42934 3.03695 0
M  V30 3779 C 643.636 7.41287 3.50796 0
M  V30 3780 O 644.026 7.27073 4.86816 0
M  V30 3781 C 644.516 6.5273 2.63741 0
M  V30 3782 C 643.806 5.1842 2.73198 0
M  V30 3783 N 643.856 4.38762 1.4784 0
M  V30 3784 C 643.776 4.83651 0.183876 0
M  V30 3785 N 643.846 3.88759 -0.699393 0
M  V30 3786 C 643.996 2.7404 0.0575568 0
M  V30 3787 C 644.126 1.37902 -0.293928 0
M  V30 3788 N 644.136 0.938021 -1.54797 0
M  V30 3789 N 644.246 0.491817 0.70549 0
M  V30 3790 C 644.236 0.931735 1.95979 0
M  V30 3791 N 644.116 2.16017 2.41481 0
M  V30 3792 C 643.996 3.02547 1.39121 0
M  V30 3793 H 641.018 8.36899 2.3252 0
M  V30 3794 H 640.746 6.70391 1.71179 0
M  V30 3795 H 641.614 7.03638 4.13219 0
M  V30 3796 H 644.269 4.59931 3.54016 0
M  V30 3797 H 644.549 6.88995 1.59871 0
M  V30 3798 H 645.54 6.4684 3.0373 0
M  V30 3799 H 643.706 8.47002 3.20749 0
M  V30 3800 H 643.665 5.8885 -0.0765548 0
M  V30 3801 H 644.046 1.60276 -2.32875 0
M  V30 3802 H 644.235 -0.0699355 -1.73859 0
M  V30 3803 H 644.343 0.165507 2.71897 0
M  V30 3804 P 645.576 7.20834 5.23717 0
M  V30 3805 O 645.796 7.79853 6.57286 0
M  V30 3806 O 646.366 7.79239 4.12957 0
M  V30 3807 O 645.826 5.63315 5.29344 0
M  V30 3808 C 644.886 4.80255 6.01876 0
M  V30 3809 C 645.616 3.64202 6.65911 0
M  V30 3810 O 645.826 2.60694 5.64732 0
M  V30 3811 C 647.016 3.93473 7.1943 0
M  V30 3812 O 647.406 3.02071 8.21205 0
M  V30 3813 C 647.896 3.73047 5.97036 0
M  V30 3814 C 647.186 2.58828 5.25741 0
M  V30 3815 N 647.236 2.68068 3.77503 0
M  V30 3816 H 644.397 5.40332 6.79951 0
M  V30 3817 H 644.127 4.41613 5.32378 0
M  V30 3818 H 644.994 3.26331 7.47797 0
M  V30 3819 P 648.956 2.75334 8.47391 0
M  V30 3820 O 649.176 2.44571 9.90142 0
M  V30 3821 O 649.746 3.87688 7.92115 0
M  V30 3822 O 649.206 1.4459 7.59357 0
M  V30 3823 C 648.266 0.347608 7.69215 0
M  V30 3824 C 648.996 -0.96767 7.52806 0
M  V30 3825 O 649.206 -1.21036 6.1011 0
M  V30 3826 C 650.396 -1.04544 8.13308 0
M  V30 3827 O 650.786 -2.38311 8.41922 0
M  V30 3828 C 651.276 -0.491279 7.02284 0
M  V30 3829 C 650.566 -0.996264 5.77469 0
M  V30 3830 N 650.616 -0.0501916 4.62973 0
M  V30 3831 C 650.536 1.32786 4.63244 0
M  V30 3832 N 650.616 1.86957 3.44545 0
M  V30 3833 C 650.756 0.780241 2.58481 0
M  V30 3834 C 650.886 0.738536 1.17757 0
M  V30 3835 N 651.006 -0.58337 0.711393 0
M  V30 3836 C 651.006 -1.70816 1.51017 0
M  V30 3837 N 651.136 -2.87826 0.880757 0
M  V30 3838 N 650.876 -1.67126 2.8339 0
M  V30 3839 C 650.756 -0.401421 3.30572 0
M  V30 3840 H 647.777 0.374722 8.67691 0
M  V30 3841 H 647.507 0.443485 6.90277 0
M  V30 3842 H 648.374 -1.75537 7.96793 0
M  V30 3843 P 652.336 -2.75334 8.47391 0
M  V30 3844 O 652.556 -3.84128 9.44797 0
M  V30 3845 O 653.126 -1.51947 8.68712 0
M  V30 3846 O 652.586 -3.29363 6.99321 0
M  V30 3847 C 651.646 -4.24011 6.4274 0
M  V30 3848 C 652.376 -5.20775 5.52155 0
M  V30 3849 O 652.586 -4.56534 4.22446 0
M  V30 3850 C 653.776 -5.62629 5.96531 0
M  V30 3851 O 654.166 -6.87667 5.41053 0
M  V30 3852 C 654.656 -4.52537 5.39283 0
M  V30 3853 C 653.946 -4.20027 4.08623 0
M  V30 3854 N 653.996 -2.76189 3.71603 0
M  V30 3855 H 651.157 -4.797 7.24003 0
M  V30 3856 H 650.887 -3.69856 5.84513 0
M  V30 3857 H 651.754 -6.10356 5.41441 0
M  V30 3858 P 655.716 -7.20834 5.23717 0
M  V30 3859 O 655.936 -8.66104 5.38572 0
M  V30 3860 O 656.506 -6.33544 6.1349 0
M  V30 3861 O 655.966 -6.7751 3.72168 0
M  V30 3862 C 655.026 -7.20825 2.7076 0
M  V30 3863 C 655.756 -7.45864 1.40599 0
M  V30 3864 O 655.966 -6.17651 0.734225 0
M  V30 3865 C 657.156 -8.05808 1.51899 0
M  V30 3866 O 657.546 -8.74358 0.335205 0
M  V30 3867 C 658.036 -6.83093 1.70294 0
M  V30 3868 C 657.326 -5.79992 0.836974 0
M  V30 3869 N 657.376 -4.41864 1.38293 0
M  V30 3870 H 654.537 -8.13644 3.0377 0
M  V30 3871 H 654.267 -6.42788 2.55485 0
M  V30 3872 H 655.134 -8.12039 0.792769 0
M  V30 3873 P 659.096 -8.91 -4.48406e-12 0
M  V30 3874 O 659.316 -10.1726 -0.733694 0
M  V30 3875 O 659.886 -8.73148 1.23936 0
M  V30 3876 O 659.346 -7.66872 -0.971405 0
M  V30 3877 C 658.406 -7.42309 -2.04641 0
M  V30 3878 C 659.136 -6.86059 -3.24661 0
M  V30 3879 O 659.346 -5.42847 -3.03646 0
M  V30 3880 C 660.536 -7.41196 -3.50753 0
M  V30 3881 O 660.926 -7.27073 -4.86816 0
M  V30 3882 C 661.416 -6.5273 -2.63741 0
M  V30 3883 C 660.706 -5.1842 -2.73198 0
M  V30 3884 N 660.756 -4.38762 -1.4784 0
M  V30 3885 H 657.917 -8.36803 -2.32493 0
M  V30 3886 H 657.647 -6.70197 -1.71129 0
M  V30 3887 H 658.514 -7.03551 -4.13168 0
M  V30 3888 P 662.476 -7.20834 -5.23717 0
M  V30 3889 O 662.696 -7.79853 -6.57286 0
M  V30 3890 O 663.266 -7.79239 -4.12957 0
M  V30 3891 O 662.726 -5.63315 -5.29344 0
M  V30 3892 C 661.786 -4.80255 -6.01876 0
M  V30 3893 C 662.516 -3.64202 -6.65911 0
M  V30 3894 O 662.726 -2.60694 -5.64732 0
M  V30 3895 C 663.916 -3.93473 -7.1943 0
M  V30 3896 O 664.306 -3.02071 -8.21205 0
M  V30 3897 C 664.796 -3.73047 -5.97036 0
M  V30 3898 C 664.086 -2.58828 -5.25741 0
M  V30 3899 N 664.136 -2.68068 -3.77503 0
M  V30 3900 H 661.297 -5.40332 -6.79951 0
M  V30 3901 H 661.027 -4.41613 -5.32378 0
M  V30 3902 H 661.894 -3.26331 -7.47797 0
M  V30 3903 P 665.856 -2.75334 -8.47391 0
M  V30 3904 O 666.076 -2.44571 -9.90142 0
M  V30 3905 O 666.646 -3.87688 -7.92115 0
M  V30 3906 O 666.106 -1.4459 -7.59357 0
M  V30 3907 C 665.166 -0.347608 -7.69215 0
M  V30 3908 C 665.896 0.96767 -7.52806 0
M  V30 3909 O 666.106 1.21036 -6.1011 0
M  V30 3910 C 667.296 1.04544 -8.13308 0
M  V30 3911 O 667.686 2.38311 -8.41922 0
M  V30 3912 C 668.176 0.491279 -7.02284 0
M  V30 3913 C 667.466 0.996264 -5.77469 0
M  V30 3914 N 667.516 0.0501916 -4.62973 0
M  V30 3915 C 667.436 -1.32786 -4.63244 0
M  V30 3916 N 667.516 -1.86957 -3.44545 0
M  V30 3917 C 667.656 -0.780241 -2.58481 0
M  V30 3918 C 667.786 -0.738536 -1.17757 0
M  V30 3919 O 667.806 -1.66794 -0.372349 0
M  V30 3920 N 667.906 0.58337 -0.711393 0
M  V30 3921 C 667.906 1.70816 -1.51017 0
M  V30 3922 N 668.036 2.87826 -0.880757 0
M  V30 3923 N 667.776 1.67126 -2.8339 0
M  V30 3924 C 667.656 0.401421 -3.30572 0
M  V30 3925 H 664.677 -0.374722 -8.67691 0
M  V30 3926 H 664.407 -0.443485 -6.90277 0
M  V30 3927 H 665.274 1.75537 -7.96793 0
M  V30 3928 H 667.929 1.95076 -5.46529 0
M  V30 3929 H 668.208 -0.608565 -7.04577 0
M  V30 3930 H 669.2 0.889672 -7.08939 0
M  V30 3931 H 667.366 0.43308 -9.04564 0
M  V30 3932 H 667.317 -1.91249 -5.54442 0
M  V30 3933 H 667.999 0.718054 0.275244 0
M  V30 3934 H 668.036 3.75721 -1.41832 0
M  V30 3935 H 668.137 2.90436 0.145468 0
M  V30 3936 P 669.236 2.75334 -8.47391 0
M  V30 3937 O 669.456 3.84128 -9.44797 0
M  V30 3938 O 670.026 1.51947 -8.68712 0
M  V30 3939 O 669.486 3.29363 -6.99321 0
M  V30 3940 C 668.546 4.24011 -6.4274 0
M  V30 3941 C 669.276 5.20775 -5.52155 0
M  V30 3942 O 669.486 4.56534 -4.22446 0
M  V30 3943 C 670.676 5.62629 -5.96531 0
M  V30 3944 O 671.066 6.87667 -5.41053 0
M  V30 3945 C 671.556 4.52537 -5.39283 0
M  V30 3946 C 670.846 4.20027 -4.08623 0
M  V30 3947 N 670.896 2.76189 -3.71603 0
M  V30 3948 H 668.057 4.797 -7.24003 0
M  V30 3949 H 667.787 3.69856 -5.84513 0
M  V30 3950 H 668.654 6.10356 -5.41441 0
M  V30 3951 P 672.616 7.20834 -5.23717 0
M  V30 3952 O 672.836 8.66274 -5.38678 0
M  V30 3953 O 673.406 6.33687 -6.13629 0
M  V30 3954 O 672.866 6.7751 -3.72168 0
M  V30 3955 C 671.926 7.20919 -2.70795 0
M  V30 3956 C 672.656 7.45864 -1.40599 0
M  V30 3957 O 672.866 6.17751 -0.734343 0
M  V30 3958 C 674.056 8.05906 -1.51917 0
M  V30 3959 O 674.446 8.74358 -0.335205 0
M  V30 3960 C 674.936 6.83093 -1.70294 0
M  V30 3961 C 674.226 5.79992 -0.836974 0
M  V30 3962 N 674.276 4.41864 -1.38293 0
M  V30 3963 C 674.196 4.02089 -2.69407 0
M  V30 3964 N 674.266 2.73403 -2.85089 0
M  V30 3965 C 674.416 2.25086 -1.5642 0
M  V30 3966 C 674.546 0.942887 -1.04836 0
M  V30 3967 N 674.556 -0.150999 -1.80369 0
M  V30 3968 N 674.666 0.812565 0.28167 0
M  V30 3969 C 674.656 1.90572 1.03784 0
M  V30 3970 N 674.536 3.167 0.683905 0
M  V30 3971 C 674.416 3.26538 -0.652815 0
M  V30 3972 H 671.438 8.13738 -3.03804 0
M  V30 3973 H 671.166 6.42974 -2.55559 0
M  V30 3974 H 672.034 8.12139 -0.792866 0
M  V30 3975 H 674.689 5.80178 0.160643 0
M  V30 3976 H 674.969 6.51379 -2.75643 0
M  V30 3977 H 675.96 7.01832 -1.3448 0
M  V30 3978 H 674.126 8.73771 -2.38364 0
M  V30 3979 H 674.085 4.7189 -3.52311 0
M  V30 3980 H 674.466 -0.0721434 -2.82608 0
M  V30 3981 H 674.655 -1.0785 -1.36544 0
M  V30 3982 H 674.763 1.73207 2.10241 0
M  V30 3983 P 675.996 8.91 4.64125e-12 0
M  V30 3984 O 676.216 10.1726 0.733694 0
M  V30 3985 O 676.786 8.73148 -1.23936 0
M  V30 3986 O 676.246 7.66872 0.971405 0
M  V30 3987 C 675.306 7.42309 2.04641 0
M  V30 3988 C 676.036 6.86059 3.24661 0
M  V30 3989 O 676.246 5.42847 3.03646 0
M  V30 3990 C 677.436 7.41196 3.50753 0
M  V30 3991 O 677.826 7.27073 4.86816 0
M  V30 3992 C 678.316 6.5273 2.63741 0
M  V30 3993 C 677.606 5.1842 2.73198 0
M  V30 3994 N 677.656 4.38762 1.4784 0
M  V30 3995 H 674.817 8.36803 2.32493 0
M  V30 3996 H 674.547 6.70197 1.71129 0
M  V30 3997 H 675.414 7.03551 4.13168 0
M  V30 3998 P 679.376 7.20834 5.23717 0
M  V30 3999 O 679.596 7.79853 6.57286 0
M  V30 4000 O 680.166 7.79239 4.12957 0
M  V30 4001 O 679.626 5.63315 5.29344 0
M  V30 4002 C 678.686 4.80255 6.01876 0
M  V30 4003 C 679.416 3.64202 6.65911 0
M  V30 4004 O 679.626 2.60694 5.64732 0
M  V30 4005 C 680.816 3.93473 7.1943 0
M  V30 4006 O 681.206 3.02071 8.21205 0
M  V30 4007 C 681.696 3.73047 5.97036 0
M  V30 4008 C 680.986 2.58828 5.25741 0
M  V30 4009 N 681.036 2.68068 3.77503 0
M  V30 4010 C 680.956 3.79715 2.96723 0
M  V30 4011 N 681.036 3.5377 1.68852 0
M  V30 4012 C 681.176 2.15054 1.63254 0
M  V30 4013 C 681.306 1.28964 0.518571 0
M  V30 4014 N 681.426 -0.0538097 0.918425 0
M  V30 4015 C 681.426 -0.494275 2.22578 0
M  V30 4016 N 681.556 -1.81086 2.40434 0
M  V30 4017 N 681.296 0.313645 3.27502 0
M  V30 4018 C 681.176 1.61829 2.91033 0
M  V30 4019 H 678.197 5.40332 6.79951 0
M  V30 4020 H 677.927 4.41613 5.32378 0
M  V30 4021 H 678.794 3.26331 7.47797 0
M  V30 4022 P 682.756 2.75334 8.47391 0
M  V30 4023 O 682.976 2.44571 9.90142 0
M  V30 4024 O 683.546 3.87688 7.92115 0
M  V30 4025 O 683.006 1.4459 7.59357 0
M  V30 4026 C 682.066 0.347608 7.69215 0
M  V30 4027 C 682.796 -0.96767 7.52806 0
M  V30 4028 O 683.006 -1.21036 6.1011 0
M  V30 4029 C 684.196 -1.04544 8.13308 0
M  V30 4030 O 684.586 -2.38311 8.41922 0
M  V30 4031 C 685.076 -0.491279 7.02284 0
M  V30 4032 C 684.366 -0.996264 5.77469 0
M  V30 4033 N 684.416 -0.0501916 4.62973 0
M  V30 4034 H 681.577 0.374722 8.67691 0
M  V30 4035 H 681.307 0.443485 6.90277 0
M  V30 4036 H 682.174 -1.75537 7.96793 0
M  V30 4037 P 686.136 -2.75334 8.47391 0
M  V30 4038 O 686.356 -3.84128 9.44797 0
M  V30 4039 O 686.926 -1.51947 8.68712 0
M  V30 4040 O 686.386 -3.29363 6.99321 0
M  V30 4041 C 685.446 -4.24011 6.4274 0
M  V30 4042 C 686.176 -5.20775 5.52155 0
M  V30 4043 O 686.386 -4.56534 4.22446 0
M  V30 4044 C 687.576 -5.62629 5.96531 0
M  V30 4045 O 687.966 -6.87667 5.41053 0
M  V30 4046 C 688.456 -4.52537 5.39283 0
M  V30 4047 C 687.746 -4.20027 4.08623 0
M  V30 4048 N 687.796 -2.76189 3.71603 0
M  V30 4049 H 684.957 -4.797 7.24003 0
M  V30 4050 H 684.687 -3.69856 5.84513 0
M  V30 4051 H 685.554 -6.10356 5.41441 0
M  V30 4052 P 689.516 -7.20834 5.23717 0
M  V30 4053 O 689.736 -8.66104 5.38572 0
M  V30 4054 O 690.306 -6.33544 6.1349 0
M  V30 4055 O 689.766 -6.7751 3.72168 0
M  V30 4056 C 688.826 -7.20825 2.7076 0
M  V30 4057 C 689.556 -7.45864 1.40599 0
M  V30 4058 O 689.766 -6.17651 0.734225 0
M  V30 4059 C 690.956 -8.05808 1.51899 0
M  V30 4060 O 691.346 -8.74358 0.335205 0
M  V30 4061 C 691.836 -6.83093 1.70294 0
M  V30 4062 C 691.126 -5.79992 0.836974 0
M  V30 4063 N 691.176 -4.41864 1.38293 0
M  V30 4064 H 688.337 -8.13644 3.0377 0
M  V30 4065 H 688.067 -6.42788 2.55485 0
M  V30 4066 H 688.934 -8.12039 0.792769 0
M  V30 4067 P 692.896 -8.91 -4.67181e-12 0
M  V30 4068 O 693.116 -10.1726 -0.733694 0
M  V30 4069 O 693.686 -8.73148 1.23936 0
M  V30 4070 O 693.146 -7.66872 -0.971405 0
M  V30 4071 C 692.206 -7.42309 -2.04641 0
M  V30 4072 C 692.936 -6.86059 -3.24661 0
M  V30 4073 O 693.146 -5.42847 -3.03646 0
M  V30 4074 C 694.336 -7.41196 -3.50753 0
M  V30 4075 O 694.726 -7.27073 -4.86816 0
M  V30 4076 C 695.216 -6.5273 -2.63741 0
M  V30 4077 C 694.506 -5.1842 -2.73198 0
M  V30 4078 N 694.556 -4.38762 -1.4784 0
M  V30 4079 H 691.717 -8.36803 -2.32493 0
M  V30 4080 H 691.447 -6.70197 -1.71129 0
M  V30 4081 H 692.314 -7.03551 -4.13168 0
M  V30 4082 P 696.276 -7.20834 -5.23717 0
M  V30 4083 O 696.496 -7.79853 -6.57286 0
M  V30 4084 O 697.066 -7.79239 -4.12957 0
M  V30 4085 O 696.526 -5.63315 -5.29344 0
M  V30 4086 C 695.586 -4.80255 -6.01876 0
M  V30 4087 C 696.316 -3.64202 -6.65911 0
M  V30 4088 O 696.526 -2.60694 -5.64732 0
M  V30 4089 C 697.716 -3.93473 -7.1943 0
M  V30 4090 O 698.106 -3.02071 -8.21205 0
M  V30 4091 C 698.596 -3.73047 -5.97036 0
M  V30 4092 C 697.886 -2.58828 -5.25741 0
M  V30 4093 N 697.936 -2.68068 -3.77503 0
M  V30 4094 H 695.097 -5.40332 -6.79951 0
M  V30 4095 H 694.827 -4.41613 -5.32378 0
M  V30 4096 H 695.694 -3.26331 -7.47797 0
M  V30 4097 P 699.656 -2.75334 -8.47391 0
M  V30 4098 O 699.876 -2.44595 -9.90239 0
M  V30 4099 O 700.446 -3.87732 -7.92204 0
M  V30 4100 O 699.906 -1.4459 -7.59357 0
M  V30 4101 C 698.966 -0.347608 -7.69215 0
M  V30 4102 C 699.696 0.96767 -7.52806 0
M  V30 4103 O 699.906 1.21036 -6.1011 0
M  V30 4104 C 701.096 1.04544 -8.13308 0
M  V30 4105 O 701.486 2.38311 -8.41922 0
M  V30 4106 C 701.976 0.491279 -7.02284 0
M  V30 4107 C 701.266 0.996264 -5.77469 0
M  V30 4108 N 701.316 0.0501808 -4.62873 0
M  V30 4109 C 701.466 0.578037 -3.3505 0
M  V30 4110 O 701.556 1.8073 -3.21711 0
M  V30 4111 N 701.516 -0.468541 -2.263 0
M  V30 4112 C 701.416 -1.59186 -2.47176 0
M  V30 4113 N 701.466 -2.37626 -1.40392 0
M  V30 4114 C 701.266 -2.16203 -3.77467 0
M  V30 4115 C 701.216 -1.29324 -4.8195 0
M  V30 4116 H 698.476 -0.374679 -8.67591 0
M  V30 4117 H 698.207 -0.443421 -6.90177 0
M  V30 4118 H 699.074 1.75559 -7.96891 0
M  V30 4119 H 701.729 1.94529 -5.46723 0
M  V30 4120 H 702.008 -0.608651 -7.04676 0
M  V30 4121 H 703 0.889672 -7.08939 0
M  V30 4122 H 701.166 0.43308 -9.04564 0
M  V30 4123 H 701.094 -1.67758 -5.83046 0
M  V30 4124 H 701.196 -3.23869 -3.92281 0
M  V30 4125 H 701.584 -1.96317 -0.467202 0
M  V30 4126 H 701.387 -3.39693 -1.51142 0
M  V30 4127 P 703.036 2.75334 -8.47391 0
M  V30 4128 O 703.256 3.84128 -9.44797 0
M  V30 4129 O 703.826 1.51947 -8.68712 0
M  V30 4130 O 703.286 3.29363 -6.99321 0
M  V30 4131 C 702.346 4.24011 -6.4274 0
M  V30 4132 C 703.076 5.20775 -5.52155 0
M  V30 4133 O 703.286 4.56534 -4.22446 0
M  V30 4134 C 704.476 5.62629 -5.96531 0
M  V30 4135 O 704.866 6.87667 -5.41053 0
M  V30 4136 C 705.356 4.52537 -5.39283 0
M  V30 4137 C 704.646 4.20027 -4.08623 0
M  V30 4138 N 704.696 2.76189 -3.71603 0
M  V30 4139 C 704.616 1.64862 -4.52822 0
M  V30 4140 N 704.696 0.512671 -3.88633 0
M  V30 4141 C 704.836 0.888083 -2.54977 0
M  V30 4142 C 704.966 0.094668 -1.38677 0
M  V30 4143 O 704.986 -1.13053 -1.28163 0
M  V30 4144 N 705.086 0.890102 -0.232633 0
M  V30 4145 C 705.086 2.26958 -0.21772 0
M  V30 4146 N 705.216 2.84626 0.97925 0
M  V30 4147 N 704.956 3.0178 -1.31033 0
M  V30 4148 C 704.836 2.26781 -2.43843 0
M  V30 4149 H 701.857 4.797 -7.24003 0
M  V30 4150 H 701.587 3.69856 -5.84513 0
M  V30 4151 H 702.454 6.10356 -5.41441 0
M  V30 4152 H 705.109 4.79061 -3.27488 0
M  V30 4153 H 705.388 3.64906 -6.05785 0
M  V30 4154 H 706.38 4.8868 -5.2125 0
M  V30 4155 H 704.546 5.66726 -7.06352 0
M  V30 4156 H 704.497 1.71169 -5.60966 0
M  V30 4157 H 705.179 0.419134 0.644739 0
M  V30 4158 H 705.216 3.87332 1.06098 0
M  V30 4159 H 705.317 2.26417 1.82483 0
M  V30 4160 P 706.416 7.20834 -5.23717 0
M  V30 4161 O 706.636 8.66104 -5.38572 0
M  V30 4162 O 707.206 6.33544 -6.1349 0
M  V30 4163 O 706.666 6.7751 -3.72168 0
M  V30 4164 C 705.726 7.20825 -2.7076 0
M  V30 4165 C 706.456 7.45864 -1.40599 0
M  V30 4166 O 706.666 6.17651 -0.734225 0
M  V30 4167 C 707.856 8.05808 -1.51899 0
M  V30 4168 O 708.246 8.74358 -0.335205 0
M  V30 4169 C 708.736 6.83093 -1.70294 0
M  V30 4170 C 708.026 5.79992 -0.836974 0
M  V30 4171 N 708.076 4.41864 -1.38293 0
M  V30 4172 H 705.237 8.13644 -3.0377 0
M  V30 4173 H 704.967 6.42788 -2.55485 0
M  V30 4174 H 705.834 8.12039 -0.792769 0
M  V30 4175 P 709.796 8.91 4.82899e-12 0
M  V30 4176 O 710.016 10.1726 0.733694 0
M  V30 4177 O 710.586 8.73148 -1.23936 0
M  V30 4178 O 710.046 7.66872 0.971405 0
M  V30 4179 C 709.106 7.42309 2.04641 0
M  V30 4180 C 709.836 6.86059 3.24661 0
M  V30 4181 O 710.046 5.42847 3.03646 0
M  V30 4182 C 711.236 7.41196 3.50753 0
M  V30 4183 O 711.626 7.27073 4.86816 0
M  V30 4184 C 712.116 6.5273 2.63741 0
M  V30 4185 C 711.406 5.1842 2.73198 0
M  V30 4186 N 711.456 4.38762 1.4784 0
M  V30 4187 H 708.617 8.36803 2.32493 0
M  V30 4188 H 708.347 6.70197 1.71129 0
M  V30 4189 H 709.214 7.03551 4.13168 0
M  V30 4190 P 713.176 7.20834 5.23717 0
M  V30 4191 O 713.396 7.79853 6.57286 0
M  V30 4192 O 713.966 7.79239 4.12957 0
M  V30 4193 O 713.426 5.63315 5.29344 0
M  V30 4194 C 712.486 4.80255 6.01876 0
M  V30 4195 C 713.216 3.64202 6.65911 0
M  V30 4196 O 713.426 2.60694 5.64732 0
M  V30 4197 C 714.616 3.93473 7.1943 0
M  V30 4198 O 715.006 3.02071 8.21205 0
M  V30 4199 C 715.496 3.73047 5.97036 0
M  V30 4200 C 714.786 2.58828 5.25741 0
M  V30 4201 N 714.836 2.68068 3.77503 0
M  V30 4202 H 711.997 5.40332 6.79951 0
M  V30 4203 H 711.727 4.41613 5.32378 0
M  V30 4204 H 712.594 3.26331 7.47797 0
M  V30 4205 P 716.556 2.75334 8.47391 0
M  V30 4206 O 716.776 2.44571 9.90142 0
M  V30 4207 O 717.346 3.87688 7.92115 0
M  V30 4208 O 716.806 1.4459 7.59357 0
M  V30 4209 C 715.866 0.347608 7.69215 0
M  V30 4210 C 716.596 -0.96767 7.52806 0
M  V30 4211 O 716.806 -1.21036 6.1011 0
M  V30 4212 C 717.996 -1.04544 8.13308 0
M  V30 4213 O 718.386 -2.38311 8.41922 0
M  V30 4214 C 718.876 -0.491279 7.02284 0
M  V30 4215 C 718.166 -0.996264 5.77469 0
M  V30 4216 N 718.216 -0.0501916 4.62973 0
M  V30 4217 H 715.377 0.374722 8.67691 0
M  V30 4218 H 715.107 0.443485 6.90277 0
M  V30 4219 H 715.974 -1.75537 7.96793 0
M  V30 4220 P 719.936 -2.75334 8.47391 0
M  V30 4221 O 720.156 -3.84204 9.44982 0
M  V30 4222 O 720.726 -1.51982 8.68909 0
M  V30 4223 O 720.186 -3.29363 6.99321 0
M  V30 4224 C 719.246 -4.24066 6.42823 0
M  V30 4225 C 719.976 -5.20775 5.52155 0
M  V30 4226 O 720.186 -4.56607 4.22514 0
M  V30 4227 C 721.376 -5.62697 5.96604 0
M  V30 4228 O 721.766 -6.87667 5.41053 0
M  V30 4229 C 722.256 -4.52537 5.39283 0
M  V30 4230 C 721.546 -4.20027 4.08623 0
M  V30 4231 N 721.596 -2.76189 3.71603 0
M  V30 4232 C 721.516 -1.66944 4.54297 0
M  V30 4233 N 721.586 -0.536169 3.91344 0
M  V30 4234 C 721.736 -0.901569 2.58849 0
M  V30 4235 C 721.866 -0.146599 1.40236 0
M  V30 4236 N 721.876 1.18234 1.37046 0
M  V30 4237 N 721.986 -0.822941 0.249738 0
M  V30 4238 C 721.976 -2.15179 0.280525 0
M  V30 4239 N 721.856 -2.96414 1.30822 0
M  V30 4240 C 721.736 -2.25804 2.44748 0
M  V30 4241 H 718.758 -4.79756 7.24086 0
M  V30 4242 H 718.486 -3.69963 5.84682 0
M  V30 4243 H 719.354 -6.10431 5.41508 0
M  V30 4244 H 722.009 -4.78816 3.28024 0
M  V30 4245 H 722.289 -3.64957 6.05871 0
M  V30 4246 H 723.28 -4.88748 5.21323 0
M  V30 4247 H 721.446 -5.66789 7.0643 0
M  V30 4248 H 721.405 -1.74684 5.62396 0
M  V30 4249 H 721.786 1.71949 2.24394 0
M  V30 4250 H 721.975 1.67511 0.470742 0
M  V30 4251 H 722.083 -2.63704 -0.6828 0
M  V30 4252 P 723.316 -7.20834 5.23717 0
M  V30 4253 O 723.536 -8.66274 5.38678 0
M  V30 4254 O 724.106 -6.33687 6.13629 0
M  V30 4255 O 723.566 -6.7751 3.72168 0
M  V30 4256 C 722.626 -7.20919 2.70795 0
M  V30 4257 C 723.356 -7.45864 1.40599 0
M  V30 4258 O 723.566 -6.17751 0.734343 0
M  V30 4259 C 724.756 -8.05906 1.51917 0
M  V30 4260 O 725.146 -8.74358 0.335205 0
M  V30 4261 C 725.636 -6.83093 1.70294 0
M  V30 4262 C 724.926 -5.79992 0.836974 0
M  V30 4263 N 724.976 -4.41864 1.38293 0
M  V30 4264 H 722.138 -8.13738 3.03804 0
M  V30 4265 H 721.866 -6.42974 2.55559 0
M  V30 4266 H 722.734 -8.12139 0.792866 0
M  V30 4267 H 725.389 -5.80178 -0.160643 0
M  V30 4268 H 725.669 -6.51379 2.75643 0
M  V30 4269 H 726.66 -7.01832 1.3448 0
M  V30 4270 H 724.826 -8.73771 2.38364 0
M  V30 4271 P 726.696 -8.91 -4.98617e-12 0
M  V30 4272 O 726.916 -10.1726 -0.733694 0
M  V30 4273 O 727.486 -8.73148 1.23936 0
M  V30 4274 O 726.946 -7.66872 -0.971405 0
M  V30 4275 C 726.006 -7.42309 -2.04641 0
M  V30 4276 C 726.736 -6.86059 -3.24661 0
M  V30 4277 O 726.946 -5.42847 -3.03646 0
M  V30 4278 C 728.136 -7.41196 -3.50753 0
M  V30 4279 O 728.526 -7.27073 -4.86816 0
M  V30 4280 C 729.016 -6.5273 -2.63741 0
M  V30 4281 C 728.306 -5.1842 -2.73198 0
M  V30 4282 N 728.356 -4.38762 -1.4784 0
M  V30 4283 H 725.517 -8.36803 -2.32493 0
M  V30 4284 H 725.247 -6.70197 -1.71129 0
M  V30 4285 H 726.114 -7.03551 -4.13168 0
M  V30 4286 P 730.076 -7.20834 -5.23717 0
M  V30 4287 O 730.296 -7.79853 -6.57286 0
M  V30 4288 O 730.866 -7.79239 -4.12957 0
M  V30 4289 O 730.326 -5.63315 -5.29344 0
M  V30 4290 C 729.386 -4.80255 -6.01876 0
M  V30 4291 C 730.116 -3.64202 -6.65911 0
M  V30 4292 O 730.326 -2.60694 -5.64732 0
M  V30 4293 C 731.516 -3.93473 -7.1943 0
M  V30 4294 O 731.906 -3.02071 -8.21205 0
M  V30 4295 C 732.396 -3.73047 -5.97036 0
M  V30 4296 C 731.686 -2.58828 -5.25741 0
M  V30 4297 N 731.736 -2.68068 -3.77503 0
M  V30 4298 H 728.897 -5.40332 -6.79951 0
M  V30 4299 H 728.627 -4.41613 -5.32378 0
M  V30 4300 H 729.494 -3.26331 -7.47797 0
M  V30 4301 P 733.456 -2.75334 -8.47391 0
M  V30 4302 O 733.676 -2.44571 -9.90142 0
M  V30 4303 O 734.246 -3.87688 -7.92115 0
M  V30 4304 O 733.706 -1.4459 -7.59357 0
M  V30 4305 C 732.766 -0.347608 -7.69215 0
M  V30 4306 C 733.496 0.96767 -7.52806 0
M  V30 4307 O 733.706 1.21036 -6.1011 0
M  V30 4308 C 734.896 1.04544 -8.13308 0
M  V30 4309 O 735.286 2.38311 -8.41922 0
M  V30 4310 C 735.776 0.491279 -7.02284 0
M  V30 4311 C 735.066 0.996264 -5.77469 0
M  V30 4312 N 735.116 0.0501916 -4.62973 0
M  V30 4313 H 732.277 -0.374722 -8.67691 0
M  V30 4314 H 732.007 -0.443485 -6.90277 0
M  V30 4315 H 732.874 1.75537 -7.96793 0
M  V30 4316 P 736.836 2.75334 -8.47391 0
M  V30 4317 O 737.056 3.84128 -9.44797 0
M  V30 4318 O 737.626 1.51947 -8.68712 0
M  V30 4319 O 737.086 3.29363 -6.99321 0
M  V30 4320 C 736.146 4.24011 -6.4274 0
M  V30 4321 C 736.876 5.20775 -5.52155 0
M  V30 4322 O 737.086 4.56534 -4.22446 0
M  V30 4323 C 738.276 5.62629 -5.96531 0
M  V30 4324 O 738.666 6.87667 -5.41053 0
M  V30 4325 C 739.156 4.52537 -5.39283 0
M  V30 4326 C 738.446 4.20027 -4.08623 0
M  V30 4327 N 738.496 2.76189 -3.71603 0
M  V30 4328 H 735.657 4.797 -7.24003 0
M  V30 4329 H 735.387 3.69856 -5.84513 0
M  V30 4330 H 736.254 6.10356 -5.41441 0
M  V30 4331 P 740.216 7.20834 -5.23717 0
M  V30 4332 O 740.436 8.66104 -5.38572 0
M  V30 4333 O 741.006 6.33544 -6.1349 0
M  V30 4334 O 740.466 6.7751 -3.72168 0
M  V30 4335 C 739.526 7.20825 -2.7076 0
M  V30 4336 C 740.256 7.45864 -1.40599 0
M  V30 4337 O 740.466 6.17651 -0.734225 0
M  V30 4338 C 741.656 8.05808 -1.51899 0
M  V30 4339 O 742.046 8.74358 -0.335205 0
M  V30 4340 C 742.536 6.83093 -1.70294 0
M  V30 4341 C 741.826 5.79992 -0.836974 0
M  V30 4342 N 741.876 4.41864 -1.38293 0
M  V30 4343 H 739.037 8.13644 -3.0377 0
M  V30 4344 H 738.767 6.42788 -2.55485 0
M  V30 4345 H 739.634 8.12039 -0.792769 0
M  V30 4346 P 743.596 8.91 5.14336e-12 0
M  V30 4347 O 743.816 10.1726 0.733694 0
M  V30 4348 O 744.386 8.73148 -1.23936 0
M  V30 4349 O 743.846 7.66872 0.971405 0
M  V30 4350 C 742.906 7.42309 2.04641 0
M  V30 4351 C 743.636 6.86059 3.24661 0
M  V30 4352 O 743.846 5.42847 3.03646 0
M  V30 4353 C 745.036 7.41196 3.50753 0
M  V30 4354 O 745.426 7.27073 4.86816 0
M  V30 4355 C 745.916 6.5273 2.63741 0
M  V30 4356 C 745.206 5.1842 2.73198 0
M  V30 4357 N 745.256 4.38762 1.4784 0
M  V30 4358 C 745.176 4.81605 0.168631 0
M  V30 4359 N 745.256 3.85454 -0.713363 0
M  V30 4360 C 745.396 2.6994 0.0566958 0
M  V30 4361 C 745.526 1.34815 -0.338502 0
M  V30 4362 N 745.646 0.496304 0.77465 0
M  V30 4363 C 745.646 0.908403 2.09122 0
M  V30 4364 N 745.776 -0.0517805 3.00955 0
M  V30 4365 N 745.516 2.17875 2.46519 0
M  V30 4366 C 745.396 3.01988 1.4033 0
M  V30 4367 H 742.417 8.36803 2.32493 0
M  V30 4368 H 742.147 6.70197 1.71129 0
M  V30 4369 H 743.014 7.03551 4.13168 0
M  V30 4370 P 746.976 7.20834 5.23717 0
M  V30 4371 O 747.196 7.79853 6.57286 0
M  V30 4372 O 747.766 7.79239 4.12957 0
M  V30 4373 O 747.226 5.63315 5.29344 0
M  V30 4374 C 746.286 4.80255 6.01876 0
M  V30 4375 C 747.016 3.64202 6.65911 0
M  V30 4376 O 747.226 2.60694 5.64732 0
M  V30 4377 C 748.416 3.93473 7.1943 0
M  V30 4378 O 748.806 3.02071 8.21205 0
M  V30 4379 C 749.296 3.73047 5.97036 0
M  V30 4380 C 748.586 2.58828 5.25741 0
M  V30 4381 N 748.636 2.68068 3.77503 0
M  V30 4382 H 745.797 5.40332 6.79951 0
M  V30 4383 H 745.527 4.41613 5.32378 0
M  V30 4384 H 746.394 3.26331 7.47797 0
M  V30 4385 P 750.356 2.75334 8.47391 0
M  V30 4386 O 750.576 2.44571 9.90142 0
M  V30 4387 O 751.146 3.87688 7.92115 0
M  V30 4388 O 750.606 1.4459 7.59357 0
M  V30 4389 C 749.666 0.347608 7.69215 0
M  V30 4390 C 750.396 -0.96767 7.52806 0
M  V30 4391 O 750.606 -1.21036 6.1011 0
M  V30 4392 C 751.796 -1.04544 8.13308 0
M  V30 4393 O 752.186 -2.38311 8.41922 0
M  V30 4394 C 752.676 -0.491279 7.02284 0
M  V30 4395 C 751.966 -0.996264 5.77469 0
M  V30 4396 N 752.016 -0.0501916 4.62973 0
M  V30 4397 H 749.177 0.374722 8.67691 0
M  V30 4398 H 748.907 0.443485 6.90277 0
M  V30 4399 H 749.774 -1.75537 7.96793 0
M  V30 4400 P 753.736 -2.75334 8.47391 0
M  V30 4401 O 753.956 -3.84128 9.44797 0
M  V30 4402 O 754.526 -1.51947 8.68712 0
M  V30 4403 O 753.986 -3.29363 6.99321 0
M  V30 4404 C 753.046 -4.24011 6.4274 0
M  V30 4405 C 753.776 -5.20775 5.52155 0
M  V30 4406 O 753.986 -4.56534 4.22446 0
M  V30 4407 C 755.176 -5.62629 5.96531 0
M  V30 4408 O 755.566 -6.87667 5.41053 0
M  V30 4409 C 756.056 -4.52537 5.39283 0
M  V30 4410 C 755.346 -4.20027 4.08623 0
M  V30 4411 N 755.396 -2.76189 3.71603 0
M  V30 4412 H 752.557 -4.797 7.24003 0
M  V30 4413 H 752.287 -3.69856 5.84513 0
M  V30 4414 H 753.154 -6.10356 5.41441 0
M  V30 4415 P 757.116 -7.20834 5.23717 0
M  V30 4416 O 757.336 -8.66104 5.38572 0
M  V30 4417 O 757.906 -6.33544 6.1349 0
M  V30 4418 O 757.366 -6.7751 3.72168 0
M  V30 4419 C 756.426 -7.20825 2.7076 0
M  V30 4420 C 757.156 -7.45864 1.40599 0
M  V30 4421 O 757.366 -6.17651 0.734225 0
M  V30 4422 C 758.556 -8.05808 1.51899 0
M  V30 4423 O 758.946 -8.74358 0.335205 0
M  V30 4424 C 759.436 -6.83093 1.70294 0
M  V30 4425 C 758.726 -5.79992 0.836974 0
M  V30 4426 N 758.776 -4.41864 1.38293 0
M  V30 4427 C 758.696 -3.99538 2.69438 0
M  V30 4428 N 758.776 -2.69909 2.84277 0
M  V30 4429 C 758.916 -2.21719 1.5408 0
M  V30 4430 C 759.046 -0.891712 1.06628 0
M  V30 4431 O 759.066 0.161298 1.70137 0
M  V30 4432 N 759.166 -0.856846 -0.334985 0
M  V30 4433 C 759.166 -1.9641 -1.15789 0
M  V30 4434 N 759.296 -1.72708 -2.46522 0
M  V30 4435 N 759.036 -3.21165 -0.713741 0
M  V30 4436 C 758.916 -3.26797 0.639748 0
M  V30 4437 H 755.937 -8.13644 3.0377 0
M  V30 4438 H 755.667 -6.42788 2.55485 0
M  V30 4439 H 756.534 -8.12039 0.792769 0
M  V30 4440 H 759.189 -5.80061 -0.166416 0
M  V30 4441 H 759.468 -6.51287 2.75604 0
M  V30 4442 H 760.46 -7.01734 1.34462 0
M  V30 4443 H 758.626 -8.73674 2.38337 0
M  V30 4444 H 758.577 -4.68207 3.53221 0
M  V30 4445 H 759.259 0.0398818 -0.767965 0
M  V30 4446 H 759.296 -2.50995 -3.13503 0
M  V30 4447 H 759.397 -0.759148 -2.80716 0
M  V30 4448 P 760.496 -8.91 -5.30054e-12 0
M  V30 4449 O 760.716 -10.1726 -0.733694 0
M  V30 4450 O 761.286 -8.73148 1.23936 0
M  V30 4451 O 760.746 -7.66872 -0.971405 0
M  V30 4452 C 759.806 -7.42309 -2.04641 0
M  V30 4453 C 760.536 -6.86059 -3.24661 0
M  V30 4454 O 760.746 -5.42847 -3.03646 0
M  V30 4455 C 761.936 -7.41196 -3.50753 0
M  V30 4456 O 762.326 -7.27073 -4.86816 0
M  V30 4457 C 762.816 -6.5273 -2.63741 0
M  V30 4458 C 762.106 -5.1842 -2.73198 0
M  V30 4459 N 762.156 -4.38762 -1.4784 0
M  V30 4460 H 759.317 -8.36803 -2.32493 0
M  V30 4461 H 759.047 -6.70197 -1.71129 0
M  V30 4462 H 759.914 -7.03551 -4.13168 0
M  V30 4463 P 763.875 -7.20834 -5.23717 0
M  V30 4464 O 764.095 -7.79853 -6.57286 0
M  V30 4465 O 764.665 -7.79239 -4.12957 0
M  V30 4466 O 764.125 -5.63315 -5.29344 0
M  V30 4467 C 763.185 -4.80255 -6.01876 0
M  V30 4468 C 763.915 -3.64202 -6.65911 0
M  V30 4469 O 764.125 -2.60694 -5.64732 0
M  V30 4470 C 765.315 -3.93473 -7.1943 0
M  V30 4471 O 765.705 -3.02071 -8.21205 0
M  V30 4472 C 766.195 -3.73047 -5.97036 0
M  V30 4473 C 765.485 -2.58828 -5.25741 0
M  V30 4474 N 765.535 -2.68068 -3.77503 0
M  V30 4475 H 762.696 -5.40332 -6.79951 0
M  V30 4476 H 762.426 -4.41613 -5.32378 0
M  V30 4477 H 763.293 -3.26331 -7.47797 0
M  V30 4478 P 767.255 -2.75334 -8.47391 0
M  V30 4479 O 767.475 -2.44571 -9.90142 0
M  V30 4480 O 768.045 -3.87688 -7.92115 0
M  V30 4481 O 767.505 -1.4459 -7.59357 0
M  V30 4482 C 766.565 -0.347608 -7.69215 0
M  V30 4483 C 767.295 0.96767 -7.52806 0
M  V30 4484 O 767.505 1.21036 -6.1011 0
M  V30 4485 C 768.695 1.04544 -8.13308 0
M  V30 4486 O 769.085 2.38311 -8.41922 0
M  V30 4487 C 769.575 0.491279 -7.02284 0
M  V30 4488 C 768.865 0.996264 -5.77469 0
M  V30 4489 N 768.915 0.0501916 -4.62973 0
M  V30 4490 H 766.076 -0.374722 -8.67691 0
M  V30 4491 H 765.806 -0.443485 -6.90277 0
M  V30 4492 H 766.673 1.75537 -7.96793 0
M  V30 4493 P 770.635 2.75334 -8.47391 0
M  V30 4494 O 770.855 3.84128 -9.44797 0
M  V30 4495 O 771.425 1.51947 -8.68712 0
M  V30 4496 O 770.885 3.29363 -6.99321 0
M  V30 4497 C 769.945 4.24011 -6.4274 0
M  V30 4498 C 770.675 5.20775 -5.52155 0
M  V30 4499 O 770.885 4.56534 -4.22446 0
M  V30 4500 C 772.075 5.62629 -5.96531 0
M  V30 4501 O 772.465 6.87667 -5.41053 0
M  V30 4502 C 772.955 4.52537 -5.39283 0
M  V30 4503 C 772.245 4.20027 -4.08623 0
M  V30 4504 N 772.295 2.76189 -3.71603 0
M  V30 4505 H 769.456 4.797 -7.24003 0
M  V30 4506 H 769.186 3.69856 -5.84513 0
M  V30 4507 H 770.053 6.10356 -5.41441 0
M  V30 4508 P 774.015 7.20834 -5.23717 0
M  V30 4509 O 774.235 8.66274 -5.38678 0
M  V30 4510 O 774.805 6.33687 -6.13629 0
M  V30 4511 O 774.265 6.7751 -3.72168 0
M  V30 4512 C 773.325 7.20919 -2.70795 0
M  V30 4513 C 774.055 7.45864 -1.40599 0
M  V30 4514 O 774.265 6.17751 -0.734343 0
M  V30 4515 C 775.455 8.05906 -1.51917 0
M  V30 4516 O 775.845 8.74358 -0.335205 0
M  V30 4517 C 776.335 6.83093 -1.70294 0
M  V30 4518 C 775.625 5.79992 -0.836974 0
M  V30 4519 N 775.675 4.41864 -1.38293 0
M  V30 4520 C 775.595 4.02089 -2.69407 0
M  V30 4521 N 775.665 2.73403 -2.85089 0
M  V30 4522 C 775.815 2.25086 -1.5642 0
M  V30 4523 C 775.945 0.942887 -1.04836 0
M  V30 4524 N 775.955 -0.150999 -1.80369 0
M  V30 4525 N 776.065 0.812565 0.28167 0
M  V30 4526 C 776.055 1.90572 1.03784 0
M  V30 4527 N 775.935 3.167 0.683905 0
M  V30 4528 C 775.815 3.26538 -0.652815 0
M  V30 4529 H 772.837 8.13738 -3.03804 0
M  V30 4530 H 772.565 6.42974 -2.55559 0
M  V30 4531 H 773.433 8.12139 -0.792866 0
M  V30 4532 H 776.088 5.80178 0.160643 0
M  V30 4533 H 776.368 6.51379 -2.75643 0
M  V30 4534 H 777.359 7.01832 -1.3448 0
M  V30 4535 H 775.525 8.73771 -2.38364 0
M  V30 4536 H 775.484 4.7189 -3.52311 0
M  V30 4537 H 775.865 -0.0721434 -2.82608 0
M  V30 4538 H 776.054 -1.0785 -1.36544 0
M  V30 4539 H 776.162 1.73207 2.10241 0
M  V30 4540 P 777.395 8.91 5.45772e-12 0
M  V30 4541 O 777.615 10.1726 0.733694 0
M  V30 4542 O 778.185 8.73148 -1.23936 0
M  V30 4543 O 777.645 7.66872 0.971405 0
M  V30 4544 C 776.705 7.42309 2.04641 0
M  V30 4545 C 777.435 6.86059 3.24661 0
M  V30 4546 O 777.645 5.42847 3.03646 0
M  V30 4547 C 778.835 7.41196 3.50753 0
M  V30 4548 O 779.225 7.27073 4.86816 0
M  V30 4549 C 779.715 6.5273 2.63741 0
M  V30 4550 C 779.005 5.1842 2.73198 0
M  V30 4551 N 779.055 4.38762 1.4784 0
M  V30 4552 C 778.975 4.81605 0.168631 0
M  V30 4553 N 779.055 3.85454 -0.713363 0
M  V30 4554 C 779.195 2.6994 0.0566958 0
M  V30 4555 C 779.325 1.34815 -0.338502 0
M  V30 4556 O 779.345 0.869548 -1.47125 0
M  V30 4557 N 779.445 0.496304 0.77465 0
M  V30 4558 C 779.445 0.908403 2.09122 0
M  V30 4559 N 779.575 -0.0517805 3.00955 0
M  V30 4560 N 779.315 2.17875 2.46519 0
M  V30 4561 C 779.195 3.01988 1.4033 0
M  V30 4562 H 776.216 8.36803 2.32493 0
M  V30 4563 H 775.946 6.70197 1.71129 0
M  V30 4564 H 776.813 7.03551 4.13168 0
M  V30 4565 H 779.468 4.59498 3.54415 0
M  V30 4566 H 779.747 6.88898 1.59848 0
M  V30 4567 H 780.739 6.46749 3.03687 0
M  V30 4568 H 778.905 8.46908 3.20714 0
M  V30 4569 H 778.856 5.86405 -0.105564 0
M  V30 4570 H 779.538 -0.483664 0.597855 0
M  V30 4571 H 779.575 0.187865 4.0116 0
M  V30 4572 H 779.676 -1.03585 2.71726 0
M  V30 4573 P 780.775 7.20834 5.23717 0
M  V30 4574 O 780.995 7.79853 6.57286 0
M  V30 4575 O 781.565 7.79239 4.12957 0
M  V30 4576 O 781.025 5.63315 5.29344 0
M  V30 4577 C 780.085 4.80255 6.01876 0
M  V30 4578 C 780.815 3.64202 6.65911 0
M  V30 4579 O 781.025 2.60694 5.64732 0
M  V30 4580 C 782.215 3.93473 7.1943 0
M  V30 4581 O 782.605 3.02071 8.21205 0
M  V30 4582 C 783.095 3.73047 5.97036 0
M  V30 4583 C 782.385 2.58828 5.25741 0
M  V30 4584 N 782.435 2.68068 3.77503 0
M  V30 4585 H 779.596 5.40332 6.79951 0
M  V30 4586 H 779.326 4.41613 5.32378 0
M  V30 4587 H 780.193 3.26331 7.47797 0
M  V30 4588 P 784.155 2.75334 8.47391 0
M  V30 4589 O 784.375 2.44595 9.90239 0
M  V30 4590 O 784.945 3.87732 7.92204 0
M  V30 4591 O 784.405 1.4459 7.59357 0
M  V30 4592 C 783.465 0.347563 7.69115 0
M  V30 4593 C 784.195 -0.96767 7.52806 0
M  V30 4594 O 784.405 -1.21036 6.1011 0
M  V30 4595 C 785.595 -1.04544 8.13308 0
M  V30 4596 O 785.985 -2.38311 8.41922 0
M  V30 4597 C 786.475 -0.491279 7.02284 0
M  V30 4598 C 785.765 -0.996264 5.77469 0
M  V30 4599 N 785.815 -0.0501808 4.62873 0
M  V30 4600 C 785.965 -0.588177 3.36904 0
M  V30 4601 O 786.055 -1.78598 3.17173 0
M  V30 4602 N 786.005 0.329694 2.33686 0
M  V30 4603 C 785.915 1.6953 2.45079 0
M  V30 4604 O 785.965 2.41926 1.44899 0
M  V30 4605 C 785.765 2.16933 3.80505 0
M  V30 4606 C 785.655 3.65373 3.97621 0
M  V30 4607 C 785.715 1.30326 4.83752 0
M  V30 4608 H 782.975 0.374722 8.67691 0
M  V30 4609 H 782.706 0.443421 6.90177 0
M  V30 4610 H 783.573 -1.75537 7.96793 0
M  V30 4611 H 786.228 -1.94496 5.46629 0
M  V30 4612 H 786.507 0.608651 7.04676 0
M  V30 4613 H 787.499 -0.889672 7.08939 0
M  V30 4614 H 785.665 -0.43308 9.04564 0
M  V30 4615 H 785.594 1.68366 5.8516 0
M  V30 4616 H 786.624 4.05985 4.30448 0
M  V30 4617 H 784.887 3.88028 4.72875 0
M  V30 4618 H 785.375 4.11381 3.01609 0
M  V30 4619 H 786.111 -0.0393617 1.41345 0
M  V30 4620 P 787.535 -2.75334 8.47391 0
M  V30 4621 O 787.755 -3.84128 9.44797 0
M  V30 4622 O 788.325 -1.51947 8.68712 0
M  V30 4623 O 787.785 -3.29363 6.99321 0
M  V30 4624 C 786.845 -4.24011 6.4274 0
M  V30 4625 C 787.575 -5.20775 5.52155 0
M  V30 4626 O 787.785 -4.56534 4.22446 0
M  V30 4627 C 788.975 -5.62629 5.96531 0
M  V30 4628 O 789.365 -6.87667 5.41053 0
M  V30 4629 C 789.855 -4.52537 5.39283 0
M  V30 4630 C 789.145 -4.20027 4.08623 0
M  V30 4631 N 789.195 -2.76189 3.71603 0
M  V30 4632 H 786.356 -4.797 7.24003 0
M  V30 4633 H 786.086 -3.69856 5.84513 0
M  V30 4634 H 786.953 -6.10356 5.41441 0
M  V30 4635 P 790.915 -7.20834 5.23717 0
M  V30 4636 O 791.135 -8.66104 5.38572 0
M  V30 4637 O 791.705 -6.33544 6.1349 0
M  V30 4638 O 791.165 -6.7751 3.72168 0
M  V30 4639 C 790.225 -7.20825 2.7076 0
M  V30 4640 C 790.955 -7.45864 1.40599 0
M  V30 4641 O 791.165 -6.17651 0.734225 0
M  V30 4642 C 792.355 -8.05808 1.51899 0
M  V30 4643 O 792.745 -8.74358 0.335205 0
M  V30 4644 C 793.235 -6.83093 1.70294 0
M  V30 4645 C 792.525 -5.79992 0.836974 0
M  V30 4646 N 792.575 -4.41864 1.38293 0
M  V30 4647 H 789.736 -8.13644 3.0377 0
M  V30 4648 H 789.466 -6.42788 2.55485 0
M  V30 4649 H 790.333 -8.12039 0.792769 0
M  V30 4650 P 794.295 -8.91 -5.6149e-12 0
M  V30 4651 O 794.515 -10.1726 -0.733694 0
M  V30 4652 O 795.085 -8.73148 1.23936 0
M  V30 4653 O 794.545 -7.66872 -0.971405 0
M  V30 4654 C 793.605 -7.42309 -2.04641 0
M  V30 4655 C 794.335 -6.86059 -3.24661 0
M  V30 4656 O 794.545 -5.42847 -3.03646 0
M  V30 4657 C 795.735 -7.41196 -3.50753 0
M  V30 4658 O 796.125 -7.27073 -4.86816 0
M  V30 4659 C 796.615 -6.5273 -2.63741 0
M  V30 4660 C 795.905 -5.1842 -2.73198 0
M  V30 4661 N 795.955 -4.38762 -1.4784 0
M  V30 4662 H 793.116 -8.36803 -2.32493 0
M  V30 4663 H 792.846 -6.70197 -1.71129 0
M  V30 4664 H 793.713 -7.03551 -4.13168 0
M  V30 4665 P 797.675 -7.20834 -5.23717 0
M  V30 4666 O 797.895 -7.79853 -6.57286 0
M  V30 4667 O 798.465 -7.79239 -4.12957 0
M  V30 4668 O 797.925 -5.63315 -5.29344 0
M  V30 4669 C 796.985 -4.80255 -6.01876 0
M  V30 4670 C 797.715 -3.64202 -6.65911 0
M  V30 4671 O 797.925 -2.60694 -5.64732 0
M  V30 4672 C 799.115 -3.93473 -7.1943 0
M  V30 4673 O 799.505 -3.02071 -8.21205 0
M  V30 4674 C 799.995 -3.73047 -5.97036 0
M  V30 4675 C 799.285 -2.58828 -5.25741 0
M  V30 4676 N 799.335 -2.68068 -3.77503 0
M  V30 4677 C 799.255 -3.79715 -2.96723 0
M  V30 4678 N 799.335 -3.5377 -1.68852 0
M  V30 4679 C 799.475 -2.15054 -1.63254 0
M  V30 4680 C 799.605 -1.28964 -0.518571 0
M  V30 4681 N 799.725 0.0538097 -0.918425 0
M  V30 4682 C 799.725 0.494275 -2.22578 0
M  V30 4683 N 799.855 1.81086 -2.40434 0
M  V30 4684 N 799.595 -0.313645 -3.27502 0
M  V30 4685 C 799.475 -1.61829 -2.91033 0
M  V30 4686 H 796.496 -5.40332 -6.79951 0
M  V30 4687 H 796.226 -4.41613 -5.32378 0
M  V30 4688 H 797.093 -3.26331 -7.47797 0
M  V30 4689 P 801.055 -2.75334 -8.47391 0
M  V30 4690 O 801.275 -2.44571 -9.90142 0
M  V30 4691 O 801.845 -3.87688 -7.92115 0
M  V30 4692 O 801.305 -1.4459 -7.59357 0
M  V30 4693 C 800.365 -0.347608 -7.69215 0
M  V30 4694 C 801.095 0.96767 -7.52806 0
M  V30 4695 O 801.305 1.21036 -6.1011 0
M  V30 4696 C 802.495 1.04544 -8.13308 0
M  V30 4697 O 802.885 2.38311 -8.41922 0
M  V30 4698 C 803.375 0.491279 -7.02284 0
M  V30 4699 C 802.665 0.996264 -5.77469 0
M  V30 4700 N 802.715 0.0501916 -4.62973 0
M  V30 4701 H 799.876 -0.374722 -8.67691 0
M  V30 4702 H 799.606 -0.443485 -6.90277 0
M  V30 4703 H 800.473 1.75537 -7.96793 0
M  V30 4704 P 804.435 2.75334 -8.47391 0
M  V30 4705 O 804.655 3.84128 -9.44797 0
M  V30 4706 O 805.225 1.51947 -8.68712 0
M  V30 4707 O 804.685 3.29363 -6.99321 0
M  V30 4708 C 803.745 4.24011 -6.4274 0
M  V30 4709 C 804.475 5.20775 -5.52155 0
M  V30 4710 O 804.685 4.56534 -4.22446 0
M  V30 4711 C 805.875 5.62629 -5.96531 0
M  V30 4712 O 806.265 6.87667 -5.41053 0
M  V30 4713 C 806.755 4.52537 -5.39283 0
M  V30 4714 C 806.045 4.20027 -4.08623 0
M  V30 4715 N 806.095 2.76189 -3.71603 0
M  V30 4716 C 806.015 1.64862 -4.52822 0
M  V30 4717 N 806.095 0.512671 -3.88633 0
M  V30 4718 C 806.235 0.888083 -2.54977 0
M  V30 4719 C 806.365 0.094668 -1.38677 0
M  V30 4720 O 806.385 -1.13053 -1.28163 0
M  V30 4721 N 806.485 0.890102 -0.232633 0
M  V30 4722 C 806.485 2.26958 -0.21772 0
M  V30 4723 N 806.615 2.84626 0.97925 0
M  V30 4724 N 806.355 3.0178 -1.31033 0
M  V30 4725 C 806.235 2.26781 -2.43843 0
M  V30 4726 H 803.256 4.797 -7.24003 0
M  V30 4727 H 802.986 3.69856 -5.84513 0
M  V30 4728 H 803.853 6.10356 -5.41441 0
M  V30 4729 H 806.508 4.79061 -3.27488 0
M  V30 4730 H 806.787 3.64906 -6.05785 0
M  V30 4731 H 807.779 4.8868 -5.2125 0
M  V30 4732 H 805.945 5.66726 -7.06352 0
M  V30 4733 H 805.896 1.71169 -5.60966 0
M  V30 4734 H 806.578 0.419134 0.644739 0
M  V30 4735 H 806.615 3.87332 1.06098 0
M  V30 4736 H 806.716 2.26417 1.82483 0
M  V30 4737 P 807.815 7.20834 -5.23717 0
M  V30 4738 O 808.035 8.66104 -5.38572 0
M  V30 4739 O 808.605 6.33544 -6.1349 0
M  V30 4740 O 808.065 6.7751 -3.72168 0
M  V30 4741 C 807.125 7.20825 -2.7076 0
M  V30 4742 C 807.855 7.45864 -1.40599 0
M  V30 4743 O 808.065 6.17651 -0.734225 0
M  V30 4744 C 809.255 8.05808 -1.51899 0
M  V30 4745 O 809.645 8.74358 -0.335205 0
M  V30 4746 C 810.135 6.83093 -1.70294 0
M  V30 4747 C 809.425 5.79992 -0.836974 0
M  V30 4748 N 809.475 4.41864 -1.38293 0
M  V30 4749 H 806.636 8.13644 -3.0377 0
M  V30 4750 H 806.366 6.42788 -2.55485 0
M  V30 4751 H 807.233 8.12039 -0.792769 0
M  V30 4752 P 811.195 8.91 5.77209e-12 0
M  V30 4753 O 811.415 10.1726 0.733694 0
M  V30 4754 O 811.985 8.73148 -1.23936 0
M  V30 4755 O 811.445 7.66872 0.971405 0
M  V30 4756 C 810.505 7.42309 2.04641 0
M  V30 4757 C 811.235 6.86059 3.24661 0
M  V30 4758 O 811.445 5.42847 3.03646 0
M  V30 4759 C 812.635 7.41196 3.50753 0
M  V30 4760 O 813.025 7.27073 4.86816 0
M  V30 4761 C 813.515 6.5273 2.63741 0
M  V30 4762 C 812.805 5.1842 2.73198 0
M  V30 4763 N 812.855 4.38762 1.4784 0
M  V30 4764 C 812.775 4.81605 0.168631 0
M  V30 4765 N 812.855 3.85454 -0.713363 0
M  V30 4766 C 812.995 2.6994 0.0566958 0
M  V30 4767 C 813.125 1.34815 -0.338502 0
M  V30 4768 O 813.145 0.869548 -1.47125 0
M  V30 4769 N 813.245 0.496304 0.77465 0
M  V30 4770 C 813.245 0.908403 2.09122 0
M  V30 4771 N 813.375 -0.0517805 3.00955 0
M  V30 4772 N 813.115 2.17875 2.46519 0
M  V30 4773 C 812.995 3.01988 1.4033 0
M  V30 4774 H 810.016 8.36803 2.32493 0
M  V30 4775 H 809.746 6.70197 1.71129 0
M  V30 4776 H 810.613 7.03551 4.13168 0
M  V30 4777 H 813.268 4.59498 3.54415 0
M  V30 4778 H 813.547 6.88898 1.59848 0
M  V30 4779 H 814.539 6.46749 3.03687 0
M  V30 4780 H 812.705 8.46908 3.20714 0
M  V30 4781 H 812.656 5.86405 -0.105564 0
M  V30 4782 H 813.338 -0.483664 0.597855 0
M  V30 4783 H 813.375 0.187865 4.0116 0
M  V30 4784 H 813.476 -1.03585 2.71726 0
M  V30 4785 P 814.575 7.20834 5.23717 0
M  V30 4786 O 814.795 7.79853 6.57286 0
M  V30 4787 O 815.365 7.79239 4.12957 0
M  V30 4788 O 814.825 5.63315 5.29344 0
M  V30 4789 C 813.885 4.80255 6.01876 0
M  V30 4790 C 814.615 3.64202 6.65911 0
M  V30 4791 O 814.825 2.60694 5.64732 0
M  V30 4792 C 816.015 3.93473 7.1943 0
M  V30 4793 O 816.405 3.02071 8.21205 0
M  V30 4794 C 816.895 3.73047 5.97036 0
M  V30 4795 C 816.185 2.58828 5.25741 0
M  V30 4796 N 816.235 2.68068 3.77503 0
M  V30 4797 H 813.396 5.40332 6.79951 0
M  V30 4798 H 813.126 4.41613 5.32378 0
M  V30 4799 H 813.993 3.26331 7.47797 0
M  V30 4800 P 817.955 2.75334 8.47391 0
M  V30 4801 O 818.175 2.44571 9.90142 0
M  V30 4802 O 818.745 3.87688 7.92115 0
M  V30 4803 O 818.205 1.4459 7.59357 0
M  V30 4804 C 817.265 0.347608 7.69215 0
M  V30 4805 C 817.995 -0.96767 7.52806 0
M  V30 4806 O 818.205 -1.21036 6.1011 0
M  V30 4807 C 819.395 -1.04544 8.13308 0
M  V30 4808 O 819.785 -2.38311 8.41922 0
M  V30 4809 C 820.275 -0.491279 7.02284 0
M  V30 4810 C 819.565 -0.996264 5.77469 0
M  V30 4811 N 819.615 -0.0501916 4.62973 0
M  V30 4812 H 816.776 0.374722 8.67691 0
M  V30 4813 H 816.506 0.443485 6.90277 0
M  V30 4814 H 817.373 -1.75537 7.96793 0
M  V30 4815 P 821.335 -2.75334 8.47391 0
M  V30 4816 O 821.555 -3.84128 9.44797 0
M  V30 4817 O 822.125 -1.51947 8.68712 0
M  V30 4818 O 821.585 -3.29363 6.99321 0
M  V30 4819 C 820.645 -4.24011 6.4274 0
M  V30 4820 C 821.375 -5.20775 5.52155 0
M  V30 4821 O 821.585 -4.56534 4.22446 0
M  V30 4822 C 822.775 -5.62629 5.96531 0
M  V30 4823 O 823.165 -6.87667 5.41053 0
M  V30 4824 C 823.655 -4.52537 5.39283 0
M  V30 4825 C 822.945 -4.20027 4.08623 0
M  V30 4826 N 822.995 -2.76189 3.71603 0
M  V30 4827 H 820.156 -4.797 7.24003 0
M  V30 4828 H 819.886 -3.69856 5.84513 0
M  V30 4829 H 820.753 -6.10356 5.41441 0
M  V30 4830 P 824.715 -7.20834 5.23717 0
M  V30 4831 O 824.935 -8.66104 5.38572 0
M  V30 4832 O 825.505 -6.33544 6.1349 0
M  V30 4833 O 824.965 -6.7751 3.72168 0
M  V30 4834 C 824.025 -7.20825 2.7076 0
M  V30 4835 C 824.755 -7.45864 1.40599 0
M  V30 4836 O 824.965 -6.17651 0.734225 0
M  V30 4837 C 826.155 -8.05808 1.51899 0
M  V30 4838 O 826.545 -8.74358 0.335205 0
M  V30 4839 C 827.035 -6.83093 1.70294 0
M  V30 4840 C 826.325 -5.79992 0.836974 0
M  V30 4841 N 826.375 -4.41864 1.38293 0
M  V30 4842 H 823.536 -8.13644 3.0377 0
M  V30 4843 H 823.266 -6.42788 2.55485 0
M  V30 4844 H 824.133 -8.12039 0.792769 0
M  V30 4845 P 828.095 -8.91 -5.92927e-12 0
M  V30 4846 O 828.315 -10.1746 -0.733838 0
M  V30 4847 O 828.885 -8.73346 1.23964 0
M  V30 4848 O 828.345 -7.66872 -0.971405 0
M  V30 4849 C 827.405 -7.42405 -2.04668 0
M  V30 4850 C 828.135 -6.86059 -3.24661 0
M  V30 4851 O 828.345 -5.42934 -3.03695 0
M  V30 4852 C 829.535 -7.41287 -3.50796 0
M  V30 4853 O 829.925 -7.27073 -4.86816 0
M  V30 4854 C 830.415 -6.5273 -2.63741 0
M  V30 4855 C 829.705 -5.1842 -2.73198 0
M  V30 4856 N 829.755 -4.38762 -1.4784 0
M  V30 4857 C 829.675 -4.83651 -0.183876 0
M  V30 4858 N 829.745 -3.88759 0.699393 0
M  V30 4859 C 829.895 -2.7404 -0.0575568 0
M  V30 4860 C 830.025 -1.37902 0.293928 0
M  V30 4861 N 830.035 -0.938021 1.54797 0
M  V30 4862 N 830.145 -0.491817 -0.70549 0
M  V30 4863 C 830.135 -0.931735 -1.95979 0
M  V30 4864 N 830.015 -2.16017 -2.41481 0
M  V30 4865 C 829.895 -3.02547 -1.39121 0
M  V30 4866 H 826.917 -8.36899 -2.3252 0
M  V30 4867 H 826.645 -6.70391 -1.71179 0
M  V30 4868 H 827.513 -7.03638 -4.13219 0
M  V30 4869 H 830.168 -4.59931 -3.54016 0
M  V30 4870 H 830.448 -6.88995 -1.59871 0
M  V30 4871 H 831.439 -6.4684 -3.0373 0
M  V30 4872 H 829.605 -8.47002 -3.20749 0
M  V30 4873 H 829.564 -5.8885 0.0765548 0
M  V30 4874 H 829.945 -1.60276 2.32875 0
M  V30 4875 H 830.134 0.0699355 1.73859 0
M  V30 4876 H 830.242 -0.165507 -2.71897 0
M  V30 4877 P 831.475 -7.20834 -5.23717 0
M  V30 4878 O 831.695 -7.79853 -6.57286 0
M  V30 4879 O 832.265 -7.79239 -4.12957 0
M  V30 4880 O 831.725 -5.63315 -5.29344 0
M  V30 4881 C 830.785 -4.80255 -6.01876 0
M  V30 4882 C 831.515 -3.64202 -6.65911 0
M  V30 4883 O 831.725 -2.60694 -5.64732 0
M  V30 4884 C 832.915 -3.93473 -7.1943 0
M  V30 4885 O 833.305 -3.02071 -8.21205 0
M  V30 4886 C 833.795 -3.73047 -5.97036 0
M  V30 4887 C 833.085 -2.58828 -5.25741 0
M  V30 4888 N 833.135 -2.68068 -3.77503 0
M  V30 4889 H 830.296 -5.40332 -6.79951 0
M  V30 4890 H 830.026 -4.41613 -5.32378 0
M  V30 4891 H 830.893 -3.26331 -7.47797 0
M  V30 4892 P 834.855 -2.75334 -8.47391 0
M  V30 4893 O 835.075 -2.44571 -9.90142 0
M  V30 4894 O 835.645 -3.87688 -7.92115 0
M  V30 4895 O 835.105 -1.4459 -7.59357 0
M  V30 4896 C 834.165 -0.347608 -7.69215 0
M  V30 4897 C 834.895 0.96767 -7.52806 0
M  V30 4898 O 835.105 1.21036 -6.1011 0
M  V30 4899 C 836.295 1.04544 -8.13308 0
M  V30 4900 O 836.685 2.38311 -8.41922 0
M  V30 4901 C 837.175 0.491279 -7.02284 0
M  V30 4902 C 836.465 0.996264 -5.77469 0
M  V30 4903 N 836.515 0.0501916 -4.62973 0
M  V30 4904 H 833.676 -0.374722 -8.67691 0
M  V30 4905 H 833.406 -0.443485 -6.90277 0
M  V30 4906 H 834.273 1.75537 -7.96793 0
M  V30 4907 P 838.235 2.75334 -8.47391 0
M  V30 4908 O 838.455 3.84128 -9.44797 0
M  V30 4909 O 839.025 1.51947 -8.68712 0
M  V30 4910 O 838.485 3.29363 -6.99321 0
M  V30 4911 C 837.545 4.24011 -6.4274 0
M  V30 4912 C 838.275 5.20775 -5.52155 0
M  V30 4913 O 838.485 4.56534 -4.22446 0
M  V30 4914 C 839.675 5.62629 -5.96531 0
M  V30 4915 O 840.065 6.87667 -5.41053 0
M  V30 4916 C 840.555 4.52537 -5.39283 0
M  V30 4917 C 839.845 4.20027 -4.08623 0
M  V30 4918 N 839.895 2.76189 -3.71603 0
M  V30 4919 H 837.056 4.797 -7.24003 0
M  V30 4920 H 836.786 3.69856 -5.84513 0
M  V30 4921 H 837.653 6.10356 -5.41441 0
M  V30 4922 P 841.615 7.20834 -5.23717 0
M  V30 4923 O 841.835 8.66274 -5.38678 0
M  V30 4924 O 842.405 6.33687 -6.13629 0
M  V30 4925 O 841.865 6.7751 -3.72168 0
M  V30 4926 C 840.925 7.20919 -2.70795 0
M  V30 4927 C 841.655 7.45864 -1.40599 0
M  V30 4928 O 841.865 6.17751 -0.734343 0
M  V30 4929 C 843.055 8.05906 -1.51917 0
M  V30 4930 O 843.445 8.74358 -0.335205 0
M  V30 4931 C 843.935 6.83093 -1.70294 0
M  V30 4932 C 843.225 5.79992 -0.836974 0
M  V30 4933 N 843.275 4.41864 -1.38293 0
M  V30 4934 C 843.195 4.02089 -2.69407 0
M  V30 4935 N 843.265 2.73403 -2.85089 0
M  V30 4936 C 843.415 2.25086 -1.5642 0
M  V30 4937 C 843.545 0.942887 -1.04836 0
M  V30 4938 N 843.555 -0.150999 -1.80369 0
M  V30 4939 N 843.665 0.812565 0.28167 0
M  V30 4940 C 843.655 1.90572 1.03784 0
M  V30 4941 N 843.535 3.167 0.683905 0
M  V30 4942 C 843.415 3.26538 -0.652815 0
M  V30 4943 H 840.437 8.13738 -3.03804 0
M  V30 4944 H 840.165 6.42974 -2.55559 0
M  V30 4945 H 841.033 8.12139 -0.792866 0
M  V30 4946 H 843.688 5.80178 0.160643 0
M  V30 4947 H 843.968 6.51379 -2.75643 0
M  V30 4948 H 844.959 7.01832 -1.3448 0
M  V30 4949 H 843.125 8.73771 -2.38364 0
M  V30 4950 H 843.084 4.7189 -3.52311 0
M  V30 4951 H 843.465 -0.0721434 -2.82608 0
M  V30 4952 H 843.654 -1.0785 -1.36544 0
M  V30 4953 H 843.762 1.73207 2.10241 0
M  V30 4954 P 844.995 8.91 6.08645e-12 0
M  V30 4955 O 845.215 10.1726 0.733694 0
M  V30 4956 O 845.785 8.73148 -1.23936 0
M  V30 4957 O 845.245 7.66872 0.971405 0
M  V30 4958 C 844.305 7.42309 2.04641 0
M  V30 4959 C 845.035 6.86059 3.24661 0
M  V30 4960 O 845.245 5.42847 3.03646 0
M  V30 4961 C 846.435 7.41196 3.50753 0
M  V30 4962 O 846.825 7.27073 4.86816 0
M  V30 4963 C 847.315 6.5273 2.63741 0
M  V30 4964 C 846.605 5.1842 2.73198 0
M  V30 4965 N 846.655 4.38762 1.4784 0
M  V30 4966 H 843.816 8.36803 2.32493 0
M  V30 4967 H 843.546 6.70197 1.71129 0
M  V30 4968 H 844.413 7.03551 4.13168 0
M  V30 4969 P 848.375 7.20834 5.23717 0
M  V30 4970 O 848.595 7.79853 6.57286 0
M  V30 4971 O 849.165 7.79239 4.12957 0
M  V30 4972 O 848.625 5.63315 5.29344 0
M  V30 4973 C 847.685 4.80255 6.01876 0
M  V30 4974 C 848.415 3.64202 6.65911 0
M  V30 4975 O 848.625 2.60694 5.64732 0
M  V30 4976 C 849.815 3.93473 7.1943 0
M  V30 4977 O 850.205 3.02071 8.21205 0
M  V30 4978 C 850.695 3.73047 5.97036 0
M  V30 4979 C 849.985 2.58828 5.25741 0
M  V30 4980 N 850.035 2.68068 3.77503 0
M  V30 4981 H 847.196 5.40332 6.79951 0
M  V30 4982 H 846.926 4.41613 5.32378 0
M  V30 4983 H 847.793 3.26331 7.47797 0
M  V30 4984 P 851.755 2.75334 8.47391 0
M  V30 4985 O 851.975 2.44571 9.90142 0
M  V30 4986 O 852.545 3.87688 7.92115 0
M  V30 4987 O 852.005 1.4459 7.59357 0
M  V30 4988 C 851.065 0.347608 7.69215 0
M  V30 4989 C 851.795 -0.96767 7.52806 0
M  V30 4990 O 852.005 -1.21036 6.1011 0
M  V30 4991 C 853.195 -1.04544 8.13308 0
M  V30 4992 O 853.585 -2.38311 8.41922 0
M  V30 4993 C 854.075 -0.491279 7.02284 0
M  V30 4994 C 853.365 -0.996264 5.77469 0
M  V30 4995 N 853.415 -0.0501916 4.62973 0
M  V30 4996 H 850.576 0.374722 8.67691 0
M  V30 4997 H 850.306 0.443485 6.90277 0
M  V30 4998 H 851.173 -1.75537 7.96793 0
M  V30 4999 P 855.135 -2.75334 8.47391 0
M  V30 5000 O 855.355 -3.84128 9.44797 0
M  V30 5001 O 855.925 -1.51947 8.68712 0
M  V30 5002 O 855.385 -3.29363 6.99321 0
M  V30 5003 C 854.445 -4.24011 6.4274 0
M  V30 5004 C 855.175 -5.20775 5.52155 0
M  V30 5005 O 855.385 -4.56534 4.22446 0
M  V30 5006 C 856.575 -5.62629 5.96531 0
M  V30 5007 O 856.965 -6.87667 5.41053 0
M  V30 5008 C 857.455 -4.52537 5.39283 0
M  V30 5009 C 856.745 -4.20027 4.08623 0
M  V30 5010 N 856.795 -2.76189 3.71603 0
M  V30 5011 C 856.715 -1.64862 4.52822 0
M  V30 5012 N 856.795 -0.512671 3.88633 0
M  V30 5013 C 856.935 -0.888083 2.54977 0
M  V30 5014 C 857.065 -0.094668 1.38677 0
M  V30 5015 N 857.185 -0.890102 0.232633 0
M  V30 5016 C 857.185 -2.26958 0.21772 0
M  V30 5017 N 857.315 -2.84626 -0.97925 0
M  V30 5018 N 857.055 -3.0178 1.31033 0
M  V30 5019 C 856.935 -2.26781 2.43843 0
M  V30 5020 H 853.956 -4.797 7.24003 0
M  V30 5021 H 853.686 -3.69856 5.84513 0
M  V30 5022 H 854.553 -6.10356 5.41441 0
M  V30 5023 P 858.515 -7.20834 5.23717 0
M  V30 5024 O 858.735 -8.66274 5.38678 0
M  V30 5025 O 859.305 -6.33687 6.13629 0
M  V30 5026 O 858.765 -6.7751 3.72168 0
M  V30 5027 C 857.825 -7.20919 2.70795 0
M  V30 5028 C 858.555 -7.45864 1.40599 0
M  V30 5029 O 858.765 -6.17751 0.734343 0
M  V30 5030 C 859.955 -8.05906 1.51917 0
M  V30 5031 O 860.345 -8.74358 0.335205 0
M  V30 5032 C 860.835 -6.83093 1.70294 0
M  V30 5033 C 860.125 -5.79992 0.836974 0
M  V30 5034 N 860.175 -4.41864 1.38293 0
M  V30 5035 H 857.337 -8.13738 3.03804 0
M  V30 5036 H 857.065 -6.42974 2.55559 0
M  V30 5037 H 857.933 -8.12139 0.792866 0
M  V30 5038 H 860.588 -5.80178 -0.160643 0
M  V30 5039 H 860.868 -6.51379 2.75643 0
M  V30 5040 H 861.859 -7.01832 1.3448 0
M  V30 5041 H 860.025 -8.73771 2.38364 0
M  V30 5042 P 861.895 -8.91 -6.24363e-12 0
M  V30 5043 O 862.115 -10.1726 -0.733694 0
M  V30 5044 O 862.685 -8.73148 1.23936 0
M  V30 5045 O 862.145 -7.66872 -0.971405 0
M  V30 5046 C 861.205 -7.42309 -2.04641 0
M  V30 5047 C 861.935 -6.86059 -3.24661 0
M  V30 5048 O 862.145 -5.42847 -3.03646 0
M  V30 5049 C 863.335 -7.41196 -3.50753 0
M  V30 5050 O 863.725 -7.27073 -4.86816 0
M  V30 5051 C 864.215 -6.5273 -2.63741 0
M  V30 5052 C 863.505 -5.1842 -2.73198 0
M  V30 5053 N 863.555 -4.38762 -1.4784 0
M  V30 5054 H 860.716 -8.36803 -2.32493 0
M  V30 5055 H 860.446 -6.70197 -1.71129 0
M  V30 5056 H 861.313 -7.03551 -4.13168 0
M  V30 5057 P 865.275 -7.20834 -5.23717 0
M  V30 5058 O 865.495 -7.7993 -6.57351 0
M  V30 5059 O 866.065 -7.79328 -4.13004 0
M  V30 5060 O 865.525 -5.63315 -5.29344 0
M  V30 5061 C 864.585 -4.80193 -6.01798 0
M  V30 5062 C 865.315 -3.64202 -6.65911 0
M  V30 5063 O 865.525 -2.60694 -5.64732 0
M  V30 5064 C 866.715 -3.93473 -7.1943 0
M  V30 5065 O 867.105 -3.02071 -8.21205 0
M  V30 5066 C 867.595 -3.73047 -5.97036 0
M  V30 5067 C 866.885 -2.58828 -5.25741 0
M  V30 5068 N 866.935 -2.6801 -3.77422 0
M  V30 5069 C 867.085 -1.50443 -3.07133 0
M  V30 5070 O 867.175 -0.419406 -3.61576 0
M  V30 5071 N 867.125 -1.6403 -1.69677 0
M  V30 5072 C 867.035 -2.81206 -0.986255 0
M  V30 5073 C 866.885 -3.99158 -1.80325 0
M  V30 5074 C 866.835 -3.89779 -3.1476 0
M  V30 5075 H 864.095 -5.40332 -6.79951 0
M  V30 5076 H 863.826 -4.41549 -5.32301 0
M  V30 5077 H 864.693 -3.26331 -7.47797 0
M  V30 5078 H 867.348 -1.6395 -5.56554 0
M  V30 5079 H 867.627 -4.63439 -5.3432 0
M  V30 5080 H 868.619 -3.44728 -6.25838 0
M  V30 5081 H 866.785 -4.96652 -7.57263 0
M  V30 5082 H 866.714 -4.80159 -3.74441 0
M  V30 5083 P 868.655 -2.75334 -8.47391 0
M  V30 5084 O 868.875 -2.44571 -9.90142 0
M  V30 5085 O 869.445 -3.87688 -7.92115 0
M  V30 5086 O 868.905 -1.4459 -7.59357 0
M  V30 5087 C 867.965 -0.347608 -7.69215 0
M  V30 5088 C 868.695 0.96767 -7.52806 0
M  V30 5089 O 868.905 1.21036 -6.1011 0
M  V30 5090 C 870.095 1.04544 -8.13308 0
M  V30 5091 O 870.485 2.38311 -8.41922 0
M  V30 5092 C 870.975 0.491279 -7.02284 0
M  V30 5093 C 870.265 0.996264 -5.77469 0
M  V30 5094 N 870.315 0.0501916 -4.62973 0
M  V30 5095 H 867.476 -0.374722 -8.67691 0
M  V30 5096 H 867.206 -0.443485 -6.90277 0
M  V30 5097 H 868.073 1.75537 -7.96793 0
M  V30 5098 P 872.035 2.75334 -8.47391 0
M  V30 5099 O 872.255 3.84128 -9.44797 0
M  V30 5100 O 872.825 1.51947 -8.68712 0
M  V30 5101 O 872.285 3.29363 -6.99321 0
M  V30 5102 C 871.345 4.24011 -6.4274 0
M  V30 5103 C 872.075 5.20775 -5.52155 0
M  V30 5104 O 872.285 4.56534 -4.22446 0
M  V30 5105 C 873.475 5.62629 -5.96531 0
M  V30 5106 O 873.865 6.87667 -5.41053 0
M  V30 5107 C 874.355 4.52537 -5.39283 0
M  V30 5108 C 873.645 4.20027 -4.08623 0
M  V30 5109 N 873.695 2.76189 -3.71603 0
M  V30 5110 H 870.856 4.797 -7.24003 0
M  V30 5111 H 870.586 3.69856 -5.84513 0
M  V30 5112 H 871.453 6.10356 -5.41441 0
M  V30 5113 P 875.415 7.20834 -5.23717 0
M  V30 5114 O 875.635 8.66189 -5.38625 0
M  V30 5115 O 876.205 6.33615 -6.1356 0
M  V30 5116 O 875.665 6.7751 -3.72168 0
M  V30 5117 C 874.725 7.20732 -2.70725 0
M  V30 5118 C 875.455 7.45864 -1.40599 0
M  V30 5119 O 875.665 6.17651 -0.734225 0
M  V30 5120 C 876.855 8.05808 -1.51899 0
M  V30 5121 O 877.245 8.74358 -0.335205 0
M  V30 5122 C 877.735 6.83093 -1.70294 0
M  V30 5123 C 877.025 5.79992 -0.836974 0
M  V30 5124 N 877.075 4.41769 -1.38263 0
M  V30 5125 C 877.225 3.38591 -0.481702 0
M  V30 5126 O 877.315 3.56839 0.718452 0
M  V30 5127 N 877.265 2.1206 -1.03569 0
M  V30 5128 C 877.175 1.80696 -2.36966 0
M  V30 5129 O 877.225 0.630473 -2.74862 0
M  V30 5130 C 877.025 2.94845 -3.23898 0
M  V30 5131 C 876.915 2.65253 -4.70362 0
M  V30 5132 C 876.975 4.19803 -2.73435 0
M  V30 5133 H 874.235 8.13644 -3.0377 0
M  V30 5134 H 873.966 6.42695 -2.55448 0
M  V30 5135 H 874.833 8.12039 -0.792769 0
M  V30 5136 H 877.488 5.79978 0.160587 0
M  V30 5137 H 877.767 6.51379 -2.75643 0
M  V30 5138 H 878.759 7.01734 -1.34462 0
M  V30 5139 H 876.925 8.73674 -2.38337 0
M  V30 5140 H 876.854 5.04492 -3.4095 0
M  V30 5141 H 877.884 2.83924 -5.1913 0
M  V30 5142 H 876.147 3.29824 -5.15163 0
M  V30 5143 H 876.635 1.59723 -4.84449 0
M  V30 5144 H 877.371 1.35644 -0.399345 0
M  V30 5145 P 878.795 8.91 6.40081e-12 0
M  V30 5146 O 879.015 10.1726 0.733694 0
M  V30 5147 O 879.585 8.73148 -1.23936 0
M  V30 5148 O 879.045 7.66872 0.971405 0
M  V30 5149 C 878.105 7.42309 2.04641 0
M  V30 5150 C 878.835 6.86059 3.24661 0
M  V30 5151 O 879.045 5.42847 3.03646 0
M  V30 5152 C 880.235 7.41196 3.50753 0
M  V30 5153 O 880.625 7.27073 4.86816 0
M  V30 5154 C 881.115 6.5273 2.63741 0
M  V30 5155 C 880.405 5.1842 2.73198 0
M  V30 5156 N 880.455 4.38762 1.4784 0
M  V30 5157 H 877.616 8.36803 2.32493 0
M  V30 5158 H 877.346 6.70197 1.71129 0
M  V30 5159 H 878.213 7.03551 4.13168 0
M  V30 5160 P 882.175 7.20834 5.23717 0
M  V30 5161 O 882.395 7.7993 6.57351 0
M  V30 5162 O 882.965 7.79328 4.13004 0
M  V30 5163 O 882.425 5.63315 5.29344 0
M  V30 5164 C 881.485 4.80193 6.01798 0
M  V30 5165 C 882.215 3.64202 6.65911 0
M  V30 5166 O 882.425 2.60694 5.64732 0
M  V30 5167 C 883.615 3.93473 7.1943 0
M  V30 5168 O 884.005 3.02071 8.21205 0
M  V30 5169 C 884.495 3.73047 5.97036 0
M  V30 5170 C 883.785 2.58828 5.25741 0
M  V30 5171 N 883.835 2.6801 3.77422 0
M  V30 5172 C 883.985 1.50443 3.07133 0
M  V30 5173 O 884.075 0.419406 3.61576 0
M  V30 5174 N 884.025 1.6403 1.69677 0
M  V30 5175 C 883.935 2.81206 0.986255 0
M  V30 5176 C 883.785 3.99158 1.80325 0
M  V30 5177 C 883.735 3.89779 3.1476 0
M  V30 5178 H 880.995 5.40332 6.79951 0
M  V30 5179 H 880.726 4.41549 5.32301 0
M  V30 5180 H 881.593 3.26331 7.47797 0
M  V30 5181 H 884.248 1.6395 5.56554 0
M  V30 5182 H 884.527 4.63439 5.3432 0
M  V30 5183 H 885.519 3.44728 6.25838 0
M  V30 5184 H 883.685 4.96652 7.57263 0
M  V30 5185 H 883.614 4.80159 3.74441 0
M  V30 5186 P 885.555 2.75334 8.47391 0
M  V30 5187 O 885.775 2.44619 9.90336 0
M  V30 5188 O 886.345 3.87776 7.92294 0
M  V30 5189 O 885.805 1.4459 7.59357 0
M  V30 5190 C 884.865 0.347653 7.69315 0
M  V30 5191 C 885.595 -0.96767 7.52806 0
M  V30 5192 O 885.805 -1.21055 6.10208 0
M  V30 5193 C 886.995 -1.04557 8.13408 0
M  V30 5194 O 887.385 -2.38311 8.41922 0
M  V30 5195 C 887.875 -0.491279 7.02284 0
M  V30 5196 C 887.165 -0.996264 5.77469 0
M  V30 5197 N 887.215 -0.0501916 4.62973 0
M  V30 5198 C 887.135 1.31969 4.65661 0
M  V30 5199 N 887.205 1.86649 3.48119 0
M  V30 5200 C 887.355 0.792089 2.62406 0
M  V30 5201 C 887.485 0.705684 1.2207 0
M  V30 5202 N 887.495 1.76207 0.413762 0
M  V30 5203 N 887.605 -0.518981 0.685754 0
M  V30 5204 C 887.595 -1.57595 1.49174 0
M  V30 5205 N 887.475 -1.62909 2.80066 0
M  V30 5206 C 887.355 -0.388195 3.3073 0
M  V30 5207 H 884.377 0.374765 8.67791 0
M  V30 5208 H 884.105 0.443613 6.90476 0
M  V30 5209 H 884.973 -1.75559 7.96891 0
M  V30 5210 H 887.628 -1.94563 5.46818 0
M  V30 5211 H 887.908 0.608651 7.04676 0
M  V30 5212 H 888.899 -0.889796 7.09039 0
M  V30 5213 H 887.065 -0.433128 9.04664 0
M  V30 5214 H 887.024 1.89246 5.57664 0
M  V30 5215 H 887.405 2.71005 0.804694 0
M  V30 5216 H 887.594 1.63189 -0.603768 0
M  V30 5217 H 887.702 -2.53475 0.997614 0
M  V30 5218 P 888.935 -2.75334 8.47391 0
M  V30 5219 O 889.155 -3.84166 9.4489 0
M  V30 5220 O 889.725 -1.51964 8.6881 0
M  V30 5221 O 889.185 -3.29363 6.99321 0
M  V30 5222 C 888.245 -4.23956 6.42656 0
M  V30 5223 C 888.975 -5.20775 5.52155 0
M  V30 5224 O 889.185 -4.56534 4.22446 0
M  V30 5225 C 890.375 -5.62629 5.96531 0
M  V30 5226 O 890.765 -6.87667 5.41053 0
M  V30 5227 C 891.255 -4.52537 5.39283 0
M  V30 5228 C 890.545 -4.20027 4.08623 0
M  V30 5229 N 890.595 -2.7613 3.71522 0
M  V30 5230 C 890.745 -2.45612 2.37989 0
M  V30 5231 O 890.835 -3.30919 1.51621 0
M  V30 5232 N 890.785 -1.10684 2.08435 0
M  V30 5233 C 890.695 -0.0690084 2.9792 0
M  V30 5234 C 890.545 -0.481522 4.35345 0
M  V30 5235 C 890.495 -1.78906 4.67968 0
M  V30 5236 H 887.755 -4.797 7.24003 0
M  V30 5237 H 887.486 -3.69802 5.84429 0
M  V30 5238 H 888.353 -6.10356 5.41441 0
M  V30 5239 H 891.008 -4.78651 3.27911 0
M  V30 5240 H 891.287 -3.64957 6.05871 0
M  V30 5241 H 892.279 -4.8868 5.2125 0
M  V30 5242 H 890.445 -5.66726 7.06352 0
M  V30 5243 H 890.374 -2.07737 5.72367 0
M  V30 5244 P 892.315 -7.20834 5.23717 0
M  V30 5245 O 892.535 -8.66189 5.38625 0
M  V30 5246 O 893.105 -6.33615 6.1356 0
M  V30 5247 O 892.565 -6.7751 3.72168 0
M  V30 5248 C 891.625 -7.20732 2.70725 0
M  V30 5249 C 892.355 -7.45864 1.40599 0
M  V30 5250 O 892.565 -6.17651 0.734225 0
M  V30 5251 C 893.755 -8.05808 1.51899 0
M  V30 5252 O 894.145 -8.74358 0.335205 0
M  V30 5253 C 894.635 -6.83093 1.70294 0
M  V30 5254 C 893.925 -5.79992 0.836974 0
M  V30 5255 N 893.975 -4.41769 1.38263 0
M  V30 5256 C 894.125 -3.38591 0.481702 0
M  V30 5257 O 894.215 -3.56839 -0.718452 0
M  V30 5258 N 894.165 -2.1206 1.03569 0
M  V30 5259 C 894.075 -1.80696 2.36966 0
M  V30 5260 O 894.125 -0.630473 2.74862 0
M  V30 5261 C 893.925 -2.94845 3.23898 0
M  V30 5262 C 893.815 -2.65253 4.70362 0
M  V30 5263 C 893.875 -4.19803 2.73435 0
M  V30 5264 H 891.135 -8.13644 3.0377 0
M  V30 5265 H 890.866 -6.42695 2.55448 0
M  V30 5266 H 891.733 -8.12039 0.792769 0
M  V30 5267 H 894.388 -5.79978 -0.160587 0
M  V30 5268 H 894.667 -6.51379 2.75643 0
M  V30 5269 H 895.659 -7.01734 1.34462 0
M  V30 5270 H 893.825 -8.73674 2.38337 0
M  V30 5271 H 893.754 -5.04492 3.4095 0
M  V30 5272 H 894.784 -2.83924 5.1913 0
M  V30 5273 H 893.047 -3.29824 5.15163 0
M  V30 5274 H 893.535 -1.59723 4.84449 0
M  V30 5275 H 894.271 -1.35644 0.399345 0
M  V30 5276 P 895.695 -8.91 -6.558e-12 0
M  V30 5277 O 895.915 -10.1726 -0.733694 0
M  V30 5278 O 896.485 -8.73148 1.23936 0
M  V30 5279 O 895.945 -7.66872 -0.971405 0
M  V30 5280 C 895.005 -7.42309 -2.04641 0
M  V30 5281 C 895.735 -6.86059 -3.24661 0
M  V30 5282 O 895.945 -5.42847 -3.03646 0
M  V30 5283 C 897.135 -7.41196 -3.50753 0
M  V30 5284 O 897.525 -7.27073 -4.86816 0
M  V30 5285 C 898.015 -6.5273 -2.63741 0
M  V30 5286 C 897.305 -5.1842 -2.73198 0
M  V30 5287 N 897.355 -4.38762 -1.4784 0
M  V30 5288 H 894.516 -8.36803 -2.32493 0
M  V30 5289 H 894.246 -6.70197 -1.71129 0
M  V30 5290 H 895.113 -7.03551 -4.13168 0
M  V30 5291 P 899.075 -7.20834 -5.23717 0
M  V30 5292 O 899.295 -7.80006 -6.57415 0
M  V30 5293 O 899.865 -7.79416 -4.13051 0
M  V30 5294 O 899.325 -5.63315 -5.29344 0
M  V30 5295 C 898.385 -4.80318 -6.01954 0
M  V30 5296 C 899.115 -3.64202 -6.65911 0
M  V30 5297 O 899.325 -2.60736 -5.64823 0
M  V30 5298 C 900.515 -3.93521 -7.19518 0
M  V30 5299 O 900.905 -3.02071 -8.21205 0
M  V30 5300 C 901.395 -3.73047 -5.97036 0
M  V30 5301 C 900.685 -2.58828 -5.25741 0
M  V30 5302 N 900.735 -2.68068 -3.77503 0
M  V30 5303 H 897.897 -5.40394 -6.8003 0
M  V30 5304 H 897.625 -4.41741 -5.32532 0
M  V30 5305 H 898.493 -3.26371 -7.47889 0
M  V30 5306 H 901.148 -1.64007 -5.56746 0
M  V30 5307 H 901.428 -4.63439 -5.3432 0
M  V30 5308 H 902.419 -3.44776 -6.25925 0
M  V30 5309 H 900.585 -4.96707 -7.57347 0
M  V30 5310 P 902.455 -2.75334 -8.47391 0
M  V30 5311 O 902.675 -2.44595 -9.90239 0
M  V30 5312 O 903.245 -3.87732 -7.92204 0
M  V30 5313 O 902.705 -1.4459 -7.59357 0
M  V30 5314 C 901.765 -0.347563 -7.69115 0
M  V30 5315 C 902.495 0.96767 -7.52806 0
M  V30 5316 O 902.705 1.21036 -6.1011 0
M  V30 5317 C 903.895 1.04544 -8.13308 0
M  V30 5318 O 904.285 2.38311 -8.41922 0
M  V30 5319 C 904.775 0.491279 -7.02284 0
M  V30 5320 C 904.065 0.996264 -5.77469 0
M  V30 5321 N 904.115 0.0501808 -4.62873 0
M  V30 5322 C 904.265 0.588177 -3.36904 0
M  V30 5323 O 904.355 1.78598 -3.17173 0
M  V30 5324 N 904.305 -0.329694 -2.33686 0
M  V30 5325 C 904.215 -1.6953 -2.45079 0
M  V30 5326 O 904.265 -2.41926 -1.44899 0
M  V30 5327 C 904.065 -2.16933 -3.80505 0
M  V30 5328 C 903.955 -3.65373 -3.97621 0
M  V30 5329 C 904.015 -1.30326 -4.83752 0
M  V30 5330 H 901.275 -0.374722 -8.67691 0
M  V30 5331 H 901.006 -0.443421 -6.90177 0
M  V30 5332 H 901.873 1.75537 -7.96793 0
M  V30 5333 H 904.528 1.94496 -5.46629 0
M  V30 5334 H 904.807 -0.608651 -7.04676 0
M  V30 5335 H 905.799 0.889672 -7.08939 0
M  V30 5336 H 903.965 0.43308 -9.04564 0
M  V30 5337 H 903.894 -1.68366 -5.8516 0
M  V30 5338 H 904.924 -4.05985 -4.30448 0
M  V30 5339 H 903.187 -3.88028 -4.72875 0
M  V30 5340 H 903.675 -4.11381 -3.01609 0
M  V30 5341 H 904.411 0.0393617 -1.41345 0
M  V30 5342 P 905.835 2.75334 -8.47391 0
M  V30 5343 O 906.055 3.84166 -9.4489 0
M  V30 5344 O 906.625 1.51964 -8.6881 0
M  V30 5345 O 906.085 3.29363 -6.99321 0
M  V30 5346 C 905.145 4.23956 -6.42656 0
M  V30 5347 C 905.875 5.20775 -5.52155 0
M  V30 5348 O 906.085 4.56534 -4.22446 0
M  V30 5349 C 907.275 5.62629 -5.96531 0
M  V30 5350 O 907.665 6.87667 -5.41053 0
M  V30 5351 C 908.155 4.52537 -5.39283 0
M  V30 5352 C 907.445 4.20027 -4.08623 0
M  V30 5353 N 907.495 2.7613 -3.71522 0
M  V30 5354 C 907.645 2.45612 -2.37989 0
M  V30 5355 O 907.735 3.30919 -1.51621 0
M  V30 5356 N 907.685 1.10684 -2.08435 0
M  V30 5357 C 907.595 0.0690084 -2.9792 0
M  V30 5358 C 907.445 0.481522 -4.35345 0
M  V30 5359 C 907.395 1.78906 -4.67968 0
M  V30 5360 H 904.655 4.797 -7.24003 0
M  V30 5361 H 904.386 3.69802 -5.84429 0
M  V30 5362 H 905.253 6.10356 -5.41441 0
M  V30 5363 H 907.908 4.78651 -3.27911 0
M  V30 5364 H 908.187 3.64957 -6.05871 0
M  V30 5365 H 909.179 4.8868 -5.2125 0
M  V30 5366 H 907.345 5.66726 -7.06352 0
M  V30 5367 H 907.274 2.07737 -5.72367 0
M  V30 5368 P 909.215 7.20834 -5.23717 0
M  V30 5369 O 909.435 8.66274 -5.38678 0
M  V30 5370 O 910.005 6.33687 -6.13629 0
M  V30 5371 O 909.465 6.7751 -3.72168 0
M  V30 5372 C 908.525 7.20919 -2.70795 0
M  V30 5373 C 909.255 7.45864 -1.40599 0
M  V30 5374 O 909.465 6.17751 -0.734343 0
M  V30 5375 C 910.655 8.05906 -1.51917 0
M  V30 5376 O 911.045 8.74358 -0.335205 0
M  V30 5377 C 911.535 6.83093 -1.70294 0
M  V30 5378 C 910.825 5.79992 -0.836974 0
M  V30 5379 N 910.875 4.41864 -1.38293 0
M  V30 5380 H 908.037 8.13738 -3.03804 0
M  V30 5381 H 907.765 6.42974 -2.55559 0
M  V30 5382 H 908.633 8.12139 -0.792866 0
M  V30 5383 H 911.288 5.80178 0.160643 0
M  V30 5384 H 911.568 6.51379 -2.75643 0
M  V30 5385 H 912.559 7.01832 -1.3448 0
M  V30 5386 H 910.725 8.73771 -2.38364 0
M  V30 5387 P 912.595 8.91 6.71518e-12 0
M  V30 5388 O 912.815 10.1746 0.733838 0
M  V30 5389 O 913.385 8.73346 -1.23964 0
M  V30 5390 O 912.845 7.66872 0.971405 0
M  V30 5391 C 911.905 7.42405 2.04668 0
M  V30 5392 C 912.635 6.86059 3.24661 0
M  V30 5393 O 912.845 5.42934 3.03695 0
M  V30 5394 C 914.035 7.41287 3.50796 0
M  V30 5395 O 914.425 7.27073 4.86816 0
M  V30 5396 C 914.915 6.5273 2.63741 0
M  V30 5397 C 914.205 5.1842 2.73198 0
M  V30 5398 N 914.255 4.38762 1.4784 0
M  V30 5399 H 911.417 8.36899 2.3252 0
M  V30 5400 H 911.145 6.70391 1.71179 0
M  V30 5401 H 912.013 7.03638 4.13219 0
M  V30 5402 H 914.668 4.59931 3.54016 0
M  V30 5403 H 914.948 6.88995 1.59871 0
M  V30 5404 H 915.939 6.4684 3.0373 0
M  V30 5405 H 914.105 8.47002 3.20749 0
M  V30 5406 P 915.975 7.20834 5.23717 0
M  V30 5407 O 916.195 7.79853 6.57286 0
M  V30 5408 O 916.765 7.79239 4.12957 0
M  V30 5409 O 916.225 5.63315 5.29344 0
M  V30 5410 C 915.285 4.80255 6.01876 0
M  V30 5411 C 916.015 3.64202 6.65911 0
M  V30 5412 O 916.225 2.60694 5.64732 0
M  V30 5413 C 917.415 3.93473 7.1943 0
M  V30 5414 O 917.805 3.02071 8.21205 0
M  V30 5415 C 918.295 3.73047 5.97036 0
M  V30 5416 C 917.585 2.58828 5.25741 0
M  V30 5417 N 917.635 2.68068 3.77503 0
M  V30 5418 H 914.796 5.40332 6.79951 0
M  V30 5419 H 914.526 4.41613 5.32378 0
M  V30 5420 H 915.393 3.26331 7.47797 0
M  V30 5421 P 919.355 2.75334 8.47391 0
M  V30 5422 O 919.575 2.44619 9.90336 0
M  V30 5423 O 920.145 3.87776 7.92294 0
M  V30 5424 O 919.605 1.4459 7.59357 0
M  V30 5425 C 918.665 0.347653 7.69315 0
M  V30 5426 C 919.395 -0.96767 7.52806 0
M  V30 5427 O 919.605 -1.21055 6.10208 0
M  V30 5428 C 920.795 -1.04557 8.13408 0
M  V30 5429 O 921.185 -2.38311 8.41922 0
M  V30 5430 C 921.675 -0.491279 7.02284 0
M  V30 5431 C 920.965 -0.996264 5.77469 0
M  V30 5432 N 921.015 -0.0501916 4.62973 0
M  V30 5433 C 920.935 1.31969 4.65661 0
M  V30 5434 N 921.005 1.86649 3.48119 0
M  V30 5435 C 921.155 0.792089 2.62406 0
M  V30 5436 C 921.285 0.705684 1.2207 0
M  V30 5437 N 921.295 1.76207 0.413762 0
M  V30 5438 N 921.405 -0.518981 0.685754 0
M  V30 5439 C 921.395 -1.57595 1.49174 0
M  V30 5440 N 921.275 -1.62909 2.80066 0
M  V30 5441 C 921.155 -0.388195 3.3073 0
M  V30 5442 H 918.177 0.374765 8.67791 0
M  V30 5443 H 917.905 0.443613 6.90476 0
M  V30 5444 H 918.773 -1.75559 7.96891 0
M  V30 5445 H 921.428 -1.94563 5.46818 0
M  V30 5446 H 921.708 0.608651 7.04676 0
M  V30 5447 H 922.699 -0.889796 7.09039 0
M  V30 5448 H 920.865 -0.433128 9.04664 0
M  V30 5449 H 920.824 1.89246 5.57664 0
M  V30 5450 H 921.205 2.71005 0.804694 0
M  V30 5451 H 921.394 1.63189 -0.603768 0
M  V30 5452 H 921.502 -2.53475 0.997614 0
M  V30 5453 P 922.735 -2.75334 8.47391 0
M  V30 5454 O 922.955 -3.84128 9.44797 0
M  V30 5455 O 923.525 -1.51947 8.68712 0
M  V30 5456 O 922.985 -3.29363 6.99321 0
M  V30 5457 C 922.045 -4.24011 6.4274 0
M  V30 5458 C 922.775 -5.20775 5.52155 0
M  V30 5459 O 922.985 -4.56534 4.22446 0
M  V30 5460 C 924.175 -5.62629 5.96531 0
M  V30 5461 O 924.565 -6.87667 5.41053 0
M  V30 5462 C 925.055 -4.52537 5.39283 0
M  V30 5463 C 924.345 -4.20027 4.08623 0
M  V30 5464 N 924.395 -2.76189 3.71603 0
M  V30 5465 C 924.315 -1.64862 4.52822 0
M  V30 5466 N 924.395 -0.512671 3.88633 0
M  V30 5467 C 924.535 -0.888083 2.54977 0
M  V30 5468 C 924.665 -0.094668 1.38677 0
M  V30 5469 N 924.785 -0.890102 0.232633 0
M  V30 5470 C 924.785 -2.26958 0.21772 0
M  V30 5471 N 924.915 -2.84626 -0.97925 0
M  V30 5472 N 924.655 -3.0178 1.31033 0
M  V30 5473 C 924.535 -2.26781 2.43843 0
M  V30 5474 H 921.556 -4.797 7.24003 0
M  V30 5475 H 921.286 -3.69856 5.84513 0
M  V30 5476 H 922.153 -6.10356 5.41441 0
M  V30 5477 P 926.115 -7.20834 5.23717 0
M  V30 5478 O 926.335 -8.66104 5.38572 0
M  V30 5479 O 926.905 -6.33544 6.1349 0
M  V30 5480 O 926.365 -6.7751 3.72168 0
M  V30 5481 C 925.425 -7.20825 2.7076 0
M  V30 5482 C 926.155 -7.45864 1.40599 0
M  V30 5483 O 926.365 -6.17651 0.734225 0
M  V30 5484 C 927.555 -8.05808 1.51899 0
M  V30 5485 O 927.945 -8.74358 0.335205 0
M  V30 5486 C 928.435 -6.83093 1.70294 0
M  V30 5487 C 927.725 -5.79992 0.836974 0
M  V30 5488 N 927.775 -4.41864 1.38293 0
M  V30 5489 H 924.936 -8.13644 3.0377 0
M  V30 5490 H 924.666 -6.42788 2.55485 0
M  V30 5491 H 925.533 -8.12039 0.792769 0
M  V30 5492 P 929.495 -8.91 -6.87236e-12 0
M  V30 5493 O 929.715 -10.1726 -0.733694 0
M  V30 5494 O 930.285 -8.73148 1.23936 0
M  V30 5495 O 929.745 -7.66872 -0.971405 0
M  V30 5496 C 928.805 -7.42309 -2.04641 0
M  V30 5497 C 929.535 -6.86059 -3.24661 0
M  V30 5498 O 929.745 -5.42847 -3.03646 0
M  V30 5499 C 930.935 -7.41196 -3.50753 0
M  V30 5500 O 931.325 -7.27073 -4.86816 0
M  V30 5501 C 931.815 -6.5273 -2.63741 0
M  V30 5502 C 931.105 -5.1842 -2.73198 0
M  V30 5503 N 931.155 -4.38762 -1.4784 0
M  V30 5504 H 928.316 -8.36803 -2.32493 0
M  V30 5505 H 928.046 -6.70197 -1.71129 0
M  V30 5506 H 928.913 -7.03551 -4.13168 0
M  V30 5507 P 932.874 -7.20834 -5.23717 0
M  V30 5508 O 933.094 -7.79853 -6.57286 0
M  V30 5509 O 933.664 -7.79239 -4.12957 0
M  V30 5510 O 933.124 -5.63315 -5.29344 0
M  V30 5511 C 932.184 -4.80255 -6.01876 0
M  V30 5512 C 932.914 -3.64202 -6.65911 0
M  V30 5513 O 933.124 -2.60694 -5.64732 0
M  V30 5514 C 934.314 -3.93473 -7.1943 0
M  V30 5515 O 934.704 -3.02071 -8.21205 0
M  V30 5516 C 935.194 -3.73047 -5.97036 0
M  V30 5517 C 934.484 -2.58828 -5.25741 0
M  V30 5518 N 934.534 -2.68068 -3.77503 0
M  V30 5519 H 931.695 -5.40332 -6.79951 0
M  V30 5520 H 931.425 -4.41613 -5.32378 0
M  V30 5521 H 932.292 -3.26331 -7.47797 0
M  V30 5522 P 936.254 -2.75334 -8.47391 0
M  V30 5523 O 936.474 -2.44571 -9.90142 0
M  V30 5524 O 937.044 -3.87688 -7.92115 0
M  V30 5525 O 936.504 -1.4459 -7.59357 0
M  V30 5526 C 935.564 -0.347608 -7.69215 0
M  V30 5527 C 936.294 0.96767 -7.52806 0
M  V30 5528 O 936.504 1.21036 -6.1011 0
M  V30 5529 C 937.694 1.04544 -8.13308 0
M  V30 5530 O 938.084 2.38311 -8.41922 0
M  V30 5531 C 938.574 0.491279 -7.02284 0
M  V30 5532 C 937.864 0.996264 -5.77469 0
M  V30 5533 N 937.914 0.0501916 -4.62973 0
M  V30 5534 H 935.075 -0.374722 -8.67691 0
M  V30 5535 H 934.805 -0.443485 -6.90277 0
M  V30 5536 H 935.672 1.75537 -7.96793 0
M  V30 5537 P 939.634 2.75334 -8.47391 0
M  V30 5538 O 939.854 3.84128 -9.44797 0
M  V30 5539 O 940.424 1.51947 -8.68712 0
M  V30 5540 O 939.884 3.29363 -6.99321 0
M  V30 5541 C 938.944 4.24011 -6.4274 0
M  V30 5542 C 939.674 5.20775 -5.52155 0
M  V30 5543 O 939.884 4.56534 -4.22446 0
M  V30 5544 C 941.074 5.62629 -5.96531 0
M  V30 5545 O 941.464 6.87667 -5.41053 0
M  V30 5546 C 941.954 4.52537 -5.39283 0
M  V30 5547 C 941.244 4.20027 -4.08623 0
M  V30 5548 N 941.294 2.76189 -3.71603 0
M  V30 5549 C 941.214 1.64862 -4.52822 0
M  V30 5550 N 941.294 0.512671 -3.88633 0
M  V30 5551 C 941.434 0.888083 -2.54977 0
M  V30 5552 C 941.564 0.094668 -1.38677 0
M  V30 5553 O 941.584 -1.13053 -1.28163 0
M  V30 5554 N 941.684 0.890102 -0.232633 0
M  V30 5555 C 941.684 2.26958 -0.21772 0
M  V30 5556 N 941.814 2.84626 0.97925 0
M  V30 5557 N 941.554 3.0178 -1.31033 0
M  V30 5558 C 941.434 2.26781 -2.43843 0
M  V30 5559 H 938.455 4.797 -7.24003 0
M  V30 5560 H 938.185 3.69856 -5.84513 0
M  V30 5561 H 939.052 6.10356 -5.41441 0
M  V30 5562 H 941.707 4.79061 -3.27488 0
M  V30 5563 H 941.986 3.64906 -6.05785 0
M  V30 5564 H 942.978 4.8868 -5.2125 0
M  V30 5565 H 941.144 5.66726 -7.06352 0
M  V30 5566 H 941.095 1.71169 -5.60966 0
M  V30 5567 H 941.777 0.419134 0.644739 0
M  V30 5568 H 941.814 3.87332 1.06098 0
M  V30 5569 H 941.915 2.26417 1.82483 0
M  V30 5570 P 943.014 7.20834 -5.23717 0
M  V30 5571 O 943.234 8.66274 -5.38678 0
M  V30 5572 O 943.804 6.33687 -6.13629 0
M  V30 5573 O 943.264 6.7751 -3.72168 0
M  V30 5574 C 942.324 7.20919 -2.70795 0
M  V30 5575 C 943.054 7.45864 -1.40599 0
M  V30 5576 O 943.264 6.17751 -0.734343 0
M  V30 5577 C 944.454 8.05906 -1.51917 0
M  V30 5578 O 944.844 8.74358 -0.335205 0
M  V30 5579 C 945.334 6.83093 -1.70294 0
M  V30 5580 C 944.624 5.79992 -0.836974 0
M  V30 5581 N 944.674 4.41864 -1.38293 0
M  V30 5582 H 941.836 8.13738 -3.03804 0
M  V30 5583 H 941.564 6.42974 -2.55559 0
M  V30 5584 H 942.432 8.12139 -0.792866 0
M  V30 5585 H 945.087 5.80178 0.160643 0
M  V30 5586 H 945.367 6.51379 -2.75643 0
M  V30 5587 H 946.358 7.01832 -1.3448 0
M  V30 5588 H 944.524 8.73771 -2.38364 0
M  V30 5589 P 946.394 8.91 7.02954e-12 0
M  V30 5590 O 946.614 10.1726 0.733694 0
M  V30 5591 O 947.184 8.73148 -1.23936 0
M  V30 5592 O 946.644 7.66872 0.971405 0
M  V30 5593 C 945.704 7.42309 2.04641 0
M  V30 5594 C 946.434 6.86059 3.24661 0
M  V30 5595 O 946.644 5.42847 3.03646 0
M  V30 5596 C 947.834 7.41196 3.50753 0
M  V30 5597 O 948.224 7.27073 4.86816 0
M  V30 5598 C 948.714 6.5273 2.63741 0
M  V30 5599 C 948.004 5.1842 2.73198 0
M  V30 5600 N 948.054 4.38762 1.4784 0
M  V30 5601 C 947.974 4.81605 0.168631 0
M  V30 5602 N 948.054 3.85454 -0.713363 0
M  V30 5603 C 948.194 2.6994 0.0566958 0
M  V30 5604 C 948.324 1.34815 -0.338502 0
M  V30 5605 N 948.444 0.496304 0.77465 0
M  V30 5606 C 948.444 0.908403 2.09122 0
M  V30 5607 N 948.574 -0.0517805 3.00955 0
M  V30 5608 N 948.314 2.17875 2.46519 0
M  V30 5609 C 948.194 3.01988 1.4033 0
M  V30 5610 H 945.215 8.36803 2.32493 0
M  V30 5611 H 944.945 6.70197 1.71129 0
M  V30 5612 H 945.812 7.03551 4.13168 0
M  V30 5613 P 949.774 7.20834 5.23717 0
M  V30 5614 O 949.994 7.79853 6.57286 0
M  V30 5615 O 950.564 7.79239 4.12957 0
M  V30 5616 O 950.024 5.63315 5.29344 0
M  V30 5617 C 949.084 4.80255 6.01876 0
M  V30 5618 C 949.814 3.64202 6.65911 0
M  V30 5619 O 950.024 2.60694 5.64732 0
M  V30 5620 C 951.214 3.93473 7.1943 0
M  V30 5621 O 951.604 3.02071 8.21205 0
M  V30 5622 C 952.094 3.73047 5.97036 0
M  V30 5623 C 951.384 2.58828 5.25741 0
M  V30 5624 N 951.434 2.68068 3.77503 0
M  V30 5625 H 948.595 5.40332 6.79951 0
M  V30 5626 H 948.325 4.41613 5.32378 0
M  V30 5627 H 949.192 3.26331 7.47797 0
M  V30 5628 P 953.154 2.75334 8.47391 0
M  V30 5629 O 953.374 2.44571 9.90142 0
M  V30 5630 O 953.944 3.87688 7.92115 0
M  V30 5631 O 953.404 1.4459 7.59357 0
M  V30 5632 C 952.464 0.347608 7.69215 0
M  V30 5633 C 953.194 -0.96767 7.52806 0
M  V30 5634 O 953.404 -1.21036 6.1011 0
M  V30 5635 C 954.594 -1.04544 8.13308 0
M  V30 5636 O 954.984 -2.38311 8.41922 0
M  V30 5637 C 955.474 -0.491279 7.02284 0
M  V30 5638 C 954.764 -0.996264 5.77469 0
M  V30 5639 N 954.814 -0.0501916 4.62973 0
M  V30 5640 H 951.975 0.374722 8.67691 0
M  V30 5641 H 951.705 0.443485 6.90277 0
M  V30 5642 H 952.572 -1.75537 7.96793 0
M  V30 5643 P 956.534 -2.75334 8.47391 0
M  V30 5644 O 956.754 -3.84166 9.4489 0
M  V30 5645 O 957.324 -1.51964 8.6881 0
M  V30 5646 O 956.784 -3.29363 6.99321 0
M  V30 5647 C 955.844 -4.23956 6.42656 0
M  V30 5648 C 956.574 -5.20775 5.52155 0
M  V30 5649 O 956.784 -4.56534 4.22446 0
M  V30 5650 C 957.974 -5.62629 5.96531 0
M  V30 5651 O 958.364 -6.87667 5.41053 0
M  V30 5652 C 958.854 -4.52537 5.39283 0
M  V30 5653 C 958.144 -4.20027 4.08623 0
M  V30 5654 N 958.194 -2.7613 3.71522 0
M  V30 5655 C 958.344 -2.45612 2.37989 0
M  V30 5656 O 958.434 -3.30919 1.51621 0
M  V30 5657 N 958.384 -1.10684 2.08435 0
M  V30 5658 C 958.294 -0.0690084 2.9792 0
M  V30 5659 C 958.144 -0.481522 4.35345 0
M  V30 5660 C 958.094 -1.78906 4.67968 0
M  V30 5661 H 955.354 -4.797 7.24003 0
M  V30 5662 H 955.085 -3.69802 5.84429 0
M  V30 5663 H 955.952 -6.10356 5.41441 0
M  V30 5664 H 958.607 -4.78651 3.27911 0
M  V30 5665 H 958.886 -3.64957 6.05871 0
M  V30 5666 H 959.878 -4.8868 5.2125 0
M  V30 5667 H 958.044 -5.66726 7.06352 0
M  V30 5668 H 957.973 -2.07737 5.72367 0
M  V30 5669 P 959.914 -7.20834 5.23717 0
M  V30 5670 O 960.134 -8.66104 5.38572 0
M  V30 5671 O 960.704 -6.33544 6.1349 0
M  V30 5672 O 960.164 -6.7751 3.72168 0
M  V30 5673 C 959.224 -7.20825 2.7076 0
M  V30 5674 C 959.954 -7.45864 1.40599 0
M  V30 5675 O 960.164 -6.17651 0.734225 0
M  V30 5676 C 961.354 -8.05808 1.51899 0
M  V30 5677 O 961.744 -8.74358 0.335205 0
M  V30 5678 C 962.234 -6.83093 1.70294 0
M  V30 5679 C 961.524 -5.79992 0.836974 0
M  V30 5680 N 961.574 -4.41864 1.38293 0
M  V30 5681 H 958.735 -8.13644 3.0377 0
M  V30 5682 H 958.465 -6.42788 2.55485 0
M  V30 5683 H 959.332 -8.12039 0.792769 0
M  V30 5684 P 963.294 -8.91 -7.18673e-12 0
M  V30 5685 O 963.514 -10.1726 -0.733694 0
M  V30 5686 O 964.084 -8.73148 1.23936 0
M  V30 5687 O 963.544 -7.66872 -0.971405 0
M  V30 5688 C 962.604 -7.42309 -2.04641 0
M  V30 5689 C 963.334 -6.86059 -3.24661 0
M  V30 5690 O 963.544 -5.42847 -3.03646 0
M  V30 5691 C 964.734 -7.41196 -3.50753 0
M  V30 5692 O 965.124 -7.27073 -4.86816 0
M  V30 5693 C 965.614 -6.5273 -2.63741 0
M  V30 5694 C 964.904 -5.1842 -2.73198 0
M  V30 5695 N 964.954 -4.38762 -1.4784 0
M  V30 5696 H 962.115 -8.36803 -2.32493 0
M  V30 5697 H 961.845 -6.70197 -1.71129 0
M  V30 5698 H 962.712 -7.03551 -4.13168 0
M  V30 5699 P 966.674 -7.20834 -5.23717 0
M  V30 5700 O 966.894 -7.79853 -6.57286 0
M  V30 5701 O 967.464 -7.79239 -4.12957 0
M  V30 5702 O 966.924 -5.63315 -5.29344 0
M  V30 5703 C 965.984 -4.80255 -6.01876 0
M  V30 5704 C 966.714 -3.64202 -6.65911 0
M  V30 5705 O 966.924 -2.60694 -5.64732 0
M  V30 5706 C 968.114 -3.93473 -7.1943 0
M  V30 5707 O 968.504 -3.02071 -8.21205 0
M  V30 5708 C 968.994 -3.73047 -5.97036 0
M  V30 5709 C 968.284 -2.58828 -5.25741 0
M  V30 5710 N 968.334 -2.68068 -3.77503 0
M  V30 5711 H 965.495 -5.40332 -6.79951 0
M  V30 5712 H 965.225 -4.41613 -5.32378 0
M  V30 5713 H 966.092 -3.26331 -7.47797 0
M  V30 5714 P 970.054 -2.75334 -8.47391 0
M  V30 5715 O 970.274 -2.44571 -9.90142 0
M  V30 5716 O 970.844 -3.87688 -7.92115 0
M  V30 5717 O 970.304 -1.4459 -7.59357 0
M  V30 5718 C 969.364 -0.347608 -7.69215 0
M  V30 5719 C 970.094 0.96767 -7.52806 0
M  V30 5720 O 970.304 1.21036 -6.1011 0
M  V30 5721 C 971.494 1.04544 -8.13308 0
M  V30 5722 O 971.884 2.38311 -8.41922 0
M  V30 5723 C 972.374 0.491279 -7.02284 0
M  V30 5724 C 971.664 0.996264 -5.77469 0
M  V30 5725 N 971.714 0.0501916 -4.62973 0
M  V30 5726 H 968.875 -0.374722 -8.67691 0
M  V30 5727 H 968.605 -0.443485 -6.90277 0
M  V30 5728 H 969.472 1.75537 -7.96793 0
M  V30 5729 P 973.434 2.75334 -8.47391 0
M  V30 5730 O 973.654 3.84204 -9.44982 0
M  V30 5731 O 974.224 1.51982 -8.68909 0
M  V30 5732 O 973.684 3.29363 -6.99321 0
M  V30 5733 C 972.744 4.24066 -6.42823 0
M  V30 5734 C 973.474 5.20775 -5.52155 0
M  V30 5735 O 973.684 4.56607 -4.22514 0
M  V30 5736 C 974.874 5.62697 -5.96604 0
M  V30 5737 O 975.264 6.87667 -5.41053 0
M  V30 5738 C 975.754 4.52537 -5.39283 0
M  V30 5739 C 975.044 4.20027 -4.08623 0
M  V30 5740 N 975.094 2.76189 -3.71603 0
M  V30 5741 H 972.256 4.79756 -7.24086 0
M  V30 5742 H 971.984 3.69963 -5.84682 0
M  V30 5743 H 972.852 6.10431 -5.41508 0
M  V30 5744 H 975.507 4.78816 -3.28024 0
M  V30 5745 H 975.787 3.64957 -6.05871 0
M  V30 5746 H 976.778 4.88748 -5.21323 0
M  V30 5747 H 974.944 5.66789 -7.0643 0
M  V30 5748 P 976.814 7.20834 -5.23717 0
M  V30 5749 O 977.034 8.66104 -5.38572 0
M  V30 5750 O 977.604 6.33544 -6.1349 0
M  V30 5751 O 977.064 6.7751 -3.72168 0
M  V30 5752 C 976.124 7.20825 -2.7076 0
M  V30 5753 C 976.854 7.45864 -1.40599 0
M  V30 5754 O 977.064 6.17651 -0.734225 0
M  V30 5755 C 978.254 8.05808 -1.51899 0
M  V30 5756 O 978.644 8.74358 -0.335205 0
M  V30 5757 C 979.134 6.83093 -1.70294 0
M  V30 5758 C 978.424 5.79992 -0.836974 0
M  V30 5759 N 978.474 4.41864 -1.38293 0
M  V30 5760 H 975.635 8.13644 -3.0377 0
M  V30 5761 H 975.365 6.42788 -2.55485 0
M  V30 5762 H 976.232 8.12039 -0.792769 0
M  V30 5763 P 980.194 8.91 7.34391e-12 0
M  V30 5764 O 980.414 10.1726 0.733694 0
M  V30 5765 O 980.984 8.73148 -1.23936 0
M  V30 5766 O 980.444 7.66872 0.971405 0
M  V30 5767 C 979.504 7.42309 2.04641 0
M  V30 5768 C 980.234 6.86059 3.24661 0
M  V30 5769 O 980.444 5.42847 3.03646 0
M  V30 5770 C 981.634 7.41196 3.50753 0
M  V30 5771 O 982.024 7.27073 4.86816 0
M  V30 5772 C 982.514 6.5273 2.63741 0
M  V30 5773 C 981.804 5.1842 2.73198 0
M  V30 5774 N 981.854 4.38762 1.4784 0
M  V30 5775 H 979.015 8.36803 2.32493 0
M  V30 5776 H 978.745 6.70197 1.71129 0
M  V30 5777 H 979.612 7.03551 4.13168 0
M  V30 5778 P 983.574 7.20834 5.23717 0
M  V30 5779 O 983.794 7.79853 6.57286 0
M  V30 5780 O 984.364 7.79239 4.12957 0
M  V30 5781 O 983.824 5.63315 5.29344 0
M  V30 5782 C 982.884 4.80255 6.01876 0
M  V30 5783 C 983.614 3.64202 6.65911 0
M  V30 5784 O 983.824 2.60694 5.64732 0
M  V30 5785 C 985.014 3.93473 7.1943 0
M  V30 5786 O 985.404 3.02071 8.21205 0
M  V30 5787 C 985.894 3.73047 5.97036 0
M  V30 5788 C 985.184 2.58828 5.25741 0
M  V30 5789 N 985.234 2.68068 3.77503 0
M  V30 5790 H 982.395 5.40332 6.79951 0
M  V30 5791 H 982.125 4.41613 5.32378 0
M  V30 5792 H 982.992 3.26331 7.47797 0
M  V30 5793 P 986.954 2.75334 8.47391 0
M  V30 5794 O 987.174 2.44571 9.90142 0
M  V30 5795 O 987.744 3.87688 7.92115 0
M  V30 5796 O 987.204 1.4459 7.59357 0
M  V30 5797 C 986.264 0.347608 7.69215 0
M  V30 5798 C 986.994 -0.96767 7.52806 0
M  V30 5799 O 987.204 -1.21036 6.1011 0
M  V30 5800 C 988.394 -1.04544 8.13308 0
M  V30 5801 O 988.784 -2.38311 8.41922 0
M  V30 5802 C 989.274 -0.491279 7.02284 0
M  V30 5803 C 988.564 -0.996264 5.77469 0
M  V30 5804 N 988.614 -0.0501916 4.62973 0
M  V30 5805 H 985.775 0.374722 8.67691 0
M  V30 5806 H 985.505 0.443485 6.90277 0
M  V30 5807 H 986.372 -1.75537 7.96793 0
M  V30 5808 P 990.334 -2.75334 8.47391 0
M  V30 5809 O 990.554 -3.84204 9.44982 0
M  V30 5810 O 991.124 -1.51982 8.68909 0
M  V30 5811 O 990.584 -3.29363 6.99321 0
M  V30 5812 C 989.644 -4.24066 6.42823 0
M  V30 5813 C 990.374 -5.20775 5.52155 0
M  V30 5814 O 990.584 -4.56607 4.22514 0
M  V30 5815 C 991.774 -5.62697 5.96604 0
M  V30 5816 O 992.164 -6.87667 5.41053 0
M  V30 5817 C 992.654 -4.52537 5.39283 0
M  V30 5818 C 991.944 -4.20027 4.08623 0
M  V30 5819 N 991.994 -2.76189 3.71603 0
M  V30 5820 C 991.914 -1.66944 4.54297 0
M  V30 5821 N 991.984 -0.536169 3.91344 0
M  V30 5822 C 992.134 -0.901569 2.58849 0
M  V30 5823 C 992.264 -0.146599 1.40236 0
M  V30 5824 N 992.274 1.18234 1.37046 0
M  V30 5825 N 992.384 -0.822941 0.249738 0
M  V30 5826 C 992.374 -2.15179 0.280525 0
M  V30 5827 N 992.254 -2.96414 1.30822 0
M  V30 5828 C 992.134 -2.25804 2.44748 0
M  V30 5829 H 989.156 -4.79756 7.24086 0
M  V30 5830 H 988.884 -3.69963 5.84682 0
M  V30 5831 H 989.752 -6.10431 5.41508 0
M  V30 5832 H 992.407 -4.78816 3.28024 0
M  V30 5833 H 992.687 -3.64957 6.05871 0
M  V30 5834 H 993.678 -4.88748 5.21323 0
M  V30 5835 H 991.844 -5.66789 7.0643 0
M  V30 5836 H 991.803 -1.74684 5.62396 0
M  V30 5837 H 992.184 1.71949 2.24394 0
M  V30 5838 H 992.373 1.67511 0.470742 0
M  V30 5839 H 992.481 -2.63704 -0.6828 0
M  V30 5840 P 993.714 -7.20834 5.23717 0
M  V30 5841 O 993.934 -8.66104 5.38572 0
M  V30 5842 O 994.504 -6.33544 6.1349 0
M  V30 5843 O 993.964 -6.7751 3.72168 0
M  V30 5844 C 993.024 -7.20825 2.7076 0
M  V30 5845 C 993.754 -7.45864 1.40599 0
M  V30 5846 O 993.964 -6.17651 0.734225 0
M  V30 5847 C 995.154 -8.05808 1.51899 0
M  V30 5848 O 995.544 -8.74358 0.335205 0
M  V30 5849 C 996.034 -6.83093 1.70294 0
M  V30 5850 C 995.324 -5.79992 0.836974 0
M  V30 5851 N 995.374 -4.41864 1.38293 0
M  V30 5852 H 992.535 -8.13644 3.0377 0
M  V30 5853 H 992.265 -6.42788 2.55485 0
M  V30 5854 H 993.132 -8.12039 0.792769 0
M  V30 5855 P 997.094 -8.91 -7.50109e-12 0
M  V30 5856 O 997.314 -10.1736 -0.733766 0
M  V30 5857 O 997.884 -8.73247 1.2395 0
M  V30 5858 O 997.344 -7.66872 -0.971405 0
M  V30 5859 C 996.404 -7.42309 -2.04641 0
M  V30 5860 C 997.134 -6.86059 -3.24661 0
M  V30 5861 O 997.344 -5.42847 -3.03646 0
M  V30 5862 C 998.534 -7.41196 -3.50753 0
M  V30 5863 O 998.924 -7.27073 -4.86816 0
M  V30 5864 C 999.414 -6.5273 -2.63741 0
M  V30 5865 C 998.704 -5.1842 -2.73198 0
M  V30 5866 N 998.754 -4.38668 -1.47808 0
M  V30 5867 C 998.904 -3.00789 -1.58511 0
M  V30 5868 O 998.994 -2.50116 -2.71298 0
M  V30 5869 N 998.954 -2.29703 -0.253698 0
M  V30 5870 C 998.854 -2.84269 0.750133 0
M  V30 5871 N 998.904 -2.06951 1.82612 0
M  V30 5872 C 998.704 -4.25803 0.889776 0
M  V30 5873 C 998.654 -4.98326 -0.259363 0
M  V30 5874 H 995.914 -8.36707 -2.32466 0
M  V30 5875 H 995.645 -6.701 -1.71105 0
M  V30 5876 H 996.512 -7.03638 -4.13219 0
M  V30 5877 H 999.167 -4.59852 -3.53955 0
M  V30 5878 H 999.446 -6.88995 -1.59871 0
M  V30 5879 H 1000.44 -6.46749 -3.03687 0
M  V30 5880 H 998.604 -8.46908 -3.20714 0
M  V30 5881 H 998.532 -6.06349 -0.206238 0
M  V30 5882 H 998.634 -4.73163 1.86796 0
M  V30 5883 H 999.022 -1.05099 1.72271 0
M  V30 5884 H 998.825 -2.48716 2.76361 0
M  V30 5885 P 1000.47 -7.20834 -5.23717 0
M  V30 5886 O 1000.69 -7.79853 -6.57286 0
M  V30 5887 O 1001.26 -7.79239 -4.12957 0
M  V30 5888 O 1000.72 -5.63315 -5.29344 0
M  V30 5889 C 999.784 -4.80255 -6.01876 0
M  V30 5890 C 1000.51 -3.64202 -6.65911 0
M  V30 5891 O 1000.72 -2.60694 -5.64732 0
M  V30 5892 C 1001.91 -3.93473 -7.1943 0
M  V30 5893 O 1002.3 -3.02071 -8.21205 0
M  V30 5894 C 1002.79 -3.73047 -5.97036 0
M  V30 5895 C 1002.08 -2.58828 -5.25741 0
M  V30 5896 N 1002.13 -2.68068 -3.77503 0
M  V30 5897 H 999.295 -5.40332 -6.79951 0
M  V30 5898 H 999.025 -4.41613 -5.32378 0
M  V30 5899 H 999.892 -3.26331 -7.47797 0
M  V30 5900 P 1003.85 -2.75334 -8.47391 0
M  V30 5901 O 1004.07 -2.44571 -9.90142 0
M  V30 5902 O 1004.64 -3.87688 -7.92115 0
M  V30 5903 O 1004.1 -1.4459 -7.59357 0
M  V30 5904 C 1003.16 -0.347608 -7.69215 0
M  V30 5905 C 1003.89 0.96767 -7.52806 0
M  V30 5906 O 1004.1 1.21036 -6.1011 0
M  V30 5907 C 1005.29 1.04544 -8.13308 0
M  V30 5908 O 1005.68 2.38311 -8.41922 0
M  V30 5909 C 1006.17 0.491279 -7.02284 0
M  V30 5910 C 1005.46 0.996264 -5.77469 0
M  V30 5911 N 1005.51 0.0501916 -4.62973 0
M  V30 5912 H 1002.68 -0.374722 -8.67691 0
M  V30 5913 H 1002.41 -0.443485 -6.90277 0
M  V30 5914 H 1003.27 1.75537 -7.96793 0
M  V30 5915 P 1007.23 2.75334 -8.47391 0
M  V30 5916 O 1007.45 3.84128 -9.44797 0
M  V30 5917 O 1008.02 1.51947 -8.68712 0
M  V30 5918 O 1007.48 3.29363 -6.99321 0
M  V30 5919 C 1006.54 4.24011 -6.4274 0
M  V30 5920 C 1007.27 5.20775 -5.52155 0
M  V30 5921 O 1007.48 4.56534 -4.22446 0
M  V30 5922 C 1008.67 5.62629 -5.96531 0
M  V30 5923 O 1009.06 6.87667 -5.41053 0
M  V30 5924 C 1009.55 4.52537 -5.39283 0
M  V30 5925 C 1008.84 4.20027 -4.08623 0
M  V30 5926 N 1008.89 2.76189 -3.71603 0
M  V30 5927 H 1006.06 4.797 -7.24003 0
M  V30 5928 H 1005.79 3.69856 -5.84513 0
M  V30 5929 H 1006.65 6.10356 -5.41441 0
M  V30 5930 P 1010.61 7.20834 -5.23717 0
M  V30 5931 O 1010.83 8.66104 -5.38572 0
M  V30 5932 O 1011.4 6.33544 -6.1349 0
M  V30 5933 O 1010.86 6.7751 -3.72168 0
M  V30 5934 C 1009.92 7.20825 -2.7076 0
M  V30 5935 C 1010.65 7.45864 -1.40599 0
M  V30 5936 O 1010.86 6.17651 -0.734225 0
M  V30 5937 C 1012.05 8.05808 -1.51899 0
M  V30 5938 O 1012.44 8.74358 -0.335205 0
M  V30 5939 C 1012.93 6.83093 -1.70294 0
M  V30 5940 C 1012.22 5.79992 -0.836974 0
M  V30 5941 N 1012.27 4.41864 -1.38293 0
M  V30 5942 H 1009.44 8.13644 -3.0377 0
M  V30 5943 H 1009.17 6.42788 -2.55485 0
M  V30 5944 H 1010.03 8.12039 -0.792769 0
M  V30 5945 P 1013.99 8.91 7.65827e-12 0
M  V30 5946 O 1014.21 10.1726 0.733694 0
M  V30 5947 O 1014.78 8.73148 -1.23936 0
M  V30 5948 O 1014.24 7.66872 0.971405 0
M  V30 5949 C 1013.3 7.42309 2.04641 0
M  V30 5950 C 1014.03 6.86059 3.24661 0
M  V30 5951 O 1014.24 5.42847 3.03646 0
M  V30 5952 C 1015.43 7.41196 3.50753 0
M  V30 5953 O 1015.82 7.27073 4.86816 0
M  V30 5954 C 1016.31 6.5273 2.63741 0
M  V30 5955 C 1015.6 5.1842 2.73198 0
M  V30 5956 N 1015.65 4.38762 1.4784 0
M  V30 5957 C 1015.57 4.81605 0.168631 0
M  V30 5958 N 1015.65 3.85454 -0.713363 0
M  V30 5959 C 1015.79 2.6994 0.0566958 0
M  V30 5960 C 1015.92 1.34815 -0.338502 0
M  V30 5961 N 1016.04 0.496304 0.77465 0
M  V30 5962 C 1016.04 0.908403 2.09122 0
M  V30 5963 N 1016.17 -0.0517805 3.00955 0
M  V30 5964 N 1015.91 2.17875 2.46519 0
M  V30 5965 C 1015.79 3.01988 1.4033 0
M  V30 5966 H 1012.82 8.36803 2.32493 0
M  V30 5967 H 1012.55 6.70197 1.71129 0
M  V30 5968 H 1013.41 7.03551 4.13168 0
M  V30 5969 P 1017.37 7.20834 5.23717 0
M  V30 5970 O 1017.59 7.79853 6.57286 0
M  V30 5971 O 1018.16 7.79239 4.12957 0
M  V30 5972 O 1017.62 5.63315 5.29344 0
M  V30 5973 C 1016.68 4.80255 6.01876 0
M  V30 5974 C 1017.41 3.64202 6.65911 0
M  V30 5975 O 1017.62 2.60694 5.64732 0
M  V30 5976 C 1018.81 3.93473 7.1943 0
M  V30 5977 O 1019.2 3.02071 8.21205 0
M  V30 5978 C 1019.69 3.73047 5.97036 0
M  V30 5979 C 1018.98 2.58828 5.25741 0
M  V30 5980 N 1019.03 2.68068 3.77503 0
M  V30 5981 H 1016.19 5.40332 6.79951 0
M  V30 5982 H 1015.92 4.41613 5.32378 0
M  V30 5983 H 1016.79 3.26331 7.47797 0
M  V30 5984 P 1020.75 2.75334 8.47391 0
M  V30 5985 O 1020.97 2.44571 9.90142 0
M  V30 5986 O 1021.54 3.87688 7.92115 0
M  V30 5987 O 1021 1.4459 7.59357 0
M  V30 5988 C 1020.06 0.347608 7.69215 0
M  V30 5989 C 1020.79 -0.96767 7.52806 0
M  V30 5990 O 1021 -1.21036 6.1011 0
M  V30 5991 C 1022.19 -1.04544 8.13308 0
M  V30 5992 O 1022.58 -2.38311 8.41922 0
M  V30 5993 C 1023.07 -0.491279 7.02284 0
M  V30 5994 C 1022.36 -0.996264 5.77469 0
M  V30 5995 N 1022.41 -0.0501916 4.62973 0
M  V30 5996 H 1019.57 0.374722 8.67691 0
M  V30 5997 H 1019.3 0.443485 6.90277 0
M  V30 5998 H 1020.17 -1.75537 7.96793 0
M  V30 5999 P 1024.13 -2.75334 8.47391 0
M  V30 6000 O 1024.35 -3.84204 9.44982 0
M  V30 6001 O 1024.92 -1.51982 8.68909 0
M  V30 6002 O 1024.38 -3.29363 6.99321 0
M  V30 6003 C 1023.44 -4.24066 6.42823 0
M  V30 6004 C 1024.17 -5.20775 5.52155 0
M  V30 6005 O 1024.38 -4.56607 4.22514 0
M  V30 6006 C 1025.57 -5.62697 5.96604 0
M  V30 6007 O 1025.96 -6.87667 5.41053 0
M  V30 6008 C 1026.45 -4.52537 5.39283 0
M  V30 6009 C 1025.74 -4.20027 4.08623 0
M  V30 6010 N 1025.79 -2.76189 3.71603 0
M  V30 6011 C 1025.71 -1.66944 4.54297 0
M  V30 6012 N 1025.78 -0.536169 3.91344 0
M  V30 6013 C 1025.93 -0.901569 2.58849 0
M  V30 6014 C 1026.06 -0.146599 1.40236 0
M  V30 6015 N 1026.07 1.18234 1.37046 0
M  V30 6016 N 1026.18 -0.822941 0.249738 0
M  V30 6017 C 1026.17 -2.15179 0.280525 0
M  V30 6018 N 1026.05 -2.96414 1.30822 0
M  V30 6019 C 1025.93 -2.25804 2.44748 0
M  V30 6020 H 1022.96 -4.79756 7.24086 0
M  V30 6021 H 1022.68 -3.69963 5.84682 0
M  V30 6022 H 1023.55 -6.10431 5.41508 0
M  V30 6023 H 1026.21 -4.78816 3.28024 0
M  V30 6024 H 1026.49 -3.64957 6.05871 0
M  V30 6025 H 1027.48 -4.88748 5.21323 0
M  V30 6026 H 1025.64 -5.66789 7.0643 0
M  V30 6027 H 1025.6 -1.74684 5.62396 0
M  V30 6028 H 1025.98 1.71949 2.24394 0
M  V30 6029 H 1026.17 1.67511 0.470742 0
M  V30 6030 H 1026.28 -2.63704 -0.6828 0
M  V30 6031 P 1027.51 -7.20834 5.23717 0
M  V30 6032 O 1027.73 -8.66104 5.38572 0
M  V30 6033 O 1028.3 -6.33544 6.1349 0
M  V30 6034 O 1027.76 -6.7751 3.72168 0
M  V30 6035 C 1026.82 -7.20825 2.7076 0
M  V30 6036 C 1027.55 -7.45864 1.40599 0
M  V30 6037 O 1027.76 -6.17651 0.734225 0
M  V30 6038 C 1028.95 -8.05808 1.51899 0
M  V30 6039 O 1029.34 -8.74358 0.335205 0
M  V30 6040 C 1029.83 -6.83093 1.70294 0
M  V30 6041 C 1029.12 -5.79992 0.836974 0
M  V30 6042 N 1029.17 -4.41864 1.38293 0
M  V30 6043 H 1026.33 -8.13644 3.0377 0
M  V30 6044 H 1026.06 -6.42788 2.55485 0
M  V30 6045 H 1026.93 -8.12039 0.792769 0
M  V30 6046 P 1030.89 -8.91 -7.81545e-12 0
M  V30 6047 O 1031.11 -10.1726 -0.733694 0
M  V30 6048 O 1031.68 -8.73148 1.23936 0
M  V30 6049 O 1031.14 -7.66872 -0.971405 0
M  V30 6050 C 1030.2 -7.42309 -2.04641 0
M  V30 6051 C 1030.93 -6.86059 -3.24661 0
M  V30 6052 O 1031.14 -5.42847 -3.03646 0
M  V30 6053 C 1032.33 -7.41196 -3.50753 0
M  V30 6054 O 1032.72 -7.27073 -4.86816 0
M  V30 6055 C 1033.21 -6.5273 -2.63741 0
M  V30 6056 C 1032.5 -5.1842 -2.73198 0
M  V30 6057 N 1032.55 -4.38762 -1.4784 0
M  V30 6058 C 1032.47 -4.81605 -0.168631 0
M  V30 6059 N 1032.55 -3.85454 0.713363 0
M  V30 6060 C 1032.69 -2.6994 -0.0566958 0
M  V30 6061 C 1032.82 -1.34815 0.338502 0
M  V30 6062 O 1032.84 -0.869548 1.47125 0
M  V30 6063 N 1032.94 -0.496304 -0.77465 0
M  V30 6064 C 1032.94 -0.908403 -2.09122 0
M  V30 6065 N 1033.07 0.0517805 -3.00955 0
M  V30 6066 N 1032.81 -2.17875 -2.46519 0
M  V30 6067 C 1032.69 -3.01988 -1.4033 0
M  V30 6068 H 1029.71 -8.36803 -2.32493 0
M  V30 6069 H 1029.44 -6.70197 -1.71129 0
M  V30 6070 H 1030.31 -7.03551 -4.13168 0
M  V30 6071 H 1032.97 -4.59498 -3.54415 0
M  V30 6072 H 1033.25 -6.88898 -1.59848 0
M  V30 6073 H 1034.24 -6.46749 -3.03687 0
M  V30 6074 H 1032.4 -8.46908 -3.20714 0
M  V30 6075 H 1032.35 -5.86405 0.105564 0
M  V30 6076 H 1033.04 0.483664 -0.597855 0
M  V30 6077 H 1033.07 -0.187865 -4.0116 0
M  V30 6078 H 1033.17 1.03585 -2.71726 0
M  V30 6079 P 1034.27 -7.20834 -5.23717 0
M  V30 6080 O 1034.49 -7.79853 -6.57286 0
M  V30 6081 O 1035.06 -7.79239 -4.12957 0
M  V30 6082 O 1034.52 -5.63315 -5.29344 0
M  V30 6083 C 1033.58 -4.80255 -6.01876 0
M  V30 6084 C 1034.31 -3.64202 -6.65911 0
M  V30 6085 O 1034.52 -2.60694 -5.64732 0
M  V30 6086 C 1035.71 -3.93473 -7.1943 0
M  V30 6087 O 1036.1 -3.02071 -8.21205 0
M  V30 6088 C 1036.59 -3.73047 -5.97036 0
M  V30 6089 C 1035.88 -2.58828 -5.25741 0
M  V30 6090 N 1035.93 -2.68068 -3.77503 0
M  V30 6091 H 1033.09 -5.40332 -6.79951 0
M  V30 6092 H 1032.82 -4.41613 -5.32378 0
M  V30 6093 H 1033.69 -3.26331 -7.47797 0
M  V30 6094 P 1037.65 -2.75334 -8.47391 0
M  V30 6095 O 1037.87 -2.44571 -9.90142 0
M  V30 6096 O 1038.44 -3.87688 -7.92115 0
M  V30 6097 O 1037.9 -1.4459 -7.59357 0
M  V30 6098 C 1036.96 -0.347608 -7.69215 0
M  V30 6099 C 1037.69 0.96767 -7.52806 0
M  V30 6100 O 1037.9 1.21036 -6.1011 0
M  V30 6101 C 1039.09 1.04544 -8.13308 0
M  V30 6102 O 1039.48 2.38311 -8.41922 0
M  V30 6103 C 1039.97 0.491279 -7.02284 0
M  V30 6104 C 1039.26 0.996264 -5.77469 0
M  V30 6105 N 1039.31 0.0501916 -4.62973 0
M  V30 6106 H 1036.47 -0.374722 -8.67691 0
M  V30 6107 H 1036.2 -0.443485 -6.90277 0
M  V30 6108 H 1037.07 1.75537 -7.96793 0
M  V30 6109 P 1041.03 2.75334 -8.47391 0
M  V30 6110 O 1041.25 3.84204 -9.44982 0
M  V30 6111 O 1041.82 1.51982 -8.68909 0
M  V30 6112 O 1041.28 3.29363 -6.99321 0
M  V30 6113 C 1040.34 4.24066 -6.42823 0
M  V30 6114 C 1041.07 5.20775 -5.52155 0
M  V30 6115 O 1041.28 4.56607 -4.22514 0
M  V30 6116 C 1042.47 5.62697 -5.96604 0
M  V30 6117 O 1042.86 6.87667 -5.41053 0
M  V30 6118 C 1043.35 4.52537 -5.39283 0
M  V30 6119 C 1042.64 4.20027 -4.08623 0
M  V30 6120 N 1042.69 2.76189 -3.71603 0
M  V30 6121 H 1039.86 4.79756 -7.24086 0
M  V30 6122 H 1039.58 3.69963 -5.84682 0
M  V30 6123 H 1040.45 6.10431 -5.41508 0
M  V30 6124 H 1043.11 4.78816 -3.28024 0
M  V30 6125 H 1043.39 3.64957 -6.05871 0
M  V30 6126 H 1044.38 4.88748 -5.21323 0
M  V30 6127 H 1042.54 5.66789 -7.0643 0
M  V30 6128 P 1044.41 7.20834 -5.23717 0
M  V30 6129 O 1044.63 8.66189 -5.38625 0
M  V30 6130 O 1045.2 6.33615 -6.1356 0
M  V30 6131 O 1044.66 6.7751 -3.72168 0
M  V30 6132 C 1043.72 7.20825 -2.7076 0
M  V30 6133 C 1044.45 7.45864 -1.40599 0
M  V30 6134 O 1044.66 6.17651 -0.734225 0
M  V30 6135 C 1045.85 8.05808 -1.51899 0
M  V30 6136 O 1046.24 8.74358 -0.335205 0
M  V30 6137 C 1046.73 6.83093 -1.70294 0
M  V30 6138 C 1046.02 5.79992 -0.836974 0
M  V30 6139 N 1046.07 4.41769 -1.38263 0
M  V30 6140 C 1046.22 3.36514 -0.485617 0
M  V30 6141 O 1046.31 3.61814 0.724703 0
M  V30 6142 N 1046.27 2.00746 -1.14492 0
M  V30 6143 C 1046.17 1.85887 -2.27776 0
M  V30 6144 N 1046.22 0.600907 -2.69379 0
M  V30 6145 C 1046.02 2.92182 -3.22265 0
M  V30 6146 C 1045.97 4.18399 -2.71925 0
M  V30 6147 H 1043.23 8.1355 -3.03735 0
M  V30 6148 H 1042.96 6.42695 -2.55448 0
M  V30 6149 H 1043.83 8.12139 -0.792866 0
M  V30 6150 H 1046.49 5.80078 0.160615 0
M  V30 6151 H 1046.77 6.51379 -2.75643 0
M  V30 6152 H 1047.76 7.01734 -1.34462 0
M  V30 6153 H 1045.92 8.73674 -2.38337 0
M  V30 6154 H 1045.85 5.02669 -3.39718 0
M  V30 6155 H 1045.95 2.73001 -4.29239 0
M  V30 6156 H 1046.34 -0.162318 -2.01146 0
M  V30 6157 H 1046.14 0.387742 -3.69773 0
M  V30 6158 P 1047.79 8.91 7.97264e-12 0
M  V30 6159 O 1048.01 10.1726 0.733694 0
M  V30 6160 O 1048.58 8.73148 -1.23936 0
M  V30 6161 O 1048.04 7.66872 0.971405 0
M  V30 6162 C 1047.1 7.42309 2.04641 0
M  V30 6163 C 1047.83 6.86059 3.24661 0
M  V30 6164 O 1048.04 5.42847 3.03646 0
M  V30 6165 C 1049.23 7.41196 3.50753 0
M  V30 6166 O 1049.62 7.27073 4.86816 0
M  V30 6167 C 1050.11 6.5273 2.63741 0
M  V30 6168 C 1049.4 5.1842 2.73198 0
M  V30 6169 N 1049.45 4.38762 1.4784 0
M  V30 6170 H 1046.61 8.36803 2.32493 0
M  V30 6171 H 1046.34 6.70197 1.71129 0
M  V30 6172 H 1047.21 7.03551 4.13168 0
M  V30 6173 P 1051.17 7.20834 5.23717 0
M  V30 6174 O 1051.39 7.79853 6.57286 0
M  V30 6175 O 1051.96 7.79239 4.12957 0
M  V30 6176 O 1051.42 5.63315 5.29344 0
M  V30 6177 C 1050.48 4.80255 6.01876 0
M  V30 6178 C 1051.21 3.64202 6.65911 0
M  V30 6179 O 1051.42 2.60694 5.64732 0
M  V30 6180 C 1052.61 3.93473 7.1943 0
M  V30 6181 O 1053 3.02071 8.21205 0
M  V30 6182 C 1053.49 3.73047 5.97036 0
M  V30 6183 C 1052.78 2.58828 5.25741 0
M  V30 6184 N 1052.83 2.68068 3.77503 0
M  V30 6185 H 1049.99 5.40332 6.79951 0
M  V30 6186 H 1049.72 4.41613 5.32378 0
M  V30 6187 H 1050.59 3.26331 7.47797 0
M  V30 6188 P 1054.55 2.75334 8.47391 0
M  V30 6189 O 1054.77 2.44595 9.90239 0
M  V30 6190 O 1055.34 3.87732 7.92204 0
M  V30 6191 O 1054.8 1.4459 7.59357 0
M  V30 6192 C 1053.86 0.347563 7.69115 0
M  V30 6193 C 1054.59 -0.96767 7.52806 0
M  V30 6194 O 1054.8 -1.21036 6.1011 0
M  V30 6195 C 1055.99 -1.04544 8.13308 0
M  V30 6196 O 1056.38 -2.38311 8.41922 0
M  V30 6197 C 1056.87 -0.491279 7.02284 0
M  V30 6198 C 1056.16 -0.996264 5.77469 0
M  V30 6199 N 1056.21 -0.0501808 4.62873 0
M  V30 6200 C 1056.36 -0.588177 3.36904 0
M  V30 6201 O 1056.45 -1.78598 3.17173 0
M  V30 6202 N 1056.4 0.329694 2.33686 0
M  V30 6203 C 1056.31 1.6953 2.45079 0
M  V30 6204 O 1056.36 2.41926 1.44899 0
M  V30 6205 C 1056.16 2.16933 3.80505 0
M  V30 6206 C 1056.05 3.65373 3.97621 0
M  V30 6207 C 1056.11 1.30326 4.83752 0
M  V30 6208 H 1053.37 0.374722 8.67691 0
M  V30 6209 H 1053.1 0.443421 6.90177 0
M  V30 6210 H 1053.97 -1.75537 7.96793 0
M  V30 6211 H 1056.63 -1.94496 5.46629 0
M  V30 6212 H 1056.91 0.608651 7.04676 0
M  V30 6213 H 1057.9 -0.889672 7.08939 0
M  V30 6214 H 1056.06 -0.43308 9.04564 0
M  V30 6215 H 1055.99 1.68366 5.8516 0
M  V30 6216 H 1057.02 4.05985 4.30448 0
M  V30 6217 H 1055.29 3.88028 4.72875 0
M  V30 6218 H 1055.77 4.11381 3.01609 0
M  V30 6219 H 1056.51 -0.0393617 1.41345 0
M  V30 6220 P 1057.93 -2.75334 8.47391 0
M  V30 6221 O 1058.15 -3.84128 9.44797 0
M  V30 6222 O 1058.72 -1.51947 8.68712 0
M  V30 6223 O 1058.18 -3.29363 6.99321 0
M  V30 6224 C 1057.24 -4.24011 6.4274 0
M  V30 6225 C 1057.97 -5.20775 5.52155 0
M  V30 6226 O 1058.18 -4.56534 4.22446 0
M  V30 6227 C 1059.37 -5.62629 5.96531 0
M  V30 6228 O 1059.76 -6.87667 5.41053 0
M  V30 6229 C 1060.25 -4.52537 5.39283 0
M  V30 6230 C 1059.54 -4.20027 4.08623 0
M  V30 6231 N 1059.59 -2.76189 3.71603 0
M  V30 6232 H 1056.75 -4.797 7.24003 0
M  V30 6233 H 1056.48 -3.69856 5.84513 0
M  V30 6234 H 1057.35 -6.10356 5.41441 0
M  V30 6235 P 1061.31 -7.20834 5.23717 0
M  V30 6236 O 1061.53 -8.66189 5.38625 0
M  V30 6237 O 1062.1 -6.33615 6.1356 0
M  V30 6238 O 1061.56 -6.7751 3.72168 0
M  V30 6239 C 1060.62 -7.20732 2.70725 0
M  V30 6240 C 1061.35 -7.45864 1.40599 0
M  V30 6241 O 1061.56 -6.17651 0.734225 0
M  V30 6242 C 1062.75 -8.05808 1.51899 0
M  V30 6243 O 1063.14 -8.74358 0.335205 0
M  V30 6244 C 1063.63 -6.83093 1.70294 0
M  V30 6245 C 1062.92 -5.79992 0.836974 0
M  V30 6246 N 1062.97 -4.41769 1.38263 0
M  V30 6247 C 1063.12 -3.38591 0.481702 0
M  V30 6248 O 1063.21 -3.56839 -0.718452 0
M  V30 6249 N 1063.16 -2.1206 1.03569 0
M  V30 6250 C 1063.07 -1.80696 2.36966 0
M  V30 6251 C 1062.92 -2.94845 3.23898 0
M  V30 6252 C 1062.87 -4.19803 2.73435 0
M  V30 6253 H 1060.13 -8.13644 3.0377 0
M  V30 6254 H 1059.86 -6.42695 2.55448 0
M  V30 6255 H 1060.73 -8.12039 0.792769 0
M  V30 6256 H 1063.39 -5.79978 -0.160587 0
M  V30 6257 H 1063.67 -6.51379 2.75643 0
M  V30 6258 H 1064.66 -7.01734 1.34462 0
M  V30 6259 H 1062.82 -8.73674 2.38337 0
M  V30 6260 H 1062.75 -5.04492 3.4095 0
M  V30 6261 P 1064.69 -8.91 -8.12982e-12 0
M  V30 6262 O 1064.91 -10.1726 -0.733694 0
M  V30 6263 O 1065.48 -8.73148 1.23936 0
M  V30 6264 O 1064.94 -7.66872 -0.971405 0
M  V30 6265 C 1064 -7.42309 -2.04641 0
M  V30 6266 C 1064.73 -6.86059 -3.24661 0
M  V30 6267 O 1064.94 -5.42847 -3.03646 0
M  V30 6268 C 1066.13 -7.41196 -3.50753 0
M  V30 6269 O 1066.52 -7.27073 -4.86816 0
M  V30 6270 C 1067.01 -6.5273 -2.63741 0
M  V30 6271 C 1066.3 -5.1842 -2.73198 0
M  V30 6272 N 1066.35 -4.38762 -1.4784 0
M  V30 6273 H 1063.51 -8.36803 -2.32493 0
M  V30 6274 H 1063.24 -6.70197 -1.71129 0
M  V30 6275 H 1064.11 -7.03551 -4.13168 0
M  V30 6276 P 1068.07 -7.20834 -5.23717 0
M  V30 6277 O 1068.29 -7.80006 -6.57415 0
M  V30 6278 O 1068.86 -7.79416 -4.13051 0
M  V30 6279 O 1068.32 -5.63315 -5.29344 0
M  V30 6280 C 1067.38 -4.80318 -6.01954 0
M  V30 6281 C 1068.11 -3.64202 -6.65911 0
M  V30 6282 O 1068.32 -2.60736 -5.64823 0
M  V30 6283 C 1069.51 -3.93521 -7.19518 0
M  V30 6284 O 1069.9 -3.02071 -8.21205 0
M  V30 6285 C 1070.39 -3.73047 -5.97036 0
M  V30 6286 C 1069.68 -2.58828 -5.25741 0
M  V30 6287 N 1069.73 -2.68068 -3.77503 0
M  V30 6288 C 1069.65 -3.80474 -2.99159 0
M  V30 6289 N 1069.72 -3.55622 -1.71925 0
M  V30 6290 C 1069.87 -2.1832 -1.65733 0
M  V30 6291 C 1070 -1.28842 -0.572777 0
M  V30 6292 N 1070.01 -1.66875 0.70098 0
M  V30 6293 N 1070.12 0.016788 -0.859836 0
M  V30 6294 C 1070.11 0.398145 -2.13316 0
M  V30 6295 N 1069.99 -0.328224 -3.22333 0
M  V30 6296 C 1069.87 -1.62992 -2.90383 0
M  V30 6297 H 1066.9 -5.40394 -6.8003 0
M  V30 6298 H 1066.62 -4.41741 -5.32532 0
M  V30 6299 H 1067.49 -3.26371 -7.47889 0
M  V30 6300 H 1070.15 -1.64007 -5.56746 0
M  V30 6301 H 1070.43 -4.63439 -5.3432 0
M  V30 6302 H 1071.42 -3.44776 -6.25925 0
M  V30 6303 H 1069.58 -4.96707 -7.57347 0
M  V30 6304 H 1069.54 -4.8089 -3.39924 0
M  V30 6305 H 1069.92 -2.66547 0.941919 0
M  V30 6306 H 1070.11 -0.965341 1.44766 0
M  V30 6307 H 1070.22 1.46427 -2.29697 0
M  V30 6308 P 1071.45 -2.75334 -8.47391 0
M  V30 6309 O 1071.67 -2.44571 -9.90142 0
M  V30 6310 O 1072.24 -3.87688 -7.92115 0
M  V30 6311 O 1071.7 -1.4459 -7.59357 0
M  V30 6312 C 1070.76 -0.347608 -7.69215 0
M  V30 6313 C 1071.49 0.96767 -7.52806 0
M  V30 6314 O 1071.7 1.21036 -6.1011 0
M  V30 6315 C 1072.89 1.04544 -8.13308 0
M  V30 6316 O 1073.28 2.38311 -8.41922 0
M  V30 6317 C 1073.77 0.491279 -7.02284 0
M  V30 6318 C 1073.06 0.996264 -5.77469 0
M  V30 6319 N 1073.11 0.0501916 -4.62973 0
M  V30 6320 H 1070.27 -0.374722 -8.67691 0
M  V30 6321 H 1070 -0.443485 -6.90277 0
M  V30 6322 H 1070.87 1.75537 -7.96793 0
M  V30 6323 H 1073.15 2.92663 -7.63961 0
M  V30 6324 H 1077.17 0.0909867 9.51056 0
M  V30 6325 O 1077.05 0.778697 8.86988 0
M  V30 6326 P 1075.61 1.17771 8.83182 0
M  V30 6327 O 1075.39 2.07206 9.98732 0
M  V30 6328 O 1074.82 -0.0743816 8.81969 0
M  V30 6329 O 1075.36 1.97652 7.47304 0
M  V30 6330 C 1076.3 3.01133 7.08783 0
M  V30 6331 C 1075.57 4.12613 6.37049 0
M  V30 6332 O 1075.36 3.72827 4.97879 0
M  V30 6333 C 1074.17 4.45085 6.88694 0
M  V30 6334 O 1073.78 5.7877 6.5624 0
M  V30 6335 C 1073.29 3.47817 6.12078 0
M  V30 6336 C 1074 3.39414 4.77697 0
M  V30 6337 N 1073.95 2.04615 4.15333 0
M  V30 6338 H 1076.79 3.41248 7.98759 0
M  V30 6339 H 1077.06 2.5837 6.41742 0
M  V30 6340 H 1076.2 5.02657 6.42673 0
M  V30 6341 P 1072.23 6.144 6.45285 0
M  V30 6342 O 1072.01 7.54673 6.86199 0
M  V30 6343 O 1071.44 5.12391 7.179 0
M  V30 6344 O 1071.98 5.99158 4.88404 0
M  V30 6345 C 1072.92 6.60062 3.96313 0
M  V30 6346 C 1072.19 7.08259 2.72856 0
M  V30 6347 O 1071.98 5.9427 1.83651 0
M  V30 6348 C 1070.79 7.65087 2.94749 0
M  V30 6349 O 1070.4 8.53963 1.90717 0
M  V30 6350 C 1069.91 6.41069 2.90698 0
M  V30 6351 C 1070.62 5.5528 1.86931 0
M  V30 6352 N 1070.57 4.09575 2.15696 0
M  V30 6353 C 1070.42 3.24249 1.08435 0
M  V30 6354 O 1070.33 3.63946 -0.0628747 0
M  V30 6355 N 1070.38 1.90009 1.39973 0
M  V30 6356 C 1070.47 1.34884 2.65614 0
M  V30 6357 O 1070.42 0.123716 2.81728 0
M  V30 6358 C 1070.62 2.3145 3.71736 0
M  V30 6359 C 1070.73 1.75913 5.10438 0
M  V30 6360 C 1070.67 3.63518 3.44754 0
M  V30 6361 H 1073.41 7.45402 4.45526 0
M  V30 6362 H 1073.68 5.86062 3.67208 0
M  V30 6363 H 1072.82 7.84412 2.24479 0
M  V30 6364 H 1070.16 5.73358 0.888409 0
M  V30 6365 H 1069.88 5.90877 3.88583 0
M  V30 6366 H 1068.89 6.65867 2.58821 0
M  V30 6367 H 1070.72 8.16248 3.92006 0
M  V30 6368 H 1070.8 4.34551 4.26383 0
M  V30 6369 H 1069.77 1.85471 5.61775 0
M  V30 6370 H 1071.5 2.31364 5.66257 0
M  V30 6371 H 1071.01 0.695936 5.05229 0
M  V30 6372 H 1070.28 1.26277 0.63625 0
M  V30 6373 P 1068.85 8.7635 1.60911 0
M  V30 6374 O 1068.63 10.1388 1.11561 0
M  V30 6375 O 1068.06 8.36503 2.79617 0
M  V30 6376 O 1068.6 7.71806 0.42951 0
M  V30 6377 C 1069.54 7.67148 -0.673689 0
M  V30 6378 C 1068.81 7.33374 -1.95559 0
M  V30 6379 O 1068.6 5.88721 -2.00726 0
M  V30 6380 C 1067.41 7.92526 -2.10483 0
M  V30 6381 O 1067.02 8.02971 -3.47653 0
M  V30 6382 C 1066.53 6.89602 -1.41652 0
M  V30 6383 C 1067.24 5.59201 -1.75185 0
M  V30 6384 N 1067.19 4.58235 -0.662552 0
M  V30 6385 H 1070.03 8.65116 -0.777161 0
M  V30 6386 H 1070.3 6.90173 -0.474152 0
M  V30 6387 H 1069.44 7.66548 -2.79458 0
M  V30 6388 P 1065.47 8.03563 -3.84925 0
M  V30 6389 O 1065.25 8.85821 -5.0569 0
M  V30 6390 O 1064.68 8.41101 -2.65469 0
M  V30 6391 O 1065.22 6.4965 -4.18908 0
M  V30 6392 C 1066.16 5.81037 -5.05421 0
M  V30 6393 C 1065.43 4.78366 -5.89277 0
M  V30 6394 O 1065.22 3.58302 -5.08433 0
M  V30 6395 C 1064.03 5.17448 -6.36119 0
M  V30 6396 O 1063.64 4.45271 -7.53232 0
M  V30 6397 C 1063.15 4.74639 -5.19936 0
M  V30 6398 C 1063.86 3.49432 -4.70418 0
M  V30 6399 N 1063.81 3.31776 -3.22945 0
M  V30 6400 C 1063.89 4.27147 -2.23315 0
M  V30 6401 N 1063.81 3.78447 -1.02186 0
M  V30 6402 C 1063.67 2.41001 -1.21732 0
M  V30 6403 C 1063.54 1.36111 -0.27694 0
M  V30 6404 N 1063.42 0.113683 -0.912949 0
M  V30 6405 C 1063.42 -0.0846396 -2.27943 0
M  V30 6406 N 1063.29 -1.34737 -2.6916 0
M  V30 6407 N 1063.55 0.902521 -3.16379 0
M  V30 6408 C 1063.67 2.11937 -2.56849 0
M  V30 6409 H 1066.65 6.54213 -5.71376 0
M  V30 6410 H 1066.92 5.30492 -4.44033 0
M  V30 6411 H 1066.06 4.55889 -6.76652 0
M  V30 6412 P 1062.09 4.23843 -7.83734 0
M  V30 6413 O 1061.87 4.19407 -9.29784 0
M  V30 6414 O 1061.3 5.24426 -7.09156 0
M  V30 6415 O 1061.84 2.7935 -7.20758 0
M  V30 6416 C 1062.78 1.7299 -7.50419 0
M  V30 6417 C 1062.05 0.406376 -7.57911 0
M  V30 6418 O 1061.84 -0.0897726 -6.21935 0
M  V30 6419 C 1060.65 0.447224 -8.1878 0
M  V30 6420 O 1060.26 -0.825065 -8.71101 0
M  V30 6421 C 1059.77 0.783801 -6.99623 0
M  V30 6422 C 1060.48 0.0619192 -5.85967 0
M  V30 6423 N 1060.43 0.7859 -4.56281 0
M  V30 6424 H 1063.27 1.93423 -8.4679 0
M  V30 6425 H 1063.54 1.68181 -6.71046 0
M  V30 6426 H 1062.68 -0.289041 -8.15388 0
M  V30 6427 P 1058.71 -1.17771 -8.83182 0
M  V30 6428 O 1058.49 -2.07206 -9.98732 0
M  V30 6429 O 1057.92 0.0743816 -8.81969 0
M  V30 6430 O 1058.46 -1.97652 -7.47304 0
M  V30 6431 C 1059.4 -3.01133 -7.08783 0
M  V30 6432 C 1058.67 -4.12613 -6.37049 0
M  V30 6433 O 1058.46 -3.72827 -4.97879 0
M  V30 6434 C 1057.27 -4.45085 -6.88694 0
M  V30 6435 O 1056.88 -5.7877 -6.5624 0
M  V30 6436 C 1056.39 -3.47817 -6.12078 0
M  V30 6437 C 1057.1 -3.39414 -4.77697 0
M  V30 6438 N 1057.05 -2.04199 -4.15538 0
M  V30 6439 C 1057.13 -0.821545 -4.76977 0
M  V30 6440 N 1057.06 0.1794 -3.94592 0
M  V30 6441 C 1056.91 -0.419121 -2.70776 0
M  V30 6442 C 1056.78 0.109072 -1.40577 0
M  V30 6443 N 1056.77 1.4104 -1.1344 0
M  V30 6444 N 1056.66 -0.764381 -0.39411 0
M  V30 6445 C 1056.67 -2.06587 -0.664135 0
M  V30 6446 N 1056.79 -2.67948 -1.82153 0
M  V30 6447 C 1056.91 -1.77942 -2.8147 0
M  V30 6448 H 1059.89 -3.41248 -7.98759 0
M  V30 6449 H 1060.16 -2.57728 -6.42 0
M  V30 6450 H 1059.3 -5.02657 -6.42673 0
M  V30 6451 H 1056.64 -4.11708 -4.08956 0
M  V30 6452 H 1056.36 -2.49626 -6.61679 0
M  V30 6453 H 1055.37 -3.8662 -6.00862 0
M  V30 6454 H 1057.2 -4.29991 -7.97006 0
M  V30 6455 H 1057.25 -0.702451 -5.84696 0
M  V30 6456 H 1056.86 2.09647 -1.89651 0
M  V30 6457 H 1056.68 1.73358 -0.160575 0
M  V30 6458 H 1056.57 -2.71695 0.195838 0
M  V30 6459 P 1055.33 -6.144 -6.45285 0
M  V30 6460 O 1055.11 -7.54673 -6.86199 0
M  V30 6461 O 1054.54 -5.12391 -7.179 0
M  V30 6462 O 1055.08 -5.99158 -4.88404 0
M  V30 6463 C 1056.02 -6.60234 -3.96415 0
M  V30 6464 C 1055.29 -7.08259 -2.72856 0
M  V30 6465 O 1055.08 -5.9427 -1.83651 0
M  V30 6466 C 1053.89 -7.64886 -2.9555 0
M  V30 6467 O 1053.5 -8.53963 -1.90717 0
M  V30 6468 C 1053.01 -6.4116 -2.90739 0
M  V30 6469 C 1053.72 -5.55375 -1.86963 0
M  V30 6470 N 1053.67 -4.09664 -2.15742 0
M  V30 6471 H 1056.51 -7.45574 -4.45629 0
M  V30 6472 H 1056.78 -5.86232 -3.67314 0
M  V30 6473 H 1055.92 -7.84412 -2.24479 0
M  V30 6474 P 1051.95 -8.7635 -1.60911 0
M  V30 6475 O 1051.73 -10.1388 -1.11561 0
M  V30 6476 O 1051.16 -8.36503 -2.79617 0
M  V30 6477 O 1051.7 -7.71806 -0.42951 0
M  V30 6478 C 1052.64 -7.67148 0.673689 0
M  V30 6479 C 1051.91 -7.33374 1.95559 0
M  V30 6480 O 1051.7 -5.88721 2.00726 0
M  V30 6481 C 1050.51 -7.92526 2.10483 0
M  V30 6482 O 1050.12 -8.02971 3.47653 0
M  V30 6483 C 1049.63 -6.89602 1.41652 0
M  V30 6484 C 1050.34 -5.59201 1.75185 0
M  V30 6485 N 1050.29 -4.58235 0.662552 0
M  V30 6486 H 1053.13 -8.65116 0.777161 0
M  V30 6487 H 1053.4 -6.90173 0.474152 0
M  V30 6488 H 1052.54 -7.66548 2.79458 0
M  V30 6489 P 1048.57 -8.03563 3.84925 0
M  V30 6490 O 1048.35 -8.85821 5.0569 0
M  V30 6491 O 1047.78 -8.41101 2.65469 0
M  V30 6492 O 1048.32 -6.4965 4.18908 0
M  V30 6493 C 1049.26 -5.81037 5.05421 0
M  V30 6494 C 1048.53 -4.78366 5.89277 0
M  V30 6495 O 1048.32 -3.58302 5.08433 0
M  V30 6496 C 1047.13 -5.17448 6.36119 0
M  V30 6497 O 1046.74 -4.45271 7.53232 0
M  V30 6498 C 1046.25 -4.74639 5.19936 0
M  V30 6499 C 1046.96 -3.49432 4.70418 0
M  V30 6500 N 1046.91 -3.31776 3.22945 0
M  V30 6501 C 1046.99 -4.27147 2.23315 0
M  V30 6502 N 1046.91 -3.78447 1.02186 0
M  V30 6503 C 1046.77 -2.41001 1.21732 0
M  V30 6504 C 1046.64 -1.36111 0.27694 0
M  V30 6505 O 1046.62 -1.42065 -0.951767 0
M  V30 6506 N 1046.52 -0.113683 0.912949 0
M  V30 6507 C 1046.52 0.0846396 2.27943 0
M  V30 6508 N 1046.39 1.34737 2.6916 0
M  V30 6509 N 1046.65 -0.902521 3.16379 0
M  V30 6510 C 1046.77 -2.11937 2.56849 0
M  V30 6511 H 1049.75 -6.54213 5.71376 0
M  V30 6512 H 1050.02 -5.30492 4.44033 0
M  V30 6513 H 1049.16 -4.55889 6.76652 0
M  V30 6514 H 1046.5 -2.6176 5.18021 0
M  V30 6515 H 1046.22 -5.52233 4.41941 0
M  V30 6516 H 1045.23 -4.52045 5.53452 0
M  V30 6517 H 1047.06 -6.25193 6.55307 0
M  V30 6518 H 1047.11 -5.3351 2.43857 0
M  V30 6519 H 1046.43 0.69331 0.330371 0
M  V30 6520 H 1046.39 1.56433 3.6988 0
M  V30 6521 H 1046.29 2.10701 2.00133 0
M  V30 6522 P 1045.19 -4.23843 7.83734 0
M  V30 6523 O 1044.97 -4.19407 9.29784 0
M  V30 6524 O 1044.4 -5.24426 7.09156 0
M  V30 6525 O 1044.94 -2.7935 7.20758 0
M  V30 6526 C 1045.88 -1.7299 7.50419 0
M  V30 6527 C 1045.15 -0.406376 7.57911 0
M  V30 6528 O 1044.94 0.0897726 6.21935 0
M  V30 6529 C 1043.75 -0.447224 8.1878 0
M  V30 6530 O 1043.36 0.825065 8.71101 0
M  V30 6531 C 1042.87 -0.783801 6.99623 0
M  V30 6532 C 1043.58 -0.0619192 5.85967 0
M  V30 6533 N 1043.53 -0.7859 4.56281 0
M  V30 6534 H 1046.37 -1.93423 8.4679 0
M  V30 6535 H 1046.64 -1.68181 6.71046 0
M  V30 6536 H 1045.78 0.289041 8.15388 0
M  V30 6537 P 1041.81 1.17771 8.83182 0
M  V30 6538 O 1041.59 2.07206 9.98732 0
M  V30 6539 O 1041.02 -0.0743816 8.81969 0
M  V30 6540 O 1041.56 1.97652 7.47304 0
M  V30 6541 C 1042.5 3.01133 7.08783 0
M  V30 6542 C 1041.77 4.12613 6.37049 0
M  V30 6543 O 1041.56 3.72827 4.97879 0
M  V30 6544 C 1040.37 4.45085 6.88694 0
M  V30 6545 O 1039.98 5.7877 6.5624 0
M  V30 6546 C 1039.49 3.47817 6.12078 0
M  V30 6547 C 1040.2 3.39414 4.77697 0
M  V30 6548 N 1040.15 2.04199 4.15538 0
M  V30 6549 H 1042.99 3.41248 7.98759 0
M  V30 6550 H 1043.26 2.57728 6.42 0
M  V30 6551 H 1042.4 5.02657 6.42673 0
M  V30 6552 H 1039.74 4.11708 4.08956 0
M  V30 6553 H 1039.46 2.49626 6.61679 0
M  V30 6554 H 1038.47 3.8662 6.00862 0
M  V30 6555 H 1040.3 4.29991 7.97006 0
M  V30 6556 P 1038.43 6.144 6.45285 0
M  V30 6557 O 1038.21 7.54673 6.86199 0
M  V30 6558 O 1037.64 5.12391 7.179 0
M  V30 6559 O 1038.18 5.99158 4.88404 0
M  V30 6560 C 1039.12 6.60234 3.96415 0
M  V30 6561 C 1038.39 7.08259 2.72856 0
M  V30 6562 O 1038.18 5.9427 1.83651 0
M  V30 6563 C 1036.99 7.64886 2.9555 0
M  V30 6564 O 1036.6 8.53963 1.90717 0
M  V30 6565 C 1036.11 6.4116 2.90739 0
M  V30 6566 C 1036.82 5.55375 1.86963 0
M  V30 6567 N 1036.77 4.09448 2.16152 0
M  V30 6568 H 1039.61 7.45574 4.45629 0
M  V30 6569 H 1039.88 5.85864 3.679 0
M  V30 6570 H 1039.02 7.84412 2.24479 0
M  V30 6571 H 1036.36 5.73457 0.888562 0
M  V30 6572 H 1036.08 5.90877 3.88583 0
M  V30 6573 H 1035.09 6.6596 2.58858 0
M  V30 6574 H 1036.92 8.16339 3.92049 0
M  V30 6575 P 1035.05 8.7635 1.60911 0
M  V30 6576 O 1034.83 10.1388 1.11561 0
M  V30 6577 O 1034.26 8.36503 2.79617 0
M  V30 6578 O 1034.8 7.71906 0.429565 0
M  V30 6579 C 1035.74 7.67148 -0.673689 0
M  V30 6580 C 1035.01 7.33666 -1.94851 0
M  V30 6581 O 1034.8 5.88816 -2.00759 0
M  V30 6582 C 1033.61 7.92526 -2.10483 0
M  V30 6583 O 1033.22 8.03063 -3.47693 0
M  V30 6584 C 1032.73 6.89602 -1.41652 0
M  V30 6585 C 1033.44 5.59201 -1.75185 0
M  V30 6586 N 1033.39 4.58235 -0.662552 0
M  V30 6587 C 1033.24 3.24451 -1.01643 0
M  V30 6588 O 1033.15 2.94958 -2.21722 0
M  V30 6589 N 1033.19 2.30408 0.165238 0
M  V30 6590 C 1033.29 2.66048 1.25118 0
M  V30 6591 N 1033.24 1.70787 2.16813 0
M  V30 6592 C 1033.44 4.02732 1.64413 0
M  V30 6593 C 1033.49 4.9488 0.63991 0
M  V30 6594 H 1036.23 8.65017 -0.777072 0
M  V30 6595 H 1036.5 6.90173 -0.474152 0
M  V30 6596 H 1035.64 7.66642 -2.79492 0
M  V30 6597 H 1032.98 5.16254 -2.65229 0
M  V30 6598 H 1032.7 7.06532 -0.329431 0
M  V30 6599 H 1031.71 6.91023 -1.82047 0
M  V30 6600 H 1033.54 8.90873 -1.62657 0
M  V30 6601 H 1033.62 6.00104 0.892197 0
M  V30 6602 H 1033.51 4.31733 2.69229 0
M  V30 6603 H 1033.13 0.724835 1.8844 0
M  V30 6604 H 1033.32 1.94716 3.16734 0
M  V30 6605 P 1031.67 8.03563 -3.84925 0
M  V30 6606 O 1031.45 8.85821 -5.0569 0
M  V30 6607 O 1030.88 8.41101 -2.65469 0
M  V30 6608 O 1031.42 6.4965 -4.18908 0
M  V30 6609 C 1032.36 5.81037 -5.05421 0
M  V30 6610 C 1031.63 4.78366 -5.89277 0
M  V30 6611 O 1031.42 3.58302 -5.08433 0
M  V30 6612 C 1030.23 5.17448 -6.36119 0
M  V30 6613 O 1029.84 4.45271 -7.53232 0
M  V30 6614 C 1029.35 4.74639 -5.19936 0
M  V30 6615 C 1030.06 3.49432 -4.70418 0
M  V30 6616 N 1030.01 3.31776 -3.22945 0
M  V30 6617 H 1032.85 6.54213 -5.71376 0
M  V30 6618 H 1033.12 5.30492 -4.44033 0
M  V30 6619 H 1032.26 4.55889 -6.76652 0
M  V30 6620 P 1028.29 4.23843 -7.83734 0
M  V30 6621 O 1028.07 4.19407 -9.29784 0
M  V30 6622 O 1027.5 5.24426 -7.09156 0
M  V30 6623 O 1028.04 2.7935 -7.20758 0
M  V30 6624 C 1028.98 1.72945 -7.50224 0
M  V30 6625 C 1028.25 0.406376 -7.57911 0
M  V30 6626 O 1028.04 -0.0897726 -6.21935 0
M  V30 6627 C 1026.85 0.438983 -8.18724 0
M  V30 6628 O 1026.46 -0.825065 -8.71101 0
M  V30 6629 C 1025.97 0.783689 -6.99524 0
M  V30 6630 C 1026.68 0.0619086 -5.85867 0
M  V30 6631 N 1026.63 0.78573 -4.56183 0
M  V30 6632 C 1026.48 0.0292889 -3.41887 0
M  V30 6633 O 1026.39 -1.18445 -3.4419 0
M  V30 6634 N 1026.44 0.744061 -2.23964 0
M  V30 6635 C 1026.53 2.10932 -2.10362 0
M  V30 6636 O 1026.48 2.64117 -0.98825 0
M  V30 6637 C 1026.68 2.8202 -3.34994 0
M  V30 6638 C 1026.79 4.31095 -3.25037 0
M  V30 6639 C 1026.73 2.15547 -4.52261 0
M  V30 6640 H 1029.47 1.93379 -8.46595 0
M  V30 6641 H 1029.74 1.68132 -6.70852 0
M  V30 6642 H 1028.88 -0.289041 -8.15388 0
M  V30 6643 H 1026.22 -0.926847 -5.72749 0
M  V30 6644 H 1025.94 1.86973 -6.82036 0
M  V30 6645 H 1024.95 0.403896 -7.13257 0
M  V30 6646 H 1026.78 1.20585 -8.97435 0
M  V30 6647 H 1026.86 2.71231 -5.45042 0
M  V30 6648 H 1025.83 4.76966 -3.49992 0
M  V30 6649 H 1027.56 4.67047 -3.95024 0
M  V30 6650 H 1027.07 4.58996 -2.22312 0
M  V30 6651 H 1026.34 0.214893 -1.39758 0
M  V30 6652 P 1024.91 -1.17771 -8.83182 0
M  V30 6653 O 1024.69 -2.07206 -9.98732 0
M  V30 6654 O 1024.12 0.0743816 -8.81969 0
M  V30 6655 O 1024.66 -1.97652 -7.47304 0
M  V30 6656 C 1025.6 -3.01133 -7.08783 0
M  V30 6657 C 1024.87 -4.12613 -6.37049 0
M  V30 6658 O 1024.66 -3.72827 -4.97879 0
M  V30 6659 C 1023.47 -4.45085 -6.88694 0
M  V30 6660 O 1023.08 -5.7877 -6.5624 0
M  V30 6661 C 1022.59 -3.47817 -6.12078 0
M  V30 6662 C 1023.3 -3.39414 -4.77697 0
M  V30 6663 N 1023.25 -2.04199 -4.15538 0
M  V30 6664 H 1026.09 -3.41248 -7.98759 0
M  V30 6665 H 1026.36 -2.57728 -6.42 0
M  V30 6666 H 1025.5 -5.02657 -6.42673 0
M  V30 6667 H 1022.84 -4.11708 -4.08956 0
M  V30 6668 H 1022.56 -2.49626 -6.61679 0
M  V30 6669 H 1021.57 -3.8662 -6.00862 0
M  V30 6670 H 1023.4 -4.29991 -7.97006 0
M  V30 6671 P 1021.53 -6.144 -6.45285 0
M  V30 6672 O 1021.31 -7.54673 -6.86199 0
M  V30 6673 O 1020.74 -5.12391 -7.179 0
M  V30 6674 O 1021.28 -5.99158 -4.88404 0
M  V30 6675 C 1022.22 -6.60234 -3.96415 0
M  V30 6676 C 1021.49 -7.08259 -2.72856 0
M  V30 6677 O 1021.28 -5.9427 -1.83651 0
M  V30 6678 C 1020.09 -7.64886 -2.9555 0
M  V30 6679 O 1019.7 -8.53963 -1.90717 0
M  V30 6680 C 1019.21 -6.4116 -2.90739 0
M  V30 6681 C 1019.92 -5.55375 -1.86963 0
M  V30 6682 N 1019.87 -4.09448 -2.16152 0
M  V30 6683 H 1022.71 -7.45574 -4.45629 0
M  V30 6684 H 1022.98 -5.85864 -3.679 0
M  V30 6685 H 1022.12 -7.84412 -2.24479 0
M  V30 6686 H 1019.46 -5.73457 -0.888562 0
M  V30 6687 H 1019.18 -5.90877 -3.88583 0
M  V30 6688 H 1018.19 -6.6596 -2.58858 0
M  V30 6689 H 1020.02 -8.16339 -3.92049 0
M  V30 6690 P 1018.15 -8.7635 -1.60911 0
M  V30 6691 O 1017.93 -10.1388 -1.11561 0
M  V30 6692 O 1017.36 -8.36503 -2.79617 0
M  V30 6693 O 1017.9 -7.71806 -0.42951 0
M  V30 6694 C 1018.84 -7.66948 0.673514 0
M  V30 6695 C 1018.11 -7.33374 1.95559 0
M  V30 6696 O 1017.9 -5.88721 2.00726 0
M  V30 6697 C 1016.71 -7.92218 2.1125 0
M  V30 6698 O 1016.32 -8.02971 3.47653 0
M  V30 6699 C 1015.83 -6.89504 1.41631 0
M  V30 6700 C 1016.54 -5.59106 1.75155 0
M  V30 6701 N 1016.49 -4.58136 0.662409 0
M  V30 6702 C 1016.34 -3.26059 1.02863 0
M  V30 6703 O 1016.25 -2.90743 2.19009 0
M  V30 6704 N 1016.3 -2.35995 -0.0155585 0
M  V30 6705 C 1016.39 -2.65248 -1.35603 0
M  V30 6706 C 1016.54 -4.05747 -1.64698 0
M  V30 6707 C 1016.59 -4.96734 -0.652411 0
M  V30 6708 H 1019.34 -8.64917 0.776982 0
M  V30 6709 H 1019.6 -6.89974 0.474015 0
M  V30 6710 H 1018.74 -7.66548 2.79458 0
M  V30 6711 H 1016.08 -5.16076 2.65138 0
M  V30 6712 H 1015.8 -7.06433 0.329384 0
M  V30 6713 H 1014.81 -6.90829 1.81996 0
M  V30 6714 H 1016.65 -8.90774 1.62639 0
M  V30 6715 H 1016.72 -6.02181 -0.895285 0
M  V30 6716 P 1014.77 -8.03563 3.84925 0
M  V30 6717 O 1014.55 -8.85821 5.0569 0
M  V30 6718 O 1013.98 -8.41101 2.65469 0
M  V30 6719 O 1014.52 -6.4965 4.18908 0
M  V30 6720 C 1015.46 -5.81037 5.05421 0
M  V30 6721 C 1014.73 -4.78366 5.89277 0
M  V30 6722 O 1014.52 -3.58302 5.08433 0
M  V30 6723 C 1013.33 -5.17448 6.36119 0
M  V30 6724 O 1012.94 -4.45271 7.53232 0
M  V30 6725 C 1012.45 -4.74639 5.19936 0
M  V30 6726 C 1013.16 -3.49432 4.70418 0
M  V30 6727 N 1013.11 -3.31776 3.22945 0
M  V30 6728 H 1015.95 -6.54213 5.71376 0
M  V30 6729 H 1016.23 -5.30492 4.44033 0
M  V30 6730 H 1015.36 -4.55889 6.76652 0
M  V30 6731 P 1011.39 -4.23843 7.83734 0
M  V30 6732 O 1011.17 -4.19407 9.29784 0
M  V30 6733 O 1010.6 -5.24426 7.09156 0
M  V30 6734 O 1011.14 -2.7935 7.20758 0
M  V30 6735 C 1012.08 -1.7299 7.50419 0
M  V30 6736 C 1011.35 -0.406376 7.57911 0
M  V30 6737 O 1011.14 0.0897726 6.21935 0
M  V30 6738 C 1009.95 -0.447224 8.1878 0
M  V30 6739 O 1009.56 0.825065 8.71101 0
M  V30 6740 C 1009.07 -0.783801 6.99623 0
M  V30 6741 C 1009.78 -0.0619192 5.85967 0
M  V30 6742 N 1009.73 -0.790462 4.56202 0
M  V30 6743 H 1012.57 -1.93423 8.4679 0
M  V30 6744 H 1012.85 -1.68852 6.70877 0
M  V30 6745 H 1011.98 0.289041 8.15388 0
M  V30 6746 H 1009.32 0.927006 5.72848 0
M  V30 6747 H 1009.04 -1.86973 6.82036 0
M  V30 6748 H 1008.05 -0.403953 7.13357 0
M  V30 6749 H 1009.89 -1.20599 8.97534 0
M  V30 6750 P 1008.01 1.17771 8.83182 0
M  V30 6751 O 1007.79 2.07206 9.98732 0
M  V30 6752 O 1007.22 -0.0743816 8.81969 0
M  V30 6753 O 1007.76 1.97652 7.47304 0
M  V30 6754 C 1008.7 3.01133 7.08783 0
M  V30 6755 C 1007.97 4.12613 6.37049 0
M  V30 6756 O 1007.76 3.72827 4.97879 0
M  V30 6757 C 1006.57 4.45085 6.88694 0
M  V30 6758 O 1006.18 5.7877 6.5624 0
M  V30 6759 C 1005.69 3.47817 6.12078 0
M  V30 6760 C 1006.4 3.39414 4.77697 0
M  V30 6761 N 1006.35 2.04199 4.15538 0
M  V30 6762 H 1009.19 3.41248 7.98759 0
M  V30 6763 H 1009.47 2.57728 6.42 0
M  V30 6764 H 1008.6 5.02657 6.42673 0
M  V30 6765 H 1005.94 4.11708 4.08956 0
M  V30 6766 H 1005.66 2.49626 6.61679 0
M  V30 6767 H 1004.67 3.8662 6.00862 0
M  V30 6768 H 1006.51 4.29991 7.97006 0
M  V30 6769 P 1004.63 6.144 6.45285 0
M  V30 6770 O 1004.41 7.54673 6.86199 0
M  V30 6771 O 1003.84 5.12391 7.179 0
M  V30 6772 O 1004.38 5.99158 4.88404 0
M  V30 6773 C 1005.32 6.60234 3.96415 0
M  V30 6774 C 1004.59 7.08259 2.72856 0
M  V30 6775 O 1004.38 5.9427 1.83651 0
M  V30 6776 C 1003.19 7.64886 2.9555 0
M  V30 6777 O 1002.8 8.53963 1.90717 0
M  V30 6778 C 1002.31 6.4116 2.90739 0
M  V30 6779 C 1003.02 5.55375 1.86963 0
M  V30 6780 N 1002.97 4.09448 2.16152 0
M  V30 6781 H 1005.81 7.45574 4.45629 0
M  V30 6782 H 1006.09 5.85864 3.679 0
M  V30 6783 H 1005.22 7.84412 2.24479 0
M  V30 6784 H 1002.56 5.73457 0.888562 0
M  V30 6785 H 1002.28 5.90877 3.88583 0
M  V30 6786 H 1001.29 6.6596 2.58858 0
M  V30 6787 H 1003.13 8.16339 3.92049 0
M  V30 6788 P 1001.25 8.7635 1.60911 0
M  V30 6789 O 1001.03 10.1388 1.11561 0
M  V30 6790 O 1000.46 8.36503 2.79617 0
M  V30 6791 O 1001 7.71806 0.42951 0
M  V30 6792 C 1001.94 7.67148 -0.673689 0
M  V30 6793 C 1001.21 7.33374 -1.95559 0
M  V30 6794 O 1001 5.88721 -2.00726 0
M  V30 6795 C 999.814 7.92526 -2.10483 0
M  V30 6796 O 999.424 8.02971 -3.47653 0
M  V30 6797 C 998.934 6.89602 -1.41652 0
M  V30 6798 C 999.644 5.59201 -1.75185 0
M  V30 6799 N 999.594 4.58235 -0.662552 0
M  V30 6800 C 999.674 4.7683 0.704049 0
M  V30 6801 N 999.594 3.66233 1.39775 0
M  V30 6802 C 999.454 2.66526 0.431739 0
M  V30 6803 C 999.324 1.26394 0.575992 0
M  V30 6804 O 999.304 0.589894 1.60503 0
M  V30 6805 N 999.204 0.62859 -0.67177 0
M  V30 6806 C 999.204 1.27134 -1.89385 0
M  V30 6807 N 999.074 0.492035 -2.96951 0
M  V30 6808 N 999.334 2.58978 -2.02907 0
M  V30 6809 C 999.454 3.22433 -0.832218 0
M  V30 6810 H 1002.43 8.65116 -0.777161 0
M  V30 6811 H 1002.71 6.90173 -0.474152 0
M  V30 6812 H 1001.84 7.66548 -2.79458 0
M  V30 6813 H 999.182 5.16254 -2.65229 0
M  V30 6814 H 998.902 7.06532 -0.329431 0
M  V30 6815 H 997.911 6.91023 -1.82047 0
M  V30 6816 H 999.745 8.90971 -1.62675 0
M  V30 6817 H 999.794 5.74954 1.16305 0
M  V30 6818 H 999.112 -0.366713 -0.674793 0
M  V30 6819 H 999.075 0.908532 -3.91188 0
M  V30 6820 H 998.974 -0.528253 -2.85758 0
M  V30 6821 P 997.874 8.03563 -3.84925 0
M  V30 6822 O 997.654 8.85821 -5.0569 0
M  V30 6823 O 997.084 8.41101 -2.65469 0
M  V30 6824 O 997.624 6.4965 -4.18908 0
M  V30 6825 C 998.564 5.81037 -5.05421 0
M  V30 6826 C 997.834 4.78366 -5.89277 0
M  V30 6827 O 997.624 3.58302 -5.08433 0
M  V30 6828 C 996.434 5.17448 -6.36119 0
M  V30 6829 O 996.044 4.45271 -7.53232 0
M  V30 6830 C 995.554 4.74639 -5.19936 0
M  V30 6831 C 996.264 3.49432 -4.70418 0
M  V30 6832 N 996.214 3.31776 -3.22945 0
M  V30 6833 H 999.053 6.54213 -5.71376 0
M  V30 6834 H 999.325 5.30492 -4.44033 0
M  V30 6835 H 998.457 4.55889 -6.76652 0
M  V30 6836 P 994.494 4.23843 -7.83734 0
M  V30 6837 O 994.274 4.19407 -9.29784 0
M  V30 6838 O 993.704 5.24426 -7.09156 0
M  V30 6839 O 994.244 2.7935 -7.20758 0
M  V30 6840 C 995.184 1.72945 -7.50224 0
M  V30 6841 C 994.454 0.406376 -7.57911 0
M  V30 6842 O 994.244 -0.0897726 -6.21935 0
M  V30 6843 C 993.054 0.438983 -8.18724 0
M  V30 6844 O 992.664 -0.825065 -8.71101 0
M  V30 6845 C 992.174 0.783689 -6.99524 0
M  V30 6846 C 992.884 0.0619086 -5.85867 0
M  V30 6847 N 992.834 0.78573 -4.56183 0
M  V30 6848 C 992.684 0.0292889 -3.41887 0
M  V30 6849 O 992.594 -1.18445 -3.4419 0
M  V30 6850 N 992.644 0.744061 -2.23964 0
M  V30 6851 C 992.734 2.10932 -2.10362 0
M  V30 6852 O 992.684 2.64117 -0.98825 0
M  V30 6853 C 992.884 2.8202 -3.34994 0
M  V30 6854 C 992.994 4.31095 -3.25037 0
M  V30 6855 C 992.934 2.15547 -4.52261 0
M  V30 6856 H 995.675 1.93379 -8.46595 0
M  V30 6857 H 995.944 1.68132 -6.70852 0
M  V30 6858 H 995.077 -0.289041 -8.15388 0
M  V30 6859 H 992.422 -0.926847 -5.72749 0
M  V30 6860 H 992.143 1.86973 -6.82036 0
M  V30 6861 H 991.151 0.403896 -7.13257 0
M  V30 6862 H 992.985 1.20585 -8.97435 0
M  V30 6863 H 993.056 2.71231 -5.45042 0
M  V30 6864 H 992.026 4.76966 -3.49992 0
M  V30 6865 H 993.763 4.67047 -3.95024 0
M  V30 6866 H 993.275 4.58996 -2.22312 0
M  V30 6867 H 992.539 0.214893 -1.39758 0
M  V30 6868 P 991.114 -1.17771 -8.83182 0
M  V30 6869 O 990.894 -2.07206 -9.98732 0
M  V30 6870 O 990.324 0.0743816 -8.81969 0
M  V30 6871 O 990.864 -1.97652 -7.47304 0
M  V30 6872 C 991.804 -3.01133 -7.08783 0
M  V30 6873 C 991.074 -4.12613 -6.37049 0
M  V30 6874 O 990.864 -3.72827 -4.97879 0
M  V30 6875 C 989.674 -4.45085 -6.88694 0
M  V30 6876 O 989.284 -5.7877 -6.5624 0
M  V30 6877 C 988.794 -3.47817 -6.12078 0
M  V30 6878 C 989.504 -3.39414 -4.77697 0
M  V30 6879 N 989.454 -2.04615 -4.15333 0
M  V30 6880 H 992.293 -3.41248 -7.98759 0
M  V30 6881 H 992.565 -2.5837 -6.41742 0
M  V30 6882 H 991.697 -5.02657 -6.42673 0
M  V30 6883 P 987.734 -6.144 -6.45285 0
M  V30 6884 O 987.514 -7.54673 -6.86199 0
M  V30 6885 O 986.944 -5.12391 -7.179 0
M  V30 6886 O 987.484 -5.99158 -4.88404 0
M  V30 6887 C 988.424 -6.60234 -3.96415 0
M  V30 6888 C 987.694 -7.08259 -2.72856 0
M  V30 6889 O 987.484 -5.9427 -1.83651 0
M  V30 6890 C 986.294 -7.64886 -2.9555 0
M  V30 6891 O 985.904 -8.53963 -1.90717 0
M  V30 6892 C 985.414 -6.4116 -2.90739 0
M  V30 6893 C 986.124 -5.55375 -1.86963 0
M  V30 6894 N 986.074 -4.09664 -2.15742 0
M  V30 6895 H 988.913 -7.45574 -4.45629 0
M  V30 6896 H 989.185 -5.86232 -3.67314 0
M  V30 6897 H 988.317 -7.84412 -2.24479 0
M  V30 6898 P 984.354 -8.7635 -1.60911 0
M  V30 6899 O 984.134 -10.1388 -1.11561 0
M  V30 6900 O 983.564 -8.36503 -2.79617 0
M  V30 6901 O 984.104 -7.71806 -0.42951 0
M  V30 6902 C 985.044 -7.67148 0.673689 0
M  V30 6903 C 984.314 -7.33374 1.95559 0
M  V30 6904 O 984.104 -5.88721 2.00726 0
M  V30 6905 C 982.914 -7.92526 2.10483 0
M  V30 6906 O 982.524 -8.02971 3.47653 0
M  V30 6907 C 982.034 -6.89602 1.41652 0
M  V30 6908 C 982.744 -5.59201 1.75185 0
M  V30 6909 N 982.694 -4.58235 0.662552 0
M  V30 6910 H 985.533 -8.65116 0.777161 0
M  V30 6911 H 985.805 -6.90173 0.474152 0
M  V30 6912 H 984.937 -7.66548 2.79458 0
M  V30 6913 P 980.974 -8.03563 3.84925 0
M  V30 6914 O 980.754 -8.85821 5.0569 0
M  V30 6915 O 980.184 -8.41101 2.65469 0
M  V30 6916 O 980.724 -6.4965 4.18908 0
M  V30 6917 C 981.664 -5.81037 5.05421 0
M  V30 6918 C 980.934 -4.78366 5.89277 0
M  V30 6919 O 980.724 -3.58302 5.08433 0
M  V30 6920 C 979.534 -5.17448 6.36119 0
M  V30 6921 O 979.144 -4.45271 7.53232 0
M  V30 6922 C 978.654 -4.74639 5.19936 0
M  V30 6923 C 979.364 -3.49432 4.70418 0
M  V30 6924 N 979.314 -3.32099 3.22613 0
M  V30 6925 H 982.153 -6.54213 5.71376 0
M  V30 6926 H 982.425 -5.30936 4.43503 0
M  V30 6927 H 981.557 -4.55889 6.76652 0
M  V30 6928 H 978.902 -2.61715 5.17932 0
M  V30 6929 H 978.622 -5.52155 4.41878 0
M  V30 6930 H 977.631 -4.51981 5.53374 0
M  V30 6931 H 979.465 -6.25124 6.55234 0
M  V30 6932 P 977.594 -4.23843 7.83734 0
M  V30 6933 O 977.374 -4.19407 9.29784 0
M  V30 6934 O 976.804 -5.24426 7.09156 0
M  V30 6935 O 977.344 -2.7935 7.20758 0
M  V30 6936 C 978.284 -1.7299 7.50419 0
M  V30 6937 C 977.554 -0.406376 7.57911 0
M  V30 6938 O 977.344 0.0897726 6.21935 0
M  V30 6939 C 976.154 -0.447224 8.1878 0
M  V30 6940 O 975.764 0.825065 8.71101 0
M  V30 6941 C 975.274 -0.783801 6.99623 0
M  V30 6942 C 975.984 -0.0619192 5.85967 0
M  V30 6943 N 975.934 -0.7859 4.56281 0
M  V30 6944 H 978.773 -1.93423 8.4679 0
M  V30 6945 H 979.045 -1.68181 6.71046 0
M  V30 6946 H 978.177 0.289041 8.15388 0
M  V30 6947 P 974.214 1.17771 8.83182 0
M  V30 6948 O 973.994 2.07206 9.98732 0
M  V30 6949 O 973.424 -0.0743816 8.81969 0
M  V30 6950 O 973.964 1.97652 7.47304 0
M  V30 6951 C 974.904 3.01133 7.08783 0
M  V30 6952 C 974.174 4.12613 6.37049 0
M  V30 6953 O 973.964 3.72827 4.97879 0
M  V30 6954 C 972.774 4.45085 6.88694 0
M  V30 6955 O 972.384 5.7877 6.5624 0
M  V30 6956 C 971.894 3.47817 6.12078 0
M  V30 6957 C 972.604 3.39414 4.77697 0
M  V30 6958 N 972.554 2.04199 4.15538 0
M  V30 6959 H 975.393 3.41248 7.98759 0
M  V30 6960 H 975.665 2.57728 6.42 0
M  V30 6961 H 974.797 5.02657 6.42673 0
M  V30 6962 H 972.142 4.11708 4.08956 0
M  V30 6963 H 971.862 2.49626 6.61679 0
M  V30 6964 H 970.871 3.8662 6.00862 0
M  V30 6965 H 972.705 4.29991 7.97006 0
M  V30 6966 P 970.834 6.144 6.45285 0
M  V30 6967 O 970.614 7.54673 6.86199 0
M  V30 6968 O 970.044 5.12391 7.179 0
M  V30 6969 O 970.584 5.99158 4.88404 0
M  V30 6970 C 971.524 6.60234 3.96415 0
M  V30 6971 C 970.794 7.08259 2.72856 0
M  V30 6972 O 970.584 5.9427 1.83651 0
M  V30 6973 C 969.394 7.64886 2.9555 0
M  V30 6974 O 969.004 8.53963 1.90717 0
M  V30 6975 C 968.514 6.4116 2.90739 0
M  V30 6976 C 969.224 5.55375 1.86963 0
M  V30 6977 N 969.174 4.09664 2.15742 0
M  V30 6978 H 972.013 7.45574 4.45629 0
M  V30 6979 H 972.285 5.86232 3.67314 0
M  V30 6980 H 971.417 7.84412 2.24479 0
M  V30 6981 P 967.454 8.7635 1.60911 0
M  V30 6982 O 967.234 10.1388 1.11561 0
M  V30 6983 O 966.664 8.36503 2.79617 0
M  V30 6984 O 967.204 7.71806 0.42951 0
M  V30 6985 C 968.144 7.67148 -0.673689 0
M  V30 6986 C 967.414 7.33374 -1.95559 0
M  V30 6987 O 967.204 5.88721 -2.00726 0
M  V30 6988 C 966.014 7.92526 -2.10483 0
M  V30 6989 O 965.624 8.02971 -3.47653 0
M  V30 6990 C 965.134 6.89602 -1.41652 0
M  V30 6991 C 965.844 5.59201 -1.75185 0
M  V30 6992 N 965.794 4.58235 -0.662552 0
M  V30 6993 H 968.633 8.65116 -0.777161 0
M  V30 6994 H 968.905 6.90173 -0.474152 0
M  V30 6995 H 968.037 7.66548 -2.79458 0
M  V30 6996 P 964.074 8.03563 -3.84925 0
M  V30 6997 O 963.854 8.85821 -5.0569 0
M  V30 6998 O 963.284 8.41101 -2.65469 0
M  V30 6999 O 963.824 6.4965 -4.18908 0
M  V30 7000 C 964.764 5.81037 -5.05421 0
M  V30 7001 C 964.034 4.78366 -5.89277 0
M  V30 7002 O 963.824 3.58302 -5.08433 0
M  V30 7003 C 962.634 5.17448 -6.36119 0
M  V30 7004 O 962.244 4.45271 -7.53232 0
M  V30 7005 C 961.754 4.74639 -5.19936 0
M  V30 7006 C 962.464 3.49432 -4.70418 0
M  V30 7007 N 962.414 3.31776 -3.22945 0
M  V30 7008 H 965.253 6.54213 -5.71376 0
M  V30 7009 H 965.525 5.30492 -4.44033 0
M  V30 7010 H 964.657 4.55889 -6.76652 0
M  V30 7011 P 960.694 4.23843 -7.83734 0
M  V30 7012 O 960.474 4.19407 -9.29784 0
M  V30 7013 O 959.904 5.24426 -7.09156 0
M  V30 7014 O 960.444 2.7935 -7.20758 0
M  V30 7015 C 961.384 1.7299 -7.50419 0
M  V30 7016 C 960.654 0.406376 -7.57911 0
M  V30 7017 O 960.444 -0.0897726 -6.21935 0
M  V30 7018 C 959.254 0.447224 -8.1878 0
M  V30 7019 O 958.864 -0.825065 -8.71101 0
M  V30 7020 C 958.374 0.783801 -6.99623 0
M  V30 7021 C 959.084 0.0619192 -5.85967 0
M  V30 7022 N 959.034 0.7859 -4.56281 0
M  V30 7023 C 959.114 2.14308 -4.31736 0
M  V30 7024 N 959.034 2.46106 -3.05116 0
M  V30 7025 C 958.894 1.23422 -2.4014 0
M  V30 7026 C 958.764 0.938381 -1.02409 0
M  V30 7027 N 958.644 -0.444647 -0.805413 0
M  V30 7028 C 958.644 -1.40829 -1.79435 0
M  V30 7029 N 958.514 -2.67213 -1.38558 0
M  V30 7030 N 958.774 -1.12947 -3.09005 0
M  V30 7031 C 958.894 0.204887 -3.32369 0
M  V30 7032 H 961.873 1.93423 -8.4679 0
M  V30 7033 H 962.145 1.68181 -6.71046 0
M  V30 7034 H 961.277 -0.289041 -8.15388 0
M  V30 7035 P 957.314 -1.17771 -8.83182 0
M  V30 7036 O 957.094 -2.07206 -9.98732 0
M  V30 7037 O 956.524 0.0743816 -8.81969 0
M  V30 7038 O 957.064 -1.97652 -7.47304 0
M  V30 7039 C 958.004 -3.01133 -7.08783 0
M  V30 7040 C 957.274 -4.12613 -6.37049 0
M  V30 7041 O 957.064 -3.72827 -4.97879 0
M  V30 7042 C 955.874 -4.45085 -6.88694 0
M  V30 7043 O 955.484 -5.7877 -6.5624 0
M  V30 7044 C 954.994 -3.47817 -6.12078 0
M  V30 7045 C 955.704 -3.39414 -4.77697 0
M  V30 7046 N 955.654 -2.04199 -4.15538 0
M  V30 7047 H 958.493 -3.41248 -7.98759 0
M  V30 7048 H 958.765 -2.57728 -6.42 0
M  V30 7049 H 957.897 -5.02657 -6.42673 0
M  V30 7050 H 955.242 -4.11708 -4.08956 0
M  V30 7051 H 954.962 -2.49626 -6.61679 0
M  V30 7052 H 953.971 -3.8662 -6.00862 0
M  V30 7053 H 955.805 -4.29991 -7.97006 0
M  V30 7054 P 953.934 -6.144 -6.45285 0
M  V30 7055 O 953.714 -7.54673 -6.86199 0
M  V30 7056 O 953.144 -5.12391 -7.179 0
M  V30 7057 O 953.684 -5.99158 -4.88404 0
M  V30 7058 C 954.624 -6.60234 -3.96415 0
M  V30 7059 C 953.894 -7.08259 -2.72856 0
M  V30 7060 O 953.684 -5.9427 -1.83651 0
M  V30 7061 C 952.494 -7.64886 -2.9555 0
M  V30 7062 O 952.104 -8.53963 -1.90717 0
M  V30 7063 C 951.614 -6.4116 -2.90739 0
M  V30 7064 C 952.324 -5.55375 -1.86963 0
M  V30 7065 N 952.274 -4.09664 -2.15742 0
M  V30 7066 H 955.113 -7.45574 -4.45629 0
M  V30 7067 H 955.385 -5.86232 -3.67314 0
M  V30 7068 H 954.517 -7.84412 -2.24479 0
M  V30 7069 P 950.554 -8.7635 -1.60911 0
M  V30 7070 O 950.334 -10.1388 -1.11561 0
M  V30 7071 O 949.764 -8.36503 -2.79617 0
M  V30 7072 O 950.304 -7.71806 -0.42951 0
M  V30 7073 C 951.244 -7.66948 0.673514 0
M  V30 7074 C 950.514 -7.33374 1.95559 0
M  V30 7075 O 950.304 -5.88721 2.00726 0
M  V30 7076 C 949.114 -7.92218 2.1125 0
M  V30 7077 O 948.724 -8.02971 3.47653 0
M  V30 7078 C 948.234 -6.89504 1.41631 0
M  V30 7079 C 948.944 -5.59106 1.75155 0
M  V30 7080 N 948.894 -4.58136 0.662409 0
M  V30 7081 C 948.744 -3.26059 1.02863 0
M  V30 7082 O 948.654 -2.90743 2.19009 0
M  V30 7083 N 948.704 -2.35995 -0.0155585 0
M  V30 7084 C 948.794 -2.65248 -1.35603 0
M  V30 7085 C 948.944 -4.05747 -1.64698 0
M  V30 7086 C 948.994 -4.96734 -0.652411 0
M  V30 7087 H 951.735 -8.64917 0.776982 0
M  V30 7088 H 952.004 -6.89974 0.474015 0
M  V30 7089 H 951.137 -7.66548 2.79458 0
M  V30 7090 H 948.482 -5.16076 2.65138 0
M  V30 7091 H 948.203 -7.06433 0.329384 0
M  V30 7092 H 947.211 -6.90829 1.81996 0
M  V30 7093 H 949.045 -8.90774 1.62639 0
M  V30 7094 H 949.116 -6.02181 -0.895285 0
M  V30 7095 P 947.174 -8.03563 3.84925 0
M  V30 7096 O 946.954 -8.85821 5.0569 0
M  V30 7097 O 946.384 -8.41101 2.65469 0
M  V30 7098 O 946.924 -6.4965 4.18908 0
M  V30 7099 C 947.864 -5.81037 5.05421 0
M  V30 7100 C 947.134 -4.78366 5.89277 0
M  V30 7101 O 946.924 -3.58302 5.08433 0
M  V30 7102 C 945.734 -5.17448 6.36119 0
M  V30 7103 O 945.344 -4.45271 7.53232 0
M  V30 7104 C 944.854 -4.74639 5.19936 0
M  V30 7105 C 945.564 -3.49432 4.70418 0
M  V30 7106 N 945.514 -3.31776 3.22945 0
M  V30 7107 H 948.353 -6.54213 5.71376 0
M  V30 7108 H 948.625 -5.30492 4.44033 0
M  V30 7109 H 947.757 -4.55889 6.76652 0
M  V30 7110 P 943.794 -4.23843 7.83734 0
M  V30 7111 O 943.574 -4.19407 9.29784 0
M  V30 7112 O 943.004 -5.24426 7.09156 0
M  V30 7113 O 943.544 -2.79386 7.20852 0
M  V30 7114 C 944.484 -1.7299 7.50419 0
M  V30 7115 C 943.754 -0.41401 7.5797 0
M  V30 7116 O 943.544 0.089787 6.22035 0
M  V30 7117 C 942.354 -0.447224 8.1878 0
M  V30 7118 O 941.964 0.825159 8.71201 0
M  V30 7119 C 941.474 -0.783801 6.99623 0
M  V30 7120 C 942.184 -0.0619192 5.85967 0
M  V30 7121 N 942.134 -0.7859 4.56281 0
M  V30 7122 C 941.984 -0.0359258 3.39981 0
M  V30 7123 O 941.894 1.19723 3.49038 0
M  V30 7124 N 941.934 -0.869151 2.14025 0
M  V30 7125 C 942.034 -2.01207 2.14363 0
M  V30 7126 N 941.984 -2.58978 0.954287 0
M  V30 7127 C 942.184 -2.80817 3.32215 0
M  V30 7128 C 942.234 -2.13785 4.50884 0
M  V30 7129 H 944.974 -1.93401 8.46693 0
M  V30 7130 H 945.244 -1.68181 6.71046 0
M  V30 7131 H 944.377 0.289076 8.15488 0
M  V30 7132 H 941.722 0.927166 5.72947 0
M  V30 7133 H 941.442 -1.87 6.82132 0
M  V30 7134 H 940.451 -0.404009 7.13457 0
M  V30 7135 H 942.285 -1.20599 8.97534 0
M  V30 7136 H 942.357 -2.70295 5.43162 0
M  V30 7137 H 942.255 -3.89465 3.27406 0
M  V30 7138 H 941.867 -2.01616 0.107046 0
M  V30 7139 H 942.063 -3.61403 0.873101 0
M  V30 7140 P 940.414 1.17771 8.83182 0
M  V30 7141 O 940.194 2.07206 9.98732 0
M  V30 7142 O 939.624 -0.0743816 8.81969 0
M  V30 7143 O 940.164 1.97652 7.47304 0
M  V30 7144 C 941.104 3.01133 7.08783 0
M  V30 7145 C 940.374 4.12613 6.37049 0
M  V30 7146 O 940.164 3.72827 4.97879 0
M  V30 7147 C 938.974 4.45085 6.88694 0
M  V30 7148 O 938.584 5.7877 6.5624 0
M  V30 7149 C 938.094 3.47817 6.12078 0
M  V30 7150 C 938.804 3.39414 4.77697 0
M  V30 7151 N 938.754 2.04615 4.15333 0
M  V30 7152 H 941.593 3.41248 7.98759 0
M  V30 7153 H 941.865 2.5837 6.41742 0
M  V30 7154 H 940.997 5.02657 6.42673 0
M  V30 7155 P 937.034 6.144 6.45285 0
M  V30 7156 O 936.814 7.54673 6.86199 0
M  V30 7157 O 936.244 5.12391 7.179 0
M  V30 7158 O 936.784 5.99158 4.88404 0
M  V30 7159 C 937.724 6.60234 3.96415 0
M  V30 7160 C 936.994 7.08259 2.72856 0
M  V30 7161 O 936.784 5.9427 1.83651 0
M  V30 7162 C 935.594 7.64886 2.9555 0
M  V30 7163 O 935.204 8.53963 1.90717 0
M  V30 7164 C 934.714 6.4116 2.90739 0
M  V30 7165 C 935.424 5.55375 1.86963 0
M  V30 7166 N 935.374 4.09664 2.15742 0
M  V30 7167 H 938.213 7.45574 4.45629 0
M  V30 7168 H 938.485 5.86232 3.67314 0
M  V30 7169 H 937.617 7.84412 2.24479 0
M  V30 7170 P 933.655 8.7635 1.60911 0
M  V30 7171 O 933.435 10.1388 1.11561 0
M  V30 7172 O 932.865 8.36503 2.79617 0
M  V30 7173 O 933.405 7.71806 0.42951 0
M  V30 7174 C 934.345 7.67148 -0.673689 0
M  V30 7175 C 933.615 7.33374 -1.95559 0
M  V30 7176 O 933.405 5.88721 -2.00726 0
M  V30 7177 C 932.215 7.92526 -2.10483 0
M  V30 7178 O 931.825 8.02971 -3.47653 0
M  V30 7179 C 931.335 6.89602 -1.41652 0
M  V30 7180 C 932.045 5.59201 -1.75185 0
M  V30 7181 N 931.995 4.58301 -0.657969 0
M  V30 7182 H 934.834 8.65116 -0.777161 0
M  V30 7183 H 935.106 6.9022 -0.46725 0
M  V30 7184 H 934.238 7.66548 -2.79458 0
M  V30 7185 H 931.583 5.16165 -2.65183 0
M  V30 7186 H 931.303 7.06433 -0.329384 0
M  V30 7187 H 930.312 6.90926 -1.82021 0
M  V30 7188 H 932.146 8.90873 -1.62657 0
M  V30 7189 P 930.275 8.03563 -3.84925 0
M  V30 7190 O 930.055 8.85821 -5.0569 0
M  V30 7191 O 929.485 8.41101 -2.65469 0
M  V30 7192 O 930.025 6.4965 -4.18908 0
M  V30 7193 C 930.965 5.81037 -5.05421 0
M  V30 7194 C 930.235 4.78366 -5.89277 0
M  V30 7195 O 930.025 3.58302 -5.08433 0
M  V30 7196 C 928.835 5.17448 -6.36119 0
M  V30 7197 O 928.445 4.45271 -7.53232 0
M  V30 7198 C 927.955 4.74639 -5.19936 0
M  V30 7199 C 928.665 3.49432 -4.70418 0
M  V30 7200 N 928.615 3.32099 -3.22613 0
M  V30 7201 H 931.454 6.54213 -5.71376 0
M  V30 7202 H 931.726 5.30936 -4.43503 0
M  V30 7203 H 930.858 4.55889 -6.76652 0
M  V30 7204 H 928.203 2.61715 -5.17932 0
M  V30 7205 H 927.923 5.52155 -4.41878 0
M  V30 7206 H 926.932 4.51981 -5.53374 0
M  V30 7207 H 928.766 6.25124 -6.55234 0
M  V30 7208 P 926.895 4.23843 -7.83734 0
M  V30 7209 O 926.675 4.19407 -9.29784 0
M  V30 7210 O 926.105 5.24426 -7.09156 0
M  V30 7211 O 926.645 2.7935 -7.20758 0
M  V30 7212 C 927.585 1.72945 -7.50224 0
M  V30 7213 C 926.855 0.406376 -7.57911 0
M  V30 7214 O 926.645 -0.0897726 -6.21935 0
M  V30 7215 C 925.455 0.438983 -8.18724 0
M  V30 7216 O 925.065 -0.825065 -8.71101 0
M  V30 7217 C 924.575 0.783689 -6.99524 0
M  V30 7218 C 925.285 0.0619086 -5.85867 0
M  V30 7219 N 925.235 0.78573 -4.56183 0
M  V30 7220 C 925.085 0.0292889 -3.41887 0
M  V30 7221 O 924.995 -1.18445 -3.4419 0
M  V30 7222 N 925.045 0.744061 -2.23964 0
M  V30 7223 C 925.135 2.10932 -2.10362 0
M  V30 7224 C 925.285 2.8202 -3.34994 0
M  V30 7225 C 925.335 2.15547 -4.52261 0
M  V30 7226 H 928.076 1.93379 -8.46595 0
M  V30 7227 H 928.345 1.68132 -6.70852 0
M  V30 7228 H 927.478 -0.289041 -8.15388 0
M  V30 7229 H 924.823 -0.926847 -5.72749 0
M  V30 7230 H 924.544 1.86973 -6.82036 0
M  V30 7231 H 923.552 0.403896 -7.13257 0
M  V30 7232 H 925.386 1.20585 -8.97435 0
M  V30 7233 H 925.457 2.71231 -5.45042 0
M  V30 7234 P 923.515 -1.17771 -8.83182 0
M  V30 7235 O 923.295 -2.07206 -9.98732 0
M  V30 7236 O 922.725 0.0743816 -8.81969 0
M  V30 7237 O 923.265 -1.97652 -7.47304 0
M  V30 7238 C 924.205 -3.01055 -7.08599 0
M  V30 7239 C 923.475 -4.12613 -6.37049 0
M  V30 7240 O 923.265 -3.72827 -4.97879 0
M  V30 7241 C 922.075 -4.45719 -6.88164 0
M  V30 7242 O 921.685 -5.7877 -6.5624 0
M  V30 7243 C 921.195 -3.47768 -6.11991 0
M  V30 7244 C 921.905 -3.39356 -4.77615 0
M  V30 7245 N 921.855 -2.04571 -4.15244 0
M  V30 7246 C 921.705 -1.98587 -2.78314 0
M  V30 7247 O 921.615 -2.98134 -2.08835 0
M  V30 7248 N 921.665 -0.714467 -2.24925 0
M  V30 7249 C 921.755 0.470001 -2.94169 0
M  V30 7250 O 921.705 1.55587 -2.35195 0
M  V30 7251 C 921.905 0.312541 -4.36783 0
M  V30 7252 C 922.015 1.57711 -5.16352 0
M  V30 7253 C 921.955 -0.914512 -4.92583 0
M  V30 7254 H 924.696 -3.41169 -7.98575 0
M  V30 7255 H 924.965 -2.58295 -6.41556 0
M  V30 7256 H 924.098 -5.02657 -6.42673 0
M  V30 7257 H 921.443 -4.11637 -4.08885 0
M  V30 7258 H 921.164 -2.49626 -6.61679 0
M  V30 7259 H 920.172 -3.86566 -6.00778 0
M  V30 7260 H 922.006 -4.29943 -7.96918 0
M  V30 7261 H 922.077 -1.00937 -6.00374 0
M  V30 7262 H 921.047 1.80153 -5.63503 0
M  V30 7263 H 922.784 1.4566 -5.94104 0
M  V30 7264 H 922.296 2.40664 -4.49645 0
M  V30 7265 H 921.56 -0.647622 -1.25697 0
M  V30 7266 P 920.135 -6.144 -6.45285 0
M  V30 7267 O 919.915 -7.54673 -6.86199 0
M  V30 7268 O 919.345 -5.12391 -7.179 0
M  V30 7269 O 919.885 -5.99158 -4.88404 0
M  V30 7270 C 920.825 -6.60234 -3.96415 0
M  V30 7271 C 920.095 -7.08259 -2.72856 0
M  V30 7272 O 919.885 -5.9427 -1.83651 0
M  V30 7273 C 918.695 -7.64886 -2.9555 0
M  V30 7274 O 918.305 -8.53963 -1.90717 0
M  V30 7275 C 917.815 -6.4116 -2.90739 0
M  V30 7276 C 918.525 -5.55375 -1.86963 0
M  V30 7277 N 918.475 -4.09664 -2.15742 0
M  V30 7278 H 921.314 -7.45574 -4.45629 0
M  V30 7279 H 921.586 -5.86232 -3.67314 0
M  V30 7280 H 920.718 -7.84412 -2.24479 0
M  V30 7281 P 916.755 -8.7635 -1.60911 0
M  V30 7282 O 916.535 -10.1388 -1.11561 0
M  V30 7283 O 915.965 -8.36503 -2.79617 0
M  V30 7284 O 916.505 -7.71806 -0.42951 0
M  V30 7285 C 917.445 -7.67148 0.673689 0
M  V30 7286 C 916.715 -7.33374 1.95559 0
M  V30 7287 O 916.505 -5.88721 2.00726 0
M  V30 7288 C 915.315 -7.92526 2.10483 0
M  V30 7289 O 914.925 -8.02971 3.47653 0
M  V30 7290 C 914.435 -6.89602 1.41652 0
M  V30 7291 C 915.145 -5.59201 1.75185 0
M  V30 7292 N 915.095 -4.58235 0.662552 0
M  V30 7293 H 917.934 -8.65116 0.777161 0
M  V30 7294 H 918.206 -6.90173 0.474152 0
M  V30 7295 H 917.338 -7.66548 2.79458 0
M  V30 7296 P 913.375 -8.03563 3.84925 0
M  V30 7297 O 913.155 -8.85821 5.0569 0
M  V30 7298 O 912.585 -8.41101 2.65469 0
M  V30 7299 O 913.125 -6.4965 4.18908 0
M  V30 7300 C 914.065 -5.81037 5.05421 0
M  V30 7301 C 913.335 -4.78366 5.89277 0
M  V30 7302 O 913.125 -3.58302 5.08433 0
M  V30 7303 C 911.935 -5.17448 6.36119 0
M  V30 7304 O 911.545 -4.45271 7.53232 0
M  V30 7305 C 911.055 -4.74639 5.19936 0
M  V30 7306 C 911.765 -3.49432 4.70418 0
M  V30 7307 N 911.715 -3.31776 3.22945 0
M  V30 7308 H 914.554 -6.54213 5.71376 0
M  V30 7309 H 914.826 -5.30492 4.44033 0
M  V30 7310 H 913.958 -4.55889 6.76652 0
M  V30 7311 P 909.995 -4.23843 7.83734 0
M  V30 7312 O 909.775 -4.19407 9.29784 0
M  V30 7313 O 909.205 -5.24426 7.09156 0
M  V30 7314 O 909.745 -2.7935 7.20758 0
M  V30 7315 C 910.685 -1.7299 7.50419 0
M  V30 7316 C 909.955 -0.406376 7.57911 0
M  V30 7317 O 909.745 0.0897726 6.21935 0
M  V30 7318 C 908.555 -0.447224 8.1878 0
M  V30 7319 O 908.165 0.825065 8.71101 0
M  V30 7320 C 907.675 -0.783801 6.99623 0
M  V30 7321 C 908.385 -0.0619192 5.85967 0
M  V30 7322 N 908.335 -0.7859 4.56281 0
M  V30 7323 C 908.415 -2.14308 4.31736 0
M  V30 7324 N 908.335 -2.46106 3.05116 0
M  V30 7325 C 908.195 -1.23422 2.4014 0
M  V30 7326 C 908.065 -0.938381 1.02409 0
M  V30 7327 N 907.945 0.444647 0.805413 0
M  V30 7328 C 907.945 1.40829 1.79435 0
M  V30 7329 N 907.815 2.67213 1.38558 0
M  V30 7330 N 908.075 1.12947 3.09005 0
M  V30 7331 C 908.195 -0.204887 3.32369 0
M  V30 7332 H 911.174 -1.93423 8.4679 0
M  V30 7333 H 911.446 -1.68181 6.71046 0
M  V30 7334 H 910.578 0.289041 8.15388 0
M  V30 7335 P 906.615 1.17771 8.83182 0
M  V30 7336 O 906.395 2.07206 9.98732 0
M  V30 7337 O 905.825 -0.0743816 8.81969 0
M  V30 7338 O 906.365 1.97652 7.47304 0
M  V30 7339 C 907.305 3.01133 7.08783 0
M  V30 7340 C 906.575 4.12613 6.37049 0
M  V30 7341 O 906.365 3.72827 4.97879 0
M  V30 7342 C 905.175 4.45085 6.88694 0
M  V30 7343 O 904.785 5.7877 6.5624 0
M  V30 7344 C 904.295 3.47817 6.12078 0
M  V30 7345 C 905.005 3.39414 4.77697 0
M  V30 7346 N 904.955 2.04199 4.15538 0
M  V30 7347 C 905.035 0.821545 4.76977 0
M  V30 7348 N 904.965 -0.1794 3.94592 0
M  V30 7349 C 904.815 0.419121 2.70776 0
M  V30 7350 C 904.685 -0.109072 1.40577 0
M  V30 7351 N 904.675 -1.4104 1.1344 0
M  V30 7352 N 904.565 0.764381 0.39411 0
M  V30 7353 C 904.575 2.06587 0.664135 0
M  V30 7354 N 904.695 2.67948 1.82153 0
M  V30 7355 C 904.815 1.77942 2.8147 0
M  V30 7356 H 907.794 3.41248 7.98759 0
M  V30 7357 H 908.066 2.57728 6.42 0
M  V30 7358 H 907.198 5.02657 6.42673 0
M  V30 7359 H 904.543 4.11708 4.08956 0
M  V30 7360 H 904.263 2.49626 6.61679 0
M  V30 7361 H 903.272 3.8662 6.00862 0
M  V30 7362 H 905.106 4.29991 7.97006 0
M  V30 7363 H 905.147 0.702451 5.84696 0
M  V30 7364 H 904.766 -2.09647 1.89651 0
M  V30 7365 H 904.577 -1.73358 0.160575 0
M  V30 7366 H 904.469 2.71695 -0.195838 0
M  V30 7367 P 903.235 6.144 6.45285 0
M  V30 7368 O 903.015 7.54673 6.86199 0
M  V30 7369 O 902.445 5.12391 7.179 0
M  V30 7370 O 902.985 5.99158 4.88404 0
M  V30 7371 C 903.925 6.60234 3.96415 0
M  V30 7372 C 903.195 7.08259 2.72856 0
M  V30 7373 O 902.985 5.9427 1.83651 0
M  V30 7374 C 901.795 7.64886 2.9555 0
M  V30 7375 O 901.405 8.53963 1.90717 0
M  V30 7376 C 900.915 6.4116 2.90739 0
M  V30 7377 C 901.625 5.55375 1.86963 0
M  V30 7378 N 901.575 4.09664 2.15742 0
M  V30 7379 H 904.414 7.45574 4.45629 0
M  V30 7380 H 904.686 5.86232 3.67314 0
M  V30 7381 H 903.818 7.84412 2.24479 0
M  V30 7382 P 899.855 8.7635 1.60911 0
M  V30 7383 O 899.635 10.1388 1.11561 0
M  V30 7384 O 899.065 8.36503 2.79617 0
M  V30 7385 O 899.605 7.71806 0.42951 0
M  V30 7386 C 900.545 7.67148 -0.673689 0
M  V30 7387 C 899.815 7.33374 -1.95559 0
M  V30 7388 O 899.605 5.88721 -2.00726 0
M  V30 7389 C 898.415 7.92526 -2.10483 0
M  V30 7390 O 898.025 8.02971 -3.47653 0
M  V30 7391 C 897.535 6.89602 -1.41652 0
M  V30 7392 C 898.245 5.59201 -1.75185 0
M  V30 7393 N 898.195 4.58235 -0.662552 0
M  V30 7394 H 901.034 8.65116 -0.777161 0
M  V30 7395 H 901.306 6.90173 -0.474152 0
M  V30 7396 H 900.438 7.66548 -2.79458 0
M  V30 7397 P 896.475 8.03563 -3.84925 0
M  V30 7398 O 896.255 8.85821 -5.0569 0
M  V30 7399 O 895.685 8.41101 -2.65469 0
M  V30 7400 O 896.225 6.4965 -4.18908 0
M  V30 7401 C 897.165 5.81037 -5.05421 0
M  V30 7402 C 896.435 4.78366 -5.89277 0
M  V30 7403 O 896.225 3.58302 -5.08433 0
M  V30 7404 C 895.035 5.17448 -6.36119 0
M  V30 7405 O 894.645 4.45271 -7.53232 0
M  V30 7406 C 894.155 4.74639 -5.19936 0
M  V30 7407 C 894.865 3.49432 -4.70418 0
M  V30 7408 N 894.815 3.32099 -3.22613 0
M  V30 7409 C 894.895 4.28245 -2.25527 0
M  V30 7410 N 894.825 3.80823 -1.04874 0
M  V30 7411 C 894.675 2.44571 -1.23535 0
M  V30 7412 C 894.545 1.37068 -0.330675 0
M  V30 7413 N 894.535 1.51472 0.990824 0
M  V30 7414 N 894.425 0.138614 -0.848756 0
M  V30 7415 C 894.435 -0.00675923 -2.16999 0
M  V30 7416 N 894.555 0.904372 -3.11122 0
M  V30 7417 C 894.675 2.12707 -2.56212 0
M  V30 7418 H 897.654 6.54213 -5.71376 0
M  V30 7419 H 897.926 5.30936 -4.43503 0
M  V30 7420 H 897.058 4.55889 -6.76652 0
M  V30 7421 H 894.403 2.61715 -5.17932 0
M  V30 7422 H 894.123 5.52155 -4.41878 0
M  V30 7423 H 893.132 4.51981 -5.53374 0
M  V30 7424 H 894.966 6.25124 -6.55234 0
M  V30 7425 H 895.007 5.34372 -2.47488 0
M  V30 7426 H 894.626 2.45153 1.4078 0
M  V30 7427 H 894.437 0.688422 1.59911 0
M  V30 7428 H 894.329 -1.02584 -2.52346 0
M  V30 7429 P 893.095 4.23843 -7.83734 0
M  V30 7430 O 892.875 4.19407 -9.29784 0
M  V30 7431 O 892.305 5.24426 -7.09156 0
M  V30 7432 O 892.845 2.7935 -7.20758 0
M  V30 7433 C 893.785 1.7299 -7.50419 0
M  V30 7434 C 893.055 0.406376 -7.57911 0
M  V30 7435 O 892.845 -0.0897726 -6.21935 0
M  V30 7436 C 891.655 0.447224 -8.1878 0
M  V30 7437 O 891.265 -0.825065 -8.71101 0
M  V30 7438 C 890.775 0.783801 -6.99623 0
M  V30 7439 C 891.485 0.0619192 -5.85967 0
M  V30 7440 N 891.435 0.7859 -4.56281 0
M  V30 7441 C 891.515 2.14308 -4.31736 0
M  V30 7442 N 891.435 2.46106 -3.05116 0
M  V30 7443 C 891.295 1.23422 -2.4014 0
M  V30 7444 C 891.165 0.938381 -1.02409 0
M  V30 7445 N 891.045 -0.444647 -0.805413 0
M  V30 7446 C 891.045 -1.40829 -1.79435 0
M  V30 7447 N 890.915 -2.67213 -1.38558 0
M  V30 7448 N 891.175 -1.12947 -3.09005 0
M  V30 7449 C 891.295 0.204887 -3.32369 0
M  V30 7450 H 894.274 1.93423 -8.4679 0
M  V30 7451 H 894.546 1.68181 -6.71046 0
M  V30 7452 H 893.678 -0.289041 -8.15388 0
M  V30 7453 P 889.715 -1.17771 -8.83182 0
M  V30 7454 O 889.495 -2.07206 -9.98732 0
M  V30 7455 O 888.925 0.0743816 -8.81969 0
M  V30 7456 O 889.465 -1.97652 -7.47304 0
M  V30 7457 C 890.405 -3.01055 -7.08599 0
M  V30 7458 C 889.675 -4.12613 -6.37049 0
M  V30 7459 O 889.465 -3.72827 -4.97879 0
M  V30 7460 C 888.275 -4.45719 -6.88164 0
M  V30 7461 O 887.885 -5.7877 -6.5624 0
M  V30 7462 C 887.395 -3.47768 -6.11991 0
M  V30 7463 C 888.105 -3.39356 -4.77615 0
M  V30 7464 N 888.055 -2.04571 -4.15244 0
M  V30 7465 C 887.905 -1.98587 -2.78314 0
M  V30 7466 O 887.815 -2.98134 -2.08835 0
M  V30 7467 N 887.865 -0.714467 -2.24925 0
M  V30 7468 C 887.955 0.470001 -2.94169 0
M  V30 7469 O 887.905 1.55587 -2.35195 0
M  V30 7470 C 888.105 0.312541 -4.36783 0
M  V30 7471 C 888.215 1.57711 -5.16352 0
M  V30 7472 C 888.155 -0.914512 -4.92583 0
M  V30 7473 H 890.896 -3.41169 -7.98575 0
M  V30 7474 H 891.165 -2.58295 -6.41556 0
M  V30 7475 H 890.298 -5.02657 -6.42673 0
M  V30 7476 H 887.643 -4.11637 -4.08885 0
M  V30 7477 H 887.364 -2.49626 -6.61679 0
M  V30 7478 H 886.372 -3.86566 -6.00778 0
M  V30 7479 H 888.206 -4.29943 -7.96918 0
M  V30 7480 H 888.277 -1.00937 -6.00374 0
M  V30 7481 H 887.247 1.80153 -5.63503 0
M  V30 7482 H 888.984 1.4566 -5.94104 0
M  V30 7483 H 888.496 2.40664 -4.49645 0
M  V30 7484 H 887.76 -0.647622 -1.25697 0
M  V30 7485 P 886.335 -6.144 -6.45285 0
M  V30 7486 O 886.115 -7.54673 -6.86199 0
M  V30 7487 O 885.545 -5.12391 -7.179 0
M  V30 7488 O 886.085 -5.99158 -4.88404 0
M  V30 7489 C 887.025 -6.60234 -3.96415 0
M  V30 7490 C 886.295 -7.08259 -2.72856 0
M  V30 7491 O 886.085 -5.9427 -1.83651 0
M  V30 7492 C 884.895 -7.64886 -2.9555 0
M  V30 7493 O 884.505 -8.53963 -1.90717 0
M  V30 7494 C 884.015 -6.4116 -2.90739 0
M  V30 7495 C 884.725 -5.55375 -1.86963 0
M  V30 7496 N 884.675 -4.09664 -2.15742 0
M  V30 7497 C 884.755 -3.44381 -3.37233 0
M  V30 7498 N 884.675 -2.14131 -3.28347 0
M  V30 7499 C 884.535 -1.90247 -1.91588 0
M  V30 7500 C 884.405 -0.683992 -1.20892 0
M  V30 7501 N 884.285 -0.903396 0.173998 0
M  V30 7502 C 884.285 -2.14171 0.784879 0
M  V30 7503 N 884.155 -2.1435 2.11317 0
M  V30 7504 N 884.415 -3.28784 0.119316 0
M  V30 7505 C 884.535 -3.0977 -1.22194 0
M  V30 7506 H 887.514 -7.45574 -4.45629 0
M  V30 7507 H 887.786 -5.86232 -3.67314 0
M  V30 7508 H 886.918 -7.84412 -2.24479 0
M  V30 7509 P 882.955 -8.7635 -1.60911 0
M  V30 7510 O 882.735 -10.1388 -1.11561 0
M  V30 7511 O 882.165 -8.36503 -2.79617 0
M  V30 7512 O 882.705 -7.71806 -0.42951 0
M  V30 7513 C 883.645 -7.67148 0.673689 0
M  V30 7514 C 882.915 -7.33374 1.95559 0
M  V30 7515 O 882.705 -5.88721 2.00726 0
M  V30 7516 C 881.515 -7.92526 2.10483 0
M  V30 7517 O 881.125 -8.02971 3.47653 0
M  V30 7518 C 880.635 -6.89602 1.41652 0
M  V30 7519 C 881.345 -5.59201 1.75185 0
M  V30 7520 N 881.295 -4.58235 0.662552 0
M  V30 7521 H 884.134 -8.65116 0.777161 0
M  V30 7522 H 884.406 -6.90173 0.474152 0
M  V30 7523 H 883.538 -7.66548 2.79458 0
M  V30 7524 P 879.575 -8.03563 3.84925 0
M  V30 7525 O 879.355 -8.85821 5.0569 0
M  V30 7526 O 878.785 -8.41101 2.65469 0
M  V30 7527 O 879.325 -6.4965 4.18908 0
M  V30 7528 C 880.265 -5.81037 5.05421 0
M  V30 7529 C 879.535 -4.78366 5.89277 0
M  V30 7530 O 879.325 -3.58302 5.08433 0
M  V30 7531 C 878.135 -5.17448 6.36119 0
M  V30 7532 O 877.745 -4.45271 7.53232 0
M  V30 7533 C 877.255 -4.74639 5.19936 0
M  V30 7534 C 877.965 -3.49432 4.70418 0
M  V30 7535 N 877.915 -3.32099 3.22613 0
M  V30 7536 C 877.995 -4.28245 2.25527 0
M  V30 7537 N 877.925 -3.80823 1.04874 0
M  V30 7538 C 877.775 -2.44571 1.23535 0
M  V30 7539 C 877.645 -1.37068 0.330675 0
M  V30 7540 N 877.635 -1.51472 -0.990824 0
M  V30 7541 N 877.525 -0.138614 0.848756 0
M  V30 7542 C 877.535 0.00675923 2.16999 0
M  V30 7543 N 877.655 -0.904372 3.11122 0
M  V30 7544 C 877.775 -2.12707 2.56212 0
M  V30 7545 H 880.754 -6.54213 5.71376 0
M  V30 7546 H 881.026 -5.30936 4.43503 0
M  V30 7547 H 880.158 -4.55889 6.76652 0
M  V30 7548 H 877.503 -2.61715 5.17932 0
M  V30 7549 H 877.223 -5.52155 4.41878 0
M  V30 7550 H 876.232 -4.51981 5.53374 0
M  V30 7551 H 878.066 -6.25124 6.55234 0
M  V30 7552 H 878.107 -5.34372 2.47488 0
M  V30 7553 H 877.726 -2.45153 -1.4078 0
M  V30 7554 H 877.537 -0.688422 -1.59911 0
M  V30 7555 H 877.429 1.02584 2.52346 0
M  V30 7556 P 876.195 -4.23843 7.83734 0
M  V30 7557 O 875.975 -4.19407 9.29784 0
M  V30 7558 O 875.405 -5.24426 7.09156 0
M  V30 7559 O 875.945 -2.7935 7.20758 0
M  V30 7560 C 876.885 -1.7299 7.50419 0
M  V30 7561 C 876.155 -0.406376 7.57911 0
M  V30 7562 O 875.945 0.0897726 6.21935 0
M  V30 7563 C 874.755 -0.447224 8.1878 0
M  V30 7564 O 874.365 0.825065 8.71101 0
M  V30 7565 C 873.875 -0.783801 6.99623 0
M  V30 7566 C 874.585 -0.0619192 5.85967 0
M  V30 7567 N 874.535 -0.7859 4.56281 0
M  V30 7568 H 877.374 -1.93423 8.4679 0
M  V30 7569 H 877.646 -1.68181 6.71046 0
M  V30 7570 H 876.778 0.289041 8.15388 0
M  V30 7571 P 872.815 1.17771 8.83182 0
M  V30 7572 O 872.595 2.07206 9.98732 0
M  V30 7573 O 872.025 -0.0743816 8.81969 0
M  V30 7574 O 872.565 1.97652 7.47304 0
M  V30 7575 C 873.505 3.01133 7.08783 0
M  V30 7576 C 872.775 4.12613 6.37049 0
M  V30 7577 O 872.565 3.72827 4.97879 0
M  V30 7578 C 871.375 4.45085 6.88694 0
M  V30 7579 O 870.985 5.7877 6.5624 0
M  V30 7580 C 870.495 3.47817 6.12078 0
M  V30 7581 C 871.205 3.39414 4.77697 0
M  V30 7582 N 871.155 2.04615 4.15333 0
M  V30 7583 H 873.994 3.41248 7.98759 0
M  V30 7584 H 874.266 2.5837 6.41742 0
M  V30 7585 H 873.398 5.02657 6.42673 0
M  V30 7586 P 869.435 6.144 6.45285 0
M  V30 7587 O 869.215 7.54673 6.86199 0
M  V30 7588 O 868.645 5.12391 7.179 0
M  V30 7589 O 869.185 5.99158 4.88404 0
M  V30 7590 C 870.125 6.60234 3.96415 0
M  V30 7591 C 869.395 7.08259 2.72856 0
M  V30 7592 O 869.185 5.9427 1.83651 0
M  V30 7593 C 867.995 7.64886 2.9555 0
M  V30 7594 O 867.605 8.53963 1.90717 0
M  V30 7595 C 867.115 6.4116 2.90739 0
M  V30 7596 C 867.825 5.55375 1.86963 0
M  V30 7597 N 867.775 4.09664 2.15742 0
M  V30 7598 C 867.855 3.44381 3.37233 0
M  V30 7599 N 867.775 2.14131 3.28347 0
M  V30 7600 C 867.635 1.90247 1.91588 0
M  V30 7601 C 867.505 0.683992 1.20892 0
M  V30 7602 N 867.385 0.903396 -0.173998 0
M  V30 7603 C 867.385 2.14171 -0.784879 0
M  V30 7604 N 867.255 2.1435 -2.11317 0
M  V30 7605 N 867.515 3.28784 -0.119316 0
M  V30 7606 C 867.635 3.0977 1.22194 0
M  V30 7607 H 870.614 7.45574 4.45629 0
M  V30 7608 H 870.886 5.86232 3.67314 0
M  V30 7609 H 870.018 7.84412 2.24479 0
M  V30 7610 P 866.055 8.7635 1.60911 0
M  V30 7611 O 865.835 10.1388 1.11561 0
M  V30 7612 O 865.265 8.36503 2.79617 0
M  V30 7613 O 865.805 7.71806 0.42951 0
M  V30 7614 C 866.745 7.67148 -0.673689 0
M  V30 7615 C 866.015 7.33374 -1.95559 0
M  V30 7616 O 865.805 5.88721 -2.00726 0
M  V30 7617 C 864.615 7.92526 -2.10483 0
M  V30 7618 O 864.225 8.02971 -3.47653 0
M  V30 7619 C 863.735 6.89602 -1.41652 0
M  V30 7620 C 864.445 5.59201 -1.75185 0
M  V30 7621 N 864.395 4.58235 -0.662552 0
M  V30 7622 H 867.234 8.65116 -0.777161 0
M  V30 7623 H 867.506 6.90173 -0.474152 0
M  V30 7624 H 866.638 7.66548 -2.79458 0
M  V30 7625 P 862.675 8.03563 -3.84925 0
M  V30 7626 O 862.455 8.85821 -5.0569 0
M  V30 7627 O 861.885 8.41101 -2.65469 0
M  V30 7628 O 862.425 6.4965 -4.18908 0
M  V30 7629 C 863.365 5.81037 -5.05421 0
M  V30 7630 C 862.635 4.78366 -5.89277 0
M  V30 7631 O 862.425 3.58302 -5.08433 0
M  V30 7632 C 861.235 5.17448 -6.36119 0
M  V30 7633 O 860.845 4.45271 -7.53232 0
M  V30 7634 C 860.355 4.74639 -5.19936 0
M  V30 7635 C 861.065 3.49432 -4.70418 0
M  V30 7636 N 861.015 3.31776 -3.22945 0
M  V30 7637 H 863.854 6.54213 -5.71376 0
M  V30 7638 H 864.126 5.30492 -4.44033 0
M  V30 7639 H 863.258 4.55889 -6.76652 0
M  V30 7640 P 859.295 4.23843 -7.83734 0
M  V30 7641 O 859.075 4.19407 -9.29784 0
M  V30 7642 O 858.505 5.24426 -7.09156 0
M  V30 7643 O 859.045 2.7935 -7.20758 0
M  V30 7644 C 859.985 1.72945 -7.50224 0
M  V30 7645 C 859.255 0.406376 -7.57911 0
M  V30 7646 O 859.045 -0.0897726 -6.21935 0
M  V30 7647 C 857.855 0.438983 -8.18724 0
M  V30 7648 O 857.465 -0.825065 -8.71101 0
M  V30 7649 C 856.975 0.783689 -6.99524 0
M  V30 7650 C 857.685 0.0619086 -5.85867 0
M  V30 7651 N 857.635 0.78573 -4.56183 0
M  V30 7652 C 857.485 0.0292889 -3.41887 0
M  V30 7653 O 857.395 -1.18445 -3.4419 0
M  V30 7654 N 857.445 0.744061 -2.23964 0
M  V30 7655 C 857.535 2.10932 -2.10362 0
M  V30 7656 C 857.685 2.8202 -3.34994 0
M  V30 7657 C 857.735 2.15547 -4.52261 0
M  V30 7658 H 860.476 1.93379 -8.46595 0
M  V30 7659 H 860.745 1.68132 -6.70852 0
M  V30 7660 H 859.878 -0.289041 -8.15388 0
M  V30 7661 H 857.223 -0.926847 -5.72749 0
M  V30 7662 H 856.944 1.86973 -6.82036 0
M  V30 7663 H 855.952 0.403896 -7.13257 0
M  V30 7664 H 857.786 1.20585 -8.97435 0
M  V30 7665 H 857.857 2.71231 -5.45042 0
M  V30 7666 P 855.915 -1.17771 -8.83182 0
M  V30 7667 O 855.695 -2.07206 -9.98732 0
M  V30 7668 O 855.125 0.0743816 -8.81969 0
M  V30 7669 O 855.665 -1.97652 -7.47304 0
M  V30 7670 C 856.605 -3.01133 -7.08783 0
M  V30 7671 C 855.875 -4.12613 -6.37049 0
M  V30 7672 O 855.665 -3.72827 -4.97879 0
M  V30 7673 C 854.475 -4.45085 -6.88694 0
M  V30 7674 O 854.085 -5.7877 -6.5624 0
M  V30 7675 C 853.595 -3.47817 -6.12078 0
M  V30 7676 C 854.305 -3.39414 -4.77697 0
M  V30 7677 N 854.255 -2.04615 -4.15333 0
M  V30 7678 H 857.094 -3.41248 -7.98759 0
M  V30 7679 H 857.366 -2.5837 -6.41742 0
M  V30 7680 H 856.498 -5.02657 -6.42673 0
M  V30 7681 P 852.535 -6.144 -6.45285 0
M  V30 7682 O 852.315 -7.54673 -6.86199 0
M  V30 7683 O 851.745 -5.12391 -7.179 0
M  V30 7684 O 852.285 -5.99158 -4.88404 0
M  V30 7685 C 853.225 -6.60234 -3.96415 0
M  V30 7686 C 852.495 -7.08259 -2.72856 0
M  V30 7687 O 852.285 -5.9427 -1.83651 0
M  V30 7688 C 851.095 -7.64886 -2.9555 0
M  V30 7689 O 850.705 -8.53963 -1.90717 0
M  V30 7690 C 850.215 -6.4116 -2.90739 0
M  V30 7691 C 850.925 -5.55375 -1.86963 0
M  V30 7692 N 850.875 -4.09448 -2.16152 0
M  V30 7693 H 853.714 -7.45574 -4.45629 0
M  V30 7694 H 853.986 -5.85864 -3.679 0
M  V30 7695 H 853.118 -7.84412 -2.24479 0
M  V30 7696 H 850.463 -5.73457 -0.888562 0
M  V30 7697 H 850.183 -5.90877 -3.88583 0
M  V30 7698 H 849.192 -6.6596 -2.58858 0
M  V30 7699 H 851.026 -8.16339 -3.92049 0
M  V30 7700 P 849.155 -8.7635 -1.60911 0
M  V30 7701 O 848.935 -10.1388 -1.11561 0
M  V30 7702 O 848.365 -8.36503 -2.79617 0
M  V30 7703 O 848.905 -7.71806 -0.42951 0
M  V30 7704 C 849.845 -7.67148 0.673689 0
M  V30 7705 C 849.115 -7.33374 1.95559 0
M  V30 7706 O 848.905 -5.88721 2.00726 0
M  V30 7707 C 847.715 -7.92526 2.10483 0
M  V30 7708 O 847.325 -8.02971 3.47653 0
M  V30 7709 C 846.835 -6.89602 1.41652 0
M  V30 7710 C 847.545 -5.59201 1.75185 0
M  V30 7711 N 847.495 -4.58301 0.657969 0
M  V30 7712 H 850.334 -8.65116 0.777161 0
M  V30 7713 H 850.606 -6.9022 0.46725 0
M  V30 7714 H 849.738 -7.66548 2.79458 0
M  V30 7715 H 847.083 -5.16165 2.65183 0
M  V30 7716 H 846.803 -7.06433 0.329384 0
M  V30 7717 H 845.812 -6.90926 1.82021 0
M  V30 7718 H 847.646 -8.90873 1.62657 0
M  V30 7719 P 845.775 -8.03563 3.84925 0
M  V30 7720 O 845.555 -8.85821 5.0569 0
M  V30 7721 O 844.985 -8.41101 2.65469 0
M  V30 7722 O 845.525 -6.4965 4.18908 0
M  V30 7723 C 846.465 -5.80886 5.05289 0
M  V30 7724 C 845.735 -4.78366 5.89277 0
M  V30 7725 O 845.525 -3.58302 5.08433 0
M  V30 7726 C 844.335 -5.16748 6.36559 0
M  V30 7727 O 843.945 -4.45271 7.53232 0
M  V30 7728 C 843.455 -4.74572 5.19863 0
M  V30 7729 C 844.165 -3.49373 4.70338 0
M  V30 7730 N 844.115 -3.31704 3.22876 0
M  V30 7731 C 843.965 -2.03326 2.74871 0
M  V30 7732 O 843.875 -1.06486 3.48076 0
M  V30 7733 N 843.925 -1.91838 1.37456 0
M  V30 7734 C 844.015 -2.94295 0.462035 0
M  V30 7735 O 843.965 -2.71763 -0.752928 0
M  V30 7736 C 844.165 -4.25064 1.05249 0
M  V30 7737 C 844.275 -5.39815 0.095697 0
M  V30 7738 C 844.215 -4.40214 2.39192 0
M  V30 7739 H 846.956 -6.54063 5.71245 0
M  V30 7740 H 847.225 -5.30339 4.43905 0
M  V30 7741 H 846.358 -4.55889 6.76652 0
M  V30 7742 H 843.703 -2.6167 5.17842 0
M  V30 7743 H 843.424 -5.52155 4.41878 0
M  V30 7744 H 842.432 -4.51918 5.53297 0
M  V30 7745 H 844.266 -6.25055 6.55162 0
M  V30 7746 H 844.337 -5.39798 2.81523 0
M  V30 7747 H 843.307 -5.91593 0.0279582 0
M  V30 7748 H 845.044 -6.10038 0.450573 0
M  V30 7749 H 844.556 -5.02007 -0.89937 0
M  V30 7750 H 843.82 -0.995326 1.00435 0
M  V30 7751 P 842.395 -4.23843 7.83734 0
M  V30 7752 O 842.175 -4.19407 9.29784 0
M  V30 7753 O 841.605 -5.24426 7.09156 0
M  V30 7754 O 842.145 -2.7935 7.20758 0
M  V30 7755 C 843.085 -1.7299 7.50419 0
M  V30 7756 C 842.355 -0.406376 7.57911 0
M  V30 7757 O 842.145 0.0897726 6.21935 0
M  V30 7758 C 840.955 -0.447224 8.1878 0
M  V30 7759 O 840.565 0.825065 8.71101 0
M  V30 7760 C 840.075 -0.783801 6.99623 0
M  V30 7761 C 840.785 -0.0619192 5.85967 0
M  V30 7762 N 840.735 -0.7859 4.56281 0
M  V30 7763 H 843.574 -1.93423 8.4679 0
M  V30 7764 H 843.846 -1.68181 6.71046 0
M  V30 7765 H 842.978 0.289041 8.15388 0
M  V30 7766 P 839.015 1.17771 8.83182 0
M  V30 7767 O 838.795 2.07206 9.98732 0
M  V30 7768 O 838.225 -0.0743816 8.81969 0
M  V30 7769 O 838.765 1.97652 7.47304 0
M  V30 7770 C 839.705 3.01133 7.08783 0
M  V30 7771 C 838.975 4.12613 6.37049 0
M  V30 7772 O 838.765 3.72827 4.97879 0
M  V30 7773 C 837.575 4.45085 6.88694 0
M  V30 7774 O 837.185 5.7877 6.5624 0
M  V30 7775 C 836.695 3.47817 6.12078 0
M  V30 7776 C 837.405 3.39414 4.77697 0
M  V30 7777 N 837.355 2.04615 4.15333 0
M  V30 7778 H 840.194 3.41248 7.98759 0
M  V30 7779 H 840.466 2.5837 6.41742 0
M  V30 7780 H 839.598 5.02657 6.42673 0
M  V30 7781 P 835.635 6.144 6.45285 0
M  V30 7782 O 835.415 7.54673 6.86199 0
M  V30 7783 O 834.845 5.12391 7.179 0
M  V30 7784 O 835.385 5.99158 4.88404 0
M  V30 7785 C 836.325 6.60234 3.96415 0
M  V30 7786 C 835.595 7.08259 2.72856 0
M  V30 7787 O 835.385 5.9427 1.83651 0
M  V30 7788 C 834.195 7.64886 2.9555 0
M  V30 7789 O 833.805 8.53963 1.90717 0
M  V30 7790 C 833.315 6.4116 2.90739 0
M  V30 7791 C 834.025 5.55375 1.86963 0
M  V30 7792 N 833.975 4.09664 2.15742 0
M  V30 7793 H 836.814 7.45574 4.45629 0
M  V30 7794 H 837.086 5.86232 3.67314 0
M  V30 7795 H 836.218 7.84412 2.24479 0
M  V30 7796 P 832.255 8.7635 1.60911 0
M  V30 7797 O 832.035 10.1388 1.11561 0
M  V30 7798 O 831.465 8.36503 2.79617 0
M  V30 7799 O 832.005 7.71806 0.42951 0
M  V30 7800 C 832.945 7.66948 -0.673514 0
M  V30 7801 C 832.215 7.33374 -1.95559 0
M  V30 7802 O 832.005 5.88721 -2.00726 0
M  V30 7803 C 830.815 7.92218 -2.1125 0
M  V30 7804 O 830.425 8.02971 -3.47653 0
M  V30 7805 C 829.935 6.89504 -1.41631 0
M  V30 7806 C 830.645 5.59106 -1.75155 0
M  V30 7807 N 830.595 4.58136 -0.662409 0
M  V30 7808 C 830.445 3.26059 -1.02863 0
M  V30 7809 O 830.355 2.90743 -2.19009 0
M  V30 7810 N 830.405 2.35995 0.0155585 0
M  V30 7811 C 830.495 2.65248 1.35603 0
M  V30 7812 O 830.445 1.75605 2.20651 0
M  V30 7813 C 830.645 4.05747 1.64698 0
M  V30 7814 C 830.755 4.42345 3.09553 0
M  V30 7815 C 830.695 4.96734 0.652411 0
M  V30 7816 H 833.436 8.64917 -0.776982 0
M  V30 7817 H 833.705 6.89974 -0.474015 0
M  V30 7818 H 832.838 7.66548 -2.79458 0
M  V30 7819 H 830.183 5.16076 -2.65138 0
M  V30 7820 H 829.904 7.06433 -0.329384 0
M  V30 7821 H 828.912 6.90829 -1.81996 0
M  V30 7822 H 830.746 8.90774 -1.62639 0
M  V30 7823 H 830.817 6.02181 0.895285 0
M  V30 7824 H 829.787 4.80252 3.45468 0
M  V30 7825 H 831.524 5.20015 3.22119 0
M  V30 7826 H 831.036 3.53269 3.67833 0
M  V30 7827 H 830.3 1.39558 -0.227499 0
M  V30 7828 P 828.875 8.03563 -3.84925 0
M  V30 7829 O 828.655 8.85821 -5.0569 0
M  V30 7830 O 828.085 8.41101 -2.65469 0
M  V30 7831 O 828.625 6.4965 -4.18908 0
M  V30 7832 C 829.565 5.81037 -5.05421 0
M  V30 7833 C 828.835 4.78366 -5.89277 0
M  V30 7834 O 828.625 3.58302 -5.08433 0
M  V30 7835 C 827.435 5.17448 -6.36119 0
M  V30 7836 O 827.045 4.45271 -7.53232 0
M  V30 7837 C 826.555 4.74639 -5.19936 0
M  V30 7838 C 827.265 3.49432 -4.70418 0
M  V30 7839 N 827.215 3.31776 -3.22945 0
M  V30 7840 H 830.054 6.54213 -5.71376 0
M  V30 7841 H 830.326 5.30492 -4.44033 0
M  V30 7842 H 829.458 4.55889 -6.76652 0
M  V30 7843 P 825.495 4.23843 -7.83734 0
M  V30 7844 O 825.275 4.19407 -9.29784 0
M  V30 7845 O 824.705 5.24426 -7.09156 0
M  V30 7846 O 825.245 2.7935 -7.20758 0
M  V30 7847 C 826.185 1.7299 -7.50419 0
M  V30 7848 C 825.455 0.406376 -7.57911 0
M  V30 7849 O 825.245 -0.0897726 -6.21935 0
M  V30 7850 C 824.055 0.447224 -8.1878 0
M  V30 7851 O 823.665 -0.825065 -8.71101 0
M  V30 7852 C 823.175 0.783801 -6.99623 0
M  V30 7853 C 823.885 0.0619192 -5.85967 0
M  V30 7854 N 823.835 0.7859 -4.56281 0
M  V30 7855 H 826.674 1.93423 -8.4679 0
M  V30 7856 H 826.946 1.68181 -6.71046 0
M  V30 7857 H 826.078 -0.289041 -8.15388 0
M  V30 7858 P 822.115 -1.17771 -8.83182 0
M  V30 7859 O 821.895 -2.07206 -9.98732 0
M  V30 7860 O 821.325 0.0743816 -8.81969 0
M  V30 7861 O 821.865 -1.97652 -7.47304 0
M  V30 7862 C 822.805 -3.01133 -7.08783 0
M  V30 7863 C 822.075 -4.12613 -6.37049 0
M  V30 7864 O 821.865 -3.72827 -4.97879 0
M  V30 7865 C 820.675 -4.45085 -6.88694 0
M  V30 7866 O 820.285 -5.7877 -6.5624 0
M  V30 7867 C 819.795 -3.47817 -6.12078 0
M  V30 7868 C 820.505 -3.39414 -4.77697 0
M  V30 7869 N 820.455 -2.04615 -4.15333 0
M  V30 7870 H 823.294 -3.41248 -7.98759 0
M  V30 7871 H 823.566 -2.5837 -6.41742 0
M  V30 7872 H 822.698 -5.02657 -6.42673 0
M  V30 7873 P 818.735 -6.144 -6.45285 0
M  V30 7874 O 818.515 -7.54673 -6.86199 0
M  V30 7875 O 817.945 -5.12391 -7.179 0
M  V30 7876 O 818.485 -5.99158 -4.88404 0
M  V30 7877 C 819.425 -6.60234 -3.96415 0
M  V30 7878 C 818.695 -7.08259 -2.72856 0
M  V30 7879 O 818.485 -5.9427 -1.83651 0
M  V30 7880 C 817.295 -7.64886 -2.9555 0
M  V30 7881 O 816.905 -8.53963 -1.90717 0
M  V30 7882 C 816.415 -6.4116 -2.90739 0
M  V30 7883 C 817.125 -5.55375 -1.86963 0
M  V30 7884 N 817.075 -4.09664 -2.15742 0
M  V30 7885 H 819.914 -7.45574 -4.45629 0
M  V30 7886 H 820.186 -5.86232 -3.67314 0
M  V30 7887 H 819.318 -7.84412 -2.24479 0
M  V30 7888 P 815.355 -8.7635 -1.60911 0
M  V30 7889 O 815.135 -10.1388 -1.11561 0
M  V30 7890 O 814.565 -8.36503 -2.79617 0
M  V30 7891 O 815.105 -7.71906 -0.429565 0
M  V30 7892 C 816.045 -7.67148 0.673689 0
M  V30 7893 C 815.315 -7.33666 1.94851 0
M  V30 7894 O 815.105 -5.88816 2.00759 0
M  V30 7895 C 813.915 -7.92526 2.10483 0
M  V30 7896 O 813.525 -8.03063 3.47693 0
M  V30 7897 C 813.035 -6.89602 1.41652 0
M  V30 7898 C 813.745 -5.59201 1.75185 0
M  V30 7899 N 813.695 -4.58235 0.662552 0
M  V30 7900 C 813.545 -3.24451 1.01643 0
M  V30 7901 O 813.455 -2.94958 2.21722 0
M  V30 7902 N 813.495 -2.30408 -0.165238 0
M  V30 7903 C 813.595 -2.66048 -1.25118 0
M  V30 7904 N 813.545 -1.70787 -2.16813 0
M  V30 7905 C 813.745 -4.02732 -1.64413 0
M  V30 7906 C 813.795 -4.9488 -0.63991 0
M  V30 7907 H 816.535 -8.65017 0.777072 0
M  V30 7908 H 816.805 -6.90173 0.474152 0
M  V30 7909 H 815.938 -7.66642 2.79492 0
M  V30 7910 H 813.283 -5.16254 2.65229 0
M  V30 7911 H 813.003 -7.06532 0.329431 0
M  V30 7912 H 812.012 -6.91023 1.82047 0
M  V30 7913 H 813.846 -8.90873 1.62657 0
M  V30 7914 H 813.918 -6.00104 -0.892197 0
M  V30 7915 H 813.816 -4.31733 -2.69229 0
M  V30 7916 H 813.428 -0.724835 -1.8844 0
M  V30 7917 H 813.624 -1.94716 -3.16734 0
M  V30 7918 P 811.975 -8.03563 3.84925 0
M  V30 7919 O 811.755 -8.85821 5.0569 0
M  V30 7920 O 811.185 -8.41101 2.65469 0
M  V30 7921 O 811.725 -6.4965 4.18908 0
M  V30 7922 C 812.665 -5.81037 5.05421 0
M  V30 7923 C 811.935 -4.78366 5.89277 0
M  V30 7924 O 811.725 -3.58302 5.08433 0
M  V30 7925 C 810.535 -5.17448 6.36119 0
M  V30 7926 O 810.145 -4.45271 7.53232 0
M  V30 7927 C 809.655 -4.74639 5.19936 0
M  V30 7928 C 810.365 -3.49432 4.70418 0
M  V30 7929 N 810.315 -3.31776 3.22945 0
M  V30 7930 H 813.154 -6.54213 5.71376 0
M  V30 7931 H 813.426 -5.30492 4.44033 0
M  V30 7932 H 812.558 -4.55889 6.76652 0
M  V30 7933 P 808.595 -4.23843 7.83734 0
M  V30 7934 O 808.375 -4.19407 9.29784 0
M  V30 7935 O 807.805 -5.24426 7.09156 0
M  V30 7936 O 808.345 -2.79386 7.20852 0
M  V30 7937 C 809.285 -1.7299 7.50419 0
M  V30 7938 C 808.555 -0.41401 7.5797 0
M  V30 7939 O 808.345 0.089787 6.22035 0
M  V30 7940 C 807.155 -0.447224 8.1878 0
M  V30 7941 O 806.765 0.825159 8.71201 0
M  V30 7942 C 806.275 -0.783801 6.99623 0
M  V30 7943 C 806.985 -0.0619192 5.85967 0
M  V30 7944 N 806.935 -0.7859 4.56281 0
M  V30 7945 C 806.785 -0.0359258 3.39981 0
M  V30 7946 O 806.695 1.19723 3.49038 0
M  V30 7947 N 806.735 -0.869151 2.14025 0
M  V30 7948 C 806.835 -2.01207 2.14363 0
M  V30 7949 N 806.785 -2.58978 0.954287 0
M  V30 7950 C 806.985 -2.80817 3.32215 0
M  V30 7951 C 807.035 -2.13785 4.50884 0
M  V30 7952 H 809.775 -1.93401 8.46693 0
M  V30 7953 H 810.045 -1.68181 6.71046 0
M  V30 7954 H 809.178 0.289076 8.15488 0
M  V30 7955 H 806.523 0.927166 5.72947 0
M  V30 7956 H 806.243 -1.87 6.82132 0
M  V30 7957 H 805.252 -0.404009 7.13457 0
M  V30 7958 H 807.086 -1.20599 8.97534 0
M  V30 7959 H 807.158 -2.70295 5.43162 0
M  V30 7960 H 807.056 -3.89465 3.27406 0
M  V30 7961 H 806.668 -2.01616 0.107046 0
M  V30 7962 H 806.864 -3.61403 0.873101 0
M  V30 7963 P 805.215 1.17771 8.83182 0
M  V30 7964 O 804.995 2.07206 9.98732 0
M  V30 7965 O 804.425 -0.0743816 8.81969 0
M  V30 7966 O 804.965 1.97652 7.47304 0
M  V30 7967 C 805.905 3.01133 7.08783 0
M  V30 7968 C 805.175 4.12613 6.37049 0
M  V30 7969 O 804.965 3.72827 4.97879 0
M  V30 7970 C 803.775 4.45085 6.88694 0
M  V30 7971 O 803.385 5.7877 6.5624 0
M  V30 7972 C 802.895 3.47817 6.12078 0
M  V30 7973 C 803.605 3.39414 4.77697 0
M  V30 7974 N 803.555 2.04615 4.15333 0
M  V30 7975 H 806.394 3.41248 7.98759 0
M  V30 7976 H 806.666 2.5837 6.41742 0
M  V30 7977 H 805.798 5.02657 6.42673 0
M  V30 7978 P 801.835 6.144 6.45285 0
M  V30 7979 O 801.615 7.54673 6.86199 0
M  V30 7980 O 801.045 5.12391 7.179 0
M  V30 7981 O 801.585 5.99158 4.88404 0
M  V30 7982 C 802.525 6.60062 3.96313 0
M  V30 7983 C 801.795 7.08259 2.72856 0
M  V30 7984 O 801.585 5.9427 1.83651 0
M  V30 7985 C 800.395 7.65087 2.94749 0
M  V30 7986 O 800.005 8.53963 1.90717 0
M  V30 7987 C 799.515 6.41069 2.90698 0
M  V30 7988 C 800.225 5.5528 1.86931 0
M  V30 7989 N 800.175 4.09575 2.15696 0
M  V30 7990 C 800.025 3.24249 1.08435 0
M  V30 7991 O 799.935 3.63946 -0.0628747 0
M  V30 7992 N 799.985 1.90009 1.39973 0
M  V30 7993 C 800.075 1.34884 2.65614 0
M  V30 7994 C 800.225 2.3145 3.71736 0
M  V30 7995 C 800.275 3.63518 3.44754 0
M  V30 7996 H 803.016 7.45402 4.45526 0
M  V30 7997 H 803.285 5.86062 3.67208 0
M  V30 7998 H 802.418 7.84412 2.24479 0
M  V30 7999 H 799.763 5.73358 0.888409 0
M  V30 8000 H 799.484 5.90877 3.88583 0
M  V30 8001 H 798.492 6.65867 2.58821 0
M  V30 8002 H 800.326 8.16248 3.92006 0
M  V30 8003 H 800.397 4.34551 4.26383 0
M  V30 8004 P 798.455 8.7635 1.60911 0
M  V30 8005 O 798.235 10.1388 1.11561 0
M  V30 8006 O 797.665 8.36503 2.79617 0
M  V30 8007 O 798.205 7.71806 0.42951 0
M  V30 8008 C 799.145 7.67148 -0.673689 0
M  V30 8009 C 798.415 7.33374 -1.95559 0
M  V30 8010 O 798.205 5.88721 -2.00726 0
M  V30 8011 C 797.015 7.92526 -2.10483 0
M  V30 8012 O 796.625 8.02971 -3.47653 0
M  V30 8013 C 796.135 6.89602 -1.41652 0
M  V30 8014 C 796.845 5.59201 -1.75185 0
M  V30 8015 N 796.795 4.58235 -0.662552 0
M  V30 8016 H 799.634 8.65116 -0.777161 0
M  V30 8017 H 799.906 6.90173 -0.474152 0
M  V30 8018 H 799.038 7.66548 -2.79458 0
M  V30 8019 P 795.075 8.03563 -3.84925 0
M  V30 8020 O 794.855 8.85821 -5.0569 0
M  V30 8021 O 794.285 8.41101 -2.65469 0
M  V30 8022 O 794.825 6.4965 -4.18908 0
M  V30 8023 C 795.765 5.81037 -5.05421 0
M  V30 8024 C 795.035 4.78366 -5.89277 0
M  V30 8025 O 794.825 3.58302 -5.08433 0
M  V30 8026 C 793.635 5.17448 -6.36119 0
M  V30 8027 O 793.245 4.45271 -7.53232 0
M  V30 8028 C 792.755 4.74639 -5.19936 0
M  V30 8029 C 793.465 3.49432 -4.70418 0
M  V30 8030 N 793.415 3.31776 -3.22945 0
M  V30 8031 H 796.254 6.54213 -5.71376 0
M  V30 8032 H 796.526 5.30492 -4.44033 0
M  V30 8033 H 795.658 4.55889 -6.76652 0
M  V30 8034 P 791.695 4.23843 -7.83734 0
M  V30 8035 O 791.475 4.19407 -9.29784 0
M  V30 8036 O 790.905 5.24426 -7.09156 0
M  V30 8037 O 791.445 2.7935 -7.20758 0
M  V30 8038 C 792.385 1.7299 -7.50419 0
M  V30 8039 C 791.655 0.406376 -7.57911 0
M  V30 8040 O 791.445 -0.0897726 -6.21935 0
M  V30 8041 C 790.255 0.447224 -8.1878 0
M  V30 8042 O 789.865 -0.825065 -8.71101 0
M  V30 8043 C 789.375 0.783801 -6.99623 0
M  V30 8044 C 790.085 0.0619192 -5.85967 0
M  V30 8045 N 790.035 0.7859 -4.56281 0
M  V30 8046 H 792.874 1.93423 -8.4679 0
M  V30 8047 H 793.146 1.68181 -6.71046 0
M  V30 8048 H 792.278 -0.289041 -8.15388 0
M  V30 8049 P 788.315 -1.17771 -8.83182 0
M  V30 8050 O 788.095 -2.07206 -9.98732 0
M  V30 8051 O 787.525 0.0743816 -8.81969 0
M  V30 8052 O 788.065 -1.97652 -7.47304 0
M  V30 8053 C 789.005 -3.01133 -7.08783 0
M  V30 8054 C 788.275 -4.12613 -6.37049 0
M  V30 8055 O 788.065 -3.72827 -4.97879 0
M  V30 8056 C 786.875 -4.45085 -6.88694 0
M  V30 8057 O 786.485 -5.7877 -6.5624 0
M  V30 8058 C 785.995 -3.47817 -6.12078 0
M  V30 8059 C 786.705 -3.39414 -4.77697 0
M  V30 8060 N 786.655 -2.04199 -4.15538 0
M  V30 8061 C 786.735 -0.821545 -4.76977 0
M  V30 8062 N 786.665 0.1794 -3.94592 0
M  V30 8063 C 786.515 -0.419121 -2.70776 0
M  V30 8064 C 786.385 0.109072 -1.40577 0
M  V30 8065 N 786.375 1.4104 -1.1344 0
M  V30 8066 N 786.265 -0.764381 -0.39411 0
M  V30 8067 C 786.275 -2.06587 -0.664135 0
M  V30 8068 N 786.395 -2.67948 -1.82153 0
M  V30 8069 C 786.515 -1.77942 -2.8147 0
M  V30 8070 H 789.494 -3.41248 -7.98759 0
M  V30 8071 H 789.766 -2.57728 -6.42 0
M  V30 8072 H 788.898 -5.02657 -6.42673 0
M  V30 8073 H 786.243 -4.11708 -4.08956 0
M  V30 8074 H 785.963 -2.49626 -6.61679 0
M  V30 8075 H 784.972 -3.8662 -6.00862 0
M  V30 8076 H 786.806 -4.29991 -7.97006 0
M  V30 8077 H 786.847 -0.702451 -5.84696 0
M  V30 8078 H 786.466 2.09647 -1.89651 0
M  V30 8079 H 786.277 1.73358 -0.160575 0
M  V30 8080 H 786.169 -2.71695 0.195838 0
M  V30 8081 P 784.935 -6.144 -6.45285 0
M  V30 8082 O 784.715 -7.54673 -6.86199 0
M  V30 8083 O 784.145 -5.12391 -7.179 0
M  V30 8084 O 784.685 -5.99158 -4.88404 0
M  V30 8085 C 785.625 -6.60234 -3.96415 0
M  V30 8086 C 784.895 -7.08259 -2.72856 0
M  V30 8087 O 784.685 -5.9427 -1.83651 0
M  V30 8088 C 783.495 -7.64886 -2.9555 0
M  V30 8089 O 783.105 -8.53963 -1.90717 0
M  V30 8090 C 782.615 -6.4116 -2.90739 0
M  V30 8091 C 783.325 -5.55375 -1.86963 0
M  V30 8092 N 783.275 -4.09664 -2.15742 0
M  V30 8093 H 786.114 -7.45574 -4.45629 0
M  V30 8094 H 786.386 -5.86232 -3.67314 0
M  V30 8095 H 785.518 -7.84412 -2.24479 0
M  V30 8096 P 781.555 -8.7635 -1.60911 0
M  V30 8097 O 781.335 -10.1388 -1.11561 0
M  V30 8098 O 780.765 -8.36503 -2.79617 0
M  V30 8099 O 781.305 -7.71906 -0.429565 0
M  V30 8100 C 782.245 -7.67148 0.673689 0
M  V30 8101 C 781.515 -7.33666 1.94851 0
M  V30 8102 O 781.305 -5.88816 2.00759 0
M  V30 8103 C 780.115 -7.92526 2.10483 0
M  V30 8104 O 779.725 -8.03063 3.47693 0
M  V30 8105 C 779.235 -6.89602 1.41652 0
M  V30 8106 C 779.945 -5.59201 1.75185 0
M  V30 8107 N 779.895 -4.58235 0.662552 0
M  V30 8108 C 779.745 -3.24451 1.01643 0
M  V30 8109 O 779.655 -2.94958 2.21722 0
M  V30 8110 N 779.695 -2.30408 -0.165238 0
M  V30 8111 C 779.795 -2.66048 -1.25118 0
M  V30 8112 N 779.745 -1.70787 -2.16813 0
M  V30 8113 C 779.945 -4.02732 -1.64413 0
M  V30 8114 C 779.995 -4.9488 -0.63991 0
M  V30 8115 H 782.735 -8.65017 0.777072 0
M  V30 8116 H 783.005 -6.90173 0.474152 0
M  V30 8117 H 782.138 -7.66642 2.79492 0
M  V30 8118 H 779.483 -5.16254 2.65229 0
M  V30 8119 H 779.203 -7.06532 0.329431 0
M  V30 8120 H 778.212 -6.91023 1.82047 0
M  V30 8121 H 780.046 -8.90873 1.62657 0
M  V30 8122 H 780.118 -6.00104 -0.892197 0
M  V30 8123 H 780.016 -4.31733 -2.69229 0
M  V30 8124 H 779.628 -0.724835 -1.8844 0
M  V30 8125 H 779.824 -1.94716 -3.16734 0
M  V30 8126 P 778.175 -8.03563 3.84925 0
M  V30 8127 O 777.955 -8.85821 5.0569 0
M  V30 8128 O 777.385 -8.41101 2.65469 0
M  V30 8129 O 777.925 -6.4965 4.18908 0
M  V30 8130 C 778.865 -5.80886 5.05289 0
M  V30 8131 C 778.135 -4.78366 5.89277 0
M  V30 8132 O 777.925 -3.58302 5.08433 0
M  V30 8133 C 776.735 -5.16748 6.36559 0
M  V30 8134 O 776.345 -4.45271 7.53232 0
M  V30 8135 C 775.855 -4.74572 5.19863 0
M  V30 8136 C 776.565 -3.49373 4.70338 0
M  V30 8137 N 776.515 -3.31704 3.22876 0
M  V30 8138 C 776.365 -2.03326 2.74871 0
M  V30 8139 O 776.275 -1.06486 3.48076 0
M  V30 8140 N 776.325 -1.91838 1.37456 0
M  V30 8141 C 776.415 -2.94295 0.462035 0
M  V30 8142 O 776.365 -2.71763 -0.752928 0
M  V30 8143 C 776.565 -4.25064 1.05249 0
M  V30 8144 C 776.675 -5.39815 0.095697 0
M  V30 8145 C 776.615 -4.40214 2.39192 0
M  V30 8146 H 779.356 -6.54063 5.71245 0
M  V30 8147 H 779.625 -5.30339 4.43905 0
M  V30 8148 H 778.758 -4.55889 6.76652 0
M  V30 8149 H 776.103 -2.6167 5.17842 0
M  V30 8150 H 775.824 -5.52155 4.41878 0
M  V30 8151 H 774.832 -4.51918 5.53297 0
M  V30 8152 H 776.666 -6.25055 6.55162 0
M  V30 8153 H 776.737 -5.39798 2.81523 0
M  V30 8154 H 775.707 -5.91593 0.0279582 0
M  V30 8155 H 777.444 -6.10038 0.450573 0
M  V30 8156 H 776.956 -5.02007 -0.89937 0
M  V30 8157 H 776.22 -0.995326 1.00435 0
M  V30 8158 P 774.795 -4.23843 7.83734 0
M  V30 8159 O 774.575 -4.19407 9.29784 0
M  V30 8160 O 774.005 -5.24426 7.09156 0
M  V30 8161 O 774.545 -2.7935 7.20758 0
M  V30 8162 C 775.485 -1.7299 7.50419 0
M  V30 8163 C 774.755 -0.406376 7.57911 0
M  V30 8164 O 774.545 0.0897726 6.21935 0
M  V30 8165 C 773.355 -0.447224 8.1878 0
M  V30 8166 O 772.965 0.825065 8.71101 0
M  V30 8167 C 772.475 -0.783801 6.99623 0
M  V30 8168 C 773.185 -0.0619192 5.85967 0
M  V30 8169 N 773.135 -0.7859 4.56281 0
M  V30 8170 H 775.974 -1.93423 8.4679 0
M  V30 8171 H 776.246 -1.68181 6.71046 0
M  V30 8172 H 775.378 0.289041 8.15388 0
M  V30 8173 P 771.415 1.17771 8.83182 0
M  V30 8174 O 771.195 2.07206 9.98732 0
M  V30 8175 O 770.625 -0.0743816 8.81969 0
M  V30 8176 O 771.165 1.97652 7.47304 0
M  V30 8177 C 772.105 3.01133 7.08783 0
M  V30 8178 C 771.375 4.12613 6.37049 0
M  V30 8179 O 771.165 3.72827 4.97879 0
M  V30 8180 C 769.975 4.45085 6.88694 0
M  V30 8181 O 769.585 5.7877 6.5624 0
M  V30 8182 C 769.095 3.47817 6.12078 0
M  V30 8183 C 769.805 3.39414 4.77697 0
M  V30 8184 N 769.755 2.04199 4.15538 0
M  V30 8185 H 772.594 3.41248 7.98759 0
M  V30 8186 H 772.866 2.57728 6.42 0
M  V30 8187 H 771.998 5.02657 6.42673 0
M  V30 8188 H 769.343 4.11708 4.08956 0
M  V30 8189 H 769.063 2.49626 6.61679 0
M  V30 8190 H 768.072 3.8662 6.00862 0
M  V30 8191 H 769.906 4.29991 7.97006 0
M  V30 8192 P 768.035 6.144 6.45285 0
M  V30 8193 O 767.815 7.54673 6.86199 0
M  V30 8194 O 767.245 5.12391 7.179 0
M  V30 8195 O 767.785 5.99158 4.88404 0
M  V30 8196 C 768.725 6.60234 3.96415 0
M  V30 8197 C 767.995 7.08259 2.72856 0
M  V30 8198 O 767.785 5.9427 1.83651 0
M  V30 8199 C 766.595 7.64886 2.9555 0
M  V30 8200 O 766.205 8.53963 1.90717 0
M  V30 8201 C 765.715 6.4116 2.90739 0
M  V30 8202 C 766.425 5.55375 1.86963 0
M  V30 8203 N 766.375 4.09448 2.16152 0
M  V30 8204 H 769.214 7.45574 4.45629 0
M  V30 8205 H 769.486 5.85864 3.679 0
M  V30 8206 H 768.618 7.84412 2.24479 0
M  V30 8207 H 765.963 5.73457 0.888562 0
M  V30 8208 H 765.683 5.90877 3.88583 0
M  V30 8209 H 764.692 6.6596 2.58858 0
M  V30 8210 H 766.526 8.16339 3.92049 0
M  V30 8211 P 764.656 8.7635 1.60911 0
M  V30 8212 O 764.436 10.1388 1.11561 0
M  V30 8213 O 763.866 8.36503 2.79617 0
M  V30 8214 O 764.406 7.71806 0.42951 0
M  V30 8215 C 765.346 7.67148 -0.673689 0
M  V30 8216 C 764.616 7.33374 -1.95559 0
M  V30 8217 O 764.406 5.88721 -2.00726 0
M  V30 8218 C 763.216 7.92526 -2.10483 0
M  V30 8219 O 762.826 8.02971 -3.47653 0
M  V30 8220 C 762.336 6.89602 -1.41652 0
M  V30 8221 C 763.046 5.59201 -1.75185 0
M  V30 8222 N 762.996 4.58235 -0.662552 0
M  V30 8223 H 765.835 8.65116 -0.777161 0
M  V30 8224 H 766.107 6.90173 -0.474152 0
M  V30 8225 H 765.239 7.66548 -2.79458 0
M  V30 8226 P 761.276 8.03563 -3.84925 0
M  V30 8227 O 761.056 8.85821 -5.0569 0
M  V30 8228 O 760.486 8.41101 -2.65469 0
M  V30 8229 O 761.026 6.49734 -4.18962 0
M  V30 8230 C 761.966 5.81037 -5.05421 0
M  V30 8231 C 761.236 4.79018 -5.88876 0
M  V30 8232 O 761.026 3.58359 -5.08515 0
M  V30 8233 C 759.836 5.17448 -6.36119 0
M  V30 8234 O 759.446 4.45322 -7.53318 0
M  V30 8235 C 758.956 4.74639 -5.19936 0
M  V30 8236 C 759.666 3.49432 -4.70418 0
M  V30 8237 N 759.616 3.31776 -3.22945 0
M  V30 8238 C 759.466 2.02742 -2.72939 0
M  V30 8239 O 759.376 1.08301 -3.52749 0
M  V30 8240 N 759.416 1.96117 -1.22063 0
M  V30 8241 C 759.516 2.8878 -0.551566 0
M  V30 8242 N 759.466 2.65609 0.750198 0
M  V30 8243 C 759.666 4.22457 -1.03707 0
M  V30 8244 C 759.716 4.37979 -2.39113 0
M  V30 8245 H 762.456 6.54138 -5.7131 0
M  V30 8246 H 762.726 5.30492 -4.44033 0
M  V30 8247 H 761.859 4.55945 -6.76735 0
M  V30 8248 H 759.204 2.6176 -5.18021 0
M  V30 8249 H 758.924 5.52233 -4.41941 0
M  V30 8250 H 757.933 4.52045 -5.53452 0
M  V30 8251 H 759.767 6.25124 -6.55234 0
M  V30 8252 H 759.839 5.37936 -2.80552 0
M  V30 8253 H 759.737 5.07528 -0.359553 0
M  V30 8254 H 759.349 1.69403 1.09847 0
M  V30 8255 H 759.545 3.43701 1.41792 0
M  V30 8256 P 757.896 4.23843 -7.83734 0
M  V30 8257 O 757.676 4.19407 -9.29784 0
M  V30 8258 O 757.106 5.24426 -7.09156 0
M  V30 8259 O 757.646 2.7935 -7.20758 0
M  V30 8260 C 758.586 1.7299 -7.50419 0
M  V30 8261 C 757.856 0.406376 -7.57911 0
M  V30 8262 O 757.646 -0.0897726 -6.21935 0
M  V30 8263 C 756.456 0.447224 -8.1878 0
M  V30 8264 O 756.066 -0.825065 -8.71101 0
M  V30 8265 C 755.576 0.783801 -6.99623 0
M  V30 8266 C 756.286 0.0619192 -5.85967 0
M  V30 8267 N 756.236 0.790462 -4.56202 0
M  V30 8268 H 759.075 1.93423 -8.4679 0
M  V30 8269 H 759.347 1.68852 -6.70877 0
M  V30 8270 H 758.479 -0.289041 -8.15388 0
M  V30 8271 H 755.824 -0.927006 -5.72848 0
M  V30 8272 H 755.544 1.86973 -6.82036 0
M  V30 8273 H 754.553 0.403953 -7.13357 0
M  V30 8274 H 756.387 1.20599 -8.97534 0
M  V30 8275 P 754.516 -1.17771 -8.83182 0
M  V30 8276 O 754.296 -2.07206 -9.98732 0
M  V30 8277 O 753.726 0.0743816 -8.81969 0
M  V30 8278 O 754.266 -1.97652 -7.47304 0
M  V30 8279 C 755.206 -3.01133 -7.08783 0
M  V30 8280 C 754.476 -4.12613 -6.37049 0
M  V30 8281 O 754.266 -3.72827 -4.97879 0
M  V30 8282 C 753.076 -4.45085 -6.88694 0
M  V30 8283 O 752.686 -5.7877 -6.5624 0
M  V30 8284 C 752.196 -3.47817 -6.12078 0
M  V30 8285 C 752.906 -3.39414 -4.77697 0
M  V30 8286 N 752.856 -2.04615 -4.15333 0
M  V30 8287 H 755.695 -3.41248 -7.98759 0
M  V30 8288 H 755.967 -2.5837 -6.41742 0
M  V30 8289 H 755.099 -5.02657 -6.42673 0
M  V30 8290 P 751.136 -6.144 -6.45285 0
M  V30 8291 O 750.916 -7.54673 -6.86199 0
M  V30 8292 O 750.346 -5.12391 -7.179 0
M  V30 8293 O 750.886 -5.99158 -4.88404 0
M  V30 8294 C 751.826 -6.60234 -3.96415 0
M  V30 8295 C 751.096 -7.08259 -2.72856 0
M  V30 8296 O 750.886 -5.9427 -1.83651 0
M  V30 8297 C 749.696 -7.64886 -2.9555 0
M  V30 8298 O 749.306 -8.53963 -1.90717 0
M  V30 8299 C 748.816 -6.4116 -2.90739 0
M  V30 8300 C 749.526 -5.55375 -1.86963 0
M  V30 8301 N 749.476 -4.09664 -2.15742 0
M  V30 8302 H 752.315 -7.45574 -4.45629 0
M  V30 8303 H 752.587 -5.86232 -3.67314 0
M  V30 8304 H 751.719 -7.84412 -2.24479 0
M  V30 8305 P 747.756 -8.7635 -1.60911 0
M  V30 8306 O 747.536 -10.1388 -1.11561 0
M  V30 8307 O 746.966 -8.36503 -2.79617 0
M  V30 8308 O 747.506 -7.71806 -0.42951 0
M  V30 8309 C 748.446 -7.66948 0.673514 0
M  V30 8310 C 747.716 -7.33374 1.95559 0
M  V30 8311 O 747.506 -5.88721 2.00726 0
M  V30 8312 C 746.316 -7.92218 2.1125 0
M  V30 8313 O 745.926 -8.02971 3.47653 0
M  V30 8314 C 745.436 -6.89504 1.41631 0
M  V30 8315 C 746.146 -5.59106 1.75155 0
M  V30 8316 N 746.096 -4.58136 0.662409 0
M  V30 8317 C 745.946 -3.26059 1.02863 0
M  V30 8318 O 745.856 -2.90743 2.19009 0
M  V30 8319 N 745.906 -2.35995 -0.0155585 0
M  V30 8320 C 745.996 -2.65248 -1.35603 0
M  V30 8321 C 746.146 -4.05747 -1.64698 0
M  V30 8322 C 746.196 -4.96734 -0.652411 0
M  V30 8323 H 748.937 -8.64917 0.776982 0
M  V30 8324 H 749.206 -6.89974 0.474015 0
M  V30 8325 H 748.339 -7.66548 2.79458 0
M  V30 8326 H 745.684 -5.16076 2.65138 0
M  V30 8327 H 745.405 -7.06433 0.329384 0
M  V30 8328 H 744.413 -6.90829 1.81996 0
M  V30 8329 H 746.247 -8.90774 1.62639 0
M  V30 8330 H 746.318 -6.02181 -0.895285 0
M  V30 8331 P 744.376 -8.03563 3.84925 0
M  V30 8332 O 744.156 -8.85821 5.0569 0
M  V30 8333 O 743.586 -8.41101 2.65469 0
M  V30 8334 O 744.126 -6.4965 4.18908 0
M  V30 8335 C 745.066 -5.81037 5.05421 0
M  V30 8336 C 744.336 -4.78366 5.89277 0
M  V30 8337 O 744.126 -3.58302 5.08433 0
M  V30 8338 C 742.936 -5.17448 6.36119 0
M  V30 8339 O 742.546 -4.45271 7.53232 0
M  V30 8340 C 742.056 -4.74639 5.19936 0
M  V30 8341 C 742.766 -3.49432 4.70418 0
M  V30 8342 N 742.716 -3.31776 3.22945 0
M  V30 8343 H 745.555 -6.54213 5.71376 0
M  V30 8344 H 745.827 -5.30492 4.44033 0
M  V30 8345 H 744.959 -4.55889 6.76652 0
M  V30 8346 P 740.996 -4.23843 7.83734 0
M  V30 8347 O 740.776 -4.19407 9.29784 0
M  V30 8348 O 740.206 -5.24426 7.09156 0
M  V30 8349 O 740.746 -2.7935 7.20758 0
M  V30 8350 C 741.686 -1.7299 7.50419 0
M  V30 8351 C 740.956 -0.406376 7.57911 0
M  V30 8352 O 740.746 0.0897726 6.21935 0
M  V30 8353 C 739.556 -0.447224 8.1878 0
M  V30 8354 O 739.166 0.825065 8.71101 0
M  V30 8355 C 738.676 -0.783801 6.99623 0
M  V30 8356 C 739.386 -0.0619192 5.85967 0
M  V30 8357 N 739.336 -0.790462 4.56202 0
M  V30 8358 H 742.175 -1.93423 8.4679 0
M  V30 8359 H 742.447 -1.68852 6.70877 0
M  V30 8360 H 741.579 0.289041 8.15388 0
M  V30 8361 H 738.924 0.927006 5.72848 0
M  V30 8362 H 738.644 -1.86973 6.82036 0
M  V30 8363 H 737.653 -0.403953 7.13357 0
M  V30 8364 H 739.487 -1.20599 8.97534 0
M  V30 8365 P 737.616 1.17771 8.83182 0
M  V30 8366 O 737.396 2.07206 9.98732 0
M  V30 8367 O 736.826 -0.0743816 8.81969 0
M  V30 8368 O 737.366 1.97652 7.47304 0
M  V30 8369 C 738.306 3.01133 7.08783 0
M  V30 8370 C 737.576 4.12613 6.37049 0
M  V30 8371 O 737.366 3.72827 4.97879 0
M  V30 8372 C 736.176 4.45085 6.88694 0
M  V30 8373 O 735.786 5.7877 6.5624 0
M  V30 8374 C 735.296 3.47817 6.12078 0
M  V30 8375 C 736.006 3.39414 4.77697 0
M  V30 8376 N 735.956 2.04615 4.15333 0
M  V30 8377 H 738.795 3.41248 7.98759 0
M  V30 8378 H 739.067 2.5837 6.41742 0
M  V30 8379 H 738.199 5.02657 6.42673 0
M  V30 8380 P 734.236 6.144 6.45285 0
M  V30 8381 O 734.016 7.54673 6.86199 0
M  V30 8382 O 733.446 5.12391 7.179 0
M  V30 8383 O 733.986 5.99158 4.88404 0
M  V30 8384 C 734.926 6.60234 3.96415 0
M  V30 8385 C 734.196 7.08259 2.72856 0
M  V30 8386 O 733.986 5.9427 1.83651 0
M  V30 8387 C 732.796 7.64886 2.9555 0
M  V30 8388 O 732.406 8.53963 1.90717 0
M  V30 8389 C 731.916 6.4116 2.90739 0
M  V30 8390 C 732.626 5.55375 1.86963 0
M  V30 8391 N 732.576 4.09664 2.15742 0
M  V30 8392 H 735.415 7.45574 4.45629 0
M  V30 8393 H 735.687 5.86232 3.67314 0
M  V30 8394 H 734.819 7.84412 2.24479 0
M  V30 8395 P 730.856 8.7635 1.60911 0
M  V30 8396 O 730.636 10.1388 1.11561 0
M  V30 8397 O 730.066 8.36503 2.79617 0
M  V30 8398 O 730.606 7.71806 0.42951 0
M  V30 8399 C 731.546 7.67148 -0.673689 0
M  V30 8400 C 730.816 7.33374 -1.95559 0
M  V30 8401 O 730.606 5.88721 -2.00726 0
M  V30 8402 C 729.416 7.92526 -2.10483 0
M  V30 8403 O 729.026 8.02971 -3.47653 0
M  V30 8404 C 728.536 6.89602 -1.41652 0
M  V30 8405 C 729.246 5.59201 -1.75185 0
M  V30 8406 N 729.196 4.58235 -0.662552 0
M  V30 8407 H 732.035 8.65116 -0.777161 0
M  V30 8408 H 732.307 6.90173 -0.474152 0
M  V30 8409 H 731.439 7.66548 -2.79458 0
M  V30 8410 P 727.476 8.03563 -3.84925 0
M  V30 8411 O 727.256 8.85821 -5.0569 0
M  V30 8412 O 726.686 8.41101 -2.65469 0
M  V30 8413 O 727.226 6.4965 -4.18908 0
M  V30 8414 C 728.166 5.81037 -5.05421 0
M  V30 8415 C 727.436 4.78366 -5.89277 0
M  V30 8416 O 727.226 3.58302 -5.08433 0
M  V30 8417 C 726.036 5.17448 -6.36119 0
M  V30 8418 O 725.646 4.45271 -7.53232 0
M  V30 8419 C 725.156 4.74639 -5.19936 0
M  V30 8420 C 725.866 3.49432 -4.70418 0
M  V30 8421 N 725.816 3.31776 -3.22945 0
M  V30 8422 H 728.655 6.54213 -5.71376 0
M  V30 8423 H 728.927 5.30492 -4.44033 0
M  V30 8424 H 728.059 4.55889 -6.76652 0
M  V30 8425 P 724.096 4.23843 -7.83734 0
M  V30 8426 O 723.876 4.19407 -9.29784 0
M  V30 8427 O 723.306 5.24426 -7.09156 0
M  V30 8428 O 723.846 2.7935 -7.20758 0
M  V30 8429 C 724.786 1.72945 -7.50224 0
M  V30 8430 C 724.056 0.406376 -7.57911 0
M  V30 8431 O 723.846 -0.0897726 -6.21935 0
M  V30 8432 C 722.656 0.438983 -8.18724 0
M  V30 8433 O 722.266 -0.825065 -8.71101 0
M  V30 8434 C 721.776 0.783689 -6.99524 0
M  V30 8435 C 722.486 0.0619086 -5.85867 0
M  V30 8436 N 722.436 0.78573 -4.56183 0
M  V30 8437 C 722.286 0.0292889 -3.41887 0
M  V30 8438 O 722.196 -1.18445 -3.4419 0
M  V30 8439 N 722.246 0.744061 -2.23964 0
M  V30 8440 C 722.336 2.10932 -2.10362 0
M  V30 8441 O 722.286 2.64117 -0.98825 0
M  V30 8442 C 722.486 2.8202 -3.34994 0
M  V30 8443 C 722.596 4.31095 -3.25037 0
M  V30 8444 C 722.536 2.15547 -4.52261 0
M  V30 8445 H 725.277 1.93379 -8.46595 0
M  V30 8446 H 725.546 1.68132 -6.70852 0
M  V30 8447 H 724.679 -0.289041 -8.15388 0
M  V30 8448 H 722.024 -0.926847 -5.72749 0
M  V30 8449 H 721.745 1.86973 -6.82036 0
M  V30 8450 H 720.753 0.403896 -7.13257 0
M  V30 8451 H 722.587 1.20585 -8.97435 0
M  V30 8452 H 722.658 2.71231 -5.45042 0
M  V30 8453 H 721.628 4.76966 -3.49992 0
M  V30 8454 H 723.365 4.67047 -3.95024 0
M  V30 8455 H 722.877 4.58996 -2.22312 0
M  V30 8456 H 722.141 0.214893 -1.39758 0
M  V30 8457 P 720.716 -1.17771 -8.83182 0
M  V30 8458 O 720.496 -2.07206 -9.98732 0
M  V30 8459 O 719.926 0.0743816 -8.81969 0
M  V30 8460 O 720.466 -1.97652 -7.47304 0
M  V30 8461 C 721.406 -3.01133 -7.08783 0
M  V30 8462 C 720.676 -4.12613 -6.37049 0
M  V30 8463 O 720.466 -3.72827 -4.97879 0
M  V30 8464 C 719.276 -4.45085 -6.88694 0
M  V30 8465 O 718.886 -5.7877 -6.5624 0
M  V30 8466 C 718.396 -3.47817 -6.12078 0
M  V30 8467 C 719.106 -3.39414 -4.77697 0
M  V30 8468 N 719.056 -2.04615 -4.15333 0
M  V30 8469 H 721.895 -3.41248 -7.98759 0
M  V30 8470 H 722.167 -2.5837 -6.41742 0
M  V30 8471 H 721.299 -5.02657 -6.42673 0
M  V30 8472 P 717.336 -6.144 -6.45285 0
M  V30 8473 O 717.116 -7.54673 -6.86199 0
M  V30 8474 O 716.546 -5.12391 -7.179 0
M  V30 8475 O 717.086 -5.99158 -4.88404 0
M  V30 8476 C 718.026 -6.60234 -3.96415 0
M  V30 8477 C 717.296 -7.08259 -2.72856 0
M  V30 8478 O 717.086 -5.9427 -1.83651 0
M  V30 8479 C 715.896 -7.64886 -2.9555 0
M  V30 8480 O 715.506 -8.53963 -1.90717 0
M  V30 8481 C 715.016 -6.4116 -2.90739 0
M  V30 8482 C 715.726 -5.55375 -1.86963 0
M  V30 8483 N 715.676 -4.09664 -2.15742 0
M  V30 8484 H 718.515 -7.45574 -4.45629 0
M  V30 8485 H 718.787 -5.86232 -3.67314 0
M  V30 8486 H 717.919 -7.84412 -2.24479 0
M  V30 8487 P 713.956 -8.7635 -1.60911 0
M  V30 8488 O 713.736 -10.1388 -1.11561 0
M  V30 8489 O 713.166 -8.36503 -2.79617 0
M  V30 8490 O 713.706 -7.71806 -0.42951 0
M  V30 8491 C 714.646 -7.67148 0.673689 0
M  V30 8492 C 713.916 -7.33374 1.95559 0
M  V30 8493 O 713.706 -5.88721 2.00726 0
M  V30 8494 C 712.516 -7.92526 2.10483 0
M  V30 8495 O 712.126 -8.02971 3.47653 0
M  V30 8496 C 711.636 -6.89602 1.41652 0
M  V30 8497 C 712.346 -5.59201 1.75185 0
M  V30 8498 N 712.296 -4.58235 0.662552 0
M  V30 8499 H 715.135 -8.65116 0.777161 0
M  V30 8500 H 715.407 -6.90173 0.474152 0
M  V30 8501 H 714.539 -7.66548 2.79458 0
M  V30 8502 P 710.576 -8.03563 3.84925 0
M  V30 8503 O 710.356 -8.85821 5.0569 0
M  V30 8504 O 709.786 -8.41101 2.65469 0
M  V30 8505 O 710.326 -6.4965 4.18908 0
M  V30 8506 C 711.266 -5.81037 5.05421 0
M  V30 8507 C 710.536 -4.78366 5.89277 0
M  V30 8508 O 710.326 -3.58302 5.08433 0
M  V30 8509 C 709.136 -5.17448 6.36119 0
M  V30 8510 O 708.746 -4.45271 7.53232 0
M  V30 8511 C 708.256 -4.74639 5.19936 0
M  V30 8512 C 708.966 -3.49432 4.70418 0
M  V30 8513 N 708.916 -3.32099 3.22613 0
M  V30 8514 H 711.755 -6.54213 5.71376 0
M  V30 8515 H 712.027 -5.30936 4.43503 0
M  V30 8516 H 711.159 -4.55889 6.76652 0
M  V30 8517 H 708.504 -2.61715 5.17932 0
M  V30 8518 H 708.224 -5.52155 4.41878 0
M  V30 8519 H 707.233 -4.51981 5.53374 0
M  V30 8520 H 709.067 -6.25124 6.55234 0
M  V30 8521 P 707.196 -4.23843 7.83734 0
M  V30 8522 O 706.976 -4.19407 9.29784 0
M  V30 8523 O 706.406 -5.24426 7.09156 0
M  V30 8524 O 706.946 -2.79386 7.20852 0
M  V30 8525 C 707.886 -1.7299 7.50419 0
M  V30 8526 C 707.156 -0.41401 7.5797 0
M  V30 8527 O 706.946 0.089787 6.22035 0
M  V30 8528 C 705.756 -0.447224 8.1878 0
M  V30 8529 O 705.366 0.825159 8.71201 0
M  V30 8530 C 704.876 -0.783801 6.99623 0
M  V30 8531 C 705.586 -0.0619192 5.85967 0
M  V30 8532 N 705.536 -0.7859 4.56281 0
M  V30 8533 C 705.386 -0.0359258 3.39981 0
M  V30 8534 O 705.296 1.19723 3.49038 0
M  V30 8535 N 705.336 -0.869151 2.14025 0
M  V30 8536 C 705.436 -2.01207 2.14363 0
M  V30 8537 N 705.386 -2.58978 0.954287 0
M  V30 8538 C 705.586 -2.80817 3.32215 0
M  V30 8539 C 705.636 -2.13785 4.50884 0
M  V30 8540 H 708.376 -1.93401 8.46693 0
M  V30 8541 H 708.646 -1.68181 6.71046 0
M  V30 8542 H 707.779 0.289076 8.15488 0
M  V30 8543 H 705.124 0.927166 5.72947 0
M  V30 8544 H 704.844 -1.87 6.82132 0
M  V30 8545 H 703.853 -0.404009 7.13457 0
M  V30 8546 H 705.687 -1.20599 8.97534 0
M  V30 8547 H 705.759 -2.70295 5.43162 0
M  V30 8548 H 705.657 -3.89465 3.27406 0
M  V30 8549 H 705.269 -2.01616 0.107046 0
M  V30 8550 H 705.465 -3.61403 0.873101 0
M  V30 8551 P 703.816 1.17771 8.83182 0
M  V30 8552 O 703.596 2.07206 9.98732 0
M  V30 8553 O 703.026 -0.0743816 8.81969 0
M  V30 8554 O 703.566 1.97652 7.47304 0
M  V30 8555 C 704.506 3.01133 7.08783 0
M  V30 8556 C 703.776 4.12613 6.37049 0
M  V30 8557 O 703.566 3.72827 4.97879 0
M  V30 8558 C 702.376 4.45085 6.88694 0
M  V30 8559 O 701.986 5.7877 6.5624 0
M  V30 8560 C 701.496 3.47817 6.12078 0
M  V30 8561 C 702.206 3.39414 4.77697 0
M  V30 8562 N 702.156 2.04615 4.15333 0
M  V30 8563 C 702.236 0.803897 4.75249 0
M  V30 8564 N 702.156 -0.197615 3.91502 0
M  V30 8565 C 702.016 0.413002 2.66823 0
M  V30 8566 C 701.886 -0.157221 1.38007 0
M  V30 8567 O 701.866 -1.34419 1.057 0
M  V30 8568 N 701.766 0.833136 0.390236 0
M  V30 8569 C 701.766 2.19402 0.623885 0
M  V30 8570 N 701.636 2.97622 -0.449677 0
M  V30 8571 N 701.896 2.73005 1.83601 0
M  V30 8572 C 702.016 1.78786 2.80935 0
M  V30 8573 H 704.995 3.41248 7.98759 0
M  V30 8574 H 705.267 2.5837 6.41742 0
M  V30 8575 H 704.399 5.02657 6.42673 0
M  V30 8576 H 701.744 4.11779 4.09026 0
M  V30 8577 H 701.464 2.49661 6.61772 0
M  V30 8578 H 700.473 3.86674 6.00946 0
M  V30 8579 H 702.307 4.30038 7.97094 0
M  V30 8580 H 702.356 0.670579 5.82754 0
M  V30 8581 H 701.674 0.528446 -0.557287 0
M  V30 8582 H 701.637 4.00117 -0.344773 0
M  V30 8583 H 701.536 2.55448 -1.38544 0
M  V30 8584 P 700.436 6.144 6.45285 0
M  V30 8585 O 700.216 7.54673 6.86199 0
M  V30 8586 O 699.646 5.12391 7.179 0
M  V30 8587 O 700.186 5.99158 4.88404 0
M  V30 8588 C 701.126 6.60234 3.96415 0
M  V30 8589 C 700.396 7.08259 2.72856 0
M  V30 8590 O 700.186 5.9427 1.83651 0
M  V30 8591 C 698.996 7.64886 2.9555 0
M  V30 8592 O 698.606 8.53963 1.90717 0
M  V30 8593 C 698.116 6.4116 2.90739 0
M  V30 8594 C 698.826 5.55375 1.86963 0
M  V30 8595 N 698.776 4.09664 2.15742 0
M  V30 8596 H 701.615 7.45574 4.45629 0
M  V30 8597 H 701.887 5.86232 3.67314 0
M  V30 8598 H 701.019 7.84412 2.24479 0
M  V30 8599 P 697.056 8.7635 1.60911 0
M  V30 8600 O 696.836 10.1388 1.11561 0
M  V30 8601 O 696.266 8.36503 2.79617 0
M  V30 8602 O 696.806 7.71806 0.42951 0
M  V30 8603 C 697.746 7.67148 -0.673689 0
M  V30 8604 C 697.016 7.33374 -1.95559 0
M  V30 8605 O 696.806 5.88721 -2.00726 0
M  V30 8606 C 695.616 7.92526 -2.10483 0
M  V30 8607 O 695.226 8.02971 -3.47653 0
M  V30 8608 C 694.736 6.89602 -1.41652 0
M  V30 8609 C 695.446 5.59201 -1.75185 0
M  V30 8610 N 695.396 4.58235 -0.662552 0
M  V30 8611 H 698.235 8.65116 -0.777161 0
M  V30 8612 H 698.507 6.90173 -0.474152 0
M  V30 8613 H 697.639 7.66548 -2.79458 0
M  V30 8614 P 693.676 8.03563 -3.84925 0
M  V30 8615 O 693.456 8.85821 -5.0569 0
M  V30 8616 O 692.886 8.41101 -2.65469 0
M  V30 8617 O 693.426 6.4965 -4.18908 0
M  V30 8618 C 694.366 5.81037 -5.05421 0
M  V30 8619 C 693.636 4.78366 -5.89277 0
M  V30 8620 O 693.426 3.58302 -5.08433 0
M  V30 8621 C 692.236 5.17448 -6.36119 0
M  V30 8622 O 691.846 4.45271 -7.53232 0
M  V30 8623 C 691.356 4.74639 -5.19936 0
M  V30 8624 C 692.066 3.49432 -4.70418 0
M  V30 8625 N 692.016 3.31776 -3.22945 0
M  V30 8626 H 694.855 6.54213 -5.71376 0
M  V30 8627 H 695.127 5.30492 -4.44033 0
M  V30 8628 H 694.259 4.55889 -6.76652 0
M  V30 8629 P 690.296 4.23843 -7.83734 0
M  V30 8630 O 690.076 4.19407 -9.29784 0
M  V30 8631 O 689.506 5.24426 -7.09156 0
M  V30 8632 O 690.046 2.7935 -7.20758 0
M  V30 8633 C 690.986 1.7299 -7.50419 0
M  V30 8634 C 690.256 0.406376 -7.57911 0
M  V30 8635 O 690.046 -0.0897726 -6.21935 0
M  V30 8636 C 688.856 0.447224 -8.1878 0
M  V30 8637 O 688.466 -0.825065 -8.71101 0
M  V30 8638 C 687.976 0.783801 -6.99623 0
M  V30 8639 C 688.686 0.0619192 -5.85967 0
M  V30 8640 N 688.636 0.7859 -4.56281 0
M  V30 8641 H 691.475 1.93423 -8.4679 0
M  V30 8642 H 691.747 1.68181 -6.71046 0
M  V30 8643 H 690.879 -0.289041 -8.15388 0
M  V30 8644 P 686.916 -1.17771 -8.83182 0
M  V30 8645 O 686.696 -2.07206 -9.98732 0
M  V30 8646 O 686.126 0.0743816 -8.81969 0
M  V30 8647 O 686.666 -1.97652 -7.47304 0
M  V30 8648 C 687.606 -3.01133 -7.08783 0
M  V30 8649 C 686.876 -4.12613 -6.37049 0
M  V30 8650 O 686.666 -3.72827 -4.97879 0
M  V30 8651 C 685.476 -4.45085 -6.88694 0
M  V30 8652 O 685.086 -5.7877 -6.5624 0
M  V30 8653 C 684.596 -3.47817 -6.12078 0
M  V30 8654 C 685.306 -3.39414 -4.77697 0
M  V30 8655 N 685.256 -2.04199 -4.15538 0
M  V30 8656 H 688.095 -3.41248 -7.98759 0
M  V30 8657 H 688.367 -2.57728 -6.42 0
M  V30 8658 H 687.499 -5.02657 -6.42673 0
M  V30 8659 H 684.844 -4.11708 -4.08956 0
M  V30 8660 H 684.564 -2.49626 -6.61679 0
M  V30 8661 H 683.573 -3.8662 -6.00862 0
M  V30 8662 H 685.407 -4.29991 -7.97006 0
M  V30 8663 P 683.536 -6.144 -6.45285 0
M  V30 8664 O 683.316 -7.54673 -6.86199 0
M  V30 8665 O 682.746 -5.12391 -7.179 0
M  V30 8666 O 683.286 -5.99158 -4.88404 0
M  V30 8667 C 684.226 -6.60062 -3.96313 0
M  V30 8668 C 683.496 -7.08259 -2.72856 0
M  V30 8669 O 683.286 -5.9427 -1.83651 0
M  V30 8670 C 682.096 -7.65087 -2.94749 0
M  V30 8671 O 681.706 -8.53963 -1.90717 0
M  V30 8672 C 681.216 -6.41069 -2.90698 0
M  V30 8673 C 681.926 -5.5528 -1.86931 0
M  V30 8674 N 681.876 -4.09575 -2.15696 0
M  V30 8675 C 681.726 -3.24249 -1.08435 0
M  V30 8676 O 681.636 -3.63946 0.0628747 0
M  V30 8677 N 681.686 -1.90009 -1.39973 0
M  V30 8678 C 681.776 -1.34884 -2.65614 0
M  V30 8679 C 681.926 -2.3145 -3.71736 0
M  V30 8680 C 681.976 -3.63518 -3.44754 0
M  V30 8681 H 684.717 -7.45402 -4.45526 0
M  V30 8682 H 684.986 -5.86062 -3.67208 0
M  V30 8683 H 684.119 -7.84412 -2.24479 0
M  V30 8684 H 681.464 -5.73358 -0.888409 0
M  V30 8685 H 681.185 -5.90877 -3.88583 0
M  V30 8686 H 680.193 -6.65867 -2.58821 0
M  V30 8687 H 682.027 -8.16248 -3.92006 0
M  V30 8688 H 682.098 -4.34551 -4.26383 0
M  V30 8689 P 680.156 -8.7635 -1.60911 0
M  V30 8690 O 679.936 -10.1388 -1.11561 0
M  V30 8691 O 679.366 -8.36503 -2.79617 0
M  V30 8692 O 679.906 -7.71806 -0.42951 0
M  V30 8693 C 680.846 -7.67148 0.673689 0
M  V30 8694 C 680.116 -7.33374 1.95559 0
M  V30 8695 O 679.906 -5.88721 2.00726 0
M  V30 8696 C 678.716 -7.92526 2.10483 0
M  V30 8697 O 678.326 -8.02971 3.47653 0
M  V30 8698 C 677.836 -6.89602 1.41652 0
M  V30 8699 C 678.546 -5.59201 1.75185 0
M  V30 8700 N 678.496 -4.58301 0.657969 0
M  V30 8701 H 681.335 -8.65116 0.777161 0
M  V30 8702 H 681.607 -6.9022 0.46725 0
M  V30 8703 H 680.739 -7.66548 2.79458 0
M  V30 8704 H 678.084 -5.16165 2.65183 0
M  V30 8705 H 677.804 -7.06433 0.329384 0
M  V30 8706 H 676.813 -6.90926 1.82021 0
M  V30 8707 H 678.647 -8.90873 1.62657 0
M  V30 8708 P 676.776 -8.03563 3.84925 0
M  V30 8709 O 676.556 -8.85821 5.0569 0
M  V30 8710 O 675.986 -8.41101 2.65469 0
M  V30 8711 O 676.526 -6.4965 4.18908 0
M  V30 8712 C 677.466 -5.80886 5.05289 0
M  V30 8713 C 676.736 -4.78366 5.89277 0
M  V30 8714 O 676.526 -3.58302 5.08433 0
M  V30 8715 C 675.336 -5.16748 6.36559 0
M  V30 8716 O 674.946 -4.45271 7.53232 0
M  V30 8717 C 674.456 -4.74572 5.19863 0
M  V30 8718 C 675.166 -3.49373 4.70338 0
M  V30 8719 N 675.116 -3.31704 3.22876 0
M  V30 8720 C 674.966 -2.03326 2.74871 0
M  V30 8721 O 674.876 -1.06486 3.48076 0
M  V30 8722 N 674.926 -1.91838 1.37456 0
M  V30 8723 C 675.016 -2.94295 0.462035 0
M  V30 8724 O 674.966 -2.71763 -0.752928 0
M  V30 8725 C 675.166 -4.25064 1.05249 0
M  V30 8726 C 675.276 -5.39815 0.095697 0
M  V30 8727 C 675.216 -4.40214 2.39192 0
M  V30 8728 H 677.957 -6.54063 5.71245 0
M  V30 8729 H 678.226 -5.30339 4.43905 0
M  V30 8730 H 677.359 -4.55889 6.76652 0
M  V30 8731 H 674.704 -2.6167 5.17842 0
M  V30 8732 H 674.425 -5.52155 4.41878 0
M  V30 8733 H 673.433 -4.51918 5.53297 0
M  V30 8734 H 675.267 -6.25055 6.55162 0
M  V30 8735 H 675.338 -5.39798 2.81523 0
M  V30 8736 H 674.308 -5.91593 0.0279582 0
M  V30 8737 H 676.045 -6.10038 0.450573 0
M  V30 8738 H 675.557 -5.02007 -0.89937 0
M  V30 8739 H 674.821 -0.995326 1.00435 0
M  V30 8740 P 673.396 -4.23843 7.83734 0
M  V30 8741 O 673.176 -4.19407 9.29784 0
M  V30 8742 O 672.606 -5.24426 7.09156 0
M  V30 8743 O 673.146 -2.7935 7.20758 0
M  V30 8744 C 674.086 -1.7299 7.50419 0
M  V30 8745 C 673.356 -0.406376 7.57911 0
M  V30 8746 O 673.146 0.0897726 6.21935 0
M  V30 8747 C 671.956 -0.447224 8.1878 0
M  V30 8748 O 671.566 0.825065 8.71101 0
M  V30 8749 C 671.076 -0.783801 6.99623 0
M  V30 8750 C 671.786 -0.0619192 5.85967 0
M  V30 8751 N 671.736 -0.7859 4.56281 0
M  V30 8752 H 674.575 -1.93423 8.4679 0
M  V30 8753 H 674.847 -1.68181 6.71046 0
M  V30 8754 H 673.979 0.289041 8.15388 0
M  V30 8755 P 670.016 1.17771 8.83182 0
M  V30 8756 O 669.796 2.07206 9.98732 0
M  V30 8757 O 669.226 -0.0743816 8.81969 0
M  V30 8758 O 669.766 1.97678 7.474 0
M  V30 8759 C 670.706 3.01133 7.08783 0
M  V30 8760 C 669.976 4.1203 6.37546 0
M  V30 8761 O 669.766 3.72887 4.9796 0
M  V30 8762 C 668.576 4.45085 6.88694 0
M  V30 8763 O 668.186 5.78836 6.56315 0
M  V30 8764 C 667.696 3.47817 6.12078 0
M  V30 8765 C 668.406 3.39414 4.77697 0
M  V30 8766 N 668.356 2.04615 4.15333 0
M  V30 8767 C 668.206 1.96929 2.77162 0
M  V30 8768 O 668.116 3.02017 2.12006 0
M  V30 8769 N 668.156 0.55485 2.24237 0
M  V30 8770 C 668.256 -0.367808 2.9169 0
M  V30 8771 N 668.206 -1.53426 2.29427 0
M  V30 8772 C 668.406 -0.319148 4.33828 0
M  V30 8773 C 668.456 0.920672 4.90433 0
M  V30 8774 H 671.196 3.41209 7.98667 0
M  V30 8775 H 671.466 2.5837 6.41742 0
M  V30 8776 H 670.599 5.02718 6.42752 0
M  V30 8777 H 667.944 4.11779 4.09026 0
M  V30 8778 H 667.664 2.49661 6.61772 0
M  V30 8779 H 666.673 3.86674 6.00946 0
M  V30 8780 H 668.507 4.29991 7.97006 0
M  V30 8781 H 668.579 1.00589 5.98303 0
M  V30 8782 H 668.477 -1.22639 4.93799 0
M  V30 8783 H 668.089 -1.56819 1.27167 0
M  V30 8784 H 668.285 -2.41062 2.83063 0
M  V30 8785 P 666.636 6.144 6.45285 0
M  V30 8786 O 666.416 7.54673 6.86199 0
M  V30 8787 O 665.846 5.12391 7.179 0
M  V30 8788 O 666.386 5.99158 4.88404 0
M  V30 8789 C 667.326 6.60234 3.96415 0
M  V30 8790 C 666.596 7.08259 2.72856 0
M  V30 8791 O 666.386 5.9427 1.83651 0
M  V30 8792 C 665.196 7.64886 2.9555 0
M  V30 8793 O 664.806 8.53963 1.90717 0
M  V30 8794 C 664.316 6.4116 2.90739 0
M  V30 8795 C 665.026 5.55375 1.86963 0
M  V30 8796 N 664.976 4.09448 2.16152 0
M  V30 8797 H 667.815 7.45574 4.45629 0
M  V30 8798 H 668.087 5.85864 3.679 0
M  V30 8799 H 667.219 7.84412 2.24479 0
M  V30 8800 H 664.564 5.73457 0.888562 0
M  V30 8801 H 664.284 5.90877 3.88583 0
M  V30 8802 H 663.293 6.6596 2.58858 0
M  V30 8803 H 665.127 8.16339 3.92049 0
M  V30 8804 P 663.256 8.7635 1.60911 0
M  V30 8805 O 663.036 10.1388 1.11561 0
M  V30 8806 O 662.466 8.36503 2.79617 0
M  V30 8807 O 663.006 7.71806 0.42951 0
M  V30 8808 C 663.946 7.67148 -0.673689 0
M  V30 8809 C 663.216 7.33374 -1.95559 0
M  V30 8810 O 663.006 5.88721 -2.00726 0
M  V30 8811 C 661.816 7.92526 -2.10483 0
M  V30 8812 O 661.426 8.02971 -3.47653 0
M  V30 8813 C 660.936 6.89602 -1.41652 0
M  V30 8814 C 661.646 5.59201 -1.75185 0
M  V30 8815 N 661.596 4.58235 -0.662552 0
M  V30 8816 H 664.435 8.65116 -0.777161 0
M  V30 8817 H 664.707 6.90173 -0.474152 0
M  V30 8818 H 663.839 7.66548 -2.79458 0
M  V30 8819 P 659.876 8.03563 -3.84925 0
M  V30 8820 O 659.656 8.85821 -5.0569 0
M  V30 8821 O 659.086 8.41101 -2.65469 0
M  V30 8822 O 659.626 6.4965 -4.18908 0
M  V30 8823 C 660.566 5.81037 -5.05421 0
M  V30 8824 C 659.836 4.78366 -5.89277 0
M  V30 8825 O 659.626 3.58302 -5.08433 0
M  V30 8826 C 658.436 5.17448 -6.36119 0
M  V30 8827 O 658.046 4.45271 -7.53232 0
M  V30 8828 C 657.556 4.74639 -5.19936 0
M  V30 8829 C 658.266 3.49432 -4.70418 0
M  V30 8830 N 658.216 3.31776 -3.22945 0
M  V30 8831 H 661.055 6.54213 -5.71376 0
M  V30 8832 H 661.327 5.30492 -4.44033 0
M  V30 8833 H 660.459 4.55889 -6.76652 0
M  V30 8834 P 656.496 4.23843 -7.83734 0
M  V30 8835 O 656.276 4.19407 -9.29784 0
M  V30 8836 O 655.706 5.24426 -7.09156 0
M  V30 8837 O 656.246 2.7935 -7.20758 0
M  V30 8838 C 657.186 1.7299 -7.50419 0
M  V30 8839 C 656.456 0.406376 -7.57911 0
M  V30 8840 O 656.246 -0.0897726 -6.21935 0
M  V30 8841 C 655.056 0.447224 -8.1878 0
M  V30 8842 O 654.666 -0.825065 -8.71101 0
M  V30 8843 C 654.176 0.783801 -6.99623 0
M  V30 8844 C 654.886 0.0619192 -5.85967 0
M  V30 8845 N 654.836 0.790462 -4.56202 0
M  V30 8846 H 657.675 1.93423 -8.4679 0
M  V30 8847 H 657.947 1.68852 -6.70877 0
M  V30 8848 H 657.079 -0.289041 -8.15388 0
M  V30 8849 H 654.424 -0.927006 -5.72848 0
M  V30 8850 H 654.144 1.86973 -6.82036 0
M  V30 8851 H 653.153 0.403953 -7.13357 0
M  V30 8852 H 654.987 1.20599 -8.97534 0
M  V30 8853 P 653.116 -1.17771 -8.83182 0
M  V30 8854 O 652.896 -2.07206 -9.98732 0
M  V30 8855 O 652.326 0.0743816 -8.81969 0
M  V30 8856 O 652.866 -1.97652 -7.47304 0
M  V30 8857 C 653.806 -3.01055 -7.08599 0
M  V30 8858 C 653.076 -4.12613 -6.37049 0
M  V30 8859 O 652.866 -3.72827 -4.97879 0
M  V30 8860 C 651.676 -4.45719 -6.88164 0
M  V30 8861 O 651.286 -5.7877 -6.5624 0
M  V30 8862 C 650.796 -3.47768 -6.11991 0
M  V30 8863 C 651.506 -3.39356 -4.77615 0
M  V30 8864 N 651.456 -2.04571 -4.15244 0
M  V30 8865 C 651.306 -1.98587 -2.78314 0
M  V30 8866 O 651.216 -2.98134 -2.08835 0
M  V30 8867 N 651.266 -0.714467 -2.24925 0
M  V30 8868 C 651.356 0.470001 -2.94169 0
M  V30 8869 C 651.506 0.312541 -4.36783 0
M  V30 8870 C 651.556 -0.914512 -4.92583 0
M  V30 8871 H 654.297 -3.41169 -7.98575 0
M  V30 8872 H 654.566 -2.58295 -6.41556 0
M  V30 8873 H 653.699 -5.02657 -6.42673 0
M  V30 8874 H 651.044 -4.11637 -4.08885 0
M  V30 8875 H 650.765 -2.49626 -6.61679 0
M  V30 8876 H 649.773 -3.86566 -6.00778 0
M  V30 8877 H 651.607 -4.29943 -7.96918 0
M  V30 8878 H 651.678 -1.00937 -6.00374 0
M  V30 8879 P 649.736 -6.144 -6.45285 0
M  V30 8880 O 649.516 -7.54673 -6.86199 0
M  V30 8881 O 648.946 -5.12391 -7.179 0
M  V30 8882 O 649.486 -5.99158 -4.88404 0
M  V30 8883 C 650.426 -6.60234 -3.96415 0
M  V30 8884 C 649.696 -7.08259 -2.72856 0
M  V30 8885 O 649.486 -5.9427 -1.83651 0
M  V30 8886 C 648.296 -7.64886 -2.9555 0
M  V30 8887 O 647.906 -8.53963 -1.90717 0
M  V30 8888 C 647.416 -6.4116 -2.90739 0
M  V30 8889 C 648.126 -5.55375 -1.86963 0
M  V30 8890 N 648.076 -4.09664 -2.15742 0
M  V30 8891 H 650.915 -7.45574 -4.45629 0
M  V30 8892 H 651.187 -5.86232 -3.67314 0
M  V30 8893 H 650.319 -7.84412 -2.24479 0
M  V30 8894 P 646.356 -8.7635 -1.60911 0
M  V30 8895 O 646.136 -10.1388 -1.11561 0
M  V30 8896 O 645.566 -8.36503 -2.79617 0
M  V30 8897 O 646.106 -7.71806 -0.42951 0
M  V30 8898 C 647.046 -7.66948 0.673514 0
M  V30 8899 C 646.316 -7.33374 1.95559 0
M  V30 8900 O 646.106 -5.88721 2.00726 0
M  V30 8901 C 644.916 -7.92218 2.1125 0
M  V30 8902 O 644.526 -8.02971 3.47653 0
M  V30 8903 C 644.036 -6.89504 1.41631 0
M  V30 8904 C 644.746 -5.59106 1.75155 0
M  V30 8905 N 644.696 -4.58136 0.662409 0
M  V30 8906 C 644.546 -3.26059 1.02863 0
M  V30 8907 O 644.456 -2.90743 2.19009 0
M  V30 8908 N 644.506 -2.35995 -0.0155585 0
M  V30 8909 C 644.596 -2.65248 -1.35603 0
M  V30 8910 O 644.546 -1.75605 -2.20651 0
M  V30 8911 C 644.746 -4.05747 -1.64698 0
M  V30 8912 C 644.856 -4.42345 -3.09553 0
M  V30 8913 C 644.796 -4.96734 -0.652411 0
M  V30 8914 H 647.537 -8.64917 0.776982 0
M  V30 8915 H 647.806 -6.89974 0.474015 0
M  V30 8916 H 646.939 -7.66548 2.79458 0
M  V30 8917 H 644.284 -5.16076 2.65138 0
M  V30 8918 H 644.005 -7.06433 0.329384 0
M  V30 8919 H 643.013 -6.90829 1.81996 0
M  V30 8920 H 644.847 -8.90774 1.62639 0
M  V30 8921 H 644.918 -6.02181 -0.895285 0
M  V30 8922 H 643.888 -4.80252 -3.45468 0
M  V30 8923 H 645.625 -5.20015 -3.22119 0
M  V30 8924 H 645.137 -3.53269 -3.67833 0
M  V30 8925 H 644.401 -1.39558 0.227499 0
M  V30 8926 P 642.976 -8.03563 3.84925 0
M  V30 8927 O 642.756 -8.85821 5.0569 0
M  V30 8928 O 642.186 -8.41101 2.65469 0
M  V30 8929 O 642.726 -6.4965 4.18908 0
M  V30 8930 C 643.666 -5.81037 5.05421 0
M  V30 8931 C 642.936 -4.78366 5.89277 0
M  V30 8932 O 642.726 -3.58302 5.08433 0
M  V30 8933 C 641.536 -5.17448 6.36119 0
M  V30 8934 O 641.146 -4.45271 7.53232 0
M  V30 8935 C 640.656 -4.74639 5.19936 0
M  V30 8936 C 641.366 -3.49432 4.70418 0
M  V30 8937 N 641.316 -3.31776 3.22945 0
M  V30 8938 H 644.155 -6.54213 5.71376 0
M  V30 8939 H 644.427 -5.30492 4.44033 0
M  V30 8940 H 643.559 -4.55889 6.76652 0
M  V30 8941 P 639.596 -4.23843 7.83734 0
M  V30 8942 O 639.376 -4.19407 9.29784 0
M  V30 8943 O 638.806 -5.24426 7.09156 0
M  V30 8944 O 639.346 -2.7935 7.20758 0
M  V30 8945 C 640.286 -1.7299 7.50419 0
M  V30 8946 C 639.556 -0.406376 7.57911 0
M  V30 8947 O 639.346 0.0897726 6.21935 0
M  V30 8948 C 638.156 -0.447224 8.1878 0
M  V30 8949 O 637.766 0.825065 8.71101 0
M  V30 8950 C 637.276 -0.783801 6.99623 0
M  V30 8951 C 637.986 -0.0619192 5.85967 0
M  V30 8952 N 637.936 -0.790462 4.56202 0
M  V30 8953 H 640.775 -1.93423 8.4679 0
M  V30 8954 H 641.047 -1.68852 6.70877 0
M  V30 8955 H 640.179 0.289041 8.15388 0
M  V30 8956 H 637.524 0.927006 5.72848 0
M  V30 8957 H 637.244 -1.86973 6.82036 0
M  V30 8958 H 636.253 -0.403953 7.13357 0
M  V30 8959 H 638.087 -1.20599 8.97534 0
M  V30 8960 P 636.216 1.17771 8.83182 0
M  V30 8961 O 635.996 2.07206 9.98732 0
M  V30 8962 O 635.426 -0.0743816 8.81969 0
M  V30 8963 O 635.966 1.97652 7.47304 0
M  V30 8964 C 636.906 3.01133 7.08783 0
M  V30 8965 C 636.176 4.12613 6.37049 0
M  V30 8966 O 635.966 3.72827 4.97879 0
M  V30 8967 C 634.776 4.45085 6.88694 0
M  V30 8968 O 634.386 5.7877 6.5624 0
M  V30 8969 C 633.896 3.47817 6.12078 0
M  V30 8970 C 634.606 3.39414 4.77697 0
M  V30 8971 N 634.556 2.04615 4.15333 0
M  V30 8972 H 637.395 3.41248 7.98759 0
M  V30 8973 H 637.667 2.5837 6.41742 0
M  V30 8974 H 636.799 5.02657 6.42673 0
M  V30 8975 P 632.836 6.144 6.45285 0
M  V30 8976 O 632.616 7.54673 6.86199 0
M  V30 8977 O 632.046 5.12391 7.179 0
M  V30 8978 O 632.586 5.99158 4.88404 0
M  V30 8979 C 633.526 6.60062 3.96313 0
M  V30 8980 C 632.796 7.08259 2.72856 0
M  V30 8981 O 632.586 5.9427 1.83651 0
M  V30 8982 C 631.396 7.65087 2.94749 0
M  V30 8983 O 631.006 8.53963 1.90717 0
M  V30 8984 C 630.516 6.41069 2.90698 0
M  V30 8985 C 631.226 5.5528 1.86931 0
M  V30 8986 N 631.176 4.09575 2.15696 0
M  V30 8987 C 631.026 3.24249 1.08435 0
M  V30 8988 O 630.936 3.63946 -0.0628747 0
M  V30 8989 N 630.986 1.90009 1.39973 0
M  V30 8990 C 631.076 1.34884 2.65614 0
M  V30 8991 C 631.226 2.3145 3.71736 0
M  V30 8992 C 631.276 3.63518 3.44754 0
M  V30 8993 H 634.017 7.45402 4.45526 0
M  V30 8994 H 634.286 5.86062 3.67208 0
M  V30 8995 H 633.419 7.84412 2.24479 0
M  V30 8996 H 630.764 5.73358 0.888409 0
M  V30 8997 H 630.485 5.90877 3.88583 0
M  V30 8998 H 629.493 6.65867 2.58821 0
M  V30 8999 H 631.327 8.16248 3.92006 0
M  V30 9000 H 631.398 4.34551 4.26383 0
M  V30 9001 P 629.456 8.7635 1.60911 0
M  V30 9002 O 629.236 10.1388 1.11561 0
M  V30 9003 O 628.666 8.36503 2.79617 0
M  V30 9004 O 629.206 7.71806 0.42951 0
M  V30 9005 C 630.146 7.67148 -0.673689 0
M  V30 9006 C 629.416 7.33374 -1.95559 0
M  V30 9007 O 629.206 5.88721 -2.00726 0
M  V30 9008 C 628.016 7.92526 -2.10483 0
M  V30 9009 O 627.626 8.02971 -3.47653 0
M  V30 9010 C 627.136 6.89602 -1.41652 0
M  V30 9011 C 627.846 5.59201 -1.75185 0
M  V30 9012 N 627.796 4.58235 -0.662552 0
M  V30 9013 H 630.635 8.65116 -0.777161 0
M  V30 9014 H 630.907 6.90173 -0.474152 0
M  V30 9015 H 630.039 7.66548 -2.79458 0
M  V30 9016 P 626.076 8.03563 -3.84925 0
M  V30 9017 O 625.856 8.85821 -5.0569 0
M  V30 9018 O 625.286 8.41101 -2.65469 0
M  V30 9019 O 625.826 6.4965 -4.18908 0
M  V30 9020 C 626.766 5.80886 -5.05289 0
M  V30 9021 C 626.036 4.78366 -5.89277 0
M  V30 9022 O 625.826 3.58302 -5.08433 0
M  V30 9023 C 624.636 5.16748 -6.36559 0
M  V30 9024 O 624.246 4.45271 -7.53232 0
M  V30 9025 C 623.756 4.74572 -5.19863 0
M  V30 9026 C 624.466 3.49373 -4.70338 0
M  V30 9027 N 624.416 3.31704 -3.22876 0
M  V30 9028 C 624.266 2.03326 -2.74871 0
M  V30 9029 O 624.176 1.06486 -3.48076 0
M  V30 9030 N 624.226 1.91838 -1.37456 0
M  V30 9031 C 624.316 2.94295 -0.462035 0
M  V30 9032 C 624.466 4.25064 -1.05249 0
M  V30 9033 C 624.516 4.40214 -2.39192 0
M  V30 9034 H 627.257 6.54063 -5.71245 0
M  V30 9035 H 627.526 5.30339 -4.43905 0
M  V30 9036 H 626.659 4.55889 -6.76652 0
M  V30 9037 H 624.004 2.6167 -5.17842 0
M  V30 9038 H 623.725 5.52155 -4.41878 0
M  V30 9039 H 622.733 4.51918 -5.53297 0
M  V30 9040 H 624.567 6.25055 -6.55162 0
M  V30 9041 H 624.638 5.39798 -2.81523 0
M  V30 9042 P 622.696 4.23843 -7.83734 0
M  V30 9043 O 622.476 4.19407 -9.29784 0
M  V30 9044 O 621.906 5.24426 -7.09156 0
M  V30 9045 O 622.446 2.7935 -7.20758 0
M  V30 9046 C 623.386 1.7299 -7.50419 0
M  V30 9047 C 622.656 0.406376 -7.57911 0
M  V30 9048 O 622.446 -0.0897726 -6.21935 0
M  V30 9049 C 621.256 0.447224 -8.1878 0
M  V30 9050 O 620.866 -0.825065 -8.71101 0
M  V30 9051 C 620.376 0.783801 -6.99623 0
M  V30 9052 C 621.086 0.0619192 -5.85967 0
M  V30 9053 N 621.036 0.7859 -4.56281 0
M  V30 9054 C 621.116 2.14308 -4.31736 0
M  V30 9055 N 621.036 2.46106 -3.05116 0
M  V30 9056 C 620.896 1.23422 -2.4014 0
M  V30 9057 C 620.766 0.938381 -1.02409 0
M  V30 9058 N 620.646 -0.444647 -0.805413 0
M  V30 9059 C 620.646 -1.40829 -1.79435 0
M  V30 9060 N 620.516 -2.67213 -1.38558 0
M  V30 9061 N 620.776 -1.12947 -3.09005 0
M  V30 9062 C 620.896 0.204887 -3.32369 0
M  V30 9063 H 623.875 1.93423 -8.4679 0
M  V30 9064 H 624.147 1.68181 -6.71046 0
M  V30 9065 H 623.279 -0.289041 -8.15388 0
M  V30 9066 P 619.316 -1.17771 -8.83182 0
M  V30 9067 O 619.096 -2.07206 -9.98732 0
M  V30 9068 O 618.526 0.0743816 -8.81969 0
M  V30 9069 O 619.066 -1.97652 -7.47304 0
M  V30 9070 C 620.006 -3.01133 -7.08783 0
M  V30 9071 C 619.276 -4.12613 -6.37049 0
M  V30 9072 O 619.066 -3.72827 -4.97879 0
M  V30 9073 C 617.876 -4.45085 -6.88694 0
M  V30 9074 O 617.486 -5.7877 -6.5624 0
M  V30 9075 C 616.996 -3.47817 -6.12078 0
M  V30 9076 C 617.706 -3.39414 -4.77697 0
M  V30 9077 N 617.656 -2.04615 -4.15333 0
M  V30 9078 H 620.495 -3.41248 -7.98759 0
M  V30 9079 H 620.767 -2.5837 -6.41742 0
M  V30 9080 H 619.899 -5.02657 -6.42673 0
M  V30 9081 P 615.936 -6.144 -6.45285 0
M  V30 9082 O 615.716 -7.54673 -6.86199 0
M  V30 9083 O 615.146 -5.12391 -7.179 0
M  V30 9084 O 615.686 -5.99158 -4.88404 0
M  V30 9085 C 616.626 -6.60234 -3.96415 0
M  V30 9086 C 615.896 -7.08259 -2.72856 0
M  V30 9087 O 615.686 -5.9427 -1.83651 0
M  V30 9088 C 614.496 -7.64886 -2.9555 0
M  V30 9089 O 614.106 -8.53963 -1.90717 0
M  V30 9090 C 613.616 -6.4116 -2.90739 0
M  V30 9091 C 614.326 -5.55375 -1.86963 0
M  V30 9092 N 614.276 -4.09664 -2.15742 0
M  V30 9093 H 617.115 -7.45574 -4.45629 0
M  V30 9094 H 617.387 -5.86232 -3.67314 0
M  V30 9095 H 616.519 -7.84412 -2.24479 0
M  V30 9096 P 612.556 -8.7635 -1.60911 0
M  V30 9097 O 612.336 -10.1388 -1.11561 0
M  V30 9098 O 611.766 -8.36503 -2.79617 0
M  V30 9099 O 612.306 -7.71806 -0.42951 0
M  V30 9100 C 613.246 -7.66948 0.673514 0
M  V30 9101 C 612.516 -7.33374 1.95559 0
M  V30 9102 O 612.306 -5.88721 2.00726 0
M  V30 9103 C 611.116 -7.92218 2.1125 0
M  V30 9104 O 610.726 -8.02971 3.47653 0
M  V30 9105 C 610.236 -6.89504 1.41631 0
M  V30 9106 C 610.946 -5.59106 1.75155 0
M  V30 9107 N 610.896 -4.58136 0.662409 0
M  V30 9108 C 610.746 -3.26059 1.02863 0
M  V30 9109 O 610.656 -2.90743 2.19009 0
M  V30 9110 N 610.706 -2.35995 -0.0155585 0
M  V30 9111 C 610.796 -2.65248 -1.35603 0
M  V30 9112 C 610.946 -4.05747 -1.64698 0
M  V30 9113 C 610.996 -4.96734 -0.652411 0
M  V30 9114 H 613.737 -8.64917 0.776982 0
M  V30 9115 H 614.006 -6.89974 0.474015 0
M  V30 9116 H 613.139 -7.66548 2.79458 0
M  V30 9117 H 610.484 -5.16076 2.65138 0
M  V30 9118 H 610.205 -7.06433 0.329384 0
M  V30 9119 H 609.213 -6.90829 1.81996 0
M  V30 9120 H 611.047 -8.90774 1.62639 0
M  V30 9121 H 611.118 -6.02181 -0.895285 0
M  V30 9122 P 609.176 -8.03563 3.84925 0
M  V30 9123 O 608.956 -8.85821 5.0569 0
M  V30 9124 O 608.386 -8.41101 2.65469 0
M  V30 9125 O 608.926 -6.4965 4.18908 0
M  V30 9126 C 609.866 -5.81037 5.05421 0
M  V30 9127 C 609.136 -4.78366 5.89277 0
M  V30 9128 O 608.926 -3.58302 5.08433 0
M  V30 9129 C 607.736 -5.17448 6.36119 0
M  V30 9130 O 607.346 -4.45271 7.53232 0
M  V30 9131 C 606.856 -4.74639 5.19936 0
M  V30 9132 C 607.566 -3.49432 4.70418 0
M  V30 9133 N 607.516 -3.31776 3.22945 0
M  V30 9134 H 610.355 -6.54213 5.71376 0
M  V30 9135 H 610.627 -5.30492 4.44033 0
M  V30 9136 H 609.759 -4.55889 6.76652 0
M  V30 9137 P 605.796 -4.23843 7.83734 0
M  V30 9138 O 605.576 -4.19407 9.29784 0
M  V30 9139 O 605.006 -5.24426 7.09156 0
M  V30 9140 O 605.546 -2.7935 7.20758 0
M  V30 9141 C 606.486 -1.7299 7.50419 0
M  V30 9142 C 605.756 -0.406376 7.57911 0
M  V30 9143 O 605.546 0.0897726 6.21935 0
M  V30 9144 C 604.356 -0.447224 8.1878 0
M  V30 9145 O 603.966 0.825065 8.71101 0
M  V30 9146 C 603.476 -0.783801 6.99623 0
M  V30 9147 C 604.186 -0.0619192 5.85967 0
M  V30 9148 N 604.136 -0.7859 4.56281 0
M  V30 9149 H 606.975 -1.93423 8.4679 0
M  V30 9150 H 607.247 -1.68181 6.71046 0
M  V30 9151 H 606.379 0.289041 8.15388 0
M  V30 9152 P 602.416 1.17771 8.83182 0
M  V30 9153 O 602.196 2.07206 9.98732 0
M  V30 9154 O 601.626 -0.0743816 8.81969 0
M  V30 9155 O 602.166 1.97678 7.474 0
M  V30 9156 C 603.106 3.01133 7.08783 0
M  V30 9157 C 602.376 4.1203 6.37546 0
M  V30 9158 O 602.166 3.72887 4.9796 0
M  V30 9159 C 600.976 4.45085 6.88694 0
M  V30 9160 O 600.586 5.78836 6.56315 0
M  V30 9161 C 600.096 3.47817 6.12078 0
M  V30 9162 C 600.806 3.39414 4.77697 0
M  V30 9163 N 600.756 2.04615 4.15333 0
M  V30 9164 C 600.606 1.96929 2.77162 0
M  V30 9165 O 600.516 3.02017 2.12006 0
M  V30 9166 N 600.556 0.55485 2.24237 0
M  V30 9167 C 600.656 -0.367808 2.9169 0
M  V30 9168 N 600.606 -1.53426 2.29427 0
M  V30 9169 C 600.806 -0.319148 4.33828 0
M  V30 9170 C 600.856 0.920672 4.90433 0
M  V30 9171 H 603.596 3.41209 7.98667 0
M  V30 9172 H 603.866 2.5837 6.41742 0
M  V30 9173 H 602.999 5.02718 6.42752 0
M  V30 9174 H 600.344 4.11779 4.09026 0
M  V30 9175 H 600.064 2.49661 6.61772 0
M  V30 9176 H 599.073 3.86674 6.00946 0
M  V30 9177 H 600.907 4.29991 7.97006 0
M  V30 9178 H 600.979 1.00589 5.98303 0
M  V30 9179 H 600.877 -1.22639 4.93799 0
M  V30 9180 H 600.489 -1.56819 1.27167 0
M  V30 9181 H 600.685 -2.41062 2.83063 0
M  V30 9182 P 599.036 6.144 6.45285 0
M  V30 9183 O 598.816 7.54673 6.86199 0
M  V30 9184 O 598.246 5.12391 7.179 0
M  V30 9185 O 598.786 5.99158 4.88404 0
M  V30 9186 C 599.726 6.60062 3.96313 0
M  V30 9187 C 598.996 7.08259 2.72856 0
M  V30 9188 O 598.786 5.9427 1.83651 0
M  V30 9189 C 597.596 7.65087 2.94749 0
M  V30 9190 O 597.206 8.53963 1.90717 0
M  V30 9191 C 596.716 6.41069 2.90698 0
M  V30 9192 C 597.426 5.5528 1.86931 0
M  V30 9193 N 597.376 4.09575 2.15696 0
M  V30 9194 C 597.226 3.24249 1.08435 0
M  V30 9195 O 597.136 3.63946 -0.0628747 0
M  V30 9196 N 597.186 1.90009 1.39973 0
M  V30 9197 C 597.276 1.34884 2.65614 0
M  V30 9198 C 597.426 2.3145 3.71736 0
M  V30 9199 C 597.476 3.63518 3.44754 0
M  V30 9200 H 600.217 7.45402 4.45526 0
M  V30 9201 H 600.486 5.86062 3.67208 0
M  V30 9202 H 599.619 7.84412 2.24479 0
M  V30 9203 H 596.964 5.73358 0.888409 0
M  V30 9204 H 596.685 5.90877 3.88583 0
M  V30 9205 H 595.693 6.65867 2.58821 0
M  V30 9206 H 597.527 8.16248 3.92006 0
M  V30 9207 H 597.598 4.34551 4.26383 0
M  V30 9208 P 595.656 8.7635 1.60911 0
M  V30 9209 O 595.437 10.1388 1.11561 0
M  V30 9210 O 594.866 8.36503 2.79617 0
M  V30 9211 O 595.406 7.71906 0.429565 0
M  V30 9212 C 596.346 7.67148 -0.673689 0
M  V30 9213 C 595.616 7.33666 -1.94851 0
M  V30 9214 O 595.406 5.88816 -2.00759 0
M  V30 9215 C 594.216 7.92526 -2.10483 0
M  V30 9216 O 593.827 8.03063 -3.47693 0
M  V30 9217 C 593.337 6.89602 -1.41652 0
M  V30 9218 C 594.046 5.59201 -1.75185 0
M  V30 9219 N 593.996 4.58235 -0.662552 0
M  V30 9220 C 593.846 3.24451 -1.01643 0
M  V30 9221 O 593.756 2.94958 -2.21722 0
M  V30 9222 N 593.796 2.30408 0.165238 0
M  V30 9223 C 593.896 2.66048 1.25118 0
M  V30 9224 N 593.846 1.70787 2.16813 0
M  V30 9225 C 594.046 4.02732 1.64413 0
M  V30 9226 C 594.096 4.9488 0.63991 0
M  V30 9227 H 596.837 8.65017 -0.777072 0
M  V30 9228 H 597.106 6.90173 -0.474152 0
M  V30 9229 H 596.24 7.66642 -2.79492 0
M  V30 9230 H 593.584 5.16254 -2.65229 0
M  V30 9231 H 593.304 7.06532 -0.329431 0
M  V30 9232 H 592.313 6.91023 -1.82047 0
M  V30 9233 H 594.147 8.90873 -1.62657 0
M  V30 9234 H 594.219 6.00104 0.892197 0
M  V30 9235 H 594.117 4.31733 2.69229 0
M  V30 9236 H 593.729 0.724835 1.8844 0
M  V30 9237 H 593.925 1.94716 3.16734 0
M  V30 9238 P 592.277 8.03563 -3.84925 0
M  V30 9239 O 592.057 8.85821 -5.0569 0
M  V30 9240 O 591.487 8.41101 -2.65469 0
M  V30 9241 O 592.027 6.4965 -4.18908 0
M  V30 9242 C 592.967 5.80886 -5.05289 0
M  V30 9243 C 592.237 4.78366 -5.89277 0
M  V30 9244 O 592.027 3.58302 -5.08433 0
M  V30 9245 C 590.837 5.16748 -6.36559 0
M  V30 9246 O 590.447 4.45271 -7.53232 0
M  V30 9247 C 589.957 4.74572 -5.19863 0
M  V30 9248 C 590.667 3.49373 -4.70338 0
M  V30 9249 N 590.617 3.31704 -3.22876 0
M  V30 9250 C 590.467 2.03326 -2.74871 0
M  V30 9251 O 590.377 1.06486 -3.48076 0
M  V30 9252 N 590.427 1.91838 -1.37456 0
M  V30 9253 C 590.517 2.94295 -0.462035 0
M  V30 9254 O 590.467 2.71763 0.752928 0
M  V30 9255 C 590.667 4.25064 -1.05249 0
M  V30 9256 C 590.777 5.39815 -0.095697 0
M  V30 9257 C 590.717 4.40214 -2.39192 0
M  V30 9258 H 593.458 6.54063 -5.71245 0
M  V30 9259 H 593.727 5.30339 -4.43905 0
M  V30 9260 H 592.86 4.55889 -6.76652 0
M  V30 9261 H 590.205 2.6167 -5.17842 0
M  V30 9262 H 589.926 5.52155 -4.41878 0
M  V30 9263 H 588.934 4.51918 -5.53297 0
M  V30 9264 H 590.768 6.25055 -6.55162 0
M  V30 9265 H 590.839 5.39798 -2.81523 0
M  V30 9266 H 589.809 5.91593 -0.0279582 0
M  V30 9267 H 591.546 6.10038 -0.450573 0
M  V30 9268 H 591.058 5.02007 0.89937 0
M  V30 9269 H 590.322 0.995326 -1.00435 0
M  V30 9270 P 588.897 4.23843 -7.83734 0
M  V30 9271 O 588.677 4.19407 -9.29784 0
M  V30 9272 O 588.107 5.24426 -7.09156 0
M  V30 9273 O 588.647 2.7935 -7.20758 0
M  V30 9274 C 589.587 1.7299 -7.50419 0
M  V30 9275 C 588.857 0.406376 -7.57911 0
M  V30 9276 O 588.647 -0.0897726 -6.21935 0
M  V30 9277 C 587.457 0.447224 -8.1878 0
M  V30 9278 O 587.067 -0.825065 -8.71101 0
M  V30 9279 C 586.577 0.783801 -6.99623 0
M  V30 9280 C 587.287 0.0619192 -5.85967 0
M  V30 9281 N 587.237 0.7859 -4.56281 0
M  V30 9282 H 590.076 1.93423 -8.4679 0
M  V30 9283 H 590.348 1.68181 -6.71046 0
M  V30 9284 H 589.48 -0.289041 -8.15388 0
M  V30 9285 P 585.517 -1.17771 -8.83182 0
M  V30 9286 O 585.297 -2.07206 -9.98732 0
M  V30 9287 O 584.727 0.0743816 -8.81969 0
M  V30 9288 O 585.267 -1.97652 -7.47304 0
M  V30 9289 C 586.207 -3.01133 -7.08783 0
M  V30 9290 C 585.477 -4.12613 -6.37049 0
M  V30 9291 O 585.267 -3.72827 -4.97879 0
M  V30 9292 C 584.077 -4.45085 -6.88694 0
M  V30 9293 O 583.687 -5.7877 -6.5624 0
M  V30 9294 C 583.197 -3.47817 -6.12078 0
M  V30 9295 C 583.907 -3.39414 -4.77697 0
M  V30 9296 N 583.857 -2.04615 -4.15333 0
M  V30 9297 H 586.696 -3.41248 -7.98759 0
M  V30 9298 H 586.968 -2.5837 -6.41742 0
M  V30 9299 H 586.1 -5.02657 -6.42673 0
M  V30 9300 P 582.137 -6.144 -6.45285 0
M  V30 9301 O 581.917 -7.54673 -6.86199 0
M  V30 9302 O 581.347 -5.12391 -7.179 0
M  V30 9303 O 581.887 -5.99158 -4.88404 0
M  V30 9304 C 582.827 -6.60234 -3.96415 0
M  V30 9305 C 582.097 -7.08259 -2.72856 0
M  V30 9306 O 581.887 -5.9427 -1.83651 0
M  V30 9307 C 580.697 -7.64886 -2.9555 0
M  V30 9308 O 580.307 -8.53963 -1.90717 0
M  V30 9309 C 579.817 -6.4116 -2.90739 0
M  V30 9310 C 580.527 -5.55375 -1.86963 0
M  V30 9311 N 580.477 -4.09664 -2.15742 0
M  V30 9312 H 583.316 -7.45574 -4.45629 0
M  V30 9313 H 583.588 -5.86232 -3.67314 0
M  V30 9314 H 582.72 -7.84412 -2.24479 0
M  V30 9315 P 578.757 -8.7635 -1.60911 0
M  V30 9316 O 578.537 -10.1388 -1.11561 0
M  V30 9317 O 577.967 -8.36503 -2.79617 0
M  V30 9318 O 578.507 -7.71806 -0.42951 0
M  V30 9319 C 579.447 -7.67148 0.673689 0
M  V30 9320 C 578.717 -7.33374 1.95559 0
M  V30 9321 O 578.507 -5.88721 2.00726 0
M  V30 9322 C 577.317 -7.92526 2.10483 0
M  V30 9323 O 576.927 -8.02971 3.47653 0
M  V30 9324 C 576.437 -6.89602 1.41652 0
M  V30 9325 C 577.147 -5.59201 1.75185 0
M  V30 9326 N 577.097 -4.58235 0.662552 0
M  V30 9327 C 577.177 -4.7683 -0.704049 0
M  V30 9328 N 577.097 -3.66233 -1.39775 0
M  V30 9329 C 576.957 -2.66526 -0.431739 0
M  V30 9330 C 576.827 -1.26394 -0.575992 0
M  V30 9331 N 576.707 -0.62859 0.67177 0
M  V30 9332 C 576.707 -1.27134 1.89385 0
M  V30 9333 N 576.577 -0.492035 2.96951 0
M  V30 9334 N 576.837 -2.58978 2.02907 0
M  V30 9335 C 576.957 -3.22433 0.832218 0
M  V30 9336 H 579.936 -8.65116 0.777161 0
M  V30 9337 H 580.208 -6.90173 0.474152 0
M  V30 9338 H 579.34 -7.66548 2.79458 0
M  V30 9339 P 575.377 -8.03563 3.84925 0
M  V30 9340 O 575.157 -8.85821 5.0569 0
M  V30 9341 O 574.587 -8.41101 2.65469 0
M  V30 9342 O 575.127 -6.4965 4.18908 0
M  V30 9343 C 576.067 -5.80886 5.05289 0
M  V30 9344 C 575.337 -4.78366 5.89277 0
M  V30 9345 O 575.127 -3.58302 5.08433 0
M  V30 9346 C 573.937 -5.16748 6.36559 0
M  V30 9347 O 573.547 -4.45271 7.53232 0
M  V30 9348 C 573.057 -4.74572 5.19863 0
M  V30 9349 C 573.767 -3.49373 4.70338 0
M  V30 9350 N 573.717 -3.31704 3.22876 0
M  V30 9351 C 573.567 -2.03326 2.74871 0
M  V30 9352 O 573.477 -1.06486 3.48076 0
M  V30 9353 N 573.527 -1.91838 1.37456 0
M  V30 9354 C 573.617 -2.94295 0.462035 0
M  V30 9355 O 573.567 -2.71763 -0.752928 0
M  V30 9356 C 573.767 -4.25064 1.05249 0
M  V30 9357 C 573.877 -5.39815 0.095697 0
M  V30 9358 C 573.817 -4.40214 2.39192 0
M  V30 9359 H 576.558 -6.54063 5.71245 0
M  V30 9360 H 576.827 -5.30339 4.43905 0
M  V30 9361 H 575.96 -4.55889 6.76652 0
M  V30 9362 H 573.305 -2.6167 5.17842 0
M  V30 9363 H 573.026 -5.52155 4.41878 0
M  V30 9364 H 572.034 -4.51918 5.53297 0
M  V30 9365 H 573.868 -6.25055 6.55162 0
M  V30 9366 H 573.939 -5.39798 2.81523 0
M  V30 9367 H 572.909 -5.91593 0.0279582 0
M  V30 9368 H 574.646 -6.10038 0.450573 0
M  V30 9369 H 574.158 -5.02007 -0.89937 0
M  V30 9370 H 573.422 -0.995326 1.00435 0
M  V30 9371 P 571.997 -4.23843 7.83734 0
M  V30 9372 O 571.777 -4.19407 9.29784 0
M  V30 9373 O 571.207 -5.24426 7.09156 0
M  V30 9374 O 571.747 -2.7935 7.20758 0
M  V30 9375 C 572.687 -1.7299 7.50419 0
M  V30 9376 C 571.957 -0.406376 7.57911 0
M  V30 9377 O 571.747 0.0897726 6.21935 0
M  V30 9378 C 570.557 -0.447224 8.1878 0
M  V30 9379 O 570.167 0.825065 8.71101 0
M  V30 9380 C 569.677 -0.783801 6.99623 0
M  V30 9381 C 570.387 -0.0619192 5.85967 0
M  V30 9382 N 570.337 -0.790462 4.56202 0
M  V30 9383 C 570.417 -2.13895 4.34171 0
M  V30 9384 N 570.347 -2.46449 3.08687 0
M  V30 9385 C 570.197 -1.2525 2.43697 0
M  V30 9386 C 570.067 -0.914535 1.07318 0
M  V30 9387 N 570.057 -1.80782 0.0887348 0
M  V30 9388 N 569.947 0.386745 0.768133 0
M  V30 9389 C 569.957 1.28096 1.75159 0
M  V30 9390 N 570.077 1.09708 3.04861 0
M  V30 9391 C 570.197 -0.214857 3.32306 0
M  V30 9392 H 573.176 -1.93423 8.4679 0
M  V30 9393 H 573.448 -1.68852 6.70877 0
M  V30 9394 H 572.58 0.289041 8.15388 0
M  V30 9395 H 569.925 0.927006 5.72848 0
M  V30 9396 H 569.645 -1.86973 6.82036 0
M  V30 9397 H 568.654 -0.403953 7.13357 0
M  V30 9398 H 570.488 -1.20599 8.97534 0
M  V30 9399 H 570.529 -2.86846 5.14318 0
M  V30 9400 H 570.148 -2.81082 0.302037 0
M  V30 9401 H 569.959 -1.49688 -0.889064 0
M  V30 9402 H 569.851 2.31317 1.43855 0
M  V30 9403 P 568.617 1.17771 8.83182 0
M  V30 9404 O 568.397 2.07206 9.98732 0
M  V30 9405 O 567.827 -0.0743816 8.81969 0
M  V30 9406 O 568.367 1.97652 7.47304 0
M  V30 9407 C 569.307 3.01133 7.08783 0
M  V30 9408 C 568.577 4.12613 6.37049 0
M  V30 9409 O 568.367 3.72827 4.97879 0
M  V30 9410 C 567.177 4.45085 6.88694 0
M  V30 9411 O 566.787 5.7877 6.5624 0
M  V30 9412 C 566.297 3.47817 6.12078 0
M  V30 9413 C 567.007 3.39414 4.77697 0
M  V30 9414 N 566.957 2.04615 4.15333 0
M  V30 9415 H 569.796 3.41248 7.98759 0
M  V30 9416 H 570.068 2.5837 6.41742 0
M  V30 9417 H 569.2 5.02657 6.42673 0
M  V30 9418 P 565.237 6.144 6.45285 0
M  V30 9419 O 565.017 7.54673 6.86199 0
M  V30 9420 O 564.447 5.12391 7.179 0
M  V30 9421 O 564.987 5.99158 4.88404 0
M  V30 9422 C 565.927 6.60234 3.96415 0
M  V30 9423 C 565.197 7.08259 2.72856 0
M  V30 9424 O 564.987 5.9427 1.83651 0
M  V30 9425 C 563.797 7.64886 2.9555 0
M  V30 9426 O 563.407 8.53963 1.90717 0
M  V30 9427 C 562.917 6.4116 2.90739 0
M  V30 9428 C 563.627 5.55375 1.86963 0
M  V30 9429 N 563.577 4.09664 2.15742 0
M  V30 9430 H 566.416 7.45574 4.45629 0
M  V30 9431 H 566.688 5.86232 3.67314 0
M  V30 9432 H 565.82 7.84412 2.24479 0
M  V30 9433 P 561.857 8.7635 1.60911 0
M  V30 9434 O 561.637 10.1388 1.11561 0
M  V30 9435 O 561.067 8.36503 2.79617 0
M  V30 9436 O 561.607 7.71806 0.42951 0
M  V30 9437 C 562.547 7.67148 -0.673689 0
M  V30 9438 C 561.817 7.33374 -1.95559 0
M  V30 9439 O 561.607 5.88721 -2.00726 0
M  V30 9440 C 560.417 7.92526 -2.10483 0
M  V30 9441 O 560.027 8.02971 -3.47653 0
M  V30 9442 C 559.537 6.89602 -1.41652 0
M  V30 9443 C 560.247 5.59201 -1.75185 0
M  V30 9444 N 560.197 4.58235 -0.662552 0
M  V30 9445 H 563.036 8.65116 -0.777161 0
M  V30 9446 H 563.308 6.90173 -0.474152 0
M  V30 9447 H 562.44 7.66548 -2.79458 0
M  V30 9448 P 558.477 8.03563 -3.84925 0
M  V30 9449 O 558.257 8.85821 -5.0569 0
M  V30 9450 O 557.687 8.41101 -2.65469 0
M  V30 9451 O 558.227 6.4965 -4.18908 0
M  V30 9452 C 559.167 5.81037 -5.05421 0
M  V30 9453 C 558.437 4.78366 -5.89277 0
M  V30 9454 O 558.227 3.58302 -5.08433 0
M  V30 9455 C 557.037 5.17448 -6.36119 0
M  V30 9456 O 556.647 4.45271 -7.53232 0
M  V30 9457 C 556.157 4.74639 -5.19936 0
M  V30 9458 C 556.867 3.49432 -4.70418 0
M  V30 9459 N 556.817 3.31776 -3.22945 0
M  V30 9460 H 559.656 6.54213 -5.71376 0
M  V30 9461 H 559.928 5.30492 -4.44033 0
M  V30 9462 H 559.06 4.55889 -6.76652 0
M  V30 9463 P 555.097 4.23843 -7.83734 0
M  V30 9464 O 554.877 4.19407 -9.29784 0
M  V30 9465 O 554.307 5.24426 -7.09156 0
M  V30 9466 O 554.847 2.7935 -7.20758 0
M  V30 9467 C 555.787 1.7299 -7.50419 0
M  V30 9468 C 555.057 0.406376 -7.57911 0
M  V30 9469 O 554.847 -0.0897726 -6.21935 0
M  V30 9470 C 553.657 0.447224 -8.1878 0
M  V30 9471 O 553.267 -0.825065 -8.71101 0
M  V30 9472 C 552.777 0.783801 -6.99623 0
M  V30 9473 C 553.487 0.0619192 -5.85967 0
M  V30 9474 N 553.437 0.790462 -4.56202 0
M  V30 9475 H 556.276 1.93423 -8.4679 0
M  V30 9476 H 556.548 1.68852 -6.70877 0
M  V30 9477 H 555.68 -0.289041 -8.15388 0
M  V30 9478 H 553.025 -0.927006 -5.72848 0
M  V30 9479 H 552.745 1.86973 -6.82036 0
M  V30 9480 H 551.754 0.403953 -7.13357 0
M  V30 9481 H 553.588 1.20599 -8.97534 0
M  V30 9482 P 551.717 -1.17771 -8.83182 0
M  V30 9483 O 551.497 -2.07206 -9.98732 0
M  V30 9484 O 550.927 0.0743816 -8.81969 0
M  V30 9485 O 551.467 -1.97652 -7.47304 0
M  V30 9486 C 552.407 -3.01133 -7.08783 0
M  V30 9487 C 551.677 -4.12613 -6.37049 0
M  V30 9488 O 551.467 -3.72827 -4.97879 0
M  V30 9489 C 550.277 -4.45085 -6.88694 0
M  V30 9490 O 549.887 -5.7877 -6.5624 0
M  V30 9491 C 549.397 -3.47817 -6.12078 0
M  V30 9492 C 550.107 -3.39414 -4.77697 0
M  V30 9493 N 550.057 -2.04199 -4.15538 0
M  V30 9494 H 552.896 -3.41248 -7.98759 0
M  V30 9495 H 553.168 -2.57728 -6.42 0
M  V30 9496 H 552.3 -5.02657 -6.42673 0
M  V30 9497 H 549.645 -4.11708 -4.08956 0
M  V30 9498 H 549.365 -2.49626 -6.61679 0
M  V30 9499 H 548.374 -3.8662 -6.00862 0
M  V30 9500 H 550.208 -4.29991 -7.97006 0
M  V30 9501 P 548.337 -6.144 -6.45285 0
M  V30 9502 O 548.117 -7.54673 -6.86199 0
M  V30 9503 O 547.547 -5.12391 -7.179 0
M  V30 9504 O 548.087 -5.99158 -4.88404 0
M  V30 9505 C 549.027 -6.60234 -3.96415 0
M  V30 9506 C 548.297 -7.08259 -2.72856 0
M  V30 9507 O 548.087 -5.9427 -1.83651 0
M  V30 9508 C 546.897 -7.64886 -2.9555 0
M  V30 9509 O 546.507 -8.53963 -1.90717 0
M  V30 9510 C 546.017 -6.4116 -2.90739 0
M  V30 9511 C 546.727 -5.55375 -1.86963 0
M  V30 9512 N 546.677 -4.09664 -2.15742 0
M  V30 9513 H 549.516 -7.45574 -4.45629 0
M  V30 9514 H 549.788 -5.86232 -3.67314 0
M  V30 9515 H 548.92 -7.84412 -2.24479 0
M  V30 9516 P 544.957 -8.7635 -1.60911 0
M  V30 9517 O 544.737 -10.1388 -1.11561 0
M  V30 9518 O 544.167 -8.36503 -2.79617 0
M  V30 9519 O 544.707 -7.71806 -0.42951 0
M  V30 9520 C 545.647 -7.67148 0.673689 0
M  V30 9521 C 544.917 -7.33374 1.95559 0
M  V30 9522 O 544.707 -5.88721 2.00726 0
M  V30 9523 C 543.517 -7.92526 2.10483 0
M  V30 9524 O 543.127 -8.02971 3.47653 0
M  V30 9525 C 542.637 -6.89602 1.41652 0
M  V30 9526 C 543.347 -5.59201 1.75185 0
M  V30 9527 N 543.297 -4.58235 0.662552 0
M  V30 9528 H 546.136 -8.65116 0.777161 0
M  V30 9529 H 546.408 -6.90173 0.474152 0
M  V30 9530 H 545.54 -7.66548 2.79458 0
M  V30 9531 P 541.577 -8.03563 3.84925 0
M  V30 9532 O 541.357 -8.85821 5.0569 0
M  V30 9533 O 540.787 -8.41101 2.65469 0
M  V30 9534 O 541.327 -6.4965 4.18908 0
M  V30 9535 C 542.267 -5.80886 5.05289 0
M  V30 9536 C 541.537 -4.78366 5.89277 0
M  V30 9537 O 541.327 -3.58302 5.08433 0
M  V30 9538 C 540.137 -5.16748 6.36559 0
M  V30 9539 O 539.747 -4.45271 7.53232 0
M  V30 9540 C 539.257 -4.74572 5.19863 0
M  V30 9541 C 539.967 -3.49373 4.70338 0
M  V30 9542 N 539.917 -3.31704 3.22876 0
M  V30 9543 C 539.767 -2.03326 2.74871 0
M  V30 9544 O 539.677 -1.06486 3.48076 0
M  V30 9545 N 539.727 -1.91838 1.37456 0
M  V30 9546 C 539.817 -2.94295 0.462035 0
M  V30 9547 O 539.767 -2.71763 -0.752928 0
M  V30 9548 C 539.967 -4.25064 1.05249 0
M  V30 9549 C 540.077 -5.39815 0.095697 0
M  V30 9550 C 540.017 -4.40214 2.39192 0
M  V30 9551 H 542.758 -6.54063 5.71245 0
M  V30 9552 H 543.027 -5.30339 4.43905 0
M  V30 9553 H 542.16 -4.55889 6.76652 0
M  V30 9554 H 539.505 -2.6167 5.17842 0
M  V30 9555 H 539.226 -5.52155 4.41878 0
M  V30 9556 H 538.234 -4.51918 5.53297 0
M  V30 9557 H 540.068 -6.25055 6.55162 0
M  V30 9558 H 540.139 -5.39798 2.81523 0
M  V30 9559 H 539.109 -5.91593 0.0279582 0
M  V30 9560 H 540.846 -6.10038 0.450573 0
M  V30 9561 H 540.358 -5.02007 -0.89937 0
M  V30 9562 H 539.622 -0.995326 1.00435 0
M  V30 9563 P 538.197 -4.23843 7.83734 0
M  V30 9564 O 537.977 -4.19407 9.29784 0
M  V30 9565 O 537.407 -5.24426 7.09156 0
M  V30 9566 O 537.947 -2.7935 7.20758 0
M  V30 9567 C 538.887 -1.7299 7.50419 0
M  V30 9568 C 538.157 -0.406376 7.57911 0
M  V30 9569 O 537.947 0.0897726 6.21935 0
M  V30 9570 C 536.757 -0.447224 8.1878 0
M  V30 9571 O 536.367 0.825065 8.71101 0
M  V30 9572 C 535.877 -0.783801 6.99623 0
M  V30 9573 C 536.587 -0.0619192 5.85967 0
M  V30 9574 N 536.537 -0.7859 4.56281 0
M  V30 9575 H 539.376 -1.93423 8.4679 0
M  V30 9576 H 539.648 -1.68181 6.71046 0
M  V30 9577 H 538.78 0.289041 8.15388 0
M  V30 9578 P 534.817 1.17771 8.83182 0
M  V30 9579 O 534.597 2.07206 9.98732 0
M  V30 9580 O 534.027 -0.0743816 8.81969 0
M  V30 9581 O 534.567 1.97652 7.47304 0
M  V30 9582 C 535.507 3.01133 7.08783 0
M  V30 9583 C 534.777 4.12613 6.37049 0
M  V30 9584 O 534.567 3.72827 4.97879 0
M  V30 9585 C 533.377 4.45085 6.88694 0
M  V30 9586 O 532.987 5.7877 6.5624 0
M  V30 9587 C 532.497 3.47817 6.12078 0
M  V30 9588 C 533.207 3.39414 4.77697 0
M  V30 9589 N 533.157 2.04615 4.15333 0
M  V30 9590 H 535.996 3.41248 7.98759 0
M  V30 9591 H 536.268 2.5837 6.41742 0
M  V30 9592 H 535.4 5.02657 6.42673 0
M  V30 9593 P 531.437 6.144 6.45285 0
M  V30 9594 O 531.217 7.54673 6.86199 0
M  V30 9595 O 530.647 5.12391 7.179 0
M  V30 9596 O 531.187 5.99158 4.88404 0
M  V30 9597 C 532.127 6.60234 3.96415 0
M  V30 9598 C 531.397 7.08259 2.72856 0
M  V30 9599 O 531.187 5.9427 1.83651 0
M  V30 9600 C 529.997 7.64886 2.9555 0
M  V30 9601 O 529.607 8.53963 1.90717 0
M  V30 9602 C 529.117 6.4116 2.90739 0
M  V30 9603 C 529.827 5.55375 1.86963 0
M  V30 9604 N 529.777 4.09664 2.15742 0
M  V30 9605 H 532.616 7.45574 4.45629 0
M  V30 9606 H 532.888 5.86232 3.67314 0
M  V30 9607 H 532.02 7.84412 2.24479 0
M  V30 9608 P 528.057 8.7635 1.60911 0
M  V30 9609 O 527.837 10.1388 1.11561 0
M  V30 9610 O 527.267 8.36503 2.79617 0
M  V30 9611 O 527.807 7.71806 0.42951 0
M  V30 9612 C 528.747 7.66948 -0.673514 0
M  V30 9613 C 528.017 7.33374 -1.95559 0
M  V30 9614 O 527.807 5.88721 -2.00726 0
M  V30 9615 C 526.617 7.92218 -2.1125 0
M  V30 9616 O 526.227 8.02971 -3.47653 0
M  V30 9617 C 525.737 6.89504 -1.41631 0
M  V30 9618 C 526.447 5.59106 -1.75155 0
M  V30 9619 N 526.397 4.58136 -0.662409 0
M  V30 9620 C 526.247 3.26059 -1.02863 0
M  V30 9621 O 526.157 2.90743 -2.19009 0
M  V30 9622 N 526.207 2.35995 0.0155585 0
M  V30 9623 C 526.297 2.65248 1.35603 0
M  V30 9624 C 526.447 4.05747 1.64698 0
M  V30 9625 C 526.497 4.96734 0.652411 0
M  V30 9626 H 529.238 8.64917 -0.776982 0
M  V30 9627 H 529.507 6.89974 -0.474015 0
M  V30 9628 H 528.64 7.66548 -2.79458 0
M  V30 9629 H 525.985 5.16076 -2.65138 0
M  V30 9630 H 525.706 7.06433 -0.329384 0
M  V30 9631 H 524.714 6.90829 -1.81996 0
M  V30 9632 H 526.548 8.90774 -1.62639 0
M  V30 9633 H 526.619 6.02181 0.895285 0
M  V30 9634 P 524.677 8.03563 -3.84925 0
M  V30 9635 O 524.457 8.85821 -5.0569 0
M  V30 9636 O 523.887 8.41101 -2.65469 0
M  V30 9637 O 524.427 6.49734 -4.18962 0
M  V30 9638 C 525.367 5.81037 -5.05421 0
M  V30 9639 C 524.637 4.79018 -5.88876 0
M  V30 9640 O 524.427 3.58359 -5.08515 0
M  V30 9641 C 523.237 5.17448 -6.36119 0
M  V30 9642 O 522.847 4.45322 -7.53318 0
M  V30 9643 C 522.357 4.74639 -5.19936 0
M  V30 9644 C 523.067 3.49432 -4.70418 0
M  V30 9645 N 523.017 3.31776 -3.22945 0
M  V30 9646 C 522.867 2.02742 -2.72939 0
M  V30 9647 O 522.777 1.08301 -3.52749 0
M  V30 9648 N 522.817 1.96117 -1.22063 0
M  V30 9649 C 522.917 2.8878 -0.551566 0
M  V30 9650 N 522.867 2.65609 0.750198 0
M  V30 9651 C 523.067 4.22457 -1.03707 0
M  V30 9652 C 523.117 4.37979 -2.39113 0
M  V30 9653 H 525.857 6.54138 -5.7131 0
M  V30 9654 H 526.127 5.30492 -4.44033 0
M  V30 9655 H 525.26 4.55945 -6.76735 0
M  V30 9656 H 522.605 2.6176 -5.18021 0
M  V30 9657 H 522.325 5.52233 -4.41941 0
M  V30 9658 H 521.334 4.52045 -5.53452 0
M  V30 9659 H 523.168 6.25124 -6.55234 0
M  V30 9660 H 523.24 5.37936 -2.80552 0
M  V30 9661 H 523.138 5.07528 -0.359553 0
M  V30 9662 H 522.75 1.69403 1.09847 0
M  V30 9663 H 522.946 3.43701 1.41792 0
M  V30 9664 P 521.297 4.23843 -7.83734 0
M  V30 9665 O 521.077 4.19407 -9.29784 0
M  V30 9666 O 520.507 5.24426 -7.09156 0
M  V30 9667 O 521.047 2.7935 -7.20758 0
M  V30 9668 C 521.987 1.7299 -7.50419 0
M  V30 9669 C 521.257 0.406376 -7.57911 0
M  V30 9670 O 521.047 -0.0897726 -6.21935 0
M  V30 9671 C 519.857 0.447224 -8.1878 0
M  V30 9672 O 519.467 -0.825065 -8.71101 0
M  V30 9673 C 518.977 0.783801 -6.99623 0
M  V30 9674 C 519.687 0.0619192 -5.85967 0
M  V30 9675 N 519.637 0.7859 -4.56281 0
M  V30 9676 H 522.476 1.93423 -8.4679 0
M  V30 9677 H 522.748 1.68181 -6.71046 0
M  V30 9678 H 521.88 -0.289041 -8.15388 0
M  V30 9679 P 517.917 -1.17771 -8.83182 0
M  V30 9680 O 517.697 -2.07206 -9.98732 0
M  V30 9681 O 517.127 0.0743816 -8.81969 0
M  V30 9682 O 517.667 -1.97652 -7.47304 0
M  V30 9683 C 518.607 -3.01133 -7.08783 0
M  V30 9684 C 517.877 -4.12613 -6.37049 0
M  V30 9685 O 517.667 -3.72827 -4.97879 0
M  V30 9686 C 516.477 -4.45085 -6.88694 0
M  V30 9687 O 516.087 -5.7877 -6.5624 0
M  V30 9688 C 515.597 -3.47817 -6.12078 0
M  V30 9689 C 516.307 -3.39414 -4.77697 0
M  V30 9690 N 516.257 -2.04615 -4.15333 0
M  V30 9691 H 519.096 -3.41248 -7.98759 0
M  V30 9692 H 519.368 -2.5837 -6.41742 0
M  V30 9693 H 518.5 -5.02657 -6.42673 0
M  V30 9694 P 514.537 -6.144 -6.45285 0
M  V30 9695 O 514.317 -7.54673 -6.86199 0
M  V30 9696 O 513.747 -5.12391 -7.179 0
M  V30 9697 O 514.287 -5.99158 -4.88404 0
M  V30 9698 C 515.227 -6.60234 -3.96415 0
M  V30 9699 C 514.497 -7.08259 -2.72856 0
M  V30 9700 O 514.287 -5.9427 -1.83651 0
M  V30 9701 C 513.097 -7.64886 -2.9555 0
M  V30 9702 O 512.707 -8.53963 -1.90717 0
M  V30 9703 C 512.217 -6.4116 -2.90739 0
M  V30 9704 C 512.927 -5.55375 -1.86963 0
M  V30 9705 N 512.877 -4.09448 -2.16152 0
M  V30 9706 H 515.716 -7.45574 -4.45629 0
M  V30 9707 H 515.988 -5.85864 -3.679 0
M  V30 9708 H 515.12 -7.84412 -2.24479 0
M  V30 9709 H 512.465 -5.73457 -0.888562 0
M  V30 9710 H 512.185 -5.90877 -3.88583 0
M  V30 9711 H 511.194 -6.6596 -2.58858 0
M  V30 9712 H 513.028 -8.16339 -3.92049 0
M  V30 9713 P 511.157 -8.7635 -1.60911 0
M  V30 9714 O 510.937 -10.1388 -1.11561 0
M  V30 9715 O 510.367 -8.36503 -2.79617 0
M  V30 9716 O 510.907 -7.71806 -0.42951 0
M  V30 9717 C 511.847 -7.67148 0.673689 0
M  V30 9718 C 511.117 -7.33374 1.95559 0
M  V30 9719 O 510.907 -5.88721 2.00726 0
M  V30 9720 C 509.717 -7.92526 2.10483 0
M  V30 9721 O 509.327 -8.02971 3.47653 0
M  V30 9722 C 508.837 -6.89602 1.41652 0
M  V30 9723 C 509.547 -5.59201 1.75185 0
M  V30 9724 N 509.497 -4.58235 0.662552 0
M  V30 9725 H 512.336 -8.65116 0.777161 0
M  V30 9726 H 512.608 -6.90173 0.474152 0
M  V30 9727 H 511.74 -7.66548 2.79458 0
M  V30 9728 P 507.777 -8.03563 3.84925 0
M  V30 9729 O 507.557 -8.85821 5.0569 0
M  V30 9730 O 506.987 -8.41101 2.65469 0
M  V30 9731 O 507.527 -6.4965 4.18908 0
M  V30 9732 C 508.467 -5.81037 5.05421 0
M  V30 9733 C 507.737 -4.78366 5.89277 0
M  V30 9734 O 507.527 -3.58302 5.08433 0
M  V30 9735 C 506.337 -5.17448 6.36119 0
M  V30 9736 O 505.947 -4.45271 7.53232 0
M  V30 9737 C 505.457 -4.74639 5.19936 0
M  V30 9738 C 506.167 -3.49432 4.70418 0
M  V30 9739 N 506.117 -3.31776 3.22945 0
M  V30 9740 H 508.956 -6.54213 5.71376 0
M  V30 9741 H 509.228 -5.30492 4.44033 0
M  V30 9742 H 508.36 -4.55889 6.76652 0
M  V30 9743 P 504.397 -4.23843 7.83734 0
M  V30 9744 O 504.177 -4.19407 9.29784 0
M  V30 9745 O 503.607 -5.24426 7.09156 0
M  V30 9746 O 504.147 -2.7935 7.20758 0
M  V30 9747 C 505.087 -1.7299 7.50419 0
M  V30 9748 C 504.357 -0.406376 7.57911 0
M  V30 9749 O 504.147 0.0897726 6.21935 0
M  V30 9750 C 502.957 -0.447224 8.1878 0
M  V30 9751 O 502.567 0.825065 8.71101 0
M  V30 9752 C 502.077 -0.783801 6.99623 0
M  V30 9753 C 502.787 -0.0619192 5.85967 0
M  V30 9754 N 502.737 -0.7859 4.56281 0
M  V30 9755 H 505.576 -1.93423 8.4679 0
M  V30 9756 H 505.848 -1.68181 6.71046 0
M  V30 9757 H 504.98 0.289041 8.15388 0
M  V30 9758 P 501.017 1.17771 8.83182 0
M  V30 9759 O 500.797 2.07206 9.98732 0
M  V30 9760 O 500.227 -0.0743816 8.81969 0
M  V30 9761 O 500.767 1.97652 7.47304 0
M  V30 9762 C 501.707 3.01133 7.08783 0
M  V30 9763 C 500.977 4.12613 6.37049 0
M  V30 9764 O 500.767 3.72827 4.97879 0
M  V30 9765 C 499.577 4.45085 6.88694 0
M  V30 9766 O 499.187 5.7877 6.5624 0
M  V30 9767 C 498.697 3.47817 6.12078 0
M  V30 9768 C 499.407 3.39414 4.77697 0
M  V30 9769 N 499.357 2.04199 4.15538 0
M  V30 9770 H 502.196 3.41248 7.98759 0
M  V30 9771 H 502.468 2.57728 6.42 0
M  V30 9772 H 501.6 5.02657 6.42673 0
M  V30 9773 H 498.945 4.11708 4.08956 0
M  V30 9774 H 498.665 2.49626 6.61679 0
M  V30 9775 H 497.674 3.8662 6.00862 0
M  V30 9776 H 499.508 4.29991 7.97006 0
M  V30 9777 P 497.637 6.144 6.45285 0
M  V30 9778 O 497.417 7.54673 6.86199 0
M  V30 9779 O 496.847 5.12391 7.179 0
M  V30 9780 O 497.387 5.99236 4.88467 0
M  V30 9781 C 498.327 6.60234 3.96415 0
M  V30 9782 C 497.597 7.08079 2.736 0
M  V30 9783 O 497.387 5.94365 1.8368 0
M  V30 9784 C 496.197 7.64886 2.9555 0
M  V30 9785 O 495.807 8.5406 1.90739 0
M  V30 9786 C 495.317 6.4116 2.90739 0
M  V30 9787 C 496.027 5.55375 1.86963 0
M  V30 9788 N 495.977 4.09664 2.15742 0
M  V30 9789 C 495.827 3.22231 1.08477 0
M  V30 9790 O 495.737 3.68951 -0.0600489 0
M  V30 9791 N 495.777 1.76692 1.48799 0
M  V30 9792 C 495.877 1.41695 2.57602 0
M  V30 9793 N 495.827 0.107296 2.75791 0
M  V30 9794 C 496.027 2.29178 3.69733 0
M  V30 9795 C 496.077 3.62753 3.42653 0
M  V30 9796 H 498.817 7.45488 4.45578 0
M  V30 9797 H 499.087 5.86232 3.67314 0
M  V30 9798 H 498.22 7.84508 2.24507 0
M  V30 9799 H 495.565 5.73556 0.888715 0
M  V30 9800 H 495.285 5.9096 3.88638 0
M  V30 9801 H 494.294 6.66053 2.58894 0
M  V30 9802 H 496.128 8.16339 3.92049 0
M  V30 9803 H 496.2 4.33052 4.24913 0
M  V30 9804 H 496.098 1.9103 4.71577 0
M  V30 9805 H 495.71 -0.521221 1.95056 0
M  V30 9806 H 495.906 -0.286429 3.70695 0
M  V30 9807 P 494.257 8.7635 1.60911 0
M  V30 9808 O 494.037 10.1388 1.11561 0
M  V30 9809 O 493.467 8.36503 2.79617 0
M  V30 9810 O 494.007 7.71806 0.42951 0
M  V30 9811 C 494.947 7.67148 -0.673689 0
M  V30 9812 C 494.217 7.33374 -1.95559 0
M  V30 9813 O 494.007 5.88721 -2.00726 0
M  V30 9814 C 492.817 7.92526 -2.10483 0
M  V30 9815 O 492.427 8.02971 -3.47653 0
M  V30 9816 C 491.937 6.89602 -1.41652 0
M  V30 9817 C 492.647 5.59201 -1.75185 0
M  V30 9818 N 492.597 4.58235 -0.662552 0
M  V30 9819 H 495.436 8.65116 -0.777161 0
M  V30 9820 H 495.708 6.90173 -0.474152 0
M  V30 9821 H 494.84 7.66548 -2.79458 0
M  V30 9822 P 490.877 8.03563 -3.84925 0
M  V30 9823 O 490.657 8.85821 -5.0569 0
M  V30 9824 O 490.087 8.41101 -2.65469 0
M  V30 9825 O 490.627 6.49734 -4.18962 0
M  V30 9826 C 491.567 5.81037 -5.05421 0
M  V30 9827 C 490.837 4.79018 -5.88876 0
M  V30 9828 O 490.627 3.58359 -5.08515 0
M  V30 9829 C 489.437 5.17448 -6.36119 0
M  V30 9830 O 489.047 4.45322 -7.53318 0
M  V30 9831 C 488.557 4.74639 -5.19936 0
M  V30 9832 C 489.267 3.49432 -4.70418 0
M  V30 9833 N 489.217 3.31776 -3.22945 0
M  V30 9834 C 489.067 2.02742 -2.72939 0
M  V30 9835 O 488.977 1.08301 -3.52749 0
M  V30 9836 N 489.017 1.96117 -1.22063 0
M  V30 9837 C 489.117 2.8878 -0.551566 0
M  V30 9838 N 489.067 2.65609 0.750198 0
M  V30 9839 C 489.267 4.22457 -1.03707 0
M  V30 9840 C 489.317 4.37979 -2.39113 0
M  V30 9841 H 492.057 6.54138 -5.7131 0
M  V30 9842 H 492.327 5.30492 -4.44033 0
M  V30 9843 H 491.46 4.55945 -6.76735 0
M  V30 9844 H 488.805 2.6176 -5.18021 0
M  V30 9845 H 488.525 5.52233 -4.41941 0
M  V30 9846 H 487.534 4.52045 -5.53452 0
M  V30 9847 H 489.368 6.25124 -6.55234 0
M  V30 9848 H 489.44 5.37936 -2.80552 0
M  V30 9849 H 489.338 5.07528 -0.359553 0
M  V30 9850 H 488.95 1.69403 1.09847 0
M  V30 9851 H 489.146 3.43701 1.41792 0
M  V30 9852 P 487.497 4.23843 -7.83734 0
M  V30 9853 O 487.277 4.19407 -9.29784 0
M  V30 9854 O 486.707 5.24426 -7.09156 0
M  V30 9855 O 487.247 2.7935 -7.20758 0
M  V30 9856 C 488.187 1.7299 -7.50419 0
M  V30 9857 C 487.457 0.406376 -7.57911 0
M  V30 9858 O 487.247 -0.0897726 -6.21935 0
M  V30 9859 C 486.057 0.447224 -8.1878 0
M  V30 9860 O 485.667 -0.825065 -8.71101 0
M  V30 9861 C 485.177 0.783801 -6.99623 0
M  V30 9862 C 485.887 0.0619192 -5.85967 0
M  V30 9863 N 485.837 0.7859 -4.56281 0
M  V30 9864 C 485.917 2.14308 -4.31736 0
M  V30 9865 N 485.837 2.46106 -3.05116 0
M  V30 9866 C 485.697 1.23422 -2.4014 0
M  V30 9867 C 485.567 0.938381 -1.02409 0
M  V30 9868 N 485.447 -0.444647 -0.805413 0
M  V30 9869 C 485.447 -1.40829 -1.79435 0
M  V30 9870 N 485.317 -2.67213 -1.38558 0
M  V30 9871 N 485.577 -1.12947 -3.09005 0
M  V30 9872 C 485.697 0.204887 -3.32369 0
M  V30 9873 H 488.676 1.93423 -8.4679 0
M  V30 9874 H 488.948 1.68181 -6.71046 0
M  V30 9875 H 488.08 -0.289041 -8.15388 0
M  V30 9876 P 484.117 -1.17771 -8.83182 0
M  V30 9877 O 483.897 -2.07206 -9.98732 0
M  V30 9878 O 483.327 0.0743816 -8.81969 0
M  V30 9879 O 483.867 -1.97652 -7.47304 0
M  V30 9880 C 484.807 -3.01133 -7.08783 0
M  V30 9881 C 484.077 -4.12613 -6.37049 0
M  V30 9882 O 483.867 -3.72827 -4.97879 0
M  V30 9883 C 482.677 -4.45085 -6.88694 0
M  V30 9884 O 482.287 -5.7877 -6.5624 0
M  V30 9885 C 481.797 -3.47817 -6.12078 0
M  V30 9886 C 482.507 -3.39414 -4.77697 0
M  V30 9887 N 482.457 -2.04199 -4.15538 0
M  V30 9888 H 485.296 -3.41248 -7.98759 0
M  V30 9889 H 485.568 -2.57728 -6.42 0
M  V30 9890 H 484.7 -5.02657 -6.42673 0
M  V30 9891 H 482.045 -4.11708 -4.08956 0
M  V30 9892 H 481.765 -2.49626 -6.61679 0
M  V30 9893 H 480.774 -3.8662 -6.00862 0
M  V30 9894 H 482.608 -4.29991 -7.97006 0
M  V30 9895 P 480.737 -6.144 -6.45285 0
M  V30 9896 O 480.517 -7.54673 -6.86199 0
M  V30 9897 O 479.947 -5.12391 -7.179 0
M  V30 9898 O 480.487 -5.99158 -4.88404 0
M  V30 9899 C 481.427 -6.60234 -3.96415 0
M  V30 9900 C 480.697 -7.08259 -2.72856 0
M  V30 9901 O 480.487 -5.9427 -1.83651 0
M  V30 9902 C 479.297 -7.64886 -2.9555 0
M  V30 9903 O 478.907 -8.53963 -1.90717 0
M  V30 9904 C 478.417 -6.4116 -2.90739 0
M  V30 9905 C 479.127 -5.55375 -1.86963 0
M  V30 9906 N 479.077 -4.09664 -2.15742 0
M  V30 9907 H 481.916 -7.45574 -4.45629 0
M  V30 9908 H 482.188 -5.86232 -3.67314 0
M  V30 9909 H 481.32 -7.84412 -2.24479 0
M  V30 9910 P 477.357 -8.7635 -1.60911 0
M  V30 9911 O 477.137 -10.1388 -1.11561 0
M  V30 9912 O 476.567 -8.36503 -2.79617 0
M  V30 9913 O 477.107 -7.71806 -0.42951 0
M  V30 9914 C 478.047 -7.67148 0.673689 0
M  V30 9915 C 477.317 -7.33374 1.95559 0
M  V30 9916 O 477.107 -5.88721 2.00726 0
M  V30 9917 C 475.917 -7.92526 2.10483 0
M  V30 9918 O 475.527 -8.02971 3.47653 0
M  V30 9919 C 475.037 -6.89602 1.41652 0
M  V30 9920 C 475.747 -5.59201 1.75185 0
M  V30 9921 N 475.697 -4.58301 0.657969 0
M  V30 9922 H 478.536 -8.65116 0.777161 0
M  V30 9923 H 478.808 -6.9022 0.46725 0
M  V30 9924 H 477.94 -7.66548 2.79458 0
M  V30 9925 H 475.285 -5.16165 2.65183 0
M  V30 9926 H 475.005 -7.06433 0.329384 0
M  V30 9927 H 474.014 -6.90926 1.82021 0
M  V30 9928 H 475.848 -8.90873 1.62657 0
M  V30 9929 P 473.977 -8.03563 3.84925 0
M  V30 9930 O 473.757 -8.85821 5.0569 0
M  V30 9931 O 473.187 -8.41101 2.65469 0
M  V30 9932 O 473.727 -6.4965 4.18908 0
M  V30 9933 C 474.667 -5.81037 5.05421 0
M  V30 9934 C 473.937 -4.78366 5.89277 0
M  V30 9935 O 473.727 -3.58302 5.08433 0
M  V30 9936 C 472.537 -5.17448 6.36119 0
M  V30 9937 O 472.147 -4.45271 7.53232 0
M  V30 9938 C 471.657 -4.74639 5.19936 0
M  V30 9939 C 472.367 -3.49432 4.70418 0
M  V30 9940 N 472.317 -3.31776 3.22945 0
M  V30 9941 H 475.156 -6.54213 5.71376 0
M  V30 9942 H 475.428 -5.30492 4.44033 0
M  V30 9943 H 474.56 -4.55889 6.76652 0
M  V30 9944 P 470.597 -4.23843 7.83734 0
M  V30 9945 O 470.377 -4.19407 9.29784 0
M  V30 9946 O 469.807 -5.24426 7.09156 0
M  V30 9947 O 470.347 -2.7935 7.20758 0
M  V30 9948 C 471.287 -1.7299 7.50419 0
M  V30 9949 C 470.557 -0.406376 7.57911 0
M  V30 9950 O 470.347 0.0897726 6.21935 0
M  V30 9951 C 469.157 -0.447224 8.1878 0
M  V30 9952 O 468.767 0.825065 8.71101 0
M  V30 9953 C 468.277 -0.783801 6.99623 0
M  V30 9954 C 468.987 -0.0619192 5.85967 0
M  V30 9955 N 468.937 -0.7859 4.56281 0
M  V30 9956 H 471.776 -1.93423 8.4679 0
M  V30 9957 H 472.048 -1.68181 6.71046 0
M  V30 9958 H 471.18 0.289041 8.15388 0
M  V30 9959 P 467.217 1.17771 8.83182 0
M  V30 9960 O 466.997 2.07206 9.98732 0
M  V30 9961 O 466.427 -0.0743816 8.81969 0
M  V30 9962 O 466.967 1.97652 7.47304 0
M  V30 9963 C 467.907 3.01133 7.08783 0
M  V30 9964 C 467.177 4.12613 6.37049 0
M  V30 9965 O 466.967 3.72827 4.97879 0
M  V30 9966 C 465.777 4.45085 6.88694 0
M  V30 9967 O 465.387 5.7877 6.5624 0
M  V30 9968 C 464.897 3.47817 6.12078 0
M  V30 9969 C 465.607 3.39414 4.77697 0
M  V30 9970 N 465.557 2.04615 4.15333 0
M  V30 9971 C 465.637 0.803897 4.75249 0
M  V30 9972 N 465.557 -0.197615 3.91502 0
M  V30 9973 C 465.417 0.413002 2.66823 0
M  V30 9974 C 465.287 -0.157221 1.38007 0
M  V30 9975 O 465.267 -1.34419 1.057 0
M  V30 9976 N 465.167 0.833136 0.390236 0
M  V30 9977 C 465.167 2.19402 0.623885 0
M  V30 9978 N 465.037 2.97622 -0.449677 0
M  V30 9979 N 465.297 2.73005 1.83601 0
M  V30 9980 C 465.417 1.78786 2.80935 0
M  V30 9981 H 468.396 3.41248 7.98759 0
M  V30 9982 H 468.668 2.5837 6.41742 0
M  V30 9983 H 467.8 5.02657 6.42673 0
M  V30 9984 H 465.145 4.11779 4.09026 0
M  V30 9985 H 464.865 2.49661 6.61772 0
M  V30 9986 H 463.874 3.86674 6.00946 0
M  V30 9987 H 465.708 4.30038 7.97094 0
M  V30 9988 H 465.757 0.670579 5.82754 0
M  V30 9989 H 465.075 0.528446 -0.557287 0
M  V30 9990 H 465.038 4.00117 -0.344773 0
M  V30 9991 H 464.937 2.55448 -1.38544 0
M  V30 9992 P 463.837 6.144 6.45285 0
M  V30 9993 O 463.617 7.54673 6.86199 0
M  V30 9994 O 463.047 5.12391 7.179 0
M  V30 9995 O 463.587 5.99158 4.88404 0
M  V30 9996 C 464.527 6.60234 3.96415 0
M  V30 9997 C 463.797 7.08259 2.72856 0
M  V30 9998 O 463.587 5.9427 1.83651 0
M  V30 9999 C 462.397 7.64886 2.9555 0
M  V30 10000 O 462.007 8.53963 1.90717 0
M  V30 10001 C 461.517 6.4116 2.90739 0
M  V30 10002 C 462.227 5.55375 1.86963 0
M  V30 10003 N 462.177 4.09664 2.15742 0
M  V30 10004 H 465.016 7.45574 4.45629 0
M  V30 10005 H 465.288 5.86232 3.67314 0
M  V30 10006 H 464.42 7.84412 2.24479 0
M  V30 10007 P 460.457 8.7635 1.60911 0
M  V30 10008 O 460.237 10.1388 1.11561 0
M  V30 10009 O 459.667 8.36503 2.79617 0
M  V30 10010 O 460.207 7.71806 0.42951 0
M  V30 10011 C 461.147 7.66948 -0.673514 0
M  V30 10012 C 460.417 7.33374 -1.95559 0
M  V30 10013 O 460.207 5.88721 -2.00726 0
M  V30 10014 C 459.017 7.92218 -2.1125 0
M  V30 10015 O 458.627 8.02971 -3.47653 0
M  V30 10016 C 458.137 6.89504 -1.41631 0
M  V30 10017 C 458.847 5.59106 -1.75155 0
M  V30 10018 N 458.797 4.58136 -0.662409 0
M  V30 10019 C 458.647 3.26059 -1.02863 0
M  V30 10020 O 458.557 2.90743 -2.19009 0
M  V30 10021 N 458.607 2.35995 0.0155585 0
M  V30 10022 C 458.697 2.65248 1.35603 0
M  V30 10023 C 458.847 4.05747 1.64698 0
M  V30 10024 C 458.897 4.96734 0.652411 0
M  V30 10025 H 461.638 8.64917 -0.776982 0
M  V30 10026 H 461.907 6.89974 -0.474015 0
M  V30 10027 H 461.04 7.66548 -2.79458 0
M  V30 10028 H 458.385 5.16076 -2.65138 0
M  V30 10029 H 458.106 7.06433 -0.329384 0
M  V30 10030 H 457.114 6.90829 -1.81996 0
M  V30 10031 H 458.948 8.90774 -1.62639 0
M  V30 10032 H 459.019 6.02181 0.895285 0
M  V30 10033 P 457.077 8.03563 -3.84925 0
M  V30 10034 O 456.857 8.85821 -5.0569 0
M  V30 10035 O 456.287 8.41101 -2.65469 0
M  V30 10036 O 456.827 6.4965 -4.18908 0
M  V30 10037 C 457.767 5.81037 -5.05421 0
M  V30 10038 C 457.037 4.78366 -5.89277 0
M  V30 10039 O 456.827 3.58302 -5.08433 0
M  V30 10040 C 455.637 5.17448 -6.36119 0
M  V30 10041 O 455.247 4.45271 -7.53232 0
M  V30 10042 C 454.757 4.74639 -5.19936 0
M  V30 10043 C 455.467 3.49432 -4.70418 0
M  V30 10044 N 455.417 3.32099 -3.22613 0
M  V30 10045 H 458.256 6.54213 -5.71376 0
M  V30 10046 H 458.528 5.30936 -4.43503 0
M  V30 10047 H 457.66 4.55889 -6.76652 0
M  V30 10048 H 455.005 2.61715 -5.17932 0
M  V30 10049 H 454.725 5.52155 -4.41878 0
M  V30 10050 H 453.734 4.51981 -5.53374 0
M  V30 10051 H 455.568 6.25124 -6.55234 0
M  V30 10052 P 453.697 4.23843 -7.83734 0
M  V30 10053 O 453.477 4.19407 -9.29784 0
M  V30 10054 O 452.907 5.24426 -7.09156 0
M  V30 10055 O 453.447 2.7935 -7.20758 0
M  V30 10056 C 454.387 1.7299 -7.50419 0
M  V30 10057 C 453.657 0.406376 -7.57911 0
M  V30 10058 O 453.447 -0.0897726 -6.21935 0
M  V30 10059 C 452.257 0.447224 -8.1878 0
M  V30 10060 O 451.867 -0.825065 -8.71101 0
M  V30 10061 C 451.377 0.783801 -6.99623 0
M  V30 10062 C 452.087 0.0619192 -5.85967 0
M  V30 10063 N 452.037 0.7859 -4.56281 0
M  V30 10064 H 454.876 1.93423 -8.4679 0
M  V30 10065 H 455.148 1.68181 -6.71046 0
M  V30 10066 H 454.28 -0.289041 -8.15388 0
M  V30 10067 P 450.317 -1.17771 -8.83182 0
M  V30 10068 O 450.097 -2.07206 -9.98732 0
M  V30 10069 O 449.527 0.0743816 -8.81969 0
M  V30 10070 O 450.067 -1.97652 -7.47304 0
M  V30 10071 C 451.007 -3.01133 -7.08783 0
M  V30 10072 C 450.277 -4.12613 -6.37049 0
M  V30 10073 O 450.067 -3.72827 -4.97879 0
M  V30 10074 C 448.877 -4.45085 -6.88694 0
M  V30 10075 O 448.487 -5.7877 -6.5624 0
M  V30 10076 C 447.997 -3.47817 -6.12078 0
M  V30 10077 C 448.707 -3.39414 -4.77697 0
M  V30 10078 N 448.657 -2.04615 -4.15333 0
M  V30 10079 H 451.496 -3.41248 -7.98759 0
M  V30 10080 H 451.768 -2.5837 -6.41742 0
M  V30 10081 H 450.9 -5.02657 -6.42673 0
M  V30 10082 P 446.937 -6.144 -6.45285 0
M  V30 10083 O 446.717 -7.54673 -6.86199 0
M  V30 10084 O 446.147 -5.12391 -7.179 0
M  V30 10085 O 446.687 -5.99236 -4.88467 0
M  V30 10086 C 447.627 -6.60234 -3.96415 0
M  V30 10087 C 446.897 -7.08079 -2.736 0
M  V30 10088 O 446.687 -5.94365 -1.8368 0
M  V30 10089 C 445.497 -7.64886 -2.9555 0
M  V30 10090 O 445.107 -8.5406 -1.90739 0
M  V30 10091 C 444.617 -6.4116 -2.90739 0
M  V30 10092 C 445.327 -5.55375 -1.86963 0
M  V30 10093 N 445.277 -4.09664 -2.15742 0
M  V30 10094 C 445.127 -3.22231 -1.08477 0
M  V30 10095 O 445.037 -3.68951 0.0600489 0
M  V30 10096 N 445.077 -1.76692 -1.48799 0
M  V30 10097 C 445.177 -1.41695 -2.57602 0
M  V30 10098 N 445.127 -0.107296 -2.75791 0
M  V30 10099 C 445.327 -2.29178 -3.69733 0
M  V30 10100 C 445.377 -3.62753 -3.42653 0
M  V30 10101 H 448.117 -7.45488 -4.45578 0
M  V30 10102 H 448.387 -5.86232 -3.67314 0
M  V30 10103 H 447.52 -7.84508 -2.24507 0
M  V30 10104 H 444.865 -5.73556 -0.888715 0
M  V30 10105 H 444.585 -5.9096 -3.88638 0
M  V30 10106 H 443.594 -6.66053 -2.58894 0
M  V30 10107 H 445.428 -8.16339 -3.92049 0
M  V30 10108 H 445.5 -4.33052 -4.24913 0
M  V30 10109 H 445.398 -1.9103 -4.71577 0
M  V30 10110 H 445.01 0.521221 -1.95056 0
M  V30 10111 H 445.206 0.286429 -3.70695 0
M  V30 10112 P 443.557 -8.7635 -1.60911 0
M  V30 10113 O 443.337 -10.1388 -1.11561 0
M  V30 10114 O 442.767 -8.36503 -2.79617 0
M  V30 10115 O 443.307 -7.71806 -0.42951 0
M  V30 10116 C 444.247 -7.67148 0.673689 0
M  V30 10117 C 443.517 -7.33374 1.95559 0
M  V30 10118 O 443.307 -5.88721 2.00726 0
M  V30 10119 C 442.117 -7.92526 2.10483 0
M  V30 10120 O 441.727 -8.02971 3.47653 0
M  V30 10121 C 441.237 -6.89602 1.41652 0
M  V30 10122 C 441.947 -5.59201 1.75185 0
M  V30 10123 N 441.897 -4.58235 0.662552 0
M  V30 10124 H 444.736 -8.65116 0.777161 0
M  V30 10125 H 445.008 -6.90173 0.474152 0
M  V30 10126 H 444.14 -7.66548 2.79458 0
M  V30 10127 P 440.177 -8.03563 3.84925 0
M  V30 10128 O 439.957 -8.85821 5.0569 0
M  V30 10129 O 439.387 -8.41101 2.65469 0
M  V30 10130 O 439.927 -6.49734 4.18962 0
M  V30 10131 C 440.867 -5.81037 5.05421 0
M  V30 10132 C 440.137 -4.79018 5.88876 0
M  V30 10133 O 439.927 -3.58359 5.08515 0
M  V30 10134 C 438.737 -5.17448 6.36119 0
M  V30 10135 O 438.347 -4.45322 7.53318 0
M  V30 10136 C 437.857 -4.74639 5.19936 0
M  V30 10137 C 438.567 -3.49432 4.70418 0
M  V30 10138 N 438.517 -3.31776 3.22945 0
M  V30 10139 C 438.367 -2.02742 2.72939 0
M  V30 10140 O 438.277 -1.08301 3.52749 0
M  V30 10141 N 438.317 -1.96117 1.22063 0
M  V30 10142 C 438.417 -2.8878 0.551566 0
M  V30 10143 N 438.367 -2.65609 -0.750198 0
M  V30 10144 C 438.567 -4.22457 1.03707 0
M  V30 10145 C 438.617 -4.37979 2.39113 0
M  V30 10146 H 441.357 -6.54138 5.7131 0
M  V30 10147 H 441.627 -5.30492 4.44033 0
M  V30 10148 H 440.76 -4.55945 6.76735 0
M  V30 10149 H 438.105 -2.6176 5.18021 0
M  V30 10150 H 437.825 -5.52233 4.41941 0
M  V30 10151 H 436.834 -4.52045 5.53452 0
M  V30 10152 H 438.668 -6.25124 6.55234 0
M  V30 10153 H 438.74 -5.37936 2.80552 0
M  V30 10154 H 438.638 -5.07528 0.359553 0
M  V30 10155 H 438.25 -1.69403 -1.09847 0
M  V30 10156 H 438.446 -3.43701 -1.41792 0
M  V30 10157 P 436.797 -4.23843 7.83734 0
M  V30 10158 O 436.577 -4.19407 9.29784 0
M  V30 10159 O 436.007 -5.24426 7.09156 0
M  V30 10160 O 436.547 -2.7935 7.20758 0
M  V30 10161 C 437.487 -1.7299 7.50419 0
M  V30 10162 C 436.757 -0.406376 7.57911 0
M  V30 10163 O 436.547 0.0897726 6.21935 0
M  V30 10164 C 435.357 -0.447224 8.1878 0
M  V30 10165 O 434.967 0.825065 8.71101 0
M  V30 10166 C 434.477 -0.783801 6.99623 0
M  V30 10167 C 435.187 -0.0619192 5.85967 0
M  V30 10168 N 435.137 -0.790462 4.56202 0
M  V30 10169 H 437.976 -1.93423 8.4679 0
M  V30 10170 H 438.248 -1.68852 6.70877 0
M  V30 10171 H 437.38 0.289041 8.15388 0
M  V30 10172 H 434.725 0.927006 5.72848 0
M  V30 10173 H 434.445 -1.86973 6.82036 0
M  V30 10174 H 433.454 -0.403953 7.13357 0
M  V30 10175 H 435.288 -1.20599 8.97534 0
M  V30 10176 P 433.417 1.17771 8.83182 0
M  V30 10177 O 433.197 2.07206 9.98732 0
M  V30 10178 O 432.627 -0.0743816 8.81969 0
M  V30 10179 O 433.167 1.97652 7.47304 0
M  V30 10180 C 434.107 3.01133 7.08783 0
M  V30 10181 C 433.377 4.12613 6.37049 0
M  V30 10182 O 433.167 3.72827 4.97879 0
M  V30 10183 C 431.977 4.45085 6.88694 0
M  V30 10184 O 431.587 5.7877 6.5624 0
M  V30 10185 C 431.097 3.47817 6.12078 0
M  V30 10186 C 431.807 3.39414 4.77697 0
M  V30 10187 N 431.757 2.04615 4.15333 0
M  V30 10188 C 431.837 0.803897 4.75249 0
M  V30 10189 N 431.757 -0.197615 3.91502 0
M  V30 10190 C 431.617 0.413002 2.66823 0
M  V30 10191 C 431.487 -0.157221 1.38007 0
M  V30 10192 N 431.367 0.833136 0.390236 0
M  V30 10193 C 431.367 2.19402 0.623885 0
M  V30 10194 N 431.237 2.97622 -0.449677 0
M  V30 10195 N 431.497 2.73005 1.83601 0
M  V30 10196 C 431.617 1.78786 2.80935 0
M  V30 10197 H 434.596 3.41248 7.98759 0
M  V30 10198 H 434.868 2.5837 6.41742 0
M  V30 10199 H 434 5.02657 6.42673 0
M  V30 10200 P 430.037 6.144 6.45285 0
M  V30 10201 O 429.817 7.54673 6.86199 0
M  V30 10202 O 429.247 5.12391 7.179 0
M  V30 10203 O 429.787 5.99236 4.88467 0
M  V30 10204 C 430.727 6.60234 3.96415 0
M  V30 10205 C 429.997 7.08079 2.736 0
M  V30 10206 O 429.787 5.94365 1.8368 0
M  V30 10207 C 428.597 7.64886 2.9555 0
M  V30 10208 O 428.207 8.5406 1.90739 0
M  V30 10209 C 427.717 6.4116 2.90739 0
M  V30 10210 C 428.427 5.55375 1.86963 0
M  V30 10211 N 428.377 4.09664 2.15742 0
M  V30 10212 C 428.227 3.22231 1.08477 0
M  V30 10213 O 428.137 3.68951 -0.0600489 0
M  V30 10214 N 428.177 1.76692 1.48799 0
M  V30 10215 C 428.277 1.41695 2.57602 0
M  V30 10216 N 428.227 0.107296 2.75791 0
M  V30 10217 C 428.427 2.29178 3.69733 0
M  V30 10218 C 428.477 3.62753 3.42653 0
M  V30 10219 H 431.217 7.45488 4.45578 0
M  V30 10220 H 431.487 5.86232 3.67314 0
M  V30 10221 H 430.62 7.84508 2.24507 0
M  V30 10222 H 427.965 5.73556 0.888715 0
M  V30 10223 H 427.685 5.9096 3.88638 0
M  V30 10224 H 426.694 6.66053 2.58894 0
M  V30 10225 H 428.528 8.16339 3.92049 0
M  V30 10226 H 428.6 4.33052 4.24913 0
M  V30 10227 H 428.498 1.9103 4.71577 0
M  V30 10228 H 428.11 -0.521221 1.95056 0
M  V30 10229 H 428.306 -0.286429 3.70695 0
M  V30 10230 P 426.657 8.7635 1.60911 0
M  V30 10231 O 426.437 10.1388 1.11561 0
M  V30 10232 O 425.867 8.36503 2.79617 0
M  V30 10233 O 426.407 7.71806 0.42951 0
M  V30 10234 C 427.347 7.67148 -0.673689 0
M  V30 10235 C 426.617 7.33374 -1.95559 0
M  V30 10236 O 426.407 5.88721 -2.00726 0
M  V30 10237 C 425.217 7.92526 -2.10483 0
M  V30 10238 O 424.827 8.02971 -3.47653 0
M  V30 10239 C 424.337 6.89602 -1.41652 0
M  V30 10240 C 425.047 5.59201 -1.75185 0
M  V30 10241 N 424.997 4.58235 -0.662552 0
M  V30 10242 H 427.836 8.65116 -0.777161 0
M  V30 10243 H 428.108 6.90173 -0.474152 0
M  V30 10244 H 427.24 7.66548 -2.79458 0
M  V30 10245 P 423.278 8.03563 -3.84925 0
M  V30 10246 O 423.058 8.85821 -5.0569 0
M  V30 10247 O 422.488 8.41101 -2.65469 0
M  V30 10248 O 423.028 6.4965 -4.18908 0
M  V30 10249 C 423.968 5.81037 -5.05421 0
M  V30 10250 C 423.238 4.78366 -5.89277 0
M  V30 10251 O 423.028 3.58302 -5.08433 0
M  V30 10252 C 421.838 5.17448 -6.36119 0
M  V30 10253 O 421.448 4.45271 -7.53232 0
M  V30 10254 C 420.958 4.74639 -5.19936 0
M  V30 10255 C 421.668 3.49432 -4.70418 0
M  V30 10256 N 421.618 3.32099 -3.22613 0
M  V30 10257 H 424.457 6.54213 -5.71376 0
M  V30 10258 H 424.729 5.30936 -4.43503 0
M  V30 10259 H 423.861 4.55889 -6.76652 0
M  V30 10260 H 421.206 2.61715 -5.17932 0
M  V30 10261 H 420.926 5.52155 -4.41878 0
M  V30 10262 H 419.935 4.51981 -5.53374 0
M  V30 10263 H 421.769 6.25124 -6.55234 0
M  V30 10264 P 419.898 4.23843 -7.83734 0
M  V30 10265 O 419.678 4.19407 -9.29784 0
M  V30 10266 O 419.108 5.24426 -7.09156 0
M  V30 10267 O 419.648 2.7935 -7.20758 0
M  V30 10268 C 420.588 1.7299 -7.50419 0
M  V30 10269 C 419.858 0.406376 -7.57911 0
M  V30 10270 O 419.648 -0.0897726 -6.21935 0
M  V30 10271 C 418.458 0.447224 -8.1878 0
M  V30 10272 O 418.068 -0.825065 -8.71101 0
M  V30 10273 C 417.578 0.783801 -6.99623 0
M  V30 10274 C 418.288 0.0619192 -5.85967 0
M  V30 10275 N 418.238 0.790462 -4.56202 0
M  V30 10276 H 421.077 1.93423 -8.4679 0
M  V30 10277 H 421.349 1.68852 -6.70877 0
M  V30 10278 H 420.481 -0.289041 -8.15388 0
M  V30 10279 H 417.826 -0.927006 -5.72848 0
M  V30 10280 H 417.546 1.86973 -6.82036 0
M  V30 10281 H 416.555 0.403953 -7.13357 0
M  V30 10282 H 418.389 1.20599 -8.97534 0
M  V30 10283 P 416.518 -1.17771 -8.83182 0
M  V30 10284 O 416.298 -2.07206 -9.98732 0
M  V30 10285 O 415.728 0.0743816 -8.81969 0
M  V30 10286 O 416.268 -1.97652 -7.47304 0
M  V30 10287 C 417.208 -3.01133 -7.08783 0
M  V30 10288 C 416.478 -4.12613 -6.37049 0
M  V30 10289 O 416.268 -3.72827 -4.97879 0
M  V30 10290 C 415.078 -4.45085 -6.88694 0
M  V30 10291 O 414.688 -5.7877 -6.5624 0
M  V30 10292 C 414.198 -3.47817 -6.12078 0
M  V30 10293 C 414.908 -3.39414 -4.77697 0
M  V30 10294 N 414.858 -2.04199 -4.15538 0
M  V30 10295 H 417.697 -3.41248 -7.98759 0
M  V30 10296 H 417.969 -2.57728 -6.42 0
M  V30 10297 H 417.101 -5.02657 -6.42673 0
M  V30 10298 H 414.446 -4.11708 -4.08956 0
M  V30 10299 H 414.166 -2.49626 -6.61679 0
M  V30 10300 H 413.175 -3.8662 -6.00862 0
M  V30 10301 H 415.009 -4.29991 -7.97006 0
M  V30 10302 P 413.138 -6.144 -6.45285 0
M  V30 10303 O 412.918 -7.54673 -6.86199 0
M  V30 10304 O 412.348 -5.12391 -7.179 0
M  V30 10305 O 412.888 -5.99158 -4.88404 0
M  V30 10306 C 413.828 -6.60234 -3.96415 0
M  V30 10307 C 413.098 -7.08259 -2.72856 0
M  V30 10308 O 412.888 -5.9427 -1.83651 0
M  V30 10309 C 411.698 -7.64886 -2.9555 0
M  V30 10310 O 411.308 -8.53963 -1.90717 0
M  V30 10311 C 410.818 -6.4116 -2.90739 0
M  V30 10312 C 411.528 -5.55375 -1.86963 0
M  V30 10313 N 411.478 -4.09664 -2.15742 0
M  V30 10314 H 414.317 -7.45574 -4.45629 0
M  V30 10315 H 414.589 -5.86232 -3.67314 0
M  V30 10316 H 413.721 -7.84412 -2.24479 0
M  V30 10317 P 409.758 -8.7635 -1.60911 0
M  V30 10318 O 409.538 -10.1388 -1.11561 0
M  V30 10319 O 408.968 -8.36503 -2.79617 0
M  V30 10320 O 409.508 -7.71806 -0.42951 0
M  V30 10321 C 410.448 -7.66948 0.673514 0
M  V30 10322 C 409.718 -7.33374 1.95559 0
M  V30 10323 O 409.508 -5.88721 2.00726 0
M  V30 10324 C 408.318 -7.92218 2.1125 0
M  V30 10325 O 407.928 -8.02971 3.47653 0
M  V30 10326 C 407.438 -6.89504 1.41631 0
M  V30 10327 C 408.148 -5.59106 1.75155 0
M  V30 10328 N 408.098 -4.58136 0.662409 0
M  V30 10329 C 407.948 -3.26059 1.02863 0
M  V30 10330 O 407.858 -2.90743 2.19009 0
M  V30 10331 N 407.908 -2.35995 -0.0155585 0
M  V30 10332 C 407.998 -2.65248 -1.35603 0
M  V30 10333 O 407.948 -1.75605 -2.20651 0
M  V30 10334 C 408.148 -4.05747 -1.64698 0
M  V30 10335 C 408.258 -4.42345 -3.09553 0
M  V30 10336 C 408.198 -4.96734 -0.652411 0
M  V30 10337 H 410.939 -8.64917 0.776982 0
M  V30 10338 H 411.208 -6.89974 0.474015 0
M  V30 10339 H 410.341 -7.66548 2.79458 0
M  V30 10340 H 407.686 -5.16076 2.65138 0
M  V30 10341 H 407.407 -7.06433 0.329384 0
M  V30 10342 H 406.415 -6.90829 1.81996 0
M  V30 10343 H 408.249 -8.90774 1.62639 0
M  V30 10344 H 408.32 -6.02181 -0.895285 0
M  V30 10345 H 407.29 -4.80252 -3.45468 0
M  V30 10346 H 409.027 -5.20015 -3.22119 0
M  V30 10347 H 408.539 -3.53269 -3.67833 0
M  V30 10348 H 407.803 -1.39558 0.227499 0
M  V30 10349 P 406.378 -8.03563 3.84925 0
M  V30 10350 O 406.158 -8.85821 5.0569 0
M  V30 10351 O 405.588 -8.41101 2.65469 0
M  V30 10352 O 406.128 -6.4965 4.18908 0
M  V30 10353 C 407.068 -5.81037 5.05421 0
M  V30 10354 C 406.338 -4.78366 5.89277 0
M  V30 10355 O 406.128 -3.58302 5.08433 0
M  V30 10356 C 404.938 -5.17448 6.36119 0
M  V30 10357 O 404.548 -4.45271 7.53232 0
M  V30 10358 C 404.058 -4.74639 5.19936 0
M  V30 10359 C 404.768 -3.49432 4.70418 0
M  V30 10360 N 404.718 -3.32099 3.22613 0
M  V30 10361 H 407.557 -6.54213 5.71376 0
M  V30 10362 H 407.829 -5.30936 4.43503 0
M  V30 10363 H 406.961 -4.55889 6.76652 0
M  V30 10364 H 404.306 -2.61715 5.17932 0
M  V30 10365 H 404.026 -5.52155 4.41878 0
M  V30 10366 H 403.035 -4.51981 5.53374 0
M  V30 10367 H 404.869 -6.25124 6.55234 0
M  V30 10368 P 402.998 -4.23843 7.83734 0
M  V30 10369 O 402.778 -4.19407 9.29784 0
M  V30 10370 O 402.208 -5.24426 7.09156 0
M  V30 10371 O 402.748 -2.7935 7.20758 0
M  V30 10372 C 403.688 -1.7299 7.50419 0
M  V30 10373 C 402.958 -0.406376 7.57911 0
M  V30 10374 O 402.748 0.0897726 6.21935 0
M  V30 10375 C 401.558 -0.447224 8.1878 0
M  V30 10376 O 401.168 0.825065 8.71101 0
M  V30 10377 C 400.678 -0.783801 6.99623 0
M  V30 10378 C 401.388 -0.0619192 5.85967 0
M  V30 10379 N 401.338 -0.7859 4.56281 0
M  V30 10380 H 404.177 -1.93423 8.4679 0
M  V30 10381 H 404.449 -1.68181 6.71046 0
M  V30 10382 H 403.581 0.289041 8.15388 0
M  V30 10383 P 399.618 1.17771 8.83182 0
M  V30 10384 O 399.398 2.07206 9.98732 0
M  V30 10385 O 398.828 -0.0743816 8.81969 0
M  V30 10386 O 399.368 1.97652 7.47304 0
M  V30 10387 C 400.308 3.01133 7.08783 0
M  V30 10388 C 399.578 4.12613 6.37049 0
M  V30 10389 O 399.368 3.72827 4.97879 0
M  V30 10390 C 398.178 4.45085 6.88694 0
M  V30 10391 O 397.788 5.7877 6.5624 0
M  V30 10392 C 397.298 3.47817 6.12078 0
M  V30 10393 C 398.008 3.39414 4.77697 0
M  V30 10394 N 397.958 2.04615 4.15333 0
M  V30 10395 C 398.038 0.803897 4.75249 0
M  V30 10396 N 397.958 -0.197615 3.91502 0
M  V30 10397 C 397.818 0.413002 2.66823 0
M  V30 10398 C 397.688 -0.157221 1.38007 0
M  V30 10399 N 397.568 0.833136 0.390236 0
M  V30 10400 C 397.568 2.19402 0.623885 0
M  V30 10401 N 397.438 2.97622 -0.449677 0
M  V30 10402 N 397.698 2.73005 1.83601 0
M  V30 10403 C 397.818 1.78786 2.80935 0
M  V30 10404 H 400.797 3.41248 7.98759 0
M  V30 10405 H 401.069 2.5837 6.41742 0
M  V30 10406 H 400.201 5.02657 6.42673 0
M  V30 10407 P 396.238 6.144 6.45285 0
M  V30 10408 O 396.018 7.54673 6.86199 0
M  V30 10409 O 395.448 5.12391 7.179 0
M  V30 10410 O 395.988 5.99158 4.88404 0
M  V30 10411 C 396.928 6.60234 3.96415 0
M  V30 10412 C 396.198 7.08259 2.72856 0
M  V30 10413 O 395.988 5.9427 1.83651 0
M  V30 10414 C 394.798 7.64886 2.9555 0
M  V30 10415 O 394.408 8.53963 1.90717 0
M  V30 10416 C 393.918 6.4116 2.90739 0
M  V30 10417 C 394.628 5.55375 1.86963 0
M  V30 10418 N 394.578 4.09664 2.15742 0
M  V30 10419 H 397.417 7.45574 4.45629 0
M  V30 10420 H 397.689 5.86232 3.67314 0
M  V30 10421 H 396.821 7.84412 2.24479 0
M  V30 10422 P 392.858 8.7635 1.60911 0
M  V30 10423 O 392.638 10.1388 1.11561 0
M  V30 10424 O 392.068 8.36503 2.79617 0
M  V30 10425 O 392.608 7.71806 0.42951 0
M  V30 10426 C 393.548 7.67148 -0.673689 0
M  V30 10427 C 392.818 7.33374 -1.95559 0
M  V30 10428 O 392.608 5.88721 -2.00726 0
M  V30 10429 C 391.418 7.92526 -2.10483 0
M  V30 10430 O 391.028 8.02971 -3.47653 0
M  V30 10431 C 390.538 6.89602 -1.41652 0
M  V30 10432 C 391.248 5.59201 -1.75185 0
M  V30 10433 N 391.198 4.58235 -0.662552 0
M  V30 10434 H 394.037 8.65116 -0.777161 0
M  V30 10435 H 394.309 6.90173 -0.474152 0
M  V30 10436 H 393.441 7.66548 -2.79458 0
M  V30 10437 P 389.478 8.03563 -3.84925 0
M  V30 10438 O 389.258 8.85821 -5.0569 0
M  V30 10439 O 388.688 8.41101 -2.65469 0
M  V30 10440 O 389.228 6.4965 -4.18908 0
M  V30 10441 C 390.168 5.81037 -5.05421 0
M  V30 10442 C 389.438 4.78366 -5.89277 0
M  V30 10443 O 389.228 3.58302 -5.08433 0
M  V30 10444 C 388.038 5.17448 -6.36119 0
M  V30 10445 O 387.648 4.45271 -7.53232 0
M  V30 10446 C 387.158 4.74639 -5.19936 0
M  V30 10447 C 387.868 3.49432 -4.70418 0
M  V30 10448 N 387.818 3.32099 -3.22613 0
M  V30 10449 H 390.657 6.54213 -5.71376 0
M  V30 10450 H 390.929 5.30936 -4.43503 0
M  V30 10451 H 390.061 4.55889 -6.76652 0
M  V30 10452 H 387.406 2.61715 -5.17932 0
M  V30 10453 H 387.126 5.52155 -4.41878 0
M  V30 10454 H 386.135 4.51981 -5.53374 0
M  V30 10455 H 387.969 6.25124 -6.55234 0
M  V30 10456 P 386.098 4.23843 -7.83734 0
M  V30 10457 O 385.878 4.19407 -9.29784 0
M  V30 10458 O 385.308 5.24426 -7.09156 0
M  V30 10459 O 385.848 2.7935 -7.20758 0
M  V30 10460 C 386.788 1.7299 -7.50419 0
M  V30 10461 C 386.058 0.406376 -7.57911 0
M  V30 10462 O 385.848 -0.0897726 -6.21935 0
M  V30 10463 C 384.658 0.447224 -8.1878 0
M  V30 10464 O 384.268 -0.825065 -8.71101 0
M  V30 10465 C 383.778 0.783801 -6.99623 0
M  V30 10466 C 384.488 0.0619192 -5.85967 0
M  V30 10467 N 384.438 0.7859 -4.56281 0
M  V30 10468 H 387.277 1.93423 -8.4679 0
M  V30 10469 H 387.549 1.68181 -6.71046 0
M  V30 10470 H 386.681 -0.289041 -8.15388 0
M  V30 10471 P 382.718 -1.17771 -8.83182 0
M  V30 10472 O 382.498 -2.07206 -9.98732 0
M  V30 10473 O 381.928 0.0743816 -8.81969 0
M  V30 10474 O 382.468 -1.97678 -7.474 0
M  V30 10475 C 383.408 -3.01133 -7.08783 0
M  V30 10476 C 382.678 -4.1203 -6.37546 0
M  V30 10477 O 382.468 -3.72887 -4.9796 0
M  V30 10478 C 381.278 -4.45085 -6.88694 0
M  V30 10479 O 380.888 -5.78836 -6.56315 0
M  V30 10480 C 380.398 -3.47817 -6.12078 0
M  V30 10481 C 381.108 -3.39414 -4.77697 0
M  V30 10482 N 381.058 -2.04615 -4.15333 0
M  V30 10483 C 380.908 -1.96929 -2.77162 0
M  V30 10484 O 380.818 -3.02017 -2.12006 0
M  V30 10485 N 380.858 -0.55485 -2.24237 0
M  V30 10486 C 380.958 0.367808 -2.9169 0
M  V30 10487 N 380.908 1.53426 -2.29427 0
M  V30 10488 C 381.108 0.319148 -4.33828 0
M  V30 10489 C 381.158 -0.920672 -4.90433 0
M  V30 10490 H 383.898 -3.41209 -7.98667 0
M  V30 10491 H 384.168 -2.5837 -6.41742 0
M  V30 10492 H 383.301 -5.02718 -6.42752 0
M  V30 10493 H 380.646 -4.11779 -4.09026 0
M  V30 10494 H 380.366 -2.49661 -6.61772 0
M  V30 10495 H 379.375 -3.86674 -6.00946 0
M  V30 10496 H 381.209 -4.29991 -7.97006 0
M  V30 10497 H 381.281 -1.00589 -5.98303 0
M  V30 10498 H 381.179 1.22639 -4.93799 0
M  V30 10499 H 380.791 1.56819 -1.27167 0
M  V30 10500 H 380.987 2.41062 -2.83063 0
M  V30 10501 P 379.338 -6.144 -6.45285 0
M  V30 10502 O 379.118 -7.54673 -6.86199 0
M  V30 10503 O 378.548 -5.12391 -7.179 0
M  V30 10504 O 379.088 -5.99158 -4.88404 0
M  V30 10505 C 380.028 -6.60234 -3.96415 0
M  V30 10506 C 379.298 -7.08259 -2.72856 0
M  V30 10507 O 379.088 -5.9427 -1.83651 0
M  V30 10508 C 377.898 -7.64886 -2.9555 0
M  V30 10509 O 377.508 -8.53963 -1.90717 0
M  V30 10510 C 377.018 -6.4116 -2.90739 0
M  V30 10511 C 377.728 -5.55375 -1.86963 0
M  V30 10512 N 377.678 -4.09664 -2.15742 0
M  V30 10513 H 380.517 -7.45574 -4.45629 0
M  V30 10514 H 380.789 -5.86232 -3.67314 0
M  V30 10515 H 379.921 -7.84412 -2.24479 0
M  V30 10516 P 375.958 -8.7635 -1.60911 0
M  V30 10517 O 375.738 -10.1388 -1.11561 0
M  V30 10518 O 375.168 -8.36503 -2.79617 0
M  V30 10519 O 375.708 -7.71806 -0.42951 0
M  V30 10520 C 376.648 -7.67148 0.673689 0
M  V30 10521 C 375.918 -7.33374 1.95559 0
M  V30 10522 O 375.708 -5.88721 2.00726 0
M  V30 10523 C 374.518 -7.92526 2.10483 0
M  V30 10524 O 374.128 -8.02971 3.47653 0
M  V30 10525 C 373.638 -6.89602 1.41652 0
M  V30 10526 C 374.348 -5.59201 1.75185 0
M  V30 10527 N 374.298 -4.58235 0.662552 0
M  V30 10528 H 377.137 -8.65116 0.777161 0
M  V30 10529 H 377.409 -6.90173 0.474152 0
M  V30 10530 H 376.541 -7.66548 2.79458 0
M  V30 10531 P 372.578 -8.03563 3.84925 0
M  V30 10532 O 372.358 -8.85821 5.0569 0
M  V30 10533 O 371.788 -8.41101 2.65469 0
M  V30 10534 O 372.328 -6.4965 4.18908 0
M  V30 10535 C 373.268 -5.81037 5.05421 0
M  V30 10536 C 372.538 -4.78366 5.89277 0
M  V30 10537 O 372.328 -3.58302 5.08433 0
M  V30 10538 C 371.138 -5.17448 6.36119 0
M  V30 10539 O 370.748 -4.45271 7.53232 0
M  V30 10540 C 370.258 -4.74639 5.19936 0
M  V30 10541 C 370.968 -3.49432 4.70418 0
M  V30 10542 N 370.918 -3.31776 3.22945 0
M  V30 10543 H 373.757 -6.54213 5.71376 0
M  V30 10544 H 374.029 -5.30492 4.44033 0
M  V30 10545 H 373.161 -4.55889 6.76652 0
M  V30 10546 P 369.198 -4.23843 7.83734 0
M  V30 10547 O 368.978 -4.19407 9.29784 0
M  V30 10548 O 368.408 -5.24426 7.09156 0
M  V30 10549 O 368.948 -2.7935 7.20758 0
M  V30 10550 C 369.888 -1.7299 7.50419 0
M  V30 10551 C 369.158 -0.406376 7.57911 0
M  V30 10552 O 368.948 0.0897726 6.21935 0
M  V30 10553 C 367.758 -0.447224 8.1878 0
M  V30 10554 O 367.368 0.825065 8.71101 0
M  V30 10555 C 366.878 -0.783801 6.99623 0
M  V30 10556 C 367.588 -0.0619192 5.85967 0
M  V30 10557 N 367.538 -0.7859 4.56281 0
M  V30 10558 H 370.377 -1.93423 8.4679 0
M  V30 10559 H 370.649 -1.68181 6.71046 0
M  V30 10560 H 369.781 0.289041 8.15388 0
M  V30 10561 P 365.818 1.17771 8.83182 0
M  V30 10562 O 365.598 2.07206 9.98732 0
M  V30 10563 O 365.028 -0.0743816 8.81969 0
M  V30 10564 O 365.568 1.97652 7.47304 0
M  V30 10565 C 366.508 3.01133 7.08783 0
M  V30 10566 C 365.778 4.12613 6.37049 0
M  V30 10567 O 365.568 3.72827 4.97879 0
M  V30 10568 C 364.378 4.45085 6.88694 0
M  V30 10569 O 363.988 5.7877 6.5624 0
M  V30 10570 C 363.498 3.47817 6.12078 0
M  V30 10571 C 364.208 3.39414 4.77697 0
M  V30 10572 N 364.158 2.04615 4.15333 0
M  V30 10573 H 366.997 3.41248 7.98759 0
M  V30 10574 H 367.269 2.5837 6.41742 0
M  V30 10575 H 366.401 5.02657 6.42673 0
M  V30 10576 P 362.438 6.144 6.45285 0
M  V30 10577 O 362.218 7.54673 6.86199 0
M  V30 10578 O 361.648 5.12391 7.179 0
M  V30 10579 O 362.188 5.99158 4.88404 0
M  V30 10580 C 363.128 6.60234 3.96415 0
M  V30 10581 C 362.398 7.08259 2.72856 0
M  V30 10582 O 362.188 5.9427 1.83651 0
M  V30 10583 C 360.998 7.64886 2.9555 0
M  V30 10584 O 360.608 8.53963 1.90717 0
M  V30 10585 C 360.118 6.4116 2.90739 0
M  V30 10586 C 360.828 5.55375 1.86963 0
M  V30 10587 N 360.778 4.09664 2.15742 0
M  V30 10588 H 363.617 7.45574 4.45629 0
M  V30 10589 H 363.889 5.86232 3.67314 0
M  V30 10590 H 363.021 7.84412 2.24479 0
M  V30 10591 P 359.058 8.7635 1.60911 0
M  V30 10592 O 358.838 10.1388 1.11561 0
M  V30 10593 O 358.268 8.36503 2.79617 0
M  V30 10594 O 358.808 7.71806 0.42951 0
M  V30 10595 C 359.748 7.66948 -0.673514 0
M  V30 10596 C 359.018 7.33374 -1.95559 0
M  V30 10597 O 358.808 5.88721 -2.00726 0
M  V30 10598 C 357.618 7.92218 -2.1125 0
M  V30 10599 O 357.228 8.02971 -3.47653 0
M  V30 10600 C 356.738 6.89504 -1.41631 0
M  V30 10601 C 357.448 5.59106 -1.75155 0
M  V30 10602 N 357.398 4.58136 -0.662409 0
M  V30 10603 C 357.248 3.26059 -1.02863 0
M  V30 10604 O 357.158 2.90743 -2.19009 0
M  V30 10605 N 357.208 2.35995 0.0155585 0
M  V30 10606 C 357.298 2.65248 1.35603 0
M  V30 10607 O 357.248 1.75605 2.20651 0
M  V30 10608 C 357.448 4.05747 1.64698 0
M  V30 10609 C 357.558 4.42345 3.09553 0
M  V30 10610 C 357.498 4.96734 0.652411 0
M  V30 10611 H 360.239 8.64917 -0.776982 0
M  V30 10612 H 360.508 6.89974 -0.474015 0
M  V30 10613 H 359.641 7.66548 -2.79458 0
M  V30 10614 H 356.986 5.16076 -2.65138 0
M  V30 10615 H 356.707 7.06433 -0.329384 0
M  V30 10616 H 355.715 6.90829 -1.81996 0
M  V30 10617 H 357.549 8.90774 -1.62639 0
M  V30 10618 H 357.62 6.02181 0.895285 0
M  V30 10619 H 356.59 4.80252 3.45468 0
M  V30 10620 H 358.327 5.20015 3.22119 0
M  V30 10621 H 357.839 3.53269 3.67833 0
M  V30 10622 H 357.103 1.39558 -0.227499 0
M  V30 10623 P 355.678 8.03563 -3.84925 0
M  V30 10624 O 355.458 8.85821 -5.0569 0
M  V30 10625 O 354.888 8.41101 -2.65469 0
M  V30 10626 O 355.428 6.4965 -4.18908 0
M  V30 10627 C 356.368 5.81037 -5.05421 0
M  V30 10628 C 355.638 4.78366 -5.89277 0
M  V30 10629 O 355.428 3.58302 -5.08433 0
M  V30 10630 C 354.238 5.17448 -6.36119 0
M  V30 10631 O 353.848 4.45271 -7.53232 0
M  V30 10632 C 353.358 4.74639 -5.19936 0
M  V30 10633 C 354.068 3.49432 -4.70418 0
M  V30 10634 N 354.018 3.31776 -3.22945 0
M  V30 10635 H 356.857 6.54213 -5.71376 0
M  V30 10636 H 357.129 5.30492 -4.44033 0
M  V30 10637 H 356.261 4.55889 -6.76652 0
M  V30 10638 P 352.298 4.23843 -7.83734 0
M  V30 10639 O 352.078 4.19407 -9.29784 0
M  V30 10640 O 351.508 5.24426 -7.09156 0
M  V30 10641 O 352.048 2.7935 -7.20758 0
M  V30 10642 C 352.988 1.7299 -7.50419 0
M  V30 10643 C 352.258 0.406376 -7.57911 0
M  V30 10644 O 352.048 -0.0897726 -6.21935 0
M  V30 10645 C 350.858 0.447224 -8.1878 0
M  V30 10646 O 350.468 -0.825065 -8.71101 0
M  V30 10647 C 349.978 0.783801 -6.99623 0
M  V30 10648 C 350.688 0.0619192 -5.85967 0
M  V30 10649 N 350.638 0.7859 -4.56281 0
M  V30 10650 H 353.477 1.93423 -8.4679 0
M  V30 10651 H 353.749 1.68181 -6.71046 0
M  V30 10652 H 352.881 -0.289041 -8.15388 0
M  V30 10653 P 348.918 -1.17771 -8.83182 0
M  V30 10654 O 348.698 -2.07206 -9.98732 0
M  V30 10655 O 348.128 0.0743816 -8.81969 0
M  V30 10656 O 348.668 -1.97652 -7.47304 0
M  V30 10657 C 349.608 -3.01133 -7.08783 0
M  V30 10658 C 348.878 -4.12613 -6.37049 0
M  V30 10659 O 348.668 -3.72827 -4.97879 0
M  V30 10660 C 347.478 -4.45085 -6.88694 0
M  V30 10661 O 347.088 -5.7877 -6.5624 0
M  V30 10662 C 346.598 -3.47817 -6.12078 0
M  V30 10663 C 347.308 -3.39414 -4.77697 0
M  V30 10664 N 347.258 -2.04199 -4.15538 0
M  V30 10665 H 350.097 -3.41248 -7.98759 0
M  V30 10666 H 350.369 -2.57728 -6.42 0
M  V30 10667 H 349.501 -5.02657 -6.42673 0
M  V30 10668 H 346.846 -4.11708 -4.08956 0
M  V30 10669 H 346.566 -2.49626 -6.61679 0
M  V30 10670 H 345.575 -3.8662 -6.00862 0
M  V30 10671 H 347.409 -4.29991 -7.97006 0
M  V30 10672 P 345.538 -6.144 -6.45285 0
M  V30 10673 O 345.318 -7.54673 -6.86199 0
M  V30 10674 O 344.748 -5.12391 -7.179 0
M  V30 10675 O 345.288 -5.99158 -4.88404 0
M  V30 10676 C 346.228 -6.60234 -3.96415 0
M  V30 10677 C 345.498 -7.08259 -2.72856 0
M  V30 10678 O 345.288 -5.9427 -1.83651 0
M  V30 10679 C 344.098 -7.64886 -2.9555 0
M  V30 10680 O 343.708 -8.53963 -1.90717 0
M  V30 10681 C 343.218 -6.4116 -2.90739 0
M  V30 10682 C 343.928 -5.55375 -1.86963 0
M  V30 10683 N 343.878 -4.09664 -2.15742 0
M  V30 10684 H 346.717 -7.45574 -4.45629 0
M  V30 10685 H 346.989 -5.86232 -3.67314 0
M  V30 10686 H 346.121 -7.84412 -2.24479 0
M  V30 10687 P 342.158 -8.7635 -1.60911 0
M  V30 10688 O 341.938 -10.1388 -1.11561 0
M  V30 10689 O 341.368 -8.36503 -2.79617 0
M  V30 10690 O 341.908 -7.71806 -0.42951 0
M  V30 10691 C 342.848 -7.67148 0.673689 0
M  V30 10692 C 342.118 -7.33374 1.95559 0
M  V30 10693 O 341.908 -5.88721 2.00726 0
M  V30 10694 C 340.718 -7.92526 2.10483 0
M  V30 10695 O 340.328 -8.02971 3.47653 0
M  V30 10696 C 339.838 -6.89602 1.41652 0
M  V30 10697 C 340.548 -5.59201 1.75185 0
M  V30 10698 N 340.498 -4.58235 0.662552 0
M  V30 10699 H 343.337 -8.65116 0.777161 0
M  V30 10700 H 343.609 -6.90173 0.474152 0
M  V30 10701 H 342.741 -7.66548 2.79458 0
M  V30 10702 P 338.778 -8.03563 3.84925 0
M  V30 10703 O 338.558 -8.85821 5.0569 0
M  V30 10704 O 337.988 -8.41101 2.65469 0
M  V30 10705 O 338.528 -6.4965 4.18908 0
M  V30 10706 C 339.468 -5.81037 5.05421 0
M  V30 10707 C 338.738 -4.78366 5.89277 0
M  V30 10708 O 338.528 -3.58302 5.08433 0
M  V30 10709 C 337.338 -5.17448 6.36119 0
M  V30 10710 O 336.948 -4.45271 7.53232 0
M  V30 10711 C 336.458 -4.74639 5.19936 0
M  V30 10712 C 337.168 -3.49432 4.70418 0
M  V30 10713 N 337.118 -3.32099 3.22613 0
M  V30 10714 H 339.957 -6.54213 5.71376 0
M  V30 10715 H 340.229 -5.30936 4.43503 0
M  V30 10716 H 339.361 -4.55889 6.76652 0
M  V30 10717 H 336.706 -2.61715 5.17932 0
M  V30 10718 H 336.426 -5.52155 4.41878 0
M  V30 10719 H 335.435 -4.51981 5.53374 0
M  V30 10720 H 337.269 -6.25124 6.55234 0
M  V30 10721 P 335.398 -4.23843 7.83734 0
M  V30 10722 O 335.178 -4.19407 9.29784 0
M  V30 10723 O 334.608 -5.24426 7.09156 0
M  V30 10724 O 335.148 -2.7935 7.20758 0
M  V30 10725 C 336.088 -1.7299 7.50419 0
M  V30 10726 C 335.358 -0.406376 7.57911 0
M  V30 10727 O 335.148 0.0897726 6.21935 0
M  V30 10728 C 333.958 -0.447224 8.1878 0
M  V30 10729 O 333.568 0.825065 8.71101 0
M  V30 10730 C 333.078 -0.783801 6.99623 0
M  V30 10731 C 333.788 -0.0619192 5.85967 0
M  V30 10732 N 333.738 -0.7859 4.56281 0
M  V30 10733 C 333.818 -2.14308 4.31736 0
M  V30 10734 N 333.738 -2.46106 3.05116 0
M  V30 10735 C 333.598 -1.23422 2.4014 0
M  V30 10736 C 333.468 -0.938381 1.02409 0
M  V30 10737 O 333.448 -1.70876 0.0650402 0
M  V30 10738 N 333.348 0.444647 0.805413 0
M  V30 10739 C 333.348 1.40829 1.79435 0
M  V30 10740 N 333.218 2.67213 1.38558 0
M  V30 10741 N 333.478 1.12947 3.09005 0
M  V30 10742 C 333.598 -0.204887 3.32369 0
M  V30 10743 H 336.577 -1.93423 8.4679 0
M  V30 10744 H 336.849 -1.68181 6.71046 0
M  V30 10745 H 335.981 0.289041 8.15388 0
M  V30 10746 H 333.326 0.927166 5.72947 0
M  V30 10747 H 333.046 -1.87 6.82132 0
M  V30 10748 H 332.055 -0.404009 7.13457 0
M  V30 10749 H 333.889 -1.20612 8.97633 0
M  V30 10750 H 333.938 -2.88284 5.10874 0
M  V30 10751 H 333.256 0.755087 -0.140242 0
M  V30 10752 H 333.219 3.43967 2.0729 0
M  V30 10753 H 333.118 2.88096 0.380644 0
M  V30 10754 P 332.018 1.17771 8.83182 0
M  V30 10755 O 331.798 2.07206 9.98732 0
M  V30 10756 O 331.228 -0.0743816 8.81969 0
M  V30 10757 O 331.768 1.97652 7.47304 0
M  V30 10758 C 332.708 3.01133 7.08783 0
M  V30 10759 C 331.978 4.12613 6.37049 0
M  V30 10760 O 331.768 3.72827 4.97879 0
M  V30 10761 C 330.578 4.45085 6.88694 0
M  V30 10762 O 330.188 5.7877 6.5624 0
M  V30 10763 C 329.698 3.47817 6.12078 0
M  V30 10764 C 330.408 3.39414 4.77697 0
M  V30 10765 N 330.358 2.04199 4.15538 0
M  V30 10766 H 333.197 3.41248 7.98759 0
M  V30 10767 H 333.469 2.57728 6.42 0
M  V30 10768 H 332.601 5.02657 6.42673 0
M  V30 10769 H 329.946 4.11708 4.08956 0
M  V30 10770 H 329.666 2.49626 6.61679 0
M  V30 10771 H 328.675 3.8662 6.00862 0
M  V30 10772 H 330.509 4.29991 7.97006 0
M  V30 10773 P 328.638 6.144 6.45285 0
M  V30 10774 O 328.418 7.54673 6.86199 0
M  V30 10775 O 327.848 5.12391 7.179 0
M  V30 10776 O 328.388 5.99158 4.88404 0
M  V30 10777 C 329.328 6.60234 3.96415 0
M  V30 10778 C 328.598 7.08259 2.72856 0
M  V30 10779 O 328.388 5.9427 1.83651 0
M  V30 10780 C 327.198 7.64886 2.9555 0
M  V30 10781 O 326.808 8.53963 1.90717 0
M  V30 10782 C 326.318 6.4116 2.90739 0
M  V30 10783 C 327.028 5.55375 1.86963 0
M  V30 10784 N 326.978 4.09448 2.16152 0
M  V30 10785 C 327.058 3.46824 3.37593 0
M  V30 10786 N 326.988 2.17422 3.29777 0
M  V30 10787 C 326.838 1.93065 1.94427 0
M  V30 10788 C 326.708 0.738053 1.20141 0
M  V30 10789 N 326.698 -0.474256 1.74676 0
M  V30 10790 N 326.588 0.850049 -0.13045 0
M  V30 10791 C 326.598 2.06169 -0.676992 0
M  V30 10792 N 326.718 3.23842 -0.101312 0
M  V30 10793 C 326.838 3.09402 1.23122 0
M  V30 10794 H 329.817 7.45574 4.45629 0
M  V30 10795 H 330.089 5.85864 3.679 0
M  V30 10796 H 329.221 7.84412 2.24479 0
M  V30 10797 H 326.566 5.73457 0.888562 0
M  V30 10798 H 326.286 5.90877 3.88583 0
M  V30 10799 H 325.295 6.6596 2.58858 0
M  V30 10800 H 327.129 8.16339 3.92049 0
M  V30 10801 H 327.17 4.00505 4.3174 0
M  V30 10802 H 326.789 -0.581337 2.76658 0
M  V30 10803 H 326.6 -1.30811 1.14888 0
M  V30 10804 H 326.492 2.08295 -1.75542 0
M  V30 10805 P 325.258 8.7635 1.60911 0
M  V30 10806 O 325.038 10.1388 1.11561 0
M  V30 10807 O 324.468 8.36503 2.79617 0
M  V30 10808 O 325.008 7.71806 0.42951 0
M  V30 10809 C 325.948 7.67148 -0.673689 0
M  V30 10810 C 325.218 7.33374 -1.95559 0
M  V30 10811 O 325.008 5.88721 -2.00726 0
M  V30 10812 C 323.818 7.92526 -2.10483 0
M  V30 10813 O 323.428 8.02971 -3.47653 0
M  V30 10814 C 322.938 6.89602 -1.41652 0
M  V30 10815 C 323.648 5.59201 -1.75185 0
M  V30 10816 N 323.598 4.58235 -0.662552 0
M  V30 10817 H 326.437 8.65116 -0.777161 0
M  V30 10818 H 326.709 6.90173 -0.474152 0
M  V30 10819 H 325.841 7.66548 -2.79458 0
M  V30 10820 P 321.878 8.03563 -3.84925 0
M  V30 10821 O 321.658 8.85821 -5.0569 0
M  V30 10822 O 321.088 8.41101 -2.65469 0
M  V30 10823 O 321.628 6.4965 -4.18908 0
M  V30 10824 C 322.568 5.81037 -5.05421 0
M  V30 10825 C 321.838 4.78366 -5.89277 0
M  V30 10826 O 321.628 3.58302 -5.08433 0
M  V30 10827 C 320.438 5.17448 -6.36119 0
M  V30 10828 O 320.048 4.45271 -7.53232 0
M  V30 10829 C 319.558 4.74639 -5.19936 0
M  V30 10830 C 320.268 3.49432 -4.70418 0
M  V30 10831 N 320.218 3.31776 -3.22945 0
M  V30 10832 H 323.057 6.54213 -5.71376 0
M  V30 10833 H 323.329 5.30492 -4.44033 0
M  V30 10834 H 322.461 4.55889 -6.76652 0
M  V30 10835 P 318.498 4.23843 -7.83734 0
M  V30 10836 O 318.278 4.19407 -9.29784 0
M  V30 10837 O 317.708 5.24426 -7.09156 0
M  V30 10838 O 318.248 2.7935 -7.20758 0
M  V30 10839 C 319.188 1.7299 -7.50419 0
M  V30 10840 C 318.458 0.406376 -7.57911 0
M  V30 10841 O 318.248 -0.0897726 -6.21935 0
M  V30 10842 C 317.058 0.447224 -8.1878 0
M  V30 10843 O 316.668 -0.825065 -8.71101 0
M  V30 10844 C 316.178 0.783801 -6.99623 0
M  V30 10845 C 316.888 0.0619192 -5.85967 0
M  V30 10846 N 316.838 0.7859 -4.56281 0
M  V30 10847 H 319.677 1.93423 -8.4679 0
M  V30 10848 H 319.949 1.68181 -6.71046 0
M  V30 10849 H 319.081 -0.289041 -8.15388 0
M  V30 10850 P 315.118 -1.17771 -8.83182 0
M  V30 10851 O 314.898 -2.07206 -9.98732 0
M  V30 10852 O 314.328 0.0743816 -8.81969 0
M  V30 10853 O 314.868 -1.97652 -7.47304 0
M  V30 10854 C 315.808 -3.01133 -7.08783 0
M  V30 10855 C 315.078 -4.12613 -6.37049 0
M  V30 10856 O 314.868 -3.72827 -4.97879 0
M  V30 10857 C 313.678 -4.45085 -6.88694 0
M  V30 10858 O 313.288 -5.7877 -6.5624 0
M  V30 10859 C 312.798 -3.47817 -6.12078 0
M  V30 10860 C 313.508 -3.39414 -4.77697 0
M  V30 10861 N 313.458 -2.04615 -4.15333 0
M  V30 10862 C 313.538 -0.803897 -4.75249 0
M  V30 10863 N 313.458 0.197615 -3.91502 0
M  V30 10864 C 313.318 -0.413002 -2.66823 0
M  V30 10865 C 313.188 0.157221 -1.38007 0
M  V30 10866 O 313.168 1.34419 -1.057 0
M  V30 10867 N 313.068 -0.833136 -0.390236 0
M  V30 10868 C 313.068 -2.19402 -0.623885 0
M  V30 10869 N 312.938 -2.97622 0.449677 0
M  V30 10870 N 313.198 -2.73005 -1.83601 0
M  V30 10871 C 313.318 -1.78786 -2.80935 0
M  V30 10872 H 316.297 -3.41248 -7.98759 0
M  V30 10873 H 316.569 -2.5837 -6.41742 0
M  V30 10874 H 315.701 -5.02657 -6.42673 0
M  V30 10875 H 313.046 -4.11779 -4.09026 0
M  V30 10876 H 312.766 -2.49661 -6.61772 0
M  V30 10877 H 311.775 -3.86674 -6.00946 0
M  V30 10878 H 313.609 -4.30038 -7.97094 0
M  V30 10879 H 313.658 -0.670579 -5.82754 0
M  V30 10880 H 312.976 -0.528446 0.557287 0
M  V30 10881 H 312.939 -4.00117 0.344773 0
M  V30 10882 H 312.838 -2.55448 1.38544 0
M  V30 10883 P 311.738 -6.144 -6.45285 0
M  V30 10884 O 311.518 -7.54673 -6.86199 0
M  V30 10885 O 310.948 -5.12391 -7.179 0
M  V30 10886 O 311.488 -5.99158 -4.88404 0
M  V30 10887 C 312.428 -6.60234 -3.96415 0
M  V30 10888 C 311.698 -7.08259 -2.72856 0
M  V30 10889 O 311.488 -5.9427 -1.83651 0
M  V30 10890 C 310.298 -7.64886 -2.9555 0
M  V30 10891 O 309.908 -8.53963 -1.90717 0
M  V30 10892 C 309.418 -6.4116 -2.90739 0
M  V30 10893 C 310.128 -5.55375 -1.86963 0
M  V30 10894 N 310.078 -4.09664 -2.15742 0
M  V30 10895 H 312.917 -7.45574 -4.45629 0
M  V30 10896 H 313.189 -5.86232 -3.67314 0
M  V30 10897 H 312.321 -7.84412 -2.24479 0
M  V30 10898 P 308.358 -8.7635 -1.60911 0
M  V30 10899 O 308.138 -10.1388 -1.11561 0
M  V30 10900 O 307.568 -8.36503 -2.79617 0
M  V30 10901 O 308.108 -7.71806 -0.42951 0
M  V30 10902 C 309.048 -7.67148 0.673689 0
M  V30 10903 C 308.318 -7.33374 1.95559 0
M  V30 10904 O 308.108 -5.88721 2.00726 0
M  V30 10905 C 306.918 -7.92526 2.10483 0
M  V30 10906 O 306.528 -8.02971 3.47653 0
M  V30 10907 C 306.038 -6.89602 1.41652 0
M  V30 10908 C 306.748 -5.59201 1.75185 0
M  V30 10909 N 306.698 -4.58235 0.662552 0
M  V30 10910 H 309.537 -8.65116 0.777161 0
M  V30 10911 H 309.809 -6.90173 0.474152 0
M  V30 10912 H 308.941 -7.66548 2.79458 0
M  V30 10913 P 304.978 -8.03563 3.84925 0
M  V30 10914 O 304.758 -8.85821 5.0569 0
M  V30 10915 O 304.188 -8.41101 2.65469 0
M  V30 10916 O 304.728 -6.4965 4.18908 0
M  V30 10917 C 305.668 -5.81037 5.05421 0
M  V30 10918 C 304.938 -4.78366 5.89277 0
M  V30 10919 O 304.728 -3.58302 5.08433 0
M  V30 10920 C 303.538 -5.17448 6.36119 0
M  V30 10921 O 303.148 -4.45271 7.53232 0
M  V30 10922 C 302.658 -4.74639 5.19936 0
M  V30 10923 C 303.368 -3.49432 4.70418 0
M  V30 10924 N 303.318 -3.32099 3.22613 0
M  V30 10925 H 306.157 -6.54213 5.71376 0
M  V30 10926 H 306.429 -5.30936 4.43503 0
M  V30 10927 H 305.561 -4.55889 6.76652 0
M  V30 10928 H 302.906 -2.61715 5.17932 0
M  V30 10929 H 302.626 -5.52155 4.41878 0
M  V30 10930 H 301.635 -4.51981 5.53374 0
M  V30 10931 H 303.469 -6.25124 6.55234 0
M  V30 10932 P 301.598 -4.23843 7.83734 0
M  V30 10933 O 301.378 -4.19407 9.29784 0
M  V30 10934 O 300.808 -5.24426 7.09156 0
M  V30 10935 O 301.348 -2.7935 7.20758 0
M  V30 10936 C 302.288 -1.7299 7.50419 0
M  V30 10937 C 301.558 -0.406376 7.57911 0
M  V30 10938 O 301.348 0.0897726 6.21935 0
M  V30 10939 C 300.158 -0.447224 8.1878 0
M  V30 10940 O 299.768 0.825065 8.71101 0
M  V30 10941 C 299.278 -0.783801 6.99623 0
M  V30 10942 C 299.988 -0.0619192 5.85967 0
M  V30 10943 N 299.938 -0.7859 4.56281 0
M  V30 10944 H 302.777 -1.93423 8.4679 0
M  V30 10945 H 303.049 -1.68181 6.71046 0
M  V30 10946 H 302.181 0.289041 8.15388 0
M  V30 10947 P 298.218 1.17771 8.83182 0
M  V30 10948 O 297.998 2.07206 9.98732 0
M  V30 10949 O 297.428 -0.0743816 8.81969 0
M  V30 10950 O 297.968 1.97652 7.47304 0
M  V30 10951 C 298.908 3.01055 7.08599 0
M  V30 10952 C 298.178 4.12613 6.37049 0
M  V30 10953 O 297.968 3.72827 4.97879 0
M  V30 10954 C 296.778 4.45719 6.88164 0
M  V30 10955 O 296.388 5.7877 6.5624 0
M  V30 10956 C 295.898 3.47768 6.11991 0
M  V30 10957 C 296.608 3.39356 4.77615 0
M  V30 10958 N 296.558 2.04571 4.15244 0
M  V30 10959 C 296.408 1.98587 2.78314 0
M  V30 10960 O 296.318 2.98134 2.08835 0
M  V30 10961 N 296.368 0.714467 2.24925 0
M  V30 10962 C 296.458 -0.470001 2.94169 0
M  V30 10963 O 296.408 -1.55587 2.35195 0
M  V30 10964 C 296.608 -0.312541 4.36783 0
M  V30 10965 C 296.718 -1.57711 5.16352 0
M  V30 10966 C 296.658 0.914512 4.92583 0
M  V30 10967 H 299.399 3.41169 7.98575 0
M  V30 10968 H 299.668 2.58295 6.41556 0
M  V30 10969 H 298.801 5.02657 6.42673 0
M  V30 10970 H 296.146 4.11637 4.08885 0
M  V30 10971 H 295.867 2.49626 6.61679 0
M  V30 10972 H 294.875 3.86566 6.00778 0
M  V30 10973 H 296.709 4.29943 7.96918 0
M  V30 10974 H 296.78 1.00937 6.00374 0
M  V30 10975 H 295.75 -1.80153 5.63503 0
M  V30 10976 H 297.487 -1.4566 5.94104 0
M  V30 10977 H 296.999 -2.40664 4.49645 0
M  V30 10978 H 296.263 0.647622 1.25697 0
M  V30 10979 P 294.838 6.144 6.45285 0
M  V30 10980 O 294.618 7.54673 6.86199 0
M  V30 10981 O 294.048 5.12391 7.179 0
M  V30 10982 O 294.588 5.99158 4.88404 0
M  V30 10983 C 295.528 6.60234 3.96415 0
M  V30 10984 C 294.798 7.08259 2.72856 0
M  V30 10985 O 294.588 5.9427 1.83651 0
M  V30 10986 C 293.398 7.64886 2.9555 0
M  V30 10987 O 293.008 8.53963 1.90717 0
M  V30 10988 C 292.518 6.4116 2.90739 0
M  V30 10989 C 293.228 5.55375 1.86963 0
M  V30 10990 N 293.178 4.09664 2.15742 0
M  V30 10991 H 296.017 7.45574 4.45629 0
M  V30 10992 H 296.289 5.86232 3.67314 0
M  V30 10993 H 295.421 7.84412 2.24479 0
M  V30 10994 P 291.458 8.7635 1.60911 0
M  V30 10995 O 291.238 10.1388 1.11561 0
M  V30 10996 O 290.668 8.36503 2.79617 0
M  V30 10997 O 291.208 7.71806 0.42951 0
M  V30 10998 C 292.148 7.67148 -0.673689 0
M  V30 10999 C 291.418 7.33374 -1.95559 0
M  V30 11000 O 291.208 5.88721 -2.00726 0
M  V30 11001 C 290.018 7.92526 -2.10483 0
M  V30 11002 O 289.628 8.02971 -3.47653 0
M  V30 11003 C 289.138 6.89602 -1.41652 0
M  V30 11004 C 289.848 5.59201 -1.75185 0
M  V30 11005 N 289.798 4.58235 -0.662552 0
M  V30 11006 H 292.637 8.65116 -0.777161 0
M  V30 11007 H 292.909 6.90173 -0.474152 0
M  V30 11008 H 292.041 7.66548 -2.79458 0
M  V30 11009 P 288.078 8.03563 -3.84925 0
M  V30 11010 O 287.858 8.85821 -5.0569 0
M  V30 11011 O 287.288 8.41101 -2.65469 0
M  V30 11012 O 287.828 6.4965 -4.18908 0
M  V30 11013 C 288.768 5.81037 -5.05421 0
M  V30 11014 C 288.038 4.78366 -5.89277 0
M  V30 11015 O 287.828 3.58302 -5.08433 0
M  V30 11016 C 286.638 5.17448 -6.36119 0
M  V30 11017 O 286.248 4.45271 -7.53232 0
M  V30 11018 C 285.758 4.74639 -5.19936 0
M  V30 11019 C 286.468 3.49432 -4.70418 0
M  V30 11020 N 286.418 3.32099 -3.22613 0
M  V30 11021 H 289.257 6.54213 -5.71376 0
M  V30 11022 H 289.529 5.30936 -4.43503 0
M  V30 11023 H 288.661 4.55889 -6.76652 0
M  V30 11024 H 286.006 2.61715 -5.17932 0
M  V30 11025 H 285.726 5.52155 -4.41878 0
M  V30 11026 H 284.735 4.51981 -5.53374 0
M  V30 11027 H 286.569 6.25124 -6.55234 0
M  V30 11028 P 284.698 4.23843 -7.83734 0
M  V30 11029 O 284.478 4.19407 -9.29784 0
M  V30 11030 O 283.908 5.24426 -7.09156 0
M  V30 11031 O 284.448 2.7935 -7.20758 0
M  V30 11032 C 285.388 1.7299 -7.50419 0
M  V30 11033 C 284.658 0.406376 -7.57911 0
M  V30 11034 O 284.448 -0.0897726 -6.21935 0
M  V30 11035 C 283.258 0.447224 -8.1878 0
M  V30 11036 O 282.868 -0.825065 -8.71101 0
M  V30 11037 C 282.378 0.783801 -6.99623 0
M  V30 11038 C 283.088 0.0619192 -5.85967 0
M  V30 11039 N 283.038 0.7859 -4.56281 0
M  V30 11040 H 285.877 1.93423 -8.4679 0
M  V30 11041 H 286.149 1.68181 -6.71046 0
M  V30 11042 H 285.281 -0.289041 -8.15388 0
M  V30 11043 P 281.318 -1.17771 -8.83182 0
M  V30 11044 O 281.098 -2.07206 -9.98732 0
M  V30 11045 O 280.528 0.0743816 -8.81969 0
M  V30 11046 O 281.068 -1.97652 -7.47304 0
M  V30 11047 C 282.008 -3.01133 -7.08783 0
M  V30 11048 C 281.278 -4.12613 -6.37049 0
M  V30 11049 O 281.068 -3.72827 -4.97879 0
M  V30 11050 C 279.878 -4.45085 -6.88694 0
M  V30 11051 O 279.488 -5.7877 -6.5624 0
M  V30 11052 C 278.998 -3.47817 -6.12078 0
M  V30 11053 C 279.708 -3.39414 -4.77697 0
M  V30 11054 N 279.658 -2.04615 -4.15333 0
M  V30 11055 H 282.497 -3.41248 -7.98759 0
M  V30 11056 H 282.769 -2.5837 -6.41742 0
M  V30 11057 H 281.901 -5.02657 -6.42673 0
M  V30 11058 P 277.938 -6.144 -6.45285 0
M  V30 11059 O 277.718 -7.54673 -6.86199 0
M  V30 11060 O 277.148 -5.12391 -7.179 0
M  V30 11061 O 277.688 -5.99158 -4.88404 0
M  V30 11062 C 278.628 -6.60234 -3.96415 0
M  V30 11063 C 277.898 -7.08259 -2.72856 0
M  V30 11064 O 277.688 -5.9427 -1.83651 0
M  V30 11065 C 276.498 -7.64886 -2.9555 0
M  V30 11066 O 276.108 -8.53963 -1.90717 0
M  V30 11067 C 275.618 -6.4116 -2.90739 0
M  V30 11068 C 276.328 -5.55375 -1.86963 0
M  V30 11069 N 276.278 -4.09448 -2.16152 0
M  V30 11070 H 279.117 -7.45574 -4.45629 0
M  V30 11071 H 279.389 -5.85864 -3.679 0
M  V30 11072 H 278.521 -7.84412 -2.24479 0
M  V30 11073 H 275.866 -5.73457 -0.888562 0
M  V30 11074 H 275.586 -5.90877 -3.88583 0
M  V30 11075 H 274.595 -6.6596 -2.58858 0
M  V30 11076 H 276.429 -8.16339 -3.92049 0
M  V30 11077 P 274.558 -8.7635 -1.60911 0
M  V30 11078 O 274.338 -10.1388 -1.11561 0
M  V30 11079 O 273.768 -8.36503 -2.79617 0
M  V30 11080 O 274.308 -7.71806 -0.42951 0
M  V30 11081 C 275.248 -7.67148 0.673689 0
M  V30 11082 C 274.518 -7.33374 1.95559 0
M  V30 11083 O 274.308 -5.88721 2.00726 0
M  V30 11084 C 273.118 -7.92526 2.10483 0
M  V30 11085 O 272.728 -8.02971 3.47653 0
M  V30 11086 C 272.238 -6.89602 1.41652 0
M  V30 11087 C 272.948 -5.59201 1.75185 0
M  V30 11088 N 272.898 -4.58235 0.662552 0
M  V30 11089 H 275.737 -8.65116 0.777161 0
M  V30 11090 H 276.009 -6.90173 0.474152 0
M  V30 11091 H 275.141 -7.66548 2.79458 0
M  V30 11092 P 271.178 -8.03563 3.84925 0
M  V30 11093 O 270.958 -8.85821 5.0569 0
M  V30 11094 O 270.388 -8.41101 2.65469 0
M  V30 11095 O 270.928 -6.49734 4.18962 0
M  V30 11096 C 271.868 -5.81037 5.05421 0
M  V30 11097 C 271.138 -4.79018 5.88876 0
M  V30 11098 O 270.928 -3.58359 5.08515 0
M  V30 11099 C 269.738 -5.17448 6.36119 0
M  V30 11100 O 269.348 -4.45322 7.53318 0
M  V30 11101 C 268.858 -4.74639 5.19936 0
M  V30 11102 C 269.568 -3.49432 4.70418 0
M  V30 11103 N 269.518 -3.31776 3.22945 0
M  V30 11104 C 269.368 -2.02742 2.72939 0
M  V30 11105 O 269.278 -1.08301 3.52749 0
M  V30 11106 N 269.318 -1.96117 1.22063 0
M  V30 11107 C 269.418 -2.8878 0.551566 0
M  V30 11108 N 269.368 -2.65609 -0.750198 0
M  V30 11109 C 269.568 -4.22457 1.03707 0
M  V30 11110 C 269.618 -4.37979 2.39113 0
M  V30 11111 H 272.358 -6.54138 5.7131 0
M  V30 11112 H 272.628 -5.30492 4.44033 0
M  V30 11113 H 271.761 -4.55945 6.76735 0
M  V30 11114 H 269.106 -2.6176 5.18021 0
M  V30 11115 H 268.826 -5.52233 4.41941 0
M  V30 11116 H 267.835 -4.52045 5.53452 0
M  V30 11117 H 269.669 -6.25124 6.55234 0
M  V30 11118 H 269.741 -5.37936 2.80552 0
M  V30 11119 H 269.639 -5.07528 0.359553 0
M  V30 11120 H 269.251 -1.69403 -1.09847 0
M  V30 11121 H 269.447 -3.43701 -1.41792 0
M  V30 11122 P 267.798 -4.23843 7.83734 0
M  V30 11123 O 267.578 -4.19407 9.29784 0
M  V30 11124 O 267.008 -5.24426 7.09156 0
M  V30 11125 O 267.548 -2.7935 7.20758 0
M  V30 11126 C 268.488 -1.7299 7.50419 0
M  V30 11127 C 267.758 -0.406376 7.57911 0
M  V30 11128 O 267.548 0.0897726 6.21935 0
M  V30 11129 C 266.358 -0.447224 8.1878 0
M  V30 11130 O 265.968 0.825065 8.71101 0
M  V30 11131 C 265.478 -0.783801 6.99623 0
M  V30 11132 C 266.188 -0.0619192 5.85967 0
M  V30 11133 N 266.138 -0.790462 4.56202 0
M  V30 11134 H 268.977 -1.93423 8.4679 0
M  V30 11135 H 269.249 -1.68852 6.70877 0
M  V30 11136 H 268.381 0.289041 8.15388 0
M  V30 11137 H 265.726 0.927006 5.72848 0
M  V30 11138 H 265.446 -1.86973 6.82036 0
M  V30 11139 H 264.455 -0.403953 7.13357 0
M  V30 11140 H 266.289 -1.20599 8.97534 0
M  V30 11141 P 264.418 1.17771 8.83182 0
M  V30 11142 O 264.198 2.07206 9.98732 0
M  V30 11143 O 263.628 -0.0743816 8.81969 0
M  V30 11144 O 264.168 1.97652 7.47304 0
M  V30 11145 C 265.108 3.01133 7.08783 0
M  V30 11146 C 264.378 4.12613 6.37049 0
M  V30 11147 O 264.168 3.72827 4.97879 0
M  V30 11148 C 262.978 4.45085 6.88694 0
M  V30 11149 O 262.588 5.7877 6.5624 0
M  V30 11150 C 262.098 3.47817 6.12078 0
M  V30 11151 C 262.808 3.39414 4.77697 0
M  V30 11152 N 262.758 2.04199 4.15538 0
M  V30 11153 H 265.597 3.41248 7.98759 0
M  V30 11154 H 265.869 2.57728 6.42 0
M  V30 11155 H 265.001 5.02657 6.42673 0
M  V30 11156 H 262.346 4.11708 4.08956 0
M  V30 11157 H 262.066 2.49626 6.61679 0
M  V30 11158 H 261.075 3.8662 6.00862 0
M  V30 11159 H 262.909 4.29991 7.97006 0
M  V30 11160 P 261.038 6.144 6.45285 0
M  V30 11161 O 260.818 7.54673 6.86199 0
M  V30 11162 O 260.248 5.12391 7.179 0
M  V30 11163 O 260.788 5.99158 4.88404 0
M  V30 11164 C 261.728 6.60234 3.96415 0
M  V30 11165 C 260.998 7.08259 2.72856 0
M  V30 11166 O 260.788 5.9427 1.83651 0
M  V30 11167 C 259.598 7.64886 2.9555 0
M  V30 11168 O 259.208 8.53963 1.90717 0
M  V30 11169 C 258.718 6.4116 2.90739 0
M  V30 11170 C 259.428 5.55375 1.86963 0
M  V30 11171 N 259.378 4.09448 2.16152 0
M  V30 11172 H 262.217 7.45574 4.45629 0
M  V30 11173 H 262.489 5.85864 3.679 0
M  V30 11174 H 261.621 7.84412 2.24479 0
M  V30 11175 H 258.966 5.73457 0.888562 0
M  V30 11176 H 258.686 5.90877 3.88583 0
M  V30 11177 H 257.695 6.6596 2.58858 0
M  V30 11178 H 259.529 8.16339 3.92049 0
M  V30 11179 P 257.658 8.7635 1.60911 0
M  V30 11180 O 257.438 10.1388 1.11561 0
M  V30 11181 O 256.868 8.36503 2.79617 0
M  V30 11182 O 257.408 7.71806 0.42951 0
M  V30 11183 C 258.348 7.67148 -0.673689 0
M  V30 11184 C 257.618 7.33374 -1.95559 0
M  V30 11185 O 257.408 5.88721 -2.00726 0
M  V30 11186 C 256.218 7.92526 -2.10483 0
M  V30 11187 O 255.828 8.02971 -3.47653 0
M  V30 11188 C 255.338 6.89602 -1.41652 0
M  V30 11189 C 256.048 5.59201 -1.75185 0
M  V30 11190 N 255.998 4.58235 -0.662552 0
M  V30 11191 H 258.837 8.65116 -0.777161 0
M  V30 11192 H 259.109 6.90173 -0.474152 0
M  V30 11193 H 258.241 7.66548 -2.79458 0
M  V30 11194 P 254.279 8.03563 -3.84925 0
M  V30 11195 O 254.059 8.85821 -5.0569 0
M  V30 11196 O 253.489 8.41101 -2.65469 0
M  V30 11197 O 254.029 6.4965 -4.18908 0
M  V30 11198 C 254.969 5.81037 -5.05421 0
M  V30 11199 C 254.239 4.78366 -5.89277 0
M  V30 11200 O 254.029 3.58302 -5.08433 0
M  V30 11201 C 252.839 5.17448 -6.36119 0
M  V30 11202 O 252.449 4.45271 -7.53232 0
M  V30 11203 C 251.959 4.74639 -5.19936 0
M  V30 11204 C 252.669 3.49432 -4.70418 0
M  V30 11205 N 252.619 3.31776 -3.22945 0
M  V30 11206 H 255.458 6.54213 -5.71376 0
M  V30 11207 H 255.73 5.30492 -4.44033 0
M  V30 11208 H 254.862 4.55889 -6.76652 0
M  V30 11209 P 250.899 4.23843 -7.83734 0
M  V30 11210 O 250.679 4.19407 -9.29784 0
M  V30 11211 O 250.109 5.24426 -7.09156 0
M  V30 11212 O 250.649 2.7935 -7.20758 0
M  V30 11213 C 251.589 1.72945 -7.50224 0
M  V30 11214 C 250.859 0.406376 -7.57911 0
M  V30 11215 O 250.649 -0.0897726 -6.21935 0
M  V30 11216 C 249.459 0.438983 -8.18724 0
M  V30 11217 O 249.069 -0.825065 -8.71101 0
M  V30 11218 C 248.579 0.783689 -6.99524 0
M  V30 11219 C 249.289 0.0619086 -5.85867 0
M  V30 11220 N 249.239 0.78573 -4.56183 0
M  V30 11221 C 249.089 0.0292889 -3.41887 0
M  V30 11222 O 248.999 -1.18445 -3.4419 0
M  V30 11223 N 249.049 0.744061 -2.23964 0
M  V30 11224 C 249.139 2.10932 -2.10362 0
M  V30 11225 O 249.089 2.64117 -0.98825 0
M  V30 11226 C 249.289 2.8202 -3.34994 0
M  V30 11227 C 249.399 4.31095 -3.25037 0
M  V30 11228 C 249.339 2.15547 -4.52261 0
M  V30 11229 H 252.08 1.93379 -8.46595 0
M  V30 11230 H 252.349 1.68132 -6.70852 0
M  V30 11231 H 251.482 -0.289041 -8.15388 0
M  V30 11232 H 248.827 -0.926847 -5.72749 0
M  V30 11233 H 248.548 1.86973 -6.82036 0
M  V30 11234 H 247.556 0.403896 -7.13257 0
M  V30 11235 H 249.39 1.20585 -8.97435 0
M  V30 11236 H 249.461 2.71231 -5.45042 0
M  V30 11237 H 248.431 4.76966 -3.49992 0
M  V30 11238 H 250.168 4.67047 -3.95024 0
M  V30 11239 H 249.68 4.58996 -2.22312 0
M  V30 11240 H 248.944 0.214893 -1.39758 0
M  V30 11241 P 247.519 -1.17771 -8.83182 0
M  V30 11242 O 247.299 -2.07206 -9.98732 0
M  V30 11243 O 246.729 0.0743816 -8.81969 0
M  V30 11244 O 247.269 -1.97652 -7.47304 0
M  V30 11245 C 248.209 -3.01055 -7.08599 0
M  V30 11246 C 247.479 -4.12613 -6.37049 0
M  V30 11247 O 247.269 -3.72827 -4.97879 0
M  V30 11248 C 246.079 -4.45719 -6.88164 0
M  V30 11249 O 245.689 -5.7877 -6.5624 0
M  V30 11250 C 245.199 -3.47768 -6.11991 0
M  V30 11251 C 245.909 -3.39356 -4.77615 0
M  V30 11252 N 245.859 -2.04571 -4.15244 0
M  V30 11253 C 245.709 -1.98587 -2.78314 0
M  V30 11254 O 245.619 -2.98134 -2.08835 0
M  V30 11255 N 245.669 -0.714467 -2.24925 0
M  V30 11256 C 245.759 0.470001 -2.94169 0
M  V30 11257 C 245.909 0.312541 -4.36783 0
M  V30 11258 C 245.959 -0.914512 -4.92583 0
M  V30 11259 H 248.7 -3.41169 -7.98575 0
M  V30 11260 H 248.969 -2.58295 -6.41556 0
M  V30 11261 H 248.102 -5.02657 -6.42673 0
M  V30 11262 H 245.447 -4.11637 -4.08885 0
M  V30 11263 H 245.168 -2.49626 -6.61679 0
M  V30 11264 H 244.176 -3.86566 -6.00778 0
M  V30 11265 H 246.01 -4.29943 -7.96918 0
M  V30 11266 H 246.081 -1.00937 -6.00374 0
M  V30 11267 P 244.139 -6.144 -6.45285 0
M  V30 11268 O 243.919 -7.54673 -6.86199 0
M  V30 11269 O 243.349 -5.12391 -7.179 0
M  V30 11270 O 243.889 -5.99158 -4.88404 0
M  V30 11271 C 244.829 -6.60234 -3.96415 0
M  V30 11272 C 244.099 -7.08259 -2.72856 0
M  V30 11273 O 243.889 -5.9427 -1.83651 0
M  V30 11274 C 242.699 -7.64886 -2.9555 0
M  V30 11275 O 242.309 -8.53963 -1.90717 0
M  V30 11276 C 241.819 -6.4116 -2.90739 0
M  V30 11277 C 242.529 -5.55375 -1.86963 0
M  V30 11278 N 242.479 -4.09664 -2.15742 0
M  V30 11279 H 245.318 -7.45574 -4.45629 0
M  V30 11280 H 245.59 -5.86232 -3.67314 0
M  V30 11281 H 244.722 -7.84412 -2.24479 0
M  V30 11282 P 240.759 -8.7635 -1.60911 0
M  V30 11283 O 240.539 -10.1388 -1.11561 0
M  V30 11284 O 239.969 -8.36503 -2.79617 0
M  V30 11285 O 240.509 -7.71906 -0.429565 0
M  V30 11286 C 241.449 -7.67148 0.673689 0
M  V30 11287 C 240.719 -7.33666 1.94851 0
M  V30 11288 O 240.509 -5.88816 2.00759 0
M  V30 11289 C 239.319 -7.92526 2.10483 0
M  V30 11290 O 238.929 -8.03063 3.47693 0
M  V30 11291 C 238.439 -6.89602 1.41652 0
M  V30 11292 C 239.149 -5.59201 1.75185 0
M  V30 11293 N 239.099 -4.58235 0.662552 0
M  V30 11294 C 238.949 -3.24451 1.01643 0
M  V30 11295 O 238.859 -2.94958 2.21722 0
M  V30 11296 N 238.899 -2.30408 -0.165238 0
M  V30 11297 C 238.999 -2.66048 -1.25118 0
M  V30 11298 N 238.949 -1.70787 -2.16813 0
M  V30 11299 C 239.149 -4.02732 -1.64413 0
M  V30 11300 C 239.199 -4.9488 -0.63991 0
M  V30 11301 H 241.939 -8.65017 0.777072 0
M  V30 11302 H 242.209 -6.90173 0.474152 0
M  V30 11303 H 241.342 -7.66642 2.79492 0
M  V30 11304 H 238.687 -5.16254 2.65229 0
M  V30 11305 H 238.407 -7.06532 0.329431 0
M  V30 11306 H 237.416 -6.91023 1.82047 0
M  V30 11307 H 239.25 -8.90873 1.62657 0
M  V30 11308 H 239.322 -6.00104 -0.892197 0
M  V30 11309 H 239.22 -4.31733 -2.69229 0
M  V30 11310 H 238.832 -0.724835 -1.8844 0
M  V30 11311 H 239.028 -1.94716 -3.16734 0
M  V30 11312 P 237.379 -8.03563 3.84925 0
M  V30 11313 O 237.159 -8.85821 5.0569 0
M  V30 11314 O 236.589 -8.41101 2.65469 0
M  V30 11315 O 237.129 -6.4965 4.18908 0
M  V30 11316 C 238.069 -5.81037 5.05421 0
M  V30 11317 C 237.339 -4.78366 5.89277 0
M  V30 11318 O 237.129 -3.58302 5.08433 0
M  V30 11319 C 235.939 -5.17448 6.36119 0
M  V30 11320 O 235.549 -4.45271 7.53232 0
M  V30 11321 C 235.059 -4.74639 5.19936 0
M  V30 11322 C 235.769 -3.49432 4.70418 0
M  V30 11323 N 235.719 -3.32099 3.22613 0
M  V30 11324 H 238.558 -6.54213 5.71376 0
M  V30 11325 H 238.83 -5.30936 4.43503 0
M  V30 11326 H 237.962 -4.55889 6.76652 0
M  V30 11327 H 235.307 -2.61715 5.17932 0
M  V30 11328 H 235.027 -5.52155 4.41878 0
M  V30 11329 H 234.036 -4.51981 5.53374 0
M  V30 11330 H 235.87 -6.25124 6.55234 0
M  V30 11331 P 233.999 -4.23843 7.83734 0
M  V30 11332 O 233.779 -4.19407 9.29784 0
M  V30 11333 O 233.209 -5.24426 7.09156 0
M  V30 11334 O 233.749 -2.7935 7.20758 0
M  V30 11335 C 234.689 -1.7299 7.50419 0
M  V30 11336 C 233.959 -0.406376 7.57911 0
M  V30 11337 O 233.749 0.0897726 6.21935 0
M  V30 11338 C 232.559 -0.447224 8.1878 0
M  V30 11339 O 232.169 0.825065 8.71101 0
M  V30 11340 C 231.679 -0.783801 6.99623 0
M  V30 11341 C 232.389 -0.0619192 5.85967 0
M  V30 11342 N 232.339 -0.7859 4.56281 0
M  V30 11343 H 235.178 -1.93423 8.4679 0
M  V30 11344 H 235.45 -1.68181 6.71046 0
M  V30 11345 H 234.582 0.289041 8.15388 0
M  V30 11346 P 230.619 1.17771 8.83182 0
M  V30 11347 O 230.399 2.07206 9.98732 0
M  V30 11348 O 229.829 -0.0743816 8.81969 0
M  V30 11349 O 230.369 1.97652 7.47304 0
M  V30 11350 C 231.309 3.01133 7.08783 0
M  V30 11351 C 230.579 4.12613 6.37049 0
M  V30 11352 O 230.369 3.72827 4.97879 0
M  V30 11353 C 229.179 4.45085 6.88694 0
M  V30 11354 O 228.789 5.7877 6.5624 0
M  V30 11355 C 228.299 3.47817 6.12078 0
M  V30 11356 C 229.009 3.39414 4.77697 0
M  V30 11357 N 228.959 2.04615 4.15333 0
M  V30 11358 H 231.798 3.41248 7.98759 0
M  V30 11359 H 232.07 2.5837 6.41742 0
M  V30 11360 H 231.202 5.02657 6.42673 0
M  V30 11361 P 227.239 6.144 6.45285 0
M  V30 11362 O 227.019 7.54673 6.86199 0
M  V30 11363 O 226.449 5.12391 7.179 0
M  V30 11364 O 226.989 5.99158 4.88404 0
M  V30 11365 C 227.929 6.60234 3.96415 0
M  V30 11366 C 227.199 7.08259 2.72856 0
M  V30 11367 O 226.989 5.9427 1.83651 0
M  V30 11368 C 225.799 7.64886 2.9555 0
M  V30 11369 O 225.409 8.53963 1.90717 0
M  V30 11370 C 224.919 6.4116 2.90739 0
M  V30 11371 C 225.629 5.55375 1.86963 0
M  V30 11372 N 225.579 4.09664 2.15742 0
M  V30 11373 H 228.418 7.45574 4.45629 0
M  V30 11374 H 228.69 5.86232 3.67314 0
M  V30 11375 H 227.822 7.84412 2.24479 0
M  V30 11376 P 223.859 8.7635 1.60911 0
M  V30 11377 O 223.639 10.1388 1.11561 0
M  V30 11378 O 223.069 8.36503 2.79617 0
M  V30 11379 O 223.609 7.71806 0.42951 0
M  V30 11380 C 224.549 7.67148 -0.673689 0
M  V30 11381 C 223.819 7.33374 -1.95559 0
M  V30 11382 O 223.609 5.88721 -2.00726 0
M  V30 11383 C 222.419 7.92526 -2.10483 0
M  V30 11384 O 222.029 8.02971 -3.47653 0
M  V30 11385 C 221.539 6.89602 -1.41652 0
M  V30 11386 C 222.249 5.59201 -1.75185 0
M  V30 11387 N 222.199 4.58301 -0.657969 0
M  V30 11388 H 225.038 8.65116 -0.777161 0
M  V30 11389 H 225.31 6.9022 -0.46725 0
M  V30 11390 H 224.442 7.66548 -2.79458 0
M  V30 11391 H 221.787 5.16165 -2.65183 0
M  V30 11392 H 221.507 7.06433 -0.329384 0
M  V30 11393 H 220.516 6.90926 -1.82021 0
M  V30 11394 H 222.35 8.90873 -1.62657 0
M  V30 11395 P 220.479 8.03563 -3.84925 0
M  V30 11396 O 220.259 8.85821 -5.0569 0
M  V30 11397 O 219.689 8.41101 -2.65469 0
M  V30 11398 O 220.229 6.4965 -4.18908 0
M  V30 11399 C 221.169 5.81037 -5.05421 0
M  V30 11400 C 220.439 4.78366 -5.89277 0
M  V30 11401 O 220.229 3.58302 -5.08433 0
M  V30 11402 C 219.039 5.17448 -6.36119 0
M  V30 11403 O 218.649 4.45271 -7.53232 0
M  V30 11404 C 218.159 4.74639 -5.19936 0
M  V30 11405 C 218.869 3.49432 -4.70418 0
M  V30 11406 N 218.819 3.31776 -3.22945 0
M  V30 11407 C 218.899 4.27147 -2.23315 0
M  V30 11408 N 218.819 3.78447 -1.02186 0
M  V30 11409 C 218.679 2.41001 -1.21732 0
M  V30 11410 C 218.549 1.36111 -0.27694 0
M  V30 11411 O 218.529 1.42065 0.951767 0
M  V30 11412 N 218.429 0.113683 -0.912949 0
M  V30 11413 C 218.429 -0.0846396 -2.27943 0
M  V30 11414 N 218.299 -1.34737 -2.6916 0
M  V30 11415 N 218.559 0.902521 -3.16379 0
M  V30 11416 C 218.679 2.11937 -2.56849 0
M  V30 11417 H 221.658 6.54213 -5.71376 0
M  V30 11418 H 221.93 5.30492 -4.44033 0
M  V30 11419 H 221.062 4.55889 -6.76652 0
M  V30 11420 H 218.407 2.6176 -5.18021 0
M  V30 11421 H 218.127 5.52233 -4.41941 0
M  V30 11422 H 217.136 4.52045 -5.53452 0
M  V30 11423 H 218.97 6.25193 -6.55307 0
M  V30 11424 H 219.019 5.3351 -2.43857 0
M  V30 11425 H 218.337 -0.69331 -0.330371 0
M  V30 11426 H 218.3 -1.56433 -3.6988 0
M  V30 11427 H 218.199 -2.10701 -2.00133 0
M  V30 11428 P 217.099 4.23843 -7.83734 0
M  V30 11429 O 216.879 4.19407 -9.29784 0
M  V30 11430 O 216.309 5.24426 -7.09156 0
M  V30 11431 O 216.849 2.7935 -7.20758 0
M  V30 11432 C 217.789 1.7299 -7.50419 0
M  V30 11433 C 217.059 0.406376 -7.57911 0
M  V30 11434 O 216.849 -0.0897726 -6.21935 0
M  V30 11435 C 215.659 0.447224 -8.1878 0
M  V30 11436 O 215.269 -0.825065 -8.71101 0
M  V30 11437 C 214.779 0.783801 -6.99623 0
M  V30 11438 C 215.489 0.0619192 -5.85967 0
M  V30 11439 N 215.439 0.7859 -4.56281 0
M  V30 11440 H 218.278 1.93423 -8.4679 0
M  V30 11441 H 218.55 1.68181 -6.71046 0
M  V30 11442 H 217.682 -0.289041 -8.15388 0
M  V30 11443 P 213.719 -1.17771 -8.83182 0
M  V30 11444 O 213.499 -2.07206 -9.98732 0
M  V30 11445 O 212.929 0.0743816 -8.81969 0
M  V30 11446 O 213.469 -1.97652 -7.47304 0
M  V30 11447 C 214.409 -3.01133 -7.08783 0
M  V30 11448 C 213.679 -4.12613 -6.37049 0
M  V30 11449 O 213.469 -3.72827 -4.97879 0
M  V30 11450 C 212.279 -4.45085 -6.88694 0
M  V30 11451 O 211.889 -5.7877 -6.5624 0
M  V30 11452 C 211.399 -3.47817 -6.12078 0
M  V30 11453 C 212.109 -3.39414 -4.77697 0
M  V30 11454 N 212.059 -2.04199 -4.15538 0
M  V30 11455 H 214.898 -3.41248 -7.98759 0
M  V30 11456 H 215.17 -2.57728 -6.42 0
M  V30 11457 H 214.302 -5.02657 -6.42673 0
M  V30 11458 H 211.647 -4.11708 -4.08956 0
M  V30 11459 H 211.367 -2.49626 -6.61679 0
M  V30 11460 H 210.376 -3.8662 -6.00862 0
M  V30 11461 H 212.21 -4.29991 -7.97006 0
M  V30 11462 P 210.339 -6.144 -6.45285 0
M  V30 11463 O 210.119 -7.54673 -6.86199 0
M  V30 11464 O 209.549 -5.12391 -7.179 0
M  V30 11465 O 210.089 -5.99158 -4.88404 0
M  V30 11466 C 211.029 -6.60234 -3.96415 0
M  V30 11467 C 210.299 -7.08259 -2.72856 0
M  V30 11468 O 210.089 -5.9427 -1.83651 0
M  V30 11469 C 208.899 -7.64886 -2.9555 0
M  V30 11470 O 208.509 -8.53963 -1.90717 0
M  V30 11471 C 208.019 -6.4116 -2.90739 0
M  V30 11472 C 208.729 -5.55375 -1.86963 0
M  V30 11473 N 208.679 -4.09664 -2.15742 0
M  V30 11474 H 211.518 -7.45574 -4.45629 0
M  V30 11475 H 211.79 -5.86232 -3.67314 0
M  V30 11476 H 210.922 -7.84412 -2.24479 0
M  V30 11477 P 206.959 -8.7635 -1.60911 0
M  V30 11478 O 206.739 -10.1388 -1.11561 0
M  V30 11479 O 206.169 -8.36503 -2.79617 0
M  V30 11480 O 206.709 -7.71806 -0.42951 0
M  V30 11481 C 207.649 -7.67148 0.673689 0
M  V30 11482 C 206.919 -7.33374 1.95559 0
M  V30 11483 O 206.709 -5.88721 2.00726 0
M  V30 11484 C 205.519 -7.92526 2.10483 0
M  V30 11485 O 205.129 -8.02971 3.47653 0
M  V30 11486 C 204.639 -6.89602 1.41652 0
M  V30 11487 C 205.349 -5.59201 1.75185 0
M  V30 11488 N 205.299 -4.58301 0.657969 0
M  V30 11489 C 205.379 -4.79019 -0.692603 0
M  V30 11490 N 205.309 -3.69736 -1.38998 0
M  V30 11491 C 205.159 -2.70474 -0.438135 0
M  V30 11492 C 205.029 -1.30327 -0.538142 0
M  V30 11493 N 205.019 -0.64304 -1.69192 0
M  V30 11494 N 204.909 -0.611027 0.605183 0
M  V30 11495 C 204.919 -1.27002 1.75953 0
M  V30 11496 N 205.039 -2.56038 1.98546 0
M  V30 11497 C 205.159 -3.22681 0.822541 0
M  V30 11498 H 208.138 -8.65116 0.777161 0
M  V30 11499 H 208.41 -6.9022 0.46725 0
M  V30 11500 H 207.542 -7.66548 2.79458 0
M  V30 11501 H 204.887 -5.16165 2.65183 0
M  V30 11502 H 204.607 -7.06433 0.329384 0
M  V30 11503 H 203.616 -6.90926 1.82021 0
M  V30 11504 H 205.45 -8.90873 1.62657 0
M  V30 11505 H 205.491 -5.77785 -1.13874 0
M  V30 11506 H 205.11 -1.15585 -2.57991 0
M  V30 11507 H 204.921 0.382989 -1.69835 0
M  V30 11508 H 204.813 -0.653331 2.64449 0
M  V30 11509 P 203.579 -8.03563 3.84925 0
M  V30 11510 O 203.359 -8.85821 5.0569 0
M  V30 11511 O 202.789 -8.41101 2.65469 0
M  V30 11512 O 203.329 -6.4965 4.18908 0
M  V30 11513 C 204.269 -5.80886 5.05289 0
M  V30 11514 C 203.539 -4.78366 5.89277 0
M  V30 11515 O 203.329 -3.58302 5.08433 0
M  V30 11516 C 202.139 -5.16748 6.36559 0
M  V30 11517 O 201.749 -4.45271 7.53232 0
M  V30 11518 C 201.259 -4.74572 5.19863 0
M  V30 11519 C 201.969 -3.49373 4.70338 0
M  V30 11520 N 201.919 -3.31704 3.22876 0
M  V30 11521 C 201.769 -2.03326 2.74871 0
M  V30 11522 O 201.679 -1.06486 3.48076 0
M  V30 11523 N 201.729 -1.91838 1.37456 0
M  V30 11524 C 201.819 -2.94295 0.462035 0
M  V30 11525 O 201.769 -2.71763 -0.752928 0
M  V30 11526 C 201.969 -4.25064 1.05249 0
M  V30 11527 C 202.079 -5.39815 0.095697 0
M  V30 11528 C 202.019 -4.40214 2.39192 0
M  V30 11529 H 204.76 -6.54063 5.71245 0
M  V30 11530 H 205.029 -5.30339 4.43905 0
M  V30 11531 H 204.162 -4.55889 6.76652 0
M  V30 11532 H 201.507 -2.6167 5.17842 0
M  V30 11533 H 201.228 -5.52155 4.41878 0
M  V30 11534 H 200.236 -4.51918 5.53297 0
M  V30 11535 H 202.07 -6.25055 6.55162 0
M  V30 11536 H 202.141 -5.39798 2.81523 0
M  V30 11537 H 201.111 -5.91593 0.0279582 0
M  V30 11538 H 202.848 -6.10038 0.450573 0
M  V30 11539 H 202.36 -5.02007 -0.89937 0
M  V30 11540 H 201.624 -0.995326 1.00435 0
M  V30 11541 P 200.199 -4.23843 7.83734 0
M  V30 11542 O 199.979 -4.19407 9.29784 0
M  V30 11543 O 199.409 -5.24426 7.09156 0
M  V30 11544 O 199.949 -2.7935 7.20758 0
M  V30 11545 C 200.889 -1.7299 7.50419 0
M  V30 11546 C 200.159 -0.406376 7.57911 0
M  V30 11547 O 199.949 0.0897726 6.21935 0
M  V30 11548 C 198.759 -0.447224 8.1878 0
M  V30 11549 O 198.369 0.825065 8.71101 0
M  V30 11550 C 197.879 -0.783801 6.99623 0
M  V30 11551 C 198.589 -0.0619192 5.85967 0
M  V30 11552 N 198.539 -0.7859 4.56281 0
M  V30 11553 H 201.378 -1.93423 8.4679 0
M  V30 11554 H 201.65 -1.68181 6.71046 0
M  V30 11555 H 200.782 0.289041 8.15388 0
M  V30 11556 P 196.819 1.17771 8.83182 0
M  V30 11557 O 196.599 2.07206 9.98732 0
M  V30 11558 O 196.029 -0.0743816 8.81969 0
M  V30 11559 O 196.569 1.97652 7.47304 0
M  V30 11560 C 197.509 3.01133 7.08783 0
M  V30 11561 C 196.779 4.12613 6.37049 0
M  V30 11562 O 196.569 3.72827 4.97879 0
M  V30 11563 C 195.379 4.45085 6.88694 0
M  V30 11564 O 194.989 5.7877 6.5624 0
M  V30 11565 C 194.499 3.47817 6.12078 0
M  V30 11566 C 195.209 3.39414 4.77697 0
M  V30 11567 N 195.159 2.04199 4.15538 0
M  V30 11568 H 197.998 3.41248 7.98759 0
M  V30 11569 H 198.27 2.57728 6.42 0
M  V30 11570 H 197.402 5.02657 6.42673 0
M  V30 11571 H 194.747 4.11708 4.08956 0
M  V30 11572 H 194.467 2.49626 6.61679 0
M  V30 11573 H 193.476 3.8662 6.00862 0
M  V30 11574 H 195.31 4.29991 7.97006 0
M  V30 11575 P 193.439 6.144 6.45285 0
M  V30 11576 O 193.219 7.54673 6.86199 0
M  V30 11577 O 192.649 5.12391 7.179 0
M  V30 11578 O 193.189 5.99236 4.88467 0
M  V30 11579 C 194.129 6.60234 3.96415 0
M  V30 11580 C 193.399 7.08079 2.736 0
M  V30 11581 O 193.189 5.94365 1.8368 0
M  V30 11582 C 191.999 7.64886 2.9555 0
M  V30 11583 O 191.609 8.5406 1.90739 0
M  V30 11584 C 191.119 6.4116 2.90739 0
M  V30 11585 C 191.829 5.55375 1.86963 0
M  V30 11586 N 191.779 4.09664 2.15742 0
M  V30 11587 C 191.629 3.22231 1.08477 0
M  V30 11588 O 191.539 3.68951 -0.0600489 0
M  V30 11589 N 191.579 1.76692 1.48799 0
M  V30 11590 C 191.679 1.41695 2.57602 0
M  V30 11591 N 191.629 0.107296 2.75791 0
M  V30 11592 C 191.829 2.29178 3.69733 0
M  V30 11593 C 191.879 3.62753 3.42653 0
M  V30 11594 H 194.619 7.45488 4.45578 0
M  V30 11595 H 194.889 5.86232 3.67314 0
M  V30 11596 H 194.022 7.84508 2.24507 0
M  V30 11597 H 191.367 5.73556 0.888715 0
M  V30 11598 H 191.087 5.9096 3.88638 0
M  V30 11599 H 190.096 6.66053 2.58894 0
M  V30 11600 H 191.93 8.16339 3.92049 0
M  V30 11601 H 192.002 4.33052 4.24913 0
M  V30 11602 H 191.9 1.9103 4.71577 0
M  V30 11603 H 191.512 -0.521221 1.95056 0
M  V30 11604 H 191.708 -0.286429 3.70695 0
M  V30 11605 P 190.059 8.7635 1.60911 0
M  V30 11606 O 189.839 10.1388 1.11561 0
M  V30 11607 O 189.269 8.36503 2.79617 0
M  V30 11608 O 189.809 7.71806 0.42951 0
M  V30 11609 C 190.749 7.67148 -0.673689 0
M  V30 11610 C 190.019 7.33374 -1.95559 0
M  V30 11611 O 189.809 5.88721 -2.00726 0
M  V30 11612 C 188.619 7.92526 -2.10483 0
M  V30 11613 O 188.229 8.02971 -3.47653 0
M  V30 11614 C 187.739 6.89602 -1.41652 0
M  V30 11615 C 188.449 5.59201 -1.75185 0
M  V30 11616 N 188.399 4.58301 -0.657969 0
M  V30 11617 H 191.238 8.65116 -0.777161 0
M  V30 11618 H 191.51 6.9022 -0.46725 0
M  V30 11619 H 190.642 7.66548 -2.79458 0
M  V30 11620 H 187.987 5.16165 -2.65183 0
M  V30 11621 H 187.707 7.06433 -0.329384 0
M  V30 11622 H 186.716 6.90926 -1.82021 0
M  V30 11623 H 188.55 8.90873 -1.62657 0
M  V30 11624 P 186.679 8.03563 -3.84925 0
M  V30 11625 O 186.459 8.85821 -5.0569 0
M  V30 11626 O 185.889 8.41101 -2.65469 0
M  V30 11627 O 186.429 6.4965 -4.18908 0
M  V30 11628 C 187.369 5.81037 -5.05421 0
M  V30 11629 C 186.639 4.78366 -5.89277 0
M  V30 11630 O 186.429 3.58302 -5.08433 0
M  V30 11631 C 185.239 5.17448 -6.36119 0
M  V30 11632 O 184.849 4.45271 -7.53232 0
M  V30 11633 C 184.359 4.74639 -5.19936 0
M  V30 11634 C 185.069 3.49432 -4.70418 0
M  V30 11635 N 185.019 3.31776 -3.22945 0
M  V30 11636 H 187.858 6.54213 -5.71376 0
M  V30 11637 H 188.13 5.30492 -4.44033 0
M  V30 11638 H 187.262 4.55889 -6.76652 0
M  V30 11639 P 183.299 4.23843 -7.83734 0
M  V30 11640 O 183.079 4.19407 -9.29784 0
M  V30 11641 O 182.509 5.24426 -7.09156 0
M  V30 11642 O 183.049 2.7935 -7.20758 0
M  V30 11643 C 183.989 1.7299 -7.50419 0
M  V30 11644 C 183.259 0.406376 -7.57911 0
M  V30 11645 O 183.049 -0.0897726 -6.21935 0
M  V30 11646 C 181.859 0.447224 -8.1878 0
M  V30 11647 O 181.469 -0.825065 -8.71101 0
M  V30 11648 C 180.979 0.783801 -6.99623 0
M  V30 11649 C 181.689 0.0619192 -5.85967 0
M  V30 11650 N 181.639 0.790462 -4.56202 0
M  V30 11651 H 184.478 1.93423 -8.4679 0
M  V30 11652 H 184.75 1.68852 -6.70877 0
M  V30 11653 H 183.882 -0.289041 -8.15388 0
M  V30 11654 H 181.227 -0.927006 -5.72848 0
M  V30 11655 H 180.947 1.86973 -6.82036 0
M  V30 11656 H 179.956 0.403953 -7.13357 0
M  V30 11657 H 181.79 1.20599 -8.97534 0
M  V30 11658 P 179.919 -1.17771 -8.83182 0
M  V30 11659 O 179.699 -2.07206 -9.98732 0
M  V30 11660 O 179.129 0.0743816 -8.81969 0
M  V30 11661 O 179.669 -1.97652 -7.47304 0
M  V30 11662 C 180.609 -3.01133 -7.08783 0
M  V30 11663 C 179.879 -4.12613 -6.37049 0
M  V30 11664 O 179.669 -3.72827 -4.97879 0
M  V30 11665 C 178.479 -4.45085 -6.88694 0
M  V30 11666 O 178.089 -5.7877 -6.5624 0
M  V30 11667 C 177.599 -3.47817 -6.12078 0
M  V30 11668 C 178.309 -3.39414 -4.77697 0
M  V30 11669 N 178.259 -2.04199 -4.15538 0
M  V30 11670 C 178.339 -0.821545 -4.76977 0
M  V30 11671 N 178.269 0.1794 -3.94592 0
M  V30 11672 C 178.119 -0.419121 -2.70776 0
M  V30 11673 C 177.989 0.109072 -1.40577 0
M  V30 11674 N 177.979 1.4104 -1.1344 0
M  V30 11675 N 177.869 -0.764381 -0.39411 0
M  V30 11676 C 177.879 -2.06587 -0.664135 0
M  V30 11677 N 177.999 -2.67948 -1.82153 0
M  V30 11678 C 178.119 -1.77942 -2.8147 0
M  V30 11679 H 181.098 -3.41248 -7.98759 0
M  V30 11680 H 181.37 -2.57728 -6.42 0
M  V30 11681 H 180.502 -5.02657 -6.42673 0
M  V30 11682 H 177.847 -4.11708 -4.08956 0
M  V30 11683 H 177.567 -2.49626 -6.61679 0
M  V30 11684 H 176.576 -3.8662 -6.00862 0
M  V30 11685 H 178.41 -4.29991 -7.97006 0
M  V30 11686 H 178.451 -0.702451 -5.84696 0
M  V30 11687 H 178.07 2.09647 -1.89651 0
M  V30 11688 H 177.881 1.73358 -0.160575 0
M  V30 11689 H 177.773 -2.71695 0.195838 0
M  V30 11690 P 176.539 -6.144 -6.45285 0
M  V30 11691 O 176.319 -7.54673 -6.86199 0
M  V30 11692 O 175.749 -5.12391 -7.179 0
M  V30 11693 O 176.289 -5.99158 -4.88404 0
M  V30 11694 C 177.229 -6.60234 -3.96415 0
M  V30 11695 C 176.499 -7.08259 -2.72856 0
M  V30 11696 O 176.289 -5.9427 -1.83651 0
M  V30 11697 C 175.099 -7.64886 -2.9555 0
M  V30 11698 O 174.709 -8.53963 -1.90717 0
M  V30 11699 C 174.219 -6.4116 -2.90739 0
M  V30 11700 C 174.929 -5.55375 -1.86963 0
M  V30 11701 N 174.879 -4.09448 -2.16152 0
M  V30 11702 H 177.718 -7.45574 -4.45629 0
M  V30 11703 H 177.99 -5.85864 -3.679 0
M  V30 11704 H 177.122 -7.84412 -2.24479 0
M  V30 11705 H 174.467 -5.73457 -0.888562 0
M  V30 11706 H 174.187 -5.90877 -3.88583 0
M  V30 11707 H 173.196 -6.6596 -2.58858 0
M  V30 11708 H 175.03 -8.16339 -3.92049 0
M  V30 11709 P 173.159 -8.7635 -1.60911 0
M  V30 11710 O 172.939 -10.1388 -1.11561 0
M  V30 11711 O 172.369 -8.36503 -2.79617 0
M  V30 11712 O 172.909 -7.71806 -0.42951 0
M  V30 11713 C 173.849 -7.67148 0.673689 0
M  V30 11714 C 173.119 -7.33374 1.95559 0
M  V30 11715 O 172.909 -5.88721 2.00726 0
M  V30 11716 C 171.719 -7.92526 2.10483 0
M  V30 11717 O 171.329 -8.02971 3.47653 0
M  V30 11718 C 170.839 -6.89602 1.41652 0
M  V30 11719 C 171.549 -5.59201 1.75185 0
M  V30 11720 N 171.499 -4.58235 0.662552 0
M  V30 11721 H 174.338 -8.65116 0.777161 0
M  V30 11722 H 174.61 -6.90173 0.474152 0
M  V30 11723 H 173.742 -7.66548 2.79458 0
M  V30 11724 P 169.779 -8.03563 3.84925 0
M  V30 11725 O 169.559 -8.85821 5.0569 0
M  V30 11726 O 168.989 -8.41101 2.65469 0
M  V30 11727 O 169.529 -6.4965 4.18908 0
M  V30 11728 C 170.469 -5.81037 5.05421 0
M  V30 11729 C 169.739 -4.78366 5.89277 0
M  V30 11730 O 169.529 -3.58302 5.08433 0
M  V30 11731 C 168.339 -5.17448 6.36119 0
M  V30 11732 O 167.949 -4.45271 7.53232 0
M  V30 11733 C 167.459 -4.74639 5.19936 0
M  V30 11734 C 168.169 -3.49432 4.70418 0
M  V30 11735 N 168.119 -3.32099 3.22613 0
M  V30 11736 H 170.958 -6.54213 5.71376 0
M  V30 11737 H 171.23 -5.30936 4.43503 0
M  V30 11738 H 170.362 -4.55889 6.76652 0
M  V30 11739 H 167.707 -2.61715 5.17932 0
M  V30 11740 H 167.427 -5.52155 4.41878 0
M  V30 11741 H 166.436 -4.51981 5.53374 0
M  V30 11742 H 168.27 -6.25124 6.55234 0
M  V30 11743 P 166.399 -4.23843 7.83734 0
M  V30 11744 O 166.179 -4.19407 9.29784 0
M  V30 11745 O 165.609 -5.24426 7.09156 0
M  V30 11746 O 166.149 -2.7935 7.20758 0
M  V30 11747 C 167.089 -1.7299 7.50419 0
M  V30 11748 C 166.359 -0.406376 7.57911 0
M  V30 11749 O 166.149 0.0897726 6.21935 0
M  V30 11750 C 164.959 -0.447224 8.1878 0
M  V30 11751 O 164.569 0.825065 8.71101 0
M  V30 11752 C 164.079 -0.783801 6.99623 0
M  V30 11753 C 164.789 -0.0619192 5.85967 0
M  V30 11754 N 164.739 -0.7859 4.56281 0
M  V30 11755 H 167.578 -1.93423 8.4679 0
M  V30 11756 H 167.85 -1.68181 6.71046 0
M  V30 11757 H 166.982 0.289041 8.15388 0
M  V30 11758 P 163.019 1.17771 8.83182 0
M  V30 11759 O 162.799 2.07206 9.98732 0
M  V30 11760 O 162.229 -0.0743816 8.81969 0
M  V30 11761 O 162.769 1.97652 7.47304 0
M  V30 11762 C 163.709 3.01133 7.08783 0
M  V30 11763 C 162.979 4.12613 6.37049 0
M  V30 11764 O 162.769 3.72827 4.97879 0
M  V30 11765 C 161.579 4.45085 6.88694 0
M  V30 11766 O 161.189 5.7877 6.5624 0
M  V30 11767 C 160.699 3.47817 6.12078 0
M  V30 11768 C 161.409 3.39414 4.77697 0
M  V30 11769 N 161.359 2.04615 4.15333 0
M  V30 11770 H 164.198 3.41248 7.98759 0
M  V30 11771 H 164.47 2.5837 6.41742 0
M  V30 11772 H 163.602 5.02657 6.42673 0
M  V30 11773 P 159.639 6.144 6.45285 0
M  V30 11774 O 159.419 7.54673 6.86199 0
M  V30 11775 O 158.849 5.12391 7.179 0
M  V30 11776 O 159.389 5.99158 4.88404 0
M  V30 11777 C 160.329 6.60234 3.96415 0
M  V30 11778 C 159.599 7.08259 2.72856 0
M  V30 11779 O 159.389 5.9427 1.83651 0
M  V30 11780 C 158.199 7.64886 2.9555 0
M  V30 11781 O 157.809 8.53963 1.90717 0
M  V30 11782 C 157.319 6.4116 2.90739 0
M  V30 11783 C 158.029 5.55375 1.86963 0
M  V30 11784 N 157.979 4.09448 2.16152 0
M  V30 11785 H 160.818 7.45574 4.45629 0
M  V30 11786 H 161.09 5.85864 3.679 0
M  V30 11787 H 160.222 7.84412 2.24479 0
M  V30 11788 H 157.567 5.73457 0.888562 0
M  V30 11789 H 157.287 5.90877 3.88583 0
M  V30 11790 H 156.296 6.6596 2.58858 0
M  V30 11791 H 158.13 8.16339 3.92049 0
M  V30 11792 P 156.259 8.7635 1.60911 0
M  V30 11793 O 156.039 10.1388 1.11561 0
M  V30 11794 O 155.469 8.36503 2.79617 0
M  V30 11795 O 156.009 7.71806 0.42951 0
M  V30 11796 C 156.949 7.67148 -0.673689 0
M  V30 11797 C 156.219 7.33374 -1.95559 0
M  V30 11798 O 156.009 5.88721 -2.00726 0
M  V30 11799 C 154.819 7.92526 -2.10483 0
M  V30 11800 O 154.429 8.02971 -3.47653 0
M  V30 11801 C 153.939 6.89602 -1.41652 0
M  V30 11802 C 154.649 5.59201 -1.75185 0
M  V30 11803 N 154.599 4.58235 -0.662552 0
M  V30 11804 H 157.438 8.65116 -0.777161 0
M  V30 11805 H 157.71 6.90173 -0.474152 0
M  V30 11806 H 156.842 7.66548 -2.79458 0
M  V30 11807 P 152.879 8.03563 -3.84925 0
M  V30 11808 O 152.659 8.85821 -5.0569 0
M  V30 11809 O 152.089 8.41101 -2.65469 0
M  V30 11810 O 152.629 6.4965 -4.18908 0
M  V30 11811 C 153.569 5.81037 -5.05421 0
M  V30 11812 C 152.839 4.78366 -5.89277 0
M  V30 11813 O 152.629 3.58302 -5.08433 0
M  V30 11814 C 151.439 5.17448 -6.36119 0
M  V30 11815 O 151.049 4.45271 -7.53232 0
M  V30 11816 C 150.559 4.74639 -5.19936 0
M  V30 11817 C 151.269 3.49432 -4.70418 0
M  V30 11818 N 151.219 3.31776 -3.22945 0
M  V30 11819 C 151.299 4.27147 -2.23315 0
M  V30 11820 N 151.219 3.78447 -1.02186 0
M  V30 11821 C 151.079 2.41001 -1.21732 0
M  V30 11822 C 150.949 1.36111 -0.27694 0
M  V30 11823 N 150.829 0.113683 -0.912949 0
M  V30 11824 C 150.829 -0.0846396 -2.27943 0
M  V30 11825 N 150.699 -1.34737 -2.6916 0
M  V30 11826 N 150.959 0.902521 -3.16379 0
M  V30 11827 C 151.079 2.11937 -2.56849 0
M  V30 11828 H 154.058 6.54213 -5.71376 0
M  V30 11829 H 154.33 5.30492 -4.44033 0
M  V30 11830 H 153.462 4.55889 -6.76652 0
M  V30 11831 P 149.499 4.23843 -7.83734 0
M  V30 11832 O 149.279 4.19407 -9.29784 0
M  V30 11833 O 148.709 5.24426 -7.09156 0
M  V30 11834 O 149.249 2.7935 -7.20758 0
M  V30 11835 C 150.189 1.7299 -7.50419 0
M  V30 11836 C 149.459 0.406376 -7.57911 0
M  V30 11837 O 149.249 -0.0897726 -6.21935 0
M  V30 11838 C 148.059 0.447224 -8.1878 0
M  V30 11839 O 147.669 -0.825065 -8.71101 0
M  V30 11840 C 147.179 0.783801 -6.99623 0
M  V30 11841 C 147.889 0.0619192 -5.85967 0
M  V30 11842 N 147.839 0.7859 -4.56281 0
M  V30 11843 H 150.678 1.93423 -8.4679 0
M  V30 11844 H 150.95 1.68181 -6.71046 0
M  V30 11845 H 150.082 -0.289041 -8.15388 0
M  V30 11846 P 146.119 -1.17771 -8.83182 0
M  V30 11847 O 145.899 -2.07206 -9.98732 0
M  V30 11848 O 145.329 0.0743816 -8.81969 0
M  V30 11849 O 145.869 -1.97652 -7.47304 0
M  V30 11850 C 146.809 -3.01055 -7.08599 0
M  V30 11851 C 146.079 -4.12613 -6.37049 0
M  V30 11852 O 145.869 -3.72827 -4.97879 0
M  V30 11853 C 144.679 -4.45719 -6.88164 0
M  V30 11854 O 144.289 -5.7877 -6.5624 0
M  V30 11855 C 143.799 -3.47768 -6.11991 0
M  V30 11856 C 144.509 -3.39356 -4.77615 0
M  V30 11857 N 144.459 -2.04571 -4.15244 0
M  V30 11858 C 144.309 -1.98587 -2.78314 0
M  V30 11859 O 144.219 -2.98134 -2.08835 0
M  V30 11860 N 144.269 -0.714467 -2.24925 0
M  V30 11861 C 144.359 0.470001 -2.94169 0
M  V30 11862 O 144.309 1.55587 -2.35195 0
M  V30 11863 C 144.509 0.312541 -4.36783 0
M  V30 11864 C 144.619 1.57711 -5.16352 0
M  V30 11865 C 144.559 -0.914512 -4.92583 0
M  V30 11866 H 147.3 -3.41169 -7.98575 0
M  V30 11867 H 147.569 -2.58295 -6.41556 0
M  V30 11868 H 146.702 -5.02657 -6.42673 0
M  V30 11869 H 144.047 -4.11637 -4.08885 0
M  V30 11870 H 143.768 -2.49626 -6.61679 0
M  V30 11871 H 142.776 -3.86566 -6.00778 0
M  V30 11872 H 144.61 -4.29943 -7.96918 0
M  V30 11873 H 144.681 -1.00937 -6.00374 0
M  V30 11874 H 143.651 1.80153 -5.63503 0
M  V30 11875 H 145.388 1.4566 -5.94104 0
M  V30 11876 H 144.9 2.40664 -4.49645 0
M  V30 11877 H 144.164 -0.647622 -1.25697 0
M  V30 11878 P 142.739 -6.144 -6.45285 0
M  V30 11879 O 142.519 -7.54673 -6.86199 0
M  V30 11880 O 141.949 -5.12391 -7.179 0
M  V30 11881 O 142.489 -5.99158 -4.88404 0
M  V30 11882 C 143.429 -6.60234 -3.96415 0
M  V30 11883 C 142.699 -7.08259 -2.72856 0
M  V30 11884 O 142.489 -5.9427 -1.83651 0
M  V30 11885 C 141.299 -7.64886 -2.9555 0
M  V30 11886 O 140.909 -8.53963 -1.90717 0
M  V30 11887 C 140.419 -6.4116 -2.90739 0
M  V30 11888 C 141.129 -5.55375 -1.86963 0
M  V30 11889 N 141.079 -4.09664 -2.15742 0
M  V30 11890 H 143.918 -7.45574 -4.45629 0
M  V30 11891 H 144.19 -5.86232 -3.67314 0
M  V30 11892 H 143.322 -7.84412 -2.24479 0
M  V30 11893 P 139.359 -8.7635 -1.60911 0
M  V30 11894 O 139.139 -10.1388 -1.11561 0
M  V30 11895 O 138.569 -8.36503 -2.79617 0
M  V30 11896 O 139.109 -7.71906 -0.429565 0
M  V30 11897 C 140.049 -7.67148 0.673689 0
M  V30 11898 C 139.319 -7.33666 1.94851 0
M  V30 11899 O 139.109 -5.88816 2.00759 0
M  V30 11900 C 137.919 -7.92526 2.10483 0
M  V30 11901 O 137.529 -8.03063 3.47693 0
M  V30 11902 C 137.039 -6.89602 1.41652 0
M  V30 11903 C 137.749 -5.59201 1.75185 0
M  V30 11904 N 137.699 -4.58235 0.662552 0
M  V30 11905 C 137.549 -3.24451 1.01643 0
M  V30 11906 O 137.459 -2.94958 2.21722 0
M  V30 11907 N 137.499 -2.30408 -0.165238 0
M  V30 11908 C 137.599 -2.66048 -1.25118 0
M  V30 11909 N 137.549 -1.70787 -2.16813 0
M  V30 11910 C 137.749 -4.02732 -1.64413 0
M  V30 11911 C 137.799 -4.9488 -0.63991 0
M  V30 11912 H 140.539 -8.65017 0.777072 0
M  V30 11913 H 140.809 -6.90173 0.474152 0
M  V30 11914 H 139.942 -7.66642 2.79492 0
M  V30 11915 H 137.287 -5.16254 2.65229 0
M  V30 11916 H 137.007 -7.06532 0.329431 0
M  V30 11917 H 136.016 -6.91023 1.82047 0
M  V30 11918 H 137.85 -8.90873 1.62657 0
M  V30 11919 H 137.922 -6.00104 -0.892197 0
M  V30 11920 H 137.82 -4.31733 -2.69229 0
M  V30 11921 H 137.432 -0.724835 -1.8844 0
M  V30 11922 H 137.628 -1.94716 -3.16734 0
M  V30 11923 P 135.979 -8.03563 3.84925 0
M  V30 11924 O 135.759 -8.85821 5.0569 0
M  V30 11925 O 135.189 -8.41101 2.65469 0
M  V30 11926 O 135.729 -6.4965 4.18908 0
M  V30 11927 C 136.669 -5.81037 5.05421 0
M  V30 11928 C 135.939 -4.78366 5.89277 0
M  V30 11929 O 135.729 -3.58302 5.08433 0
M  V30 11930 C 134.539 -5.17448 6.36119 0
M  V30 11931 O 134.149 -4.45271 7.53232 0
M  V30 11932 C 133.659 -4.74639 5.19936 0
M  V30 11933 C 134.369 -3.49432 4.70418 0
M  V30 11934 N 134.319 -3.31776 3.22945 0
M  V30 11935 H 137.158 -6.54213 5.71376 0
M  V30 11936 H 137.43 -5.30492 4.44033 0
M  V30 11937 H 136.562 -4.55889 6.76652 0
M  V30 11938 P 132.599 -4.23843 7.83734 0
M  V30 11939 O 132.379 -4.19407 9.29784 0
M  V30 11940 O 131.809 -5.24426 7.09156 0
M  V30 11941 O 132.349 -2.79386 7.20852 0
M  V30 11942 C 133.289 -1.7299 7.50419 0
M  V30 11943 C 132.559 -0.41401 7.5797 0
M  V30 11944 O 132.349 0.089787 6.22035 0
M  V30 11945 C 131.159 -0.447224 8.1878 0
M  V30 11946 O 130.769 0.825159 8.71201 0
M  V30 11947 C 130.279 -0.783801 6.99623 0
M  V30 11948 C 130.989 -0.0619192 5.85967 0
M  V30 11949 N 130.939 -0.7859 4.56281 0
M  V30 11950 C 130.789 -0.0359258 3.39981 0
M  V30 11951 O 130.699 1.19723 3.49038 0
M  V30 11952 N 130.739 -0.869151 2.14025 0
M  V30 11953 C 130.839 -2.01207 2.14363 0
M  V30 11954 N 130.789 -2.58978 0.954287 0
M  V30 11955 C 130.989 -2.80817 3.32215 0
M  V30 11956 C 131.039 -2.13785 4.50884 0
M  V30 11957 H 133.779 -1.93401 8.46693 0
M  V30 11958 H 134.049 -1.68181 6.71046 0
M  V30 11959 H 133.182 0.289076 8.15488 0
M  V30 11960 H 130.527 0.927166 5.72947 0
M  V30 11961 H 130.247 -1.87 6.82132 0
M  V30 11962 H 129.256 -0.404009 7.13457 0
M  V30 11963 H 131.09 -1.20599 8.97534 0
M  V30 11964 H 131.162 -2.70295 5.43162 0
M  V30 11965 H 131.06 -3.89465 3.27406 0
M  V30 11966 H 130.672 -2.01616 0.107046 0
M  V30 11967 H 130.868 -3.61403 0.873101 0
M  V30 11968 P 129.219 1.17771 8.83182 0
M  V30 11969 O 128.999 2.07206 9.98732 0
M  V30 11970 O 128.429 -0.0743816 8.81969 0
M  V30 11971 O 128.969 1.97652 7.47304 0
M  V30 11972 C 129.909 3.01055 7.08599 0
M  V30 11973 C 129.179 4.12613 6.37049 0
M  V30 11974 O 128.969 3.72827 4.97879 0
M  V30 11975 C 127.779 4.45719 6.88164 0
M  V30 11976 O 127.389 5.7877 6.5624 0
M  V30 11977 C 126.899 3.47768 6.11991 0
M  V30 11978 C 127.609 3.39356 4.77615 0
M  V30 11979 N 127.559 2.04571 4.15244 0
M  V30 11980 C 127.409 1.98587 2.78314 0
M  V30 11981 O 127.319 2.98134 2.08835 0
M  V30 11982 N 127.369 0.714467 2.24925 0
M  V30 11983 C 127.459 -0.470001 2.94169 0
M  V30 11984 O 127.409 -1.55587 2.35195 0
M  V30 11985 C 127.609 -0.312541 4.36783 0
M  V30 11986 C 127.719 -1.57711 5.16352 0
M  V30 11987 C 127.659 0.914512 4.92583 0
M  V30 11988 H 130.4 3.41169 7.98575 0
M  V30 11989 H 130.669 2.58295 6.41556 0
M  V30 11990 H 129.802 5.02657 6.42673 0
M  V30 11991 H 127.147 4.11637 4.08885 0
M  V30 11992 H 126.868 2.49626 6.61679 0
M  V30 11993 H 125.876 3.86566 6.00778 0
M  V30 11994 H 127.71 4.29943 7.96918 0
M  V30 11995 H 127.781 1.00937 6.00374 0
M  V30 11996 H 126.751 -1.80153 5.63503 0
M  V30 11997 H 128.488 -1.4566 5.94104 0
M  V30 11998 H 128 -2.40664 4.49645 0
M  V30 11999 H 127.264 0.647622 1.25697 0
M  V30 12000 P 125.839 6.144 6.45285 0
M  V30 12001 O 125.619 7.54673 6.86199 0
M  V30 12002 O 125.049 5.12391 7.179 0
M  V30 12003 O 125.589 5.99158 4.88404 0
M  V30 12004 C 126.529 6.60062 3.96313 0
M  V30 12005 C 125.799 7.08259 2.72856 0
M  V30 12006 O 125.589 5.9427 1.83651 0
M  V30 12007 C 124.399 7.65087 2.94749 0
M  V30 12008 O 124.009 8.53963 1.90717 0
M  V30 12009 C 123.519 6.41069 2.90698 0
M  V30 12010 C 124.229 5.5528 1.86931 0
M  V30 12011 N 124.179 4.09575 2.15696 0
M  V30 12012 C 124.029 3.24249 1.08435 0
M  V30 12013 O 123.939 3.63946 -0.0628747 0
M  V30 12014 N 123.989 1.90009 1.39973 0
M  V30 12015 C 124.079 1.34884 2.65614 0
M  V30 12016 O 124.029 0.123716 2.81728 0
M  V30 12017 C 124.229 2.3145 3.71736 0
M  V30 12018 C 124.339 1.75913 5.10438 0
M  V30 12019 C 124.279 3.63518 3.44754 0
M  V30 12020 H 127.02 7.45402 4.45526 0
M  V30 12021 H 127.289 5.86062 3.67208 0
M  V30 12022 H 126.422 7.84412 2.24479 0
M  V30 12023 H 123.767 5.73358 0.888409 0
M  V30 12024 H 123.488 5.90877 3.88583 0
M  V30 12025 H 122.496 6.65867 2.58821 0
M  V30 12026 H 124.33 8.16248 3.92006 0
M  V30 12027 H 124.401 4.34551 4.26383 0
M  V30 12028 H 123.371 1.85471 5.61775 0
M  V30 12029 H 125.108 2.31364 5.66257 0
M  V30 12030 H 124.62 0.695936 5.05229 0
M  V30 12031 H 123.884 1.26277 0.63625 0
M  V30 12032 P 122.459 8.7635 1.60911 0
M  V30 12033 O 122.239 10.1388 1.11561 0
M  V30 12034 O 121.669 8.36503 2.79617 0
M  V30 12035 O 122.209 7.71806 0.42951 0
M  V30 12036 C 123.149 7.67148 -0.673689 0
M  V30 12037 C 122.419 7.33374 -1.95559 0
M  V30 12038 O 122.209 5.88721 -2.00726 0
M  V30 12039 C 121.019 7.92526 -2.10483 0
M  V30 12040 O 120.629 8.02971 -3.47653 0
M  V30 12041 C 120.139 6.89602 -1.41652 0
M  V30 12042 C 120.849 5.59201 -1.75185 0
M  V30 12043 N 120.799 4.58235 -0.662552 0
M  V30 12044 H 123.638 8.65116 -0.777161 0
M  V30 12045 H 123.91 6.90173 -0.474152 0
M  V30 12046 H 123.042 7.66548 -2.79458 0
M  V30 12047 P 119.079 8.03563 -3.84925 0
M  V30 12048 O 118.859 8.85821 -5.0569 0
M  V30 12049 O 118.289 8.41101 -2.65469 0
M  V30 12050 O 118.829 6.4965 -4.18908 0
M  V30 12051 C 119.769 5.81037 -5.05421 0
M  V30 12052 C 119.039 4.78366 -5.89277 0
M  V30 12053 O 118.829 3.58302 -5.08433 0
M  V30 12054 C 117.639 5.17448 -6.36119 0
M  V30 12055 O 117.249 4.45271 -7.53232 0
M  V30 12056 C 116.759 4.74639 -5.19936 0
M  V30 12057 C 117.469 3.49432 -4.70418 0
M  V30 12058 N 117.419 3.32099 -3.22613 0
M  V30 12059 H 120.258 6.54213 -5.71376 0
M  V30 12060 H 120.53 5.30936 -4.43503 0
M  V30 12061 H 119.662 4.55889 -6.76652 0
M  V30 12062 H 117.007 2.61715 -5.17932 0
M  V30 12063 H 116.727 5.52155 -4.41878 0
M  V30 12064 H 115.736 4.51981 -5.53374 0
M  V30 12065 H 117.57 6.25124 -6.55234 0
M  V30 12066 P 115.699 4.23843 -7.83734 0
M  V30 12067 O 115.479 4.19407 -9.29784 0
M  V30 12068 O 114.909 5.24426 -7.09156 0
M  V30 12069 O 115.449 2.7935 -7.20758 0
M  V30 12070 C 116.389 1.7299 -7.50419 0
M  V30 12071 C 115.659 0.406376 -7.57911 0
M  V30 12072 O 115.449 -0.0897726 -6.21935 0
M  V30 12073 C 114.259 0.447224 -8.1878 0
M  V30 12074 O 113.869 -0.825065 -8.71101 0
M  V30 12075 C 113.379 0.783801 -6.99623 0
M  V30 12076 C 114.089 0.0619192 -5.85967 0
M  V30 12077 N 114.039 0.790462 -4.56202 0
M  V30 12078 H 116.878 1.93423 -8.4679 0
M  V30 12079 H 117.15 1.68852 -6.70877 0
M  V30 12080 H 116.282 -0.289041 -8.15388 0
M  V30 12081 H 113.627 -0.927006 -5.72848 0
M  V30 12082 H 113.347 1.86973 -6.82036 0
M  V30 12083 H 112.356 0.403953 -7.13357 0
M  V30 12084 H 114.19 1.20599 -8.97534 0
M  V30 12085 P 112.319 -1.17771 -8.83182 0
M  V30 12086 O 112.099 -2.07206 -9.98732 0
M  V30 12087 O 111.529 0.0743816 -8.81969 0
M  V30 12088 O 112.069 -1.97652 -7.47304 0
M  V30 12089 C 113.009 -3.01133 -7.08783 0
M  V30 12090 C 112.279 -4.12613 -6.37049 0
M  V30 12091 O 112.069 -3.72827 -4.97879 0
M  V30 12092 C 110.879 -4.45085 -6.88694 0
M  V30 12093 O 110.489 -5.7877 -6.5624 0
M  V30 12094 C 109.999 -3.47817 -6.12078 0
M  V30 12095 C 110.709 -3.39414 -4.77697 0
M  V30 12096 N 110.659 -2.04615 -4.15333 0
M  V30 12097 H 113.498 -3.41248 -7.98759 0
M  V30 12098 H 113.77 -2.5837 -6.41742 0
M  V30 12099 H 112.902 -5.02657 -6.42673 0
M  V30 12100 P 108.939 -6.144 -6.45285 0
M  V30 12101 O 108.719 -7.54673 -6.86199 0
M  V30 12102 O 108.149 -5.12391 -7.179 0
M  V30 12103 O 108.689 -5.99158 -4.88404 0
M  V30 12104 C 109.629 -6.60234 -3.96415 0
M  V30 12105 C 108.899 -7.08259 -2.72856 0
M  V30 12106 O 108.689 -5.9427 -1.83651 0
M  V30 12107 C 107.499 -7.64886 -2.9555 0
M  V30 12108 O 107.109 -8.53963 -1.90717 0
M  V30 12109 C 106.619 -6.4116 -2.90739 0
M  V30 12110 C 107.329 -5.55375 -1.86963 0
M  V30 12111 N 107.279 -4.09448 -2.16152 0
M  V30 12112 H 110.118 -7.45574 -4.45629 0
M  V30 12113 H 110.39 -5.85864 -3.679 0
M  V30 12114 H 109.522 -7.84412 -2.24479 0
M  V30 12115 H 106.867 -5.73457 -0.888562 0
M  V30 12116 H 106.587 -5.90877 -3.88583 0
M  V30 12117 H 105.596 -6.6596 -2.58858 0
M  V30 12118 H 107.43 -8.16339 -3.92049 0
M  V30 12119 P 105.559 -8.7635 -1.60911 0
M  V30 12120 O 105.339 -10.1388 -1.11561 0
M  V30 12121 O 104.769 -8.36503 -2.79617 0
M  V30 12122 O 105.309 -7.71806 -0.42951 0
M  V30 12123 C 106.249 -7.67148 0.673689 0
M  V30 12124 C 105.519 -7.33374 1.95559 0
M  V30 12125 O 105.309 -5.88721 2.00726 0
M  V30 12126 C 104.119 -7.92526 2.10483 0
M  V30 12127 O 103.729 -8.02971 3.47653 0
M  V30 12128 C 103.239 -6.89602 1.41652 0
M  V30 12129 C 103.949 -5.59201 1.75185 0
M  V30 12130 N 103.899 -4.58301 0.657969 0
M  V30 12131 H 106.738 -8.65116 0.777161 0
M  V30 12132 H 107.01 -6.9022 0.46725 0
M  V30 12133 H 106.142 -7.66548 2.79458 0
M  V30 12134 H 103.487 -5.16165 2.65183 0
M  V30 12135 H 103.207 -7.06433 0.329384 0
M  V30 12136 H 102.216 -6.90926 1.82021 0
M  V30 12137 H 104.05 -8.90873 1.62657 0
M  V30 12138 P 102.179 -8.03563 3.84925 0
M  V30 12139 O 101.959 -8.85821 5.0569 0
M  V30 12140 O 101.389 -8.41101 2.65469 0
M  V30 12141 O 101.929 -6.4965 4.18908 0
M  V30 12142 C 102.869 -5.80886 5.05289 0
M  V30 12143 C 102.139 -4.78366 5.89277 0
M  V30 12144 O 101.929 -3.58302 5.08433 0
M  V30 12145 C 100.739 -5.16748 6.36559 0
M  V30 12146 O 100.349 -4.45271 7.53232 0
M  V30 12147 C 99.8594 -4.74572 5.19863 0
M  V30 12148 C 100.569 -3.49373 4.70338 0
M  V30 12149 N 100.519 -3.31704 3.22876 0
M  V30 12150 C 100.369 -2.03326 2.74871 0
M  V30 12151 O 100.279 -1.06486 3.48076 0
M  V30 12152 N 100.329 -1.91838 1.37456 0
M  V30 12153 C 100.419 -2.94295 0.462035 0
M  V30 12154 O 100.369 -2.71763 -0.752928 0
M  V30 12155 C 100.569 -4.25064 1.05249 0
M  V30 12156 C 100.679 -5.39815 0.095697 0
M  V30 12157 C 100.619 -4.40214 2.39192 0
M  V30 12158 H 103.36 -6.54063 5.71245 0
M  V30 12159 H 103.629 -5.30339 4.43905 0
M  V30 12160 H 102.762 -4.55889 6.76652 0
M  V30 12161 H 100.107 -2.6167 5.17842 0
M  V30 12162 H 99.8284 -5.52155 4.41878 0
M  V30 12163 H 98.8364 -4.51918 5.53297 0
M  V30 12164 H 100.67 -6.25055 6.55162 0
M  V30 12165 H 100.741 -5.39798 2.81523 0
M  V30 12166 H 99.7114 -5.91593 0.0279582 0
M  V30 12167 H 101.448 -6.10038 0.450573 0
M  V30 12168 H 100.96 -5.02007 -0.89937 0
M  V30 12169 H 100.224 -0.995326 1.00435 0
M  V30 12170 P 98.7994 -4.23843 7.83734 0
M  V30 12171 O 98.5794 -4.19407 9.29784 0
M  V30 12172 O 98.0094 -5.24426 7.09156 0
M  V30 12173 O 98.5494 -2.7935 7.20758 0
M  V30 12174 C 99.4894 -1.72945 7.50224 0
M  V30 12175 C 98.7594 -0.406376 7.57911 0
M  V30 12176 O 98.5494 0.0897726 6.21935 0
M  V30 12177 C 97.3594 -0.438983 8.18724 0
M  V30 12178 O 96.9694 0.825065 8.71101 0
M  V30 12179 C 96.4794 -0.783689 6.99524 0
M  V30 12180 C 97.1894 -0.0619086 5.85867 0
M  V30 12181 N 97.1394 -0.78573 4.56183 0
M  V30 12182 C 96.9894 -0.0292889 3.41887 0
M  V30 12183 O 96.8994 1.18445 3.4419 0
M  V30 12184 N 96.9494 -0.744061 2.23964 0
M  V30 12185 C 97.0394 -2.10932 2.10362 0
M  V30 12186 O 96.9894 -2.64117 0.98825 0
M  V30 12187 C 97.1894 -2.8202 3.34994 0
M  V30 12188 C 97.2994 -4.31095 3.25037 0
M  V30 12189 C 97.2394 -2.15547 4.52261 0
M  V30 12190 H 99.9804 -1.93379 8.46595 0
M  V30 12191 H 100.249 -1.68132 6.70852 0
M  V30 12192 H 99.3824 0.289041 8.15388 0
M  V30 12193 H 96.7274 0.926847 5.72749 0
M  V30 12194 H 96.4484 -1.86973 6.82036 0
M  V30 12195 H 95.4564 -0.403896 7.13257 0
M  V30 12196 H 97.2904 -1.20585 8.97435 0
M  V30 12197 H 97.3614 -2.71231 5.45042 0
M  V30 12198 H 96.3314 -4.76966 3.49992 0
M  V30 12199 H 98.0684 -4.67047 3.95024 0
M  V30 12200 H 97.5804 -4.58996 2.22312 0
M  V30 12201 H 96.8444 -0.214893 1.39758 0
M  V30 12202 P 95.4195 1.17771 8.83182 0
M  V30 12203 O 95.1995 2.07206 9.98732 0
M  V30 12204 O 94.6295 -0.0743816 8.81969 0
M  V30 12205 O 95.1695 1.97652 7.47304 0
M  V30 12206 C 96.1095 3.01133 7.08783 0
M  V30 12207 C 95.3795 4.12613 6.37049 0
M  V30 12208 O 95.1695 3.72827 4.97879 0
M  V30 12209 C 93.9795 4.45085 6.88694 0
M  V30 12210 O 93.5895 5.7877 6.5624 0
M  V30 12211 C 93.0995 3.47817 6.12078 0
M  V30 12212 C 93.8095 3.39414 4.77697 0
M  V30 12213 N 93.7595 2.04199 4.15538 0
M  V30 12214 C 93.8395 0.821545 4.76977 0
M  V30 12215 N 93.7695 -0.1794 3.94592 0
M  V30 12216 C 93.6195 0.419121 2.70776 0
M  V30 12217 C 93.4895 -0.109072 1.40577 0
M  V30 12218 N 93.4795 -1.4104 1.1344 0
M  V30 12219 N 93.3695 0.764381 0.39411 0
M  V30 12220 C 93.3795 2.06587 0.664135 0
M  V30 12221 N 93.4995 2.67948 1.82153 0
M  V30 12222 C 93.6195 1.77942 2.8147 0
M  V30 12223 H 96.5985 3.41248 7.98759 0
M  V30 12224 H 96.8705 2.57728 6.42 0
M  V30 12225 H 96.0025 5.02657 6.42673 0
M  V30 12226 H 93.3475 4.11708 4.08956 0
M  V30 12227 H 93.0675 2.49626 6.61679 0
M  V30 12228 H 92.0765 3.8662 6.00862 0
M  V30 12229 H 93.9105 4.29991 7.97006 0
M  V30 12230 H 93.9515 0.702451 5.84696 0
M  V30 12231 H 93.5705 -2.09647 1.89651 0
M  V30 12232 H 93.3815 -1.73358 0.160575 0
M  V30 12233 H 93.2735 2.71695 -0.195838 0
M  V30 12234 P 92.0395 6.144 6.45285 0
M  V30 12235 O 91.8195 7.54673 6.86199 0
M  V30 12236 O 91.2495 5.12391 7.179 0
M  V30 12237 O 91.7895 5.99158 4.88404 0
M  V30 12238 C 92.7295 6.60234 3.96415 0
M  V30 12239 C 91.9995 7.08259 2.72856 0
M  V30 12240 O 91.7895 5.9427 1.83651 0
M  V30 12241 C 90.5995 7.64886 2.9555 0
M  V30 12242 O 90.2095 8.53963 1.90717 0
M  V30 12243 C 89.7195 6.4116 2.90739 0
M  V30 12244 C 90.4295 5.55375 1.86963 0
M  V30 12245 N 90.3795 4.09448 2.16152 0
M  V30 12246 H 93.2185 7.45574 4.45629 0
M  V30 12247 H 93.4905 5.85864 3.679 0
M  V30 12248 H 92.6225 7.84412 2.24479 0
M  V30 12249 H 89.9675 5.73457 0.888562 0
M  V30 12250 H 89.6875 5.90877 3.88583 0
M  V30 12251 H 88.6965 6.6596 2.58858 0
M  V30 12252 H 90.5305 8.16339 3.92049 0
M  V30 12253 P 88.6595 8.7635 1.60911 0
M  V30 12254 O 88.4395 10.1388 1.11561 0
M  V30 12255 O 87.8695 8.36503 2.79617 0
M  V30 12256 O 88.4095 7.71806 0.42951 0
M  V30 12257 C 89.3495 7.67148 -0.673689 0
M  V30 12258 C 88.6195 7.33374 -1.95559 0
M  V30 12259 O 88.4095 5.88721 -2.00726 0
M  V30 12260 C 87.2195 7.92526 -2.10483 0
M  V30 12261 O 86.8295 8.02971 -3.47653 0
M  V30 12262 C 86.3395 6.89602 -1.41652 0
M  V30 12263 C 87.0495 5.59201 -1.75185 0
M  V30 12264 N 86.9995 4.58301 -0.657969 0
M  V30 12265 H 89.8385 8.65116 -0.777161 0
M  V30 12266 H 90.1105 6.9022 -0.46725 0
M  V30 12267 H 89.2425 7.66548 -2.79458 0
M  V30 12268 H 86.5875 5.16165 -2.65183 0
M  V30 12269 H 86.3075 7.06433 -0.329384 0
M  V30 12270 H 85.3165 6.90926 -1.82021 0
M  V30 12271 H 87.1505 8.90873 -1.62657 0
M  V30 12272 P 85.2795 8.03563 -3.84925 0
M  V30 12273 O 85.0595 8.85821 -5.0569 0
M  V30 12274 O 84.4895 8.41101 -2.65469 0
M  V30 12275 O 85.0295 6.4965 -4.18908 0
M  V30 12276 C 85.9695 5.81037 -5.05421 0
M  V30 12277 C 85.2395 4.78366 -5.89277 0
M  V30 12278 O 85.0295 3.58302 -5.08433 0
M  V30 12279 C 83.8395 5.17448 -6.36119 0
M  V30 12280 O 83.4495 4.45271 -7.53232 0
M  V30 12281 C 82.9595 4.74639 -5.19936 0
M  V30 12282 C 83.6695 3.49432 -4.70418 0
M  V30 12283 N 83.6195 3.32099 -3.22613 0
M  V30 12284 H 86.4585 6.54213 -5.71376 0
M  V30 12285 H 86.7305 5.30936 -4.43503 0
M  V30 12286 H 85.8625 4.55889 -6.76652 0
M  V30 12287 H 83.2075 2.61715 -5.17932 0
M  V30 12288 H 82.9275 5.52155 -4.41878 0
M  V30 12289 H 81.9365 4.51981 -5.53374 0
M  V30 12290 H 83.7705 6.25124 -6.55234 0
M  V30 12291 P 81.8995 4.23843 -7.83734 0
M  V30 12292 O 81.6795 4.19407 -9.29784 0
M  V30 12293 O 81.1095 5.24426 -7.09156 0
M  V30 12294 O 81.6495 2.7935 -7.20758 0
M  V30 12295 C 82.5895 1.7299 -7.50419 0
M  V30 12296 C 81.8595 0.406376 -7.57911 0
M  V30 12297 O 81.6495 -0.0897726 -6.21935 0
M  V30 12298 C 80.4595 0.447224 -8.1878 0
M  V30 12299 O 80.0695 -0.825065 -8.71101 0
M  V30 12300 C 79.5795 0.783801 -6.99623 0
M  V30 12301 C 80.2895 0.0619192 -5.85967 0
M  V30 12302 N 80.2395 0.790462 -4.56202 0
M  V30 12303 H 83.0785 1.93423 -8.4679 0
M  V30 12304 H 83.3505 1.68852 -6.70877 0
M  V30 12305 H 82.4825 -0.289041 -8.15388 0
M  V30 12306 H 79.8275 -0.927006 -5.72848 0
M  V30 12307 H 79.5475 1.86973 -6.82036 0
M  V30 12308 H 78.5565 0.403953 -7.13357 0
M  V30 12309 H 80.3905 1.20599 -8.97534 0
M  V30 12310 P 78.5196 -1.17771 -8.83182 0
M  V30 12311 O 78.2996 -2.07206 -9.98732 0
M  V30 12312 O 77.7296 0.0743816 -8.81969 0
M  V30 12313 O 78.2696 -1.97652 -7.47304 0
M  V30 12314 C 79.2096 -3.01055 -7.08599 0
M  V30 12315 C 78.4796 -4.12613 -6.37049 0
M  V30 12316 O 78.2696 -3.72827 -4.97879 0
M  V30 12317 C 77.0796 -4.45719 -6.88164 0
M  V30 12318 O 76.6896 -5.7877 -6.5624 0
M  V30 12319 C 76.1996 -3.47768 -6.11991 0
M  V30 12320 C 76.9096 -3.39356 -4.77615 0
M  V30 12321 N 76.8596 -2.04571 -4.15244 0
M  V30 12322 C 76.7096 -1.98587 -2.78314 0
M  V30 12323 O 76.6196 -2.98134 -2.08835 0
M  V30 12324 N 76.6696 -0.714467 -2.24925 0
M  V30 12325 C 76.7596 0.470001 -2.94169 0
M  V30 12326 O 76.7096 1.55587 -2.35195 0
M  V30 12327 C 76.9096 0.312541 -4.36783 0
M  V30 12328 C 77.0196 1.57711 -5.16352 0
M  V30 12329 C 76.9596 -0.914512 -4.92583 0
M  V30 12330 H 79.7006 -3.41169 -7.98575 0
M  V30 12331 H 79.9696 -2.58295 -6.41556 0
M  V30 12332 H 79.1026 -5.02657 -6.42673 0
M  V30 12333 H 76.4476 -4.11637 -4.08885 0
M  V30 12334 H 76.1686 -2.49626 -6.61679 0
M  V30 12335 H 75.1766 -3.86566 -6.00778 0
M  V30 12336 H 77.0106 -4.29943 -7.96918 0
M  V30 12337 H 77.0816 -1.00937 -6.00374 0
M  V30 12338 H 76.0516 1.80153 -5.63503 0
M  V30 12339 H 77.7886 1.4566 -5.94104 0
M  V30 12340 H 77.3006 2.40664 -4.49645 0
M  V30 12341 H 76.5646 -0.647622 -1.25697 0
M  V30 12342 P 75.1396 -6.144 -6.45285 0
M  V30 12343 O 74.9196 -7.54673 -6.86199 0
M  V30 12344 O 74.3496 -5.12391 -7.179 0
M  V30 12345 O 74.8896 -5.99158 -4.88404 0
M  V30 12346 C 75.8296 -6.60234 -3.96415 0
M  V30 12347 C 75.0996 -7.08259 -2.72856 0
M  V30 12348 O 74.8896 -5.9427 -1.83651 0
M  V30 12349 C 73.6996 -7.64886 -2.9555 0
M  V30 12350 O 73.3096 -8.53963 -1.90717 0
M  V30 12351 C 72.8196 -6.4116 -2.90739 0
M  V30 12352 C 73.5296 -5.55375 -1.86963 0
M  V30 12353 N 73.4796 -4.09664 -2.15742 0
M  V30 12354 H 76.3186 -7.45574 -4.45629 0
M  V30 12355 H 76.5906 -5.86232 -3.67314 0
M  V30 12356 H 75.7226 -7.84412 -2.24479 0
M  V30 12357 P 71.7596 -8.7635 -1.60911 0
M  V30 12358 O 71.5396 -10.1388 -1.11561 0
M  V30 12359 O 70.9696 -8.36503 -2.79617 0
M  V30 12360 O 71.5096 -7.71806 -0.42951 0
M  V30 12361 C 72.4496 -7.67148 0.673689 0
M  V30 12362 C 71.7196 -7.33374 1.95559 0
M  V30 12363 O 71.5096 -5.88721 2.00726 0
M  V30 12364 C 70.3196 -7.92526 2.10483 0
M  V30 12365 O 69.9296 -8.02971 3.47653 0
M  V30 12366 C 69.4396 -6.89602 1.41652 0
M  V30 12367 C 70.1496 -5.59201 1.75185 0
M  V30 12368 N 70.0996 -4.58235 0.662552 0
M  V30 12369 H 72.9386 -8.65116 0.777161 0
M  V30 12370 H 73.2106 -6.90173 0.474152 0
M  V30 12371 H 72.3426 -7.66548 2.79458 0
M  V30 12372 P 68.3796 -8.03563 3.84925 0
M  V30 12373 O 68.1596 -8.85821 5.0569 0
M  V30 12374 O 67.5896 -8.41101 2.65469 0
M  V30 12375 O 68.1296 -6.4965 4.18908 0
M  V30 12376 C 69.0696 -5.81037 5.05421 0
M  V30 12377 C 68.3396 -4.78366 5.89277 0
M  V30 12378 O 68.1296 -3.58302 5.08433 0
M  V30 12379 C 66.9396 -5.17448 6.36119 0
M  V30 12380 O 66.5496 -4.45271 7.53232 0
M  V30 12381 C 66.0596 -4.74639 5.19936 0
M  V30 12382 C 66.7696 -3.49432 4.70418 0
M  V30 12383 N 66.7196 -3.31776 3.22945 0
M  V30 12384 H 69.5586 -6.54213 5.71376 0
M  V30 12385 H 69.8306 -5.30492 4.44033 0
M  V30 12386 H 68.9626 -4.55889 6.76652 0
M  V30 12387 P 64.9996 -4.23843 7.83734 0
M  V30 12388 O 64.7796 -4.19407 9.29784 0
M  V30 12389 O 64.2096 -5.24426 7.09156 0
M  V30 12390 O 64.7496 -2.7935 7.20758 0
M  V30 12391 C 65.6896 -1.7299 7.50419 0
M  V30 12392 C 64.9596 -0.406376 7.57911 0
M  V30 12393 O 64.7496 0.0897726 6.21935 0
M  V30 12394 C 63.5596 -0.447224 8.1878 0
M  V30 12395 O 63.1696 0.825065 8.71101 0
M  V30 12396 C 62.6796 -0.783801 6.99623 0
M  V30 12397 C 63.3896 -0.0619192 5.85967 0
M  V30 12398 N 63.3396 -0.790462 4.56202 0
M  V30 12399 C 63.4196 -2.13895 4.34171 0
M  V30 12400 N 63.3496 -2.46449 3.08687 0
M  V30 12401 C 63.1996 -1.2525 2.43697 0
M  V30 12402 C 63.0696 -0.914535 1.07318 0
M  V30 12403 N 63.0596 -1.80782 0.0887348 0
M  V30 12404 N 62.9496 0.386745 0.768133 0
M  V30 12405 C 62.9596 1.28096 1.75159 0
M  V30 12406 N 63.0796 1.09708 3.04861 0
M  V30 12407 C 63.1996 -0.214857 3.32306 0
M  V30 12408 H 66.1786 -1.93423 8.4679 0
M  V30 12409 H 66.4506 -1.68852 6.70877 0
M  V30 12410 H 65.5826 0.289041 8.15388 0
M  V30 12411 H 62.9276 0.927006 5.72848 0
M  V30 12412 H 62.6476 -1.86973 6.82036 0
M  V30 12413 H 61.6566 -0.403953 7.13357 0
M  V30 12414 H 63.4906 -1.20599 8.97534 0
M  V30 12415 H 63.5316 -2.86846 5.14318 0
M  V30 12416 H 63.1506 -2.81082 0.302037 0
M  V30 12417 H 62.9616 -1.49688 -0.889064 0
M  V30 12418 H 62.8536 2.31317 1.43855 0
M  V30 12419 P 61.6197 1.17771 8.83182 0
M  V30 12420 O 61.3997 2.07206 9.98732 0
M  V30 12421 O 60.8297 -0.0743816 8.81969 0
M  V30 12422 O 61.3697 1.97652 7.47304 0
M  V30 12423 C 62.3097 3.01055 7.08599 0
M  V30 12424 C 61.5797 4.12613 6.37049 0
M  V30 12425 O 61.3697 3.72827 4.97879 0
M  V30 12426 C 60.1797 4.45719 6.88164 0
M  V30 12427 O 59.7897 5.7877 6.5624 0
M  V30 12428 C 59.2997 3.47768 6.11991 0
M  V30 12429 C 60.0097 3.39356 4.77615 0
M  V30 12430 N 59.9597 2.04571 4.15244 0
M  V30 12431 C 59.8097 1.98587 2.78314 0
M  V30 12432 O 59.7197 2.98134 2.08835 0
M  V30 12433 N 59.7697 0.714467 2.24925 0
M  V30 12434 C 59.8597 -0.470001 2.94169 0
M  V30 12435 C 60.0097 -0.312541 4.36783 0
M  V30 12436 C 60.0597 0.914512 4.92583 0
M  V30 12437 H 62.8007 3.41169 7.98575 0
M  V30 12438 H 63.0697 2.58295 6.41556 0
M  V30 12439 H 62.2027 5.02657 6.42673 0
M  V30 12440 H 59.5477 4.11637 4.08885 0
M  V30 12441 H 59.2687 2.49626 6.61679 0
M  V30 12442 H 58.2767 3.86566 6.00778 0
M  V30 12443 H 60.1107 4.29943 7.96918 0
M  V30 12444 H 60.1817 1.00937 6.00374 0
M  V30 12445 P 58.2397 6.144 6.45285 0
M  V30 12446 O 58.0197 7.54673 6.86199 0
M  V30 12447 O 57.4497 5.12391 7.179 0
M  V30 12448 O 57.9897 5.99158 4.88404 0
M  V30 12449 C 58.9297 6.60234 3.96415 0
M  V30 12450 C 58.1997 7.08259 2.72856 0
M  V30 12451 O 57.9897 5.9427 1.83651 0
M  V30 12452 C 56.7997 7.64886 2.9555 0
M  V30 12453 O 56.4097 8.53963 1.90717 0
M  V30 12454 C 55.9197 6.4116 2.90739 0
M  V30 12455 C 56.6297 5.55375 1.86963 0
M  V30 12456 N 56.5797 4.09664 2.15742 0
M  V30 12457 H 59.4187 7.45574 4.45629 0
M  V30 12458 H 59.6907 5.86232 3.67314 0
M  V30 12459 H 58.8227 7.84412 2.24479 0
M  V30 12460 P 54.8597 8.7635 1.60911 0
M  V30 12461 O 54.6397 10.1388 1.11561 0
M  V30 12462 O 54.0697 8.36503 2.79617 0
M  V30 12463 O 54.6097 7.71806 0.42951 0
M  V30 12464 C 55.5497 7.67148 -0.673689 0
M  V30 12465 C 54.8197 7.33374 -1.95559 0
M  V30 12466 O 54.6097 5.88721 -2.00726 0
M  V30 12467 C 53.4197 7.92526 -2.10483 0
M  V30 12468 O 53.0297 8.02971 -3.47653 0
M  V30 12469 C 52.5397 6.89602 -1.41652 0
M  V30 12470 C 53.2497 5.59201 -1.75185 0
M  V30 12471 N 53.1997 4.58235 -0.662552 0
M  V30 12472 H 56.0387 8.65116 -0.777161 0
M  V30 12473 H 56.3107 6.90173 -0.474152 0
M  V30 12474 H 55.4427 7.66548 -2.79458 0
M  V30 12475 P 51.4797 8.03563 -3.84925 0
M  V30 12476 O 51.2597 8.85821 -5.0569 0
M  V30 12477 O 50.6897 8.41101 -2.65469 0
M  V30 12478 O 51.2297 6.4965 -4.18908 0
M  V30 12479 C 52.1697 5.81037 -5.05421 0
M  V30 12480 C 51.4397 4.78366 -5.89277 0
M  V30 12481 O 51.2297 3.58302 -5.08433 0
M  V30 12482 C 50.0397 5.17448 -6.36119 0
M  V30 12483 O 49.6497 4.45271 -7.53232 0
M  V30 12484 C 49.1597 4.74639 -5.19936 0
M  V30 12485 C 49.8697 3.49432 -4.70418 0
M  V30 12486 N 49.8197 3.32099 -3.22613 0
M  V30 12487 H 52.6587 6.54213 -5.71376 0
M  V30 12488 H 52.9307 5.30936 -4.43503 0
M  V30 12489 H 52.0627 4.55889 -6.76652 0
M  V30 12490 H 49.4077 2.61715 -5.17932 0
M  V30 12491 H 49.1277 5.52155 -4.41878 0
M  V30 12492 H 48.1367 4.51981 -5.53374 0
M  V30 12493 H 49.9707 6.25124 -6.55234 0
M  V30 12494 P 48.0997 4.23843 -7.83734 0
M  V30 12495 O 47.8797 4.19407 -9.29784 0
M  V30 12496 O 47.3097 5.24426 -7.09156 0
M  V30 12497 O 47.8497 2.79386 -7.20852 0
M  V30 12498 C 48.7897 1.7299 -7.50419 0
M  V30 12499 C 48.0597 0.41401 -7.5797 0
M  V30 12500 O 47.8497 -0.089787 -6.22035 0
M  V30 12501 C 46.6597 0.447224 -8.1878 0
M  V30 12502 O 46.2697 -0.825159 -8.71201 0
M  V30 12503 C 45.7797 0.783801 -6.99623 0
M  V30 12504 C 46.4897 0.0619192 -5.85967 0
M  V30 12505 N 46.4397 0.7859 -4.56281 0
M  V30 12506 C 46.2897 0.0359258 -3.39981 0
M  V30 12507 O 46.1997 -1.19723 -3.49038 0
M  V30 12508 N 46.2397 0.869151 -2.14025 0
M  V30 12509 C 46.3397 2.01207 -2.14363 0
M  V30 12510 N 46.2897 2.58978 -0.954287 0
M  V30 12511 C 46.4897 2.80817 -3.32215 0
M  V30 12512 C 46.5397 2.13785 -4.50884 0
M  V30 12513 H 49.2797 1.93401 -8.46693 0
M  V30 12514 H 49.5497 1.68181 -6.71046 0
M  V30 12515 H 48.6827 -0.289076 -8.15488 0
M  V30 12516 H 46.0277 -0.927166 -5.72947 0
M  V30 12517 H 45.7477 1.87 -6.82132 0
M  V30 12518 H 44.7567 0.404009 -7.13457 0
M  V30 12519 H 46.5907 1.20599 -8.97534 0
M  V30 12520 H 46.6627 2.70295 -5.43162 0
M  V30 12521 H 46.5607 3.89465 -3.27406 0
M  V30 12522 H 46.1727 2.01616 -0.107046 0
M  V30 12523 H 46.3687 3.61403 -0.873101 0
M  V30 12524 P 44.7198 -1.17771 -8.83182 0
M  V30 12525 O 44.4998 -2.07206 -9.98732 0
M  V30 12526 O 43.9298 0.0743816 -8.81969 0
M  V30 12527 O 44.4698 -1.97652 -7.47304 0
M  V30 12528 C 45.4098 -3.01133 -7.08783 0
M  V30 12529 C 44.6798 -4.12613 -6.37049 0
M  V30 12530 O 44.4698 -3.72827 -4.97879 0
M  V30 12531 C 43.2798 -4.45085 -6.88694 0
M  V30 12532 O 42.8898 -5.7877 -6.5624 0
M  V30 12533 C 42.3998 -3.47817 -6.12078 0
M  V30 12534 C 43.1098 -3.39414 -4.77697 0
M  V30 12535 N 43.0598 -2.04199 -4.15538 0
M  V30 12536 H 45.8988 -3.41248 -7.98759 0
M  V30 12537 H 46.1708 -2.57728 -6.42 0
M  V30 12538 H 45.3028 -5.02657 -6.42673 0
M  V30 12539 H 42.6478 -4.11708 -4.08956 0
M  V30 12540 H 42.3678 -2.49626 -6.61679 0
M  V30 12541 H 41.3768 -3.8662 -6.00862 0
M  V30 12542 H 43.2108 -4.29991 -7.97006 0
M  V30 12543 P 41.3398 -6.144 -6.45285 0
M  V30 12544 O 41.1198 -7.54673 -6.86199 0
M  V30 12545 O 40.5498 -5.12391 -7.179 0
M  V30 12546 O 41.0898 -5.99158 -4.88404 0
M  V30 12547 C 42.0298 -6.60234 -3.96415 0
M  V30 12548 C 41.2998 -7.08259 -2.72856 0
M  V30 12549 O 41.0898 -5.9427 -1.83651 0
M  V30 12550 C 39.8998 -7.64886 -2.9555 0
M  V30 12551 O 39.5098 -8.53963 -1.90717 0
M  V30 12552 C 39.0198 -6.4116 -2.90739 0
M  V30 12553 C 39.7298 -5.55375 -1.86963 0
M  V30 12554 N 39.6798 -4.09664 -2.15742 0
M  V30 12555 H 42.5188 -7.45574 -4.45629 0
M  V30 12556 H 42.7908 -5.86232 -3.67314 0
M  V30 12557 H 41.9228 -7.84412 -2.24479 0
M  V30 12558 P 37.9598 -8.7635 -1.60911 0
M  V30 12559 O 37.7398 -10.1388 -1.11561 0
M  V30 12560 O 37.1698 -8.36503 -2.79617 0
M  V30 12561 O 37.7098 -7.71806 -0.42951 0
M  V30 12562 C 38.6498 -7.66948 0.673514 0
M  V30 12563 C 37.9198 -7.33374 1.95559 0
M  V30 12564 O 37.7098 -5.88721 2.00726 0
M  V30 12565 C 36.5198 -7.92218 2.1125 0
M  V30 12566 O 36.1298 -8.02971 3.47653 0
M  V30 12567 C 35.6398 -6.89504 1.41631 0
M  V30 12568 C 36.3498 -5.59106 1.75155 0
M  V30 12569 N 36.2998 -4.58136 0.662409 0
M  V30 12570 C 36.1498 -3.26059 1.02863 0
M  V30 12571 O 36.0598 -2.90743 2.19009 0
M  V30 12572 N 36.1098 -2.35995 -0.0155585 0
M  V30 12573 C 36.1998 -2.65248 -1.35603 0
M  V30 12574 O 36.1498 -1.75605 -2.20651 0
M  V30 12575 C 36.3498 -4.05747 -1.64698 0
M  V30 12576 C 36.4598 -4.42345 -3.09553 0
M  V30 12577 C 36.3998 -4.96734 -0.652411 0
M  V30 12578 H 39.1408 -8.64917 0.776982 0
M  V30 12579 H 39.4098 -6.89974 0.474015 0
M  V30 12580 H 38.5428 -7.66548 2.79458 0
M  V30 12581 H 35.8878 -5.16076 2.65138 0
M  V30 12582 H 35.6088 -7.06433 0.329384 0
M  V30 12583 H 34.6168 -6.90829 1.81996 0
M  V30 12584 H 36.4508 -8.90774 1.62639 0
M  V30 12585 H 36.5218 -6.02181 -0.895285 0
M  V30 12586 H 35.4918 -4.80252 -3.45468 0
M  V30 12587 H 37.2288 -5.20015 -3.22119 0
M  V30 12588 H 36.7408 -3.53269 -3.67833 0
M  V30 12589 H 36.0048 -1.39558 0.227499 0
M  V30 12590 P 34.5798 -8.03563 3.84925 0
M  V30 12591 O 34.3598 -8.85821 5.0569 0
M  V30 12592 O 33.7898 -8.41101 2.65469 0
M  V30 12593 O 34.3298 -6.4965 4.18908 0
M  V30 12594 C 35.2698 -5.81037 5.05421 0
M  V30 12595 C 34.5398 -4.78366 5.89277 0
M  V30 12596 O 34.3298 -3.58302 5.08433 0
M  V30 12597 C 33.1398 -5.17448 6.36119 0
M  V30 12598 O 32.7498 -4.45271 7.53232 0
M  V30 12599 C 32.2598 -4.74639 5.19936 0
M  V30 12600 C 32.9698 -3.49432 4.70418 0
M  V30 12601 N 32.9198 -3.31776 3.22945 0
M  V30 12602 H 35.7588 -6.54213 5.71376 0
M  V30 12603 H 36.0308 -5.30492 4.44033 0
M  V30 12604 H 35.1628 -4.55889 6.76652 0
M  V30 12605 P 31.1998 -4.23843 7.83734 0
M  V30 12606 O 30.9798 -4.19407 9.29784 0
M  V30 12607 O 30.4098 -5.24426 7.09156 0
M  V30 12608 O 30.9498 -2.7935 7.20758 0
M  V30 12609 C 31.8898 -1.72945 7.50224 0
M  V30 12610 C 31.1598 -0.406376 7.57911 0
M  V30 12611 O 30.9498 0.0897726 6.21935 0
M  V30 12612 C 29.7598 -0.438983 8.18724 0
M  V30 12613 O 29.3698 0.825065 8.71101 0
M  V30 12614 C 28.8798 -0.783689 6.99524 0
M  V30 12615 C 29.5898 -0.0619086 5.85867 0
M  V30 12616 N 29.5398 -0.78573 4.56183 0
M  V30 12617 C 29.3898 -0.0292889 3.41887 0
M  V30 12618 O 29.2998 1.18445 3.4419 0
M  V30 12619 N 29.3498 -0.744061 2.23964 0
M  V30 12620 C 29.4398 -2.10932 2.10362 0
M  V30 12621 O 29.3898 -2.64117 0.98825 0
M  V30 12622 C 29.5898 -2.8202 3.34994 0
M  V30 12623 C 29.6998 -4.31095 3.25037 0
M  V30 12624 C 29.6398 -2.15547 4.52261 0
M  V30 12625 H 32.3808 -1.93379 8.46595 0
M  V30 12626 H 32.6498 -1.68132 6.70852 0
M  V30 12627 H 31.7828 0.289041 8.15388 0
M  V30 12628 H 29.1278 0.926847 5.72749 0
M  V30 12629 H 28.8488 -1.86973 6.82036 0
M  V30 12630 H 27.8568 -0.403896 7.13257 0
M  V30 12631 H 29.6908 -1.20585 8.97435 0
M  V30 12632 H 29.7618 -2.71231 5.45042 0
M  V30 12633 H 28.7318 -4.76966 3.49992 0
M  V30 12634 H 30.4688 -4.67047 3.95024 0
M  V30 12635 H 29.9808 -4.58996 2.22312 0
M  V30 12636 H 29.2448 -0.214893 1.39758 0
M  V30 12637 P 27.8199 1.17771 8.83182 0
M  V30 12638 O 27.5999 2.07206 9.98732 0
M  V30 12639 O 27.0299 -0.0743816 8.81969 0
M  V30 12640 O 27.5699 1.97678 7.474 0
M  V30 12641 C 28.5099 3.01133 7.08783 0
M  V30 12642 C 27.7799 4.1203 6.37546 0
M  V30 12643 O 27.5699 3.72887 4.9796 0
M  V30 12644 C 26.3799 4.45085 6.88694 0
M  V30 12645 O 25.9899 5.78836 6.56315 0
M  V30 12646 C 25.4999 3.47817 6.12078 0
M  V30 12647 C 26.2099 3.39414 4.77697 0
M  V30 12648 N 26.1599 2.04615 4.15333 0
M  V30 12649 C 26.0099 1.96929 2.77162 0
M  V30 12650 O 25.9199 3.02017 2.12006 0
M  V30 12651 N 25.9599 0.55485 2.24237 0
M  V30 12652 C 26.0599 -0.367808 2.9169 0
M  V30 12653 N 26.0099 -1.53426 2.29427 0
M  V30 12654 C 26.2099 -0.319148 4.33828 0
M  V30 12655 C 26.2599 0.920672 4.90433 0
M  V30 12656 H 28.9999 3.41209 7.98667 0
M  V30 12657 H 29.2699 2.5837 6.41742 0
M  V30 12658 H 28.4029 5.02718 6.42752 0
M  V30 12659 H 25.7479 4.11779 4.09026 0
M  V30 12660 H 25.4679 2.49661 6.61772 0
M  V30 12661 H 24.4769 3.86674 6.00946 0
M  V30 12662 H 26.3109 4.29991 7.97006 0
M  V30 12663 H 26.3829 1.00589 5.98303 0
M  V30 12664 H 26.2809 -1.22639 4.93799 0
M  V30 12665 H 25.8929 -1.56819 1.27167 0
M  V30 12666 H 26.0889 -2.41062 2.83063 0
M  V30 12667 P 24.4399 6.144 6.45285 0
M  V30 12668 O 24.2199 7.54673 6.86199 0
M  V30 12669 O 23.6499 5.12391 7.179 0
M  V30 12670 O 24.1899 5.99158 4.88404 0
M  V30 12671 C 25.1299 6.60234 3.96415 0
M  V30 12672 C 24.3999 7.08259 2.72856 0
M  V30 12673 O 24.1899 5.9427 1.83651 0
M  V30 12674 C 22.9999 7.64886 2.9555 0
M  V30 12675 O 22.6099 8.53963 1.90717 0
M  V30 12676 C 22.1199 6.4116 2.90739 0
M  V30 12677 C 22.8299 5.55375 1.86963 0
M  V30 12678 N 22.7799 4.09448 2.16152 0
M  V30 12679 H 25.6189 7.45574 4.45629 0
M  V30 12680 H 25.8909 5.85864 3.679 0
M  V30 12681 H 25.0229 7.84412 2.24479 0
M  V30 12682 H 22.3679 5.73457 0.888562 0
M  V30 12683 H 22.0879 5.90877 3.88583 0
M  V30 12684 H 21.0969 6.6596 2.58858 0
M  V30 12685 H 22.9309 8.16339 3.92049 0
M  V30 12686 P 21.0599 8.7635 1.60911 0
M  V30 12687 O 20.8399 10.1388 1.11561 0
M  V30 12688 O 20.2699 8.36503 2.79617 0
M  V30 12689 O 20.8099 7.71806 0.42951 0
M  V30 12690 C 21.7499 7.67148 -0.673689 0
M  V30 12691 C 21.0199 7.33374 -1.95559 0
M  V30 12692 O 20.8099 5.88721 -2.00726 0
M  V30 12693 C 19.6199 7.92526 -2.10483 0
M  V30 12694 O 19.2299 8.02971 -3.47653 0
M  V30 12695 C 18.7399 6.89602 -1.41652 0
M  V30 12696 C 19.4499 5.59201 -1.75185 0
M  V30 12697 N 19.3999 4.58301 -0.657969 0
M  V30 12698 H 22.2389 8.65116 -0.777161 0
M  V30 12699 H 22.5109 6.9022 -0.46725 0
M  V30 12700 H 21.6429 7.66548 -2.79458 0
M  V30 12701 H 18.9879 5.16165 -2.65183 0
M  V30 12702 H 18.7079 7.06433 -0.329384 0
M  V30 12703 H 17.7169 6.90926 -1.82021 0
M  V30 12704 H 19.5509 8.90873 -1.62657 0
M  V30 12705 P 17.6799 8.03563 -3.84925 0
M  V30 12706 O 17.4599 8.85821 -5.0569 0
M  V30 12707 O 16.8899 8.41101 -2.65469 0
M  V30 12708 O 17.4299 6.49734 -4.18962 0
M  V30 12709 C 18.3699 5.81037 -5.05421 0
M  V30 12710 C 17.6399 4.79018 -5.88876 0
M  V30 12711 O 17.4299 3.58359 -5.08515 0
M  V30 12712 C 16.2399 5.17448 -6.36119 0
M  V30 12713 O 15.8499 4.45322 -7.53318 0
M  V30 12714 C 15.3599 4.74639 -5.19936 0
M  V30 12715 C 16.0699 3.49432 -4.70418 0
M  V30 12716 N 16.0199 3.31776 -3.22945 0
M  V30 12717 C 15.8699 2.02742 -2.72939 0
M  V30 12718 O 15.7799 1.08301 -3.52749 0
M  V30 12719 N 15.8199 1.96117 -1.22063 0
M  V30 12720 C 15.9199 2.8878 -0.551566 0
M  V30 12721 N 15.8699 2.65609 0.750198 0
M  V30 12722 C 16.0699 4.22457 -1.03707 0
M  V30 12723 C 16.1199 4.37979 -2.39113 0
M  V30 12724 H 18.8599 6.54138 -5.7131 0
M  V30 12725 H 19.1299 5.30492 -4.44033 0
M  V30 12726 H 18.2629 4.55945 -6.76735 0
M  V30 12727 H 15.6079 2.6176 -5.18021 0
M  V30 12728 H 15.3279 5.52233 -4.41941 0
M  V30 12729 H 14.3369 4.52045 -5.53452 0
M  V30 12730 H 16.1709 6.25124 -6.55234 0
M  V30 12731 H 16.2429 5.37936 -2.80552 0
M  V30 12732 H 16.1409 5.07528 -0.359553 0
M  V30 12733 H 15.7529 1.69403 1.09847 0
M  V30 12734 H 15.9489 3.43701 1.41792 0
M  V30 12735 P 14.2999 4.23843 -7.83734 0
M  V30 12736 O 14.0799 4.19407 -9.29784 0
M  V30 12737 O 13.5099 5.24426 -7.09156 0
M  V30 12738 O 14.0499 2.7935 -7.20758 0
M  V30 12739 C 14.9899 1.72945 -7.50224 0
M  V30 12740 C 14.2599 0.406376 -7.57911 0
M  V30 12741 O 14.0499 -0.0897726 -6.21935 0
M  V30 12742 C 12.8599 0.438983 -8.18724 0
M  V30 12743 O 12.4699 -0.825065 -8.71101 0
M  V30 12744 C 11.9799 0.783689 -6.99524 0
M  V30 12745 C 12.6899 0.0619086 -5.85867 0
M  V30 12746 N 12.6399 0.78573 -4.56183 0
M  V30 12747 C 12.4899 0.0292889 -3.41887 0
M  V30 12748 O 12.3999 -1.18445 -3.4419 0
M  V30 12749 N 12.4499 0.744061 -2.23964 0
M  V30 12750 C 12.5399 2.10932 -2.10362 0
M  V30 12751 C 12.6899 2.8202 -3.34994 0
M  V30 12752 C 12.7399 2.15547 -4.52261 0
M  V30 12753 H 15.4809 1.93379 -8.46595 0
M  V30 12754 H 15.7499 1.68132 -6.70852 0
M  V30 12755 H 14.8829 -0.289041 -8.15388 0
M  V30 12756 H 12.2279 -0.926847 -5.72749 0
M  V30 12757 H 11.9489 1.86973 -6.82036 0
M  V30 12758 H 10.9569 0.403896 -7.13257 0
M  V30 12759 H 12.7909 1.20585 -8.97435 0
M  V30 12760 H 12.8619 2.71231 -5.45042 0
M  V30 12761 P 10.92 -1.17771 -8.83182 0
M  V30 12762 O 10.7 -2.07206 -9.98732 0
M  V30 12763 O 10.13 0.0743816 -8.81969 0
M  V30 12764 O 10.67 -1.97652 -7.47304 0
M  V30 12765 C 11.61 -3.01133 -7.08783 0
M  V30 12766 C 10.88 -4.12613 -6.37049 0
M  V30 12767 O 10.67 -3.72827 -4.97879 0
M  V30 12768 C 9.47996 -4.45085 -6.88694 0
M  V30 12769 O 9.08996 -5.7877 -6.5624 0
M  V30 12770 C 8.59996 -3.47817 -6.12078 0
M  V30 12771 C 9.30996 -3.39414 -4.77697 0
M  V30 12772 N 9.25996 -2.04199 -4.15538 0
M  V30 12773 H 12.099 -3.41248 -7.98759 0
M  V30 12774 H 12.371 -2.57728 -6.42 0
M  V30 12775 H 11.503 -5.02657 -6.42673 0
M  V30 12776 H 8.84796 -4.11708 -4.08956 0
M  V30 12777 H 8.56796 -2.49626 -6.61679 0
M  V30 12778 H 7.57696 -3.8662 -6.00862 0
M  V30 12779 H 9.41096 -4.29991 -7.97006 0
M  V30 12780 P 7.53998 -6.144 -6.45285 0
M  V30 12781 O 7.31998 -7.54673 -6.86199 0
M  V30 12782 O 6.74998 -5.12391 -7.179 0
M  V30 12783 O 7.28998 -5.99158 -4.88404 0
M  V30 12784 C 8.22998 -6.60234 -3.96415 0
M  V30 12785 C 7.49998 -7.08259 -2.72856 0
M  V30 12786 O 7.28998 -5.9427 -1.83651 0
M  V30 12787 C 6.09998 -7.64886 -2.9555 0
M  V30 12788 O 5.70998 -8.53963 -1.90717 0
M  V30 12789 C 5.21998 -6.4116 -2.90739 0
M  V30 12790 C 5.92998 -5.55375 -1.86963 0
M  V30 12791 N 5.87998 -4.09664 -2.15742 0
M  V30 12792 H 8.71898 -7.45574 -4.45629 0
M  V30 12793 H 8.99098 -5.86232 -3.67314 0
M  V30 12794 H 8.12298 -7.84412 -2.24479 0
M  V30 12795 P 4.16 -8.7635 -1.60911 0
M  V30 12796 O 3.94 -10.1388 -1.11561 0
M  V30 12797 O 3.37 -8.36503 -2.79617 0
M  V30 12798 O 3.91 -7.71806 -0.42951 0
M  V30 12799 C 4.85 -7.67148 0.673689 0
M  V30 12800 C 4.12 -7.33374 1.95559 0
M  V30 12801 O 3.91 -5.88721 2.00726 0
M  V30 12802 C 2.72 -7.92526 2.10483 0
M  V30 12803 O 2.33 -8.02971 3.47653 0
M  V30 12804 C 1.84 -6.89602 1.41652 0
M  V30 12805 C 2.55 -5.59201 1.75185 0
M  V30 12806 N 2.5 -4.58235 0.662552 0
M  V30 12807 H 5.339 -8.65116 0.777161 0
M  V30 12808 H 5.611 -6.90173 0.474152 0
M  V30 12809 H 4.743 -7.66548 2.79458 0
M  V30 12810 H 1.613 -8.66322 3.55694 0
M  V30 END ATOM
M  V30 BEGIN BOND
M  V30 END BOND
M  V30 END CTAB
M  END
$$$$
