drugbank_target|P27797 Calreticulin (DB00025; DB00031; DB01065; DB06245; DB09130; DB11093; DB11348; DB13998; DB13999; DB14481)
 OpenBabel12092120053D

  0  0  0     0  0            999 V3000
M  V30 BEGIN CTAB
M  V30 COUNTS 6539 6626 0 0 0
M  V30 BEGIN ATOM
M  V30 1 H -0.908 1.98254 -0.117106 0
M  V30 2 N 0 1.576 0 0
M  V30 3 C 0.933 2.03868 1.02534 0
M  V30 4 C 1.911 0.928543 1.3348 0
M  V30 5 O 3.095 1.19667 1.45644 0
M  V30 6 C 0.222 2.43627 2.35294 0
M  V30 7 C -0.732 3.65373 2.2001 0
M  V30 8 S 0.101 5.13292 1.52614 0
M  V30 9 C 1.257 5.56322 2.86805 0
M  V30 10 H 1.49 2.90518 0.631377 0
M  V30 11 H -0.977 1.52953 0.210867 0
M  V30 12 H 0.981 2.67203 3.11629 0
M  V30 13 H -0.358 1.57376 2.7183 0
M  V30 14 H -1.165 3.90944 3.18086 0
M  V30 15 H -1.563 3.418 1.51819 0
M  V30 16 H 0.729 5.58782 3.83104 0
M  V30 17 H 1.672 6.56266 2.65933 0
M  V30 18 H 2.08 4.83886 2.90714 0
M  V30 19 N 1.4781 -0.272755 1.55222 0
M  V30 20 C 2.4081 -1.34136 1.91127 0
M  V30 21 C 3.3891 -1.51513 0.773168 0
M  V30 22 O 4.5741 -1.64552 1.03132 0
M  V30 23 C 1.7041 -2.70083 2.1834 0
M  V30 24 C 0.6581 -2.67437 3.34158 0
M  V30 25 C -0.0159 -4.06938 3.46851 0
M  V30 26 C 1.2841 -2.26686 4.70543 0
M  V30 27 H 2.9781 -1.04333 2.80633 0
M  V30 28 H 0.5241 -0.500454 1.35024 0
M  V30 29 H 2.4771 -3.44952 2.42046 0
M  V30 30 H 1.2011 -3.01469 1.25634 0
M  V30 31 H -0.1399 -1.95026 3.1042 0
M  V30 32 H -0.4919 -4.35547 2.51611 0
M  V30 33 H -0.7919 -4.06062 4.2472 0
M  V30 34 H 0.7321 -4.83545 3.72849 0
M  V30 35 H 2.1461 -2.91277 4.93792 0
M  V30 36 H 0.5431 -2.36971 5.5133 0
M  V30 37 H 1.6131 -1.21818 4.69349 0
M  V30 38 N 2.9562 -1.48159 -0.537278 0
M  V30 39 C 3.8862 -1.65029 -1.6519 0
M  V30 40 C 4.8672 -0.499281 -1.62607 0
M  V30 41 O 6.0522 -0.730972 -1.79918 0
M  V30 42 C 3.1822 -1.68303 -3.03795 0
M  V30 43 C 2.1362 -2.8283 -3.21234 0
M  V30 44 C 1.4622 -2.71189 -4.60826 0
M  V30 45 C 2.7622 -4.24211 -3.04701 0
M  V30 46 H 4.4562 -2.58341 -1.51328 0
M  V30 47 H 2.0022 -1.24325 -0.726585 0
M  V30 48 H 3.9552 -1.78693 -3.81637 0
M  V30 49 H 2.6792 -0.715635 -3.18663 0
M  V30 50 H 1.3382 -2.71983 -2.45807 0
M  V30 51 H 0.9862 -1.72435 -4.7252 0
M  V30 52 H 0.6862 -3.48035 -4.7344 0
M  V30 53 H 2.2102 -2.83537 -5.40777 0
M  V30 54 H 3.6242 -4.3593 -3.72341 0
M  V30 55 H 2.0212 -5.01998 -3.28813 0
M  V30 56 H 3.0912 -4.41184 -2.01209 0
M  V30 57 N 4.4343 0.785586 -1.36625 0
M  V30 58 C 5.6593 1.57963 -1.34397 0
M  V30 59 C 6.0843 1.87964 0.071526 0
M  V30 60 O 5.4423 1.48182 1.0446 0
M  V30 61 C 5.4903 2.87511 -2.17646 0
M  V30 62 O 4.5943 3.81281 -1.57158 0
M  V30 63 H 3.9353 0.479014 -0.459828 0
M  V30 64 H 6.4653 0.973411 -1.79961 0
M  V30 65 H 6.4753 3.36745 -2.30362 0
M  V30 66 H 5.1503 2.65002 -3.20541 0
M  V30 67 H 3.7273 3.39885 -1.53403 0
M  V30 68 N 5.9124 1.20967 1.01018 0
M  V30 69 C 7.1584 1.02526 1.74975 0
M  V30 70 C 7.4914 -0.4408 1.89131 0
M  V30 71 O 6.7664 -1.32718 1.42184 0
M  V30 72 C 7.0494 1.71699 3.1653 0
M  V30 73 C 6.9024 3.25791 3.10129 0
M  V30 74 C 8.2214 1.45531 4.15342 0
M  V30 75 H 5.3404 0.373863 0.635134 0
M  V30 76 H 7.9824 1.49071 1.17805 0
M  V30 77 H 6.1324 1.32128 3.65341 0
M  V30 78 H 7.8044 3.74697 2.69072 0
M  V30 79 H 6.0474 3.56363 2.47362 0
M  V30 80 H 6.7184 3.69353 4.10222 0
M  V30 81 H 9.1944 1.79872 3.75213 0
M  V30 82 H 8.0704 1.96453 5.1254 0
M  V30 83 H 8.3314 0.384237 4.40427 0
M  V30 84 N 7.3905 -1.2043 1.01659 0
M  V30 85 C 8.8015 -1.71517 0.737482 0
M  V30 86 C 9.1525 -1.81547 -0.743973 0
M  V30 87 O 8.2775 -1.47803 -1.58061 0
M  V30 88 C 8.8725 -3.11515 1.33206 0
M  V30 89 C 7.4315 -3.59912 1.10183 0
M  V30 90 C 6.5785 -2.37116 1.43776 0
M  V30 91 H 9.5295 -1.05444 1.18606 0
M  V30 92 H 9.5505 -3.73575 0.722636 0
M  V30 93 H 9.0625 -3.04182 2.41028 0
M  V30 94 H 7.1635 -3.72577 0.0412756 0
M  V30 95 H 7.2765 -4.44731 1.78188 0
M  V30 96 H 5.6405 -2.39857 0.856778 0
M  V30 97 H 6.4235 -2.32424 2.52654 0
M  V30 98 N 8.8686 -0.792821 -1.36206 0
M  V30 99 C 9.7986 -0.207853 -2.32573 0
M  V30 100 C 10.7796 0.659055 -1.56813 0
M  V30 101 O 11.9646 0.592176 -1.84951 0
M  V30 102 C 9.0946 0.655449 -3.41059 0
M  V30 103 C 8.0486 -0.111842 -4.27854 0
M  V30 104 C 7.3746 0.872274 -5.27537 0
M  V30 105 C 8.6746 -1.30299 -5.05786 0
M  V30 106 H 10.3686 -1.01294 -2.81744 0
M  V30 107 H 7.9146 -0.48854 -1.3546 0
M  V30 108 H 9.8676 1.07464 -4.07467 0
M  V30 109 H 8.5916 1.49328 -2.90463 0
M  V30 110 H 7.2506 -0.512053 -3.63006 0
M  V30 111 H 6.8986 1.70523 -4.73214 0
M  V30 112 H 6.5986 0.363291 -5.86476 0
M  V30 113 H 8.1226 1.28996 -5.96818 0
M  V30 114 H 9.5366 -0.959379 -5.65216 0
M  V30 115 H 7.9336 -1.7455 -5.74154 0
M  V30 116 H 9.0036 -2.09663 -4.37229 0
M  V30 117 N 10.3467 1.47872 -0.545128 0
M  V30 118 C 11.2767 2.32661 0.197793 0
M  V30 119 C 12.2577 1.43041 0.920504 0
M  V30 120 O 13.4427 1.71912 0.90333 0
M  V30 121 C 10.5727 3.24569 1.23582 0
M  V30 122 C 9.5267 4.23333 0.630323 0
M  V30 123 C 8.8527 5.0448 1.77211 0
M  V30 124 C 10.1527 5.20704 -0.407974 0
M  V30 125 H 11.8467 2.95024 -0.510045 0
M  V30 126 H 9.3927 1.4187 -0.246731 0
M  V30 127 H 11.3457 3.8272 1.76362 0
M  V30 128 H 10.0697 2.60236 1.97344 0
M  V30 129 H 8.7287 3.6639 0.123922 0
M  V30 130 H 8.3767 4.36561 2.49847 0
M  V30 131 H 8.0767 5.71339 1.37281 0
M  V30 132 H 9.6007 5.65487 2.3034 0
M  V30 133 H 11.0147 5.7329 0.033305 0
M  V30 134 H 9.4117 5.95699 -0.725486 0
M  V30 135 H 10.4817 4.66917 -1.30828 0
M  V30 136 N 11.8248 0.280983 1.55075 0
M  V30 137 C 12.7548 -0.597469 2.25727 0
M  V30 138 C 13.7358 -1.15417 1.24952 0
M  V30 139 O 14.9208 -1.18722 1.53684 0
M  V30 140 C 12.0508 -1.7789 2.98283 0
M  V30 141 C 11.0048 -1.35347 4.06036 0
M  V30 142 C 10.3308 -2.61846 4.66198 0
M  V30 143 C 11.6308 -0.499354 5.19907 0
M  V30 144 H 13.3248 -0.00824265 2.99399 0
M  V30 145 H 10.8708 -0.0025244 1.44 0
M  V30 146 H 12.8238 -2.39937 3.46422 0
M  V30 147 H 11.5478 -2.39405 2.22155 0
M  V30 148 H 10.2068 -0.756156 3.58717 0
M  V30 149 H 9.8548 -3.21632 3.86732 0
M  V30 150 H 9.5548 -2.3409 5.38958 0
M  V30 151 H 11.0788 -3.24732 5.1709 0
M  V30 152 H 12.4928 -1.02498 5.64063 0
M  V30 153 H 10.8898 -0.316424 5.99265 0
M  V30 154 H 11.9598 0.480459 4.82514 0
M  V30 155 N 13.3029 -1.57598 0.00835791 0
M  V30 156 C 14.5509 -1.90551 -0.6734 0
M  V30 157 C 14.8719 -0.883301 -1.73847 0
M  V30 158 O 14.1419 0.0781442 -1.95744 0
M  V30 159 H 12.7219 -0.703312 -0.251717 0
M  V30 160 H 15.3839 -1.94833 0.0512592 0
M  V30 161 H 14.4799 -2.9056 -1.13935 0
M  V30 162 N 14.781 0.264519 -1.55364 0
M  V30 163 C 15.711 1.33121 -1.91836 0
M  V30 164 C 16.692 1.51101 -0.781192 0
M  V30 165 O 17.877 1.64003 -1.04003 0
M  V30 166 C 15.007 2.68921 -2.19769 0
M  V30 167 C 13.961 2.65661 -3.35571 0
M  V30 168 C 13.287 4.05093 -3.49004 0
M  V30 169 C 14.587 2.24187 -4.71739 0
M  V30 170 H 16.281 1.02844 -2.81182 0
M  V30 171 H 13.827 0.493286 -1.35287 0
M  V30 172 H 15.78 3.43663 -2.43872 0
M  V30 173 H 14.504 3.00799 -1.27231 0
M  V30 174 H 13.163 1.93377 -3.1145 0
M  V30 175 H 12.811 4.34206 -2.53917 0
M  V30 176 H 12.511 4.03804 -4.26868 0
M  V30 177 H 14.035 4.81561 -3.75408 0
M  V30 178 H 15.449 2.88654 -4.9533 0
M  V30 179 H 13.846 2.34044 -5.52579 0
M  V30 180 H 14.916 1.19327 -4.69988 0
M  V30 181 N 16.2591 1.48442 0.529413 0
M  V30 182 C 17.1891 1.65902 1.64313 0
M  V30 183 C 18.1701 0.507897 1.6234 0
M  V30 184 O 19.3551 0.740503 1.79528 0
M  V30 185 C 16.4851 1.69911 3.02898 0
M  V30 186 C 15.4391 2.8453 3.19729 0
M  V30 187 C 14.7651 2.73629 4.59381 0
M  V30 188 C 16.0651 4.25821 3.02447 0
M  V30 189 H 17.7591 2.5914 1.49955 0
M  V30 190 H 15.3051 1.24709 0.719982 0
M  V30 191 H 17.2581 1.80715 3.80684 0
M  V30 192 H 15.9821 0.732524 3.18279 0
M  V30 193 H 14.6411 2.73283 2.44361 0
M  V30 194 H 14.2891 1.74938 4.71599 0
M  V30 195 H 13.9891 3.50541 4.71588 0
M  V30 196 H 15.5131 2.86401 5.39265 0
M  V30 197 H 16.9271 4.37898 3.70024 0
M  V30 198 H 15.3241 5.03735 3.26146 0
M  V30 199 H 16.3941 4.42244 1.98867 0
M  V30 200 N 17.7372 -0.778329 1.37039 0
M  V30 201 C 18.9852 -1.53361 1.31623 0
M  V30 202 C 19.3062 -1.94739 -0.100831 0
M  V30 203 O 18.5762 -1.65797 -1.04347 0
M  V30 204 H 17.1562 -0.568794 0.484234 0
M  V30 205 H 19.8182 -0.926742 1.71457 0
M  V30 206 H 18.9142 -2.43606 1.95096 0
M  V30 207 N 19.2153 -1.21501 -1.00376 0
M  V30 208 C 20.1453 -0.999478 -2.11028 0
M  V30 209 C 21.1263 0.0759671 -1.6993 0
M  V30 210 O 22.3113 -0.0841106 -1.94018 0
M  V30 211 C 19.4413 -0.564709 -3.42678 0
M  V30 212 C 18.3953 -1.58486 -3.97576 0
M  V30 213 C 17.7213 -1.00628 -5.25146 0
M  V30 214 C 19.0213 -2.97204 -4.29496 0
M  V30 215 H 20.7153 -1.92495 -2.29317 0
M  V30 216 H 18.2613 -0.92693 -1.102 0
M  V30 217 H 20.2143 -0.401091 -4.19487 0
M  V30 218 H 18.9383 0.396411 -3.24185 0
M  V30 219 H 17.5973 -1.73606 -3.22888 0
M  V30 220 H 17.2453 -0.0368439 -5.02987 0
M  V30 221 H 16.9453 -1.68771 -5.62841 0
M  V30 222 H 18.4693 -0.854015 -6.04598 0
M  V30 223 H 19.8833 -2.8552 -4.97143 0
M  V30 224 H 18.2803 -3.62372 -4.78338 0
M  V30 225 H 19.3503 -3.47956 -3.3772 0
M  V30 226 N 20.6934 1.19889 -1.02296 0
M  V30 227 C 21.6564 2.21116 -0.603351 0
M  V30 228 C 22.6564 1.5738 0.329884 0
M  V30 229 O 23.8464 1.73802 0.117702 0
M  V30 230 C 20.9784 3.40696 0.117992 0
M  V30 231 H 22.1714 2.59754 -1.49893 0
M  V30 232 H 19.7244 1.33463 -0.813468 0
M  V30 233 H 20.4594 3.07569 1.0282 0
M  V30 234 H 20.2444 3.88188 -0.552511 0
M  V30 235 H 21.7344 4.15692 0.398696 0
M  V30 236 N 22.1715 0.800033 1.35784 0
M  V30 237 C 23.4175 0.377901 1.99248 0
M  V30 238 C 23.7505 -1.05052 1.63333 0
M  V30 239 O 23.0255 -1.72768 0.893385 0
M  V30 240 C 23.3085 0.553922 3.55814 0
M  V30 241 C 23.1615 2.0268 4.01548 0
M  V30 242 C 24.4805 -0.0244802 4.40093 0
M  V30 243 H 21.5995 0.138782 0.723815 0
M  V30 244 H 24.2415 1.00835 1.61035 0
M  V30 245 H 22.3915 0.0172398 3.88496 0
M  V30 246 H 24.0635 2.62536 3.79305 0
M  V30 247 H 22.3065 2.5256 3.52698 0
M  V30 248 H 22.9775 2.10087 5.10458 0
M  V30 249 H 25.4535 0.433775 4.13833 0
M  V30 250 H 24.3295 0.128637 5.48749 0
M  V30 251 H 24.5905 -1.11758 4.27741 0
M  V30 252 N 23.6496 -1.47581 0.552962 0
M  V30 253 C 24.6126 -2.28439 -0.186605 0
M  V30 254 C 25.6126 -1.36706 -0.84665 0
M  V30 255 O 26.8026 -1.59378 -0.703164 0
M  V30 256 C 23.9346 -3.16264 -1.2724 0
M  V30 257 H 25.1276 -2.95294 0.523609 0
M  V30 258 H 22.6806 -1.532 0.309745 0
M  V30 259 H 23.4156 -2.54091 -2.01514 0
M  V30 260 H 23.2006 -3.83769 -0.803968 0
M  V30 261 H 24.6906 -3.77198 -1.79196 0
M  V30 262 N 25.1277 -0.289203 -1.54924 0
M  V30 263 C 26.0377 0.601863 -2.26748 0
M  V30 264 C 27.0537 1.15834 -1.2984 0
M  V30 265 O 28.2297 1.18564 -1.62802 0
M  V30 266 C 25.2947 1.76299 -2.98529 0
M  V30 267 C 24.3557 1.24178 -4.10948 0
M  V30 268 C 23.5887 2.34757 -4.79296 0
M  V30 269 O 23.8117 3.54411 -4.46933 0
M  V30 270 O 22.7457 2.02115 -5.66951 0
M  V30 271 H 26.5717 0.0195879 -3.03694 0
M  V30 272 H 24.1567 -0.0560868 -1.49295 0
M  V30 273 H 26.0387 2.43973 -3.43592 0
M  V30 274 H 24.7137 2.33209 -2.24488 0
M  V30 275 H 23.6207 0.531104 -3.70311 0
M  V30 276 H 24.9537 0.718252 -4.86931 0
M  V30 277 N 26.6058 1.57591 -0.0167156 0
M  V30 278 C 28.0168 1.79201 0.523834 0
M  V30 279 C 28.3678 0.925796 1.72984 0
M  V30 280 O 27.4928 0.132792 2.15992 0
M  V30 281 C 28.0878 3.25 0.957091 0
M  V30 282 C 26.6468 3.47648 1.44283 0
M  V30 283 C 25.7938 2.74374 0.401757 0
M  V30 284 H 28.7448 1.56831 -0.242816 0
M  V30 285 H 28.7658 3.34031 1.82219 0
M  V30 286 H 28.2778 3.88019 0.0791415 0
M  V30 287 H 26.3788 2.89866 2.34113 0
M  V30 288 H 26.4918 4.56352 1.45877 0
M  V30 289 H 24.8558 2.39485 0.867121 0
M  V30 290 H 25.6388 3.40102 -0.467513 0
M  V30 291 N 28.0839 -0.256276 1.55502 0
M  V30 292 C 29.0469 -1.30047 1.88734 0
M  V30 293 C 30.0469 -1.4154 0.763086 0
M  V30 294 O 31.2369 -1.40403 1.03115 0
M  V30 295 C 28.3689 -2.67953 2.10747 0
M  V30 296 H 29.5619 -1.01802 2.82093 0
M  V30 297 H 27.1149 -0.495134 1.4825 0
M  V30 298 H 27.8499 -3.01351 1.19825 0
M  V30 299 H 27.6349 -2.60993 2.92617 0
M  V30 300 H 29.1249 -3.43368 2.37673 0
M  V30 301 N 29.562 -1.4872 -0.521534 0
M  V30 302 C 30.808 -1.574 -1.27879 0
M  V30 303 C 31.141 -0.250817 -1.92573 0
M  V30 304 O 30.416 0.743934 -1.79711 0
M  V30 305 C 30.699 -2.71843 -2.36164 0
M  V30 306 C 30.552 -4.13893 -1.76105 0
M  V30 307 C 31.871 -2.82008 -3.37875 0
M  V30 308 H 28.99 -0.572941 -0.463581 0
M  V30 309 H 31.632 -1.80927 -0.580119 0
M  V30 310 H 29.782 -2.51914 -2.95756 0
M  V30 311 H 31.454 -4.45284 -1.20499 0
M  V30 312 H 29.697 -4.20498 -1.06601 0
M  V30 313 H 30.368 -4.89804 -2.5455 0
M  V30 314 H 32.844 -3.00086 -2.88249 0
M  V30 315 H 31.72 -3.63796 -4.11028 0
M  V30 316 H 31.981 -1.90511 -3.98946 0
M  V30 317 N 31.0401 0.771051 -1.3745 0
M  V30 318 C 32.2701 1.55789 -1.35696 0
M  V30 319 C 32.6781 1.89107 0.0594523 0
M  V30 320 O 32.0211 1.51984 1.03183 0
M  V30 321 C 32.0831 2.89515 -2.13123 0
M  V30 322 C 31.7471 2.78829 -3.62082 0
M  V30 323 C 32.7441 2.49812 -4.5595 0
M  V30 324 C 30.4291 2.9683 -4.05213 0
M  V30 325 C 32.4231 2.38923 -5.90927 0
M  V30 326 C 30.1101 2.85562 -5.40276 0
M  V30 327 C 31.1081 2.56649 -6.32946 0
M  V30 328 O 30.7961 2.45408 -7.65526 0
M  V30 329 H 30.5281 0.489257 -0.466481 0
M  V30 330 H 33.0821 0.963446 -1.81403 0
M  V30 331 H 31.3121 3.51081 -1.62107 0
M  V30 332 H 33.0011 3.50915 -2.03994 0
M  V30 333 H 33.7671 2.3559 -4.23937 0
M  V30 334 H 29.6461 3.18335 -3.33442 0
M  V30 335 H 33.1901 2.16277 -6.63227 0
M  V30 336 H 29.0871 2.99351 -5.71891 0
M  V30 337 H 29.8551 2.60753 -7.75855 0
M  V30 338 N 32.5182 1.22032 0.997298 0
M  V30 339 C 33.7652 1.04222 1.73621 0
M  V30 340 C 34.0932 -0.423264 1.89839 0
M  V30 341 O 33.3482 -1.3302 1.43542 0
M  V30 342 C 33.6472 1.69345 3.14733 0
M  V30 343 C 33.3132 3.19226 3.18442 0
M  V30 344 C 31.9752 3.60124 3.19161 0
M  V30 345 C 34.3272 4.15181 3.15078 0
M  V30 346 C 31.6552 4.95467 3.14212 0
M  V30 347 C 34.0072 5.50495 3.1167 0
M  V30 348 C 32.6712 5.90779 3.10703 0
M  V30 349 H 31.9412 0.381374 0.635323 0
M  V30 350 H 34.5882 1.51732 1.16831 0
M  V30 351 H 32.8932 1.14147 3.74803 0
M  V30 352 H 34.5902 1.53059 3.7064 0
M  V30 353 H 31.1802 2.86659 3.18629 0
M  V30 354 H 35.3642 3.84605 3.13676 0
M  V30 355 H 30.6202 5.25916 3.11805 0
M  V30 356 H 34.7942 6.24576 3.08022 0
M  V30 357 H 32.4212 6.9562 3.06622 0
M  V30 358 N 33.9963 -1.19345 1.0293 0
M  V30 359 C 34.9433 -2.2258 0.610464 0
M  V30 360 C 35.9133 -1.6179 -0.375946 0
M  V30 361 O 37.0983 -1.88844 -0.272511 0
M  V30 362 C 34.2383 -3.45085 -0.0321473 0
M  V30 363 C 33.3513 -4.20258 1.00035 0
M  V30 364 C 32.4863 -5.3019 0.32746 0
M  V30 365 C 31.5253 -5.97121 1.34584 0
M  V30 366 N 30.6623 -6.98615 0.698726 0
M  V30 367 H 35.5023 -2.57764 1.49538 0
M  V30 368 H 33.0393 -1.26644 0.748311 0
M  V30 369 H 34.9973 -4.15061 -0.421966 0
M  V30 370 H 33.6273 -3.10555 -0.88064 0
M  V30 371 H 32.6793 -3.49223 1.50823 0
M  V30 372 H 33.9913 -4.66175 1.77433 0
M  V30 373 H 33.1453 -6.06587 -0.11718 0
M  V30 374 H 31.8843 -4.85345 -0.478713 0
M  V30 375 H 30.8893 -5.19474 1.80074 0
M  V30 376 H 32.1143 -6.4405 2.15352 0
M  V30 377 H 30.0603 -6.55942 -0.0873471 0
M  V30 378 H 29.9773 -7.42724 1.41058 0
M  V30 379 H 31.2453 -7.79004 0.278102 0
M  V30 380 N 35.4744 -0.807222 -1.35358 0
M  V30 381 C 36.3844 -0.219594 -2.3357 0
M  V30 382 C 37.4004 0.637734 -1.61892 0
M  V30 383 O 38.5764 0.549336 -1.93763 0
M  V30 384 C 35.6414 0.62158 -3.41083 0
M  V30 385 C 34.7024 -0.256315 -4.28534 0
M  V30 386 C 33.9354 0.544807 -5.30912 0
M  V30 387 O 34.1584 1.77944 -5.41934 0
M  V30 388 O 33.0924 -0.0646478 -6.01865 0
M  V30 389 H 36.9184 -1.03208 -2.85625 0
M  V30 390 H 34.5034 -0.569025 -1.38139 0
M  V30 391 H 36.3854 1.10067 -4.06772 0
M  V30 392 H 35.0604 1.41165 -2.91297 0
M  V30 393 H 33.9674 -0.782559 -3.65823 0
M  V30 394 H 35.3004 -1.01034 -4.81719 0
M  V30 395 N 36.9525 1.47285 -0.560781 0
M  V30 396 C 37.8845 2.28118 0.222438 0
M  V30 397 C 38.8975 1.37219 0.876056 0
M  V30 398 O 40.0865 1.62011 0.749307 0
M  V30 399 C 37.1865 3.1159 1.33285 0
M  V30 400 C 36.3595 4.30473 0.77534 0
M  V30 401 C 35.4185 4.95513 1.77069 0
M  V30 402 O 34.4445 5.53792 1.31539 0
M  V30 403 N 35.6465 4.90531 3.10418 0
M  V30 404 H 38.4115 2.95976 -0.470958 0
M  V30 405 H 35.9725 1.56955 -0.39709 0
M  V30 406 H 37.9645 3.51967 1.99752 0
M  V30 407 H 36.5345 2.45951 1.92943 0
M  V30 408 H 35.7545 3.94144 -0.0662113 0
M  V30 409 H 37.0425 5.07362 0.382272 0
M  V30 410 H 36.4405 4.44389 3.5005 0
M  V30 411 H 34.9975 5.34917 3.72434 0
M  V30 412 N 38.4306 0.297415 1.54768 0
M  V30 413 C 39.6776 -0.312913 2.00068 0
M  V30 414 C 40.0056 -1.54171 1.18582 0
M  V30 415 O 39.2606 -1.94108 0.249133 0
M  V30 416 C 39.5596 -0.717561 3.50123 0
M  V30 417 C 39.2256 0.409095 4.4904 0
M  V30 418 C 37.8876 0.718399 4.75807 0
M  V30 419 C 40.2396 1.16717 5.07963 0
M  V30 420 C 37.5676 1.78896 5.5876 0
M  V30 421 C 39.9196 2.22762 5.92081 0
M  V30 422 C 38.5836 2.54303 6.1716 0
M  V30 423 H 37.8536 -0.114503 0.7321 0
M  V30 424 H 40.5006 0.415767 1.86932 0
M  V30 425 H 38.8056 -1.52627 3.60849 0
M  V30 426 H 40.5026 -1.20091 3.82595 0
M  V30 427 H 37.0926 0.157918 4.28309 0
M  V30 428 H 41.2766 0.941466 4.87289 0
M  V30 429 H 36.5326 2.0381 5.7643 0
M  V30 430 H 40.7066 2.81962 6.36765 0
M  V30 431 H 38.3336 3.3739 6.81229 0
M  V30 432 N 39.9087 -1.5758 0.0250728 0
M  V30 433 C 40.8387 -2.13007 -0.956575 0
M  V30 434 C 41.8197 -1.0452 -1.342 0
M  V30 435 O 43.0047 -1.32332 -1.42133 0
M  V30 436 C 40.1347 -2.65386 -2.24026 0
M  V30 437 C 39.0887 -3.78623 -1.99571 0
M  V30 438 C 38.4147 -4.17414 -3.3417 0
M  V30 439 C 39.7147 -5.04867 -1.33814 0
M  V30 440 H 41.4087 -2.9528 -0.494991 0
M  V30 441 H 38.9547 -1.42042 -0.236651 0
M  V30 442 H 40.9077 -3.02794 -2.93076 0
M  V30 443 H 39.6317 -1.80268 -2.72343 0
M  V30 444 H 38.2907 -3.41646 -1.32941 0
M  V30 445 H 37.9387 -3.29284 -3.80238 0
M  V30 446 H 37.6387 -4.93719 -3.18615 0
M  V30 447 H 39.1627 -4.57402 -4.04495 0
M  V30 448 H 40.5767 -5.39888 -1.92857 0
M  V30 449 H 38.9737 -5.86144 -1.28669 0
M  V30 450 H 40.0437 -4.83904 -0.310561 0
M  V30 451 N 41.3868 0.248026 -1.55636 0
M  V30 452 C 42.6638 0.998988 -1.68165 0
M  V30 453 C 43.0438 2.03409 -0.564621 0
M  V30 454 O 42.3918 2.24378 0.432076 0
M  V30 455 C 42.6018 1.63334 -3.0842 0
M  V30 456 C 43.9498 2.13562 -3.66983 0
M  V30 457 O 44.9738 1.73277 -3.11213 0
M  V30 458 O 43.8328 2.87526 -4.64749 0
M  V30 459 H 40.9268 0.464933 -0.683935 0
M  V30 460 H 43.4728 0.241902 -1.67967 0
M  V30 461 H 42.2448 0.884583 -3.8117 0
M  V30 462 H 41.8678 2.45666 -3.12624 0
M  V30 463 N 42.8649 1.48995 0.513639 0
M  V30 464 C 44.1129 1.57531 1.26604 0
M  V30 465 C 44.4339 0.258236 1.93283 0
M  V30 466 O 43.7039 -0.721502 1.8213 0
M  V30 467 H 42.2839 0.580387 0.470276 0
M  V30 468 H 44.9459 1.85552 0.596373 0
M  V30 469 H 44.0419 2.36486 2.03669 0
M  V30 470 N 44.343 -0.763751 1.37857 0
M  V30 471 C 45.62 -1.51244 1.24035 0
M  V30 472 C 46 -2.10472 -0.162649 0
M  V30 473 O 45.348 -1.96206 -1.17112 0
M  V30 474 C 45.558 -2.58694 2.34261 0
M  V30 475 C 46.906 -3.25878 2.72193 0
M  V30 476 O 47.93 -2.68993 2.33497 0
M  V30 477 O 46.789 -4.2874 3.38887 0
M  V30 478 H 43.883 -0.670243 0.484462 0
M  V30 479 H 46.429 -0.800031 1.49658 0
M  V30 480 H 45.201 -2.13105 3.2818 0
M  V30 481 H 44.824 -3.37527 2.10146 0
M  V30 482 N 45.8211 -1.22559 -0.990812 0
M  V30 483 C 47.0691 -1.04933 -1.72724 0
M  V30 484 C 47.3901 0.416158 -1.90508 0
M  V30 485 O 46.6601 1.29918 -1.46622 0
M  V30 486 H 45.2401 -0.385296 -0.639965 0
M  V30 487 H 47.9021 -1.54105 -1.19322 0
M  V30 488 H 46.9981 -1.52886 -2.72089 0
M  V30 489 N 47.2992 1.18797 -1.03562 0
M  V30 490 C 48.5452 1.89192 -0.746867 0
M  V30 491 C 48.9002 1.78531 0.717245 0
M  V30 492 O 48.1932 1.17137 1.51622 0
M  V30 493 C 48.3872 3.38692 -1.14117 0
M  V30 494 C 48.2162 3.63902 -2.64207 0
M  V30 495 C 46.9862 3.81553 -3.31279 0
M  V30 496 C 49.1842 3.64903 -3.62423 0
M  V30 497 N 47.1662 3.94455 -4.70402 0
M  V30 498 C 48.5372 3.83458 -4.87196 0
M  V30 499 C 50.5922 3.47965 -3.56125 0
M  V30 500 C 49.2952 3.86829 -6.06429 0
M  V30 501 C 51.3212 3.52616 -4.7478 0
M  V30 502 C 50.6832 3.71663 -5.9837 0
M  V30 503 H 46.7822 0.711141 -0.325273 0
M  V30 504 H 49.3662 1.42727 -1.32428 0
M  V30 505 H 47.5372 3.83864 -0.591889 0
M  V30 506 H 49.2692 3.96634 -0.803966 0
M  V30 507 H 46.0242 3.80723 -2.81686 0
M  V30 508 H 46.4482 4.0474 -5.42692 0
M  V30 509 H 51.0902 3.32189 -2.61553 0
M  V30 510 H 48.8082 4.01395 -7.01362 0
M  V30 511 H 52.3942 3.40791 -4.71543 0
M  V30 512 H 51.2742 3.75145 -6.88648 0
M  V30 513 N 48.7773 0.814389 1.34928 0
M  V30 514 C 50.0053 0.411136 2.02774 0
M  V30 515 C 50.4203 -0.980316 1.61354 0
M  V30 516 O 49.7773 -1.63299 0.814847 0
M  V30 517 C 49.8283 0.493865 3.58111 0
M  V30 518 O 49.5493 1.83047 3.98027 0
M  V30 519 C 51.0503 0.0844174 4.4322 0
M  V30 520 H 48.2703 0.166037 0.650133 0
M  V30 521 H 50.8143 1.10018 1.72384 0
M  V30 522 H 48.9693 -0.147006 3.87121 0
M  V30 523 H 49.3833 1.79872 4.92693 0
M  V30 524 H 50.8573 0.193404 5.51661 0
M  V30 525 H 51.3343 -0.97113 4.28329 0
M  V30 526 H 51.9403 0.69875 4.19521 0
M  V30 527 N 50.2554 -1.46986 0.568584 0
M  V30 528 C 51.4804 -2.07335 0.0520528 0
M  V30 529 C 51.9054 -1.41675 -1.23733 0
M  V30 530 O 51.2634 -0.495623 -1.74394 0
M  V30 531 C 51.3114 -3.60417 -0.11501 0
M  V30 532 O 50.4154 -3.95309 -1.17492 0
M  V30 533 H 49.7564 -0.661597 0.0564385 0
M  V30 534 H 52.2864 -1.88837 0.787507 0
M  V30 535 H 52.2964 -4.06698 -0.325644 0
M  V30 536 H 50.9714 -4.07601 0.826675 0
M  V30 537 H 49.5484 -3.60757 -0.943869 0
M  V30 538 N 51.7335 -0.305618 -1.54608 0
M  V30 539 C 53.1495 0.0476228 -1.59529 0
M  V30 540 C 53.3495 1.52025 -1.32252 0
M  V30 541 O 52.4055 2.27368 -1.09818 0
M  V30 542 C 53.7185 -0.354471 -2.98603 0
M  V30 543 C 55.2665 -0.303622 -3.11524 0
M  V30 544 C 55.7415 -0.680608 -4.52915 0
M  V30 545 N 57.2325 -0.63332 -4.5885 0
M  V30 546 C 57.9675 -0.897432 -5.66334 0
M  V30 547 N 57.4635 -1.22775 -6.81834 0
M  V30 548 N 59.2565 -0.824186 -5.56025 0
M  V30 549 H 51.4075 -1.2653 -1.70599 0
M  V30 550 H 53.6705 -0.513291 -0.797017 0
M  V30 551 H 53.3765 -1.3798 -3.23503 0
M  V30 552 H 53.2505 0.289568 -3.76087 0
M  V30 553 H 55.6375 0.712472 -2.8637 0
M  V30 554 H 55.7185 -0.982348 -2.36185 0
M  V30 555 H 55.3625 -1.69453 -4.78799 0
M  V30 556 H 55.2925 0.0202385 -5.26596 0
M  V30 557 H 57.7835 -0.389138 -3.75891 0
M  V30 558 H 58.0965 -1.41513 -7.59733 0
M  V30 559 H 56.4415 -1.26583 -6.83375 0
M  V30 560 H 59.6325 -0.565748 -4.64669 0
M  V30 561 H 59.8055 -1.03338 -6.39707 0
M  V30 562 N 53.2116 1.57565 -0.0334293 0
M  V30 563 C 54.4576 1.93088 0.639417 0
M  V30 564 C 54.8126 0.910589 1.69488 0
M  V30 565 O 54.1056 -0.0727725 1.91462 0
M  V30 566 C 54.2996 3.33112 1.29504 0
M  V30 567 C 54.1286 4.48667 0.304604 0
M  V30 568 C 52.8986 5.05207 -0.0970777 0
M  V30 569 C 55.0966 5.1239 -0.442845 0
M  V30 570 N 53.0786 6.04286 -1.08223 0
M  V30 571 C 54.4496 6.06609 -1.28161 0
M  V30 572 C 56.5046 4.95352 -0.50308 0
M  V30 573 C 55.2076 6.85622 -2.17519 0
M  V30 574 C 57.2336 5.74978 -1.38401 0
M  V30 575 C 56.5956 6.68816 -2.21054 0
M  V30 576 H 52.6946 0.754335 0.206161 0
M  V30 577 H 55.2786 1.94435 -0.101613 0
M  V30 578 H 53.4496 3.32576 2.00618 0
M  V30 579 H 55.1816 3.55972 1.92525 0
M  V30 580 H 51.9366 4.72782 0.278255 0
M  V30 581 H 52.3606 6.58516 -1.57117 0
M  V30 582 H 57.0026 4.22625 0.121694 0
M  V30 583 H 54.7206 7.57652 -2.81049 0
M  V30 584 H 58.3066 5.63826 -1.43496 0
M  V30 585 H 57.1866 7.29355 -2.88116 0
M  V30 586 N 54.6897 -0.239769 1.55765 0
M  V30 587 C 55.9387 -0.964754 1.77131 0
M  V30 588 C 56.2517 -1.86213 0.59868 0
M  V30 589 O 57.4577 -2.6244 0.695522 0
M  V30 590 C 55.9137 -1.76552 3.1362 0
M  V30 591 C 55.5217 -0.915185 4.38553 0
M  V30 592 C 57.2657 -2.48281 3.44321 0
M  V30 593 C 55.1727 -1.71225 5.66071 0
M  V30 594 H 54.1027 -0.363953 0.660344 0
M  V30 595 H 56.7537 -0.219181 1.82186 0
M  V30 596 H 55.1357 -2.55331 3.02691 0
M  V30 597 H 56.3097 -0.169217 4.60489 0
M  V30 598 H 54.6247 -0.310889 4.15238 0
M  V30 599 H 57.2217 -3.08382 4.36812 0
M  V30 600 H 57.5647 -3.20256 2.65973 0
M  V30 601 H 58.0977 -1.76507 3.56497 0
M  V30 602 H 54.8367 -1.03612 6.4726 0
M  V30 603 H 54.3567 -2.43331 5.48224 0
M  V30 604 H 56.0357 -2.27758 6.05587 0
M  V30 605 N 56.1678 -1.49265 -0.50573 0
M  V30 606 C 57.0778 -1.68312 -1.63427 0
M  V30 607 C 58.0938 -0.565682 -1.64548 0
M  V30 608 O 59.2698 -0.839801 -1.83055 0
M  V30 609 C 56.3348 -1.74107 -2.99813 0
M  V30 610 C 55.3958 -2.97653 -3.09356 0
M  V30 611 C 54.6288 -3.03163 -4.39236 0
M  V30 612 O 54.8518 -2.16396 -5.27758 0
M  V30 613 O 53.7858 -3.9558 -4.53652 0
M  V30 614 H 57.6118 -2.63907 -1.50289 0
M  V30 615 H 55.1968 -1.32951 -0.681502 0
M  V30 616 H 57.0788 -1.803 -3.80881 0
M  V30 617 H 55.7538 -0.816901 -3.13223 0
M  V30 618 H 54.6608 -2.96981 -2.27493 0
M  V30 619 H 55.9938 -3.89535 -3.00871 0
M  V30 620 N 57.6459 0.756429 -1.3826 0
M  V30 621 C 58.8709 1.55077 -1.37717 0
M  V30 622 C 59.2959 1.88073 0.03164 0
M  V30 623 O 58.6539 1.50364 1.01293 0
M  V30 624 C 58.7019 2.8283 -2.23695 0
M  V30 625 O 57.8059 3.77862 -1.6521 0
M  V30 626 H 57.1469 0.469152 -0.469885 0
M  V30 627 H 59.6769 0.935019 -1.81985 0
M  V30 628 H 59.6869 3.31783 -2.37453 0
M  V30 629 H 58.3619 2.58144 -3.2609 0
M  V30 630 H 56.9389 3.36555 -1.60578 0
M  V30 631 N 59.124 1.23083 0.984299 0
M  V30 632 C 60.071 1.00854 2.07598 0
M  V30 633 C 61.041 -0.0726709 1.65941 0
M  V30 634 O 62.226 0.0786535 1.90638 0
M  V30 635 C 59.366 0.601645 3.39815 0
M  V30 636 C 58.479 1.75456 3.94765 0
M  V30 637 C 57.614 1.29482 5.15177 0
M  V30 638 C 56.653 2.41873 5.62284 0
M  V30 639 N 55.79 1.96885 6.73929 0
M  V30 640 H 60.63 1.943 2.25946 0
M  V30 641 H 58.167 0.968001 1.10762 0
M  V30 642 H 60.125 0.346854 4.15756 0
M  V30 643 H 58.755 -0.295803 3.21442 0
M  V30 644 H 57.807 2.12346 3.15616 0
M  V30 645 H 59.119 2.59965 4.25699 0
M  V30 646 H 58.273 0.997923 5.98437 0
M  V30 647 H 57.012 0.420046 4.85888 0
M  V30 648 H 56.017 2.72342 4.77608 0
M  V30 649 H 57.242 3.29881 5.93595 0
M  V30 650 H 55.188 1.11782 6.46406 0
M  V30 651 H 55.105 2.74956 7.04227 0
M  V30 652 H 56.373 1.70289 7.60672 0
M  V30 653 N 60.6021 -1.18246 1.0419 0
M  V30 654 C 61.5521 -2.19843 0.604392 0
M  V30 655 C 62.5361 -1.56962 -0.353814 0
M  V30 656 O 63.7281 -1.76156 -0.17267 0
M  V30 657 C 60.8571 -3.43287 -0.0298975 0
M  V30 658 C 59.9431 -4.13288 0.951531 0
M  V30 659 N 60.3341 -4.59271 2.11906 0
M  V30 660 C 58.6321 -4.39165 0.7778 0
M  V30 661 C 59.3331 -5.13173 2.73912 0
M  V30 662 N 58.3091 -5.04763 2.01779 0
M  V30 663 H 62.1111 -2.53089 1.4941 0
M  V30 664 H 59.6251 -1.34465 0.910658 0
M  V30 665 H 61.6221 -4.15334 -0.361037 0
M  V30 666 H 60.2821 -3.11537 -0.915127 0
M  V30 667 H 61.2931 -4.5368 2.49789 0
M  V30 668 H 57.9701 -4.17461 -0.0572331 0
M  V30 669 H 59.3601 -5.58947 3.72864 0
M  V30 670 N 62.0802 -0.821533 -1.34494 0
M  V30 671 C 63.0272 -0.240397 -2.29545 0
M  V30 672 C 63.9972 0.634031 -1.53523 0
M  V30 673 O 65.1822 0.575966 -1.81899 0
M  V30 674 C 62.3222 0.592869 -3.39969 0
M  V30 675 C 61.4352 -0.30365 -4.30932 0
M  V30 676 C 60.5702 0.539049 -5.28458 0
M  V30 677 C 59.6092 -0.356942 -6.11058 0
M  V30 678 N 58.7462 0.446603 -7.00678 0
M  V30 679 H 63.5862 -1.05632 -2.7865 0
M  V30 680 H 61.1232 -0.532413 -1.37127 0
M  V30 681 H 63.0812 1.09129 -4.02675 0
M  V30 682 H 61.7112 1.37392 -2.92102 0
M  V30 683 H 60.7632 -0.920276 -3.691 0
M  V30 684 H 62.0752 -0.992661 -4.88823 0
M  V30 685 H 61.2292 1.102 -5.96608 0
M  V30 686 H 59.9682 1.26157 -4.71101 0
M  V30 687 H 58.9732 -0.932047 -5.41842 0
M  V30 688 H 60.1982 -1.07755 -6.70497 0
M  V30 689 H 58.1442 1.15282 -6.45791 0
M  V30 690 H 58.0612 -0.184048 -7.55776 0
M  V30 691 H 59.3292 0.992352 -7.73158 0
M  V30 692 N 63.5583 1.46682 -0.576371 0
M  V30 693 C 64.7833 2.07304 -0.0630475 0
M  V30 694 C 65.2083 1.42329 1.2298 0
M  V30 695 O 64.5663 0.504865 1.74129 0
M  V30 696 C 64.6143 3.60472 0.095895 0
M  V30 697 O 63.7183 3.95927 1.15394 0
M  V30 698 H 63.0593 0.661288 -0.0599463 0
M  V30 699 H 65.5893 1.88417 -0.797511 0
M  V30 700 H 65.5993 4.06865 0.304071 0
M  V30 701 H 64.2743 4.07157 -0.84828 0
M  V30 702 H 62.8513 3.61252 0.924724 0
M  V30 703 N 65.0364 0.313813 1.54444 0
M  V30 704 C 66.3134 -0.345447 1.92525 0
M  V30 705 C 66.6934 -1.70667 1.24242 0
M  V30 706 O 66.0414 -2.25273 0.382654 0
M  V30 707 C 66.2514 -0.44737 3.46121 0
M  V30 708 C 67.5994 -0.712238 4.18584 0
M  V30 709 O 68.6234 -0.530678 3.52225 0
M  V30 710 O 67.4824 -1.06183 5.36085 0
M  V30 711 H 64.5764 -0.195407 0.803583 0
M  V30 712 H 67.1224 0.362813 1.65776 0
M  V30 713 H 65.8944 0.509043 3.87975 0
M  V30 714 H 65.5174 -1.20359 3.78945 0
M  V30 715 N 66.5145 -1.57545 0.0417849 0
M  V30 716 C 67.7615 -1.92317 -0.634082 0
M  V30 717 C 68.0895 -0.919334 -1.71402 0
M  V30 718 O 67.3445 0.0698253 -1.95575 0
M  V30 719 C 67.6435 -3.33794 -1.27735 0
M  V30 720 C 67.3095 -4.49716 -0.326543 0
M  V30 721 C 65.9715 -4.81156 -0.0648814 0
M  V30 722 C 68.3235 -5.20182 0.325623 0
M  V30 723 C 65.6515 -5.80414 0.856539 0
M  V30 724 C 68.0035 -6.20424 1.23518 0
M  V30 725 C 66.6675 -6.50298 1.5056 0
M  V30 726 H 65.9375 -0.703736 -0.232027 0
M  V30 727 H 68.5845 -1.91205 0.106259 0
M  V30 728 H 66.8895 -3.31228 -2.09274 0
M  V30 729 H 68.5865 -3.57975 -1.80707 0
M  V30 730 H 65.1765 -4.25176 -0.540665 0
M  V30 731 H 69.3605 -4.96112 0.136546 0
M  V30 732 H 64.6165 -6.019 1.07363 0
M  V30 733 H 68.7905 -6.74141 1.74664 0
M  V30 734 H 66.4175 -7.27025 2.22123 0
M  V30 735 N 67.9926 0.231505 -1.5589 0
M  V30 736 C 69.2406 0.955461 -1.78088 0
M  V30 737 C 69.5616 1.85262 -0.608533 0
M  V30 738 O 68.8316 1.92277 0.375035 0
M  V30 739 H 67.4116 0.355787 -0.656829 0
M  V30 740 H 70.0736 0.245751 -1.93344 0
M  V30 741 H 69.1696 1.56814 -2.69844 0
M  V30 742 N 69.4707 1.49531 0.497807 0
M  V30 743 C 70.4177 1.66436 1.59899 0
M  V30 744 C 71.3877 0.505793 1.58212 0
M  V30 745 O 72.5727 0.733202 1.7615 0
M  V30 746 C 69.7127 1.7399 2.98029 0
M  V30 747 C 68.8257 3.01172 3.09708 0
M  V30 748 C 67.9607 2.99686 4.38591 0
M  V30 749 C 66.9997 4.21434 4.43914 0
M  V30 750 N 66.1367 4.1784 5.64229 0
M  V30 751 H 70.9767 2.60459 1.44793 0
M  V30 752 H 68.5137 1.29137 0.704423 0
M  V30 753 H 70.4717 1.76352 3.78095 0
M  V30 754 H 69.1017 0.834301 3.11832 0
M  V30 755 H 68.1537 3.08408 2.22685 0
M  V30 756 H 69.4657 3.91165 3.09502 0
M  V30 757 H 68.6197 3.00628 5.2698 0
M  V30 758 H 67.3587 2.07477 4.41367 0
M  V30 759 H 66.3637 4.20733 3.53926 0
M  V30 760 H 67.5887 5.14839 4.42851 0
M  V30 761 H 65.5347 3.28469 5.67841 0
M  V30 762 H 65.4517 5.01571 5.65652 0
M  V30 763 H 66.7197 4.22889 6.54817 0
M  V30 764 N 70.9488 -0.749086 1.3866 0
M  V30 765 C 72.1958 -1.50833 1.35114 0
M  V30 766 C 72.5238 -1.94415 -0.0574049 0
M  V30 767 O 71.7788 -1.66065 -1.03541 0
M  V30 768 C 72.0778 -2.7712 2.25697 0
M  V30 769 C 71.7438 -2.52477 3.73585 0
M  V30 770 C 70.4058 -2.45466 4.13884 0
M  V30 771 C 72.7578 -2.31066 4.67181 0
M  V30 772 C 70.0858 -2.15064 5.45861 0
M  V30 773 C 72.4378 -2.02183 5.9942 0
M  V30 774 C 71.1018 -1.93631 6.38798 0
M  V30 775 H 70.3718 -0.551936 0.494416 0
M  V30 776 H 73.0188 -0.860979 1.71054 0
M  V30 777 H 71.3238 -3.46528 1.82827 0
M  V30 778 H 73.0208 -3.35096 2.20254 0
M  V30 779 H 69.6108 -2.58807 3.41638 0
M  V30 780 H 73.7948 -2.35459 4.3689 0
M  V30 781 H 69.0508 -2.06954 5.75308 0
M  V30 782 H 73.2248 -1.8462 6.71482 0
M  V30 783 H 70.8518 -1.69839 7.40985 0
M  V30 784 N 72.4269 -1.23603 -0.977757 0
M  V30 785 C 73.6729 -1.07129 -1.72195 0
M  V30 786 C 74.0059 0.390501 -1.90233 0
M  V30 787 O 73.2809 1.28902 -1.45653 0
M  V30 788 C 73.5639 -1.80031 -3.11867 0
M  V30 789 C 73.4169 -3.33899 -3.01383 0
M  V30 790 C 74.7359 -1.56492 -4.11337 0
M  V30 791 H 71.8549 -0.390571 -0.624999 0
M  V30 792 H 74.4969 -1.52142 -1.13811 0
M  V30 793 H 72.6469 -1.41768 -3.6171 0
M  V30 794 H 74.3189 -3.81699 -2.59043 0
M  V30 795 H 72.5619 -3.62796 -2.37827 0
M  V30 796 H 73.2329 -3.801 -4.00285 0
M  V30 797 H 75.7089 -1.89757 -3.70313 0
M  V30 798 H 74.5849 -2.09973 -5.07151 0
M  V30 799 H 74.8459 -0.500874 -4.39254 0
M  V30 800 N 73.905 1.17692 -1.04816 0
M  V30 801 C 74.835 2.23777 -0.666791 0
M  V30 802 C 75.816 1.66796 0.33361 0
M  V30 803 O 77.001 1.93039 0.212042 0
M  V30 804 C 74.131 3.47281 -0.0367933 0
M  V30 805 C 73.085 4.17059 -0.961546 0
M  V30 806 C 72.411 5.34342 -0.195626 0
M  V30 807 C 73.711 4.69713 -2.28402 0
M  V30 808 H 75.405 2.55933 -1.55367 0
M  V30 809 H 72.951 1.23019 -0.748484 0
M  V30 810 H 74.904 4.20706 0.241775 0
M  V30 811 H 73.628 3.14381 0.885004 0
M  V30 812 H 72.287 3.45541 -1.22462 0
M  V30 813 H 71.935 4.97692 0.728816 0
M  V30 814 H 71.635 5.81966 -0.811775 0
M  V30 815 H 73.159 6.10553 0.0757473 0
M  V30 816 H 74.573 5.34794 -2.06563 0
M  V30 817 H 72.97 5.279 -2.8538 0
M  V30 818 H 74.04 3.86726 -2.92525 0
M  V30 819 N 75.3831 0.828654 1.34056 0
M  V30 820 C 76.6081 0.431637 2.02859 0
M  V30 821 C 77.0331 -0.956339 1.61975 0
M  V30 822 O 76.3911 -1.62338 0.807228 0
M  V30 823 C 76.4391 0.548323 3.56407 0
M  V30 824 O 75.5431 -0.429556 4.10157 0
M  V30 825 H 74.8841 0.176886 0.640006 0
M  V30 826 H 77.4141 1.12066 1.71179 0
M  V30 827 H 77.4241 0.426196 4.05768 0
M  V30 828 H 76.0991 1.5606 3.8551 0
M  V30 829 H 74.6761 -0.265836 3.71951 0
M  V30 830 N 76.8612 -1.46375 0.584142 0
M  V30 831 C 78.0862 -2.07268 0.0740405 0
M  V30 832 C 78.5112 -1.42979 -1.22223 0
M  V30 833 O 77.8692 -0.514092 -1.73859 0
M  V30 834 C 77.9172 -3.60518 -0.0767769 0
M  V30 835 O 77.0212 -3.96533 -1.13292 0
M  V30 836 H 76.3622 -0.660961 0.0634524 0
M  V30 837 H 78.8922 -1.87991 0.807492 0
M  V30 838 H 78.9022 -4.07021 -0.282489 0
M  V30 839 H 77.5772 -4.06702 0.86986 0
M  V30 840 H 76.1542 -3.61738 -0.905553 0
M  V30 841 N 78.3393 -0.321999 -1.54275 0
M  V30 842 C 79.5873 0.280489 -2.00144 0
M  V30 843 C 79.9083 1.52777 -1.21178 0
M  V30 844 O 79.1783 1.9338 -0.313187 0
M  V30 845 H 77.7583 0.106632 -0.73935 0
M  V30 846 H 80.4203 -0.438184 -1.8991 0
M  V30 847 H 79.5163 0.537972 -3.07428 0
M  V30 848 N 79.8174 1.5752 -0.0501392 0
M  V30 849 C 80.7644 2.1147 0.924603 0
M  V30 850 C 81.7344 1.02182 1.30951 0
M  V30 851 O 82.9194 1.29723 1.39916 0
M  V30 852 C 80.0594 2.66337 2.19451 0
M  V30 853 C 79.1724 3.89708 1.86418 0
M  V30 854 C 78.3074 4.32893 3.07859 0
M  V30 855 C 77.3464 5.48967 2.70742 0
M  V30 856 N 76.4834 5.87211 3.84874 0
M  V30 857 H 81.3234 2.94465 0.457639 0
M  V30 858 H 78.8604 1.45531 0.214266 0
M  V30 859 H 80.8184 2.96247 2.93758 0
M  V30 860 H 79.4484 1.86141 2.63726 0
M  V30 861 H 78.5004 3.66396 1.02264 0
M  V30 862 H 79.8124 4.74074 1.55096 0
M  V30 863 H 78.9664 4.6435 3.90466 0
M  V30 864 H 77.7054 3.47336 3.42358 0
M  V30 865 H 76.7104 5.17183 1.86551 0
M  V30 866 H 77.9354 6.3624 2.37436 0
M  V30 867 H 75.8814 5.04607 4.19175 0
M  V30 868 H 75.7984 6.66266 3.57247 0
M  V30 869 H 77.0664 6.23282 4.68123 0
M  V30 870 N 81.2955 -0.223234 1.56011 0
M  V30 871 C 82.5425 -0.947875 1.78946 0
M  V30 872 C 82.8705 -1.844 0.618608 0
M  V30 873 O 82.1255 -1.91629 -0.397093 0
M  V30 874 C 82.4245 -1.81948 3.0762 0
M  V30 875 C 82.0905 -1.07672 4.37856 0
M  V30 876 C 80.7525 -0.871544 4.73242 0
M  V30 877 C 83.1045 -0.552081 5.18268 0
M  V30 878 C 80.4325 -0.129791 5.86556 0
M  V30 879 C 82.7845 0.17632 6.32354 0
M  V30 880 C 81.4485 0.39277 6.66343 0
M  V30 881 H 80.7185 -0.346852 0.654809 0
M  V30 882 H 83.3655 -0.216171 1.90276 0
M  V30 883 H 81.6705 -2.61899 2.91404 0
M  V30 884 H 83.3675 -2.38227 3.22566 0
M  V30 885 H 79.9575 -1.24662 4.1007 0
M  V30 886 H 84.1415 -0.698076 4.91366 0
M  V30 887 H 79.3975 0.048153 6.11381 0
M  V30 888 H 83.5715 0.590367 6.93893 0
M  V30 889 H 81.1985 0.969466 7.53993 0
M  V30 890 N 82.7736 -1.49793 -0.48987 0
M  V30 891 C 84.0036 -1.6333 -1.26518 0
M  V30 892 C 84.4116 -0.308392 -1.8667 0
M  V30 893 O 83.7546 0.717512 -1.69108 0
M  V30 894 C 83.8166 -2.6522 -2.4269 0
M  V30 895 C 83.4806 -4.09279 -2.03321 0
M  V30 896 C 84.4776 -4.95738 -1.56652 0
M  V30 897 C 82.1626 -4.55082 -2.12616 0
M  V30 898 C 84.1566 -6.26041 -1.19795 0
M  V30 899 C 81.8436 -5.85396 -1.75371 0
M  V30 900 C 82.8416 -6.707 -1.29036 0
M  V30 901 O 82.5296 -7.98584 -0.92299 0
M  V30 902 H 82.2616 -0.552502 -0.389509 0
M  V30 903 H 84.8156 -1.96642 -0.593381 0
M  V30 904 H 83.0456 -2.27112 -3.12981 0
M  V30 905 H 84.7346 -2.68171 -3.04695 0
M  V30 906 H 85.5006 -4.61575 -1.48908 0
M  V30 907 H 81.3796 -3.88844 -2.47631 0
M  V30 908 H 84.9236 -6.92578 -0.835582 0
M  V30 909 H 80.8206 -6.19085 -1.82768 0
M  V30 910 H 81.5886 -8.11692 -1.05349 0
M  V30 911 N 84.2517 0.741722 -1.39055 0
M  V30 912 C 85.4997 1.49818 -1.35643 0
M  V30 913 C 85.8207 1.94938 0.0491642 0
M  V30 914 O 85.0907 1.68505 0.999141 0
M  V30 915 H 83.6707 0.555755 -0.499144 0
M  V30 916 H 86.3327 0.880957 -1.73854 0
M  V30 917 H 85.4287 2.38348 -2.01486 0
M  V30 918 N 85.7298 1.2412 0.971189 0
M  V30 919 C 87.0068 0.986867 1.6888 0
M  V30 920 C 87.3868 -0.491857 2.0529 0
M  V30 921 O 86.7348 -1.46531 1.75331 0
M  V30 922 C 86.9448 1.9063 2.92338 0
M  V30 923 C 88.2928 2.17515 3.64654 0
M  V30 924 O 89.3168 1.88254 3.02388 0
M  V30 925 O 88.1758 2.6719 4.7673 0
M  V30 926 H 85.2698 0.372944 0.738134 0
M  V30 927 H 87.8158 1.35203 1.02559 0
M  V30 928 H 86.5878 2.90552 2.62097 0
M  V30 929 H 86.2108 1.54408 3.66393 0
M  V30 930 N 87.2079 -1.17134 1.05439 0
M  V30 931 C 88.1179 -2.24878 0.668365 0
M  V30 932 C 89.1339 -1.71186 -0.311687 0
M  V30 933 O 90.3099 -2.00738 -0.163161 0
M  V30 934 C 87.3749 -3.46662 0.051648 0
M  V30 935 C 86.4359 -4.15429 1.08246 0
M  V30 936 C 85.6689 -5.31399 0.495082 0
M  V30 937 O 85.8919 -5.66153 -0.694743 0
M  V30 938 O 84.8259 -5.89187 1.23056 0
M  V30 939 H 88.6519 -2.60189 1.56637 0
M  V30 940 H 86.2369 -1.24482 0.826104 0
M  V30 941 H 88.1189 -4.20394 -0.290966 0
M  V30 942 H 86.7939 -3.13142 -0.819971 0
M  V30 943 H 85.7009 -3.43704 1.47711 0
M  V30 944 H 87.0339 -4.52982 1.92532 0
M  V30 945 N 88.686 -0.835752 -1.33615 0
M  V30 946 C 89.596 -0.269088 -2.33052 0
M  V30 947 C 90.612 0.603251 -1.63208 0
M  V30 948 O 91.788 0.508112 -1.94885 0
M  V30 949 C 88.853 0.549091 -3.42324 0
M  V30 950 C 87.914 -0.347156 -4.27894 0
M  V30 951 C 87.147 0.43207 -5.31948 0
M  V30 952 O 87.37 1.66409 -5.45586 0
M  V30 953 O 86.304 -0.192298 -6.01593 0
M  V30 954 H 90.13 -1.09243 -2.83372 0
M  V30 955 H 87.715 -0.598198 -1.36901 0
M  V30 956 H 89.597 1.01414 -4.09015 0
M  V30 957 H 88.272 1.34955 -2.94226 0
M  V30 958 H 87.179 -0.859979 -3.64081 0
M  V30 959 H 88.512 -1.1123 -4.79467 0
M  V30 960 N 90.1641 1.46063 -0.591896 0
M  V30 961 C 91.1111 2.30399 0.136069 0
M  V30 962 C 92.0811 1.41169 0.875238 0
M  V30 963 O 93.2661 1.70112 0.86409 0
M  V30 964 C 90.4061 3.25804 1.13781 0
M  V30 965 C 89.5191 4.30134 0.401137 0
M  V30 966 C 88.6541 5.12659 1.39121 0
M  V30 967 C 87.6931 6.0873 0.641462 0
M  V30 968 N 86.8301 6.8409 1.58004 0
M  V30 969 H 91.6701 2.92118 -0.589144 0
M  V30 970 H 89.2071 1.43959 -0.302342 0
M  V30 971 H 91.1651 3.79569 1.73156 0
M  V30 972 H 89.7951 2.65872 1.83062 0
M  V30 973 H 88.8471 3.79152 -0.307826 0
M  V30 974 H 90.1591 4.98458 -0.184565 0
M  V30 975 H 89.3131 5.70747 2.05749 0
M  V30 976 H 88.0521 4.44316 2.01084 0
M  V30 977 H 87.0571 5.49786 -0.0385419 0
M  V30 978 H 88.2821 6.79095 0.0270945 0
M  V30 979 H 86.2281 6.18449 2.18761 0
M  V30 980 H 86.1451 7.48709 1.04738 0
M  V30 981 H 87.4131 7.4673 2.23639 0
M  V30 982 N 91.6422 0.330177 1.54103 0
M  V30 983 C 92.9192 -0.325007 1.92881 0
M  V30 984 C 93.2992 -1.6934 1.26045 0
M  V30 985 O 92.6472 -2.24855 0.406526 0
M  V30 986 C 92.8572 -0.410634 3.46576 0
M  V30 987 C 94.2052 -0.667801 4.19316 0
M  V30 988 O 95.2292 -0.49329 3.52768 0
M  V30 989 O 94.0882 -1.00491 5.37181 0
M  V30 990 H 91.1822 -0.186873 0.80561 0
M  V30 991 H 93.7282 0.380376 1.65382 0
M  V30 992 H 92.5002 0.550164 3.87413 0
M  V30 993 H 92.1232 -1.16333 3.802 0
M  V30 994 N 93.1203 -1.57491 0.0584922 0
M  V30 995 C 94.0673 -2.11958 -0.913376 0
M  V30 996 C 95.0373 -1.02875 -1.30407 0
M  V30 997 O 96.2223 -1.30464 -1.39226 0
M  V30 998 C 93.3623 -2.67497 -2.18035 0
M  V30 999 C 92.4753 -3.90691 -1.84349 0
M  V30 1000 C 91.6103 -4.3452 -3.05559 0
M  V30 1001 C 90.6493 -5.50395 -2.67827 0
M  V30 1002 N 89.7863 -5.89244 -3.81754 0
M  V30 1003 H 94.6263 -2.94704 -0.442017 0
M  V30 1004 H 92.1633 -1.45643 -0.206545 0
M  V30 1005 H 94.1213 -2.978 -2.92183 0
M  V30 1006 H 92.7513 -1.87537 -2.62735 0
M  V30 1007 H 91.8033 -3.66934 -1.00319 0
M  V30 1008 H 93.1153 -4.7489 -1.5258 0
M  V30 1009 H 92.2693 -4.66414 -3.87998 0
M  V30 1010 H 91.0083 -3.49147 -3.40511 0
M  V30 1011 H 90.0133 -5.18165 -1.83806 0
M  V30 1012 H 91.2383 -6.3749 -2.34059 0
M  V30 1013 H 89.1843 -5.06823 -4.16493 0
M  V30 1014 H 89.1013 -6.68151 -3.53708 0
M  V30 1015 H 90.3693 -6.25756 -4.64811 0
M  V30 1016 N 94.5984 0.214957 -1.56127 0
M  V30 1017 C 95.8464 0.936518 -1.79091 0
M  V30 1018 C 96.1674 1.84606 -0.628148 0
M  V30 1019 O 95.4374 1.92664 0.35462 0
M  V30 1020 H 94.0174 0.3488 -0.660566 0
M  V30 1021 H 96.6794 0.22523 -1.93594 0
M  V30 1022 H 95.7754 1.53943 -2.71492 0
M  V30 1023 N 96.0765 1.50051 0.48192 0
M  V30 1024 C 97.0065 1.71046 1.58951 0
M  V30 1025 C 97.9875 0.559288 1.60642 0
M  V30 1026 O 99.1725 0.797243 1.77081 0
M  V30 1027 C 96.3025 1.79462 2.97339 0
M  V30 1028 C 95.2565 2.94558 3.10515 0
M  V30 1029 C 94.5825 2.88105 4.50444 0
M  V30 1030 C 95.8825 4.35227 2.88747 0
M  V30 1031 H 97.5765 2.6378 1.41635 0
M  V30 1032 H 95.1225 1.26936 0.679942 0
M  V30 1033 H 97.0755 1.92734 3.74742 0
M  V30 1034 H 95.7995 0.833412 3.15788 0
M  V30 1035 H 94.4585 2.80918 2.35543 0
M  V30 1036 H 94.1065 1.89853 4.65795 0
M  V30 1037 H 93.8065 3.65366 4.60197 0
M  V30 1038 H 95.3305 3.03412 5.29881 0
M  V30 1039 H 96.7445 4.49449 3.55905 0
M  V30 1040 H 95.1415 5.13856 3.09955 0
M  V30 1041 H 96.2115 4.48347 1.84696 0
M  V30 1042 N 97.5546 -0.734337 1.39446 0
M  V30 1043 C 98.4866 -1.85861 1.34121 0
M  V30 1044 C 99.4996 -1.60871 0.249864 0
M  V30 1045 O 100.689 -1.71093 0.508865 0
M  V30 1046 C 97.7886 -3.21899 1.05991 0
M  V30 1047 C 96.9616 -3.74239 2.26415 0
M  V30 1048 C 96.0206 -4.88841 1.94733 0
M  V30 1049 O 95.0466 -5.02468 2.67422 0
M  V30 1050 N 96.2486 -5.73261 0.913884 0
M  V30 1051 H 99.0136 -1.90934 2.31007 0
M  V30 1052 H 96.5746 -0.915102 1.33557 0
M  V30 1053 H 98.5666 -3.96136 0.828147 0
M  V30 1054 H 97.1366 -3.12091 0.178361 0
M  V30 1055 H 96.3566 -2.91347 2.65539 0
M  V30 1056 H 97.6446 -4.05942 3.06738 0
M  V30 1057 H 97.0426 -5.64842 0.311476 0
M  V30 1058 H 95.5996 -6.47563 0.742015 0
M  V30 1059 N 99.0327 -1.24633 -0.964593 0
M  V30 1060 C 100.261 -1.11501 -1.74285 0
M  V30 1061 C 100.676 0.332165 -1.85855 0
M  V30 1062 O 100.033 1.22903 -1.34911 0
M  V30 1063 C 100.084 -1.75258 -3.16175 0
M  V30 1064 O 99.8047 -3.14318 -3.05182 0
M  V30 1065 C 101.306 -1.67776 -4.10324 0
M  V30 1066 H 98.5257 -0.389407 -0.546446 0
M  V30 1067 H 101.07 -1.64801 -1.21083 0
M  V30 1068 H 99.2247 -1.25954 -3.66353 0
M  V30 1069 H 99.6387 -3.4551 -3.94618 0
M  V30 1070 H 101.113 -2.17064 -5.0753 0
M  V30 1071 H 101.59 -0.639584 -4.34518 0
M  V30 1072 H 102.196 -2.16522 -3.66058 0
M  V30 1073 N 100.511 1.16574 -1.06058 0
M  V30 1074 C 101.736 1.91493 -0.796562 0
M  V30 1075 C 102.161 1.76773 0.642868 0
M  V30 1076 O 101.519 1.09142 1.44768 0
M  V30 1077 C 101.567 3.40293 -1.19303 0
M  V30 1078 O 100.671 4.11074 -0.330394 0
M  V30 1079 H 100.012 0.596678 -0.291326 0
M  V30 1080 H 102.542 1.47708 -1.41575 0
M  V30 1081 H 102.552 3.91057 -1.16356 0
M  V30 1082 H 101.227 3.50326 -2.24153 0
M  V30 1083 H 99.8038 3.70513 -0.421225 0
M  V30 1084 N 101.989 0.842826 1.3317 0
M  V30 1085 C 102.921 0.236245 2.27979 0
M  V30 1086 C 103.934 -0.585282 1.51915 0
M  V30 1087 O 105.123 -0.411705 1.73687 0
M  V30 1088 C 102.223 -0.685717 3.3189 0
M  V30 1089 C 101.396 0.0973448 4.37292 0
M  V30 1090 C 100.455 -0.748565 5.20848 0
M  V30 1091 O 99.4809 -0.186339 5.68895 0
M  V30 1092 N 100.683 -2.06527 5.42519 0
M  V30 1093 H 103.448 1.05088 2.80672 0
M  V30 1094 H 101.009 0.701667 1.45905 0
M  V30 1095 H 103.001 -1.25669 3.84694 0
M  V30 1096 H 101.571 -1.40105 2.79445 0
M  V30 1097 H 100.791 0.849706 3.84933 0
M  V30 1098 H 102.079 0.635643 5.04814 0
M  V30 1099 H 101.477 -2.54554 5.05192 0
M  V30 1100 H 100.034 -2.58464 5.98364 0
M  V30 1101 N 103.467 -1.45747 0.599634 0
M  V30 1102 C 104.744 -1.95585 0.0240846 0
M  V30 1103 C 105.124 -1.54217 -1.44154 0
M  V30 1104 O 104.472 -0.800903 -2.14004 0
M  V30 1105 C 104.682 -3.48344 0.21385 0
M  V30 1106 C 106.03 -4.24504 0.0904902 0
M  V30 1107 O 107.054 -3.55911 0.143558 0
M  V30 1108 O 105.913 -5.46491 -0.0310766 0
M  V30 1109 H 103.007 -0.82602 -0.0402478 0
M  V30 1110 H 105.553 -1.55951 0.669139 0
M  V30 1111 H 104.325 -3.71397 1.23206 0
M  V30 1112 H 103.948 -3.9485 -0.466842 0
M  V30 1113 N 104.945 -0.338344 -1.53925 0
M  V30 1114 C 105.908 0.508299 -2.23493 0
M  V30 1115 C 106.908 1.03175 -1.23335 0
M  V30 1116 O 108.098 0.921826 -1.47811 0
M  V30 1117 C 105.23 1.70754 -2.95052 0
M  V30 1118 H 106.423 -0.100058 -2.99733 0
M  V30 1119 H 103.976 -0.0896198 -1.56043 0
M  V30 1120 H 104.711 2.35474 -2.22986 0
M  V30 1121 H 104.496 1.33946 -3.68512 0
M  V30 1122 H 105.986 2.30818 -3.48013 0
M  V30 1123 N 106.423 1.57458 -0.0668435 0
M  V30 1124 C 107.839 1.56947 0.289772 0
M  V30 1125 C 108.039 1.07584 1.70376 0
M  V30 1126 O 107.095 0.739486 2.41429 0
M  V30 1127 C 108.408 3.0052 0.103943 0
M  V30 1128 C 109.956 3.12517 0.173857 0
M  V30 1129 C 110.431 4.57997 0.0163682 0
M  V30 1130 N 111.922 4.63144 0.0721352 0
M  V30 1131 C 112.657 5.73394 -0.0253794 0
M  V30 1132 N 112.153 6.92576 -0.176133 0
M  V30 1133 N 113.946 5.62091 0.0313305 0
M  V30 1134 H 106.097 1.87863 -0.991027 0
M  V30 1135 H 108.36 0.86583 -0.38606 0
M  V30 1136 H 108.066 3.40729 -0.871572 0
M  V30 1137 H 107.94 3.67304 0.858366 0
M  V30 1138 H 110.327 2.72197 1.13985 0
M  V30 1139 H 110.408 2.48381 -0.611586 0
M  V30 1140 H 110.052 4.99005 -0.946374 0
M  V30 1141 H 109.982 5.20158 0.821153 0
M  V30 1142 H 112.473 3.77436 0.187263 0
M  V30 1143 H 112.786 7.72418 -0.242821 0
M  V30 1144 H 111.131 6.94678 -0.211429 0
M  V30 1145 H 114.322 4.67867 0.147773 0
M  V30 1146 H 114.495 6.47982 -0.048121 0
M  V30 1147 N 107.901 -0.206675 1.56239 0
M  V30 1148 C 109.148 -0.928842 1.79941 0
M  V30 1149 C 109.476 -1.83734 0.638131 0
M  V30 1150 O 108.731 -1.92039 -0.376746 0
M  V30 1151 C 109.03 -1.78675 3.09532 0
M  V30 1152 C 108.696 -1.03022 4.38973 0
M  V30 1153 C 107.358 -0.821302 4.74139 0
M  V30 1154 C 109.71 -0.497081 5.18824 0
M  V30 1155 C 107.038 -0.0675719 5.86661 0
M  V30 1156 C 109.39 0.24338 6.32132 0
M  V30 1157 C 108.054 0.463422 6.65889 0
M  V30 1158 H 107.324 -0.339887 0.658451 0
M  V30 1159 H 109.971 -0.195977 1.90495 0
M  V30 1160 H 108.276 -2.58794 2.94165 0
M  V30 1161 H 109.973 -2.34792 3.25075 0
M  V30 1162 H 106.563 -1.20306 4.11369 0
M  V30 1163 H 110.747 -0.645921 4.92079 0
M  V30 1164 H 106.003 0.112995 6.11296 0
M  V30 1165 H 110.177 0.66393 6.93228 0
M  V30 1166 H 107.804 1.04938 7.52922 0
M  V30 1167 N 109.379 -1.50304 -0.473955 0
M  V30 1168 C 110.609 -1.64663 -1.24778 0
M  V30 1169 C 111.017 -0.328174 -1.86332 0
M  V30 1170 O 110.36 0.699536 -1.69859 0
M  V30 1171 C 110.422 -2.6778 -2.39863 0
M  V30 1172 C 110.086 -4.11413 -1.98969 0
M  V30 1173 C 111.083 -4.97372 -1.51385 0
M  V30 1174 C 108.768 -4.57312 -2.07777 0
M  V30 1175 C 110.762 -6.27277 -1.13148 0
M  V30 1176 C 108.449 -5.87223 -1.69152 0
M  V30 1177 C 109.447 -6.72031 -1.21915 0
M  V30 1178 O 109.135 -7.99518 -0.838237 0
M  V30 1179 H 108.867 -0.556602 -0.383627 0
M  V30 1180 H 111.421 -1.9726 -0.572491 0
M  V30 1181 H 109.651 -2.30419 -3.10554 0
M  V30 1182 H 111.34 -2.71388 -3.01833 0
M  V30 1183 H 112.106 -4.63128 -1.44004 0
M  V30 1184 H 107.985 -3.91449 -2.43493 0
M  V30 1185 H 111.529 -6.93425 -0.762077 0
M  V30 1186 H 107.426 -6.20989 -1.76191 0
M  V30 1187 H 108.194 -8.12764 -0.967339 0
M  V30 1188 N 110.857 0.726932 -1.39834 0
M  V30 1189 C 111.82 1.82269 -1.38962 0
M  V30 1190 C 112.82 1.58248 -0.285334 0
M  V30 1191 O 114.01 1.65499 -0.54366 0
M  V30 1192 C 111.142 3.20186 -1.17019 0
M  V30 1193 H 112.335 1.84443 -2.36476 0
M  V30 1194 H 109.888 0.931416 -1.25516 0
M  V30 1195 H 110.623 3.23669 -0.202204 0
M  V30 1196 H 110.408 3.3902 -1.96998 0
M  V30 1197 H 111.898 4.00235 -1.1917 0
M  V30 1198 N 112.336 1.25143 0.95797 0
M  V30 1199 C 113.266 1.07711 2.07173 0
M  V30 1200 C 114.247 -0.0128462 1.70095 0
M  V30 1201 O 115.432 0.156061 1.93572 0
M  V30 1202 C 112.562 0.691503 3.40346 0
M  V30 1203 C 111.516 1.73132 3.9142 0
M  V30 1204 C 110.842 1.20049 5.21049 0
M  V30 1205 C 112.142 3.1294 4.1817 0
M  V30 1206 H 113.836 2.00873 2.22014 0
M  V30 1207 H 111.382 0.967191 1.06684 0
M  V30 1208 H 113.335 0.556505 4.17709 0
M  V30 1209 H 112.059 -0.275819 3.25433 0
M  V30 1210 H 110.718 1.8547 3.16222 0
M  V30 1211 H 110.366 0.223499 5.02503 0
M  V30 1212 H 110.066 1.89545 5.56189 0
M  V30 1213 H 111.59 1.07782 6.01012 0
M  V30 1214 H 113.004 3.03775 4.86203 0
M  V30 1215 H 111.401 3.79875 4.64559 0
M  V30 1216 H 112.471 3.6025 3.24573 0
M  V30 1217 N 113.814 -1.1601 1.06675 0
M  V30 1218 C 115.039 -1.91068 0.806706 0
M  V30 1219 C 115.464 -1.77112 -0.633485 0
M  V30 1220 O 114.822 -1.09908 -1.44187 0
M  V30 1221 C 114.87 -3.39655 1.21106 0
M  V30 1222 O 113.974 -4.10893 0.352189 0
M  V30 1223 H 113.315 -0.595125 0.294486 0
M  V30 1224 H 115.845 -1.46955 1.42356 0
M  V30 1225 H 115.855 -3.90434 1.18428 0
M  V30 1226 H 114.53 -3.49132 2.26008 0
M  V30 1227 H 113.107 -3.70285 0.440868 0
M  V30 1228 N 115.292 -0.849877 -1.32721 0
M  V30 1229 C 116.255 -0.296122 -2.27279 0
M  V30 1230 C 117.255 0.541458 -1.5141 0
M  V30 1231 O 118.445 0.353658 -1.70572 0
M  V30 1232 C 115.577 0.581579 -3.35902 0
M  V30 1233 H 116.77 -1.13064 -2.77771 0
M  V30 1234 H 114.323 -0.62383 -1.43311 0
M  V30 1235 H 115.058 1.43809 -2.9067 0
M  V30 1236 H 114.843 -0.0178814 -3.92096 0
M  V30 1237 H 116.333 0.961951 -4.0637 0
M  V30 1238 N 116.77 1.45427 -0.607355 0
M  V30 1239 C 117.995 2.07124 -0.107006 0
M  V30 1240 C 118.42 1.44906 1.19933 0
M  V30 1241 O 117.778 0.541687 1.73019 0
M  V30 1242 C 117.826 3.60595 0.0194119 0
M  V30 1243 O 116.93 3.98285 1.0697 0
M  V30 1244 H 116.271 0.659868 -0.0739597 0
M  V30 1245 H 118.801 1.86683 -0.837297 0
M  V30 1246 H 118.811 4.07419 0.2177 0
M  V30 1247 H 117.486 4.05266 -0.934453 0
M  V30 1248 H 116.063 3.63133 0.847889 0
M  V30 1249 N 118.248 0.346503 1.53744 0
M  V30 1250 C 119.495 -0.249104 2.00962 0
M  V30 1251 C 119.823 -1.5032 1.23426 0
M  V30 1252 O 119.078 -1.93217 0.310761 0
M  V30 1253 C 119.377 -0.605809 3.52228 0
M  V30 1254 C 119.043 0.551747 4.47512 0
M  V30 1255 C 117.705 0.86941 4.73281 0
M  V30 1256 C 120.057 1.32818 5.03993 0
M  V30 1257 C 117.385 1.96582 5.52786 0
M  V30 1258 C 119.737 2.41486 5.84694 0
M  V30 1259 C 118.401 2.73808 6.08757 0
M  V30 1260 H 117.671 -0.0911538 0.735372 0
M  V30 1261 H 120.318 0.475027 1.85515 0
M  V30 1262 H 118.623 -1.4107 3.65522 0
M  V30 1263 H 120.32 -1.07858 3.86222 0
M  V30 1264 H 116.91 0.294102 4.2759 0
M  V30 1265 H 121.094 1.09602 4.84047 0
M  V30 1266 H 116.35 2.22045 5.69654 0
M  V30 1267 H 120.524 3.02078 6.27473 0
M  V30 1268 H 118.151 3.58892 6.7015 0
M  V30 1269 N 119.726 -1.57421 0.075193 0
M  V30 1270 C 120.636 -2.1642 -0.905511 0
M  V30 1271 C 121.652 -1.12828 -1.32461 0
M  V30 1272 O 122.828 -1.45109 -1.39661 0
M  V30 1273 C 119.893 -2.71693 -2.15369 0
M  V30 1274 C 118.954 -3.90171 -1.79068 0
M  V30 1275 C 118.187 -4.42798 -2.97936 0
M  V30 1276 O 118.41 -3.94416 -4.12058 0
M  V30 1277 O 117.344 -5.34085 -2.77555 0
M  V30 1278 H 121.17 -3.00588 -0.433626 0
M  V30 1279 H 118.755 -1.48664 -0.148067 0
M  V30 1280 H 120.637 -3.07104 -2.88557 0
M  V30 1281 H 119.312 -1.90582 -2.61649 0
M  V30 1282 H 118.219 -3.59606 -1.03122 0
M  V30 1283 H 119.552 -4.72584 -1.37569 0
M  V30 1284 N 121.204 0.198386 -1.56346 0
M  V30 1285 C 122.615 0.763358 -1.70381 0
M  V30 1286 C 122.966 1.83995 -0.681203 0
M  V30 1287 O 122.091 2.15785 0.16305 0
M  V30 1288 C 122.686 1.39143 -3.08909 0
M  V30 1289 C 121.245 1.90352 -3.2472 0
M  V30 1290 C 120.392 0.772233 -2.6633 0
M  V30 1291 H 123.343 -0.0266377 -1.58678 0
M  V30 1292 H 123.364 2.26076 -3.06055 0
M  V30 1293 H 122.876 0.607638 -3.83314 0
M  V30 1294 H 120.977 2.71461 -2.55225 0
M  V30 1295 H 121.09 2.06757 -4.3219 0
M  V30 1296 H 119.454 1.18566 -2.2542 0
M  V30 1297 H 120.237 0.00073556 -3.433 0
M  V30 1298 N 122.682 1.50554 0.465978 0
M  V30 1299 C 123.929 1.61798 1.21768 0
M  V30 1300 C 124.257 0.320696 1.91838 0
M  V30 1301 O 123.512 -0.693724 1.82992 0
M  V30 1302 C 123.811 2.75152 2.28093 0
M  V30 1303 C 123.477 4.15454 1.75239 0
M  V30 1304 C 122.139 4.53628 1.60546 0
M  V30 1305 C 124.491 5.03121 1.36083 0
M  V30 1306 C 121.819 5.77204 1.05128 0
M  V30 1307 C 124.171 6.27249 0.821056 0
M  V30 1308 C 122.835 6.64221 0.660795 0
M  V30 1309 H 122.105 0.592063 0.445582 0
M  V30 1310 H 124.752 1.84503 0.512927 0
M  V30 1311 H 123.057 2.46556 3.04496 0
M  V30 1312 H 124.754 2.81055 2.86023 0
M  V30 1313 H 121.344 3.85341 1.87644 0
M  V30 1314 H 125.528 4.74257 1.46267 0
M  V30 1315 H 120.784 6.0452 0.91462 0
M  V30 1316 H 124.958 6.94537 0.509018 0
M  V30 1317 H 122.585 7.59854 0.229226 0
M  V30 1318 N 124.16 -0.719506 1.40217 0
M  V30 1319 C 125.385 -1.51371 1.4178 0
M  V30 1320 C 125.81 -1.88091 0.0182355 0
M  V30 1321 O 125.168 -1.52997 -0.972707 0
M  V30 1322 C 125.216 -2.768 2.31115 0
M  V30 1323 O 124.32 -3.73349 1.7517 0
M  V30 1324 H 123.661 -0.456529 0.482159 0
M  V30 1325 H 126.191 -0.88644 1.844 0
M  V30 1326 H 126.201 -3.25371 2.46167 0
M  V30 1327 H 124.876 -2.49407 3.3282 0
M  V30 1328 H 123.453 -3.32179 1.69444 0
M  V30 1329 N 125.638 -1.25649 -0.95132 0
M  V30 1330 C 126.586 -1.06118 -2.06982 0
M  V30 1331 C 127.58 0.00889169 -1.69398 0
M  V30 1332 O 128.786 -0.146988 -1.79399 0
M  V30 1333 H 125.161 -0.326248 -0.677544 0
M  V30 1334 H 127.132 -2.00932 -2.2061 0
M  V30 1335 C 125.881 -0.700145 -3.40578 0
M  V30 1336 H 125.204 -1.51537 -3.69968 0
M  V30 1337 H 126.644 -0.603211 -4.19687 0
M  V30 1338 C 125.103 0.59403 -3.31622 0
M  V30 1339 O 125.633 1.63522 -3.66911 0
M  V30 1340 N 123.839 0.58089 -2.84735 0
M  V30 1341 H 123.386 -0.266783 -2.56215 0
M  V30 1342 H 123.344 1.44695 -2.79125 0
M  V30 1343 N 127.117 1.15442 -1.07289 0
M  V30 1344 C 128.064 2.20161 -0.692653 0
M  V30 1345 C 129.034 1.63073 0.31564 0
M  V30 1346 O 130.219 1.89725 0.202235 0
M  V30 1347 C 127.359 3.44967 -0.0959509 0
M  V30 1348 C 126.472 4.16256 -1.15564 0
M  V30 1349 C 125.607 5.28609 -0.524011 0
M  V30 1350 C 124.646 5.91715 -1.56653 0
M  V30 1351 N 123.783 6.9554 -0.957531 0
M  V30 1352 H 128.623 2.52037 -1.59002 0
M  V30 1353 H 126.16 1.2378 -0.794798 0
M  V30 1354 H 128.118 4.16341 0.267628 0
M  V30 1355 H 126.748 3.1361 0.764772 0
M  V30 1356 H 125.8 3.43385 -1.6368 0
M  V30 1357 H 127.112 4.59268 -1.94613 0
M  V30 1358 H 126.266 6.06604 -0.108032 0
M  V30 1359 H 125.005 4.86787 0.29825 0
M  V30 1360 H 124.01 5.12433 -1.9923 0
M  V30 1361 H 125.235 6.35614 -2.39107 0
M  V30 1362 H 123.181 6.55814 -0.156162 0
M  V30 1363 H 123.098 7.36977 -1.68526 0
M  V30 1364 H 124.366 7.77435 -0.567032 0
M  V30 1365 N 128.595 0.856903 1.32268 0
M  V30 1366 C 129.843 0.460474 1.96784 0
M  V30 1367 C 130.164 -0.987701 1.68135 0
M  V30 1368 O 129.434 -1.69058 0.989765 0
M  V30 1369 H 128.014 0.167289 0.728027 0
M  V30 1370 H 130.676 1.09383 1.61312 0
M  V30 1371 H 129.772 0.60739 3.06133 0
M  V30 1372 N 130.073 -1.45103 0.615059 0
M  V30 1373 C 131.005 -2.28786 -0.13762 0
M  V30 1374 C 132.018 -1.40376 -0.824525 0
M  V30 1375 O 133.207 -1.64681 -0.688662 0
M  V30 1376 C 130.307 -3.16322 -1.21628 0
M  V30 1377 C 129.48 -4.33054 -0.615039 0
M  V30 1378 C 128.539 -5.01743 -1.58556 0
M  V30 1379 O 127.565 -5.58293 -1.10895 0
M  V30 1380 N 128.767 -5.01714 -2.91998 0
M  V30 1381 H 131.532 -2.94025 0.580483 0
M  V30 1382 H 129.093 -1.55373 0.45507 0
M  V30 1383 H 131.085 -3.59139 -1.86552 0
M  V30 1384 H 129.655 -2.52943 -1.83681 0
M  V30 1385 H 128.875 -3.93627 0.21245 0
M  V30 1386 H 130.163 -5.08431 -0.193704 0
M  V30 1387 H 129.561 -4.57075 -3.33316 0
M  V30 1388 H 128.118 -5.48371 -3.52325 0
M  V30 1389 N 131.551 -0.354651 -1.53558 0
M  V30 1390 C 132.779 0.239515 -2.05509 0
M  V30 1391 C 133.194 1.4333 -1.2289 0
M  V30 1392 O 132.551 1.80538 -0.266899 0
M  V30 1393 C 132.602 0.643719 -3.55723 0
M  V30 1394 O 132.323 -0.502602 -4.35207 0
M  V30 1395 C 133.824 1.29743 -4.23889 0
M  V30 1396 H 131.044 0.0442697 -0.669538 0
M  V30 1397 H 133.588 -0.509856 -1.98042 0
M  V30 1398 H 131.743 1.34302 -3.63376 0
M  V30 1399 H 132.157 -0.178172 -5.24197 0
M  V30 1400 H 133.631 1.53091 -5.30346 0
M  V30 1401 H 134.108 2.25441 -3.76926 0
M  V30 1402 H 134.714 0.639865 -4.20459 0
M  V30 1403 N 133.029 1.57378 -0.0835403 0
M  V30 1404 C 133.959 2.1641 0.87686 0
M  V30 1405 C 134.94 1.09429 1.30228 0
M  V30 1406 O 136.125 1.37516 1.37124 0
M  V30 1407 C 133.255 2.73517 2.14022 0
M  V30 1408 C 132.209 3.85769 1.85381 0
M  V30 1409 C 131.535 4.29529 3.18448 0
M  V30 1410 C 132.835 5.09486 1.14984 0
M  V30 1411 H 134.529 2.96914 0.385059 0
M  V30 1412 H 132.075 1.42823 0.18377 0
M  V30 1413 H 134.028 3.13463 2.81636 0
M  V30 1414 H 132.752 1.90252 2.65465 0
M  V30 1415 H 131.411 3.46345 1.20169 0
M  V30 1416 H 131.059 3.43169 3.67755 0
M  V30 1417 H 130.759 5.05204 3.00071 0
M  V30 1418 H 132.283 4.72099 3.8724 0
M  V30 1419 H 133.697 5.46674 1.72687 0
M  V30 1420 H 132.094 5.90515 1.06826 0
M  V30 1421 H 133.164 4.84724 0.130749 0
M  V30 1422 N 134.507 -0.190092 1.56449 0
M  V30 1423 C 135.753 -0.911052 1.81184 0
M  V30 1424 C 136.086 -1.82699 0.658396 0
M  V30 1425 O 135.361 -1.91491 -0.340775 0
M  V30 1426 C 135.644 -1.72297 3.16205 0
M  V30 1427 C 135.497 -0.831419 4.42049 0
M  V30 1428 C 136.816 -2.69454 3.47969 0
M  V30 1429 H 133.935 -0.32977 0.659106 0
M  V30 1430 H 136.577 -0.178169 1.89163 0
M  V30 1431 H 134.727 -2.34778 3.09534 0
M  V30 1432 H 136.399 -0.220929 4.60771 0
M  V30 1433 H 134.642 -0.138406 4.33579 0
M  V30 1434 H 135.313 -1.43461 5.33032 0
M  V30 1435 H 137.789 -2.17104 3.54972 0
M  V30 1436 H 136.665 -3.23342 4.43555 0
M  V30 1437 H 136.926 -3.48744 2.71717 0
M  V30 1438 N 135.985 -1.50799 -0.457987 0
M  V30 1439 C 137.231 -1.62683 -1.21088 0
M  V30 1440 C 137.564 -0.332268 -1.91336 0
M  V30 1441 O 136.839 0.667043 -1.82704 0
M  V30 1442 C 137.122 -2.81615 -2.24422 0
M  V30 1443 C 136.975 -4.20989 -1.58392 0
M  V30 1444 C 138.294 -2.96085 -3.2561 0
M  V30 1445 H 135.413 -0.592087 -0.438864 0
M  V30 1446 H 138.055 -1.83225 -0.50286 0
M  V30 1447 H 136.205 -2.64231 -2.84806 0
M  V30 1448 H 137.877 -4.49994 -1.01504 0
M  V30 1449 H 136.12 -4.24641 -0.886704 0
M  V30 1450 H 136.791 -5.0016 -2.33547 0
M  V30 1451 H 139.267 -3.12042 -2.75262 0
M  V30 1452 H 138.143 -3.80902 -3.95228 0
M  V30 1453 H 138.404 -2.0726 -3.90507 0
M  V30 1454 N 137.463 0.71206 -1.40597 0
M  V30 1455 C 138.395 1.83704 -1.37061 0
M  V30 1456 C 139.408 1.60453 -0.275426 0
M  V30 1457 O 140.597 1.70262 -0.53602 0
M  V30 1458 C 137.697 3.20172 -1.11099 0
M  V30 1459 C 136.87 3.7059 -2.3234 0
M  V30 1460 C 135.929 4.85681 -2.02485 0
M  V30 1461 O 134.955 4.9815 -2.75382 0
M  V30 1462 N 136.157 5.71735 -1.00497 0
M  V30 1463 H 138.922 1.87235 -2.34016 0
M  V30 1464 H 136.483 0.893739 -1.34996 0
M  V30 1465 H 138.475 3.94768 -0.891064 0
M  V30 1466 H 137.045 3.11767 -0.227989 0
M  V30 1467 H 136.265 2.87085 -2.7014 0
M  V30 1468 H 137.553 4.01011 -3.13157 0
M  V30 1469 H 136.951 5.64275 -0.401298 0
M  V30 1470 H 135.508 6.463 -0.844942 0
M  V30 1471 N 138.941 1.26152 0.944643 0
M  V30 1472 C 140.188 1.11492 1.69044 0
M  V30 1473 C 140.516 -0.342366 1.91463 0
M  V30 1474 O 139.771 -1.26812 1.49054 0
M  V30 1475 C 140.07 1.82541 3.07268 0
M  V30 1476 C 139.736 3.32445 3.04616 0
M  V30 1477 C 138.398 3.73337 3.036 0
M  V30 1478 C 140.75 4.28171 2.97185 0
M  V30 1479 C 138.078 5.08348 2.92915 0
M  V30 1480 C 140.43 5.63218 2.88041 0
M  V30 1481 C 139.094 6.03426 2.85366 0
M  V30 1482 H 138.364 0.407977 0.618576 0
M  V30 1483 H 141.011 1.56551 1.10291 0
M  V30 1484 H 139.316 1.29941 3.69625 0
M  V30 1485 H 141.013 1.68642 3.63815 0
M  V30 1486 H 137.603 2.99915 3.06185 0
M  V30 1487 H 141.787 3.97563 2.97081 0
M  V30 1488 H 137.043 5.38667 2.89219 0
M  V30 1489 H 141.217 6.37078 2.81254 0
M  V30 1490 H 138.844 7.07999 2.76842 0
M  V30 1491 N 140.419 -1.14872 1.07899 0
M  V30 1492 C 141.647 -1.89661 0.82683 0
M  V30 1493 C 142.062 -1.78312 -0.620519 0
M  V30 1494 O 141.419 -1.13888 -1.42604 0
M  V30 1495 C 141.47 -3.39817 1.23316 0
M  V30 1496 O 141.191 -3.50845 2.62372 0
M  V30 1497 C 142.692 -4.31615 1.0111 0
M  V30 1498 H 139.912 -0.60092 0.298557 0
M  V30 1499 H 142.456 -1.4551 1.43691 0
M  V30 1500 H 140.611 -3.8161 0.667286 0
M  V30 1501 H 141.025 -4.44076 2.79101 0
M  V30 1502 H 142.499 -5.35367 1.34486 0
M  V30 1503 H 142.976 -4.39169 -0.0522168 0
M  V30 1504 H 143.582 -3.95572 1.56215 0
M  V30 1505 N 141.898 -0.863906 -1.31812 0
M  V30 1506 C 143.144 -0.472535 -1.97218 0
M  V30 1507 C 143.477 0.971394 -1.68159 0
M  V30 1508 O 142.752 1.68309 -0.974798 0
M  V30 1509 C 143.035 -0.723054 -3.52766 0
M  V30 1510 C 142.888 -2.21608 -3.91421 0
M  V30 1511 C 144.207 -0.185522 -4.39709 0
M  V30 1512 H 141.326 -0.173158 -0.71637 0
M  V30 1513 H 143.968 -1.08403 -1.56041 0
M  V30 1514 H 142.118 -0.202577 -3.87971 0
M  V30 1515 H 143.79 -2.80334 -3.66347 0
M  V30 1516 H 142.033 -2.691 -3.40246 0
M  V30 1517 H 142.704 -2.34203 -4.99853 0
M  V30 1518 H 145.18 -0.630726 -4.11292 0
M  V30 1519 H 144.056 -0.390306 -5.47511 0
M  V30 1520 H 144.317 0.912229 -4.32586 0
M  V30 1521 N 143.376 1.44774 -0.622745 0
M  V30 1522 C 144.323 2.30635 0.0871679 0
M  V30 1523 C 145.293 1.42994 0.845097 0
M  V30 1524 O 146.478 1.71907 0.827812 0
M  V30 1525 C 143.618 3.28144 1.06844 0
M  V30 1526 C 142.731 4.30888 0.309809 0
M  V30 1527 C 141.866 5.15494 1.28215 0
M  V30 1528 C 140.905 6.09953 0.512198 0
M  V30 1529 N 140.042 6.87287 1.43458 0
M  V30 1530 H 144.882 2.90803 -0.650974 0
M  V30 1531 H 142.419 1.43286 -0.33281 0
M  V30 1532 H 144.377 3.83157 1.65066 0
M  V30 1533 H 143.007 2.69695 1.77382 0
M  V30 1534 H 142.059 3.78414 -0.388181 0
M  V30 1535 H 143.371 4.97955 -0.290254 0
M  V30 1536 H 142.525 5.74983 1.93596 0
M  V30 1537 H 141.264 4.48481 1.91614 0
M  V30 1538 H 140.269 5.49581 -0.155151 0
M  V30 1539 H 141.494 6.78999 -0.116958 0
M  V30 1540 H 139.44 6.2295 2.05594 0
M  V30 1541 H 139.357 7.50763 0.888335 0
M  V30 1542 H 140.625 7.51306 2.07749 0
M  V30 1543 N 144.854 0.36279 1.53368 0
M  V30 1544 C 145.804 -0.501391 2.22419 0
M  V30 1545 C 146.788 -1.0509 1.2184 0
M  V30 1546 O 147.98 -0.981404 1.47301 0
M  V30 1547 C 145.109 -1.64201 3.01484 0
M  V30 1548 C 144.195 -1.10552 4.09438 0
M  V30 1549 N 144.586 -0.291788 5.04958 0
M  V30 1550 C 142.884 -1.3806 4.24094 0
M  V30 1551 C 143.585 0.00162655 5.817 0
M  V30 1552 N 142.561 -0.595244 5.40331 0
M  V30 1553 H 146.363 0.127159 2.93625 0
M  V30 1554 H 143.877 0.170658 1.61501 0
M  V30 1555 H 145.874 -2.27326 3.49469 0
M  V30 1556 H 144.534 -2.27365 2.31809 0
M  V30 1557 H 145.545 0.0687731 5.17854 0
M  V30 1558 H 142.222 -2.01522 3.65644 0
M  V30 1559 H 143.612 0.659278 6.68658 0
M  V30 1560 N 146.332 -1.57332 0.0918853 0
M  V30 1561 C 147.242 -2.17368 -0.882505 0
M  V30 1562 C 148.258 -1.14226 -1.31257 0
M  V30 1563 O 149.434 -1.46582 -1.38115 0
M  V30 1564 C 146.499 -2.73962 -2.12476 0
M  V30 1565 C 145.56 -3.92048 -1.7492 0
M  V30 1566 C 144.793 -4.45933 -2.93223 0
M  V30 1567 O 145.016 -3.98764 -4.07852 0
M  V30 1568 O 143.95 -5.36999 -2.71875 0
M  V30 1569 H 147.776 -3.01031 -0.40172 0
M  V30 1570 H 145.361 -1.48813 -0.132291 0
M  V30 1571 H 147.243 -3.10147 -2.85283 0
M  V30 1572 H 145.918 -1.93347 -2.59613 0
M  V30 1573 H 144.825 -3.6068 -0.993025 0
M  V30 1574 H 146.158 -4.74017 -1.32548 0
M  V30 1575 N 147.81 0.181792 -1.56548 0
M  V30 1576 C 148.742 1.24956 -1.92142 0
M  V30 1577 C 149.755 1.41022 -0.813422 0
M  V30 1578 O 150.944 1.41212 -1.09186 0
M  V30 1579 C 148.044 2.61981 -2.14987 0
M  V30 1580 C 147.217 2.6735 -3.46183 0
M  V30 1581 C 146.276 3.85664 -3.5798 0
M  V30 1582 O 145.302 3.72148 -4.30691 0
M  V30 1583 N 146.504 5.01683 -2.92053 0
M  V30 1584 H 149.269 0.947329 -2.84334 0
M  V30 1585 H 146.83 0.371629 -1.57577 0
M  V30 1586 H 148.822 3.3958 -2.20154 0
M  V30 1587 H 147.392 2.84637 -1.2923 0
M  V30 1588 H 146.612 1.75925 -3.52766 0
M  V30 1589 H 147.9 2.67939 -4.32534 0
M  V30 1590 H 147.298 5.15564 -2.32832 0
M  V30 1591 H 145.855 5.77181 -3.0283 0
M  V30 1592 N 149.288 1.51039 0.449983 0
M  V30 1593 C 150.236 1.71995 1.5659 0
M  V30 1594 C 151.23 0.586029 1.5894 0
M  V30 1595 O 152.436 0.76709 1.62837 0
M  V30 1596 H 148.811 0.543233 0.520001 0
M  V30 1597 H 150.782 2.65562 1.36085 0
M  V30 1598 C 149.531 1.8506 2.9436 0
M  V30 1599 H 148.854 2.71712 2.93279 0
M  V30 1600 H 150.294 2.0374 3.71842 0
M  V30 1601 C 148.753 0.607277 3.31382 0
M  V30 1602 O 149.283 -0.243903 4.00959 0
M  V30 1603 N 147.489 0.455073 2.87015 0
M  V30 1604 H 147.036 1.14879 2.30566 0
M  V30 1605 H 146.994 -0.375611 3.12148 0
M  V30 1606 N 150.766 -0.704594 1.40972 0
M  V30 1607 C 152.015 -1.46018 1.39146 0
M  V30 1608 C 152.328 -1.956 0.000589254 0
M  V30 1609 O 153.534 -2.71137 -0.1403 0
M  V30 1610 C 151.99 -2.63996 2.4461 0
M  V30 1611 C 151.598 -2.21238 3.89561 0
M  V30 1612 C 153.342 -3.41677 2.51907 0
M  V30 1613 C 151.249 -3.3612 4.86598 0
M  V30 1614 H 150.179 -0.548444 0.517422 0
M  V30 1615 H 152.83 -0.765784 1.66757 0
M  V30 1616 H 151.212 -3.3566 2.10115 0
M  V30 1617 H 152.386 -1.56923 4.33257 0
M  V30 1618 H 150.701 -1.56574 3.85841 0
M  V30 1619 H 153.298 -4.27182 3.2159 0
M  V30 1620 H 153.641 -3.86247 1.55303 0
M  V30 1621 H 154.174 -2.77064 2.85448 0
M  V30 1622 H 150.913 -2.96572 5.84573 0
M  V30 1623 H 150.433 -3.99315 4.47557 0
M  V30 1624 H 152.112 -4.02029 5.06934 0
M  V30 1625 N 152.244 -1.26651 -0.937939 0
M  V30 1626 C 153.521 -1.0313 -1.66204 0
M  V30 1627 C 153.901 0.437256 -2.06522 0
M  V30 1628 O 153.249 1.41831 -1.79154 0
M  V30 1629 C 153.459 -1.98314 -2.87181 0
M  V30 1630 C 154.807 -2.27107 -3.58758 0
M  V30 1631 O 155.831 -1.96205 -2.97291 0
M  V30 1632 O 154.69 -2.79736 -4.69479 0
M  V30 1633 H 151.784 -0.392384 -0.727986 0
M  V30 1634 H 154.33 -1.37874 -0.989382 0
M  V30 1635 H 153.102 -2.97399 -2.54302 0
M  V30 1636 H 152.725 -1.64068 -3.6217 0
M  V30 1637 N 153.722 1.14298 -1.08507 0
M  V30 1638 C 154.962 1.87016 -0.824894 0
M  V30 1639 C 155.326 1.81099 0.637735 0
M  V30 1640 O 156.527 2.48963 1.01345 0
M  V30 1641 C 154.798 3.31584 -1.33368 0
M  V30 1642 S 156.357 4.21903 -1.20596 0
M  V30 1643 H 153.175 0.645259 -0.2986 0
M  V30 1644 H 155.777 1.37822 -1.38656 0
M  V30 1645 H 154.481 3.33439 -2.39262 0
M  V30 1646 H 154.012 3.85836 -0.767734 0
M  V30 1647 H 156.027 4.95971 -0.150891 0
M  V30 1648 N 155.201 0.870884 1.31352 0
M  V30 1649 C 156.449 0.48132 1.96285 0
M  V30 1650 C 156.77 -0.969813 1.69173 0
M  V30 1651 O 156.04 -1.67998 1.00764 0
M  V30 1652 H 154.62 0.175002 0.726212 0
M  V30 1653 H 157.282 1.11087 1.60143 0
M  V30 1654 H 156.378 0.639825 3.05471 0
M  V30 1655 N 156.679 -1.44442 0.630414 0
M  V30 1656 C 157.927 -2.01653 0.134351 0
M  V30 1657 C 158.248 -1.49836 -1.24796 0
M  V30 1658 O 157.518 -0.701684 -1.82902 0
M  V30 1659 H 156.098 -0.74554 0.0466769 0
M  V30 1660 H 158.76 -1.76952 0.816955 0
M  V30 1661 H 157.856 -3.11935 0.101498 0
M  V30 1662 N 158.157 -0.370918 -1.53173 0
M  V30 1663 C 159.405 0.216673 -2.00935 0
M  V30 1664 C 159.726 1.48845 -1.25977 0
M  V30 1665 O 158.996 1.92286 -0.374551 0
M  V30 1666 H 157.576 0.0830565 -0.742368 0
M  V30 1667 H 160.238 -0.49838 -1.8842 0
M  V30 1668 H 159.334 0.439893 -3.08984 0
M  V30 1669 N 159.635 1.57281 -0.100228 0
M  V30 1670 C 160.865 1.98591 0.569681 0
M  V30 1671 C 161.273 0.978315 1.61943 0
M  V30 1672 O 160.616 -0.0396108 1.83657 0
M  V30 1673 C 160.678 3.36282 1.271 0
M  V30 1674 C 160.342 4.55488 0.371409 0
M  V30 1675 C 161.339 5.18491 -0.382504 0
M  V30 1676 C 159.024 5.01474 0.287965 0
M  V30 1677 C 161.018 6.25852 -1.20779 0
M  V30 1678 C 158.705 6.08701 -0.540965 0
M  V30 1679 C 159.703 6.70755 -1.28749 0
M  V30 1680 O 159.391 7.75914 -2.10269 0
M  V30 1681 H 159.123 0.65752 0.156982 0
M  V30 1682 H 161.677 2.0463 -0.177734 0
M  V30 1683 H 159.907 3.26941 2.0651 0
M  V30 1684 H 161.596 3.62005 1.83595 0
M  V30 1685 H 162.362 4.83891 -0.3278 0
M  V30 1686 H 158.241 4.52932 0.858689 0
M  V30 1687 H 161.785 6.74218 -1.79096 0
M  V30 1688 H 157.682 6.42732 -0.597131 0
M  V30 1689 H 158.45 7.92925 -2.03007 0
M  V30 1690 N 161.113 -0.173488 1.56642 0
M  V30 1691 C 162.359 -0.891784 1.8214 0
M  V30 1692 C 162.692 -1.8199 0.677736 0
M  V30 1693 O 161.967 -1.91842 -0.320446 0
M  V30 1694 C 162.25 -1.68933 3.18015 0
M  V30 1695 C 162.103 -0.784487 4.42906 0
M  V30 1696 C 163.422 -2.65748 3.50808 0
M  V30 1697 H 160.541 -0.322761 0.662567 0
M  V30 1698 H 163.183 -0.158095 1.89341 0
M  V30 1699 H 161.333 -2.31482 3.12007 0
M  V30 1700 H 163.005 -0.172046 4.60979 0
M  V30 1701 H 161.248 -0.0924117 4.33702 0
M  V30 1702 H 161.919 -1.37799 5.34524 0
M  V30 1703 H 164.395 -2.13327 3.57255 0
M  V30 1704 H 163.271 -3.18619 4.4696 0
M  V30 1705 H 163.532 -3.45842 2.75401 0
M  V30 1706 N 162.591 -1.51276 -0.441967 0
M  V30 1707 C 163.538 -1.72256 -1.53612 0
M  V30 1708 C 164.508 -0.564164 -1.56225 0
M  V30 1709 O 165.693 -0.798074 -1.73307 0
M  V30 1710 C 162.833 -1.84932 -2.91366 0
M  V30 1711 C 161.946 -3.12459 -2.98317 0
M  V30 1712 C 161.081 -3.15758 -4.27166 0
M  V30 1713 C 160.12 -4.37619 -4.27967 0
M  V30 1714 N 159.257 -4.38493 -5.48333 0
M  V30 1715 H 164.097 -2.65654 -1.35026 0
M  V30 1716 H 161.634 -1.31662 -0.656009 0
M  V30 1717 H 163.592 -1.90263 -3.7129 0
M  V30 1718 H 162.222 -0.949461 -3.08521 0
M  V30 1719 H 161.274 -3.1646 -2.11086 0
M  V30 1720 H 162.586 -4.02382 -2.94771 0
M  V30 1721 H 161.74 -3.19979 -5.15459 0
M  V30 1722 H 160.479 -2.23715 -4.33362 0
M  V30 1723 H 159.484 -4.33579 -3.38067 0
M  V30 1724 H 160.709 -5.30921 -4.23438 0
M  V30 1725 H 158.655 -3.49318 -5.55259 0
M  V30 1726 H 158.572 -5.22219 -5.46647 0
M  V30 1727 H 159.84 -4.469 -6.38671 0
M  V30 1728 N 164.069 0.697108 -1.41344 0
M  V30 1729 C 164.999 1.82353 -1.45841 0
M  V30 1730 C 165.98 1.67115 -0.317247 0
M  V30 1731 O 167.165 1.86871 -0.528474 0
M  V30 1732 C 164.295 3.20476 -1.33838 0
M  V30 1733 C 163.249 3.50415 -2.4575 0
M  V30 1734 C 162.575 4.87878 -2.18813 0
M  V30 1735 C 163.875 3.49546 -3.88091 0
M  V30 1736 H 165.569 1.78846 -2.40113 0
M  V30 1737 H 163.115 0.859028 -1.15571 0
M  V30 1738 H 165.068 3.98988 -1.35596 0
M  V30 1739 H 163.792 3.24604 -0.360498 0
M  V30 1740 H 162.451 2.74253 -2.43271 0
M  V30 1741 H 162.099 4.8863 -1.19371 0
M  V30 1742 H 161.799 5.08875 -2.93803 0
M  V30 1743 H 163.323 5.68702 -2.22284 0
M  V30 1744 H 164.737 4.18066 -3.92293 0
M  V30 1745 H 163.134 3.82075 -4.62751 0
M  V30 1746 H 164.204 2.48552 -4.16353 0
M  V30 1747 N 165.547 1.27147 0.931209 0
M  V30 1748 C 166.794 1.13278 1.67852 0
M  V30 1749 C 167.122 -0.32204 1.91815 0
M  V30 1750 O 166.377 -1.25224 1.50391 0
M  V30 1751 C 166.676 1.8579 3.05314 0
M  V30 1752 C 166.342 3.35657 3.01073 0
M  V30 1753 C 165.004 3.76536 2.99623 0
M  V30 1754 C 167.356 4.31299 2.92627 0
M  V30 1755 C 164.684 5.11426 2.87506 0
M  V30 1756 C 167.036 5.66242 2.82051 0
M  V30 1757 C 165.7 6.06418 2.7895 0
M  V30 1758 H 164.97 0.414515 0.614214 0
M  V30 1759 H 167.617 1.57712 1.08624 0
M  V30 1760 H 165.922 1.33854 3.68226 0
M  V30 1761 H 167.619 1.72491 3.62005 0
M  V30 1762 H 164.209 3.03146 3.02986 0
M  V30 1763 H 168.393 4.00692 2.92848 0
M  V30 1764 H 163.649 5.41705 2.83489 0
M  V30 1765 H 167.823 6.40026 2.74481 0
M  V30 1766 H 165.45 7.10895 2.69318 0
M  V30 1767 N 167.025 -1.13721 1.09112 0
M  V30 1768 C 168.436 -1.6648 0.845068 0
M  V30 1769 C 168.787 -1.85911 -0.62701 0
M  V30 1770 O 167.912 -1.57556 -1.48341 0
M  V30 1771 C 168.507 -3.02413 1.52748 0
M  V30 1772 C 167.066 -3.52176 1.32849 0
M  V30 1773 C 166.213 -2.27492 1.58564 0
M  V30 1774 H 169.164 -0.976872 1.25072 0
M  V30 1775 H 169.185 -3.68223 0.958752 0
M  V30 1776 H 168.697 -2.88238 2.59885 0
M  V30 1777 H 166.798 -3.7156 0.278137 0
M  V30 1778 H 166.911 -4.32499 2.0611 0
M  V30 1779 H 165.275 -2.33923 1.00758 0
M  V30 1780 H 166.058 -2.15886 2.66924 0
M  V30 1781 N 168.503 -0.877838 -1.30888 0
M  V30 1782 C 169.451 -0.328662 -2.30266 0
M  V30 1783 C 170.445 0.560496 -1.59859 0
M  V30 1784 O 171.651 0.445722 -1.74394 0
M  V30 1785 H 168.026 -0.0876142 -0.746879 0
M  V30 1786 H 169.997 -1.18061 -2.74051 0
M  V30 1787 C 168.746 0.448071 -3.44801 0
M  V30 1788 H 168.069 -0.226859 -3.99156 0
M  V30 1789 H 169.509 0.797541 -4.16432 0
M  V30 1790 C 167.968 1.64239 -2.94155 0
M  V30 1791 O 168.498 2.74175 -2.93583 0
M  V30 1792 N 166.704 1.47716 -2.50256 0
M  V30 1793 H 166.251 0.582821 -2.5092 0
M  V30 1794 H 166.209 2.27765 -2.16727 0
M  V30 1795 N 169.982 1.44106 -0.638065 0
M  V30 1796 C 171.207 2.0685 -0.150916 0
M  V30 1797 C 171.632 1.47417 1.16833 0
M  V30 1798 O 170.99 0.578264 1.71831 0
M  V30 1799 C 171.038 3.60555 -0.05708 0
M  V30 1800 O 170.142 4.00465 0.984972 0
M  V30 1801 H 169.483 0.658151 -0.0879399 0
M  V30 1802 H 172.013 1.84865 -0.876707 0
M  V30 1803 H 172.023 4.07789 0.131232 0
M  V30 1804 H 170.698 4.03193 -1.02021 0
M  V30 1805 H 169.275 3.64849 0.770672 0
M  V30 1806 N 171.46 0.379036 1.52974 0
M  V30 1807 C 172.39 -0.452706 2.29069 0
M  V30 1808 C 173.371 -1.07237 1.32039 0
M  V30 1809 O 174.556 -1.08708 1.60923 0
M  V30 1810 C 171.686 -1.5856 3.08992 0
M  V30 1811 C 170.64 -1.0925 4.13822 0
M  V30 1812 C 169.966 -2.31668 4.81907 0
M  V30 1813 C 171.266 -0.167702 5.22031 0
M  V30 1814 H 172.96 0.182181 2.98845 0
M  V30 1815 H 170.506 0.0890592 1.43724 0
M  V30 1816 H 172.459 -2.1742 3.6098 0
M  V30 1817 H 171.183 -2.24792 2.36931 0
M  V30 1818 H 169.842 -0.526494 3.628 0
M  V30 1819 H 169.49 -2.96386 4.06404 0
M  V30 1820 H 169.19 -1.9934 5.52754 0
M  V30 1821 H 170.714 -2.91189 5.36695 0
M  V30 1822 H 172.128 -0.664186 5.6944 0
M  V30 1823 H 170.525 0.0653265 6.00064 0
M  V30 1824 H 171.595 0.786347 4.78482 0
M  V30 1825 N 172.938 -1.57226 0.108567 0
M  V30 1826 C 174.215 -1.86333 -0.594939 0
M  V30 1827 C 174.595 -1.00788 -1.85486 0
M  V30 1828 O 173.943 -0.0839293 -2.28346 0
M  V30 1829 C 174.153 -3.37265 -0.897405 0
M  V30 1830 C 175.501 -4.05629 -1.25501 0
M  V30 1831 O 176.525 -3.42224 -0.987998 0
M  V30 1832 O 175.384 -5.17531 -1.75567 0
M  V30 1833 H 172.478 -0.771018 -0.2991 0
M  V30 1834 H 175.024 -1.69102 0.142283 0
M  V30 1835 H 173.796 -3.913 -0.00413806 0
M  V30 1836 H 173.419 -3.59889 -1.69014 0
M  V30 1837 N 174.416 0.165178 -1.56732 0
M  V30 1838 C 175.348 1.22911 -1.93457 0
M  V30 1839 C 176.361 1.40152 -0.828333 0
M  V30 1840 O 177.55 1.40046 -1.10677 0
M  V30 1841 C 174.65 2.59686 -2.17753 0
M  V30 1842 C 173.823 2.63663 -3.48999 0
M  V30 1843 C 172.882 3.81845 -3.62051 0
M  V30 1844 O 171.908 3.67559 -4.34613 0
M  V30 1845 N 173.11 4.98557 -2.97357 0
M  V30 1846 H 175.875 0.917118 -2.85323 0
M  V30 1847 H 173.436 0.354895 -1.57962 0
M  V30 1848 H 175.428 3.37225 -2.23743 0
M  V30 1849 H 173.998 2.83251 -1.32242 0
M  V30 1850 H 173.218 1.72173 -3.54612 0
M  V30 1851 H 174.506 2.63336 -4.35352 0
M  V30 1852 H 173.904 5.13065 -2.38287 0
M  V30 1853 H 172.461 5.73936 -3.08934 0
M  V30 1854 N 175.894 1.51508 0.433938 0
M  V30 1855 C 177.122 1.68157 1.20543 0
M  V30 1856 C 177.537 0.380362 1.84929 0
M  V30 1857 O 176.894 -0.641446 1.70856 0
M  V30 1858 C 176.945 2.79965 2.28696 0
M  V30 1859 O 176.666 4.05045 1.66943 0
M  V30 1860 C 178.167 3.07912 3.18912 0
M  V30 1861 H 175.387 0.56421 0.363191 0
M  V30 1862 H 177.931 1.97941 0.513754 0
M  V30 1863 H 176.086 2.5277 2.93574 0
M  V30 1864 H 176.5 4.67165 2.38448 0
M  V30 1865 H 177.974 3.89719 3.90926 0
M  V30 1866 H 178.451 2.20456 3.79863 0
M  V30 1867 H 179.057 3.36779 2.59731 0
M  V30 1868 N 177.372 -0.689602 1.41712 0
M  V30 1869 C 178.649 -1.44457 1.31877 0
M  V30 1870 C 179.029 -2.11039 -0.0508537 0
M  V30 1871 O 178.377 -2.02138 -1.06547 0
M  V30 1872 C 178.587 -2.45913 2.47645 0
M  V30 1873 C 179.935 -3.10991 2.89084 0
M  V30 1874 O 180.959 -2.56238 2.47428 0
M  V30 1875 O 179.818 -4.10174 3.61137 0
M  V30 1876 H 176.912 -0.64362 0.519309 0
M  V30 1877 H 179.458 -0.719576 1.53689 0
M  V30 1878 H 178.23 -1.95409 3.39015 0
M  V30 1879 H 177.853 -3.25913 2.27742 0
M  V30 1880 N 178.85 -1.27639 -0.924453 0
M  V30 1881 C 179.783 -1.04966 -2.02626 0
M  V30 1882 C 180.761 0.0309505 -1.62571 0
M  V30 1883 O 181.945 -0.114846 -1.8815 0
M  V30 1884 C 179.072 -0.59292 -3.3347 0
M  V30 1885 C 178.118 -1.66858 -3.92506 0
M  V30 1886 S 178.951 -3.2619 -4.24689 0
M  V30 1887 C 180.107 -2.82325 -5.58609 0
M  V30 1888 H 180.34 -1.98252 -2.21547 0
M  V30 1889 H 177.873 -1.11506 -1.06798 0
M  V30 1890 H 179.831 -0.336086 -4.09122 0
M  V30 1891 H 178.492 0.319939 -3.12466 0
M  V30 1892 H 177.685 -1.30038 -4.86935 0
M  V30 1893 H 177.287 -1.87766 -3.2345 0
M  V30 1894 H 179.579 -2.2783 -6.38044 0
M  V30 1895 H 180.522 -3.75511 -6.00331 0
M  V30 1896 H 180.93 -2.21367 -5.19285 0
M  V30 1897 N 180.328 1.1314 -1.09713 0
M  V30 1898 C 181.278 2.16709 -0.708593 0
M  V30 1899 C 182.262 1.58471 0.278523 0
M  V30 1900 O 183.454 1.76779 0.088427 0
M  V30 1901 C 180.583 3.43039 -0.133923 0
M  V30 1902 C 179.669 4.08277 -1.14763 0
M  V30 1903 N 180.06 4.48637 -2.33577 0
M  V30 1904 C 178.358 4.34954 -0.986446 0
M  V30 1905 C 179.059 4.9952 -2.98085 0
M  V30 1906 N 178.035 4.94561 -2.25632 0
M  V30 1907 H 181.837 2.45672 -1.61315 0
M  V30 1908 H 179.351 1.29967 -0.973775 0
M  V30 1909 H 181.348 4.16583 0.162465 0
M  V30 1910 H 180.008 3.15549 0.765447 0
M  V30 1911 H 181.019 4.41246 -2.7115 0
M  V30 1912 H 177.696 4.17258 -0.142008 0
M  V30 1913 H 179.086 5.40521 -3.99108 0
M  V30 1914 N 181.806 0.884767 1.30421 0
M  V30 1915 C 183.054 0.502112 1.95763 0
M  V30 1916 C 183.375 -0.951815 1.70192 0
M  V30 1917 O 182.645 -1.6692 1.0254 0
M  V30 1918 H 181.225 0.182694 0.724315 0
M  V30 1919 H 183.887 1.1278 1.58955 0
M  V30 1920 H 182.983 0.672188 3.04775 0
M  V30 1921 N 183.284 -1.43765 0.645699 0
M  V30 1922 C 184.561 -1.9541 0.0862963 0
M  V30 1923 C 184.941 -1.58725 -1.39175 0
M  V30 1924 O 184.289 -0.868581 -2.11348 0
M  V30 1925 C 184.499 -3.47488 0.324565 0
M  V30 1926 C 185.847 -4.24001 0.225497 0
M  V30 1927 O 186.871 -3.55274 0.256715 0
M  V30 1928 O 185.73 -5.46313 0.142801 0
M  V30 1929 H 182.824 -0.826882 -0.0139483 0
M  V30 1930 H 185.37 -1.53743 0.718415 0
M  V30 1931 H 184.142 -3.67289 1.3496 0
M  V30 1932 H 183.765 -3.96135 -0.340987 0
M  V30 1933 N 184.763 -0.387143 -1.52771 0
M  V30 1934 C 185.988 0.198407 -2.06449 0
M  V30 1935 C 186.413 1.39918 -1.25716 0
M  V30 1936 O 185.771 1.79099 -0.281657 0
M  V30 1937 C 185.819 0.548893 -3.56398 0
M  V30 1938 O 184.923 1.64315 -3.78252 0
M  V30 1939 H 184.264 0.0237731 -0.663574 0
M  V30 1940 H 186.794 -0.553989 -1.96957 0
M  V30 1941 H 186.804 0.813812 -3.99801 0
M  V30 1942 H 185.479 -0.329005 -4.14597 0
M  V30 1943 H 184.056 1.37211 -3.46738 0
M  V30 1944 N 186.241 1.57166 -0.116904 0
M  V30 1945 C 187.151 2.18745 0.847812 0
M  V30 1946 C 188.167 1.163 1.29423 0
M  V30 1947 O 189.343 1.48761 1.35765 0
M  V30 1948 C 186.408 2.77307 2.0809 0
M  V30 1949 C 185.469 3.94781 1.68661 0
M  V30 1950 C 184.702 4.50541 2.86091 0
M  V30 1951 O 184.925 4.05202 4.01456 0
M  V30 1952 O 183.859 5.41256 2.63298 0
M  V30 1953 H 187.685 3.01632 0.353778 0
M  V30 1954 H 185.27 1.49005 0.108599 0
M  V30 1955 H 187.152 3.14647 2.80313 0
M  V30 1956 H 185.827 1.97452 2.56504 0
M  V30 1957 H 184.734 3.62214 0.935518 0
M  V30 1958 H 186.067 4.76065 1.24991 0
M  V30 1959 N 187.719 -0.156864 1.56817 0
M  V30 1960 C 188.949 -0.885031 1.86684 0
M  V30 1961 C 189.357 -1.75696 0.701954 0
M  V30 1962 O 188.7 -1.80569 -0.337732 0
M  V30 1963 C 188.762 -1.80092 3.11138 0
M  V30 1964 C 188.426 -1.10714 4.43386 0
M  V30 1965 C 189.423 -0.465714 5.1781 0
M  V30 1966 C 187.108 -1.09959 4.90117 0
M  V30 1967 C 189.102 0.174002 6.37162 0
M  V30 1968 C 186.789 -0.456055 6.09396 0
M  V30 1969 C 187.787 0.179622 6.82764 0
M  V30 1970 O 187.475 0.812975 7.99779 0
M  V30 1971 H 187.207 -0.261813 0.623242 0
M  V30 1972 H 189.761 -0.157383 2.04796 0
M  V30 1973 H 187.991 -2.56926 2.89009 0
M  V30 1974 H 189.68 -2.40018 3.27332 0
M  V30 1975 H 190.446 -0.463427 4.82781 0
M  V30 1976 H 186.325 -1.58378 4.3294 0
M  V30 1977 H 189.869 0.670765 6.94368 0
M  V30 1978 H 185.766 -0.455975 6.43888 0
M  V30 1979 H 186.534 0.71366 8.15383 0
M  V30 1980 N 189.197 -1.51736 -0.425897 0
M  V30 1981 C 190.145 -1.74464 -1.53834 0
M  V30 1982 C 191.139 -0.611241 -1.57988 0
M  V30 1983 O 192.345 -0.792899 -1.61596 0
M  V30 1984 H 188.72 -0.551437 -0.511293 0
M  V30 1985 H 190.691 -2.67694 -1.31843 0
M  V30 1986 C 189.44 -1.8972 -2.91379 0
M  V30 1987 H 188.763 -2.76344 -2.88919 0
M  V30 1988 H 190.203 -2.09629 -3.68553 0
M  V30 1989 C 188.662 -0.65992 -3.30374 0
M  V30 1990 O 189.192 0.180083 -4.01296 0
M  V30 1991 N 187.398 -0.500677 -2.86254 0
M  V30 1992 H 186.945 -1.18532 -2.28709 0
M  V30 1993 H 186.903 0.325903 -3.12706 0
M  V30 1994 N 190.675 0.682077 -1.42076 0
M  V30 1995 C 191.924 1.43786 -1.41451 0
M  V30 1996 C 192.237 1.95574 -0.0317074 0
M  V30 1997 O 193.443 2.71326 0.0971462 0
M  V30 1998 C 191.899 2.60071 -2.48779 0
M  V30 1999 C 191.507 2.15013 -3.93031 0
M  V30 2000 C 193.251 3.37626 -2.57311 0
M  V30 2001 C 191.158 3.28336 -4.91883 0
M  V30 2002 H 190.088 0.540143 -0.526082 0
M  V30 2003 H 192.739 0.739157 -1.67955 0
M  V30 2004 H 191.121 3.32275 -2.15429 0
M  V30 2005 H 192.295 1.5001 -4.35699 0
M  V30 2006 H 190.61 1.50416 -3.88284 0
M  V30 2007 H 193.207 4.22012 -3.28345 0
M  V30 2008 H 193.55 3.83727 -1.61429 0
M  V30 2009 H 194.083 2.72488 -2.89819 0
M  V30 2010 H 190.822 2.87234 -5.89217 0
M  V30 2011 H 190.342 3.92145 -4.53853 0
M  V30 2012 H 192.021 3.93913 -5.13265 0
M  V30 2013 N 192.153 1.28127 0.917671 0
M  V30 2014 C 193.086 1.06039 2.02067 0
M  V30 2015 C 194.064 -0.0223285 1.62585 0
M  V30 2016 O 195.248 0.124823 1.88086 0
M  V30 2017 C 192.375 0.610596 3.33151 0
M  V30 2018 C 191.421 1.68937 3.91615 0
M  V30 2019 S 192.254 3.28437 4.22953 0
M  V30 2020 C 193.41 2.85283 5.57103 0
M  V30 2021 H 193.643 1.99425 2.20493 0
M  V30 2022 H 191.176 1.12071 1.06205 0
M  V30 2023 H 193.134 0.357778 4.08938 0
M  V30 2024 H 191.795 -0.303364 3.12632 0
M  V30 2025 H 190.988 1.32619 4.86239 0
M  V30 2026 H 190.59 1.89478 3.2245 0
M  V30 2027 H 192.882 2.3121 6.36827 0
M  V30 2028 H 193.825 3.7869 5.98331 0
M  V30 2029 H 194.233 2.24118 5.18104 0
M  V30 2030 N 193.631 -1.12557 1.10312 0
M  V30 2031 C 194.878 -1.84038 0.844759 0
M  V30 2032 C 195.206 -1.84026 -0.629668 0
M  V30 2033 O 194.461 -1.28026 -1.48013 0
M  V30 2034 C 194.76 -3.31462 1.33669 0
M  V30 2035 C 194.426 -3.51647 2.82232 0
M  V30 2036 C 193.088 -3.56864 3.22802 0
M  V30 2037 C 195.44 -3.58867 3.77974 0
M  V30 2038 C 192.768 -3.66844 4.57867 0
M  V30 2039 C 195.12 -3.70375 5.1284 0
M  V30 2040 C 193.784 -3.73848 5.52986 0
M  V30 2041 H 193.054 -0.673444 0.309119 0
M  V30 2042 H 195.701 -1.32824 1.37949 0
M  V30 2043 H 194.006 -3.85091 0.721949 0
M  V30 2044 H 195.703 -3.85236 1.11329 0
M  V30 2045 H 192.293 -3.48249 2.49842 0
M  V30 2046 H 196.477 -3.54107 3.47738 0
M  V30 2047 H 191.733 -3.67804 4.88396 0
M  V30 2048 H 195.907 -3.74904 5.86873 0
M  V30 2049 H 193.534 -3.81333 6.57639 0
M  V30 2050 N 195.109 -0.891671 -1.2995 0
M  V30 2051 C 196.357 -0.512486 -1.95494 0
M  V30 2052 C 196.678 0.942776 -1.70695 0
M  V30 2053 O 195.948 1.66374 -1.03424 0
M  V30 2054 H 194.528 -0.186533 -0.723336 0
M  V30 2055 H 197.19 -1.13621 -1.58355 0
M  V30 2056 H 196.286 -0.688342 -3.04415 0
M  V30 2057 N 196.587 1.43421 -0.653314 0
M  V30 2058 C 197.998 1.85065 -0.246537 0
M  V30 2059 C 198.349 1.54688 1.2069 0
M  V30 2060 O 197.474 0.995896 1.92122 0
M  V30 2061 C 198.069 3.35922 -0.440666 0
M  V30 2062 C 196.628 3.76297 -0.0882064 0
M  V30 2063 C 195.775 2.67147 -0.743484 0
M  V30 2064 H 198.726 1.33572 -0.856979 0
M  V30 2065 H 198.747 3.79204 0.313798 0
M  V30 2066 H 198.259 3.58 -1.49858 0
M  V30 2067 H 196.36 3.5983 0.96711 0
M  V30 2068 H 196.473 4.76338 -0.513738 0
M  V30 2069 H 194.837 2.54086 -0.176712 0
M  V30 2070 H 195.62 2.92053 -1.80443 0
M  V30 2071 N 198.065 0.39524 1.52563 0
M  V30 2072 C 199.342 -0.242908 1.94086 0
M  V30 2073 C 199.722 -1.63841 1.33114 0
M  V30 2074 O 199.07 -2.22928 0.501529 0
M  V30 2075 C 199.28 -0.26327 3.48006 0
M  V30 2076 C 200.628 -0.489354 4.21771 0
M  V30 2077 O 201.652 -0.343226 3.54543 0
M  V30 2078 O 200.511 -0.776169 5.4096 0
M  V30 2079 H 197.605 -0.152536 0.812811 0
M  V30 2080 H 200.151 0.450178 1.6362 0
M  V30 2081 H 198.923 0.713985 3.84731 0
M  V30 2082 H 198.546 -1.00103 3.84792 0
M  V30 2083 N 199.544 -1.57102 0.125237 0
M  V30 2084 C 200.793 -1.94582 -0.531095 0
M  V30 2085 C 201.106 -1.01126 -1.6743 0
M  V30 2086 O 202.312 -1.28097 -2.39381 0
M  V30 2087 C 200.768 -3.45839 -0.996164 0
M  V30 2088 C 200.376 -4.47842 0.118926 0
M  V30 2089 C 202.12 -3.92227 -1.62352 0
M  V30 2090 C 200.027 -5.90284 -0.363192 0
M  V30 2091 H 198.957 -0.726391 -0.20217 0
M  V30 2092 H 201.608 -1.82339 0.206092 0
M  V30 2093 H 199.99 -3.53338 -1.78796 0
M  V30 2094 H 201.164 -4.52018 0.895358 0
M  V30 2095 H 199.479 -4.11243 0.653324 0
M  V30 2096 H 202.076 -4.96069 -1.99548 0
M  V30 2097 H 202.419 -3.32552 -2.50429 0
M  V30 2098 H 202.952 -3.87554 -0.897019 0
M  V30 2099 H 199.691 -6.53728 0.481679 0
M  V30 2100 H 199.211 -5.89515 -1.10597 0
M  V30 2101 H 200.89 -6.41752 -0.822377 0
M  V30 2102 N 201.022 0.148545 -1.56898 0
M  V30 2103 C 202.262 0.86765 -1.85071 0
M  V30 2104 C 202.626 1.78417 -0.709317 0
M  V30 2105 O 203.827 2.54261 -0.872049 0
M  V30 2106 C 202.098 1.62306 -3.1842 0
M  V30 2107 S 203.657 2.3878 -3.68143 0
M  V30 2108 H 200.475 0.290174 -0.649092 0
M  V30 2109 H 203.077 0.127755 -1.95082 0
M  V30 2110 H 201.781 0.941192 -3.99462 0
M  V30 2111 H 201.312 2.4039 -3.1141 0
M  V30 2112 H 203.327 3.63942 -3.37285 0
M  V30 2113 N 202.5 1.5196 0.417844 0
M  V30 2114 C 203.748 1.65263 1.16329 0
M  V30 2115 C 204.069 0.380634 1.91249 0
M  V30 2116 O 203.339 -0.604214 1.86349 0
M  V30 2117 H 201.919 0.60912 0.432414 0
M  V30 2118 H 204.581 1.88969 0.477162 0
M  V30 2119 H 203.677 2.4896 1.88217 0
M  V30 2120 N 203.978 -0.674533 1.42435 0
M  V30 2121 C 205.389 -1.25514 1.38214 0
M  V30 2122 C 205.74 -1.96055 0.0755464 0
M  V30 2123 O 204.865 -2.00028 -0.8257 0
M  V30 2124 C 205.46 -2.28269 2.50357 0
M  V30 2125 C 204.019 -2.81856 2.49467 0
M  V30 2126 C 203.166 -1.56182 2.29134 0
M  V30 2127 H 206.117 -0.467902 1.51646 0
M  V30 2128 H 206.138 -3.10009 2.20624 0
M  V30 2129 H 205.65 -1.769 3.45439 0
M  V30 2130 H 203.751 -3.37346 1.58204 0
M  V30 2131 H 203.864 -3.30854 3.46515 0
M  V30 2132 H 202.228 -1.82761 1.774 0
M  V30 2133 H 203.011 -1.06778 3.26272 0
M  V30 2134 N 205.456 -1.28612 -0.910864 0
M  V30 2135 C 206.704 -1.15705 -1.65701 0
M  V30 2136 C 207.025 0.29416 -1.92769 0
M  V30 2137 O 206.295 1.20331 -1.54588 0
M  V30 2138 H 204.875 -0.425216 -0.614167 0
M  V30 2139 H 207.537 -1.61381 -1.0928 0
M  V30 2140 H 206.633 -1.6988 -2.61815 0
M  V30 2141 N 206.934 1.1197 -1.10907 0
M  V30 2142 C 208.162 1.87402 -0.876824 0
M  V30 2143 C 208.577 1.79894 0.573025 0
M  V30 2144 O 207.934 1.17629 1.39534 0
M  V30 2145 C 207.985 3.36428 -1.32282 0
M  V30 2146 O 207.706 3.43765 -2.71582 0
M  V30 2147 C 209.207 4.28783 -1.12518 0
M  V30 2148 H 206.427 0.592793 -0.314384 0
M  V30 2149 H 208.971 1.41649 -1.47499 0
M  V30 2150 H 207.126 3.79706 -0.768229 0
M  V30 2151 H 207.54 4.3652 -2.90776 0
M  V30 2152 H 209.014 5.31613 -1.48633 0
M  V30 2153 H 209.491 4.39153 -0.0642394 0
M  V30 2154 H 210.097 3.91291 -1.66648 0
M  V30 2155 N 208.412 0.89855 1.29475 0
M  V30 2156 C 209.359 0.373819 2.27753 0
M  V30 2157 C 210.329 -0.543444 1.56958 0
M  V30 2158 O 211.514 -0.468934 1.84948 0
M  V30 2159 C 208.654 -0.393648 3.42848 0
M  V30 2160 C 207.767 0.554379 4.28428 0
M  V30 2161 C 206.902 -0.230026 5.30702 0
M  V30 2162 C 205.941 0.712599 6.07938 0
M  V30 2163 N 205.078 -0.0373283 7.0209 0
M  V30 2164 H 209.918 1.21699 2.72017 0
M  V30 2165 H 207.455 0.611456 1.33789 0
M  V30 2166 H 209.413 -0.85466 4.08352 0
M  V30 2167 H 208.043 -1.20128 2.99615 0
M  V30 2168 H 207.095 1.13391 3.63107 0
M  V30 2169 H 208.407 1.27597 4.82204 0
M  V30 2170 H 207.561 -0.752288 6.02018 0
M  V30 2171 H 206.3 -0.984758 4.77654 0
M  V30 2172 H 205.305 1.24637 5.35486 0
M  V30 2173 H 206.53 1.46664 6.63074 0
M  V30 2174 H 204.476 -0.774348 6.51414 0
M  V30 2175 H 204.393 0.624374 7.53417 0
M  V30 2176 H 205.661 -0.539891 7.77628 0
M  V30 2177 N 209.89 -1.43072 0.660911 0
M  V30 2178 C 210.837 -2.30785 -0.0259884 0
M  V30 2179 C 211.807 -1.45184 -0.806888 0
M  V30 2180 O 212.992 -1.74041 -0.781943 0
M  V30 2181 C 210.132 -3.30861 -0.981067 0
M  V30 2182 C 209.245 -4.31558 -0.195458 0
M  V30 2183 C 208.38 -5.18712 -1.14503 0
M  V30 2184 C 207.419 -6.11097 -0.350299 0
M  V30 2185 N 206.556 -6.90849 -1.25186 0
M  V30 2186 H 211.396 -2.88975 0.727846 0
M  V30 2187 H 208.933 -1.42353 0.370682 0
M  V30 2188 H 210.891 -3.87399 -1.54849 0
M  V30 2189 H 209.521 -2.74304 -1.70169 0
M  V30 2190 H 208.573 -3.77252 0.488374 0
M  V30 2191 H 209.885 -4.9701 0.422176 0
M  V30 2192 H 209.039 -5.79914 -1.78284 0
M  V30 2193 H 207.778 -4.53404 -1.79656 0
M  V30 2194 H 206.783 -5.48976 0.300808 0
M  V30 2195 H 208.008 -6.7845 0.296941 0
M  V30 2196 H 205.954 -6.28182 -1.89005 0
M  V30 2197 H 205.871 -7.52854 -0.688971 0
M  V30 2198 H 207.139 -7.5655 -1.87757 0
M  V30 2199 N 211.368 -0.403325 -1.52352 0
M  V30 2200 C 212.614 0.174605 -2.02047 0
M  V30 2201 C 212.947 1.45282 -1.28867 0
M  V30 2202 O 212.222 1.90483 -0.393257 0
M  V30 2203 C 212.505 0.428238 -3.57545 0
M  V30 2204 C 212.358 -0.866248 -4.4138 0
M  V30 2205 C 213.677 1.21287 -4.23057 0
M  V30 2206 H 210.796 0.0619851 -0.734389 0
M  V30 2207 H 213.438 -0.53565 -1.82293 0
M  V30 2208 H 211.588 1.03327 -3.74507 0
M  V30 2209 H 213.26 -1.50265 -4.3614 0
M  V30 2210 H 211.503 -1.47851 -4.07827 0
M  V30 2211 H 212.174 -0.643249 -5.48239 0
M  V30 2212 H 214.65 0.700703 -4.10158 0
M  V30 2213 H 213.526 1.35909 -5.31808 0
M  V30 2214 H 213.787 2.23193 -3.81625 0
M  V30 2215 N 212.846 1.57033 -0.133567 0
M  V30 2216 C 213.796 2.12641 0.822671 0
M  V30 2217 C 214.78 1.05081 1.21847 0
M  V30 2218 O 215.972 1.31287 1.18713 0
M  V30 2219 C 213.101 2.74094 2.06706 0
M  V30 2220 C 212.187 3.88757 1.69497 0
M  V30 2221 N 212.578 4.95194 1.03037 0
M  V30 2222 C 210.876 3.99213 1.98859 0
M  V30 2223 C 211.577 5.75414 0.852873 0
M  V30 2224 N 210.553 5.25726 1.3825 0
M  V30 2225 H 214.355 2.92308 0.305537 0
M  V30 2226 H 211.869 1.62256 0.0684276 0
M  V30 2227 H 213.866 3.12285 2.76195 0
M  V30 2228 H 212.526 1.95896 2.5895 0
M  V30 2229 H 213.537 5.13247 0.692669 0
M  V30 2230 H 210.214 3.32075 2.53047 0
M  V30 2231 H 211.604 6.71089 0.330091 0
M  V30 2232 N 214.325 -0.140222 1.56975 0
M  V30 2233 C 215.571 -0.852949 1.83991 0
M  V30 2234 C 215.904 -1.80512 0.716187 0
M  V30 2235 O 215.179 -1.92479 -0.279681 0
M  V30 2236 C 215.462 -1.6215 3.21527 0
M  V30 2237 C 215.315 -0.690363 4.4447 0
M  V30 2238 C 216.634 -2.58247 3.56366 0
M  V30 2239 H 213.753 -0.308634 0.669264 0
M  V30 2240 H 216.395 -0.117898 1.89634 0
M  V30 2241 H 214.545 -2.24812 3.16847 0
M  V30 2242 H 216.217 -0.0742264 4.6124 0
M  V30 2243 H 214.46 -0.000396433 4.338 0
M  V30 2244 H 215.131 -1.2643 5.37326 0
M  V30 2245 H 217.607 -2.05701 3.61699 0
M  V30 2246 H 216.483 -3.09067 4.53617 0
M  V30 2247 H 216.744 -3.39923 2.82674 0
M  V30 2248 N 215.803 -1.52179 -0.40978 0
M  V30 2249 C 217.052 -1.65434 -1.15388 0
M  V30 2250 C 217.365 -0.390056 -1.91671 0
M  V30 2251 O 218.571 -0.402399 -2.68501 0
M  V30 2252 C 217.027 -2.92279 -2.10003 0
M  V30 2253 C 216.635 -4.25813 -1.39239 0
M  V30 2254 C 218.379 -3.14897 -2.84675 0
M  V30 2255 C 216.286 -5.43782 -2.32498 0
M  V30 2256 H 215.216 -0.616267 -0.434432 0
M  V30 2257 H 217.867 -1.78666 -0.418401 0
M  V30 2258 H 216.249 -2.72744 -2.871 0
M  V30 2259 H 217.423 -4.55828 -0.675099 0
M  V30 2260 H 215.738 -4.09292 -0.766097 0
M  V30 2261 H 218.335 -4.0021 -3.54593 0
M  V30 2262 H 218.678 -2.29103 -3.47588 0
M  V30 2263 H 219.211 -3.34901 -2.14677 0
M  V30 2264 H 215.95 -6.3192 -1.74233 0
M  V30 2265 H 215.47 -5.18106 -3.02201 0
M  V30 2266 H 217.149 -5.76834 -2.93038 0
M  V30 2267 N 217.281 0.66697 -1.42791 0
M  V30 2268 C 218.528 1.42699 -1.43678 0
M  V30 2269 C 218.856 1.94419 -0.0560425 0
M  V30 2270 O 218.111 1.7182 0.936831 0
M  V30 2271 C 218.41 2.6349 -2.4147 0
M  V30 2272 C 218.076 2.30267 -3.8767 0
M  V30 2273 C 216.738 2.20918 -4.27491 0
M  V30 2274 C 219.09 2.03435 -4.79858 0
M  V30 2275 C 216.418 1.82873 -5.57471 0
M  V30 2276 C 218.77 1.66892 -6.10188 0
M  V30 2277 C 217.434 1.56058 -6.49001 0
M  V30 2278 H 216.704 0.522171 -0.525755 0
M  V30 2279 H 219.351 0.759785 -1.75783 0
M  V30 2280 H 217.656 3.35279 -2.0272 0
M  V30 2281 H 219.353 3.21684 -2.39417 0
M  V30 2282 H 215.943 2.38449 -3.56146 0
M  V30 2283 H 220.127 2.09586 -4.49875 0
M  V30 2284 H 215.383 1.7306 -5.86396 0
M  V30 2285 H 219.557 1.45157 -6.81104 0
M  V30 2286 H 217.184 1.26348 -7.49627 0
M  V30 2287 N 218.759 1.29093 0.90403 0
M  V30 2288 C 219.707 1.13727 2.02901 0
M  V30 2289 C 220.701 0.0539853 1.69314 0
M  V30 2290 O 221.907 0.213469 1.7873 0
M  V30 2291 H 218.282 0.35117 0.664969 0
M  V30 2292 H 220.253 2.08982 2.13001 0
M  V30 2293 C 219.002 0.826066 3.37745 0
M  V30 2294 H 218.325 1.65164 3.64089 0
M  V30 2295 H 219.765 0.758559 4.17159 0
M  V30 2296 C 218.224 -0.470541 3.33598 0
M  V30 2297 O 218.754 -1.49792 3.72727 0
M  V30 2298 N 216.96 -0.474812 2.86695 0
M  V30 2299 H 216.507 0.361692 2.55048 0
M  V30 2300 H 216.465 -1.34236 2.84303 0
M  V30 2301 N 220.237 -1.11381 1.11499 0
M  V30 2302 C 221.467 -1.86663 0.885464 0
M  V30 2303 C 221.875 -1.80464 -0.568281 0
M  V30 2304 O 221.218 -1.18445 -1.40415 0
M  V30 2305 C 221.28 -3.36337 1.26956 0
M  V30 2306 C 220.944 -3.66304 2.73259 0
M  V30 2307 C 221.941 -3.63733 3.71476 0
M  V30 2308 C 219.626 -3.9529 3.09921 0
M  V30 2309 C 221.62 -3.89725 5.04374 0
M  V30 2310 C 219.307 -4.20941 4.43004 0
M  V30 2311 C 220.305 -4.18147 5.40039 0
M  V30 2312 O 219.993 -4.43153 6.70724 0
M  V30 2313 H 219.725 -0.597114 0.316908 0
M  V30 2314 H 222.279 -1.41782 1.48617 0
M  V30 2315 H 220.509 -3.81826 0.611999 0
M  V30 2316 H 222.198 -3.92986 1.01573 0
M  V30 2317 H 222.964 -3.41389 3.44498 0
M  V30 2318 H 218.843 -3.966 2.35009 0
M  V30 2319 H 222.387 -3.8746 5.80104 0
M  V30 2320 H 218.284 -4.42761 4.69716 0
M  V30 2321 H 219.052 -4.60717 6.76522 0
M  V30 2322 N 221.715 -0.905404 -1.28997 0
M  V30 2323 C 222.662 -0.385892 -2.27551 0
M  V30 2324 C 223.632 0.535113 -1.57244 0
M  V30 2325 O 224.817 0.459119 -1.85194 0
M  V30 2326 C 221.957 0.375461 -3.43051 0
M  V30 2327 C 221.07 -0.577092 -4.28128 0
M  V30 2328 C 220.205 0.201879 -5.30816 0
M  V30 2329 C 219.244 -0.744829 -6.07551 0
M  V30 2330 N 218.381 9.42587e-05 -7.021 0
M  V30 2331 H 223.221 -1.23139 -2.71368 0
M  V30 2332 H 220.758 -0.618542 -1.33463 0
M  V30 2333 H 222.716 0.832992 -4.088 0
M  V30 2334 H 221.346 1.18537 -3.00248 0
M  V30 2335 H 220.398 -1.15315 -3.62501 0
M  V30 2336 H 221.71 -1.30152 -4.8152 0
M  V30 2337 H 220.864 0.720351 -6.02408 0
M  V30 2338 H 219.603 0.959413 -4.7817 0
M  V30 2339 H 218.608 -1.27475 -5.34818 0
M  V30 2340 H 219.833 -1.50178 -6.62286 0
M  V30 2341 H 217.779 0.739791 -6.51815 0
M  V30 2342 H 217.696 -0.664321 -7.53076 0
M  V30 2343 H 218.964 0.498644 -7.77903 0
M  V30 2344 N 223.193 1.4272 -0.668489 0
M  V30 2345 C 224.441 2.01226 -0.187769 0
M  V30 2346 C 224.762 1.53092 1.2078 0
M  V30 2347 O 224.032 0.74993 1.80977 0
M  V30 2348 H 222.612 0.744041 -0.0664272 0
M  V30 2349 H 225.274 1.74723 -0.863583 0
M  V30 2350 H 224.37 3.11556 -0.184166 0
M  V30 2351 N 224.671 0.411399 1.52136 0
M  V30 2352 C 225.618 -0.412975 2.27075 0
M  V30 2353 C 226.588 -1.03912 1.29582 0
M  V30 2354 O 227.773 -1.06296 1.58448 0
M  V30 2355 C 224.913 -1.52247 3.09701 0
M  V30 2356 C 224.026 -0.917021 4.22155 0
M  V30 2357 C 223.161 -1.9994 4.92135 0
M  V30 2358 C 222.2 -1.37101 5.96548 0
M  V30 2359 N 221.337 -2.39364 6.60038 0
M  V30 2360 H 226.177 0.232499 2.97092 0
M  V30 2361 H 223.714 0.126496 1.46555 0
M  V30 2362 H 225.672 -2.17674 3.55913 0
M  V30 2363 H 224.302 -2.13794 2.41851 0
M  V30 2364 H 223.354 -0.151742 3.80097 0
M  V30 2365 H 224.666 -0.418006 4.97045 0
M  V30 2366 H 223.82 -2.73088 5.41763 0
M  V30 2367 H 222.559 -2.53208 4.16818 0
M  V30 2368 H 221.564 -0.624873 5.46237 0
M  V30 2369 H 222.789 -0.845998 6.7381 0
M  V30 2370 H 220.735 -2.91759 5.87548 0
M  V30 2371 H 220.652 -1.9428 7.3061 0
M  V30 2372 H 221.92 -3.12074 7.14304 0
M  V30 2373 N 226.149 -1.5696 0.141893 0
M  V30 2374 C 227.097 -2.17784 -0.816874 0
M  V30 2375 C 228.091 -1.1334 -1.25899 0
M  V30 2376 O 229.297 -1.316 -1.22806 0
M  V30 2377 H 225.672 -0.697278 -0.281615 0
M  V30 2378 H 227.643 -2.97087 -0.279621 0
M  V30 2379 C 226.392 -2.80983 -2.04802 0
M  V30 2380 H 225.715 -3.61062 -1.7168 0
M  V30 2381 H 227.155 -3.2705 -2.69841 0
M  V30 2382 C 225.614 -1.79228 -2.8527 0
M  V30 2383 O 226.144 -1.25962 -3.8144 0
M  V30 2384 N 224.35 -1.48647 -2.49704 0
M  V30 2385 H 223.897 -1.92155 -1.71564 0
M  V30 2386 H 223.855 -0.808115 -3.03837 0
M  V30 2387 N 227.627 0.131896 -1.57047 0
M  V30 2388 C 228.873 0.843179 -1.84441 0
M  V30 2389 C 229.206 1.80129 -0.725749 0
M  V30 2390 O 228.481 1.92624 0.269469 0
M  V30 2391 C 228.764 1.60442 -3.22382 0
M  V30 2392 C 228.617 0.666782 -4.4483 0
M  V30 2393 C 229.936 2.56354 -3.5773 0
M  V30 2394 H 227.055 0.305081 -0.670891 0
M  V30 2395 H 229.697 0.107839 -1.89694 0
M  V30 2396 H 227.847 2.23128 -3.18035 0
M  V30 2397 H 229.519 0.0497646 -4.61273 0
M  V30 2398 H 227.762 -0.022609 -4.33794 0
M  V30 2399 H 228.433 1.23579 -5.37989 0
M  V30 2400 H 230.909 2.0378 -3.62785 0
M  V30 2401 H 229.785 3.06657 -4.5525 0
M  V30 2402 H 230.046 3.38419 -2.84473 0
M  V30 2403 N 229.106 1.52395 0.401703 0
M  V30 2404 C 230.036 1.79231 1.49661 0
M  V30 2405 C 231.017 0.643654 1.57452 0
M  V30 2406 O 232.202 0.889989 1.72606 0
M  V30 2407 C 229.332 1.94971 2.87409 0
M  V30 2408 C 228.286 3.10604 2.94465 0
M  V30 2409 C 227.612 3.11577 4.34538 0
M  V30 2410 C 228.912 4.49921 2.6527 0
M  V30 2411 H 230.606 2.70917 1.27454 0
M  V30 2412 H 228.152 1.30362 0.6117 0
M  V30 2413 H 230.105 2.12328 3.63999 0
M  V30 2414 H 228.829 0.999632 3.10926 0
M  V30 2415 H 227.488 2.93009 2.20321 0
M  V30 2416 H 227.136 2.14277 4.55076 0
M  V30 2417 H 226.836 3.89247 4.40183 0
M  V30 2418 H 228.36 3.31073 5.13053 0
M  V30 2419 H 229.774 4.67683 3.31581 0
M  V30 2420 H 228.171 5.29564 2.82281 0
M  V30 2421 H 229.241 4.57507 1.60671 0
M  V30 2422 N 230.584 -0.659388 1.43143 0
M  V30 2423 C 231.833 -1.41518 1.43721 0
M  V30 2424 C 232.146 -1.95499 0.0628176 0
M  V30 2425 O 233.352 -2.71446 -0.0539683 0
M  V30 2426 C 231.808 -2.5608 2.52885 0
M  V30 2427 C 231.416 -2.08733 3.96402 0
M  V30 2428 C 233.16 -3.3349 2.62649 0
M  V30 2429 C 231.067 -3.20469 4.97045 0
M  V30 2430 H 229.997 -0.531705 0.534608 0
M  V30 2431 H 232.648 -0.712343 1.69109 0
M  V30 2432 H 231.03 -3.28805 2.20688 0
M  V30 2433 H 232.204 -1.43059 4.3803 0
M  V30 2434 H 230.519 -1.44219 3.90627 0
M  V30 2435 H 233.116 -4.16734 3.35017 0
M  V30 2436 H 233.459 -3.8111 1.67513 0
M  V30 2437 H 233.992 -2.67842 2.94118 0
M  V30 2438 H 230.731 -2.77824 5.93712 0
M  V30 2439 H 230.251 -3.84874 4.60034 0
M  V30 2440 H 231.93 -3.85698 5.19467 0
M  V30 2441 N 232.062 -1.29571 -0.897171 0
M  V30 2442 C 233.01 -1.14802 -2.02295 0
M  V30 2443 C 234.004 -0.0629637 -1.69283 0
M  V30 2444 O 235.21 -0.222945 -1.78614 0
M  V30 2445 H 231.585 -0.354692 -0.663097 0
M  V30 2446 H 233.556 -2.10108 -2.11889 0
M  V30 2447 C 232.305 -0.843966 -3.37302 0
M  V30 2448 H 231.628 -1.67093 -3.63208 0
M  V30 2449 H 233.068 -0.780672 -4.16751 0
M  V30 2450 C 231.527 0.452843 -3.33843 0
M  V30 2451 O 232.057 1.47813 -3.73516 0
M  V30 2452 N 230.263 0.459601 -2.86943 0
M  V30 2453 H 229.81 -0.375213 -2.54853 0
M  V30 2454 H 229.768 1.32726 -2.85011 0
M  V30 2455 N 233.54 1.10788 -1.12088 0
M  V30 2456 C 234.487 2.17025 -0.785407 0
M  V30 2457 C 235.457 1.64265 0.246191 0
M  V30 2458 O 236.642 1.90412 0.121584 0
M  V30 2459 C 233.782 3.44249 -0.242177 0
M  V30 2460 C 232.895 4.1098 -1.33115 0
M  V30 2461 C 232.03 5.25911 -0.747741 0
M  V30 2462 C 231.069 5.84538 -1.81609 0
M  V30 2463 N 230.206 6.90853 -1.25167 0
M  V30 2464 H 235.046 2.45066 -1.69548 0
M  V30 2465 H 232.583 1.20297 -0.846582 0
M  V30 2466 H 234.541 4.17101 0.0908026 0
M  V30 2467 H 233.171 3.16571 0.631072 0
M  V30 2468 H 232.223 3.36133 -1.78097 0
M  V30 2469 H 233.535 4.50601 -2.13917 0
M  V30 2470 H 232.689 6.056 -0.365216 0
M  V30 2471 H 231.428 4.87614 0.0915188 0
M  V30 2472 H 230.433 5.03522 -2.20785 0
M  V30 2473 H 231.658 6.249 -2.6585 0
M  V30 2474 H 229.604 6.54562 -0.434174 0
M  V30 2475 H 229.521 7.29166 -1.99633 0
M  V30 2476 H 230.789 7.7433 -0.896259 0
M  V30 2477 N 235.018 0.912232 1.28515 0
M  V30 2478 C 236.295 0.463597 1.90027 0
M  V30 2479 C 236.675 -1.05753 1.82701 0
M  V30 2480 O 236.023 -1.90492 1.26194 0
M  V30 2481 C 236.233 0.992253 3.34597 0
M  V30 2482 C 237.581 1.04344 4.11579 0
M  V30 2483 O 238.605 0.94079 3.43551 0
M  V30 2484 O 237.464 1.1995 5.33174 0
M  V30 2485 H 234.558 0.146666 0.813891 0
M  V30 2486 H 237.104 1.00292 1.36893 0
M  V30 2487 H 235.876 2.03623 3.34146 0
M  V30 2488 H 235.499 0.433672 3.95228 0
M  V30 2489 N 236.496 -1.42363 0.676048 0
M  V30 2490 C 237.745 -2.00745 0.196037 0
M  V30 2491 C 238.058 -1.54083 -1.20489 0
M  V30 2492 O 239.264 -2.04891 -1.78134 0
M  V30 2493 C 237.72 -3.58651 0.299616 0
M  V30 2494 C 237.328 -4.143 1.70468 0
M  V30 2495 C 239.072 -4.24326 -0.121619 0
M  V30 2496 C 236.979 -5.64574 1.76096 0
M  V30 2497 H 235.909 -0.750787 0.0695301 0
M  V30 2498 H 238.56 -1.63072 0.841412 0
M  V30 2499 H 236.942 -3.93833 -0.413673 0
M  V30 2500 H 238.116 -3.90575 2.44515 0
M  V30 2501 H 236.431 -3.61081 2.07387 0
M  V30 2502 H 239.028 -5.34607 -0.0997362 0
M  V30 2503 H 239.371 -3.99897 -1.15708 0
M  V30 2504 H 239.904 -3.94108 0.540706 0
M  V30 2505 H 236.643 -5.93804 2.77628 0
M  V30 2506 H 236.163 -5.90286 1.06406 0
M  V30 2507 H 237.842 -6.29013 1.51496 0
M  V30 2508 N 237.974 -0.419461 -1.51915 0
M  V30 2509 C 239.39 -0.0708431 -1.59443 0
M  V30 2510 C 239.59 1.41796 -1.43164 0
M  V30 2511 O 238.646 2.18596 -1.26381 0
M  V30 2512 C 239.959 -0.574991 -2.95151 0
M  V30 2513 C 241.507 -0.533867 -3.08413 0
M  V30 2514 C 241.982 -1.01469 -4.46618 0
M  V30 2515 N 243.473 -0.971939 -4.52888 0
M  V30 2516 C 244.208 -1.31505 -5.58116 0
M  V30 2517 N 243.704 -1.73014 -6.70849 0
M  V30 2518 N 245.497 -1.23436 -5.48379 0
M  V30 2519 H 237.648 -1.38836 -1.60743 0
M  V30 2520 H 239.911 -0.570998 -0.756747 0
M  V30 2521 H 239.617 -1.61597 -3.12377 0
M  V30 2522 H 239.491 0.00979777 -3.77199 0
M  V30 2523 H 241.878 0.498086 -2.90866 0
M  V30 2524 H 241.959 -1.15484 -2.28248 0
M  V30 2525 H 241.603 -2.04502 -4.6491 0
M  V30 2526 H 241.533 -0.370433 -5.25295 0
M  V30 2527 H 244.024 -0.666893 -3.71969 0
M  V30 2528 H 244.337 -1.97479 -7.47143 0
M  V30 2529 H 242.682 -1.76926 -6.72103 0
M  V30 2530 H 245.873 -0.908869 -4.59192 0
M  V30 2531 H 246.046 -1.50506 -6.30279 0
M  V30 2532 N 239.452 1.56882 -0.150215 0
M  V30 2533 C 240.692 1.98119 0.502804 0
M  V30 2534 C 241.056 1.03327 1.61826 0
M  V30 2535 O 242.257 1.33621 2.33236 0
M  V30 2536 C 240.528 3.43329 0.992988 0
M  V30 2537 S 242.087 4.0659 1.65015 0
M  V30 2538 H 238.905 0.692189 0.162467 0
M  V30 2539 H 241.507 1.93988 -0.242689 0
M  V30 2540 H 240.211 4.10046 0.170436 0
M  V30 2541 H 239.742 3.5118 1.77303 0
M  V30 2542 H 241.757 3.99906 2.93752 0
M  V30 2543 N 240.93 -0.123565 1.57115 0
M  V30 2544 C 241.877 -1.15177 2.00007 0
M  V30 2545 C 242.847 -1.41403 0.871454 0
M  V30 2546 O 244.032 -1.53346 1.13533 0
M  V30 2547 C 241.172 -2.47436 2.40561 0
M  V30 2548 C 240.285 -2.28184 3.66819 0
M  V30 2549 C 239.42 -3.53641 3.96373 0
M  V30 2550 C 238.459 -3.29528 5.15827 0
M  V30 2551 N 237.596 -4.47175 5.41275 0
M  V30 2552 H 242.436 -0.779008 2.87638 0
M  V30 2553 H 239.973 -0.373166 1.42288 0
M  V30 2554 H 241.931 -3.24584 2.62109 0
M  V30 2555 H 240.561 -2.82614 1.55978 0
M  V30 2556 H 239.613 -1.41976 3.52912 0
M  V30 2557 H 240.925 -2.0634 4.5412 0
M  V30 2558 H 240.079 -4.39209 4.18545 0
M  V30 2559 H 238.818 -3.78512 3.07538 0
M  V30 2560 H 237.823 -2.42349 4.93505 0
M  V30 2561 H 239.048 -3.06031 6.06236 0
M  V30 2562 H 236.994 -4.72175 4.55397 0
M  V30 2563 H 236.911 -4.28419 6.22891 0
M  V30 2564 H 238.179 -5.3389 5.67963 0
M  V30 2565 N 242.408 -1.52605 -0.393616 0
M  V30 2566 C 243.685 -1.58001 -1.15304 0
M  V30 2567 C 244.065 -0.370385 -2.07825 0
M  V30 2568 O 243.413 0.641638 -2.19306 0
M  V30 2569 C 243.623 -2.91652 -1.91677 0
M  V30 2570 C 244.971 -3.4522 -2.47201 0
M  V30 2571 O 245.995 -2.93495 -2.01839 0
M  V30 2572 O 244.854 -4.35579 -3.3005 0
M  V30 2573 H 241.948 -0.637068 -0.527327 0
M  V30 2574 H 244.494 -1.64939 -0.399141 0
M  V30 2575 H 243.266 -3.71136 -1.23992 0
M  V30 2576 H 242.889 -2.88077 -2.74039 0
M  V30 2577 N 243.887 0.651787 -1.4349 0
M  V30 2578 C 245.164 1.40909 -1.35661 0
M  V30 2579 C 245.544 2.11099 -0.00511733 0
M  V30 2580 O 244.892 2.04892 1.0115 0
M  V30 2581 C 245.102 2.3926 -2.54078 0
M  V30 2582 C 246.45 3.03217 -2.97228 0
M  V30 2583 O 247.474 2.49588 -2.54135 0
M  V30 2584 O 246.333 4.00455 -3.71885 0
M  V30 2585 H 243.427 0.629625 -0.536191 0
M  V30 2586 H 245.973 0.678575 -1.55542 0
M  V30 2587 H 244.745 1.86352 -3.44076 0
M  V30 2588 H 244.368 3.1976 -2.36303 0
M  V30 2589 N 245.365 1.30045 0.890287 0
M  V30 2590 C 246.275 1.17885 2.02831 0
M  V30 2591 C 247.291 0.0999609 1.73713 0
M  V30 2592 O 248.467 0.313867 1.98939 0
M  V30 2593 C 245.532 0.866079 3.35708 0
M  V30 2594 C 244.593 2.02979 3.78283 0
M  V30 2595 C 243.826 1.73184 5.0482 0
M  V30 2596 O 244.049 0.657237 5.66601 0
M  V30 2597 O 242.983 2.58267 5.43674 0
M  V30 2598 H 246.809 2.13474 2.16015 0
M  V30 2599 H 244.394 1.09587 1.01543 0
M  V30 2600 H 246.276 0.706623 4.15433 0
M  V30 2601 H 244.951 -0.0599443 3.23644 0
M  V30 2602 H 243.858 2.24454 2.99285 0
M  V30 2603 H 245.191 2.93734 3.94944 0
M  V30 2604 N 246.843 -1.10192 1.12674 0
M  V30 2605 C 248.09 -1.82205 0.883606 0
M  V30 2606 C 248.418 -1.8532 -0.590492 0
M  V30 2607 O 247.673 -1.31137 -1.45264 0
M  V30 2608 C 247.972 -3.28552 1.4067 0
M  V30 2609 C 247.638 -3.45582 2.89627 0
M  V30 2610 C 246.3 -3.49937 3.30299 0
M  V30 2611 C 248.652 -3.50768 3.85501 0
M  V30 2612 C 245.98 -3.57049 4.65546 0
M  V30 2613 C 248.332 -3.59414 5.20581 0
M  V30 2614 C 246.996 -3.62034 5.60792 0
M  V30 2615 H 246.266 -0.666735 0.323334 0
M  V30 2616 H 248.913 -1.29868 1.40736 0
M  V30 2617 H 247.218 -3.83473 0.80347 0
M  V30 2618 H 248.915 -3.82788 1.19475 0
M  V30 2619 H 245.505 -3.42871 2.57172 0
M  V30 2620 H 249.689 -3.46651 3.55171 0
M  V30 2621 H 244.945 -3.57361 4.96088 0
M  V30 2622 H 249.119 -3.62371 5.94693 0
M  V30 2623 H 246.746 -3.67298 6.6558 0
M  V30 2624 N 248.321 -0.919034 -1.28029 0
M  V30 2625 C 249.549 -0.570971 -1.98866 0
M  V30 2626 C 249.964 0.848996 -1.68634 0
M  V30 2627 O 249.321 1.56307 -0.942036 0
M  V30 2628 C 249.372 -0.776876 -3.53054 0
M  V30 2629 O 249.093 -2.14097 -3.82222 0
M  V30 2630 C 250.594 -0.436356 -4.41147 0
M  V30 2631 H 247.814 -0.217175 -0.634883 0
M  V30 2632 H 250.358 -1.23368 -1.63097 0
M  V30 2633 H 248.513 -0.161085 -3.87065 0
M  V30 2634 H 248.927 -2.18455 -4.76841 0
M  V30 2635 H 250.401 -0.63117 -5.4838 0
M  V30 2636 H 250.878 0.627686 -4.34692 0
M  V30 2637 H 251.484 -1.02991 -4.12641 0
M  V30 2638 N 249.799 1.42003 -0.683588 0
M  V30 2639 C 250.749 2.27997 0.0121992 0
M  V30 2640 C 251.733 1.4156 0.764822 0
M  V30 2641 O 252.925 1.64935 0.642287 0
M  V30 2642 C 250.054 3.29706 0.956482 0
M  V30 2643 C 249.14 4.23625 0.200739 0
M  V30 2644 N 249.531 4.99448 -0.799087 0
M  V30 2645 C 247.829 4.43845 0.437937 0
M  V30 2646 C 248.53 5.68102 -1.25041 0
M  V30 2647 N 247.506 5.40511 -0.578648 0
M  V30 2648 H 251.308 2.84048 -0.754564 0
M  V30 2649 H 248.822 1.54071 -0.513398 0
M  V30 2650 H 250.819 3.90124 1.47 0
M  V30 2651 H 249.479 2.75216 1.72297 0
M  V30 2652 H 250.49 5.04303 -1.17893 0
M  V30 2653 H 247.167 4.00382 1.18325 0
M  V30 2654 H 248.557 6.38913 -2.07942 0
M  V30 2655 N 251.277 0.427512 1.51691 0
M  V30 2656 C 252.207 -0.3796 2.30394 0
M  V30 2657 C 253.188 -1.02982 1.35384 0
M  V30 2658 O 254.373 -1.03534 1.643 0
M  V30 2659 C 251.503 -1.48649 3.1388 0
M  V30 2660 C 250.457 -0.960294 4.17088 0
M  V30 2661 C 249.783 -2.16219 4.89033 0
M  V30 2662 C 251.083 -0.00153679 5.223 0
M  V30 2663 H 252.777 0.277164 2.98114 0
M  V30 2664 H 250.323 0.134739 1.43368 0
M  V30 2665 H 252.276 -2.05826 3.67714 0
M  V30 2666 H 251 -2.1714 2.43962 0
M  V30 2667 H 249.659 -0.410806 3.64291 0
M  V30 2668 H 249.307 -2.83307 4.15628 0
M  V30 2669 H 249.007 -1.81654 5.58816 0
M  V30 2670 H 250.531 -2.73968 5.45687 0
M  V30 2671 H 251.945 -0.482687 5.71264 0
M  V30 2672 H 250.342 0.256199 5.99553 0
M  V30 2673 H 251.412 0.938174 4.75738 0
M  V30 2674 N 252.755 -1.56801 0.158532 0
M  V30 2675 C 253.985 -2.00568 -0.495583 0
M  V30 2676 C 254.393 -1.03774 -1.58201 0
M  V30 2677 O 253.736 -0.0285797 -1.83678 0
M  V30 2678 C 253.798 -3.40768 -1.14532 0
M  V30 2679 C 253.462 -4.56553 -0.202101 0
M  V30 2680 C 254.459 -5.16714 0.574675 0
M  V30 2681 C 252.144 -5.02197 -0.101648 0
M  V30 2682 C 254.138 -6.20939 1.43924 0
M  V30 2683 C 251.825 -6.06274 0.766508 0
M  V30 2684 C 252.823 -6.65515 1.53555 0
M  V30 2685 O 252.511 -7.67575 2.38922 0
M  V30 2686 H 252.243 -0.662893 -0.13247 0
M  V30 2687 H 254.797 -2.03829 0.253559 0
M  V30 2688 H 253.027 -3.34381 -1.94233 0
M  V30 2689 H 254.716 -3.6857 -1.70033 0
M  V30 2690 H 255.482 -4.82341 0.507167 0
M  V30 2691 H 251.361 -4.55807 -0.689994 0
M  V30 2692 H 254.905 -6.67107 2.03996 0
M  V30 2693 H 250.802 -6.40073 0.835266 0
M  V30 2694 H 251.57 -7.84844 2.32296 0
M  V30 2695 N 254.233 0.115231 -1.57178 0
M  V30 2696 C 255.461 0.836437 -1.89239 0
M  V30 2697 C 255.876 1.73256 -0.750175 0
M  V30 2698 O 255.233 1.80357 0.278832 0
M  V30 2699 C 255.284 1.66671 -3.20785 0
M  V30 2700 O 255.005 0.806652 -4.3061 0
M  V30 2701 C 256.506 2.49274 -3.66575 0
M  V30 2702 H 253.726 0.240253 -0.626514 0
M  V30 2703 H 256.27 0.0984932 -2.04263 0
M  V30 2704 H 254.425 2.35737 -3.0742 0
M  V30 2705 H 254.839 1.37969 -5.06028 0
M  V30 2706 H 256.313 3.03055 -4.6137 0
M  V30 2707 H 256.79 3.26807 -2.93417 0
M  V30 2708 H 257.396 1.85443 -3.82741 0
M  V30 2709 N 255.711 1.52812 0.385517 0
M  V30 2710 C 256.641 1.80808 1.47752 0
M  V30 2711 C 257.622 0.660318 1.5676 0
M  V30 2712 O 258.807 0.908246 1.71652 0
M  V30 2713 C 255.937 1.98008 2.85324 0
M  V30 2714 C 254.891 3.13709 2.91154 0
M  V30 2715 C 254.217 3.16169 4.31209 0
M  V30 2716 C 255.517 4.52709 2.60483 0
M  V30 2717 H 257.211 2.72253 1.24573 0
M  V30 2718 H 254.757 1.31003 0.597839 0
M  V30 2719 H 256.71 2.16176 3.61726 0
M  V30 2720 H 255.434 1.03255 3.09848 0
M  V30 2721 H 254.093 2.95329 2.17201 0
M  V30 2722 H 253.741 2.19092 4.52778 0
M  V30 2723 H 253.441 3.93894 4.36029 0
M  V30 2724 H 254.965 3.36496 5.09512 0
M  V30 2725 H 256.379 4.71173 3.26602 0
M  V30 2726 H 254.776 5.32528 2.76648 0
M  V30 2727 H 255.846 4.59186 1.55809 0
M  V30 2728 N 257.189 -0.644168 1.43834 0
M  V30 2729 C 258.438 -1.39985 1.45214 0
M  V30 2730 C 258.751 -1.95421 0.0835494 0
M  V30 2731 O 259.957 -2.71488 -0.0251748 0
M  V30 2732 C 258.413 -2.53384 2.55587 0
M  V30 2733 C 258.021 -2.04517 3.98594 0
M  V30 2734 C 259.765 -3.30685 2.66172 0
M  V30 2735 C 257.672 -3.1518 5.00416 0
M  V30 2736 H 256.602 -0.526005 0.540218 0
M  V30 2737 H 259.253 -0.694367 1.69855 0
M  V30 2738 H 257.635 -3.26446 2.24163 0
M  V30 2739 H 258.809 -1.38405 4.39523 0
M  V30 2740 H 257.124 -1.40068 3.92135 0
M  V30 2741 H 259.721 -4.13158 3.39418 0
M  V30 2742 H 260.064 -3.79312 1.71546 0
M  V30 2743 H 260.597 -2.64708 2.96942 0
M  V30 2744 H 257.336 -2.71511 5.96625 0
M  V30 2745 H 256.856 -3.79974 4.64091 0
M  V30 2746 H 258.535 -3.80166 5.23529 0
M  V30 2747 N 258.668 -1.30515 -0.883378 0
M  V30 2748 C 259.914 -1.19607 -1.63774 0
M  V30 2749 C 260.247 0.248314 -1.92606 0
M  V30 2750 O 259.522 1.17742 -1.54813 0
M  V30 2751 C 259.805 -2.02669 -2.97653 0
M  V30 2752 C 259.658 -3.55335 -2.75784 0
M  V30 2753 C 260.977 -1.86573 -3.98596 0
M  V30 2754 H 258.096 -0.435856 -0.594305 0
M  V30 2755 H 260.738 -1.60165 -1.02212 0
M  V30 2756 H 258.888 -1.68208 -3.50197 0
M  V30 2757 H 260.56 -3.99863 -2.30016 0
M  V30 2758 H 258.803 -3.79438 -2.1026 0
M  V30 2759 H 259.474 -4.08745 -3.70988 0
M  V30 2760 H 261.95 -2.16703 -3.55217 0
M  V30 2761 H 260.826 -2.47014 -4.90179 0
M  V30 2762 H 261.087 -0.825321 -4.34328 0
M  V30 2763 N 260.146 1.09593 -1.13257 0
M  V30 2764 C 261.562 1.33775 -0.870423 0
M  V30 2765 C 261.762 1.95327 0.494926 0
M  V30 2766 O 260.818 2.19853 1.2418 0
M  V30 2767 C 262.131 2.25106 -1.99369 0
M  V30 2768 C 263.679 2.3862 -2.02558 0
M  V30 2769 C 264.154 3.33285 -3.14142 0
M  V30 2770 N 265.645 3.40857 -3.13641 0
M  V30 2771 C 266.38 4.14101 -3.96621 0
M  V30 2772 N 265.876 4.90157 -4.8961 0
M  V30 2773 N 267.669 4.09808 -3.84726 0
M  V30 2774 H 259.82 0.680136 -2.01216 0
M  V30 2775 H 262.083 0.362133 -0.876107 0
M  V30 2776 H 261.789 1.87103 -2.97801 0
M  V30 2777 H 261.663 3.25481 -1.90635 0
M  V30 2778 H 264.05 2.75887 -1.0474 0
M  V30 2779 H 264.131 1.38028 -2.15364 0
M  V30 2780 H 263.775 2.96741 -4.12198 0
M  V30 2781 H 263.705 4.33776 -2.98574 0
M  V30 2782 H 266.196 2.86624 -2.46282 0
M  V30 2783 H 266.509 5.4347 -5.49418 0
M  V30 2784 H 264.854 4.89251 -4.93617 0
M  V30 2785 H 268.045 3.4949 -3.11408 0
M  V30 2786 H 268.218 4.66629 -4.49623 0
M  V30 2787 N 261.624 0.925811 1.2754 0
M  V30 2788 C 263.035 0.610102 1.7645 0
M  V30 2789 C 263.386 -0.874723 1.75622 0
M  V30 2790 O 262.511 -1.68444 1.35851 0
M  V30 2791 C 263.106 1.10073 3.20421 0
M  V30 2792 C 261.665 0.835723 3.67005 0
M  V30 2793 C 260.812 1.26054 2.46993 0
M  V30 2794 H 263.763 1.10579 1.13833 0
M  V30 2795 H 263.784 0.447557 3.77859 0
M  V30 2796 H 263.296 2.18143 3.20991 0
M  V30 2797 H 261.397 -0.231249 3.71882 0
M  V30 2798 H 261.51 1.45193 4.56569 0
M  V30 2799 H 259.874 0.679111 2.45479 0
M  V30 2800 H 260.657 2.34984 2.50275 0
M  V30 2801 N 263.102 -1.41638 0.69111 0
M  V30 2802 C 264.379 -1.95036 0.148421 0
M  V30 2803 C 264.759 -1.63072 -1.34055 0
M  V30 2804 O 264.107 -0.93538 -2.08478 0
M  V30 2805 C 264.317 -3.46279 0.434951 0
M  V30 2806 C 265.665 -4.23069 0.360275 0
M  V30 2807 O 266.689 -3.54277 0.369613 0
M  V30 2808 O 265.548 -5.45583 0.316534 0
M  V30 2809 H 262.642 -0.826908 0.0123654 0
M  V30 2810 H 265.188 -1.5138 0.766963 0
M  V30 2811 H 263.96 -3.6281 1.46576 0
M  V30 2812 H 263.583 -3.97019 -0.214787 0
M  V30 2813 N 264.58 -0.43555 -1.51462 0
M  V30 2814 C 265.528 0.391205 -2.29287 0
M  V30 2815 C 266.522 1.02247 -1.35062 0
M  V30 2816 O 267.728 0.957646 -1.52411 0
M  V30 2817 H 264.103 0.144968 -0.737895 0
M  V30 2818 H 266.074 -0.286051 -2.97026 0
M  V30 2819 C 264.823 1.48096 -3.14583 0
M  V30 2820 H 264.146 1.00457 -3.86973 0
M  V30 2821 H 265.586 2.03273 -3.72097 0
M  V30 2822 C 264.045 2.46321 -2.29843 0
M  V30 2823 O 264.575 3.50815 -1.95682 0
M  V30 2824 N 262.781 2.17166 -1.931 0
M  V30 2825 H 262.328 1.32218 -2.21079 0
M  V30 2826 H 262.286 2.83127 -1.36698 0
M  V30 2827 N 266.058 1.56714 -0.166846 0
M  V30 2828 C 267.286 2.0112 0.485644 0
M  V30 2829 C 267.701 1.04705 1.57106 0
M  V30 2830 O 267.058 0.0471923 1.82439 0
M  V30 2831 C 267.109 3.45361 1.06808 0
M  V30 2832 O 266.83 4.38092 0.0259995 0
M  V30 2833 C 268.331 4.05145 1.79924 0
M  V30 2834 H 265.551 0.65931 0.124704 0
M  V30 2835 H 268.095 2.02746 -0.267262 0
M  V30 2836 H 266.25 3.44524 1.7715 0
M  V30 2837 H 266.664 5.22519 0.455398 0
M  V30 2838 H 268.138 5.08009 2.15942 0
M  V30 2839 H 268.615 3.46982 2.69258 0
M  V30 2840 H 269.221 4.09672 1.14234 0
M  V30 2841 N 267.536 -0.106894 1.57237 0
M  V30 2842 C 268.766 -0.825191 1.89405 0
M  V30 2843 C 269.174 -1.73374 0.757496 0
M  V30 2844 O 268.517 -1.81552 -0.280115 0
M  V30 2845 C 268.579 -1.70102 3.1671 0
M  V30 2846 C 268.243 -0.965523 4.46684 0
M  V30 2847 C 269.24 -0.300741 5.19029 0
M  V30 2848 C 266.925 -0.943105 4.93367 0
M  V30 2849 C 268.919 0.376622 6.36286 0
M  V30 2850 C 266.606 -0.261949 6.10538 0
M  V30 2851 C 267.604 0.396748 6.81847 0
M  V30 2852 O 267.292 1.06701 7.96787 0
M  V30 2853 H 267.024 -0.241852 0.631255 0
M  V30 2854 H 269.578 -0.0921491 2.05193 0
M  V30 2855 H 267.808 -2.47601 2.97036 0
M  V30 2856 H 269.497 -2.29483 3.34802 0
M  V30 2857 H 270.263 -0.309599 4.84011 0
M  V30 2858 H 266.142 -1.44524 4.3776 0
M  V30 2859 H 269.686 0.891334 6.91882 0
M  V30 2860 H 265.583 -0.250896 6.45012 0
M  V30 2861 H 266.351 0.972707 8.127 0
M  V30 2862 N 269.014 -1.53014 -0.377408 0
M  V30 2863 C 269.924 -1.81557 -1.48574 0
M  V30 2864 C 270.94 -0.703102 -1.59162 0
M  V30 2865 O 272.116 -0.99192 -1.75279 0
M  V30 2866 C 269.181 -1.9889 -2.83978 0
M  V30 2867 C 268.242 -3.22801 -2.83016 0
M  V30 2868 C 267.475 -3.39298 -4.11962 0
M  V30 2869 O 267.698 -2.60345 -5.0752 0
M  V30 2870 O 266.632 -4.32604 -4.18494 0
M  V30 2871 H 270.458 -2.75695 -1.27382 0
M  V30 2872 H 268.043 -1.38248 -0.566373 0
M  V30 2873 H 269.925 -2.11931 -3.6423 0
M  V30 2874 H 268.6 -1.07942 -3.05172 0
M  V30 2875 H 267.507 -3.15193 -2.01505 0
M  V30 2876 H 268.84 -4.13632 -2.66775 0
M  V30 2877 N 270.492 0.636531 -1.44174 0
M  V30 2878 C 271.738 1.39826 -1.4689 0
M  V30 2879 C 272.071 1.93947 -0.0990585 0
M  V30 2880 O 271.346 1.73325 0.882544 0
M  V30 2881 C 271.629 2.56751 -2.5249 0
M  V30 2882 C 271.482 2.08014 -3.98811 0
M  V30 2883 C 272.801 3.58946 -2.54649 0
M  V30 2884 H 269.92 0.507075 -0.53483 0
M  V30 2885 H 272.562 0.720188 -1.75822 0
M  V30 2886 H 270.712 3.14597 -2.2795 0
M  V30 2887 H 272.384 1.5504 -4.34466 0
M  V30 2888 H 270.627 1.39242 -4.10846 0
M  V30 2889 H 271.298 2.92169 -4.68339 0
M  V30 2890 H 273.774 3.1089 -2.76563 0
M  V30 2891 H 272.65 4.38286 -3.3045 0
M  V30 2892 H 272.911 4.12655 -1.58646 0
M  V30 2893 N 271.97 1.30982 0.876444 0
M  V30 2894 C 272.917 1.18085 1.98304 0
M  V30 2895 C 273.887 0.0682263 1.6596 0
M  V30 2896 O 275.072 0.239937 1.89285 0
M  V30 2897 C 272.212 0.887475 3.33493 0
M  V30 2898 C 271.325 2.08281 3.78475 0
M  V30 2899 C 270.46 1.72678 5.0235 0
M  V30 2900 C 269.499 2.88657 5.39762 0
M  V30 2901 N 268.636 2.53292 6.54819 0
M  V30 2902 H 273.476 2.1275 2.08666 0
M  V30 2903 H 271.013 1.05839 1.02159 0
M  V30 2904 H 272.971 0.697961 4.1132 0
M  V30 2905 H 271.601 -0.022315 3.22792 0
M  V30 2906 H 270.653 2.3833 2.96484 0
M  V30 2907 H 271.965 2.95108 4.02135 0
M  V30 2908 H 271.119 1.50151 5.87826 0
M  V30 2909 H 269.858 0.830327 4.8058 0
M  V30 2910 H 268.863 3.1184 4.52809 0
M  V30 2911 H 270.088 3.79002 5.63502 0
M  V30 2912 H 268.034 1.66163 6.34607 0
M  V30 2913 H 267.951 3.3365 6.7839 0
M  V30 2914 H 269.219 2.34143 7.43503 0
M  V30 2915 N 273.449 -1.08991 1.13837 0
M  V30 2916 C 274.698 -1.80631 0.897509 0
M  V30 2917 C 275.011 -1.86872 -0.57777 0
M  V30 2918 O 276.217 -2.54866 -0.935701 0
M  V30 2919 C 274.673 -3.24517 1.55618 0
M  V30 2920 C 274.281 -3.26529 3.0673 0
M  V30 2921 C 276.025 -4.00882 1.3962 0
M  V30 2922 C 273.932 -4.64965 3.65461 0
M  V30 2923 H 272.862 -0.67691 0.332129 0
M  V30 2924 H 275.513 -1.2246 1.3666 0
M  V30 2925 H 273.895 -3.82778 1.01476 0
M  V30 2926 H 275.069 -2.78008 3.67489 0
M  V30 2927 H 273.384 -2.63656 3.22296 0
M  V30 2928 H 275.981 -5.03167 1.80906 0
M  V30 2929 H 276.324 -4.14896 0.341578 0
M  V30 2930 H 276.857 -3.49075 1.90766 0
M  V30 2931 H 273.596 -4.56153 4.70749 0
M  V30 2932 H 273.116 -5.13792 3.09481 0
M  V30 2933 H 274.795 -5.3394 3.654 0
M  V30 2934 N 274.927 -0.932562 -1.27047 0
M  V30 2935 C 276.204 -0.49377 -1.89265 0
M  V30 2936 C 276.584 1.02833 -1.8436 0
M  V30 2937 O 275.932 1.88461 -1.29209 0
M  V30 2938 C 276.142 -1.04536 -3.32976 0
M  V30 2939 C 277.49 -1.10879 -4.09867 0
M  V30 2940 O 278.514 -0.995327 -3.42011 0
M  V30 2941 O 277.373 -1.28417 -5.31198 0
M  V30 2942 H 274.467 -0.159596 -0.811454 0
M  V30 2943 H 277.013 -1.02457 -1.3528 0
M  V30 2944 H 275.785 -2.08913 -3.30864 0
M  V30 2945 H 275.408 -0.496494 -3.94488 0
M  V30 2946 N 276.405 1.4127 -0.698611 0
M  V30 2947 C 277.353 2.32588 -0.023855 0
M  V30 2948 C 278.347 1.51128 0.765292 0
M  V30 2949 O 279.553 1.67043 0.670571 0
M  V30 2950 H 275.928 0.751918 0.0110871 0
M  V30 2951 H 277.899 2.87167 -0.811031 0
M  V30 2952 C 276.648 3.35947 0.896369 0
M  V30 2953 H 275.971 3.98684 0.298548 0
M  V30 2954 H 277.411 4.02376 1.33676 0
M  V30 2955 C 275.87 2.70076 2.01396 0
M  V30 2956 O 276.4 2.55093 3.10307 0
M  V30 2957 N 274.606 2.28724 1.79259 0
M  V30 2958 H 274.153 2.4111 0.906841 0
M  V30 2959 H 274.111 1.84986 2.54219 0
M  V30 2960 N 277.883 0.443576 1.51229 0
M  V30 2961 C 279.108 -0.121648 2.07043 0
M  V30 2962 C 279.533 -1.35156 1.30823 0
M  V30 2963 O 278.891 -1.7793 0.347934 0
M  V30 2964 C 278.939 -0.41624 3.5819 0
M  V30 2965 O 278.043 -1.50163 3.8409 0
M  V30 2966 H 277.384 0.000871367 0.663999 0
M  V30 2967 H 279.914 0.626706 1.94765 0
M  V30 2968 H 279.924 -0.664867 4.02546 0
M  V30 2969 H 278.599 0.482653 4.1309 0
M  V30 2970 H 277.176 -1.24248 3.51592 0
M  V30 2971 N 279.361 -1.56624 0.175154 0
M  V30 2972 C 280.293 -2.15333 -0.785128 0
M  V30 2973 C 281.306 -1.1099 -1.19101 0
M  V30 2974 O 282.495 -1.38162 -1.13019 0
M  V30 2975 C 279.595 -2.68427 -2.06882 0
M  V30 2976 C 278.768 -3.97466 -1.8259 0
M  V30 2977 C 277.827 -4.35585 -2.95215 0
M  V30 2978 O 276.853 -5.03389 -2.65684 0
M  V30 2979 N 278.055 -3.97457 -4.23094 0
M  V30 2980 H 280.82 -2.98359 -0.283187 0
M  V30 2981 H 278.381 -1.61898 -0.00749817 0
M  V30 2982 H 280.373 -2.90924 -2.81328 0
M  V30 2983 H 278.943 -1.89968 -2.48256 0
M  V30 2984 H 278.163 -3.83307 -0.920287 0
M  V30 2985 H 279.451 -4.81736 -1.63733 0
M  V30 2986 H 278.849 -3.42878 -4.49945 0
M  V30 2987 H 277.406 -4.24947 -4.9423 0
M  V30 2988 N 280.839 0.0985539 -1.57292 0
M  V30 2989 C 282.085 0.803867 -1.86188 0
M  V30 2990 C 282.418 1.78549 -0.763794 0
M  V30 2991 O 281.693 1.93153 0.22855 0
M  V30 2992 C 281.976 1.53568 -3.25713 0
M  V30 2993 C 281.829 0.572277 -4.46145 0
M  V30 2994 C 283.148 2.48708 -3.63087 0
M  V30 2995 H 280.267 0.290781 -0.677211 0
M  V30 2996 H 282.909 0.0675783 -1.8988 0
M  V30 2997 H 281.059 2.16332 -3.22696 0
M  V30 2998 H 282.731 -0.0480894 -4.61275 0
M  V30 2999 H 280.974 -0.114618 -4.33649 0
M  V30 3000 H 281.645 1.12139 -5.40489 0
M  V30 3001 H 284.121 1.96039 -3.67026 0
M  V30 3002 H 282.997 2.96932 -4.61652 0
M  V30 3003 H 283.258 3.32309 -2.91588 0
M  V30 3004 N 282.317 1.53212 0.369288 0
M  V30 3005 C 283.227 1.82342 1.47609 0
M  V30 3006 C 284.243 0.711532 1.58787 0
M  V30 3007 O 285.419 1.0012 1.74751 0
M  V30 3008 C 282.484 2.00393 2.8292 0
M  V30 3009 C 281.545 3.24297 2.81301 0
M  V30 3010 C 280.778 3.41478 4.10157 0
M  V30 3011 O 281.001 2.63033 5.06132 0
M  V30 3012 O 279.935 4.34817 4.16194 0
M  V30 3013 H 283.761 2.76366 1.25918 0
M  V30 3014 H 281.346 1.38547 0.559034 0
M  V30 3015 H 283.228 2.13859 3.63101 0
M  V30 3016 H 281.903 1.09559 3.04596 0
M  V30 3017 H 280.81 3.16257 1.99831 0
M  V30 3018 H 282.143 4.15041 2.64578 0
M  V30 3019 N 283.795 -0.628877 1.44509 0
M  V30 3020 C 285.02 -1.42048 1.5112 0
M  V30 3021 C 285.445 -1.87594 0.137818 0
M  V30 3022 O 284.803 -1.58873 -0.873437 0
M  V30 3023 C 284.851 -2.61541 2.48251 0
M  V30 3024 O 283.955 -3.61453 1.98559 0
M  V30 3025 H 283.296 -0.424942 0.510216 0
M  V30 3026 H 285.826 -0.767374 1.89664 0
M  V30 3027 H 285.836 -3.09057 2.66361 0
M  V30 3028 H 284.511 -2.27736 3.48007 0
M  V30 3029 H 283.088 -3.20731 1.90227 0
M  V30 3030 N 285.273 -1.31445 -0.869486 0
M  V30 3031 C 286.521 -1.20918 -1.61936 0
M  V30 3032 C 286.842 0.232683 -1.93607 0
M  V30 3033 O 286.112 1.15352 -1.58338 0
M  V30 3034 H 284.692 -0.44454 -0.600328 0
M  V30 3035 H 287.354 -1.64776 -1.0409 0
M  V30 3036 H 286.45 -1.78124 -2.56278 0
M  V30 3037 N 286.751 1.08385 -1.14413 0
M  V30 3038 C 287.976 1.85057 -0.936413 0
M  V30 3039 C 288.401 1.81055 0.509971 0
M  V30 3040 O 287.759 1.1958 1.36273 0
M  V30 3041 C 287.807 3.30505 -1.44217 0
M  V30 3042 O 286.911 4.07491 -0.634409 0
M  V30 3043 H 286.252 0.573425 -0.334784 0
M  V30 3044 H 288.782 1.36799 -1.52142 0
M  V30 3045 H 288.792 3.81348 -1.45043 0
M  V30 3046 H 287.467 3.32734 -2.49522 0
M  V30 3047 H 286.044 3.66368 -0.694902 0
M  V30 3048 N 288.23 0.939286 1.26551 0
M  V30 3049 C 289.16 0.465044 2.28822 0
M  V30 3050 C 290.141 -0.480692 1.63167 0
M  V30 3051 O 291.326 -0.382955 1.90387 0
M  V30 3052 C 288.456 -0.27234 3.46231 0
M  V30 3053 C 287.41 0.58666 4.2396 0
M  V30 3054 C 286.736 -0.280573 5.33963 0
M  V30 3055 C 288.036 1.85704 4.88171 0
M  V30 3056 H 289.73 1.31979 2.68741 0
M  V30 3057 H 287.276 0.636061 1.29191 0
M  V30 3058 H 289.229 -0.615133 4.16886 0
M  V30 3059 H 287.953 -1.16121 3.0526 0
M  V30 3060 H 286.612 0.91232 3.55067 0
M  V30 3061 H 286.26 -1.16874 4.89234 0
M  V30 3062 H 285.96 0.29076 5.8688 0
M  V30 3063 H 287.484 -0.618678 6.07458 0
M  V30 3064 H 288.898 1.58161 5.51052 0
M  V30 3065 H 287.295 2.37279 5.51197 0
M  V30 3066 H 288.365 2.56957 4.11219 0
M  V30 3067 N 289.708 -1.40897 0.706093 0
M  V30 3068 C 290.618 -2.3455 0.0482286 0
M  V30 3069 C 291.634 -1.56796 -0.754396 0
M  V30 3070 O 292.81 -1.89228 -0.689538 0
M  V30 3071 C 289.875 -3.35625 -0.869303 0
M  V30 3072 C 288.936 -4.29261 -0.0576994 0
M  V30 3073 C 288.169 -5.25508 -0.931531 0
M  V30 3074 O 288.392 -5.27472 -2.17092 0
M  V30 3075 O 287.326 -6.00727 -0.375587 0
M  V30 3076 H 291.152 -2.92407 0.820476 0
M  V30 3077 H 288.737 -1.4193 0.4665 0
M  V30 3078 H 290.619 -3.97635 -1.39514 0
M  V30 3079 H 289.294 -2.80196 -1.62086 0
M  V30 3080 H 288.201 -3.70566 0.512988 0
M  V30 3081 H 289.534 -4.87817 0.655426 0
M  V30 3082 N 291.186 -0.45159 -1.50991 0
M  V30 3083 C 292.463 0.170707 -1.94854 0
M  V30 3084 C 292.843 1.58788 -1.39103 0
M  V30 3085 O 292.191 2.20913 -0.583921 0
M  V30 3086 C 292.401 0.133929 -3.48743 0
M  V30 3087 C 293.749 0.33248 -4.23296 0
M  V30 3088 O 294.773 0.211403 -3.55572 0
M  V30 3089 O 293.632 0.57486 -5.43468 0
M  V30 3090 H 290.726 0.122264 -0.817912 0
M  V30 3091 H 293.272 -0.510594 -1.61836 0
M  V30 3092 H 292.044 -0.856283 -3.81816 0
M  V30 3093 H 291.667 0.857529 -3.88242 0
M  V30 3094 N 292.664 1.56529 -0.183458 0
M  V30 3095 C 293.941 1.88959 0.50536 0
M  V30 3096 C 294.321 1.09523 1.80466 0
M  V30 3097 O 293.669 0.19278 2.27685 0
M  V30 3098 C 293.879 3.41162 0.73547 0
M  V30 3099 C 295.227 4.11155 1.06005 0
M  V30 3100 O 296.251 3.46548 0.823594 0
M  V30 3101 O 295.11 5.25318 1.50675 0
M  V30 3102 H 292.204 0.78441 0.261973 0
M  V30 3103 H 294.75 1.68231 -0.222802 0
M  V30 3104 H 293.522 3.90874 -0.182561 0
M  V30 3105 H 293.145 3.67543 1.51651 0
M  V30 3106 N 294.142 -0.090211 1.57342 0
M  V30 3107 C 295.388 -0.788838 1.8748 0
M  V30 3108 C 295.743 -1.76105 0.7749 0
M  V30 3109 O 295.036 -1.90302 -0.222663 0
M  V30 3110 C 295.23 -1.55222 3.21933 0
M  V30 3111 C 295.059 -0.655441 4.44898 0
M  V30 3112 C 293.829 -0.299325 5.04413 0
M  V30 3113 C 296.027 0.0397458 5.14285 0
M  V30 3114 N 294.009 0.605108 6.10911 0
M  V30 3115 C 295.38 0.802061 6.1479 0
M  V30 3116 C 297.435 0.113154 4.97771 0
M  V30 3117 C 296.138 1.63093 7.00566 0
M  V30 3118 C 298.164 0.928942 5.84059 0
M  V30 3119 C 297.526 1.67936 6.84088 0
M  V30 3120 H 293.625 -0.26467 0.735849 0
M  V30 3121 H 296.209 -0.0511453 1.94633 0
M  V30 3122 H 294.38 -2.26076 3.15823 0
M  V30 3123 H 296.112 -2.19843 3.39781 0
M  V30 3124 H 292.867 -0.648079 4.69145 0
M  V30 3125 H 293.291 1.05002 6.68808 0
M  V30 3126 H 297.933 -0.452676 4.2037 0
M  V30 3127 H 295.651 2.20781 7.77355 0
M  V30 3128 H 299.237 0.988478 5.73341 0
M  V30 3129 H 298.117 2.30044 7.49699 0
M  V30 3130 N 295.62 -1.53406 -0.361157 0
M  V30 3131 C 296.897 -1.60411 -1.11927 0
M  V30 3132 C 297.277 -0.414385 -2.06993 0
M  V30 3133 O 296.625 0.594976 -2.20618 0
M  V30 3134 C 296.835 -2.95652 -1.85448 0
M  V30 3135 C 298.183 -3.50386 -2.39823 0
M  V30 3136 O 299.207 -2.97711 -1.95568 0
M  V30 3137 O 298.066 -4.42482 -3.20737 0
M  V30 3138 H 295.16 -0.64811 -0.513695 0
M  V30 3139 H 297.706 -1.65749 -0.364065 0
M  V30 3140 H 296.478 -3.73682 -1.16091 0
M  V30 3141 H 296.101 -2.93825 -2.67866 0
M  V30 3142 N 297.098 0.621204 -1.44841 0
M  V30 3143 C 298.345 1.38055 -1.48145 0
M  V30 3144 C 298.673 1.94143 -0.117867 0
M  V30 3145 O 297.928 1.74713 0.881694 0
M  V30 3146 C 298.227 2.55675 -2.4973 0
M  V30 3147 C 297.893 2.17817 -3.94799 0
M  V30 3148 C 296.555 2.07205 -4.34303 0
M  V30 3149 C 298.907 1.88065 -4.86087 0
M  V30 3150 C 296.235 1.65045 -5.63007 0
M  V30 3151 C 298.587 1.47394 -6.15189 0
M  V30 3152 C 297.251 1.35331 -6.53637 0
M  V30 3153 H 296.521 0.505181 -0.542101 0
M  V30 3154 H 299.168 0.703477 -1.78111 0
M  V30 3155 H 297.473 3.2866 -2.13284 0
M  V30 3156 H 299.17 3.13904 -2.4953 0
M  V30 3157 H 295.76 2.26998 -3.63552 0
M  V30 3158 H 299.944 1.95168 -4.56315 0
M  V30 3159 H 295.2 1.54317 -5.91605 0
M  V30 3160 H 299.374 1.23415 -6.85377 0
M  V30 3161 H 297.001 1.02435 -7.53267 0
M  V30 3162 N 298.576 1.31904 0.862503 0
M  V30 3163 C 299.506 1.22782 1.98612 0
M  V30 3164 C 300.487 0.113362 1.69722 0
M  V30 3165 O 301.672 0.299218 1.91881 0
M  V30 3166 C 298.802 0.942058 3.34279 0
M  V30 3167 C 297.756 2.0169 3.77499 0
M  V30 3168 C 297.082 1.58369 5.10709 0
M  V30 3169 C 298.382 3.43096 3.93805 0
M  V30 3170 H 300.076 2.16788 2.06502 0
M  V30 3171 H 297.622 1.04366 0.992154 0
M  V30 3172 H 299.575 0.864818 4.1243 0
M  V30 3173 H 298.299 -0.0336603 3.26583 0
M  V30 3174 H 296.958 2.08416 3.01593 0
M  V30 3175 H 296.606 0.595628 4.99461 0
M  V30 3176 H 296.306 2.30279 5.40597 0
M  V30 3177 H 297.83 1.52067 5.91361 0
M  V30 3178 H 299.244 3.39003 4.62331 0
M  V30 3179 H 297.641 4.13288 4.35101 0
M  V30 3180 H 298.711 3.83334 2.96957 0
M  V30 3181 N 300.054 -1.07777 1.14986 0
M  V30 3182 C 301.465 -1.61766 0.932127 0
M  V30 3183 C 301.816 -1.88974 -0.527581 0
M  V30 3184 O 300.941 -1.65198 -1.39781 0
M  V30 3185 C 301.536 -2.93891 1.68563 0
M  V30 3186 C 300.095 -3.44639 1.5133 0
M  V30 3187 C 299.242 -2.18767 1.704 0
M  V30 3188 H 302.193 -0.909201 1.30074 0
M  V30 3189 H 302.214 -3.62623 1.15259 0
M  V30 3190 H 301.726 -2.74057 2.74799 0
M  V30 3191 H 299.827 -3.69564 0.474702 0
M  V30 3192 H 299.94 -4.20966 2.28746 0
M  V30 3193 H 298.304 -2.28253 1.13016 0
M  V30 3194 H 299.087 -2.01433 2.77992 0
M  V30 3195 N 301.532 -0.945985 -1.26051 0
M  V30 3196 C 302.943 -0.638096 -1.75457 0
M  V30 3197 C 303.294 0.846672 -1.76991 0
M  V30 3198 O 302.419 1.66262 -1.38513 0
M  V30 3199 C 303.014 -1.15157 -3.18629 0
M  V30 3200 C 301.573 -0.894004 -3.65629 0
M  V30 3201 C 300.72 -1.29967 -2.44957 0
M  V30 3202 H 303.671 -1.12376 -1.1206 0
M  V30 3203 H 303.692 -0.507615 -3.77099 0
M  V30 3204 H 303.204 -2.23222 -3.1748 0
M  V30 3205 H 301.305 0.172057 -3.72203 0
M  V30 3206 H 301.418 -1.52439 -4.54202 0
M  V30 3207 H 299.782 -0.718078 -2.44368 0
M  V30 3208 H 300.565 -2.38935 -2.46505 0
M  V30 3209 N 303.011 1.40521 -0.713556 0
M  V30 3210 C 303.958 2.30723 -0.059684 0
M  V30 3211 C 304.928 1.48079 0.752448 0
M  V30 3212 O 306.113 1.76823 0.71681 0
M  V30 3213 C 303.253 3.34274 0.857594 0
M  V30 3214 C 302.366 4.31986 0.0351536 0
M  V30 3215 C 301.501 5.22605 0.951724 0
M  V30 3216 C 300.54 6.11976 0.123253 0
M  V30 3217 N 299.677 6.9502 0.99459 0
M  V30 3218 H 304.517 2.86074 -0.834596 0
M  V30 3219 H 302.054 1.40879 -0.42326 0
M  V30 3220 H 304.012 3.92879 1.40364 0
M  V30 3221 H 302.642 2.8043 1.59871 0
M  V30 3222 H 301.694 3.7518 -0.628052 0
M  V30 3223 H 303.006 4.95101 -0.606347 0
M  V30 3224 H 302.16 5.86131 1.56638 0
M  V30 3225 H 300.899 4.59759 1.62705 0
M  V30 3226 H 299.904 5.47482 -0.50435 0
M  V30 3227 H 301.129 6.76881 -0.548539 0
M  V30 3228 H 299.075 6.34764 1.6556 0
M  V30 3229 H 298.992 7.54892 0.40908 0
M  V30 3230 H 300.26 7.62997 1.59549 0
M  V30 3231 N 304.489 0.459591 1.5075 0
M  V30 3232 C 305.436 -0.340524 2.28274 0
M  V30 3233 C 306.406 -0.997371 1.32822 0
M  V30 3234 O 307.591 -1.01202 1.61749 0
M  V30 3235 C 304.731 -1.42317 3.14388 0
M  V30 3236 C 303.844 -0.782251 4.24859 0
M  V30 3237 C 302.979 -1.84182 4.98247 0
M  V30 3238 C 302.018 -1.18053 6.00608 0
M  V30 3239 N 301.155 -2.18244 6.67319 0
M  V30 3240 H 305.995 0.326899 2.96202 0
M  V30 3241 H 303.532 0.173057 1.46078 0
M  V30 3242 H 305.49 -2.06241 3.62658 0
M  V30 3243 H 304.12 -2.05992 2.4853 0
M  V30 3244 H 303.172 -0.0307404 3.80388 0
M  V30 3245 H 304.484 -0.259663 4.98124 0
M  V30 3246 H 303.638 -2.55714 5.50177 0
M  V30 3247 H 302.377 -2.39819 4.24662 0
M  V30 3248 H 301.382 -0.450776 5.47949 0
M  V30 3249 H 302.607 -0.631202 6.7616 0
M  V30 3250 H 300.553 -2.72919 5.96533 0
M  V30 3251 H 300.47 -1.70938 7.36421 0
M  V30 3252 H 301.738 -2.89191 7.23871 0
M  V30 3253 N 305.967 -1.56429 0.191757 0
M  V30 3254 C 307.216 -1.9666 -0.448088 0
M  V30 3255 C 307.529 -1.08136 -1.62991 0
M  V30 3256 O 308.735 -1.38135 -2.33733 0
M  V30 3257 C 307.191 -3.49753 -0.848585 0
M  V30 3258 C 306.799 -4.46935 0.308764 0
M  V30 3259 C 308.543 -3.9876 -1.4557 0
M  V30 3260 C 306.45 -5.91293 -0.112506 0
M  V30 3261 H 305.38 -0.734312 -0.171179 0
M  V30 3262 H 308.031 -1.81301 0.283242 0
M  V30 3263 H 306.413 -3.60604 -1.63649 0
M  V30 3264 H 307.587 -4.47813 1.08627 0
M  V30 3265 H 305.902 -4.08102 0.827158 0
M  V30 3266 H 308.499 -5.04086 -1.78328 0
M  V30 3267 H 308.842 -3.42875 -2.36099 0
M  V30 3268 H 309.375 -3.9101 -0.731836 0
M  V30 3269 H 306.114 -6.51097 0.758514 0
M  V30 3270 H 305.634 -5.93676 -0.854941 0
M  V30 3271 H 307.313 -6.44663 -0.549448 0
M  V30 3272 N 307.445 0.0818655 -1.57387 0
M  V30 3273 C 308.392 1.09834 -2.0299 0
M  V30 3274 C 309.362 1.39043 -0.908639 0
M  V30 3275 O 310.547 1.50282 -1.17559 0
M  V30 3276 C 307.687 2.40971 -2.47037 0
M  V30 3277 C 306.8 2.18379 -3.7274 0
M  V30 3278 C 305.935 3.43008 -4.0561 0
M  V30 3279 C 304.974 3.15736 -5.24383 0
M  V30 3280 N 304.111 4.32667 -5.52941 0
M  V30 3281 H 308.951 0.702472 -2.89602 0
M  V30 3282 H 306.488 0.33531 -1.43227 0
M  V30 3283 H 308.446 3.1752 -2.70623 0
M  V30 3284 H 307.076 2.78379 -1.63417 0
M  V30 3285 H 306.128 1.32569 -3.56552 0
M  V30 3286 H 307.44 1.94227 -4.59431 0
M  V30 3287 H 306.594 4.27958 -4.30043 0
M  V30 3288 H 305.333 3.70225 -3.17466 0
M  V30 3289 H 304.338 2.2918 -4.99757 0
M  V30 3290 H 305.563 2.8985 -6.14136 0
M  V30 3291 H 303.509 4.59935 -4.67756 0
M  V30 3292 H 303.426 4.11753 -6.34031 0
M  V30 3293 H 304.694 5.18644 -5.81918 0
M  V30 3294 N 308.923 1.53595 0.353017 0
M  V30 3295 C 310.2 1.61002 1.11075 0
M  V30 3296 C 310.58 0.425356 2.0677 0
M  V30 3297 O 309.928 -0.583267 2.2093 0
M  V30 3298 C 310.138 2.96631 1.83877 0
M  V30 3299 C 311.486 3.51653 2.37961 0
M  V30 3300 O 312.51 2.98743 1.93987 0
M  V30 3301 O 311.369 4.44177 3.18386 0
M  V30 3302 H 308.463 0.650825 0.510251 0
M  V30 3303 H 311.009 1.6594 0.35527 0
M  V30 3304 H 309.781 3.74293 1.14108 0
M  V30 3305 H 309.404 2.95242 2.66304 0
M  V30 3306 N 310.401 -0.613514 1.45168 0
M  V30 3307 C 311.812 -1.19539 1.43413 0
M  V30 3308 C 312.163 -1.95558 0.158632 0
M  V30 3309 O 311.288 -2.0335 -0.740119 0
M  V30 3310 C 311.883 -2.17445 2.59813 0
M  V30 3311 C 310.442 -2.71022 2.61197 0
M  V30 3312 C 309.589 -1.46323 2.35552 0
M  V30 3313 H 312.54 -0.403163 1.53494 0
M  V30 3314 H 312.561 -3.00373 2.33574 0
M  V30 3315 H 312.073 -1.62089 3.52631 0
M  V30 3316 H 310.174 -3.30332 1.7237 0
M  V30 3317 H 310.287 -3.15859 3.60236 0
M  V30 3318 H 308.651 -1.75072 1.84992 0
M  V30 3319 H 309.434 -0.92844 3.30507 0
M  V30 3320 N 311.879 -1.3236 -0.855495 0
M  V30 3321 C 313.156 -1.13491 -1.59309 0
M  V30 3322 C 313.536 0.30503 -2.08885 0
M  V30 3323 O 312.884 1.30151 -1.87811 0
M  V30 3324 C 313.094 -2.16176 -2.73987 0
M  V30 3325 C 314.442 -2.49463 -3.43589 0
M  V30 3326 O 315.466 -2.14715 -2.84211 0
M  V30 3327 O 314.325 -3.09027 -4.50738 0
M  V30 3328 H 311.419 -0.437887 -0.701559 0
M  V30 3329 H 313.965 -1.43887 -0.899696 0
M  V30 3330 H 312.737 -3.1297 -2.34873 0
M  V30 3331 H 312.36 -1.86769 -3.51003 0
M  V30 3332 N 313.357 1.07166 -1.15556 0
M  V30 3333 C 314.32 2.12589 -0.856644 0
M  V30 3334 C 315.32 1.6015 0.14444 0
M  V30 3335 O 316.51 1.7399 -0.0854163 0
M  V30 3336 C 313.642 3.39753 -0.279405 0
M  V30 3337 H 314.835 2.40539 -1.79112 0
M  V30 3338 H 312.388 1.23086 -0.963298 0
M  V30 3339 H 313.123 3.17447 0.663174 0
M  V30 3340 H 312.908 3.79117 -1.00063 0
M  V30 3341 H 314.398 4.17507 -0.0879113 0
M  V30 3342 N 314.835 0.952656 1.25548 0
M  V30 3343 C 316.06 0.623025 1.97821 0
M  V30 3344 C 316.485 -0.7976 1.70352 0
M  V30 3345 O 315.843 -1.53905 0.958283 0
M  V30 3346 C 315.891 0.885532 3.49558 0
M  V30 3347 O 314.995 -0.0366641 4.12384 0
M  V30 3348 H 314.336 0.237082 0.620232 0
M  V30 3349 H 316.866 1.27871 1.59719 0
M  V30 3350 H 316.876 0.811009 3.99858 0
M  V30 3351 H 315.551 1.92094 3.6888 0
M  V30 3352 H 314.128 0.0898954 3.72792 0
M  V30 3353 N 316.313 -1.40141 0.720998 0
M  V30 3354 C 317.26 -2.30688 0.071919 0
M  V30 3355 C 318.23 -1.48476 -0.744584 0
M  V30 3356 O 319.415 -1.77201 -0.707423 0
M  V30 3357 C 316.555 -3.34724 -0.839855 0
M  V30 3358 C 315.668 -4.31998 -0.0122438 0
M  V30 3359 C 314.803 -5.23102 -0.923995 0
M  V30 3360 C 313.842 -6.12033 -0.0907969 0
M  V30 3361 N 312.979 -6.95537 -0.957718 0
M  V30 3362 H 317.819 -2.85628 0.849755 0
M  V30 3363 H 315.356 -1.40653 0.430726 0
M  V30 3364 H 317.314 -3.93618 -1.38279 0
M  V30 3365 H 315.944 -2.81274 -1.58381 0
M  V30 3366 H 314.996 -3.74841 0.64794 0
M  V30 3367 H 316.308 -4.94772 0.632595 0
M  V30 3368 H 315.462 -5.86953 -1.53527 0
M  V30 3369 H 314.201 -4.60615 -1.60264 0
M  V30 3370 H 313.206 -5.47207 0.533377 0
M  V30 3371 H 314.431 -6.76581 0.584428 0
M  V30 3372 H 312.377 -6.35633 -1.62192 0
M  V30 3373 H 312.294 -7.55099 -0.36904 0
M  V30 3374 H 313.562 -7.63832 -1.555 0
M  V30 3375 N 317.792 -0.46758 -1.50504 0
M  V30 3376 C 319.203 -0.0116166 -1.86696 0
M  V30 3377 C 319.554 1.39202 -1.38265 0
M  V30 3378 O 318.679 2.0313 -0.746132 0
M  V30 3379 C 319.274 -0.0143044 -3.38797 0
M  V30 3380 C 317.833 0.386175 -3.74414 0
M  V30 3381 C 316.98 -0.401287 -2.74381 0
M  V30 3382 H 319.931 -0.682022 -1.43297 0
M  V30 3383 H 319.952 0.788641 -3.72237 0
M  V30 3384 H 319.464 -1.03602 -3.74016 0
M  V30 3385 H 317.565 1.41237 -3.44794 0
M  V30 3386 H 317.678 0.0899596 -4.79016 0
M  V30 3387 H 316.042 0.144536 -2.5429 0
M  V30 3388 H 316.825 -1.42244 -3.12444 0
M  V30 3389 N 319.27 1.56325 -0.20005 0
M  V30 3390 C 320.18 2.22931 0.730668 0
M  V30 3391 C 321.196 1.22997 1.23076 0
M  V30 3392 O 322.372 1.55748 1.27689 0
M  V30 3393 C 319.437 2.87948 1.93098 0
M  V30 3394 C 318.498 4.03166 1.47497 0
M  V30 3395 C 317.731 4.65073 2.61807 0
M  V30 3396 O 317.954 4.25913 3.79413 0
M  V30 3397 O 316.888 5.54452 2.34237 0
M  V30 3398 H 320.714 3.03084 0.193391 0
M  V30 3399 H 318.299 1.49371 0.0294621 0
M  V30 3400 H 320.181 3.29063 2.6324 0
M  V30 3401 H 318.856 2.10771 2.45677 0
M  V30 3402 H 317.763 3.66664 0.742201 0
M  V30 3403 H 319.096 4.82022 0.995796 0
M  V30 3404 N 320.748 -0.0735177 1.57428 0
M  V30 3405 C 322.025 -0.805903 1.78226 0
M  V30 3406 C 322.405 -1.95874 0.787189 0
M  V30 3407 O 321.753 -2.2779 -0.180029 0
M  V30 3408 C 321.963 -1.28045 3.24662 0
M  V30 3409 C 323.311 -1.71453 3.88444 0
M  V30 3410 O 324.335 -1.37616 3.28543 0
M  V30 3411 O 323.194 -2.34093 4.93825 0
M  V30 3412 H 320.288 -0.386041 0.73137 0
M  V30 3413 H 322.834 -0.0537269 1.69615 0
M  V30 3414 H 321.606 -0.455476 3.8864 0
M  V30 3415 H 321.229 -2.094 3.37991 0
M  V30 3416 N 322.226 -1.5378 -0.344866 0
M  V30 3417 C 323.472 -1.72158 -1.0832 0
M  V30 3418 C 323.827 -0.478218 -1.86362 0
M  V30 3419 O 323.12 0.529152 -1.84148 0
M  V30 3420 C 323.314 -2.92407 -2.05506 0
M  V30 3421 C 323.143 -4.28318 -1.37017 0
M  V30 3422 C 321.913 -4.92832 -1.11558 0
M  V30 3423 C 324.111 -5.08086 -0.797071 0
M  V30 3424 N 322.093 -6.12619 -0.396358 0
M  V30 3425 C 323.464 -6.1965 -0.208336 0
M  V30 3426 C 325.519 -4.92986 -0.697787 0
M  V30 3427 C 324.222 -7.17763 0.470023 0
M  V30 3428 C 326.248 -5.91391 -0.033171 0
M  V30 3429 C 325.61 -7.02292 0.544599 0
M  V30 3430 H 321.709 -0.683017 -0.380805 0
M  V30 3431 H 324.293 -1.91211 -0.366961 0
M  V30 3432 H 322.464 -2.74857 -2.74423 0
M  V30 3433 H 324.196 -2.9951 -2.72169 0
M  V30 3434 H 320.951 -4.52362 -1.40234 0
M  V30 3435 H 321.375 -6.7698 -0.0515119 0
M  V30 3436 H 326.017 -4.07414 -1.13022 0
M  V30 3437 H 323.735 -8.0291 0.914351 0
M  V30 3438 H 327.321 -5.81784 0.0430009 0
M  V30 3439 H 326.201 -7.77129 1.05073 0
M  V30 3440 N 323.704 0.605807 -1.45491 0
M  V30 3441 C 324.981 1.36522 -1.40075 0
M  V30 3442 C 325.361 2.10976 -0.0722744 0
M  V30 3443 O 324.709 2.08007 0.945808 0
M  V30 3444 C 324.919 2.31056 -2.61561 0
M  V30 3445 C 326.267 2.93608 -3.06724 0
M  V30 3446 O 327.291 2.41376 -2.61946 0
M  V30 3447 O 326.15 3.88421 -3.84437 0
M  V30 3448 H 323.244 0.612248 -0.555951 0
M  V30 3449 H 325.79 0.628747 -1.57623 0
M  V30 3450 H 324.562 1.75311 -3.49831 0
M  V30 3451 H 324.185 3.12081 -2.46356 0
M  V30 3452 N 325.182 1.32811 0.848464 0
M  V30 3453 C 326.092 1.24278 1.98978 0
M  V30 3454 C 327.108 0.155176 1.73307 0
M  V30 3455 O 328.284 0.376999 1.9784 0
M  V30 3456 C 325.349 0.972444 3.32783 0
M  V30 3457 C 324.41 2.14911 3.71634 0
M  V30 3458 C 323.643 1.89157 4.99054 0
M  V30 3459 O 323.866 0.837165 5.64223 0
M  V30 3460 O 322.8 2.75433 5.35183 0
M  V30 3461 H 326.626 2.20238 2.09115 0
M  V30 3462 H 324.211 1.12762 0.980052 0
M  V30 3463 H 326.093 0.838432 4.12975 0
M  V30 3464 H 324.768 0.043051 3.23671 0
M  V30 3465 H 323.675 2.33862 2.91992 0
M  V30 3466 H 325.008 3.06151 3.85399 0
M  V30 3467 N 326.66 -1.06551 1.16123 0
M  V30 3468 C 328.076 -1.3142 0.905585 0
M  V30 3469 C 328.276 -1.96571 -0.442964 0
M  V30 3470 O 327.332 -2.23068 -1.18308 0
M  V30 3471 C 328.645 -2.19741 2.05267 0
M  V30 3472 C 330.193 -2.33165 2.08813 0
M  V30 3473 C 330.668 -3.24838 3.22868 0
M  V30 3474 N 332.159 -3.32421 3.22568 0
M  V30 3475 C 332.894 -4.0344 4.0746 0
M  V30 3476 N 332.39 -4.77003 5.02434 0
M  V30 3477 N 334.183 -3.99464 3.95456 0
M  V30 3478 H 326.334 -0.626548 2.02949 0
M  V30 3479 H 328.597 -0.338777 0.8854 0
M  V30 3480 H 328.303 -1.79142 3.02657 0
M  V30 3481 H 328.177 -3.20313 1.99198 0
M  V30 3482 H 330.564 -2.73013 1.12018 0
M  V30 3483 H 330.645 -1.3227 2.18948 0
M  V30 3484 H 330.289 -2.85708 4.19921 0
M  V30 3485 H 330.219 -4.25707 3.0997 0
M  V30 3486 H 332.71 -2.79994 2.53795 0
M  V30 3487 H 333.023 -5.28712 5.63634 0
M  V30 3488 H 331.368 -4.75992 5.06415 0
M  V30 3489 H 334.559 -3.4111 3.20564 0
M  V30 3490 H 334.732 -4.54544 4.61837 0
M  V30 3491 N 328.138 -0.959301 -1.25041 0
M  V30 3492 C 329.101 -0.487677 -2.23952 0
M  V30 3493 C 330.101 0.41119 -1.55454 0
M  V30 3494 O 331.291 0.207825 -1.72956 0
M  V30 3495 C 328.423 0.294807 -3.39623 0
M  V30 3496 H 329.616 -1.36198 -2.67189 0
M  V30 3497 H 327.169 -0.743042 -1.37508 0
M  V30 3498 H 327.904 1.18658 -3.01813 0
M  V30 3499 H 327.689 -0.35012 -3.90534 0
M  V30 3500 H 329.179 0.614089 -4.1306 0
M  V30 3501 N 329.616 1.39756 -0.72842 0
M  V30 3502 C 330.563 2.30647 -0.0841519 0
M  V30 3503 C 331.533 1.48869 0.7367 0
M  V30 3504 O 332.718 1.77574 0.698015 0
M  V30 3505 C 329.858 3.35165 0.822091 0
M  V30 3506 C 328.971 4.31999 -0.0106663 0
M  V30 3507 C 328.106 5.23585 0.896241 0
M  V30 3508 C 327.145 6.12072 0.0583381 0
M  V30 3509 N 326.282 6.96035 0.920818 0
M  V30 3510 H 331.122 2.85173 -0.864891 0
M  V30 3511 H 328.659 1.40422 -0.438179 0
M  V30 3512 H 330.617 3.94345 1.36189 0
M  V30 3513 H 329.247 2.8211 1.56888 0
M  V30 3514 H 328.299 3.74492 -0.66781 0
M  V30 3515 H 329.611 4.9443 -0.658825 0
M  V30 3516 H 328.765 5.87759 1.50412 0
M  V30 3517 H 327.504 4.61459 1.57819 0
M  V30 3518 H 326.509 5.46916 -0.562389 0
M  V30 3519 H 327.734 6.76261 -0.6203 0
M  V30 3520 H 325.68 6.36485 1.58818 0
M  V30 3521 H 325.597 7.55284 0.32899 0
M  V30 3522 H 326.865 7.64646 1.51447 0
M  V30 3523 N 331.094 0.475555 1.50254 0
M  V30 3524 C 332.343 -0.0795996 2.01543 0
M  V30 3525 C 332.656 -1.4038 1.36209 0
M  V30 3526 O 333.862 -2.04415 1.7868 0
M  V30 3527 C 332.318 -0.192363 3.59386 0
M  V30 3528 C 331.926 1.12367 4.33679 0
M  V30 3529 C 333.67 -0.699238 4.18701 0
M  V30 3530 C 331.577 0.974453 5.83317 0
M  V30 3531 H 330.507 -0.0335228 0.753254 0
M  V30 3532 H 333.158 0.611128 1.73025 0
M  V30 3533 H 331.54 -0.946974 3.84511 0
M  V30 3534 H 332.714 1.88958 4.20276 0
M  V30 3535 H 331.029 1.562 3.85993 0
M  V30 3536 H 333.626 -0.827978 5.28251 0
M  V30 3537 H 333.969 -1.69171 3.80377 0
M  V30 3538 H 334.502 -0.00188807 3.978 0
M  V30 3539 H 331.241 1.94042 6.26121 0
M  V30 3540 H 330.761 0.248998 5.99283 0
M  V30 3541 H 332.44 0.642867 6.43798 0
M  V30 3542 N 332.573 -1.56217 0.208337 0
M  V30 3543 C 333.85 -1.89739 -0.475234 0
M  V30 3544 C 334.23 -1.1238 -1.78701 0
M  V30 3545 O 333.578 -0.228979 -2.2735 0
M  V30 3546 C 333.788 -3.42289 -0.681101 0
M  V30 3547 C 335.136 -4.12789 -0.994507 0
M  V30 3548 O 336.16 -3.47814 -0.768357 0
M  V30 3549 O 335.019 -5.27649 -1.42299 0
M  V30 3550 H 332.113 -0.788478 -0.249461 0
M  V30 3551 H 334.659 -1.67855 0.249538 0
M  V30 3552 H 333.431 -3.90534 0.244722 0
M  V30 3553 H 333.054 -3.69909 -1.45785 0
M  V30 3554 N 334.051 0.0651679 -1.57465 0
M  V30 3555 C 335.328 0.79644 -1.78651 0
M  V30 3556 C 335.708 1.95454 -0.797566 0
M  V30 3557 O 335.056 2.27882 0.167946 0
M  V30 3558 C 335.266 1.26322 -3.25337 0
M  V30 3559 C 336.614 1.6939 -3.89348 0
M  V30 3560 O 337.638 1.35872 -3.29268 0
M  V30 3561 O 336.497 2.31471 -4.95059 0
M  V30 3562 H 333.591 0.382157 -0.733407 0
M  V30 3563 H 336.137 0.0447311 -1.69641 0
M  V30 3564 H 334.909 0.434859 -3.88876 0
M  V30 3565 H 334.532 2.07604 -3.39096 0
M  V30 3566 N 335.529 1.53961 0.336706 0
M  V30 3567 C 336.94 1.62914 0.911925 0
M  V30 3568 C 337.291 0.514795 1.89326 0
M  V30 3569 O 336.416 -0.354395 2.13478 0
M  V30 3570 C 337.011 2.95304 1.66076 0
M  V30 3571 C 335.57 3.06496 2.18489 0
M  V30 3572 C 334.717 2.58403 1.00613 0
M  V30 3573 H 337.668 1.58285 0.114649 0
M  V30 3574 H 337.689 2.84727 2.5241 0
M  V30 3575 H 337.201 3.76387 0.946276 0
M  V30 3576 H 335.302 2.3006 2.93092 0
M  V30 3577 H 335.415 4.1208 2.44391 0
M  V30 3578 H 333.779 2.13977 1.38152 0
M  V30 3579 H 334.562 3.41932 0.306179 0
M  V30 3580 N 337.007 -0.598083 1.45811 0
M  V30 3581 C 338.235 -1.38322 1.53866 0
M  V30 3582 C 338.65 -1.87992 0.174479 0
M  V30 3583 O 338.007 -1.62756 -0.825627 0
M  V30 3584 C 338.058 -2.58125 2.53089 0
M  V30 3585 O 337.779 -2.10516 3.84206 0
M  V30 3586 C 339.28 -3.50869 2.70935 0
M  V30 3587 H 336.5 -0.423093 0.520801 0
M  V30 3588 H 339.044 -0.728527 1.91083 0
M  V30 3589 H 337.199 -3.19615 2.18917 0
M  V30 3590 H 337.613 -2.88425 4.38077 0
M  V30 3591 H 339.087 -4.31451 3.44317 0
M  V30 3592 H 339.564 -4.01822 1.77301 0
M  V30 3593 H 340.17 -2.95225 3.06141 0
M  V30 3594 N 338.485 -1.33259 -0.841409 0
M  V30 3595 C 339.762 -1.15174 -1.58096 0
M  V30 3596 C 340.142 0.282858 -2.09196 0
M  V30 3597 O 339.49 1.28151 -1.89181 0
M  V30 3598 C 339.7 -2.1907 -2.71679 0
M  V30 3599 C 341.048 -2.53093 -3.40924 0
M  V30 3600 O 342.072 -2.17717 -2.81918 0
M  V30 3601 O 340.931 -3.1379 -4.47435 0
M  V30 3602 H 338.025 -0.445303 -0.696875 0
M  V30 3603 H 340.571 -1.44833 -0.884385 0
M  V30 3604 H 339.343 -3.15443 -2.31541 0
M  V30 3605 H 338.966 -1.90481 -3.49002 0
M  V30 3606 N 339.963 1.05934 -1.16686 0
M  V30 3607 C 341.188 1.83029 -0.975455 0
M  V30 3608 C 341.613 1.82096 0.471452 0
M  V30 3609 O 340.971 1.22443 1.33706 0
M  V30 3610 C 341.019 3.27372 -1.51195 0
M  V30 3611 O 340.123 4.06054 -0.720701 0
M  V30 3612 H 339.464 0.566194 -0.346872 0
M  V30 3613 H 341.994 1.33541 -1.55009 0
M  V30 3614 H 342.004 3.78186 -1.53099 0
M  V30 3615 H 340.679 3.27366 -2.56523 0
M  V30 3616 H 339.256 3.64812 -0.772458 0
M  V30 3617 N 341.441 0.965919 1.2453 0
M  V30 3618 C 342.388 0.49402 2.25451 0
M  V30 3619 C 343.358 -0.45948 1.59618 0
M  V30 3620 O 344.543 -0.370238 1.87173 0
M  V30 3621 C 341.683 -0.211359 3.44452 0
M  V30 3622 C 340.796 0.7807 4.24887 0
M  V30 3623 C 339.931 0.0516105 5.31175 0
M  V30 3624 C 338.97 1.03385 6.03306 0
M  V30 3625 N 338.107 0.334887 7.01301 0
M  V30 3626 H 342.947 1.35946 2.65184 0
M  V30 3627 H 340.484 0.681515 1.3036 0
M  V30 3628 H 342.442 -0.637 4.12308 0
M  V30 3629 H 341.072 -1.04077 3.05562 0
M  V30 3630 H 340.124 1.32479 3.56586 0
M  V30 3631 H 341.436 1.52978 4.74762 0
M  V30 3632 H 340.59 -0.432114 6.05159 0
M  V30 3633 H 339.329 -0.730179 4.82203 0
M  V30 3634 H 338.334 1.52847 5.28127 0
M  V30 3635 H 339.559 1.81606 6.54367 0
M  V30 3636 H 337.505 -0.427959 6.54603 0
M  V30 3637 H 337.422 1.02287 7.49048 0
M  V30 3638 H 338.69 -0.126928 7.79397 0
M  V30 3639 N 342.919 -1.39368 0.735821 0
M  V30 3640 C 344.33 -1.83313 0.354015 0
M  V30 3641 C 344.681 -1.61461 -1.11466 0
M  V30 3642 O 343.806 -1.10621 -1.85989 0
M  V30 3643 C 344.401 -3.32781 0.635769 0
M  V30 3644 C 342.96 -3.75142 0.307448 0
M  V30 3645 C 342.107 -2.62358 0.897974 0
M  V30 3646 H 345.058 -1.28349 0.933398 0
M  V30 3647 H 345.079 -3.80388 -0.0921773 0
M  V30 3648 H 344.591 -3.48654 1.70476 0
M  V30 3649 H 342.692 -3.64857 -0.755674 0
M  V30 3650 H 342.805 -4.72532 0.790583 0
M  V30 3651 H 341.169 -2.52624 0.324551 0
M  V30 3652 H 341.952 -2.81036 1.97164 0
M  V30 3653 N 344.397 -0.483516 -1.5 0
M  V30 3654 C 345.307 0.309172 -2.32554 0
M  V30 3655 C 346.323 0.984159 -1.43493 0
M  V30 3656 O 347.499 0.969399 -1.76535 0
M  V30 3657 C 344.564 1.36979 -3.18493 0
M  V30 3658 C 343.625 0.710095 -4.23387 0
M  V30 3659 C 342.858 1.72018 -5.05218 0
M  V30 3660 O 343.081 2.94813 -4.88305 0
M  V30 3661 O 342.015 1.28515 -5.8802 0
M  V30 3662 H 345.841 -0.366064 -3.01486 0
M  V30 3663 H 343.426 -0.24514 -1.47375 0
M  V30 3664 H 345.308 1.98385 -3.71781 0
M  V30 3665 H 343.983 2.02828 -2.52275 0
M  V30 3666 H 342.89 0.0567539 -3.74057 0
M  V30 3667 H 344.223 0.0943557 -4.9211 0
M  V30 3668 N 345.875 1.56104 -0.216619 0
M  V30 3669 C 347.152 1.89988 0.465165 0
M  V30 3670 C 347.532 1.13326 1.78102 0
M  V30 3671 O 346.88 0.241033 2.27225 0
M  V30 3672 C 347.09 3.42646 0.662939 0
M  V30 3673 C 348.438 4.13311 0.972602 0
M  V30 3674 O 349.462 3.48217 0.749901 0
M  V30 3675 O 348.321 5.28396 1.39499 0
M  V30 3676 H 345.415 0.78979 0.245276 0
M  V30 3677 H 347.961 1.67721 -0.258436 0
M  V30 3678 H 346.733 3.90399 -0.26543 0
M  V30 3679 H 346.356 3.70677 1.43821 0
M  V30 3680 N 347.353 -0.0568162 1.57498 0
M  V30 3681 C 348.599 -0.748893 1.89111 0
M  V30 3682 C 348.954 -1.74422 0.81208 0
M  V30 3683 O 348.247 -1.90731 -0.182247 0
M  V30 3684 C 348.441 -1.48359 3.25153 0
M  V30 3685 C 348.27 -0.560924 4.46188 0
M  V30 3686 C 347.04 -0.192264 5.04934 0
M  V30 3687 C 349.238 0.148824 5.14085 0
M  V30 3688 N 347.22 0.734555 6.0949 0
M  V30 3689 C 348.591 0.932286 6.12951 0
M  V30 3690 C 350.646 0.218713 4.97419 0
M  V30 3691 C 349.349 1.77917 6.96949 0
M  V30 3692 C 351.375 1.05262 5.81957 0
M  V30 3693 C 350.737 1.82409 6.80372 0
M  V30 3694 H 346.836 -0.249002 0.741298 0
M  V30 3695 H 349.42 -0.00984926 1.94698 0
M  V30 3696 H 347.591 -2.19326 3.20547 0
M  V30 3697 H 349.323 -2.12586 3.44368 0
M  V30 3698 H 346.078 -0.548421 4.70414 0
M  V30 3699 H 346.502 1.19165 6.6643 0
M  V30 3700 H 351.144 -0.363407 4.21235 0
M  V30 3701 H 348.862 2.3722 7.72497 0
M  V30 3702 H 352.448 1.10987 5.71116 0
M  V30 3703 H 351.328 2.45895 7.44651 0
M  V30 3704 N 348.832 -1.54138 -0.328536 0
M  V30 3705 C 350.109 -1.62749 -1.08499 0
M  V30 3706 C 350.489 -0.458198 -2.06067 0
M  V30 3707 O 349.837 0.548046 -2.2183 0
M  V30 3708 C 350.047 -2.99519 -1.79135 0
M  V30 3709 C 351.395 -3.55394 -2.32337 0
M  V30 3710 O 352.419 -3.01792 -1.89209 0
M  V30 3711 O 351.278 -4.49186 -3.11279 0
M  V30 3712 H 348.372 -0.65886 -0.499832 0
M  V30 3713 H 350.918 -1.66484 -0.328826 0
M  V30 3714 H 349.69 -3.76061 -1.08139 0
M  V30 3715 H 349.313 -2.99441 -2.61574 0
M  V30 3716 N 350.31 0.590341 -1.46126 0
M  V30 3717 C 351.257 1.69994 -1.56111 0
M  V30 3718 C 352.227 1.61065 -0.405867 0
M  V30 3719 O 353.412 1.8039 -0.621613 0
M  V30 3720 C 350.552 3.08326 -1.55013 0
M  V30 3721 C 349.665 3.27936 -2.81215 0
M  V30 3722 C 348.8 4.56473 -2.71673 0
M  V30 3723 C 347.839 4.694 -3.92849 0
M  V30 3724 N 346.976 5.89254 -3.81738 0
M  V30 3725 H 351.816 1.60797 -2.50895 0
M  V30 3726 H 349.353 0.783799 -1.24479 0
M  V30 3727 H 351.311 3.88383 -1.52362 0
M  V30 3728 H 349.941 3.16439 -0.637667 0
M  V30 3729 H 348.993 2.41536 -2.93879 0
M  V30 3730 H 350.305 3.33357 -3.71045 0
M  V30 3731 H 349.459 5.44748 -2.67085 0
M  V30 3732 H 348.198 4.53477 -1.7947 0
M  V30 3733 H 347.203 3.79544 -3.97777 0
M  V30 3734 H 348.428 4.7418 -4.86138 0
M  V30 3735 H 346.374 5.87271 -2.92317 0
M  V30 3736 H 346.291 5.95911 -4.65217 0
M  V30 3737 H 347.559 6.79981 -3.81112 0
M  V30 3738 N 351.788 1.33704 0.83433 0
M  V30 3739 C 353.199 1.22813 1.4062 0
M  V30 3740 C 353.55 -0.151107 1.95617 0
M  V30 3741 O 352.675 -1.05092 1.89168 0
M  V30 3742 C 353.27 2.22355 2.55624 0
M  V30 3743 C 351.829 2.1529 3.08751 0
M  V30 3744 C 350.976 2.09589 1.8157 0
M  V30 3745 H 353.927 1.45236 0.639702 0
M  V30 3746 H 353.948 1.83391 3.33389 0
M  V30 3747 H 353.46 3.22728 2.15566 0
M  V30 3748 H 351.561 1.18235 3.53343 0
M  V30 3749 H 351.674 3.06038 3.68616 0
M  V30 3750 H 350.038 1.55134 2.02004 0
M  V30 3751 H 350.821 3.11777 1.43701 0
M  V30 3752 N 353.266 -1.05314 1.17247 0
M  V30 3753 C 354.176 -2.16538 0.90268 0
M  V30 3754 C 355.192 -1.73523 -0.128707 0
M  V30 3755 O 356.368 -2.01337 0.0502701 0
M  V30 3756 C 353.433 -3.44167 0.418356 0
M  V30 3757 C 352.494 -4.01635 1.51618 0
M  V30 3758 C 351.727 -5.23171 1.05487 0
M  V30 3759 O 351.95 -5.70327 -0.0914715 0
M  V30 3760 O 350.884 -5.72848 1.8474 0
M  V30 3761 H 354.71 -2.42145 1.83302 0
M  V30 3762 H 352.295 -1.15037 0.953246 0
M  V30 3763 H 354.177 -4.21112 0.155726 0
M  V30 3764 H 352.852 -3.20063 -0.48385 0
M  V30 3765 H 351.759 -3.26135 1.83268 0
M  V30 3766 H 353.092 -4.30053 2.39405 0
M  V30 3767 N 354.744 -0.972509 -1.24016 0
M  V30 3768 C 355.694 -0.477561 -2.22942 0
M  V30 3769 C 356.678 0.44308 -1.54679 0
M  V30 3770 O 357.87 0.273219 -1.74879 0
M  V30 3771 C 354.999 0.226348 -3.42553 0
M  V30 3772 C 354.085 -0.713403 -4.18057 0
M  V30 3773 N 354.476 -1.8527 -4.70647 0
M  V30 3774 C 352.774 -0.525145 -4.42898 0
M  V30 3775 C 353.475 -2.44089 -5.28011 0
M  V30 3776 N 352.451 -1.72556 -5.15486 0
M  V30 3777 H 356.253 -1.34678 -2.61226 0
M  V30 3778 H 353.767 -0.832196 -1.39457 0
M  V30 3779 H 355.764 0.598184 -4.12586 0
M  V30 3780 H 354.424 1.09195 -3.05788 0
M  V30 3781 H 355.435 -2.2341 -4.67235 0
M  V30 3782 H 352.112 0.296096 -4.16449 0
M  V30 3783 H 353.502 -3.40259 -5.79374 0
M  V30 3784 N 356.222 1.38976 -0.743202 0
M  V30 3785 C 357.471 1.99581 -0.291592 0
M  V30 3786 C 357.784 1.59656 1.13001 0
M  V30 3787 O 358.99 2.13157 1.68156 0
M  V30 3788 C 357.446 3.56813 -0.470391 0
M  V30 3789 C 357.054 4.05695 -1.90041 0
M  V30 3790 C 358.798 4.24423 -0.0809709 0
M  V30 3791 C 356.705 5.5553 -2.02832 0
M  V30 3792 H 355.635 0.746615 -0.105272 0
M  V30 3793 H 358.286 1.58872 -0.918258 0
M  V30 3794 H 356.668 3.95359 0.225299 0
M  V30 3795 H 357.842 3.78464 -2.62872 0
M  V30 3796 H 356.157 3.50775 -2.24379 0
M  V30 3797 H 358.754 5.34474 -0.155445 0
M  V30 3798 H 359.097 4.04962 0.96497 0
M  V30 3799 H 359.63 3.9108 -0.728124 0
M  V30 3800 H 356.369 5.79881 -3.05643 0
M  V30 3801 H 355.889 5.84537 -1.34448 0
M  V30 3802 H 357.568 6.21069 -1.81335 0
M  V30 3803 N 357.7 0.491464 1.49741 0
M  V30 3804 C 359.111 0.0413169 1.86654 0
M  V30 3805 C 359.462 -1.36985 1.40462 0
M  V30 3806 O 358.587 -2.01917 0.778354 0
M  V30 3807 C 359.182 0.0682023 3.38731 0
M  V30 3808 C 357.741 -0.32656 3.74981 0
M  V30 3809 C 356.888 0.444888 2.73708 0
M  V30 3810 H 359.839 0.704733 1.42194 0
M  V30 3811 H 359.86 -0.729322 3.73445 0
M  V30 3812 H 359.372 1.09539 3.72321 0
M  V30 3813 H 357.473 -1.35734 3.46997 0
M  V30 3814 H 357.586 -0.013741 4.79098 0
M  V30 3815 H 355.95 -0.104062 2.54487 0
M  V30 3816 H 356.733 1.47197 3.10142 0
M  V30 3817 N 359.178 -1.55987 0.224894 0
M  V30 3818 C 360.455 -1.90232 -0.455083 0
M  V30 3819 C 360.835 -1.14269 -1.77499 0
M  V30 3820 O 360.183 -0.253079 -2.27094 0
M  V30 3821 C 360.393 -3.42993 -0.644758 0
M  V30 3822 C 361.741 -4.13821 -0.950669 0
M  V30 3823 O 362.765 -3.4861 -0.731423 0
M  V30 3824 O 361.624 -5.29128 -1.36695 0
M  V30 3825 H 358.718 -0.79108 -0.241084 0
M  V30 3826 H 361.264 -1.67581 0.267327 0
M  V30 3827 H 360.036 -3.90252 0.28613 0
M  V30 3828 H 359.659 -3.71434 -1.41853 0
M  V30 3829 N 360.656 0.0484629 -1.57525 0
M  V30 3830 C 362.067 0.597486 -1.76881 0
M  V30 3831 C 362.418 1.76664 -0.853475 0
M  V30 3832 O 361.543 2.16357 -0.0433656 0
M  V30 3833 C 362.138 1.09066 -3.20765 0
M  V30 3834 C 360.697 1.58535 -3.41385 0
M  V30 3835 C 359.844 0.514868 -2.72478 0
M  V30 3836 H 362.795 -0.177758 -1.57701 0
M  V30 3837 H 362.816 1.95875 -3.2621 0
M  V30 3838 H 362.328 0.239521 -3.8736 0
M  V30 3839 H 360.429 2.45898 -2.79937 0
M  V30 3840 H 360.542 1.64622 -4.49929 0
M  V30 3841 H 358.906 0.965407 -2.35695 0
M  V30 3842 H 359.689 -0.32648 -3.41744 0
M  V30 3843 N 362.134 1.5431 0.320358 0
M  V30 3844 C 363.411 1.63322 1.07635 0
M  V30 3845 C 363.791 0.46912 2.05821 0
M  V30 3846 O 363.139 -0.536274 2.22118 0
M  V30 3847 C 363.349 3.00465 1.77544 0
M  V30 3848 C 364.697 3.56621 2.30449 0
M  V30 3849 O 365.721 3.02791 1.87606 0
M  V30 3850 O 364.58 4.5083 3.08892 0
M  V30 3851 H 361.674 0.661502 0.496331 0
M  V30 3852 H 364.22 1.66656 0.319992 0
M  V30 3853 H 362.992 3.76629 1.06143 0
M  V30 3854 H 362.615 3.00824 2.59982 0
M  V30 3855 N 363.613 -0.582584 1.46437 0
M  V30 3856 C 364.576 -1.67366 1.56592 0
M  V30 3857 C 365.576 -1.54575 0.443072 0
M  V30 3858 O 366.766 -1.59191 0.707381 0
M  V30 3859 C 363.898 -3.06791 1.48634 0
M  V30 3860 H 365.091 -1.5972 2.5383 0
M  V30 3861 H 362.644 -0.800432 1.34249 0
M  V30 3862 H 363.379 -3.19993 0.526763 0
M  V30 3863 H 363.164 -3.17484 2.30101 0
M  V30 3864 H 364.654 -3.86218 1.58826 0
M  V30 3865 N 365.091 -1.34144 -0.827227 0
M  V30 3866 C 366.038 -1.25364 -1.93785 0
M  V30 3867 C 367.008 -0.129774 -1.65592 0
M  V30 3868 O 368.193 -0.310024 -1.88264 0
M  V30 3869 C 365.333 -1.01064 -3.2997 0
M  V30 3870 C 364.446 -2.22185 -3.70484 0
M  V30 3871 C 363.581 -1.91203 -4.95595 0
M  V30 3872 C 362.62 -3.08491 -5.28677 0
M  V30 3873 N 361.757 -2.77421 -6.44967 0
M  V30 3874 H 366.597 -2.20347 -2.00627 0
M  V30 3875 H 364.134 -1.09558 -0.981608 0
M  V30 3876 H 366.092 -0.850139 -4.08446 0
M  V30 3877 H 364.722 -0.0975026 -3.22653 0
M  V30 3878 H 363.774 -2.4917 -2.87434 0
M  V30 3879 H 365.086 -3.0983 -3.90905 0
M  V30 3880 H 364.24 -1.71864 -5.81848 0
M  V30 3881 H 362.979 -1.00812 -4.77167 0
M  V30 3882 H 361.984 -3.28431 -4.40923 0
M  V30 3883 H 363.209 -3.99655 -5.49047 0
M  V30 3884 H 361.155 -1.89601 -6.28003 0
M  V30 3885 H 361.072 -3.58598 -6.6554 0
M  V30 3886 H 362.34 -2.61577 -7.34301 0
M  V30 3887 N 366.569 1.04691 -1.17803 0
M  V30 3888 C 367.516 2.12557 -0.899343 0
M  V30 3889 C 368.486 1.65339 0.158771 0
M  V30 3890 O 369.671 1.90789 0.0204797 0
M  V30 3891 C 366.811 3.42481 -0.424315 0
M  V30 3892 C 365.924 4.03346 -1.54713 0
M  V30 3893 C 365.059 5.21208 -1.02546 0
M  V30 3894 C 364.098 5.74089 -2.12339 0
M  V30 3895 N 363.235 6.83247 -1.61612 0
M  V30 3896 H 368.075 2.35734 -1.823 0
M  V30 3897 H 365.612 1.1564 -0.909159 0
M  V30 3898 H 367.57 4.16996 -0.130421 0
M  V30 3899 H 366.2 3.19471 0.462377 0
M  V30 3900 H 365.252 3.2622 -1.95664 0
M  V30 3901 H 366.564 4.38628 -2.37501 0
M  V30 3902 H 365.718 6.02812 -0.685718 0
M  V30 3903 H 364.457 4.87414 -0.167084 0
M  V30 3904 H 363.462 4.91111 -2.47165 0
M  V30 3905 H 364.687 6.0993 -2.98601 0
M  V30 3906 H 362.633 6.5134 -0.780533 0
M  V30 3907 H 362.55 7.17559 -2.38003 0
M  V30 3908 H 363.818 7.68491 -1.30545 0
M  V30 3909 N 368.047 0.979072 1.23499 0
M  V30 3910 C 369.458 0.684391 1.73704 0
M  V30 3911 C 369.809 -0.799448 1.79174 0
M  V30 3912 O 368.934 -1.62531 1.42873 0
M  V30 3913 C 369.529 1.23564 3.15464 0
M  V30 3914 C 368.088 0.99063 3.6313 0
M  V30 3915 C 367.235 1.36416 2.41425 0
M  V30 3916 H 370.186 1.15307 1.09041 0
M  V30 3917 H 370.207 0.607417 3.7562 0
M  V30 3918 H 369.719 2.31561 3.1145 0
M  V30 3919 H 367.82 -0.0733136 3.72528 0
M  V30 3920 H 367.933 1.64427 4.5 0
M  V30 3921 H 366.297 0.782616 2.42378 0
M  V30 3922 H 367.08 2.45387 2.40083 0
M  V30 3923 N 369.525 -1.3858 0.750561 0
M  V30 3924 C 370.435 -2.34278 0.122825 0
M  V30 3925 C 371.451 -1.59116 -0.704131 0
M  V30 3926 O 372.627 -1.91326 -0.628987 0
M  V30 3927 C 369.692 -3.38221 -0.762086 0
M  V30 3928 C 368.753 -4.29227 0.078896 0
M  V30 3929 C 367.986 -5.28205 -0.763874 0
M  V30 3930 O 368.209 -5.34112 -2.00201 0
M  V30 3931 O 367.143 -6.01618 -0.18428 0
M  V30 3932 H 370.969 -2.89649 0.913088 0
M  V30 3933 H 368.554 -1.40374 0.511417 0
M  V30 3934 H 370.436 -4.01872 -1.26793 0
M  V30 3935 H 369.111 -2.85211 -1.5309 0
M  V30 3936 H 368.018 -3.68747 0.630621 0
M  V30 3937 H 369.351 -4.85484 0.810289 0
M  V30 3938 N 371.003 -0.499398 -1.49478 0
M  V30 3939 C 372.28 0.108629 -1.95298 0
M  V30 3940 C 372.66 1.54282 -1.44084 0
M  V30 3941 O 372.008 2.18944 -0.653908 0
M  V30 3942 C 372.218 0.0229111 -3.48992 0
M  V30 3943 C 373.566 0.197643 -4.2414 0
M  V30 3944 O 374.59 0.0981735 -3.56065 0
M  V30 3945 O 373.449 0.401669 -5.45022 0
M  V30 3946 H 370.543 0.096181 -0.821388 0
M  V30 3947 H 373.089 -0.561822 -1.6013 0
M  V30 3948 H 371.861 -0.977321 -3.78899 0
M  V30 3949 H 371.484 0.733579 -3.90774 0
M  V30 3950 N 372.481 1.55866 -0.233164 0
M  V30 3951 C 373.727 1.99643 0.389148 0
M  V30 3952 C 374.082 1.11836 1.56558 0
M  V30 3953 O 373.375 0.170848 1.90837 0
M  V30 3954 C 373.569 3.46856 0.861724 0
M  V30 3955 C 373.398 4.48904 -0.267376 0
M  V30 3956 C 372.168 4.99888 -0.737577 0
M  V30 3957 C 374.366 5.02624 -1.08966 0
M  V30 3958 N 372.348 5.8566 -1.84052 0
M  V30 3959 C 373.719 5.85434 -2.04125 0
M  V30 3960 C 375.774 4.84959 -1.12779 0
M  V30 3961 C 374.477 6.52466 -3.02789 0
M  V30 3962 C 376.503 5.52759 -2.10266 0
M  V30 3963 C 375.865 6.35346 -3.04162 0
M  V30 3964 H 371.964 0.774402 0.108742 0
M  V30 3965 H 374.548 1.91572 -0.347596 0
M  V30 3966 H 372.719 3.55352 1.5678 0
M  V30 3967 H 374.451 3.77531 1.45783 0
M  V30 3968 H 371.206 4.7249 -0.324122 0
M  V30 3969 H 371.63 6.33246 -2.39434 0
M  V30 3970 H 376.272 4.20751 -0.415749 0
M  V30 3971 H 373.99 7.15849 -3.74948 0
M  V30 3972 H 377.576 5.41051 -2.13905 0
M  V30 3973 H 376.456 6.86883 -3.78366 0
M  V30 3974 N 373.959 -0.0401083 1.57549 0
M  V30 3975 C 375.236 -0.767917 1.79896 0
M  V30 3976 C 375.616 -1.9416 0.82856 0
M  V30 3977 O 374.964 -2.2812 -0.131671 0
M  V30 3978 C 375.174 -1.2113 3.27305 0
M  V30 3979 C 376.522 -1.63175 3.91994 0
M  V30 3980 O 377.546 -1.30616 3.31388 0
M  V30 3981 O 376.405 -2.23565 4.98679 0
M  V30 3982 H 373.499 -0.370441 0.739393 0
M  V30 3983 H 376.045 -0.017737 1.69691 0
M  V30 3984 H 374.817 -0.372937 3.89519 0
M  V30 3985 H 374.44 -2.02183 3.42356 0
M  V30 3986 N 375.437 -1.54477 -0.31217 0
M  V30 3987 C 376.347 -1.87695 -1.4074 0
M  V30 3988 C 377.363 -0.769975 -1.56036 0
M  V30 3989 O 378.539 -1.06537 -1.70915 0
M  V30 3990 C 375.604 -2.10755 -2.75287 0
M  V30 3991 C 374.665 -3.34514 -2.69071 0
M  V30 3992 C 373.898 -3.56465 -3.97201 0
M  V30 3993 O 374.121 -2.81637 -4.96021 0
M  V30 3994 O 373.055 -4.49964 -3.9977 0
M  V30 3995 H 376.881 -2.80849 -1.15574 0
M  V30 3996 H 374.466 -1.40526 -0.507228 0
M  V30 3997 H 376.348 -2.27188 -3.54913 0
M  V30 3998 H 375.023 -1.20788 -3.0032 0
M  V30 3999 H 373.93 -3.23456 -1.87955 0
M  V30 4000 H 375.263 -4.24575 -2.48992 0
M  V30 4001 N 376.915 0.57481 -1.46744 0
M  V30 4002 C 377.825 1.711 -1.60505 0
M  V30 4003 C 378.841 1.67008 -0.488307 0
M  V30 4004 O 380.017 1.86774 -0.753495 0
M  V30 4005 C 377.082 3.07608 -1.59932 0
M  V30 4006 C 376.143 3.22904 -2.82898 0
M  V30 4007 C 375.376 4.529 -2.82343 0
M  V30 4008 O 375.599 5.37278 -1.91542 0
M  V30 4009 O 374.533 4.71611 -3.73987 0
M  V30 4010 H 378.359 1.62436 -2.56609 0
M  V30 4011 H 375.944 0.742779 -1.29627 0
M  V30 4012 H 377.826 3.88877 -1.62336 0
M  V30 4013 H 376.501 3.16692 -0.669898 0
M  V30 4014 H 375.408 2.41099 -2.86046 0
M  V30 4015 H 376.741 3.18715 -3.75076 0
M  V30 4016 N 378.394 1.34581 0.820102 0
M  V30 4017 C 379.327 1.20735 1.93644 0
M  V30 4018 C 380.305 0.0983343 1.62302 0
M  V30 4019 O 381.489 0.263997 1.86642 0
M  V30 4020 C 378.616 0.856037 3.27704 0
M  V30 4021 C 377.662 1.97521 3.78005 0
M  V30 4022 S 378.495 3.58906 3.97425 0
M  V30 4023 C 379.651 3.25822 5.34407 0
M  V30 4024 H 379.884 2.15231 2.05093 0
M  V30 4025 H 377.417 1.1964 0.97599 0
M  V30 4026 H 379.375 0.660133 4.05157 0
M  V30 4027 H 378.036 -0.0706253 3.14021 0
M  V30 4028 H 377.229 1.68321 4.75062 0
M  V30 4029 H 376.831 2.12875 3.07507 0
M  V30 4030 H 379.123 2.77812 6.17922 0
M  V30 4031 H 380.066 4.22029 5.68592 0
M  V30 4032 H 380.474 2.61932 5.00052 0
M  V30 4033 N 379.872 -1.04064 1.18357 0
M  V30 4034 C 381.149 -1.74252 0.888581 0
M  V30 4035 C 381.529 -2.02138 -0.60856 0
M  V30 4036 O 380.877 -1.66656 -1.56327 0
M  V30 4037 C 381.087 -3.0277 1.73584 0
M  V30 4038 C 382.435 -3.76506 1.96286 0
M  V30 4039 O 383.459 -3.12668 1.70637 0
M  V30 4040 O 382.318 -4.91243 2.39464 0
M  V30 4041 H 379.412 -0.758271 0.330082 0
M  V30 4042 H 381.958 -1.1013 1.2911 0
M  V30 4043 H 380.73 -2.78299 2.75073 0
M  V30 4044 H 380.353 -3.74631 1.33183 0
M  V30 4045 N 381.35 -0.985608 -1.22978 0
M  V30 4046 C 382.598 -0.656087 -1.91154 0
M  V30 4047 C 382.919 0.813561 -1.77218 0
M  V30 4048 O 382.189 1.58244 -1.1548 0
M  V30 4049 H 380.769 -0.239674 -0.707506 0
M  V30 4050 H 383.431 -1.25054 -1.49491 0
M  V30 4051 H 382.527 -0.912253 -2.9847 0
M  V30 4052 N 382.828 1.3818 -0.7579 0
M  V30 4053 C 383.738 2.3421 -0.135247 0
M  V30 4054 C 384.754 1.59487 0.695683 0
M  V30 4055 O 385.93 1.91657 0.618832 0
M  V30 4056 C 382.995 3.3862 0.744139 0
M  V30 4057 C 382.056 4.2918 -0.101658 0
M  V30 4058 C 381.289 5.28603 0.735851 0
M  V30 4059 O 381.512 5.35166 1.97366 0
M  V30 4060 O 380.446 6.01707 0.152372 0
M  V30 4061 H 384.272 2.8916 -0.928436 0
M  V30 4062 H 381.857 1.40101 -0.518855 0
M  V30 4063 H 383.739 4.02539 1.2466 0
M  V30 4064 H 382.414 2.86019 1.51575 0
M  V30 4065 H 381.321 3.68407 -0.650167 0
M  V30 4066 H 382.654 4.85048 -0.836024 0
M  V30 4067 N 384.306 0.507319 1.49211 0
M  V30 4068 C 385.552 -0.0269732 2.03382 0
M  V30 4069 C 385.907 -1.34111 1.37957 0
M  V30 4070 O 385.2 -1.84733 0.508351 0
M  V30 4071 C 385.394 -0.229513 3.56662 0
M  V30 4072 C 385.223 1.06344 4.36945 0
M  V30 4073 C 383.993 1.617 4.78729 0
M  V30 4074 C 386.191 1.96833 4.75143 0
M  V30 4075 N 384.173 2.8552 5.43463 0
M  V30 4076 C 385.544 3.0523 5.39661 0
M  V30 4077 C 387.599 1.97434 4.57082 0
M  V30 4078 C 386.302 4.14265 5.88028 0
M  V30 4079 C 388.328 3.05448 5.06414 0
M  V30 4080 C 387.69 4.12564 5.70938 0
M  V30 4081 H 383.789 0.0310673 0.781383 0
M  V30 4082 H 386.373 0.683579 1.82305 0
M  V30 4083 H 384.544 -0.909127 3.7761 0
M  V30 4084 H 386.276 -0.761377 3.97473 0
M  V30 4085 H 383.031 1.16132 4.59141 0
M  V30 4086 H 383.455 3.48499 5.80412 0
M  V30 4087 H 388.097 1.15924 4.06597 0
M  V30 4088 H 385.815 4.96569 6.3753 0
M  V30 4089 H 389.401 3.06941 4.94246 0
M  V30 4090 H 388.281 4.94767 6.0842 0
M  V30 4091 N 385.784 -1.5574 0.241426 0
M  V30 4092 C 386.694 -2.2479 -0.671305 0
M  V30 4093 C 387.71 -1.26217 -1.19772 0
M  V30 4094 O 388.886 -1.59079 -1.23514 0
M  V30 4095 C 385.951 -2.92966 -1.85396 0
M  V30 4096 C 385.012 -4.06935 -1.36756 0
M  V30 4097 C 384.245 -4.71851 -2.49384 0
M  V30 4098 O 384.468 -4.35823 -3.67987 0
M  V30 4099 O 383.402 -5.60467 -2.19454 0
M  V30 4100 H 387.228 -3.0349 -0.112966 0
M  V30 4101 H 384.813 -1.49397 0.0101513 0
M  V30 4102 H 386.695 -3.35927 -2.54423 0
M  V30 4103 H 385.37 -2.17211 -2.40002 0
M  V30 4104 H 384.277 -3.68503 -0.644726 0
M  V30 4105 H 385.61 -4.84492 -0.867647 0
M  V30 4106 N 387.262 0.0317525 -1.57568 0
M  V30 4107 C 388.673 0.578692 -1.77505 0
M  V30 4108 C 389.024 1.75749 -0.872164 0
M  V30 4109 O 388.149 2.16298 -0.0663106 0
M  V30 4110 C 388.744 1.05658 -3.21904 0
M  V30 4111 C 387.303 1.54906 -3.43047 0
M  V30 4112 C 386.45 0.485939 -2.73009 0
M  V30 4113 H 389.401 -0.194475 -1.57504 0
M  V30 4114 H 389.422 1.92404 -3.28269 0
M  V30 4115 H 388.934 0.198422 -3.87592 0
M  V30 4116 H 387.035 2.42915 -2.82529 0
M  V30 4117 H 387.148 1.59841 -4.5165 0
M  V30 4118 H 385.512 0.940354 -2.36705 0
M  V30 4119 H 386.295 -0.362709 -3.41379 0
M  V30 4120 N 388.74 1.54641 0.303973 0
M  V30 4121 C 390.151 1.64811 0.877163 0
M  V30 4122 C 390.502 0.554838 1.88191 0
M  V30 4123 O 389.627 -0.309033 2.14182 0
M  V30 4124 C 390.222 2.9876 1.59775 0
M  V30 4125 C 388.781 3.11061 2.11938 0
M  V30 4126 C 387.928 2.60479 0.951097 0
M  V30 4127 H 390.879 1.58493 0.0810486 0
M  V30 4128 H 390.9 2.90017 2.46314 0
M  V30 4129 H 390.412 3.7831 0.866226 0
M  V30 4130 H 388.513 2.36225 2.88146 0
M  V30 4131 H 388.626 4.17171 2.35595 0
M  V30 4132 H 386.99 2.16859 1.33583 0
M  V30 4133 H 387.773 3.42504 0.233581 0
M  V30 4134 N 390.218 -0.567019 1.47046 0
M  V30 4135 C 391.464 -1.32658 1.53394 0
M  V30 4136 C 391.797 -1.93254 0.19148 0
M  V30 4137 O 391.072 -1.77338 -0.798844 0
M  V30 4138 C 391.355 -2.44412 2.64452 0
M  V30 4139 C 391.208 -1.88749 4.08282 0
M  V30 4140 C 392.527 -3.46387 2.71485 0
M  V30 4141 H 389.646 -0.48098 0.558415 0
M  V30 4142 H 392.288 -0.635481 1.79058 0
M  V30 4143 H 390.438 -3.03363 2.427 0
M  V30 4144 H 392.11 -1.34134 4.41368 0
M  V30 4145 H 390.353 -1.19481 4.17021 0
M  V30 4146 H 391.024 -2.69491 4.81745 0
M  V30 4147 H 393.5 -2.9734 2.91081 0
M  V30 4148 H 392.376 -4.2202 3.50985 0
M  V30 4149 H 392.637 -4.04616 1.78153 0
M  V30 4150 N 391.696 -1.35014 -0.812953 0
M  V30 4151 C 392.945 -1.27269 -1.56479 0
M  V30 4152 C 393.258 0.152771 -1.95002 0
M  V30 4153 O 394.464 0.352451 -2.69203 0
M  V30 4154 C 392.92 -2.23159 -2.82362 0
M  V30 4155 C 392.528 -3.71016 -2.511 0
M  V30 4156 C 394.272 -2.24342 -3.60376 0
M  V30 4157 C 392.179 -4.58746 -3.73237 0
M  V30 4158 H 391.109 -0.472829 -0.587324 0
M  V30 4159 H 393.76 -1.6024 -0.894171 0
M  V30 4160 H 392.142 -1.83151 -3.51101 0
M  V30 4161 H 393.316 -4.1962 -1.90409 0
M  V30 4162 H 391.631 -3.72378 -1.86343 0
M  V30 4163 H 394.228 -2.87107 -4.51081 0
M  V30 4164 H 394.571 -1.24542 -3.97234 0
M  V30 4165 H 395.104 -2.62846 -2.98591 0
M  V30 4166 H 391.843 -5.59521 -3.41492 0
M  V30 4167 H 391.363 -4.14871 -4.33176 0
M  V30 4168 H 393.042 -4.73852 -4.40537 0
M  V30 4169 N 393.175 1.03435 -1.18907 0
M  V30 4170 C 394.107 2.1165 -0.879595 0
M  V30 4171 C 395.12 1.62316 0.125439 0
M  V30 4172 O 396.309 1.78201 -0.103245 0
M  V30 4173 C 393.409 3.37622 -0.294042 0
M  V30 4174 C 392.582 4.16166 -1.34629 0
M  V30 4175 C 391.641 5.20457 -0.775274 0
M  V30 4176 O 390.667 5.50379 -1.4516 0
M  V30 4177 N 391.869 5.78949 0.424126 0
M  V30 4178 H 394.634 2.38791 -1.81105 0
M  V30 4179 H 392.195 1.19681 -1.09032 0
M  V30 4180 H 394.187 4.04572 0.101679 0
M  V30 4181 H 392.757 3.07873 0.541575 0
M  V30 4182 H 391.977 3.44444 -1.91707 0
M  V30 4183 H 393.265 4.65432 -2.05549 0
M  V30 4184 H 392.663 5.56948 0.991209 0
M  V30 4185 H 391.22 6.47334 0.761691 0
M  V30 4186 N 394.653 0.992116 1.22453 0
M  V30 4187 C 395.601 0.534644 2.26372 0
M  V30 4188 C 396.595 -0.414293 1.64256 0
M  V30 4189 O 397.801 -0.286899 1.77699 0
M  V30 4190 H 394.176 0.154502 0.735957 0
M  V30 4191 H 396.147 1.42256 2.62309 0
M  V30 4192 C 394.896 -0.135815 3.47435 0
M  V30 4193 H 394.219 0.585311 3.95492 0
M  V30 4194 H 395.659 -0.419374 4.21921 0
M  V30 4195 C 394.118 -1.37089 3.07747 0
M  V30 4196 O 394.648 -2.46629 3.17076 0
M  V30 4197 N 392.854 -1.24585 2.62539 0
M  V30 4198 H 392.401 -0.354542 2.55149 0
M  V30 4199 H 392.359 -2.07327 2.36353 0
M  V30 4200 N 396.131 -1.37776 0.765217 0
M  V30 4201 C 397.542 -1.82521 0.392819 0
M  V30 4202 C 397.893 -1.63789 -1.08017 0
M  V30 4203 O 397.018 -1.14542 -1.83601 0
M  V30 4204 C 397.613 -3.31358 0.706214 0
M  V30 4205 C 396.172 -3.74406 0.386952 0
M  V30 4206 C 395.319 -2.60394 0.953422 0
M  V30 4207 H 398.27 -1.2634 0.960412 0
M  V30 4208 H 398.291 -3.80498 -0.0114706 0
M  V30 4209 H 397.803 -3.44959 1.77833 0
M  V30 4210 H 395.904 -3.66377 -0.678112 0
M  V30 4211 H 396.017 -4.70749 0.890636 0
M  V30 4212 H 394.381 -2.51878 0.378064 0
M  V30 4213 H 395.164 -2.76791 2.03081 0
M  V30 4214 N 397.609 -0.515225 -1.4894 0
M  V30 4215 C 398.519 0.259774 -2.33157 0
M  V30 4216 C 399.535 0.953501 -1.45548 0
M  V30 4217 O 400.711 0.931735 -1.78552 0
M  V30 4218 C 397.776 1.30193 -3.21326 0
M  V30 4219 C 396.837 0.620129 -4.24797 0
M  V30 4220 C 396.07 1.61263 -5.08753 0
M  V30 4221 O 396.293 2.84389 -4.94448 0
M  V30 4222 O 395.227 1.16013 -5.90614 0
M  V30 4223 H 399.053 -0.429932 -3.00641 0
M  V30 4224 H 396.638 -0.276346 -1.46822 0
M  V30 4225 H 398.52 1.90455 -3.75905 0
M  V30 4226 H 397.195 1.97431 -2.56521 0
M  V30 4227 H 396.102 -0.0226019 -3.74093 0
M  V30 4228 H 397.435 -0.0100493 -4.92199 0
M  V30 4229 N 399.087 1.5561 -0.249682 0
M  V30 4230 C 400.317 2.03116 0.377803 0
M  V30 4231 C 400.725 1.12822 1.51881 0
M  V30 4232 O 400.068 0.13562 1.83199 0
M  V30 4233 C 400.13 3.46866 0.944693 0
M  V30 4234 C 399.794 4.56955 -0.0644259 0
M  V30 4235 C 400.791 5.12485 -0.874957 0
M  V30 4236 C 398.476 5.01936 -0.19132 0
M  V30 4237 C 400.47 6.11491 -1.79881 0
M  V30 4238 C 398.157 6.00773 -1.11868 0
M  V30 4239 C 399.155 6.5543 -1.92095 0
M  V30 4240 O 398.843 7.5234 -2.83267 0
M  V30 4241 H 398.575 0.669489 0.0935961 0
M  V30 4242 H 401.129 2.02004 -0.371966 0
M  V30 4243 H 399.359 3.45136 1.74407 0
M  V30 4244 H 401.048 3.77856 1.48255 0
M  V30 4245 H 401.814 4.78564 -0.787523 0
M  V30 4246 H 397.693 4.59055 0.423072 0
M  V30 4247 H 401.237 6.54078 -2.42543 0
M  V30 4248 H 397.134 6.34114 -1.20703 0
M  V30 4249 H 397.902 7.69966 -2.7766 0
M  V30 4250 N 400.565 -0.0233959 1.57583 0
M  V30 4251 C 401.512 -1.02224 2.06927 0
M  V30 4252 C 402.482 -1.35575 0.959617 0
M  V30 4253 O 403.667 -1.45815 1.23055 0
M  V30 4254 C 400.807 -2.31636 2.5581 0
M  V30 4255 C 399.92 -2.04394 3.80588 0
M  V30 4256 C 399.055 -3.27717 4.18061 0
M  V30 4257 C 398.094 -2.96056 5.3574 0
M  V30 4258 N 397.231 -4.11847 5.68618 0
M  V30 4259 H 402.071 -0.594504 2.9201 0
M  V30 4260 H 399.608 -0.281921 1.44373 0
M  V30 4261 H 401.566 -3.07258 2.82221 0
M  V30 4262 H 400.196 -2.72122 1.73636 0
M  V30 4263 H 399.248 -1.19244 3.61227 0
M  V30 4264 H 400.56 -1.77042 4.66323 0
M  V30 4265 H 399.714 -4.11702 4.4563 0
M  V30 4266 H 398.453 -3.58188 3.30988 0
M  V30 4267 H 397.458 -2.10474 5.07918 0
M  V30 4268 H 398.683 -2.66857 6.24471 0
M  V30 4269 H 396.629 -4.42258 4.84504 0
M  V30 4270 H 396.546 -3.87938 6.48876 0
M  V30 4271 H 397.814 -4.96689 6.00766 0
M  V30 4272 N 402.043 -1.548 -0.295768 0
M  V30 4273 C 403.291 -1.73985 -1.02828 0
M  V30 4274 C 403.612 -0.531406 -1.87619 0
M  V30 4275 O 402.882 0.454221 -1.90561 0
M  V30 4276 H 401.462 -0.641556 -0.382642 0
M  V30 4277 H 404.124 -1.92163 -0.325489 0
M  V30 4278 H 403.22 -2.63129 -1.67838 0
M  V30 4279 N 403.521 0.559213 -1.47345 0
M  V30 4280 C 404.431 1.69388 -1.62311 0
M  V30 4281 C 405.447 1.6648 -0.505993 0
M  V30 4282 O 406.623 1.85964 -0.773262 0
M  V30 4283 C 403.688 3.05894 -1.63185 0
M  V30 4284 C 402.749 3.19885 -2.86307 0
M  V30 4285 C 401.982 4.49879 -2.87131 0
M  V30 4286 O 402.205 5.35217 -1.97229 0
M  V30 4287 O 401.139 4.67618 -3.78968 0
M  V30 4288 H 404.965 1.59706 -2.58317 0
M  V30 4289 H 402.55 0.728989 -1.30407 0
M  V30 4290 H 404.432 3.87133 -1.66451 0
M  V30 4291 H 403.107 3.15964 -0.70345 0
M  V30 4292 H 402.014 2.38052 -2.88587 0
M  V30 4293 H 403.347 3.14718 -3.78435 0
M  V30 4294 N 404.999 1.35443 0.805782 0
M  V30 4295 C 406.245 1.2996 1.56467 0
M  V30 4296 C 406.6 -0.124742 1.91995 0
M  V30 4297 O 405.893 -1.07533 1.58579 0
M  V30 4298 C 406.087 2.14045 2.86216 0
M  V30 4299 C 405.916 3.64512 2.63365 0
M  V30 4300 C 404.686 4.33744 2.59219 0
M  V30 4301 C 406.884 4.58142 2.33688 0
M  V30 4302 N 404.866 5.69953 2.28094 0
M  V30 4303 C 406.237 5.8248 2.12408 0
M  V30 4304 C 408.292 4.46877 2.19558 0
M  V30 4305 C 406.995 6.96818 1.78429 0
M  V30 4306 C 409.021 5.61065 1.86976 0
M  V30 4307 C 408.383 6.84431 1.66532 0
M  V30 4308 H 404.482 0.530817 0.574245 0
M  V30 4309 H 407.066 1.70333 0.943126 0
M  V30 4310 H 405.237 1.75942 3.46264 0
M  V30 4311 H 406.969 2.00075 3.51784 0
M  V30 4312 H 403.724 3.86365 2.73896 0
M  V30 4313 H 404.148 6.41845 2.15323 0
M  V30 4314 H 408.79 3.52102 2.34061 0
M  V30 4315 H 406.508 7.91559 1.62664 0
M  V30 4316 H 410.094 5.54302 1.7675 0
M  V30 4317 H 408.974 7.71294 1.41688 0
M  V30 4318 N 406.477 -1.02803 1.19454 0
M  V30 4319 C 407.424 -2.11099 0.933046 0
M  V30 4320 C 408.394 -1.65571 -0.132447 0
M  V30 4321 O 409.579 -1.90797 0.00987576 0
M  V30 4322 C 406.719 -3.41763 0.478747 0
M  V30 4323 C 405.832 -4.00833 1.6111 0
M  V30 4324 C 404.967 -5.19511 1.10825 0
M  V30 4325 C 404.006 -5.70639 2.21445 0
M  V30 4326 N 403.143 -6.80589 1.72461 0
M  V30 4327 H 407.983 -2.32804 1.86028 0
M  V30 4328 H 405.52 -1.14179 0.927441 0
M  V30 4329 H 407.478 -4.16736 0.196745 0
M  V30 4330 H 406.108 -3.20166 -0.411493 0
M  V30 4331 H 405.16 -3.23066 2.00829 0
M  V30 4332 H 406.472 -4.34794 2.4445 0
M  V30 4333 H 405.626 -6.01645 0.781533 0
M  V30 4334 H 404.365 -4.87086 0.244606 0
M  V30 4335 H 403.37 -4.87116 2.54947 0
M  V30 4336 H 404.595 -6.05102 3.08267 0
M  V30 4337 H 402.541 -6.50016 0.884056 0
M  V30 4338 H 402.458 -7.13681 2.49389 0
M  V30 4339 H 403.726 -7.66317 1.42755 0
M  V30 4340 N 407.956 -0.998596 -1.21925 0
M  V30 4341 C 409.367 -0.711939 -1.72593 0
M  V30 4342 C 409.718 0.770842 -1.80423 0
M  V30 4343 O 408.843 1.60237 -1.4544 0
M  V30 4344 C 409.438 -1.28567 -3.13458 0
M  V30 4345 C 407.997 -1.04828 -3.61508 0
M  V30 4346 C 407.144 -1.4024 -2.39224 0
M  V30 4347 H 410.095 -1.17027 -1.07193 0
M  V30 4348 H 410.116 -0.667098 -3.74607 0
M  V30 4349 H 409.628 -2.36486 -3.07727 0
M  V30 4350 H 407.729 0.0140383 -3.72597 0
M  V30 4351 H 407.842 -1.71566 -4.47328 0
M  V30 4352 H 406.206 -0.821077 -2.41103 0
M  V30 4353 H 406.989 -2.49176 -2.36149 0
M  V30 4354 N 409.434 1.37368 -0.772513 0
M  V30 4355 C 410.85 1.53059 -0.452231 0
M  V30 4356 C 411.05 1.73065 1.03203 0
M  V30 4357 O 410.106 1.75245 1.81784 0
M  V30 4358 C 411.419 2.72659 -1.26797 0
M  V30 4359 C 412.967 2.86521 -1.25995 0
M  V30 4360 C 413.442 4.09105 -2.05905 0
M  V30 4361 N 414.933 4.16219 -2.03263 0
M  V30 4362 C 415.668 5.10107 -2.61875 0
M  V30 4363 N 415.164 6.09547 -3.29278 0
M  V30 4364 N 416.957 5.02596 -2.51701 0
M  V30 4365 H 409.108 1.22634 -1.7342 0
M  V30 4366 H 411.371 0.597206 -0.736239 0
M  V30 4367 H 411.077 2.64343 -2.31982 0
M  V30 4368 H 410.951 3.66363 -0.897672 0
M  V30 4369 H 413.338 2.94308 -0.216081 0
M  V30 4370 H 413.419 1.93774 -1.66989 0
M  V30 4371 H 413.063 4.0208 -3.10313 0
M  V30 4372 H 412.993 5.00968 -1.62292 0
M  V30 4373 H 415.484 3.45012 -1.54192 0
M  V30 4374 H 415.797 6.77718 -3.71374 0
M  V30 4375 H 414.142 6.09824 -3.33377 0
M  V30 4376 H 417.333 4.23855 -1.98657 0
M  V30 4377 H 417.506 5.75582 -2.97673 0
M  V30 4378 N 410.912 0.523116 1.48665 0
M  V30 4379 C 411.844 -0.280421 2.27478 0
M  V30 4380 C 412.857 -0.910694 1.34945 0
M  V30 4381 O 414.046 -0.790295 1.60052 0
M  V30 4382 C 411.146 -1.41171 3.08097 0
M  V30 4383 C 410.319 -0.884642 4.28361 0
M  V30 4384 C 409.378 -1.89622 4.90846 0
M  V30 4385 O 408.404 -1.4559 5.50265 0
M  V30 4386 N 409.606 -3.22801 4.82472 0
M  V30 4387 H 412.371 0.395481 2.97079 0
M  V30 4388 H 409.932 0.357018 1.57915 0
M  V30 4389 H 411.924 -2.08645 3.4677 0
M  V30 4390 H 410.494 -1.99139 2.40961 0
M  V30 4391 H 409.714 -0.0341177 3.94185 0
M  V30 4392 H 411.002 -0.511268 5.06225 0
M  V30 4393 H 410.4 -3.61246 4.35336 0
M  V30 4394 H 408.957 -3.85927 5.25265 0
M  V30 4395 N 412.39 -1.55475 0.257931 0
M  V30 4396 C 413.639 -1.98383 -0.364275 0
M  V30 4397 C 413.952 -1.14952 -1.58258 0
M  V30 4398 O 415.158 -1.47924 -2.27664 0
M  V30 4399 C 413.614 -3.53037 -0.699479 0
M  V30 4400 C 413.222 -4.45223 0.498046 0
M  V30 4401 C 414.966 -4.04575 -1.28526 0
M  V30 4402 C 412.873 -5.91238 0.138383 0
M  V30 4403 H 411.803 -0.740911 -0.13988 0
M  V30 4404 H 414.454 -1.79936 0.359883 0
M  V30 4405 H 412.836 -3.6722 -1.48207 0
M  V30 4406 H 414.01 -4.42803 1.27522 0
M  V30 4407 H 412.325 -4.04226 0.999503 0
M  V30 4408 H 414.922 -5.11196 -1.56788 0
M  V30 4409 H 415.265 -3.5258 -2.21344 0
M  V30 4410 H 415.798 -3.93762 -0.565337 0
M  V30 4411 H 412.537 -6.47294 1.03398 0
M  V30 4412 H 412.057 -5.96768 -0.602374 0
M  V30 4413 H 413.736 -6.46413 -0.27553 0
M  V30 4414 N 413.868 0.0150385 -1.57593 0
M  V30 4415 C 415.145 0.7392 -1.81094 0
M  V30 4416 C 415.525 1.92817 -0.859344 0
M  V30 4417 O 414.873 2.28301 0.095362 0
M  V30 4418 C 415.083 1.15907 -3.29191 0
M  V30 4419 C 416.431 1.56918 -3.9454 0
M  V30 4420 O 417.455 1.25328 -3.33424 0
M  V30 4421 O 416.314 2.15604 -5.02173 0
M  V30 4422 H 413.408 0.358631 -0.745193 0
M  V30 4423 H 415.954 -0.00926156 -1.69697 0
M  V30 4424 H 414.726 0.310921 -3.90063 0
M  V30 4425 H 414.349 1.96711 -3.45529 0
M  V30 4426 N 415.346 1.54954 0.287554 0
M  V30 4427 C 416.294 1.87606 1.37502 0
M  V30 4428 C 417.288 0.751001 1.51843 0
M  V30 4429 O 418.494 0.935169 1.53801 0
M  V30 4430 H 414.869 0.595231 0.459569 0
M  V30 4431 H 416.84 2.78477 1.07206 0
M  V30 4432 C 415.589 2.15183 2.73115 0
M  V30 4433 H 414.912 3.01234 2.62866 0
M  V30 4434 H 416.352 2.4196 3.48183 0
M  V30 4435 C 414.811 0.954686 3.2309 0
M  V30 4436 O 415.341 0.181949 4.01288 0
M  V30 4437 N 413.547 0.756368 2.80584 0
M  V30 4438 H 413.094 1.38643 2.17108 0
M  V30 4439 H 413.052 -0.0430391 3.14371 0
M  V30 4440 N 416.824 -0.551391 1.4764 0
M  V30 4441 C 418.235 -1.13349 1.48354 0
M  V30 4442 C 418.586 -1.94709 0.241432 0
M  V30 4443 O 417.711 -2.06306 -0.653205 0
M  V30 4444 C 418.306 -2.0623 2.68802 0
M  V30 4445 C 416.865 -2.597 2.72457 0
M  V30 4446 C 416.012 -1.36201 2.41546 0
M  V30 4447 H 418.963 -0.337698 1.55065 0
M  V30 4448 H 418.984 -2.90196 2.46103 0
M  V30 4449 H 418.496 -1.46987 3.59188 0
M  V30 4450 H 416.597 -3.22724 1.86225 0
M  V30 4451 H 416.71 -3.00296 3.73308 0
M  V30 4452 H 415.074 -1.67068 1.9225 0
M  V30 4453 H 415.857 -0.787425 3.34147 0
M  V30 4454 N 418.302 -1.35869 -0.798587 0
M  V30 4455 C 419.579 -1.20145 -1.54352 0
M  V30 4456 C 419.959 0.216161 -2.0999 0
M  V30 4457 O 419.307 1.22068 -1.93162 0
M  V30 4458 C 419.517 -2.27602 -2.64572 0
M  V30 4459 C 420.865 -2.63811 -3.32699 0
M  V30 4460 O 421.889 -2.26576 -2.74849 0
M  V30 4461 O 420.748 -3.27866 -4.37226 0
M  V30 4462 H 417.842 -0.467248 -0.682355 0
M  V30 4463 H 420.388 -1.47574 -0.837859 0
M  V30 4464 H 419.16 -3.2265 -2.21388 0
M  V30 4465 H 418.783 -2.01488 -3.42766 0
M  V30 4466 N 419.78 1.02168 -1.19998 0
M  V30 4467 C 421.01 1.79036 -1.031 0
M  V30 4468 C 421.418 1.84409 0.423078 0
M  V30 4469 O 420.761 1.29228 1.30559 0
M  V30 4470 C 420.823 3.25185 -1.53281 0
M  V30 4471 C 420.487 3.43431 -3.01503 0
M  V30 4472 C 421.484 3.33063 -3.99206 0
M  V30 4473 C 419.169 3.69412 -3.40353 0
M  V30 4474 C 421.163 3.48413 -5.33748 0
M  V30 4475 C 418.85 3.84406 -4.75053 0
M  V30 4476 C 419.848 3.7391 -5.71559 0
M  V30 4477 O 419.536 3.88452 -7.03818 0
M  V30 4478 H 419.268 0.570043 -0.363355 0
M  V30 4479 H 421.822 1.29524 -1.59414 0
M  V30 4480 H 420.052 3.75756 -0.913483 0
M  V30 4481 H 421.741 3.83671 -1.32481 0
M  V30 4482 H 422.507 3.12934 -3.70537 0
M  V30 4483 H 418.386 3.76671 -2.65782 0
M  V30 4484 H 421.93 3.40137 -6.09059 0
M  V30 4485 H 417.827 4.04035 -5.03415 0
M  V30 4486 H 418.595 4.055 -7.10993 0
M  V30 4487 N 421.258 1.00505 1.21394 0
M  V30 4488 C 422.205 0.565496 2.23765 0
M  V30 4489 C 423.175 -0.408466 1.60999 0
M  V30 4490 O 424.36 -0.310503 1.88257 0
M  V30 4491 C 421.5 -0.101667 3.4495 0
M  V30 4492 C 420.613 0.915479 4.22188 0
M  V30 4493 C 419.748 0.220574 5.30742 0
M  V30 4494 C 418.787 1.22527 5.99711 0
M  V30 4495 N 417.924 0.557831 6.9988 0
M  V30 4496 H 422.764 1.44314 2.60725 0
M  V30 4497 H 420.301 0.722643 1.28126 0
M  V30 4498 H 422.259 -0.505504 4.14126 0
M  V30 4499 H 420.889 -0.94303 3.08718 0
M  V30 4500 H 419.941 1.43756 3.52191 0
M  V30 4501 H 421.253 1.68005 4.69655 0
M  V30 4502 H 420.407 -0.239368 6.06228 0
M  V30 4503 H 419.146 -0.576401 4.84282 0
M  V30 4504 H 418.151 1.69571 5.22997 0
M  V30 4505 H 419.376 2.02332 6.48258 0
M  V30 4506 H 417.322 -0.219486 6.55633 0
M  V30 4507 H 417.239 1.26065 7.45415 0
M  V30 4508 H 418.507 0.121095 7.79406 0
M  V30 4509 N 422.737 -1.36956 0.779787 0
M  V30 4510 C 423.985 -1.99097 0.347079 0
M  V30 4511 C 424.306 -1.62206 -1.08232 0
M  V30 4512 O 423.576 -0.891373 -1.74446 0
M  V30 4513 H 422.156 -0.736409 0.125342 0
M  V30 4514 H 424.818 -1.67308 0.999696 0
M  V30 4515 H 423.914 -3.09107 0.431162 0
M  V30 4516 N 424.215 -0.530993 -1.48385 0
M  V30 4517 C 425.443 -0.00134122 -2.069 0
M  V30 4518 C 425.858 1.2805 -1.3874 0
M  V30 4519 O 425.215 1.76204 -0.475244 0
M  V30 4520 C 425.266 0.225256 -3.60798 0
M  V30 4521 O 424.987 -1.0058 -4.26398 0
M  V30 4522 C 426.488 0.795172 -4.3611 0
M  V30 4523 H 423.708 -0.0339704 -0.67014 0
M  V30 4524 H 426.252 -0.736926 -1.90761 0
M  V30 4525 H 424.407 0.910891 -3.76539 0
M  V30 4526 H 424.821 -0.787165 -5.1856 0
M  V30 4527 H 426.295 0.903143 -5.44562 0
M  V30 4528 H 426.772 1.80031 -4.00606 0
M  V30 4529 H 427.378 0.146069 -4.25049 0
M  V30 4530 N 425.693 1.55336 -0.266172 0
M  V30 4531 C 426.939 2.00423 0.346714 0
M  V30 4532 C 427.294 1.15132 1.54151 0
M  V30 4533 O 426.587 0.211289 1.90431 0
M  V30 4534 C 426.781 3.48606 0.787957 0
M  V30 4535 C 426.61 4.48236 -0.362535 0
M  V30 4536 C 425.38 4.98211 -0.843445 0
M  V30 4537 C 427.578 5.00199 -1.19603 0
M  V30 4538 N 425.56 5.81625 -1.96434 0
M  V30 4539 C 426.931 5.80973 -2.16497 0
M  V30 4540 C 428.986 4.82458 -1.2304 0
M  V30 4541 C 427.689 6.45896 -3.1656 0
M  V30 4542 C 429.715 5.48174 -2.21944 0
M  V30 4543 C 429.077 6.28751 -3.17571 0
M  V30 4544 H 425.176 0.776535 0.0922914 0
M  V30 4545 H 427.76 1.90792 -0.388154 0
M  V30 4546 H 425.931 3.58597 1.49207 0
M  V30 4547 H 427.663 3.80538 1.37742 0
M  V30 4548 H 424.418 4.71696 -0.424271 0
M  V30 4549 H 424.842 6.28025 -2.52813 0
M  V30 4550 H 429.484 4.19774 -0.504903 0
M  V30 4551 H 427.202 7.07734 -3.90048 0
M  V30 4552 H 430.788 5.36392 -2.25333 0
M  V30 4553 H 429.668 6.78703 -3.92851 0
M  V30 4554 N 427.171 -0.0066808 1.57599 0
M  V30 4555 C 428.42 -0.692078 1.89455 0
M  V30 4556 C 428.733 -1.75306 0.867586 0
M  V30 4557 O 429.939 -2.49262 1.07614 0
M  V30 4558 C 428.395 -1.2821 3.36289 0
M  V30 4559 C 428.003 -0.256291 4.47266 0
M  V30 4560 C 429.747 -1.94608 3.77264 0
M  V30 4561 C 427.654 -0.855927 5.85173 0
M  V30 4562 H 426.584 -0.262252 0.706923 0
M  V30 4563 H 429.235 0.052769 1.83424 0
M  V30 4564 H 427.617 -2.0774 3.37135 0
M  V30 4565 H 428.791 0.513923 4.57925 0
M  V30 4566 H 427.106 0.306862 4.15268 0
M  V30 4567 H 429.703 -2.40364 4.77629 0
M  V30 4568 H 430.046 -2.77382 3.10427 0
M  V30 4569 H 430.579 -1.21822 3.78688 0
M  V30 4570 H 427.318 -0.0671161 6.55466 0
M  V30 4571 H 426.838 -1.59546 5.78191 0
M  V30 4572 H 428.517 -1.35658 6.32618 0
M  V30 4573 N 428.649 -1.55105 -0.279332 0
M  V30 4574 C 429.599 -1.83937 -1.34727 0
M  V30 4575 C 430.583 -0.69785 -1.44979 0
M  V30 4576 O 431.775 -0.95904 -1.48766 0
M  V30 4577 C 428.904 -2.1092 -2.70864 0
M  V30 4578 C 427.99 -3.31314 -2.64748 0
M  V30 4579 N 428.381 -4.51371 -2.2825 0
M  V30 4580 C 426.679 -3.33777 -2.95819 0
M  V30 4581 C 427.38 -5.33447 -2.31969 0
M  V30 4582 N 426.356 -4.71697 -2.7019 0
M  V30 4583 H 430.158 -2.74309 -1.05506 0
M  V30 4584 H 427.672 -1.54896 -0.487959 0
M  V30 4585 H 429.669 -2.2973 -3.47893 0
M  V30 4586 H 428.329 -1.21828 -3.00979 0
M  V30 4587 H 429.34 -4.77584 -2.00335 0
M  V30 4588 H 426.017 -2.54858 -3.30687 0
M  V30 4589 H 427.407 -6.39424 -2.06365 0
M  V30 4590 N 430.127 0.543554 -1.4793 0
M  V30 4591 C 431.538 1.12561 -1.48953 0
M  V30 4592 C 431.889 1.94578 -0.251754 0
M  V30 4593 O 431.014 2.0665 0.642255 0
M  V30 4594 C 431.609 2.04801 -2.69892 0
M  V30 4595 C 430.168 2.58251 -2.73831 0
M  V30 4596 C 429.315 1.34918 -2.42265 0
M  V30 4597 H 432.266 0.32947 -1.55242 0
M  V30 4598 H 432.287 2.88886 -2.47639 0
M  V30 4599 H 431.799 1.4508 -3.59963 0
M  V30 4600 H 429.9 3.21732 -1.87934 0
M  V30 4601 H 430.013 2.98312 -3.74895 0
M  V30 4602 H 428.377 1.66046 -1.93134 0
M  V30 4603 H 429.16 0.769693 -3.3456 0
M  V30 4604 N 431.605 1.3629 0.791371 0
M  V30 4605 C 432.515 1.32606 1.93527 0
M  V30 4606 C 433.531 0.228541 1.72493 0
M  V30 4607 O 434.707 0.460571 1.96063 0
M  V30 4608 C 431.772 1.11271 3.28359 0
M  V30 4609 C 430.833 2.3048 3.62185 0
M  V30 4610 C 430.066 2.10154 4.90583 0
M  V30 4611 O 430.289 1.07572 5.60165 0
M  V30 4612 O 429.223 2.97884 5.23019 0
M  V30 4613 H 433.049 2.28909 1.99585 0
M  V30 4614 H 430.634 1.16818 0.931344 0
M  V30 4615 H 432.516 1.01283 4.09047 0
M  V30 4616 H 431.191 0.180292 3.23198 0
M  V30 4617 H 430.098 2.46036 2.81811 0
M  V30 4618 H 431.431 3.22221 3.72068 0
M  V30 4619 N 433.083 -1.0153 1.20538 0
M  V30 4620 C 434.332 -1.74558 1.01057 0
M  V30 4621 C 434.645 -1.90168 -0.457756 0
M  V30 4622 O 435.851 -2.60301 -0.771722 0
M  V30 4623 C 434.307 -3.13963 1.75941 0
M  V30 4624 C 433.915 -3.06361 3.26875 0
M  V30 4625 C 435.659 -3.91191 1.64832 0
M  V30 4626 C 433.566 -4.40782 3.94291 0
M  V30 4627 H 432.496 -0.654417 0.374505 0
M  V30 4628 H 435.147 -1.13521 1.44171 0
M  V30 4629 H 433.529 -3.75549 1.25614 0
M  V30 4630 H 434.703 -2.54074 3.84425 0
M  V30 4631 H 433.018 -2.42625 3.38411 0
M  V30 4632 H 435.615 -4.90644 2.12539 0
M  V30 4633 H 435.958 -4.11884 0.604745 0
M  V30 4634 H 436.491 -3.36236 2.12579 0
M  V30 4635 H 433.23 -4.25292 4.98805 0
M  V30 4636 H 432.75 -4.9307 3.41529 0
M  V30 4637 H 434.429 -5.09621 3.98617 0
M  V30 4638 N 434.561 -1.01147 -1.20859 0
M  V30 4639 C 435.838 -0.613136 -1.85742 0
M  V30 4640 C 436.218 0.909004 -1.90526 0
M  V30 4641 O 435.566 1.79862 -1.40932 0
M  V30 4642 C 435.776 -1.255 -3.25654 0
M  V30 4643 C 437.124 -1.3672 -4.01986 0
M  V30 4644 O 438.148 -1.21082 -3.34989 0
M  V30 4645 O 437.007 -1.6194 -5.21956 0
M  V30 4646 H 434.101 -0.210878 -0.799662 0
M  V30 4647 H 436.647 -1.10853 -1.2849 0
M  V30 4648 H 435.419 -2.29532 -3.16908 0
M  V30 4649 H 435.042 -0.746369 -3.90532 0
M  V30 4650 N 436.039 1.36541 -0.78704 0
M  V30 4651 C 436.987 2.31965 -0.171724 0
M  V30 4652 C 437.981 1.55689 0.667631 0
M  V30 4653 O 439.187 1.70969 0.562981 0
M  V30 4654 H 435.562 0.751101 -0.0367545 0
M  V30 4655 H 437.533 2.81428 -0.992017 0
M  V30 4656 C 436.282 3.40968 0.680904 0
M  V30 4657 H 435.605 3.99775 0.0443961 0
M  V30 4658 H 437.045 4.10063 1.07815 0
M  V30 4659 C 435.504 2.82338 1.83813 0
M  V30 4660 O 436.034 2.74311 2.93456 0
M  V30 4661 N 434.24 2.39661 1.6435 0
M  V30 4662 H 433.787 2.46389 0.751668 0
M  V30 4663 H 433.745 2.00779 2.4194 0
M  V30 4664 N 437.518 0.538854 1.48102 0
M  V30 4665 C 438.929 0.100679 1.86428 0
M  V30 4666 C 439.28 -1.32447 1.44749 0
M  V30 4667 O 438.405 -1.99339 0.842199 0
M  V30 4668 C 439 0.175933 3.38343 0
M  V30 4669 C 437.559 -0.207098 3.7583 0
M  V30 4670 C 436.706 0.531741 2.72154 0
M  V30 4671 H 439.657 0.749614 1.3988 0
M  V30 4672 H 439.678 -0.610144 3.75576 0
M  V30 4673 H 439.19 1.21328 3.68648 0
M  V30 4674 H 437.291 -1.24626 3.5114 0
M  V30 4675 H 437.404 0.138687 4.78899 0
M  V30 4676 H 435.768 -0.0230462 2.5469 0
M  V30 4677 H 436.551 1.56989 3.05302 0
M  V30 4678 N 438.996 -1.55193 0.274407 0
M  V30 4679 C 439.906 -2.26164 -0.623473 0
M  V30 4680 C 440.922 -1.28729 -1.17068 0
M  V30 4681 O 442.098 -1.61663 -1.20112 0
M  V30 4682 C 439.163 -2.96833 -1.7914 0
M  V30 4683 C 438.224 -4.09745 -1.28093 0
M  V30 4684 C 437.457 -4.77034 -2.3932 0
M  V30 4685 O 437.68 -4.4353 -3.5866 0
M  V30 4686 O 436.614 -5.64996 -2.07516 0
M  V30 4687 H 440.44 -3.03661 -0.0485661 0
M  V30 4688 H 438.025 -1.49341 0.0418382 0
M  V30 4689 H 439.907 -3.41248 -2.4724 0
M  V30 4690 H 438.582 -2.22253 -2.35341 0
M  V30 4691 H 437.489 -3.69787 -0.566416 0
M  V30 4692 H 438.822 -4.86224 -0.764683 0
M  V30 4693 N 440.474 -0.00167713 -1.576 0
M  V30 4694 C 441.704 0.692754 -1.94639 0
M  V30 4695 C 442.112 1.67744 -0.87513 0
M  V30 4696 O 441.455 1.8305 0.154382 0
M  V30 4697 C 441.517 1.47881 -3.27676 0
M  V30 4698 C 441.181 0.655518 -4.52274 0
M  V30 4699 C 442.178 -0.0575214 -5.19868 0
M  V30 4700 C 439.863 0.600994 -4.98692 0
M  V30 4701 C 441.857 -0.814052 -6.3218 0
M  V30 4702 C 439.544 -0.15926 -6.10892 0
M  V30 4703 C 440.542 -0.865515 -6.77494 0
M  V30 4704 O 440.23 -1.61336 -7.87544 0
M  V30 4705 H 439.962 0.197792 -0.646417 0
M  V30 4706 H 442.516 -0.049423 -2.05341 0
M  V30 4707 H 440.746 2.2655 -3.13388 0
M  V30 4708 H 442.435 2.05874 -3.49816 0
M  V30 4709 H 443.201 -0.0245611 -4.84994 0
M  V30 4710 H 439.08 1.14025 -4.46676 0
M  V30 4711 H 442.624 -1.36584 -6.84098 0
M  V30 4712 H 438.521 -0.194035 -6.45208 0
M  V30 4713 H 439.289 -1.53025 -8.04068 0
M  V30 4714 N 441.952 1.55251 0.271103 0
M  V30 4715 C 443.177 1.80306 1.02491 0
M  V30 4716 C 443.602 0.575457 1.79081 0
M  V30 4717 O 442.96 -0.474987 1.74967 0
M  V30 4718 C 443.008 3.02832 1.95768 0
M  V30 4719 O 442.112 2.78051 3.04568 0
M  V30 4720 H 441.453 0.595896 0.292923 0
M  V30 4721 H 443.983 2.02397 0.299436 0
M  V30 4722 H 443.993 3.31616 2.37686 0
M  V30 4723 H 442.668 3.9183 1.39434 0
M  V30 4724 H 441.245 2.60369 2.66951 0
M  V30 4725 N 443.43 -0.535701 1.48216 0
M  V30 4726 C 444.841 -1.11769 1.49548 0
M  V30 4727 C 445.192 -1.94442 0.26207 0
M  V30 4728 O 444.317 -2.06987 -0.631287 0
M  V30 4729 C 444.912 -2.03367 2.70975 0
M  V30 4730 C 443.471 -2.56795 2.75196 0
M  V30 4731 C 442.618 -1.33631 2.42977 0
M  V30 4732 H 445.569 -0.321232 1.55415 0
M  V30 4733 H 445.59 -2.87569 2.49167 0
M  V30 4734 H 445.102 -1.43169 3.60727 0
M  V30 4735 H 443.203 -3.20731 1.89638 0
M  V30 4736 H 443.316 -2.9632 3.76472 0
M  V30 4737 H 441.68 -1.6502 1.94012 0
M  V30 4738 H 442.463 -0.75194 3.34964 0
M  V30 4739 N 444.908 -1.36708 -0.784132 0
M  V30 4740 C 446.185 -1.21776 -1.53069 0
M  V30 4741 C 446.565 0.193876 -2.10208 0
M  V30 4742 O 445.913 1.20012 -1.94446 0
M  V30 4743 C 446.123 -2.30395 -2.62143 0
M  V30 4744 C 447.471 -2.67325 -3.29882 0
M  V30 4745 O 448.495 -2.29478 -2.7243 0
M  V30 4746 O 447.354 -3.32485 -4.33724 0
M  V30 4747 H 444.448 -0.474459 -0.677361 0
M  V30 4748 H 446.994 -1.48454 -0.82216 0
M  V30 4749 H 445.766 -3.2498 -2.17953 0
M  V30 4750 H 445.389 -2.05112 -3.40609 0
M  V30 4751 N 446.386 1.0089 -1.21074 0
M  V30 4752 C 447.797 1.56056 -1.02486 0
M  V30 4753 C 448.148 1.91728 0.416506 0
M  V30 4754 O 447.273 1.73066 1.29912 0
M  V30 4755 C 447.868 2.83563 -1.85411 0
M  V30 4756 C 446.427 3.3523 -1.71166 0
M  V30 4757 C 445.574 2.0846 -1.82865 0
M  V30 4758 H 448.525 0.831818 -1.35154 0
M  V30 4759 H 448.546 3.55286 -1.36205 0
M  V30 4760 H 448.058 2.57569 -2.9031 0
M  V30 4761 H 446.159 3.66167 -0.689361 0
M  V30 4762 H 446.272 4.06913 -2.52901 0
M  V30 4763 H 444.636 2.21275 -1.26132 0
M  V30 4764 H 445.419 1.84883 -2.89263 0
M  V30 4765 N 447.864 1.01787 1.20321 0
M  V30 4766 C 449.089 0.727009 1.9424 0
M  V30 4767 C 449.514 -0.706179 1.74341 0
M  V30 4768 O 448.872 -1.48609 1.03852 0
M  V30 4769 C 448.92 1.06958 3.44372 0
M  V30 4770 O 448.024 0.181983 4.11998 0
M  V30 4771 H 447.365 0.269626 0.606793 0
M  V30 4772 H 449.895 1.36158 1.52716 0
M  V30 4773 H 449.905 1.02182 3.94997 0
M  V30 4774 H 448.58 2.11378 3.58179 0
M  V30 4775 H 447.157 0.287378 3.71791 0
M  V30 4776 N 449.342 -1.36122 0.79427 0
M  V30 4777 C 450.591 -1.98361 0.365464 0
M  V30 4778 C 450.904 -1.6374 -1.06997 0
M  V30 4779 O 452.11 -2.19251 -1.60129 0
M  V30 4780 C 450.566 -3.54821 0.602496 0
M  V30 4781 C 450.174 -3.98362 2.04967 0
M  V30 4782 C 451.918 -4.2383 0.238437 0
M  V30 4783 C 449.825 -5.47619 2.2331 0
M  V30 4784 H 448.755 -0.742193 0.13291 0
M  V30 4785 H 451.406 -1.55354 0.976589 0
M  V30 4786 H 449.788 -3.95922 -0.078409 0
M  V30 4787 H 450.962 -3.68447 2.76737 0
M  V30 4788 H 449.277 -3.42206 2.37243 0
M  V30 4789 H 451.874 -5.33529 0.353705 0
M  V30 4790 H 452.217 -4.08264 -0.814006 0
M  V30 4791 H 452.75 -3.88108 0.872769 0
M  V30 4792 H 449.489 -5.68138 3.26955 0
M  V30 4793 H 449.009 -5.79145 1.5605 0
M  V30 4794 H 450.688 -6.13911 2.0426 0
M  V30 4795 N 450.82 -0.546701 -1.47814 0
M  V30 4796 C 452.05 -0.0232519 -2.06587 0
M  V30 4797 C 452.458 1.2712 -1.40133 0
M  V30 4798 O 451.801 1.77091 -0.488305 0
M  V30 4799 C 451.863 0.254117 -3.58601 0
M  V30 4800 C 451.527 -0.949331 -4.47031 0
M  V30 4801 C 452.524 -1.85216 -4.85789 0
M  V30 4802 C 450.209 -1.16104 -4.88697 0
M  V30 4803 C 452.203 -2.95047 -5.65001 0
M  V30 4804 C 449.89 -2.26247 -5.67676 0
M  V30 4805 C 450.888 -3.1555 -6.05737 0
M  V30 4806 O 450.576 -4.23784 -6.83127 0
M  V30 4807 H 450.308 -0.0380082 -0.674931 0
M  V30 4808 H 452.862 -0.756631 -1.90956 0
M  V30 4809 H 451.092 1.04168 -3.72406 0
M  V30 4810 H 452.781 0.72167 -3.99433 0
M  V30 4811 H 453.547 -1.70061 -4.54207 0
M  V30 4812 H 449.426 -0.475159 -4.58545 0
M  V30 4813 H 452.97 -3.64778 -5.94628 0
M  V30 4814 H 448.867 -2.41379 -5.98671 0
M  V30 4815 H 449.635 -4.21701 -7.01506 0
M  V30 4816 N 452.299 1.55045 -0.282633 0
M  V30 4817 C 453.262 2.21515 0.588539 0
M  V30 4818 C 454.262 1.19535 1.07554 0
M  V30 4819 O 455.452 1.44391 0.974514 0
M  V30 4820 C 452.584 2.88704 1.8128 0
M  V30 4821 H 453.777 2.99899 0.00806397 0
M  V30 4822 H 451.33 1.56265 -0.0333067 0
M  V30 4823 H 452.065 2.14352 2.43359 0
M  V30 4824 H 451.85 3.63443 1.47144 0
M  V30 4825 H 453.34 3.39465 2.43214 0
M  V30 4826 N 453.777 0.010035 1.57597 0
M  V30 4827 C 455.007 -0.682422 1.95004 0
M  V30 4828 C 455.415 -1.67278 0.884014 0
M  V30 4829 O 454.758 -1.83129 -0.144672 0
M  V30 4830 C 454.82 -1.46141 3.28456 0
M  V30 4831 C 454.484 -0.631523 4.52615 0
M  V30 4832 C 455.481 0.0850905 5.1983 0
M  V30 4833 C 453.166 -0.574539 4.99003 0
M  V30 4834 C 455.16 0.847566 6.3174 0
M  V30 4835 C 452.847 0.191655 6.10799 0
M  V30 4836 C 453.845 0.901432 6.77025 0
M  V30 4837 O 453.533 1.65511 7.86677 0
M  V30 4838 H 453.265 -0.194361 0.647456 0
M  V30 4839 H 455.819 0.060312 2.05311 0
M  V30 4840 H 454.049 -2.24885 3.14585 0
M  V30 4841 H 455.738 -2.04016 3.50902 0
M  V30 4842 H 456.504 0.0502812 4.84974 0
M  V30 4843 H 452.383 -1.11654 4.47274 0
M  V30 4844 H 455.927 1.4021 6.83364 0
M  V30 4845 H 451.824 0.228249 6.45096 0
M  V30 4846 H 452.592 1.57287 8.03245 0
M  V30 4847 N 455.255 -1.55392 -0.262866 0
M  V30 4848 C 456.532 -1.67204 -1.01499 0
M  V30 4849 C 456.912 -0.545186 -2.03939 0
M  V30 4850 O 456.26 0.453467 -2.23955 0
M  V30 4851 C 456.47 -3.06847 -1.6627 0
M  V30 4852 C 457.818 -3.64928 -2.17054 0
M  V30 4853 O 458.842 -3.09545 -1.76239 0
M  V30 4854 O 457.701 -4.61984 -2.91947 0
M  V30 4855 H 454.795 -0.679467 -0.471438 0
M  V30 4856 H 457.341 -1.67729 -0.257918 0
M  V30 4857 H 456.113 -3.80309 -0.920915 0
M  V30 4858 H 455.736 -3.10266 -2.48638 0
M  V30 4859 N 456.733 0.527833 -1.48498 0
M  V30 4860 C 457.681 1.65313 -1.63628 0
M  V30 4861 C 458.675 1.6177 -0.502676 0
M  V30 4862 O 459.881 1.66601 -0.681469 0
M  V30 4863 H 456.256 0.547518 -0.515488 0
M  V30 4864 H 458.227 1.49696 -2.58135 0
M  V30 4865 C 456.976 3.03576 -1.6952 0
M  V30 4866 H 456.299 3.06997 -2.56111 0
M  V30 4867 H 457.739 3.81923 -1.84149 0
M  V30 4868 C 456.198 3.34089 -0.43432 0
M  V30 4869 O 456.728 3.99151 0.451852 0
M  V30 4870 N 454.934 2.88991 -0.305368 0
M  V30 4871 H 454.481 2.36222 -1.02747 0
M  V30 4872 H 454.439 3.09776 0.537249 0
M  V30 4873 N 458.211 1.37122 0.776871 0
M  V30 4874 C 459.458 1.32047 1.53524 0
M  V30 4875 C 459.786 -0.0965631 1.9426 0
M  V30 4876 O 459.041 -1.06866 1.63945 0
M  V30 4877 C 459.34 2.20068 2.81611 0
M  V30 4878 C 459.006 3.68423 2.59953 0
M  V30 4879 C 457.668 4.08854 2.53755 0
M  V30 4880 C 460.02 4.62431 2.40431 0
M  V30 4881 C 457.348 5.41417 2.26018 0
M  V30 4882 C 459.7 5.95225 2.14219 0
M  V30 4883 C 458.364 6.34767 2.06462 0
M  V30 4884 H 457.634 0.483196 0.561785 0
M  V30 4885 H 460.281 1.69284 0.895268 0
M  V30 4886 H 458.586 1.75809 3.50141 0
M  V30 4887 H 460.283 2.13458 3.39465 0
M  V30 4888 H 456.873 3.36354 2.65638 0
M  V30 4889 H 461.057 4.32057 2.44213 0
M  V30 4890 H 456.313 5.71022 2.18504 0
M  V30 4891 H 460.487 6.67626 1.98112 0
M  V30 4892 H 458.114 7.37413 1.84733 0
M  V30 4893 N 459.689 -1.00246 1.21608 0
M  V30 4894 C 460.937 -1.73717 1.0328 0
M  V30 4895 C 461.258 -1.90102 -0.434318 0
M  V30 4896 O 460.528 -1.45376 -1.31311 0
M  V30 4897 H 459.108 -0.643613 0.379172 0
M  V30 4898 H 461.77 -1.20787 1.52959 0
M  V30 4899 H 460.866 -2.73535 1.50283 0
M  V30 4900 N 461.167 -1.02423 -1.1978 0
M  V30 4901 C 462.413 -0.719051 -1.89625 0
M  V30 4902 C 462.746 0.750083 -1.7913 0
M  V30 4903 O 462.021 1.54574 -1.18056 0
M  V30 4904 C 462.304 -1.16499 -3.40735 0
M  V30 4905 C 462.157 -2.695 -3.60125 0
M  V30 4906 C 463.476 -0.742166 -4.33797 0
M  V30 4907 H 460.595 -0.26269 -0.688595 0
M  V30 4908 H 463.237 -1.27333 -1.41018 0
M  V30 4909 H 461.387 -0.69341 -3.82262 0
M  V30 4910 H 463.059 -3.24569 -3.278 0
M  V30 4911 H 461.302 -3.10113 -3.03336 0
M  V30 4912 H 461.973 -2.95757 -4.66081 0
M  V30 4913 H 464.449 -1.1477 -3.99959 0
M  V30 4914 H 463.325 -1.08213 -5.38127 0
M  V30 4915 H 463.586 0.355747 -4.40666 0
M  V30 4916 N 462.645 1.35699 -0.801477 0
M  V30 4917 C 463.575 2.32436 -0.222658 0
M  V30 4918 C 464.556 1.5723 0.649057 0
M  V30 4919 O 465.741 1.85324 0.580387 0
M  V30 4920 C 462.871 3.41469 0.633719 0
M  V30 4921 C 461.825 4.27774 -0.139083 0
M  V30 4922 C 461.151 5.28082 0.838666 0
M  V30 4923 C 462.451 5.04946 -1.33517 0
M  V30 4924 H 464.145 2.81094 -1.03086 0
M  V30 4925 H 461.691 1.35146 -0.497155 0
M  V30 4926 H 463.644 4.08143 1.04868 0
M  V30 4927 H 462.368 2.91408 1.47475 0
M  V30 4928 H 461.027 3.62673 -0.535156 0
M  V30 4929 H 460.675 4.7429 1.67506 0
M  V30 4930 H 460.375 5.86695 0.32594 0
M  V30 4931 H 461.899 5.97628 1.25194 0
M  V30 4932 H 463.313 5.64593 -0.995349 0
M  V30 4933 H 461.71 5.7303 -1.78202 0
M  V30 4934 H 462.78 4.35886 -2.12442 0
M  V30 4935 N 464.123 0.554532 1.47522 0
M  V30 4936 C 465.371 0.0294208 2.02079 0
M  V30 4937 C 465.692 -1.32411 1.43151 0
M  V30 4938 O 464.962 -1.863 0.605728 0
M  V30 4939 H 463.542 0.00788672 0.746958 0
M  V30 4940 H 466.204 0.723934 1.80956 0
M  V30 4941 H 465.3 -0.0606745 3.12041 0
M  V30 4942 N 465.601 -1.54893 0.290851 0
M  V30 4943 C 466.531 -2.26103 -0.583084 0
M  V30 4944 C 467.512 -1.25684 -1.14619 0
M  V30 4945 O 468.697 -1.54436 -1.17741 0
M  V30 4946 C 465.827 -2.99409 -1.75987 0
M  V30 4947 C 464.781 -4.0689 -1.32758 0
M  V30 4948 C 464.107 -4.67856 -2.58872 0
M  V30 4949 C 465.407 -5.20215 -0.46624 0
M  V30 4950 H 467.101 -2.99398 0.0108214 0
M  V30 4951 H 464.647 -1.43998 0.00664468 0
M  V30 4952 H 466.6 -3.47943 -2.37727 0
M  V30 4953 H 465.324 -2.23675 -2.37985 0
M  V30 4954 H 463.983 -3.59191 -0.733299 0
M  V30 4955 H 463.631 -3.88772 -3.19163 0
M  V30 4956 H 463.331 -5.40438 -2.30653 0
M  V30 4957 H 464.855 -5.19147 -3.21433 0
M  V30 4958 H 466.269 -5.64704 -0.989047 0
M  V30 4959 H 464.666 -5.99455 -0.27826 0
M  V30 4960 H 465.736 -4.82198 0.511173 0
M  V30 4961 N 467.08 -0.0183926 -1.57589 0
M  V30 4962 C 468.357 0.700621 -1.82622 0
M  V30 4963 C 468.737 1.90951 -0.90005 0
M  V30 4964 O 468.085 2.28452 0.0469145 0
M  V30 4965 C 468.295 1.08899 -3.31575 0
M  V30 4966 C 469.643 1.48514 -3.9778 0
M  V30 4967 O 470.667 1.18227 -3.36007 0
M  V30 4968 O 469.526 2.04903 -5.06633 0
M  V30 4969 H 466.62 0.342743 -0.752633 0
M  V30 4970 H 469.166 -0.0452548 -1.6964 0
M  V30 4971 H 467.938 0.228113 -3.90635 0
M  V30 4972 H 467.561 1.89338 -3.49624 0
M  V30 4973 N 468.558 1.5553 0.254621 0
M  V30 4974 C 469.488 1.9268 1.31897 0
M  V30 4975 C 470.469 0.790797 1.506 0
M  V30 4976 O 471.654 1.05045 1.63337 0
M  V30 4977 C 468.784 2.21477 2.67517 0
M  V30 4978 C 467.738 3.37256 2.63519 0
M  V30 4979 C 467.064 3.51576 4.02862 0
M  V30 4980 C 468.364 4.73157 2.21179 0
M  V30 4981 H 470.058 2.81832 1.01051 0
M  V30 4982 H 467.604 1.35599 0.484662 0
M  V30 4983 H 469.557 2.46055 3.42104 0
M  V30 4984 H 468.281 1.29144 2.99982 0
M  V30 4985 H 466.94 3.12675 1.9139 0
M  V30 4986 H 466.588 2.56676 4.32581 0
M  V30 4987 H 466.288 4.2943 4.01078 0
M  V30 4988 H 467.812 3.78467 4.79161 0
M  V30 4989 H 469.226 4.97158 2.85494 0
M  V30 4990 H 467.623 5.54058 2.30521 0
M  V30 4991 H 468.693 4.70739 1.16332 0
M  V30 4992 N 470.036 -0.519951 1.48776 0
M  V30 4993 C 471.282 -1.27456 1.58514 0
M  V30 4994 C 471.637 -1.90634 0.260057 0
M  V30 4995 O 470.93 -1.76815 -0.738036 0
M  V30 4996 C 471.124 -2.37864 2.6675 0
M  V30 4997 C 470.953 -1.85509 4.09654 0
M  V30 4998 C 469.723 -1.67661 4.76674 0
M  V30 4999 C 471.921 -1.37783 4.955 0
M  V30 5000 N 469.903 -1.10037 6.03958 0
M  V30 5001 C 471.274 -0.921714 6.1311 0
M  V30 5002 C 473.329 -1.26179 4.81646 0
M  V30 5003 C 472.032 -0.361057 7.18393 0
M  V30 5004 C 474.058 -0.715121 5.8706 0
M  V30 5005 C 473.42 -0.269132 7.03886 0
M  V30 5006 H 469.519 -0.457049 0.634531 0
M  V30 5007 H 472.103 -0.585073 1.85701 0
M  V30 5008 H 470.274 -3.04296 2.41367 0
M  V30 5009 H 472.006 -3.04901 2.66116 0
M  V30 5010 H 468.761 -1.91478 4.33166 0
M  V30 5011 H 469.185 -0.832067 6.71867 0
M  V30 5012 H 473.827 -1.59263 3.91657 0
M  V30 5013 H 471.545 -0.0179127 8.08098 0
M  V30 5014 H 475.131 -0.628376 5.78397 0
M  V30 5015 H 474.011 0.14729 7.84062 0
M  V30 5016 N 471.514 -1.37532 -0.769588 0
M  V30 5017 C 472.446 -1.29347 -1.89214 0
M  V30 5018 C 473.459 -0.208842 -1.61455 0
M  V30 5019 O 474.648 -0.465158 -1.72333 0
M  V30 5020 C 471.748 -0.977649 -3.24492 0
M  V30 5021 C 470.921 -2.16817 -3.7988 0
M  V30 5022 C 469.98 -1.82229 -4.93639 0
M  V30 5023 O 469.006 -2.54548 -5.09111 0
M  V30 5024 N 470.208 -0.767696 -5.75401 0
M  V30 5025 H 472.973 -2.26073 -1.96751 0
M  V30 5026 H 470.534 -1.31185 -0.948795 0
M  V30 5027 H 472.526 -0.727065 -3.98115 0
M  V30 5028 H 471.096 -0.0988777 -3.12444 0
M  V30 5029 H 470.316 -2.58038 -2.9801 0
M  V30 5030 H 471.604 -2.96308 -4.13617 0
M  V30 5031 H 471.002 -0.167626 -5.65452 0
M  V30 5032 H 469.559 -0.576973 -6.49241 0
M  V30 5033 N 472.992 0.995999 -1.22138 0
M  V30 5034 C 474.238 1.73767 -1.04561 0
M  V30 5035 C 474.571 1.89633 0.418698 0
M  V30 5036 O 473.846 1.43723 1.3105 0
M  V30 5037 C 474.129 3.14505 -1.75382 0
M  V30 5038 C 473.982 3.06306 -3.29388 0
M  V30 5039 C 475.301 4.13615 -1.50369 0
M  V30 5040 H 472.42 0.630728 -0.38125 0
M  V30 5041 H 475.062 1.16057 -1.50435 0
M  V30 5042 H 473.212 3.63775 -1.36383 0
M  V30 5043 H 474.884 2.64681 -3.77812 0
M  V30 5044 H 473.127 2.43186 -3.59226 0
M  V30 5045 H 473.798 4.05884 -3.74116 0
M  V30 5046 H 476.274 3.73089 -1.84239 0
M  V30 5047 H 475.15 5.10212 -2.02421 0
M  V30 5048 H 475.411 4.39949 -0.435611 0
M  V30 5049 N 474.47 1.03057 1.19235 0
M  V30 5050 C 475.417 0.612832 2.22515 0
M  V30 5051 C 476.387 -0.374224 1.61829 0
M  V30 5052 O 477.572 -0.270501 1.88873 0
M  V30 5053 C 474.712 -0.028475 3.45088 0
M  V30 5054 C 473.825 1.00483 4.20151 0
M  V30 5055 C 472.96 0.333102 5.30155 0
M  V30 5056 C 471.999 1.3522 5.96977 0
M  V30 5057 N 471.136 0.70616 6.9854 0
M  V30 5058 H 475.976 1.49812 2.57605 0
M  V30 5059 H 473.513 0.749658 1.26564 0
M  V30 5060 H 475.471 -0.417548 4.15105 0
M  V30 5061 H 474.101 -0.877334 3.10649 0
M  V30 5062 H 473.153 1.51194 3.49062 0
M  V30 5063 H 474.465 1.77929 4.65986 0
M  V30 5064 H 473.619 -0.110725 6.06599 0
M  V30 5065 H 472.358 -0.473547 4.85396 0
M  V30 5066 H 471.363 1.80627 5.19282 0
M  V30 5067 H 472.588 2.16037 6.4382 0
M  V30 5068 H 470.534 -0.0803667 6.55951 0
M  V30 5069 H 470.451 1.41848 7.42573 0
M  V30 5070 H 471.719 0.286391 7.78974 0
M  V30 5071 N 475.948 -1.35272 0.808662 0
M  V30 5072 C 477.173 -2.03477 0.401475 0
M  V30 5073 C 477.598 -1.60537 -0.980279 0
M  V30 5074 O 476.956 -0.78304 -1.63518 0
M  V30 5075 C 477.004 -3.57181 0.495354 0
M  V30 5076 O 476.108 -4.09474 -0.490397 0
M  V30 5077 H 475.449 -0.642561 0.167366 0
M  V30 5078 H 477.979 -1.72824 1.09512 0
M  V30 5079 H 477.989 -4.06356 0.365912 0
M  V30 5080 H 476.664 -3.87784 1.5032 0
M  V30 5081 H 475.241 -3.71516 -0.321023 0
M  V30 5082 N 477.426 -0.562348 -1.47226 0
M  V30 5083 C 478.674 -0.0401371 -2.0206 0
M  V30 5084 C 478.995 1.3165 -1.43852 0
M  V30 5085 O 478.265 1.85976 -0.615599 0
M  V30 5086 H 476.845 -0.0118479 -0.746906 0
M  V30 5087 H 479.507 -0.73352 -1.8057 0
M  V30 5088 H 478.603 0.0441254 -3.12069 0
M  V30 5089 N 478.904 1.54736 -0.299062 0
M  V30 5090 C 480.132 2.04512 0.313447 0
M  V30 5091 C 480.547 1.17643 1.47667 0
M  V30 5092 O 479.904 0.20164 1.81383 0
M  V30 5093 C 479.955 3.53171 0.771542 0
M  V30 5094 O 479.676 4.36736 -0.345379 0
M  V30 5095 C 481.177 4.18936 1.4494 0
M  V30 5096 H 478.397 0.667507 0.0683784 0
M  V30 5097 H 480.941 1.99752 -0.438129 0
M  V30 5098 H 479.096 3.58298 1.47314 0
M  V30 5099 H 479.51 5.24499 0.0109219 0
M  V30 5100 H 480.984 5.24482 1.72111 0
M  V30 5101 H 481.461 3.68554 2.38883 0
M  V30 5102 H 482.067 4.17879 0.791028 0
M  V30 5103 N 480.382 0.0267497 1.57577 0
M  V30 5104 C 481.631 -0.651736 1.9088 0
M  V30 5105 C 481.944 -1.73427 0.904576 0
M  V30 5106 O 483.15 -2.46923 1.12877 0
M  V30 5107 C 481.606 -1.21048 3.38933 0
M  V30 5108 C 481.214 -0.161362 4.47709 0
M  V30 5109 C 482.958 -1.86562 3.81307 0
M  V30 5110 C 480.865 -0.731611 5.86857 0
M  V30 5111 H 479.795 -0.247198 0.712326 0
M  V30 5112 H 482.446 0.0916641 1.83271 0
M  V30 5113 H 480.828 -2.00542 3.41466 0
M  V30 5114 H 482.002 0.61094 4.56732 0
M  V30 5115 H 480.317 0.394877 4.14523 0
M  V30 5116 H 482.914 -2.30178 4.8262 0
M  V30 5117 H 483.257 -2.70735 3.16241 0
M  V30 5118 H 483.79 -1.13762 3.81186 0
M  V30 5119 H 480.529 0.0719329 6.55461 0
M  V30 5120 H 480.049 -1.47245 5.81445 0
M  V30 5121 H 481.728 -1.22208 6.35354 0
M  V30 5122 N 481.861 -1.55662 -0.24637 0
M  V30 5123 C 483.108 -1.77519 -0.974335 0
M  V30 5124 C 483.436 -0.591165 -1.85298 0
M  V30 5125 O 482.691 0.425497 -1.91018 0
M  V30 5126 C 482.99 -3.04885 -1.86494 0
M  V30 5127 C 482.656 -4.36209 -1.14161 0
M  V30 5128 C 481.318 -4.71896 -0.941701 0
M  V30 5129 C 483.67 -5.17391 -0.628957 0
M  V30 5130 C 480.998 -5.86299 -0.216852 0
M  V30 5131 C 483.35 -6.32546 0.0824273 0
M  V30 5132 C 482.014 -6.66853 0.293807 0
M  V30 5133 H 481.284 -0.649588 -0.356535 0
M  V30 5134 H 483.931 -1.89934 -0.244394 0
M  V30 5135 H 482.236 -2.87484 -2.66196 0
M  V30 5136 H 483.933 -3.18994 -2.42989 0
M  V30 5137 H 480.523 -4.08174 -1.30736 0
M  V30 5138 H 484.707 -4.90276 -0.770943 0
M  V30 5139 H 479.963 -6.11385 -0.0426124 0
M  V30 5140 H 484.137 -6.94693 0.487292 0
M  V30 5141 H 481.764 -7.55349 0.857428 0
M  V30 5142 N 483.339 0.512053 -1.4905 0
M  V30 5143 C 484.616 1.27337 -1.48474 0
M  V30 5144 C 484.996 2.1009 -0.206301 0
M  V30 5145 O 484.344 2.136 0.811609 0
M  V30 5146 C 484.554 2.13954 -2.75726 0
M  V30 5147 C 485.902 2.73507 -3.24776 0
M  V30 5148 O 486.926 2.24229 -2.76767 0
M  V30 5149 O 485.785 3.63186 -4.08361 0
M  V30 5150 H 482.879 0.575652 -0.593762 0
M  V30 5151 H 485.425 0.527232 -1.61302 0
M  V30 5152 H 484.197 1.52709 -3.60272 0
M  V30 5153 H 483.82 2.95782 -2.65705 0
M  V30 5154 N 484.817 1.37938 0.762283 0
M  V30 5155 C 485.765 1.34569 1.89721 0
M  V30 5156 C 486.759 0.232929 1.67791 0
M  V30 5157 O 487.965 0.401485 1.75465 0
M  V30 5158 H 484.34 0.419594 0.624055 0
M  V30 5159 H 486.311 2.30357 1.8968 0
M  V30 5160 C 485.06 1.17898 3.27101 0
M  V30 5161 H 484.383 2.02781 3.44558 0
M  V30 5162 H 485.823 1.19593 4.06784 0
M  V30 5163 C 484.282 -0.114728 3.36705 0
M  V30 5164 O 484.812 -1.0949 3.8649 0
M  V30 5165 N 483.018 -0.16863 2.9011 0
M  V30 5166 H 482.565 0.62967 2.49786 0
M  V30 5167 H 482.523 -1.03383 2.96916 0
M  V30 5168 N 486.295 -0.989507 1.22664 0
M  V30 5169 C 487.542 -1.72953 1.05325 0
M  V30 5170 C 487.87 -1.90104 -0.411168 0
M  V30 5171 O 487.125 -1.44386 -1.32103 0
M  V30 5172 C 487.424 -3.13649 1.71345 0
M  V30 5173 C 487.09 -3.16403 3.21248 0
M  V30 5174 C 485.752 -3.16862 3.62149 0
M  V30 5175 C 488.104 -3.12428 4.17179 0
M  V30 5176 C 485.432 -3.11051 4.97458 0
M  V30 5177 C 487.784 -3.08159 5.52468 0
M  V30 5178 C 486.448 -3.06935 5.92746 0
M  V30 5179 H 485.718 -0.632881 0.385412 0
M  V30 5180 H 488.365 -1.15863 1.52473 0
M  V30 5181 H 486.67 -3.74069 1.16532 0
M  V30 5182 H 488.367 -3.69658 1.55416 0
M  V30 5183 H 484.957 -3.16798 2.88682 0
M  V30 5184 H 489.141 -3.11221 3.86595 0
M  V30 5185 H 484.397 -3.0845 5.27891 0
M  V30 5186 H 488.571 -3.04039 6.26525 0
M  V30 5187 H 486.198 -3.02186 6.97558 0
M  V30 5188 N 487.773 -1.03688 -1.18687 0
M  V30 5189 C 488.703 -0.645407 -2.24403 0
M  V30 5190 C 489.684 0.349511 -1.66471 0
M  V30 5191 O 490.869 0.230453 -1.92828 0
M  V30 5192 C 487.999 -0.00365337 -3.473 0
M  V30 5193 C 486.953 -0.921705 -4.17958 0
M  V30 5194 C 486.279 -0.144629 -5.34504 0
M  V30 5195 C 487.579 -2.23909 -4.71871 0
M  V30 5196 H 489.273 -1.52917 -2.57404 0
M  V30 5197 H 486.819 -0.736711 -1.23728 0
M  V30 5198 H 488.772 0.281908 -4.20456 0
M  V30 5199 H 487.496 0.914963 -3.13522 0
M  V30 5200 H 486.155 -1.19159 -3.46694 0
M  V30 5201 H 485.803 0.776274 -4.96974 0
M  V30 5202 H 485.503 -0.756206 -5.82714 0
M  V30 5203 H 487.027 0.134004 -6.10453 0
M  V30 5204 H 488.441 -2.0145 -5.36741 0
M  V30 5205 H 486.838 -2.8033 -5.30599 0
M  V30 5206 H 487.908 -2.88822 -3.895 0
M  V30 5207 N 489.251 1.34841 -0.815825 0
M  V30 5208 C 490.5 1.97755 -0.396976 0
M  V30 5209 C 490.813 1.65422 1.04379 0
M  V30 5210 O 492.019 2.21771 1.5662 0
M  V30 5211 C 490.475 3.53818 -0.658869 0
M  V30 5212 C 490.083 3.95051 -2.11278 0
M  V30 5213 C 491.827 4.23397 -0.305834 0
M  V30 5214 C 489.734 5.43997 -2.31994 0
M  V30 5215 H 488.664 0.739985 -0.1447 0
M  V30 5216 H 491.315 1.53781 -1.00118 0
M  V30 5217 H 489.697 3.95997 0.0154112 0
M  V30 5218 H 490.871 3.63998 -2.82564 0
M  V30 5219 H 489.186 3.38388 -2.42657 0
M  V30 5220 H 491.783 5.32899 -0.43854 0
M  V30 5221 H 492.126 4.09508 0.748952 0
M  V30 5222 H 492.659 3.8667 -0.934403 0
M  V30 5223 H 489.398 5.62865 -3.35952 0
M  V30 5224 H 488.918 5.76589 -1.65244 0
M  V30 5225 H 490.597 6.10584 -2.14001 0
M  V30 5226 N 490.729 0.570148 1.46925 0
M  V30 5227 C 491.957 0.0561966 2.06824 0
M  V30 5228 C 492.372 -1.24326 1.42086 0
M  V30 5229 O 491.729 -1.74882 0.521794 0
M  V30 5230 C 491.78 -0.129517 3.61268 0
M  V30 5231 O 491.501 1.1185 4.23581 0
M  V30 5232 C 493.002 -0.679266 4.38065 0
M  V30 5233 H 490.222 0.0517261 0.669003 0
M  V30 5234 H 492.766 0.787243 1.8874 0
M  V30 5235 H 490.921 -0.810739 3.78822 0
M  V30 5236 H 491.335 0.924375 5.1629 0
M  V30 5237 H 492.809 -0.758445 5.46765 0
M  V30 5238 H 493.286 -1.69346 4.05239 0
M  V30 5239 H 493.892 -0.0333237 4.25287 0
M  V30 5240 N 492.207 -1.54576 0.307264 0
M  V30 5241 C 493.155 -2.25208 -0.581723 0
M  V30 5242 C 494.149 -1.26031 -1.13192 0
M  V30 5243 O 495.355 -1.43862 -1.08184 0
M  V30 5244 H 491.73 -0.723173 -0.206214 0
M  V30 5245 H 493.701 -2.98378 0.0364663 0
M  V30 5246 C 492.45 -3.01086 -1.73904 0
M  V30 5247 H 491.773 -3.77208 -1.32491 0
M  V30 5248 H 493.213 -3.5378 -2.33701 0
M  V30 5249 C 491.672 -2.08422 -2.64692 0
M  V30 5250 O 492.202 -1.65636 -3.65961 0
M  V30 5251 N 490.408 -1.74247 -2.32564 0
M  V30 5252 H 489.955 -2.09238 -1.50257 0
M  V30 5253 H 489.913 -1.12524 -2.93574 0
M  V30 5254 N 493.685 -0.035106 -1.57561 0
M  V30 5255 C 494.962 0.681212 -1.83354 0
M  V30 5256 C 495.342 1.89986 -0.920252 0
M  V30 5257 O 494.69 2.28489 0.0226815 0
M  V30 5258 C 494.9 1.05376 -3.32712 0
M  V30 5259 C 496.248 1.44286 -3.99333 0
M  V30 5260 O 497.272 1.14656 -3.37242 0
M  V30 5261 O 496.131 1.99518 -5.08778 0
M  V30 5262 H 493.225 0.334741 -0.756226 0
M  V30 5263 H 495.771 -0.0632448 -1.69582 0
M  V30 5264 H 494.543 0.186668 -3.90854 0
M  V30 5265 H 494.166 1.85619 -3.51613 0
M  V30 5266 N 495.163 1.55791 0.238111 0
M  V30 5267 C 496.073 1.94196 1.31625 0
M  V30 5268 C 497.089 0.843545 1.52185 0
M  V30 5269 O 498.265 1.1457 1.65637 0
M  V30 5270 C 495.33 2.2365 2.64918 0
M  V30 5271 C 494.391 3.46971 2.52804 0
M  V30 5272 C 493.624 3.7501 3.79741 0
M  V30 5273 O 493.847 3.04982 4.82019 0
M  V30 5274 O 492.781 4.68525 3.77846 0
M  V30 5275 H 496.607 2.86044 1.02043 0
M  V30 5276 H 494.192 1.42786 0.439603 0
M  V30 5277 H 496.074 2.43863 3.4367 0
M  V30 5278 H 494.749 1.34979 2.94215 0
M  V30 5279 H 493.656 3.32055 1.72309 0
M  V30 5280 H 494.989 4.35971 2.28451 0
M  V30 5281 N 496.642 -0.504142 1.49319 0
M  V30 5282 C 497.605 -1.5883 1.65244 0
M  V30 5283 C 498.605 -1.52009 0.524386 0
M  V30 5284 O 499.795 -1.55218 0.79077 0
M  V30 5285 C 496.927 -2.98481 1.64687 0
M  V30 5286 H 498.12 -1.4604 2.61939 0
M  V30 5287 H 495.673 -0.728144 1.38303 0
M  V30 5288 H 496.408 -3.16751 0.695644 0
M  V30 5289 H 496.193 -3.0484 2.46607 0
M  V30 5290 H 497.683 -3.77256 1.79075 0
M  V30 5291 N 498.12 -1.38341 -0.754957 0
M  V30 5292 C 499.35 -1.37504 -1.54195 0
M  V30 5293 C 499.758 0.0373787 -1.89163 0
M  V30 5294 O 499.101 1.01402 -1.53178 0
M  V30 5295 C 499.163 -2.16488 -2.87008 0
M  V30 5296 C 498.827 -3.65311 -2.74585 0
M  V30 5297 C 499.824 -4.58834 -2.44474 0
M  V30 5298 C 497.509 -4.08649 -2.9208 0
M  V30 5299 C 499.503 -5.93675 -2.32011 0
M  V30 5300 C 497.19 -5.43571 -2.79237 0
M  V30 5301 C 498.188 -6.35898 -2.49245 0
M  V30 5302 O 497.876 -7.68338 -2.36458 0
M  V30 5303 H 497.608 -0.472159 -0.483779 0
M  V30 5304 H 500.162 -1.82515 -0.94221 0
M  V30 5305 H 498.392 -1.66194 -3.49166 0
M  V30 5306 H 500.081 -2.08076 -3.4851 0
M  V30 5307 H 500.847 -4.26657 -2.30627 0
M  V30 5308 H 496.726 -3.37134 -3.14422 0
M  V30 5309 H 500.27 -6.65706 -2.08522 0
M  V30 5310 H 496.167 -5.75345 -2.92657 0
M  V30 5311 H 496.935 -7.78845 -2.5168 0
M  V30 5312 N 499.598 0.982988 -1.23187 0
M  V30 5313 C 500.561 2.05649 -1.01198 0
M  V30 5314 C 501.561 1.6078 0.0252464 0
M  V30 5315 O 502.751 1.72878 -0.214243 0
M  V30 5316 C 499.883 3.36744 -0.530656 0
M  V30 5317 H 501.076 2.2659 -1.96461 0
M  V30 5318 H 498.629 1.15602 -1.05195 0
M  V30 5319 H 499.364 3.21492 0.425873 0
M  V30 5320 H 499.149 3.7065 -1.2791 0
M  V30 5321 H 500.639 4.15705 -0.397366 0
M  V30 5322 N 501.076 1.04316 1.18135 0
M  V30 5323 C 501.986 0.646876 2.25505 0
M  V30 5324 C 503.002 -0.328008 1.7088 0
M  V30 5325 O 504.178 -0.182309 2.00573 0
M  V30 5326 C 501.243 0.0185664 3.46695 0
M  V30 5327 C 500.304 1.04277 4.16443 0
M  V30 5328 C 499.537 0.444352 5.31847 0
M  V30 5329 O 499.76 -0.748735 5.65465 0
M  V30 5330 O 498.694 1.17428 5.90334 0
M  V30 5331 H 502.52 1.54147 2.61672 0
M  V30 5332 H 500.105 0.814188 1.25265 0
M  V30 5333 H 501.987 -0.331068 4.20097 0
M  V30 5334 H 500.662 -0.849814 3.12346 0
M  V30 5335 H 499.569 1.44425 3.45098 0
M  V30 5336 H 500.902 1.882 4.54798 0
M  V30 5337 N 502.554 -1.34406 0.822964 0
M  V30 5338 C 503.464 -2.33298 0.246838 0
M  V30 5339 C 504.48 -1.62625 -0.618797 0
M  V30 5340 O 505.656 -1.94391 -0.526685 0
M  V30 5341 C 502.721 -3.41785 -0.581731 0
M  V30 5342 C 501.782 -4.28206 0.306309 0
M  V30 5343 C 501.015 -5.31512 -0.48281 0
M  V30 5344 O 501.238 -5.43973 -1.71607 0
M  V30 5345 O 500.172 -6.01749 0.134884 0
M  V30 5346 H 503.998 -2.84401 1.06534 0
M  V30 5347 H 501.583 -1.37466 0.585108 0
M  V30 5348 H 503.465 -4.08028 -1.05313 0
M  V30 5349 H 502.14 -2.92925 -1.37756 0
M  V30 5350 H 501.047 -3.64885 0.825199 0
M  V30 5351 H 502.38 -4.80507 1.06649 0
M  V30 5352 N 504.032 -0.577932 -1.46621 0
M  V30 5353 C 505.279 -0.0616879 -2.02406 0
M  V30 5354 C 505.607 1.29638 -1.44997 0
M  V30 5355 O 504.862 1.86176 -0.60308 0
M  V30 5356 C 505.161 0.0590832 -3.57351 0
M  V30 5357 C 504.827 -1.23077 -4.33777 0
M  V30 5358 C 503.489 -1.58416 -4.54376 0
M  V30 5359 C 505.841 -2.08457 -4.77698 0
M  V30 5360 C 503.169 -2.78943 -5.16147 0
M  V30 5361 C 505.521 -3.28204 -5.408 0
M  V30 5362 C 504.185 -3.63832 -5.59627 0
M  V30 5363 H 503.455 -0.0225732 -0.740656 0
M  V30 5364 H 506.102 -0.753609 -1.76048 0
M  V30 5365 H 504.407 0.834104 -3.82818 0
M  V30 5366 H 506.104 0.474202 -3.98186 0
M  V30 5367 H 502.694 -0.945652 -4.18038 0
M  V30 5368 H 506.878 -1.82459 -4.61544 0
M  V30 5369 H 502.134 -3.06689 -5.28916 0
M  V30 5370 H 506.308 -3.94634 -5.73792 0
M  V30 5371 H 503.935 -4.57315 -6.07262 0
M  V30 5372 N 505.51 1.54411 -0.315457 0
M  V30 5373 C 506.758 2.00023 0.288971 0
M  V30 5374 C 507.079 1.20529 1.5329 0
M  V30 5375 O 506.349 0.304986 1.93511 0
M  V30 5376 H 504.929 0.738891 0.109766 0
M  V30 5377 H 507.591 1.90094 -0.430129 0
M  V30 5378 H 506.687 3.07198 0.550999 0
M  V30 5379 N 506.988 0.0434614 1.5754 0
M  V30 5380 C 507.936 -0.951465 2.1225 0
M  V30 5381 C 508.93 -1.3274 1.05245 0
M  V30 5382 O 510.136 -1.30795 1.23663 0
M  V30 5383 H 506.511 -0.324667 0.678303 0
M  V30 5384 H 508.482 -0.464855 2.94757 0
M  V30 5385 C 507.231 -2.21972 2.67626 0
M  V30 5386 H 506.554 -1.93923 3.4962 0
M  V30 5387 H 507.994 -2.89765 3.09536 0
M  V30 5388 C 506.453 -2.95919 1.61038 0
M  V30 5389 O 506.983 -3.8857 1.01862 0
M  V30 5390 N 505.189 -2.58511 1.32741 0
M  V30 5391 H 504.736 -1.83244 1.81051 0
M  V30 5392 H 504.694 -3.08296 0.616531 0
M  V30 5393 N 508.466 -1.55915 -0.229846 0
M  V30 5394 C 509.376 -1.94891 -1.30593 0
M  V30 5395 C 510.392 -0.851604 -1.51736 0
M  V30 5396 O 511.568 -1.15447 -1.65027 0
M  V30 5397 C 508.633 -2.25052 -2.63728 0
M  V30 5398 C 507.694 -3.48306 -2.5096 0
M  V30 5399 C 506.927 -3.77019 -3.77747 0
M  V30 5400 O 507.15 -3.07534 -4.80395 0
M  V30 5401 O 506.084 -4.70523 -3.75356 0
M  V30 5402 H 509.91 -2.86581 -1.00525 0
M  V30 5403 H 507.495 -1.43017 -0.432025 0
M  V30 5404 H 509.377 -2.45682 -3.42372 0
M  V30 5405 H 508.052 -1.36538 -2.93495 0
M  V30 5406 H 506.959 -3.32964 -1.70546 0
M  V30 5407 H 508.292 -4.37177 -2.26136 0
M  V30 5408 N 509.944 0.496216 -1.49584 0
M  V30 5409 C 511.172 1.27394 -1.63029 0
M  V30 5410 C 511.587 1.86344 -0.303569 0
M  V30 5411 O 510.944 1.68057 0.711547 0
M  V30 5412 C 510.995 2.40077 -2.70269 0
M  V30 5413 O 510.716 1.83549 -3.97796 0
M  V30 5414 C 512.217 3.31372 -2.94462 0
M  V30 5415 H 509.437 0.386211 -0.54871 0
M  V30 5416 H 511.981 0.595163 -1.95648 0
M  V30 5417 H 510.136 3.03775 -2.40415 0
M  V30 5418 H 510.55 2.57561 -4.56905 0
M  V30 5419 H 512.024 4.06707 -3.73221 0
M  V30 5420 H 512.501 3.88654 -2.0456 0
M  V30 5421 H 513.107 2.73435 -3.25751 0
M  V30 5422 N 511.423 1.38739 0.74761 0
M  V30 5423 C 512.669 1.3648 1.50814 0
M  V30 5424 C 513.024 -0.0431982 1.92351 0
M  V30 5425 O 512.317 -1.0071 1.62997 0
M  V30 5426 C 512.511 2.25992 2.7688 0
M  V30 5427 C 512.34 3.75354 2.47668 0
M  V30 5428 C 511.11 4.44348 2.40589 0
M  V30 5429 C 513.308 4.67642 2.14046 0
M  V30 5430 N 511.29 5.79114 2.03715 0
M  V30 5431 C 512.661 5.90965 1.87512 0
M  V30 5432 C 514.716 4.55787 2.00407 0
M  V30 5433 C 513.419 7.03759 1.48714 0
M  V30 5434 C 515.445 5.68491 1.63011 0
M  V30 5435 C 514.807 6.90879 1.37353 0
M  V30 5436 H 510.906 0.554695 0.551214 0
M  V30 5437 H 513.49 1.7418 0.870033 0
M  V30 5438 H 511.661 1.9047 3.3849 0
M  V30 5439 H 513.393 2.14815 3.42982 0
M  V30 5440 H 510.148 3.97634 2.57262 0
M  V30 5441 H 510.572 6.504 1.87906 0
M  V30 5442 H 515.214 3.61712 2.18916 0
M  V30 5443 H 512.932 7.97746 1.28945 0
M  V30 5444 H 516.518 5.613 1.53081 0
M  V30 5445 H 515.398 7.76609 1.08848 0
M  V30 5446 N 512.901 -0.976442 1.23707 0
M  V30 5447 C 514.149 -1.71487 1.06942 0
M  V30 5448 C 514.47 -1.9098 -0.393897 0
M  V30 5449 O 513.74 -1.48128 -1.28198 0
M  V30 5450 H 512.32 -0.635425 0.392739 0
M  V30 5451 H 514.982 -1.17515 1.55487 0
M  V30 5452 H 514.078 -2.70286 1.56051 0
M  V30 5453 N 514.379 -1.04941 -1.1758 0
M  V30 5454 C 515.625 -0.759112 -1.88057 0
M  V30 5455 C 515.958 0.711918 -1.8068 0
M  V30 5456 O 515.233 1.52035 -1.21308 0
M  V30 5457 C 515.516 -1.237 -3.38187 0
M  V30 5458 C 515.369 -2.77078 -3.54327 0
M  V30 5459 C 516.688 -0.834014 -4.32125 0
M  V30 5460 H 513.807 -0.277237 -0.682868 0
M  V30 5461 H 516.449 -1.30296 -1.38286 0
M  V30 5462 H 514.599 -0.774337 -3.80705 0
M  V30 5463 H 516.271 -3.31449 -3.20842 0
M  V30 5464 H 514.514 -3.16477 -2.96689 0
M  V30 5465 H 515.185 -3.05577 -4.59703 0
M  V30 5466 H 517.661 -1.23228 -3.97434 0
M  V30 5467 H 516.537 -1.19603 -5.35711 0
M  V30 5468 H 516.798 0.262195 -4.41322 0
M  V30 5469 N 515.857 1.33968 -0.830081 0
M  V30 5470 C 517.085 2.0228 -0.434773 0
M  V30 5471 C 517.5 1.62487 0.961419 0
M  V30 5472 O 516.857 0.833849 1.62337 0
M  V30 5473 C 516.908 3.5751 -0.535625 0
M  V30 5474 O 516.629 3.95864 -1.87679 0
M  V30 5475 C 518.13 4.43091 -0.136137 0
M  V30 5476 H 515.35 0.648151 -0.173613 0
M  V30 5477 H 517.894 1.71089 -1.12022 0
M  V30 5478 H 516.049 3.87266 0.101817 0
M  V30 5479 H 516.463 4.9056 -1.85609 0
M  V30 5480 H 517.937 5.51398 -0.257772 0
M  V30 5481 H 518.414 4.29433 0.921076 0
M  V30 5482 H 519.02 4.18677 -0.747662 0
M  V30 5483 N 517.335 0.585699 1.46312 0
M  V30 5484 C 518.282 -0.145835 2.30339 0
M  V30 5485 C 519.252 -0.881215 1.40797 0
M  V30 5486 O 520.437 -0.871293 1.69744 0
M  V30 5487 C 517.577 -1.15161 3.25318 0
M  V30 5488 C 516.69 -0.419367 4.2996 0
M  V30 5489 C 515.825 -1.41293 5.12064 0
M  V30 5490 C 514.864 -0.667261 6.08452 0
M  V30 5491 N 514.001 -1.60903 6.83414 0
M  V30 5492 H 518.841 0.576755 2.92365 0
M  V30 5493 H 516.378 0.296237 1.44086 0
M  V30 5494 H 518.336 -1.74763 3.78832 0
M  V30 5495 H 516.966 -1.84188 2.65094 0
M  V30 5496 H 516.018 0.291751 3.7928 0
M  V30 5497 H 517.33 0.163433 4.98532 0
M  V30 5498 H 516.484 -2.08167 5.6987 0
M  V30 5499 H 515.223 -2.02966 4.43459 0
M  V30 5500 H 514.228 0.0152356 5.49798 0
M  V30 5501 H 515.453 -0.0558817 6.79077 0
M  V30 5502 H 513.399 -2.21381 6.17516 0
M  V30 5503 H 513.316 -1.07911 7.48259 0
M  V30 5504 H 514.584 -2.26802 7.45775 0
M  V30 5505 N 518.813 -1.54241 0.323641 0
M  V30 5506 C 519.776 -2.22997 -0.529602 0
M  V30 5507 C 520.776 -1.22345 -1.04347 0
M  V30 5508 O 521.966 -1.46924 -0.935889 0
M  V30 5509 C 519.098 -2.93409 -1.73562 0
M  V30 5510 H 520.291 -2.99815 0.0714518 0
M  V30 5511 H 517.844 -1.56121 0.0747258 0
M  V30 5512 H 518.579 -2.20729 -2.37591 0
M  V30 5513 H 518.364 -3.67217 -1.37456 0
M  V30 5514 H 519.854 -3.45794 -2.34128 0
M  V30 5515 N 520.291 -0.0518155 -1.57515 0
M  V30 5516 C 521.254 0.907547 -2.10467 0
M  V30 5517 C 522.254 1.23947 -1.02439 0
M  V30 5518 O 523.444 1.17604 -1.2851 0
M  V30 5519 C 520.576 2.21723 -2.58944 0
M  V30 5520 H 521.769 0.44851 -2.96527 0
M  V30 5521 H 519.322 0.196598 -1.55059 0
M  V30 5522 H 520.057 2.72206 -1.76279 0
M  V30 5523 H 519.842 1.98935 -3.37886 0
M  V30 5524 H 521.332 2.90441 -3.00056 0
M  V30 5525 N 521.769 1.56035 0.221574 0
M  V30 5526 C 522.679 1.95581 1.29558 0
M  V30 5527 C 523.695 0.859639 1.51282 0
M  V30 5528 O 524.871 1.16321 1.64413 0
M  V30 5529 C 521.936 2.26447 2.62531 0
M  V30 5530 C 520.997 3.49632 2.4911 0
M  V30 5531 C 520.23 3.79017 3.75742 0
M  V30 5532 O 520.453 3.10077 4.78757 0
M  V30 5533 O 519.387 4.72507 3.72855 0
M  V30 5534 H 523.213 2.8711 0.990035 0
M  V30 5535 H 520.798 1.43244 0.424434 0
M  V30 5536 H 522.68 2.47494 3.41064 0
M  V30 5537 H 521.355 1.38092 2.92766 0
M  V30 5538 H 520.262 3.33864 1.68777 0
M  V30 5539 H 521.595 4.3837 2.23814 0
M  V30 5540 N 523.247 -0.488276 1.49845 0
M  V30 5541 C 524.194 -1.58836 1.67451 0
M  V30 5542 C 525.164 -1.57886 0.515857 0
M  V30 5543 O 526.349 -1.75679 0.744403 0
M  V30 5544 C 523.489 -2.96915 1.75885 0
M  V30 5545 C 522.602 -3.07784 3.03138 0
M  V30 5546 C 521.737 -4.36673 3.02473 0
M  V30 5547 C 520.776 -4.41222 4.24252 0
M  V30 5548 N 519.913 -5.61557 4.21424 0
M  V30 5549 H 524.753 -1.43131 2.61376 0
M  V30 5550 H 522.29 -0.696186 1.29583 0
M  V30 5551 H 524.248 -3.76965 1.78755 0
M  V30 5552 H 522.878 -3.11295 0.85414 0
M  V30 5553 H 521.93 -2.20717 3.09819 0
M  V30 5554 H 523.242 -3.07005 3.93128 0
M  V30 5555 H 522.396 -5.25055 3.03977 0
M  V30 5556 H 521.135 -4.40037 2.10283 0
M  V30 5557 H 520.14 -3.5124 4.22978 0
M  V30 5558 H 521.365 -4.39564 5.17649 0
M  V30 5559 H 519.311 -5.65738 3.32078 0
M  V30 5560 H 519.228 -5.62447 5.05163 0
M  V30 5561 H 520.496 -6.52111 4.2705 0
M  V30 5562 N 524.725 -1.39134 -0.740242 0
M  V30 5563 C 525.657 -1.33332 -1.86428 0
M  V30 5564 C 526.67 -0.243042 -1.60976 0
M  V30 5565 O 527.859 -0.501608 -1.71307 0
M  V30 5566 C 524.959 -1.04626 -3.22346 0
M  V30 5567 C 524.132 -2.24826 -3.75196 0
M  V30 5568 C 523.191 -1.92659 -4.89662 0
M  V30 5569 O 522.217 -2.6529 -5.03597 0
M  V30 5570 N 523.419 -0.889575 -5.73643 0
M  V30 5571 H 526.184 -2.30196 -1.91911 0
M  V30 5572 H 523.745 -1.33168 -0.920756 0
M  V30 5573 H 525.737 -0.811347 -3.96484 0
M  V30 5574 H 524.307 -0.165129 -3.12164 0
M  V30 5575 H 523.527 -2.64301 -2.9247 0
M  V30 5576 H 524.815 -3.05015 -4.07239 0
M  V30 5577 H 524.213 -0.287529 -5.64969 0
M  V30 5578 H 522.77 -0.714557 -6.47871 0
M  V30 5579 N 526.204 0.969867 -1.24223 0
M  V30 5580 C 527.137 2.06279 -0.975926 0
M  V30 5581 C 528.115 1.62353 0.0895385 0
M  V30 5582 O 529.299 1.88442 -0.0469418 0
M  V30 5583 C 526.426 3.35391 -0.472315 0
M  V30 5584 C 525.472 3.98266 -1.526 0
M  V30 5585 S 526.305 4.36172 -3.10667 0
M  V30 5586 C 527.461 5.68423 -2.62003 0
M  V30 5587 H 527.694 2.28551 -1.90137 0
M  V30 5588 H 525.227 1.10748 -1.07584 0
M  V30 5589 H 527.185 4.10068 -0.188376 0
M  V30 5590 H 525.846 3.1111 0.432378 0
M  V30 5591 H 525.039 4.91307 -1.12399 0
M  V30 5592 H 524.641 3.30009 -1.75983 0
M  V30 5593 H 526.933 6.45842 -2.0468 0
M  V30 5594 H 527.876 6.13478 -3.53625 0
M  V30 5595 H 528.284 5.26928 -2.02502 0
M  V30 5596 N 527.682 1.05563 1.17022 0
M  V30 5597 C 528.629 0.659893 2.21165 0
M  V30 5598 C 529.599 -0.339813 1.62587 0
M  V30 5599 O 530.784 -0.230378 1.89404 0
M  V30 5600 C 527.924 0.0447297 3.45071 0
M  V30 5601 C 527.037 1.09372 4.17926 0
M  V30 5602 C 526.172 0.445481 5.29329 0
M  V30 5603 C 525.211 1.47852 5.93975 0
M  V30 5604 N 524.348 0.854172 6.96885 0
M  V30 5605 H 529.188 1.55243 2.54369 0
M  V30 5606 H 526.725 0.776336 1.24946 0
M  V30 5607 H 528.683 -0.329404 4.15898 0
M  V30 5608 H 527.313 -0.811244 3.1244 0
M  V30 5609 H 526.365 1.58564 3.45777 0
M  V30 5610 H 527.677 1.87773 4.62107 0
M  V30 5611 H 526.831 0.0179688 6.06697 0
M  V30 5612 H 525.57 -0.370481 4.86291 0
M  V30 5613 H 524.575 1.91601 5.15334 0
M  V30 5614 H 525.8 2.29645 6.39093 0
M  V30 5615 H 523.746 0.0587882 6.55974 0
M  V30 5616 H 523.663 1.57567 7.39397 0
M  V30 5617 H 524.931 0.451559 7.78191 0
M  V30 5618 N 529.16 -1.33526 0.837174 0
M  V30 5619 C 530.437 -1.92369 0.354065 0
M  V30 5620 C 530.817 -1.76348 -1.16038 0
M  V30 5621 O 530.165 -1.15083 -1.97403 0
M  V30 5622 C 530.375 -3.39728 0.799101 0
M  V30 5623 C 531.723 -4.16877 0.806139 0
M  V30 5624 O 532.747 -3.48373 0.742597 0
M  V30 5625 O 531.606 -5.39166 0.892345 0
M  V30 5626 H 528.7 -0.820952 0.0998378 0
M  V30 5627 H 531.246 -1.42409 0.922913 0
M  V30 5628 H 530.018 -3.45254 1.84162 0
M  V30 5629 H 529.641 -3.97062 0.206731 0
M  V30 5630 N 530.638 -0.59345 -1.46 0
M  V30 5631 C 531.585 0.133618 -2.30413 0
M  V30 5632 C 532.555 0.873736 -1.41262 0
M  V30 5633 O 533.74 0.862279 -1.70204 0
M  V30 5634 C 530.88 1.13434 -3.25924 0
M  V30 5635 C 529.993 0.39656 -4.30176 0
M  V30 5636 C 529.128 1.38575 -5.12806 0
M  V30 5637 C 528.167 0.634984 -6.08797 0
M  V30 5638 N 527.304 1.57276 -6.84258 0
M  V30 5639 H 532.144 -0.592252 -2.92055 0
M  V30 5640 H 529.681 -0.303874 -1.43927 0
M  V30 5641 H 531.639 1.72752 -3.79753 0
M  V30 5642 H 530.269 1.82779 -2.66067 0
M  V30 5643 H 529.321 -0.311861 -3.79119 0
M  V30 5644 H 530.633 -0.189869 -4.98438 0
M  V30 5645 H 529.787 2.05141 -5.70966 0
M  V30 5646 H 528.526 2.00611 -4.44529 0
M  V30 5647 H 527.531 -0.0443925 -5.49782 0
M  V30 5648 H 528.756 0.0198678 -6.79097 0
M  V30 5649 H 526.702 2.18103 -6.18682 0
M  V30 5650 H 526.619 1.03941 -7.48821 0
M  V30 5651 H 527.887 2.22844 -7.46968 0
M  V30 5652 N 532.116 1.54067 -0.331816 0
M  V30 5653 C 533.048 2.22139 0.564538 0
M  V30 5654 C 534.061 1.22408 1.07332 0
M  V30 5655 O 535.25 1.4883 0.985481 0
M  V30 5656 C 532.35 2.87876 1.78831 0
M  V30 5657 C 531.523 4.13817 1.41682 0
M  V30 5658 C 530.582 4.63072 2.49901 0
M  V30 5659 O 529.608 5.27562 2.13699 0
M  V30 5660 N 530.81 4.38001 3.80967 0
M  V30 5661 H 533.575 2.99694 -0.0183736 0
M  V30 5662 H 531.136 1.61153 -0.155396 0
M  V30 5663 H 533.128 3.17747 2.50637 0
M  V30 5664 H 531.698 2.13977 2.27887 0
M  V30 5665 H 530.918 3.9062 0.530044 0
M  V30 5666 H 532.206 4.95762 1.14443 0
M  V30 5667 H 531.604 3.864 4.13173 0
M  V30 5668 H 530.161 4.72507 4.48977 0
M  V30 5669 N 533.594 0.0601682 1.57485 0
M  V30 5670 C 534.871 -0.651956 1.84415 0
M  V30 5671 C 535.251 -1.88498 0.950361 0
M  V30 5672 O 534.599 -2.28496 0.0136719 0
M  V30 5673 C 534.809 -1.00069 3.34346 0
M  V30 5674 C 536.157 -1.37915 4.01578 0
M  V30 5675 O 537.181 -1.09277 3.39024 0
M  V30 5676 O 536.04 -1.91399 5.11887 0
M  V30 5677 H 533.134 -0.322668 0.761455 0
M  V30 5678 H 535.68 0.0902159 1.6946 0
M  V30 5679 H 534.452 -0.124463 3.91102 0
M  V30 5680 H 534.075 -1.80001 3.54521 0
M  V30 5681 N 535.072 -1.5615 -0.213296 0
M  V30 5682 C 535.982 -1.96265 -1.28519 0
M  V30 5683 C 536.998 -0.86765 -1.50824 0
M  V30 5684 O 538.174 -1.17191 -1.63793 0
M  V30 5685 C 535.239 -2.27836 -2.61327 0
M  V30 5686 C 534.3 -3.50949 -2.47252 0
M  V30 5687 C 533.533 -3.81004 -3.73727 0
M  V30 5688 O 533.756 -3.12612 -4.77106 0
M  V30 5689 O 532.69 -4.74477 -3.70344 0
M  V30 5690 H 536.516 -2.87631 -0.974795 0
M  V30 5691 H 534.101 -1.43467 -0.416832 0
M  V30 5692 H 535.983 -2.49299 -3.39747 0
M  V30 5693 H 534.658 -1.39643 -2.9203 0
M  V30 5694 H 533.565 -3.34754 -1.67004 0
M  V30 5695 H 534.898 -4.39551 -2.21486 0
M  V30 5696 N 536.55 0.480323 -1.50102 0
M  V30 5697 C 537.46 1.60547 -1.71061 0
M  V30 5698 C 538.476 1.63564 -0.593529 0
M  V30 5699 O 539.652 1.81604 -0.870751 0
M  V30 5700 C 536.717 2.96814 -1.79171 0
M  V30 5701 C 535.778 3.04259 -3.02861 0
M  V30 5702 C 535.011 4.34027 -3.10574 0
M  V30 5703 O 535.234 5.24009 -2.25323 0
M  V30 5704 O 534.168 4.46873 -4.03223 0
M  V30 5705 H 537.994 1.45788 -2.6642 0
M  V30 5706 H 535.579 0.658838 -1.34088 0
M  V30 5707 H 537.461 3.77765 -1.86738 0
M  V30 5708 H 536.136 3.11791 -0.869947 0
M  V30 5709 H 535.043 2.22419 -3.008 0
M  V30 5710 H 536.376 2.94216 -3.94586 0
M  V30 5711 N 538.028 1.39524 0.732853 0
M  V30 5712 C 538.96 1.34318 1.85718 0
M  V30 5713 C 539.973 0.251576 1.60844 0
M  V30 5714 O 541.162 0.510685 1.71039 0
M  V30 5715 C 538.262 1.06334 3.21786 0
M  V30 5716 C 537.435 2.26813 3.73998 0
M  V30 5717 C 536.494 1.95253 4.88634 0
M  V30 5718 O 535.52 2.67957 5.02183 0
M  V30 5719 N 536.722 0.919984 5.73164 0
M  V30 5720 H 539.487 2.3121 1.90688 0
M  V30 5721 H 537.048 1.33654 0.91368 0
M  V30 5722 H 539.04 0.832363 3.96048 0
M  V30 5723 H 537.61 0.181682 3.12072 0
M  V30 5724 H 536.83 2.65849 2.91064 0
M  V30 5725 H 538.118 3.0717 4.05616 0
M  V30 5726 H 537.516 0.317487 5.64808 0
M  V30 5727 H 536.073 0.748905 6.47483 0
M  V30 5728 N 539.506 -0.963266 1.24736 0
M  V30 5729 C 540.922 -1.23273 1.01371 0
M  V30 5730 C 541.122 -1.99618 -0.274776 0
M  V30 5731 O 540.178 -2.32293 -0.989769 0
M  V30 5732 C 541.491 -2.01554 2.23152 0
M  V30 5733 C 543.039 -2.14629 2.27823 0
M  V30 5734 C 543.514 -2.96307 3.49237 0
M  V30 5735 N 545.005 -3.03887 3.49581 0
M  V30 5736 C 545.74 -3.67456 4.40186 0
M  V30 5737 N 545.236 -4.32706 5.41052 0
M  V30 5738 N 547.029 -3.64511 4.27888 0
M  V30 5739 H 539.18 -0.452294 2.07528 0
M  V30 5740 H 541.443 -0.262521 0.910926 0
M  V30 5741 H 541.149 -1.52847 3.1675 0
M  V30 5742 H 541.023 -3.02278 2.25628 0
M  V30 5743 H 543.41 -2.62537 1.34753 0
M  V30 5744 H 543.491 -1.13238 2.2937 0
M  V30 5745 H 543.135 -2.49091 4.42624 0
M  V30 5746 H 543.065 -3.97905 3.44933 0
M  V30 5747 H 545.556 -2.57477 2.76611 0
M  V30 5748 H 545.869 -4.79042 6.06415 0
M  V30 5749 H 544.214 -4.31361 5.44934 0
M  V30 5750 H 547.405 -3.12715 3.4832 0
M  V30 5751 H 547.578 -4.13768 4.98698 0
M  V30 5752 N 540.985 -1.06182 -1.16461 0
M  V30 5753 C 541.915 -0.692861 -2.22984 0
M  V30 5754 C 542.896 0.314122 -1.67174 0
M  V30 5755 O 544.081 0.189499 -1.93273 0
M  V30 5756 C 541.211 -0.07732 -3.47214 0
M  V30 5757 C 540.165 -1.01015 -4.15909 0
M  V30 5758 C 539.491 -0.257973 -5.34077 0
M  V30 5759 C 540.791 -2.33868 -4.67015 0
M  V30 5760 H 542.485 -1.58343 -2.54102 0
M  V30 5761 H 540.031 -0.76279 -1.22137 0
M  V30 5762 H 541.984 0.19266 -4.20959 0
M  V30 5763 H 540.708 0.848254 -3.15392 0
M  V30 5764 H 539.367 -1.26486 -3.44088 0
M  V30 5765 H 539.015 0.670684 -4.98509 0
M  V30 5766 H 538.715 -0.879638 -5.80979 0
M  V30 5767 H 540.239 0.00448788 -6.106 0
M  V30 5768 H 541.653 -2.1279 -5.32347 0
M  V30 5769 H 540.05 -2.91522 -5.24533 0
M  V30 5770 H 541.12 -2.97019 -3.83286 0
M  V30 5771 N 542.463 1.3308 -0.844243 0
M  V30 5772 C 543.41 2.29104 -0.279323 0
M  V30 5773 C 544.38 1.54577 0.607882 0
M  V30 5774 O 545.565 1.8285 0.545009 0
M  V30 5775 C 542.705 3.40927 0.53508 0
M  V30 5776 C 541.818 4.30354 -0.376749 0
M  V30 5777 C 540.953 5.29297 0.449276 0
M  V30 5778 C 539.992 6.10365 -0.460606 0
M  V30 5779 N 539.129 7.01335 0.327612 0
M  V30 5780 H 543.969 2.76817 -1.10346 0
M  V30 5781 H 541.506 1.36203 -0.555611 0
M  V30 5782 H 543.464 4.04469 1.02278 0
M  V30 5783 H 542.094 2.94391 1.32414 0
M  V30 5784 H 541.146 3.67485 -0.982791 0
M  V30 5785 H 542.458 4.87067 -1.07549 0
M  V30 5786 H 541.612 5.98392 1.00058 0
M  V30 5787 H 540.351 4.73174 1.18143 0
M  V30 5788 H 539.356 5.40182 -1.02388 0
M  V30 5789 H 540.581 6.68571 -1.1912 0
M  V30 5790 H 538.527 6.47655 1.04305 0
M  V30 5791 H 538.444 7.55355 -0.3123 0
M  V30 5792 H 539.712 7.74731 0.86098 0
M  V30 5793 N 543.941 0.601185 1.45683 0
M  V30 5794 C 544.851 -0.123395 2.34275 0
M  V30 5795 C 545.867 -0.86702 1.5086 0
M  V30 5796 O 547.043 -0.826049 1.8368 0
M  V30 5797 C 544.108 -1.11237 3.2837 0
M  V30 5798 C 543.169 -0.371405 4.2769 0
M  V30 5799 C 542.402 -1.31327 5.1729 0
M  V30 5800 O 542.625 -2.55078 5.10188 0
M  V30 5801 O 541.559 -0.813811 5.96373 0
M  V30 5802 H 545.385 0.604483 2.97623 0
M  V30 5803 H 542.97 0.361477 1.44961 0
M  V30 5804 H 544.852 -1.68214 3.8637 0
M  V30 5805 H 543.527 -1.82139 2.67595 0
M  V30 5806 H 542.434 0.24067 3.73325 0
M  V30 5807 H 543.767 0.296998 4.91303 0
M  V30 5808 N 545.419 -1.53889 0.339982 0
M  V30 5809 C 546.329 -2.28604 -0.526988 0
M  V30 5810 C 547.345 -1.33578 -1.11503 0
M  V30 5811 O 548.521 -1.66612 -1.13148 0
M  V30 5812 C 545.586 -3.04164 -1.66389 0
M  V30 5813 C 544.647 -4.14809 -1.10599 0
M  V30 5814 C 543.88 -4.86756 -2.18871 0
M  V30 5815 O 544.103 -4.58343 -3.39526 0
M  V30 5816 O 543.037 -5.73289 -1.83366 0
M  V30 5817 H 546.863 -3.03594 0.0802707 0
M  V30 5818 H 544.448 -1.4903 0.105141 0
M  V30 5819 H 546.33 -3.51427 -2.32544 0
M  V30 5820 H 545.005 -2.32035 -2.25703 0
M  V30 5821 H 543.912 -3.71857 -0.409067 0
M  V30 5822 H 545.245 -4.89029 -0.557771 0
M  V30 5823 N 546.897 -0.0685191 -1.57451 0
M  V30 5824 C 547.807 0.914677 -2.16034 0
M  V30 5825 C 548.823 1.32938 -1.12265 0
M  V30 5826 O 549.999 1.40275 -1.44516 0
M  V30 5827 C 547.064 2.16519 -2.70777 0
M  V30 5828 C 546.125 1.80721 -3.89408 0
M  V30 5829 C 545.358 2.9981 -4.41531 0
M  V30 5830 O 545.581 4.13727 -3.92666 0
M  V30 5831 O 544.515 2.79817 -5.32903 0
M  V30 5832 H 548.341 0.446364 -3.00402 0
M  V30 5833 H 545.926 0.154367 -1.486 0
M  V30 5834 H 547.808 2.89856 -3.05878 0
M  V30 5835 H 546.483 2.62454 -1.89471 0
M  V30 5836 H 545.39 1.04646 -3.59166 0
M  V30 5837 H 546.723 1.39571 -4.71997 0
M  V30 5838 N 548.375 1.56261 0.205012 0
M  V30 5839 C 549.285 1.96944 1.27476 0
M  V30 5840 C 550.301 0.875636 1.50362 0
M  V30 5841 O 551.477 1.18058 1.6317 0
M  V30 5842 C 548.542 2.29219 2.60115 0
M  V30 5843 C 547.603 3.52255 2.45387 0
M  V30 5844 C 546.836 3.8298 3.71701 0
M  V30 5845 O 547.059 3.15138 4.75441 0
M  V30 5846 O 545.993 4.76435 3.67823 0
M  V30 5847 H 549.819 2.88144 0.959527 0
M  V30 5848 H 547.404 1.43686 0.409217 0
M  V30 5849 H 549.286 2.51098 3.3842 0
M  V30 5850 H 547.961 1.4119 2.91285 0
M  V30 5851 H 546.868 3.35635 1.65227 0
M  V30 5852 H 548.201 4.40719 2.19152 0
M  V30 5853 N 549.853 -0.472356 1.50355 0
M  V30 5854 C 551.13 -1.23356 1.51798 0
M  V30 5855 C 551.51 -2.09469 0.26193 0
M  V30 5856 O 550.858 -2.15677 -0.754691 0
M  V30 5857 C 551.068 -2.06568 2.81302 0
M  V30 5858 C 552.416 -2.648 3.31913 0
M  V30 5859 O 553.44 -2.16812 2.82614 0
M  V30 5860 O 552.299 -3.52231 4.17846 0
M  V30 5861 H 549.393 -0.559707 0.608816 0
M  V30 5862 H 551.939 -0.48428 1.62643 0
M  V30 5863 H 550.711 -1.43103 3.64194 0
M  V30 5864 H 550.334 -2.88633 2.73454 0
M  V30 5865 N 551.331 -1.39911 -0.725443 0
M  V30 5866 C 552.278 -1.39393 -1.83952 0
M  V30 5867 C 553.248 -0.252249 -1.64173 0
M  V30 5868 O 554.433 -0.44882 -1.85446 0
M  V30 5869 C 551.573 -1.25262 -3.21564 0
M  V30 5870 C 550.686 -2.49054 -3.52982 0
M  V30 5871 C 549.821 -2.27439 -4.80047 0
M  V30 5872 C 548.86 -3.46857 -5.04338 0
M  V30 5873 N 547.997 -3.24499 -6.22611 0
M  V30 5874 H 552.837 -2.34622 -1.83729 0
M  V30 5875 H 550.374 -1.16537 -0.897636 0
M  V30 5876 H 552.332 -1.15077 -4.01015 0
M  V30 5877 H 550.962 -0.33657 -3.21041 0
M  V30 5878 H 550.014 -2.69805 -2.6816 0
M  V30 5879 H 551.326 -3.37973 -3.66846 0
M  V30 5880 H 550.48 -2.14551 -5.67497 0
M  V30 5881 H 549.219 -1.35929 -4.68374 0
M  V30 5882 H 548.224 -3.60232 -4.15346 0
M  V30 5883 H 549.449 -4.3928 -5.17889 0
M  V30 5884 H 547.395 -2.35663 -6.12208 0
M  V30 5885 H 547.312 -4.06978 -6.37106 0
M  V30 5886 H 548.58 -3.15325 -7.12875 0
M  V30 5887 N 552.809 0.956637 -1.25245 0
M  V30 5888 C 553.756 2.053 -1.05454 0
M  V30 5889 C 554.726 1.66062 0.0356889 0
M  V30 5890 O 555.911 1.90415 -0.121099 0
M  V30 5891 C 553.051 3.38391 -0.677191 0
M  V30 5892 C 552.164 3.90758 -1.84206 0
M  V30 5893 C 551.299 5.12165 -1.40926 0
M  V30 5894 C 550.338 5.56757 -2.54338 0
M  V30 5895 N 549.475 6.69376 -2.11848 0
M  V30 5896 H 554.315 2.21562 -1.99284 0
M  V30 5897 H 551.852 1.08578 -0.992434 0
M  V30 5898 H 553.81 4.1488 -0.43938 0
M  V30 5899 H 552.44 3.22021 0.224127 0
M  V30 5900 H 551.492 3.10808 -2.19323 0
M  V30 5901 H 552.804 4.19802 -2.69383 0
M  V30 5902 H 551.958 5.96065 -1.13098 0
M  V30 5903 H 550.697 4.84832 -0.528175 0
M  V30 5904 H 549.702 4.71423 -2.82913 0
M  V30 5905 H 550.927 5.861 -3.43022 0
M  V30 5906 H 548.873 6.43756 -1.26153 0
M  V30 5907 H 548.79 6.97927 -2.90574 0
M  V30 5908 H 550.058 7.5669 -1.87191 0
M  V30 5909 N 554.287 1.06798 1.15896 0
M  V30 5910 C 555.703 0.792423 1.38538 0
M  V30 5911 C 555.903 -0.60592 1.92174 0
M  V30 5912 O 554.959 -1.36561 2.12385 0
M  V30 5913 C 556.272 1.86157 2.36149 0
M  V30 5914 C 557.82 1.88567 2.49823 0
M  V30 5915 C 558.295 2.9455 3.5072 0
M  V30 5916 N 559.786 2.93616 3.58251 0
M  V30 5917 C 560.521 3.72267 4.36125 0
M  V30 5918 N 560.017 4.60751 5.17379 0
M  V30 5919 N 561.81 3.60637 4.31158 0
M  V30 5920 H 553.961 1.96993 0.794198 0
M  V30 5921 H 556.224 0.853942 0.411688 0
M  V30 5922 H 555.93 2.86603 2.03843 0
M  V30 5923 H 555.804 1.71692 3.3586 0
M  V30 5924 H 558.191 0.887765 2.8143 0
M  V30 5925 H 558.272 2.0711 1.5013 0
M  V30 5926 H 557.916 3.94537 3.19849 0
M  V30 5927 H 557.846 2.73255 4.50155 0
M  V30 5928 H 560.337 2.29472 3.00252 0
M  V30 5929 H 560.65 5.17408 5.74028 0
M  V30 5930 H 558.995 4.64803 5.16704 0
M  V30 5931 H 562.186 2.90892 3.66742 0
M  V30 5932 H 562.359 4.22176 4.91601 0
M  V30 5933 N 555.766 -1.3263 0.851289 0
M  V30 5934 C 556.713 -2.28952 0.291469 0
M  V30 5935 C 557.683 -1.54897 -0.599676 0
M  V30 5936 O 558.868 -1.83137 -0.535305 0
M  V30 5937 C 556.008 -3.41206 -0.516992 0
M  V30 5938 C 555.121 -4.30148 0.399566 0
M  V30 5939 C 554.256 -5.29527 -0.4212 0
M  V30 5940 C 553.295 -6.10112 0.492969 0
M  V30 5941 N 552.432 -7.01499 -0.290414 0
M  V30 5942 H 557.272 -2.76228 1.11813 0
M  V30 5943 H 554.809 -1.35907 0.562826 0
M  V30 5944 H 556.767 -4.05005 -1.00132 0
M  V30 5945 H 555.397 -2.9509 -1.30851 0
M  V30 5946 H 554.449 -3.66959 1.00227 0
M  V30 5947 H 555.761 -4.8649 1.1013 0
M  V30 5948 H 554.915 -5.98914 -0.968832 0
M  V30 5949 H 553.654 -4.73794 -1.15632 0
M  V30 5950 H 552.659 -5.39632 1.05251 0
M  V30 5951 H 553.884 -6.6793 1.22664 0
M  V30 5952 H 551.83 -6.48199 -1.00868 0
M  V30 5953 H 551.747 -7.55178 0.352354 0
M  V30 5954 H 553.015 -7.75176 -0.819882 0
M  V30 5955 N 557.244 -0.608902 -1.45362 0
M  V30 5956 C 558.154 0.110969 -2.34337 0
M  V30 5957 C 559.17 0.859007 -1.51318 0
M  V30 5958 O 560.346 0.816296 -1.84116 0
M  V30 5959 C 557.411 1.09494 -3.28956 0
M  V30 5960 C 556.472 0.348718 -4.27881 0
M  V30 5961 C 555.705 1.28582 -5.17979 0
M  V30 5962 O 555.928 2.52369 -5.11533 0
M  V30 5963 O 554.862 0.782172 -5.96796 0
M  V30 5964 H 558.688 -0.620258 -2.97299 0
M  V30 5965 H 556.273 -0.36916 -1.44767 0
M  V30 5966 H 558.155 1.66163 -3.87257 0
M  V30 5967 H 556.83 1.80717 -2.68557 0
M  V30 5968 H 555.737 -0.260465 -3.73192 0
M  V30 5969 H 557.07 -0.323049 -4.91139 0
M  V30 5970 N 558.722 1.53707 -0.348139 0
M  V30 5971 C 559.632 2.28881 0.514857 0
M  V30 5972 C 560.648 1.34168 1.10793 0
M  V30 5973 O 561.824 1.6721 1.12262 0
M  V30 5974 C 558.889 3.05042 1.64774 0
M  V30 5975 C 557.95 4.15389 1.08398 0
M  V30 5976 C 557.183 4.87909 2.16287 0
M  V30 5977 O 557.406 4.60137 3.3709 0
M  V30 5978 O 556.34 5.74254 1.80323 0
M  V30 5979 H 560.166 3.03547 -0.0963699 0
M  V30 5980 H 557.751 1.48972 -0.113043 0
M  V30 5981 H 559.633 3.52656 2.30677 0
M  V30 5982 H 558.308 2.33228 2.24469 0
M  V30 5983 H 557.215 3.72068 0.389341 0
M  V30 5984 H 558.548 4.89318 0.531829 0
M  V30 5985 N 560.2 0.0768682 1.57412 0
M  V30 5986 C 561.11 -0.903207 2.16516 0
M  V30 5987 C 562.126 -1.32341 1.12968 0
M  V30 5988 O 563.302 -1.39507 1.45258 0
M  V30 5989 C 560.367 -2.1508 2.71922 0
M  V30 5990 C 559.428 -1.78653 3.90361 0
M  V30 5991 C 558.661 -2.97465 4.43114 0
M  V30 5992 O 558.884 -4.11638 3.94854 0
M  V30 5993 O 557.818 -2.76987 5.3438 0
M  V30 5994 H 561.644 -0.430427 3.00634 0
M  V30 5995 H 559.229 -0.146485 1.4868 0
M  V30 5996 H 561.111 -2.8823 3.07411 0
M  V30 5997 H 559.786 -2.61446 1.9086 0
M  V30 5998 H 558.693 -1.0274 3.59716 0
M  V30 5999 H 560.026 -1.37066 4.7273 0
M  V30 6000 N 561.678 -1.56367 -0.196722 0
M  V30 6001 C 562.588 -1.97617 -1.2643 0
M  V30 6002 C 563.604 -0.883598 -1.49895 0
M  V30 6003 O 564.78 -1.18921 -1.62541 0
M  V30 6004 C 561.845 -2.30595 -2.58895 0
M  V30 6005 C 560.906 -3.53551 -2.43516 0
M  V30 6006 C 560.139 -3.84946 -3.69665 0
M  V30 6007 O 560.362 -3.17655 -4.73763 0
M  V30 6008 O 559.296 -4.78379 -3.65291 0
M  V30 6009 H 563.122 -2.88648 -0.944233 0
M  V30 6010 H 560.707 -1.43901 -0.401592 0
M  V30 6011 H 562.589 -2.52889 -3.37083 0
M  V30 6012 H 561.264 -1.42732 -2.90533 0
M  V30 6013 H 560.171 -3.36507 -1.63445 0
M  V30 6014 H 561.504 -4.41875 -2.16812 0
M  V30 6015 N 563.156 0.464375 -1.50603 0
M  V30 6016 C 564.119 1.54393 -1.69397 0
M  V30 6017 C 565.119 1.50566 -0.564504 0
M  V30 6018 O 566.309 1.53066 -0.831645 0
M  V30 6019 C 563.441 2.9401 -1.72543 0
M  V30 6020 H 564.634 1.39044 -2.65719 0
M  V30 6021 H 562.187 0.69122 -1.40185 0
M  V30 6022 H 562.922 3.14795 -0.77938 0
M  V30 6023 H 562.707 2.98195 -2.54602 0
M  V30 6024 H 564.197 3.72375 -1.89015 0
M  V30 6025 N 564.634 1.40294 0.718013 0
M  V30 6026 C 565.544 1.42678 1.86226 0
M  V30 6027 C 566.56 0.319655 1.71039 0
M  V30 6028 O 567.736 0.563852 1.93346 0
M  V30 6029 C 564.801 1.2852 3.21999 0
M  V30 6030 C 563.862 2.49354 3.49458 0
M  V30 6031 C 563.095 2.35863 4.78753 0
M  V30 6032 O 563.318 1.37114 5.53675 0
M  V30 6033 O 562.252 3.25189 5.06494 0
M  V30 6034 H 566.078 2.39167 1.87171 0
M  V30 6035 H 563.663 1.2159 0.868112 0
M  V30 6036 H 565.545 1.22824 4.03103 0
M  V30 6037 H 564.22 0.351359 3.21787 0
M  V30 6038 H 563.127 2.60628 2.68373 0
M  V30 6039 H 564.46 3.41491 3.54464 0
M  V30 6040 N 566.112 -0.949982 1.2575 0
M  V30 6041 C 567.389 -1.6718 1.01539 0
M  V30 6042 C 567.769 -2.06095 -0.456942 0
M  V30 6043 O 567.117 -1.77792 -1.43534 0
M  V30 6044 C 567.327 -2.8906 1.95564 0
M  V30 6045 C 568.675 -3.60909 2.23673 0
M  V30 6046 O 569.699 -2.9915 1.9336 0
M  V30 6047 O 568.558 -4.72127 2.75243 0
M  V30 6048 H 565.652 -0.731697 0.385419 0
M  V30 6049 H 568.198 -1.00249 1.36924 0
M  V30 6050 H 566.97 -2.57128 2.94959 0
M  V30 6051 H 566.593 -3.63719 1.60605 0
M  V30 6052 N 567.59 -1.07411 -1.15328 0
M  V30 6053 C 568.537 -0.694995 -2.20087 0
M  V30 6054 C 569.507 0.313904 -1.63107 0
M  V30 6055 O 570.692 0.200216 -1.89747 0
M  V30 6056 C 567.832 -0.0996218 -3.44956 0
M  V30 6057 C 566.945 -1.16007 -4.16133 0
M  V30 6058 C 566.08 -0.529636 -5.28553 0
M  V30 6059 C 565.119 -1.57283 -5.91548 0
M  V30 6060 N 564.256 -0.964932 -6.95438 0
M  V30 6061 H 569.096 -1.5927 -2.51867 0
M  V30 6062 H 566.633 -0.796115 -1.23695 0
M  V30 6063 H 568.591 0.263197 -4.16369 0
M  V30 6064 H 567.221 0.761435 -3.13691 0
M  V30 6065 H 566.273 -1.64045 -3.4321 0
M  V30 6066 H 567.585 -1.95101 -4.59061 0
M  V30 6067 H 566.739 -0.114487 -6.06592 0
M  V30 6068 H 565.478 0.29307 -4.86819 0
M  V30 6069 H 564.483 -1.99775 -5.12221 0
M  V30 6070 H 565.708 -2.39783 -6.35359 0
M  V30 6071 H 563.654 -0.16314 -6.55797 0
M  V30 6072 H 563.571 -1.69311 -7.36797 0
M  V30 6073 H 564.839 -0.575305 -7.77374 0
M  V30 6074 N 569.068 1.32177 -0.85831 0
M  V30 6075 C 569.978 2.32561 -0.308606 0
M  V30 6076 C 570.994 1.64209 0.575462 0
M  V30 6077 O 572.17 1.95719 0.474961 0
M  V30 6078 C 569.235 3.43207 0.490909 0
M  V30 6079 C 568.296 4.27243 -0.419733 0
M  V30 6080 C 567.529 5.32605 0.341719 0
M  V30 6081 O 567.752 5.48332 1.57125 0
M  V30 6082 O 566.686 6.0118 -0.294379 0
M  V30 6083 H 570.512 2.81477 -1.14037 0
M  V30 6084 H 568.097 1.35866 -0.621349 0
M  V30 6085 H 569.979 4.10677 0.944574 0
M  V30 6086 H 568.654 2.96474 1.29941 0
M  V30 6087 H 567.561 3.62569 -0.921652 0
M  V30 6088 H 568.894 4.7751 -1.19352 0
M  V30 6089 N 570.547 0.616602 1.45037 0
M  V30 6090 C 571.824 0.0469086 1.95544 0
M  V30 6091 C 572.204 -1.42345 1.55888 0
M  V30 6092 O 571.552 -2.13055 0.825824 0
M  V30 6093 C 571.762 0.254489 3.48071 0
M  V30 6094 C 573.11 0.140025 4.24369 0
M  V30 6095 O 574.134 0.185084 3.55719 0
M  V30 6096 O 572.993 0.0327034 5.4649 0
M  V30 6097 H 570.087 -0.0306051 0.826433 0
M  V30 6098 H 572.633 0.687293 1.55159 0
M  V30 6099 H 571.405 1.27532 3.69934 0
M  V30 6100 H 571.028 -0.42073 3.95368 0
M  V30 6101 N 572.025 -1.5352 0.356285 0
M  V30 6102 C 573.302 -1.93405 -0.292223 0
M  V30 6103 C 573.682 -1.28901 -1.67176 0
M  V30 6104 O 573.03 -0.444632 -2.24132 0
M  V30 6105 C 573.24 -3.47223 -0.35175 0
M  V30 6106 C 574.588 -4.20389 -0.596534 0
M  V30 6107 O 575.612 -3.53554 -0.433344 0
M  V30 6108 O 574.471 -5.3881 -0.913589 0
M  V30 6109 H 571.565 -0.808666 -0.173172 0
M  V30 6110 H 574.111 -1.64713 0.408391 0
M  V30 6111 H 572.883 -3.86423 0.615841 0
M  V30 6112 H 572.506 -3.8212 -1.09864 0
M  V30 6113 N 573.503 -0.0852151 -1.57369 0
M  V30 6114 C 574.413 0.891712 -2.16992 0
M  V30 6115 C 575.429 1.3174 -1.13669 0
M  V30 6116 O 576.605 1.38735 -1.45995 0
M  V30 6117 C 573.67 2.13635 -2.73059 0
M  V30 6118 C 572.731 1.7658 -3.91303 0
M  V30 6119 C 571.964 2.95111 -4.44686 0
M  V30 6120 O 572.187 4.09539 -3.97032 0
M  V30 6121 O 571.121 2.74149 -5.35841 0
M  V30 6122 H 574.947 0.414477 -3.00858 0
M  V30 6123 H 572.532 0.138598 -1.48756 0
M  V30 6124 H 574.414 2.86595 -3.08935 0
M  V30 6125 H 573.089 2.6043 -1.92244 0
M  V30 6126 H 571.996 1.00831 -3.60255 0
M  V30 6127 H 573.329 1.34557 -4.7345 0
M  V30 6128 N 574.981 1.5647 0.188427 0
M  V30 6129 C 576.258 1.71857 0.934058 0
M  V30 6130 C 576.638 0.641867 2.01105 0
M  V30 6131 O 575.986 -0.346098 2.25864 0
M  V30 6132 C 576.196 3.14431 1.5144 0
M  V30 6133 C 577.544 3.74869 1.99396 0
M  V30 6134 O 578.568 3.17601 1.61269 0
M  V30 6135 O 577.427 4.75387 2.69573 0
M  V30 6136 H 574.521 0.701186 0.438483 0
M  V30 6137 H 577.067 1.68768 0.177599 0
M  V30 6138 H 575.839 3.8427 0.738416 0
M  V30 6139 H 575.462 3.21775 2.33552 0
M  V30 6140 N 576.459 -0.456382 1.50847 0
M  V30 6141 C 577.406 -1.55249 1.70782 0
M  V30 6142 C 578.376 -1.56757 0.549231 0
M  V30 6143 O 579.561 -1.74061 0.7815 0
M  V30 6144 C 576.701 -2.93118 1.82143 0
M  V30 6145 C 575.814 -3.01285 3.09598 0
M  V30 6146 C 574.949 -4.30159 3.11667 0
M  V30 6147 C 573.988 -4.32124 4.33515 0
M  V30 6148 N 573.125 -5.52492 4.3324 0
M  V30 6149 H 577.965 -1.37555 2.64353 0
M  V30 6150 H 575.502 -0.668543 1.3103 0
M  V30 6151 H 577.46 -3.73088 1.86711 0
M  V30 6152 H 576.09 -3.09413 0.919978 0
M  V30 6153 H 575.142 -2.14096 3.14431 0
M  V30 6154 H 576.454 -2.98597 3.99551 0
M  V30 6155 H 575.608 -5.18489 3.15046 0
M  V30 6156 H 574.347 -4.35477 2.1957 0
M  V30 6157 H 573.352 -3.42189 4.30333 0
M  V30 6158 H 574.577 -4.28485 5.26856 0
M  V30 6159 H 572.523 -5.58567 3.44004 0
M  V30 6160 H 572.44 -5.51605 5.16979 0
M  V30 6161 H 573.708 -6.42906 4.40786 0
M  V30 6162 N 577.937 -1.40673 -0.710563 0
M  V30 6163 C 579.214 -1.29718 -1.46398 0
M  V30 6164 C 579.594 0.082177 -2.1094 0
M  V30 6165 O 578.942 1.09536 -2.00534 0
M  V30 6166 C 579.152 -2.43967 -2.49562 0
M  V30 6167 C 580.5 -2.84436 -3.15248 0
M  V30 6168 O 581.524 -2.43597 -2.59883 0
M  V30 6169 O 580.383 -3.55008 -4.1549 0
M  V30 6170 H 577.477 -0.509697 -0.651258 0
M  V30 6171 H 580.023 -1.52603 -0.742312 0
M  V30 6172 H 578.795 -3.36076 -2.0042 0
M  V30 6173 H 578.418 -2.22879 -3.29258 0
M  V30 6174 N 579.415 0.9433 -1.26252 0
M  V30 6175 C 580.325 2.07532 -1.09397 0
M  V30 6176 C 581.341 1.73977 -0.0280449 0
M  V30 6177 O 582.517 2.00067 -0.231337 0
M  V30 6178 C 579.582 3.39002 -0.726523 0
M  V30 6179 C 578.643 3.86353 -1.87163 0
M  V30 6180 C 577.876 5.11549 -1.52162 0
M  V30 6181 O 578.099 5.68834 -0.422385 0
M  V30 6182 O 577.033 5.53889 -2.35565 0
M  V30 6183 H 580.859 2.24658 -2.04359 0
M  V30 6184 H 578.444 1.05988 -1.05295 0
M  V30 6185 H 580.326 4.18 -0.534236 0
M  V30 6186 H 579.001 3.2312 0.193721 0
M  V30 6187 H 577.908 3.0831 -2.11886 0
M  V30 6188 H 579.241 4.06752 -2.77152 0
M  V30 6189 N 580.893 1.08022 1.14757 0
M  V30 6190 C 582.17 0.720386 1.81851 0
M  V30 6191 C 582.55 -0.796375 1.95502 0
M  V30 6192 O 581.898 -1.71339 1.51179 0
M  V30 6193 C 582.108 1.44273 3.17783 0
M  V30 6194 C 583.456 1.59925 3.93331 0
M  V30 6195 O 584.48 1.40407 3.2736 0
M  V30 6196 O 583.339 1.92096 5.11626 0
M  V30 6197 H 580.433 0.257142 0.786007 0
M  V30 6198 H 582.979 1.18155 1.21809 0
M  V30 6199 H 581.751 2.47618 3.02987 0
M  V30 6200 H 581.374 0.97279 3.85516 0
M  V30 6201 N 582.371 -1.3172 0.865308 0
M  V30 6202 C 583.281 -2.32394 0.320935 0
M  V30 6203 C 584.297 -1.64511 -0.566746 0
M  V30 6204 O 585.473 -1.95969 -0.464575 0
M  V30 6205 C 582.538 -3.43462 -0.472701 0
M  V30 6206 C 581.599 -4.27015 0.442385 0
M  V30 6207 C 580.832 -5.32779 -0.313469 0
M  V30 6208 O 581.055 -5.49158 -1.54214 0
M  V30 6209 O 579.989 -6.01015 0.326257 0
M  V30 6210 H 583.815 -2.80868 1.15528 0
M  V30 6211 H 581.4 -1.35535 0.628545 0
M  V30 6212 H 583.282 -4.11172 -0.922781 0
M  V30 6213 H 581.957 -2.97159 -1.28367 0
M  V30 6214 H 580.864 -3.62075 0.940866 0
M  V30 6215 H 582.197 -4.76871 1.21882 0
M  V30 6216 N 583.85 -0.624285 -1.44708 0
M  V30 6217 C 584.76 0.0861083 -2.34442 0
M  V30 6218 C 585.776 0.84291 -1.5222 0
M  V30 6219 O 586.952 0.796723 -1.84971 0
M  V30 6220 C 584.017 1.05999 -3.30099 0
M  V30 6221 C 583.077 0.303316 -4.28227 0
M  V30 6222 C 582.311 1.23081 -5.19314 0
M  V30 6223 O 582.534 2.46929 -5.14181 0
M  V30 6224 O 581.468 0.71883 -5.97592 0
M  V30 6225 H 585.293 -0.651756 -2.96624 0
M  V30 6226 H 582.879 -0.384493 -1.44368 0
M  V30 6227 H 584.76 1.62046 -3.88997 0
M  V30 6228 H 583.436 1.77859 -2.70459 0
M  V30 6229 H 582.343 -0.300033 -3.72895 0
M  V30 6230 H 583.676 -0.375123 -4.90768 0
M  V30 6231 N 585.328 1.53329 -0.364422 0
M  V30 6232 C 586.605 1.93557 0.281962 0
M  V30 6233 C 586.985 1.29786 1.6649 0
M  V30 6234 O 586.333 0.456512 2.23893 0
M  V30 6235 C 586.543 3.47405 0.333331 0
M  V30 6236 C 587.891 4.20699 0.574231 0
M  V30 6237 O 588.915 3.53779 0.414588 0
M  V30 6238 O 587.774 5.39287 0.885002 0
M  V30 6239 H 584.868 0.809573 0.168881 0
M  V30 6240 H 587.414 1.64494 -0.417121 0
M  V30 6241 H 586.186 3.86091 -0.636326 0
M  V30 6242 H 585.809 3.82697 1.07836 0
M  V30 6243 N 586.806 0.0935595 1.57322 0
M  V30 6244 C 587.716 -0.880192 2.17462 0
M  V30 6245 C 588.732 -1.31135 1.14366 0
M  V30 6246 O 589.908 -1.37958 1.46729 0
M  V30 6247 C 586.973 -2.12184 2.74188 0
M  V30 6248 C 586.034 -1.74503 3.92234 0
M  V30 6249 C 585.267 -2.92748 4.46245 0
M  V30 6250 O 585.49 -4.07427 3.99198 0
M  V30 6251 O 584.424 -2.71303 5.37288 0
M  V30 6252 H 588.25 -0.398516 3.01074 0
M  V30 6253 H 585.835 -0.130707 1.48827 0
M  V30 6254 H 587.717 -2.84953 3.10451 0
M  V30 6255 H 586.392 -2.59407 1.93623 0
M  V30 6256 H 585.299 -0.989186 3.60785 0
M  V30 6257 H 586.632 -1.32044 4.74157 0
M  V30 6258 N 588.284 -1.56567 -0.180126 0
M  V30 6259 C 589.194 -1.98947 -1.24327 0
M  V30 6260 C 590.21 -0.899446 -1.4895 0
M  V30 6261 O 591.386 -1.20639 -1.61271 0
M  V30 6262 C 588.451 -2.33328 -2.56435 0
M  V30 6263 C 587.512 -3.56114 -2.39752 0
M  V30 6264 C 586.745 -3.88845 -3.65561 0
M  V30 6265 O 586.968 -3.22662 -4.70368 0
M  V30 6266 O 585.902 -4.82226 -3.60197 0
M  V30 6267 H 589.728 -2.89634 -0.913565 0
M  V30 6268 H 587.313 -1.44319 -0.386306 0
M  V30 6269 H 589.195 -2.5645 -3.34382 0
M  V30 6270 H 587.87 -1.45806 -2.89002 0
M  V30 6271 H 586.777 -3.38221 -1.59866 0
M  V30 6272 H 588.11 -4.4415 -2.12113 0
M  V30 6273 N 589.762 0.448376 -1.51087 0
M  V30 6274 C 591.039 1.20926 -1.53741 0
M  V30 6275 C 591.419 2.09025 -0.295222 0
M  V30 6276 O 590.767 2.16851 0.720283 0
M  V30 6277 C 590.977 2.02067 -2.84552 0
M  V30 6278 C 592.325 2.59486 -3.36084 0
M  V30 6279 O 593.349 2.12289 -2.86028 0
M  V30 6280 O 592.208 3.45539 -4.23397 0
M  V30 6281 H 589.302 0.549951 -0.617643 0
M  V30 6282 H 591.848 0.458344 -1.63393 0
M  V30 6283 H 590.62 1.37291 -3.66425 0
M  V30 6284 H 590.243 2.84246 -2.78011 0
M  V30 6285 N 591.24 1.41047 0.703093 0
M  V30 6286 C 592.187 1.42302 1.81711 0
M  V30 6287 C 593.157 0.278336 1.63751 0
M  V30 6288 O 594.342 0.478266 1.84709 0
M  V30 6289 C 591.482 1.30362 3.19531 0
M  V30 6290 C 590.595 2.54638 3.48975 0
M  V30 6291 C 589.73 2.35047 4.76368 0
M  V30 6292 C 588.769 3.54837 4.98756 0
M  V30 6293 N 587.906 3.34363 6.1737 0
M  V30 6294 H 592.746 2.37516 1.79973 0
M  V30 6295 H 590.283 1.1795 0.878983 0
M  V30 6296 H 592.241 1.21443 3.99134 0
M  V30 6297 H 590.871 0.387602 3.20464 0
M  V30 6298 H 589.923 2.74037 2.63833 0
M  V30 6299 H 591.235 3.43766 3.61423 0
M  V30 6300 H 590.389 2.23552 5.64012 0
M  V30 6301 H 589.128 1.43363 4.66153 0
M  V30 6302 H 588.133 3.66795 4.09563 0
M  V30 6303 H 589.358 4.47464 5.10835 0
M  V30 6304 H 587.304 2.45373 6.08382 0
M  V30 6305 H 587.221 4.17063 6.30551 0
M  V30 6306 H 588.489 3.26626 7.07768 0
M  V30 6307 N 592.718 -0.936591 1.26751 0
M  V30 6308 C 593.628 -2.06949 1.10496 0
M  V30 6309 C 594.644 -1.7396 0.037271 0
M  V30 6310 O 595.82 -1.99941 0.241944 0
M  V30 6311 C 592.885 -3.38612 0.744491 0
M  V30 6312 C 591.946 -3.85355 1.89209 0
M  V30 6313 C 591.179 -5.10735 1.54873 0
M  V30 6314 O 591.402 -5.68602 0.452546 0
M  V30 6315 O 590.336 -5.52632 2.38499 0
M  V30 6316 H 594.162 -2.23571 2.05547 0
M  V30 6317 H 591.747 -1.05428 1.05855 0
M  V30 6318 H 593.629 -4.17711 0.556396 0
M  V30 6319 H 592.304 -3.23218 -0.176582 0
M  V30 6320 H 591.211 -3.07182 2.13518 0
M  V30 6321 H 592.544 -4.05277 2.79305 0
M  V30 6322 N 594.196 -1.08629 -1.14182 0
M  V30 6323 C 595.106 -0.730126 -2.22949 0
M  V30 6324 C 596.122 0.26436 -1.7198 0
M  V30 6325 O 597.298 0.107742 -2.01112 0
M  V30 6326 C 594.363 -0.147227 -3.46387 0
M  V30 6327 C 593.424 -1.19662 -4.12286 0
M  V30 6328 C 592.657 -0.641437 -5.29831 0
M  V30 6329 O 592.88 0.538351 -5.67854 0
M  V30 6330 O 591.814 -1.39257 -5.85569 0
M  V30 6331 H 595.64 -1.63753 -2.55771 0
M  V30 6332 H 593.225 -0.860118 -1.22157 0
M  V30 6333 H 595.107 0.174923 -4.21037 0
M  V30 6334 H 593.782 0.733304 -3.15285 0
M  V30 6335 H 592.689 -1.57133 -3.395 0
M  V30 6336 H 594.022 -2.0495 -4.475 0
M  V30 6337 N 595.674 1.31259 -0.872281 0
M  V30 6338 C 596.951 1.91362 -0.404943 0
M  V30 6339 C 597.331 1.79362 1.11321 0
M  V30 6340 O 596.679 1.20277 1.94283 0
M  V30 6341 C 596.889 3.3749 -0.888893 0
M  V30 6342 C 598.237 4.14593 -0.916384 0
M  V30 6343 O 599.261 3.46282 -0.834701 0
M  V30 6344 O 598.12 5.3661 -1.03498 0
M  V30 6345 H 595.214 0.818016 -0.121569 0
M  V30 6346 H 597.76 1.39912 -0.960346 0
M  V30 6347 H 596.532 3.40249 -1.93251 0
M  V30 6348 H 596.155 3.96375 -0.311932 0
M  V30 6349 N 597.152 0.631951 1.44375 0
M  V30 6350 C 598.062 -0.073674 2.34484 0
M  V30 6351 C 599.078 -0.834825 1.52665 0
M  V30 6352 O 600.254 -0.786902 1.85391 0
M  V30 6353 C 597.319 -1.04247 3.30656 0
M  V30 6354 C 596.38 -0.280602 4.28382 0
M  V30 6355 C 595.613 -1.20325 5.19959 0
M  V30 6356 O 595.836 -2.44199 5.15484 0
M  V30 6357 O 594.77 -0.687128 5.97965 0
M  V30 6358 H 598.596 0.667477 2.96274 0
M  V30 6359 H 596.181 0.392144 1.44162 0
M  V30 6360 H 598.063 -1.59981 3.89851 0
M  V30 6361 H 596.738 -1.76422 2.71398 0
M  V30 6362 H 595.645 0.319804 3.72731 0
M  V30 6363 H 596.978 0.401144 4.90563 0
M  V30 6364 N 598.631 -1.53133 0.372548 0
M  V30 6365 C 599.541 -2.29671 -0.478379 0
M  V30 6366 C 600.557 -1.35913 -1.08644 0
M  V30 6367 O 601.733 -1.68975 -1.09588 0
M  V30 6368 C 598.798 -3.07625 -1.599 0
M  V30 6369 C 597.859 -4.17061 -1.01776 0
M  V30 6370 C 597.092 -4.91289 -2.08497 0
M  V30 6371 O 597.315 -4.65442 -3.29727 0
M  V30 6372 O 596.249 -5.7705 -1.71164 0
M  V30 6373 H 600.075 -3.03355 0.144649 0
M  V30 6374 H 597.66 -1.48773 0.136729 0
M  V30 6375 H 599.542 -3.56281 -2.25038 0
M  V30 6376 H 598.217 -2.3677 -2.2073 0
M  V30 6377 H 597.124 -3.72641 -0.330098 0
M  V30 6378 H 598.457 -4.90102 -0.453915 0
M  V30 6379 N 600.109 -0.101901 -1.5727 0
M  V30 6380 C 601.019 0.868647 -2.17926 0
M  V30 6381 C 602.035 1.30527 -1.1506 0
M  V30 6382 O 603.211 1.37178 -1.47459 0
M  V30 6383 C 600.276 2.10727 -2.75309 0
M  V30 6384 C 599.337 1.7242 -3.93154 0
M  V30 6385 C 598.57 2.90377 -4.47791 0
M  V30 6386 O 598.793 4.05305 -4.01353 0
M  V30 6387 O 597.727 2.6845 -5.38719 0
M  V30 6388 H 601.553 0.382544 -3.01281 0
M  V30 6389 H 599.138 0.122812 -1.48894 0
M  V30 6390 H 601.02 2.83303 -3.11958 0
M  V30 6391 H 599.695 2.58376 -1.94996 0
M  V30 6392 H 598.602 0.970039 -3.61305 0
M  V30 6393 H 599.935 1.29528 -4.74851 0
M  V30 6394 N 601.587 1.56661 0.17182 0
M  V30 6395 C 602.864 1.72838 0.915778 0
M  V30 6396 C 603.244 0.66316 2.00413 0
M  V30 6397 O 602.592 -0.322123 2.26218 0
M  V30 6398 C 602.802 3.16019 1.48097 0
M  V30 6399 C 604.15 3.76962 1.95408 0
M  V30 6400 O 605.174 3.19294 1.57892 0
M  V30 6401 O 604.033 4.78219 2.64516 0
M  V30 6402 H 601.127 0.705797 0.431021 0
M  V30 6403 H 603.673 1.68947 0.159689 0
M  V30 6404 H 602.445 3.85031 0.697618 0
M  V30 6405 H 602.068 3.24234 2.30126 0
M  V30 6406 N 603.065 -0.440357 1.51323 0
M  V30 6407 C 604.311 -1.19181 1.64085 0
M  V30 6408 C 604.644 -1.90936 0.354575 0
M  V30 6409 O 603.919 -1.8347 -0.645675 0
M  V30 6410 C 604.202 -2.2112 2.84215 0
M  V30 6411 C 604.055 -1.53468 4.22809 0
M  V30 6412 C 605.374 -3.22133 2.99864 0
M  V30 6413 H 602.493 -0.431924 0.597169 0
M  V30 6414 H 605.135 -0.481443 1.83799 0
M  V30 6415 H 603.285 -2.81703 2.67537 0
M  V30 6416 H 604.957 -0.962455 4.51148 0
M  V30 6417 H 603.2 -0.837086 4.25647 0
M  V30 6418 H 603.871 -2.27694 5.02852 0
M  V30 6419 H 606.347 -2.71601 3.15233 0
M  V30 6420 H 605.223 -3.90756 3.85488 0
M  V30 6421 H 605.484 -3.88061 2.11804 0
M  V30 6422 N 604.543 -1.41418 -0.695603 0
M  V30 6423 C 605.954 -1.36335 -1.27552 0
M  V30 6424 C 606.305 -0.0464336 -1.96145 0
M  V30 6425 O 605.43 0.855304 -1.9878 0
M  V30 6426 C 606.025 -2.46941 -2.3196 0
M  V30 6427 C 604.584 -2.45256 -2.85529 0
M  V30 6428 C 603.731 -2.2679 -1.59566 0
M  V30 6429 H 606.682 -1.50934 -0.490362 0
M  V30 6430 H 606.703 -2.15997 -3.1325 0
M  V30 6431 H 606.215 -3.42775 -1.82008 0
M  V30 6432 H 604.316 -1.53179 -3.39657 0
M  V30 6433 H 604.429 -3.41565 -3.35961 0
M  V30 6434 H 602.793 -1.74667 -1.85374 0
M  V30 6435 H 603.576 -3.24651 -1.1161 0
M  V30 6436 N 606.021 0.929856 -1.27246 0
M  V30 6437 C 607.269 1.674 -1.13233 0
M  V30 6438 C 607.59 1.92311 0.322744 0
M  V30 6439 O 606.86 1.52784 1.22612 0
M  V30 6440 H 605.44 0.620411 -0.416052 0
M  V30 6441 H 608.102 1.11663 -1.59741 0
M  V30 6442 H 607.198 2.64308 -1.65975 0
M  V30 6443 N 607.499 1.09233 1.13605 0
M  V30 6444 C 608.431 0.687794 2.18637 0
M  V30 6445 C 609.444 -0.26936 1.60556 0
M  V30 6446 O 610.633 -0.0557162 1.78413 0
M  V30 6447 C 607.733 -0.00751901 3.38899 0
M  V30 6448 C 606.906 0.97067 4.26494 0
M  V30 6449 C 605.965 0.309129 5.25291 0
M  V30 6450 O 604.991 0.956149 5.61112 0
M  V30 6451 N 606.193 -0.937555 5.72879 0
M  V30 6452 H 608.958 1.59141 2.53957 0
M  V30 6453 H 606.519 0.979515 1.28907 0
M  V30 6454 H 608.511 -0.461238 4.02063 0
M  V30 6455 H 607.081 -0.813353 3.01833 0
M  V30 6456 H 606.301 1.603 3.60135 0
M  V30 6457 H 607.589 1.63323 4.81875 0
M  V30 6458 H 606.987 -1.48281 5.4592 0
M  V30 6459 H 605.544 -1.33463 6.3799 0
M  V30 6460 N 608.977 -1.30795 0.87923 0
M  V30 6461 C 609.94 -2.26563 0.346676 0
M  V30 6462 C 610.94 -1.52578 -0.507597 0
M  V30 6463 O 612.13 -1.71318 -0.315575 0
M  V30 6464 C 609.262 -3.37115 -0.506611 0
M  V30 6465 H 610.455 -2.75183 1.19223 0
M  V30 6466 H 608.008 -1.41886 0.655598 0
M  V30 6467 H 608.743 -2.93802 -1.37299 0
M  V30 6468 H 608.528 -3.91959 0.105218 0
M  V30 6469 H 610.018 -4.08412 -0.871192 0
M  V30 6470 N 610.455 -0.639598 -1.44038 0
M  V30 6471 C 611.402 0.0602458 -2.30721 0
M  V30 6472 C 612.372 0.828352 -1.43971 0
M  V30 6473 O 613.557 0.807693 -1.72861 0
M  V30 6474 C 610.697 1.03008 -3.29368 0
M  V30 6475 C 609.81 0.259502 -4.3122 0
M  V30 6476 C 608.945 1.22191 -5.16955 0
M  V30 6477 C 607.984 0.440978 -6.10509 0
M  V30 6478 N 607.121 1.35428 -6.88915 0
M  V30 6479 H 611.961 -0.684867 -2.90023 0
M  V30 6480 H 609.498 -0.349509 -1.42888 0
M  V30 6481 H 611.456 1.60583 -3.85057 0
M  V30 6482 H 610.086 1.74222 -2.71747 0
M  V30 6483 H 609.138 -0.432317 -3.77935 0
M  V30 6484 H 610.45 -0.348347 -4.97582 0
M  V30 6485 H 609.604 1.86873 -5.77203 0
M  V30 6486 H 608.343 1.86367 -4.50687 0
M  V30 6487 H 607.348 -0.219279 -5.49363 0
M  V30 6488 H 608.573 -0.196192 -6.78817 0
M  V30 6489 H 606.519 1.9831 -6.25307 0
M  V30 6490 H 606.436 0.800657 -7.51748 0
M  V30 6491 H 607.704 1.98967 -7.53679 0
M  V30 6492 N 611.933 1.52934 -0.380664 0
M  V30 6493 C 613.21 1.93845 0.261417 0
M  V30 6494 C 613.59 1.31544 1.65104 0
M  V30 6495 O 612.938 0.480234 2.23397 0
M  V30 6496 C 613.148 3.47739 0.296466 0
M  V30 6497 C 614.496 4.21284 0.529578 0
M  V30 6498 O 615.52 3.54199 0.377041 0
M  V30 6499 O 614.379 5.40195 0.827753 0
M  V30 6500 H 611.473 0.811318 0.160285 0
M  V30 6501 H 614.019 1.64042 -0.434544 0
M  V30 6502 H 612.791 3.85395 -0.67724 0
M  V30 6503 H 612.414 3.8382 1.0377 0
M  V30 6504 N 613.412 0.11024 1.57214 0
M  V30 6505 C 614.322 -0.857077 2.18383 0
M  V30 6506 C 615.338 -1.29915 1.1575 0
M  V30 6507 O 616.514 -1.36394 1.48184 0
M  V30 6508 C 613.579 -2.09264 2.76423 0
M  V30 6509 C 612.64 -1.70333 3.94063 0
M  V30 6510 C 611.873 -2.87999 4.49324 0
M  V30 6511 O 612.096 -4.0317 4.03497 0
M  V30 6512 O 611.03 -2.6559 5.40135 0
M  V30 6513 H 614.856 -0.366561 3.0148 0
M  V30 6514 H 612.441 -0.114914 1.48957 0
M  V30 6515 H 614.323 -2.81644 3.13456 0
M  V30 6516 H 612.998 -2.57339 1.96363 0
M  V30 6517 H 611.905 -0.950864 3.61814 0
M  V30 6518 H 613.238 -1.27007 4.75531 0
M  V30 6519 N 614.89 -1.56749 -0.16351 0
M  V30 6520 C 615.82 -2.00042 -1.20438 0
M  V30 6521 C 616.801 -0.877256 -1.45733 0
M  V30 6522 O 617.986 -1.1439 -1.56935 0
M  V30 6523 C 615.116 -2.36697 -2.54149 0
M  V30 6524 C 614.07 -3.52046 -2.43408 0
M  V30 6525 C 613.396 -3.74466 -3.81679 0
M  V30 6526 C 614.696 -4.85247 -1.93216 0
M  V30 6527 H 616.39 -2.87244 -0.844477 0
M  V30 6528 H 613.936 -1.38194 -0.40478 0
M  V30 6529 H 615.889 -2.65582 -3.27176 0
M  V30 6530 H 614.613 -1.46414 -2.91943 0
M  V30 6531 H 613.272 -3.23301 -1.72834 0
M  V30 6532 H 612.92 -2.81461 -4.1688 0
M  V30 6533 H 612.62 -4.52084 -3.75359 0
M  V30 6534 H 614.144 -4.0576 -4.5628 0
M  V30 6535 H 615.558 -5.12957 -2.56023 0
M  V30 6536 H 613.955 -5.66556 -1.97825 0
M  V30 6537 H 615.025 -4.7672 -0.88689 0
M  V30 6538 O 616.407 0.308401 -1.58528 0
M  V30 6539 H 617.098 0.955962 -1.68467 0
M  V30 END ATOM
M  V30 BEGIN BOND
M  V30 END BOND
M  V30 END CTAB
M  END
$$$$
