drugbank_target|P27816 Microtubule-associated protein 4 (DB01229; DB01248; DB11638)
 OpenBabel12092120333D

  0  0  0     0  0            999 V3000
M  V30 BEGIN CTAB
M  V30 COUNTS 17066 17222 0 0 0
M  V30 BEGIN ATOM
M  V30 1 H -0.908 1.98254 -0.117106 0
M  V30 2 N 0 1.576 0 0
M  V30 3 C 0.933 2.03868 1.02534 0
M  V30 4 C 1.911 0.928543 1.3348 0
M  V30 5 O 3.095 1.19667 1.45644 0
M  V30 6 C 0.222 2.43627 2.35294 0
M  V30 7 C -0.732 3.65373 2.2001 0
M  V30 8 S 0.101 5.13292 1.52614 0
M  V30 9 C 1.257 5.56322 2.86805 0
M  V30 10 H 1.49 2.90518 0.631377 0
M  V30 11 H -0.977 1.52953 0.210867 0
M  V30 12 H 0.981 2.67203 3.11629 0
M  V30 13 H -0.358 1.57376 2.7183 0
M  V30 14 H -1.165 3.90944 3.18086 0
M  V30 15 H -1.563 3.418 1.51819 0
M  V30 16 H 0.729 5.58782 3.83104 0
M  V30 17 H 1.672 6.56266 2.65933 0
M  V30 18 H 2.08 4.83886 2.90714 0
M  V30 19 N 1.4781 -0.272755 1.55222 0
M  V30 20 C 2.4411 -1.32041 1.87344 0
M  V30 21 C 3.4411 -1.42342 0.74803 0
M  V30 22 O 4.6311 -1.41488 1.0162 0
M  V30 23 C 1.7631 -2.70173 2.07893 0
M  V30 24 H 2.9561 -1.04789 2.80997 0
M  V30 25 H 0.5091 -0.51083 1.47717 0
M  V30 26 H 1.2441 -3.02605 1.16622 0
M  V30 27 H 1.0291 -2.64082 2.89833 0
M  V30 28 H 2.5191 -3.45869 2.34017 0
M  V30 29 N 2.9562 -1.48159 -0.537278 0
M  V30 30 C 4.2332 -1.46291 -1.29839 0
M  V30 31 C 4.6132 -0.170613 -2.10409 0
M  V30 32 O 3.9612 0.847746 -2.12192 0
M  V30 33 C 4.1712 -2.72055 -2.18603 0
M  V30 34 C 5.5192 -3.20087 -2.7898 0
M  V30 35 O 6.5432 -2.72921 -2.28894 0
M  V30 36 O 5.4022 -4.02138 -3.70064 0
M  V30 37 H 2.4962 -0.583906 -0.585647 0
M  V30 38 H 5.0422 -1.60384 -0.554534 0
M  V30 39 H 3.8142 -3.57628 -1.58801 0
M  V30 40 H 3.4372 -2.60646 -3.00249 0
M  V30 41 N 4.4343 0.785586 -1.36625 0
M  V30 42 C 5.3643 1.91259 -1.33949 0
M  V30 43 C 6.3453 1.68795 -0.210325 0
M  V30 44 O 7.5303 1.89854 -0.408561 0
M  V30 45 C 4.6603 3.28339 -1.13186 0
M  V30 46 C 3.6143 3.65335 -2.22967 0
M  V30 47 C 2.9403 5.00806 -1.87342 0
M  V30 48 C 4.2403 3.7352 -3.65075 0
M  V30 49 H 5.9343 1.93755 -2.28253 0
M  V30 50 H 3.4803 0.930788 -1.09874 0
M  V30 51 H 5.4333 4.06804 -1.09948 0
M  V30 52 H 4.1573 3.2624 -0.153332 0
M  V30 53 H 2.8163 2.89169 -2.25337 0
M  V30 54 H 2.4643 4.95233 -0.880545 0
M  V30 55 H 2.1643 5.26529 -2.60846 0
M  V30 56 H 3.6883 5.81687 -1.85667 0
M  V30 57 H 5.1023 4.42168 -3.64911 0
M  V30 58 H 3.4993 4.10731 -4.37516 0
M  V30 59 H 4.5693 2.74527 -3.99703 0
M  V30 60 N 5.9124 1.20967 1.01018 0
M  V30 61 C 7.1374 1.0503 1.78839 0
M  V30 62 C 7.5624 -0.395752 1.8389 0
M  V30 63 O 6.9204 -1.28529 1.27867 0
M  V30 64 C 6.9684 1.64602 3.2084 0
M  V30 65 O 6.0724 0.887988 4.02726 0
M  V30 66 H 5.4134 0.369987 0.551367 0
M  V30 67 H 7.9434 1.60399 1.27018 0
M  V30 68 H 7.9534 1.68607 3.71532 0
M  V30 69 H 6.6284 2.69841 3.16479 0
M  V30 70 H 5.2054 0.922648 3.61305 0
M  V30 71 N 7.3905 -1.2043 1.01659 0
M  V30 72 C 8.3205 -2.25466 0.607226 0
M  V30 73 C 9.3015 -1.65853 -0.377716 0
M  V30 74 O 10.4865 -1.92409 -0.263149 0
M  V30 75 C 7.6165 -3.47256 -0.0552949 0
M  V30 76 C 6.5705 -4.19462 0.850632 0
M  V30 77 C 5.8965 -5.34673 0.0538859 0
M  V30 78 C 7.1965 -4.75603 2.15868 0
M  V30 79 H 8.8905 -2.59962 1.48526 0
M  V30 80 H 6.4365 -1.2496 0.715605 0
M  V30 81 H 8.3895 -4.19917 -0.353233 0
M  V30 82 H 7.1135 -3.11924 -0.968045 0
M  V30 83 H 5.7725 -3.48667 1.13257 0
M  V30 84 H 5.4205 -4.95585 -0.860514 0
M  V30 85 H 5.1205 -5.83913 0.657192 0
M  V30 86 H 6.6445 -6.10138 -0.237598 0
M  V30 87 H 8.0585 -5.40083 1.92311 0
M  V30 88 H 6.4555 -5.3528 2.71284 0
M  V30 89 H 7.5255 -3.94346 2.82169 0
M  V30 90 N 8.8686 -0.792821 -1.36206 0
M  V30 91 C 9.8316 -0.199459 -2.2833 0
M  V30 92 C 10.8316 0.605189 -1.48977 0
M  V30 93 O 12.0216 0.425685 -1.68919 0
M  V30 94 C 9.1536 0.723523 -3.33134 0
M  V30 95 H 10.3466 -1.01181 -2.82316 0
M  V30 96 H 7.8996 -0.562485 -1.45828 0
M  V30 97 H 8.6346 1.56008 -2.84309 0
M  V30 98 H 8.4196 0.148436 -3.91819 0
M  V30 99 H 9.9096 1.13344 -4.01924 0
M  V30 100 N 10.3467 1.47872 -0.545128 0
M  V30 101 C 11.6237 1.9554 0.0485222 0
M  V30 102 C 12.0037 1.4876 1.49779 0
M  V30 103 O 11.3517 0.720925 2.16829 0
M  V30 104 C 11.5617 3.48898 -0.084417 0
M  V30 105 C 12.9097 4.24547 0.0671239 0
M  V30 106 O 13.9337 3.56198 -0.0113649 0
M  V30 107 O 12.7927 5.45999 0.233882 0
M  V30 108 H 9.8867 0.823957 0.0708773 0
M  V30 109 H 12.4327 1.58327 -0.610798 0
M  V30 110 H 11.2047 3.75714 -1.09337 0
M  V30 111 H 10.8277 3.92845 0.613066 0
M  V30 112 N 11.8248 0.280983 1.55075 0
M  V30 113 C 12.7878 -0.590896 2.21452 0
M  V30 114 C 13.7878 -1.07682 1.19421 0
M  V30 115 O 14.9778 -0.97605 1.44288 0
M  V30 116 C 12.1098 -1.81587 2.88511 0
M  V30 117 H 13.3028 -0.0112554 2.99898 0
M  V30 118 H 10.8558 0.0316438 1.56268 0
M  V30 119 H 11.5908 -2.43587 2.14093 0
M  V30 120 H 11.3758 -1.4753 3.63287 0
M  V30 121 H 12.8658 -2.43575 3.39206 0
M  V30 122 N 13.3029 -1.57598 0.00835791 0
M  V30 123 C 14.2329 -2.1198 -0.979113 0
M  V30 124 C 15.2139 -1.03091 -1.35301 0
M  V30 125 O 16.3989 -1.30818 -1.43528 0
M  V30 126 C 13.5289 -2.62995 -2.26828 0
M  V30 127 C 12.4829 -3.76485 -2.03576 0
M  V30 128 C 11.8089 -4.13846 -3.38579 0
M  V30 129 C 13.1089 -5.0342 -1.39161 0
M  V30 130 H 14.8029 -2.94738 -0.526281 0
M  V30 131 H 12.3489 -1.41783 -0.251704 0
M  V30 132 H 14.3019 -2.99669 -2.96271 0
M  V30 133 H 13.0259 -1.7737 -2.7424 0
M  V30 134 H 11.6849 -3.40217 -1.36557 0
M  V30 135 H 11.3329 -3.25232 -3.83709 0
M  V30 136 H 11.0329 -4.90312 -3.23834 0
M  V30 137 H 12.5569 -4.53086 -4.09323 0
M  V30 138 H 13.9709 -5.37812 -1.98573 0
M  V30 139 H 12.3679 -5.84746 -1.34878 0
M  V30 140 H 13.4379 -4.83548 -0.361868 0
M  V30 141 N 14.781 0.264519 -1.55364 0
M  V30 142 C 16.009 1.013 -1.80405 0
M  V30 143 C 16.424 1.79618 -0.581622 0
M  V30 144 O 15.781 1.76879 0.449468 0
M  V30 145 C 15.832 1.96487 -3.03439 0
M  V30 146 O 15.553 1.21341 -4.20961 0
M  V30 147 C 17.054 2.83079 -3.41147 0
M  V30 148 H 14.274 0.298875 -0.600762 0
M  V30 149 H 16.818 0.292736 -2.02394 0
M  V30 150 H 14.973 2.63965 -2.83551 0
M  V30 151 H 15.387 1.85573 -4.90574 0
M  V30 152 H 16.861 3.4565 -4.30384 0
M  V30 153 H 17.338 3.53286 -2.60932 0
M  V30 154 H 17.944 2.2108 -3.63323 0
M  V30 155 N 16.2591 1.48442 0.529413 0
M  V30 156 C 17.1691 1.6569 1.66084 0
M  V30 157 C 18.1851 0.539432 1.65427 0
M  V30 158 O 19.3611 0.810572 1.84368 0
M  V30 159 C 16.4261 1.69315 3.02545 0
M  V30 160 C 15.4871 2.92694 3.14052 0
M  V30 161 C 14.7201 2.96137 4.44003 0
M  V30 162 O 14.9431 2.07973 5.31134 0
M  V30 163 O 13.8771 3.88312 4.59888 0
M  V30 164 H 17.7031 2.61483 1.54469 0
M  V30 165 H 15.2881 1.3185 0.702567 0
M  V30 166 H 17.1701 1.74217 3.83701 0
M  V30 167 H 15.8451 0.766966 3.14483 0
M  V30 168 H 14.7521 2.93324 2.32189 0
M  V30 169 H 16.0851 3.84699 3.0703 0
M  V30 170 N 17.7372 -0.778329 1.37039 0
M  V30 171 C 19.1482 -1.35421 1.28523 0
M  V30 172 C 19.4992 -1.96075 -0.0700901 0
M  V30 173 O 18.6242 -1.93352 -0.971801 0
M  V30 174 C 19.2192 -2.46211 2.32735 0
M  V30 175 C 17.7782 -2.99585 2.27873 0
M  V30 176 C 16.9252 -1.72748 2.16918 0
M  V30 177 H 19.8762 -0.5791 1.47757 0
M  V30 178 H 19.8972 -3.2552 1.9702 0
M  V30 179 H 19.4092 -2.02036 3.31365 0
M  V30 180 H 17.5102 -3.48152 1.32745 0
M  V30 181 H 17.6232 -3.55646 3.21018 0
M  V30 182 H 15.9872 -1.95416 1.63354 0
M  V30 183 H 16.7702 -1.30686 3.17452 0
M  V30 184 N 19.2153 -1.21501 -1.00376 0
M  V30 185 C 20.4403 -1.05977 -1.78279 0
M  V30 186 C 20.8653 0.385994 -1.84097 0
M  V30 187 O 20.2233 1.27849 -1.28547 0
M  V30 188 C 20.2713 -1.66302 -3.19963 0
M  V30 189 O 19.3753 -0.909333 -4.0225 0
M  V30 190 H 18.7163 -0.372906 -0.549397 0
M  V30 191 H 21.2463 -1.6107 -1.26165 0
M  V30 192 H 21.2563 -1.70574 -3.70632 0
M  V30 193 H 19.9313 -2.71515 -3.15043 0
M  V30 194 H 18.5083 -0.941795 -3.60811 0
M  V30 195 N 20.6934 1.19889 -1.02296 0
M  V30 196 C 22.1044 1.71124 -0.746568 0
M  V30 197 C 22.4554 1.81939 0.734335 0
M  V30 198 O 21.5804 1.48639 1.57275 0
M  V30 199 C 22.1754 3.10804 -1.34857 0
M  V30 200 C 20.7344 3.59323 -1.1209 0
M  V30 201 C 19.8814 2.3635 -1.45031 0
M  V30 202 H 22.8324 1.04813 -1.19163 0
M  V30 203 H 22.8534 3.73186 -0.742437 0
M  V30 204 H 22.3654 3.029 -2.42638 0
M  V30 205 H 20.4664 3.7255 -0.0610337 0
M  V30 206 H 20.5794 4.4378 -1.80544 0
M  V30 207 H 18.9434 2.39399 -0.869487 0
M  V30 208 H 19.7264 2.31081 -2.53883 0
M  V30 209 N 22.1715 0.800033 1.35784 0
M  V30 210 C 23.4485 0.30088 1.93272 0
M  V30 211 C 23.8285 -1.20857 1.73081 0
M  V30 212 O 23.1765 -2.00502 1.09596 0
M  V30 213 C 23.3865 0.70511 3.41803 0
M  V30 214 C 24.7345 0.690871 4.18942 0
M  V30 215 O 25.7585 0.646244 3.50289 0
M  V30 216 O 24.6175 0.74332 5.41421 0
M  V30 217 H 21.7115 0.0771605 0.823393 0
M  V30 218 H 24.2575 0.88329 1.449 0
M  V30 219 H 23.0295 1.74571 3.50201 0
M  V30 220 H 22.6525 0.0971541 3.97481 0
M  V30 221 N 23.6496 -1.47581 0.552962 0
M  V30 222 C 24.8986 -2.01684 0.0251995 0
M  V30 223 C 25.2116 -1.43317 -1.33115 0
M  V30 224 O 26.4176 -1.89057 -1.94858 0
M  V30 225 C 24.8736 -3.599 -0.00542052 0
M  V30 226 C 24.4816 -4.27257 1.34742 0
M  V30 227 C 26.2256 -4.21768 -0.4808 0
M  V30 228 C 24.1326 -5.77467 1.27614 0
M  V30 229 H 23.0626 -0.753979 0.00565033 0
M  V30 230 H 25.7136 -1.69616 0.70018 0
M  V30 231 H 24.0956 -3.88911 -0.745961 0
M  V30 232 H 25.2696 -4.09893 2.10534 0
M  V30 233 H 23.5846 -3.77358 1.76039 0
M  V30 234 H 26.1816 -5.31838 -0.55246 0
M  V30 235 H 26.5246 -3.88651 -1.49184 0
M  V30 236 H 27.0576 -3.97273 0.204752 0
M  V30 237 H 23.7966 -6.15196 2.26304 0
M  V30 238 H 23.3166 -5.9718 0.55996 0
M  V30 239 H 24.9956 -6.3959 0.976421 0
M  V30 240 N 25.1277 -0.289203 -1.54924 0
M  V30 241 C 26.0377 0.601863 -2.26748 0
M  V30 242 C 27.0537 1.15834 -1.2984 0
M  V30 243 O 28.2297 1.18564 -1.62802 0
M  V30 244 C 25.2947 1.76299 -2.98529 0
M  V30 245 C 24.3557 1.24178 -4.10948 0
M  V30 246 C 23.5887 2.34757 -4.79296 0
M  V30 247 O 23.8117 3.54411 -4.46933 0
M  V30 248 O 22.7457 2.02115 -5.66951 0
M  V30 249 H 26.5717 0.0195879 -3.03694 0
M  V30 250 H 24.1567 -0.0560868 -1.49295 0
M  V30 251 H 26.0387 2.43973 -3.43592 0
M  V30 252 H 24.7137 2.33209 -2.24488 0
M  V30 253 H 23.6207 0.531104 -3.70311 0
M  V30 254 H 24.9537 0.718252 -4.86931 0
M  V30 255 N 26.6058 1.57591 -0.0167156 0
M  V30 256 C 27.8538 1.90906 0.663285 0
M  V30 257 C 28.1748 0.892509 1.73376 0
M  V30 258 O 27.4448 -0.0677623 1.95783 0
M  V30 259 H 26.0248 0.704637 0.247983 0
M  V30 260 H 28.6868 1.94803 -0.0615909 0
M  V30 261 H 27.7828 2.9116 1.12393 0
M  V30 262 N 28.0839 -0.256276 1.55502 0
M  V30 263 C 28.9939 -1.33882 1.92647 0
M  V30 264 C 30.0099 -1.53159 0.825727 0
M  V30 265 O 31.1859 -1.66963 1.12629 0
M  V30 266 C 28.2509 -2.6751 2.20543 0
M  V30 267 C 27.3119 -2.56836 3.43997 0
M  V30 268 C 26.5449 -3.84092 3.70553 0
M  V30 269 O 26.7679 -4.85545 2.99336 0
M  V30 270 O 25.7019 -3.83288 4.64084 0
M  V30 271 H 29.5279 -1.05374 2.84833 0
M  V30 272 H 27.1129 -0.456237 1.42263 0
M  V30 273 H 28.9949 -3.46492 2.39835 0
M  V30 274 H 27.6699 -2.9577 1.31536 0
M  V30 275 H 26.5769 -1.76172 3.30021 0
M  V30 276 H 27.9099 -2.33523 4.33275 0
M  V30 277 N 29.562 -1.4872 -0.521534 0
M  V30 278 C 30.811 -1.56419 -1.27341 0
M  V30 279 C 31.124 -0.246805 -1.94037 0
M  V30 280 O 32.33 -0.202122 -2.70747 0
M  V30 281 C 30.786 -2.75896 -2.31105 0
M  V30 282 C 30.394 -4.14311 -1.70441 0
M  V30 283 C 32.138 -2.92913 -3.07249 0
M  V30 284 C 30.045 -5.25038 -2.72194 0
M  V30 285 H 28.975 -0.582344 -0.478949 0
M  V30 286 H 31.626 -1.75071 -0.549779 0
M  V30 287 H 30.008 -2.50697 -3.06541 0
M  V30 288 H 31.182 -4.49564 -1.01136 0
M  V30 289 H 29.497 -4.02482 -1.06759 0
M  V30 290 H 32.094 -3.72805 -3.83302 0
M  V30 291 H 32.437 -2.02689 -3.63625 0
M  V30 292 H 32.97 -3.18054 -2.38928 0
M  V30 293 H 29.709 -6.17255 -2.20627 0
M  V30 294 H 29.229 -4.94263 -3.39801 0
M  V30 295 H 30.908 -5.53508 -3.35019 0
M  V30 296 N 31.0401 0.771051 -1.3745 0
M  V30 297 C 31.9871 1.88435 -1.3327 0
M  V30 298 C 32.9571 1.64914 -0.198136 0
M  V30 299 O 34.1421 1.86821 -0.387606 0
M  V30 300 C 31.2821 3.25509 -1.14622 0
M  V30 301 C 30.3951 3.60979 -2.37314 0
M  V30 302 C 29.5301 4.87265 -2.11533 0
M  V30 303 C 28.5691 5.15469 -3.30088 0
M  V30 304 N 27.7061 6.32944 -3.03853 0
M  V30 305 H 32.5461 1.91344 -2.28455 0
M  V30 306 H 30.0831 0.935466 -1.13523 0
M  V30 307 H 32.0411 4.04582 -1.01831 0
M  V30 308 H 30.6711 3.21974 -0.230837 0
M  V30 309 H 29.7231 2.76885 -2.60842 0
M  V30 310 H 31.0351 3.77759 -3.25729 0
M  V30 311 H 30.1891 5.74244 -1.95777 0
M  V30 312 H 28.9281 4.7259 -1.20457 0
M  V30 313 H 27.9331 4.26966 -3.46382 0
M  V30 314 H 29.1581 5.32052 -4.22016 0
M  V30 315 H 27.1041 6.19625 -2.15407 0
M  V30 316 H 27.0211 6.50143 -3.85812 0
M  V30 317 H 28.2891 7.22857 -2.91716 0
M  V30 318 N 32.5182 1.22032 0.997298 0
M  V30 319 C 33.9342 0.979326 1.26021 0
M  V30 320 C 34.1342 -0.32972 1.98784 0
M  V30 321 O 33.1902 -1.05345 2.29475 0
M  V30 322 C 34.5032 2.17509 2.07631 0
M  V30 323 C 36.0512 2.21817 2.2083 0
M  V30 324 C 36.5262 3.40933 3.05825 0
M  V30 325 N 38.0172 3.41067 3.13412 0
M  V30 326 C 38.7522 4.29885 3.79455 0
M  V30 327 N 38.2482 5.28914 4.47462 0
M  V30 328 N 40.0412 4.17673 3.76173 0
M  V30 329 H 32.1922 2.06202 0.509352 0
M  V30 330 H 34.4552 0.90334 0.287541 0
M  V30 331 H 34.1612 3.12415 1.61524 0
M  V30 332 H 34.0352 2.17206 3.08385 0
M  V30 333 H 36.4222 1.27462 2.66153 0
M  V30 334 H 36.5032 2.2616 1.1952 0
M  V30 335 H 36.1472 4.35586 2.61203 0
M  V30 336 H 36.0772 3.33829 4.07266 0
M  V30 337 H 38.5682 2.69406 2.65007 0
M  V30 338 H 38.8812 5.92973 4.95583 0
M  V30 339 H 37.2262 5.32831 4.46224 0
M  V30 340 H 40.4172 3.39564 3.22202 0
M  V30 341 H 40.5902 4.87098 4.27363 0
M  V30 342 N 33.9963 -1.19345 1.0293 0
M  V30 343 C 35.2733 -1.84811 0.640642 0
M  V30 344 C 35.6533 -1.91855 -0.88062 0
M  V30 345 O 35.0013 -1.43587 -1.7775 0
M  V30 346 C 35.2113 -3.23755 1.30321 0
M  V30 347 C 36.5593 -3.99912 1.42673 0
M  V30 348 O 37.5833 -3.33155 1.26041 0
M  V30 349 O 36.4423 -5.19494 1.6967 0
M  V30 350 H 33.5363 -0.796443 0.222726 0
M  V30 351 H 36.0823 -1.26831 1.12748 0
M  V30 352 H 34.8543 -3.13466 2.34211 0
M  V30 353 H 34.4773 -3.89381 0.804261 0
M  V30 354 N 35.4744 -0.807222 -1.35358 0
M  V30 355 C 36.7214 -0.387888 -1.9875 0
M  V30 356 C 37.0494 1.04509 -1.64037 0
M  V30 357 O 36.3044 1.73986 -0.895946 0
M  V30 358 C 36.6034 -0.519036 -3.53611 0
M  V30 359 C 36.2694 -1.91542 -4.08194 0
M  V30 360 C 34.9314 -2.29745 -4.22813 0
M  V30 361 C 37.2834 -2.82896 -4.37744 0
M  V30 362 C 34.6114 -3.58668 -4.643 0
M  V30 363 C 36.9634 -4.11265 -4.8067 0
M  V30 364 C 35.6274 -4.49466 -4.93494 0
M  V30 365 H 34.8974 -0.141938 -0.727279 0
M  V30 366 H 37.5444 -1.02814 -1.6156 0
M  V30 367 H 35.8494 0.204658 -3.91265 0
M  V30 368 H 37.5464 -0.175345 -4.00616 0
M  V30 369 H 34.1364 -1.60862 -3.97268 0
M  V30 370 H 38.3204 -2.54629 -4.26002 0
M  V30 371 H 33.5764 -3.88113 -4.72418 0
M  V30 372 H 37.7504 -4.82153 -5.02496 0
M  V30 373 H 35.3774 -5.49418 -5.25399 0
M  V30 374 N 36.9525 1.47285 -0.560781 0
M  V30 375 C 38.2015 2.01668 -0.035895 0
M  V30 376 C 38.5145 1.44021 1.32353 0
M  V30 377 O 39.7205 1.90088 1.93853 0
M  V30 378 C 38.1765 3.59897 -0.0136659 0
M  V30 379 C 37.7845 4.26536 -1.37006 0
M  V30 380 C 39.5285 4.22017 0.458425 0
M  V30 381 C 37.4355 5.76782 -1.30675 0
M  V30 382 H 36.3655 0.753938 -0.00964879 0
M  V30 383 H 39.0165 1.69243 -0.709166 0
M  V30 384 H 37.3985 3.89301 0.725325 0
M  V30 385 H 38.5725 4.0877 -2.12705 0
M  V30 386 H 36.8875 3.76419 -1.78038 0
M  V30 387 H 39.4845 5.32124 0.524247 0
M  V30 388 H 39.8275 3.89437 1.4712 0
M  V30 389 H 40.3605 3.97159 -0.225818 0
M  V30 390 H 37.0995 6.13988 -2.29564 0
M  V30 391 H 36.6195 5.96875 -0.591622 0
M  V30 392 H 38.2985 6.39063 -1.01033 0
M  V30 393 N 38.4306 0.297415 1.54768 0
M  V30 394 C 39.3936 -0.567375 2.22066 0
M  V30 395 C 40.3936 -1.06409 1.20556 0
M  V30 396 O 41.5836 -0.960691 1.45315 0
M  V30 397 C 38.7156 -1.78517 2.90421 0
M  V30 398 H 39.9086 0.0205534 2.99893 0
M  V30 399 H 37.4616 0.0482163 1.56226 0
M  V30 400 H 38.1966 -2.41303 2.16664 0
M  V30 401 H 37.9816 -1.43669 3.64831 0
M  V30 402 H 39.4716 -2.39964 3.41771 0
M  V30 403 N 39.9087 -1.5758 0.0250728 0
M  V30 404 C 41.1367 -1.9593 -0.664747 0
M  V30 405 C 41.5517 -0.901352 -1.65895 0
M  V30 406 O 40.9087 0.117255 -1.82123 0
M  V30 407 C 40.9597 -3.34342 -1.37468 0
M  V30 408 O 40.6807 -4.36079 -0.420324 0
M  V30 409 C 42.1817 -3.873 -2.1567 0
M  V30 410 H 39.4017 -0.645405 -0.183557 0
M  V30 411 H 41.9457 -2.04329 0.0836372 0
M  V30 412 H 40.1007 -3.27175 -2.0745 0
M  V30 413 H 40.5147 -5.16297 -0.923991 0
M  V30 414 H 41.9887 -4.86504 -2.60803 0
M  V30 415 H 42.4657 -3.21331 -2.99405 0
M  V30 416 H 43.0717 -3.97723 -1.50654 0
M  V30 417 N 41.3868 0.248026 -1.55636 0
M  V30 418 C 42.3168 1.31079 -1.93237 0
M  V30 419 C 43.2978 1.50264 -0.797174 0
M  V30 420 O 44.4828 1.62891 -1.05737 0
M  V30 421 C 41.6128 2.66575 -2.22609 0
M  V30 422 C 40.5668 2.62087 -3.3837 0
M  V30 423 C 39.8928 4.01369 -3.53281 0
M  V30 424 C 41.1928 2.19171 -4.7409 0
M  V30 425 H 42.8868 0.998556 -2.82257 0
M  V30 426 H 40.4328 0.47891 -1.35803 0
M  V30 427 H 42.3858 3.41057 -2.47503 0
M  V30 428 H 41.1098 2.99432 -1.30414 0
M  V30 429 H 39.7688 1.90063 -3.13483 0
M  V30 430 H 39.4168 4.31489 -2.58508 0
M  V30 431 H 39.1168 3.99254 -4.31127 0
M  V30 432 H 40.6408 4.77552 -3.80495 0
M  V30 433 H 42.0548 2.83384 -4.98363 0
M  V30 434 H 40.4518 2.2817 -5.5503 0
M  V30 435 H 41.5218 1.14336 -4.71227 0
M  V30 436 N 42.8649 1.48995 0.513639 0
M  V30 437 C 43.7749 1.67443 1.64317 0
M  V30 438 C 44.7909 0.556947 1.64846 0
M  V30 439 O 45.9669 0.830082 1.83498 0
M  V30 440 C 43.0319 1.72515 3.00732 0
M  V30 441 C 42.0929 2.96009 3.1093 0
M  V30 442 C 41.3259 3.00829 4.40837 0
M  V30 443 O 41.5489 2.13594 5.28898 0
M  V30 444 O 40.4829 3.93168 4.55744 0
M  V30 445 H 44.3089 2.63106 1.51687 0
M  V30 446 H 41.8939 1.32588 0.688543 0
M  V30 447 H 43.7759 1.78277 3.81831 0
M  V30 448 H 42.4509 0.800278 3.13651 0
M  V30 449 H 41.3579 2.9577 2.29065 0
M  V30 450 H 42.6909 3.87934 3.02933 0
M  V30 451 N 44.343 -0.763751 1.37857 0
M  V30 452 C 45.306 -1.85889 1.34081 0
M  V30 453 C 46.306 -1.58949 0.243277 0
M  V30 454 O 47.496 -1.66882 0.499589 0
M  V30 455 C 44.628 -3.23176 1.08489 0
M  V30 456 H 45.821 -1.90648 2.31502 0
M  V30 457 H 43.374 -0.964367 1.23003 0
M  V30 458 H 44.109 -3.24091 0.116318 0
M  V30 459 H 43.894 -3.44124 1.8794 0
M  V30 460 H 45.384 -4.03254 1.08517 0
M  V30 461 N 45.8211 -1.22559 -0.990812 0
M  V30 462 C 46.7311 -1.01394 -2.11557 0
M  V30 463 C 47.7471 0.0383962 -1.73958 0
M  V30 464 O 48.9231 -0.154787 -2.00804 0
M  V30 465 C 45.9881 -0.596569 -3.41529 0
M  V30 466 C 45.0491 -1.72276 -3.93217 0
M  V30 467 C 44.2821 -1.32521 -5.16985 0
M  V30 468 O 44.5051 -0.204909 -5.70032 0
M  V30 469 O 43.4391 -2.14247 -5.62478 0
M  V30 470 H 47.2651 -1.95633 -2.32296 0
M  V30 471 H 44.8501 -1.01172 -1.0993 0
M  V30 472 H 46.7321 -0.374263 -4.19735 0
M  V30 473 H 45.4071 0.316939 -3.22145 0
M  V30 474 H 44.3141 -1.99961 -3.16174 0
M  V30 475 H 45.6471 -2.61421 -4.17037 0
M  V30 476 N 47.2992 1.18797 -1.03562 0
M  V30 477 C 48.2622 2.20464 -0.626769 0
M  V30 478 C 49.2622 1.57721 0.313173 0
M  V30 479 O 50.4522 1.73917 0.0992615 0
M  V30 480 C 47.5842 3.40802 0.0818498 0
M  V30 481 H 48.7772 2.58149 -1.5264 0
M  V30 482 H 46.3302 1.32593 -0.827578 0
M  V30 483 H 47.0652 3.08642 0.995518 0
M  V30 484 H 46.8502 3.8758 -0.593652 0
M  V30 485 H 48.3402 4.16092 0.354584 0
M  V30 486 N 48.7773 0.814389 1.34928 0
M  V30 487 C 50.0243 0.398423 1.98542 0
M  V30 488 C 50.3523 -1.03638 1.64589 0
M  V30 489 O 49.6073 -1.73509 0.90516 0
M  V30 490 C 49.9063 0.537781 3.53331 0
M  V30 491 C 49.5723 1.93704 4.07172 0
M  V30 492 C 48.2343 2.31984 4.21589 0
M  V30 493 C 50.5863 2.85213 4.36237 0
M  V30 494 C 47.9143 3.61125 4.62391 0
M  V30 495 C 50.2663 4.13809 4.78482 0
M  V30 496 C 48.9303 4.52077 4.91104 0
M  V30 497 H 48.2003 0.145793 0.726516 0
M  V30 498 H 50.8473 1.03669 1.61012 0
M  V30 499 H 49.1523 -0.183906 3.91368 0
M  V30 500 H 50.8493 0.196588 4.00518 0
M  V30 501 H 47.4393 1.62966 3.96409 0
M  V30 502 H 51.6233 2.56885 4.24645 0
M  V30 503 H 46.8793 3.90612 4.70353 0
M  V30 504 H 51.0533 4.84811 4.99932 0
M  V30 505 H 48.6803 5.52196 5.22478 0
M  V30 506 N 50.2554 -1.46986 0.568584 0
M  V30 507 C 51.5324 -1.95592 -0.0174074 0
M  V30 508 C 51.9124 -1.51124 -1.47393 0
M  V30 509 O 51.2604 -0.755329 -2.15655 0
M  V30 510 C 51.4704 -3.48719 0.139913 0
M  V30 511 C 52.8184 -4.246 0.000426376 0
M  V30 512 O 53.8424 -3.56135 0.0680316 0
M  V30 513 O 52.7014 -5.46302 -0.146988 0
M  V30 514 H 49.7954 -0.82498 -0.0577599 0
M  V30 515 H 52.3414 -1.57335 0.635909 0
M  V30 516 H 51.1134 -3.73927 1.15301 0
M  V30 517 H 50.7364 -3.93771 -0.550491 0
M  V30 518 N 51.7335 -0.305618 -1.54608 0
M  V30 519 C 53.0105 0.355652 -1.92339 0
M  V30 520 C 53.3905 1.71324 -1.23335 0
M  V30 521 O 52.7385 2.25473 -0.370702 0
M  V30 522 C 52.9485 0.46572 -3.45879 0
M  V30 523 C 54.2965 0.734426 -4.182 0
M  V30 524 O 55.3205 0.54935 -3.51938 0
M  V30 525 O 54.1795 1.09024 -5.35515 0
M  V30 526 H 51.2735 0.199666 -0.802535 0
M  V30 527 H 53.8195 -0.354017 -1.65966 0
M  V30 528 H 52.5915 -0.488461 -3.88239 0
M  V30 529 H 52.2145 1.22367 -3.78301 0
M  V30 530 N 53.2116 1.57565 -0.0334293 0
M  V30 531 C 54.4576 1.92262 0.645226 0
M  V30 532 C 54.7906 0.910543 1.71531 0
M  V30 533 O 54.0656 -0.066099 1.94388 0
M  V30 534 C 54.3486 3.37422 1.2577 0
M  V30 535 C 54.2016 4.49369 0.196891 0
M  V30 536 C 55.5206 3.82628 2.17449 0
M  V30 537 H 52.6396 0.699171 0.233085 0
M  V30 538 H 55.2816 1.89779 -0.0915694 0
M  V30 539 H 53.4316 3.39669 1.88566 0
M  V30 540 H 55.1036 4.59254 -0.433962 0
M  V30 541 H 53.3466 4.31168 -0.477137 0
M  V30 542 H 54.0176 5.47978 0.665124 0
M  V30 543 H 56.4936 3.82145 1.64634 0
M  V30 544 H 55.3696 4.84883 2.57254 0
M  V30 545 H 55.6306 3.18376 3.0674 0
M  V30 546 N 54.6897 -0.239769 1.55765 0
M  V30 547 C 55.9357 -0.968234 1.78194 0
M  V30 548 C 56.2687 -1.84701 0.599938 0
M  V30 549 O 55.5437 -1.9031 -0.401524 0
M  V30 550 C 55.8267 -1.8227 3.10564 0
M  V30 551 C 55.6797 -0.971633 4.3918 0
M  V30 552 C 56.9987 -2.80388 3.39221 0
M  V30 553 H 54.1177 -0.350572 0.648281 0
M  V30 554 H 56.7597 -0.238259 1.885 0
M  V30 555 H 54.9097 -2.44507 3.01908 0
M  V30 556 H 56.5817 -0.367408 4.59835 0
M  V30 557 H 54.8247 -0.276276 4.32919 0
M  V30 558 H 55.4957 -1.60346 5.28198 0
M  V30 559 H 57.9717 -2.28287 3.47885 0
M  V30 560 H 56.8477 -3.3729 4.33044 0
M  V30 561 H 57.1087 -3.57212 2.60484 0
M  V30 562 N 56.1678 -1.49265 -0.50573 0
M  V30 563 C 57.4158 -1.582 -1.25766 0
M  V30 564 C 57.7368 -0.268482 -1.93143 0
M  V30 565 O 57.0068 0.711833 -1.8251 0
M  V30 566 H 55.5868 -0.582873 -0.467191 0
M  V30 567 H 58.2488 -1.85865 -0.586525 0
M  V30 568 H 57.3448 -2.37563 -2.02412 0
M  V30 569 N 57.6459 0.756429 -1.3826 0
M  V30 570 C 58.5559 1.9009 -1.37488 0
M  V30 571 C 59.5719 1.71855 -0.272366 0
M  V30 572 O 60.7479 1.94827 -0.510318 0
M  V30 573 C 57.8129 3.25421 -1.19592 0
M  V30 574 C 56.8739 3.56202 -2.39622 0
M  V30 575 C 56.1069 4.85075 -2.2257 0
M  V30 576 O 56.3299 5.57246 -1.21793 0
M  V30 577 O 55.2639 5.15269 -3.11098 0
M  V30 578 H 59.0899 1.93695 -2.33914 0
M  V30 579 H 56.6749 0.901313 -1.1915 0
M  V30 580 H 58.5569 4.06337 -1.11661 0
M  V30 581 H 57.2319 3.22634 -0.262486 0
M  V30 582 H 56.1389 2.75458 -2.53128 0
M  V30 583 H 57.4719 3.63747 -3.31586 0
M  V30 584 N 59.124 1.23083 0.984299 0
M  V30 585 C 60.352 1.08714 1.76037 0
M  V30 586 C 60.767 -0.361691 1.85303 0
M  V30 587 O 60.124 -1.25034 1.32939 0
M  V30 588 C 60.175 1.70206 3.18923 0
M  V30 589 O 59.896 3.09423 3.10144 0
M  V30 590 C 61.397 1.61227 4.12941 0
M  V30 591 H 58.617 0.380664 0.552572 0
M  V30 592 H 61.161 1.62853 1.23689 0
M  V30 593 H 59.316 1.20109 3.6831 0
M  V30 594 H 59.73 3.39188 4.00065 0
M  V30 595 H 61.204 2.08962 5.10919 0
M  V30 596 H 61.681 0.570375 4.35481 0
M  V30 597 H 62.287 2.10671 3.69456 0
M  V30 598 N 60.6021 -1.18246 1.0419 0
M  V30 599 C 61.8481 -1.88536 0.747122 0
M  V30 600 C 62.1811 -1.80223 -0.723409 0
M  V30 601 O 61.4561 -1.20337 -1.52804 0
M  V30 602 C 61.7391 -3.38968 1.21544 0
M  V30 603 C 61.5921 -3.56084 2.74816 0
M  V30 604 C 62.9111 -4.32648 0.806482 0
M  V30 605 H 60.0301 -0.684619 0.272883 0
M  V30 606 H 62.6721 -1.39113 1.29413 0
M  V30 607 H 60.8221 -3.8119 0.750081 0
M  V30 608 H 62.4941 -3.22946 3.29399 0
M  V30 609 H 60.7371 -2.98699 3.14582 0
M  V30 610 H 61.4081 -4.61639 3.02644 0
M  V30 611 H 63.8841 -3.98211 1.20695 0
M  V30 612 H 62.7601 -5.36462 1.1619 0
M  V30 613 H 63.0211 -4.41146 -0.29029 0
M  V30 614 N 62.0802 -0.821533 -1.34494 0
M  V30 615 C 63.3282 -0.408139 -1.97936 0
M  V30 616 C 63.6492 1.03193 -1.65457 0
M  V30 617 O 62.9192 1.71622 -0.944595 0
M  V30 618 H 61.4992 -0.147928 -0.732206 0
M  V30 619 H 64.1612 -1.05067 -1.64155 0
M  V30 620 H 63.2572 -0.52601 -3.07635 0
M  V30 621 N 63.5583 1.46682 -0.576371 0
M  V30 622 C 64.5053 2.30241 0.160499 0
M  V30 623 C 65.4753 1.40233 0.890162 0
M  V30 624 O 66.6603 1.69186 0.882084 0
M  V30 625 C 63.8003 3.24578 1.1723 0
M  V30 626 C 62.9133 4.29684 0.446736 0
M  V30 627 C 62.0483 5.11154 1.44551 0
M  V30 628 C 61.0873 6.08015 0.70599 0
M  V30 629 N 60.2243 6.82376 1.65251 0
M  V30 630 H 65.0643 2.92727 -0.558127 0
M  V30 631 H 62.6013 1.44272 -0.287056 0
M  V30 632 H 64.5593 3.77711 1.77172 0
M  V30 633 H 63.1893 2.63916 1.85872 0
M  V30 634 H 62.2413 3.79458 -0.267594 0
M  V30 635 H 63.5533 4.98626 -0.131686 0
M  V30 636 H 62.7073 5.68533 2.11791 0
M  V30 637 H 61.4463 4.42158 2.05786 0
M  V30 638 H 60.4513 5.49796 0.0197725 0
M  V30 639 H 61.6763 6.79028 0.09912 0
M  V30 640 H 59.6223 6.16094 2.25308 0
M  V30 641 H 59.5393 7.47556 1.12673 0
M  V30 642 H 60.8073 7.44316 2.31546 0
M  V30 643 N 65.0364 0.313813 1.54444 0
M  V30 644 C 66.2644 -0.293918 2.04802 0
M  V30 645 C 66.6794 -1.46537 1.19047 0
M  V30 646 O 66.0364 -1.81182 0.218939 0
M  V30 647 C 66.0874 -0.737806 3.53891 0
M  V30 648 O 65.8084 0.387038 4.36387 0
M  V30 649 C 67.3094 -1.40936 4.203 0
M  V30 650 H 64.5294 -0.0620057 0.668129 0
M  V30 651 H 67.0734 0.457169 1.99324 0
M  V30 652 H 65.2284 -1.43889 3.59687 0
M  V30 653 H 65.6424 0.0391274 5.24485 0
M  V30 654 H 67.1164 -1.67099 5.26101 0
M  V30 655 H 67.5934 -2.35355 3.70816 0
M  V30 656 H 68.1994 -0.751117 4.18615 0
M  V30 657 N 66.5145 -1.57545 0.0417849 0
M  V30 658 C 67.7915 -1.83642 -0.673433 0
M  V30 659 C 68.1715 -0.928298 -1.89594 0
M  V30 660 O 67.5195 0.0129955 -2.28496 0
M  V30 661 C 67.7295 -3.33155 -1.03964 0
M  V30 662 C 69.0775 -3.99941 -1.42592 0
M  V30 663 O 70.1015 -3.37725 -1.13226 0
M  V30 664 O 68.9605 -5.09619 -1.9736 0
M  V30 665 H 66.0545 -0.757638 -0.331533 0
M  V30 666 H 68.6005 -1.69554 0.070433 0
M  V30 667 H 67.3725 -3.9093 -0.170098 0
M  V30 668 H 66.9955 -3.52396 -1.84126 0
M  V30 669 N 67.9926 0.231505 -1.5589 0
M  V30 670 C 69.2226 0.973092 -1.82248 0
M  V30 671 C 69.6306 1.78845 -0.617328 0
M  V30 672 O 68.9736 1.78752 0.423499 0
M  V30 673 C 69.0356 1.94732 -3.02192 0
M  V30 674 C 68.6996 1.31743 -4.37599 0
M  V30 675 C 69.6966 0.712238 -5.14998 0
M  V30 676 C 67.3816 1.33218 -4.84312 0
M  V30 677 C 69.3756 0.130195 -6.37267 0
M  V30 678 C 67.0626 0.746286 -6.06526 0
M  V30 679 C 68.0606 0.146337 -6.82843 0
M  V30 680 O 67.7486 -0.430465 -8.02747 0
M  V30 681 H 67.4806 0.29125 -0.61004 0
M  V30 682 H 70.0346 0.254915 -2.03812 0
M  V30 683 H 68.2646 2.70422 -2.76422 0
M  V30 684 H 69.9536 2.55362 -3.15508 0
M  V30 685 H 70.7196 0.69324 -4.8002 0
M  V30 686 H 66.5986 1.78854 -4.24891 0
M  V30 687 H 70.1426 -0.33871 -6.96777 0
M  V30 688 H 66.0396 0.762663 -6.40979 0
M  V30 689 H 66.8076 -0.323818 -8.17859 0
M  V30 690 N 69.4707 1.49531 0.497807 0
M  V30 691 C 70.7197 1.58426 1.24837 0
M  V30 692 C 71.0327 0.277643 1.93619 0
M  V30 693 O 72.2387 0.24517 2.70391 0
M  V30 694 C 70.6947 2.79538 2.26686 0
M  V30 695 C 70.3027 4.16971 1.63828 0
M  V30 696 C 72.0467 2.97764 3.0255 0
M  V30 697 C 69.9537 5.29301 2.63807 0
M  V30 698 H 68.8837 0.58989 0.469623 0
M  V30 699 H 71.5347 1.75923 0.521857 0
M  V30 700 H 69.9167 2.55542 3.02514 0
M  V30 701 H 71.0907 4.51116 0.939711 0
M  V30 702 H 69.4057 4.04129 1.00342 0
M  V30 703 H 72.0027 3.78856 3.77323 0
M  V30 704 H 72.3457 2.08448 3.60354 0
M  V30 705 H 72.8787 3.21815 2.33838 0
M  V30 706 H 69.6177 6.20687 2.10779 0
M  V30 707 H 69.1377 4.99606 3.31894 0
M  V30 708 H 70.8167 5.58768 3.2617 0
M  V30 709 N 70.9488 -0.749086 1.3866 0
M  V30 710 C 72.3598 -1.32664 1.31366 0
M  V30 711 C 72.7108 -1.96179 -0.028484 0
M  V30 712 O 71.8358 -1.9537 -0.93057 0
M  V30 713 C 72.4308 -2.41219 2.37905 0
M  V30 714 C 70.9898 -2.94684 2.34176 0
M  V30 715 C 70.1368 -1.68108 2.20533 0
M  V30 716 H 73.0878 -0.547628 1.48952 0
M  V30 717 H 73.1088 -3.21268 2.0388 0
M  V30 718 H 72.6208 -1.94962 3.35576 0
M  V30 719 H 70.7218 -3.45258 1.401 0
M  V30 720 H 70.8348 -3.48757 3.2849 0
M  V30 721 H 69.1988 -1.91907 1.67463 0
M  V30 722 H 69.9818 -1.23923 3.20153 0
M  V30 723 N 72.4269 -1.23603 -0.977757 0
M  V30 724 C 73.3569 -1.04401 -2.0886 0
M  V30 725 C 74.3379 0.0399052 -1.70053 0
M  V30 726 O 75.5229 -0.125246 -1.93796 0
M  V30 727 C 72.6529 -0.637269 -3.41403 0
M  V30 728 C 71.6069 -1.66883 -3.94124 0
M  V30 729 C 70.9329 -1.11745 -5.22893 0
M  V30 730 C 72.2329 -3.06247 -4.23096 0
M  V30 731 H 73.9269 -1.97316 -2.25182 0
M  V30 732 H 71.4729 -0.950096 -1.08209 0
M  V30 733 H 73.4259 -0.48998 -4.18542 0
M  V30 734 H 72.1499 0.327557 -3.24953 0
M  V30 735 H 70.8089 -1.80416 -3.19133 0
M  V30 736 H 70.4569 -0.143527 -5.02795 0
M  V30 737 H 70.1569 -1.80672 -5.59134 0
M  V30 738 H 71.6809 -0.982067 -6.02651 0
M  V30 739 H 73.0949 -2.96001 -4.90975 0
M  V30 740 H 71.4919 -3.72436 -4.70544 0
M  V30 741 H 72.5619 -3.55041 -3.30263 0
M  V30 742 N 73.905 1.17692 -1.04816 0
M  V30 743 C 74.835 2.23777 -0.666791 0
M  V30 744 C 75.816 1.66796 0.33361 0
M  V30 745 O 77.001 1.93039 0.212042 0
M  V30 746 C 74.131 3.47281 -0.0367933 0
M  V30 747 C 73.085 4.17059 -0.961546 0
M  V30 748 C 72.411 5.34342 -0.195626 0
M  V30 749 C 73.711 4.69713 -2.28402 0
M  V30 750 H 75.405 2.55933 -1.55367 0
M  V30 751 H 72.951 1.23019 -0.748484 0
M  V30 752 H 74.904 4.20706 0.241775 0
M  V30 753 H 73.628 3.14381 0.885004 0
M  V30 754 H 72.287 3.45541 -1.22462 0
M  V30 755 H 71.935 4.97692 0.728816 0
M  V30 756 H 71.635 5.81966 -0.811775 0
M  V30 757 H 73.159 6.10553 0.0757473 0
M  V30 758 H 74.573 5.34794 -2.06563 0
M  V30 759 H 72.97 5.279 -2.8538 0
M  V30 760 H 74.04 3.86726 -2.92525 0
M  V30 761 N 75.3831 0.828654 1.34056 0
M  V30 762 C 76.6601 0.341809 1.9259 0
M  V30 763 C 77.0401 -1.17158 1.75605 0
M  V30 764 O 76.3881 -1.98132 1.13824 0
M  V30 765 C 76.5981 0.777453 3.4023 0
M  V30 766 C 77.9461 0.779579 4.17382 0
M  V30 767 O 78.9701 0.7204 3.48839 0
M  V30 768 O 77.8291 0.857996 5.39723 0
M  V30 769 H 74.9231 0.0946085 0.821571 0
M  V30 770 H 77.4691 0.913827 1.42994 0
M  V30 771 H 76.2411 1.8196 3.46419 0
M  V30 772 H 75.8641 0.181444 3.97186 0
M  V30 773 N 76.8612 -1.46375 0.584142 0
M  V30 774 C 78.1072 -2.02678 0.0703716 0
M  V30 775 C 78.4402 -1.4545 -1.28678 0
M  V30 776 O 77.7152 -0.62014 -1.84349 0
M  V30 777 C 77.9982 -3.60099 0.00614674 0
M  V30 778 C 77.8512 -4.27709 1.3923 0
M  V30 779 C 79.1702 -4.34598 -0.693742 0
M  V30 780 H 76.2892 -0.736504 0.027047 0
M  V30 781 H 78.9312 -1.74501 0.751615 0
M  V30 782 H 77.0812 -3.84236 -0.574009 0
M  V30 783 H 78.7532 -4.14832 2.01773 0
M  V30 784 H 76.9962 -3.87016 1.95962 0
M  V30 785 H 77.6672 -5.36478 1.29982 0
M  V30 786 H 80.1432 -4.15615 -0.200869 0
M  V30 787 H 79.0192 -5.44318 -0.707714 0
M  V30 788 H 79.2802 -4.05759 -1.75533 0
M  V30 789 N 78.3393 -0.321999 -1.54275 0
M  V30 790 C 79.6163 0.335232 -1.92706 0
M  V30 791 C 79.9963 1.70006 -1.25145 0
M  V30 792 O 79.3443 2.25067 -0.394596 0
M  V30 793 C 79.5543 0.429008 -3.46353 0
M  V30 794 C 80.9023 0.690029 -4.18956 0
M  V30 795 O 81.9263 0.511992 -3.52501 0
M  V30 796 O 80.7853 1.03338 -5.36641 0
M  V30 797 H 77.8793 0.191143 -0.804608 0
M  V30 798 H 80.4253 -0.3716 -1.65581 0
M  V30 799 H 79.1973 -0.529611 -3.87699 0
M  V30 800 H 78.8203 1.18348 -3.79578 0
M  V30 801 N 79.8174 1.5752 -0.0501392 0
M  V30 802 C 80.7274 2.14952 0.939827 0
M  V30 803 C 81.7434 1.10706 1.34239 0
M  V30 804 O 82.9194 1.42869 1.41952 0
M  V30 805 C 79.9844 2.68232 2.19665 0
M  V30 806 C 79.0454 3.87272 1.85253 0
M  V30 807 C 78.2784 4.38002 3.04943 0
M  V30 808 O 78.5014 3.87811 4.18281 0
M  V30 809 O 77.4354 5.29602 2.86017 0
M  V30 810 H 81.2614 2.9986 0.481392 0
M  V30 811 H 78.8464 1.4841 0.171699 0
M  V30 812 H 80.7284 3.02475 2.93406 0
M  V30 813 H 79.4034 1.86395 2.64648 0
M  V30 814 H 78.3104 3.5792 1.0883 0
M  V30 815 H 79.6434 4.70336 1.4507 0
M  V30 816 N 81.2955 -0.223234 1.56011 0
M  V30 817 C 82.2425 -1.27664 1.92277 0
M  V30 818 C 83.2125 -1.46659 0.779763 0
M  V30 819 O 84.3975 -1.60256 1.03551 0
M  V30 820 C 81.5375 -2.62234 2.24338 0
M  V30 821 C 80.6505 -2.51051 3.51564 0
M  V30 822 C 79.7855 -3.78133 3.7308 0
M  V30 823 C 78.8245 -3.61665 4.93827 0
M  V30 824 N 77.9615 -4.80693 5.11741 0
M  V30 825 H 82.8015 -0.960358 2.82101 0
M  V30 826 H 80.3385 -0.462901 1.39627 0
M  V30 827 H 82.2965 -3.40596 2.40936 0
M  V30 828 H 80.9265 -2.91961 1.3769 0
M  V30 829 H 79.9785 -1.64132 3.43169 0
M  V30 830 H 81.2905 -2.34803 4.40079 0
M  V30 831 H 80.4445 -4.64938 3.89766 0
M  V30 832 H 79.1835 -3.97304 2.82844 0
M  V30 833 H 78.1885 -2.73244 4.77093 0
M  V30 834 H 79.4135 -3.43966 5.85546 0
M  V30 835 H 77.3595 -5.00181 4.24446 0
M  V30 836 H 77.2765 -4.67165 5.94384 0
M  V30 837 H 78.5445 -5.6893 5.3286 0
M  V30 838 N 82.7736 -1.49793 -0.48987 0
M  V30 839 C 84.0016 -1.63568 -1.26701 0
M  V30 840 C 84.4166 -0.311465 -1.86213 0
M  V30 841 O 83.7736 0.704416 -1.68357 0
M  V30 842 C 83.8246 -2.71284 -2.38929 0
M  V30 843 O 83.5456 -3.9857 -1.81861 0
M  V30 844 C 85.0466 -2.95864 -3.3012 0
M  V30 845 H 82.2666 -0.550342 -0.383881 0
M  V30 846 H 84.8106 -1.95898 -0.586864 0
M  V30 847 H 82.9656 -2.417 -3.02753 0
M  V30 848 H 83.3796 -4.57993 -2.55622 0
M  V30 849 H 84.8536 -3.74941 -4.05121 0
M  V30 850 H 85.3306 -2.06206 -3.87783 0
M  V30 851 H 85.9366 -3.26907 -2.72051 0
M  V30 852 N 84.2517 0.741722 -1.39055 0
M  V30 853 C 85.4997 1.49818 -1.35643 0
M  V30 854 C 85.8207 1.94938 0.0491642 0
M  V30 855 O 85.0907 1.68505 0.999141 0
M  V30 856 H 83.6707 0.555755 -0.499144 0
M  V30 857 H 86.3327 0.880957 -1.73854 0
M  V30 858 H 85.4287 2.38348 -2.01486 0
M  V30 859 N 85.7298 1.2412 0.971189 0
M  V30 860 C 86.6778 1.02812 2.08644 0
M  V30 861 C 87.6718 -0.0358403 1.69362 0
M  V30 862 O 88.8778 0.118429 1.7961 0
M  V30 863 H 85.2528 0.315428 0.682649 0
M  V30 864 H 87.2238 1.97397 2.23779 0
M  V30 865 C 85.9728 0.645874 3.41649 0
M  V30 866 H 85.2958 1.45632 3.72332 0
M  V30 867 H 86.7358 0.536366 4.20594 0
M  V30 868 C 85.1948 -0.646713 3.30635 0
M  V30 869 O 85.7248 -1.69338 3.64263 0
M  V30 870 N 83.9308 -0.626115 2.83775 0
M  V30 871 H 83.4778 0.225988 2.56607 0
M  V30 872 H 83.4358 -1.49117 2.76788 0
M  V30 873 N 87.2079 -1.17134 1.05439 0
M  V30 874 C 88.4329 -1.91913 0.786396 0
M  V30 875 C 88.8579 -1.7643 -0.652234 0
M  V30 876 O 88.2159 -1.08372 -1.45345 0
M  V30 877 C 88.2639 -3.40921 1.17497 0
M  V30 878 O 87.3679 -4.11244 0.308589 0
M  V30 879 H 86.7089 -0.598215 0.288158 0
M  V30 880 H 89.2389 -1.48457 1.4079 0
M  V30 881 H 89.2489 -3.91668 1.14281 0
M  V30 882 H 87.9239 -3.5151 2.22292 0
M  V30 883 H 86.5009 -3.70731 0.40157 0
M  V30 884 N 88.686 -0.835752 -1.33615 0
M  V30 885 C 89.596 -0.269088 -2.33052 0
M  V30 886 C 90.612 0.603251 -1.63208 0
M  V30 887 O 91.788 0.508112 -1.94885 0
M  V30 888 C 88.853 0.549091 -3.42324 0
M  V30 889 C 87.914 -0.347156 -4.27894 0
M  V30 890 C 87.147 0.43207 -5.31948 0
M  V30 891 O 87.37 1.66409 -5.45586 0
M  V30 892 O 86.304 -0.192298 -6.01593 0
M  V30 893 H 90.13 -1.09243 -2.83372 0
M  V30 894 H 87.715 -0.598198 -1.36901 0
M  V30 895 H 89.597 1.01414 -4.09015 0
M  V30 896 H 88.272 1.34955 -2.94226 0
M  V30 897 H 87.179 -0.859979 -3.64081 0
M  V30 898 H 88.512 -1.1123 -4.79467 0
M  V30 899 N 90.1641 1.46063 -0.591896 0
M  V30 900 C 91.3891 2.07226 -0.0850314 0
M  V30 901 C 91.8141 1.43625 1.21463 0
M  V30 902 O 91.1721 0.523305 1.73583 0
M  V30 903 C 91.2201 3.60554 0.0576567 0
M  V30 904 O 90.3241 3.97128 1.11188 0
M  V30 905 H 89.6651 0.660615 -0.0669568 0
M  V30 906 H 92.1951 1.8756 -0.81745 0
M  V30 907 H 92.2051 4.07165 0.2609 0
M  V30 908 H 90.8801 4.06235 -0.891416 0
M  V30 909 H 89.4571 3.62213 0.886356 0
M  V30 910 N 91.6422 0.330177 1.54103 0
M  V30 911 C 92.5892 -0.532762 2.24567 0
M  V30 912 C 93.5592 -1.10635 1.23892 0
M  V30 913 O 94.7442 -1.14546 1.5259 0
M  V30 914 C 91.8842 -1.6845 3.01195 0
M  V30 915 C 90.9972 -1.13951 4.167 0
M  V30 916 C 90.1322 -2.25746 4.80845 0
M  V30 917 C 89.1712 -1.6853 5.88442 0
M  V30 918 N 88.3082 -2.74014 6.46421 0
M  V30 919 H 93.1482 0.0746905 2.97906 0
M  V30 920 H 90.6852 0.048632 1.4702 0
M  V30 921 H 92.6432 -2.36234 3.43874 0
M  V30 922 H 91.2732 -2.26314 2.30178 0
M  V30 923 H 90.3252 -0.35301 3.78758 0
M  V30 924 H 91.6372 -0.680892 4.94131 0
M  V30 925 H 90.7912 -3.01422 5.26526 0
M  V30 926 H 89.5302 -2.74947 4.0281 0
M  V30 927 H 88.5352 -0.913543 5.42157 0
M  V30 928 H 89.7602 -1.20198 6.68378 0
M  V30 929 H 87.7062 -3.22494 5.71256 0
M  V30 930 H 87.6232 -2.32735 7.19285 0
M  V30 931 H 88.8912 -3.49499 6.96757 0
M  V30 932 N 93.1203 -1.57491 0.0584922 0
M  V30 933 C 94.0673 -2.11958 -0.913376 0
M  V30 934 C 95.0373 -1.02875 -1.30407 0
M  V30 935 O 96.2223 -1.30464 -1.39226 0
M  V30 936 C 93.3623 -2.67497 -2.18035 0
M  V30 937 C 92.4753 -3.90691 -1.84349 0
M  V30 938 C 91.6103 -4.3452 -3.05559 0
M  V30 939 C 90.6493 -5.50395 -2.67827 0
M  V30 940 N 89.7863 -5.89244 -3.81754 0
M  V30 941 H 94.6263 -2.94704 -0.442017 0
M  V30 942 H 92.1633 -1.45643 -0.206545 0
M  V30 943 H 94.1213 -2.978 -2.92183 0
M  V30 944 H 92.7513 -1.87537 -2.62735 0
M  V30 945 H 91.8033 -3.66934 -1.00319 0
M  V30 946 H 93.1153 -4.7489 -1.5258 0
M  V30 947 H 92.2693 -4.66414 -3.87998 0
M  V30 948 H 91.0083 -3.49147 -3.40511 0
M  V30 949 H 90.0133 -5.18165 -1.83806 0
M  V30 950 H 91.2383 -6.3749 -2.34059 0
M  V30 951 H 89.1843 -5.06823 -4.16493 0
M  V30 952 H 89.1013 -6.68151 -3.53708 0
M  V30 953 H 90.3693 -6.25756 -4.64811 0
M  V30 954 N 94.5984 0.214957 -1.56127 0
M  V30 955 C 95.5454 1.26642 -1.92952 0
M  V30 956 C 96.5154 1.46244 -0.78753 0
M  V30 957 O 97.7004 1.59704 -1.04399 0
M  V30 958 C 94.8404 2.6104 -2.25726 0
M  V30 959 C 93.9534 2.49183 -3.52891 0
M  V30 960 C 93.0884 3.76149 -3.7508 0
M  V30 961 C 92.1274 3.59041 -4.95738 0
M  V30 962 N 91.2644 4.77972 -5.14283 0
M  V30 963 H 96.1044 0.945384 -2.82607 0
M  V30 964 H 93.6414 0.455489 -1.3987 0
M  V30 965 H 95.5994 3.39313 -2.42739 0
M  V30 966 H 94.2294 2.91227 -1.39236 0
M  V30 967 H 93.2814 1.6231 -3.44034 0
M  V30 968 H 94.5934 2.32466 -4.41318 0
M  V30 969 H 93.7474 4.62865 -3.92226 0
M  V30 970 H 92.4864 3.95799 -2.84947 0
M  V30 971 H 91.4914 2.7071 -4.78535 0
M  V30 972 H 92.7164 3.40856 -5.87362 0
M  V30 973 H 90.6624 4.97923 -4.27093 0
M  V30 974 H 90.5794 4.64006 -5.96853 0
M  V30 975 H 91.8474 5.66096 -5.35869 0
M  V30 976 N 96.0765 1.50051 0.48192 0
M  V30 977 C 97.4875 1.5348 1.06305 0
M  V30 978 C 97.8385 0.331997 1.93371 0
M  V30 979 O 96.9635 -0.556256 2.09129 0
M  V30 980 C 97.5585 2.7813 1.93466 0
M  V30 981 C 96.1175 2.84275 2.46707 0
M  V30 982 C 95.2645 2.47637 1.24785 0
M  V30 983 H 98.2155 1.56472 0.264995 0
M  V30 984 H 98.2365 2.59372 2.78399 0
M  V30 985 H 97.7485 3.65654 1.30072 0
M  V30 986 H 95.8495 2.01077 3.13686 0
M  V30 987 H 95.9625 3.8691 2.82555 0
M  V30 988 H 94.3265 1.99835 1.57918 0
M  V30 989 H 95.1095 3.37457 0.630694 0
M  V30 990 N 97.5546 -0.734337 1.39446 0
M  V30 991 C 98.7946 -1.50655 1.38139 0
M  V30 992 C 99.1586 -1.91986 -0.0228701 0
M  V30 993 O 100.36 -2.68318 -0.160947 0
M  V30 994 C 98.6306 -2.71251 2.32718 0
M  V30 995 S 100.19 -3.60892 2.49605 0
M  V30 996 H 97.0076 -0.515315 0.489869 0
M  V30 997 H 99.6096 -0.860392 1.75549 0
M  V30 998 H 98.3136 -2.39027 3.33608 0
M  V30 999 H 97.8446 -3.40795 1.96526 0
M  V30 1000 H 99.8596 -4.64899 1.73446 0
M  V30 1001 N 99.0327 -1.24633 -0.964593 0
M  V30 1002 C 100.258 -1.11596 -1.74818 0
M  V30 1003 C 100.683 0.32723 -1.85232 0
M  V30 1004 O 100.041 1.23695 -1.32549 0
M  V30 1005 C 100.089 -1.76397 -3.1451 0
M  V30 1006 O 99.1927 -1.03685 -3.99153 0
M  V30 1007 H 98.5337 -0.390196 -0.537255 0
M  V30 1008 H 101.064 -1.65002 -1.20977 0
M  V30 1009 H 101.074 -1.8228 -3.65018 0
M  V30 1010 H 99.7487 -2.81401 -3.06246 0
M  V30 1011 H 98.3257 -1.05611 -3.57632 0
M  V30 1012 N 100.511 1.16574 -1.06058 0
M  V30 1013 C 101.421 2.2452 -0.680282 0
M  V30 1014 C 102.437 1.71348 0.302604 0
M  V30 1015 O 103.613 2.00822 0.152513 0
M  V30 1016 C 100.678 3.46629 -0.0700315 0
M  V30 1017 C 99.7388 4.14849 -1.10448 0
M  V30 1018 C 98.9718 5.31129 -0.523256 0
M  V30 1019 O 99.1948 5.66514 0.664709 0
M  V30 1020 O 98.1288 5.88526 -1.26179 0
M  V30 1021 H 101.955 2.59355 -1.58015 0
M  V30 1022 H 99.5398 1.24043 -0.832694 0
M  V30 1023 H 101.422 4.20543 0.268667 0
M  V30 1024 H 100.097 3.13573 0.803353 0
M  V30 1025 H 99.0038 3.42916 -1.49532 0
M  V30 1026 H 100.337 4.51954 -1.94931 0
M  V30 1027 N 101.989 0.842826 1.3317 0
M  V30 1028 C 103.217 0.454055 2.01856 0
M  V30 1029 C 103.632 -0.94587 1.63397 0
M  V30 1030 O 102.989 -1.61534 0.849302 0
M  V30 1031 C 103.04 0.569715 3.56982 0
M  V30 1032 O 102.761 1.91448 3.94055 0
M  V30 1033 C 104.262 0.178412 4.42941 0
M  V30 1034 H 101.482 0.17979 0.646465 0
M  V30 1035 H 104.026 1.1365 1.70012 0
M  V30 1036 H 102.181 -0.0648587 3.87346 0
M  V30 1037 H 102.595 1.90282 4.88767 0
M  V30 1038 H 104.069 0.310376 5.51127 0
M  V30 1039 H 104.546 -0.880056 4.30293 0
M  V30 1040 H 105.152 0.787579 4.17944 0
M  V30 1041 N 103.467 -1.45747 0.599634 0
M  V30 1042 C 104.692 -2.07178 0.0960198 0
M  V30 1043 C 105.117 -1.44268 -1.207 0
M  V30 1044 O 104.475 -0.532503 -1.73303 0
M  V30 1045 C 104.523 -3.60579 -0.0385348 0
M  V30 1046 O 103.627 -3.97713 -1.0908 0
M  V30 1047 H 102.968 -0.660251 0.0704593 0
M  V30 1048 H 105.498 -1.87124 0.827385 0
M  V30 1049 H 105.508 -4.07298 -0.239304 0
M  V30 1050 H 104.183 -4.05756 0.912947 0
M  V30 1051 H 102.76 -3.62678 -0.867135 0
M  V30 1052 N 104.945 -0.338344 -1.53925 0
M  V30 1053 C 105.877 0.555117 -2.22376 0
M  V30 1054 C 106.89 1.06812 -1.22862 0
M  V30 1055 O 108.079 0.979163 -1.49247 0
M  V30 1056 C 105.179 1.77609 -2.88631 0
M  V30 1057 C 104.352 1.39927 -4.14414 0
M  V30 1058 C 103.411 2.47936 -4.64127 0
M  V30 1059 O 102.437 2.11461 -5.28463 0
M  V30 1060 N 103.639 3.79107 -4.39612 0
M  V30 1061 H 106.404 -0.0310778 -2.99684 0
M  V30 1062 H 103.965 -0.162226 -1.61085 0
M  V30 1063 H 105.957 2.49287 -3.18807 0
M  V30 1064 H 104.527 2.26978 -2.14941 0
M  V30 1065 H 103.747 0.513481 -3.90841 0
M  V30 1066 H 105.035 1.12341 -4.96243 0
M  V30 1067 H 104.433 4.11531 -3.88148 0
M  V30 1068 H 102.99 4.4697 -4.74406 0
M  V30 1069 N 106.423 1.57458 -0.0668435 0
M  V30 1070 C 107.672 1.92477 0.602947 0
M  V30 1071 C 107.985 0.948419 1.71068 0
M  V30 1072 O 109.191 1.19124 2.43971 0
M  V30 1073 C 107.647 3.41903 1.12383 0
M  V30 1074 C 107.255 4.47975 0.04737 0
M  V30 1075 C 108.999 3.85931 1.76797 0
M  V30 1076 C 106.906 5.88529 0.582022 0
M  V30 1077 H 105.836 0.718387 0.22899 0
M  V30 1078 H 108.487 1.82978 -0.138276 0
M  V30 1079 H 106.869 3.46459 1.91787 0
M  V30 1080 H 108.043 4.55029 -0.726978 0
M  V30 1081 H 106.358 4.13384 -0.500243 0
M  V30 1082 H 108.955 4.88322 2.17821 0
M  V30 1083 H 109.298 3.23029 2.62599 0
M  V30 1084 H 109.831 3.83958 1.04024 0
M  V30 1085 H 106.57 6.55065 -0.238721 0
M  V30 1086 H 106.09 5.85004 1.324 0
M  V30 1087 H 107.769 6.38258 1.05999 0
M  V30 1088 N 107.901 -0.206675 1.56239 0
M  V30 1089 C 108.811 -1.27686 1.96808 0
M  V30 1090 C 109.827 -1.50455 0.874035 0
M  V30 1091 O 111.003 -1.63295 1.17884 0
M  V30 1092 C 108.068 -2.60358 2.28942 0
M  V30 1093 C 107.129 -2.45762 3.51994 0
M  V30 1094 C 106.362 -3.72108 3.82585 0
M  V30 1095 O 106.585 -4.75776 3.14631 0
M  V30 1096 O 105.519 -3.6833 4.76043 0
M  V30 1097 H 109.345 -0.962593 2.88041 0
M  V30 1098 H 106.93 -0.410746 1.43643 0
M  V30 1099 H 108.812 -3.38687 2.50737 0
M  V30 1100 H 107.487 -2.91435 1.4088 0
M  V30 1101 H 106.394 -1.65584 3.35459 0
M  V30 1102 H 107.727 -2.19621 4.40486 0
M  V30 1103 N 109.379 -1.50304 -0.473955 0
M  V30 1104 C 110.656 -1.51667 -1.23518 0
M  V30 1105 C 111.036 -0.259701 -2.09496 0
M  V30 1106 O 110.384 0.756986 -2.15597 0
M  V30 1107 C 110.594 -2.81082 -2.06868 0
M  V30 1108 C 111.942 -3.31631 -2.65153 0
M  V30 1109 O 112.966 -2.82384 -2.17113 0
M  V30 1110 O 111.825 -4.17471 -3.52675 0
M  V30 1111 H 108.919 -0.60822 -0.560355 0
M  V30 1112 H 111.465 -1.62592 -0.486011 0
M  V30 1113 H 110.237 -3.64041 -1.4349 0
M  V30 1114 H 109.86 -2.73146 -2.88924 0
M  V30 1115 N 110.857 0.726932 -1.39834 0
M  V30 1116 C 112.085 1.51613 -1.40787 0
M  V30 1117 C 112.5 1.88799 -0.00451505 0
M  V30 1118 O 111.857 1.54662 0.968809 0
M  V30 1119 C 111.908 2.79863 -2.28821 0
M  V30 1120 O 111.629 2.44253 -3.63692 0
M  V30 1121 C 113.13 3.73837 -2.38245 0
M  V30 1122 H 110.35 0.468264 -0.480593 0
M  V30 1123 H 112.894 0.897607 -1.83748 0
M  V30 1124 H 111.049 3.38027 -1.89252 0
M  V30 1125 H 111.463 3.26695 -4.1033 0
M  V30 1126 H 112.937 4.60699 -3.04073 0
M  V30 1127 H 113.414 4.16153 -1.40403 0
M  V30 1128 H 114.02 3.21589 -2.78317 0
M  V30 1129 N 112.336 1.25143 0.95797 0
M  V30 1130 C 113.747 1.08851 1.51685 0
M  V30 1131 C 114.098 -0.33687 1.93286 0
M  V30 1132 O 113.223 -1.22644 1.7829 0
M  V30 1133 C 113.818 1.96978 2.75654 0
M  V30 1134 C 112.377 1.84881 3.27866 0
M  V30 1135 C 111.524 1.91329 2.0072 0
M  V30 1136 H 114.475 1.38478 0.77522 0
M  V30 1137 H 114.496 1.5078 3.4935 0
M  V30 1138 H 114.008 3.00712 2.45345 0
M  V30 1139 H 112.109 0.840182 3.63004 0
M  V30 1140 H 112.222 2.6951 3.96107 0
M  V30 1141 H 110.586 1.35174 2.15871 0
M  V30 1142 H 111.369 2.96661 1.72764 0
M  V30 1143 N 113.814 -1.1601 1.06675 0
M  V30 1144 C 115.039 -1.91068 0.806706 0
M  V30 1145 C 115.464 -1.77112 -0.633485 0
M  V30 1146 O 114.822 -1.09908 -1.44187 0
M  V30 1147 C 114.87 -3.39655 1.21106 0
M  V30 1148 O 113.974 -4.10893 0.352189 0
M  V30 1149 H 113.315 -0.595125 0.294486 0
M  V30 1150 H 115.845 -1.46955 1.42356 0
M  V30 1151 H 115.855 -3.90434 1.18428 0
M  V30 1152 H 114.53 -3.49132 2.26008 0
M  V30 1153 H 113.107 -3.70285 0.440868 0
M  V30 1154 N 115.292 -0.849877 -1.32721 0
M  V30 1155 C 116.517 -0.463856 -2.02146 0
M  V30 1156 C 116.942 0.930449 -1.63476 0
M  V30 1157 O 116.3 1.61033 -0.832952 0
M  V30 1158 C 116.348 -0.604955 -3.55489 0
M  V30 1159 O 115.452 0.36425 -4.10788 0
M  V30 1160 H 114.793 -0.187046 -0.637111 0
M  V30 1161 H 117.323 -1.14775 -1.69375 0
M  V30 1162 H 117.333 -0.490696 -4.05038 0
M  V30 1163 H 116.008 -1.62174 -3.82978 0
M  V30 1164 H 114.585 0.206628 -3.72327 0
M  V30 1165 N 116.77 1.45427 -0.607355 0
M  V30 1166 C 117.717 2.3053 0.111625 0
M  V30 1167 C 118.687 1.4209 0.860216 0
M  V30 1168 O 119.872 1.71019 0.845998 0
M  V30 1169 C 117.012 3.26992 1.10319 0
M  V30 1170 C 116.125 4.30535 0.355493 0
M  V30 1171 C 115.26 5.14105 1.33676 0
M  V30 1172 C 114.299 6.09376 0.576862 0
M  V30 1173 N 113.436 6.85727 1.5074 0
M  V30 1174 H 118.276 2.91477 -0.620093 0
M  V30 1175 H 115.813 1.43631 -0.317594 0
M  V30 1176 H 117.771 3.81385 1.6912 0
M  V30 1177 H 116.401 2.67799 1.80232 0
M  V30 1178 H 115.453 3.78805 -0.348023 0
M  V30 1179 H 116.765 4.98235 -0.237423 0
M  V30 1180 H 115.919 5.72897 1.99684 0
M  V30 1181 H 114.658 4.46423 1.9636 0
M  V30 1182 H 113.663 5.49715 -0.0968519 0
M  V30 1183 H 114.888 6.79085 -0.0449341 0
M  V30 1184 H 112.834 6.20735 2.12189 0
M  V30 1185 H 112.751 7.49778 0.967913 0
M  V30 1186 H 114.019 7.4906 2.15706 0
M  V30 1187 N 118.248 0.346503 1.53744 0
M  V30 1188 C 119.659 -0.136779 1.86198 0
M  V30 1189 C 120.01 -1.49749 1.26766 0
M  V30 1190 O 119.135 -2.08417 0.582355 0
M  V30 1191 C 119.73 -0.254966 3.37839 0
M  V30 1192 C 118.289 -0.682482 3.70161 0
M  V30 1193 C 117.436 0.181981 2.76702 0
M  V30 1194 H 120.387 0.565994 1.48264 0
M  V30 1195 H 120.408 -1.08195 3.64793 0
M  V30 1196 H 119.92 0.735526 3.81066 0
M  V30 1197 H 118.021 -1.68189 3.3248 0
M  V30 1198 H 118.134 -0.470326 4.76786 0
M  V30 1199 H 116.498 -0.34615 2.52337 0
M  V30 1200 H 117.281 1.16966 3.2276 0
M  V30 1201 N 119.726 -1.57421 0.075193 0
M  V30 1202 C 120.954 -1.97946 -0.602076 0
M  V30 1203 C 121.369 -0.953674 -1.62943 0
M  V30 1204 O 120.726 0.0592551 -1.82404 0
M  V30 1205 C 120.777 -3.38546 -1.26762 0
M  V30 1206 O 120.498 -4.37195 -0.281376 0
M  V30 1207 C 121.999 -3.93966 -2.03239 0
M  V30 1208 H 119.219 -0.650918 -0.162931 0
M  V30 1209 H 121.763 -2.03959 0.148601 0
M  V30 1210 H 119.918 -3.33609 -1.96936 0
M  V30 1211 H 120.332 -5.18975 -0.759267 0
M  V30 1212 H 121.806 -4.94555 -2.45193 0
M  V30 1213 H 122.283 -3.30693 -2.8903 0
M  V30 1214 H 122.889 -4.02315 -1.37924 0
M  V30 1215 N 121.204 0.198386 -1.56346 0
M  V30 1216 C 122.134 1.24865 -1.9731 0
M  V30 1217 C 123.115 1.47651 -0.844576 0
M  V30 1218 O 124.3 1.59444 -1.10866 0
M  V30 1219 C 121.43 2.59358 -2.30977 0
M  V30 1220 C 120.384 2.5119 -3.46537 0
M  V30 1221 C 119.71 3.89926 -3.65871 0
M  V30 1222 C 121.01 2.03977 -4.80823 0
M  V30 1223 H 122.704 0.908252 -2.85291 0
M  V30 1224 H 120.25 0.435462 -1.37258 0
M  V30 1225 H 122.203 3.33011 -2.58228 0
M  V30 1226 H 120.927 2.95132 -1.39874 0
M  V30 1227 H 119.586 1.79993 -3.19371 0
M  V30 1228 H 119.234 4.23046 -2.72105 0
M  V30 1229 H 118.934 3.85336 -4.4361 0
M  V30 1230 H 120.458 4.65205 -3.95495 0
M  V30 1231 H 121.872 2.67386 -5.07127 0
M  V30 1232 H 120.269 2.10397 -5.62008 0
M  V30 1233 H 121.339 0.992861 -4.74626 0
M  V30 1234 N 122.682 1.50554 0.465978 0
M  V30 1235 C 123.612 1.72722 1.57128 0
M  V30 1236 C 124.593 0.576294 1.6004 0
M  V30 1237 O 125.778 0.81598 1.76225 0
M  V30 1238 C 122.908 1.82605 2.95419 0
M  V30 1239 C 121.862 2.97835 3.07373 0
M  V30 1240 C 121.188 2.92867 4.47363 0
M  V30 1241 C 122.488 4.38265 2.84114 0
M  V30 1242 H 124.182 2.65267 1.38829 0
M  V30 1243 H 121.728 1.2765 0.666441 0
M  V30 1244 H 123.681 1.96698 3.72677 0
M  V30 1245 H 122.405 0.866858 3.14886 0
M  V30 1246 H 121.064 2.83401 2.3255 0
M  V30 1247 H 120.712 1.94783 4.63755 0
M  V30 1248 H 120.412 3.70227 4.56296 0
M  V30 1249 H 121.936 3.09015 5.26633 0
M  V30 1250 H 123.35 4.53198 3.51118 0
M  V30 1251 H 121.747 5.17115 3.04487 0
M  V30 1252 H 122.817 4.50281 1.7993 0
M  V30 1253 N 124.16 -0.719506 1.40217 0
M  V30 1254 C 125.123 -1.8153 1.39927 0
M  V30 1255 C 126.123 -1.58095 0.293723 0
M  V30 1256 O 127.313 -1.65209 0.552429 0
M  V30 1257 C 124.445 -3.19561 1.18716 0
M  V30 1258 H 125.638 -1.83186 2.37451 0
M  V30 1259 H 123.191 -0.924746 1.26008 0
M  V30 1260 H 123.926 -3.23557 0.219366 0
M  V30 1261 H 123.711 -3.3797 1.98793 0
M  V30 1262 H 125.201 -3.99598 1.21291 0
M  V30 1263 N 125.638 -1.25649 -0.95132 0
M  V30 1264 C 126.586 -1.06118 -2.06982 0
M  V30 1265 C 127.58 0.00889169 -1.69398 0
M  V30 1266 O 128.786 -0.146988 -1.79399 0
M  V30 1267 H 125.161 -0.326248 -0.677544 0
M  V30 1268 H 127.132 -2.00932 -2.2061 0
M  V30 1269 C 125.881 -0.700145 -3.40578 0
M  V30 1270 H 125.204 -1.51537 -3.69968 0
M  V30 1271 H 126.644 -0.603211 -4.19687 0
M  V30 1272 C 125.103 0.59403 -3.31622 0
M  V30 1273 O 125.633 1.63522 -3.66911 0
M  V30 1274 N 123.839 0.58089 -2.84735 0
M  V30 1275 H 123.386 -0.266783 -2.56215 0
M  V30 1276 H 123.344 1.44695 -2.79125 0
M  V30 1277 N 127.117 1.15442 -1.07289 0
M  V30 1278 C 128.365 1.85845 -0.794096 0
M  V30 1279 C 128.686 1.82692 0.681809 0
M  V30 1280 O 127.956 1.26741 1.49377 0
M  V30 1281 H 126.536 0.688089 -0.290763 0
M  V30 1282 H 129.198 1.39947 -1.3565 0
M  V30 1283 H 128.294 2.91001 -1.12804 0
M  V30 1284 N 128.595 0.856903 1.32268 0
M  V30 1285 C 129.843 0.460474 1.96784 0
M  V30 1286 C 130.164 -0.987701 1.68135 0
M  V30 1287 O 129.434 -1.69058 0.989765 0
M  V30 1288 H 128.014 0.167289 0.728027 0
M  V30 1289 H 130.676 1.09383 1.61312 0
M  V30 1290 H 129.772 0.60739 3.06133 0
M  V30 1291 N 130.073 -1.45103 0.615059 0
M  V30 1292 C 131.023 -2.27679 -0.120966 0
M  V30 1293 C 132.007 -1.3775 -0.831491 0
M  V30 1294 O 133.199 -1.61683 -0.720249 0
M  V30 1295 C 130.328 -3.24767 -1.1127 0
M  V30 1296 C 129.414 -4.22184 -0.402627 0
M  V30 1297 N 129.805 -5.02692 0.559884 0
M  V30 1298 C 128.103 -4.4125 -0.649202 0
M  V30 1299 C 128.804 -5.73421 0.977942 0
M  V30 1300 N 127.78 -5.42657 0.320104 0
M  V30 1301 H 131.582 -2.87325 0.618181 0
M  V30 1302 H 129.096 -1.56345 0.439304 0
M  V30 1303 H 131.093 -3.82666 -1.65446 0
M  V30 1304 H 129.753 -2.66682 -1.85232 0
M  V30 1305 H 130.764 -5.09354 0.936976 0
M  V30 1306 H 127.441 -3.9428 -1.37293 0
M  V30 1307 H 128.831 -6.48107 1.77222 0
M  V30 1308 N 131.551 -0.354651 -1.53558 0
M  V30 1309 C 132.799 0.237972 -2.00694 0
M  V30 1310 C 133.12 1.50173 -1.24391 0
M  V30 1311 O 132.39 1.92673 -0.354135 0
M  V30 1312 H 130.97 0.0909256 -0.741446 0
M  V30 1313 H 133.632 -0.478368 -1.88938 0
M  V30 1314 H 132.728 0.47264 -3.085 0
M  V30 1315 N 133.029 1.57378 -0.0835403 0
M  V30 1316 C 134.275 1.94217 0.583733 0
M  V30 1317 C 134.608 0.964653 1.68547 0
M  V30 1318 O 133.883 -0.00422258 1.945 0
M  V30 1319 C 134.166 3.41253 1.14972 0
M  V30 1320 C 134.019 4.49768 0.0538277 0
M  V30 1321 C 135.338 3.89352 2.05166 0
M  V30 1322 H 132.457 0.706233 0.210724 0
M  V30 1323 H 135.099 1.89392 -0.1519 0
M  V30 1324 H 133.249 3.45496 1.77665 0
M  V30 1325 H 134.921 4.57641 -0.579851 0
M  V30 1326 H 133.164 4.29432 -0.614068 0
M  V30 1327 H 133.835 5.49817 0.490452 0
M  V30 1328 H 136.311 3.87189 1.52393 0
M  V30 1329 H 135.187 4.92822 2.41698 0
M  V30 1330 H 135.448 3.27973 2.96456 0
M  V30 1331 N 134.507 -0.190092 1.56449 0
M  V30 1332 C 135.417 -1.25591 1.98152 0
M  V30 1333 C 136.433 -1.49519 0.889944 0
M  V30 1334 O 137.609 -1.62036 1.19609 0
M  V30 1335 C 134.674 -2.57916 2.3169 0
M  V30 1336 C 133.735 -2.42015 3.5458 0
M  V30 1337 C 132.968 -3.6803 3.8651 0
M  V30 1338 O 133.191 -4.72413 3.1966 0
M  V30 1339 O 132.125 -3.6326 4.79923 0
M  V30 1340 H 135.951 -0.931988 2.89046 0
M  V30 1341 H 133.536 -0.395488 1.4407 0
M  V30 1342 H 135.418 -3.36008 2.54316 0
M  V30 1343 H 134.093 -2.89925 1.43963 0
M  V30 1344 H 133 -1.62017 3.37196 0
M  V30 1345 H 134.333 -2.14937 4.4279 0
M  V30 1346 N 135.985 -1.50799 -0.457987 0
M  V30 1347 C 137.233 -1.62121 -1.2067 0
M  V30 1348 C 137.554 -0.329793 -1.92191 0
M  V30 1349 O 136.824 0.653409 -1.84682 0
M  V30 1350 H 135.404 -0.597441 -0.448411 0
M  V30 1351 H 138.066 -1.87637 -0.527096 0
M  V30 1352 H 137.162 -2.43882 -1.94751 0
M  V30 1353 N 137.463 0.71206 -1.40597 0
M  V30 1354 C 138.688 1.50617 -1.42581 0
M  V30 1355 C 139.113 1.88079 -0.0282102 0
M  V30 1356 O 138.471 1.53511 0.964579 0
M  V30 1357 C 138.519 2.7557 -2.3258 0
M  V30 1358 O 137.623 3.72414 -1.77148 0
M  V30 1359 H 136.964 0.453966 -0.484573 0
M  V30 1360 H 139.494 0.876649 -1.84868 0
M  V30 1361 H 139.504 3.2406 -2.47889 0
M  V30 1362 H 138.179 2.47639 -3.34138 0
M  V30 1363 H 136.756 3.31276 -1.71204 0
M  V30 1364 N 138.941 1.26152 0.944643 0
M  V30 1365 C 140.218 1.02247 1.66748 0
M  V30 1366 C 140.598 -0.448202 2.06287 0
M  V30 1367 O 139.946 -1.42779 1.78399 0
M  V30 1368 C 140.156 1.96788 2.88228 0
M  V30 1369 C 141.504 2.25201 3.59958 0
M  V30 1370 O 142.528 1.94626 2.98327 0
M  V30 1371 O 141.387 2.77242 4.70956 0
M  V30 1372 H 138.481 0.388517 0.730057 0
M  V30 1373 H 141.027 1.37348 0.99668 0
M  V30 1374 H 139.799 2.96047 2.55875 0
M  V30 1375 H 139.422 1.62145 3.63035 0
M  V30 1376 N 140.419 -1.14872 1.07899 0
M  V30 1377 C 141.647 -1.89661 0.82683 0
M  V30 1378 C 142.062 -1.78312 -0.620519 0
M  V30 1379 O 141.419 -1.13888 -1.42604 0
M  V30 1380 C 141.47 -3.39817 1.23316 0
M  V30 1381 O 141.191 -3.50845 2.62372 0
M  V30 1382 C 142.692 -4.31615 1.0111 0
M  V30 1383 H 139.912 -0.60092 0.298557 0
M  V30 1384 H 142.456 -1.4551 1.43691 0
M  V30 1385 H 140.611 -3.8161 0.667286 0
M  V30 1386 H 141.025 -4.44076 2.79101 0
M  V30 1387 H 142.499 -5.35367 1.34486 0
M  V30 1388 H 142.976 -4.39169 -0.0522168 0
M  V30 1389 H 143.582 -3.95572 1.56215 0
M  V30 1390 N 141.898 -0.863906 -1.31812 0
M  V30 1391 C 143.126 -0.486111 -2.01108 0
M  V30 1392 C 143.541 0.919755 -1.64882 0
M  V30 1393 O 142.898 1.60162 -0.874893 0
M  V30 1394 C 142.949 -0.626435 -3.56031 0
M  V30 1395 O 142.67 -1.97693 -3.90959 0
M  V30 1396 C 144.171 -0.248857 -4.42601 0
M  V30 1397 H 141.391 -0.190052 -0.643523 0
M  V30 1398 H 143.935 -1.1634 -1.68182 0
M  V30 1399 H 142.09 0.00322717 -3.874 0
M  V30 1400 H 142.504 -1.98034 -4.85678 0
M  V30 1401 H 143.978 -0.398016 -5.50563 0
M  V30 1402 H 144.455 0.811489 -4.31638 0
M  V30 1403 H 145.061 -0.853971 -4.16638 0
M  V30 1404 N 143.376 1.44774 -0.622745 0
M  V30 1405 C 144.624 2.01721 -0.123655 0
M  V30 1406 C 144.945 1.49172 1.25589 0
M  V30 1407 O 144.215 0.691974 1.83272 0
M  V30 1408 H 142.795 0.745777 -0.0427225 0
M  V30 1409 H 145.457 1.77382 -0.807559 0
M  V30 1410 H 144.553 3.11984 -0.0849534 0
M  V30 1411 N 144.854 0.36279 1.53368 0
M  V30 1412 C 146.079 -0.231226 2.06107 0
M  V30 1413 C 146.504 -1.419 1.23474 0
M  V30 1414 O 145.862 -1.79524 0.253128 0
M  V30 1415 C 145.91 -0.605523 3.5548 0
M  V30 1416 O 145.014 -1.70312 3.7559 0
M  V30 1417 H 144.355 -0.034327 0.663112 0
M  V30 1418 H 146.885 0.522584 1.97814 0
M  V30 1419 H 146.895 -0.877314 3.98456 0
M  V30 1420 H 145.57 0.263004 4.15068 0
M  V30 1421 H 144.147 -1.4271 3.44512 0
M  V30 1422 N 146.332 -1.57332 0.0918853 0
M  V30 1423 C 147.743 -1.81496 -0.437739 0
M  V30 1424 C 148.094 -1.00727 -1.6837 0
M  V30 1425 O 147.219 -0.235694 -2.15113 0
M  V30 1426 C 147.814 -3.29197 -0.800939 0
M  V30 1427 C 146.373 -3.54136 -1.27532 0
M  V30 1428 C 145.52 -2.75979 -0.270392 0
M  V30 1429 H 148.471 -1.55494 0.317366 0
M  V30 1430 H 148.492 -3.42344 -1.66074 0
M  V30 1431 H 148.004 -3.87955 0.106078 0
M  V30 1432 H 146.105 -3.00705 -2.20016 0
M  V30 1433 H 146.218 -4.62792 -1.23938 0
M  V30 1434 H 144.582 -2.43349 -0.751872 0
M  V30 1435 H 145.365 -3.37484 0.629248 0
M  V30 1436 N 147.81 0.181792 -1.56548 0
M  V30 1437 C 149.038 0.915947 -1.85521 0
M  V30 1438 C 149.453 1.76282 -0.676016 0
M  V30 1439 O 148.81 1.79012 0.355077 0
M  V30 1440 C 148.861 1.80126 -3.13427 0
M  V30 1441 O 148.582 0.988562 -4.26801 0
M  V30 1442 C 150.083 2.64597 -3.55673 0
M  V30 1443 H 147.303 0.26661 -0.61576 0
M  V30 1444 H 149.847 0.185039 -2.03661 0
M  V30 1445 H 148.002 2.48563 -2.97145 0
M  V30 1446 H 148.416 1.59308 -4.99721 0
M  V30 1447 H 149.89 3.2235 -4.48101 0
M  V30 1448 H 150.367 3.38958 -2.79292 0
M  V30 1449 H 150.973 2.0151 -3.74532 0
M  V30 1450 N 149.288 1.51039 0.449983 0
M  V30 1451 C 150.198 1.74261 1.57067 0
M  V30 1452 C 151.214 0.626363 1.62335 0
M  V30 1453 O 152.39 0.907162 1.79812 0
M  V30 1454 C 149.455 1.85114 2.93144 0
M  V30 1455 C 148.516 3.0893 2.98095 0
M  V30 1456 C 147.749 3.19256 4.27681 0
M  V30 1457 O 147.972 2.35835 5.19363 0
M  V30 1458 O 146.906 4.12144 4.38658 0
M  V30 1459 H 150.732 2.69303 1.40391 0
M  V30 1460 H 148.317 1.35389 0.631688 0
M  V30 1461 H 150.199 1.94311 3.73926 0
M  V30 1462 H 148.874 0.932588 3.09975 0
M  V30 1463 H 147.781 3.0522 2.16314 0
M  V30 1464 H 149.114 4.00433 2.86206 0
M  V30 1465 N 150.766 -0.704594 1.40972 0
M  V30 1466 C 152.013 -1.46458 1.39844 0
M  V30 1467 C 152.341 -1.94499 0.00447594 0
M  V30 1468 O 151.596 -1.69275 -0.982057 0
M  V30 1469 C 151.895 -2.698 2.34399 0
M  V30 1470 C 151.561 -2.40464 3.81429 0
M  V30 1471 C 150.223 -2.32174 4.21484 0
M  V30 1472 C 152.575 -2.16086 4.74296 0
M  V30 1473 C 149.903 -1.97589 5.52427 0
M  V30 1474 C 152.255 -1.83011 6.05549 0
M  V30 1475 C 150.919 -1.7321 6.44635 0
M  V30 1476 H 150.189 -0.535927 0.511725 0
M  V30 1477 H 152.836 -0.806124 1.73706 0
M  V30 1478 H 151.141 -3.40536 1.93759 0
M  V30 1479 H 152.838 -3.27919 2.30804 0
M  V30 1480 H 149.428 -2.47808 3.49699 0
M  V30 1481 H 153.612 -2.2144 4.4416 0
M  V30 1482 H 148.868 -1.88547 5.81601 0
M  V30 1483 H 153.042 -1.63164 6.77016 0
M  V30 1484 H 150.669 -1.46179 7.46013 0
M  V30 1485 N 152.244 -1.26651 -0.937939 0
M  V30 1486 C 153.174 -1.10993 -2.05433 0
M  V30 1487 C 154.155 -0.0142161 -1.70094 0
M  V30 1488 O 155.34 -0.186837 -1.93299 0
M  V30 1489 C 152.47 -0.745561 -3.39203 0
M  V30 1490 C 151.424 -1.79337 -3.88616 0
M  V30 1491 C 150.75 -1.28324 -5.19073 0
M  V30 1492 C 152.05 -3.19553 -4.13138 0
M  V30 1493 H 153.744 -2.0438 -2.1879 0
M  V30 1494 H 151.29 -0.984041 -1.05131 0
M  V30 1495 H 153.243 -0.622888 -4.16771 0
M  V30 1496 H 151.967 0.22401 -3.25831 0
M  V30 1497 H 150.626 -1.90477 -3.13231 0
M  V30 1498 H 150.274 -0.303414 -5.02084 0
M  V30 1499 H 149.974 -1.98369 -5.53103 0
M  V30 1500 H 151.498 -1.1733 -5.99221 0
M  V30 1501 H 152.912 -3.11471 -4.81309 0
M  V30 1502 H 151.309 -3.87218 -4.58457 0
M  V30 1503 H 152.379 -3.65368 -3.18801 0
M  V30 1504 N 153.722 1.14298 -1.08507 0
M  V30 1505 C 154.632 2.23027 -0.727753 0
M  V30 1506 C 155.648 1.71952 0.26619 0
M  V30 1507 O 156.824 2.011 0.109882 0
M  V30 1508 C 153.889 3.46403 -0.143541 0
M  V30 1509 C 152.95 4.12413 -1.19223 0
M  V30 1510 C 152.183 5.29899 -0.635798 0
M  V30 1511 O 152.406 5.67796 0.544393 0
M  V30 1512 O 151.34 5.85717 -1.38634 0
M  V30 1513 H 155.166 2.55945 -1.63481 0
M  V30 1514 H 152.751 1.22248 -0.858817 0
M  V30 1515 H 154.633 4.21018 0.179404 0
M  V30 1516 H 153.308 3.15206 0.736659 0
M  V30 1517 H 152.215 3.39667 -1.56772 0
M  V30 1518 H 153.548 4.47718 -2.04474 0
M  V30 1519 N 155.201 0.870884 1.31352 0
M  V30 1520 C 156.111 0.330783 2.32256 0
M  V30 1521 C 157.127 -0.559767 1.6475 0
M  V30 1522 O 158.303 -0.456263 1.96164 0
M  V30 1523 C 155.368 -0.458137 3.4366 0
M  V30 1524 C 154.429 0.460482 4.26823 0
M  V30 1525 C 153.662 -0.290881 5.32907 0
M  V30 1526 O 153.885 -1.51885 5.49806 0
M  V30 1527 O 152.819 0.351732 6.00871 0
M  V30 1528 H 156.645 1.16718 2.80376 0
M  V30 1529 H 154.23 0.634285 1.35267 0
M  V30 1530 H 156.112 -0.905343 4.1156 0
M  V30 1531 H 154.787 -1.27106 2.97701 0
M  V30 1532 H 153.694 0.956207 3.61673 0
M  V30 1533 H 155.027 1.23903 4.7635 0
M  V30 1534 N 156.679 -1.44442 0.630414 0
M  V30 1535 C 157.626 -2.30678 -0.0749355 0
M  V30 1536 C 158.596 -1.4344 -0.837502 0
M  V30 1537 O 159.781 -1.72343 -0.818684 0
M  V30 1538 C 156.921 -3.28706 -1.05103 0
M  V30 1539 C 156.034 -4.31046 -0.286954 0
M  V30 1540 C 155.169 -5.16167 -1.2548 0
M  V30 1541 C 154.208 -6.10216 -0.479843 0
M  V30 1542 N 153.345 -6.88039 -1.39811 0
M  V30 1543 H 158.185 -2.90454 0.666386 0
M  V30 1544 H 155.722 -1.43107 0.340404 0
M  V30 1545 H 157.68 -3.84027 -1.63031 0
M  V30 1546 H 156.31 -2.70632 -1.75949 0
M  V30 1547 H 155.362 -3.78203 0.408243 0
M  V30 1548 H 156.674 -4.97794 0.316657 0
M  V30 1549 H 155.828 -5.76002 -1.90544 0
M  V30 1550 H 154.567 -4.49491 -1.89233 0
M  V30 1551 H 153.572 -5.49491 0.184295 0
M  V30 1552 H 154.797 -6.78928 0.152965 0
M  V30 1553 H 152.743 -6.24032 -2.02287 0
M  V30 1554 H 152.66 -7.51223 -0.848508 0
M  V30 1555 H 153.928 -7.52397 -2.03762 0
M  V30 1556 N 158.157 -0.370918 -1.53173 0
M  V30 1557 C 159.09 0.516727 -2.22273 0
M  V30 1558 C 160.068 1.07877 -1.21661 0
M  V30 1559 O 161.252 1.13389 -1.50583 0
M  V30 1560 C 158.379 1.71346 -2.92161 0
M  V30 1561 C 157.425 1.27838 -4.0689 0
M  V30 1562 S 158.258 0.275217 -5.34792 0
M  V30 1563 C 159.414 1.47816 -6.08195 0
M  V30 1564 H 159.647 -0.0701054 -2.97217 0
M  V30 1565 H 157.18 -0.155038 -1.5362 0
M  V30 1566 H 159.138 2.39988 -3.3304 0
M  V30 1567 H 157.799 2.27156 -2.16931 0
M  V30 1568 H 156.992 2.17141 -4.54825 0
M  V30 1569 H 156.594 0.671105 -3.6793 0
M  V30 1570 H 158.886 2.40831 -6.33251 0
M  V30 1571 H 159.829 1.04008 -7.0042 0
M  V30 1572 H 160.237 1.68663 -5.38714 0
M  V30 1573 N 159.635 1.57281 -0.100228 0
M  V30 1574 C 160.598 2.13158 0.842398 0
M  V30 1575 C 161.598 1.06202 1.20738 0
M  V30 1576 O 162.788 1.32066 1.13597 0
M  V30 1577 C 159.92 2.65639 2.13655 0
M  V30 1578 H 161.113 2.97766 0.357114 0
M  V30 1579 H 158.666 1.5559 0.148823 0
M  V30 1580 H 159.401 1.84566 2.66657 0
M  V30 1581 H 159.186 3.43844 1.88451 0
M  V30 1582 H 160.676 3.08846 2.81077 0
M  V30 1583 N 161.113 -0.173488 1.56642 0
M  V30 1584 C 162.343 -0.904781 1.85734 0
M  V30 1585 C 162.751 -1.76431 0.68328 0
M  V30 1586 O 162.094 -1.802 -0.356865 0
M  V30 1587 C 162.156 -1.83382 3.09211 0
M  V30 1588 C 161.82 -1.15411 4.42187 0
M  V30 1589 C 162.817 -0.520609 5.17287 0
M  V30 1590 C 160.502 -1.15151 4.88923 0
M  V30 1591 C 162.496 0.106412 6.37311 0
M  V30 1592 C 160.183 -0.520664 6.08878 0
M  V30 1593 C 161.181 0.107196 6.82916 0
M  V30 1594 O 160.869 0.728102 8.00596 0
M  V30 1595 H 160.601 -0.268408 0.62043 0
M  V30 1596 H 163.155 -0.179096 2.04618 0
M  V30 1597 H 161.385 -2.59976 2.86268 0
M  V30 1598 H 163.074 -2.43476 3.24768 0
M  V30 1599 H 163.84 -0.514606 4.82262 0
M  V30 1600 H 159.719 -1.62961 4.31236 0
M  V30 1601 H 163.263 0.597081 6.9504 0
M  V30 1602 H 159.16 -0.524242 6.43368 0
M  V30 1603 H 159.928 0.627138 8.16094 0
M  V30 1604 N 162.591 -1.51276 -0.441967 0
M  V30 1605 C 163.523 -1.68444 -1.55433 0
M  V30 1606 C 164.536 -0.565187 -1.52674 0
M  V30 1607 O 165.725 -0.839356 -1.57534 0
M  V30 1608 C 162.825 -1.67966 -2.94348 0
M  V30 1609 C 161.998 -2.964 -3.21661 0
M  V30 1610 C 161.057 -2.88171 -4.40277 0
M  V30 1611 O 160.083 -3.62119 -4.39157 0
M  V30 1612 N 161.285 -2.03706 -5.43584 0
M  V30 1613 H 164.05 -2.644 -1.41112 0
M  V30 1614 H 161.611 -1.49104 -0.630838 0
M  V30 1615 H 163.603 -1.60035 -3.71713 0
M  V30 1616 H 162.173 -0.796225 -3.0229 0
M  V30 1617 H 161.393 -3.18234 -2.32638 0
M  V30 1618 H 162.681 -3.81427 -3.36736 0
M  V30 1619 H 162.079 -1.42995 -5.47329 0
M  V30 1620 H 160.636 -2.01658 -6.1982 0
M  V30 1621 N 164.069 0.697108 -1.41344 0
M  V30 1622 C 164.979 1.84088 -1.45427 0
M  V30 1623 C 165.995 1.70545 -0.34501 0
M  V30 1624 O 167.171 1.92488 -0.592492 0
M  V30 1625 C 164.236 3.20056 -1.33286 0
M  V30 1626 C 163.297 3.45718 -2.54514 0
M  V30 1627 C 162.53 4.75199 -2.42944 0
M  V30 1628 O 162.753 5.51579 -1.45318 0
M  V30 1629 O 161.687 5.0161 -3.32672 0
M  V30 1630 H 165.513 1.836 -2.41919 0
M  V30 1631 H 163.098 0.849966 -1.22866 0
M  V30 1632 H 164.98 4.01236 -1.28794 0
M  V30 1633 H 163.655 3.2123 -0.39909 0
M  V30 1634 H 162.562 2.64474 -2.64583 0
M  V30 1635 H 163.895 3.49356 -3.46715 0
M  V30 1636 N 165.547 1.27147 0.931209 0
M  V30 1637 C 166.777 1.15914 1.71019 0
M  V30 1638 C 167.185 -0.287112 1.87009 0
M  V30 1639 O 166.528 -1.20761 1.38429 0
M  V30 1640 C 166.59 1.76647 3.13107 0
M  V30 1641 C 166.254 3.25807 3.20467 0
M  V30 1642 C 167.251 4.22489 3.02983 0
M  V30 1643 C 164.936 3.66452 3.43538 0
M  V30 1644 C 166.93 5.57794 3.08454 0
M  V30 1645 C 164.617 5.01888 3.48643 0
M  V30 1646 C 165.615 5.97369 3.31119 0
M  V30 1647 O 165.303 7.30337 3.35952 0
M  V30 1648 H 165.035 0.404062 0.54195 0
M  V30 1649 H 167.589 1.68457 1.17521 0
M  V30 1650 H 165.819 1.18578 3.68071 0
M  V30 1651 H 167.508 1.60179 3.72958 0
M  V30 1652 H 168.274 3.92425 2.85004 0
M  V30 1653 H 164.153 2.92611 3.5623 0
M  V30 1654 H 167.697 6.32298 2.94694 0
M  V30 1655 H 163.594 5.31609 3.66145 0
M  V30 1656 H 164.362 7.38739 3.5243 0
M  V30 1657 N 167.025 -1.13721 1.09112 0
M  V30 1658 C 168.436 -1.6648 0.845068 0
M  V30 1659 C 168.787 -1.85911 -0.62701 0
M  V30 1660 O 167.912 -1.57556 -1.48341 0
M  V30 1661 C 168.507 -3.02413 1.52748 0
M  V30 1662 C 167.066 -3.52176 1.32849 0
M  V30 1663 C 166.213 -2.27492 1.58564 0
M  V30 1664 H 169.164 -0.976872 1.25072 0
M  V30 1665 H 169.185 -3.68223 0.958752 0
M  V30 1666 H 168.697 -2.88238 2.59885 0
M  V30 1667 H 166.798 -3.7156 0.278137 0
M  V30 1668 H 166.911 -4.32499 2.0611 0
M  V30 1669 H 165.275 -2.33923 1.00758 0
M  V30 1670 H 166.058 -2.15886 2.66924 0
M  V30 1671 N 168.503 -0.877838 -1.30888 0
M  V30 1672 C 169.451 -0.328662 -2.30266 0
M  V30 1673 C 170.445 0.560496 -1.59859 0
M  V30 1674 O 171.651 0.445722 -1.74394 0
M  V30 1675 H 168.026 -0.0876142 -0.746879 0
M  V30 1676 H 169.997 -1.18061 -2.74051 0
M  V30 1677 C 168.746 0.448071 -3.44801 0
M  V30 1678 H 168.069 -0.226859 -3.99156 0
M  V30 1679 H 169.509 0.797541 -4.16432 0
M  V30 1680 C 167.968 1.64239 -2.94155 0
M  V30 1681 O 168.498 2.74175 -2.93583 0
M  V30 1682 N 166.704 1.47716 -2.50256 0
M  V30 1683 H 166.251 0.582821 -2.5092 0
M  V30 1684 H 166.209 2.27765 -2.16727 0
M  V30 1685 N 169.982 1.44106 -0.638065 0
M  V30 1686 C 171.207 2.0685 -0.150916 0
M  V30 1687 C 171.632 1.47417 1.16833 0
M  V30 1688 O 170.99 0.578264 1.71831 0
M  V30 1689 C 171.038 3.60555 -0.05708 0
M  V30 1690 O 170.142 4.00465 0.984972 0
M  V30 1691 H 169.483 0.658151 -0.0879399 0
M  V30 1692 H 172.013 1.84865 -0.876707 0
M  V30 1693 H 172.023 4.07789 0.131232 0
M  V30 1694 H 170.698 4.03193 -1.02021 0
M  V30 1695 H 169.275 3.64849 0.770672 0
M  V30 1696 N 171.46 0.379036 1.52974 0
M  V30 1697 C 172.392 -0.495963 2.2377 0
M  V30 1698 C 173.405 -1.03517 1.25651 0
M  V30 1699 O 174.594 -0.939249 1.51791 0
M  V30 1700 C 171.694 -1.69894 2.93239 0
M  V30 1701 C 170.867 -1.2889 4.17979 0
M  V30 1702 C 169.926 -2.35543 4.70538 0
M  V30 1703 O 168.952 -1.97375 5.33883 0
M  V30 1704 N 170.154 -3.67318 4.49508 0
M  V30 1705 H 172.919 0.110523 2.99496 0
M  V30 1706 H 170.48 0.204878 1.60598 0
M  V30 1707 H 172.472 -2.40747 3.25304 0
M  V30 1708 H 171.042 -2.212 2.20883 0
M  V30 1709 H 170.262 -0.409676 3.92065 0
M  V30 1710 H 171.55 -0.991443 4.99047 0
M  V30 1711 H 170.948 -4.01095 3.98923 0
M  V30 1712 H 169.505 -4.34235 4.8609 0
M  V30 1713 N 172.938 -1.57226 0.108567 0
M  V30 1714 C 173.886 -2.16002 -0.862885 0
M  V30 1715 C 174.88 -1.10644 -1.28274 0
M  V30 1716 O 176.086 -1.28966 -1.2557 0
M  V30 1717 H 172.461 -0.691148 -0.296342 0
M  V30 1718 H 174.432 -2.96427 -0.342575 0
M  V30 1719 C 173.181 -2.76576 -2.10716 0
M  V30 1720 H 172.504 -3.5734 -1.793 0
M  V30 1721 H 173.944 -3.21253 -2.76717 0
M  V30 1722 C 172.403 -1.73137 -2.89007 0
M  V30 1723 O 172.933 -1.17842 -3.84026 0
M  V30 1724 N 171.139 -1.43317 -2.52801 0
M  V30 1725 H 170.686 -1.88473 -1.75601 0
M  V30 1726 H 170.644 -0.743485 -3.05483 0
M  V30 1727 N 174.416 0.165178 -1.56732 0
M  V30 1728 C 175.662 0.877389 -1.83503 0
M  V30 1729 C 176.017 1.79602 -0.689996 0
M  V30 1730 O 175.31 1.89023 0.313205 0
M  V30 1731 C 175.504 1.70405 -3.1416 0
M  V30 1732 C 175.333 0.866961 -4.41264 0
M  V30 1733 C 174.103 0.539646 -5.0241 0
M  V30 1734 C 176.301 0.205671 -5.13889 0
M  V30 1735 N 174.283 -0.312946 -6.13102 0
M  V30 1736 C 175.654 -0.507823 -6.17917 0
M  V30 1737 C 177.709 0.124468 -4.97744 0
M  V30 1738 C 176.412 -1.29483 -7.0755 0
M  V30 1739 C 178.438 -0.649222 -5.87826 0
M  V30 1740 C 177.8 -1.35106 -6.91322 0
M  V30 1741 H 173.899 0.299477 -0.722383 0
M  V30 1742 H 176.483 0.143949 -1.94167 0
M  V30 1743 H 174.654 2.40887 -3.04677 0
M  V30 1744 H 176.386 2.35804 -3.28905 0
M  V30 1745 H 173.141 0.871176 -4.65519 0
M  V30 1746 H 173.565 -0.729731 -6.73056 0
M  V30 1747 H 178.207 0.652724 -4.17731 0
M  V30 1748 H 175.925 -1.83441 -7.87004 0
M  V30 1749 H 179.511 -0.713804 -5.77405 0
M  V30 1750 H 178.391 -1.94013 -7.59821 0
M  V30 1751 N 175.894 1.51508 0.433938 0
M  V30 1752 C 177.305 1.56784 1.01369 0
M  V30 1753 C 177.656 0.393349 1.92217 0
M  V30 1754 O 176.781 -0.489441 2.10792 0
M  V30 1755 C 177.376 2.84144 1.8452 0
M  V30 1756 C 175.935 2.9198 2.37539 0
M  V30 1757 C 175.082 2.51482 1.16843 0
M  V30 1758 H 178.033 1.57236 0.215081 0
M  V30 1759 H 178.054 2.68098 2.70007 0
M  V30 1760 H 177.566 3.69607 1.18373 0
M  V30 1761 H 175.667 2.10955 3.0713 0
M  V30 1762 H 175.78 3.95704 2.70103 0
M  V30 1763 H 174.144 2.04758 1.51481 0
M  V30 1764 H 174.927 3.39293 0.523015 0
M  V30 1765 N 177.372 -0.689602 1.41712 0
M  V30 1766 C 178.282 -1.83314 1.46401 0
M  V30 1767 C 179.298 -1.7036 0.35405 0
M  V30 1768 O 180.474 -1.92171 0.602692 0
M  V30 1769 C 177.539 -3.19344 1.34982 0
M  V30 1770 C 176.6 -3.44363 2.56344 0
M  V30 1771 C 175.833 -4.73904 2.45461 0
M  V30 1772 O 176.056 -5.508 1.48241 0
M  V30 1773 O 174.99 -4.99839 3.35328 0
M  V30 1774 H 178.816 -1.82314 2.42889 0
M  V30 1775 H 176.401 -0.843438 1.23315 0
M  V30 1776 H 178.283 -4.00547 1.3092 0
M  V30 1777 H 176.958 -3.21014 0.41612 0
M  V30 1778 H 175.865 -2.63067 2.65982 0
M  V30 1779 H 177.198 -3.47512 3.48563 0
M  V30 1780 N 178.85 -1.27639 -0.924453 0
M  V30 1781 C 180.127 -1.04887 -1.651 0
M  V30 1782 C 180.507 0.415327 -2.06974 0
M  V30 1783 O 179.855 1.39923 -1.80648 0
M  V30 1784 C 180.065 -2.01348 -2.85061 0
M  V30 1785 C 181.413 -2.30899 -3.56329 0
M  V30 1786 O 182.437 -1.99348 -2.95193 0
M  V30 1787 O 181.296 -2.84699 -4.66485 0
M  V30 1788 H 178.39 -0.400083 -0.723784 0
M  V30 1789 H 180.936 -1.38916 -0.974703 0
M  V30 1790 H 179.708 -3.0008 -2.51133 0
M  V30 1791 H 179.331 -1.679 -3.6041 0
M  V30 1792 N 180.328 1.1314 -1.09713 0
M  V30 1793 C 181.556 1.88321 -0.856898 0
M  V30 1794 C 181.971 1.79276 0.592073 0
M  V30 1795 O 181.328 1.16142 1.40774 0
M  V30 1796 C 181.379 3.37812 -1.28706 0
M  V30 1797 O 181.1 3.46627 -2.67921 0
M  V30 1798 C 182.601 4.29952 -1.07964 0
M  V30 1799 H 179.821 0.596094 -0.308079 0
M  V30 1800 H 182.365 1.43205 -1.45988 0
M  V30 1801 H 180.52 3.805 -0.727912 0
M  V30 1802 H 180.934 4.39579 -2.8613 0
M  V30 1803 H 182.408 5.33159 -1.42986 0
M  V30 1804 H 182.885 4.39196 -0.0176577 0
M  V30 1805 H 183.491 3.93036 -1.62489 0
M  V30 1806 N 181.806 0.884767 1.30421 0
M  V30 1807 C 182.754 0.340869 2.30089 0
M  V30 1808 C 183.748 -0.55201 1.60154 0
M  V30 1809 O 184.954 -0.436467 1.74628 0
M  V30 1810 H 181.329 0.0915739 0.746404 0
M  V30 1811 H 183.3 1.19513 2.73421 0
M  V30 1812 C 182.049 -0.429779 3.45034 0
M  V30 1813 H 181.372 0.248024 3.9903 0
M  V30 1814 H 182.812 -0.775445 4.16849 0
M  V30 1815 C 181.271 -1.62677 2.95022 0
M  V30 1816 O 181.801 -2.72614 2.95033 0
M  V30 1817 N 180.007 -1.46387 2.51036 0
M  V30 1818 H 179.554 -0.569506 2.51226 0
M  V30 1819 H 179.512 -2.26612 2.17932 0
M  V30 1820 N 183.284 -1.43765 0.645699 0
M  V30 1821 C 184.531 -2.01898 0.15604 0
M  V30 1822 C 184.859 -1.50887 -1.22733 0
M  V30 1823 O 184.114 -0.689271 -1.8316 0
M  V30 1824 C 184.413 -3.57238 0.107679 0
M  V30 1825 C 184.079 -4.27564 1.43178 0
M  V30 1826 C 182.741 -4.46492 1.7944 0
M  V30 1827 C 185.093 -4.67454 2.30513 0
M  V30 1828 C 182.421 -5.02573 3.02716 0
M  V30 1829 C 184.773 -5.24901 3.53074 0
M  V30 1830 C 183.437 -5.42046 3.89541 0
M  V30 1831 H 182.707 -0.738797 0.057099 0
M  V30 1832 H 185.354 -1.72341 0.834912 0
M  V30 1833 H 183.659 -3.86293 -0.654618 0
M  V30 1834 H 185.356 -3.99965 -0.287938 0
M  V30 1835 H 181.946 -4.13171 1.13963 0
M  V30 1836 H 186.13 -4.5253 2.0379 0
M  V30 1837 H 181.386 -5.14033 3.31028 0
M  V30 1838 H 185.56 -5.54758 4.20971 0
M  V30 1839 H 183.187 -5.85268 4.85145 0
M  V30 1840 N 184.763 -0.387143 -1.52771 0
M  V30 1841 C 186.003 0.195537 -2.03463 0
M  V30 1842 C 186.367 1.44222 -1.26744 0
M  V30 1843 O 187.568 2.10192 -1.67549 0
M  V30 1844 C 185.839 0.459097 -3.54439 0
M  V30 1845 S 187.398 1.01237 -4.26962 0
M  V30 1846 H 184.216 0.0552675 -0.708849 0
M  V30 1847 H 186.818 -0.534992 -1.88037 0
M  V30 1848 H 185.522 -0.455382 -4.07866 0
M  V30 1849 H 185.053 1.21811 -3.74066 0
M  V30 1850 H 187.068 2.29492 -4.39941 0
M  V30 1851 N 186.241 1.57166 -0.116904 0
M  V30 1852 C 187.488 1.95123 0.541603 0
M  V30 1853 C 187.816 1.00006 1.6682 0
M  V30 1854 O 187.071 0.0235658 1.95686 0
M  V30 1855 C 187.37 3.39508 1.11664 0
M  V30 1856 C 187.036 4.50762 0.111606 0
M  V30 1857 C 185.698 4.80918 -0.164758 0
M  V30 1858 C 188.05 5.18036 -0.573438 0
M  V30 1859 C 185.378 5.75666 -1.13249 0
M  V30 1860 C 187.73 6.13824 -1.52978 0
M  V30 1861 C 186.394 6.42374 -1.81415 0
M  V30 1862 H 185.664 0.714005 0.198187 0
M  V30 1863 H 188.311 1.9048 -0.197365 0
M  V30 1864 H 186.616 3.40835 1.93232 0
M  V30 1865 H 188.313 3.66189 1.63422 0
M  V30 1866 H 184.903 4.27272 0.337192 0
M  V30 1867 H 189.087 4.94896 -0.373092 0
M  V30 1868 H 184.343 5.96092 -1.35958 0
M  V30 1869 H 188.517 6.65039 -2.06629 0
M  V30 1870 H 186.144 7.15599 -2.56557 0
M  V30 1871 N 187.719 -0.156864 1.56817 0
M  V30 1872 C 188.651 -1.21883 1.94106 0
M  V30 1873 C 189.664 -1.3971 0.835754 0
M  V30 1874 O 190.853 -1.39457 1.11418 0
M  V30 1875 C 187.953 -2.58527 2.19127 0
M  V30 1876 C 187.126 -2.61809 3.50393 0
M  V30 1877 C 186.185 -3.7992 3.64071 0
M  V30 1878 O 185.211 -3.65249 4.36557 0
M  V30 1879 N 186.413 -4.96973 2.99997 0
M  V30 1880 H 189.178 -0.901974 2.85805 0
M  V30 1881 H 186.739 -0.346513 1.58148 0
M  V30 1882 H 188.731 -3.36034 2.25529 0
M  V30 1883 H 187.301 -2.82545 1.33742 0
M  V30 1884 H 186.521 -1.7029 3.5552 0
M  V30 1885 H 187.809 -2.61024 4.36742 0
M  V30 1886 H 187.207 -5.11794 2.41004 0
M  V30 1887 H 185.764 -5.7229 3.11974 0
M  V30 1888 N 189.197 -1.51736 -0.425897 0
M  V30 1889 C 190.608 -1.5732 -1.00536 0
M  V30 1890 C 190.959 -0.403537 -1.92005 0
M  V30 1891 O 190.084 0.478256 -2.11049 0
M  V30 1892 C 190.679 -2.85119 -1.8301 0
M  V30 1893 C 189.238 -2.93236 -2.35987 0
M  V30 1894 C 188.385 -2.52098 -1.15508 0
M  V30 1895 H 191.336 -1.57348 -0.206739 0
M  V30 1896 H 191.357 -2.69526 -2.68581 0
M  V30 1897 H 190.869 -3.7023 -1.16411 0
M  V30 1898 H 188.97 -2.12581 -3.06007 0
M  V30 1899 H 189.083 -3.9713 -2.68001 0
M  V30 1900 H 187.447 -2.05558 -1.50393 0
M  V30 1901 H 188.23 -3.39565 -0.505014 0
M  V30 1902 N 190.675 0.682077 -1.42076 0
M  V30 1903 C 191.585 1.82535 -1.47371 0
M  V30 1904 C 192.601 1.7017 -0.363079 0
M  V30 1905 O 193.777 1.91848 -0.612875 0
M  V30 1906 C 190.842 3.18624 -1.36674 0
M  V30 1907 C 189.903 3.42999 -2.58167 0
M  V30 1908 C 189.136 4.72595 -2.4797 0
M  V30 1909 O 189.359 5.50006 -1.5116 0
M  V30 1910 O 188.293 4.98054 -3.37974 0
M  V30 1911 H 192.119 1.81023 -2.43853 0
M  V30 1912 H 189.704 0.836887 -1.2376 0
M  V30 1913 H 191.586 3.99847 -1.33043 0
M  V30 1914 H 190.261 3.20789 -0.433138 0
M  V30 1915 H 189.168 2.61653 -2.67373 0
M  V30 1916 H 190.501 3.45659 -3.50401 0
M  V30 1917 N 192.153 1.28127 0.917671 0
M  V30 1918 C 193.085 1.07517 2.02417 0
M  V30 1919 C 194.098 0.0281099 1.62776 0
M  V30 1920 O 195.287 0.270748 1.76435 0
M  V30 1921 C 192.387 0.610957 3.33347 0
M  V30 1922 C 191.56 1.73255 4.01624 0
M  V30 1923 C 190.619 1.26238 5.10833 0
M  V30 1924 O 189.645 1.96389 5.34247 0
M  V30 1925 N 190.847 0.123448 5.80369 0
M  V30 1926 H 193.612 2.02806 2.20658 0
M  V30 1927 H 191.173 1.19827 1.08871 0
M  V30 1928 H 193.165 0.280101 4.0373 0
M  V30 1929 H 191.735 -0.24898 3.11607 0
M  V30 1930 H 190.955 2.23319 3.24842 0
M  V30 1931 H 192.243 2.48503 4.43986 0
M  V30 1932 H 191.641 -0.461847 5.63812 0
M  V30 1933 H 190.198 -0.148158 6.51632 0
M  V30 1934 N 193.631 -1.12557 1.10312 0
M  V30 1935 C 194.877 -1.84311 0.846011 0
M  V30 1936 C 195.21 -1.83805 -0.626859 0
M  V30 1937 O 194.485 -1.28268 -1.46211 0
M  V30 1938 C 194.768 -3.32048 1.39341 0
M  V30 1939 C 194.621 -3.41016 2.93305 0
M  V30 1940 C 195.94 -4.27764 1.03468 0
M  V30 1941 H 193.059 -0.669192 0.30879 0
M  V30 1942 H 195.701 -1.32057 1.36605 0
M  V30 1943 H 193.851 -3.76678 0.951087 0
M  V30 1944 H 195.523 -3.05031 3.46055 0
M  V30 1945 H 193.766 -2.81603 3.29973 0
M  V30 1946 H 194.437 -4.44948 3.26689 0
M  V30 1947 H 196.913 -3.91253 1.41633 0
M  V30 1948 H 195.789 -5.29549 1.44463 0
M  V30 1949 H 196.05 -4.42064 -0.0560404 0
M  V30 1950 N 195.109 -0.891671 -1.2995 0
M  V30 1951 C 196.355 -0.514261 -1.96171 0
M  V30 1952 C 196.688 0.935506 -1.70182 0
M  V30 1953 O 195.963 1.66204 -1.01028 0
M  V30 1954 C 196.246 -0.797719 -3.51153 0
M  V30 1955 C 196.099 -2.2986 -3.86632 0
M  V30 1956 C 197.418 -0.278749 -4.39216 0
M  V30 1957 H 194.537 -0.188314 -0.712535 0
M  V30 1958 H 197.179 -1.11689 -1.53706 0
M  V30 1959 H 195.329 -0.284826 -3.87455 0
M  V30 1960 H 197.001 -2.88042 -3.60319 0
M  V30 1961 H 195.244 -2.76257 -3.34462 0
M  V30 1962 H 195.915 -2.44753 -4.94773 0
M  V30 1963 H 198.391 -0.717825 -4.09862 0
M  V30 1964 H 197.267 -0.506353 -5.46559 0
M  V30 1965 H 197.528 0.820266 -4.34424 0
M  V30 1966 N 196.587 1.43421 -0.653314 0
M  V30 1967 C 197.864 1.95361 -0.0966581 0
M  V30 1968 C 198.244 1.59461 1.38331 0
M  V30 1969 O 197.592 0.879777 2.10884 0
M  V30 1970 C 197.802 3.47311 -0.342988 0
M  V30 1971 C 199.15 4.23875 -0.24798 0
M  V30 1972 O 200.174 3.55133 -0.275553 0
M  V30 1973 O 199.033 5.4623 -0.171771 0
M  V30 1974 H 196.127 0.826945 0.00956291 0
M  V30 1975 H 198.673 1.5336 -0.726558 0
M  V30 1976 H 197.445 3.66569 -1.36906 0
M  V30 1977 H 197.068 3.9631 0.319975 0
M  V30 1978 N 198.065 0.39524 1.52563 0
M  V30 1979 C 199.476 -0.0774719 1.86539 0
M  V30 1980 C 199.827 -1.45641 1.31466 0
M  V30 1981 O 198.952 -2.06459 0.648367 0
M  V30 1982 C 199.547 -0.147356 3.38479 0
M  V30 1983 C 198.106 -0.564373 3.72145 0
M  V30 1984 C 197.253 0.269919 2.75983 0
M  V30 1985 H 200.204 0.612876 1.46388 0
M  V30 1986 H 200.225 -0.965343 3.68051 0
M  V30 1987 H 199.737 0.856387 3.78534 0
M  V30 1988 H 197.838 -1.57527 3.37663 0
M  V30 1989 H 197.951 -0.318402 4.78041 0
M  V30 1990 H 196.315 -0.265696 2.5331 0
M  V30 1991 H 197.098 1.27175 3.18875 0
M  V30 1992 N 199.544 -1.57102 0.125237 0
M  V30 1993 C 200.793 -1.94582 -0.531095 0
M  V30 1994 C 201.106 -1.01126 -1.6743 0
M  V30 1995 O 202.312 -1.28097 -2.39381 0
M  V30 1996 C 200.768 -3.45839 -0.996164 0
M  V30 1997 C 200.376 -4.47842 0.118926 0
M  V30 1998 C 202.12 -3.92227 -1.62352 0
M  V30 1999 C 200.027 -5.90284 -0.363192 0
M  V30 2000 H 198.957 -0.726391 -0.20217 0
M  V30 2001 H 201.608 -1.82339 0.206092 0
M  V30 2002 H 199.99 -3.53338 -1.78796 0
M  V30 2003 H 201.164 -4.52018 0.895358 0
M  V30 2004 H 199.479 -4.11243 0.653324 0
M  V30 2005 H 202.076 -4.96069 -1.99548 0
M  V30 2006 H 202.419 -3.32552 -2.50429 0
M  V30 2007 H 202.952 -3.87554 -0.897019 0
M  V30 2008 H 199.691 -6.53728 0.481679 0
M  V30 2009 H 199.211 -5.89515 -1.10597 0
M  V30 2010 H 200.89 -6.41752 -0.822377 0
M  V30 2011 N 201.022 0.148545 -1.56898 0
M  V30 2012 C 201.954 1.20852 -1.9475 0
M  V30 2013 C 202.967 1.39265 -0.843152 0
M  V30 2014 O 204.156 1.38864 -1.12156 0
M  V30 2015 C 201.256 2.57362 -2.20495 0
M  V30 2016 C 200.429 2.59947 -3.51776 0
M  V30 2017 C 199.488 3.77984 -3.6608 0
M  V30 2018 O 198.514 3.62929 -4.38487 0
M  V30 2019 N 199.716 4.95375 -3.02629 0
M  V30 2020 H 202.481 0.886804 -2.86279 0
M  V30 2021 H 200.042 0.338121 -1.5833 0
M  V30 2022 H 202.034 3.34833 -2.27307 0
M  V30 2023 H 200.604 2.81832 -1.35238 0
M  V30 2024 H 199.824 1.68403 -3.56419 0
M  V30 2025 H 201.112 2.58704 -4.38121 0
M  V30 2026 H 200.51 5.10509 -2.43715 0
M  V30 2027 H 199.067 5.70627 -3.15004 0
M  V30 2028 N 202.5 1.5196 0.417844 0
M  V30 2029 C 203.728 1.69426 1.18753 0
M  V30 2030 C 204.143 0.399955 1.84515 0
M  V30 2031 O 203.5 -0.623288 1.71527 0
M  V30 2032 C 203.551 2.82375 2.25714 0
M  V30 2033 O 203.272 4.06793 1.62638 0
M  V30 2034 C 204.773 3.11277 3.15628 0
M  V30 2035 H 201.993 0.568031 0.357186 0
M  V30 2036 H 204.537 1.98475 0.49273 0
M  V30 2037 H 202.692 2.5587 2.90877 0
M  V30 2038 H 203.106 4.69667 2.3348 0
M  V30 2039 H 204.58 3.93843 3.86771 0
M  V30 2040 H 205.057 2.24473 3.77503 0
M  V30 2041 H 205.663 3.39515 2.56144 0
M  V30 2042 N 203.978 -0.674533 1.42435 0
M  V30 2043 C 205.255 -1.4305 1.33402 0
M  V30 2044 C 205.635 -2.11081 -0.0284674 0
M  V30 2045 O 204.983 -2.03257 -1.04397 0
M  V30 2046 C 205.193 -2.43272 2.50239 0
M  V30 2047 C 206.541 -3.07907 2.92367 0
M  V30 2048 O 207.565 -2.53599 2.50132 0
M  V30 2049 O 206.424 -4.0632 3.65467 0
M  V30 2050 H 203.518 -0.638076 0.526106 0
M  V30 2051 H 206.064 -0.703235 1.54443 0
M  V30 2052 H 204.836 -1.91803 3.41068 0
M  V30 2053 H 204.459 -3.23479 2.31186 0
M  V30 2054 N 205.456 -1.28612 -0.910864 0
M  V30 2055 C 206.867 -1.14406 -1.47541 0
M  V30 2056 C 207.218 0.264901 -1.94403 0
M  V30 2057 O 206.343 1.15942 -1.82719 0
M  V30 2058 C 206.938 -2.07073 -2.68153 0
M  V30 2059 C 205.497 -1.96923 -3.20778 0
M  V30 2060 C 204.644 -1.98646 -1.93481 0
M  V30 2061 H 207.595 -1.41259 -0.723291 0
M  V30 2062 H 207.616 -1.63642 -3.43514 0
M  V30 2063 H 207.128 -3.09611 -2.34015 0
M  V30 2064 H 205.229 -0.97433 -3.59635 0
M  V30 2065 H 205.342 -2.84026 -3.85832 0
M  V30 2066 H 203.706 -1.43093 -2.10705 0
M  V30 2067 H 204.489 -3.02868 -1.61634 0
M  V30 2068 N 206.934 1.1197 -1.10907 0
M  V30 2069 C 208.181 1.83588 -0.854507 0
M  V30 2070 C 208.509 1.84357 0.6199 0
M  V30 2071 O 207.764 1.28809 1.47332 0
M  V30 2072 C 208.063 3.30749 -1.35425 0
M  V30 2073 C 207.729 3.50146 -2.84093 0
M  V30 2074 C 206.391 3.55148 -3.2469 0
M  V30 2075 C 208.743 3.56857 -3.79872 0
M  V30 2076 C 206.071 3.6441 -4.59806 0
M  V30 2077 C 208.423 3.6765 -5.14797 0
M  V30 2078 C 207.087 3.7091 -5.54961 0
M  V30 2079 H 206.357 0.671795 -0.312686 0
M  V30 2080 H 209.004 1.32091 -1.38652 0
M  V30 2081 H 207.309 3.84703 -0.742361 0
M  V30 2082 H 209.006 3.8464 -1.1337 0
M  V30 2083 H 205.596 3.46919 -2.51685 0
M  V30 2084 H 209.78 3.52258 -3.49611 0
M  V30 2085 H 205.036 3.65208 -4.9034 0
M  V30 2086 H 209.21 3.71786 -5.88853 0
M  V30 2087 H 206.837 3.7784 -6.59652 0
M  V30 2088 N 208.412 0.89855 1.29475 0
M  V30 2089 C 209.359 0.373819 2.27753 0
M  V30 2090 C 210.329 -0.543444 1.56958 0
M  V30 2091 O 211.514 -0.468934 1.84948 0
M  V30 2092 C 208.654 -0.393648 3.42848 0
M  V30 2093 C 207.767 0.554379 4.28428 0
M  V30 2094 C 206.902 -0.230026 5.30702 0
M  V30 2095 C 205.941 0.712599 6.07938 0
M  V30 2096 N 205.078 -0.0373283 7.0209 0
M  V30 2097 H 209.918 1.21699 2.72017 0
M  V30 2098 H 207.455 0.611456 1.33789 0
M  V30 2099 H 209.413 -0.85466 4.08352 0
M  V30 2100 H 208.043 -1.20128 2.99615 0
M  V30 2101 H 207.095 1.13391 3.63107 0
M  V30 2102 H 208.407 1.27597 4.82204 0
M  V30 2103 H 207.561 -0.752288 6.02018 0
M  V30 2104 H 206.3 -0.984758 4.77654 0
M  V30 2105 H 205.305 1.24637 5.35486 0
M  V30 2106 H 206.53 1.46664 6.63074 0
M  V30 2107 H 204.476 -0.774348 6.51414 0
M  V30 2108 H 204.393 0.624374 7.53417 0
M  V30 2109 H 205.661 -0.539891 7.77628 0
M  V30 2110 N 209.89 -1.43072 0.660911 0
M  V30 2111 C 210.823 -2.28074 -0.0758862 0
M  V30 2112 C 211.801 -1.40271 -0.822362 0
M  V30 2113 O 212.985 -1.69713 -0.820352 0
M  V30 2114 C 210.112 -3.19843 -1.11437 0
M  V30 2115 C 209.158 -4.23957 -0.465069 0
M  V30 2116 S 209.991 -5.29978 0.767078 0
M  V30 2117 C 211.147 -6.25314 -0.270682 0
M  V30 2118 H 211.38 -2.90216 0.645139 0
M  V30 2119 H 208.913 -1.47697 0.449995 0
M  V30 2120 H 210.871 -3.73257 -1.70849 0
M  V30 2121 H 209.532 -2.56863 -1.80776 0
M  V30 2122 H 208.725 -4.88299 -1.24819 0
M  V30 2123 H 208.327 -3.73959 0.0551242 0
M  V30 2124 H 210.619 -6.67932 -1.13459 0
M  V30 2125 H 211.562 -7.07293 0.337916 0
M  V30 2126 H 211.97 -5.61195 -0.609937 0
M  V30 2127 N 211.368 -0.403325 -1.52352 0
M  V30 2128 C 212.598 0.17376 -2.05868 0
M  V30 2129 C 213.006 1.39898 -1.27378 0
M  V30 2130 O 212.349 1.80939 -0.31729 0
M  V30 2131 C 212.411 0.594756 -3.54546 0
M  V30 2132 C 212.075 -0.518926 -4.54044 0
M  V30 2133 C 213.072 -1.3807 -5.01231 0
M  V30 2134 C 210.757 -0.689961 -4.97539 0
M  V30 2135 C 212.751 -2.39852 -5.90551 0
M  V30 2136 C 210.438 -1.71109 -5.86656 0
M  V30 2137 C 211.436 -2.56378 -6.33056 0
M  V30 2138 O 211.124 -3.56743 -7.20409 0
M  V30 2139 H 210.856 0.0264951 -0.675481 0
M  V30 2140 H 213.41 -0.571179 -1.97299 0
M  V30 2141 H 211.64 1.39189 -3.60782 0
M  V30 2142 H 213.329 1.0991 -3.90736 0
M  V30 2143 H 214.095 -1.25994 -4.68349 0
M  V30 2144 H 209.974 -0.035939 -4.60986 0
M  V30 2145 H 213.518 -3.06441 -6.26689 0
M  V30 2146 H 209.415 -1.83218 -6.18952 0
M  V30 2147 H 210.183 -3.52918 -7.38506 0
M  V30 2148 N 212.846 1.57033 -0.133567 0
M  V30 2149 C 213.796 2.12641 0.822671 0
M  V30 2150 C 214.78 1.05081 1.21847 0
M  V30 2151 O 215.972 1.31287 1.18713 0
M  V30 2152 C 213.101 2.74094 2.06706 0
M  V30 2153 C 212.187 3.88757 1.69497 0
M  V30 2154 N 212.578 4.95194 1.03037 0
M  V30 2155 C 210.876 3.99213 1.98859 0
M  V30 2156 C 211.577 5.75414 0.852873 0
M  V30 2157 N 210.553 5.25726 1.3825 0
M  V30 2158 H 214.355 2.92308 0.305537 0
M  V30 2159 H 211.869 1.62256 0.0684276 0
M  V30 2160 H 213.866 3.12285 2.76195 0
M  V30 2161 H 212.526 1.95896 2.5895 0
M  V30 2162 H 213.537 5.13247 0.692669 0
M  V30 2163 H 210.214 3.32075 2.53047 0
M  V30 2164 H 211.604 6.71089 0.330091 0
M  V30 2165 N 214.325 -0.140222 1.56975 0
M  V30 2166 C 215.602 -0.880769 1.74648 0
M  V30 2167 C 215.982 -1.99036 0.703404 0
M  V30 2168 O 215.33 -2.26821 -0.27648 0
M  V30 2169 C 215.54 -1.417 3.18939 0
M  V30 2170 C 216.888 -1.87774 3.80823 0
M  V30 2171 O 217.912 -1.51427 3.2241 0
M  V30 2172 O 216.771 -2.54827 4.83452 0
M  V30 2173 H 213.865 -0.416713 0.714338 0
M  V30 2174 H 216.411 -0.125618 1.69234 0
M  V30 2175 H 215.183 -0.619902 3.86359 0
M  V30 2176 H 214.806 -2.23546 3.28805 0
M  V30 2177 N 215.803 -1.52179 -0.40978 0
M  V30 2178 C 217.08 -1.56769 -1.16974 0
M  V30 2179 C 217.46 -0.348322 -2.08206 0
M  V30 2180 O 216.808 0.664862 -2.18613 0
M  V30 2181 C 217.018 -2.89603 -1.9476 0
M  V30 2182 C 218.366 -3.42579 -2.50849 0
M  V30 2183 O 219.39 -2.91338 -2.04941 0
M  V30 2184 O 218.249 -4.32054 -3.34652 0
M  V30 2185 H 215.343 -0.631439 -0.534054 0
M  V30 2186 H 217.889 -1.64507 -0.416613 0
M  V30 2187 H 216.661 -3.698 -1.27921 0
M  V30 2188 H 216.284 -2.85155 -2.77079 0
M  V30 2189 N 217.281 0.66697 -1.42791 0
M  V30 2190 C 218.558 1.4234 -1.34159 0
M  V30 2191 C 218.938 2.11093 0.0172729 0
M  V30 2192 O 218.286 2.03808 1.03318 0
M  V30 2193 C 218.496 2.41942 -2.51526 0
M  V30 2194 C 219.844 3.06353 -2.93995 0
M  V30 2195 O 220.868 2.52269 -2.51473 0
M  V30 2196 O 219.727 4.04376 -3.67617 0
M  V30 2197 H 216.821 0.635277 -0.529483 0
M  V30 2198 H 219.367 0.695034 -1.54814 0
M  V30 2199 H 218.139 1.89991 -3.42081 0
M  V30 2200 H 217.762 3.22249 -2.32898 0
M  V30 2201 N 218.759 1.29093 0.90403 0
M  V30 2202 C 219.689 1.16401 2.02418 0
M  V30 2203 C 220.67 0.0593085 1.69997 0
M  V30 2204 O 221.855 0.238021 1.92736 0
M  V30 2205 C 218.985 0.835233 3.37107 0
M  V30 2206 C 217.939 1.89578 3.83724 0
M  V30 2207 C 217.265 1.42041 5.15489 0
M  V30 2208 C 218.565 3.30394 4.04521 0
M  V30 2209 H 220.259 2.10109 2.13295 0
M  V30 2210 H 217.805 1.01157 1.02486 0
M  V30 2211 H 219.758 0.733169 4.14973 0
M  V30 2212 H 218.482 -0.137543 3.2631 0
M  V30 2213 H 217.141 1.98715 3.08071 0
M  V30 2214 H 216.789 0.436426 5.01103 0
M  V30 2215 H 216.489 2.12964 5.4765 0
M  V30 2216 H 218.013 1.33176 5.959 0
M  V30 2217 H 219.427 3.24123 4.72882 0
M  V30 2218 H 217.824 3.99237 4.48029 0
M  V30 2219 H 218.894 3.73692 3.09002 0
M  V30 2220 N 220.237 -1.11381 1.11499 0
M  V30 2221 C 221.2 -2.15622 0.777153 0
M  V30 2222 C 222.2 -1.59504 -0.203779 0
M  V30 2223 O 223.39 -1.74188 0.020782 0
M  V30 2224 C 220.522 -3.40556 0.153116 0
M  V30 2225 H 221.715 -2.47021 1.70061 0
M  V30 2226 H 219.268 -1.26577 0.916952 0
M  V30 2227 H 220.003 -3.14767 -0.780536 0
M  V30 2228 H 219.788 -3.8257 0.859238 0
M  V30 2229 H 221.278 -4.17546 -0.0671044 0
M  V30 2230 N 221.715 -0.905404 -1.28997 0
M  V30 2231 C 222.992 -0.453513 -1.9027 0
M  V30 2232 C 223.372 1.06721 -1.82137 0
M  V30 2233 O 222.72 1.91159 -1.25182 0
M  V30 2234 C 222.93 -0.974494 -3.35119 0
M  V30 2235 C 224.278 -1.0216 -4.12127 0
M  V30 2236 O 225.302 -0.922557 -3.44046 0
M  V30 2237 O 224.161 -1.17121 -5.33802 0
M  V30 2238 H 221.255 -0.142347 -0.814657 0
M  V30 2239 H 223.801 -0.995642 -1.37423 0
M  V30 2240 H 222.573 -2.01848 -3.35221 0
M  V30 2241 H 222.196 -0.412706 -3.95452 0
M  V30 2242 N 223.193 1.4272 -0.668489 0
M  V30 2243 C 224.123 2.335 -0.000100175 0
M  V30 2244 C 225.104 1.50328 0.795964 0
M  V30 2245 O 226.289 1.78949 0.754385 0
M  V30 2246 C 223.419 3.33874 0.956302 0
M  V30 2247 C 222.373 4.27152 0.269278 0
M  V30 2248 C 221.699 5.17684 1.33818 0
M  V30 2249 C 222.999 5.15373 -0.847805 0
M  V30 2250 H 224.693 2.89639 -0.758244 0
M  V30 2251 H 222.239 1.39269 -0.366079 0
M  V30 2252 H 224.192 3.9629 1.43292 0
M  V30 2253 H 222.916 2.76025 1.74579 0
M  V30 2254 H 221.575 3.66123 -0.187042 0
M  V30 2255 H 221.223 4.56165 2.1195 0
M  V30 2256 H 220.923 5.80918 0.883659 0
M  V30 2257 H 222.447 5.82974 1.81586 0
M  V30 2258 H 223.861 5.7151 -0.452681 0
M  V30 2259 H 222.258 5.87407 -1.22773 0
M  V30 2260 H 223.328 4.5415 -1.69929 0
M  V30 2261 N 224.671 0.411399 1.52136 0
M  V30 2262 C 225.917 -0.163888 2.02137 0
M  V30 2263 C 226.25 -1.44597 1.29636 0
M  V30 2264 O 225.525 -1.90272 0.403353 0
M  V30 2265 C 225.808 -0.40927 3.57767 0
M  V30 2266 C 225.661 0.889643 4.40914 0
M  V30 2267 C 226.98 -1.19042 4.23694 0
M  V30 2268 H 224.099 -0.0580896 0.734707 0
M  V30 2269 H 226.741 0.54531 1.82007 0
M  V30 2270 H 224.891 -1.0134 3.7505 0
M  V30 2271 H 226.563 1.52575 4.35337 0
M  V30 2272 H 224.806 1.50011 4.07037 0
M  V30 2273 H 225.477 0.672314 5.4789 0
M  V30 2274 H 227.953 -0.678942 4.10524 0
M  V30 2275 H 226.829 -1.33086 5.32522 0
M  V30 2276 H 227.09 -2.21166 3.82803 0
M  V30 2277 N 226.149 -1.5696 0.141893 0
M  V30 2278 C 227.396 -1.9596 -0.510492 0
M  V30 2279 C 227.724 -1.02648 -1.65208 0
M  V30 2280 O 226.979 -0.0546947 -1.95624 0
M  V30 2281 C 227.278 -3.41242 -1.06249 0
M  V30 2282 C 226.944 -4.50882 -0.0398791 0
M  V30 2283 C 225.606 -4.80595 0.241247 0
M  V30 2284 C 227.958 -5.17058 0.65578 0
M  V30 2285 C 225.286 -5.73792 1.22393 0
M  V30 2286 C 227.638 -6.11313 1.62724 0
M  V30 2287 C 226.302 -6.39407 1.91612 0
M  V30 2288 H 225.572 -0.717068 -0.186802 0
M  V30 2289 H 228.219 -1.90142 0.227643 0
M  V30 2290 H 226.524 -3.43866 -1.87785 0
M  V30 2291 H 228.221 -3.68742 -1.57576 0
M  V30 2292 H 224.811 -4.27754 -0.269174 0
M  V30 2293 H 228.995 -4.94239 0.451779 0
M  V30 2294 H 224.251 -5.93853 1.45424 0
M  V30 2295 H 228.425 -6.61668 2.17183 0
M  V30 2296 H 226.052 -7.11427 2.6791 0
M  V30 2297 N 227.627 0.131896 -1.57047 0
M  V30 2298 C 229.038 0.690407 -1.73465 0
M  V30 2299 C 229.389 1.8094 -0.758629 0
M  V30 2300 O 228.514 2.16282 0.0713813 0
M  V30 2301 C 229.109 1.25916 -3.14532 0
M  V30 2302 C 227.668 1.76409 -3.32501 0
M  V30 2303 C 226.815 0.658579 -2.69366 0
M  V30 2304 H 229.766 -0.0939144 -1.58422 0
M  V30 2305 H 229.787 2.12892 -3.15369 0
M  V30 2306 H 229.299 0.444515 -3.85546 0
M  V30 2307 H 227.4 2.60391 -2.66509 0
M  V30 2308 H 227.513 1.88241 -4.4057 0
M  V30 2309 H 225.877 1.08899 -2.30246 0
M  V30 2310 H 226.66 -0.14487 -3.42994 0
M  V30 2311 N 229.106 1.52395 0.401703 0
M  V30 2312 C 230.331 1.70972 1.17403 0
M  V30 2313 C 230.756 0.421615 1.83314 0
M  V30 2314 O 230.114 -0.621564 1.70312 0
M  V30 2315 C 230.162 2.85151 2.20728 0
M  V30 2316 O 229.266 2.51238 3.27037 0
M  V30 2317 H 228.607 0.568927 0.342372 0
M  V30 2318 H 231.137 1.99131 0.469891 0
M  V30 2319 H 231.147 3.10279 2.64936 0
M  V30 2320 H 229.822 3.78603 1.7214 0
M  V30 2321 H 228.399 2.36808 2.88057 0
M  V30 2322 N 230.584 -0.659388 1.43143 0
M  V30 2323 C 231.809 -1.45221 1.48073 0
M  V30 2324 C 232.234 -1.87845 0.097995 0
M  V30 2325 O 231.592 -1.56985 -0.90694 0
M  V30 2326 C 231.64 -2.66748 2.42647 0
M  V30 2327 O 230.744 -3.65583 1.90848 0
M  V30 2328 H 230.085 -0.435669 0.501088 0
M  V30 2329 H 232.615 -0.807432 1.87994 0
M  V30 2330 H 232.625 -3.14637 2.59745 0
M  V30 2331 H 231.3 -2.35067 3.43098 0
M  V30 2332 H 229.877 -3.24693 1.83381 0
M  V30 2333 N 232.062 -1.29571 -0.897171 0
M  V30 2334 C 233.025 -1.14913 -1.98312 0
M  V30 2335 C 234.025 -0.0838629 -1.60581 0
M  V30 2336 O 235.215 -0.331006 -1.71026 0
M  V30 2337 C 232.347 -0.757835 -3.3237 0
M  V30 2338 H 233.54 -2.11377 -2.12743 0
M  V30 2339 H 231.093 -1.12793 -1.08201 0
M  V30 2340 H 231.828 0.206837 -3.2364 0
M  V30 2341 H 231.613 -1.52755 -3.61121 0
M  V30 2342 H 233.103 -0.678408 -4.12053 0
M  V30 2343 N 233.54 1.10788 -1.12088 0
M  V30 2344 C 234.768 1.86461 -0.896651 0
M  V30 2345 C 235.183 1.80492 0.553912 0
M  V30 2346 O 234.54 1.19102 1.38278 0
M  V30 2347 C 234.591 3.35006 -1.35843 0
M  V30 2348 O 234.312 3.40866 -2.75213 0
M  V30 2349 C 235.813 4.27565 -1.1706 0
M  V30 2350 H 233.033 0.589425 -0.320654 0
M  V30 2351 H 235.577 1.40076 -1.48993 0
M  V30 2352 H 233.732 3.7887 -0.808458 0
M  V30 2353 H 234.146 4.33411 -2.9539 0
M  V30 2354 H 235.62 5.30007 -1.54263 0
M  V30 2355 H 236.097 4.3906 -0.110814 0
M  V30 2356 H 236.703 3.89501 -1.70789 0
M  V30 2357 N 235.018 0.912232 1.28515 0
M  V30 2358 C 235.981 0.404223 2.25607 0
M  V30 2359 C 236.981 -0.468602 1.53821 0
M  V30 2360 O 238.171 -0.271873 1.72065 0
M  V30 2361 C 235.303 -0.420653 3.38295 0
M  V30 2362 H 236.496 1.26188 2.7206 0
M  V30 2363 H 234.049 0.691495 1.40171 0
M  V30 2364 H 234.784 -1.29777 2.97201 0
M  V30 2365 H 234.569 0.204935 3.91564 0
M  V30 2366 H 236.059 -0.766971 4.10496 0
M  V30 2367 N 236.496 -1.42363 0.676048 0
M  V30 2368 C 237.773 -1.95183 0.127726 0
M  V30 2369 C 238.153 -1.61641 -1.35777 0
M  V30 2370 O 237.501 -0.913216 -2.09458 0
M  V30 2371 C 237.711 -3.46721 0.398199 0
M  V30 2372 C 239.059 -4.23427 0.315383 0
M  V30 2373 O 240.083 -3.54649 0.332016 0
M  V30 2374 O 238.942 -5.45888 0.25865 0
M  V30 2375 H 236.036 -0.826992 0.00359427 0
M  V30 2376 H 238.582 -1.52184 0.750864 0
M  V30 2377 H 237.354 -3.64344 1.4272 0
M  V30 2378 H 236.977 -3.96769 -0.256885 0
M  V30 2379 N 237.974 -0.419461 -1.51915 0
M  V30 2380 C 239.202 0.152136 -2.0634 0
M  V30 2381 C 239.617 1.37988 -1.28859 0
M  V30 2382 O 238.974 1.79243 -0.343232 0
M  V30 2383 C 239.025 0.492266 -3.58133 0
M  V30 2384 O 238.746 -0.686736 -4.32684 0
M  V30 2385 C 240.247 1.11648 -4.2901 0
M  V30 2386 H 237.467 0.0158325 -0.670813 0
M  V30 2387 H 240.011 -0.593394 -1.95702 0
M  V30 2388 H 238.166 1.18769 -3.68745 0
M  V30 2389 H 238.58 -0.400341 -5.2297 0
M  V30 2390 H 240.054 1.3046 -5.36362 0
M  V30 2391 H 240.531 2.09251 -3.86148 0
M  V30 2392 H 241.137 0.460958 -4.22795 0
M  V30 2393 N 239.452 1.56882 -0.150215 0
M  V30 2394 C 240.677 2.01027 0.510184 0
M  V30 2395 C 241.102 1.02966 1.57415 0
M  V30 2396 O 240.46 0.00590158 1.81299 0
M  V30 2397 C 240.508 3.43899 1.08472 0
M  V30 2398 O 239.612 3.4885 2.19948 0
M  V30 2399 H 238.953 0.652233 0.124451 0
M  V30 2400 H 241.483 2.03093 -0.247894 0
M  V30 2401 H 241.493 3.82766 1.41259 0
M  V30 2402 H 240.168 4.14776 0.305582 0
M  V30 2403 H 238.745 3.21827 1.88366 0
M  V30 2404 N 240.93 -0.123565 1.57115 0
M  V30 2405 C 242.179 -0.830704 1.83799 0
M  V30 2406 C 242.492 -1.81259 0.735158 0
M  V30 2407 O 243.698 -2.56558 0.888278 0
M  V30 2408 C 242.154 -1.52802 3.25852 0
M  V30 2409 C 241.762 -0.587356 4.44133 0
M  V30 2410 C 243.506 -2.22056 3.61789 0
M  V30 2411 C 241.413 -1.28764 5.77212 0
M  V30 2412 H 240.343 -0.313967 0.685522 0
M  V30 2413 H 242.994 -0.0834359 1.8331 0
M  V30 2414 H 241.376 -2.32175 3.20797 0
M  V30 2415 H 242.55 0.172829 4.60476 0
M  V30 2416 H 240.865 -0.00201892 4.164 0
M  V30 2417 H 243.462 -2.75131 4.58483 0
M  V30 2418 H 243.805 -2.99644 2.88997 0
M  V30 2419 H 244.338 -1.49576 3.68608 0
M  V30 2420 H 241.077 -0.55314 6.53162 0
M  V30 2421 H 240.597 -2.01995 5.64764 0
M  V30 2422 H 242.276 -1.8221 6.20813 0
M  V30 2423 N 242.408 -1.52605 -0.393616 0
M  V30 2424 C 243.655 -1.67424 -1.1391 0
M  V30 2425 C 243.983 -0.411859 -1.90089 0
M  V30 2426 O 243.238 0.605626 -1.86093 0
M  V30 2427 C 243.537 -2.85721 -2.14705 0
M  V30 2428 C 243.203 -4.23342 -1.55218 0
M  V30 2429 C 241.865 -4.60771 -1.3872 0
M  V30 2430 C 244.217 -5.09041 -1.11924 0
M  V30 2431 C 241.545 -5.81563 -0.774689 0
M  V30 2432 C 243.897 -6.30452 -0.520853 0
M  V30 2433 C 242.561 -6.66617 -0.343134 0
M  V30 2434 H 241.831 -0.612648 -0.416826 0
M  V30 2435 H 244.478 -1.8674 -0.424315 0
M  V30 2436 H 242.783 -2.60803 -2.92385 0
M  V30 2437 H 244.48 -2.94382 -2.72288 0
M  V30 2438 H 241.07 -3.93855 -1.69045 0
M  V30 2439 H 245.254 -4.80695 -1.23473 0
M  V30 2440 H 240.51 -6.08196 -0.625154 0
M  V30 2441 H 244.684 -6.96175 -0.177065 0
M  V30 2442 H 242.311 -7.60083 0.133571 0
M  V30 2443 N 243.887 0.651787 -1.4349 0
M  V30 2444 C 244.85 1.74647 -1.48429 0
M  V30 2445 C 245.85 1.56513 -0.368817 0
M  V30 2446 O 247.04 1.62385 -0.630623 0
M  V30 2447 C 244.172 3.13533 -1.33827 0
M  V30 2448 H 245.365 1.71649 -2.4592 0
M  V30 2449 H 242.918 0.863573 -1.30277 0
M  V30 2450 H 243.653 3.22142 -0.37349 0
M  V30 2451 H 243.438 3.28101 -2.14691 0
M  V30 2452 H 244.928 3.93356 -1.40218 0
M  V30 2453 N 245.365 1.30045 0.890287 0
M  V30 2454 C 246.613 1.18327 1.63839 0
M  V30 2455 C 246.934 -0.263455 1.93212 0
M  V30 2456 O 246.204 -1.17856 1.56482 0
M  V30 2457 H 244.784 0.434933 0.607324 0
M  V30 2458 H 247.446 1.631 1.06698 0
M  V30 2459 H 246.542 1.74024 2.59079 0
M  V30 2460 N 246.843 -1.10192 1.12674 0
M  V30 2461 C 247.775 -2.16418 0.754701 0
M  V30 2462 C 248.788 -1.61309 -0.21986 0
M  V30 2463 O 249.977 -1.785 -0.000826841 0
M  V30 2464 C 247.077 -3.38762 0.096698 0
M  V30 2465 C 246.25 -4.23307 1.10136 0
M  V30 2466 C 245.309 -5.24092 0.470513 0
M  V30 2467 O 244.335 -5.57906 1.12824 0
M  V30 2468 N 245.537 -5.75491 -0.760948 0
M  V30 2469 H 248.302 -2.48943 1.66875 0
M  V30 2470 H 245.863 -1.25834 1.01869 0
M  V30 2471 H 247.855 -4.03291 -0.337384 0
M  V30 2472 H 246.425 -3.04192 -0.720153 0
M  V30 2473 H 245.645 -3.55036 1.71299 0
M  V30 2474 H 246.933 -4.76624 1.78064 0
M  V30 2475 H 246.331 -5.50222 -1.31424 0
M  V30 2476 H 244.888 -6.41792 -1.13781 0
M  V30 2477 N 248.321 -0.919034 -1.28029 0
M  V30 2478 C 249.269 -0.401753 -2.29104 0
M  V30 2479 C 250.263 0.509354 -1.61561 0
M  V30 2480 O 251.469 0.390014 -1.75724 0
M  V30 2481 H 247.844 -0.111331 -0.743713 0
M  V30 2482 H 249.815 -1.2672 -2.70156 0
M  V30 2483 C 248.564 0.338148 -3.46052 0
M  V30 2484 H 247.887 -0.353732 -3.98232 0
M  V30 2485 H 249.327 0.664653 -4.18758 0
M  V30 2486 C 247.786 1.54798 -2.99231 0
M  V30 2487 O 248.316 2.64696 -3.02157 0
M  V30 2488 N 246.522 1.3968 -2.54829 0
M  V30 2489 H 246.069 0.502698 -2.52647 0
M  V30 2490 H 246.027 2.20755 -2.23863 0
M  V30 2491 N 249.799 1.42003 -0.683588 0
M  V30 2492 C 251.076 1.95112 -0.138075 0
M  V30 2493 C 251.456 1.62359 1.34918 0
M  V30 2494 O 250.804 0.924311 2.08971 0
M  V30 2495 C 251.014 3.46505 -0.416581 0
M  V30 2496 C 252.362 4.23254 -0.337834 0
M  V30 2497 O 253.386 3.54468 -0.35082 0
M  V30 2498 O 252.245 5.45743 -0.287596 0
M  V30 2499 H 249.339 0.826961 -0.00797996 0
M  V30 2500 H 251.885 1.51784 -0.758924 0
M  V30 2501 H 250.657 3.63582 -1.4465 0
M  V30 2502 H 250.28 3.969 0.235839 0
M  V30 2503 N 251.277 0.427512 1.51691 0
M  V30 2504 C 252.688 -0.0378867 1.86662 0
M  V30 2505 C 253.039 -1.42819 1.34525 0
M  V30 2506 O 252.164 -2.05037 0.692014 0
M  V30 2507 C 252.759 -0.0755266 3.38716 0
M  V30 2508 C 251.318 -0.485309 3.73258 0
M  V30 2509 C 250.465 0.328399 2.75349 0
M  V30 2510 H 253.416 0.64379 1.45055 0
M  V30 2511 H 253.437 -0.887056 3.70016 0
M  V30 2512 H 252.949 0.936487 3.76632 0
M  V30 2513 H 251.05 -1.50329 3.40928 0
M  V30 2514 H 251.163 -0.21693 4.78609 0
M  V30 2515 H 249.527 -0.211905 2.53817 0
M  V30 2516 H 250.31 1.3391 3.16106 0
M  V30 2517 N 252.755 -1.56801 0.158532 0
M  V30 2518 C 253.685 -2.20347 -0.772609 0
M  V30 2519 C 254.666 -1.15518 -1.24859 0
M  V30 2520 O 255.851 -1.43902 -1.30406 0
M  V30 2521 C 252.981 -2.83417 -2.00729 0
M  V30 2522 C 251.935 -3.94174 -1.66765 0
M  V30 2523 C 251.261 -4.44233 -2.97592 0
M  V30 2524 C 252.561 -5.14392 -0.905447 0
M  V30 2525 H 254.255 -2.98413 -0.242959 0
M  V30 2526 H 251.801 -1.43537 -0.115419 0
M  V30 2527 H 253.754 -3.26543 -2.6636 0
M  V30 2528 H 252.478 -2.02701 -2.56086 0
M  V30 2529 H 251.137 -3.51684 -1.03508 0
M  V30 2530 H 250.785 -3.60325 -3.50963 0
M  V30 2531 H 250.485 -5.18945 -2.75626 0
M  V30 2532 H 252.009 -4.90037 -3.64274 0
M  V30 2533 H 253.423 -5.5429 -1.46408 0
M  V30 2534 H 251.82 -5.9494 -0.7853 0
M  V30 2535 H 252.89 -4.84795 0.100668 0
M  V30 2536 N 254.233 0.115231 -1.57178 0
M  V30 2537 C 255.18 1.14115 -2.00615 0
M  V30 2538 C 256.15 1.40939 -0.878941 0
M  V30 2539 O 257.335 1.52741 -1.14345 0
M  V30 2540 C 254.475 2.46156 -2.4187 0
M  V30 2541 C 253.588 2.26236 -3.68024 0
M  V30 2542 C 252.723 3.51534 -3.98243 0
M  V30 2543 C 251.762 3.26787 -5.17568 0
M  V30 2544 N 250.899 4.44298 -5.43639 0
M  V30 2545 H 255.739 0.763743 -2.88047 0
M  V30 2546 H 253.276 0.365615 -1.42484 0
M  V30 2547 H 255.234 3.23189 -2.63827 0
M  V30 2548 H 253.864 2.81783 -1.57475 0
M  V30 2549 H 252.916 1.40102 -3.5366 0
M  V30 2550 H 254.228 2.03929 -4.55208 0
M  V30 2551 H 253.382 4.36984 -4.20868 0
M  V30 2552 H 252.121 3.76876 -3.09541 0
M  V30 2553 H 251.126 2.39729 -4.94783 0
M  V30 2554 H 252.351 3.02812 -6.0785 0
M  V30 2555 H 250.297 4.69754 -4.57895 0
M  V30 2556 H 250.214 4.25109 -6.25154 0
M  V30 2557 H 251.482 5.3087 -5.70786 0
M  V30 2558 N 255.711 1.52812 0.385517 0
M  V30 2559 C 256.988 1.5861 1.14465 0
M  V30 2560 C 257.368 0.381402 2.07626 0
M  V30 2561 O 256.716 -0.629999 2.19643 0
M  V30 2562 C 256.926 2.92664 1.90128 0
M  V30 2563 C 258.274 3.46526 2.45367 0
M  V30 2564 O 259.298 2.94562 2.0028 0
M  V30 2565 O 258.157 4.37323 3.27736 0
M  V30 2566 H 255.251 0.639855 0.523941 0
M  V30 2567 H 257.797 1.65149 0.390389 0
M  V30 2568 H 256.569 3.71788 1.22022 0
M  V30 2569 H 256.192 2.89527 2.72507 0
M  V30 2570 N 257.189 -0.644168 1.43834 0
M  V30 2571 C 258.414 -1.43642 1.49605 0
M  V30 2572 C 258.839 -1.8773 0.117913 0
M  V30 2573 O 258.197 -1.57938 -0.890239 0
M  V30 2574 C 258.245 -2.6416 2.45463 0
M  V30 2575 O 257.349 -3.63538 1.94714 0
M  V30 2576 H 256.69 -0.430329 0.50568 0
M  V30 2577 H 259.22 -0.787448 1.8884 0
M  V30 2578 H 259.23 -3.11864 2.63068 0
M  V30 2579 H 257.905 -2.31414 3.45572 0
M  V30 2580 H 256.482 -3.2273 1.86814 0
M  V30 2581 N 258.668 -1.30515 -0.883378 0
M  V30 2582 C 259.898 -1.22182 -1.66599 0
M  V30 2583 C 260.306 0.217507 -1.87946 0
M  V30 2584 O 259.649 1.1554 -1.42815 0
M  V30 2585 C 259.711 -1.88146 -3.06335 0
M  V30 2586 C 259.375 -3.37476 -3.08154 0
M  V30 2587 C 260.372 -4.33443 -2.87094 0
M  V30 2588 C 258.057 -3.7895 -3.29701 0
M  V30 2589 C 260.051 -5.68858 -2.8754 0
M  V30 2590 C 257.738 -5.14482 -3.29776 0
M  V30 2591 C 258.736 -6.09246 -3.0872 0
M  V30 2592 O 258.424 -7.42302 -3.08615 0
M  V30 2593 H 258.156 -0.423898 -0.52658 0
M  V30 2594 H 260.71 -1.72703 -1.11188 0
M  V30 2595 H 258.94 -1.32157 -3.63416 0
M  V30 2596 H 260.629 -1.7391 -3.66756 0
M  V30 2597 H 261.395 -4.02733 -2.70243 0
M  V30 2598 H 257.274 -3.05631 -3.45124 0
M  V30 2599 H 260.818 -6.428 -2.71024 0
M  V30 2600 H 256.715 -5.44832 -3.46163 0
M  V30 2601 H 257.483 -7.5131 -3.24769 0
M  V30 2602 N 260.146 1.09593 -1.13257 0
M  V30 2603 C 261.394 1.81375 -0.891492 0
M  V30 2604 C 261.715 1.86049 0.584009 0
M  V30 2605 O 260.985 1.34481 1.42449 0
M  V30 2606 H 259.565 0.671708 -0.326828 0
M  V30 2607 H 262.227 1.3256 -1.42877 0
M  V30 2608 H 261.323 2.84612 -1.28071 0
M  V30 2609 N 261.624 0.925811 1.2754 0
M  V30 2610 C 262.557 0.367836 2.25216 0
M  V30 2611 C 263.535 -0.534738 1.53556 0
M  V30 2612 O 264.719 -0.475672 1.824 0
M  V30 2613 C 261.846 -0.47298 3.35381 0
M  V30 2614 C 260.892 0.365898 4.24928 0
M  V30 2615 S 261.725 1.78025 5.05042 0
M  V30 2616 C 262.881 0.947068 6.18693 0
M  V30 2617 H 263.114 1.19568 2.72196 0
M  V30 2618 H 260.647 0.727867 1.36167 0
M  V30 2619 H 262.605 -0.952242 3.99303 0
M  V30 2620 H 261.266 -1.27533 2.87044 0
M  V30 2621 H 260.459 -0.277582 5.03235 0
M  V30 2622 H 260.061 0.779261 3.65792 0
M  V30 2623 H 262.353 0.182201 6.77255 0
M  V30 2624 H 263.296 1.70309 6.87314 0
M  V30 2625 H 263.704 0.489913 5.6237 0
M  V30 2626 N 263.102 -1.41638 0.69111 0
M  V30 2627 C 264.327 -2.06148 0.227583 0
M  V30 2628 C 264.752 -1.51652 -1.11281 0
M  V30 2629 O 264.11 -0.64164 -1.69566 0
M  V30 2630 C 264.158 -3.60095 0.190858 0
M  V30 2631 O 263.262 -4.03845 -0.835664 0
M  V30 2632 H 262.603 -0.654434 0.112306 0
M  V30 2633 H 265.133 -1.81484 0.944714 0
M  V30 2634 H 265.143 -4.07995 0.020207 0
M  V30 2635 H 263.818 -3.99129 1.16915 0
M  V30 2636 H 262.395 -3.67458 -0.63473 0
M  V30 2637 N 264.58 -0.43555 -1.51462 0
M  V30 2638 C 265.991 0.0279871 -1.86679 0
M  V30 2639 C 266.342 1.42104 -1.35281 0
M  V30 2640 O 265.467 2.04667 -0.702878 0
M  V30 2641 C 266.062 0.0575626 -3.38751 0
M  V30 2642 C 264.621 0.465507 -3.7351 0
M  V30 2643 C 263.768 -0.342996 -2.75171 0
M  V30 2644 H 266.719 -0.651473 -1.44712 0
M  V30 2645 H 266.74 0.867421 -3.70481 0
M  V30 2646 H 266.252 -0.956448 -3.7613 0
M  V30 2647 H 264.353 1.48519 -3.41721 0
M  V30 2648 H 264.466 0.191546 -4.78717 0
M  V30 2649 H 262.83 0.198442 -2.53926 0
M  V30 2650 H 263.613 -1.35585 -3.15391 0
M  V30 2651 N 266.058 1.56714 -0.166846 0
M  V30 2652 C 267.298 1.98641 0.481763 0
M  V30 2653 C 267.662 1.05038 1.6072 0
M  V30 2654 O 268.863 1.36087 2.31805 0
M  V30 2655 C 267.134 3.44362 0.956517 0
M  V30 2656 S 268.693 4.08317 1.60694 0
M  V30 2657 H 265.511 0.693873 0.155116 0
M  V30 2658 H 268.113 1.93719 -0.263251 0
M  V30 2659 H 266.817 4.10204 0.126936 0
M  V30 2660 H 266.348 3.53041 1.73568 0
M  V30 2661 H 268.363 4.02999 2.89494 0
M  V30 2662 N 267.536 -0.106894 1.57237 0
M  V30 2663 C 268.484 -1.14944 2.02215 0
M  V30 2664 C 269.478 -1.42167 0.92114 0
M  V30 2665 O 270.684 -1.41987 1.10634 0
M  V30 2666 H 267.059 -0.387841 0.64427 0
M  V30 2667 H 269.03 -0.743683 2.88984 0
M  V30 2668 C 267.779 -2.4647 2.4525 0
M  V30 2669 H 267.102 -2.26363 3.29545 0
M  V30 2670 H 268.542 -3.17948 2.80508 0
M  V30 2671 C 267.001 -3.09921 1.321 0
M  V30 2672 O 267.531 -3.9651 0.643622 0
M  V30 2673 N 265.737 -2.69986 1.07497 0
M  V30 2674 H 265.284 -1.99667 1.62761 0
M  V30 2675 H 265.242 -3.12769 0.319876 0
M  V30 2676 N 269.014 -1.53014 -0.377408 0
M  V30 2677 C 270.242 -1.72515 -1.14219 0
M  V30 2678 C 270.657 -0.448735 -1.8339 0
M  V30 2679 O 270.014 0.577592 -1.73119 0
M  V30 2680 C 270.065 -2.8826 -2.18148 0
M  V30 2681 O 269.786 -4.10962 -1.51795 0
M  V30 2682 C 271.287 -3.19536 -3.07264 0
M  V30 2683 H 268.507 -0.577301 -0.342001 0
M  V30 2684 H 271.051 -1.99712 -0.439935 0
M  V30 2685 H 269.206 -2.63492 -2.83991 0
M  V30 2686 H 269.62 -4.75693 -2.20945 0
M  V30 2687 H 271.094 -4.03959 -3.76193 0
M  V30 2688 H 271.571 -2.34403 -3.71419 0
M  V30 2689 H 272.177 -3.46186 -2.47053 0
M  V30 2690 N 270.492 0.636531 -1.44174 0
M  V30 2691 C 271.455 1.73063 -1.50273 0
M  V30 2692 C 272.455 1.56113 -0.385397 0
M  V30 2693 O 273.645 1.61707 -0.64781 0
M  V30 2694 C 270.777 3.12096 -1.37145 0
M  V30 2695 H 271.97 1.69031 -2.47727 0
M  V30 2696 H 269.523 0.849706 -1.31186 0
M  V30 2697 H 270.258 3.21728 -0.407636 0
M  V30 2698 H 270.043 3.25805 -2.18159 0
M  V30 2699 H 271.533 3.91846 -1.44382 0
M  V30 2700 N 271.97 1.30982 0.876444 0
M  V30 2701 C 273.216 1.20474 1.63138 0
M  V30 2702 C 273.549 -0.238096 1.92735 0
M  V30 2703 O 272.824 -1.1692 1.55435 0
M  V30 2704 C 273.107 2.04244 2.96574 0
M  V30 2705 C 272.96 3.56793 2.73896 0
M  V30 2706 C 274.279 1.88684 3.97601 0
M  V30 2707 H 271.398 0.439001 0.591985 0
M  V30 2708 H 274.04 1.60704 1.01361 0
M  V30 2709 H 272.19 1.70063 3.493 0
M  V30 2710 H 273.862 4.01077 2.27892 0
M  V30 2711 H 272.105 3.80548 2.08245 0
M  V30 2712 H 272.776 4.10706 3.68815 0
M  V30 2713 H 275.252 2.18584 3.54062 0
M  V30 2714 H 274.128 2.4961 4.88862 0
M  V30 2715 H 274.389 0.848343 4.33884 0
M  V30 2716 N 273.449 -1.08991 1.13837 0
M  V30 2717 C 274.695 -1.81526 0.90422 0
M  V30 2718 C 275.028 -1.85706 -0.568066 0
M  V30 2719 O 274.303 -1.32855 -1.42056 0
M  V30 2720 C 274.586 -3.27447 1.49835 0
M  V30 2721 C 274.439 -3.31512 3.04006 0
M  V30 2722 C 275.758 -4.24256 1.17025 0
M  V30 2723 H 272.877 -0.659029 0.329923 0
M  V30 2724 H 275.519 -1.27644 1.40737 0
M  V30 2725 H 273.669 -3.73462 1.07044 0
M  V30 2726 H 275.341 -2.93867 3.55584 0
M  V30 2727 H 273.584 -2.70963 3.38765 0
M  V30 2728 H 274.255 -4.34329 3.40679 0
M  V30 2729 H 276.731 -3.86549 1.54009 0
M  V30 2730 H 275.607 -5.24684 1.61237 0
M  V30 2731 H 275.868 -4.42019 0.0846274 0
M  V30 2732 N 274.927 -0.932562 -1.27047 0
M  V30 2733 C 276.338 -0.619451 -1.76124 0
M  V30 2734 C 276.689 0.865397 -1.76083 0
M  V30 2735 O 275.814 1.67722 -1.36742 0
M  V30 2736 C 276.409 -1.11771 -3.19832 0
M  V30 2737 C 274.968 -0.855174 -3.66557 0
M  V30 2738 C 274.115 -1.27362 -2.46321 0
M  V30 2739 H 277.066 -1.11181 -1.13245 0
M  V30 2740 H 277.087 -0.46759 -3.77616 0
M  V30 2741 H 276.599 -2.19842 -3.1983 0
M  V30 2742 H 274.7 0.211524 -3.71999 0
M  V30 2743 H 274.813 -1.47613 -4.55793 0
M  V30 2744 H 273.177 -0.692119 -2.45116 0
M  V30 2745 H 273.96 -2.36307 -2.49025 0
M  V30 2746 N 276.405 1.4127 -0.698611 0
M  V30 2747 C 277.337 2.292 0.00399731 0
M  V30 2748 C 278.35 1.44944 0.741279 0
M  V30 2749 O 279.539 1.68416 0.591477 0
M  V30 2750 C 276.639 3.22875 1.02979 0
M  V30 2751 C 275.812 4.35904 0.36151 0
M  V30 2752 C 274.871 5.10134 1.29033 0
M  V30 2753 O 273.897 5.63809 0.781562 0
M  V30 2754 N 275.099 5.17885 2.6225 0
M  V30 2755 H 277.864 2.9014 -0.750921 0
M  V30 2756 H 275.425 1.52455 -0.544882 0
M  V30 2757 H 277.417 3.69404 1.65296 0
M  V30 2758 H 275.987 2.63221 1.68622 0
M  V30 2759 H 275.207 3.91719 -0.441584 0
M  V30 2760 H 276.495 5.08696 -0.103055 0
M  V30 2761 H 275.893 4.7573 3.061 0
M  V30 2762 H 274.45 5.6798 3.19754 0
M  V30 2763 N 277.883 0.443576 1.51229 0
M  V30 2764 C 279.131 -0.120557 2.0174 0
M  V30 2765 C 279.452 -1.42665 1.32935 0
M  V30 2766 O 278.722 -1.9028 0.465866 0
M  V30 2767 H 277.302 -0.0475426 0.745486 0
M  V30 2768 H 279.964 0.587711 1.85828 0
M  V30 2769 H 279.06 -0.291972 3.10731 0
M  V30 2770 N 279.361 -1.56624 0.175154 0
M  V30 2771 C 280.607 -1.98061 -0.462976 0
M  V30 2772 C 280.962 -1.05949 -1.60601 0
M  V30 2773 O 280.255 -0.0999027 -1.91339 0
M  V30 2774 C 280.449 -3.43419 -0.989864 0
M  V30 2775 C 280.278 -4.49587 0.100583 0
M  V30 2776 C 279.048 -5.02281 0.551539 0
M  V30 2777 C 281.246 -5.06322 0.902369 0
M  V30 2778 N 279.228 -5.92088 1.62189 0
M  V30 2779 C 280.599 -5.92607 1.82256 0
M  V30 2780 C 282.654 -4.88811 0.947019 0
M  V30 2781 C 281.357 -6.63254 2.78364 0
M  V30 2782 C 283.383 -5.60182 1.89606 0
M  V30 2783 C 282.745 -6.46197 2.80372 0
M  V30 2784 H 278.844 -0.769833 -0.137409 0
M  V30 2785 H 281.428 -1.9273 0.276256 0
M  V30 2786 H 279.599 -3.49288 -1.6986 0
M  V30 2787 H 281.331 -3.7186 -1.59694 0
M  V30 2788 H 278.086 -4.73367 0.148537 0
M  V30 2789 H 278.51 -6.41696 2.15767 0
M  V30 2790 H 283.152 -4.22004 0.259304 0
M  V30 2791 H 280.87 -7.29271 3.48122 0
M  V30 2792 H 284.456 -5.48617 1.93676 0
M  V30 2793 H 283.336 -7.00453 3.52612 0
M  V30 2794 N 280.839 0.0985539 -1.57292 0
M  V30 2795 C 282.064 0.820196 -1.90493 0
M  V30 2796 C 282.489 1.71658 -0.769094 0
M  V30 2797 O 281.847 1.79133 0.279495 0
M  V30 2798 C 281.895 1.61242 -3.22542 0
M  V30 2799 O 280.999 2.72108 -3.09888 0
M  V30 2800 H 280.34 0.225547 -0.62452 0
M  V30 2801 H 282.87 0.0748159 -2.04463 0
M  V30 2802 H 282.88 1.99737 -3.55766 0
M  V30 2803 H 281.555 0.954535 -4.04798 0
M  V30 2804 H 280.132 2.36667 -2.88172 0
M  V30 2805 N 282.317 1.53212 0.369288 0
M  V30 2806 C 283.563 1.69466 1.11397 0
M  V30 2807 C 283.896 0.443257 1.89074 0
M  V30 2808 O 283.171 -0.559386 1.86282 0
M  V30 2809 C 283.454 2.9422 2.07621 0
M  V30 2810 C 283.307 4.29508 1.33577 0
M  V30 2811 C 284.626 3.14565 3.07794 0
M  V30 2812 H 281.745 0.616667 0.403597 0
M  V30 2813 H 284.387 1.85845 0.395179 0
M  V30 2814 H 282.537 2.80387 2.68916 0
M  V30 2815 H 284.209 4.55147 0.750955 0
M  V30 2816 H 282.452 4.29088 0.637618 0
M  V30 2817 H 283.123 5.12926 2.03989 0
M  V30 2818 H 285.599 3.2756 2.56601 0
M  V30 2819 H 284.475 4.03297 3.72348 0
M  V30 2820 H 284.736 2.29675 3.77759 0
M  V30 2821 N 283.795 -0.628877 1.44509 0
M  V30 2822 C 284.705 -1.7694 1.54044 0
M  V30 2823 C 285.721 -1.68705 0.425987 0
M  V30 2824 O 286.897 -1.89442 0.683656 0
M  V30 2825 C 283.962 -3.13332 1.48405 0
M  V30 2826 C 283.023 -3.33181 2.70719 0
M  V30 2827 C 282.256 -4.63067 2.6534 0
M  V30 2828 O 282.479 -5.44017 1.71469 0
M  V30 2829 O 281.413 -4.85167 3.56226 0
M  V30 2830 H 285.239 -1.71848 2.50403 0
M  V30 2831 H 282.824 -0.790378 1.26781 0
M  V30 2832 H 284.706 -3.94634 1.47791 0
M  V30 2833 H 283.381 -3.1896 0.551898 0
M  V30 2834 H 282.288 -2.51549 2.769 0
M  V30 2835 H 283.621 -3.32416 3.62988 0
M  V30 2836 N 285.273 -1.31445 -0.869486 0
M  V30 2837 C 286.236 -1.19094 -1.9583 0
M  V30 2838 C 287.236 -0.117906 -1.60367 0
M  V30 2839 O 288.426 -0.367208 -1.70286 0
M  V30 2840 C 285.558 -0.828165 -3.30688 0
M  V30 2841 H 286.751 -2.15842 -2.08212 0
M  V30 2842 H 284.304 -1.15063 -1.05784 0
M  V30 2843 H 285.039 0.138142 -3.24006 0
M  V30 2844 H 284.824 -1.6038 -3.578 0
M  V30 2845 H 286.314 -0.765658 -4.10521 0
M  V30 2846 N 286.751 1.08385 -1.14413 0
M  V30 2847 C 287.681 2.17321 -0.854044 0
M  V30 2848 C 288.662 1.69024 0.191049 0
M  V30 2849 O 289.847 1.94141 0.0476779 0
M  V30 2850 C 286.977 3.45719 -0.330983 0
M  V30 2851 C 285.931 4.07409 -1.31155 0
M  V30 2852 C 285.257 5.30762 -0.64778 0
M  V30 2853 C 286.557 4.48665 -2.67388 0
M  V30 2854 H 288.251 2.41845 -1.76498 0
M  V30 2855 H 285.797 1.16233 -0.850051 0
M  V30 2856 H 287.75 4.21241 -0.115645 0
M  V30 2857 H 286.474 3.2075 0.615381 0
M  V30 2858 H 285.133 3.33919 -1.51306 0
M  V30 2859 H 284.781 5.02078 0.304398 0
M  V30 2860 H 284.481 5.72992 -1.30207 0
M  V30 2861 H 286.005 6.08998 -0.441972 0
M  V30 2862 H 287.419 5.15364 -2.51143 0
M  V30 2863 H 285.816 5.01814 -3.29093 0
M  V30 2864 H 286.886 3.60543 -3.24248 0
M  V30 2865 N 288.23 0.939286 1.26551 0
M  V30 2866 C 289.178 0.43815 2.28436 0
M  V30 2867 C 290.172 -0.483587 1.62351 0
M  V30 2868 O 291.378 -0.362009 1.76322 0
M  V30 2869 H 287.753 0.123149 0.741848 0
M  V30 2870 H 289.724 1.31002 2.68106 0
M  V30 2871 C 288.473 -0.283052 3.46546 0
M  V30 2872 H 287.796 0.417043 3.97619 0
M  V30 2873 H 289.236 -0.597948 4.19763 0
M  V30 2874 C 287.695 -1.50018 3.01656 0
M  V30 2875 O 288.225 -2.59855 3.0633 0
M  V30 2876 N 286.431 -1.35608 2.57019 0
M  V30 2877 H 285.978 -0.46244 2.53415 0
M  V30 2878 H 285.936 -2.17165 2.27347 0
M  V30 2879 N 289.708 -1.40897 0.706093 0
M  V30 2880 C 290.933 -2.05895 0.249435 0
M  V30 2881 C 291.358 -1.52823 -1.09666 0
M  V30 2882 O 290.716 -0.659589 -1.68876 0
M  V30 2883 C 290.764 -3.59872 0.22904 0
M  V30 2884 O 289.868 -4.04708 -0.792784 0
M  V30 2885 H 289.209 -0.653206 0.119241 0
M  V30 2886 H 291.739 -1.80471 0.96391 0
M  V30 2887 H 291.749 -4.07951 0.0634791 0
M  V30 2888 H 290.424 -3.97866 1.21141 0
M  V30 2889 H 289.001 -3.68111 -0.59572 0
M  V30 2890 N 291.186 -0.45159 -1.50991 0
M  V30 2891 C 292.597 0.00818571 -1.86698 0
M  V30 2892 C 292.948 1.40661 -1.3678 0
M  V30 2893 O 292.073 2.0391 -0.724546 0
M  V30 2894 C 292.668 0.0216303 -3.38793 0
M  V30 2895 C 291.227 0.425865 -3.73983 0
M  V30 2896 C 290.374 -0.372163 -2.74791 0
M  V30 2897 H 293.325 -0.666785 -1.44013 0
M  V30 2898 H 293.346 0.828078 -3.7138 0
M  V30 2899 H 292.858 -0.996288 -3.75094 0
M  V30 2900 H 290.959 1.44886 -3.43277 0
M  V30 2901 H 291.072 0.140761 -4.78893 0
M  V30 2902 H 289.436 0.171498 -2.54122 0
M  V30 2903 H 290.219 -1.38922 -3.13935 0
M  V30 2904 N 292.664 1.56529 -0.183458 0
M  V30 2905 C 293.614 2.1515 0.754605 0
M  V30 2906 C 294.598 1.08904 1.18443 0
M  V30 2907 O 295.79 1.34997 1.14476 0
M  V30 2908 C 292.919 2.80531 1.97881 0
M  V30 2909 C 292.005 3.93952 1.57043 0
M  V30 2910 N 292.396 4.98221 0.87231 0
M  V30 2911 C 290.694 4.05338 1.86057 0
M  V30 2912 C 291.395 5.77836 0.669377 0
M  V30 2913 N 290.371 5.29858 1.21454 0
M  V30 2914 H 294.173 2.93132 0.212387 0
M  V30 2915 H 291.687 1.62391 0.0167725 0
M  V30 2916 H 293.684 3.20914 2.6612 0
M  V30 2917 H 292.344 2.04035 2.52586 0
M  V30 2918 H 293.355 5.15191 0.529033 0
M  V30 2919 H 290.032 3.39957 2.42354 0
M  V30 2920 H 291.422 6.71799 0.116422 0
M  V30 2921 N 294.142 -0.090211 1.57342 0
M  V30 2922 C 295.367 -0.810082 1.90925 0
M  V30 2923 C 295.792 -1.71248 0.778187 0
M  V30 2924 O 295.15 -1.79278 -0.269991 0
M  V30 2925 C 295.198 -1.59529 3.23393 0
M  V30 2926 O 294.302 -2.70461 3.11327 0
M  V30 2927 H 293.643 -0.222231 0.625707 0
M  V30 2928 H 296.173 -0.0639716 2.045 0
M  V30 2929 H 296.183 -1.97847 3.5682 0
M  V30 2930 H 294.858 -0.933055 4.05299 0
M  V30 2931 H 293.435 -2.35135 2.89423 0
M  V30 2932 N 295.62 -1.53406 -0.361157 0
M  V30 2933 C 296.53 -1.83122 -1.4664 0
M  V30 2934 C 297.546 -0.719943 -1.58407 0
M  V30 2935 O 298.722 -1.01046 -1.74218 0
M  V30 2936 C 295.787 -2.01891 -2.81853 0
M  V30 2937 C 294.848 -3.25784 -2.79577 0
M  V30 2938 C 294.081 -3.43648 -4.0834 0
M  V30 2939 O 294.304 -2.65714 -5.0473 0
M  V30 2940 O 293.238 -4.37018 -4.13883 0
M  V30 2941 H 297.064 -2.7703 -1.24451 0
M  V30 2942 H 294.649 -1.38841 -0.551678 0
M  V30 2943 H 296.531 -2.15782 -3.61962 0
M  V30 2944 H 295.206 -1.11173 -3.0401 0
M  V30 2945 H 294.113 -3.17312 -1.98151 0
M  V30 2946 H 295.446 -4.16439 -2.62373 0
M  V30 2947 N 297.098 0.621204 -1.44841 0
M  V30 2948 C 298.323 1.41244 -1.51871 0
M  V30 2949 C 298.748 1.87519 -0.147764 0
M  V30 2950 O 298.106 1.59334 0.865 0
M  V30 2951 C 298.154 2.60221 -2.49634 0
M  V30 2952 O 297.258 3.60395 -2.00473 0
M  V30 2953 H 296.599 0.42223 -0.512463 0
M  V30 2954 H 299.129 0.757305 -1.90069 0
M  V30 2955 H 299.139 3.0764 -2.67996 0
M  V30 2956 H 297.814 2.25887 -3.4921 0
M  V30 2957 H 296.391 3.19717 -1.91925 0
M  V30 2958 N 298.576 1.31904 0.862503 0
M  V30 2959 C 299.823 1.22017 1.61611 0
M  V30 2960 C 300.151 -0.21991 1.93253 0
M  V30 2961 O 299.406 -1.17076 1.56817 0
M  V30 2962 C 299.705 2.01713 2.95037 0
M  V30 2963 C 299.371 3.51145 2.82857 0
M  V30 2964 C 298.033 3.91889 2.79243 0
M  V30 2965 C 300.385 4.46204 2.69353 0
M  V30 2966 C 297.713 5.25947 2.59993 0
M  V30 2967 C 300.065 5.80397 2.5164 0
M  V30 2968 C 298.729 6.20352 2.46413 0
M  V30 2969 H 297.999 0.44649 0.591378 0
M  V30 2970 H 300.646 1.63248 1.00111 0
M  V30 2971 H 298.951 1.53185 3.60613 0
M  V30 2972 H 300.648 1.91437 3.52353 0
M  V30 2973 H 297.238 3.1878 2.86491 0
M  V30 2974 H 301.422 4.15652 2.71196 0
M  V30 2975 H 296.678 5.5597 2.54376 0
M  V30 2976 H 300.852 6.53676 2.40169 0
M  V30 2977 H 298.479 7.24172 2.31256 0
M  V30 2978 N 300.054 -1.07777 1.14986 0
M  V30 2979 C 301.3 -1.80557 0.923422 0
M  V30 2980 C 301.633 -1.86298 -0.548337 0
M  V30 2981 O 300.908 -1.34354 -1.40639 0
M  V30 2982 C 301.191 -3.25839 1.53299 0
M  V30 2983 C 301.044 -3.28269 3.07505 0
M  V30 2984 C 302.363 -4.22991 1.21518 0
M  V30 2985 H 299.482 -0.655493 0.336894 0
M  V30 2986 H 302.124 -1.26144 1.42083 0
M  V30 2987 H 300.274 -3.72306 1.10999 0
M  V30 2988 H 301.946 -2.90079 3.58681 0
M  V30 2989 H 300.189 -2.67355 3.4162 0
M  V30 2990 H 300.86 -4.30691 3.45266 0
M  V30 2991 H 303.336 -3.84894 1.581 0
M  V30 2992 H 302.212 -5.22945 1.66793 0
M  V30 2993 H 302.473 -4.41904 0.131505 0
M  V30 2994 N 301.532 -0.945985 -1.26051 0
M  V30 2995 C 302.757 -0.612525 -1.98149 0
M  V30 2996 C 303.182 0.806623 -1.69927 0
M  V30 2997 O 302.54 1.54411 -0.950108 0
M  V30 2998 C 302.588 -0.866981 -3.50023 0
M  V30 2999 O 301.692 0.0585333 -4.12358 0
M  V30 3000 H 301.033 -0.23379 -0.621481 0
M  V30 3001 H 303.563 -1.27023 -1.60395 0
M  V30 3002 H 303.573 -0.789792 -4.00283 0
M  V30 3003 H 302.248 -1.90135 -3.69894 0
M  V30 3004 H 300.825 -0.0701241 -3.72834 0
M  V30 3005 N 303.011 1.40521 -0.713556 0
M  V30 3006 C 304.422 1.83853 -0.324807 0
M  V30 3007 C 304.773 1.59667 1.14021 0
M  V30 3008 O 303.898 1.07649 1.87725 0
M  V30 3009 C 304.493 3.33751 -0.582746 0
M  V30 3010 C 303.052 3.75584 -0.247727 0
M  V30 3011 C 302.199 2.63753 -0.856121 0
M  V30 3012 H 305.15 1.29817 -0.91286 0
M  V30 3013 H 305.171 3.80194 0.152682 0
M  V30 3014 H 304.683 3.51322 -1.64908 0
M  V30 3015 H 302.784 3.63608 0.813624 0
M  V30 3016 H 302.897 4.7373 -0.715307 0
M  V30 3017 H 301.261 2.53108 -0.28432 0
M  V30 3018 H 302.044 2.84137 -1.92668 0
M  V30 3019 N 304.489 0.459591 1.5075 0
M  V30 3020 C 305.399 -0.34613 2.32033 0
M  V30 3021 C 306.415 -1.00686 1.41909 0
M  V30 3022 O 307.591 -0.997361 1.7497 0
M  V30 3023 C 304.656 -1.42029 3.16273 0
M  V30 3024 C 303.717 -0.777362 4.22203 0
M  V30 3025 C 302.95 -1.80034 5.02418 0
M  V30 3026 O 303.173 -3.02544 4.83553 0
M  V30 3027 O 302.107 -1.37853 5.85901 0
M  V30 3028 H 305.933 0.318054 3.0203 0
M  V30 3029 H 303.518 0.221663 1.47746 0
M  V30 3030 H 305.4 -2.04275 3.68578 0
M  V30 3031 H 304.075 -2.06815 2.49016 0
M  V30 3032 H 302.982 -0.116256 3.73919 0
M  V30 3033 H 304.315 -0.172634 4.91897 0
M  V30 3034 N 305.967 -1.56429 0.191757 0
M  V30 3035 C 306.93 -2.17707 -0.716688 0
M  V30 3036 C 307.93 -1.13061 -1.14341 0
M  V30 3037 O 309.12 -1.38464 -1.05704 0
M  V30 3038 C 306.252 -2.77644 -1.97804 0
M  V30 3039 H 307.445 -2.99342 -0.1829 0
M  V30 3040 H 304.998 -1.56193 -0.0578566 0
M  V30 3041 H 305.733 -1.99799 -2.55443 0
M  V30 3042 H 305.518 -3.54246 -1.68083 0
M  V30 3043 H 307.008 -3.24708 -2.62592 0
M  V30 3044 N 307.445 0.0818655 -1.57387 0
M  V30 3045 C 308.691 0.784074 -1.8703 0
M  V30 3046 C 309.024 1.77729 -0.782689 0
M  V30 3047 O 308.299 1.93384 0.208051 0
M  V30 3048 C 308.582 1.50105 -3.27323 0
M  V30 3049 C 308.435 0.524925 -4.46727 0
M  V30 3050 C 309.754 2.44843 -3.65705 0
M  V30 3051 H 306.873 0.283582 -0.680257 0
M  V30 3052 H 309.515 0.0474352 -1.89941 0
M  V30 3053 H 307.665 2.12897 -3.24972 0
M  V30 3054 H 309.337 -0.0970111 -4.61198 0
M  V30 3055 H 307.58 -0.160606 -4.33503 0
M  V30 3056 H 308.251 1.064 -5.41648 0
M  V30 3057 H 310.727 1.92135 -3.69085 0
M  V30 3058 H 309.603 2.92018 -4.64776 0
M  V30 3059 H 309.864 3.29197 -2.95096 0
M  V30 3060 N 308.923 1.53595 0.353017 0
M  V30 3061 C 309.886 1.80232 1.41594 0
M  V30 3062 C 310.886 0.673081 1.46035 0
M  V30 3063 O 312.076 0.941335 1.46576 0
M  V30 3064 C 309.208 1.93578 2.80607 0
M  V30 3065 H 310.401 2.75174 1.19244 0
M  V30 3066 H 307.954 1.44864 0.586872 0
M  V30 3067 H 308.689 1.00746 3.08254 0
M  V30 3068 H 308.474 2.75724 2.78781 0
M  V30 3069 H 309.964 2.15735 3.57558 0
M  V30 3070 N 310.401 -0.613514 1.45168 0
M  V30 3071 C 311.311 -1.75296 1.55912 0
M  V30 3072 C 312.327 -1.68244 0.443856 0
M  V30 3073 O 313.503 -1.88706 0.70371 0
M  V30 3074 C 310.568 -3.1174 1.5172 0
M  V30 3075 C 309.629 -3.30291 2.74238 0
M  V30 3076 C 308.862 -4.60226 2.70236 0
M  V30 3077 O 309.085 -5.42168 1.77229 0
M  V30 3078 O 308.019 -4.81361 3.61352 0
M  V30 3079 H 311.845 -1.69183 2.52212 0
M  V30 3080 H 309.43 -0.776886 1.27612 0
M  V30 3081 H 311.312 -3.93044 1.51968 0
M  V30 3082 H 309.987 -3.18357 0.585697 0
M  V30 3083 H 308.894 -2.48598 2.79553 0
M  V30 3084 H 310.227 -3.28547 3.66494 0
M  V30 3085 N 311.879 -1.3236 -0.855495 0
M  V30 3086 C 313.29 -1.2056 -1.42556 0
M  V30 3087 C 313.641 0.182209 -1.95352 0
M  V30 3088 O 312.766 1.08088 -1.87472 0
M  V30 3089 C 313.361 -2.1826 -2.59129 0
M  V30 3090 C 311.92 -2.10351 -3.12137 0
M  V30 3091 C 311.067 -2.06674 -1.84882 0
M  V30 3092 H 314.018 -1.442 -0.662727 0
M  V30 3093 H 314.039 -1.78064 -3.36264 0
M  V30 3094 H 313.551 -3.19257 -2.20673 0
M  V30 3095 H 311.652 -1.12599 -3.55179 0
M  V30 3096 H 311.765 -3.00135 -3.73438 0
M  V30 3097 H 310.129 -1.51901 -2.04446 0
M  V30 3098 H 310.912 -3.09451 -1.48643 0
M  V30 3099 N 313.357 1.07166 -1.15556 0
M  V30 3100 C 314.768 1.6127 -0.940693 0
M  V30 3101 C 315.119 1.89251 0.517551 0
M  V30 3102 O 314.244 1.65937 1.38903 0
M  V30 3103 C 314.839 2.92993 -1.7012 0
M  V30 3104 C 313.398 3.43832 -1.53156 0
M  V30 3105 C 312.545 2.1786 -1.71558 0
M  V30 3106 H 315.496 0.90229 -1.30554 0
M  V30 3107 H 315.517 3.62007 -1.17181 0
M  V30 3108 H 315.029 2.72596 -2.76248 0
M  V30 3109 H 313.13 3.69307 -0.494294 0
M  V30 3110 H 313.243 4.19747 -2.30975 0
M  V30 3111 H 311.607 2.2765 -1.14225 0
M  V30 3112 H 312.39 1.99956 -2.79056 0
M  V30 3113 N 314.835 0.952656 1.25548 0
M  V30 3114 C 315.767 0.428609 2.25157 0
M  V30 3115 C 316.78 -0.454428 1.56329 0
M  V30 3116 O 317.969 -0.263023 1.76552 0
M  V30 3117 C 315.069 -0.401972 3.36508 0
M  V30 3118 C 314.242 0.467601 4.34893 0
M  V30 3119 C 313.301 -0.30445 5.25319 0
M  V30 3120 O 312.327 0.296473 5.68427 0
M  V30 3121 N 313.529 -1.59805 5.5807 0
M  V30 3122 H 316.294 1.28497 2.70756 0
M  V30 3123 H 313.855 0.822798 1.39433 0
M  V30 3124 H 315.847 -0.926134 3.9396 0
M  V30 3125 H 314.417 -1.15918 2.90313 0
M  V30 3126 H 313.637 1.17288 3.76347 0
M  V30 3127 H 314.925 1.06119 4.97611 0
M  V30 3128 H 314.323 -2.10823 5.24948 0
M  V30 3129 H 312.88 -2.06822 6.18116 0
M  V30 3130 N 316.313 -1.40141 0.720998 0
M  V30 3131 C 317.724 -1.83678 0.334553 0
M  V30 3132 C 318.075 -1.6027 -1.13173 0
M  V30 3133 O 317.2 -1.08643 -1.87152 0
M  V30 3134 C 317.795 -3.33437 0.600437 0
M  V30 3135 C 316.354 -3.75447 0.267642 0
M  V30 3136 C 315.501 -2.63296 0.870097 0
M  V30 3137 H 318.452 -1.29331 0.919732 0
M  V30 3138 H 318.473 -3.80269 -0.132517 0
M  V30 3139 H 317.985 -3.50442 1.66768 0
M  V30 3140 H 316.086 -3.64035 -0.794329 0
M  V30 3141 H 316.199 -4.73344 0.74042 0
M  V30 3142 H 314.563 -2.52954 0.297739 0
M  V30 3143 H 315.346 -2.83112 1.94172 0
M  V30 3144 N 317.792 -0.46758 -1.50504 0
M  V30 3145 C 319.02 0.0864133 -2.06719 0
M  V30 3146 C 319.435 1.33819 -1.33184 0
M  V30 3147 O 318.792 1.78061 -0.400083 0
M  V30 3148 C 318.843 0.378079 -3.59517 0
M  V30 3149 O 318.564 -0.824044 -4.3028 0
M  V30 3150 C 320.065 0.979426 -4.32345 0
M  V30 3151 H 317.285 -0.00551697 -0.670977 0
M  V30 3152 H 319.829 -0.655354 -1.93715 0
M  V30 3153 H 317.984 1.06977 -3.72337 0
M  V30 3154 H 318.398 -0.566518 -5.21432 0
M  V30 3155 H 319.872 1.1333 -5.40241 0
M  V30 3156 H 320.349 1.9686 -3.9261 0
M  V30 3157 H 320.955 0.326216 -4.24047 0
M  V30 3158 N 319.27 1.56325 -0.20005 0
M  V30 3159 C 320.233 2.18084 0.705132 0
M  V30 3160 C 321.233 1.13666 1.1374 0
M  V30 3161 O 322.423 1.39023 1.04968 0
M  V30 3162 C 319.555 2.78689 1.96329 0
M  V30 3163 H 320.748 2.99435 0.167023 0
M  V30 3164 H 318.301 1.56221 0.0495725 0
M  V30 3165 H 319.036 2.0115 2.5438 0
M  V30 3166 H 318.821 3.55133 1.66202 0
M  V30 3167 H 320.311 3.26096 2.60866 0
M  V30 3168 N 320.748 -0.0735177 1.57428 0
M  V30 3169 C 321.994 -0.774145 1.87443 0
M  V30 3170 C 322.327 -1.77311 0.792103 0
M  V30 3171 O 321.602 -1.93492 -0.197793 0
M  V30 3172 C 321.885 -1.48367 3.28115 0
M  V30 3173 C 321.738 -0.501227 4.46999 0
M  V30 3174 C 323.057 -2.429 3.66998 0
M  V30 3175 H 320.176 -0.279971 0.681752 0
M  V30 3176 H 322.818 -0.0373616 1.89963 0
M  V30 3177 H 320.968 -2.11171 3.26097 0
M  V30 3178 H 322.64 0.121468 4.6114 0
M  V30 3179 H 320.883 0.183593 4.33411 0
M  V30 3180 H 321.554 -1.03526 5.42205 0
M  V30 3181 H 324.03 -1.90175 3.70098 0
M  V30 3182 H 322.906 -2.89549 4.66318 0
M  V30 3183 H 323.167 -3.27628 2.96837 0
M  V30 3184 N 322.226 -1.5378 -0.344866 0
M  V30 3185 C 323.637 -1.62428 -0.920552 0
M  V30 3186 C 323.988 -0.504747 -1.89596 0
M  V30 3187 O 323.113 0.365711 -2.13287 0
M  V30 3188 C 323.708 -2.94419 -1.67639 0
M  V30 3189 C 322.267 -3.05333 -2.20111 0
M  V30 3190 C 321.414 -2.57866 -1.01982 0
M  V30 3191 H 324.365 -1.58222 -0.123042 0
M  V30 3192 H 324.386 -2.83384 -2.53917 0
M  V30 3193 H 323.898 -3.7588 -0.966224 0
M  V30 3194 H 321.999 -2.28502 -2.94308 0
M  V30 3195 H 322.112 -4.10778 -2.46573 0
M  V30 3196 H 320.476 -2.13241 -1.39285 0
M  V30 3197 H 321.259 -3.41765 -0.324308 0
M  V30 3198 N 323.704 0.605807 -1.45491 0
M  V30 3199 C 324.634 1.72709 -1.57143 0
M  V30 3200 C 325.615 1.6476 -0.422884 0
M  V30 3201 O 326.8 1.83132 -0.646247 0
M  V30 3202 C 323.93 3.11316 -1.53948 0
M  V30 3203 C 322.884 3.34077 -2.67537 0
M  V30 3204 C 322.21 4.72975 -2.49397 0
M  V30 3205 C 323.51 3.24158 -4.09535 0
M  V30 3206 H 325.204 1.63214 -2.51001 0
M  V30 3207 H 322.75 0.78379 -1.208 0
M  V30 3208 H 324.703 3.89557 -1.60696 0
M  V30 3209 H 323.427 3.21655 -0.566205 0
M  V30 3210 H 322.086 2.58227 -2.6022 0
M  V30 3211 H 321.734 4.8005 -1.50205 0
M  V30 3212 H 321.434 4.8916 -3.25571 0
M  V30 3213 H 322.958 5.53414 -2.58002 0
M  V30 3214 H 324.372 3.92271 -4.18086 0
M  V30 3215 H 322.769 3.51872 -4.86113 0
M  V30 3216 H 323.839 2.2157 -4.31317 0
M  V30 3217 N 325.182 1.32811 0.848464 0
M  V30 3218 C 326.092 1.24278 1.98978 0
M  V30 3219 C 327.108 0.155176 1.73307 0
M  V30 3220 O 328.284 0.376999 1.9784 0
M  V30 3221 C 325.349 0.972444 3.32783 0
M  V30 3222 C 324.41 2.14911 3.71634 0
M  V30 3223 C 323.643 1.89157 4.99054 0
M  V30 3224 O 323.866 0.837165 5.64223 0
M  V30 3225 O 322.8 2.75433 5.35183 0
M  V30 3226 H 326.626 2.20238 2.09115 0
M  V30 3227 H 324.211 1.12762 0.980052 0
M  V30 3228 H 326.093 0.838432 4.12975 0
M  V30 3229 H 324.768 0.043051 3.23671 0
M  V30 3230 H 323.675 2.33862 2.91992 0
M  V30 3231 H 325.008 3.06151 3.85399 0
M  V30 3232 N 326.66 -1.06551 1.16123 0
M  V30 3233 C 327.59 -2.15935 0.88851 0
M  V30 3234 C 328.571 -1.69306 -0.164135 0
M  V30 3235 O 329.756 -1.94193 -0.0167857 0
M  V30 3236 C 326.886 -3.45149 0.385942 0
M  V30 3237 C 325.84 -4.05271 1.3762 0
M  V30 3238 C 325.166 -5.29664 0.732137 0
M  V30 3239 C 326.466 -4.44355 2.74493 0
M  V30 3240 H 328.16 -2.39006 1.80323 0
M  V30 3241 H 325.706 -1.14866 0.868435 0
M  V30 3242 H 327.659 -4.21004 0.182647 0
M  V30 3243 H 326.383 -3.21689 -0.564274 0
M  V30 3244 H 325.042 -3.3147 1.56599 0
M  V30 3245 H 324.69 -5.02499 -0.224483 0
M  V30 3246 H 324.39 -5.70848 1.39307 0
M  V30 3247 H 325.914 -6.08218 0.538802 0
M  V30 3248 H 327.328 -5.11303 2.59311 0
M  V30 3249 H 325.725 -4.96515 3.37035 0
M  V30 3250 H 326.795 -3.55339 3.29943 0
M  V30 3251 N 328.138 -0.959301 -1.25041 0
M  V30 3252 C 329.101 -0.487677 -2.23952 0
M  V30 3253 C 330.101 0.41119 -1.55454 0
M  V30 3254 O 331.291 0.207825 -1.72956 0
M  V30 3255 C 328.423 0.294807 -3.39623 0
M  V30 3256 H 329.616 -1.36198 -2.67189 0
M  V30 3257 H 327.169 -0.743042 -1.37508 0
M  V30 3258 H 327.904 1.18658 -3.01813 0
M  V30 3259 H 327.689 -0.35012 -3.90534 0
M  V30 3260 H 329.179 0.614089 -4.1306 0
M  V30 3261 N 329.616 1.39756 -0.72842 0
M  V30 3262 C 330.563 2.30647 -0.0841519 0
M  V30 3263 C 331.533 1.48869 0.7367 0
M  V30 3264 O 332.718 1.77574 0.698015 0
M  V30 3265 C 329.858 3.35165 0.822091 0
M  V30 3266 C 328.971 4.31999 -0.0106663 0
M  V30 3267 C 328.106 5.23585 0.896241 0
M  V30 3268 C 327.145 6.12072 0.0583381 0
M  V30 3269 N 326.282 6.96035 0.920818 0
M  V30 3270 H 331.122 2.85173 -0.864891 0
M  V30 3271 H 328.659 1.40422 -0.438179 0
M  V30 3272 H 330.617 3.94345 1.36189 0
M  V30 3273 H 329.247 2.8211 1.56888 0
M  V30 3274 H 328.299 3.74492 -0.66781 0
M  V30 3275 H 329.611 4.9443 -0.658825 0
M  V30 3276 H 328.765 5.87759 1.50412 0
M  V30 3277 H 327.504 4.61459 1.57819 0
M  V30 3278 H 326.509 5.46916 -0.562389 0
M  V30 3279 H 327.734 6.76261 -0.6203 0
M  V30 3280 H 325.68 6.36485 1.58818 0
M  V30 3281 H 325.597 7.55284 0.32899 0
M  V30 3282 H 326.865 7.64646 1.51447 0
M  V30 3283 N 331.094 0.475555 1.50254 0
M  V30 3284 C 332.004 -0.321501 2.32387 0
M  V30 3285 C 333.02 -0.991755 1.42969 0
M  V30 3286 O 334.196 -0.978747 1.76018 0
M  V30 3287 C 331.261 -1.38667 3.17762 0
M  V30 3288 C 330.322 -0.732538 4.23004 0
M  V30 3289 C 329.555 -1.74695 5.04299 0
M  V30 3290 O 329.778 -2.97399 4.86734 0
M  V30 3291 O 328.712 -1.31631 5.8733 0
M  V30 3292 H 332.538 0.350071 3.01676 0
M  V30 3293 H 330.123 0.237321 1.47503 0
M  V30 3294 H 332.005 -2.00354 3.70724 0
M  V30 3295 H 330.68 -2.04163 2.51196 0
M  V30 3296 H 329.587 -0.0765902 3.74022 0
M  V30 3297 H 330.92 -0.120452 4.92053 0
M  V30 3298 N 332.573 -1.56217 0.208337 0
M  V30 3299 C 333.822 -1.97124 -0.427204 0
M  V30 3300 C 334.135 -1.09859 -1.61835 0
M  V30 3301 O 335.341 -1.40606 -2.32255 0
M  V30 3302 C 333.797 -3.50633 -0.811442 0
M  V30 3303 C 333.405 -4.46582 0.35615 0
M  V30 3304 C 335.149 -4.00282 -1.41332 0
M  V30 3305 C 333.056 -5.91379 -0.0497852 0
M  V30 3306 H 331.986 -0.736086 -0.163381 0
M  V30 3307 H 334.637 -1.8099 0.302456 0
M  V30 3308 H 333.019 -3.62319 -1.59815 0
M  V30 3309 H 334.193 -4.46636 1.1337 0
M  V30 3310 H 332.508 -4.07202 0.870396 0
M  V30 3311 H 335.105 -5.0595 -1.72972 0
M  V30 3312 H 335.448 -3.45359 -2.32449 0
M  V30 3313 H 335.981 -3.91764 -0.690323 0
M  V30 3314 H 332.72 -6.50255 0.827529 0
M  V30 3315 H 332.24 -5.94549 -0.791926 0
M  V30 3316 H 333.919 -6.45209 -0.481042 0
M  V30 3317 N 334.051 0.0651679 -1.57465 0
M  V30 3318 C 334.961 1.09448 -2.07505 0
M  V30 3319 C 335.977 1.41974 -1.00595 0
M  V30 3320 O 337.153 1.52018 -1.32107 0
M  V30 3321 C 334.218 2.38689 -2.51453 0
M  V30 3322 C 333.279 2.13073 -3.72691 0
M  V30 3323 C 332.512 3.36152 -4.14533 0
M  V30 3324 O 332.735 4.45517 -3.56189 0
M  V30 3325 O 331.669 3.23974 -5.07272 0
M  V30 3326 H 335.495 0.69935 -2.95538 0
M  V30 3327 H 333.08 0.279752 -1.46757 0
M  V30 3328 H 334.962 3.14736 -2.80212 0
M  V30 3329 H 333.637 2.77568 -1.66546 0
M  V30 3330 H 332.544 1.34709 -3.49005 0
M  V30 3331 H 333.877 1.79071 -4.5847 0
M  V30 3332 N 335.529 1.53961 0.336706 0
M  V30 3333 C 336.462 1.77255 1.43722 0
M  V30 3334 C 337.44 0.62193 1.50236 0
M  V30 3335 O 338.624 0.857874 1.67847 0
M  V30 3336 C 335.751 1.87733 2.81912 0
M  V30 3337 C 334.797 3.09933 2.92991 0
M  V30 3338 S 335.63 4.68836 2.58753 0
M  V30 3339 C 336.786 4.82202 3.99039 0
M  V30 3340 H 337.019 2.70322 1.23748 0
M  V30 3341 H 334.552 1.44917 0.532777 0
M  V30 3342 H 336.51 1.94455 3.61521 0
M  V30 3343 H 335.171 0.956666 2.99177 0
M  V30 3344 H 334.364 3.1396 3.94265 0
M  V30 3345 H 333.966 3.01472 2.21338 0
M  V30 3346 H 336.258 4.64032 4.9364 0
M  V30 3347 H 337.201 5.84298 4.00002 0
M  V30 3348 H 337.609 4.10604 3.87382 0
M  V30 3349 N 337.007 -0.598083 1.45811 0
M  V30 3350 C 337.97 -1.69018 1.54808 0
M  V30 3351 C 338.97 -1.55037 0.426652 0
M  V30 3352 O 340.16 -1.59932 0.690456 0
M  V30 3353 C 337.292 -3.0835 1.45371 0
M  V30 3354 H 338.485 -1.62403 2.52121 0
M  V30 3355 H 336.038 -0.814626 1.33392 0
M  V30 3356 H 336.773 -3.20534 0.492793 0
M  V30 3357 H 336.558 -3.19907 2.26721 0
M  V30 3358 H 338.048 -3.8788 1.54721 0
M  V30 3359 N 338.485 -1.33259 -0.841409 0
M  V30 3360 C 339.71 -1.2775 -1.63385 0
M  V30 3361 C 340.135 0.149188 -1.87507 0
M  V30 3362 O 339.493 1.10498 -1.43736 0
M  V30 3363 C 339.541 -2.05571 -2.96265 0
M  V30 3364 O 338.645 -1.41257 -3.87453 0
M  V30 3365 H 337.986 -0.439627 -0.497618 0
M  V30 3366 H 340.516 -1.75782 -1.04699 0
M  V30 3367 H 340.526 -2.16241 -3.45982 0
M  V30 3368 H 339.201 -3.09309 -2.7803 0
M  V30 3369 H 337.778 -1.39217 -3.45938 0
M  V30 3370 N 339.963 1.05934 -1.16686 0
M  V30 3371 C 340.873 2.17014 -0.891183 0
M  V30 3372 C 341.889 1.73453 0.137907 0
M  V30 3373 O 343.065 2.01361 -0.039592 0
M  V30 3374 C 340.13 3.44384 -0.400099 0
M  V30 3375 C 339.191 4.02433 -1.49486 0
M  V30 3376 C 338.424 5.23723 -1.02711 0
M  V30 3377 O 338.647 5.7027 0.121716 0
M  V30 3378 O 337.581 5.7382 -1.81699 0
M  V30 3379 H 341.407 2.43113 -1.82015 0
M  V30 3380 H 338.992 1.15541 -0.947132 0
M  V30 3381 H 340.874 4.21189 -0.133392 0
M  V30 3382 H 339.549 3.19802 0.500817 0
M  V30 3383 H 338.456 3.27102 -1.81535 0
M  V30 3384 H 339.789 4.31317 -2.37121 0
M  V30 3385 N 341.441 0.965919 1.2453 0
M  V30 3386 C 342.351 0.502154 2.29163 0
M  V30 3387 C 343.367 -0.436017 1.68448 0
M  V30 3388 O 344.543 -0.309497 1.99008 0
M  V30 3389 C 341.608 -0.201956 3.46111 0
M  V30 3390 C 340.669 0.775821 4.22232 0
M  V30 3391 C 339.902 0.105217 5.33596 0
M  V30 3392 O 340.125 -1.10683 5.59558 0
M  V30 3393 O 339.059 0.796475 5.96607 0
M  V30 3394 H 342.885 1.37194 2.70946 0
M  V30 3395 H 340.47 0.732875 1.30189 0
M  V30 3396 H 342.352 -0.597564 4.17142 0
M  V30 3397 H 341.027 -1.04673 3.06309 0
M  V30 3398 H 339.934 1.22185 3.53584 0
M  V30 3399 H 341.267 1.58896 4.65846 0
M  V30 3400 N 342.919 -1.39368 0.735821 0
M  V30 3401 C 344.335 -1.54204 0.411492 0
M  V30 3402 C 344.535 -1.70268 -1.07755 0
M  V30 3403 O 343.591 -1.70364 -1.86366 0
M  V30 3404 C 344.904 -2.75925 1.19523 0
M  V30 3405 C 346.452 -2.89761 1.18354 0
M  V30 3406 C 346.927 -4.14421 1.94986 0
M  V30 3407 N 348.418 -4.21462 1.92156 0
M  V30 3408 C 349.153 -5.16871 2.48258 0
M  V30 3409 N 348.649 -6.18063 3.13001 0
M  V30 3410 N 350.442 -5.09093 2.38287 0
M  V30 3411 H 342.593 -1.27189 1.70108 0
M  V30 3412 H 344.856 -0.616517 0.720147 0
M  V30 3413 H 344.562 -2.70401 2.24892 0
M  V30 3414 H 344.436 -3.68614 0.800222 0
M  V30 3415 H 346.823 -2.94777 0.137975 0
M  V30 3416 H 346.904 -1.98133 1.61793 0
M  V30 3417 H 346.548 -4.10166 2.99543 0
M  V30 3418 H 346.478 -5.05095 1.48953 0
M  V30 3419 H 348.969 -3.48979 1.44991 0
M  V30 3420 H 349.282 -6.87326 3.53275 0
M  V30 3421 H 347.627 -6.18448 3.17091 0
M  V30 3422 H 350.818 -4.28973 1.8735 0
M  V30 3423 H 350.991 -5.83272 2.82308 0
M  V30 3424 N 344.397 -0.483516 -1.5 0
M  V30 3425 C 345.808 -0.0314176 -1.86674 0
M  V30 3426 C 346.159 1.37728 -1.39733 0
M  V30 3427 O 345.284 2.02327 -0.767635 0
M  V30 3428 C 345.879 -0.0502376 -3.38763 0
M  V30 3429 C 344.438 0.346442 -3.74802 0
M  V30 3430 C 343.585 -0.430366 -2.7394 0
M  V30 3431 H 346.536 -0.697182 -1.42566 0
M  V30 3432 H 346.557 0.749116 -3.73053 0
M  V30 3433 H 346.069 -1.07563 -3.72897 0
M  V30 3434 H 344.17 1.37572 -3.46273 0
M  V30 3435 H 344.283 0.0391486 -4.79084 0
M  V30 3436 H 342.647 0.117557 -2.54429 0
M  V30 3437 H 343.43 -1.4555 -3.10918 0
M  V30 3438 N 345.875 1.56104 -0.216619 0
M  V30 3439 C 347.286 1.844 0.292128 0
M  V30 3440 C 347.637 1.13788 1.59833 0
M  V30 3441 O 346.762 0.405888 2.12559 0
M  V30 3442 C 347.357 3.3452 0.53681 0
M  V30 3443 C 345.916 3.63151 0.989876 0
M  V30 3444 C 345.063 2.77255 0.0502302 0
M  V30 3445 H 348.014 1.52481 -0.439926 0
M  V30 3446 H 348.035 3.54459 1.38345 0
M  V30 3447 H 347.547 3.85885 -0.414031 0
M  V30 3448 H 345.648 3.17238 1.95425 0
M  V30 3449 H 345.761 4.71177 0.867698 0
M  V30 3450 H 344.125 2.48555 0.556117 0
M  V30 3451 H 344.908 3.31416 -0.89544 0
M  V30 3452 N 347.353 -0.0568162 1.57498 0
M  V30 3453 C 348.316 -1.05038 2.03715 0
M  V30 3454 C 349.316 -1.30709 0.936577 0
M  V30 3455 O 350.506 -1.26178 1.20103 0
M  V30 3456 C 347.638 -2.39034 2.43055 0
M  V30 3457 H 348.831 -0.651715 2.92733 0
M  V30 3458 H 346.384 -0.302947 1.53336 0
M  V30 3459 H 347.119 -2.83703 1.57108 0
M  V30 3460 H 346.904 -2.21739 3.2338 0
M  V30 3461 H 348.394 -3.10421 2.79336 0
M  V30 3462 N 348.832 -1.54138 -0.328536 0
M  V30 3463 C 349.764 -1.79509 -1.4251 0
M  V30 3464 C 350.777 -0.67688 -1.48061 0
M  V30 3465 O 351.966 -0.953898 -1.50874 0
M  V30 3466 C 349.066 -1.89337 -2.81078 0
M  V30 3467 C 348.239 -3.19443 -2.98789 0
M  V30 3468 C 347.298 -3.20036 -4.17688 0
M  V30 3469 O 346.324 -3.93697 -4.11086 0
M  V30 3470 N 347.526 -2.43467 -5.26976 0
M  V30 3471 H 350.291 -2.74139 -1.21111 0
M  V30 3472 H 347.852 -1.53373 -0.518499 0
M  V30 3473 H 349.844 -1.87167 -3.58818 0
M  V30 3474 H 348.414 -1.01826 -2.95551 0
M  V30 3475 H 347.634 -3.34614 -2.08391 0
M  V30 3476 H 348.922 -4.05354 -3.07515 0
M  V30 3477 H 348.32 -1.83201 -5.35214 0
M  V30 3478 H 346.877 -2.4708 -6.03154 0
M  V30 3479 N 350.31 0.590341 -1.46126 0
M  V30 3480 C 351.273 1.68194 -1.55703 0
M  V30 3481 C 352.273 1.54808 -0.434868 0
M  V30 3482 O 353.463 1.59564 -0.698928 0
M  V30 3483 C 350.595 3.07575 -1.47005 0
M  V30 3484 H 351.788 1.61064 -2.52979 0
M  V30 3485 H 349.341 0.807541 -1.33823 0
M  V30 3486 H 350.076 3.20268 -0.509785 0
M  V30 3487 H 349.861 3.187 -2.28414 0
M  V30 3488 H 351.351 3.87055 -1.56776 0
M  V30 3489 N 351.788 1.33704 0.83433 0
M  V30 3490 C 352.718 1.26967 1.95963 0
M  V30 3491 C 353.699 0.149337 1.69443 0
M  V30 3492 O 354.884 0.339852 1.91203 0
M  V30 3493 C 352.014 1.01275 3.32206 0
M  V30 3494 C 350.968 2.09652 3.73136 0
M  V30 3495 C 350.294 1.69166 5.07235 0
M  V30 3496 C 351.594 3.51372 3.86439 0
M  V30 3497 H 353.288 2.2112 2.01857 0
M  V30 3498 H 350.834 1.06447 0.969793 0
M  V30 3499 H 352.787 0.952106 4.10503 0
M  V30 3500 H 351.511 0.0356203 3.26581 0
M  V30 3501 H 350.17 2.14766 2.97104 0
M  V30 3502 H 349.818 0.701437 4.98085 0
M  V30 3503 H 349.518 2.41694 5.35591 0
M  V30 3504 H 351.042 1.64576 5.88003 0
M  V30 3505 H 352.456 3.48734 4.55036 0
M  V30 3506 H 350.853 4.22425 4.26236 0
M  V30 3507 H 351.923 3.89546 2.88759 0
M  V30 3508 N 353.266 -1.05314 1.17247 0
M  V30 3509 C 354.176 -2.16538 0.90268 0
M  V30 3510 C 355.192 -1.73523 -0.128707 0
M  V30 3511 O 356.368 -2.01337 0.0502701 0
M  V30 3512 C 353.433 -3.44167 0.418356 0
M  V30 3513 C 352.494 -4.01635 1.51618 0
M  V30 3514 C 351.727 -5.23171 1.05487 0
M  V30 3515 O 351.95 -5.70327 -0.0914715 0
M  V30 3516 O 350.884 -5.72848 1.8474 0
M  V30 3517 H 354.71 -2.42145 1.83302 0
M  V30 3518 H 352.295 -1.15037 0.953246 0
M  V30 3519 H 354.177 -4.21112 0.155726 0
M  V30 3520 H 352.852 -3.20063 -0.48385 0
M  V30 3521 H 351.759 -3.26135 1.83268 0
M  V30 3522 H 353.092 -4.30053 2.39405 0
M  V30 3523 N 354.744 -0.972509 -1.24016 0
M  V30 3524 C 355.993 -0.632603 -1.91523 0
M  V30 3525 C 356.306 0.836641 -1.76804 0
M  V30 3526 O 357.512 1.28728 -2.39043 0
M  V30 3527 C 355.968 -1.08082 -3.43287 0
M  V30 3528 C 355.576 -2.57386 -3.66683 0
M  V30 3529 C 357.32 -0.814288 -4.16617 0
M  V30 3530 C 355.227 -2.95915 -5.12043 0
M  V30 3531 H 354.157 -0.232898 -0.717129 0
M  V30 3532 H 356.808 -1.17936 -1.40582 0
M  V30 3533 H 355.19 -0.462339 -3.93292 0
M  V30 3534 H 356.364 -3.24405 -3.27258 0
M  V30 3535 H 354.679 -2.81701 -3.06649 0
M  V30 3536 H 357.276 -1.0781 -5.23718 0
M  V30 3537 H 357.619 0.24955 -4.15551 0
M  V30 3538 H 358.152 -1.39397 -3.72577 0
M  V30 3539 H 354.891 -4.0139 -5.18234 0
M  V30 3540 H 354.411 -2.33584 -5.52448 0
M  V30 3541 H 356.09 -2.86086 -5.80314 0
M  V30 3542 N 356.222 1.38976 -0.743202 0
M  V30 3543 C 357.155 2.28128 -0.0572165 0
M  V30 3544 C 358.133 1.44827 0.739182 0
M  V30 3545 O 359.317 1.74207 0.720009 0
M  V30 3546 C 356.444 3.25796 0.926001 0
M  V30 3547 C 355.49 4.25947 0.217099 0
M  V30 3548 S 356.323 5.24604 -1.07477 0
M  V30 3549 C 357.479 6.25829 -0.0943545 0
M  V30 3550 H 357.712 2.85961 -0.813246 0
M  V30 3551 H 355.245 1.44822 -0.535341 0
M  V30 3552 H 357.203 3.82583 1.48797 0
M  V30 3553 H 355.864 2.66966 1.65493 0
M  V30 3554 H 355.057 4.94746 0.961372 0
M  V30 3555 H 354.659 3.73002 -0.273059 0
M  V30 3556 H 356.951 6.73411 0.743239 0
M  V30 3557 H 357.894 7.0412 -0.749713 0
M  V30 3558 H 358.302 5.63797 0.281706 0
M  V30 3559 N 357.7 0.491464 1.49741 0
M  V30 3560 C 358.633 -0.338464 2.25676 0
M  V30 3561 C 359.611 -0.978676 1.29849 0
M  V30 3562 O 360.795 -1.01064 1.59117 0
M  V30 3563 C 357.922 -1.47588 3.04853 0
M  V30 3564 C 356.968 -0.951 4.15762 0
M  V30 3565 S 357.801 0.150626 5.35288 0
M  V30 3566 C 358.957 -0.990178 6.18018 0
M  V30 3567 H 359.19 0.306068 2.9572 0
M  V30 3568 H 356.723 0.276622 1.51902 0
M  V30 3569 H 358.681 -2.12764 3.51058 0
M  V30 3570 H 357.342 -2.09199 2.34296 0
M  V30 3571 H 356.535 -1.80311 4.70642 0
M  V30 3572 H 356.137 -0.376607 3.72099 0
M  V30 3573 H 358.429 -1.89748 6.50386 0
M  V30 3574 H 359.372 -0.480205 7.0647 0
M  V30 3575 H 359.78 -1.25321 5.50413 0
M  V30 3576 N 359.178 -1.55987 0.224894 0
M  V30 3577 C 360.426 -1.97998 -0.405099 0
M  V30 3578 C 360.747 -1.11387 -1.60056 0
M  V30 3579 O 360.017 -0.191645 -1.9496 0
M  V30 3580 H 358.597 -0.731235 -0.152658 0
M  V30 3581 H 361.259 -1.92279 0.318567 0
M  V30 3582 H 360.355 -3.03463 -0.729167 0
M  V30 3583 N 360.656 0.0484629 -1.57525 0
M  V30 3584 C 361.586 1.0549 -2.08313 0
M  V30 3585 C 362.567 1.38929 -0.981463 0
M  V30 3586 O 363.752 1.48151 -1.25558 0
M  V30 3587 C 360.882 2.36162 -2.54646 0
M  V30 3588 C 359.836 2.17016 -3.68901 0
M  V30 3589 C 359.162 3.53278 -4.01371 0
M  V30 3590 C 360.462 1.57219 -4.98076 0
M  V30 3591 H 362.156 0.632195 -2.92649 0
M  V30 3592 H 359.702 0.302654 -1.40784 0
M  V30 3593 H 361.655 3.06882 -2.88793 0
M  V30 3594 H 360.379 2.80456 -1.67368 0
M  V30 3595 H 359.038 1.48733 -3.35073 0
M  V30 3596 H 358.686 3.95185 -3.11188 0
M  V30 3597 H 358.386 3.41299 -4.78318 0
M  V30 3598 H 359.91 4.25391 -4.38035 0
M  V30 3599 H 361.324 2.17832 -5.30304 0
M  V30 3600 H 359.721 1.55871 -5.79503 0
M  V30 3601 H 360.791 0.535956 -4.81929 0
M  V30 3602 N 362.134 1.5431 0.320358 0
M  V30 3603 C 363.081 1.83918 1.39438 0
M  V30 3604 C 364.051 0.686525 1.51248 0
M  V30 3605 O 365.236 0.933269 1.66417 0
M  V30 3606 C 362.376 2.075 2.75749 0
M  V30 3607 C 361.489 3.35177 2.72544 0
M  V30 3608 C 360.624 3.48704 4.00723 0
M  V30 3609 C 359.663 4.70244 3.91838 0
M  V30 3610 N 358.8 4.80679 5.11754 0
M  V30 3611 H 363.64 2.75544 1.13489 0
M  V30 3612 H 361.177 1.36459 0.549309 0
M  V30 3613 H 363.135 2.19166 3.54996 0
M  V30 3614 H 361.765 1.19163 3 0
M  V30 3615 H 360.817 3.32233 1.85271 0
M  V30 3616 H 362.129 4.24534 2.61863 0
M  V30 3617 H 361.283 3.59928 4.88402 0
M  V30 3618 H 360.022 2.57445 4.14214 0
M  V30 3619 H 359.027 4.59072 3.02544 0
M  V30 3620 H 360.252 5.6289 3.7991 0
M  V30 3621 H 358.198 3.92337 5.25745 0
M  V30 3622 H 358.115 5.64007 5.0342 0
M  V30 3623 H 359.383 4.96239 6.01138 0
M  V30 3624 N 363.613 -0.582584 1.46437 0
M  V30 3625 C 364.841 -1.36682 1.55324 0
M  V30 3626 C 365.256 -1.87796 0.194409 0
M  V30 3627 O 364.613 -1.63623 -0.808318 0
M  V30 3628 C 364.664 -2.55426 2.55812 0
M  V30 3629 O 364.385 -2.0643 3.86417 0
M  V30 3630 C 365.886 -3.47976 2.74641 0
M  V30 3631 H 363.106 -0.417545 0.525259 0
M  V30 3632 H 365.65 -0.708219 1.91845 0
M  V30 3633 H 363.805 -3.17275 2.22295 0
M  V30 3634 H 364.219 -2.83762 4.41111 0
M  V30 3635 H 365.693 -4.27775 3.48874 0
M  V30 3636 H 366.17 -3.99919 1.81553 0
M  V30 3637 H 366.776 -2.91962 3.09255 0
M  V30 3638 N 365.091 -1.34144 -0.827227 0
M  V30 3639 C 366.319 -1.29325 -1.61501 0
M  V30 3640 C 366.734 0.13354 -1.88327 0
M  V30 3641 O 366.091 1.0793 -1.47164 0
M  V30 3642 C 366.142 -2.07746 -2.95844 0
M  V30 3643 O 365.863 -3.4486 -2.70191 0
M  V30 3644 C 367.364 -2.10273 -3.90256 0
M  V30 3645 H 364.584 -0.445069 -0.50215 0
M  V30 3646 H 367.128 -1.76693 -1.02955 0
M  V30 3647 H 365.283 -1.6403 -3.5096 0
M  V30 3648 H 365.697 -3.85345 -3.55822 0
M  V30 3649 H 367.171 -2.69575 -4.81698 0
M  V30 3650 H 367.648 -1.096 -4.25305 0
M  V30 3651 H 368.254 -2.54059 -3.41078 0
M  V30 3652 N 366.569 1.04691 -1.17803 0
M  V30 3653 C 367.846 1.7472 -0.879328 0
M  V30 3654 C 368.226 2.01812 0.619271 0
M  V30 3655 O 367.574 1.65824 1.57209 0
M  V30 3656 C 367.784 3.03686 -1.71976 0
M  V30 3657 C 369.132 3.77542 -1.94286 0
M  V30 3658 O 370.156 3.13569 -1.68976 0
M  V30 3659 O 369.015 4.92506 -2.36855 0
M  V30 3660 H 366.109 0.760011 -0.326056 0
M  V30 3661 H 368.655 1.10813 -1.28525 0
M  V30 3662 H 367.427 2.79754 -2.73594 0
M  V30 3663 H 367.05 3.75332 -1.31194 0
M  V30 3664 N 368.047 0.979072 1.23499 0
M  V30 3665 C 368.98 0.463027 2.23453 0
M  V30 3666 C 369.958 -0.469128 1.55685 0
M  V30 3667 O 371.142 -0.397882 1.84253 0
M  V30 3668 C 368.269 -0.330308 3.37086 0
M  V30 3669 C 367.315 0.545795 4.22993 0
M  V30 3670 S 368.148 1.99285 4.97037 0
M  V30 3671 C 369.304 1.20862 6.1412 0
M  V30 3672 H 369.537 1.31005 2.6688 0
M  V30 3673 H 367.07 0.784965 1.32957 0
M  V30 3674 H 369.028 -0.782027 4.02982 0
M  V30 3675 H 367.689 -1.15244 2.92194 0
M  V30 3676 H 366.882 -0.0638928 5.03959 0
M  V30 3677 H 366.484 0.933705 3.62157 0
M  V30 3678 H 368.776 0.469284 6.75873 0
M  V30 3679 H 369.719 1.99307 6.79472 0
M  V30 3680 H 370.127 0.727992 5.59786 0
M  V30 3681 N 369.525 -1.3858 0.750561 0
M  V30 3682 C 370.488 -2.28836 0.129152 0
M  V30 3683 C 371.488 -1.47045 -0.650714 0
M  V30 3684 O 372.678 -1.6753 -0.477428 0
M  V30 3685 C 369.81 -3.30751 -0.825622 0
M  V30 3686 H 371.003 -2.85294 0.924516 0
M  V30 3687 H 368.556 -1.47489 0.517376 0
M  V30 3688 H 369.291 -2.79378 -1.64677 0
M  V30 3689 H 369.076 -3.91177 -0.268852 0
M  V30 3690 H 370.566 -3.98249 -1.2565 0
M  V30 3691 N 371.003 -0.499398 -1.49478 0
M  V30 3692 C 372.414 -0.051215 -1.8663 0
M  V30 3693 C 372.765 1.36238 -1.41186 0
M  V30 3694 O 371.89 2.01502 -0.789051 0
M  V30 3695 C 372.485 -0.0861651 -3.3869 0
M  V30 3696 C 371.044 0.30667 -3.75149 0
M  V30 3697 C 370.191 -0.459397 -2.73468 0
M  V30 3698 H 373.142 -0.712264 -1.41818 0
M  V30 3699 H 373.163 0.709507 -3.73826 0
M  V30 3700 H 372.675 -1.11512 -3.71735 0
M  V30 3701 H 370.776 1.33892 -3.47712 0
M  V30 3702 H 370.889 -0.0116669 -4.79099 0
M  V30 3703 H 369.253 0.0905645 -2.54539 0
M  V30 3704 H 370.036 -1.4884 -3.09357 0
M  V30 3705 N 372.481 1.55866 -0.233164 0
M  V30 3706 C 373.706 2.03449 0.402906 0
M  V30 3707 C 374.131 1.11166 1.51736 0
M  V30 3708 O 373.489 0.101996 1.81013 0
M  V30 3709 C 373.537 3.49165 0.9009 0
M  V30 3710 O 372.641 3.60019 2.01147 0
M  V30 3711 H 371.982 0.657913 0.0897025 0
M  V30 3712 H 374.512 2.01493 -0.355201 0
M  V30 3713 H 374.522 3.89716 1.2077 0
M  V30 3714 H 373.197 4.15813 0.0852889 0
M  V30 3715 H 371.774 3.3136 1.71042 0
M  V30 3716 N 373.959 -0.0401083 1.57549 0
M  V30 3717 C 374.906 -1.04413 2.05831 0
M  V30 3718 C 375.876 -1.36585 0.945184 0
M  V30 3719 O 377.061 -1.47112 1.21502 0
M  V30 3720 C 374.201 -2.34336 2.53339 0
M  V30 3721 C 373.314 -2.08419 3.78398 0
M  V30 3722 C 372.449 -3.32133 4.14561 0
M  V30 3723 C 371.488 -3.01721 5.3257 0
M  V30 3724 N 370.625 -4.17855 5.64218 0
M  V30 3725 H 375.465 -0.625442 2.91363 0
M  V30 3726 H 373.002 -0.297218 1.44066 0
M  V30 3727 H 374.96 -3.10234 2.78946 0
M  V30 3728 H 373.59 -2.73948 1.7074 0
M  V30 3729 H 372.642 -1.23069 3.59942 0
M  V30 3730 H 373.954 -1.81978 4.64419 0
M  V30 3731 H 373.108 -4.16406 4.41238 0
M  V30 3732 H 371.847 -3.61678 3.2717 0
M  V30 3733 H 370.852 -2.15849 5.05657 0
M  V30 3734 H 372.077 -2.73466 6.21605 0
M  V30 3735 H 370.023 -4.47372 4.79786 0
M  V30 3736 H 369.94 -3.94798 6.44725 0
M  V30 3737 H 371.208 -5.03033 5.95465 0
M  V30 3738 N 375.437 -1.54477 -0.31217 0
M  V30 3739 C 376.347 -1.87695 -1.4074 0
M  V30 3740 C 377.363 -0.769975 -1.56036 0
M  V30 3741 O 378.539 -1.06537 -1.70915 0
M  V30 3742 C 375.604 -2.10755 -2.75287 0
M  V30 3743 C 374.665 -3.34514 -2.69071 0
M  V30 3744 C 373.898 -3.56465 -3.97201 0
M  V30 3745 O 374.121 -2.81637 -4.96021 0
M  V30 3746 O 373.055 -4.49964 -3.9977 0
M  V30 3747 H 376.881 -2.80849 -1.15574 0
M  V30 3748 H 374.466 -1.40526 -0.507228 0
M  V30 3749 H 376.348 -2.27188 -3.54913 0
M  V30 3750 H 375.023 -1.20788 -3.0032 0
M  V30 3751 H 373.93 -3.23456 -1.87955 0
M  V30 3752 H 375.263 -4.24575 -2.48992 0
M  V30 3753 N 376.915 0.57481 -1.46744 0
M  V30 3754 C 378.143 1.35856 -1.56047 0
M  V30 3755 C 378.558 1.87691 -0.204365 0
M  V30 3756 O 377.915 1.64049 0.79963 0
M  V30 3757 C 377.966 2.54066 -2.57163 0
M  V30 3758 O 377.687 2.04377 -3.87507 0
M  V30 3759 C 379.188 3.46514 -2.76483 0
M  V30 3760 H 376.408 0.414754 -0.527466 0
M  V30 3761 H 378.952 0.698035 -1.92218 0
M  V30 3762 H 377.107 3.16092 -2.23974 0
M  V30 3763 H 377.521 2.81419 -4.4261 0
M  V30 3764 H 378.995 4.25919 -3.51137 0
M  V30 3765 H 379.472 3.98951 -1.83671 0
M  V30 3766 H 380.078 2.90318 -3.10799 0
M  V30 3767 N 378.394 1.34581 0.820102 0
M  V30 3768 C 379.304 1.28471 1.96297 0
M  V30 3769 C 380.32 0.191902 1.72939 0
M  V30 3770 O 381.496 0.418879 1.96996 0
M  V30 3771 C 378.561 1.04281 3.30645 0
M  V30 3772 C 377.622 2.22745 3.66992 0
M  V30 3773 C 376.855 1.997 4.9493 0
M  V30 3774 O 377.078 0.956656 5.6232 0
M  V30 3775 O 376.012 2.86723 5.2922 0
M  V30 3776 H 379.838 2.24624 2.04396 0
M  V30 3777 H 377.423 1.14816 0.955913 0
M  V30 3778 H 379.305 0.925841 4.11104 0
M  V30 3779 H 377.98 0.111697 3.23507 0
M  V30 3780 H 376.887 2.40003 2.86966 0
M  V30 3781 H 378.22 3.14257 3.78819 0
M  V30 3782 N 379.872 -1.04064 1.18357 0
M  V30 3783 C 380.805 -2.11618 0.854 0
M  V30 3784 C 381.783 -1.61555 -0.184043 0
M  V30 3785 O 382.967 -1.88395 -0.0630048 0
M  V30 3786 C 380.094 -3.37574 0.27597 0
M  V30 3787 C 379.14 -4.06485 1.2912 0
M  V30 3788 S 379.973 -4.53543 2.84709 0
M  V30 3789 C 381.129 -5.82732 2.28417 0
M  V30 3790 H 381.362 -2.39247 1.76488 0
M  V30 3791 H 378.895 -1.16832 1.00944 0
M  V30 3792 H 380.853 -4.10468 -0.051026 0
M  V30 3793 H 379.514 -3.0806 -0.613028 0
M  V30 3794 H 378.707 -4.97024 0.835633 0
M  V30 3795 H 378.309 -3.39708 1.56443 0
M  V30 3796 H 380.601 -6.56677 1.66677 0
M  V30 3797 H 381.544 -6.33052 3.17256 0
M  V30 3798 H 381.952 -5.37838 1.71436 0
M  V30 3799 N 381.35 -0.985608 -1.22978 0
M  V30 3800 C 382.313 -0.535071 -2.22867 0
M  V30 3801 C 383.313 0.378123 -1.56291 0
M  V30 3802 O 384.503 0.171092 -1.73358 0
M  V30 3803 C 381.635 0.222702 -3.40172 0
M  V30 3804 H 382.828 -1.41835 -2.6424 0
M  V30 3805 H 380.381 -0.772042 -1.35901 0
M  V30 3806 H 381.116 1.12229 -3.04262 0
M  V30 3807 H 380.901 -0.43288 -3.89703 0
M  V30 3808 H 382.391 0.526335 -4.1427 0
M  V30 3809 N 382.828 1.3818 -0.7579 0
M  V30 3810 C 383.758 2.33027 -0.148597 0
M  V30 3811 C 384.739 1.55085 0.69875 0
M  V30 3812 O 385.924 1.83384 0.639053 0
M  V30 3813 C 383.054 3.3928 0.742034 0
M  V30 3814 C 382.008 4.28 -0.00291946 0
M  V30 3815 C 381.334 5.25146 1.00625 0
M  V30 3816 C 382.634 5.08938 -1.17385 0
M  V30 3817 H 384.328 2.84231 -0.940909 0
M  V30 3818 H 381.874 1.36659 -0.453908 0
M  V30 3819 H 383.827 4.046 1.17799 0
M  V30 3820 H 382.551 2.86569 1.56671 0
M  V30 3821 H 381.21 3.64192 -0.419504 0
M  V30 3822 H 380.858 4.68721 1.8251 0
M  V30 3823 H 380.558 5.85361 0.512428 0
M  V30 3824 H 382.082 5.93342 1.44143 0
M  V30 3825 H 383.496 5.67474 -0.815224 0
M  V30 3826 H 381.893 5.7841 -1.59882 0
M  V30 3827 H 382.963 4.42424 -1.98468 0
M  V30 3828 N 384.306 0.507319 1.49211 0
M  V30 3829 C 385.269 -0.256763 2.27757 0
M  V30 3830 C 386.269 -0.888287 1.34038 0
M  V30 3831 O 387.459 -0.751841 1.5714 0
M  V30 3832 C 384.591 -1.36905 3.12202 0
M  V30 3833 H 385.784 0.432557 2.96764 0
M  V30 3834 H 383.337 0.262488 1.5408 0
M  V30 3835 H 384.072 -2.09233 2.47775 0
M  V30 3836 H 383.857 -0.921599 3.81115 0
M  V30 3837 H 385.347 -1.9071 3.7151 0
M  V30 3838 N 385.784 -1.5574 0.241426 0
M  V30 3839 C 386.731 -2.21149 -0.660432 0
M  V30 3840 C 387.701 -1.17356 -1.17545 0
M  V30 3841 O 388.886 -1.45784 -1.23093 0
M  V30 3842 C 386.026 -2.91059 -1.85414 0
M  V30 3843 C 385.139 -4.09495 -1.37616 0
M  V30 3844 C 384.274 -4.67135 -2.529 0
M  V30 3845 C 383.313 -5.77831 -2.01936 0
M  V30 3846 N 382.45 -6.29677 -3.10566 0
M  V30 3847 H 387.29 -2.97845 -0.095955 0
M  V30 3848 H 384.827 -1.47057 -0.0356024 0
M  V30 3849 H 386.785 -3.29788 -2.5553 0
M  V30 3850 H 385.415 -2.16846 -2.39118 0
M  V30 3851 H 384.467 -3.76117 -0.569235 0
M  V30 3852 H 385.779 -4.89423 -0.962618 0
M  V30 3853 H 384.933 -5.08409 -3.31067 0
M  V30 3854 H 383.672 -3.86411 -2.97553 0
M  V30 3855 H 382.677 -5.36039 -1.22238 0
M  V30 3856 H 383.902 -6.60402 -1.58259 0
M  V30 3857 H 381.848 -5.5186 -3.54664 0
M  V30 3858 H 381.765 -7.04783 -2.73526 0
M  V30 3859 H 383.033 -6.75609 -3.88809 0
M  V30 3860 N 387.262 0.0317525 -1.57568 0
M  V30 3861 C 388.539 0.758366 -1.803 0
M  V30 3862 C 388.919 1.93718 -0.838845 0
M  V30 3863 O 388.267 2.28187 0.119571 0
M  V30 3864 C 388.477 1.19392 -3.27943 0
M  V30 3865 C 389.825 1.61094 -3.92854 0
M  V30 3866 O 390.849 1.28857 -3.32076 0
M  V30 3867 O 389.708 2.20918 -4.99858 0
M  V30 3868 H 386.802 0.366514 -0.741348 0
M  V30 3869 H 389.348 0.00873765 -1.69698 0
M  V30 3870 H 388.12 0.352275 -3.89711 0
M  V30 3871 H 387.743 2.00365 -3.43424 0
M  V30 3872 N 388.74 1.54641 0.303973 0
M  V30 3873 C 389.673 1.80263 1.3993 0
M  V30 3874 C 390.651 0.653657 1.48883 0
M  V30 3875 O 391.835 0.893284 1.6599 0
M  V30 3876 C 388.962 1.9367 2.77866 0
M  V30 3877 C 388.008 3.16078 2.86351 0
M  V30 3878 S 388.841 4.74219 2.4875 0
M  V30 3879 C 389.997 4.90558 3.88721 0
M  V30 3880 H 390.23 2.72886 1.17986 0
M  V30 3881 H 387.763 1.46014 0.501918 0
M  V30 3882 H 389.721 2.0208 3.57315 0
M  V30 3883 H 388.382 1.01991 2.9708 0
M  V30 3884 H 387.575 3.22252 3.87517 0
M  V30 3885 H 387.177 3.06099 2.14893 0
M  V30 3886 H 389.469 4.74398 4.83687 0
M  V30 3887 H 390.412 5.92651 3.87518 0
M  V30 3888 H 390.82 4.18728 3.78585 0
M  V30 3889 N 390.218 -0.567019 1.47046 0
M  V30 3890 C 391.181 -1.65696 1.58359 0
M  V30 3891 C 392.181 -1.54097 0.459441 0
M  V30 3892 O 393.371 -1.58432 0.724225 0
M  V30 3893 C 390.503 -3.05197 1.51879 0
M  V30 3894 H 391.696 -1.57019 2.5551 0
M  V30 3895 H 389.249 -0.786148 1.3509 0
M  V30 3896 H 389.984 -3.19417 0.560673 0
M  V30 3897 H 389.769 -3.15025 2.33455 0
M  V30 3898 H 391.259 -3.84511 1.62913 0
M  V30 3899 N 391.696 -1.35014 -0.812953 0
M  V30 3900 C 392.626 -1.30069 -1.93919 0
M  V30 3901 C 393.607 -0.176275 -1.69184 0
M  V30 3902 O 394.792 -0.370227 -1.90638 0
M  V30 3903 C 391.922 -1.06547 -3.30552 0
M  V30 3904 C 390.876 -2.15561 -3.69753 0
M  V30 3905 C 390.202 -1.77214 -5.04479 0
M  V30 3906 C 391.502 -3.57476 -3.808 0
M  V30 3907 H 393.196 -2.24303 -1.98314 0
M  V30 3908 H 390.742 -1.07977 -0.952736 0
M  V30 3909 H 392.695 -1.01729 -4.08937 0
M  V30 3910 H 391.419 -0.0875719 -3.26483 0
M  V30 3911 H 390.078 -2.19466 -2.9365 0
M  V30 3912 H 389.726 -0.780589 -4.96906 0
M  V30 3913 H 389.426 -2.50184 -5.31678 0
M  V30 3914 H 390.95 -1.7391 -5.8531 0
M  V30 3915 H 392.364 -3.55929 -4.4943 0
M  V30 3916 H 390.761 -4.29152 -4.19462 0
M  V30 3917 H 391.831 -3.94091 -2.82525 0
M  V30 3918 N 393.175 1.03435 -1.18907 0
M  V30 3919 C 394.138 2.09756 -0.923844 0
M  V30 3920 C 395.138 1.60528 0.093416 0
M  V30 3921 O 396.328 1.73631 -0.140727 0
M  V30 3922 C 393.46 3.38692 -0.387354 0
M  V30 3923 H 394.653 2.34719 -1.86674 0
M  V30 3924 H 392.206 1.19959 -1.00197 0
M  V30 3925 H 392.941 3.19396 0.561845 0
M  V30 3926 H 392.726 3.75742 -1.12074 0
M  V30 3927 H 394.216 4.17016 -0.220694 0
M  V30 3928 N 394.653 0.992116 1.22453 0
M  V30 3929 C 395.881 0.685944 1.95198 0
M  V30 3930 C 396.296 -0.749233 1.73297 0
M  V30 3931 O 395.653 -1.50549 1.03156 0
M  V30 3932 C 395.704 0.981395 3.47924 0
M  V30 3933 O 395.425 2.36018 3.6909 0
M  V30 3934 C 396.926 0.692815 4.37853 0
M  V30 3935 H 394.146 0.253821 0.621141 0
M  V30 3936 H 396.69 1.32668 1.55626 0
M  V30 3937 H 394.845 0.386481 3.85467 0
M  V30 3938 H 395.259 2.45884 4.63294 0
M  V30 3939 H 396.733 0.949818 5.43767 0
M  V30 3940 H 397.21 -0.373181 4.37612 0
M  V30 3941 H 397.816 1.26874 4.05935 0
M  V30 3942 N 396.131 -1.37776 0.765217 0
M  V30 3943 C 397.078 -2.30342 0.145274 0
M  V30 3944 C 398.048 -1.5077 -0.696971 0
M  V30 3945 O 399.233 -1.79362 -0.650689 0
M  V30 3946 C 396.373 -3.37227 -0.732939 0
M  V30 3947 C 395.486 -4.31819 0.125199 0
M  V30 3948 C 394.621 -5.25777 -0.757107 0
M  V30 3949 C 393.66 -6.12012 0.103963 0
M  V30 3950 N 392.797 -6.98232 -0.735953 0
M  V30 3951 H 397.637 -2.8278 0.940195 0
M  V30 3952 H 395.174 -1.39211 0.475255 0
M  V30 3953 H 397.132 -3.97818 -1.25686 0
M  V30 3954 H 395.762 -2.86171 -1.49353 0
M  V30 3955 H 394.814 -3.7259 0.766865 0
M  V30 3956 H 396.126 -4.92509 0.789683 0
M  V30 3957 H 395.28 -5.91541 -1.34776 0
M  V30 3958 H 394.019 -4.65481 -1.45529 0
M  V30 3959 H 393.024 -5.45233 0.707197 0
M  V30 3960 H 394.249 -6.74379 0.799381 0
M  V30 3961 H 392.195 -6.40472 -1.41887 0
M  V30 3962 H 392.112 -7.55891 -0.128624 0
M  V30 3963 H 393.38 -7.68393 -1.31121 0
M  V30 3964 N 397.609 -0.515225 -1.4894 0
M  V30 3965 C 398.837 0.0206034 -2.0689 0
M  V30 3966 C 399.252 1.29514 -1.37374 0
M  V30 3967 O 398.609 1.76698 -0.456529 0
M  V30 3968 C 398.66 0.26351 -3.60538 0
M  V30 3969 O 398.381 -0.960517 -4.27441 0
M  V30 3970 C 399.882 0.841383 -4.35242 0
M  V30 3971 H 397.102 -0.0268608 -0.670462 0
M  V30 3972 H 399.646 -0.716651 -1.91532 0
M  V30 3973 H 397.801 0.950777 -3.75552 0
M  V30 3974 H 398.215 -0.73212 -5.19365 0
M  V30 3975 H 399.689 0.96085 -5.43573 0
M  V30 3976 H 400.166 1.8427 -3.98674 0
M  V30 3977 H 400.772 0.191143 -4.2487 0
M  V30 3978 N 399.087 1.5561 -0.249682 0
M  V30 3979 C 399.997 2.25143 0.659375 0
M  V30 3980 C 401.013 1.2685 1.19101 0
M  V30 3981 O 402.189 1.59732 1.22669 0
M  V30 3982 C 399.254 2.93945 1.8384 0
M  V30 3983 C 398.315 4.07655 1.34596 0
M  V30 3984 C 397.548 4.73167 2.46878 0
M  V30 3985 O 397.771 4.37768 3.65671 0
M  V30 3986 O 396.705 5.61623 2.16478 0
M  V30 3987 H 400.531 3.03545 0.0968698 0
M  V30 3988 H 398.116 1.49389 -0.018074 0
M  V30 3989 H 399.998 3.37271 2.52638 0
M  V30 3990 H 398.673 2.18481 2.38847 0
M  V30 3991 H 397.58 3.68839 0.625174 0
M  V30 3992 H 398.913 4.84946 0.841941 0
M  V30 3993 N 400.565 -0.0233959 1.57583 0
M  V30 3994 C 401.811 -0.714119 1.89811 0
M  V30 3995 C 402.144 -1.74702 0.848113 0
M  V30 3996 O 401.419 -1.94023 -0.136135 0
M  V30 3997 C 401.702 -1.37853 3.32669 0
M  V30 3998 C 401.555 -0.358764 4.48367 0
M  V30 3999 C 402.874 -2.31101 3.7454 0
M  V30 4000 H 399.993 -0.25814 0.690314 0
M  V30 4001 H 402.635 0.0230927 1.89986 0
M  V30 4002 H 400.785 -2.00689 3.3265 0
M  V30 4003 H 402.457 0.268115 4.6052 0
M  V30 4004 H 400.7 0.321387 4.32608 0
M  V30 4005 H 401.371 -0.862242 5.45224 0
M  V30 4006 H 403.847 -1.78304 3.75961 0
M  V30 4007 H 402.723 -2.74567 4.75294 0
M  V30 4008 H 402.984 -3.18018 3.0711 0
M  V30 4009 N 402.043 -1.548 -0.295768 0
M  V30 4010 C 403.006 -1.85363 -1.34808 0
M  V30 4011 C 404.006 -0.726817 -1.43436 0
M  V30 4012 O 405.196 -0.995088 -1.42981 0
M  V30 4013 C 402.328 -2.03859 -2.73229 0
M  V30 4014 H 403.521 -2.7941 -1.08949 0
M  V30 4015 H 401.074 -1.46942 -0.532702 0
M  V30 4016 H 401.809 -1.12117 -3.04303 0
M  V30 4017 H 401.594 -2.8588 -2.68356 0
M  V30 4018 H 403.084 -2.28857 -3.49305 0
M  V30 4019 N 403.521 0.559213 -1.47345 0
M  V30 4020 C 404.451 1.67622 -1.62558 0
M  V30 4021 C 405.432 1.63331 -0.475087 0
M  V30 4022 O 406.617 1.80983 -0.704182 0
M  V30 4023 C 403.747 3.0626 -1.63774 0
M  V30 4024 C 402.701 3.25397 -2.7803 0
M  V30 4025 C 402.027 4.64801 -2.64318 0
M  V30 4026 C 403.327 3.10965 -4.19641 0
M  V30 4027 H 405.021 1.55146 -2.56067 0
M  V30 4028 H 402.567 0.744961 -1.23233 0
M  V30 4029 H 404.52 3.84247 -1.73008 0
M  V30 4030 H 403.244 3.1969 -0.66825 0
M  V30 4031 H 401.903 2.49817 -2.68304 0
M  V30 4032 H 401.551 4.75028 -1.65401 0
M  V30 4033 H 401.251 4.78555 -3.40968 0
M  V30 4034 H 402.775 5.44926 -2.75478 0
M  V30 4035 H 404.189 3.78772 -4.30354 0
M  V30 4036 H 402.586 3.36229 -4.97062 0
M  V30 4037 H 403.656 2.07736 -4.38148 0
M  V30 4038 N 404.999 1.35443 0.805782 0
M  V30 4039 C 405.962 1.28301 1.89925 0
M  V30 4040 C 406.962 0.194285 1.59622 0
M  V30 4041 O 408.152 0.448036 1.6834 0
M  V30 4042 C 405.284 0.984997 3.2636 0
M  V30 4043 H 406.477 2.2553 1.97677 0
M  V30 4044 H 404.03 1.19979 1.00173 0
M  V30 4045 H 404.765 0.016603 3.24296 0
M  V30 4046 H 404.55 1.77269 3.4974 0
M  V30 4047 H 406.04 0.960651 4.064 0
M  V30 4048 N 406.477 -1.02803 1.19454 0
M  V30 4049 C 407.424 -2.11099 0.933046 0
M  V30 4050 C 408.394 -1.65571 -0.132447 0
M  V30 4051 O 409.579 -1.90797 0.00987576 0
M  V30 4052 C 406.719 -3.41763 0.478747 0
M  V30 4053 C 405.832 -4.00833 1.6111 0
M  V30 4054 C 404.967 -5.19511 1.10825 0
M  V30 4055 C 404.006 -5.70639 2.21445 0
M  V30 4056 N 403.143 -6.80589 1.72461 0
M  V30 4057 H 407.983 -2.32804 1.86028 0
M  V30 4058 H 405.52 -1.14179 0.927441 0
M  V30 4059 H 407.478 -4.16736 0.196745 0
M  V30 4060 H 406.108 -3.20166 -0.411493 0
M  V30 4061 H 405.16 -3.23066 2.00829 0
M  V30 4062 H 406.472 -4.34794 2.4445 0
M  V30 4063 H 405.626 -6.01645 0.781533 0
M  V30 4064 H 404.365 -4.87086 0.244606 0
M  V30 4065 H 403.37 -4.87116 2.54947 0
M  V30 4066 H 404.595 -6.05102 3.08267 0
M  V30 4067 H 402.541 -6.50016 0.884056 0
M  V30 4068 H 402.458 -7.13681 2.49389 0
M  V30 4069 H 403.726 -7.66317 1.42755 0
M  V30 4070 N 407.956 -0.998596 -1.21925 0
M  V30 4071 C 409.233 -0.593401 -1.86382 0
M  V30 4072 C 409.613 0.92916 -1.89552 0
M  V30 4073 O 408.961 1.81347 -1.39017 0
M  V30 4074 C 409.171 -1.22039 -3.26967 0
M  V30 4075 C 410.519 -1.32449 -4.03413 0
M  V30 4076 O 411.543 -1.17522 -3.36254 0
M  V30 4077 O 410.402 -1.56395 -5.23644 0
M  V30 4078 H 407.496 -0.202385 -0.801854 0
M  V30 4079 H 410.042 -1.09484 -1.29659 0
M  V30 4080 H 408.814 -2.26158 -3.19325 0
M  V30 4081 H 408.437 -0.704906 -3.91301 0
M  V30 4082 N 409.434 1.37368 -0.772513 0
M  V30 4083 C 410.367 2.27956 -0.105593 0
M  V30 4084 C 411.345 1.46362 0.708295 0
M  V30 4085 O 412.529 1.75695 0.682895 0
M  V30 4086 C 409.656 3.27687 0.856686 0
M  V30 4087 C 408.702 4.26312 0.1267 0
M  V30 4088 S 409.535 5.22206 -1.1858 0
M  V30 4089 C 410.691 6.25488 -0.227081 0
M  V30 4090 H 410.924 2.84171 -0.87372 0
M  V30 4091 H 408.457 1.43654 -0.565939 0
M  V30 4092 H 410.415 3.85653 1.40648 0
M  V30 4093 H 409.076 2.70417 1.59793 0
M  V30 4094 H 408.269 4.96674 0.856212 0
M  V30 4095 H 407.871 3.72339 -0.352117 0
M  V30 4096 H 410.163 6.74836 0.600231 0
M  V30 4097 H 411.106 7.02371 -0.898899 0
M  V30 4098 H 411.514 5.64267 0.162053 0
M  V30 4099 N 410.912 0.523116 1.48665 0
M  V30 4100 C 411.822 -0.247406 2.33292 0
M  V30 4101 C 412.838 -0.945769 1.46052 0
M  V30 4102 O 414.014 -0.922253 1.79043 0
M  V30 4103 C 411.079 -1.28487 3.22012 0
M  V30 4104 C 410.14 -0.597592 4.2512 0
M  V30 4105 C 409.373 -1.58563 5.09601 0
M  V30 4106 O 409.596 -2.81763 4.95949 0
M  V30 4107 O 408.53 -1.12879 5.91221 0
M  V30 4108 H 412.356 0.445869 3.00409 0
M  V30 4109 H 409.941 0.284128 1.46673 0
M  V30 4110 H 411.823 -1.88459 3.7691 0
M  V30 4111 H 410.498 -1.96068 2.57564 0
M  V30 4112 H 409.405 0.0424407 3.74076 0
M  V30 4113 H 410.738 0.0361517 4.92187 0
M  V30 4114 N 412.39 -1.55475 0.257931 0
M  V30 4115 C 413.615 -2.04064 -0.370488 0
M  V30 4116 C 414.04 -1.13565 -1.49948 0
M  V30 4117 O 413.398 -0.130781 -1.80828 0
M  V30 4118 C 413.446 -3.50554 -0.845237 0
M  V30 4119 O 412.55 -3.63173 -1.95394 0
M  V30 4120 H 411.891 -0.659257 -0.0792243 0
M  V30 4121 H 414.421 -2.00903 0.387212 0
M  V30 4122 H 414.431 -3.91588 -1.14555 0
M  V30 4123 H 413.106 -4.15896 -0.0191259 0
M  V30 4124 H 411.683 -3.34039 -1.65748 0
M  V30 4125 N 413.868 0.0150385 -1.57593 0
M  V30 4126 C 415.279 0.559832 -1.78109 0
M  V30 4127 C 415.63 1.74814 -0.890756 0
M  V30 4128 O 414.755 2.16216 -0.0892482 0
M  V30 4129 C 415.35 1.02238 -3.23006 0
M  V30 4130 C 413.909 1.51258 -3.44671 0
M  V30 4131 C 413.056 0.456955 -2.73509 0
M  V30 4132 H 416.007 -0.211169 -1.57289 0
M  V30 4133 H 416.028 1.88912 -3.30292 0
M  V30 4134 H 415.54 0.157302 -3.87781 0
M  V30 4135 H 413.641 2.39905 -2.8509 0
M  V30 4136 H 413.754 1.55042 -4.5332 0
M  V30 4137 H 412.118 0.915196 -2.37689 0
M  V30 4138 H 412.901 -0.398896 -3.40975 0
M  V30 4139 N 415.346 1.54954 0.287554 0
M  V30 4140 C 416.574 1.78881 1.03967 0
M  V30 4141 C 416.989 0.554894 1.80462 0
M  V30 4142 O 416.346 -0.475676 1.76192 0
M  V30 4143 C 416.397 3.00488 2.0097 0
M  V30 4144 O 416.118 4.19113 1.27577 0
M  V30 4145 C 417.619 3.36907 2.88112 0
M  V30 4146 H 414.839 0.596259 0.307761 0
M  V30 4147 H 417.383 2.01937 0.322749 0
M  V30 4148 H 415.538 2.79601 2.68145 0
M  V30 4149 H 415.952 4.87765 1.92835 0
M  V30 4150 H 417.426 4.25205 3.52001 0
M  V30 4151 H 417.903 2.55659 3.57121 0
M  V30 4152 H 418.509 3.60001 2.26449 0
M  V30 4153 N 416.824 -0.551391 1.4764 0
M  V30 4154 C 417.771 -1.65796 1.60563 0
M  V30 4155 C 418.741 -1.59932 0.448428 0
M  V30 4156 O 419.926 -1.78679 0.669222 0
M  V30 4157 C 417.066 -3.04108 1.63133 0
M  V30 4158 C 416.179 -3.20365 2.89811 0
M  V30 4159 C 415.314 -4.49109 2.8368 0
M  V30 4160 C 414.353 -4.58819 4.05156 0
M  V30 4161 N 413.49 -5.78926 3.97227 0
M  V30 4162 H 418.33 -1.54088 2.5507 0
M  V30 4163 H 415.867 -0.75052 1.26513 0
M  V30 4164 H 417.825 -3.84207 1.62606 0
M  V30 4165 H 416.455 -3.14637 0.721341 0
M  V30 4166 H 415.507 -2.33659 3.00179 0
M  V30 4167 H 416.819 -3.23402 3.79753 0
M  V30 4168 H 415.973 -5.37475 2.81434 0
M  V30 4169 H 414.712 -4.4856 1.91431 0
M  V30 4170 H 413.717 -3.68864 4.077 0
M  V30 4171 H 414.942 -4.61124 4.98539 0
M  V30 4172 H 412.888 -5.79314 3.07785 0
M  V30 4173 H 412.805 -5.83367 4.80853 0
M  V30 4174 H 414.073 -6.69637 3.99007 0
M  V30 4175 N 418.302 -1.35869 -0.798587 0
M  V30 4176 C 419.232 -1.32118 -1.92528 0
M  V30 4177 C 420.213 -0.194209 -1.68988 0
M  V30 4178 O 421.398 -0.390426 -1.90235 0
M  V30 4179 C 418.528 -1.10047 -3.29404 0
M  V30 4180 C 417.482 -2.19471 -3.67446 0
M  V30 4181 C 416.808 -1.82555 -5.02571 0
M  V30 4182 C 418.108 -3.61495 -3.76987 0
M  V30 4183 H 419.802 -2.26394 -1.95924 0
M  V30 4184 H 417.348 -1.08981 -0.94123 0
M  V30 4185 H 419.301 -1.06061 -4.07835 0
M  V30 4186 H 418.025 -0.122195 -3.26371 0
M  V30 4187 H 416.684 -2.22568 -2.91306 0
M  V30 4188 H 416.332 -0.833249 -4.9605 0
M  V30 4189 H 416.032 -2.5581 -5.28995 0
M  V30 4190 H 417.556 -1.80108 -5.83432 0
M  V30 4191 H 418.97 -3.60676 -4.4563 0
M  V30 4192 H 417.367 -4.33577 -4.14887 0
M  V30 4193 H 418.437 -3.97065 -2.78329 0
M  V30 4194 N 419.78 1.02168 -1.19998 0
M  V30 4195 C 421.057 1.72816 -0.916191 0
M  V30 4196 C 421.437 2.03081 0.576325 0
M  V30 4197 O 420.785 1.69122 1.53656 0
M  V30 4198 C 420.995 2.9997 -1.78378 0
M  V30 4199 C 422.343 3.73336 -2.02251 0
M  V30 4200 O 423.367 3.09914 -1.75589 0
M  V30 4201 O 422.226 4.87371 -2.47249 0
M  V30 4202 H 419.32 0.752924 -0.342103 0
M  V30 4203 H 421.866 1.08062 -1.30846 0
M  V30 4204 H 420.638 2.73888 -2.79466 0
M  V30 4205 H 420.261 3.72464 -1.39126 0
M  V30 4206 N 421.258 1.00505 1.21394 0
M  V30 4207 C 422.504 0.688793 1.90745 0
M  V30 4208 C 422.837 -0.778486 1.77914 0
M  V30 4209 O 422.112 -1.56433 1.15581 0
M  V30 4210 C 422.395 1.11063 3.42545 0
M  V30 4211 C 422.248 2.63737 3.64367 0
M  V30 4212 C 423.567 0.673059 4.34923 0
M  V30 4213 H 420.686 0.251702 0.692687 0
M  V30 4214 H 423.328 1.25074 1.43026 0
M  V30 4215 H 421.478 0.632508 3.83317 0
M  V30 4216 H 423.15 3.19313 3.32922 0
M  V30 4217 H 421.393 3.05248 3.08231 0
M  V30 4218 H 422.064 2.88305 4.70727 0
M  V30 4219 H 424.54 1.08392 4.01734 0
M  V30 4220 H 423.416 0.996383 5.39781 0
M  V30 4221 H 423.677 -0.425808 4.40045 0
M  V30 4222 N 422.737 -1.36956 0.779787 0
M  V30 4223 C 423.965 -2.03755 0.359398 0
M  V30 4224 C 424.38 -1.58807 -1.02106 0
M  V30 4225 O 423.737 -0.773024 -1.6532 0
M  V30 4226 C 423.788 -3.59251 0.402568 0
M  V30 4227 O 423.509 -4.02557 1.72858 0
M  V30 4228 C 425.01 -4.43291 -0.0284068 0
M  V30 4229 H 422.23 -0.654148 0.149437 0
M  V30 4230 H 424.774 -1.75128 1.05595 0
M  V30 4231 H 422.929 -3.86621 -0.245478 0
M  V30 4232 H 423.343 -4.97111 1.67275 0
M  V30 4233 H 424.817 -5.51975 0.0529466 0
M  V30 4234 H 425.294 -4.25719 -1.07982 0
M  V30 4235 H 425.9 -4.21163 0.591758 0
M  V30 4236 N 424.215 -0.530993 -1.48385 0
M  V30 4237 C 425.145 0.219985 -2.32461 0
M  V30 4238 C 426.126 0.934111 -1.42156 0
M  V30 4239 O 427.311 0.919694 -1.71042 0
M  V30 4240 C 424.441 1.26674 -3.23375 0
M  V30 4241 C 423.395 0.67069 -4.22712 0
M  V30 4242 C 422.721 1.82017 -5.02766 0
M  V30 4243 C 424.021 -0.358268 -5.2107 0
M  V30 4244 H 425.715 -0.48187 -2.95497 0
M  V30 4245 H 423.261 -0.233182 -1.42099 0
M  V30 4246 H 425.214 1.80006 -3.81019 0
M  V30 4247 H 423.938 1.99818 -2.58341 0
M  V30 4248 H 422.597 0.158878 -3.66256 0
M  V30 4249 H 422.245 2.54002 -4.34157 0
M  V30 4250 H 421.945 1.42727 -5.70003 0
M  V30 4251 H 423.469 2.35725 -5.63264 0
M  V30 4252 H 424.883 0.0880081 -5.73232 0
M  V30 4253 H 423.28 -0.66861 -5.96364 0
M  V30 4254 H 424.35 -1.26367 -4.68145 0
M  V30 4255 N 425.693 1.55336 -0.266172 0
M  V30 4256 C 426.656 2.20878 0.612001 0
M  V30 4257 C 427.656 1.18388 1.08816 0
M  V30 4258 O 428.846 1.4335 0.989774 0
M  V30 4259 C 425.978 2.86765 1.84332 0
M  V30 4260 H 427.171 2.99873 0.0398718 0
M  V30 4261 H 424.724 1.56291 -0.0167309 0
M  V30 4262 H 425.459 2.11759 2.45619 0
M  V30 4263 H 425.244 3.61862 1.5099 0
M  V30 4264 H 426.734 3.36867 2.46801 0
M  V30 4265 N 427.171 -0.0066808 1.57599 0
M  V30 4266 C 428.118 -1.00024 2.08 0
M  V30 4267 C 429.088 -1.34549 0.973943 0
M  V30 4268 O 430.273 -1.44502 1.24595 0
M  V30 4269 C 427.413 -2.2891 2.58252 0
M  V30 4270 C 426.526 -2.00346 3.82734 0
M  V30 4271 C 425.661 -3.23265 4.21513 0
M  V30 4272 C 424.7 -2.90357 5.3885 0
M  V30 4273 N 423.837 -4.05793 5.72954 0
M  V30 4274 H 428.677 -0.563499 2.92624 0
M  V30 4275 H 426.214 -0.266592 1.44664 0
M  V30 4276 H 428.172 -3.04247 2.85464 0
M  V30 4277 H 426.802 -2.70265 1.76512 0
M  V30 4278 H 425.854 -1.15406 3.62471 0
M  V30 4279 H 427.166 -1.72086 4.68175 0
M  V30 4280 H 426.32 -4.06953 4.49971 0
M  V30 4281 H 425.059 -3.54657 3.34768 0
M  V30 4282 H 424.064 -2.05075 5.10122 0
M  V30 4283 H 425.289 -2.60219 6.27266 0
M  V30 4284 H 423.235 -4.37094 4.89167 0
M  V30 4285 H 423.152 -3.81034 6.52954 0
M  V30 4286 H 424.42 -4.90289 6.06001 0
M  V30 4287 N 428.649 -1.55105 -0.279332 0
M  V30 4288 C 429.926 -1.66119 -1.03267 0
M  V30 4289 C 430.306 -0.523525 -2.04505 0
M  V30 4290 O 429.654 0.477194 -2.23462 0
M  V30 4291 C 429.864 -3.05067 -1.69515 0
M  V30 4292 C 431.212 -3.62606 -2.20912 0
M  V30 4293 O 432.236 -3.07659 -1.79512 0
M  V30 4294 O 431.095 -4.58861 -2.96831 0
M  V30 4295 H 428.189 -0.674429 -0.478618 0
M  V30 4296 H 430.735 -1.67446 -0.275694 0
M  V30 4297 H 429.507 -3.79311 -0.9612 0
M  V30 4298 H 429.13 -3.07611 -2.51915 0
M  V30 4299 N 430.127 0.543554 -1.4793 0
M  V30 4300 C 431.06 1.66556 -1.55995 0
M  V30 4301 C 432.038 1.57315 -0.411205 0
M  V30 4302 O 433.222 1.7798 -0.620922 0
M  V30 4303 C 430.349 3.04883 -1.47527 0
M  V30 4304 C 429.395 3.32526 -2.67074 0
M  V30 4305 S 430.228 3.20282 -4.29162 0
M  V30 4306 C 431.384 4.61079 -4.23269 0
M  V30 4307 H 431.617 1.59462 -2.50917 0
M  V30 4308 H 429.15 0.725456 -1.36296 0
M  V30 4309 H 431.108 3.84665 -1.43328 0
M  V30 4310 H 429.769 3.09429 -0.539665 0
M  V30 4311 H 428.962 4.33403 -2.5725 0
M  V30 4312 H 428.564 2.60389 -2.68466 0
M  V30 4313 H 430.856 5.52318 -3.92365 0
M  V30 4314 H 431.799 4.75959 -5.24279 0
M  V30 4315 H 432.207 4.39766 -3.5393 0
M  V30 4316 N 431.605 1.3629 0.791371 0
M  V30 4317 C 432.537 1.26321 1.91248 0
M  V30 4318 C 433.55 0.18313 1.61767 0
M  V30 4319 O 434.739 0.437682 1.73051 0
M  V30 4320 C 431.839 0.925901 3.26007 0
M  V30 4321 C 431.012 2.10746 3.83281 0
M  V30 4322 C 430.071 1.74352 4.96475 0
M  V30 4323 O 429.097 2.46416 5.13096 0
M  V30 4324 N 430.299 0.676058 5.7655 0
M  V30 4325 H 433.064 2.22915 2.00323 0
M  V30 4326 H 430.625 1.29659 0.969546 0
M  V30 4327 H 432.617 0.663636 3.99222 0
M  V30 4328 H 431.187 0.0491581 3.12561 0
M  V30 4329 H 430.407 2.53264 3.02077 0
M  V30 4330 H 431.695 2.8969 4.18279 0
M  V30 4331 H 431.093 0.0776467 5.65647 0
M  V30 4332 H 429.65 0.473612 6.50077 0
M  V30 4333 N 433.083 -1.0153 1.20538 0
M  V30 4334 C 434.494 -1.56598 1.01657 0
M  V30 4335 C 434.845 -1.91505 -0.426668 0
M  V30 4336 O 433.97 -1.72375 -1.30827 0
M  V30 4337 C 434.565 -2.84542 1.83905 0
M  V30 4338 C 433.124 -3.36133 1.69386 0
M  V30 4339 C 432.271 -2.09427 1.81757 0
M  V30 4340 H 435.222 -0.838974 1.34711 0
M  V30 4341 H 435.243 -3.56004 1.34319 0
M  V30 4342 H 434.755 -2.59105 2.8894 0
M  V30 4343 H 432.856 -3.66528 0.669933 0
M  V30 4344 H 432.969 -4.08248 2.50739 0
M  V30 4345 H 431.333 -2.21941 1.24957 0
M  V30 4346 H 432.116 -1.86414 2.88279 0
M  V30 4347 N 434.561 -1.01147 -1.20859 0
M  V30 4348 C 435.786 -0.716698 -1.94623 0
M  V30 4349 C 436.211 0.715415 -1.73964 0
M  V30 4350 O 435.569 1.49157 -1.03062 0
M  V30 4351 C 435.617 -1.0513 -3.44935 0
M  V30 4352 O 434.721 -0.160131 -4.12089 0
M  V30 4353 H 434.062 -0.266404 -0.608214 0
M  V30 4354 H 436.592 -1.35346 -1.53436 0
M  V30 4355 H 436.602 -1.00086 -3.95533 0
M  V30 4356 H 435.277 -2.09475 -3.59295 0
M  V30 4357 H 433.854 -0.267657 -3.71938 0
M  V30 4358 N 436.039 1.36541 -0.78704 0
M  V30 4359 C 436.972 2.27831 -0.129765 0
M  V30 4360 C 437.95 1.47105 0.692732 0
M  V30 4361 O 439.134 1.7641 0.664222 0
M  V30 4362 C 436.261 3.28577 0.821883 0
M  V30 4363 C 435.307 4.26422 0.0814771 0
M  V30 4364 S 436.14 5.20919 -1.24112 0
M  V30 4365 C 437.296 6.25212 -0.293409 0
M  V30 4366 H 437.529 2.83229 -0.903811 0
M  V30 4367 H 435.062 1.43046 -0.581144 0
M  V30 4368 H 437.02 3.87123 1.3655 0
M  V30 4369 H 435.681 2.72096 1.56916 0
M  V30 4370 H 434.874 4.97554 0.803485 0
M  V30 4371 H 434.476 3.71944 -0.391589 0
M  V30 4372 H 436.768 6.75435 0.528622 0
M  V30 4373 H 437.711 7.01378 -0.973344 0
M  V30 4374 H 438.119 5.64407 0.102196 0
M  V30 4375 N 437.518 0.538854 1.48102 0
M  V30 4376 C 438.428 -0.222648 2.33541 0
M  V30 4377 C 439.444 -0.930225 1.47047 0
M  V30 4378 O 440.62 -0.903211 1.80011 0
M  V30 4379 C 437.685 -1.25064 3.23357 0
M  V30 4380 C 436.746 -0.552469 4.2573 0
M  V30 4381 C 435.979 -1.53149 5.11254 0
M  V30 4382 O 436.202 -2.76487 4.9891 0
M  V30 4383 O 435.136 -1.06602 5.92385 0
M  V30 4384 H 438.962 0.477707 2.99919 0
M  V30 4385 H 436.547 0.299669 1.46364 0
M  V30 4386 H 438.429 -1.8445 3.78888 0
M  V30 4387 H 437.104 -1.93325 2.59629 0
M  V30 4388 H 436.011 0.082114 3.7401 0
M  V30 4389 H 437.344 0.0883526 4.92121 0
M  V30 4390 N 438.996 -1.55193 0.274407 0
M  V30 4391 C 440.221 -2.04446 -0.348824 0
M  V30 4392 C 440.646 -1.15149 -1.48735 0
M  V30 4393 O 440.004 -0.149952 -1.80679 0
M  V30 4394 C 440.052 -3.51431 -0.808009 0
M  V30 4395 O 439.156 -3.65225 -1.91531 0
M  V30 4396 H 438.497 -0.66006 -0.0722276 0
M  V30 4397 H 441.027 -2.00481 0.408498 0
M  V30 4398 H 441.037 -3.92781 -1.10395 0
M  V30 4399 H 439.712 -4.15892 0.0249865 0
M  V30 4400 H 438.289 -3.35778 -1.62196 0
M  V30 4401 N 440.474 -0.00167713 -1.576 0
M  V30 4402 C 441.751 0.719951 -1.81868 0
M  V30 4403 C 442.131 1.91895 -0.879747 0
M  V30 4404 O 441.479 2.28389 0.0711423 0
M  V30 4405 C 441.689 1.12409 -3.30402 0
M  V30 4406 C 443.037 1.52724 -3.96182 0
M  V30 4407 O 444.061 1.21784 -3.34734 0
M  V30 4408 O 442.92 2.10265 -5.04431 0
M  V30 4409 H 440.014 0.350707 -0.748955 0
M  V30 4410 H 442.56 -0.0272597 -1.69678 0
M  V30 4411 H 441.332 0.269532 -3.90371 0
M  V30 4412 H 440.955 1.93035 -3.47596 0
M  V30 4413 N 441.952 1.55251 0.271103 0
M  V30 4414 C 442.885 1.83191 1.36075 0
M  V30 4415 C 443.863 0.685091 1.47463 0
M  V30 4416 O 445.047 0.928292 1.64058 0
M  V30 4417 C 442.174 1.99521 2.73696 0
M  V30 4418 C 441.22 3.22081 2.79582 0
M  V30 4419 S 442.053 4.79388 2.38636 0
M  V30 4420 C 443.209 4.98693 3.78228 0
M  V30 4421 H 443.442 2.75327 1.12171 0
M  V30 4422 H 440.975 1.47046 0.470833 0
M  V30 4423 H 442.933 2.09613 3.52948 0
M  V30 4424 H 441.594 1.0827 2.9485 0
M  V30 4425 H 440.787 3.304 3.80594 0
M  V30 4426 H 440.389 3.10589 2.08352 0
M  V30 4427 H 442.681 4.84551 4.73515 0
M  V30 4428 H 443.624 6.00738 3.7486 0
M  V30 4429 H 444.032 4.26665 3.69618 0
M  V30 4430 N 443.43 -0.535701 1.48216 0
M  V30 4431 C 444.393 -1.623 1.61838 0
M  V30 4432 C 445.393 -1.53087 0.492024 0
M  V30 4433 O 446.583 -1.5686 0.757668 0
M  V30 4434 C 443.715 -3.01907 1.58319 0
M  V30 4435 H 444.908 -1.51564 2.58783 0
M  V30 4436 H 442.461 -0.757317 1.36727 0
M  V30 4437 H 443.196 -3.18155 0.628299 0
M  V30 4438 H 442.981 -3.10003 2.40085 0
M  V30 4439 H 444.471 -3.80969 1.71033 0
M  V30 4440 N 444.908 -1.36708 -0.784132 0
M  V30 4441 C 445.838 -1.34153 -1.91116 0
M  V30 4442 C 446.819 -0.212121 -1.68772 0
M  V30 4443 O 448.004 -0.410581 -1.8981 0
M  V30 4444 C 445.134 -1.13535 -3.28218 0
M  V30 4445 C 444.088 -2.23356 -3.65097 0
M  V30 4446 C 443.414 -1.87875 -5.00607 0
M  V30 4447 C 444.714 -3.65473 -3.73131 0
M  V30 4448 H 446.408 -2.28459 -1.93512 0
M  V30 4449 H 443.954 -1.09973 -0.929618 0
M  V30 4450 H 445.907 -1.10381 -4.06687 0
M  V30 4451 H 444.631 -0.156804 -3.26223 0
M  V30 4452 H 443.29 -2.25645 -2.88929 0
M  V30 4453 H 442.938 -0.885814 -4.95139 0
M  V30 4454 H 442.638 -2.61406 -5.26252 0
M  V30 4455 H 444.162 -1.86286 -5.81489 0
M  V30 4456 H 445.576 -3.65382 -4.41779 0
M  V30 4457 H 443.973 -4.37953 -4.10265 0
M  V30 4458 H 445.043 -3.99995 -2.74102 0
M  V30 4459 N 446.386 1.0089 -1.21074 0
M  V30 4460 C 447.632 1.74866 -1.02712 0
M  V30 4461 C 447.965 1.89178 0.438787 0
M  V30 4462 O 447.24 1.42325 1.32567 0
M  V30 4463 C 447.523 3.16347 -1.72036 0
M  V30 4464 C 447.376 3.09782 -3.26121 0
M  V30 4465 C 448.695 4.15187 -1.45973 0
M  V30 4466 H 445.814 0.634736 -0.374539 0
M  V30 4467 H 448.456 1.17646 -1.49196 0
M  V30 4468 H 446.606 3.65201 -1.32517 0
M  V30 4469 H 448.278 2.68673 -3.74983 0
M  V30 4470 H 446.521 2.46982 -3.56626 0
M  V30 4471 H 447.192 4.09829 -3.6979 0
M  V30 4472 H 449.668 3.75022 -1.80272 0
M  V30 4473 H 448.544 5.12331 -1.96999 0
M  V30 4474 H 448.805 4.40386 -0.388924 0
M  V30 4475 N 447.864 1.01787 1.20321 0
M  V30 4476 C 448.811 0.589197 2.23153 0
M  V30 4477 C 449.781 -0.391367 1.61423 0
M  V30 4478 O 450.966 -0.290518 1.88575 0
M  V30 4479 C 448.106 -0.0650747 3.45039 0
M  V30 4480 C 447.219 0.960207 4.21194 0
M  V30 4481 C 446.354 0.276854 5.30478 0
M  V30 4482 C 445.393 1.2888 5.98378 0
M  V30 4483 N 444.53 0.632031 6.99249 0
M  V30 4484 H 449.37 1.47071 2.59179 0
M  V30 4485 H 446.907 0.736192 1.27352 0
M  V30 4486 H 448.865 -0.461552 4.14639 0
M  V30 4487 H 447.495 -0.910233 3.09701 0
M  V30 4488 H 446.547 1.47484 3.50646 0
M  V30 4489 H 447.859 1.72977 4.67847 0
M  V30 4490 H 447.013 -0.175056 6.06447 0
M  V30 4491 H 445.752 -0.525004 4.84866 0
M  V30 4492 H 444.757 1.75109 5.21169 0
M  V30 4493 H 445.982 2.09196 6.46076 0
M  V30 4494 H 443.928 -0.149935 6.55829 0
M  V30 4495 H 443.845 1.33964 7.44036 0
M  V30 4496 H 445.113 0.203755 7.79234 0
M  V30 4497 N 449.342 -1.36122 0.79427 0
M  V30 4498 C 450.619 -1.93398 0.292685 0
M  V30 4499 C 450.999 -1.72567 -1.21589 0
M  V30 4500 O 450.347 -1.08745 -2.00965 0
M  V30 4501 C 450.557 -3.42099 0.690614 0
M  V30 4502 C 451.905 -4.19231 0.673105 0
M  V30 4503 O 452.929 -3.50559 0.631389 0
M  V30 4504 O 451.788 -5.41732 0.720362 0
M  V30 4505 H 448.882 -0.823712 0.0736693 0
M  V30 4506 H 451.428 -1.45273 0.87714 0
M  V30 4507 H 450.2 -3.50938 1.73085 0
M  V30 4508 H 449.823 -3.97519 0.0803036 0
M  V30 4509 N 450.82 -0.546701 -1.47814 0
M  V30 4510 C 451.753 0.254472 -2.26777 0
M  V30 4511 C 452.731 0.929809 -1.33392 0
M  V30 4512 O 453.915 0.950889 -1.62759 0
M  V30 4513 C 451.042 1.36171 -3.10121 0
M  V30 4514 C 450.088 0.796038 -4.19005 0
M  V30 4515 S 450.921 -0.349191 -5.3436 0
M  V30 4516 C 452.077 0.760122 -6.21267 0
M  V30 4517 H 452.31 -0.415612 -2.94381 0
M  V30 4518 H 449.843 -0.332809 -1.5077 0
M  V30 4519 H 451.801 1.99588 -3.58713 0
M  V30 4520 H 450.462 2.00359 -2.41899 0
M  V30 4521 H 449.655 1.62719 -4.7701 0
M  V30 4522 H 449.257 0.238246 -3.7324 0
M  V30 4523 H 451.549 1.65479 -6.5698 0
M  V30 4524 H 452.492 0.217673 -7.07765 0
M  V30 4525 H 452.9 1.04806 -5.54685 0
M  V30 4526 N 452.299 1.55045 -0.282633 0
M  V30 4527 C 453.209 2.26491 0.61147 0
M  V30 4528 C 454.225 1.29348 1.16384 0
M  V30 4529 O 455.401 1.62298 1.19253 0
M  V30 4530 C 452.466 2.97779 1.77563 0
M  V30 4531 C 451.527 4.10418 1.25919 0
M  V30 4532 C 450.76 4.78297 2.36786 0
M  V30 4533 O 450.983 4.45426 3.56303 0
M  V30 4534 O 449.917 5.66089 2.04517 0
M  V30 4535 H 453.743 3.03683 0.0324615 0
M  V30 4536 H 451.328 1.49317 -0.0497576 0
M  V30 4537 H 453.21 3.42554 2.45427 0
M  V30 4538 H 451.885 2.23498 2.34159 0
M  V30 4539 H 450.792 3.70082 0.546797 0
M  V30 4540 H 452.125 4.86622 0.738887 0
M  V30 4541 N 453.777 0.010035 1.57597 0
M  V30 4542 C 454.707 -0.976857 2.12084 0
M  V30 4543 C 455.688 -1.35191 1.03235 0
M  V30 4544 O 456.873 -1.43389 1.3097 0
M  V30 4545 C 454.003 -2.26548 2.63236 0
M  V30 4546 C 452.957 -2.03175 3.76701 0
M  V30 4547 C 452.283 -3.38138 4.14206 0
M  V30 4548 C 453.583 -1.38625 5.03568 0
M  V30 4549 H 455.277 -0.523145 2.94794 0
M  V30 4550 H 452.823 -0.250195 1.4181 0
M  V30 4551 H 454.776 -2.95952 2.99984 0
M  V30 4552 H 453.5 -2.74051 1.77661 0
M  V30 4553 H 452.159 -1.36195 3.40362 0
M  V30 4554 H 451.807 -3.83363 3.25641 0
M  V30 4555 H 451.507 -3.23312 4.90656 0
M  V30 4556 H 453.031 -4.08841 4.53521 0
M  V30 4557 H 454.445 -1.98 5.38023 0
M  V30 4558 H 452.842 -1.34256 5.84889 0
M  V30 4559 H 453.912 -0.356722 4.83586 0
M  V30 4560 N 455.255 -1.55392 -0.262866 0
M  V30 4561 C 456.666 -1.67079 -0.833158 0
M  V30 4562 C 457.017 -0.604539 -1.86654 0
M  V30 4563 O 456.142 0.252138 -2.14926 0
M  V30 4564 C 456.737 -3.02891 -1.51797 0
M  V30 4565 C 455.296 -3.16571 -2.03617 0
M  V30 4566 C 454.443 -2.62909 -0.881701 0
M  V30 4567 H 457.394 -1.58652 -0.0389986 0
M  V30 4568 H 457.415 -2.96445 -2.38538 0
M  V30 4569 H 456.927 -3.80473 -0.765619 0
M  V30 4570 H 455.028 -2.43782 -2.81782 0
M  V30 4571 H 455.141 -4.23271 -2.24452 0
M  V30 4572 H 453.505 -2.20324 -1.27786 0
M  V30 4573 H 454.288 -3.43003 -0.14269 0
M  V30 4574 N 456.733 0.527833 -1.48498 0
M  V30 4575 C 457.961 1.30823 -1.6029 0
M  V30 4576 C 458.376 1.86945 -0.263974 0
M  V30 4577 O 457.733 1.6651 0.747034 0
M  V30 4578 C 457.784 2.45756 -2.65116 0
M  V30 4579 O 457.505 1.91946 -3.93813 0
M  V30 4580 C 459.006 3.37543 -2.87367 0
M  V30 4581 H 456.226 0.397763 -0.540394 0
M  V30 4582 H 458.77 0.636529 -1.94341 0
M  V30 4583 H 456.925 3.08806 -2.33917 0
M  V30 4584 H 457.339 2.67195 -4.51339 0
M  V30 4585 H 458.813 4.14532 -3.6451 0
M  V30 4586 H 459.29 3.92905 -1.9627 0
M  V30 4587 H 459.896 2.80283 -3.19878 0
M  V30 4588 N 458.211 1.37122 0.776871 0
M  V30 4589 C 459.121 1.34651 1.9211 0
M  V30 4590 C 460.137 0.246824 1.7224 0
M  V30 4591 O 461.313 0.48134 1.95563 0
M  V30 4592 C 458.378 1.14748 3.2716 0
M  V30 4593 C 457.439 2.34308 3.5972 0
M  V30 4594 C 456.672 2.15345 4.88326 0
M  V30 4595 O 456.895 1.13507 5.58992 0
M  V30 4596 O 455.829 3.03414 5.1983 0
M  V30 4597 H 459.655 2.31013 1.97146 0
M  V30 4598 H 457.24 1.17799 0.918901 0
M  V30 4599 H 459.122 1.05616 4.0795 0
M  V30 4600 H 457.797 0.214562 3.22988 0
M  V30 4601 H 456.704 2.49011 2.79185 0
M  V30 4602 H 458.037 3.26149 3.68629 0
M  V30 4603 N 459.689 -1.00246 1.21608 0
M  V30 4604 C 460.636 -2.09073 0.977613 0
M  V30 4605 C 461.606 -1.65815 -0.097297 0
M  V30 4606 O 462.791 -1.90734 0.0503445 0
M  V30 4607 C 459.931 -3.40671 0.551133 0
M  V30 4608 C 459.044 -3.97326 1.69576 0
M  V30 4609 C 458.179 -5.17043 1.2182 0
M  V30 4610 C 457.218 -5.65813 2.335 0
M  V30 4611 N 456.355 -6.76778 1.86859 0
M  V30 4612 H 461.195 -2.28806 1.90924 0
M  V30 4613 H 458.732 -1.12186 0.951452 0
M  V30 4614 H 460.69 -4.16225 0.285097 0
M  V30 4615 H 459.32 -3.20967 -0.343489 0
M  V30 4616 H 458.372 -3.18734 2.07637 0
M  V30 4617 H 459.684 -4.29511 2.53617 0
M  V30 4618 H 458.838 -5.99852 0.908975 0
M  V30 4619 H 457.577 -4.86458 0.347869 0
M  V30 4620 H 456.582 -4.81599 2.65222 0
M  V30 4621 H 457.807 -5.98427 3.21033 0
M  V30 4622 H 455.753 -6.47994 1.02174 0
M  V30 4623 H 455.67 -7.08231 2.64471 0
M  V30 4624 H 456.938 -7.63116 1.58978 0
M  V30 4625 N 461.167 -1.02423 -1.1978 0
M  V30 4626 C 462.077 -0.610919 -2.26506 0
M  V30 4627 C 463.093 0.355152 -1.70337 0
M  V30 4628 O 464.269 0.214195 -2.00258 0
M  V30 4629 C 461.334 0.0365921 -3.46681 0
M  V30 4630 C 460.395 -0.976389 -4.18049 0
M  V30 4631 C 459.628 -0.359683 -5.32487 0
M  V30 4632 O 459.851 0.838601 -5.64202 0
M  V30 4633 O 458.785 -1.08022 -5.92127 0
M  V30 4634 H 462.611 -1.49965 -2.64091 0
M  V30 4635 H 460.196 -0.794156 -1.26545 0
M  V30 4636 H 462.078 0.39786 -4.19518 0
M  V30 4637 H 460.753 0.899398 -3.10954 0
M  V30 4638 H 459.66 -1.38916 -3.47352 0
M  V30 4639 H 460.993 -1.80941 -4.57735 0
M  V30 4640 N 462.645 1.35699 -0.801477 0
M  V30 4641 C 463.891 1.99208 -0.380022 0
M  V30 4642 C 464.224 1.63445 1.04878 0
M  V30 4643 O 463.499 0.895223 1.72673 0
M  V30 4644 C 463.782 3.55755 -0.557708 0
M  V30 4645 C 463.635 4.01332 -2.03107 0
M  V30 4646 C 464.954 4.40096 0.0197968 0
M  V30 4647 H 462.073 0.723667 -0.139552 0
M  V30 4648 H 464.715 1.60928 -1.01006 0
M  V30 4649 H 462.865 3.88494 -0.0213741 0
M  V30 4650 H 464.537 3.79026 -2.62939 0
M  V30 4651 H 462.78 3.52429 -2.52936 0
M  V30 4652 H 463.451 5.10234 -2.1063 0
M  V30 4653 H 465.927 4.13786 -0.438179 0
M  V30 4654 H 464.803 5.48735 -0.134477 0
M  V30 4655 H 465.064 4.2786 1.11303 0
M  V30 4656 N 464.123 0.554532 1.47522 0
M  V30 4657 C 465.086 -0.184174 2.28459 0
M  V30 4658 C 466.086 -0.845195 1.36796 0
M  V30 4659 O 467.276 -0.701467 1.59452 0
M  V30 4660 C 464.408 -1.26903 3.16399 0
M  V30 4661 H 465.601 0.526751 2.95238 0
M  V30 4662 H 463.154 0.311375 1.53167 0
M  V30 4663 H 463.889 -2.01244 2.54306 0
M  V30 4664 H 463.674 -0.799883 3.83854 0
M  V30 4665 H 465.164 -1.78794 3.77389 0
M  V30 4666 N 465.601 -1.54893 0.290851 0
M  V30 4667 C 466.531 -2.26103 -0.583084 0
M  V30 4668 C 467.512 -1.25684 -1.14619 0
M  V30 4669 O 468.697 -1.54436 -1.17741 0
M  V30 4670 C 465.827 -2.99409 -1.75987 0
M  V30 4671 C 464.781 -4.0689 -1.32758 0
M  V30 4672 C 464.107 -4.67856 -2.58872 0
M  V30 4673 C 465.407 -5.20215 -0.46624 0
M  V30 4674 H 467.101 -2.99398 0.0108214 0
M  V30 4675 H 464.647 -1.43998 0.00664468 0
M  V30 4676 H 466.6 -3.47943 -2.37727 0
M  V30 4677 H 465.324 -2.23675 -2.37985 0
M  V30 4678 H 463.983 -3.59191 -0.733299 0
M  V30 4679 H 463.631 -3.88772 -3.19163 0
M  V30 4680 H 463.331 -5.40438 -2.30653 0
M  V30 4681 H 464.855 -5.19147 -3.21433 0
M  V30 4682 H 466.269 -5.64704 -0.989047 0
M  V30 4683 H 464.666 -5.99455 -0.27826 0
M  V30 4684 H 465.736 -4.82198 0.511173 0
M  V30 4685 N 467.08 -0.0183926 -1.57589 0
M  V30 4686 C 468.326 0.663543 -1.91638 0
M  V30 4687 C 468.659 1.72392 -0.894134 0
M  V30 4688 O 467.934 1.94316 0.0846449 0
M  V30 4689 C 468.217 1.28984 -3.36207 0
M  V30 4690 C 468.07 0.239761 -4.49161 0
M  V30 4691 C 469.389 2.2109 -3.80536 0
M  V30 4692 H 466.508 0.239746 -0.696915 0
M  V30 4693 H 469.15 -0.073456 -1.89858 0
M  V30 4694 H 467.3 1.91799 -3.37854 0
M  V30 4695 H 468.972 -0.390119 -4.59647 0
M  V30 4696 H 467.215 -0.435972 -4.31604 0
M  V30 4697 H 467.886 0.717383 -5.47319 0
M  V30 4698 H 470.362 1.68273 -3.80557 0
M  V30 4699 H 469.238 2.61869 -4.82406 0
M  V30 4700 H 469.499 3.09764 -3.15434 0
M  V30 4701 N 468.558 1.5553 0.254621 0
M  V30 4702 C 469.505 1.89666 1.31512 0
M  V30 4703 C 470.475 0.750057 1.482 0
M  V30 4704 O 471.66 1.00301 1.62309 0
M  V30 4705 C 468.8 2.19009 2.667 0
M  V30 4706 C 467.913 3.46435 2.58083 0
M  V30 4707 C 467.048 3.65386 3.85573 0
M  V30 4708 C 466.087 4.8644 3.71541 0
M  V30 4709 N 465.224 5.01952 4.90906 0
M  V30 4710 H 470.064 2.80109 1.017 0
M  V30 4711 H 467.601 1.38666 0.490938 0
M  V30 4712 H 469.559 2.34025 3.45381 0
M  V30 4713 H 468.189 1.31779 2.94676 0
M  V30 4714 H 467.241 3.39792 1.71013 0
M  V30 4715 H 468.553 4.35258 2.43622 0
M  V30 4716 H 467.707 3.80319 4.72697 0
M  V30 4717 H 466.446 2.74781 4.02922 0
M  V30 4718 H 465.451 4.71491 2.82801 0
M  V30 4719 H 466.676 5.78497 3.55694 0
M  V30 4720 H 464.622 4.14283 5.08631 0
M  V30 4721 H 464.539 5.84851 4.79046 0
M  V30 4722 H 465.807 5.21289 5.7955 0
M  V30 4723 N 470.036 -0.519951 1.48776 0
M  V30 4724 C 471.313 -1.28123 1.47797 0
M  V30 4725 C 471.693 -2.10196 0.195157 0
M  V30 4726 O 471.041 -2.13167 -0.822925 0
M  V30 4727 C 471.251 -2.15413 2.74587 0
M  V30 4728 C 472.599 -2.75225 3.23321 0
M  V30 4729 O 473.623 -2.25694 2.75574 0
M  V30 4730 O 472.482 -3.65346 4.06429 0
M  V30 4731 H 469.576 -0.578793 0.590701 0
M  V30 4732 H 472.122 -0.535779 1.6102 0
M  V30 4733 H 470.894 -1.54617 3.59457 0
M  V30 4734 H 470.517 -2.97186 2.64132 0
M  V30 4735 N 471.514 -1.37532 -0.769588 0
M  V30 4736 C 472.76 -1.33057 -1.53048 0
M  V30 4737 C 473.093 0.0841865 -1.94017 0
M  V30 4738 O 472.368 1.04198 -1.64235 0
M  V30 4739 C 472.651 -2.27166 -2.79406 0
M  V30 4740 C 472.504 -3.77429 -2.44677 0
M  V30 4741 C 473.823 -2.19683 -3.81349 0
M  V30 4742 H 470.942 -0.484655 -0.555228 0
M  V30 4743 H 473.584 -1.68251 -0.882702 0
M  V30 4744 H 471.734 -1.97283 -3.34682 0
M  V30 4745 H 473.406 -4.17918 -1.953 0
M  V30 4746 H 471.649 -3.95892 -1.77346 0
M  V30 4747 H 472.32 -4.38716 -3.35011 0
M  V30 4748 H 474.796 -2.46029 -3.35573 0
M  V30 4749 H 473.672 -2.87668 -4.67481 0
M  V30 4750 H 473.933 -1.19045 -4.25771 0
M  V30 4751 N 472.992 0.995999 -1.22138 0
M  V30 4752 C 474.408 1.25917 -0.980667 0
M  V30 4753 C 474.608 1.98819 0.327604 0
M  V30 4754 O 473.664 2.29587 1.05101 0
M  V30 4755 C 474.977 2.07399 -2.17729 0
M  V30 4756 C 476.525 2.20594 -2.22052 0
M  V30 4757 C 477 3.05462 -3.41258 0
M  V30 4758 N 478.491 3.13049 -3.41401 0
M  V30 4759 C 479.226 3.78997 -4.30289 0
M  V30 4760 N 478.722 4.46899 -5.2939 0
M  V30 4761 N 480.515 3.75728 -4.18073 0
M  V30 4762 H 472.666 0.507158 -2.06256 0
M  V30 4763 H 474.929 0.28658 -0.903646 0
M  V30 4764 H 474.635 1.61191 -3.12586 0
M  V30 4765 H 474.509 3.08154 -2.17534 0
M  V30 4766 H 476.896 2.66017 -1.27745 0
M  V30 4767 H 476.977 1.1928 -2.26287 0
M  V30 4768 H 476.621 2.60739 -4.35864 0
M  V30 4769 H 476.551 4.06911 -3.34262 0
M  V30 4770 H 479.042 2.64721 -2.69688 0
M  V30 4771 H 479.355 4.94952 -5.935 0
M  V30 4772 H 477.7 4.45657 -5.33306 0
M  V30 4773 H 480.891 3.2184 -3.39907 0
M  V30 4774 H 481.064 4.26845 -4.87553 0
M  V30 4775 N 474.47 1.03057 1.19235 0
M  V30 4776 C 475.716 0.738841 1.89506 0
M  V30 4777 C 476.071 -0.724807 1.78225 0
M  V30 4778 O 475.364 -1.52118 1.16494 0
M  V30 4779 C 475.558 1.1268 3.39172 0
M  V30 4780 C 475.387 2.62662 3.65019 0
M  V30 4781 C 474.157 3.29658 3.82954 0
M  V30 4782 C 476.355 3.60873 3.66436 0
M  V30 4783 N 474.337 4.68726 3.96446 0
M  V30 4784 C 475.708 4.85566 3.8552 0
M  V30 4785 C 477.763 3.54647 3.49471 0
M  V30 4786 C 476.466 6.04783 3.89397 0
M  V30 4787 C 478.492 4.73281 3.54625 0
M  V30 4788 C 477.854 5.96789 3.74196 0
M  V30 4789 H 473.953 0.322256 0.712513 0
M  V30 4790 H 476.537 1.31822 1.43287 0
M  V30 4791 H 474.708 0.575612 3.84111 0
M  V30 4792 H 476.44 0.787145 3.96971 0
M  V30 4793 H 473.195 2.8007 3.81913 0
M  V30 4794 H 473.619 5.40971 4.07037 0
M  V30 4795 H 478.261 2.60143 3.33295 0
M  V30 4796 H 475.979 6.99654 4.04364 0
M  V30 4797 H 479.565 4.70094 3.42787 0
M  V30 4798 H 478.445 6.87051 3.78061 0
M  V30 4799 N 475.948 -1.35272 0.808662 0
M  V30 4800 C 477.359 -1.81179 0.450688 0
M  V30 4801 C 477.71 -1.67143 -1.02751 0
M  V30 4802 O 476.835 -1.20325 -1.79864 0
M  V30 4803 C 477.43 -3.28943 0.811275 0
M  V30 4804 C 475.989 -3.72985 0.505871 0
M  V30 4805 C 475.136 -2.57229 1.03578 0
M  V30 4806 H 478.087 -1.2322 1.00012 0
M  V30 4807 H 478.108 -3.80342 0.109588 0
M  V30 4808 H 477.62 -3.39127 1.88718 0
M  V30 4809 H 475.721 -3.68349 -0.561209 0
M  V30 4810 H 475.834 -4.67677 1.03995 0
M  V30 4811 H 474.198 -2.50548 0.458005 0
M  V30 4812 H 474.981 -2.7019 2.11784 0
M  V30 4813 N 477.426 -0.562348 -1.47226 0
M  V30 4814 C 478.654 -0.0452275 -2.06851 0
M  V30 4815 C 479.069 1.25078 -1.41424 0
M  V30 4816 O 478.426 1.75156 -0.512513 0
M  V30 4817 C 478.477 0.148674 -3.61194 0
M  V30 4818 O 478.198 -1.09602 -4.24169 0
M  V30 4819 C 479.699 0.702488 -4.37699 0
M  V30 4820 H 476.919 -0.0481775 -0.669268 0
M  V30 4821 H 479.463 -0.777223 -1.89155 0
M  V30 4822 H 477.618 0.830817 -3.78386 0
M  V30 4823 H 478.032 -0.896982 -5.16773 0
M  V30 4824 H 479.506 0.78743 -5.46355 0
M  V30 4825 H 479.983 1.71493 -4.04335 0
M  V30 4826 H 480.589 0.0558772 -4.25263 0
M  V30 4827 N 478.904 1.54736 -0.299062 0
M  V30 4828 C 479.814 2.27127 0.587413 0
M  V30 4829 C 480.83 1.30575 1.15005 0
M  V30 4830 O 482.006 1.63554 1.17525 0
M  V30 4831 C 479.071 2.99645 1.74395 0
M  V30 4832 C 478.132 4.11731 1.21559 0
M  V30 4833 C 477.365 4.80781 2.317 0
M  V30 4834 O 477.588 4.4918 3.51558 0
M  V30 4835 O 476.522 5.68226 1.98501 0
M  V30 4836 H 480.348 3.037 0.000250109 0
M  V30 4837 H 477.933 1.49256 -0.0655919 0
M  V30 4838 H 479.815 3.45138 2.4178 0
M  V30 4839 H 478.49 2.25969 2.31775 0
M  V30 4840 H 477.397 3.70641 0.507514 0
M  V30 4841 H 478.73 4.87379 0.687233 0
M  V30 4842 N 480.382 0.0267497 1.57577 0
M  V30 4843 C 481.61 -0.662661 1.96001 0
M  V30 4844 C 482.025 -1.65799 0.903117 0
M  V30 4845 O 481.382 -1.82135 -0.115317 0
M  V30 4846 C 481.433 -1.37112 3.34488 0
M  V30 4847 O 481.154 -0.415683 4.36123 0
M  V30 4848 C 482.655 -2.15257 3.8753 0
M  V30 4849 H 479.875 -0.18287 0.6456 0
M  V30 4850 H 482.419 0.0858116 2.0432 0
M  V30 4851 H 480.574 -2.07101 3.27395 0
M  V30 4852 H 480.988 -0.918496 5.16395 0
M  V30 4853 H 482.462 -2.60285 4.86781 0
M  V30 4854 H 482.939 -2.99063 3.21649 0
M  V30 4855 H 483.545 -1.50231 3.97883 0
M  V30 4856 N 481.861 -1.55662 -0.24637 0
M  V30 4857 C 483.138 -1.68272 -0.997198 0
M  V30 4858 C 483.518 -0.566785 -2.03349 0
M  V30 4859 O 482.866 0.429688 -2.24424 0
M  V30 4860 C 483.076 -3.08594 -1.63006 0
M  V30 4861 C 484.424 -3.6721 -2.13171 0
M  V30 4862 O 485.448 -3.11397 -1.72946 0
M  V30 4863 O 484.307 -4.65054 -2.87031 0
M  V30 4864 H 481.401 -0.684429 -0.464205 0
M  V30 4865 H 483.947 -1.67993 -0.240114 0
M  V30 4866 H 482.719 -3.81264 -0.880527 0
M  V30 4867 H 482.342 -3.12886 -2.45333 0
M  V30 4868 N 483.339 0.512053 -1.4905 0
M  V30 4869 C 484.585 1.26874 -1.58212 0
M  V30 4870 C 484.918 1.9241 -0.263073 0
M  V30 4871 O 484.193 1.80181 0.732476 0
M  V30 4872 C 484.476 2.34428 -2.73341 0
M  V30 4873 C 484.329 1.73466 -4.15006 0
M  V30 4874 C 485.648 3.36073 -2.84154 0
M  V30 4875 H 482.767 0.459924 -0.575881 0
M  V30 4876 H 485.409 0.568587 -1.81293 0
M  V30 4877 H 483.559 2.94146 -2.53792 0
M  V30 4878 H 485.231 1.17661 -4.46042 0
M  V30 4879 H 483.474 1.03921 -4.21168 0
M  V30 4880 H 484.145 2.51426 -4.91415 0
M  V30 4881 H 486.621 2.86332 -3.01916 0
M  V30 4882 H 485.497 4.08703 -3.66406 0
M  V30 4883 H 485.758 3.97725 -1.93048 0
M  V30 4884 N 484.817 1.37938 0.762283 0
M  V30 4885 C 486.042 1.37059 1.55659 0
M  V30 4886 C 486.467 -0.0396123 1.88058 0
M  V30 4887 O 485.825 -1.01929 1.49934 0
M  V30 4888 C 485.873 2.22494 2.83776 0
M  V30 4889 O 484.977 1.63607 3.78559 0
M  V30 4890 H 484.318 0.467892 0.47114 0
M  V30 4891 H 486.848 1.81587 0.942725 0
M  V30 4892 H 486.858 2.36045 3.32786 0
M  V30 4893 H 485.533 3.24993 2.59524 0
M  V30 4894 H 484.11 1.5915 3.37233 0
M  V30 4895 N 486.295 -0.989507 1.22664 0
M  V30 4896 C 487.52 -1.77031 1.08051 0
M  V30 4897 C 487.945 -1.84535 -0.364483 0
M  V30 4898 O 487.303 -1.3003 -1.2634 0
M  V30 4899 C 487.351 -3.18 1.70024 0
M  V30 4900 O 486.455 -4.01161 0.956216 0
M  V30 4901 H 485.796 -0.545008 0.379292 0
M  V30 4902 H 488.326 -1.24277 1.62531 0
M  V30 4903 H 488.336 -3.68616 1.74888 0
M  V30 4904 H 487.011 -3.11853 2.75174 0
M  V30 4905 H 485.588 -3.59687 0.98384 0
M  V30 4906 N 487.773 -1.03688 -1.18687 0
M  V30 4907 C 488.736 -0.629115 -2.20397 0
M  V30 4908 C 489.736 0.311495 -1.57754 0
M  V30 4909 O 490.926 0.0974107 -1.73927 0
M  V30 4910 C 488.058 0.0782231 -3.4081 0
M  V30 4911 H 489.251 -1.52915 -2.57987 0
M  V30 4912 H 486.804 -0.828988 -1.32505 0
M  V30 4913 H 487.539 0.992233 -3.08748 0
M  V30 4914 H 487.324 -0.597776 -3.87517 0
M  V30 4915 H 488.814 0.350156 -4.16129 0
M  V30 4916 N 489.251 1.34841 -0.815825 0
M  V30 4917 C 490.198 2.29644 -0.230664 0
M  V30 4918 C 491.168 1.53253 0.640533 0
M  V30 4919 O 492.353 1.81653 0.583672 0
M  V30 4920 C 489.493 3.39715 0.607275 0
M  V30 4921 C 488.606 4.31056 -0.28538 0
M  V30 4922 C 487.741 5.28225 0.561446 0
M  V30 4923 C 486.78 6.11204 -0.331035 0
M  V30 4924 N 485.917 7.00483 0.476302 0
M  V30 4925 H 490.757 2.79095 -1.0445 0
M  V30 4926 H 488.294 1.37351 -0.526595 0
M  V30 4927 H 490.252 4.02208 1.10835 0
M  V30 4928 H 488.882 2.91517 1.38629 0
M  V30 4929 H 487.934 3.69487 -0.904621 0
M  V30 4930 H 489.246 4.89239 -0.97193 0
M  V30 4931 H 488.4 5.96135 1.12728 0
M  V30 4932 H 487.139 4.70562 1.28153 0
M  V30 4933 H 486.144 5.42232 -0.909069 0
M  V30 4934 H 487.369 6.70947 -1.04912 0
M  V30 4935 H 485.315 6.45296 1.18019 0
M  V30 4936 H 485.232 7.55847 -0.152008 0
M  V30 4937 H 486.5 7.7273 1.02512 0
M  V30 4938 N 490.729 0.570148 1.46925 0
M  V30 4939 C 491.677 -0.183181 2.31878 0
M  V30 4940 C 492.671 -0.896721 1.43719 0
M  V30 4941 O 493.877 -0.816536 1.60414 0
M  V30 4942 H 490.252 -0.077944 0.74795 0
M  V30 4943 H 492.223 0.552312 2.93244 0
M  V30 4944 C 490.972 -1.19172 3.2664 0
M  V30 4945 H 490.295 -0.652088 3.94446 0
M  V30 4946 H 491.735 -1.68946 3.88887 0
M  V30 4947 C 490.194 -2.24627 2.51086 0
M  V30 4948 O 490.724 -3.31773 2.26472 0
M  V30 4949 N 488.93 -1.98898 2.11867 0
M  V30 4950 H 488.477 -1.11777 2.32086 0
M  V30 4951 H 488.435 -2.6967 1.61634 0
M  V30 4952 N 492.207 -1.54576 0.307264 0
M  V30 4953 C 493.453 -2.0056 -0.300612 0
M  V30 4954 C 493.786 -1.1953 -1.53057 0
M  V30 4955 O 493.061 -0.27337 -1.92569 0
M  V30 4956 C 493.344 -3.54167 -0.650987 0
M  V30 4957 C 493.197 -4.45933 0.588539 0
M  V30 4958 C 494.516 -4.14645 -1.47506 0
M  V30 4959 H 491.635 -0.729075 -0.107788 0
M  V30 4960 H 494.277 -1.85286 0.420606 0
M  V30 4961 H 492.427 -3.67313 -1.26544 0
M  V30 4962 H 494.099 -4.44683 1.22697 0
M  V30 4963 H 492.342 -4.16274 1.22058 0
M  V30 4964 H 493.013 -5.51189 0.299153 0
M  V30 4965 H 495.489 -4.04973 -0.955821 0
M  V30 4966 H 494.365 -5.22269 -1.68899 0
M  V30 4967 H 494.626 -3.66921 -2.4662 0
M  V30 4968 N 493.685 -0.035106 -1.57561 0
M  V30 4969 C 494.931 0.64318 -1.92331 0
M  V30 4970 C 495.264 1.71434 -0.912368 0
M  V30 4971 O 494.539 1.94395 0.0640303 0
M  V30 4972 C 494.822 1.25411 -3.37556 0
M  V30 4973 C 494.675 0.192109 -4.4939 0
M  V30 4974 C 495.994 2.17041 -3.82859 0
M  V30 4975 H 493.113 0.232341 -0.699419 0
M  V30 4976 H 495.755 -0.0935889 -1.89769 0
M  V30 4977 H 493.905 1.88205 -3.39869 0
M  V30 4978 H 495.577 -0.438849 -4.59208 0
M  V30 4979 H 493.82 -0.481725 -4.31117 0
M  V30 4980 H 494.491 0.659292 -5.48049 0
M  V30 4981 H 496.967 1.64228 -3.8232 0
M  V30 4982 H 495.843 2.56738 -4.85157 0
M  V30 4983 H 496.104 3.06401 -3.18702 0
M  V30 4984 N 495.163 1.55791 0.238111 0
M  V30 4985 C 496.093 1.94068 1.29846 0
M  V30 4986 C 497.074 0.806726 1.49753 0
M  V30 4987 O 498.259 1.06772 1.62214 0
M  V30 4988 C 495.389 2.24302 2.65153 0
M  V30 4989 C 494.343 3.40032 2.59927 0
M  V30 4990 C 493.669 3.55829 3.99111 0
M  V30 4991 C 494.969 4.75476 2.16148 0
M  V30 4992 H 496.663 2.82887 0.980563 0
M  V30 4993 H 494.209 1.36105 0.470253 0
M  V30 4994 H 496.162 2.4967 3.39475 0
M  V30 4995 H 494.886 1.32318 2.98596 0
M  V30 4996 H 493.545 3.14687 1.88063 0
M  V30 4997 H 493.193 2.6125 4.29834 0
M  V30 4998 H 492.893 4.3366 3.96501 0
M  V30 4999 H 494.417 3.83528 4.7512 0
M  V30 5000 H 495.831 5.00158 2.80205 0
M  V30 5001 H 494.228 5.56472 2.24631 0
M  V30 5002 H 495.298 4.71946 1.11333 0
M  V30 5003 N 496.642 -0.504142 1.49319 0
M  V30 5004 C 498.053 -1.08572 1.51885 0
M  V30 5005 C 498.404 -1.93842 0.303255 0
M  V30 5006 O 497.529 -2.0828 -0.58724 0
M  V30 5007 C 498.124 -1.97574 2.75227 0
M  V30 5008 C 496.683 -2.509 2.80581 0
M  V30 5009 C 495.83 -1.28447 2.45757 0
M  V30 5010 H 498.781 -0.288194 1.56061 0
M  V30 5011 H 498.802 -2.82219 2.55211 0
M  V30 5012 H 498.314 -1.35486 3.63683 0
M  V30 5013 H 496.415 -3.16636 1.96398 0
M  V30 5014 H 496.528 -2.88268 3.82673 0
M  V30 5015 H 494.892 -1.60868 1.97468 0
M  V30 5016 H 495.675 -0.68072 3.36483 0
M  V30 5017 N 498.12 -1.38341 -0.754957 0
M  V30 5018 C 499.348 -1.37704 -1.54419 0
M  V30 5019 C 499.763 0.0335243 -1.8877 0
M  V30 5020 O 499.12 0.999773 -1.52679 0
M  V30 5021 C 499.171 -2.23136 -2.84416 0
M  V30 5022 O 498.892 -3.58697 -2.51531 0
M  V30 5023 C 500.393 -2.30664 -3.78562 0
M  V30 5024 H 497.613 -0.471061 -0.477852 0
M  V30 5025 H 500.157 -1.81902 -0.934446 0
M  V30 5026 H 498.312 -1.82403 -3.41772 0
M  V30 5027 H 498.726 -4.03665 -3.34896 0
M  V30 5028 H 500.2 -2.9473 -4.66732 0
M  V30 5029 H 500.677 -1.3199 -4.18898 0
M  V30 5030 H 501.283 -2.71781 -3.27131 0
M  V30 5031 N 499.598 0.982988 -1.23187 0
M  V30 5032 C 500.508 2.10907 -1.02739 0
M  V30 5033 C 501.524 1.73979 0.0273188 0
M  V30 5034 O 502.7 2.00702 -0.16757 0
M  V30 5035 C 499.765 3.41142 -0.618304 0
M  V30 5036 C 498.826 3.92112 -1.74777 0
M  V30 5037 C 498.059 5.16131 -1.3581 0
M  V30 5038 O 498.282 5.6989 -0.241201 0
M  V30 5039 O 497.216 5.61103 -2.17824 0
M  V30 5040 H 501.042 2.31046 -1.97108 0
M  V30 5041 H 498.627 1.09284 -1.01869 0
M  V30 5042 H 500.509 4.19488 -0.400982 0
M  V30 5043 H 499.184 3.2234 0.296421 0
M  V30 5044 H 498.091 3.14895 -2.0197 0
M  V30 5045 H 499.424 4.15364 -2.64071 0
M  V30 5046 N 501.076 1.04316 1.18135 0
M  V30 5047 C 502.304 0.768117 1.92113 0
M  V30 5048 C 502.719 -0.675057 1.76319 0
M  V30 5049 O 502.076 -1.46038 1.09449 0
M  V30 5050 C 502.127 1.12808 3.43448 0
M  V30 5051 O 501.848 2.5146 3.58747 0
M  V30 5052 C 503.349 0.8779 4.3452 0
M  V30 5053 H 500.569 0.279937 0.609817 0
M  V30 5054 H 503.113 1.39149 1.49859 0
M  V30 5055 H 501.268 0.549623 3.83481 0
M  V30 5056 H 501.682 2.65313 4.52448 0
M  V30 5057 H 503.156 1.17959 5.39249 0
M  V30 5058 H 503.633 -0.187239 4.38801 0
M  V30 5059 H 504.239 1.43977 4.00188 0
M  V30 5060 N 502.554 -1.34406 0.822964 0
M  V30 5061 C 503.464 -2.33298 0.246838 0
M  V30 5062 C 504.48 -1.62625 -0.618797 0
M  V30 5063 O 505.656 -1.94391 -0.526685 0
M  V30 5064 C 502.721 -3.41785 -0.581731 0
M  V30 5065 C 501.782 -4.28206 0.306309 0
M  V30 5066 C 501.015 -5.31512 -0.48281 0
M  V30 5067 O 501.238 -5.43973 -1.71607 0
M  V30 5068 O 500.172 -6.01749 0.134884 0
M  V30 5069 H 503.998 -2.84401 1.06534 0
M  V30 5070 H 501.583 -1.37466 0.585108 0
M  V30 5071 H 503.465 -4.08028 -1.05313 0
M  V30 5072 H 502.14 -2.92925 -1.37756 0
M  V30 5073 H 501.047 -3.64885 0.825199 0
M  V30 5074 H 502.38 -4.80507 1.06649 0
M  V30 5075 N 504.032 -0.577932 -1.46621 0
M  V30 5076 C 505.278 -0.0617793 -2.02706 0
M  V30 5077 C 505.611 1.29294 -1.44903 0
M  V30 5078 O 504.886 1.8461 -0.61232 0
M  V30 5079 C 505.169 0.00911824 -3.60099 0
M  V30 5080 C 505.022 -1.37416 -4.28295 0
M  V30 5081 C 506.341 0.712159 -4.343 0
M  V30 5082 H 503.46 -0.0239246 -0.736612 0
M  V30 5083 H 506.102 -0.744211 -1.74818 0
M  V30 5084 H 504.252 0.590292 -3.83989 0
M  V30 5085 H 505.924 -2.00013 -4.15683 0
M  V30 5086 H 504.167 -1.94319 -3.87843 0
M  V30 5087 H 504.838 -1.27707 -5.37024 0
M  V30 5088 H 507.314 0.218486 -4.15526 0
M  V30 5089 H 506.19 0.730782 -5.44014 0
M  V30 5090 H 506.451 1.77251 -4.05012 0
M  V30 5091 N 505.51 1.54411 -0.315457 0
M  V30 5092 C 506.473 2.22713 0.54142 0
M  V30 5093 C 507.473 1.2179 1.04995 0
M  V30 5094 O 508.663 1.46426 0.943667 0
M  V30 5095 C 505.795 2.92485 1.75116 0
M  V30 5096 H 506.988 2.99849 -0.0555508 0
M  V30 5097 H 504.541 1.56159 -0.0664453 0
M  V30 5098 H 505.276 2.19466 2.38758 0
M  V30 5099 H 505.061 3.66483 1.39401 0
M  V30 5100 H 506.551 3.44548 2.35959 0
M  V30 5101 N 506.988 0.0434614 1.5754 0
M  V30 5102 C 508.399 -0.493343 1.80064 0
M  V30 5103 C 508.75 -1.71388 0.955023 0
M  V30 5104 O 507.875 -2.15736 0.169434 0
M  V30 5105 C 508.47 -0.90179 3.26578 0
M  V30 5106 C 507.029 -1.38362 3.50047 0
M  V30 5107 C 506.176 -0.355129 2.75017 0
M  V30 5108 H 509.127 0.2694 1.56397 0
M  V30 5109 H 509.148 -1.76523 3.37075 0
M  V30 5110 H 508.66 -0.013271 3.88098 0
M  V30 5111 H 506.761 -2.29159 2.93798 0
M  V30 5112 H 506.874 -1.3811 4.58762 0
M  V30 5113 H 505.238 -0.826348 2.40922 0
M  V30 5114 H 506.021 0.525172 3.39259 0
M  V30 5115 N 508.466 -1.55915 -0.229846 0
M  V30 5116 C 509.429 -1.90914 -1.26824 0
M  V30 5117 C 510.429 -0.786999 -1.40225 0
M  V30 5118 O 511.619 -1.05484 -1.38632 0
M  V30 5119 C 508.751 -2.15264 -2.64337 0
M  V30 5120 H 509.944 -2.8378 -0.969998 0
M  V30 5121 H 507.497 -1.49069 -0.4699 0
M  V30 5122 H 508.232 -1.24923 -2.99274 0
M  V30 5123 H 508.017 -2.97005 -2.55989 0
M  V30 5124 H 509.507 -2.43467 -3.39284 0
M  V30 5125 N 509.944 0.496216 -1.49584 0
M  V30 5126 C 510.891 1.59722 -1.66606 0
M  V30 5127 C 511.861 1.58158 -0.507477 0
M  V30 5128 O 513.046 1.76072 -0.735076 0
M  V30 5129 C 510.186 2.97844 -1.74308 0
M  V30 5130 C 509.299 3.09388 -3.01502 0
M  V30 5131 C 508.434 4.38271 -3.00153 0
M  V30 5132 C 507.473 4.43466 -4.21906 0
M  V30 5133 N 506.61 5.63784 -4.1844 0
M  V30 5134 H 511.45 1.44515 -2.60613 0
M  V30 5135 H 508.987 0.703048 -1.29212 0
M  V30 5136 H 510.945 3.77907 -1.76754 0
M  V30 5137 H 509.575 3.11743 -0.837619 0
M  V30 5138 H 508.627 2.22357 -3.08645 0
M  V30 5139 H 509.939 3.09085 -3.91494 0
M  V30 5140 H 509.093 5.2666 -3.01188 0
M  V30 5141 H 507.832 4.41146 -2.07947 0
M  V30 5142 H 506.837 3.53478 -4.21109 0
M  V30 5143 H 508.062 4.42303 -5.1531 0
M  V30 5144 H 506.008 5.67491 -3.29074 0
M  V30 5145 H 505.925 5.65118 -5.02173 0
M  V30 5146 H 507.193 6.54367 -4.23585 0
M  V30 5147 N 511.423 1.38739 0.74761 0
M  V30 5148 C 512.7 1.25791 1.49786 0
M  V30 5149 C 513.08 -0.138075 2.10648 0
M  V30 5150 O 512.428 -1.14815 1.9756 0
M  V30 5151 C 512.638 2.37265 2.55942 0
M  V30 5152 C 513.986 2.75978 3.22679 0
M  V30 5153 O 515.01 2.36621 2.6625 0
M  V30 5154 O 513.869 3.43867 4.24756 0
M  V30 5155 H 510.963 0.492251 0.664543 0
M  V30 5156 H 513.509 1.50582 0.782511 0
M  V30 5157 H 512.281 3.30644 2.0926 0
M  V30 5158 H 511.904 2.14071 3.35051 0
M  V30 5159 N 512.901 -0.976442 1.23707 0
M  V30 5160 C 514.147 -1.72081 1.07312 0
M  V30 5161 C 514.48 -1.90275 -0.388476 0
M  V30 5162 O 513.755 -1.4579 -1.28746 0
M  V30 5163 C 514.038 -3.11675 1.80363 0
M  V30 5164 C 513.891 -3.01027 3.3422 0
M  V30 5165 C 515.21 -4.1117 1.5693 0
M  V30 5166 H 512.329 -0.624583 0.391236 0
M  V30 5167 H 514.971 -1.13649 1.52263 0
M  V30 5168 H 513.121 -3.61559 1.42153 0
M  V30 5169 H 514.793 -2.58637 3.81975 0
M  V30 5170 H 513.036 -2.3744 3.63049 0
M  V30 5171 H 513.707 -3.9988 3.80525 0
M  V30 5172 H 516.183 -3.7011 1.90151 0
M  V30 5173 H 515.059 -5.06928 2.10513 0
M  V30 5174 H 515.32 -4.392 0.505548 0
M  V30 5175 N 514.379 -1.04941 -1.1758 0
M  V30 5176 C 515.607 -0.778294 -1.91703 0
M  V30 5177 C 516.022 0.665697 -1.76675 0
M  V30 5178 O 515.379 1.45456 -1.10222 0
M  V30 5179 C 515.43 -1.14628 -3.42845 0
M  V30 5180 O 515.151 -2.53359 -3.57409 0
M  V30 5181 C 516.652 -0.900931 -4.34049 0
M  V30 5182 H 513.872 -0.283167 -0.608323 0
M  V30 5183 H 516.416 -1.39942 -1.49119 0
M  V30 5184 H 514.571 -0.569953 -3.83184 0
M  V30 5185 H 514.985 -2.67709 -4.51035 0
M  V30 5186 H 516.459 -1.20817 -5.38616 0
M  V30 5187 H 516.936 0.163966 -4.38894 0
M  V30 5188 H 517.542 -1.46097 -3.99419 0
M  V30 5189 N 515.857 1.33968 -0.830081 0
M  V30 5190 C 516.787 2.31911 -0.271911 0
M  V30 5191 C 517.768 1.58571 0.61556 0
M  V30 5192 O 518.953 1.86514 0.540946 0
M  V30 5193 C 516.083 3.42737 0.561146 0
M  V30 5194 C 515.037 4.27383 -0.229789 0
M  V30 5195 C 514.363 5.29742 0.726463 0
M  V30 5196 C 515.663 5.02 -1.44197 0
M  V30 5197 H 517.357 2.78844 -1.09025 0
M  V30 5198 H 514.903 1.34061 -0.52571 0
M  V30 5199 H 516.856 4.10276 0.961867 0
M  V30 5200 H 515.58 2.94471 1.41261 0
M  V30 5201 H 514.239 3.61456 -0.611964 0
M  V30 5202 H 513.887 4.77736 1.57408 0
M  V30 5203 H 513.587 5.87255 0.20142 0
M  V30 5204 H 515.111 6.00149 1.12489 0
M  V30 5205 H 516.525 5.62355 -1.11488 0
M  V30 5206 H 514.922 5.69122 -1.90317 0
M  V30 5207 H 515.992 4.31281 -2.2164 0
M  V30 5208 N 517.335 0.585699 1.46312 0
M  V30 5209 C 518.265 -0.133556 2.33118 0
M  V30 5210 C 519.246 -0.880707 1.45525 0
M  V30 5211 O 520.431 -0.855579 1.74337 0
M  V30 5212 C 517.561 -1.14585 3.27853 0
M  V30 5213 C 516.515 -0.513341 4.2491 0
M  V30 5214 C 515.841 -1.63231 5.09175 0
M  V30 5215 C 517.141 0.551413 5.19381 0
M  V30 5216 H 518.835 0.59121 2.93505 0
M  V30 5217 H 516.381 0.285761 1.41136 0
M  V30 5218 H 518.334 -1.65741 3.87438 0
M  V30 5219 H 517.058 -1.90093 2.65579 0
M  V30 5220 H 515.717 -0.0228349 3.66593 0
M  V30 5221 H 515.365 -2.37713 4.43285 0
M  V30 5222 H 515.065 -1.21473 5.74907 0
M  V30 5223 H 516.589 -2.14658 5.71624 0
M  V30 5224 H 518.003 0.124804 5.73164 0
M  V30 5225 H 516.4 0.889486 5.93471 0
M  V30 5226 H 517.47 1.43655 4.63132 0
M  V30 5227 N 518.813 -1.54241 0.323641 0
M  V30 5228 C 519.76 -2.24339 -0.542277 0
M  V30 5229 C 520.73 -1.23421 -1.11159 0
M  V30 5230 O 521.915 -1.52104 -1.15192 0
M  V30 5231 C 519.055 -3.00479 -1.69725 0
M  V30 5232 C 518.168 -4.16214 -1.15716 0
M  V30 5233 C 517.303 -4.79884 -2.27783 0
M  V30 5234 C 516.342 -5.87722 -1.71023 0
M  V30 5235 N 515.479 -6.45254 -2.76752 0
M  V30 5236 H 520.319 -2.97935 0.0620613 0
M  V30 5237 H 517.856 -1.47039 0.0423993 0
M  V30 5238 H 519.814 -3.42869 -2.3769 0
M  V30 5239 H 518.444 -2.29217 -2.27288 0
M  V30 5240 H 517.496 -3.78605 -0.369063 0
M  V30 5241 H 518.808 -4.93838 -0.701832 0
M  V30 5242 H 517.962 -5.25243 -3.03651 0
M  V30 5243 H 516.701 -4.01641 -2.76652 0
M  V30 5244 H 515.706 -5.41765 -0.936518 0
M  V30 5245 H 516.931 -6.67863 -1.2303 0
M  V30 5246 H 514.877 -5.69884 -3.24912 0
M  V30 5247 H 514.794 -7.18292 -2.35782 0
M  V30 5248 H 516.062 -6.95269 -3.5245 0
M  V30 5249 N 520.291 -0.0518155 -1.57515 0
M  V30 5250 C 521.201 0.937539 -2.15052 0
M  V30 5251 C 522.217 1.34121 -1.10849 0
M  V30 5252 O 523.393 1.418 -1.4302 0
M  V30 5253 C 520.458 2.19379 -2.68466 0
M  V30 5254 C 519.519 1.84841 -3.87469 0
M  V30 5255 C 518.752 3.04477 -4.38326 0
M  V30 5256 O 518.975 4.17868 -3.88256 0
M  V30 5257 O 517.909 2.85453 -5.29906 0
M  V30 5258 H 521.735 0.478201 -2.99912 0
M  V30 5259 H 519.32 0.17012 -1.48428 0
M  V30 5260 H 521.202 2.93084 -3.02787 0
M  V30 5261 H 519.877 2.64449 -1.86677 0
M  V30 5262 H 518.784 1.08449 -3.58036 0
M  V30 5263 H 520.117 1.44569 -4.7049 0
M  V30 5264 N 521.769 1.56035 0.221574 0
M  V30 5265 C 522.997 1.8313 0.962864 0
M  V30 5266 C 523.412 0.630934 1.77946 0
M  V30 5267 O 522.769 -0.400519 1.78051 0
M  V30 5268 C 522.82 3.08742 1.88045 0
M  V30 5269 O 522.541 4.24147 1.09686 0
M  V30 5270 C 524.042 3.48824 2.73563 0
M  V30 5271 H 521.262 0.608775 0.282194 0
M  V30 5272 H 523.806 2.03124 0.23681 0
M  V30 5273 H 521.961 2.90723 2.56045 0
M  V30 5274 H 522.375 4.95505 1.71974 0
M  V30 5275 H 523.849 4.39752 3.3365 0
M  V30 5276 H 524.326 2.70575 3.45956 0
M  V30 5277 H 524.932 3.69282 2.10976 0
M  V30 5278 N 523.247 -0.488276 1.49845 0
M  V30 5279 C 524.157 -1.61451 1.70207 0
M  V30 5280 C 525.173 -1.63877 0.584846 0
M  V30 5281 O 526.349 -1.82063 0.861107 0
M  V30 5282 C 523.414 -2.9776 1.77594 0
M  V30 5283 C 522.475 -3.05861 3.01243 0
M  V30 5284 C 521.708 -4.35668 3.08268 0
M  V30 5285 O 521.931 -5.25197 2.22541 0
M  V30 5286 O 520.865 -4.49005 4.00847 0
M  V30 5287 H 524.691 -1.47199 2.65643 0
M  V30 5288 H 522.276 -0.665939 1.33737 0
M  V30 5289 H 524.158 -3.7875 1.84732 0
M  V30 5290 H 522.833 -3.12248 0.8534 0
M  V30 5291 H 521.74 -2.24012 2.99616 0
M  V30 5292 H 523.073 -2.96304 3.9302 0
M  V30 5293 N 524.725 -1.39134 -0.740242 0
M  V30 5294 C 526.141 -1.20623 -1.0451 0
M  V30 5295 C 526.341 -0.0641651 -2.01398 0
M  V30 5296 O 525.397 0.585843 -2.4561 0
M  V30 5297 C 526.71 -2.53815 -1.6124 0
M  V30 5298 C 528.258 -2.60615 -1.73346 0
M  V30 5299 C 528.733 -3.94015 -2.33486 0
M  V30 5300 N 530.224 -3.95627 -2.40902 0
M  V30 5301 C 530.959 -4.95616 -2.88361 0
M  V30 5302 N 530.455 -6.06003 -3.35756 0
M  V30 5303 N 532.248 -4.82998 -2.87523 0
M  V30 5304 H 524.399 -2.12176 -0.0975576 0
M  V30 5305 H 526.662 -0.942066 -0.105904 0
M  V30 5306 H 526.368 -3.37911 -0.975144 0
M  V30 5307 H 526.242 -2.73162 -2.6012 0
M  V30 5308 H 528.629 -1.76906 -2.36195 0
M  V30 5309 H 528.71 -2.45123 -0.731336 0
M  V30 5310 H 528.354 -4.78153 -1.71267 0
M  V30 5311 H 528.284 -4.06825 -3.34366 0
M  V30 5312 H 530.775 -3.15903 -2.07398 0
M  V30 5313 H 531.088 -6.78215 -3.70464 0
M  V30 5314 H 529.433 -6.09604 -3.33778 0
M  V30 5315 H 532.624 -3.95866 -2.49816 0
M  V30 5316 H 532.797 -5.61072 -3.24196 0
M  V30 5317 N 526.204 0.969867 -1.24223 0
M  V30 5318 C 527.167 2.04564 -1.03373 0
M  V30 5319 C 528.167 1.60798 0.00819206 0
M  V30 5320 O 529.357 1.72641 -0.232567 0
M  V30 5321 C 526.489 3.36163 -0.566343 0
M  V30 5322 H 527.682 2.24494 -1.98853 0
M  V30 5323 H 525.235 1.1448 -1.06415 0
M  V30 5324 H 525.97 3.21925 0.391751 0
M  V30 5325 H 525.755 3.69273 -1.31834 0
M  V30 5326 H 527.245 4.1526 -0.441435 0
M  V30 5327 N 527.682 1.05563 1.17022 0
M  V30 5328 C 528.907 0.788437 1.91829 0
M  V30 5329 C 529.332 -0.650356 1.76499 0
M  V30 5330 O 528.69 -1.45229 1.08527 0
M  V30 5331 C 528.738 1.1786 3.40795 0
M  V30 5332 O 527.842 0.312965 4.11211 0
M  V30 5333 H 527.183 0.288794 0.597908 0
M  V30 5334 H 529.713 1.40948 1.48307 0
M  V30 5335 H 529.723 1.14697 3.91546 0
M  V30 5336 H 528.398 2.22666 3.51273 0
M  V30 5337 H 526.975 0.405515 3.70689 0
M  V30 5338 N 529.16 -1.33526 0.837174 0
M  V30 5339 C 530.571 -1.80182 0.489017 0
M  V30 5340 C 530.922 -1.69285 -0.991826 0
M  V30 5341 O 530.047 -1.24113 -1.77271 0
M  V30 5342 C 530.642 -3.27149 0.880866 0
M  V30 5343 C 529.201 -3.71828 0.584872 0
M  V30 5344 C 528.348 -2.54974 1.09011 0
M  V30 5345 H 531.299 -1.21071 1.02603 0
M  V30 5346 H 531.32 -3.80024 0.190239 0
M  V30 5347 H 530.832 -3.35048 1.95869 0
M  V30 5348 H 528.933 -3.69457 -0.48295 0
M  V30 5349 H 529.046 -4.65366 1.13892 0
M  V30 5350 H 527.41 -2.4952 0.511047 0
M  V30 5351 H 528.193 -2.65637 2.17467 0
M  V30 5352 N 530.638 -0.59345 -1.46 0
M  V30 5353 C 531.887 -0.0808084 -2.01538 0
M  V30 5354 C 532.2 1.29112 -1.46934 0
M  V30 5355 O 533.406 1.8957 -1.94359 0
M  V30 5356 C 531.862 -0.0938311 -3.59778 0
M  V30 5357 C 531.47 -1.46474 -4.23379 0
M  V30 5358 C 533.214 0.364306 -4.22934 0
M  V30 5359 C 531.121 -1.4349 -5.73729 0
M  V30 5360 H 530.051 -0.0264407 -0.753536 0
M  V30 5361 H 532.702 -0.746689 -1.67621 0
M  V30 5362 H 531.084 0.638427 -3.9082 0
M  V30 5363 H 532.258 -2.21758 -4.03931 0
M  V30 5364 H 530.573 -1.86379 -3.7236 0
M  V30 5365 H 533.17 0.405584 -5.3316 0
M  V30 5366 H 533.513 1.38409 -3.92618 0
M  V30 5367 H 534.046 -0.31423 -3.96557 0
M  V30 5368 H 530.785 -2.43184 -6.08722 0
M  V30 5369 H 530.305 -0.724431 -5.95409 0
M  V30 5370 H 531.984 -1.15243 -6.36654 0
M  V30 5371 N 532.116 1.54067 -0.331816 0
M  V30 5372 C 533.063 2.24623 0.530372 0
M  V30 5373 C 534.033 1.24009 1.10503 0
M  V30 5374 O 535.218 1.52712 1.14384 0
M  V30 5375 C 532.358 3.01374 1.68129 0
M  V30 5376 C 531.471 4.16821 1.13507 0
M  V30 5377 C 530.606 4.81085 2.25234 0
M  V30 5378 C 529.645 5.88621 1.67903 0
M  V30 5379 N 528.782 6.46713 2.73326 0
M  V30 5380 H 533.622 2.97898 -0.0778607 0
M  V30 5381 H 531.159 1.47014 -0.0501965 0
M  V30 5382 H 533.117 3.44125 2.35868 0
M  V30 5383 H 531.747 2.30419 2.26069 0
M  V30 5384 H 530.799 3.78796 0.348979 0
M  V30 5385 H 532.111 4.94203 0.675633 0
M  V30 5386 H 531.265 5.26846 3.00862 0
M  V30 5387 H 530.004 4.03102 2.74518 0
M  V30 5388 H 529.009 5.42254 0.907773 0
M  V30 5389 H 530.234 6.68506 1.19487 0
M  V30 5390 H 528.18 5.71599 3.21886 0
M  V30 5391 H 528.097 7.19532 2.3197 0
M  V30 5392 H 529.365 6.97129 3.48758 0
M  V30 5393 N 533.594 0.0601682 1.57485 0
M  V30 5394 C 534.527 -0.94676 2.07634 0
M  V30 5395 C 535.505 -1.29837 0.978826 0
M  V30 5396 O 536.689 -1.40969 1.2514 0
M  V30 5397 C 533.816 -2.25822 2.52433 0
M  V30 5398 C 532.862 -2.05901 3.73507 0
M  V30 5399 S 533.695 -1.32907 5.18745 0
M  V30 5400 C 534.851 -2.65356 5.66866 0
M  V30 5401 H 535.084 -0.520003 2.92717 0
M  V30 5402 H 532.617 -0.152319 1.53647 0
M  V30 5403 H 534.575 -3.01201 2.78905 0
M  V30 5404 H 533.236 -2.65624 1.67639 0
M  V30 5405 H 532.429 -3.02929 4.02803 0
M  V30 5406 H 532.031 -1.38659 3.47347 0
M  V30 5407 H 534.323 -3.61492 5.73001 0
M  V30 5408 H 535.266 -2.40685 6.6594 0
M  V30 5409 H 535.674 -2.72028 4.94632 0
M  V30 5410 N 535.072 -1.5615 -0.213296 0
M  V30 5411 C 536.349 -1.70349 -0.961281 0
M  V30 5412 C 536.729 -0.609791 -2.02101 0
M  V30 5413 O 536.077 0.381987 -2.25285 0
M  V30 5414 C 536.287 -3.11982 -1.56424 0
M  V30 5415 C 537.635 -3.71649 -2.05334 0
M  V30 5416 O 538.659 -3.14995 -1.66302 0
M  V30 5417 O 537.518 -4.71038 -2.77102 0
M  V30 5418 H 534.612 -0.694121 -0.449582 0
M  V30 5419 H 537.158 -1.68464 -0.204426 0
M  V30 5420 H 535.93 -3.83046 -0.799457 0
M  V30 5421 H 535.553 -3.18019 -2.38641 0
M  V30 5422 N 536.55 0.480323 -1.50102 0
M  V30 5423 C 537.48 1.58769 -1.71215 0
M  V30 5424 C 538.461 1.60583 -0.560997 0
M  V30 5425 O 539.646 1.76996 -0.799127 0
M  V30 5426 C 536.776 2.97148 -1.79778 0
M  V30 5427 C 535.73 3.10201 -2.94888 0
M  V30 5428 C 535.056 4.50137 -2.88584 0
M  V30 5429 C 536.356 2.88283 -4.35534 0
M  V30 5430 H 538.05 1.41354 -2.6393 0
M  V30 5431 H 535.596 0.678591 -1.27008 0
M  V30 5432 H 537.549 3.74536 -1.93133 0
M  V30 5433 H 536.273 3.15699 -0.836772 0
M  V30 5434 H 534.932 2.35244 -2.81169 0
M  V30 5435 H 534.58 4.65593 -1.90349 0
M  V30 5436 H 534.28 4.59808 -3.65856 0
M  V30 5437 H 535.804 5.29558 -3.03976 0
M  V30 5438 H 537.218 3.55427 -4.49827 0
M  V30 5439 H 535.615 3.09408 -5.14186 0
M  V30 5440 H 536.685 1.84219 -4.48544 0
M  V30 5441 N 538.028 1.39524 0.732853 0
M  V30 5442 C 538.991 1.38189 1.82857 0
M  V30 5443 C 539.991 0.278624 1.58368 0
M  V30 5444 O 541.181 0.536639 1.65728 0
M  V30 5445 C 538.313 1.15661 3.2068 0
M  V30 5446 H 539.506 2.35692 1.85444 0
M  V30 5447 H 537.059 1.2512 0.936728 0
M  V30 5448 H 537.794 0.188482 3.23752 0
M  V30 5449 H 537.579 1.95559 3.39852 0
M  V30 5450 H 539.069 1.17472 4.00737 0
M  V30 5451 N 539.506 -0.963266 1.24736 0
M  V30 5452 C 540.917 -1.52145 1.08207 0
M  V30 5453 C 541.268 -1.93142 -0.345061 0
M  V30 5454 O 540.393 -1.77769 -1.23399 0
M  V30 5455 C 540.988 -2.76486 1.95808 0
M  V30 5456 C 539.547 -3.28646 1.8349 0
M  V30 5457 C 538.694 -2.01529 1.90476 0
M  V30 5458 H 541.645 -0.781083 1.38148 0
M  V30 5459 H 541.666 -3.49986 1.49297 0
M  V30 5460 H 541.178 -2.46617 2.99669 0
M  V30 5461 H 539.279 -3.63357 0.824787 0
M  V30 5462 H 539.392 -3.97246 2.67829 0
M  V30 5463 H 537.756 -2.16442 1.34258 0
M  V30 5464 H 538.539 -1.7402 2.95926 0
M  V30 5465 N 540.985 -1.06182 -1.16461 0
M  V30 5466 C 542.21 -0.798599 -1.91408 0
M  V30 5467 C 542.635 0.640987 -1.76842 0
M  V30 5468 O 541.993 1.44652 -1.09296 0
M  V30 5469 C 542.041 -1.19665 -3.40165 0
M  V30 5470 O 541.145 -0.334768 -4.11039 0
M  V30 5471 H 540.486 -0.291961 -0.596368 0
M  V30 5472 H 543.016 -1.41732 -1.47557 0
M  V30 5473 H 543.026 -1.16772 -3.90933 0
M  V30 5474 H 541.701 -2.24526 -3.50087 0
M  V30 5475 H 540.278 -0.425168 -3.70468 0
M  V30 5476 N 542.463 1.3308 -0.844243 0
M  V30 5477 C 543.41 2.29104 -0.279323 0
M  V30 5478 C 544.38 1.54577 0.607882 0
M  V30 5479 O 545.565 1.8285 0.545009 0
M  V30 5480 C 542.705 3.40927 0.53508 0
M  V30 5481 C 541.818 4.30354 -0.376749 0
M  V30 5482 C 540.953 5.29297 0.449276 0
M  V30 5483 C 539.992 6.10365 -0.460606 0
M  V30 5484 N 539.129 7.01335 0.327612 0
M  V30 5485 H 543.969 2.76817 -1.10346 0
M  V30 5486 H 541.506 1.36203 -0.555611 0
M  V30 5487 H 543.464 4.04469 1.02278 0
M  V30 5488 H 542.094 2.94391 1.32414 0
M  V30 5489 H 541.146 3.67485 -0.982791 0
M  V30 5490 H 542.458 4.87067 -1.07549 0
M  V30 5491 H 541.612 5.98392 1.00058 0
M  V30 5492 H 540.351 4.73174 1.18143 0
M  V30 5493 H 539.356 5.40182 -1.02388 0
M  V30 5494 H 540.581 6.68571 -1.1912 0
M  V30 5495 H 538.527 6.47655 1.04305 0
M  V30 5496 H 538.444 7.55355 -0.3123 0
M  V30 5497 H 539.712 7.74731 0.86098 0
M  V30 5498 N 543.941 0.601185 1.45683 0
M  V30 5499 C 545.218 0.0261659 1.95582 0
M  V30 5500 C 545.598 -1.4399 1.5437 0
M  V30 5501 O 544.946 -2.13919 0.80318 0
M  V30 5502 C 545.156 0.217557 3.48321 0
M  V30 5503 C 546.504 0.0950076 4.24494 0
M  V30 5504 O 547.528 0.147345 3.55895 0
M  V30 5505 O 546.387 -0.025261 5.46494 0
M  V30 5506 H 543.481 -0.0393688 0.826062 0
M  V30 5507 H 546.027 0.670798 1.55879 0
M  V30 5508 H 544.799 1.23601 3.71266 0
M  V30 5509 H 544.422 -0.46264 3.94899 0
M  V30 5510 N 545.419 -1.53889 0.339982 0
M  V30 5511 C 546.352 -2.21187 -0.561405 0
M  V30 5512 C 547.33 -1.19463 -1.10306 0
M  V30 5513 O 548.514 -1.48268 -1.164 0
M  V30 5514 C 545.641 -2.8865 -1.77198 0
M  V30 5515 C 544.687 -4.04232 -1.3601 0
M  V30 5516 S 545.52 -5.34129 -0.382909 0
M  V30 5517 C 546.676 -6.05094 -1.60039 0
M  V30 5518 H 546.909 -2.97298 0.0102092 0
M  V30 5519 H 544.442 -1.53901 0.124056 0
M  V30 5520 H 546.4 -3.28138 -2.4665 0
M  V30 5521 H 545.061 -2.12311 -2.3148 0
M  V30 5522 H 544.254 -4.50358 -2.2626 0
M  V30 5523 H 543.856 -3.66503 -0.745098 0
M  V30 5524 H 546.148 -6.2827 -2.53541 0
M  V30 5525 H 547.091 -6.98182 -1.18099 0
M  V30 5526 H 547.499 -5.35207 -1.79483 0
M  V30 5527 N 546.897 -0.0685191 -1.57451 0
M  V30 5528 C 548.145 0.60016 -1.92983 0
M  V30 5529 C 548.466 1.70348 -0.949028 0
M  V30 5530 O 547.736 1.959 0.00335647 0
M  V30 5531 H 546.316 0.224682 -0.712409 0
M  V30 5532 H 548.978 -0.125605 -1.94495 0
M  V30 5533 H 548.074 1.02759 -2.94698 0
M  V30 5534 N 548.375 1.56261 0.205012 0
M  V30 5535 C 549.786 1.70056 0.770574 0
M  V30 5536 C 550.137 0.673398 1.84282 0
M  V30 5537 O 549.262 -0.172196 2.15714 0
M  V30 5538 C 549.857 3.08316 1.40451 0
M  V30 5539 C 548.416 3.2391 1.91727 0
M  V30 5540 C 547.563 2.66001 0.783516 0
M  V30 5541 H 550.514 1.58688 -0.019911 0
M  V30 5542 H 550.535 3.05094 2.27371 0
M  V30 5543 H 550.047 3.83053 0.623882 0
M  V30 5544 H 548.148 2.54072 2.7254 0
M  V30 5545 H 548.261 4.3131 2.08588 0
M  V30 5546 H 546.625 2.24915 1.19521 0
M  V30 5547 H 547.408 3.43297 0.0152883 0
M  V30 5548 N 549.853 -0.472356 1.50355 0
M  V30 5549 C 551.264 -1.05326 1.54154 0
M  V30 5550 C 551.615 -1.93155 0.344303 0
M  V30 5551 O 550.74 -2.09479 -0.542928 0
M  V30 5552 C 551.335 -1.91691 2.79356 0
M  V30 5553 C 549.894 -2.44892 2.8584 0
M  V30 5554 C 549.041 -1.23205 2.48426 0
M  V30 5555 H 551.992 -0.255027 1.56637 0
M  V30 5556 H 552.013 -2.76742 2.6114 0
M  V30 5557 H 551.525 -1.27741 3.66475 0
M  V30 5558 H 549.626 -3.12399 2.0307 0
M  V30 5559 H 549.739 -2.80086 3.88701 0
M  V30 5560 H 548.103 -1.56643 2.00836 0
M  V30 5561 H 548.886 -0.609194 3.37852 0
M  V30 5562 N 551.331 -1.39911 -0.725443 0
M  V30 5563 C 552.278 -1.39393 -1.83952 0
M  V30 5564 C 553.248 -0.252249 -1.64173 0
M  V30 5565 O 554.433 -0.44882 -1.85446 0
M  V30 5566 C 551.573 -1.25262 -3.21564 0
M  V30 5567 C 550.686 -2.49054 -3.52982 0
M  V30 5568 C 549.821 -2.27439 -4.80047 0
M  V30 5569 C 548.86 -3.46857 -5.04338 0
M  V30 5570 N 547.997 -3.24499 -6.22611 0
M  V30 5571 H 552.837 -2.34622 -1.83729 0
M  V30 5572 H 550.374 -1.16537 -0.897636 0
M  V30 5573 H 552.332 -1.15077 -4.01015 0
M  V30 5574 H 550.962 -0.33657 -3.21041 0
M  V30 5575 H 550.014 -2.69805 -2.6816 0
M  V30 5576 H 551.326 -3.37973 -3.66846 0
M  V30 5577 H 550.48 -2.14551 -5.67497 0
M  V30 5578 H 549.219 -1.35929 -4.68374 0
M  V30 5579 H 548.224 -3.60232 -4.15346 0
M  V30 5580 H 549.449 -4.3928 -5.17889 0
M  V30 5581 H 547.395 -2.35663 -6.12208 0
M  V30 5582 H 547.312 -4.06978 -6.37106 0
M  V30 5583 H 548.58 -3.15325 -7.12875 0
M  V30 5584 N 552.809 0.956637 -1.25245 0
M  V30 5585 C 553.719 2.0868 -1.0719 0
M  V30 5586 C 554.735 1.73997 -0.00959074 0
M  V30 5587 O 555.911 2.00301 -0.210104 0
M  V30 5588 C 552.976 3.39754 -0.690526 0
M  V30 5589 C 552.037 3.88316 -1.83055 0
M  V30 5590 C 551.27 5.13134 -1.46728 0
M  V30 5591 O 551.493 5.6925 -0.362029 0
M  V30 5592 O 550.427 5.56356 -2.29677 0
M  V30 5593 H 554.253 2.26813 -2.01965 0
M  V30 5594 H 551.838 1.07098 -1.04165 0
M  V30 5595 H 553.72 4.18543 -0.489871 0
M  V30 5596 H 552.395 3.22896 0.227981 0
M  V30 5597 H 551.302 3.1054 -2.08604 0
M  V30 5598 H 552.635 4.09669 -2.72822 0
M  V30 5599 N 554.287 1.06798 1.15896 0
M  V30 5600 C 555.235 0.677525 2.22514 0
M  V30 5601 C 556.229 -0.308994 1.66558 0
M  V30 5602 O 557.435 -0.173308 1.79164 0
M  V30 5603 H 553.81 0.200994 0.724642 0
M  V30 5604 H 555.781 1.5865 2.52731 0
M  V30 5605 C 554.53 0.0854153 3.47595 0
M  V30 5606 H 553.853 0.835645 3.90969 0
M  V30 5607 H 555.293 -0.150199 4.23734 0
M  V30 5608 C 553.752 -1.1724 3.15843 0
M  V30 5609 O 554.282 -2.25965 3.32119 0
M  V30 5610 N 552.488 -1.07636 2.69931 0
M  V30 5611 H 552.035 -0.191559 2.56887 0
M  V30 5612 H 551.993 -1.91876 2.4906 0
M  V30 5613 N 555.766 -1.3263 0.851289 0
M  V30 5614 C 556.713 -2.28952 0.291469 0
M  V30 5615 C 557.683 -1.54897 -0.599676 0
M  V30 5616 O 558.868 -1.83137 -0.535305 0
M  V30 5617 C 556.008 -3.41206 -0.516992 0
M  V30 5618 C 555.121 -4.30148 0.399566 0
M  V30 5619 C 554.256 -5.29527 -0.4212 0
M  V30 5620 C 553.295 -6.10112 0.492969 0
M  V30 5621 N 552.432 -7.01499 -0.290414 0
M  V30 5622 H 557.272 -2.76228 1.11813 0
M  V30 5623 H 554.809 -1.35907 0.562826 0
M  V30 5624 H 556.767 -4.05005 -1.00132 0
M  V30 5625 H 555.397 -2.9509 -1.30851 0
M  V30 5626 H 554.449 -3.66959 1.00227 0
M  V30 5627 H 555.761 -4.8649 1.1013 0
M  V30 5628 H 554.915 -5.98914 -0.968832 0
M  V30 5629 H 553.654 -4.73794 -1.15632 0
M  V30 5630 H 552.659 -5.39632 1.05251 0
M  V30 5631 H 553.884 -6.6793 1.22664 0
M  V30 5632 H 551.83 -6.48199 -1.00868 0
M  V30 5633 H 551.747 -7.55178 0.352354 0
M  V30 5634 H 553.015 -7.75176 -0.819882 0
M  V30 5635 N 557.244 -0.608902 -1.45362 0
M  V30 5636 C 558.191 0.109172 -2.30542 0
M  V30 5637 C 559.161 0.858704 -1.42181 0
M  V30 5638 O 560.346 0.844178 -1.71109 0
M  V30 5639 C 557.486 1.09971 -3.27109 0
M  V30 5640 C 556.599 0.350911 -4.30572 0
M  V30 5641 C 555.734 1.33129 -5.14247 0
M  V30 5642 C 554.773 0.570377 -6.09437 0
M  V30 5643 N 553.91 1.5001 -6.85887 0
M  V30 5644 H 558.75 -0.623195 -2.91411 0
M  V30 5645 H 556.287 -0.319122 -1.43597 0
M  V30 5646 H 558.245 1.68714 -3.81564 0
M  V30 5647 H 556.875 1.79947 -2.67991 0
M  V30 5648 H 555.927 -0.352054 -3.78767 0
M  V30 5649 H 557.239 -0.242725 -4.98209 0
M  V30 5650 H 556.393 1.99074 -5.73109 0
M  V30 5651 H 555.132 1.95885 -4.46632 0
M  V30 5652 H 554.137 -0.102702 -5.49704 0
M  V30 5653 H 555.362 -0.0521607 -6.7908 0
M  V30 5654 H 553.308 2.11529 -6.2096 0
M  V30 5655 H 553.225 0.959934 -7.49881 0
M  V30 5656 H 554.493 2.14909 -7.49289 0
M  V30 5657 N 558.722 1.53707 -0.348139 0
M  V30 5658 C 559.632 2.28881 0.514857 0
M  V30 5659 C 560.648 1.34168 1.10793 0
M  V30 5660 O 561.824 1.6721 1.12262 0
M  V30 5661 C 558.889 3.05042 1.64774 0
M  V30 5662 C 557.95 4.15389 1.08398 0
M  V30 5663 C 557.183 4.87909 2.16287 0
M  V30 5664 O 557.406 4.60137 3.3709 0
M  V30 5665 O 556.34 5.74254 1.80323 0
M  V30 5666 H 560.166 3.03547 -0.0963699 0
M  V30 5667 H 557.751 1.48972 -0.113043 0
M  V30 5668 H 559.633 3.52656 2.30677 0
M  V30 5669 H 558.308 2.33228 2.24469 0
M  V30 5670 H 557.215 3.72068 0.389341 0
M  V30 5671 H 558.548 4.89318 0.531829 0
M  V30 5672 N 560.2 0.0768682 1.57412 0
M  V30 5673 C 561.428 -0.59997 1.9801 0
M  V30 5674 C 561.843 -1.62842 0.955408 0
M  V30 5675 O 561.2 -1.8241 -0.057314 0
M  V30 5676 C 561.251 -1.26401 3.38681 0
M  V30 5677 O 560.972 -0.276723 4.37225 0
M  V30 5678 C 562.473 -2.0282 3.94182 0
M  V30 5679 H 559.693 -0.162239 0.651091 0
M  V30 5680 H 562.237 0.150771 2.03943 0
M  V30 5681 H 560.392 -1.96581 3.33819 0
M  V30 5682 H 560.806 -0.753744 5.19056 0
M  V30 5683 H 562.28 -2.44667 4.94815 0
M  V30 5684 H 562.757 -2.88678 3.31001 0
M  V30 5685 H 563.363 -1.37496 4.02461 0
M  V30 5686 N 561.678 -1.56367 -0.196722 0
M  V30 5687 C 562.588 -1.97617 -1.2643 0
M  V30 5688 C 563.604 -0.883598 -1.49895 0
M  V30 5689 O 564.78 -1.18921 -1.62541 0
M  V30 5690 C 561.845 -2.30595 -2.58895 0
M  V30 5691 C 560.906 -3.53551 -2.43516 0
M  V30 5692 C 560.139 -3.84946 -3.69665 0
M  V30 5693 O 560.362 -3.17655 -4.73763 0
M  V30 5694 O 559.296 -4.78379 -3.65291 0
M  V30 5695 H 563.122 -2.88648 -0.944233 0
M  V30 5696 H 560.707 -1.43901 -0.401592 0
M  V30 5697 H 562.589 -2.52889 -3.37083 0
M  V30 5698 H 561.264 -1.42732 -2.90533 0
M  V30 5699 H 560.171 -3.36507 -1.63445 0
M  V30 5700 H 561.504 -4.41875 -2.16812 0
M  V30 5701 N 563.156 0.464375 -1.50603 0
M  V30 5702 C 564.572 0.798684 -1.38178 0
M  V30 5703 C 564.772 1.96568 -0.44308 0
M  V30 5704 O 563.828 2.52252 0.111814 0
M  V30 5705 C 565.141 1.10444 -2.79683 0
M  V30 5706 C 566.689 1.2105 -2.88645 0
M  V30 5707 C 567.164 1.54934 -4.30998 0
M  V30 5708 N 568.655 1.61913 -4.3398 0
M  V30 5709 C 569.39 1.8965 -5.41129 0
M  V30 5710 N 568.886 2.15361 -6.58477 0
M  V30 5711 N 570.679 1.91207 -5.28579 0
M  V30 5712 H 562.83 -0.304603 -2.10204 0
M  V30 5713 H 565.093 -0.0737804 -0.945125 0
M  V30 5714 H 564.799 0.319934 -3.50242 0
M  V30 5715 H 564.673 2.03896 -3.17342 0
M  V30 5716 H 567.06 1.98567 -2.18301 0
M  V30 5717 H 567.141 0.255613 -2.5452 0
M  V30 5718 H 566.785 0.779549 -5.01882 0
M  V30 5719 H 566.715 2.51584 -4.62615 0
M  V30 5720 H 569.206 1.44055 -3.49366 0
M  V30 5721 H 569.519 2.35818 -7.35941 0
M  V30 5722 H 567.864 2.1274 -6.6164 0
M  V30 5723 H 571.055 1.70622 -4.35897 0
M  V30 5724 H 571.228 2.12488 -6.12171 0
M  V30 5725 N 564.634 1.40294 0.718013 0
M  V30 5726 C 565.597 1.4012 1.81381 0
M  V30 5727 C 566.597 0.295405 1.58063 0
M  V30 5728 O 567.787 0.554187 1.6515 0
M  V30 5729 C 564.919 1.19056 3.19435 0
M  V30 5730 H 566.112 2.37645 1.82933 0
M  V30 5731 H 563.665 1.26107 0.923405 0
M  V30 5732 H 564.4 0.222809 3.23534 0
M  V30 5733 H 564.185 1.99152 3.37758 0
M  V30 5734 H 565.675 1.21716 3.99468 0
M  V30 5735 N 566.112 -0.949982 1.2575 0
M  V30 5736 C 567.337 -1.73503 1.13628 0
M  V30 5737 C 567.762 -1.85601 -0.30559 0
M  V30 5738 O 567.12 -1.33984 -1.22139 0
M  V30 5739 C 567.168 -3.1243 1.80055 0
M  V30 5740 O 566.272 -3.97916 1.08336 0
M  V30 5741 H 565.613 -0.532665 0.396439 0
M  V30 5742 H 568.143 -1.19043 1.66403 0
M  V30 5743 H 568.153 -3.62866 1.86527 0
M  V30 5744 H 566.828 -3.02941 2.84956 0
M  V30 5745 H 565.405 -3.56375 1.09777 0
M  V30 5746 N 567.59 -1.07411 -1.15328 0
M  V30 5747 C 569.001 -0.820261 -1.67716 0
M  V30 5748 C 569.352 0.654539 -1.8496 0
M  V30 5749 O 568.477 1.50664 -1.55337 0
M  V30 5750 C 569.072 -1.48242 -3.04647 0
M  V30 5751 C 567.631 -1.27606 -3.5411 0
M  V30 5752 C 566.778 -1.5517 -2.29821 0
M  V30 5753 H 569.729 -1.23608 -0.995332 0
M  V30 5754 H 569.75 -0.903984 -3.69606 0
M  V30 5755 H 569.262 -2.55578 -2.92064 0
M  V30 5756 H 567.363 -0.222948 -3.71932 0
M  V30 5757 H 567.476 -1.99667 -4.35511 0
M  V30 5758 H 565.84 -0.972747 -2.35393 0
M  V30 5759 H 566.623 -2.63689 -2.19824 0
M  V30 5760 N 569.068 1.32177 -0.85831 0
M  V30 5761 C 570.317 1.96392 -0.459689 0
M  V30 5762 C 570.63 1.68659 0.990632 0
M  V30 5763 O 571.836 2.26641 1.49485 0
M  V30 5764 C 570.292 3.51542 -0.7711 0
M  V30 5765 C 569.9 3.8813 -2.2374 0
M  V30 5766 C 571.644 4.2221 -0.44038 0
M  V30 5767 C 569.551 5.36341 -2.49183 0
M  V30 5768 H 568.481 0.735007 -0.168169 0
M  V30 5769 H 571.132 1.50518 -1.0496 0
M  V30 5770 H 569.514 3.95846 -0.11058 0
M  V30 5771 H 570.688 3.54824 -2.94001 0
M  V30 5772 H 569.003 3.30497 -2.533 0
M  V30 5773 H 571.6 5.31234 -0.607855 0
M  V30 5774 H 571.943 4.11683 0.618291 0
M  V30 5775 H 572.476 3.83502 -1.05695 0
M  V30 5776 H 569.215 5.51892 -3.53689 0
M  V30 5777 H 568.735 5.7104 -1.83504 0
M  V30 5778 H 570.414 6.03466 -2.33318 0
M  V30 5779 N 570.547 0.616602 1.45037 0
M  V30 5780 C 571.494 -0.0969439 2.30596 0
M  V30 5781 C 572.464 -0.851151 1.42635 0
M  V30 5782 O 573.649 -0.835092 1.71554 0
M  V30 5783 C 570.789 -1.08234 3.27688 0
M  V30 5784 C 569.902 -0.328072 4.30752 0
M  V30 5785 C 569.037 -1.30399 5.14946 0
M  V30 5786 C 568.076 -0.538049 6.09731 0
M  V30 5787 N 567.213 -1.46371 6.86673 0
M  V30 5788 H 572.053 0.63864 2.91076 0
M  V30 5789 H 569.59 0.326733 1.43425 0
M  V30 5790 H 571.548 -1.66688 3.82454 0
M  V30 5791 H 570.178 -1.78523 2.68941 0
M  V30 5792 H 569.23 0.372136 3.78575 0
M  V30 5793 H 570.542 0.269142 4.98073 0
M  V30 5794 H 569.696 -1.96032 5.74157 0
M  V30 5795 H 568.435 -1.93514 4.47665 0
M  V30 5796 H 567.44 0.131852 5.49642 0
M  V30 5797 H 568.665 0.0881732 6.79043 0
M  V30 5798 H 566.611 -2.08233 6.22073 0
M  V30 5799 H 566.528 -0.920152 7.50379 0
M  V30 5800 H 567.796 -2.10932 7.50418 0
M  V30 5801 N 572.025 -1.5352 0.356285 0
M  V30 5802 C 572.958 -2.2177 -0.537913 0
M  V30 5803 C 573.936 -1.20626 -1.09033 0
M  V30 5804 O 575.12 -1.49494 -1.1482 0
M  V30 5805 C 572.247 -2.90513 -1.74126 0
M  V30 5806 C 571.293 -4.05652 -1.31715 0
M  V30 5807 S 572.126 -5.34505 -0.326236 0
M  V30 5808 C 573.282 -6.06757 -1.53612 0
M  V30 5809 H 573.515 -2.97271 0.0417411 0
M  V30 5810 H 571.048 -1.53761 0.140372 0
M  V30 5811 H 573.006 -3.30735 -2.43155 0
M  V30 5812 H 571.667 -2.14754 -2.29215 0
M  V30 5813 H 570.86 -4.52733 -2.21471 0
M  V30 5814 H 570.462 -3.67272 -0.706183 0
M  V30 5815 H 572.754 -6.30924 -2.46863 0
M  V30 5816 H 573.697 -6.99395 -1.10687 0
M  V30 5817 H 574.105 -5.3708 -1.73796 0
M  V30 5818 N 573.503 -0.0852151 -1.57369 0
M  V30 5819 C 574.78 0.622534 -1.85429 0
M  V30 5820 C 575.16 1.86962 -0.980229 0
M  V30 5821 O 574.508 2.28445 -0.0500219 0
M  V30 5822 C 574.718 0.947374 -3.35896 0
M  V30 5823 C 576.066 1.31509 -4.03721 0
M  V30 5824 O 577.09 1.03869 -3.40719 0
M  V30 5825 O 575.949 1.83231 -5.14868 0
M  V30 5826 H 573.043 0.310513 -0.766492 0
M  V30 5827 H 575.589 -0.117164 -1.69295 0
M  V30 5828 H 574.361 0.0622264 -3.91251 0
M  V30 5829 H 573.984 1.74338 -3.5734 0
M  V30 5830 N 574.981 1.5647 0.188427 0
M  V30 5831 C 575.911 1.98101 1.23606 0
M  V30 5832 C 576.892 0.853961 1.47111 0
M  V30 5833 O 578.077 1.11879 1.58735 0
M  V30 5834 C 575.207 2.32624 2.57882 0
M  V30 5835 C 574.161 3.48129 2.48978 0
M  V30 5836 C 573.487 3.68347 3.87588 0
M  V30 5837 C 574.787 4.82112 2.00911 0
M  V30 5838 H 576.481 2.85864 0.890068 0
M  V30 5839 H 574.027 1.37532 0.426714 0
M  V30 5840 H 575.98 2.60343 3.3136 0
M  V30 5841 H 574.704 1.41751 2.94235 0
M  V30 5842 H 573.363 3.20511 1.77956 0
M  V30 5843 H 573.011 2.74793 4.21305 0
M  V30 5844 H 572.711 4.46055 3.82503 0
M  V30 5845 H 574.235 3.98449 4.62678 0
M  V30 5846 H 575.649 5.08819 2.64151 0
M  V30 5847 H 574.046 5.63337 2.06814 0
M  V30 5848 H 575.116 4.75249 0.96262 0
M  V30 5849 N 576.459 -0.456382 1.50847 0
M  V30 5850 C 577.422 -1.53493 1.70213 0
M  V30 5851 C 578.422 -1.50264 0.572481 0
M  V30 5852 O 579.612 -1.52623 0.839751 0
M  V30 5853 C 576.744 -2.93091 1.741 0
M  V30 5854 H 577.937 -1.37633 2.66453 0
M  V30 5855 H 575.49 -0.683776 1.4055 0
M  V30 5856 H 576.225 -3.14378 0.796063 0
M  V30 5857 H 576.01 -2.9684 2.5618 0
M  V30 5858 H 577.5 -3.71368 1.90987 0
M  V30 5859 N 577.937 -1.40673 -0.710563 0
M  V30 5860 C 579.348 -1.34975 -1.28991 0
M  V30 5861 C 579.699 -0.0256272 -1.96183 0
M  V30 5862 O 578.824 0.876339 -1.97862 0
M  V30 5863 C 579.419 -2.44467 -2.34567 0
M  V30 5864 C 577.978 -2.42213 -2.88114 0
M  V30 5865 C 577.125 -2.25085 -1.61963 0
M  V30 5866 H 580.076 -1.50406 -0.506343 0
M  V30 5867 H 580.097 -2.12663 -3.15523 0
M  V30 5868 H 579.609 -3.40825 -1.85634 0
M  V30 5869 H 577.71 -1.49568 -3.41263 0
M  V30 5870 H 577.823 -3.37983 -3.39565 0
M  V30 5871 H 576.187 -1.72691 -1.87216 0
M  V30 5872 H 576.97 -3.23449 -1.15047 0
M  V30 5873 N 579.415 0.9433 -1.26252 0
M  V30 5874 C 580.64 1.72898 -1.14547 0
M  V30 5875 C 581.065 1.85761 0.295743 0
M  V30 5876 O 580.423 1.3463 1.21427 0
M  V30 5877 C 580.471 3.11471 -1.8171 0
M  V30 5878 O 579.575 3.97336 -1.10445 0
M  V30 5879 H 578.916 0.530555 -0.399259 0
M  V30 5880 H 581.446 1.18159 -1.67032 0
M  V30 5881 H 581.456 3.61872 -1.88449 0
M  V30 5882 H 580.131 3.01425 -2.86558 0
M  V30 5883 H 578.708 3.55788 -1.11666 0
M  V30 5884 N 580.893 1.08022 1.14757 0
M  V30 5885 C 581.84 0.706657 2.19716 0
M  V30 5886 C 582.81 -0.30525 1.63271 0
M  V30 5887 O 583.995 -0.19015 1.8985 0
M  V30 5888 C 581.135 0.117914 3.44898 0
M  V30 5889 C 580.248 1.18212 4.15512 0
M  V30 5890 C 579.383 0.557659 5.28265 0
M  V30 5891 C 578.422 1.60418 5.90705 0
M  V30 5892 N 577.559 1.0018 6.94916 0
M  V30 5893 H 582.399 1.60603 2.51019 0
M  V30 5894 H 579.936 0.802664 1.23271 0
M  V30 5895 H 581.894 -0.241112 4.16503 0
M  V30 5896 H 580.524 -0.744788 3.1409 0
M  V30 5897 H 579.576 1.65863 3.42335 0
M  V30 5898 H 580.888 1.97533 4.5802 0
M  V30 5899 H 580.042 0.146654 6.06523 0
M  V30 5900 H 578.781 -0.267249 4.86967 0
M  V30 5901 H 577.786 2.02489 5.11154 0
M  V30 5902 H 579.011 2.43149 6.34078 0
M  V30 5903 H 576.957 0.197917 6.55701 0
M  V30 5904 H 576.874 1.73216 7.35889 0
M  V30 5905 H 578.142 0.616523 7.77058 0
M  V30 5906 N 582.371 -1.3172 0.865308 0
M  V30 5907 C 583.648 -1.91574 0.394789 0
M  V30 5908 C 584.028 -1.78769 -1.12271 0
M  V30 5909 O 583.376 -1.19245 -1.94918 0
M  V30 5910 C 583.586 -3.37957 0.870982 0
M  V30 5911 C 584.934 -4.15073 0.894384 0
M  V30 5912 O 585.958 -3.4672 0.816325 0
M  V30 5913 O 584.817 -5.37151 1.00651 0
M  V30 5914 H 581.911 -0.818649 0.117229 0
M  V30 5915 H 584.457 -1.4042 0.952913 0
M  V30 5916 H 583.229 -3.41269 1.91444 0
M  V30 5917 H 582.852 -3.96534 0.290907 0
M  V30 5918 N 583.85 -0.624285 -1.44708 0
M  V30 5919 C 584.783 0.133905 -2.27807 0
M  V30 5920 C 585.76 0.857794 -1.38133 0
M  V30 5921 O 586.945 0.863277 -1.6757 0
M  V30 5922 C 584.072 1.19541 -3.16903 0
M  V30 5923 C 583.118 0.572813 -4.22636 0
M  V30 5924 S 583.951 -0.631953 -5.31758 0
M  V30 5925 C 585.106 0.429733 -6.24423 0
M  V30 5926 H 585.34 -0.571072 -2.91764 0
M  V30 5927 H 582.873 -0.412261 -1.48794 0
M  V30 5928 H 584.831 1.80293 -3.68788 0
M  V30 5929 H 583.492 1.87255 -2.5218 0
M  V30 5930 H 582.685 1.37205 -4.84965 0
M  V30 5931 H 582.287 0.0400641 -3.73979 0
M  V30 5932 H 584.579 1.30421 -6.64828 0
M  V30 5933 H 585.522 -0.157804 -7.07924 0
M  V30 5934 H 585.93 0.75256 -5.59461 0
M  V30 5935 N 585.328 1.53329 -0.364422 0
M  V30 5936 C 586.576 2.00842 0.225189 0
M  V30 5937 C 586.897 1.25345 1.49378 0
M  V30 5938 O 586.167 0.366396 1.92443 0
M  V30 5939 H 584.747 0.742009 0.0862027 0
M  V30 5940 H 587.409 1.8863 -0.490389 0
M  V30 5941 H 586.505 3.08795 0.452987 0
M  V30 5942 N 586.806 0.0935595 1.57322 0
M  V30 5943 C 588.217 -0.435807 1.81542 0
M  V30 5944 C 588.568 -1.68263 1.00907 0
M  V30 5945 O 587.693 -2.15087 0.237983 0
M  V30 5946 C 588.288 -0.797436 3.29282 0
M  V30 5947 C 586.847 -1.27155 3.54272 0
M  V30 5948 C 585.994 -0.267455 2.76007 0
M  V30 5949 H 588.945 0.31902 1.5546 0
M  V30 5950 H 588.966 -1.6571 3.42521 0
M  V30 5951 H 588.478 0.110206 3.87943 0
M  V30 5952 H 586.579 -2.19696 3.00939 0
M  V30 5953 H 586.692 -1.23445 4.62923 0
M  V30 5954 H 585.056 -0.749282 2.43429 0
M  V30 5955 H 585.839 0.632839 3.37417 0
M  V30 5956 N 588.284 -1.56567 -0.180126 0
M  V30 5957 C 589.695 -1.7126 -0.743422 0
M  V30 5958 C 590.046 -0.70263 -1.83187 0
M  V30 5959 O 589.171 0.137856 -2.1596 0
M  V30 5960 C 589.766 -3.10512 -1.35528 0
M  V30 5961 C 588.325 -3.26919 -1.8655 0
M  V30 5962 C 587.472 -2.67213 -0.741099 0
M  V30 5963 H 590.423 -1.58636 0.0451543 0
M  V30 5964 H 590.444 -3.08673 -2.22489 0
M  V30 5965 H 589.956 -3.83997 -0.562862 0
M  V30 5966 H 588.057 -2.58376 -2.68464 0
M  V30 5967 H 588.17 -4.34574 -2.01699 0
M  V30 5968 H 586.534 -2.26788 -1.15927 0
M  V30 5969 H 587.317 -3.43277 0.0393291 0
M  V30 5970 N 589.762 0.448376 -1.51087 0
M  V30 5971 C 590.709 1.54341 -1.71603 0
M  V30 5972 C 591.679 1.56463 -0.557536 0
M  V30 5973 O 592.864 1.73644 -0.79072 0
M  V30 5974 C 590.004 2.92148 -1.83695 0
M  V30 5975 C 589.117 2.99639 -3.11192 0
M  V30 5976 C 588.252 4.285 -3.13944 0
M  V30 5977 C 587.291 4.29819 -4.35801 0
M  V30 5978 N 586.428 5.50186 -4.36164 0
M  V30 5979 H 591.268 1.36151 -2.65079 0
M  V30 5980 H 588.805 0.661585 -1.31383 0
M  V30 5981 H 590.763 3.72093 -1.88687 0
M  V30 5982 H 589.393 3.0892 -0.936374 0
M  V30 5983 H 588.445 2.12425 -3.15562 0
M  V30 5984 H 589.757 2.96474 -4.01129 0
M  V30 5985 H 588.911 5.16811 -3.17791 0
M  V30 5986 H 587.65 4.34307 -2.21876 0
M  V30 5987 H 586.655 3.39902 -4.32142 0
M  V30 5988 H 587.88 4.25685 -5.29121 0
M  V30 5989 H 585.826 5.56735 -3.46961 0
M  V30 5990 H 585.743 5.48856 -5.19897 0
M  V30 5991 H 587.011 6.40559 -4.44189 0
M  V30 5992 N 591.24 1.41047 0.703093 0
M  V30 5993 C 592.15 1.44645 1.84703 0
M  V30 5994 C 593.166 0.337778 1.7069 0
M  V30 5995 O 594.342 0.584327 1.92737 0
M  V30 5996 C 591.407 1.31928 3.20618 0
M  V30 5997 C 590.468 2.53047 3.46794 0
M  V30 5998 C 589.701 2.40927 4.76224 0
M  V30 5999 O 589.924 1.42978 5.5219 0
M  V30 6000 O 588.858 3.30543 5.03016 0
M  V30 6001 H 592.684 2.41139 1.84624 0
M  V30 6002 H 590.269 1.22504 0.855167 0
M  V30 6003 H 592.151 1.27092 4.01778 0
M  V30 6004 H 590.826 0.385469 3.21397 0
M  V30 6005 H 589.733 2.6346 2.65593 0
M  V30 6006 H 591.066 3.45231 3.50822 0
M  V30 6007 N 592.718 -0.936591 1.26751 0
M  V30 6008 C 593.666 -2.0573 1.08527 0
M  V30 6009 C 594.66 -1.69397 0.0108784 0
M  V30 6010 O 595.866 -1.79215 0.167915 0
M  V30 6011 H 592.241 -0.673691 0.334133 0
M  V30 6012 H 594.212 -2.1825 2.03493 0
M  V30 6013 C 592.961 -3.39738 0.739845 0
M  V30 6014 H 592.284 -3.68174 1.55845 0
M  V30 6015 H 593.724 -4.18955 0.652149 0
M  V30 6016 C 592.183 -3.32292 -0.555288 0
M  V30 6017 O 592.713 -3.68794 -1.59229 0
M  V30 6018 N 590.919 -2.85394 -0.54762 0
M  V30 6019 H 590.466 -2.55886 0.296667 0
M  V30 6020 H 590.424 -2.80795 -1.41427 0
M  V30 6021 N 594.196 -1.08629 -1.14182 0
M  V30 6022 C 595.143 -0.718299 -2.19338 0
M  V30 6023 C 596.113 0.296587 -1.63431 0
M  V30 6024 O 597.298 0.180079 -1.89948 0
M  V30 6025 C 594.438 -0.136203 -3.44831 0
M  V30 6026 C 593.551 -1.20414 -4.14879 0
M  V30 6027 C 592.686 -0.585666 -5.27962 0
M  V30 6028 C 591.725 -1.63548 -5.89846 0
M  V30 6029 N 590.862 -1.03864 -6.94375 0
M  V30 6030 H 595.702 -1.61932 -2.50164 0
M  V30 6031 H 593.239 -0.80919 -1.22844 0
M  V30 6032 H 595.197 0.219021 -4.16625 0
M  V30 6033 H 593.827 0.728121 -3.14481 0
M  V30 6034 H 592.879 -1.67676 -3.41451 0
M  V30 6035 H 594.191 -1.99959 -4.56966 0
M  V30 6036 H 593.345 -0.178818 -6.06436 0
M  V30 6037 H 592.084 0.24142 -4.87102 0
M  V30 6038 H 591.089 -2.05197 -5.10073 0
M  V30 6039 H 592.314 -2.46509 -6.3278 0
M  V30 6040 H 590.26 -0.232687 -6.55587 0
M  V30 6041 H 590.177 -1.77116 -7.3496 0
M  V30 6042 H 591.445 -0.657724 -7.7672 0
M  V30 6043 N 595.674 1.31259 -0.872281 0
M  V30 6044 C 596.923 1.95893 -0.480493 0
M  V30 6045 C 597.236 1.697 0.972688 0
M  V30 6046 O 598.442 2.28214 1.47073 0
M  V30 6047 C 596.898 3.50705 -0.808342 0
M  V30 6048 C 596.506 3.85735 -2.27844 0
M  V30 6049 C 598.25 4.21719 -0.485136 0
M  V30 6050 C 596.157 5.33668 -2.54858 0
M  V30 6051 H 595.087 0.733182 -0.175955 0
M  V30 6052 H 597.738 1.49396 -1.0655 0
M  V30 6053 H 596.12 3.95706 -0.152558 0
M  V30 6054 H 597.294 3.51686 -2.97748 0
M  V30 6055 H 595.609 3.27792 -2.56791 0
M  V30 6056 H 598.206 5.30559 -0.664166 0
M  V30 6057 H 598.549 4.12316 0.574592 0
M  V30 6058 H 599.082 3.82359 -1.09756 0
M  V30 6059 H 595.821 5.48109 -3.59523 0
M  V30 6060 H 595.341 5.69061 -1.8955 0
M  V30 6061 H 597.02 6.00958 -2.39706 0
M  V30 6062 N 597.152 0.631951 1.44375 0
M  V30 6063 C 598.398 0.13697 2.02337 0
M  V30 6064 C 598.731 -1.23826 1.49602 0
M  V30 6065 O 598.006 -1.8221 0.680415 0
M  V30 6066 C 598.289 0.124536 3.59885 0
M  V30 6067 C 598.142 1.53217 4.229 0
M  V30 6068 C 599.461 -0.550481 4.36644 0
M  V30 6069 H 596.58 0.051247 0.735216 0
M  V30 6070 H 599.222 0.808581 1.71936 0
M  V30 6071 H 597.372 -0.44737 3.85916 0
M  V30 6072 H 599.044 2.15303 4.07973 0
M  V30 6073 H 597.287 2.0858 3.80364 0
M  V30 6074 H 597.958 1.4755 5.31914 0
M  V30 6075 H 600.434 -0.0641154 4.16051 0
M  V30 6076 H 599.31 -0.528371 5.46351 0
M  V30 6077 H 599.571 -1.62097 4.11311 0
M  V30 6078 N 598.631 -1.53133 0.372548 0
M  V30 6079 C 600.042 -1.86404 -0.105155 0
M  V30 6080 C 600.393 -1.29289 -1.47576 0
M  V30 6081 O 599.518 -0.617646 -2.07398 0
M  V30 6082 C 600.113 -3.38223 -0.197588 0
M  V30 6083 C 598.672 -3.71266 -0.619556 0
M  V30 6084 C 597.819 -2.76353 0.228919 0
M  V30 6085 H 600.77 -1.47282 0.591077 0
M  V30 6086 H 600.791 -3.66577 -1.01987 0
M  V30 6087 H 600.303 -3.79763 0.800099 0
M  V30 6088 H 598.404 -3.35287 -1.62522 0
M  V30 6089 H 598.517 -4.77515 -0.389332 0
M  V30 6090 H 596.881 -2.52888 -0.303271 0
M  V30 6091 H 597.664 -3.20728 1.22428 0
M  V30 6092 N 600.109 -0.101901 -1.5727 0
M  V30 6093 C 601.072 0.840129 -2.13247 0
M  V30 6094 C 602.072 1.20625 -1.06331 0
M  V30 6095 O 603.262 1.13456 -1.32186 0
M  V30 6096 C 600.394 2.13372 -2.65867 0
M  V30 6097 H 601.587 0.353945 -2.97804 0
M  V30 6098 H 599.14 0.147167 -1.55606 0
M  V30 6099 H 599.875 2.66461 -1.84849 0
M  V30 6100 H 599.66 1.88085 -3.44044 0
M  V30 6101 H 601.15 2.80748 -3.09145 0
M  V30 6102 N 601.587 1.56661 0.17182 0
M  V30 6103 C 602.534 1.96371 1.21273 0
M  V30 6104 C 603.504 0.82756 1.44016 0
M  V30 6105 O 604.689 1.08764 1.56764 0
M  V30 6106 C 601.829 2.32838 2.54716 0
M  V30 6107 C 600.942 3.59628 2.39356 0
M  V30 6108 C 600.077 3.85311 3.65662 0
M  V30 6109 C 599.116 5.0545 3.45234 0
M  V30 6110 N 598.253 5.27268 4.63608 0
M  V30 6111 H 603.093 2.85106 0.86709 0
M  V30 6112 H 600.63 1.41073 0.416744 0
M  V30 6113 H 602.588 2.52004 3.3249 0
M  V30 6114 H 601.218 1.47214 2.87277 0
M  V30 6115 H 600.27 3.4838 1.52761 0
M  V30 6116 H 601.582 4.4756 2.20207 0
M  V30 6117 H 600.736 4.04841 4.51872 0
M  V30 6118 H 599.475 2.95753 3.8779 0
M  V30 6119 H 598.48 4.85819 2.5741 0
M  V30 6120 H 599.705 5.96538 3.24529 0
M  V30 6121 H 597.651 4.40662 4.85956 0
M  V30 6122 H 597.568 6.09422 4.4737 0
M  V30 6123 H 598.836 5.51277 5.51103 0
M  V30 6124 N 603.065 -0.440357 1.51323 0
M  V30 6125 C 604.342 -1.20109 1.5438 0
M  V30 6126 C 604.722 -2.08866 0.306303 0
M  V30 6127 O 604.07 -2.1723 -0.708773 0
M  V30 6128 C 604.28 -2.00555 2.8562 0
M  V30 6129 C 605.628 -2.577 3.37455 0
M  V30 6130 O 606.652 -2.10769 2.8715 0
M  V30 6131 O 605.511 -3.43289 4.25224 0
M  V30 6132 H 602.605 -0.546668 0.620551 0
M  V30 6133 H 605.151 -0.449672 1.63634 0
M  V30 6134 H 603.923 -1.35346 3.67147 0
M  V30 6135 H 603.546 -2.82768 2.79514 0
M  V30 6136 N 604.543 -1.41418 -0.695603 0
M  V30 6137 C 605.473 -1.46035 -1.82197 0
M  V30 6138 C 606.454 -0.319025 -1.67082 0
M  V30 6139 O 607.639 -0.530462 -1.86815 0
M  V30 6140 C 604.769 -1.34179 -3.20333 0
M  V30 6141 C 603.723 -2.46123 -3.50154 0
M  V30 6142 C 603.049 -2.19332 -4.87645 0
M  V30 6143 C 604.349 -3.88463 -3.49133 0
M  V30 6144 H 606.043 -2.40303 -1.78591 0
M  V30 6145 H 603.589 -1.15663 -0.857797 0
M  V30 6146 H 605.542 -1.36021 -3.98844 0
M  V30 6147 H 604.266 -0.363952 -3.24566 0
M  V30 6148 H 602.925 -2.43563 -2.73994 0
M  V30 6149 H 602.573 -1.19891 -4.88503 0
M  V30 6150 H 602.273 -2.94344 -5.08562 0
M  V30 6151 H 603.797 -2.22889 -5.68465 0
M  V30 6152 H 605.211 -3.92738 -4.17648 0
M  V30 6153 H 603.608 -4.63158 -3.81582 0
M  V30 6154 H 604.678 -4.16617 -2.48109 0
M  V30 6155 N 606.021 0.929856 -1.27246 0
M  V30 6156 C 607.267 1.6798 -1.13625 0
M  V30 6157 C 607.6 1.91586 0.317589 0
M  V30 6158 O 606.875 1.50467 1.23247 0
M  V30 6159 C 607.158 3.04766 -1.91806 0
M  V30 6160 C 607.011 2.88415 -3.45162 0
M  V30 6161 C 608.33 4.05063 -1.72082 0
M  V30 6162 H 605.449 0.609632 -0.414147 0
M  V30 6163 H 608.091 1.0792 -1.56376 0
M  V30 6164 H 606.241 3.56034 -1.55474 0
M  V30 6165 H 607.913 2.44282 -3.91311 0
M  V30 6166 H 606.156 2.23802 -3.71611 0
M  V30 6167 H 606.827 3.85482 -3.95105 0
M  V30 6168 H 609.303 3.62798 -2.03757 0
M  V30 6169 H 608.179 4.98765 -2.29182 0
M  V30 6170 H 608.44 4.37021 -0.668206 0
M  V30 6171 N 607.499 1.09233 1.13605 0
M  V30 6172 C 608.429 0.751738 2.21068 0
M  V30 6173 C 609.41 -0.269688 1.67948 0
M  V30 6174 O 610.595 -0.13819 1.93708 0
M  V30 6175 C 607.725 0.16935 3.46887 0
M  V30 6176 C 606.679 1.12007 4.13084 0
M  V30 6177 C 606.005 0.399483 5.33206 0
M  V30 6178 C 607.305 2.46168 4.6065 0
M  V30 6179 H 608.999 1.65024 2.49815 0
M  V30 6180 H 606.545 0.794905 1.20072 0
M  V30 6181 H 608.498 -0.0809824 4.21322 0
M  V30 6182 H 607.222 -0.764335 3.1753 0
M  V30 6183 H 605.881 1.35564 3.40614 0
M  V30 6184 H 605.529 -0.538277 5.00112 0
M  V30 6185 H 605.229 1.03337 5.78442 0
M  V30 6186 H 606.753 0.157403 6.10397 0
M  V30 6187 H 608.167 2.26829 5.26518 0
M  V30 6188 H 606.564 3.05326 5.1662 0
M  V30 6189 H 607.634 3.07076 3.75276 0
M  V30 6190 N 608.977 -1.30795 0.87923 0
M  V30 6191 C 609.907 -2.30742 0.357796 0
M  V30 6192 C 610.888 -1.60747 -0.556283 0
M  V30 6193 O 612.073 -1.88393 -0.47135 0
M  V30 6194 C 609.203 -3.44583 -0.433555 0
M  V30 6195 C 608.157 -4.26235 0.388251 0
M  V30 6196 C 607.483 -5.32073 -0.529352 0
M  V30 6197 C 608.783 -4.96303 1.62729 0
M  V30 6198 H 610.477 -2.74605 1.19299 0
M  V30 6199 H 608.023 -1.32017 0.575104 0
M  V30 6200 H 609.976 -4.13563 -0.808934 0
M  V30 6201 H 608.7 -2.99511 -1.30234 0
M  V30 6202 H 607.359 -3.58936 0.745695 0
M  V30 6203 H 607.007 -4.83249 -1.39569 0
M  V30 6204 H 606.707 -5.87598 0.0166741 0
M  V30 6205 H 608.231 -6.0391 -0.901373 0
M  V30 6206 H 609.645 -5.5783 1.32283 0
M  V30 6207 H 608.042 -5.61666 2.11309 0
M  V30 6208 H 609.112 -4.22758 2.37494 0
M  V30 6209 N 610.455 -0.639598 -1.44038 0
M  V30 6210 C 611.68 -0.153117 -2.06834 0
M  V30 6211 C 612.105 1.16676 -1.47541 0
M  V30 6212 O 611.463 1.71769 -0.580093 0
M  V30 6213 C 611.511 -0.0609169 -3.60549 0
M  V30 6214 O 610.615 0.98071 -4.00569 0
M  V30 6215 H 609.956 -0.0886402 -0.658057 0
M  V30 6216 H 612.486 -0.878674 -1.84771 0
M  V30 6217 H 612.496 0.126892 -4.07803 0
M  V30 6218 H 611.171 -1.0245 -4.03084 0
M  V30 6219 H 609.748 0.766789 -3.64931 0
M  V30 6220 N 611.933 1.52934 -0.380664 0
M  V30 6221 C 612.843 2.29921 0.466192 0
M  V30 6222 C 613.859 1.36488 1.07922 0
M  V30 6223 O 615.035 1.69553 1.0869 0
M  V30 6224 C 612.1 3.08468 1.58266 0
M  V30 6225 C 611.161 4.17595 0.995627 0
M  V30 6226 C 610.394 4.92387 2.05889 0
M  V30 6227 O 610.617 4.67184 3.27254 0
M  V30 6228 O 609.551 5.77949 1.68102 0
M  V30 6229 H 613.377 3.03274 -0.160735 0
M  V30 6230 H 610.962 1.48698 -0.144617 0
M  V30 6231 H 612.844 3.57469 2.23145 0
M  V30 6232 H 611.519 2.37937 2.19471 0
M  V30 6233 H 610.426 3.72811 0.310332 0
M  V30 6234 H 611.759 4.90336 0.427918 0
M  V30 6235 N 613.412 0.11024 1.57214 0
M  V30 6236 C 614.661 -0.549638 1.94067 0
M  V30 6237 C 614.974 -1.68388 0.995234 0
M  V30 6238 O 616.18 -2.40593 1.25807 0
M  V30 6239 C 614.636 -1.02912 3.44873 0
M  V30 6240 C 614.244 0.0761861 4.47935 0
M  V30 6241 C 615.988 -1.66087 3.9066 0
M  V30 6242 C 613.895 -0.419502 5.8991 0
M  V30 6243 H 612.825 -0.209092 0.724428 0
M  V30 6244 H 615.476 0.188683 1.82527 0
M  V30 6245 H 613.858 -1.82159 3.51616 0
M  V30 6246 H 615.032 0.852185 4.52851 0
M  V30 6247 H 613.347 0.614052 4.11847 0
M  V30 6248 H 615.944 -2.04272 4.94143 0
M  V30 6249 H 616.287 -2.53591 3.30148 0
M  V30 6250 H 616.82 -0.933959 3.86681 0
M  V30 6251 H 613.559 0.419277 6.54158 0
M  V30 6252 H 613.079 -1.16217 5.88433 0
M  V30 6253 H 614.758 -0.883577 6.40938 0
M  V30 6254 N 614.89 -1.56749 -0.16351 0
M  V30 6255 C 615.8 -2.00255 -1.2221 0
M  V30 6256 C 616.816 -0.915194 -1.47987 0
M  V30 6257 O 617.992 -1.22342 -1.59982 0
M  V30 6258 C 615.057 -2.36035 -2.53946 0
M  V30 6259 C 614.118 -3.58637 -2.35962 0
M  V30 6260 C 613.351 -3.92701 -3.61416 0
M  V30 6261 O 613.574 -3.27632 -4.66919 0
M  V30 6262 O 612.508 -4.86019 -3.55062 0
M  V30 6263 H 616.334 -2.90586 -0.882794 0
M  V30 6264 H 613.919 -1.44721 -0.370978 0
M  V30 6265 H 615.801 -2.59982 -3.31643 0
M  V30 6266 H 614.476 -1.48863 -2.8744 0
M  V30 6267 H 613.383 -3.39898 -1.5627 0
M  V30 6268 H 614.716 -4.46374 -2.0739 0
M  V30 6269 N 616.368 0.432326 -1.51554 0
M  V30 6270 C 617.614 1.18309 -1.64714 0
M  V30 6271 C 617.947 1.90745 -0.364696 0
M  V30 6272 O 617.222 1.8381 0.635936 0
M  V30 6273 C 617.505 2.1961 -2.85383 0
M  V30 6274 C 617.358 1.51223 -4.23617 0
M  V30 6275 C 618.677 3.20538 -3.01569 0
M  V30 6276 H 615.796 0.428751 -0.599451 0
M  V30 6277 H 618.438 0.471689 -1.84052 0
M  V30 6278 H 616.588 2.8028 -2.69027 0
M  V30 6279 H 618.26 0.938516 -4.51652 0
M  V30 6280 H 616.503 0.814501 -4.26085 0
M  V30 6281 H 617.174 2.25024 -5.04052 0
M  V30 6282 H 619.65 2.69926 -3.16669 0
M  V30 6283 H 618.526 3.88706 -3.87555 0
M  V30 6284 H 618.787 3.86933 -2.13859 0
M  V30 6285 N 617.846 1.41785 0.688094 0
M  V30 6286 C 618.809 1.43936 1.78368 0
M  V30 6287 C 619.809 0.328866 1.57401 0
M  V30 6288 O 620.999 0.589093 1.63937 0
M  V30 6289 C 618.131 1.25804 3.16838 0
M  V30 6290 H 619.324 2.41472 1.77852 0
M  V30 6291 H 616.877 1.28037 0.896448 0
M  V30 6292 H 617.612 0.291386 3.22988 0
M  V30 6293 H 617.397 2.06272 3.33458 0
M  V30 6294 H 618.887 1.30162 3.96797 0
M  V30 6295 N 619.324 -0.923095 1.27737 0
M  V30 6296 C 620.256 -2.02871 1.06658 0
M  V30 6297 C 621.269 -1.62786 0.0212095 0
M  V30 6298 O 622.458 -1.76548 0.263267 0
M  V30 6299 C 619.558 -3.33603 0.59682 0
M  V30 6300 C 618.731 -4.02354 1.71551 0
M  V30 6301 C 617.79 -5.11364 1.24071 0
M  V30 6302 O 616.816 -5.35075 1.94123 0
M  V30 6303 N 618.018 -5.80416 0.0988444 0
M  V30 6304 H 620.783 -2.21515 2.01869 0
M  V30 6305 H 618.344 -1.09378 1.19365 0
M  V30 6306 H 620.336 -4.03845 0.262984 0
M  V30 6307 H 618.906 -3.11499 -0.262187 0
M  V30 6308 H 618.126 -3.25786 2.2194 0
M  V30 6309 H 619.414 -4.45035 2.46619 0
M  V30 6310 H 618.812 -5.63611 -0.485743 0
M  V30 6311 H 617.369 -6.51563 -0.17578 0
M  V30 6312 N 620.802 -1.09834 -1.13024 0
M  V30 6313 C 621.765 -0.745058 -2.16752 0
M  V30 6314 C 622.765 0.227435 -1.59183 0
M  V30 6315 O 623.955 0.0050786 -1.74199 0
M  V30 6316 C 621.087 -0.102543 -3.40746 0
M  V30 6317 H 622.28 -1.66375 -2.49518 0
M  V30 6318 H 619.833 -0.898061 -1.27924 0
M  V30 6319 H 620.568 0.827177 -3.13573 0
M  V30 6320 H 620.353 -0.80235 -3.83803 0
M  V30 6321 H 621.843 0.129082 -4.174 0
M  V30 6322 N 622.28 1.30327 -0.886154 0
M  V30 6323 C 623.228 2.30052 -0.343317 0
M  V30 6324 C 624.222 1.60212 0.550305 0
M  V30 6325 O 625.428 1.74674 0.434609 0
M  V30 6326 H 621.803 0.746306 -0.0923681 0
M  V30 6327 H 623.774 2.73294 -1.19804 0
M  V30 6328 C 622.523 3.45079 0.426107 0
M  V30 6329 H 621.846 3.99003 -0.25227 0
M  V30 6330 H 623.286 4.16931 0.771009 0
M  V30 6331 C 621.745 2.95195 1.62363 0
M  V30 6332 O 622.275 2.95323 2.723 0
M  V30 6333 N 620.481 2.51192 1.4612 0
M  V30 6334 H 620.028 2.51286 0.566832 0
M  V30 6335 H 619.986 2.18173 2.2638 0
M  V30 6336 N 623.758 0.647228 1.43697 0
M  V30 6337 C 625.035 0.0883758 1.954 0
M  V30 6338 C 625.415 -1.39006 1.58873 0
M  V30 6339 O 624.763 -2.11255 0.87083 0
M  V30 6340 C 624.973 0.328263 3.47453 0
M  V30 6341 C 626.321 0.230009 4.23977 0
M  V30 6342 O 627.345 0.260496 3.55246 0
M  V30 6343 O 626.204 0.148615 5.46298 0
M  V30 6344 H 623.298 -0.0130683 0.826897 0
M  V30 6345 H 625.844 0.72005 1.53666 0
M  V30 6346 H 624.616 1.3535 3.67146 0
M  V30 6347 H 624.239 -0.336772 3.96171 0
M  V30 6348 N 625.236 -1.5273 0.388769 0
M  V30 6349 C 626.485 -2.00757 -0.194833 0
M  V30 6350 C 626.798 -1.27951 -1.47946 0
M  V30 6351 O 628.004 -1.66686 -2.14308 0
M  V30 6352 C 626.46 -3.57695 -0.397762 0
M  V30 6353 C 626.068 -4.394 0.873583 0
M  V30 6354 C 627.812 -4.14012 -0.937759 0
M  V30 6355 C 625.719 -5.87938 0.638962 0
M  V30 6356 H 624.649 -0.750101 -0.0765845 0
M  V30 6357 H 627.3 -1.76239 0.511086 0
M  V30 6358 H 625.682 -3.7846 -1.16552 0
M  V30 6359 H 626.856 -4.30403 1.64591 0
M  V30 6360 H 625.171 -3.94301 1.33849 0
M  V30 6361 H 627.768 -5.22645 -1.12899 0
M  V30 6362 H 628.111 -3.7007 -1.90666 0
M  V30 6363 H 628.644 -3.97137 -0.229588 0
M  V30 6364 H 625.383 -6.36202 1.57885 0
M  V30 6365 H 624.903 -5.99726 -0.094443 0
M  V30 6366 H 626.582 -6.46423 0.273299 0
M  V30 6367 N 626.714 -0.118576 -1.57153 0
M  V30 6368 C 627.963 0.539339 -1.94355 0
M  V30 6369 C 628.276 1.67858 -1.00415 0
M  V30 6370 O 629.482 2.39922 -1.27081 0
M  V30 6371 C 627.938 1.01082 -3.45414 0
M  V30 6372 C 627.546 -0.0999402 -4.47889 0
M  V30 6373 C 629.29 1.64013 -3.91535 0
M  V30 6374 C 627.197 0.388212 -5.90124 0
M  V30 6375 H 626.127 0.205247 -0.725527 0
M  V30 6376 H 628.778 -0.19836 -1.82425 0
M  V30 6377 H 627.16 1.80292 -3.52577 0
M  V30 6378 H 628.334 -0.876189 -4.52393 0
M  V30 6379 H 626.649 -0.635885 -4.11516 0
M  V30 6380 H 629.246 2.01649 -4.95219 0
M  V30 6381 H 629.589 2.51836 -3.31488 0
M  V30 6382 H 630.122 0.913439 -3.87171 0
M  V30 6383 H 626.861 -0.453963 -6.53926 0
M  V30 6384 H 626.381 1.13095 -5.89041 0
M  V30 6385 H 628.06 0.849574 -6.41398 0
M  V30 6386 N 628.193 1.56834 0.155195 0
M  V30 6387 C 629.418 1.87412 0.888337 0
M  V30 6388 C 629.843 0.70671 1.74319 0
M  V30 6389 O 629.201 -0.343892 1.78009 0
M  V30 6390 C 629.249 3.1652 1.72765 0
M  V30 6391 O 628.353 2.99877 2.83103 0
M  V30 6392 H 627.694 0.615983 0.247914 0
M  V30 6393 H 630.224 2.04061 0.148478 0
M  V30 6394 H 630.234 3.48334 2.12433 0
M  V30 6395 H 628.909 4.01094 1.09985 0
M  V30 6396 H 627.486 2.79453 2.46902 0
M  V30 6397 N 629.671 -0.424282 1.51781 0
M  V30 6398 C 630.896 -1.19928 1.6921 0
M  V30 6399 C 631.321 -1.8392 0.394355 0
M  V30 6400 O 630.679 -1.69371 -0.646778 0
M  V30 6401 C 630.727 -2.24937 2.81843 0
M  V30 6402 O 629.831 -3.3073 2.46356 0
M  V30 6403 H 629.172 -0.35078 0.563781 0
M  V30 6404 H 631.702 -0.499401 1.98412 0
M  V30 6405 H 631.712 -2.69512 3.06312 0
M  V30 6406 H 630.387 -1.77742 3.76006 0
M  V30 6407 H 628.964 -2.9154 2.32505 0
M  V30 6408 N 631.149 -1.42148 -0.680565 0
M  V30 6409 C 632.377 -1.45696 -1.46902 0
M  V30 6410 C 632.792 -0.0665858 -1.88683 0
M  V30 6411 O 632.149 0.917436 -1.57764 0
M  V30 6412 C 632.2 -2.37898 -2.72188 0
M  V30 6413 O 631.921 -3.71526 -2.32163 0
M  V30 6414 C 633.422 -2.50407 -3.65802 0
M  V30 6415 H 630.642 -0.495729 -0.45221 0
M  V30 6416 H 633.186 -1.866 -0.836709 0
M  V30 6417 H 631.341 -2.00263 -3.31622 0
M  V30 6418 H 631.755 -4.20849 -3.13027 0
M  V30 6419 H 633.229 -3.19056 -4.50452 0
M  V30 6420 H 633.706 -1.5401 -4.11312 0
M  V30 6421 H 634.312 -2.8874 -3.12265 0
M  V30 6422 N 632.627 0.916307 -1.28225 0
M  V30 6423 C 633.537 2.05165 -1.13775 0
M  V30 6424 C 634.553 1.73879 -0.0649418 0
M  V30 6425 O 635.729 1.99531 -0.273722 0
M  V30 6426 C 632.794 3.37385 -0.798267 0
M  V30 6427 C 631.855 3.82296 -1.95316 0
M  V30 6428 C 631.088 5.08206 -1.62978 0
M  V30 6429 O 631.311 5.6781 -0.542948 0
M  V30 6430 O 630.245 5.48768 -2.47261 0
M  V30 6431 H 634.071 2.20273 -2.09078 0
M  V30 6432 H 631.656 1.0373 -1.07519 0
M  V30 6433 H 633.538 4.16773 -0.62278 0
M  V30 6434 H 632.213 3.23458 0.125139 0
M  V30 6435 H 631.12 3.03746 -2.18378 0
M  V30 6436 H 632.453 4.00782 -2.85718 0
M  V30 6437 N 634.105 1.10431 1.1244 0
M  V30 6438 C 635.354 0.841539 1.83306 0
M  V30 6439 C 635.667 -0.634961 1.85007 0
M  V30 6440 O 636.873 -1.01363 2.51869 0
M  V30 6441 C 635.329 1.45565 3.29149 0
M  V30 6442 C 634.937 2.96544 3.35806 0
M  V30 6443 C 636.681 1.27227 4.04986 0
M  V30 6444 C 634.588 3.5099 4.75983 0
M  V30 6445 H 633.518 0.311156 0.686803 0
M  V30 6446 H 636.169 1.32829 1.26604 0
M  V30 6447 H 634.551 0.896574 3.85717 0
M  V30 6448 H 635.725 3.58766 2.89177 0
M  V30 6449 H 634.04 3.14036 2.73442 0
M  V30 6450 H 636.637 1.65348 5.08492 0
M  V30 6451 H 636.98 0.213834 4.1575 0
M  V30 6452 H 637.513 1.79941 3.54776 0
M  V30 6453 H 634.252 4.56499 4.70413 0
M  V30 6454 H 633.772 2.93535 5.23065 0
M  V30 6455 H 635.451 3.48808 5.44924 0
M  V30 6456 N 635.583 -1.29855 0.893053 0
M  V30 6457 C 636.808 -2.00512 0.530066 0
M  V30 6458 C 637.233 -1.66446 -0.876199 0
M  V30 6459 O 636.591 -0.885446 -1.58207 0
M  V30 6460 C 636.639 -3.53308 0.721505 0
M  V30 6461 O 635.743 -4.11764 -0.228994 0
M  V30 6462 H 635.084 -0.630617 0.207891 0
M  V30 6463 H 637.614 -1.6551 1.20282 0
M  V30 6464 H 637.624 -4.03206 0.623599 0
M  V30 6465 H 636.299 -3.77439 1.74678 0
M  V30 6466 H 634.876 -3.72805 -0.0841034 0
M  V30 6467 N 637.061 -0.65484 -1.43351 0
M  V30 6468 C 638.286 -0.175046 -2.0666 0
M  V30 6469 C 638.711 1.15104 -1.4877 0
M  V30 6470 O 638.069 1.71144 -0.598279 0
M  V30 6471 C 638.117 -0.0991544 -3.60464 0
M  V30 6472 O 637.221 0.938169 -4.01587 0
M  V30 6473 H 636.562 -0.0956148 -0.65708 0
M  V30 6474 H 639.092 -0.898222 -1.83829 0
M  V30 6475 H 639.102 0.083632 -4.07914 0
M  V30 6476 H 637.777 -1.06719 -4.01975 0
M  V30 6477 H 636.354 0.72804 -3.65724 0
M  V30 6478 N 638.539 1.52521 -0.396863 0
M  V30 6479 C 639.502 2.2527 0.422604 0
M  V30 6480 C 640.502 1.27184 0.983913 0
M  V30 6481 O 641.692 1.51222 0.864723 0
M  V30 6482 C 638.824 3.01356 1.59365 0
M  V30 6483 H 640.017 2.99133 -0.214416 0
M  V30 6484 H 637.57 1.55587 -0.149128 0
M  V30 6485 H 638.305 2.31813 2.26789 0
M  V30 6486 H 638.09 3.73357 1.19779 0
M  V30 6487 H 639.58 3.56571 2.17363 0
M  V30 6488 N 640.017 0.126909 1.57088 0
M  V30 6489 C 640.927 -0.833867 2.1928 0
M  V30 6490 C 641.943 -1.2868 1.17122 0
M  V30 6491 O 643.119 -1.34815 1.49622 0
M  V30 6492 C 640.184 -2.0632 2.78627 0
M  V30 6493 C 639.245 -1.66143 3.95847 0
M  V30 6494 C 638.478 -2.83217 4.52354 0
M  V30 6495 O 638.701 -3.98868 4.0775 0
M  V30 6496 O 637.635 -2.59846 5.42922 0
M  V30 6497 H 641.461 -0.334564 3.01852 0
M  V30 6498 H 639.046 -0.0991091 1.49071 0
M  V30 6499 H 640.928 -2.78304 3.16425 0
M  V30 6500 H 639.603 -2.55242 1.99082 0
M  V30 6501 H 638.51 -0.912435 3.62802 0
M  V30 6502 H 639.843 -1.21957 4.76852 0
M  V30 6503 N 641.495 -1.56914 -0.146875 0
M  V30 6504 C 642.442 -1.98275 -1.18134 0
M  V30 6505 C 643.412 -0.850367 -1.42681 0
M  V30 6506 O 644.597 -1.11244 -1.55014 0
M  V30 6507 C 641.737 -2.36861 -2.5098 0
M  V30 6508 C 640.85 -3.63391 -2.33605 0
M  V30 6509 C 639.985 -3.91079 -3.59486 0
M  V30 6510 C 639.024 -5.10879 -3.37149 0
M  V30 6511 N 638.161 -5.34577 -4.55161 0
M  V30 6512 H 643.001 -2.8645 -0.821622 0
M  V30 6513 H 640.538 -1.41718 -0.394248 0
M  V30 6514 H 642.496 -2.57262 -3.28439 0
M  V30 6515 H 641.126 -1.51766 -2.84898 0
M  V30 6516 H 640.178 -3.50766 -1.47199 0
M  V30 6517 H 641.49 -4.51007 -2.13059 0
M  V30 6518 H 640.644 -4.11979 -4.45374 0
M  V30 6519 H 639.383 -3.01885 -3.83036 0
M  V30 6520 H 638.388 -4.89853 -2.49649 0
M  V30 6521 H 639.613 -6.01626 -3.14997 0
M  V30 6522 H 637.559 -4.48337 -4.78884 0
M  V30 6523 H 637.476 -6.16463 -4.37618 0
M  V30 6524 H 638.744 -5.59975 -5.42263 0
M  V30 6525 N 642.974 0.416227 -1.52004 0
M  V30 6526 C 644.22 1.16555 -1.6596 0
M  V30 6527 C 644.553 1.90347 -0.384906 0
M  V30 6528 O 643.828 1.84474 0.616405 0
M  V30 6529 C 644.111 2.1657 -2.87696 0
M  V30 6530 C 643.964 1.46722 -4.25197 0
M  V30 6531 C 645.283 3.17321 -3.04951 0
M  V30 6532 H 642.402 0.422369 -0.603965 0
M  V30 6533 H 645.044 0.452141 -1.84542 0
M  V30 6534 H 643.194 2.77411 -2.71985 0
M  V30 6535 H 644.866 0.89056 -4.52622 0
M  V30 6536 H 643.109 0.769263 -4.26925 0
M  V30 6537 H 643.78 2.19665 -5.0641 0
M  V30 6538 H 646.256 2.66552 -3.19514 0
M  V30 6539 H 645.132 3.84573 -3.91656 0
M  V30 6540 H 645.393 3.84643 -2.17951 0
M  V30 6541 N 644.452 1.42507 0.673017 0
M  V30 6542 C 645.415 1.4582 1.76831 0
M  V30 6543 C 646.415 0.345542 1.57043 0
M  V30 6544 O 647.605 0.606447 1.63303 0
M  V30 6545 C 644.737 1.29158 3.15485 0
M  V30 6546 H 645.93 2.43345 1.7528 0
M  V30 6547 H 643.483 1.28981 0.882817 0
M  V30 6548 H 644.218 0.325626 3.22661 0
M  V30 6549 H 644.003 2.09797 3.31252 0
M  V30 6550 H 645.493 1.34363 3.95394 0
M  V30 6551 N 645.93 -0.909495 1.28709 0
M  V30 6552 C 646.86 -2.0291 1.15542 0
M  V30 6553 C 647.841 -1.7002 0.0521017 0
M  V30 6554 O 649.026 -1.92835 0.229849 0
M  V30 6555 C 646.156 -3.37458 0.820935 0
M  V30 6556 C 645.11 -3.84524 1.87949 0
M  V30 6557 C 644.436 -5.16086 1.39854 0
M  V30 6558 C 645.736 -4.05918 3.28676 0
M  V30 6559 H 647.43 -2.14183 2.09203 0
M  V30 6560 H 644.976 -1.02913 1.00722 0
M  V30 6561 H 646.929 -4.1528 0.715571 0
M  V30 6562 H 645.653 -3.26249 -0.151374 0
M  V30 6563 H 644.312 -3.08911 1.97408 0
M  V30 6564 H 643.96 -5.01284 0.41518 0
M  V30 6565 H 643.66 -5.48547 2.1064 0
M  V30 6566 H 645.184 -5.96459 1.30649 0
M  V30 6567 H 646.598 -4.74252 3.22115 0
M  V30 6568 H 644.995 -4.49717 3.97334 0
M  V30 6569 H 646.065 -3.10583 3.72379 0
M  V30 6570 N 647.408 -1.11026 -1.11852 0
M  V30 6571 C 648.633 -0.879064 -1.87849 0
M  V30 6572 C 649.058 0.565406 -1.79401 0
M  V30 6573 O 648.416 1.39886 -1.15333 0
M  V30 6574 C 648.464 -1.33985 -3.34784 0
M  V30 6575 O 647.568 -0.508803 -4.09249 0
M  V30 6576 H 646.909 -0.316992 -0.583448 0
M  V30 6577 H 649.439 -1.47863 -1.41413 0
M  V30 6578 H 649.449 -1.33248 -3.85628 0
M  V30 6579 H 648.124 -2.39172 -3.40249 0
M  V30 6580 H 646.701 -0.581913 -3.68332 0
M  V30 6581 N 648.886 1.2938 -0.899927 0
M  V30 6582 C 650.111 2.00228 -0.540692 0
M  V30 6583 C 650.536 1.66909 0.867359 0
M  V30 6584 O 649.894 0.893824 1.57735 0
M  V30 6585 C 649.942 3.52921 -0.740232 0
M  V30 6586 O 649.046 4.11879 0.207154 0
M  V30 6587 H 648.387 0.629505 -0.211233 0
M  V30 6588 H 650.917 1.6487 -1.21158 0
M  V30 6589 H 650.927 4.0287 -0.644973 0
M  V30 6590 H 649.602 3.76508 -1.76677 0
M  V30 6591 H 648.179 3.72845 0.0643315 0
M  V30 6592 N 650.364 0.662433 1.43002 0
M  V30 6593 C 651.274 -0.0239199 2.34588 0
M  V30 6594 C 652.29 -0.802255 1.54402 0
M  V30 6595 O 653.466 -0.747401 1.87018 0
M  V30 6596 C 650.531 -0.972098 3.32793 0
M  V30 6597 C 649.592 -0.189673 4.28881 0
M  V30 6598 C 648.825 -1.09269 5.22395 0
M  V30 6599 O 649.048 -2.33209 5.20547 0
M  V30 6600 O 647.982 -0.560136 5.99288 0
M  V30 6601 H 651.808 0.730171 2.94792 0
M  V30 6602 H 649.393 0.422635 1.43297 0
M  V30 6603 H 651.275 -1.51676 3.93157 0
M  V30 6604 H 649.95 -1.70626 2.75079 0
M  V30 6605 H 648.857 0.398794 3.71968 0
M  V30 6606 H 650.19 0.50511 4.89601 0
M  V30 6607 N 651.842 -1.52309 0.404946 0
M  V30 6608 C 653.07 -2.06185 -0.171818 0
M  V30 6609 C 653.485 -1.27536 -1.39212 0
M  V30 6610 O 652.842 -0.326112 -1.79563 0
M  V30 6611 C 652.893 -3.57647 -0.526417 0
M  V30 6612 O 652.614 -4.3332 0.645417 0
M  V30 6613 C 654.115 -4.27925 -1.15736 0
M  V30 6614 H 651.335 -0.670632 -0.0222328 0
M  V30 6615 H 653.879 -1.96259 0.574692 0
M  V30 6616 H 652.034 -3.67595 -1.22282 0
M  V30 6617 H 652.448 -5.23328 0.35042 0
M  V30 6618 H 653.922 -5.35093 -1.35572 0
M  V30 6619 H 654.399 -3.84134 -2.12926 0
M  V30 6620 H 655.005 -4.22335 -0.501281 0
M  V30 6621 N 653.32 -0.135238 -1.57019 0
M  V30 6622 C 654.23 0.822226 -2.19719 0
M  V30 6623 C 655.246 1.28057 -1.17802 0
M  V30 6624 O 656.422 1.3402 -1.50335 0
M  V30 6625 C 653.487 2.0484 -2.79717 0
M  V30 6626 C 652.548 1.64042 -3.96723 0
M  V30 6627 C 651.781 2.80814 -4.53849 0
M  V30 6628 O 652.004 3.967 -4.0986 0
M  V30 6629 O 650.938 2.56963 -5.44292 0
M  V30 6630 H 654.764 0.318552 -3.02025 0
M  V30 6631 H 652.349 0.0912021 -1.49121 0
M  V30 6632 H 654.231 2.76622 -3.17897 0
M  V30 6633 H 652.906 2.54182 -2.00432 0
M  V30 6634 H 651.813 0.893182 -3.63281 0
M  V30 6635 H 653.146 1.19426 -4.77492 0
M  V30 6636 N 654.798 1.5699 0.138552 0
M  V30 6637 C 656.044 1.84081 0.85099 0
M  V30 6638 C 656.377 0.718107 1.80435 0
M  V30 6639 O 655.652 -0.277633 1.92508 0
M  V30 6640 C 655.935 3.21699 1.61808 0
M  V30 6641 C 655.788 4.44544 0.685633 0
M  V30 6642 C 657.107 3.5664 2.57868 0
M  V30 6643 H 654.226 0.669592 0.307922 0
M  V30 6644 H 656.868 1.89646 0.11588 0
M  V30 6645 H 655.018 3.17086 2.24474 0
M  V30 6646 H 656.69 4.61248 0.0693179 0
M  V30 6647 H 654.933 4.338 -0.00421993 0
M  V30 6648 H 655.604 5.3746 1.25858 0
M  V30 6649 H 658.08 3.61918 2.05316 0
M  V30 6650 H 656.956 4.53946 3.08584 0
M  V30 6651 H 657.217 2.83036 3.39622 0
M  V30 6652 N 656.276 -0.40816 1.52223 0
M  V30 6653 C 657.239 -1.48 1.7501 0
M  V30 6654 C 658.239 -1.48367 0.619996 0
M  V30 6655 O 659.429 -1.49874 0.887881 0
M  V30 6656 C 656.561 -2.87403 1.83336 0
M  V30 6657 H 657.754 -1.29086 2.70697 0
M  V30 6658 H 655.307 -0.638715 1.42654 0
M  V30 6659 H 656.042 -3.11686 0.895677 0
M  V30 6660 H 655.827 -2.8854 2.65494 0
M  V30 6661 H 657.317 -3.65103 2.02705 0
M  V30 6662 N 657.755 -1.42862 -0.66545 0
M  V30 6663 C 658.685 -1.49867 -1.79059 0
M  V30 6664 C 659.666 -0.354394 -1.66367 0
M  V30 6665 O 660.851 -0.569969 -1.85647 0
M  V30 6666 C 657.981 -1.40943 -3.17415 0
M  V30 6667 C 656.935 -2.53495 -3.44854 0
M  V30 6668 C 656.261 -2.29626 -4.82883 0
M  V30 6669 C 657.561 -3.95781 -3.40815 0
M  V30 6670 H 659.255 -2.44037 -1.73453 0
M  V30 6671 H 656.801 -1.17456 -0.833071 0
M  V30 6672 H 658.754 -1.4445 -3.95869 0
M  V30 6673 H 657.478 -0.432716 -3.23721 0
M  V30 6674 H 656.137 -2.4932 -2.68766 0
M  V30 6675 H 655.785 -1.30226 -4.8585 0
M  V30 6676 H 655.485 -3.05065 -5.02204 0
M  V30 6677 H 657.009 -2.34897 -5.63609 0
M  V30 6678 H 658.423 -4.01508 -4.09224 0
M  V30 6679 H 656.82 -4.71148 -3.71672 0
M  V30 6680 H 657.89 -4.21786 -2.39216 0
M  V30 6681 N 659.233 0.902656 -1.29189 0
M  V30 6682 C 660.196 1.98797 -1.14071 0
M  V30 6683 C 661.196 1.60615 -0.0770549 0
M  V30 6684 O 662.386 1.71165 -0.323753 0
M  V30 6685 C 659.518 3.32688 -0.743739 0
M  V30 6686 H 660.711 2.13637 -2.10473 0
M  V30 6687 H 658.264 1.08678 -1.12334 0
M  V30 6688 H 658.999 3.23549 0.220554 0
M  V30 6689 H 658.784 3.61765 -1.51223 0
M  V30 6690 H 660.274 4.12337 -0.660935 0
M  V30 6691 N 660.711 1.11618 1.11262 0
M  V30 6692 C 662.127 0.850468 1.35053 0
M  V30 6693 C 662.327 -0.523868 1.94571 0
M  V30 6694 O 661.383 -1.2743 2.17986 0
M  V30 6695 C 662.696 1.96005 2.28041 0
M  V30 6696 C 664.244 1.98993 2.416 0
M  V30 6697 C 664.719 3.0916 3.37911 0
M  V30 6698 N 666.21 3.08547 3.45475 0
M  V30 6699 C 666.945 3.9043 4.19943 0
M  V30 6700 N 666.441 4.8228 4.97371 0
M  V30 6701 N 668.234 3.786 4.15474 0
M  V30 6702 H 660.385 2.00184 0.709932 0
M  V30 6703 H 662.648 0.870635 0.375099 0
M  V30 6704 H 662.354 2.9499 1.91503 0
M  V30 6705 H 662.228 1.85782 3.28275 0
M  V30 6706 H 664.615 1.00633 2.77411 0
M  V30 6707 H 664.696 2.13292 1.4121 0
M  V30 6708 H 664.34 4.07748 3.02827 0
M  V30 6709 H 664.27 2.92102 4.3816 0
M  V30 6710 H 666.761 2.42 2.90249 0
M  V30 6711 H 667.074 5.41289 5.51567 0
M  V30 6712 H 665.419 4.863 4.96525 0
M  V30 6713 H 668.61 3.06185 3.54074 0
M  V30 6714 H 668.783 4.42647 4.73253 0
M  V30 6715 N 662.189 -1.289 0.906776 0
M  V30 6716 C 663.466 -1.90221 0.455537 0
M  V30 6717 C 663.846 -1.82251 -1.06527 0
M  V30 6718 O 663.194 -1.25385 -1.91026 0
M  V30 6719 C 663.404 -3.35015 0.97806 0
M  V30 6720 C 664.752 -4.12018 1.02598 0
M  V30 6721 O 665.776 -3.43947 0.926218 0
M  V30 6722 O 664.635 -5.33677 1.17689 0
M  V30 6723 H 661.729 -0.814505 0.143214 0
M  V30 6724 H 664.275 -1.37317 0.997104 0
M  V30 6725 H 663.047 -3.35006 2.02204 0
M  V30 6726 H 662.67 -3.95408 0.416914 0
M  V30 6727 N 663.667 -0.670007 -1.42649 0
M  V30 6728 C 664.6 0.0613623 -2.28117 0
M  V30 6729 C 665.578 0.813414 -1.40792 0
M  V30 6730 O 666.762 0.809529 -1.70232 0
M  V30 6731 C 663.889 1.09399 -3.20546 0
M  V30 6732 C 662.935 0.438064 -4.24244 0
M  V30 6733 S 663.768 -0.800808 -5.29478 0
M  V30 6734 C 664.924 0.23086 -6.25474 0
M  V30 6735 H 665.157 -0.663606 -2.89799 0
M  V30 6736 H 662.69 -0.45939 -1.47407 0
M  V30 6737 H 664.648 1.68469 -3.74337 0
M  V30 6738 H 663.309 1.79137 -2.58009 0
M  V30 6739 H 662.502 1.21707 -4.89084 0
M  V30 6740 H 662.104 -0.0789346 -3.73917 0
M  V30 6741 H 664.396 1.09204 -6.68641 0
M  V30 6742 H 665.339 -0.382945 -7.07064 0
M  V30 6743 H 665.747 0.574191 -5.61572 0
M  V30 6744 N 665.145 1.52092 -0.413018 0
M  V30 6745 C 666.373 2.06274 0.160881 0
M  V30 6746 C 666.788 1.28273 1.38533 0
M  V30 6747 O 666.145 0.33563 1.79387 0
M  V30 6748 C 666.196 3.57921 0.507443 0
M  V30 6749 O 665.917 4.32971 -0.668388 0
M  V30 6750 C 667.418 4.28533 1.13465 0
M  V30 6751 H 664.638 0.67074 0.0186759 0
M  V30 6752 H 667.182 1.95951 -0.585092 0
M  V30 6753 H 665.337 3.68238 1.20331 0
M  V30 6754 H 665.751 5.23135 -0.378169 0
M  V30 6755 H 667.225 5.35804 1.32732 0
M  V30 6756 H 667.702 3.85258 2.10886 0
M  V30 6757 H 668.308 4.22595 0.478876 0
M  V30 6758 N 666.623 0.143563 1.56945 0
M  V30 6759 C 667.553 -0.7936 2.196 0
M  V30 6760 C 668.534 -1.25955 1.14321 0
M  V30 6761 O 669.719 -1.31773 1.42651 0
M  V30 6762 C 666.849 -2.03424 2.81489 0
M  V30 6763 C 665.803 -1.70519 3.92565 0
M  V30 6764 C 665.129 -3.01817 4.41373 0
M  V30 6765 C 666.429 -0.95449 5.13504 0
M  V30 6766 H 668.123 -0.271423 2.98167 0
M  V30 6767 H 665.669 -0.12911 1.4342 0
M  V30 6768 H 667.622 -2.69463 3.23987 0
M  V30 6769 H 666.346 -2.58008 2.00248 0
M  V30 6770 H 665.005 -1.06859 3.5068 0
M  V30 6771 H 664.653 -3.54386 3.56959 0
M  V30 6772 H 664.353 -2.80565 5.16292 0
M  V30 6773 H 665.877 -3.68934 4.86539 0
M  V30 6774 H 667.291 -1.5169 5.52868 0
M  V30 6775 H 665.688 -0.842035 5.94163 0
M  V30 6776 H 666.758 0.0544033 4.84869 0
M  V30 6777 N 668.101 -1.57061 -0.130224 0
M  V30 6778 C 669.512 -1.73539 -0.68856 0
M  V30 6779 C 669.863 -0.760554 -1.80859 0
M  V30 6780 O 668.988 0.0690796 -2.1629 0
M  V30 6781 C 669.583 -3.14666 -1.25581 0
M  V30 6782 C 668.142 -3.32689 -1.76055 0
M  V30 6783 C 667.289 -2.69436 -0.655712 0
M  V30 6784 H 670.24 -1.58412 0.0956002 0
M  V30 6785 H 670.261 -3.15595 -2.12556 0
M  V30 6786 H 669.773 -3.85593 -0.440412 0
M  V30 6787 H 667.874 -2.66786 -2.60108 0
M  V30 6788 H 667.987 -4.4077 -1.87772 0
M  V30 6789 H 666.351 -2.30362 -1.08654 0
M  V30 6790 H 667.134 -3.42979 0.14852 0
M  V30 6791 N 669.579 0.400081 -1.52437 0
M  V30 6792 C 670.99 0.97851 -1.59003 0
M  V30 6793 C 671.341 1.91293 -0.436068 0
M  V30 6794 O 670.466 2.1183 0.442365 0
M  V30 6795 C 671.061 1.78145 -2.88184 0
M  V30 6796 C 669.62 2.30976 -2.97199 0
M  V30 6797 C 668.767 1.11212 -2.54022 0
M  V30 6798 H 671.718 0.180002 -1.57676 0
M  V30 6799 H 671.739 2.63968 -2.74046 0
M  V30 6800 H 671.251 1.1011 -3.72152 0
M  V30 6801 H 669.352 3.02355 -2.17744 0
M  V30 6802 H 669.465 2.61221 -4.01622 0
M  V30 6803 H 667.829 1.46882 -2.08081 0
M  V30 6804 H 668.612 0.447307 -3.40373 0
M  V30 6805 N 671.057 1.43213 0.657864 0
M  V30 6806 C 671.967 1.50448 1.80007 0
M  V30 6807 C 672.983 0.39191 1.69529 0
M  V30 6808 O 674.159 0.645349 1.90781 0
M  V30 6809 C 671.224 1.42062 3.16258 0
M  V30 6810 C 670.285 2.63951 3.38568 0
M  V30 6811 C 669.518 2.55956 4.68318 0
M  V30 6812 O 669.741 1.60473 5.47361 0
M  V30 6813 O 668.675 3.46378 4.92245 0
M  V30 6814 H 672.501 2.4689 1.76858 0
M  V30 6815 H 670.086 1.25163 0.81576 0
M  V30 6816 H 671.968 1.3981 3.97531 0
M  V30 6817 H 670.643 0.487524 3.20008 0
M  V30 6818 H 669.55 2.71776 2.57077 0
M  V30 6819 H 670.883 3.56217 3.39662 0
M  V30 6820 N 672.536 -0.895792 1.29666 0
M  V30 6821 C 673.764 -1.68001 1.20761 0
M  V30 6822 C 674.179 -1.87379 -0.231187 0
M  V30 6823 O 673.536 -1.41359 -1.15429 0
M  V30 6824 C 673.587 -3.06236 1.92098 0
M  V30 6825 O 673.308 -2.8774 3.30359 0
M  V30 6826 C 674.809 -4.00652 1.89717 0
M  V30 6827 H 672.029 -0.524591 0.418384 0
M  V30 6828 H 674.573 -1.11995 1.71106 0
M  V30 6829 H 672.728 -3.59007 1.45578 0
M  V30 6830 H 673.142 -3.75359 3.66342 0
M  V30 6831 H 674.616 -4.95051 2.44189 0
M  V30 6832 H 675.093 -4.30424 0.873595 0
M  V30 6833 H 675.699 -3.53815 2.35998 0
M  V30 6834 N 674.014 -1.12206 -1.10668 0
M  V30 6835 C 674.962 -0.782918 -2.19028 0
M  V30 6836 C 675.956 0.229175 -1.67843 0
M  V30 6837 O 677.162 0.0876295 -1.79787 0
M  V30 6838 H 673.537 -0.235339 -0.714227 0
M  V30 6839 H 675.508 -1.70527 -2.44874 0
M  V30 6840 C 674.257 -0.25116 -3.46792 0
M  V30 6841 H 673.58 -1.02123 -3.86537 0
M  V30 6842 H 675.02 -0.0521409 -4.23968 0
M  V30 6843 C 673.479 1.02037 -3.21076 0
M  V30 6844 O 674.009 2.09862 -3.42522 0
M  V30 6845 N 672.215 0.946348 -2.74759 0
M  V30 6846 H 671.762 0.068777 -2.57508 0
M  V30 6847 H 671.72 1.79775 -2.57931 0
M  V30 6848 N 675.492 1.28418 -0.913599 0
M  V30 6849 C 676.738 1.9527 -0.547484 0
M  V30 6850 C 677.071 1.71745 0.906486 0
M  V30 6851 O 676.346 1.03834 1.64465 0
M  V30 6852 C 676.629 3.49748 -0.857205 0
M  V30 6853 C 676.482 3.82675 -2.3639 0
M  V30 6854 C 677.801 4.3868 -0.353258 0
M  V30 6855 H 674.92 0.709236 -0.200381 0
M  V30 6856 H 677.562 1.51789 -1.14281 0
M  V30 6857 H 675.712 3.86915 -0.350548 0
M  V30 6858 H 677.384 3.55378 -2.94116 0
M  V30 6859 H 675.627 3.29724 -2.81894 0
M  V30 6860 H 676.298 4.90547 -2.53115 0
M  V30 6861 H 678.774 4.08584 -0.787288 0
M  V30 6862 H 677.65 5.45621 -0.599049 0
M  V30 6863 H 677.911 4.35753 0.746413 0
M  V30 6864 N 676.97 0.677563 1.42291 0
M  V30 6865 C 678.219 0.198173 2.00724 0
M  V30 6866 C 678.532 -1.20325 1.54211 0
M  V30 6867 O 679.738 -1.77916 2.05081 0
M  V30 6868 C 678.194 0.303432 3.58619 0
M  V30 6869 C 677.802 1.70909 4.14119 0
M  V30 6870 C 679.546 -0.117103 4.24338 0
M  V30 6871 C 677.453 1.76696 5.64387 0
M  V30 6872 H 676.383 0.070329 0.750713 0
M  V30 6873 H 679.034 0.843147 1.62982 0
M  V30 6874 H 677.416 -0.409482 3.93877 0
M  V30 6875 H 678.59 2.44931 3.90315 0
M  V30 6876 H 676.905 2.07771 3.6086 0
M  V30 6877 H 679.502 -0.0940471 5.34617 0
M  V30 6878 H 679.845 -1.15283 4.00019 0
M  V30 6879 H 680.378 0.5449 3.9405 0
M  V30 6880 H 677.117 2.7826 5.93508 0
M  V30 6881 H 676.637 1.07034 5.90173 0
M  V30 6882 H 678.316 1.52166 6.28852 0
M  V30 6883 N 678.448 -1.51871 0.421078 0
M  V30 6884 C 679.378 -2.30231 -0.389363 0
M  V30 6885 C 680.359 -1.34946 -1.03555 0
M  V30 6886 O 681.544 -1.63859 -1.04229 0
M  V30 6887 C 678.674 -3.13247 -1.49979 0
M  V30 6888 C 677.628 -4.16677 -0.977966 0
M  V30 6889 C 676.954 -4.88112 -2.1829 0
M  V30 6890 C 678.254 -5.22295 -0.0236775 0
M  V30 6891 H 679.948 -2.98229 0.264524 0
M  V30 6892 H 677.494 -1.43424 0.12866 0
M  V30 6893 H 679.447 -3.66838 -2.07383 0
M  V30 6894 H 678.171 -2.4304 -2.18173 0
M  V30 6895 H 676.83 -3.64114 -0.426245 0
M  V30 6896 H 676.478 -4.14423 -2.85066 0
M  V30 6897 H 676.178 -5.58041 -1.84021 0
M  V30 6898 H 677.702 -5.44521 -2.76278 0
M  V30 6899 H 679.116 -5.71055 -0.506899 0
M  V30 6900 H 677.513 -5.99656 0.230782 0
M  V30 6901 H 678.583 -4.76131 0.917999 0
M  V30 6902 N 679.926 -0.151884 -1.56866 0
M  V30 6903 C 681.154 0.504813 -2.00647 0
M  V30 6904 C 681.569 1.58098 -1.03201 0
M  V30 6905 O 680.926 1.82476 -0.0297814 0
M  V30 6906 C 680.977 1.10099 -3.44326 0
M  V30 6907 O 680.698 0.0678021 -4.38048 0
M  V30 6908 C 682.199 1.83782 -4.03409 0
M  V30 6909 H 679.419 0.130989 -0.65809 0
M  V30 6910 H 681.963 -0.247903 -2.02992 0
M  V30 6911 H 680.118 1.8043 -3.42817 0
M  V30 6912 H 680.532 0.505237 -5.22061 0
M  V30 6913 H 682.006 2.2078 -5.05925 0
M  V30 6914 H 682.483 2.72557 -3.44397 0
M  V30 6915 H 683.089 1.18138 -4.08563 0
M  V30 6916 N 681.404 1.57128 0.121893 0
M  V30 6917 C 682.351 2.0013 1.14964 0
M  V30 6918 C 683.321 0.872959 1.4131 0
M  V30 6919 O 684.506 1.13696 1.53225 0
M  V30 6920 C 681.646 2.40824 2.4718 0
M  V30 6921 C 680.759 3.67061 2.27794 0
M  V30 6922 C 679.894 3.96749 3.53219 0
M  V30 6923 C 678.933 5.16178 3.28978 0
M  V30 6924 N 678.07 5.41751 4.46599 0
M  V30 6925 H 682.91 2.8772 0.775947 0
M  V30 6926 H 680.447 1.42328 0.371652 0
M  V30 6927 H 682.405 2.62454 3.24305 0
M  V30 6928 H 681.035 1.56279 2.82448 0
M  V30 6929 H 680.087 3.53063 1.416 0
M  V30 6930 H 681.399 4.5434 2.05857 0
M  V30 6931 H 680.553 4.19012 4.38764 0
M  V30 6932 H 679.292 3.07941 3.78185 0
M  V30 6933 H 678.297 4.93762 2.41824 0
M  V30 6934 H 679.522 6.06561 3.05386 0
M  V30 6935 H 677.468 4.55899 4.71691 0
M  V30 6936 H 677.385 6.23347 4.27756 0
M  V30 6937 H 678.653 5.68531 5.33285 0
M  V30 6938 N 682.882 -0.391992 1.52647 0
M  V30 6939 C 684.159 -1.15136 1.58123 0
M  V30 6940 C 684.539 -2.07786 0.372597 0
M  V30 6941 O 683.887 -2.19374 -0.639304 0
M  V30 6942 C 684.097 -1.91367 2.91856 0
M  V30 6943 C 685.445 -2.46833 3.45483 0
M  V30 6944 O 686.469 -2.01527 2.9371 0
M  V30 6945 O 685.328 -3.29587 4.3593 0
M  V30 6946 H 682.422 -0.526649 0.637629 0
M  V30 6947 H 684.968 -0.397386 1.64982 0
M  V30 6948 H 683.74 -1.23597 3.71268 0
M  V30 6949 H 683.363 -2.73732 2.88369 0
M  V30 6950 N 684.36 -1.4356 -0.65026 0
M  V30 6951 C 685.307 -1.48948 -1.76304 0
M  V30 6952 C 686.277 -0.338919 -1.62605 0
M  V30 6953 O 687.462 -0.54649 -1.82806 0
M  V30 6954 C 684.602 -1.42131 -3.14472 0
M  V30 6955 C 683.715 -2.67415 -3.39284 0
M  V30 6956 C 682.85 -2.52565 -4.67316 0
M  V30 6957 C 681.889 -3.73103 -4.85243 0
M  V30 6958 N 681.026 -3.57046 -6.04535 0
M  V30 6959 H 685.866 -2.44032 -1.71034 0
M  V30 6960 H 683.403 -1.21131 -0.834601 0
M  V30 6961 H 685.361 -1.36172 -3.94351 0
M  V30 6962 H 683.991 -0.506273 -3.18805 0
M  V30 6963 H 683.043 -2.8364 -2.53481 0
M  V30 6964 H 684.355 -3.56943 -3.48415 0
M  V30 6965 H 683.509 -2.44331 -5.55326 0
M  V30 6966 H 682.248 -1.60566 -4.60511 0
M  V30 6967 H 681.253 -3.81743 -3.95667 0
M  V30 6968 H 682.478 -4.66115 -4.93876 0
M  V30 6969 H 680.424 -2.67783 -5.98856 0
M  V30 6970 H 680.341 -4.40178 -6.14638 0
M  V30 6971 H 681.609 -3.52669 -6.95158 0
M  V30 6972 N 685.838 0.888903 -1.30139 0
M  V30 6973 C 686.801 1.97576 -1.16174 0
M  V30 6974 C 687.801 1.60525 -0.094086 0
M  V30 6975 O 688.991 1.70812 -0.341889 0
M  V30 6976 C 686.123 3.3188 -0.778983 0
M  V30 6977 H 687.316 2.11393 -2.12728 0
M  V30 6978 H 684.869 1.0748 -1.1348 0
M  V30 6979 H 685.604 3.23765 0.186225 0
M  V30 6980 H 685.389 3.60141 -1.55051 0
M  V30 6981 H 686.879 4.11612 -0.704631 0
M  V30 6982 N 687.317 1.12792 1.10072 0
M  V30 6983 C 688.247 0.821688 2.18565 0
M  V30 6984 C 689.228 -0.21612 1.68721 0
M  V30 6985 O 690.413 -0.0764932 1.94049 0
M  V30 6986 C 687.543 0.279624 3.46172 0
M  V30 6987 C 686.497 1.25092 4.09312 0
M  V30 6988 C 685.823 0.568916 5.31665 0
M  V30 6989 C 687.123 2.60699 4.52585 0
M  V30 6990 H 688.817 1.72888 2.44438 0
M  V30 6991 H 686.363 0.832702 1.17482 0
M  V30 6992 H 688.316 0.053099 4.21367 0
M  V30 6993 H 687.04 -0.662929 3.19801 0
M  V30 6994 H 685.699 1.46332 3.36129 0
M  V30 6995 H 685.347 -0.378898 5.01571 0
M  V30 6996 H 685.047 1.21687 5.74862 0
M  V30 6997 H 686.571 0.351517 6.09587 0
M  V30 6998 H 687.985 2.43465 5.19035 0
M  V30 6999 H 686.382 3.21608 5.06644 0
M  V30 7000 H 687.452 3.1886 3.65317 0
M  V30 7001 N 688.795 -1.27931 0.920396 0
M  V30 7002 C 690.206 -1.76707 0.602616 0
M  V30 7003 C 690.557 -1.75249 -0.882159 0
M  V30 7004 O 689.682 -1.35135 -1.69019 0
M  V30 7005 C 690.277 -3.20884 1.08714 0
M  V30 7006 C 688.836 -3.67356 0.820157 0
M  V30 7007 C 687.983 -2.47525 1.25006 0
M  V30 7008 H 690.934 -1.14301 1.10095 0
M  V30 7009 H 690.955 -3.78045 0.431535 0
M  V30 7010 H 690.467 -3.21913 2.1678 0
M  V30 7011 H 688.568 -3.7178 -0.247012 0
M  V30 7012 H 688.681 -4.57181 1.43257 0
M  V30 7013 H 687.045 -2.45765 0.668698 0
M  V30 7014 H 687.828 -2.51269 2.3392 0
M  V30 7015 N 690.273 -0.685099 -1.4193 0
M  V30 7016 C 691.203 -0.0273506 -2.33484 0
M  V30 7017 C 692.184 0.778366 -1.51246 0
M  V30 7018 O 693.369 0.733449 -1.79817 0
M  V30 7019 C 690.499 0.917272 -3.34968 0
M  V30 7020 C 689.453 0.21941 -4.27437 0
M  V30 7021 C 688.779 1.27768 -5.1921 0
M  V30 7022 C 690.079 -0.907894 -5.14349 0
M  V30 7023 H 691.773 -0.791994 -2.88735 0
M  V30 7024 H 689.319 -0.382308 -1.38832 0
M  V30 7025 H 691.272 1.38657 -3.97935 0
M  V30 7026 H 689.996 1.71346 -2.78043 0
M  V30 7027 H 688.655 -0.229757 -3.65879 0
M  V30 7028 H 688.303 2.06612 -4.58607 0
M  V30 7029 H 688.003 0.815803 -5.81909 0
M  V30 7030 H 689.527 1.7477 -5.85054 0
M  V30 7031 H 690.941 -0.519348 -5.70943 0
M  V30 7032 H 689.338 -1.2962 -5.85934 0
M  V30 7033 H 690.408 -1.75218 -4.52136 0
M  V30 7034 N 691.751 1.51645 -0.429126 0
M  V30 7035 C 692.661 2.31288 0.392809 0
M  V30 7036 C 693.677 1.39852 1.03525 0
M  V30 7037 O 694.853 1.72926 1.03241 0
M  V30 7038 C 691.918 3.13347 1.48372 0
M  V30 7039 C 690.979 4.20551 0.862268 0
M  V30 7040 C 690.212 4.98688 1.9012 0
M  V30 7041 O 690.435 4.77359 3.12225 0
M  V30 7042 O 689.369 5.83005 1.4963 0
M  V30 7043 H 693.195 3.02609 -0.257138 0
M  V30 7044 H 690.78 1.48163 -0.191851 0
M  V30 7045 H 692.662 3.64387 2.1166 0
M  V30 7046 H 691.337 2.44799 2.1179 0
M  V30 7047 H 690.244 3.73609 0.191568 0
M  V30 7048 H 691.577 4.91449 0.271704 0
M  V30 7049 N 693.229 0.160201 1.56784 0
M  V30 7050 C 694.192 -0.760405 2.16219 0
M  V30 7051 C 695.192 -1.16595 1.10735 0
M  V30 7052 O 696.382 -1.08472 1.36306 0
M  V30 7053 C 693.514 -2.03358 2.73603 0
M  V30 7054 H 694.707 -0.243173 2.98912 0
M  V30 7055 H 692.26 -0.0893139 1.56045 0
M  V30 7056 H 692.995 -2.59416 1.94612 0
M  V30 7057 H 692.78 -1.75186 3.50788 0
M  V30 7058 H 694.27 -2.69081 3.19351 0
M  V30 7059 N 694.707 -1.5719 -0.113559 0
M  V30 7060 C 695.617 -2.04041 -1.15777 0
M  V30 7061 C 696.633 -0.961812 -1.45001 0
M  V30 7062 O 697.809 -1.2737 -1.56009 0
M  V30 7063 C 694.874 -2.43994 -2.46308 0
M  V30 7064 C 693.935 -3.65962 -2.24433 0
M  V30 7065 C 693.168 -4.04 -3.4874 0
M  V30 7066 O 693.391 -3.42321 -4.56259 0
M  V30 7067 O 692.325 -4.97069 -3.3942 0
M  V30 7068 H 696.151 -2.93248 -0.789899 0
M  V30 7069 H 693.736 -1.45828 -0.324748 0
M  V30 7070 H 695.618 -2.70401 -3.23204 0
M  V30 7071 H 694.293 -1.57932 -2.82558 0
M  V30 7072 H 693.2 -3.44697 -1.45377 0
M  V30 7073 H 694.533 -4.52746 -1.93084 0
M  V30 7074 N 696.185 0.383891 -1.52853 0
M  V30 7075 C 697.431 1.13009 -1.68395 0
M  V30 7076 C 697.764 1.89488 -0.425195 0
M  V30 7077 O 697.039 1.8574 0.577136 0
M  V30 7078 C 697.322 2.10419 -2.92226 0
M  V30 7079 C 697.175 1.3767 -4.28214 0
M  V30 7080 C 698.494 3.10781 -3.11614 0
M  V30 7081 H 695.613 0.409463 -0.612788 0
M  V30 7082 H 698.255 0.412895 -1.85459 0
M  V30 7083 H 696.405 2.71579 -2.77808 0
M  V30 7084 H 698.077 0.794352 -4.54409 0
M  V30 7085 H 696.32 0.678533 -4.2846 0
M  V30 7086 H 696.991 2.08874 -5.10956 0
M  V30 7087 H 699.467 2.59715 -3.25096 0
M  V30 7088 H 698.343 3.76179 -3.99725 0
M  V30 7089 H 698.604 3.79933 -2.2606 0
M  V30 7090 N 697.663 1.43903 0.642637 0
M  V30 7091 C 698.626 1.49538 1.73698 0
M  V30 7092 C 699.626 0.378776 1.56275 0
M  V30 7093 O 700.816 0.64095 1.6198 0
M  V30 7094 C 697.948 1.35821 3.12675 0
M  V30 7095 H 699.141 2.47008 1.70079 0
M  V30 7096 H 696.694 1.30824 0.85526 0
M  V30 7097 H 697.429 0.393994 3.21898 0
M  V30 7098 H 697.214 2.16776 3.26727 0
M  V30 7099 H 698.704 1.4272 3.92455 0
M  V30 7100 N 699.141 -0.881989 1.30609 0
M  V30 7101 C 700.552 -1.44956 1.17664 0
M  V30 7102 C 700.903 -1.94945 -0.221531 0
M  V30 7103 O 700.028 -1.85257 -1.11844 0
M  V30 7104 C 700.623 -2.63474 2.12995 0
M  V30 7105 C 699.182 -3.16312 2.04019 0
M  V30 7106 C 698.329 -1.89008 2.02907 0
M  V30 7107 H 701.28 -0.691645 1.42835 0
M  V30 7108 H 701.301 -3.39783 1.71253 0
M  V30 7109 H 700.813 -2.2706 3.14746 0
M  V30 7110 H 698.914 -3.57376 1.0542 0
M  V30 7111 H 699.027 -3.79409 2.9255 0
M  V30 7112 H 697.391 -2.07465 1.47751 0
M  V30 7113 H 698.174 -1.54848 3.06394 0
M  V30 7114 N 700.619 -1.13374 -1.09472 0
M  V30 7115 C 701.865 -0.896516 -1.81908 0
M  V30 7116 C 702.198 0.575933 -1.85463 0
M  V30 7117 O 701.473 1.42618 -1.32251 0
M  V30 7118 C 701.756 -1.48445 -3.28079 0
M  V30 7119 C 701.609 -3.02598 -3.32798 0
M  V30 7120 C 702.928 -1.15226 -4.24748 0
M  V30 7121 H 700.047 -0.327127 -0.660422 0
M  V30 7122 H 702.689 -1.40195 -1.2824 0
M  V30 7123 H 700.839 -1.0546 -3.73912 0
M  V30 7124 H 702.511 -3.54335 -2.95372 0
M  V30 7125 H 700.754 -3.37613 -2.72397 0
M  V30 7126 H 701.425 -3.38835 -4.3577 0
M  V30 7127 H 703.901 -1.52369 -3.87199 0
M  V30 7128 H 702.777 -1.59012 -5.25363 0
M  V30 7129 H 703.038 -0.0658891 -4.42051 0
M  V30 7130 N 702.098 1.27442 -0.927168 0
M  V30 7131 C 703.045 2.26863 -0.424459 0
M  V30 7132 C 704.015 1.5813 0.508346 0
M  V30 7133 O 705.2 1.85946 0.42762 0
M  V30 7134 C 702.34 3.43639 0.31718 0
M  V30 7135 C 701.453 4.27087 -0.649675 0
M  V30 7136 C 700.588 5.31082 0.111753 0
M  V30 7137 C 699.627 6.062 -0.847843 0
M  V30 7138 N 698.764 7.01999 -0.119074 0
M  V30 7139 H 703.604 2.69239 -1.27728 0
M  V30 7140 H 701.141 1.32394 -0.641106 0
M  V30 7141 H 703.099 4.10155 0.763486 0
M  V30 7142 H 701.729 3.02217 1.13424 0
M  V30 7143 H 700.781 3.60491 -1.21451 0
M  V30 7144 H 702.093 4.79242 -1.38307 0
M  V30 7145 H 701.247 6.03544 0.618 0
M  V30 7146 H 699.986 4.7973 0.878114 0
M  V30 7147 H 698.991 5.32577 -1.36534 0
M  V30 7148 H 700.216 6.59642 -1.61398 0
M  V30 7149 H 698.162 6.52977 0.629051 0
M  V30 7150 H 698.079 7.5184 -0.792046 0
M  V30 7151 H 699.347 7.78638 0.366537 0
M  V30 7152 N 703.576 0.692616 1.41565 0
M  V30 7153 C 704.853 0.150496 1.9502 0
M  V30 7154 C 705.233 -1.33881 1.63215 0
M  V30 7155 O 704.581 -2.08378 0.937598 0
M  V30 7156 C 704.791 0.438636 3.46233 0
M  V30 7157 C 706.139 0.364777 4.2303 0
M  V30 7158 O 707.163 0.373383 3.54238 0
M  V30 7159 O 706.022 0.32234 5.45549 0
M  V30 7160 H 703.116 0.0132454 0.826894 0
M  V30 7161 H 705.662 0.768574 1.51298 0
M  V30 7162 H 704.434 1.46962 3.62654 0
M  V30 7163 H 704.057 -0.210562 3.97042 0
M  V30 7164 N 705.054 -1.51416 0.437162 0
M  V30 7165 C 705.987 -2.24309 -0.419602 0
M  V30 7166 C 706.965 -1.26236 -1.02485 0
M  V30 7167 O 708.149 -1.5537 -1.06735 0
M  V30 7168 C 705.276 -2.99335 -1.58482 0
M  V30 7169 C 704.322 -4.12064 -1.10027 0
M  V30 7170 S 705.155 -5.35483 -0.0424476 0
M  V30 7171 C 706.311 -6.14047 -1.21234 0
M  V30 7172 H 706.544 -2.96632 0.199259 0
M  V30 7173 H 704.077 -1.528 0.22168 0
M  V30 7174 H 706.035 -3.43159 -2.25282 0
M  V30 7175 H 704.696 -2.26602 -2.17509 0
M  V30 7176 H 703.889 -4.63836 -1.97161 0
M  V30 7177 H 703.491 -3.70499 -0.510507 0
M  V30 7178 H 705.783 -6.43123 -2.13072 0
M  V30 7179 H 706.726 -7.04279 -0.734582 0
M  V30 7180 H 707.134 -5.45538 -1.45082 0
M  V30 7181 N 706.532 -0.168513 -1.56696 0
M  V30 7182 C 707.495 0.748928 -2.16619 0
M  V30 7183 C 708.495 1.16007 -1.11351 0
M  V30 7184 O 709.685 1.07748 -1.3688 0
M  V30 7185 C 706.817 2.01904 -2.74677 0
M  V30 7186 H 708.01 0.227317 -2.99037 0
M  V30 7187 H 705.563 0.0810372 -1.5609 0
M  V30 7188 H 706.298 2.58381 -1.95985 0
M  V30 7189 H 706.083 1.73323 -3.51712 0
M  V30 7190 H 707.573 2.67383 -3.20774 0
M  V30 7191 N 708.01 1.57248 0.105221 0
M  V30 7192 C 708.942 1.98008 1.15436 0
M  V30 7193 C 709.955 0.881236 1.36887 0
M  V30 7194 O 711.144 1.15943 1.35718 0
M  V30 7195 C 708.244 2.27509 2.51183 0
M  V30 7196 C 707.417 3.58811 2.50147 0
M  V30 7197 C 706.476 3.76365 3.67745 0
M  V30 7198 O 705.502 4.48329 3.50699 0
M  V30 7199 N 706.704 3.16174 4.86841 0
M  V30 7200 H 709.469 2.88616 0.807519 0
M  V30 7201 H 707.03 1.59202 0.29433 0
M  V30 7202 H 709.022 2.36455 3.28438 0
M  V30 7203 H 707.592 1.42959 2.77995 0
M  V30 7204 H 706.812 3.60927 1.5851 0
M  V30 7205 H 708.1 4.45088 2.46524 0
M  V30 7206 H 707.498 2.57701 5.03594 0
M  V30 7207 H 706.055 3.30621 5.61723 0
M  V30 7208 N 709.488 -0.375779 1.53054 0
M  V30 7209 C 710.418 -1.46598 1.81745 0
M  V30 7210 C 711.399 -1.56337 0.670286 0
M  V30 7211 O 712.584 -1.71071 0.919158 0
M  V30 7212 C 709.714 -2.84058 1.99821 0
M  V30 7213 C 708.668 -2.8915 3.15557 0
M  V30 7214 C 707.994 -4.29187 3.18908 0
M  V30 7215 C 709.294 -2.57595 4.54359 0
M  V30 7216 H 710.988 -1.22837 2.73041 0
M  V30 7217 H 708.534 -0.589485 1.31381 0
M  V30 7218 H 710.487 -3.60342 2.18475 0
M  V30 7219 H 709.211 -3.09184 1.05226 0
M  V30 7220 H 707.87 -2.15316 2.96706 0
M  V30 7221 H 707.518 -4.51374 2.2197 0
M  V30 7222 H 707.218 -4.33512 3.96662 0
M  V30 7223 H 708.742 -5.07359 3.39734 0
M  V30 7224 H 710.156 -3.23595 4.73243 0
M  V30 7225 H 708.553 -2.73252 5.34279 0
M  V30 7226 H 709.623 -1.52882 4.60169 0
M  V30 7227 N 710.966 -1.44241 -0.634997 0
M  V30 7228 C 712.377 -1.41622 -1.21655 0
M  V30 7229 C 712.728 -0.129584 -1.95772 0
M  V30 7230 O 711.853 0.770225 -2.02229 0
M  V30 7231 C 712.448 -2.56557 -2.21278 0
M  V30 7232 C 711.007 -2.57145 -2.7487 0
M  V30 7233 C 710.154 -2.33354 -1.49804 0
M  V30 7234 H 713.105 -1.52878 -0.425905 0
M  V30 7235 H 713.126 -2.29089 -3.03807 0
M  V30 7236 H 712.638 -3.50186 -1.67306 0
M  V30 7237 H 710.739 -1.67447 -3.32855 0
M  V30 7238 H 710.852 -3.55507 -3.21172 0
M  V30 7239 H 709.216 -1.82372 -1.77799 0
M  V30 7240 H 709.999 -3.29092 -0.977402 0
M  V30 7241 N 712.444 0.87505 -1.31075 0
M  V30 7242 C 713.354 2.01441 -1.20244 0
M  V30 7243 C 714.37 1.73584 -0.120227 0
M  V30 7244 O 715.546 1.98559 -0.337063 0
M  V30 7245 C 712.611 3.34675 -0.905199 0
M  V30 7246 C 711.672 3.75889 -2.0738 0
M  V30 7247 C 710.905 5.02764 -1.79064 0
M  V30 7248 O 711.128 5.65795 -0.723318 0
M  V30 7249 O 710.062 5.40623 -2.64594 0
M  V30 7250 H 713.888 2.13509 -2.1598 0
M  V30 7251 H 711.473 1.00257 -1.10765 0
M  V30 7252 H 713.355 4.1458 -0.755057 0
M  V30 7253 H 712.03 3.23692 0.0221695 0
M  V30 7254 H 710.937 2.96645 -2.27931 0
M  V30 7255 H 712.27 3.91489 -2.98324 0
M  V30 7256 N 713.922 1.13953 1.08869 0
M  V30 7257 C 715.15 0.92817 1.84912 0
M  V30 7258 C 715.565 -0.523197 1.81406 0
M  V30 7259 O 714.922 -1.36237 1.21432 0
M  V30 7260 C 714.973 1.41509 3.32652 0
M  V30 7261 O 714.694 2.80959 3.36145 0
M  V30 7262 C 716.195 1.243 4.25517 0
M  V30 7263 H 713.415 0.330612 0.583898 0
M  V30 7264 H 715.959 1.51349 1.37527 0
M  V30 7265 H 714.114 0.872648 3.77444 0
M  V30 7266 H 714.528 3.02704 4.28335 0
M  V30 7267 H 716.002 1.63237 5.27312 0
M  V30 7268 H 716.479 0.18532 4.38809 0
M  V30 7269 H 717.085 1.77375 3.86546 0
M  V30 7270 N 715.4 -1.26948 0.933913 0
M  V30 7271 C 716.31 -2.30366 0.443671 0
M  V30 7272 C 717.326 -1.67284 -0.478745 0
M  V30 7273 O 718.502 -1.98156 -0.360043 0
M  V30 7274 C 715.567 -3.45485 -0.289974 0
M  V30 7275 C 714.628 -4.24069 0.668114 0
M  V30 7276 C 713.861 -5.33691 -0.0306138 0
M  V30 7277 O 714.084 -5.5656 -1.24888 0
M  V30 7278 O 713.018 -5.98441 0.644384 0
M  V30 7279 H 716.844 -2.74349 1.30254 0
M  V30 7280 H 714.429 -1.32012 0.699506 0
M  V30 7281 H 716.311 -4.15486 -0.70353 0
M  V30 7282 H 714.986 -3.03546 -1.12435 0
M  V30 7283 H 713.893 -3.56579 1.13147 0
M  V30 7284 H 715.226 -4.69739 1.46989 0
M  V30 7285 N 716.879 -0.700114 -1.41195 0
M  V30 7286 C 718.128 -0.230082 -2.00383 0
M  V30 7287 C 718.441 1.17857 -1.56106 0
M  V30 7288 O 719.647 1.74631 -2.07885 0
M  V30 7289 C 718.103 -0.360447 -3.5809 0
M  V30 7290 C 717.711 -1.77475 -4.11347 0
M  V30 7291 C 719.455 0.0495799 -4.24471 0
M  V30 7292 C 717.362 -1.85653 -5.61504 0
M  V30 7293 H 716.292 -0.0822633 -0.749499 0
M  V30 7294 H 718.943 -0.868969 -1.6162 0
M  V30 7295 H 717.325 0.346768 -3.94479 0
M  V30 7296 H 718.499 -2.51109 -3.86369 0
M  V30 7297 H 716.814 -2.13486 -3.57509 0
M  V30 7298 H 719.411 0.00898219 -5.34699 0
M  V30 7299 H 719.754 1.08904 -4.01803 0
M  V30 7300 H 720.287 -0.607521 -3.93134 0
M  V30 7301 H 717.026 -2.87667 -5.89006 0
M  V30 7302 H 716.546 -1.1641 -5.88395 0
M  V30 7303 H 718.225 -1.62151 -6.26351 0
M  V30 7304 N 718.357 1.51182 -0.445186 0
M  V30 7305 C 719.32 2.26501 0.350722 0
M  V30 7306 C 720.32 1.3025 0.942952 0
M  V30 7307 O 721.51 1.53897 0.816175 0
M  V30 7308 C 718.642 3.06274 1.49697 0
M  V30 7309 H 719.835 2.98299 -0.309474 0
M  V30 7310 H 717.388 1.55034 -0.198551 0
M  V30 7311 H 718.123 2.38911 2.19299 0
M  V30 7312 H 717.908 3.76979 1.0784 0
M  V30 7313 H 719.398 3.63306 2.05909 0
M  V30 7314 N 719.835 0.176821 1.56605 0
M  V30 7315 C 721.246 -0.338963 1.83597 0
M  V30 7316 C 721.597 -1.62677 1.09684 0
M  V30 7317 O 720.722 -2.13524 0.351661 0
M  V30 7318 C 721.317 -0.62177 3.33046 0
M  V30 7319 C 719.876 -1.08198 3.60514 0
M  V30 7320 C 719.023 -0.120774 2.77037 0
M  V30 7321 H 721.974 0.400978 1.53551 0
M  V30 7322 H 721.995 -1.47321 3.50823 0
M  V30 7323 H 721.507 0.315692 3.86814 0
M  V30 7324 H 719.608 -2.03435 3.12162 0
M  V30 7325 H 719.721 -0.987329 4.68816 0
M  V30 7326 H 718.085 -0.619192 2.47059 0
M  V30 7327 H 718.868 0.810806 3.33588 0
M  V30 7328 N 721.313 -1.57302 -0.09688 0
M  V30 7329 C 722.276 -2.00976 -1.10188 0
M  V30 7330 C 723.276 -0.903009 -1.3305 0
M  V30 7331 O 724.466 -1.16853 -1.29194 0
M  V30 7332 C 721.598 -2.36893 -2.45142 0
M  V30 7333 H 722.791 -2.9098 -0.726003 0
M  V30 7334 H 720.344 -1.52515 -0.341872 0
M  V30 7335 H 721.079 -1.49837 -2.8761 0
M  V30 7336 H 720.864 -3.17632 -2.29897 0
M  V30 7337 H 722.354 -2.71345 -3.1743 0
M  V30 7338 N 722.791 0.367657 -1.53252 0
M  V30 7339 C 723.738 1.45028 -1.79543 0
M  V30 7340 C 724.708 1.53288 -0.63969 0
M  V30 7341 O 725.893 1.69209 -0.881653 0
M  V30 7342 C 723.033 2.82 -1.98923 0
M  V30 7343 C 722.146 2.82722 -3.26638 0
M  V30 7344 C 721.281 4.11257 -3.36216 0
M  V30 7345 C 720.32 4.06113 -4.57972 0
M  V30 7346 N 719.457 5.26293 -4.64715 0
M  V30 7347 H 724.297 1.21908 -2.71923 0
M  V30 7348 H 721.834 0.591011 -1.34705 0
M  V30 7349 H 723.792 3.61568 -2.08146 0
M  V30 7350 H 722.422 3.03523 -1.09881 0
M  V30 7351 H 721.474 1.95399 -3.26379 0
M  V30 7352 H 722.786 2.74794 -4.16281 0
M  V30 7353 H 721.94 4.99239 -3.44739 0
M  V30 7354 H 720.679 4.21935 -2.44586 0
M  V30 7355 H 719.684 3.16517 -4.49552 0
M  V30 7356 H 720.909 3.97039 -5.50942 0
M  V30 7357 H 718.855 5.37561 -3.75985 0
M  V30 7358 H 718.772 5.20526 -5.4826 0
M  V30 7359 H 720.04 6.16113 -4.77519 0
M  V30 7360 N 724.269 1.44576 0.627338 0
M  V30 7361 C 725.546 1.38033 1.38586 0
M  V30 7362 C 725.926 0.0409468 2.1106 0
M  V30 7363 O 725.274 -0.976582 2.0658 0
M  V30 7364 C 725.484 2.58102 2.34913 0
M  V30 7365 C 726.832 3.02332 2.98129 0
M  V30 7366 O 727.856 2.58334 2.45238 0
M  V30 7367 O 726.715 3.78628 3.94085 0
M  V30 7368 H 723.809 0.546801 0.620434 0
M  V30 7369 H 726.355 1.56672 0.652077 0
M  V30 7370 H 725.127 3.4719 1.80485 0
M  V30 7371 H 724.75 2.41696 3.15703 0
M  V30 7372 N 725.747 -0.868086 1.31537 0
M  V30 7373 C 726.993 -1.62367 1.2151 0
M  V30 7374 C 727.326 -1.92883 -0.225819 0
M  V30 7375 O 726.601 -1.56176 -1.15927 0
M  V30 7376 C 726.884 -2.95268 2.06129 0
M  V30 7377 C 726.737 -2.71619 3.58529 0
M  V30 7378 C 728.056 -3.96391 1.91212 0
M  V30 7379 H 725.175 -0.589178 0.442762 0
M  V30 7380 H 727.817 -1.00336 1.61347 0
M  V30 7381 H 725.967 -3.4821 1.72284 0
M  V30 7382 H 727.639 -2.25334 4.0252 0
M  V30 7383 H 725.882 -2.05817 3.81866 0
M  V30 7384 H 726.553 -3.66192 4.13047 0
M  V30 7385 H 729.029 -3.52663 2.20834 0
M  V30 7386 H 727.905 -4.87263 2.52718 0
M  V30 7387 H 728.166 -4.33335 0.875953 0
M  V30 7388 N 727.225 -1.14528 -1.08264 0
M  V30 7389 C 728.188 -0.83632 -2.13397 0
M  V30 7390 C 729.188 0.159715 -1.60005 0
M  V30 7391 O 730.378 -0.0688098 -1.74064 0
M  V30 7392 C 727.51 -0.246973 -3.40004 0
M  V30 7393 H 728.703 -1.76808 -2.42237 0
M  V30 7394 H 726.256 -0.951509 -1.24 0
M  V30 7395 H 726.991 0.693436 -3.168 0
M  V30 7396 H 726.776 -0.964412 -3.80055 0
M  V30 7397 H 728.266 -0.0480679 -4.17572 0
M  V30 7398 N 728.703 1.26451 -0.940633 0
M  V30 7399 C 730.114 1.75726 -0.630653 0
M  V30 7400 C 730.465 1.76631 0.854167 0
M  V30 7401 O 729.59 1.37807 1.66848 0
M  V30 7402 C 730.185 3.19114 -1.13805 0
M  V30 7403 C 728.744 3.66005 -0.878497 0
M  V30 7404 C 727.891 2.45505 -1.28928 0
M  V30 7405 H 730.842 1.12535 -1.119 0
M  V30 7406 H 730.863 3.77311 -0.491625 0
M  V30 7407 H 730.375 3.18424 -2.21874 0
M  V30 7408 H 728.476 3.72126 0.187833 0
M  V30 7409 H 728.589 4.54844 -1.50512 0
M  V30 7410 H 726.953 2.4467 -0.707713 0
M  V30 7411 H 727.736 2.47516 -2.37888 0
M  V30 7412 N 730.181 0.707592 1.40822 0
M  V30 7413 C 731.406 0.251626 2.05868 0
M  V30 7414 C 731.831 -1.09503 1.5294 0
M  V30 7415 O 731.189 -1.68806 0.661385 0
M  V30 7416 C 731.237 0.23287 3.59847 0
M  V30 7417 O 730.341 -0.788477 4.04792 0
M  V30 7418 H 729.682 0.119936 0.653078 0
M  V30 7419 H 732.212 0.96583 1.80369 0
M  V30 7420 H 732.222 0.0678204 4.07944 0
M  V30 7421 H 730.897 1.21565 3.97737 0
M  V30 7422 H 729.474 -0.591802 3.68174 0
M  V30 7423 N 731.66 -1.50943 0.453197 0
M  V30 7424 C 732.888 -2.06628 -0.106135 0
M  V30 7425 C 733.303 -1.31901 -1.35084 0
M  V30 7426 O 732.66 -0.383074 -1.78434 0
M  V30 7427 C 732.711 -3.5914 -0.412368 0
M  V30 7428 O 732.432 -4.31047 0.782948 0
M  V30 7429 C 733.933 -4.31391 -1.02064 0
M  V30 7430 H 731.153 -0.670999 -0.000885896 0
M  V30 7431 H 733.697 -1.94331 0.63684 0
M  V30 7432 H 731.852 -3.71299 -1.10526 0
M  V30 7433 H 732.266 -5.21948 0.516736 0
M  V30 7434 H 733.74 -5.39135 -1.1848 0
M  V30 7435 H 734.217 -3.90714 -2.00598 0
M  V30 7436 H 734.823 -4.23716 -0.366664 0
M  V30 7437 N 733.138 -0.185124 -1.56509 0
M  V30 7438 C 734.384 0.456934 -1.97585 0
M  V30 7439 C 734.717 1.61957 -1.07161 0
M  V30 7440 O 733.992 1.9412 -0.121546 0
M  V30 7441 C 734.275 0.926666 -3.47973 0
M  V30 7442 C 734.128 -0.237097 -4.49175 0
M  V30 7443 C 735.447 1.79561 -4.01803 0
M  V30 7444 H 732.566 0.164619 -0.71838 0
M  V30 7445 H 735.208 -0.274039 -1.88013 0
M  V30 7446 H 733.358 1.54954 -3.56261 0
M  V30 7447 H 735.03 -0.87454 -4.52934 0
M  V30 7448 H 733.273 -0.890446 -4.24563 0
M  V30 7449 H 733.944 0.133924 -5.51838 0
M  V30 7450 H 736.42 1.27039 -3.96232 0
M  V30 7451 H 735.296 2.09327 -5.07418 0
M  V30 7452 H 735.557 2.74629 -3.46455 0
M  V30 7453 N 734.616 1.57351 0.0885366 0
M  V30 7454 C 735.563 2.02523 1.10693 0
M  V30 7455 C 736.533 0.902736 1.39427 0
M  V30 7456 O 737.718 1.16921 1.50779 0
M  V30 7457 C 734.858 2.46013 2.42016 0
M  V30 7458 C 733.971 3.7181 2.19957 0
M  V30 7459 C 733.106 4.04152 3.44724 0
M  V30 7460 C 732.145 5.2304 3.17956 0
M  V30 7461 N 731.282 5.51102 4.35007 0
M  V30 7462 H 736.122 2.89302 0.714742 0
M  V30 7463 H 733.659 1.43084 0.341378 0
M  V30 7464 H 735.617 2.69274 3.18665 0
M  V30 7465 H 734.247 1.62235 2.79069 0
M  V30 7466 H 733.299 3.55987 1.34079 0
M  V30 7467 H 734.611 4.58604 1.96173 0
M  V30 7468 H 733.765 4.28225 4.29777 0
M  V30 7469 H 732.504 3.15893 3.71568 0
M  V30 7470 H 731.509 4.98781 2.31296 0
M  V30 7471 H 732.734 6.12902 2.92451 0
M  V30 7472 H 730.68 4.65802 4.61914 0
M  V30 7473 H 730.597 6.3228 4.14437 0
M  V30 7474 H 731.865 5.79714 5.21106 0
M  V30 7475 N 736.094 -0.359525 1.53444 0
M  V30 7476 C 737.004 -1.46445 1.83278 0
M  V30 7477 C 738.02 -1.5833 0.721629 0
M  V30 7478 O 739.196 -1.7411 1.01231 0
M  V30 7479 C 736.261 -2.81638 2.02191 0
M  V30 7480 C 735.322 -2.7923 3.26082 0
M  V30 7481 C 734.555 -4.07974 3.44082 0
M  V30 7482 O 734.778 -5.04447 2.66251 0
M  V30 7483 O 733.712 -4.13417 4.37458 0
M  V30 7484 H 737.538 -1.24156 2.77162 0
M  V30 7485 H 735.123 -0.550201 1.389 0
M  V30 7486 H 737.005 -3.61732 2.16167 0
M  V30 7487 H 735.68 -3.03892 1.11496 0
M  V30 7488 H 734.587 -1.97813 3.17523 0
M  V30 7489 H 735.92 -2.6193 4.16718 0
M  V30 7490 N 737.572 -1.44907 -0.619662 0
M  V30 7491 C 738.818 -1.48512 -1.38102 0
M  V30 7492 C 739.151 -0.121686 -1.93818 0
M  V30 7493 O 738.426 0.862256 -1.74343 0
M  V30 7494 C 738.709 -2.55469 -2.53787 0
M  V30 7495 C 738.562 -4.01212 -2.03345 0
M  V30 7496 C 739.881 -2.58821 -3.55949 0
M  V30 7497 H 737 -0.540712 -0.500799 0
M  V30 7498 H 739.642 -1.7665 -0.69962 0
M  V30 7499 H 737.792 -2.31606 -3.11915 0
M  V30 7500 H 739.464 -4.36245 -1.49959 0
M  V30 7501 H 737.707 -4.12443 -1.34438 0
M  V30 7502 H 738.378 -4.71717 -2.86683 0
M  V30 7503 H 740.854 -2.80172 -3.07641 0
M  V30 7504 H 739.73 -3.35542 -4.34399 0
M  V30 7505 H 739.991 -1.63451 -4.10775 0
M  V30 7506 N 739.05 0.861098 -1.31996 0
M  V30 7507 C 740.298 1.61162 -1.21947 0
M  V30 7508 C 740.619 1.93751 0.220351 0
M  V30 7509 O 739.889 1.59069 1.14341 0
M  V30 7510 H 738.469 0.597485 -0.448353 0
M  V30 7511 H 741.131 1.03039 -1.65436 0
M  V30 7512 H 740.227 2.55138 -1.79752 0
M  V30 7513 N 740.528 1.15101 1.07655 0
M  V30 7514 C 741.458 0.867864 2.16773 0
M  V30 7515 C 742.439 -0.180283 1.69142 0
M  V30 7516 O 743.624 -0.0353152 1.94168 0
M  V30 7517 C 740.754 0.35299 3.45501 0
M  V30 7518 C 739.708 1.33746 4.06566 0
M  V30 7519 C 739.034 0.681562 5.30338 0
M  V30 7520 C 740.334 2.7024 4.46954 0
M  V30 7521 H 742.028 1.78034 2.40716 0
M  V30 7522 H 739.574 0.857435 1.15689 0
M  V30 7523 H 741.527 0.142465 4.21159 0
M  V30 7524 H 740.251 -0.594945 3.21135 0
M  V30 7525 H 738.91 1.53429 3.32949 0
M  V30 7526 H 738.558 -0.272422 5.02262 0
M  V30 7527 H 738.258 1.33853 5.72151 0
M  V30 7528 H 739.782 0.48074 6.08705 0
M  V30 7529 H 741.196 2.5442 5.13754 0
M  V30 7530 H 739.593 3.32282 4.99709 0
M  V30 7531 H 740.663 3.26537 3.58471 0
M  V30 7532 N 742.006 -1.2595 0.947325 0
M  V30 7533 C 742.936 -2.28521 0.479604 0
M  V30 7534 C 743.917 -1.63469 -0.470293 0
M  V30 7535 O 745.102 -1.90627 -0.370824 0
M  V30 7536 C 742.232 -3.46397 -0.250289 0
M  V30 7537 C 741.186 -4.23578 0.613643 0
M  V30 7538 C 740.512 -5.34131 -0.246568 0
M  V30 7539 C 741.812 -4.86979 1.88809 0
M  V30 7540 H 743.506 -2.67895 1.33688 0
M  V30 7541 H 741.052 -1.28783 0.644274 0
M  V30 7542 H 743.005 -4.17269 -0.588576 0
M  V30 7543 H 741.729 -3.05993 -1.14175 0
M  V30 7544 H 740.388 -3.54478 0.93491 0
M  V30 7545 H 740.036 -4.89968 -1.13756 0
M  V30 7546 H 739.736 -5.86683 0.328123 0
M  V30 7547 H 741.26 -6.07839 -0.579986 0
M  V30 7548 H 742.674 -5.50034 1.61666 0
M  V30 7549 H 741.071 -5.49675 2.40784 0
M  V30 7550 H 742.141 -4.09575 2.5957 0
M  V30 7551 N 743.484 -0.715051 -1.40445 0
M  V30 7552 C 744.431 -0.0621393 -2.30716 0
M  V30 7553 C 745.401 0.750871 -1.48159 0
M  V30 7554 O 746.586 0.714928 -1.76899 0
M  V30 7555 C 743.726 0.854036 -3.34365 0
M  V30 7556 C 742.839 0.0305565 -4.31989 0
M  V30 7557 C 741.974 0.946162 -5.22706 0
M  V30 7558 C 741.013 0.116741 -6.11989 0
M  V30 7559 N 740.15 0.987194 -6.95125 0
M  V30 7560 H 744.99 -0.83764 -2.85985 0
M  V30 7561 H 742.527 -0.424759 -1.40834 0
M  V30 7562 H 744.485 1.39946 -3.93028 0
M  V30 7563 H 743.115 1.59572 -2.806 0
M  V30 7564 H 742.167 -0.632044 -3.75112 0
M  V30 7565 H 743.479 -0.611615 -4.95036 0
M  V30 7566 H 742.633 1.56014 -5.86297 0
M  V30 7567 H 741.372 1.62216 -4.59932 0
M  V30 7568 H 740.377 -0.510176 -5.47428 0
M  V30 7569 H 741.602 -0.555742 -6.76822 0
M  V30 7570 H 739.548 1.64885 -6.3494 0
M  V30 7571 H 739.465 0.401046 -7.54936 0
M  V30 7572 H 740.733 1.58737 -7.63166 0
M  V30 7573 N 744.962 1.50701 -0.461195 0
M  V30 7574 C 746.239 1.94958 0.158296 0
M  V30 7575 C 746.619 1.40111 1.57899 0
M  V30 7576 O 745.967 0.597976 2.20537 0
M  V30 7577 C 746.177 3.48821 0.11172 0
M  V30 7578 C 747.525 4.23499 0.30552 0
M  V30 7579 O 748.549 3.557 0.188758 0
M  V30 7580 O 747.408 5.43823 0.540244 0
M  V30 7581 H 744.502 0.818674 0.117054 0
M  V30 7582 H 747.048 1.61508 -0.520888 0
M  V30 7583 H 745.82 3.81263 -0.880577 0
M  V30 7584 H 745.443 3.88781 0.832791 0
M  V30 7585 N 746.441 0.193421 1.56409 0
M  V30 7586 C 747.374 -0.767384 2.1491 0
M  V30 7587 C 748.352 -1.21075 1.08534 0
M  V30 7588 O 749.536 -1.29856 1.36637 0
M  V30 7589 C 746.663 -2.03615 2.70663 0
M  V30 7590 C 745.709 -1.73505 3.89613 0
M  V30 7591 S 746.542 -0.884645 5.28142 0
M  V30 7592 C 747.698 -2.1636 5.87315 0
M  V30 7593 H 747.931 -0.270053 2.96071 0
M  V30 7594 H 745.464 -0.0215546 1.54385 0
M  V30 7595 H 747.422 -2.7648 3.03429 0
M  V30 7596 H 746.083 -2.50461 1.89547 0
M  V30 7597 H 745.276 -2.67701 4.27027 0
M  V30 7598 H 744.878 -1.08723 3.57848 0
M  V30 7599 H 747.17 -3.11629 6.01576 0
M  V30 7600 H 748.113 -1.8338 6.83943 0
M  V30 7601 H 748.521 -2.29129 5.15907 0
M  V30 7602 N 747.919 -1.57396 -0.0801906 0
M  V30 7603 C 749.144 -1.91437 -0.797909 0
M  V30 7604 C 749.569 -0.789075 -1.70749 0
M  V30 7605 O 748.927 0.25857 -1.79447 0
M  V30 7606 C 748.975 -3.24402 -1.57467 0
M  V30 7607 O 748.079 -3.13043 -2.68473 0
M  V30 7608 H 747.42 -0.627109 -0.218243 0
M  V30 7609 H 749.95 -2.04537 -0.050949 0
M  V30 7610 H 749.96 -3.58072 -1.95571 0
M  V30 7611 H 748.635 -4.05884 -0.907229 0
M  V30 7612 H 747.212 -2.90915 -2.33287 0
M  V30 7613 N 749.397 0.351382 -1.53633 0
M  V30 7614 C 750.808 0.927429 -1.62036 0
M  V30 7615 C 751.159 1.89809 -0.496706 0
M  V30 7616 O 750.284 2.1313 0.374749 0
M  V30 7617 C 750.879 1.68886 -2.93706 0
M  V30 7618 C 749.438 2.21404 -3.04397 0
M  V30 7619 C 748.585 1.03075 -2.57431 0
M  V30 7620 H 751.536 0.129748 -1.58169 0
M  V30 7621 H 751.557 2.55116 -2.82305 0
M  V30 7622 H 751.069 0.982149 -3.75467 0
M  V30 7623 H 749.17 2.95274 -2.27253 0
M  V30 7624 H 749.283 2.48312 -4.09729 0
M  V30 7625 H 747.647 1.40188 -2.12649 0
M  V30 7626 H 748.43 0.338793 -3.41624 0
M  V30 7627 N 750.875 1.45233 0.611969 0
M  V30 7628 C 751.805 1.5641 1.73373 0
M  V30 7629 C 752.786 0.415896 1.64937 0
M  V30 7630 O 753.971 0.638478 1.83404 0
M  V30 7631 C 751.101 1.52627 3.11965 0
M  V30 7632 C 750.055 2.66119 3.35208 0
M  V30 7633 C 749.381 2.4739 4.74028 0
M  V30 7634 C 750.681 4.08157 3.25891 0
M  V30 7635 H 752.375 2.50307 1.64277 0
M  V30 7636 H 749.921 1.20467 0.788904 0
M  V30 7637 H 751.874 1.59043 3.90235 0
M  V30 7638 H 750.598 0.552564 3.21892 0
M  V30 7639 H 749.257 2.59123 2.59327 0
M  V30 7640 H 748.905 1.48168 4.80682 0
M  V30 7641 H 748.605 3.23494 4.90536 0
M  V30 7642 H 750.129 2.55653 5.54503 0
M  V30 7643 H 751.543 4.1642 3.9404 0
M  V30 7644 H 749.94 4.84617 3.5393 0
M  V30 7645 H 751.01 4.30374 2.23397 0
M  V30 7646 N 752.353 -0.854086 1.3245 0
M  V30 7647 C 753.578 -1.64597 1.26185 0
M  V30 7648 C 754.003 -1.87357 -0.167074 0
M  V30 7649 O 753.361 -1.42675 -1.11864 0
M  V30 7650 C 753.409 -2.98213 2.02734 0
M  V30 7651 O 752.513 -3.88784 1.37554 0
M  V30 7652 H 751.854 -0.50179 0.434859 0
M  V30 7653 H 754.384 -1.06372 1.74775 0
M  V30 7654 H 754.394 -3.4803 2.1293 0
M  V30 7655 H 753.069 -2.80969 3.06642 0
M  V30 7656 H 751.646 -3.4725 1.3591 0
M  V30 7657 N 753.831 -1.1567 -1.07043 0
M  V30 7658 C 754.741 -0.870435 -2.17855 0
M  V30 7659 C 755.757 0.154452 -1.73313 0
M  V30 7660 O 756.933 -0.0203759 -2.0139 0
M  V30 7661 C 753.998 -0.367219 -3.4475 0
M  V30 7662 C 753.059 -1.45639 -4.03841 0
M  V30 7663 C 752.292 -0.977092 -5.2468 0
M  V30 7664 O 752.515 0.176127 -5.70128 0
M  V30 7665 O 751.449 -1.76215 -5.75527 0
M  V30 7666 H 755.275 -1.79687 -2.44839 0
M  V30 7667 H 752.86 -0.936064 -1.1644 0
M  V30 7668 H 754.742 -0.0931947 -4.21297 0
M  V30 7669 H 753.417 0.53131 -3.1931 0
M  V30 7670 H 752.324 -1.78406 -3.28819 0
M  V30 7671 H 753.657 -2.32995 -4.3356 0
M  V30 7672 N 755.309 1.25446 -0.953992 0
M  V30 7673 C 756.537 1.97215 -0.625595 0
M  V30 7674 C 756.952 1.70911 0.802168 0
M  V30 7675 O 756.309 0.984782 1.5365 0
M  V30 7676 C 756.36 3.50777 -0.873943 0
M  V30 7677 O 756.081 3.76173 -2.24556 0
M  V30 7678 C 757.582 4.39776 -0.557845 0
M  V30 7679 H 754.802 0.628652 -0.2346 0
M  V30 7680 H 757.346 1.59632 -1.27819 0
M  V30 7681 H 755.501 3.86474 -0.267765 0
M  V30 7682 H 755.915 4.70636 -2.31522 0
M  V30 7683 H 757.389 5.46431 -0.782157 0
M  V30 7684 H 757.866 4.36257 0.507573 0
M  V30 7685 H 758.472 4.09644 -1.14332 0
M  V30 7686 N 756.787 0.722489 1.40064 0
M  V30 7687 C 757.697 0.0755984 2.34478 0
M  V30 7688 C 758.713 -0.736046 1.57665 0
M  V30 7689 O 759.889 -0.667407 1.9002 0
M  V30 7690 C 756.954 -0.830075 3.36616 0
M  V30 7691 C 756.015 -0.00759884 4.29299 0
M  V30 7692 C 755.248 -0.870139 5.26559 0
M  V30 7693 O 755.471 -2.10921 5.2997 0
M  V30 7694 O 754.405 -0.305454 6.01124 0
M  V30 7695 H 758.231 0.854545 2.9143 0
M  V30 7696 H 755.816 0.483032 1.41376 0
M  V30 7697 H 757.698 -1.34864 3.99236 0
M  V30 7698 H 756.373 -1.58805 2.82069 0
M  V30 7699 H 755.28 0.556199 3.69942 0
M  V30 7700 H 756.613 0.712312 4.87018 0
M  V30 7701 N 758.265 -1.50454 0.469181 0
M  V30 7702 C 759.198 -2.25149 -0.371928 0
M  V30 7703 C 760.176 -1.28382 -0.997845 0
M  V30 7704 O 761.36 -1.57599 -1.03415 0
M  V30 7705 C 758.487 -3.02629 -1.52097 0
M  V30 7706 C 757.533 -4.14305 -1.01262 0
M  V30 7707 S 758.366 -5.35453 0.0711459 0
M  V30 7708 C 759.522 -6.1648 -1.08181 0
M  V30 7709 H 759.755 -2.96142 0.262134 0
M  V30 7710 H 757.288 -1.52296 0.254042 0
M  V30 7711 H 759.246 -3.47861 -2.17952 0
M  V30 7712 H 757.907 -2.31165 -2.12654 0
M  V30 7713 H 757.1 -4.67913 -1.87278 0
M  V30 7714 H 756.702 -3.71499 -0.431804 0
M  V30 7715 H 758.994 -6.47497 -1.99382 0
M  V30 7716 H 759.937 -7.05679 -0.585028 0
M  V30 7717 H 760.345 -5.48492 -1.33478 0
M  V30 7718 N 759.743 -0.201713 -1.56304 0
M  V30 7719 C 760.706 0.702811 -2.18159 0
M  V30 7720 C 761.706 1.13619 -1.13787 0
M  V30 7721 O 762.896 1.0482 -1.39134 0
M  V30 7722 C 760.028 1.96032 -2.78898 0
M  V30 7723 H 761.221 0.163836 -2.99452 0
M  V30 7724 H 758.774 0.04791 -1.56227 0
M  V30 7725 H 759.509 2.54165 -2.01421 0
M  V30 7726 H 759.294 1.65824 -3.55309 0
M  V30 7727 H 760.784 2.60519 -3.26373 0
M  V30 7728 N 761.222 1.57436 0.0718424 0
M  V30 7729 C 762.152 2.06724 1.08571 0
M  V30 7730 C 763.133 0.960731 1.40371 0
M  V30 7731 O 764.318 1.23345 1.49999 0
M  V30 7732 C 761.448 2.51112 2.39916 0
M  V30 7733 C 760.402 3.65639 2.22469 0
M  V30 7734 C 759.728 3.96082 3.59198 0
M  V30 7735 C 761.028 4.95687 1.64596 0
M  V30 7736 H 762.722 2.91679 0.675569 0
M  V30 7737 H 760.268 1.40319 0.32352 0
M  V30 7738 H 762.221 2.84206 3.11135 0
M  V30 7739 H 760.945 1.63186 2.8291 0
M  V30 7740 H 759.604 3.32828 1.53691 0
M  V30 7741 H 759.252 3.05287 3.99761 0
M  V30 7742 H 758.952 4.73199 3.48362 0
M  V30 7743 H 760.476 4.31672 4.31847 0
M  V30 7744 H 761.89 5.27011 2.25681 0
M  V30 7745 H 760.287 5.77126 1.64457 0
M  V30 7746 H 761.357 4.8108 0.60744 0
M  V30 7747 N 762.7 -0.34323 1.53817 0
M  V30 7748 C 763.948 -1.0813 1.70741 0
M  V30 7749 C 764.269 -1.89165 0.473461 0
M  V30 7750 O 763.539 -1.89075 -0.512605 0
M  V30 7751 H 762.119 -0.40219 0.629486 0
M  V30 7752 H 764.781 -0.384426 1.91071 0
M  V30 7753 H 763.877 -1.7585 2.57843 0
M  V30 7754 N 764.178 -1.45556 -0.604258 0
M  V30 7755 C 765.125 -1.54482 -1.71476 0
M  V30 7756 C 766.095 -0.390479 -1.61445 0
M  V30 7757 O 767.28 -0.604371 -1.80975 0
M  V30 7758 C 764.42 -1.52064 -3.09791 0
M  V30 7759 C 763.533 -2.78073 -3.30604 0
M  V30 7760 C 762.668 -2.67304 -4.59044 0
M  V30 7761 C 761.707 -3.88352 -4.73127 0
M  V30 7762 N 760.844 -3.76098 -5.9287 0
M  V30 7763 H 765.684 -2.49349 -1.63184 0
M  V30 7764 H 763.221 -1.23725 -0.795641 0
M  V30 7765 H 765.179 -1.48649 -3.89819 0
M  V30 7766 H 763.809 -0.607442 -3.17033 0
M  V30 7767 H 762.861 -2.91561 -2.44329 0
M  V30 7768 H 764.173 -3.67847 -3.36883 0
M  V30 7769 H 763.327 -2.61875 -5.47272 0
M  V30 7770 H 762.066 -1.75135 -4.55169 0
M  V30 7771 H 761.071 -3.94137 -3.83322 0
M  V30 7772 H 762.296 -4.81591 -4.78797 0
M  V30 7773 H 760.242 -2.867 -5.90033 0
M  V30 7774 H 760.159 -4.59509 -6.00323 0
M  V30 7775 H 761.427 -3.74607 -6.83586 0
M  V30 7776 N 765.656 0.84705 -1.32902 0
M  V30 7777 C 766.933 1.58583 -1.14503 0
M  V30 7778 C 767.313 2.09075 0.291724 0
M  V30 7779 O 766.661 1.88636 1.28952 0
M  V30 7780 C 766.871 2.72605 -2.17916 0
M  V30 7781 C 768.219 3.41993 -2.51646 0
M  V30 7782 O 769.243 2.82838 -2.1652 0
M  V30 7783 O 768.102 4.48761 -3.1189 0
M  V30 7784 H 765.196 0.698756 -0.442345 0
M  V30 7785 H 767.742 0.890516 -1.44457 0
M  V30 7786 H 766.514 2.32876 -3.14459 0
M  V30 7787 H 766.137 3.49807 -1.89 0
M  V30 7788 N 767.134 1.16236 1.06428 0
M  V30 7789 C 768.38 0.944431 1.79467 0
M  V30 7790 C 768.713 -0.526558 1.86925 0
M  V30 7791 O 767.988 -1.39061 1.35986 0
M  V30 7792 C 768.271 1.57092 3.24028 0
M  V30 7793 C 768.124 3.11315 3.24658 0
M  V30 7794 C 769.443 1.26447 4.21544 0
M  V30 7795 H 766.562 0.344521 0.651517 0
M  V30 7796 H 769.204 1.43545 1.24478 0
M  V30 7797 H 767.354 1.15337 3.70985 0
M  V30 7798 H 769.026 3.62042 2.85873 0
M  V30 7799 H 767.269 3.44716 2.6335 0
M  V30 7800 H 767.94 3.50269 4.26633 0
M  V30 7801 H 770.416 1.62581 3.83023 0
M  V30 7802 H 769.292 1.72885 5.20963 0
M  V30 7803 H 769.553 0.183068 4.41721 0
M  V30 7804 N 768.612 -1.24939 0.960631 0
M  V30 7805 C 769.84 -1.96881 0.636045 0
M  V30 7806 C 770.255 -1.71334 -0.793093 0
M  V30 7807 O 769.612 -0.992917 -1.53125 0
M  V30 7808 C 769.663 -3.50309 0.892533 0
M  V30 7809 O 769.384 -3.74977 2.26548 0
M  V30 7810 C 770.885 -4.39474 0.581159 0
M  V30 7811 H 768.105 -0.627399 0.237931 0
M  V30 7812 H 770.649 -1.58952 1.28664 0
M  V30 7813 H 768.804 -3.86326 0.288257 0
M  V30 7814 H 769.218 -4.69401 2.34014 0
M  V30 7815 H 770.692 -5.46008 0.811125 0
M  V30 7816 H 771.169 -4.3652 -0.48443 0
M  V30 7817 H 771.775 -4.09032 1.16502 0
M  V30 7818 N 770.09 -0.729906 -1.39679 0
M  V30 7819 C 771.501 -0.346241 -1.83461 0
M  V30 7820 C 771.852 1.1215 -1.60987 0
M  V30 7821 O 770.977 1.86456 -1.09832 0
M  V30 7822 C 771.572 -0.621656 -3.33048 0
M  V30 7823 C 770.131 -0.291543 -3.75269 0
M  V30 7824 C 769.278 -0.886844 -2.62736 0
M  V30 7825 H 772.229 -0.927949 -1.28743 0
M  V30 7826 H 772.25 0.108301 -3.80346 0
M  V30 7827 H 771.762 -1.68996 -3.49373 0
M  V30 7828 H 769.863 0.771133 -3.64533 0
M  V30 7829 H 769.976 -0.770544 -4.72863 0
M  V30 7830 H 768.34 -0.313839 -2.52759 0
M  V30 7831 H 769.123 -1.95971 -2.81869 0
M  V30 7832 N 771.568 1.50203 -0.477153 0
M  V30 7833 C 772.979 1.86685 -0.0235041 0
M  V30 7834 C 773.33 1.39148 1.38319 0
M  V30 7835 O 772.455 0.759051 2.02651 0
M  V30 7836 C 773.05 3.38781 -0.0358767 0
M  V30 7837 C 771.609 3.74652 0.362327 0
M  V30 7838 C 770.756 2.7412 -0.41875 0
M  V30 7839 H 773.707 1.4286 -0.691133 0
M  V30 7840 H 773.728 3.72732 0.764924 0
M  V30 7841 H 773.24 3.73349 -1.05981 0
M  V30 7842 H 771.341 3.45686 1.39039 0
M  V30 7843 H 771.454 4.79063 0.059457 0
M  V30 7844 H 769.818 2.54376 0.128341 0
M  V30 7845 H 770.601 3.11532 -1.44231 0
M  V30 7846 N 773.046 0.209999 1.56195 0
M  V30 7847 C 774.457 -0.299943 1.84275 0
M  V30 7848 C 774.808 -1.60314 1.1311 0
M  V30 7849 O 773.933 -2.1273 0.396874 0
M  V30 7850 C 774.528 -0.550986 3.3429 0
M  V30 7851 C 773.087 -1.00526 3.62728 0
M  V30 7852 C 772.234 -0.0619828 2.77231 0
M  V30 7853 H 775.185 0.433458 1.52666 0
M  V30 7854 H 775.206 -1.39846 3.53869 0
M  V30 7855 H 774.718 0.397669 3.86057 0
M  V30 7856 H 772.819 -1.96768 3.16407 0
M  V30 7857 H 772.932 -0.887664 4.70805 0
M  V30 7858 H 771.296 -0.566648 2.48317 0
M  V30 7859 H 772.079 0.881383 3.31793 0
M  V30 7860 N 774.524 -1.57472 -0.0634922 0
M  V30 7861 C 775.434 -2.07621 -1.09227 0
M  V30 7862 C 776.45 -1.00746 -1.41867 0
M  V30 7863 O 777.626 -1.32269 -1.51878 0
M  V30 7864 C 774.691 -2.51707 -2.38421 0
M  V30 7865 C 773.752 -3.72917 -2.12676 0
M  V30 7866 C 772.985 -4.14891 -3.3571 0
M  V30 7867 O 773.208 -3.56663 -4.45137 0
M  V30 7868 O 772.142 -5.07616 -3.23434 0
M  V30 7869 H 775.968 -2.95612 -0.696205 0
M  V30 7870 H 773.553 -1.46787 -0.27819 0
M  V30 7871 H 775.435 -2.80547 -3.14438 0
M  V30 7872 H 774.11 -1.66842 -2.77391 0
M  V30 7873 H 773.017 -3.49148 -1.34337 0
M  V30 7874 H 774.35 -4.5866 -1.78583 0
M  V30 7875 N 776.003 0.335068 -1.53997 0
M  V30 7876 C 777.231 1.09418 -1.756 0
M  V30 7877 C 777.646 1.82083 -0.499138 0
M  V30 7878 O 777.003 1.74646 0.529631 0
M  V30 7879 C 777.054 2.10115 -2.94166 0
M  V30 7880 O 776.775 1.40404 -4.14992 0
M  V30 7881 C 778.276 2.98336 -3.27888 0
M  V30 7882 H 775.496 0.32595 -0.586513 0
M  V30 7883 H 778.04 0.384693 -2.00849 0
M  V30 7884 H 776.195 2.76616 -2.71224 0
M  V30 7885 H 776.609 2.07743 -4.81605 0
M  V30 7886 H 778.083 3.6491 -4.1418 0
M  V30 7887 H 778.56 3.64814 -2.44556 0
M  V30 7888 H 779.166 2.37412 -3.52868 0
M  V30 7889 N 777.481 1.45874 0.596531 0
M  V30 7890 C 778.391 1.57947 1.73464 0
M  V30 7891 C 779.407 0.463461 1.67714 0
M  V30 7892 O 780.583 0.725685 1.87872 0
M  V30 7893 C 777.648 1.55348 3.09948 0
M  V30 7894 C 776.709 2.78074 3.27068 0
M  V30 7895 C 775.942 2.75589 4.57041 0
M  V30 7896 O 776.165 1.83545 5.40063 0
M  V30 7897 O 775.099 3.66945 4.77111 0
M  V30 7898 H 778.925 2.54169 1.66228 0
M  V30 7899 H 776.51 1.2851 0.76194 0
M  V30 7900 H 778.392 1.56545 3.91244 0
M  V30 7901 H 777.067 0.622811 3.17652 0
M  V30 7902 H 775.974 2.82435 2.45319 0
M  V30 7903 H 777.307 3.70303 3.24248 0
M  V30 7904 N 778.959 -0.83999 1.33349 0
M  V30 7905 C 780.205 -1.59753 1.24927 0
M  V30 7906 C 780.538 -1.93318 -0.184855 0
M  V30 7907 O 779.813 -1.586 -1.12589 0
M  V30 7908 C 780.096 -2.90829 2.12345 0
M  V30 7909 C 779.949 -2.63953 3.6421 0
M  V30 7910 C 781.268 -3.92246 1.99577 0
M  V30 7911 H 778.387 -0.579654 0.45516 0
M  V30 7912 H 781.029 -0.968909 1.63439 0
M  V30 7913 H 779.179 -3.44478 1.79631 0
M  V30 7914 H 780.851 -2.16745 4.07209 0
M  V30 7915 H 779.094 -1.97671 3.86146 0
M  V30 7916 H 779.765 -3.57348 4.20721 0
M  V30 7917 H 782.241 -3.479 2.28265 0
M  V30 7918 H 781.117 -4.81793 2.62996 0
M  V30 7919 H 781.378 -4.3138 0.967673 0
M  V30 7920 N 780.437 -1.16799 -1.0581 0
M  V30 7921 C 781.683 -0.953935 -1.78963 0
M  V30 7922 C 782.016 0.516638 -1.87202 0
M  V30 7923 O 781.291 1.38338 -1.36721 0
M  V30 7924 C 781.574 -1.58808 -3.23191 0
M  V30 7925 C 781.427 -3.13032 -3.23003 0
M  V30 7926 C 782.746 -1.2868 -4.20867 0
M  V30 7927 H 779.865 -0.347972 -0.64968 0
M  V30 7928 H 782.507 -1.44204 -1.23715 0
M  V30 7929 H 780.657 -1.17303 -3.70368 0
M  V30 7930 H 782.329 -3.63553 -2.83949 0
M  V30 7931 H 780.572 -3.46108 -2.61518 0
M  V30 7932 H 781.243 -3.52527 -4.24769 0
M  V30 7933 H 783.719 -1.6461 -3.82155 0
M  V30 7934 H 782.595 -1.75645 -5.20038 0
M  V30 7935 H 782.856 -0.206491 -4.41618 0
M  V30 7936 N 781.915 1.24427 -0.967243 0
M  V30 7937 C 782.845 2.2773 -0.515899 0
M  V30 7938 C 783.826 1.64197 0.444227 0
M  V30 7939 O 785.011 1.91193 0.340451 0
M  V30 7940 C 782.141 3.46751 0.195149 0
M  V30 7941 C 781.095 4.22548 -0.680953 0
M  V30 7942 C 780.421 5.34456 0.161561 0
M  V30 7943 C 781.721 4.83914 -1.96532 0
M  V30 7944 H 783.415 2.65735 -1.37933 0
M  V30 7945 H 780.961 1.27742 -0.664681 0
M  V30 7946 H 782.914 4.18153 0.522117 0
M  V30 7947 H 781.638 3.07771 1.09292 0
M  V30 7948 H 780.297 3.52946 -0.991186 0
M  V30 7949 H 779.945 4.91716 1.05947 0
M  V30 7950 H 779.645 5.86087 -0.421418 0
M  V30 7951 H 781.169 6.08685 0.483211 0
M  V30 7952 H 782.583 5.47392 -1.70396 0
M  V30 7953 H 780.98 5.45775 -2.49499 0
M  V30 7954 H 782.05 4.05393 -2.66053 0
M  V30 7955 N 783.393 0.737304 1.3929 0
M  V30 7956 C 784.642 0.283129 1.99703 0
M  V30 7957 C 784.955 -1.13677 1.59176 0
M  V30 7958 O 786.161 -1.69058 2.12442 0
M  V30 7959 C 784.617 0.455262 3.57009 0
M  V30 7960 C 784.225 1.88319 4.06497 0
M  V30 7961 C 785.969 0.0629786 4.24453 0
M  V30 7962 C 783.876 2.00475 5.56385 0
M  V30 7963 H 782.806 0.102106 0.747054 0
M  V30 7964 H 785.457 0.911515 1.5926 0
M  V30 7965 H 783.839 -0.242057 3.9526 0
M  V30 7966 H 785.013 2.61265 3.79575 0
M  V30 7967 H 783.328 2.2289 3.51723 0
M  V30 7968 H 785.925 0.132787 5.34535 0
M  V30 7969 H 786.268 -0.982128 4.04549 0
M  V30 7970 H 786.801 0.71154 3.91385 0
M  V30 7971 H 783.54 3.03182 5.81172 0
M  V30 7972 H 783.06 1.31969 5.85102 0
M  V30 7973 H 784.739 1.787 6.21832 0
M  V30 7974 N 784.871 -1.49948 0.485112 0
M  V30 7975 C 785.818 -2.28819 -0.301729 0
M  V30 7976 C 786.788 -1.34496 -0.974683 0
M  V30 7977 O 787.973 -1.63444 -0.984418 0
M  V30 7978 C 785.113 -3.16758 -1.36961 0
M  V30 7979 C 784.226 -4.26125 -0.710027 0
M  V30 7980 C 783.361 -5.01302 -1.75699 0
M  V30 7981 C 782.4 -6.02525 -1.07841 0
M  V30 7982 N 781.537 -6.70927 -2.06886 0
M  V30 7983 H 786.377 -2.95604 0.377127 0
M  V30 7984 H 783.914 -1.45764 0.197826 0
M  V30 7985 H 785.872 -3.66106 -2.00056 0
M  V30 7986 H 784.502 -2.51991 -2.01744 0
M  V30 7987 H 783.554 -3.80385 0.0338278 0
M  V30 7988 H 784.866 -4.98493 -0.175079 0
M  V30 7989 H 784.02 -5.54438 -2.46339 0
M  V30 7990 H 782.759 -4.28672 -2.32577 0
M  V30 7991 H 781.764 -5.48635 -0.357706 0
M  V30 7992 H 782.989 -6.77134 -0.516345 0
M  V30 7993 H 780.935 -6.01079 -2.62755 0
M  V30 7994 H 780.852 -7.39216 -1.58414 0
M  V30 7995 H 782.12 -7.28675 -2.76863 0
M  V30 7996 N 786.349 -0.21828 -1.56081 0
M  V30 7997 C 787.297 0.709679 -2.21509 0
M  V30 7998 C 788.291 1.20221 -1.19346 0
M  V30 7999 O 789.497 1.16241 -1.37433 0
M  V30 8000 H 785.872 0.247271 -0.710184 0
M  V30 8001 H 787.843 0.134386 -2.98097 0
M  V30 8002 C 786.592 1.90853 -2.90638 0
M  V30 8003 H 785.915 1.53865 -3.69006 0
M  V30 8004 H 787.355 2.53568 -3.39822 0
M  V30 8005 C 785.814 2.76189 -1.92929 0
M  V30 8006 O 786.344 3.74842 -1.44416 0
M  V30 8007 N 784.55 2.42157 -1.6065 0
M  V30 8008 H 784.097 1.61987 -2.00294 0
M  V30 8009 H 784.055 2.99534 -0.955347 0
M  V30 8010 N 787.827 1.57504 0.0551401 0
M  V30 8011 C 789.073 1.88334 0.752216 0
M  V30 8012 C 789.406 0.812742 1.76375 0
M  V30 8013 O 788.681 -0.175198 1.93709 0
M  V30 8014 C 788.964 3.29824 1.44528 0
M  V30 8015 C 788.817 4.47553 0.449026 0
M  V30 8016 C 790.136 3.69808 2.38601 0
M  V30 8017 H 787.255 0.684973 0.271995 0
M  V30 8018 H 789.897 1.89994 0.0151895 0
M  V30 8019 H 788.047 3.28539 2.07351 0
M  V30 8020 H 789.719 4.60967 -0.175277 0
M  V30 8021 H 787.962 4.33168 -0.234162 0
M  V30 8022 H 788.633 5.43376 0.971917 0
M  V30 8023 H 791.109 3.72293 1.85842 0
M  V30 8024 H 789.985 4.69665 2.84088 0
M  V30 8025 H 790.246 3.00641 3.24141 0
M  V30 8026 N 789.305 -0.326896 1.54172 0
M  V30 8027 C 790.545 -1.07349 1.73941 0
M  V30 8028 C 790.909 -1.85355 0.50075 0
M  V30 8029 O 792.11 -2.62562 0.575731 0
M  V30 8030 C 790.381 -1.97636 2.97783 0
M  V30 8031 S 791.94 -2.79292 3.3844 0
M  V30 8032 H 788.758 -0.362459 0.611673 0
M  V30 8033 H 791.36 -0.349884 1.92344 0
M  V30 8034 H 790.064 -1.39158 3.86087 0
M  V30 8035 H 789.595 -2.74406 2.81895 0
M  V30 8036 H 791.61 -4.00106 2.93478 0
M  V30 8037 N 790.784 -1.46188 -0.588786 0
M  V30 8038 C 791.714 -1.59148 -1.70863 0
M  V30 8039 C 792.695 -0.442083 -1.64255 0
M  V30 8040 O 793.88 -0.667575 -1.82365 0
M  V30 8041 C 791.01 -1.5757 -3.09498 0
M  V30 8042 C 789.964 -2.71418 -3.30932 0
M  V30 8043 C 789.29 -2.549 -4.70032 0
M  V30 8044 C 790.59 -4.1329 -3.19356 0
M  V30 8045 H 792.284 -2.52889 -1.60274 0
M  V30 8046 H 789.83 -1.21707 -0.769638 0
M  V30 8047 H 791.783 -1.65231 -3.87655 0
M  V30 8048 H 790.507 -0.603705 -3.20972 0
M  V30 8049 H 789.166 -2.63216 -2.55172 0
M  V30 8050 H 788.814 -1.55797 -4.78264 0
M  V30 8051 H 788.514 -3.31257 -4.85327 0
M  V30 8052 H 790.038 -2.64443 -5.50366 0
M  V30 8053 H 791.452 -4.22636 -3.87365 0
M  V30 8054 H 789.849 -4.90187 -3.46175 0
M  V30 8055 H 790.919 -4.33874 -2.16522 0
M  V30 8056 N 792.262 0.832906 -1.33792 0
M  V30 8057 C 793.673 1.40489 -1.22963 0
M  V30 8058 C 794.024 1.95633 0.149026 0
M  V30 8059 O 793.149 1.8928 1.04891 0
M  V30 8060 C 793.744 2.55387 -2.22627 0
M  V30 8061 C 792.303 3.08522 -2.15618 0
M  V30 8062 C 791.45 1.81347 -2.09782 0
M  V30 8063 H 794.401 0.638156 -1.45304 0
M  V30 8064 H 794.422 3.33193 -1.83746 0
M  V30 8065 H 793.934 2.15222 -3.22957 0
M  V30 8066 H 792.035 3.53217 -1.18611 0
M  V30 8067 H 792.148 3.6829 -3.0643 0
M  V30 8068 H 790.512 2.01839 -1.55349 0
M  V30 8069 H 791.295 1.43369 -3.1193 0
M  V30 8070 N 793.74 1.17359 1.05189 0
M  V30 8071 C 795.151 0.96793 1.5965 0
M  V30 8072 C 795.502 -0.485355 1.90102 0
M  V30 8073 O 794.627 -1.36066 1.6827 0
M  V30 8074 C 795.222 1.75068 2.90063 0
M  V30 8075 C 793.781 1.58969 3.41183 0
M  V30 8076 C 792.928 1.75231 2.14917 0
M  V30 8077 H 795.879 1.32067 0.880001 0
M  V30 8078 H 795.9 1.23308 3.59966 0
M  V30 8079 H 795.412 2.80835 2.67868 0
M  V30 8080 H 793.513 0.556906 3.68415 0
M  V30 8081 H 793.626 2.38067 4.15766 0
M  V30 8082 H 791.99 1.18073 2.25679 0
M  V30 8083 H 792.773 2.8241 1.95191 0
M  V30 8084 N 795.218 -1.23913 0.973828 0
M  V30 8085 C 796.128 -2.28838 0.516735 0
M  V30 8086 C 797.144 -1.68723 -0.425282 0
M  V30 8087 O 798.32 -1.99201 -0.296819 0
M  V30 8088 C 795.385 -3.46233 -0.179914 0
M  V30 8089 C 794.446 -4.21729 0.80269 0
M  V30 8090 C 793.679 -5.33518 0.139191 0
M  V30 8091 O 793.902 -5.60252 -1.07118 0
M  V30 8092 O 792.836 -5.96088 0.834447 0
M  V30 8093 H 796.662 -2.70067 1.38916 0
M  V30 8094 H 794.247 -1.2972 0.74115 0
M  V30 8095 H 796.129 -4.17514 -0.570991 0
M  V30 8096 H 794.804 -3.06969 -1.02721 0
M  V30 8097 H 793.711 -3.52799 1.24434 0
M  V30 8098 H 795.044 -4.64825 1.61859 0
M  V30 8099 N 796.696 -0.74468 -1.38897 0
M  V30 8100 C 797.629 -0.0596441 -2.28122 0
M  V30 8101 C 798.607 0.73764 -1.44906 0
M  V30 8102 O 799.791 0.718155 -1.74284 0
M  V30 8103 C 796.918 0.922533 -3.25894 0
M  V30 8104 C 795.964 0.212566 -4.2597 0
M  V30 8105 S 796.797 -1.08035 -5.24489 0
M  V30 8106 C 797.953 -0.101014 -6.25818 0
M  V30 8107 H 798.186 -0.816289 -2.85874 0
M  V30 8108 H 795.719 -0.536882 -1.44765 0
M  V30 8109 H 797.677 1.4839 -3.82741 0
M  V30 8110 H 796.338 1.65209 -2.67142 0
M  V30 8111 H 795.531 0.956106 -4.94848 0
M  V30 8112 H 795.133 -0.277029 -3.72973 0
M  V30 8113 H 797.425 0.736072 -6.7349 0
M  V30 8114 H 798.368 -0.757206 -7.0404 0
M  V30 8115 H 798.776 0.275706 -5.63826 0
M  V30 8116 N 798.174 1.49689 -0.493057 0
M  V30 8117 C 799.084 2.32746 0.294358 0
M  V30 8118 C 800.1 1.44117 0.975003 0
M  V30 8119 O 801.276 1.77149 0.958138 0
M  V30 8120 C 798.341 3.19358 1.34949 0
M  V30 8121 C 797.402 4.2383 0.683122 0
M  V30 8122 C 796.635 5.06303 1.68798 0
M  V30 8123 O 796.858 4.90172 2.91698 0
M  V30 8124 O 795.792 5.88826 1.24768 0
M  V30 8125 H 799.618 3.01247 -0.385254 0
M  V30 8126 H 797.203 1.47216 -0.254519 0
M  V30 8127 H 799.085 3.73037 1.96014 0
M  V30 8128 H 797.76 2.53561 2.01217 0
M  V30 8129 H 796.667 3.74086 0.0329351 0
M  V30 8130 H 798 4.9216 0.0630192 0
M  V30 8131 N 799.652 0.226554 1.55963 0
M  V30 8132 C 800.898 -0.404387 1.98727 0
M  V30 8133 C 801.231 -1.59059 1.11418 0
M  V30 8134 O 800.506 -1.93729 0.172971 0
M  V30 8135 C 800.789 -0.834081 3.50307 0
M  V30 8136 C 800.642 0.356104 4.48388 0
M  V30 8137 C 801.961 -1.68845 4.06423 0
M  V30 8138 H 799.08 -0.145515 0.722492 0
M  V30 8139 H 801.722 0.323791 1.87221 0
M  V30 8140 H 799.872 -1.45454 3.60244 0
M  V30 8141 H 801.544 0.99432 4.50456 0
M  V30 8142 H 799.787 1.0027 4.22053 0
M  V30 8143 H 800.458 0.0124333 5.51999 0
M  V30 8144 H 802.934 -1.16489 3.99461 0
M  V30 8145 H 801.81 -1.958 5.1279 0
M  V30 8146 H 802.071 -2.65347 3.53615 0
M  V30 8147 N 801.13 -1.57531 -0.0467866 0
M  V30 8148 C 802.093 -2.04379 -1.03738 0
M  V30 8149 C 803.093 -0.944881 -1.3011 0
M  V30 8150 O 804.283 -1.20904 -1.25411 0
M  V30 8151 C 801.415 -2.44572 -2.37482 0
M  V30 8152 H 802.608 -2.93142 -0.633063 0
M  V30 8153 H 800.161 -1.53526 -0.293177 0
M  V30 8154 H 800.896 -1.58911 -2.82697 0
M  V30 8155 H 800.681 -3.24785 -2.19675 0
M  V30 8156 H 802.171 -2.81307 -3.08636 0
M  V30 8157 N 802.608 0.318715 -1.54344 0
M  V30 8158 C 803.538 1.39751 -1.87061 0
M  V30 8159 C 804.519 1.53741 -0.727848 0
M  V30 8160 O 805.704 1.67541 -0.982016 0
M  V30 8161 C 802.834 2.76446 -2.10226 0
M  V30 8162 C 801.788 2.77239 -3.26071 0
M  V30 8163 C 801.114 4.17056 -3.34617 0
M  V30 8164 C 802.414 2.40555 -4.63606 0
M  V30 8165 H 804.108 1.12619 -2.77412 0
M  V30 8166 H 801.654 0.540318 -1.33479 0
M  V30 8167 H 803.607 3.51985 -2.31699 0
M  V30 8168 H 802.331 3.05066 -1.16629 0
M  V30 8169 H 800.99 2.04155 -3.04493 0
M  V30 8170 H 800.638 4.42824 -2.3857 0
M  V30 8171 H 800.338 4.18492 -4.12478 0
M  V30 8172 H 801.862 4.94401 -3.5833 0
M  V30 8173 H 803.276 3.05808 -4.84927 0
M  V30 8174 H 801.673 2.53234 -5.44052 0
M  V30 8175 H 802.743 1.35698 -4.65526 0
M  V30 8176 N 804.086 1.46499 0.581025 0
M  V30 8177 C 805.314 1.5547 1.36517 0
M  V30 8178 C 805.729 0.196407 1.87776 0
M  V30 8179 O 805.086 -0.806577 1.63709 0
M  V30 8180 C 805.137 2.56084 2.55154 0
M  V30 8181 O 804.858 3.86637 2.06018 0
M  V30 8182 C 806.359 2.75011 3.47683 0
M  V30 8183 H 803.579 0.525703 0.416986 0
M  V30 8184 H 806.123 1.9192 0.706177 0
M  V30 8185 H 804.278 2.22633 3.17039 0
M  V30 8186 H 804.692 4.41413 2.83292 0
M  V30 8187 H 806.166 3.49329 4.27403 0
M  V30 8188 H 806.643 1.81978 3.99726 0
M  V30 8189 H 807.249 3.09565 2.91632 0
M  V30 8190 N 805.565 -0.825799 1.34232 0
M  V30 8191 C 806.475 -1.9684 1.27638 0
M  V30 8192 C 807.491 -1.73018 0.184569 0
M  V30 8193 O 808.667 -1.97172 0.410525 0
M  V30 8194 C 805.732 -3.31084 1.02879 0
M  V30 8195 C 804.793 -3.67933 2.21188 0
M  V30 8196 C 804.026 -4.95772 1.976 0
M  V30 8197 O 804.249 -5.62721 0.93281 0
M  V30 8198 O 803.183 -5.30431 2.84477 0
M  V30 8199 H 807.009 -2.05346 2.23756 0
M  V30 8200 H 804.594 -0.960772 1.1441 0
M  V30 8201 H 806.476 -4.11492 0.908406 0
M  V30 8202 H 805.151 -3.23552 0.0979821 0
M  V30 8203 H 804.058 -2.87981 2.38784 0
M  V30 8204 H 805.391 -3.80147 3.12648 0
M  V30 8205 N 807.043 -1.17915 -1.04565 0
M  V30 8206 C 808.32 -0.881187 -1.74627 0
M  V30 8207 C 808.7 0.617123 -2.01878 0
M  V30 8208 O 808.048 1.57032 -1.65991 0
M  V30 8209 C 808.258 -1.72299 -3.03503 0
M  V30 8210 C 809.606 -1.94688 -3.77335 0
M  V30 8211 O 810.63 -1.6931 -3.13389 0
M  V30 8212 O 809.489 -2.37379 -4.92253 0
M  V30 8213 H 806.583 -0.326864 -0.759664 0
M  V30 8214 H 809.129 -1.28642 -1.10676 0
M  V30 8215 H 807.901 -2.73891 -2.79462 0
M  V30 8216 H 807.524 -1.31593 -3.75192 0
M  V30 8217 N 808.521 1.23394 -0.980386 0
M  V30 8218 C 809.453 2.24146 -0.478657 0
M  V30 8219 C 810.466 1.57303 0.419492 0
M  V30 8220 O 811.655 1.77094 0.223631 0
M  V30 8221 C 808.755 3.3732 0.326913 0
M  V30 8222 C 807.928 4.33744 -0.56436 0
M  V30 8223 C 806.987 5.25866 0.187358 0
M  V30 8224 O 806.013 5.67626 -0.423019 0
M  V30 8225 N 807.215 5.61492 1.47335 0
M  V30 8226 H 809.98 2.67826 -1.34496 0
M  V30 8227 H 807.541 1.37566 -0.853653 0
M  V30 8228 H 809.533 3.95926 0.838148 0
M  V30 8229 H 808.103 2.92823 1.09422 0
M  V30 8230 H 807.323 3.73641 -1.25642 0
M  V30 8231 H 808.611 4.95123 -1.17177 0
M  V30 8232 H 808.009 5.29514 1.99077 0
M  V30 8233 H 806.566 6.2257 1.93002 0
M  V30 8234 N 809.999 0.752036 1.385 0
M  V30 8235 C 811.245 0.307958 2.00448 0
M  V30 8236 C 811.578 -1.10702 1.59558 0
M  V30 8237 O 810.853 -1.75788 0.832391 0
M  V30 8238 C 811.136 0.429092 3.57534 0
M  V30 8239 C 810.989 1.88507 4.08393 0
M  V30 8240 C 812.308 -0.178442 4.39738 0
M  V30 8241 H 809.427 0.113373 0.728228 0
M  V30 8242 H 812.069 0.951389 1.64465 0
M  V30 8243 H 810.219 -0.118695 3.88319 0
M  V30 8244 H 811.891 2.49104 3.88259 0
M  V30 8245 H 810.134 2.40066 3.61318 0
M  V30 8246 H 810.805 1.92099 5.17496 0
M  V30 8247 H 813.281 0.28872 4.15097 0
M  V30 8248 H 812.157 -0.0634349 5.48863 0
M  V30 8249 H 812.418 -1.26655 4.23569 0
M  V30 8250 N 811.477 -1.49425 0.500989 0
M  V30 8251 C 812.888 -1.86624 0.0532011 0
M  V30 8252 C 813.239 -1.41331 -1.36088 0
M  V30 8253 O 812.364 -0.791195 -2.01418 0
M  V30 8254 C 812.959 -3.38681 0.0897693 0
M  V30 8255 C 811.518 -3.75181 -0.302677 0
M  V30 8256 C 810.665 -2.73419 0.462307 0
M  V30 8257 H 813.616 -1.41743 0.713773 0
M  V30 8258 H 813.637 -3.73902 -0.705528 0
M  V30 8259 H 813.149 -3.71616 1.11907 0
M  V30 8260 H 811.25 -3.47855 -1.33521 0
M  V30 8261 H 811.363 -4.79097 0.0167653 0
M  V30 8262 H 809.727 -2.54548 -0.0878557 0
M  V30 8263 H 810.51 -3.09198 1.49169 0
M  V30 8264 N 812.955 -0.234822 -1.55841 0
M  V30 8265 C 813.918 0.656378 -2.196 0
M  V30 8266 C 814.918 1.11179 -1.16171 0
M  V30 8267 O 816.108 1.01845 -1.41326 0
M  V30 8268 C 813.24 1.90072 -2.82993 0
M  V30 8269 H 814.433 0.100281 -2.99732 0
M  V30 8270 H 811.986 0.0147613 -1.56293 0
M  V30 8271 H 812.721 2.49836 -2.06767 0
M  V30 8272 H 812.506 1.5825 -3.58747 0
M  V30 8273 H 813.996 2.53538 -3.31826 0
M  V30 8274 N 814.433 1.57553 0.0384317 0
M  V30 8275 C 815.363 2.0898 1.04161 0
M  V30 8276 C 816.344 0.99029 1.38301 0
M  V30 8277 O 817.529 1.26499 1.47349 0
M  V30 8278 C 814.659 2.56145 2.34536 0
M  V30 8279 C 813.613 3.70275 2.14663 0
M  V30 8280 C 812.939 4.03612 3.50715 0
M  V30 8281 C 814.239 4.99067 1.54045 0
M  V30 8282 H 815.933 2.93046 0.613548 0
M  V30 8283 H 813.479 1.40973 0.293684 0
M  V30 8284 H 815.432 2.90741 3.05037 0
M  V30 8285 H 814.156 1.6915 2.79385 0
M  V30 8286 H 812.815 3.36013 1.46597 0
M  V30 8287 H 812.463 3.13698 3.93195 0
M  V30 8288 H 812.163 4.80482 3.38247 0
M  V30 8289 H 813.687 4.40735 4.22593 0
M  V30 8290 H 815.101 5.3168 2.14451 0
M  V30 8291 H 813.498 5.80484 1.52178 0
M  V30 8292 H 814.568 4.8226 0.505259 0
M  V30 8293 N 815.911 -0.310526 1.54511 0
M  V30 8294 C 816.858 -1.38264 1.84802 0
M  V30 8295 C 817.828 -1.50808 0.696141 0
M  V30 8296 O 819.013 -1.6582 0.943846 0
M  V30 8297 C 816.153 -2.74422 2.09252 0
M  V30 8298 C 815.266 -2.70405 3.36906 0
M  V30 8299 C 814.401 -3.98495 3.51248 0
M  V30 8300 C 813.44 -3.88836 4.72729 0
M  V30 8301 N 812.577 -5.08683 4.83928 0
M  V30 8302 H 817.417 -1.11732 2.76261 0
M  V30 8303 H 814.954 -0.540609 1.36806 0
M  V30 8304 H 816.912 -3.53593 2.21422 0
M  V30 8305 H 815.542 -2.99235 1.2107 0
M  V30 8306 H 814.594 -1.83151 3.33406 0
M  V30 8307 H 815.906 -2.59155 4.26193 0
M  V30 8308 H 815.06 -4.861 3.63031 0
M  V30 8309 H 813.799 -4.12567 2.60077 0
M  V30 8310 H 812.804 -2.99615 4.60989 0
M  V30 8311 H 814.029 -3.76318 5.65298 0
M  V30 8312 H 811.975 -5.23236 3.95677 0
M  V30 8313 H 811.892 -4.99819 5.67201 0
M  V30 8314 H 813.16 -5.97966 5.00057 0
M  V30 8315 N 817.389 -1.46805 -0.573248 0
M  V30 8316 C 818.617 -1.56191 -1.3569 0
M  V30 8317 C 819.032 -0.206362 -1.87669 0
M  V30 8318 O 818.389 0.797883 -1.64134 0
M  V30 8319 C 818.44 -2.57433 -2.53792 0
M  V30 8320 O 818.161 -3.87724 -2.03965 0
M  V30 8321 C 819.662 -2.76851 -3.4622 0
M  V30 8322 H 816.882 -0.527907 -0.414192 0
M  V30 8323 H 819.426 -1.92292 -0.695989 0
M  V30 8324 H 817.581 -2.24311 -3.15854 0
M  V30 8325 H 817.995 -4.42909 -2.80948 0
M  V30 8326 H 819.469 -3.5159 -4.25545 0
M  V30 8327 H 819.946 -1.84095 -3.98755 0
M  V30 8328 H 820.552 -3.11107 -2.89987 0
M  V30 8329 N 818.867 0.818669 -1.34668 0
M  V30 8330 C 819.777 1.9616 -1.2868 0
M  V30 8331 C 820.793 1.72918 -0.193742 0
M  V30 8332 O 821.969 1.96951 -0.420975 0
M  V30 8333 C 819.034 3.30534 -1.04633 0
M  V30 8334 C 818.095 3.66755 -2.23136 0
M  V30 8335 C 817.328 4.94717 -2.00227 0
M  V30 8336 O 817.551 5.62218 -0.96264 0
M  V30 8337 O 816.485 5.28915 -2.87286 0
M  V30 8338 H 820.311 2.04157 -2.24842 0
M  V30 8339 H 817.896 0.954691 -1.14917 0
M  V30 8340 H 819.778 4.11005 -0.930216 0
M  V30 8341 H 818.453 3.23495 -0.115139 0
M  V30 8342 H 817.36 2.8671 -2.40308 0
M  V30 8343 H 818.693 3.78484 -3.1466 0
M  V30 8344 N 820.346 1.18468 1.03938 0
M  V30 8345 C 821.309 0.914944 2.10146 0
M  V30 8346 C 822.309 -0.10022 1.60487 0
M  V30 8347 O 823.499 0.133365 1.73689 0
M  V30 8348 C 820.631 0.372993 3.38853 0
M  V30 8349 H 821.824 1.85677 2.35508 0
M  V30 8350 H 819.377 0.996876 1.20383 0
M  V30 8351 H 820.112 -0.57538 3.19155 0
M  V30 8352 H 819.897 1.1048 3.76213 0
M  V30 8353 H 821.387 0.203014 4.17106 0
M  V30 8354 N 821.824 -1.22873 0.986916 0
M  V30 8355 C 823.235 -1.73264 0.695438 0
M  V30 8356 C 823.586 -1.79679 -0.788023 0
M  V30 8357 O 822.711 -1.43905 -1.61618 0
M  V30 8358 C 823.306 -3.14671 1.2557 0
M  V30 8359 C 821.865 -3.62492 1.01373 0
M  V30 8360 C 821.012 -2.40551 1.37951 0
M  V30 8361 H 823.963 -1.08304 1.15999 0
M  V30 8362 H 823.984 -3.75226 0.631322 0
M  V30 8363 H 823.496 -3.0997 2.33539 0
M  V30 8364 H 821.597 -3.72567 -0.0495917 0
M  V30 8365 H 821.71 -4.48944 1.67289 0
M  V30 8366 H 820.074 -2.41875 0.798033 0
M  V30 8367 H 820.857 -2.38516 2.46911 0
M  V30 8368 N 823.302 -0.75937 -1.38099 0
M  V30 8369 C 824.232 -0.151077 -2.33011 0
M  V30 8370 C 825.213 0.697099 -1.5516 0
M  V30 8371 O 826.398 0.637101 -1.83452 0
M  V30 8372 C 823.528 0.738423 -3.39359 0
M  V30 8373 C 822.482 -0.0074741 -4.27999 0
M  V30 8374 C 821.808 1.00066 -5.25253 0
M  V30 8375 C 823.108 -1.17926 -5.08813 0
M  V30 8376 H 824.802 -0.943933 -2.84131 0
M  V30 8377 H 822.348 -0.455362 -1.36611 0
M  V30 8378 H 824.301 1.17369 -4.04725 0
M  V30 8379 H 823.025 1.56366 -2.86735 0
M  V30 8380 H 821.684 -0.423379 -3.64147 0
M  V30 8381 H 821.332 1.82012 -4.68914 0
M  V30 8382 H 821.032 0.506199 -5.85416 0
M  V30 8383 H 822.556 1.43512 -5.93495 0
M  V30 8384 H 823.97 -0.821262 -5.67387 0
M  V30 8385 H 822.367 -1.60497 -5.78239 0
M  V30 8386 H 823.437 -1.98938 -4.42212 0
M  V30 8387 N 824.78 1.49157 -0.508906 0
M  V30 8388 C 825.743 2.27784 0.25434 0
M  V30 8389 C 826.743 1.34132 0.88686 0
M  V30 8390 O 827.933 1.5722 0.750168 0
M  V30 8391 C 825.065 3.12347 1.36573 0
M  V30 8392 H 826.258 2.96718 -0.435714 0
M  V30 8393 H 823.811 1.54052 -0.264128 0
M  V30 8394 H 824.546 2.47997 2.08969 0
M  V30 8395 H 824.331 3.81213 0.917543 0
M  V30 8396 H 825.821 3.71712 1.90315 0
M  V30 8397 N 826.258 0.243083 1.55714 0
M  V30 8398 C 827.205 -0.658078 2.21219 0
M  V30 8399 C 828.175 -1.1742 1.17481 0
M  V30 8400 O 829.36 -1.22937 1.45915 0
M  V30 8401 C 826.5 -1.85104 2.91257 0
M  V30 8402 C 825.613 -1.3718 4.09641 0
M  V30 8403 C 824.748 -2.52403 4.67404 0
M  V30 8404 C 823.787 -2.01321 5.78045 0
M  V30 8405 N 822.924 -3.09896 6.30007 0
M  V30 8406 H 827.764 -0.0927854 2.97856 0
M  V30 8407 H 825.301 -0.0340375 1.47061 0
M  V30 8408 H 827.259 -2.55179 3.3006 0
M  V30 8409 H 825.889 -2.38887 2.17101 0
M  V30 8410 H 824.941 -0.565232 3.76177 0
M  V30 8411 H 826.253 -0.957409 4.89525 0
M  V30 8412 H 825.407 -3.30525 5.08761 0
M  V30 8413 H 824.146 -2.97142 3.86728 0
M  V30 8414 H 823.151 -1.21667 5.36169 0
M  V30 8415 H 824.376 -1.57556 6.6057 0
M  V30 8416 H 822.322 -3.54077 5.52237 0
M  V30 8417 H 822.239 -2.72776 7.05074 0
M  V30 8418 H 823.507 -3.8809 6.76023 0
M  V30 8419 N 827.736 -1.57571 -0.0300757 0
M  V30 8420 C 829.013 -1.80381 -0.756447 0
M  V30 8421 C 829.393 -0.840906 -1.93628 0
M  V30 8422 O 828.741 0.117143 -2.282 0
M  V30 8423 C 828.951 -3.2807 -1.19043 0
M  V30 8424 C 830.299 -3.93025 -1.60676 0
M  V30 8425 O 831.323 -3.32213 -1.28503 0
M  V30 8426 O 830.182 -5.00092 -2.20386 0
M  V30 8427 H 827.276 -0.741737 -0.365725 0
M  V30 8428 H 829.822 -1.69699 -0.00693177 0
M  V30 8429 H 828.594 -3.89748 -0.348128 0
M  V30 8430 H 828.217 -3.43637 -1.99999 0
M  V30 8431 N 829.214 0.302327 -1.54673 0
M  V30 8432 C 830.462 1.03565 -1.73547 0
M  V30 8433 C 830.783 1.87843 -0.523448 0
M  V30 8434 O 830.053 1.90367 0.462295 0
M  V30 8435 H 828.633 0.385358 -0.639928 0
M  V30 8436 H 831.295 0.333632 -1.92023 0
M  V30 8437 H 830.391 1.68952 -2.62415 0
M  V30 8438 N 830.692 1.47107 0.565454 0
M  V30 8439 C 831.938 1.53535 1.32495 0
M  V30 8440 C 832.271 0.193537 1.93233 0
M  V30 8441 O 831.546 -0.796956 1.77423 0
M  V30 8442 C 831.829 2.64712 2.4413 0
M  V30 8443 C 831.682 4.08482 1.88314 0
M  V30 8444 C 833.001 2.71853 3.46098 0
M  V30 8445 H 830.12 0.558926 0.480386 0
M  V30 8446 H 832.762 1.79125 0.633575 0
M  V30 8447 H 830.912 2.43023 3.03104 0
M  V30 8448 H 832.584 4.4151 1.33665 0
M  V30 8449 H 830.827 4.17148 1.19037 0
M  V30 8450 H 831.498 4.82032 2.68978 0
M  V30 8451 H 833.974 2.91397 2.97031 0
M  V30 8452 H 832.85 3.51433 4.21646 0
M  V30 8453 H 833.111 1.78584 4.04426 0
M  V30 8454 N 832.17 -0.811516 1.35101 0
M  V30 8455 C 833.1 -1.9378 1.30275 0
M  V30 8456 C 834.081 -1.69165 0.178075 0
M  V30 8457 O 835.266 -1.90599 0.372256 0
M  V30 8458 C 832.396 -3.30439 1.06899 0
M  V30 8459 C 831.35 -3.69523 2.15955 0
M  V30 8460 C 830.676 -5.0429 1.77751 0
M  V30 8461 C 831.976 -3.80419 3.57881 0
M  V30 8462 H 833.67 -1.98075 2.24514 0
M  V30 8463 H 831.216 -0.951586 1.08078 0
M  V30 8464 H 833.169 -4.08828 1.02164 0
M  V30 8465 H 831.893 -3.26473 0.0910462 0
M  V30 8466 H 830.552 -2.93416 2.19778 0
M  V30 8467 H 830.2 -4.96823 0.785876 0
M  V30 8468 H 829.9 -5.31411 2.5075 0
M  V30 8469 H 831.424 -5.85125 1.74533 0
M  V30 8470 H 832.838 -4.49051 3.56407 0
M  V30 8471 H 831.235 -4.19005 4.29598 0
M  V30 8472 H 832.305 -2.82105 3.94391 0
M  V30 8473 N 833.648 -1.19017 -1.03309 0
M  V30 8474 C 834.876 -1.01534 -1.80273 0
M  V30 8475 C 835.291 0.43605 -1.83696 0
M  V30 8476 O 834.648 1.30288 -1.27794 0
M  V30 8477 C 834.699 -1.5722 -3.25522 0
M  V30 8478 O 834.42 -2.96677 -3.22358 0
M  V30 8479 C 835.921 -1.4446 -4.19102 0
M  V30 8480 H 833.141 -0.358094 -0.567459 0
M  V30 8481 H 835.685 -1.57738 -1.3015 0
M  V30 8482 H 833.84 -1.05174 -3.7285 0
M  V30 8483 H 834.254 -3.22795 -4.13405 0
M  V30 8484 H 835.728 -1.88209 -5.18923 0
M  V30 8485 H 836.205 -0.394471 -4.37425 0
M  V30 8486 H 836.811 -1.95616 -3.77643 0
M  V30 8487 N 835.127 1.22348 -0.993418 0
M  V30 8488 C 836.057 2.26584 -0.564088 0
M  V30 8489 C 837.038 1.65102 0.409298 0
M  V30 8490 O 838.223 1.91872 0.299819 0
M  V30 8491 C 835.353 3.47087 0.121554 0
M  V30 8492 C 834.307 4.21009 -0.770429 0
M  V30 8493 C 833.633 5.34678 0.0481586 0
M  V30 8494 C 834.933 4.79636 -2.06752 0
M  V30 8495 H 836.627 2.62749 -1.43538 0
M  V30 8496 H 834.173 1.26303 -0.691628 0
M  V30 8497 H 836.126 4.19166 0.433303 0
M  V30 8498 H 834.85 3.1002 1.0274 0
M  V30 8499 H 833.509 3.50764 -1.06583 0
M  V30 8500 H 833.157 4.93852 0.954933 0
M  V30 8501 H 832.857 5.85061 -0.545641 0
M  V30 8502 H 834.381 6.09573 0.353991 0
M  V30 8503 H 835.795 5.43654 -1.81969 0
M  V30 8504 H 834.192 5.4036 -2.61019 0
M  V30 8505 H 835.262 3.99659 -2.74592 0
M  V30 8506 N 836.605 0.766683 1.37694 0
M  V30 8507 C 837.568 0.155849 2.2867 0
M  V30 8508 C 838.568 -0.633509 1.47795 0
M  V30 8509 O 839.758 -0.457844 1.68076 0
M  V30 8510 C 836.89 -0.786965 3.31692 0
M  V30 8511 H 838.083 0.957748 2.84196 0
M  V30 8512 H 835.636 0.534554 1.46875 0
M  V30 8513 H 836.371 -1.61406 2.8128 0
M  V30 8514 H 836.156 -0.223182 3.91464 0
M  V30 8515 H 837.646 -1.20994 3.99688 0
M  V30 8516 N 838.083 -1.48885 0.516809 0
M  V30 8517 C 839.031 -2.31066 -0.266656 0
M  V30 8518 C 840.025 -1.40393 -0.94795 0
M  V30 8519 O 841.231 -1.57366 -0.873836 0
M  V30 8520 H 837.606 -0.744654 -0.104858 0
M  V30 8521 H 839.577 -2.95045 0.446236 0
M  V30 8522 C 838.326 -3.22131 -1.3087 0
M  V30 8523 H 837.649 -3.91839 -0.793865 0
M  V30 8524 H 839.089 -3.82544 -1.82856 0
M  V30 8525 C 837.548 -2.42825 -2.33533 0
M  V30 8526 O 838.078 -2.14364 -3.39722 0
M  V30 8527 N 836.284 -2.04559 -2.06407 0
M  V30 8528 H 835.831 -2.27905 -1.20071 0
M  V30 8529 H 835.789 -1.51807 -2.75322 0
M  V30 8530 N 839.561 -0.251338 -1.55583 0
M  V30 8531 C 840.509 0.662534 -2.22965 0
M  V30 8532 C 841.503 1.17662 -1.21869 0
M  V30 8533 O 842.709 1.133 -1.39868 0
M  V30 8534 H 839.084 0.232151 -0.715269 0
M  V30 8535 H 841.055 0.0711252 -2.98315 0
M  V30 8536 C 839.804 1.84646 -2.94621 0
M  V30 8537 H 839.127 1.46003 -3.72187 0
M  V30 8538 H 840.567 2.46303 -3.45124 0
M  V30 8539 C 839.026 2.72034 -1.98744 0
M  V30 8540 O 839.556 3.71695 -1.52335 0
M  V30 8541 N 837.762 2.38695 -1.6575 0
M  V30 8542 H 837.309 1.57702 -2.03685 0
M  V30 8543 H 837.267 2.9744 -1.01867 0
M  V30 8544 N 841.039 1.57585 0.0217189 0
M  V30 8545 C 842.285 1.89887 0.712099 0
M  V30 8546 C 842.618 0.849971 1.74611 0
M  V30 8547 O 841.893 -0.13407 1.94037 0
M  V30 8548 C 842.176 3.32815 1.37499 0
M  V30 8549 C 842.029 4.48405 0.353993 0
M  V30 8550 C 843.348 3.74786 2.30703 0
M  V30 8551 H 840.467 0.690588 0.257405 0
M  V30 8552 H 843.109 1.89983 -0.0251145 0
M  V30 8553 H 841.259 3.32863 2.00335 0
M  V30 8554 H 842.931 4.60491 -0.273015 0
M  V30 8555 H 841.174 4.32573 -0.32599 0
M  V30 8556 H 841.845 5.45316 0.85644 0
M  V30 8557 H 844.321 3.76151 1.77904 0
M  V30 8558 H 843.197 4.75585 2.74061 0
M  V30 8559 H 843.458 3.07449 3.17691 0
M  V30 8560 N 842.517 -0.29412 1.54831 0
M  V30 8561 C 843.745 -1.04724 1.78439 0
M  V30 8562 C 844.16 -1.80695 0.547239 0
M  V30 8563 O 843.517 -1.75989 -0.483141 0
M  V30 8564 C 843.568 -2.02242 2.99634 0
M  V30 8565 O 843.289 -1.29352 4.18568 0
M  V30 8566 C 844.79 -2.89537 3.35683 0
M  V30 8567 H 842.01 -0.310285 0.594949 0
M  V30 8568 H 844.554 -0.331306 2.01798 0
M  V30 8569 H 842.709 -2.69328 2.78462 0
M  V30 8570 H 843.123 -1.94901 4.86943 0
M  V30 8571 H 844.597 -3.538 4.23709 0
M  V30 8572 H 845.074 -3.58201 2.54143 0
M  V30 8573 H 845.68 -2.27973 3.59038 0
M  V30 8574 N 843.995 -1.47404 -0.557645 0
M  V30 8575 C 845.406 -1.47872 -1.13977 0
M  V30 8576 C 845.757 -0.233176 -1.94809 0
M  V30 8577 O 844.882 0.661945 -2.06027 0
M  V30 8578 C 845.477 -2.67926 -2.07368 0
M  V30 8579 C 844.036 -2.71354 -2.60852 0
M  V30 8580 C 843.183 -2.40967 -1.37223 0
M  V30 8581 H 846.134 -1.54921 -0.344268 0
M  V30 8582 H 846.155 -2.44871 -2.91236 0
M  V30 8583 H 845.667 -3.58562 -1.48509 0
M  V30 8584 H 843.768 -1.84855 -3.23511 0
M  V30 8585 H 843.881 -3.72032 -3.01876 0
M  V30 8586 H 842.245 -1.91541 -1.67882 0
M  V30 8587 H 843.028 -3.33811 -0.801583 0
M  V30 8588 N 845.473 0.80434 -1.35529 0
M  V30 8589 C 846.436 1.89788 -1.28503 0
M  V30 8590 C 847.436 1.59601 -0.195983 0
M  V30 8591 O 848.626 1.68292 -0.449827 0
M  V30 8592 C 845.758 3.26255 -0.98847 0
M  V30 8593 H 846.951 1.97436 -2.25741 0
M  V30 8594 H 844.504 1.00046 -1.20086 0
M  V30 8595 H 845.239 3.24294 -0.0200541 0
M  V30 8596 H 845.024 3.49551 -1.77641 0
M  V30 8597 H 846.514 4.06298 -0.964975 0
M  V30 8598 N 846.951 1.19563 1.02676 0
M  V30 8599 C 847.898 0.935291 2.11 0
M  V30 8600 C 848.868 -0.130685 1.65585 0
M  V30 8601 O 850.053 0.0119062 1.90796 0
M  V30 8602 C 847.193 0.482384 3.41712 0
M  V30 8603 C 846.306 1.61537 4.00662 0
M  V30 8604 C 845.441 1.11378 5.19392 0
M  V30 8605 C 844.48 2.22052 5.70403 0
M  V30 8606 N 843.617 1.73185 6.80405 0
M  V30 8607 H 848.457 1.86275 2.32606 0
M  V30 8608 H 845.994 0.928656 1.14081 0
M  V30 8609 H 847.952 0.20118 4.16715 0
M  V30 8610 H 846.582 -0.408086 3.2021 0
M  V30 8611 H 845.634 2.01173 3.22852 0
M  V30 8612 H 846.946 2.44912 4.34534 0
M  V30 8613 H 846.1 0.787935 6.01562 0
M  V30 8614 H 844.839 0.249789 4.8706 0
M  V30 8615 H 843.844 2.55465 4.86845 0
M  V30 8616 H 845.069 3.08911 6.04774 0
M  V30 8617 H 843.015 0.890973 6.49921 0
M  V30 8618 H 842.932 2.50148 7.13416 0
M  V30 8619 H 844.2 1.4357 7.66164 0
M  V30 8620 N 848.429 -1.21819 0.999893 0
M  V30 8621 C 849.706 -1.86318 0.595384 0
M  V30 8622 C 850.086 -1.8965 -0.927143 0
M  V30 8623 O 849.434 -1.3921 -1.81199 0
M  V30 8624 C 849.644 -3.26837 1.22387 0
M  V30 8625 C 850.992 -4.03272 1.32878 0
M  V30 8626 O 852.016 -3.36129 1.1788 0
M  V30 8627 O 850.875 -5.23477 1.56952 0
M  V30 8628 H 847.969 -0.801638 0.203238 0
M  V30 8629 H 850.515 -1.29542 1.09622 0
M  V30 8630 H 849.287 -3.19084 2.26497 0
M  V30 8631 H 848.91 -3.91226 0.709069 0
M  V30 8632 N 849.908 -0.773975 -1.37286 0
M  V30 8633 C 851.154 -0.339809 -1.99933 0
M  V30 8634 C 851.487 1.0815 -1.61299 0
M  V30 8635 O 850.762 1.74442 -0.860252 0
M  V30 8636 C 851.045 -0.485919 -3.56806 0
M  V30 8637 C 850.898 -1.9498 -4.05343 0
M  V30 8638 C 852.217 0.108461 -4.39966 0
M  V30 8639 H 849.336 -0.124944 -0.726332 0
M  V30 8640 H 851.978 -0.977433 -1.6293 0
M  V30 8641 H 850.128 0.0569023 -3.88458 0
M  V30 8642 H 851.8 -2.5525 -3.84246 0
M  V30 8643 H 850.043 -2.45784 -3.57453 0
M  V30 8644 H 850.714 -2.00308 -5.14374 0
M  V30 8645 H 853.19 -0.354722 -4.14585 0
M  V30 8646 H 852.066 -0.0238926 -5.48895 0
M  V30 8647 H 852.327 1.19901 -4.25531 0
M  V30 8648 N 851.386 1.48609 -0.524698 0
M  V30 8649 C 852.797 1.86516 -0.0828846 0
M  V30 8650 C 853.148 1.43478 1.33822 0
M  V30 8651 O 852.273 0.823139 2.00133 0
M  V30 8652 C 852.868 3.38495 -0.143639 0
M  V30 8653 C 851.427 3.75615 0.242951 0
M  V30 8654 C 850.574 2.72649 -0.505747 0
M  V30 8655 H 853.525 1.40589 -0.736233 0
M  V30 8656 H 853.546 3.74977 0.645955 0
M  V30 8657 H 853.058 3.69789 -1.17805 0
M  V30 8658 H 851.159 3.49935 1.27971 0
M  V30 8659 H 851.272 4.7901 -0.0929834 0
M  V30 8660 H 849.636 2.54656 0.0473482 0
M  V30 8661 H 850.419 3.06786 -1.54069 0
M  V30 8662 N 852.864 0.259585 1.55447 0
M  V30 8663 C 854.275 -0.241165 1.85136 0
M  V30 8664 C 854.626 -1.56634 1.18153 0
M  V30 8665 O 853.751 -2.11359 0.464351 0
M  V30 8666 C 854.346 -0.444355 3.35873 0
M  V30 8667 C 852.905 -0.889354 3.65742 0
M  V30 8668 C 852.052 0.0262474 2.77288 0
M  V30 8669 H 855.003 0.481808 1.51209 0
M  V30 8670 H 855.024 -1.28517 3.58139 0
M  V30 8671 H 854.536 0.520289 3.84597 0
M  V30 8672 H 852.637 -1.86602 3.22507 0
M  V30 8673 H 852.75 -0.737432 4.73391 0
M  V30 8674 H 851.114 -0.487361 2.49994 0
M  V30 8675 H 851.897 0.986494 3.28821 0
M  V30 8676 N 854.342 -1.57594 -0.0133615 0
M  V30 8677 C 855.272 -2.10611 -1.00823 0
M  V30 8678 C 856.253 -1.01217 -1.36708 0
M  V30 8679 O 857.438 -1.28827 -1.45318 0
M  V30 8680 C 854.568 -2.59844 -2.30431 0
M  V30 8681 C 853.522 -3.73644 -2.08745 0
M  V30 8682 C 852.848 -4.09141 -3.4425 0
M  V30 8683 C 854.148 -5.01454 -1.46086 0
M  V30 8684 H 855.842 -2.93985 -0.566849 0
M  V30 8685 H 853.388 -1.41423 -0.271219 0
M  V30 8686 H 855.341 -2.95557 -3.00373 0
M  V30 8687 H 854.065 -1.73573 -2.76658 0
M  V30 8688 H 852.724 -3.38303 -1.41232 0
M  V30 8689 H 852.372 -3.19914 -3.88155 0
M  V30 8690 H 852.072 -4.85802 -3.3056 0
M  V30 8691 H 853.596 -4.47402 -4.15528 0
M  V30 8692 H 855.01 -5.35024 -2.05966 0
M  V30 8693 H 853.407 -5.82832 -1.42924 0
M  V30 8694 H 854.477 -4.83003 -0.428471 0
M  V30 8695 N 855.82 0.285905 -1.54985 0
M  V30 8696 C 857.045 1.04207 -1.7932 0
M  V30 8697 C 857.47 1.79622 -0.558343 0
M  V30 8698 O 856.828 1.74506 0.491661 0
M  V30 8699 C 856.876 1.98648 -3.0095 0
M  V30 8700 O 855.98 3.07207 -2.75132 0
M  V30 8701 H 855.321 0.298596 -0.593074 0
M  V30 8702 H 857.851 0.318736 -2.02102 0
M  V30 8703 H 857.861 2.4084 -3.29333 0
M  V30 8704 H 856.536 1.43167 -3.90482 0
M  V30 8705 H 855.113 2.69423 -2.57809 0
M  V30 8706 N 857.298 1.47698 0.54982 0
M  V30 8707 C 858.208 1.63386 1.68351 0
M  V30 8708 C 859.224 0.516583 1.66155 0
M  V30 8709 O 860.4 0.785088 1.85468 0
M  V30 8710 C 857.465 1.6513 3.04849 0
M  V30 8711 C 856.526 2.88338 3.18056 0
M  V30 8712 C 855.759 2.8999 4.48042 0
M  V30 8713 O 855.982 2.00633 5.3395 0
M  V30 8714 O 854.916 3.81938 4.65196 0
M  V30 8715 H 858.742 2.59329 1.58057 0
M  V30 8716 H 856.327 1.30869 0.72067 0
M  V30 8717 H 858.209 1.68913 3.86065 0
M  V30 8718 H 856.884 0.723555 3.1551 0
M  V30 8719 H 855.791 2.90097 2.36209 0
M  V30 8720 H 857.124 3.80431 3.12302 0
M  V30 8721 N 858.776 -0.797141 1.35954 0
M  V30 8722 C 860.004 -1.5858 1.32891 0
M  V30 8723 C 860.419 -1.88578 -0.0915564 0
M  V30 8724 O 859.776 -1.49532 -1.04625 0
M  V30 8725 C 859.827 -2.91143 2.14284 0
M  V30 8726 O 859.548 -2.62442 3.50793 0
M  V30 8727 C 861.049 -3.85476 2.18914 0
M  V30 8728 H 858.269 -0.492111 0.456144 0
M  V30 8729 H 860.813 -0.98994 1.78943 0
M  V30 8730 H 858.968 -3.47219 1.71807 0
M  V30 8731 H 859.382 -3.4715 3.93175 0
M  V30 8732 H 860.856 -4.75574 2.80238 0
M  V30 8733 H 861.333 -4.22758 1.19047 0
M  V30 8734 H 861.939 -3.35334 2.61593 0
M  V30 8735 N 860.254 -1.20106 -1.0204 0
M  V30 8736 C 861.164 -0.962051 -2.13967 0
M  V30 8737 C 862.18 0.0808053 -1.73812 0
M  V30 8738 O 863.356 -0.105774 -2.01122 0
M  V30 8739 C 860.421 -0.513108 -3.42882 0
M  V30 8740 C 859.482 -1.62636 -3.97301 0
M  V30 8741 C 858.715 -1.19875 -5.20063 0
M  V30 8742 O 858.938 -0.0658423 -5.70362 0
M  V30 8743 O 857.872 -2.00467 -5.67536 0
M  V30 8744 H 861.698 -1.8991 -2.36998 0
M  V30 8745 H 859.283 -0.984608 -1.12365 0
M  V30 8746 H 861.165 -0.271797 -4.20523 0
M  V30 8747 H 859.84 0.395402 -3.21276 0
M  V30 8748 H 858.747 -1.92192 -3.20957 0
M  V30 8749 H 860.08 -2.51174 -4.23288 0
M  V30 8750 N 861.732 1.21287 -1.00634 0
M  V30 8751 C 862.695 2.21927 -0.572821 0
M  V30 8752 C 863.695 1.5691 0.351541 0
M  V30 8753 O 864.885 1.73623 0.141643 0
M  V30 8754 C 862.017 3.40501 0.164932 0
M  V30 8755 H 863.21 2.61795 -1.463 0
M  V30 8756 H 860.763 1.34571 -0.794998 0
M  V30 8757 H 861.498 3.06123 1.07049 0
M  V30 8758 H 861.283 3.88912 -0.498962 0
M  V30 8759 H 862.773 4.15103 0.455945 0
M  V30 8760 N 863.21 0.781244 1.36873 0
M  V30 8761 C 864.438 0.361566 2.03716 0
M  V30 8762 C 864.853 -1.01937 1.58916 0
M  V30 8763 O 864.21 -1.65237 0.774783 0
M  V30 8764 C 864.261 0.406391 3.59208 0
M  V30 8765 O 863.982 1.73286 4.02372 0
M  V30 8766 C 865.483 -0.0236894 4.43294 0
M  V30 8767 H 862.703 0.150133 0.653988 0
M  V30 8768 H 865.247 1.05781 1.75016 0
M  V30 8769 H 863.402 -0.241364 3.86647 0
M  V30 8770 H 863.816 1.67804 4.96933 0
M  V30 8771 H 865.29 0.0588205 5.51969 0
M  V30 8772 H 865.767 -1.07529 4.25833 0
M  V30 8773 H 866.373 0.59624 4.211 0
M  V30 8774 N 864.689 -1.48329 0.532571 0
M  V30 8775 C 866.1 -1.86469 0.0927749 0
M  V30 8776 C 866.451 -1.44186 -1.3306 0
M  V30 8777 O 865.576 -0.833741 -1.99694 0
M  V30 8778 C 866.171 -3.38414 0.161588 0
M  V30 8779 C 864.73 -3.75739 -0.223028 0
M  V30 8780 C 863.877 -2.72377 0.520199 0
M  V30 8781 H 866.828 -1.40197 0.743678 0
M  V30 8782 H 866.849 -3.75314 -0.626059 0
M  V30 8783 H 866.361 -3.69159 1.19765 0
M  V30 8784 H 864.462 -3.50608 -1.26113 0
M  V30 8785 H 864.575 -4.78954 0.118385 0
M  V30 8786 H 862.939 -2.54678 -0.0338425 0
M  V30 8787 H 863.722 -3.05965 1.55694 0
M  V30 8788 N 866.167 -0.267825 -1.55308 0
M  V30 8789 C 867.413 0.351556 -1.9973 0
M  V30 8790 C 867.746 1.56049 -1.15596 0
M  V30 8791 O 867.021 1.93203 -0.224274 0
M  V30 8792 C 867.304 0.74091 -3.52395 0
M  V30 8793 C 867.157 -0.474861 -4.47286 0
M  V30 8794 C 868.476 1.5801 -4.10756 0
M  V30 8795 H 865.595 0.126308 -0.726096 0
M  V30 8796 H 868.237 -0.373316 -1.86296 0
M  V30 8797 H 866.387 1.35851 -3.63973 0
M  V30 8798 H 868.059 -1.1134 -4.47662 0
M  V30 8799 H 866.302 -1.11425 -4.19246 0
M  V30 8800 H 866.973 -0.158782 -5.51772 0
M  V30 8801 H 869.449 1.05857 -4.0241 0
M  V30 8802 H 868.325 1.82135 -5.17801 0
M  V30 8803 H 868.586 2.55878 -3.60526 0
M  V30 8804 N 867.645 1.57599 0.00500368 0
M  V30 8805 C 869.056 1.78462 0.54848 0
M  V30 8806 C 869.407 0.901869 1.74243 0
M  V30 8807 O 868.532 0.103014 2.16155 0
M  V30 8808 C 869.127 3.2365 1.00179 0
M  V30 8809 C 867.686 3.45627 1.49061 0
M  V30 8810 C 866.833 2.73794 0.439531 0
M  V30 8811 H 869.784 1.57151 -0.22118 0
M  V30 8812 H 869.805 3.31488 1.86805 0
M  V30 8813 H 869.317 3.87873 0.132607 0
M  V30 8814 H 867.418 2.86612 2.38085 0
M  V30 8815 H 867.531 4.54298 1.52152 0
M  V30 8816 H 865.895 2.38267 0.900043 0
M  V30 8817 H 866.678 3.40714 -0.420599 0
M  V30 8818 N 869.123 -0.277682 1.55134 0
M  V30 8819 C 870.372 -1.00766 1.74726 0
M  V30 8820 C 870.685 -1.87617 0.553092 0
M  V30 8821 O 871.891 -2.64058 0.631318 0
M  V30 8822 C 870.347 -1.84147 3.09221 0
M  V30 8823 C 869.955 -1.02186 4.3619 0
M  V30 8824 C 871.699 -2.56604 3.38164 0
M  V30 8825 C 869.606 -1.84978 5.61727 0
M  V30 8826 H 868.536 -0.379948 0.651273 0
M  V30 8827 H 871.187 -0.263543 1.81598 0
M  V30 8828 H 869.569 -2.62637 2.96375 0
M  V30 8829 H 870.743 -0.281459 4.5994 0
M  V30 8830 H 869.058 -0.412054 4.14356 0
M  V30 8831 H 871.655 -3.18942 4.29162 0
M  V30 8832 H 871.998 -3.26647 2.58085 0
M  V30 8833 H 872.531 -1.85147 3.52087 0
M  V30 8834 H 869.27 -1.19365 6.4454 0
M  V30 8835 H 868.79 -2.56628 5.42128 0
M  V30 8836 H 870.469 -2.42458 5.99853 0
M  V30 8837 N 870.601 -1.47988 -0.541979 0
M  V30 8838 C 871.548 -1.61615 -1.6477 0
M  V30 8839 C 872.518 -0.458602 -1.59644 0
M  V30 8840 O 873.703 -0.680585 -1.78249 0
M  V30 8841 C 870.843 -1.65066 -3.03063 0
M  V30 8842 C 869.956 -2.91845 -3.18513 0
M  V30 8843 C 869.091 -2.86534 -4.47294 0
M  V30 8844 C 868.13 -4.0807 -4.5623 0
M  V30 8845 N 867.267 -4.00905 -5.76385 0
M  V30 8846 H 872.107 -2.56046 -1.52461 0
M  V30 8847 H 869.644 -1.26989 -0.742449 0
M  V30 8848 H 871.602 -1.65049 -3.83164 0
M  V30 8849 H 870.232 -0.74136 -3.14171 0
M  V30 8850 H 869.284 -3.01661 -2.31743 0
M  V30 8851 H 870.596 -3.81804 -3.20978 0
M  V30 8852 H 869.75 -2.84851 -5.35672 0
M  V30 8853 H 868.489 -1.94283 -4.47332 0
M  V30 8854 H 867.494 -4.10041 -3.66261 0
M  V30 8855 H 868.719 -5.01465 -4.5794 0
M  V30 8856 H 866.665 -3.11467 -5.77342 0
M  V30 8857 H 866.582 -4.84557 -5.80293 0
M  V30 8858 H 867.85 -4.03263 -6.67083 0
M  V30 8859 N 872.079 0.78992 -1.36375 0
M  V30 8860 C 873.356 1.53584 -1.21126 0
M  V30 8861 C 873.736 2.10124 0.202785 0
M  V30 8862 O 873.084 1.93936 1.20835 0
M  V30 8863 C 873.294 2.63117 -2.29282 0
M  V30 8864 C 874.642 3.31013 -2.65924 0
M  V30 8865 O 875.666 2.734 -2.28321 0
M  V30 8866 O 874.525 4.35129 -3.30643 0
M  V30 8867 H 871.619 0.679366 -0.471583 0
M  V30 8868 H 874.165 0.828446 -1.48104 0
M  V30 8869 H 872.937 2.19329 -3.24053 0
M  V30 8870 H 872.56 3.41476 -2.03666 0
M  V30 8871 N 873.557 1.20646 1.01402 0
M  V30 8872 C 874.49 0.900926 2.09663 0
M  V30 8873 C 875.468 -0.14801 1.61925 0
M  V30 8874 O 876.652 -0.0210235 1.88488 0
M  V30 8875 C 873.779 0.351097 3.36875 0
M  V30 8876 C 872.825 1.38142 4.03508 0
M  V30 8877 S 873.658 2.94741 4.47089 0
M  V30 8878 C 874.814 2.41341 5.77499 0
M  V30 8879 H 875.047 1.81773 2.35257 0
M  V30 8880 H 872.58 1.03521 1.14555 0
M  V30 8881 H 874.538 0.0404201 4.1048 0
M  V30 8882 H 873.199 -0.544255 3.09349 0
M  V30 8883 H 872.392 0.94614 4.9504 0
M  V30 8884 H 871.994 1.63971 3.36139 0
M  V30 8885 H 874.286 1.81263 6.52802 0
M  V30 8886 H 875.229 3.31278 6.25828 0
M  V30 8887 H 875.637 1.83374 5.33886 0
M  V30 8888 N 875.035 -1.20752 1.01276 0
M  V30 8889 C 875.945 -2.27079 0.589277 0
M  V30 8890 C 876.961 -1.6999 -0.371389 0
M  V30 8891 O 878.137 -2.00044 -0.233294 0
M  V30 8892 C 875.202 -3.4663 -0.0696715 0
M  V30 8893 C 874.263 -4.18962 0.936454 0
M  V30 8894 C 873.496 -5.32806 0.308856 0
M  V30 8895 O 873.719 -5.63376 -0.8924 0
M  V30 8896 O 872.653 -5.93131 1.02367 0
M  V30 8897 H 876.479 -2.6551 1.47438 0
M  V30 8898 H 874.064 -1.27297 0.782045 0
M  V30 8899 H 875.946 -4.19119 -0.437873 0
M  V30 8900 H 874.621 -3.10082 -0.929029 0
M  V30 8901 H 873.528 -3.48661 1.35595 0
M  V30 8902 H 874.861 -4.59441 1.76565 0
M  V30 8903 N 876.513 -0.788492 -1.36457 0
M  V30 8904 C 877.762 -0.357052 -1.98515 0
M  V30 8905 C 878.075 1.0769 -1.63285 0
M  V30 8906 O 879.281 1.61057 -2.1857 0
M  V30 8907 C 877.737 -0.587449 -3.55073 0
M  V30 8908 C 877.345 -2.03276 -3.99228 0
M  V30 8909 C 879.089 -0.220468 -4.23927 0
M  V30 8910 C 876.996 -2.20987 -5.48561 0
M  V30 8911 H 875.926 -0.129762 -0.74275 0
M  V30 8912 H 878.577 -0.969995 -1.55767 0
M  V30 8913 H 876.959 0.0951918 -3.95886 0
M  V30 8914 H 878.133 -2.75173 -3.69617 0
M  V30 8915 H 876.448 -2.3579 -3.43208 0
M  V30 8916 H 879.045 -0.331085 -5.33674 0
M  V30 8917 H 879.388 0.831306 -4.07915 0
M  V30 8918 H 879.921 -0.856309 -3.88474 0
M  V30 8919 H 876.66 -3.24543 -5.69519 0
M  V30 8920 H 876.18 -1.53594 -5.79801 0
M  V30 8921 H 877.859 -2.01656 -6.14771 0
M  V30 8922 N 877.991 1.48044 -0.54043 0
M  V30 8923 C 878.954 2.28273 0.205966 0
M  V30 8924 C 879.954 1.35983 0.858209 0
M  V30 8925 O 881.144 1.58776 0.716651 0
M  V30 8926 C 878.276 3.15174 1.29917 0
M  V30 8927 H 879.469 2.95727 -0.498555 0
M  V30 8928 H 877.022 1.53457 -0.296745 0
M  V30 8929 H 877.757 2.52374 2.03661 0
M  V30 8930 H 877.542 3.83074 0.836475 0
M  V30 8931 H 879.032 3.75666 1.82387 0
M  V30 8932 N 879.47 0.276058 1.55163 0
M  V30 8933 C 880.402 -0.644254 2.19959 0
M  V30 8934 C 881.415 -1.11675 1.18459 0
M  V30 8935 O 882.604 -1.0385 1.45181 0
M  V30 8936 C 879.704 -1.89093 2.81242 0
M  V30 8937 C 878.877 -1.56509 4.08441 0
M  V30 8938 C 877.936 -2.66433 4.53762 0
M  V30 8939 O 876.962 -2.32579 5.19515 0
M  V30 8940 N 878.164 -3.96509 4.23982 0
M  V30 8941 H 880.929 -0.0896808 2.99566 0
M  V30 8942 H 878.49 0.0971981 1.61608 0
M  V30 8943 H 880.482 -2.61929 3.08505 0
M  V30 8944 H 879.052 -2.35453 2.05622 0
M  V30 8945 H 878.272 -0.670522 3.88455 0
M  V30 8946 H 879.56 -1.32242 4.91314 0
M  V30 8947 H 878.958 -4.26834 3.71254 0
M  V30 8948 H 877.515 -4.6572 4.56014 0
M  V30 8949 N 880.948 -1.576 0.00335426 0
M  V30 8950 C 882.176 -1.94996 -0.691685 0
M  V30 8951 C 882.591 -0.878405 -1.67121 0
M  V30 8952 O 881.948 0.142343 -1.81944 0
M  V30 8953 C 881.999 -3.32416 -1.42063 0
M  V30 8954 O 881.72 -4.35458 -0.48038 0
M  V30 8955 C 883.221 -3.84291 -2.20987 0
M  V30 8956 H 880.441 -0.642814 -0.192434 0
M  V30 8957 H 882.985 -2.04425 0.0554706 0
M  V30 8958 H 881.14 -3.24285 -2.11939 0
M  V30 8959 H 881.554 -5.14975 -0.995054 0
M  V30 8960 H 883.028 -4.82863 -2.67483 0
M  V30 8961 H 883.505 -3.17174 -3.03805 0
M  V30 8962 H 884.111 -3.95609 -1.56121 0
M  V30 8963 N 882.426 0.269451 -1.5528 0
M  V30 8964 C 883.358 1.35553 -1.84819 0
M  V30 8965 C 884.371 1.45369 -0.732914 0
M  V30 8966 O 885.56 1.47122 -1.0108 0
M  V30 8967 C 882.66 2.73645 -1.9993 0
M  V30 8968 C 881.833 2.86376 -3.30617 0
M  V30 8969 C 880.892 4.05165 -3.35749 0
M  V30 8970 O 879.918 3.95756 -4.09104 0
M  V30 8971 N 881.12 5.17297 -2.63408 0
M  V30 8972 H 883.885 1.10557 -2.78563 0
M  V30 8973 H 881.446 0.459566 -1.5524 0
M  V30 8974 H 883.438 3.51411 -2.00729 0
M  V30 8975 H 882.008 2.91448 -1.13035 0
M  V30 8976 H 881.228 1.95465 -3.42326 0
M  V30 8977 H 882.516 2.91815 -4.16799 0
M  V30 8978 H 881.914 5.2783 -2.03501 0
M  V30 8979 H 880.471 5.93281 -2.69927 0
M  V30 8980 N 883.904 1.48273 0.534124 0
M  V30 8981 C 884.851 1.62487 1.6391 0
M  V30 8982 C 885.821 0.467062 1.59398 0
M  V30 8983 O 887.006 0.690029 1.77885 0
M  V30 8984 C 884.146 1.66671 3.02183 0
M  V30 8985 C 883.259 2.9353 3.16961 0
M  V30 8986 C 882.394 2.88902 4.45768 0
M  V30 8987 C 881.433 4.10483 4.54059 0
M  V30 8988 N 880.57 4.03956 5.74251 0
M  V30 8989 H 885.41 2.56851 1.51101 0
M  V30 8990 H 882.947 1.27381 0.735704 0
M  V30 8991 H 884.905 1.67079 3.82283 0
M  V30 8992 H 883.535 0.758011 3.13774 0
M  V30 8993 H 882.587 3.02886 2.3014 0
M  V30 8994 H 883.899 3.83501 3.18949 0
M  V30 8995 H 883.053 2.87688 5.34154 0
M  V30 8996 H 881.792 1.96652 4.46295 0
M  V30 8997 H 880.797 4.11977 3.64081 0
M  V30 8998 H 882.022 5.03887 4.55274 0
M  V30 8999 H 879.968 3.14525 5.75682 0
M  V30 9000 H 879.885 4.87628 5.77715 0
M  V30 9001 H 881.153 4.06795 6.64935 0
M  V30 9002 N 885.382 -0.782676 1.36792 0
M  V30 9003 C 886.63 -1.53778 1.31136 0
M  V30 9004 C 886.951 -1.94706 -0.107014 0
M  V30 9005 O 886.221 -1.65465 -1.04872 0
M  V30 9006 H 884.801 -0.570328 0.482426 0
M  V30 9007 H 887.463 -0.932181 1.71162 0
M  V30 9008 H 886.559 -2.44224 1.94321 0
M  V30 9009 N 886.86 -1.21182 -1.00761 0
M  V30 9010 C 888.109 -1.02166 -1.73911 0
M  V30 9011 C 888.422 0.445638 -1.90456 0
M  V30 9012 O 889.628 0.755132 -2.60787 0
M  V30 9013 C 888.084 -1.77936 -3.12837 0
M  V30 9014 C 887.692 -3.28819 -3.04273 0
M  V30 9015 C 889.436 -1.67319 -3.90134 0
M  V30 9016 C 887.343 -3.97089 -4.38262 0
M  V30 9017 H 886.273 -0.378665 -0.652019 0
M  V30 9018 H 888.924 -1.44891 -1.12601 0
M  V30 9019 H 887.306 -1.28003 -3.74742 0
M  V30 9020 H 888.48 -3.86035 -2.51622 0
M  V30 9021 H 886.795 -3.39949 -2.40465 0
M  V30 9022 H 889.392 -2.15659 -4.8928 0
M  V30 9023 H 889.735 -0.630959 -4.11491 0
M  V30 9024 H 890.268 -2.14716 -3.34876 0
M  V30 9025 H 887.007 -5.01503 -4.22107 0
M  V30 9026 H 886.527 -3.44662 -4.90885 0
M  V30 9027 H 888.206 -4.01854 -5.07072 0
M  V30 9028 N 888.338 1.20213 -1.01915 0
M  V30 9029 C 889.563 1.94163 -0.729076 0
M  V30 9030 C 889.988 1.74416 0.704323 0
M  V30 9031 O 889.346 1.0401 1.48498 0
M  V30 9032 C 889.394 3.44258 -1.07324 0
M  V30 9033 O 888.498 4.11979 -0.186367 0
M  V30 9034 H 887.839 0.606506 -0.270272 0
M  V30 9035 H 890.369 1.52571 -1.3632 0
M  V30 9036 H 890.379 3.94888 -1.02603 0
M  V30 9037 H 889.054 3.57954 -2.11759 0
M  V30 9038 H 887.631 3.7176 -0.291334 0
M  V30 9039 N 889.816 0.795718 1.36037 0
M  V30 9040 C 890.726 0.199784 2.33748 0
M  V30 9041 C 891.742 -0.651436 1.61345 0
M  V30 9042 O 892.918 -0.565743 1.93291 0
M  V30 9043 C 889.983 -0.650475 3.40543 0
M  V30 9044 C 889.044 0.219974 4.28736 0
M  V30 9045 C 888.277 -0.589798 5.30431 0
M  V30 9046 O 888.5 -1.82532 5.40406 0
M  V30 9047 O 887.434 0.0136187 6.01898 0
M  V30 9048 H 891.26 1.00782 2.8649 0
M  V30 9049 H 888.845 0.557293 1.38617 0
M  V30 9050 H 890.727 -1.13512 4.05824 0
M  V30 9051 H 889.402 -1.4363 2.9009 0
M  V30 9052 H 888.309 0.751516 3.66474 0
M  V30 9053 H 889.642 0.969468 4.82558 0
M  V30 9054 N 891.294 -1.47756 0.548274 0
M  V30 9055 C 892.571 -1.9555 -0.0443603 0
M  V30 9056 C 892.951 -1.49079 -1.49462 0
M  V30 9057 O 892.299 -0.725538 -2.16675 0
M  V30 9058 C 892.509 -3.48879 0.0918425 0
M  V30 9059 C 893.857 -4.2456 -0.0580879 0
M  V30 9060 O 894.881 -3.56195 0.018946 0
M  V30 9061 O 893.74 -5.46048 -0.222261 0
M  V30 9062 H 890.834 -0.824106 -0.0691235 0
M  V30 9063 H 893.38 -1.58196 0.614166 0
M  V30 9064 H 892.152 -3.7548 1.10137 0
M  V30 9065 H 891.775 -3.92975 -0.604704 0
M  V30 9066 N 892.772 -0.284283 -1.55015 0
M  V30 9067 C 893.997 0.335799 -2.04664 0
M  V30 9068 C 894.422 1.47999 -1.16094 0
M  V30 9069 O 893.78 1.8058 -0.161454 0
M  V30 9070 C 893.828 0.785615 -3.51938 0
M  V30 9071 O 892.932 1.89202 -3.66437 0
M  V30 9072 H 892.273 0.0680233 -0.660506 0
M  V30 9073 H 894.803 -0.421255 -2.00216 0
M  V30 9074 H 894.813 1.07892 -3.93476 0
M  V30 9075 H 893.488 -0.0514675 -4.15868 0
M  V30 9076 H 892.065 1.60055 -3.36804 0
M  V30 9077 N 894.251 1.57596 -0.0117121 0
M  V30 9078 C 895.201 2.05641 0.98467 0
M  V30 9079 C 896.185 0.953422 1.2961 0
M  V30 9080 O 897.377 1.21712 1.28512 0
M  V30 9081 C 894.506 2.57285 2.27286 0
M  V30 9082 C 893.592 3.74483 1.99057 0
M  V30 9083 N 893.983 4.85741 1.41029 0
M  V30 9084 C 892.281 3.82637 2.2914 0
M  V30 9085 C 892.982 5.67094 1.29536 0
M  V30 9086 N 891.958 5.13459 1.78497 0
M  V30 9087 H 895.76 2.89069 0.530702 0
M  V30 9088 H 893.274 1.6124 0.193717 0
M  V30 9089 H 895.271 2.89988 2.99521 0
M  V30 9090 H 893.931 1.75281 2.73325 0
M  V30 9091 H 894.942 5.06352 1.08756 0
M  V30 9092 H 891.619 3.11509 2.77972 0
M  V30 9093 H 893.009 6.66525 0.848144 0
M  V30 9094 N 895.729 -0.261212 1.5542 0
M  V30 9095 C 896.659 -1.32712 1.92119 0
M  V30 9096 C 897.64 -1.50934 0.784406 0
M  V30 9097 O 898.825 -1.63781 1.04352 0
M  V30 9098 C 895.955 -2.68453 2.20341 0
M  V30 9099 C 894.909 -2.64947 3.36136 0
M  V30 9100 C 894.235 -4.04349 3.49865 0
M  V30 9101 C 895.535 -2.23182 4.72215 0
M  V30 9102 H 897.229 -1.02245 2.81401 0
M  V30 9103 H 894.775 -0.490406 1.35392 0
M  V30 9104 H 896.728 -3.43144 2.44603 0
M  V30 9105 H 895.452 -3.00527 1.27871 0
M  V30 9106 H 894.111 -1.92714 3.11861 0
M  V30 9107 H 893.759 -4.33665 2.5484 0
M  V30 9108 H 893.459 -4.02895 4.27726 0
M  V30 9109 H 894.983 -4.80761 3.76432 0
M  V30 9110 H 896.397 -2.87599 4.95943 0
M  V30 9111 H 894.794 -2.32867 5.53076 0
M  V30 9112 H 895.864 -1.18327 4.70241 0
M  V30 9113 N 897.207 -1.48554 -0.526253 0
M  V30 9114 C 898.117 -1.66044 -1.65731 0
M  V30 9115 C 899.133 -0.542951 -1.65312 0
M  V30 9116 O 900.309 -0.814495 -1.84195 0
M  V30 9117 C 897.374 -1.69959 -3.02184 0
M  V30 9118 C 896.435 -2.93362 -3.13428 0
M  V30 9119 C 895.668 -2.97081 -4.43372 0
M  V30 9120 O 895.891 -2.09103 -5.3069 0
M  V30 9121 O 894.825 -3.8929 -4.59061 0
M  V30 9122 H 898.651 -2.61811 -1.53912 0
M  V30 9123 H 896.236 -1.31999 -0.699759 0
M  V30 9124 H 898.118 -1.75033 -3.83329 0
M  V30 9125 H 896.793 -0.773658 -3.14319 0
M  V30 9126 H 895.7 -2.93818 -2.31564 0
M  V30 9127 H 897.033 -3.85352 -3.06211 0
M  V30 9128 N 898.685 0.775411 -1.37205 0
M  V30 9129 C 899.91 1.5696 -1.35567 0
M  V30 9130 C 900.335 1.88012 0.0575554 0
M  V30 9131 O 899.693 1.48954 1.03355 0
M  V30 9132 C 899.741 2.85886 -2.19776 0
M  V30 9133 O 898.845 3.80103 -1.59987 0
M  V30 9134 H 898.186 0.475583 -0.463375 0
M  V30 9135 H 900.716 0.96001 -1.80679 0
M  V30 9136 H 900.726 3.35024 -2.32859 0
M  V30 9137 H 899.401 2.62613 -3.22502 0
M  V30 9138 H 897.978 3.38736 -1.55924 0
M  V30 9139 N 900.163 1.21714 1.00117 0
M  V30 9140 C 901.093 1.00397 2.10815 0
M  V30 9141 C 902.074 -0.0723502 1.69946 0
M  V30 9142 O 903.259 0.0882398 1.93999 0
M  V30 9143 C 900.389 0.572001 3.42557 0
M  V30 9144 C 899.343 1.59331 3.97237 0
M  V30 9145 C 898.669 1.01746 5.2493 0
M  V30 9146 C 899.969 2.98117 4.28863 0
M  V30 9147 H 901.663 1.92983 2.28906 0
M  V30 9148 H 899.209 0.929273 1.10002 0
M  V30 9149 H 901.162 0.410018 4.19401 0
M  V30 9150 H 899.886 -0.38951 3.24269 0
M  V30 9151 H 898.545 1.74293 3.22518 0
M  V30 9152 H 898.193 0.0475491 5.02978 0
M  V30 9153 H 897.893 1.69969 5.62481 0
M  V30 9154 H 899.417 0.866881 6.04415 0
M  V30 9155 H 900.831 2.86578 4.96534 0
M  V30 9156 H 899.228 3.63389 4.77565 0
M  V30 9157 H 900.298 3.48674 3.36979 0
M  V30 9158 N 901.641 -1.19671 1.02551 0
M  V30 9159 C 902.573 -2.22215 0.561517 0
M  V30 9160 C 903.586 -1.58751 -0.360821 0
M  V30 9161 O 904.775 -1.77802 -0.157749 0
M  V30 9162 C 901.875 -3.383 -0.201494 0
M  V30 9163 C 901.048 -4.3135 0.724952 0
M  V30 9164 C 900.107 -5.26199 0.00794334 0
M  V30 9165 O 899.133 -5.65665 0.633398 0
M  V30 9166 N 900.335 -5.66573 -1.26394 0
M  V30 9167 H 903.1 -2.6265 1.44343 0
M  V30 9168 H 900.661 -1.34303 0.904122 0
M  V30 9169 H 902.653 -3.98764 -0.690625 0
M  V30 9170 H 901.223 -2.96683 -0.98479 0
M  V30 9171 H 900.443 -3.6872 1.39423 0
M  V30 9172 H 901.731 -4.90433 1.35472 0
M  V30 9173 H 901.129 -5.36538 -1.79287 0
M  V30 9174 H 899.686 -6.29304 -1.69763 0
M  V30 9175 N 903.119 -0.802921 -1.35613 0
M  V30 9176 C 904.396 -0.304993 -1.93208 0
M  V30 9177 C 904.776 1.20488 -1.73337 0
M  V30 9178 O 904.124 2.00268 -1.10022 0
M  V30 9179 C 904.334 -0.712383 -3.41652 0
M  V30 9180 C 905.682 -0.699785 -4.18794 0
M  V30 9181 O 906.706 -0.653698 -3.5015 0
M  V30 9182 O 905.565 -0.754842 -5.41262 0
M  V30 9183 H 902.659 -0.0789127 -0.823226 0
M  V30 9184 H 905.205 -0.886372 -1.44712 0
M  V30 9185 H 903.977 -1.75316 -3.49829 0
M  V30 9186 H 903.6 -0.105614 -3.9746 0
M  V30 9187 N 904.597 1.47463 -0.556102 0
M  V30 9188 C 905.843 2.02775 -0.0316806 0
M  V30 9189 C 906.176 1.42967 1.3143 0
M  V30 9190 O 905.451 0.584847 1.85499 0
M  V30 9191 C 905.734 3.60046 0.0625742 0
M  V30 9192 C 905.587 4.30288 -1.31043 0
M  V30 9193 C 906.906 4.33195 0.776553 0
M  V30 9194 H 904.025 0.736886 -0.0129869 0
M  V30 9195 H 906.667 1.75904 -0.718177 0
M  V30 9196 H 904.817 3.83071 0.647231 0
M  V30 9197 H 906.489 4.18607 -1.9382 0
M  V30 9198 H 904.732 3.90685 -1.8854 0
M  V30 9199 H 905.403 5.38861 -1.1972 0
M  V30 9200 H 907.879 4.15156 0.280147 0
M  V30 9201 H 906.755 5.42869 0.81146 0
M  V30 9202 H 907.016 4.02336 1.83244 0
M  V30 9203 N 906.075 0.2925 1.54862 0
M  V30 9204 C 907.323 -0.318633 1.99572 0
M  V30 9205 C 907.644 -1.55062 1.1824 0
M  V30 9206 O 906.914 -1.93943 0.276226 0
M  V30 9207 H 905.494 -0.120722 0.737181 0
M  V30 9208 H 908.156 0.401862 1.90712 0
M  V30 9209 H 907.252 -0.596542 3.06346 0
M  V30 9210 N 907.553 -1.57587 0.0200696 0
M  V30 9211 C 908.485 -2.06555 -0.993359 0
M  V30 9212 C 909.498 -0.987227 -1.29451 0
M  V30 9213 O 910.687 -1.26361 -1.26075 0
M  V30 9214 C 907.787 -2.4675 -2.3231 0
M  V30 9215 C 906.96 -3.77554 -2.20843 0
M  V30 9216 C 906.019 -4.04397 -3.36674 0
M  V30 9217 O 905.045 -4.7478 -3.13963 0
M  V30 9218 N 906.247 -3.53861 -4.60176 0
M  V30 9219 H 909.012 -2.9412 -0.575617 0
M  V30 9220 H 906.573 -1.61038 -0.166889 0
M  V30 9221 H 908.565 -2.61806 -3.08609 0
M  V30 9222 H 907.135 -1.64598 -2.65756 0
M  V30 9223 H 906.355 -3.72382 -1.29327 0
M  V30 9224 H 907.643 -4.63271 -2.10375 0
M  V30 9225 H 907.041 -2.96904 -4.81523 0
M  V30 9226 H 905.598 -3.74213 -5.33674 0
M  V30 9227 N 909.032 0.252966 -1.55557 0
M  V30 9228 C 910.257 1.0038 -1.8149 0
M  V30 9229 C 910.682 1.78397 -0.596318 0
M  V30 9230 O 910.04 1.7551 0.454535 0
M  V30 9231 C 910.088 1.9222 -3.05096 0
M  V30 9232 O 909.192 3.01302 -2.81587 0
M  V30 9233 H 908.533 0.285949 -0.599274 0
M  V30 9234 H 911.063 0.275795 -2.02733 0
M  V30 9235 H 911.073 2.338 -3.34368 0
M  V30 9236 H 909.748 1.34852 -3.93431 0
M  V30 9237 H 908.325 2.63894 -2.63466 0
M  V30 9238 N 910.51 1.48831 0.518367 0
M  V30 9239 C 911.473 1.63721 1.604 0
M  V30 9240 C 912.473 0.509857 1.52503 0
M  V30 9241 O 913.663 0.775922 1.55965 0
M  V30 9242 C 910.795 1.61831 3.00039 0
M  V30 9243 H 911.988 2.60534 1.48533 0
M  V30 9244 H 909.541 1.37602 0.741309 0
M  V30 9245 H 910.276 0.665387 3.17401 0
M  V30 9246 H 910.061 2.43686 3.0718 0
M  V30 9247 H 911.551 1.75467 3.78947 0
M  V30 9248 N 911.988 -0.768124 1.37614 0
M  V30 9249 C 912.951 -1.86314 1.3349 0
M  V30 9250 C 913.951 -1.59025 0.23823 0
M  V30 9251 O 915.141 -1.6704 0.494288 0
M  V30 9252 C 912.273 -3.23519 1.07462 0
M  V30 9253 H 913.466 -1.91382 2.30896 0
M  V30 9254 H 911.019 -0.968267 1.22696 0
M  V30 9255 H 911.754 -3.24127 0.106028 0
M  V30 9256 H 911.539 -3.44719 1.86846 0
M  V30 9257 H 913.029 -4.03597 1.07236 0
M  V30 9258 N 913.466 -1.22244 -0.994698 0
M  V30 9259 C 914.877 -1.043 -1.5485 0
M  V30 9260 C 915.228 0.394102 -1.92201 0
M  V30 9261 O 914.353 1.27883 -1.74571 0
M  V30 9262 C 914.948 -1.88708 -2.8138 0
M  V30 9263 C 913.507 -1.75067 -3.3321 0
M  V30 9264 C 912.654 -1.85286 -2.06312 0
M  V30 9265 H 915.605 -1.36115 -0.815988 0
M  V30 9266 H 915.626 -1.40342 -3.53673 0
M  V30 9267 H 915.138 -2.93296 -2.54164 0
M  V30 9268 H 913.239 -0.732047 -3.65338 0
M  V30 9269 H 913.352 -2.57632 -4.03934 0
M  V30 9270 H 911.716 -1.28706 -2.19788 0
M  V30 9271 H 912.499 -2.91401 -1.81494 0
M  V30 9272 N 914.944 1.19125 -1.03184 0
M  V30 9273 C 916.172 1.92838 -0.74975 0
M  V30 9274 C 916.587 1.75667 0.691851 0
M  V30 9275 O 915.944 1.0805 1.47076 0
M  V30 9276 C 915.995 3.44509 -1.09525 0
M  V30 9277 O 915.716 3.6113 -2.48025 0
M  V30 9278 C 917.217 4.35338 -0.836397 0
M  V30 9279 H 914.437 0.61246 -0.274105 0
M  V30 9280 H 916.981 1.5118 -1.37712 0
M  V30 9281 H 915.136 3.83988 -0.513006 0
M  V30 9282 H 915.55 4.54959 -2.60984 0
M  V30 9283 H 917.024 5.4035 -1.12808 0
M  V30 9284 H 917.501 4.38602 0.229102 0
M  V30 9285 H 918.107 4.01544 -1.40152 0
M  V30 9286 N 916.422 0.810101 1.35185 0
M  V30 9287 C 917.669 0.392117 1.98667 0
M  V30 9288 C 917.997 -1.0416 1.64259 0
M  V30 9289 O 917.252 -1.73795 0.899647 0
M  V30 9290 C 917.551 0.526561 3.535 0
M  V30 9291 C 917.217 1.92411 4.07785 0
M  V30 9292 C 915.879 2.30644 4.22323 0
M  V30 9293 C 918.231 2.83827 4.37141 0
M  V30 9294 C 915.559 3.59655 4.63536 0
M  V30 9295 C 917.911 4.12287 4.79794 0
M  V30 9296 C 916.575 4.50515 4.92536 0
M  V30 9297 H 915.845 0.143486 0.726975 0
M  V30 9298 H 918.492 1.03157 1.61341 0
M  V30 9299 H 916.797 -0.19633 3.91308 0
M  V30 9300 H 918.494 0.183871 4.00578 0
M  V30 9301 H 915.084 1.61707 3.96924 0
M  V30 9302 H 919.268 2.55536 4.25459 0
M  V30 9303 H 914.524 3.89117 4.71591 0
M  V30 9304 H 918.698 4.83221 5.01468 0
M  V30 9305 H 916.325 5.50535 5.24229 0
M  V30 9306 N 917.9 -1.47166 0.563914 0
M  V30 9307 C 918.833 -2.27058 -0.227989 0
M  V30 9308 C 919.811 -1.34468 -0.914179 0
M  V30 9309 O 920.995 -1.63857 -0.931829 0
M  V30 9310 C 918.122 -3.11689 -1.32543 0
M  V30 9311 C 917.168 -4.19906 -0.747084 0
M  V30 9312 S 918.001 -5.33916 0.41153 0
M  V30 9313 C 919.157 -6.22112 -0.687566 0
M  V30 9314 H 919.39 -2.93876 0.449939 0
M  V30 9315 H 916.923 -1.50372 0.350382 0
M  V30 9316 H 918.881 -3.61017 -1.95389 0
M  V30 9317 H 917.542 -2.44221 -1.97522 0
M  V30 9318 H 916.735 -4.78876 -1.57141 0
M  V30 9319 H 916.337 -3.73493 -0.194671 0
M  V30 9320 H 918.629 -6.58867 -1.578 0
M  V30 9321 H 919.572 -7.07971 -0.135058 0
M  V30 9322 H 919.98 -5.55871 -0.983255 0
M  V30 9323 N 919.378 -0.300708 -1.54705 0
M  V30 9324 C 920.627 0.309428 -1.99312 0
M  V30 9325 C 920.94 1.55027 -1.19272 0
M  V30 9326 O 922.146 2.23498 -1.54146 0
M  V30 9327 C 920.602 0.601856 -3.54832 0
M  V30 9328 C 920.21 -0.620636 -4.4368 0
M  V30 9329 C 921.954 1.1732 -4.07966 0
M  V30 9330 C 919.861 -0.301376 -5.90632 0
M  V30 9331 H 918.791 0.119395 -0.744487 0
M  V30 9332 H 921.442 -0.409368 -1.78875 0
M  V30 9333 H 919.824 1.38024 -3.71168 0
M  V30 9334 H 920.998 -1.39685 -4.39118 0
M  V30 9335 H 919.313 -1.1106 -4.01316 0
M  V30 9336 H 921.91 1.42631 -5.15326 0
M  V30 9337 H 922.253 2.11537 -3.5855 0
M  V30 9338 H 922.786 0.456534 -3.95172 0
M  V30 9339 H 919.525 -1.21209 -6.44196 0
M  V30 9340 H 919.045 0.437574 -5.98202 0
M  V30 9341 H 920.724 0.097164 -6.46927 0
M  V30 9342 N 920.856 1.57574 -0.0284266 0
M  V30 9343 C 922.081 1.96479 0.664137 0
M  V30 9344 C 922.506 0.904826 1.64908 0
M  V30 9345 O 921.864 -0.134339 1.80802 0
M  V30 9346 C 921.912 3.34479 1.34745 0
M  V30 9347 O 921.016 3.30794 2.46271 0
M  V30 9348 H 920.357 0.640654 0.174524 0
M  V30 9349 H 922.887 2.04402 -0.0900729 0
M  V30 9350 H 922.897 3.70694 1.7044 0
M  V30 9351 H 921.572 4.1117 0.625468 0
M  V30 9352 H 920.149 3.06294 2.12693 0
M  V30 9353 N 922.334 -0.244713 1.55689 0
M  V30 9354 C 923.745 -0.813603 1.6804 0
M  V30 9355 C 924.096 -1.85936 0.626281 0
M  V30 9356 O 923.221 -2.15206 -0.227038 0
M  V30 9357 C 923.816 -1.48252 3.04642 0
M  V30 9358 C 922.375 -1.99908 3.18926 0
M  V30 9359 C 921.522 -0.850958 2.6392 0
M  V30 9360 H 924.473 -0.0204805 1.58687 0
M  V30 9361 H 924.494 -2.35062 2.99209 0
M  V30 9362 H 924.006 -0.721164 3.81341 0
M  V30 9363 H 922.107 -2.78918 2.47054 0
M  V30 9364 H 922.22 -2.19497 4.25862 0
M  V30 9365 H 920.584 -1.25206 2.21801 0
M  V30 9366 H 921.367 -0.10265 3.43146 0
M  V30 9367 N 923.813 -1.49104 -0.510467 0
M  V30 9368 C 924.723 -1.67792 -1.6396 0
M  V30 9369 C 925.739 -0.560454 -1.64727 0
M  V30 9370 O 926.915 -0.833985 -1.83321 0
M  V30 9371 C 923.98 -1.73154 -3.00364 0
M  V30 9372 C 923.041 -2.9667 -3.10299 0
M  V30 9373 C 922.274 -3.01767 -4.40196 0
M  V30 9374 O 922.497 -2.1472 -5.28443 0
M  V30 9375 O 921.431 -3.94137 -4.54906 0
M  V30 9376 H 925.257 -2.63428 -1.51126 0
M  V30 9377 H 922.842 -1.32734 -0.685719 0
M  V30 9378 H 924.724 -1.79089 -3.81451 0
M  V30 9379 H 923.399 -0.806952 -3.1348 0
M  V30 9380 H 922.306 -2.96257 -2.28435 0
M  V30 9381 H 923.639 -3.88578 -3.02106 0
M  V30 9382 N 925.291 0.760815 -1.38019 0
M  V30 9383 C 926.519 1.55001 -1.37048 0
M  V30 9384 C 926.934 1.88754 0.0415261 0
M  V30 9385 O 926.291 1.52254 1.00624 0
M  V30 9386 C 926.342 2.8536 -2.21928 0
M  V30 9387 O 926.063 2.53049 -3.57628 0
M  V30 9388 C 927.564 3.79536 -2.29057 0
M  V30 9389 H 924.784 0.479844 -0.469032 0
M  V30 9390 H 927.328 0.942148 -1.81504 0
M  V30 9391 H 925.483 3.42542 -1.80953 0
M  V30 9392 H 925.897 3.36604 -4.02241 0
M  V30 9393 H 927.371 4.67977 -2.92749 0
M  V30 9394 H 927.848 4.19453 -1.30213 0
M  V30 9395 H 928.454 3.28281 -2.70392 0
M  V30 9396 N 926.769 1.22769 0.988202 0
M  V30 9397 C 928.015 1.05665 1.73097 0
M  V30 9398 C 928.348 -0.406615 1.89895 0
M  V30 9399 O 927.623 -1.30132 1.44554 0
M  V30 9400 C 927.906 1.77381 3.13382 0
M  V30 9401 C 927.759 3.31332 3.04203 0
M  V30 9402 C 929.078 1.52999 4.12649 0
M  V30 9403 H 926.197 0.385258 0.628288 0
M  V30 9404 H 928.839 1.51171 1.15097 0
M  V30 9405 H 926.989 1.38696 3.62899 0
M  V30 9406 H 928.661 3.79489 2.6227 0
M  V30 9407 H 926.904 3.60767 2.40894 0
M  V30 9408 H 927.575 3.76692 4.03493 0
M  V30 9409 H 930.051 1.86611 3.71908 0
M  V30 9410 H 928.927 2.05666 5.08913 0
M  V30 9411 H 929.188 0.463615 4.39662 0
M  V30 9412 N 928.247 -1.18576 1.03814 0
M  V30 9413 C 929.475 -1.92437 0.759966 0
M  V30 9414 C 929.89 -1.76031 -0.682526 0
M  V30 9415 O 929.247 -1.08829 -1.46501 0
M  V30 9416 C 929.298 -3.43923 1.11351 0
M  V30 9417 O 929.019 -3.5981 2.49937 0
M  V30 9418 C 930.52 -4.34888 0.859472 0
M  V30 9419 H 927.74 -0.610998 0.277349 0
M  V30 9420 H 930.284 -1.50448 1.38512 0
M  V30 9421 H 928.439 -3.83711 0.533362 0
M  V30 9422 H 928.853 -4.53569 2.63393 0
M  V30 9423 H 930.327 -5.39744 1.15672 0
M  V30 9424 H 930.804 -4.38717 -0.205839 0
M  V30 9425 H 931.41 -4.00795 1.42279 0
M  V30 9426 N 929.725 -0.817259 -1.34754 0
M  V30 9427 C 930.973 -0.401852 -1.98065 0
M  V30 9428 C 931.294 1.03718 -1.65129 0
M  V30 9429 O 930.564 1.71921 -0.939141 0
M  V30 9430 H 929.144 -0.145603 -0.732672 0
M  V30 9431 H 931.806 -1.04545 -1.64488 0
M  V30 9432 H 930.902 -0.516241 -3.07801 0
M  V30 9433 N 931.203 1.46865 -0.571711 0
M  V30 9434 C 932.431 2.06818 -0.0583975 0
M  V30 9435 C 932.846 1.42218 1.24175 0
M  V30 9436 O 932.203 0.523655 1.74826 0
M  V30 9437 C 932.254 3.61281 0.125673 0
M  V30 9438 O 931.975 4.23462 -1.123 0
M  V30 9439 C 933.476 4.38137 0.674604 0
M  V30 9440 H 930.696 0.668948 -0.052438 0
M  V30 9441 H 933.24 1.88656 -0.789251 0
M  V30 9442 H 931.395 3.78908 0.806707 0
M  V30 9443 H 931.809 5.16192 -0.929869 0
M  V30 9444 H 933.283 5.46845 0.752626 0
M  V30 9445 H 933.76 4.05419 1.68915 0
M  V30 9446 H 934.366 4.2529 0.0287979 0
M  V30 9447 N 932.681 0.308908 1.54543 0
M  V30 9448 C 933.929 -0.297447 1.99899 0
M  V30 9449 C 934.25 -1.53799 1.19878 0
M  V30 9450 O 933.52 -1.93639 0.29678 0
M  V30 9451 H 932.1 -0.112897 0.738419 0
M  V30 9452 H 934.762 0.422067 1.90275 0
M  V30 9453 H 933.858 -0.564016 3.06961 0
M  V30 9454 N 934.159 -1.57557 0.0367827 0
M  V30 9455 C 935.106 -2.10679 -0.942499 0
M  V30 9456 C 936.076 -1.01068 -1.31812 0
M  V30 9457 O 937.261 -1.28533 -1.41011 0
M  V30 9458 C 934.401 -2.64467 -2.21701 0
M  V30 9459 C 933.514 -3.88114 -1.89715 0
M  V30 9460 C 932.649 -4.30268 -3.11518 0
M  V30 9461 C 931.688 -5.46652 -2.75387 0
M  V30 9462 N 930.825 -5.83927 -3.89838 0
M  V30 9463 H 935.665 -2.94066 -0.482588 0
M  V30 9464 H 933.202 -1.45344 -0.226597 0
M  V30 9465 H 935.16 -2.93745 -2.96259 0
M  V30 9466 H 933.79 -1.83898 -2.65295 0
M  V30 9467 H 932.842 -3.65516 -1.05366 0
M  V30 9468 H 934.154 -4.72743 -1.5911 0
M  V30 9469 H 933.308 -4.61023 -3.94389 0
M  V30 9470 H 932.047 -3.44421 -3.4529 0
M  V30 9471 H 931.052 -5.15583 -1.90929 0
M  V30 9472 H 932.277 -6.34204 -2.42822 0
M  V30 9473 H 930.223 -5.01035 -4.23438 0
M  V30 9474 H 930.14 -6.63214 -3.62883 0
M  V30 9475 H 931.408 -6.19291 -4.73391 0
M  V30 9476 N 935.637 0.236453 -1.55816 0
M  V30 9477 C 936.584 1.29289 -1.91188 0
M  V30 9478 C 937.554 1.47315 -0.767301 0
M  V30 9479 O 938.739 1.61128 -1.02189 0
M  V30 9480 C 935.879 2.64126 -2.22107 0
M  V30 9481 C 934.992 2.54022 -3.49423 0
M  V30 9482 C 934.127 3.81282 -3.69861 0
M  V30 9483 C 933.166 3.65839 -4.90743 0
M  V30 9484 N 932.303 4.85014 -5.07647 0
M  V30 9485 H 937.143 0.98424 -2.81277 0
M  V30 9486 H 934.68 0.474722 -1.39229 0
M  V30 9487 H 936.638 3.42626 -2.3804 0
M  V30 9488 H 935.268 2.93118 -1.35209 0
M  V30 9489 H 934.32 1.67036 -3.41765 0
M  V30 9490 H 935.632 2.38525 -4.38072 0
M  V30 9491 H 934.786 4.68226 -3.8581 0
M  V30 9492 H 933.525 3.99688 -2.79465 0
M  V30 9493 H 932.53 2.77279 -4.74759 0
M  V30 9494 H 933.755 3.48918 -5.82609 0
M  V30 9495 H 931.701 5.03762 -4.20191 0
M  V30 9496 H 931.618 4.72188 -5.90402 0
M  V30 9497 H 932.886 5.73427 -5.28017 0
M  V30 9498 N 937.115 1.49373 0.502552 0
M  V30 9499 C 938.355 1.60398 1.26696 0
M  V30 9500 C 938.719 0.283599 1.89894 0
M  V30 9501 O 939.92 0.269022 2.6745 0
M  V30 9502 C 938.191 2.72998 2.30666 0
M  V30 9503 S 939.75 3.03964 3.16466 0
M  V30 9504 H 936.568 0.565781 0.430596 0
M  V30 9505 H 939.17 1.87024 0.569418 0
M  V30 9506 H 937.874 3.67458 1.82765 0
M  V30 9507 H 937.405 2.4836 3.05091 0
M  V30 9508 H 939.42 2.45367 4.31288 0
M  V30 9509 N 938.594 -0.753485 1.38421 0
M  V30 9510 C 939.819 -1.54783 1.38047 0
M  V30 9511 C 940.244 -1.8808 -0.0276371 0
M  V30 9512 O 939.602 -1.5058 -1.00973 0
M  V30 9513 C 939.65 -2.82353 2.24297 0
M  V30 9514 O 938.754 -3.77509 1.66014 0
M  V30 9515 H 938.095 -0.468151 0.470883 0
M  V30 9516 H 940.625 -0.931144 1.82184 0
M  V30 9517 H 940.635 -3.31277 2.38159 0
M  V30 9518 H 939.31 -2.57449 3.26639 0
M  V30 9519 H 937.887 -3.36212 1.61294 0
M  V30 9520 N 940.072 -1.23292 -0.981677 0
M  V30 9521 C 941.002 -1.03738 -2.09191 0
M  V30 9522 C 941.983 0.0453041 -1.7004 0
M  V30 9523 O 943.168 -0.119092 -1.93834 0
M  V30 9524 C 940.298 -0.626426 -3.41604 0
M  V30 9525 C 939.252 -1.65631 -3.94652 0
M  V30 9526 C 938.578 -1.10084 -5.23245 0
M  V30 9527 C 939.878 -3.04903 -4.24066 0
M  V30 9528 H 941.572 -1.966 -2.25807 0
M  V30 9529 H 939.118 -0.946656 -1.0851 0
M  V30 9530 H 941.071 -0.476689 -4.18695 0
M  V30 9531 H 939.795 0.337873 -3.24848 0
M  V30 9532 H 938.454 -1.79402 -3.19704 0
M  V30 9533 H 938.102 -0.127562 -5.02838 0
M  V30 9534 H 937.802 -1.78896 -5.59705 0
M  V30 9535 H 939.326 -0.962928 -6.02959 0
M  V30 9536 H 940.74 -2.94441 -4.91912 0
M  V30 9537 H 939.137 -3.70941 -4.71724 0
M  V30 9538 H 940.207 -3.53991 -3.31389 0
M  V30 9539 N 941.55 1.18024 -1.04442 0
M  V30 9540 C 942.961 1.69749 -0.777312 0
M  V30 9541 C 943.312 1.83234 0.701399 0
M  V30 9542 O 942.437 1.51452 1.54568 0
M  V30 9543 C 943.032 3.08321 -1.40441 0
M  V30 9544 C 941.591 3.57243 -1.18553 0
M  V30 9545 C 940.738 2.33695 -1.49271 0
M  V30 9546 H 943.689 1.02647 -1.21035 0
M  V30 9547 H 943.71 3.71787 -0.809628 0
M  V30 9548 H 943.222 2.98474 -2.48062 0
M  V30 9549 H 941.323 3.72379 -0.128221 0
M  V30 9550 H 941.436 4.40451 -1.88519 0
M  V30 9551 H 939.8 2.37792 -0.912526 0
M  V30 9552 H 940.583 2.26464 -2.5801 0
M  V30 9553 N 943.028 0.824394 1.34319 0
M  V30 9554 C 943.991 0.252696 2.27803 0
M  V30 9555 C 944.991 -0.570254 1.50349 0
M  V30 9556 O 946.181 -0.386145 1.69866 0
M  V30 9557 C 943.313 -0.645575 3.34731 0
M  V30 9558 H 944.506 1.07742 2.79878 0
M  V30 9559 H 942.059 0.596367 1.44475 0
M  V30 9560 H 942.794 -1.4933 2.87873 0
M  V30 9561 H 942.579 -0.0569478 3.92059 0
M  V30 9562 H 944.069 -1.03933 4.0446 0
M  V30 9563 N 944.506 -1.46559 0.579492 0
M  V30 9564 C 945.416 -2.34066 -0.15816 0
M  V30 9565 C 946.432 -1.49556 -0.88932 0
M  V30 9566 O 947.608 -1.82434 -0.853226 0
M  V30 9567 C 944.673 -3.26683 -1.161 0
M  V30 9568 C 943.734 -4.27092 -0.434855 0
M  V30 9569 C 942.967 -5.15283 -1.38992 0
M  V30 9570 O 943.19 -5.06345 -2.62623 0
M  V30 9571 O 942.124 -5.95099 -0.902253 0
M  V30 9572 H 945.95 -2.98488 0.560234 0
M  V30 9573 H 943.535 -1.45482 0.339918 0
M  V30 9574 H 945.417 -3.8383 -1.73932 0
M  V30 9575 H 944.092 -2.64862 -1.86091 0
M  V30 9576 H 942.999 -3.73641 0.185224 0
M  V30 9577 H 944.332 -4.9169 0.224031 0
M  V30 9578 N 945.984 -0.3171 -1.54377 0
M  V30 9579 C 946.894 0.560867 -2.27797 0
M  V30 9580 C 947.91 1.13473 -1.31908 0
M  V30 9581 O 949.086 1.15608 -1.64914 0
M  V30 9582 C 946.151 1.70886 -3.0166 0
M  V30 9583 C 945.212 1.16745 -4.13121 0
M  V30 9584 C 944.445 2.26073 -4.83453 0
M  V30 9585 O 944.668 3.46292 -4.53252 0
M  V30 9586 O 943.602 1.91856 -5.70504 0
M  V30 9587 H 947.428 -0.035193 -3.0368 0
M  V30 9588 H 945.013 -0.0830062 -1.49169 0
M  V30 9589 H 946.895 2.37736 -3.47936 0
M  V30 9590 H 945.57 2.29122 -2.28658 0
M  V30 9591 H 944.477 0.464224 -3.71209 0
M  V30 9592 H 945.81 0.630307 -4.88147 0
M  V30 9593 N 947.462 1.57535 -0.0451378 0
M  V30 9594 C 948.739 1.83785 0.669523 0
M  V30 9595 C 949.119 0.932331 1.89396 0
M  V30 9596 O 948.467 -0.00813229 2.28499 0
M  V30 9597 C 948.677 3.33376 1.03255 0
M  V30 9598 C 950.025 4.00243 1.41741 0
M  V30 9599 O 951.049 3.37965 1.12507 0
M  V30 9600 O 949.908 5.10038 1.96275 0
M  V30 9601 H 947.002 0.758342 0.329919 0
M  V30 9602 H 949.548 1.69538 -0.0740415 0
M  V30 9603 H 948.32 3.90965 0.161777 0
M  V30 9604 H 947.943 3.52787 1.83376 0
M  V30 9605 N 948.94 -0.228186 1.55939 0
M  V30 9606 C 950.165 -0.974795 1.83064 0
M  V30 9607 C 950.59 -1.77426 0.624624 0
M  V30 9608 O 949.948 -1.76211 -0.426556 0
M  V30 9609 C 949.996 -1.87342 3.08116 0
M  V30 9610 O 949.1 -2.96784 2.86344 0
M  V30 9611 H 948.441 -0.276379 0.603747 0
M  V30 9612 H 950.971 -0.243507 2.03146 0
M  V30 9613 H 950.981 -2.28451 3.38045 0
M  V30 9614 H 949.656 -1.28575 3.95526 0
M  V30 9615 H 948.233 -2.59669 2.67631 0
M  V30 9616 N 950.418 -1.49637 -0.494624 0
M  V30 9617 C 951.664 -1.59681 -1.25019 0
M  V30 9618 C 951.997 -0.285511 -1.9209 0
M  V30 9619 O 951.272 0.711398 -1.81023 0
M  V30 9620 C 951.555 -2.76058 -2.31222 0
M  V30 9621 C 951.408 -4.17002 -1.68611 0
M  V30 9622 C 952.727 -2.88056 -3.32734 0
M  V30 9623 H 949.846 -0.581209 -0.453172 0
M  V30 9624 H 952.488 -1.81944 -0.547391 0
M  V30 9625 H 950.638 -2.57207 -2.91164 0
M  V30 9626 H 952.31 -4.47385 -1.12447 0
M  V30 9627 H 950.553 -4.22352 -0.989991 0
M  V30 9628 H 951.224 -4.94316 -2.45674 0
M  V30 9629 H 953.7 -3.05237 -2.82789 0
M  V30 9630 H 952.576 -3.71151 -4.04399 0
M  V30 9631 H 952.837 -1.97676 -3.95445 0
M  V30 9632 N 951.896 0.746133 -1.38819 0
M  V30 9633 C 952.826 1.87344 -1.39372 0
M  V30 9634 C 953.807 1.68123 -0.258583 0
M  V30 9635 O 954.992 1.88606 -0.462769 0
M  V30 9636 C 952.122 3.24962 -1.22543 0
M  V30 9637 C 951.076 3.58799 -2.33339 0
M  V30 9638 C 950.402 4.95235 -2.01609 0
M  V30 9639 C 951.702 3.62911 -3.75624 0
M  V30 9640 H 953.396 1.87138 -2.33709 0
M  V30 9641 H 950.942 0.898937 -1.12495 0
M  V30 9642 H 952.895 4.03488 -1.21554 0
M  V30 9643 H 951.619 3.25667 -0.246707 0
M  V30 9644 H 950.278 2.82596 -2.33527 0
M  V30 9645 H 949.926 4.92508 -1.02202 0
M  V30 9646 H 949.626 5.18843 -2.75819 0
M  V30 9647 H 951.15 5.76131 -2.02251 0
M  V30 9648 H 952.564 4.31535 -3.77426 0
M  V30 9649 H 950.961 3.98031 -4.491 0
M  V30 9650 H 952.031 2.62967 -4.07402 0
M  V30 9651 N 953.375 1.23811 0.975125 0
M  V30 9652 C 954.285 1.0408 2.10249 0
M  V30 9653 C 955.301 -0.0162404 1.73992 0
M  V30 9654 O 956.477 0.180346 2.00591 0
M  V30 9655 C 953.542 0.640013 3.40741 0
M  V30 9656 C 952.603 1.7727 3.90991 0
M  V30 9657 C 951.836 1.39094 5.15256 0
M  V30 9658 O 952.059 0.277483 5.69725 0
M  V30 9659 O 950.993 2.21392 5.59704 0
M  V30 9660 H 954.819 1.98575 2.29786 0
M  V30 9661 H 952.404 1.02563 1.08633 0
M  V30 9662 H 954.286 0.427684 4.19224 0
M  V30 9663 H 952.961 -0.27589 3.22522 0
M  V30 9664 H 951.868 2.03971 3.13602 0
M  V30 9665 H 953.201 2.66711 4.13674 0
M  V30 9666 N 954.853 -1.17469 1.05066 0
M  V30 9667 C 955.8 -2.21443 0.650512 0
M  V30 9668 C 956.77 -1.62441 -0.346702 0
M  V30 9669 O 957.955 -1.89305 -0.238404 0
M  V30 9670 C 955.095 -3.45087 0.0301014 0
M  V30 9671 C 954.208 -4.18385 1.07599 0
M  V30 9672 C 953.343 -5.29513 0.423038 0
M  V30 9673 C 952.382 -5.94596 1.45333 0
M  V30 9674 N 951.519 -6.97241 0.824623 0
M  V30 9675 H 956.359 -2.55025 1.54163 0
M  V30 9676 H 953.896 -1.25274 0.771032 0
M  V30 9677 H 955.854 -4.15754 -0.347032 0
M  V30 9678 H 954.484 -3.12093 -0.824481 0
M  V30 9679 H 953.536 -3.46446 1.57097 0
M  V30 9680 H 954.848 -4.62899 1.85813 0
M  V30 9681 H 954.002 -6.067 -0.00774975 0
M  V30 9682 H 952.741 -4.86129 -0.391092 0
M  V30 9683 H 951.746 -5.16142 1.89415 0
M  V30 9684 H 952.971 -6.40061 2.26934 0
M  V30 9685 H 950.917 -6.55993 0.0309804 0
M  V30 9686 H 950.834 -7.40059 1.54432 0
M  V30 9687 H 952.102 -7.78375 0.418567 0
M  V30 9688 N 956.331 -0.831506 -1.3388 0
M  V30 9689 C 957.261 -0.274378 -2.31882 0
M  V30 9690 C 958.242 0.613872 -1.58637 0
M  V30 9691 O 959.427 0.538961 -1.86571 0
M  V30 9692 C 956.557 0.557498 -3.42796 0
M  V30 9693 C 955.511 -0.234337 -4.27358 0
M  V30 9694 C 954.837 0.720825 -5.29819 0
M  V30 9695 C 956.137 -1.44732 -5.01847 0
M  V30 9696 H 957.831 -1.09322 -2.78728 0
M  V30 9697 H 955.377 -0.527136 -1.34005 0
M  V30 9698 H 957.33 0.957501 -4.10378 0
M  V30 9699 H 956.054 1.40947 -2.94621 0
M  V30 9700 H 954.713 -0.61581 -3.61391 0
M  V30 9701 H 954.361 1.569 -4.77903 0
M  V30 9702 H 954.061 0.195171 -5.87276 0
M  V30 9703 H 955.585 1.1185 -6.00268 0
M  V30 9704 H 956.999 -1.12087 -5.62236 0
M  V30 9705 H 955.396 -1.90923 -5.68919 0
M  V30 9706 H 956.466 -2.22099 -4.31045 0
M  V30 9707 N 957.809 1.4625 -0.587256 0
M  V30 9708 C 959.057 2.01963 -0.0744273 0
M  V30 9709 C 959.378 1.46065 1.29189 0
M  V30 9710 O 958.648 0.647077 1.84905 0
M  V30 9711 H 957.228 0.746597 -0.0245236 0
M  V30 9712 H 959.89 1.79299 -0.764063 0
M  V30 9713 H 958.986 3.12099 -0.00884894 0
M  V30 9714 N 959.287 0.325282 1.54207 0
M  V30 9715 C 960.197 -0.548778 2.28091 0
M  V30 9716 C 961.213 -1.12772 1.32508 0
M  V30 9717 O 962.389 -1.14732 1.65525 0
M  V30 9718 C 959.454 -1.69284 3.02562 0
M  V30 9719 C 958.515 -1.14553 4.13734 0
M  V30 9720 C 957.748 -2.23506 4.84645 0
M  V30 9721 O 957.971 -3.43884 4.55082 0
M  V30 9722 O 956.905 -1.88828 5.71513 0
M  V30 9723 H 960.731 0.0512974 3.03657 0
M  V30 9724 H 958.316 0.0909159 1.49123 0
M  V30 9725 H 960.198 -2.35887 3.49192 0
M  V30 9726 H 958.873 -2.27906 2.2987 0
M  V30 9727 H 957.78 -0.444532 3.71449 0
M  V30 9728 H 959.113 -0.60441 4.88475 0
M  V30 9729 N 960.765 -1.57509 0.0534917 0
M  V30 9730 C 962.181 -1.56696 -0.303067 0
M  V30 9731 C 962.381 -1.06135 -1.71282 0
M  V30 9732 O 961.437 -0.71899 -2.42047 0
M  V30 9733 C 962.75 -3.00421 -0.129418 0
M  V30 9734 C 964.298 -3.12358 -0.200346 0
M  V30 9735 C 964.773 -4.57967 -0.0551971 0
M  V30 9736 N 966.264 -4.63066 -0.111398 0
M  V30 9737 C 966.999 -5.73395 -0.0232344 0
M  V30 9738 N 966.495 -6.92701 0.11741 0
M  V30 9739 N 968.288 -5.62045 -0.078984 0
M  V30 9740 H 960.439 -1.88696 0.975064 0
M  V30 9741 H 962.702 -0.869072 0.378706 0
M  V30 9742 H 962.408 -3.41456 0.842653 0
M  V30 9743 H 962.282 -3.66563 -0.889476 0
M  V30 9744 H 964.669 -2.71221 -1.16289 0
M  V30 9745 H 964.75 -2.48891 0.590506 0
M  V30 9746 H 964.394 -4.9979 0.904034 0
M  V30 9747 H 964.324 -5.19443 -0.865223 0
M  V30 9748 H 966.815 -3.77263 -0.219256 0
M  V30 9749 H 967.128 -7.72597 0.177326 0
M  V30 9750 H 965.473 -6.94833 0.152526 0
M  V30 9751 H 968.664 -4.67725 -0.187434 0
M  V30 9752 H 968.837 -6.48 -0.00681731 0
M  V30 9753 N 962.243 0.219913 -1.56058 0
M  V30 9754 C 963.19 1.27254 -1.92549 0
M  V30 9755 C 964.16 1.46493 -0.782883 0
M  V30 9756 O 965.345 1.60035 -1.03892 0
M  V30 9757 C 962.485 2.61756 -2.24896 0
M  V30 9758 C 961.598 2.50302 -3.52098 0
M  V30 9759 C 960.733 3.77338 -3.73884 0
M  V30 9760 C 959.772 3.60613 -4.94595 0
M  V30 9761 N 958.909 4.79603 -5.12763 0
M  V30 9762 H 963.749 0.954352 -2.82305 0
M  V30 9763 H 961.286 0.459928 -1.39725 0
M  V30 9764 H 963.244 3.40082 -2.4166 0
M  V30 9765 H 961.874 2.91668 -1.38311 0
M  V30 9766 H 960.926 1.63401 -3.43517 0
M  V30 9767 H 962.238 2.33866 -4.40577 0
M  V30 9768 H 961.392 4.64108 -3.90754 0
M  V30 9769 H 960.131 3.96702 -2.83689 0
M  V30 9770 H 959.136 2.72228 -4.77674 0
M  V30 9771 H 960.361 3.42719 -5.86277 0
M  V30 9772 H 958.307 4.99277 -4.2551 0
M  V30 9773 H 958.224 4.65899 -5.95377 0
M  V30 9774 H 959.492 5.67794 -5.34069 0
M  V30 9775 N 963.721 1.49897 0.486681 0
M  V30 9776 C 965.132 1.53142 1.06792 0
M  V30 9777 C 965.483 0.325856 1.93475 0
M  V30 9778 O 964.608 -0.562893 2.08951 0
M  V30 9779 C 965.203 2.77514 1.94348 0
M  V30 9780 C 963.762 2.83491 2.47609 0
M  V30 9781 C 962.909 2.47239 1.2557 0
M  V30 9782 H 965.86 1.56387 0.269962 0
M  V30 9783 H 965.881 2.58487 2.79221 0
M  V30 9784 H 965.393 3.65239 1.31232 0
M  V30 9785 H 963.494 2.0008 3.14323 0
M  V30 9786 H 963.607 3.86011 2.83782 0
M  V30 9787 H 961.971 1.99332 1.58552 0
M  V30 9788 H 962.754 3.37255 0.641404 0
M  V30 9789 N 965.199 -0.738761 1.39212 0
M  V30 9790 C 966.439 -1.51093 1.3766 0
M  V30 9791 C 966.803 -1.91978 -0.0289655 0
M  V30 9792 O 968.004 -2.68265 -0.169465 0
M  V30 9793 C 966.275 -2.71988 2.31856 0
M  V30 9794 S 967.834 -3.61683 2.48458 0
M  V30 9795 H 964.652 -0.516868 0.48823 0
M  V30 9796 H 967.254 -0.865961 1.75275 0
M  V30 9797 H 965.958 -2.40085 3.32847 0
M  V30 9798 H 965.489 -3.41417 1.95443 0
M  V30 9799 H 967.504 -4.65447 1.71969 0
M  V30 9800 N 966.677 -1.24326 -0.968545 0
M  V30 9801 C 967.625 -1.03256 -2.08425 0
M  V30 9802 C 968.619 0.0322356 -1.69369 0
M  V30 9803 O 969.825 -0.122251 -1.79584 0
M  V30 9804 H 966.2 -0.31688 -0.681976 0
M  V30 9805 H 968.171 -1.97873 -2.23358 0
M  V30 9806 C 966.92 -0.653144 -3.4151 0
M  V30 9807 H 966.243 -1.46424 -3.72021 0
M  V30 9808 H 967.683 -0.545316 -4.20479 0
M  V30 9809 C 966.142 0.639674 -3.30771 0
M  V30 9810 O 966.672 1.68563 -3.64622 0
M  V30 9811 N 964.878 0.620074 -2.83907 0
M  V30 9812 H 964.425 -0.231449 -2.56558 0
M  V30 9813 H 964.383 1.48528 -2.77104 0
M  V30 9814 N 968.156 1.1691 -1.05688 0
M  V30 9815 C 969.381 1.91745 -0.790478 0
M  V30 9816 C 969.806 1.76568 0.648478 0
M  V30 9817 O 969.164 1.08682 1.45114 0
M  V30 9818 C 969.212 3.4067 -1.18222 0
M  V30 9819 O 968.316 4.11177 -0.317341 0
M  V30 9820 H 967.657 0.5976 -0.28943 0
M  V30 9821 H 970.187 1.48157 -1.41105 0
M  V30 9822 H 970.197 3.91424 -1.15114 0
M  V30 9823 H 968.872 3.51036 -2.2304 0
M  V30 9824 H 967.449 3.70645 -0.409459 0
M  V30 9825 N 969.634 0.838594 1.33437 0
M  V30 9826 C 970.566 0.229006 2.28053 0
M  V30 9827 C 971.579 -0.590103 1.51729 0
M  V30 9828 O 972.768 -0.417218 1.73556 0
M  V30 9829 C 969.868 -0.696251 3.31671 0
M  V30 9830 C 969.041 0.0834606 4.3732 0
M  V30 9831 C 968.1 -0.765097 5.20608 0
M  V30 9832 O 967.126 -0.2044 5.68833 0
M  V30 9833 N 968.328 -2.08249 5.4186 0
M  V30 9834 H 971.093 1.04196 2.81004 0
M  V30 9835 H 968.654 0.697031 1.46127 0
M  V30 9836 H 970.646 -1.26889 3.84293 0
M  V30 9837 H 969.216 -1.40992 2.78998 0
M  V30 9838 H 968.436 0.837481 3.85201 0
M  V30 9839 H 969.724 0.619613 5.05013 0
M  V30 9840 H 969.122 -2.56156 5.04381 0
M  V30 9841 H 967.679 -2.60362 5.97541 0
M  V30 9842 N 971.112 -1.45937 0.595003 0
M  V30 9843 C 972.523 -1.85908 0.171779 0
M  V30 9844 C 972.874 -1.497 -1.26824 0
M  V30 9845 O 971.999 -0.917688 -1.95978 0
M  V30 9846 C 972.594 -3.37425 0.304976 0
M  V30 9847 C 971.153 -3.76346 -0.0634635 0
M  V30 9848 C 970.3 -2.69926 0.635255 0
M  V30 9849 H 973.251 -1.36916 0.802471 0
M  V30 9850 H 973.272 -3.77632 -0.466313 0
M  V30 9851 H 972.784 -3.63747 1.35314 0
M  V30 9852 H 970.885 -3.55642 -1.11129 0
M  V30 9853 H 970.998 -4.78021 0.321419 0
M  V30 9854 H 969.362 -2.54592 0.0742054 0
M  V30 9855 H 970.145 -2.99086 1.68531 0
M  V30 9856 N 972.59 -0.333456 -1.54032 0
M  V30 9857 C 973.815 0.270517 -2.05628 0
M  V30 9858 C 974.24 1.44231 -1.20744 0
M  V30 9859 O 973.598 1.79975 -0.218822 0
M  V30 9860 C 973.646 0.673251 -3.54259 0
M  V30 9861 O 972.75 1.77448 -3.72271 0
M  V30 9862 H 972.091 0.0469753 -0.662336 0
M  V30 9863 H 974.621 -0.484739 -1.98775 0
M  V30 9864 H 974.631 0.953194 -3.96709 0
M  V30 9865 H 973.306 -0.183747 -4.15494 0
M  V30 9866 H 971.883 1.49259 -3.41725 0
M  V30 9867 N 974.068 1.57479 -0.061844 0
M  V30 9868 C 974.978 2.15645 0.923826 0
M  V30 9869 C 975.994 1.117 1.33413 0
M  V30 9870 O 977.17 1.4392 1.40887 0
M  V30 9871 C 974.235 2.69857 2.17665 0
M  V30 9872 C 973.296 3.88638 1.8237 0
M  V30 9873 C 972.529 4.40256 3.01679 0
M  V30 9874 O 972.752 3.90908 4.15388 0
M  V30 9875 O 971.686 5.31713 2.82073 0
M  V30 9876 H 975.512 3.0021 0.459094 0
M  V30 9877 H 973.097 1.48534 0.160665 0
M  V30 9878 H 974.979 3.04647 2.9115 0
M  V30 9879 H 973.654 1.88357 2.63255 0
M  V30 9880 H 972.561 3.58719 1.06167 0
M  V30 9881 H 973.894 4.71401 1.4157 0
M  V30 9882 N 975.546 -0.211634 1.56173 0
M  V30 9883 C 976.476 -1.26533 1.96244 0
M  V30 9884 C 977.457 -1.48362 0.832028 0
M  V30 9885 O 978.642 -1.60378 1.0951 0
M  V30 9886 C 975.772 -2.61307 2.2877 0
M  V30 9887 C 974.726 -2.54119 3.44395 0
M  V30 9888 C 974.052 -3.93014 3.62552 0
M  V30 9889 C 975.352 -2.08046 4.79076 0
M  V30 9890 H 977.046 -0.932407 2.84511 0
M  V30 9891 H 974.592 -0.447084 1.36884 0
M  V30 9892 H 976.545 -3.35188 2.55396 0
M  V30 9893 H 975.269 -2.96307 1.37367 0
M  V30 9894 H 973.928 -1.82694 3.17834 0
M  V30 9895 H 973.576 -4.25338 2.68508 0
M  V30 9896 H 973.276 -3.89083 4.40327 0
M  V30 9897 H 974.8 -4.68542 3.91537 0
M  V30 9898 H 976.214 -2.71676 5.04842 0
M  V30 9899 H 974.611 -2.15154 5.60204 0
M  V30 9900 H 975.681 -1.03306 4.73768 0
M  V30 9901 N 977.024 -1.50153 -0.478725 0
M  V30 9902 C 978.249 -1.64776 -1.2595 0
M  V30 9903 C 978.674 -0.327794 -1.85222 0
M  V30 9904 O 978.032 0.707418 -1.66929 0
M  V30 9905 C 978.08 -2.73551 -2.34952 0
M  V30 9906 O 977.184 -2.34273 -3.39397 0
M  V30 9907 H 976.525 -0.550769 -0.370877 0
M  V30 9908 H 979.055 -1.96482 -0.570605 0
M  V30 9909 H 979.065 -2.96397 -2.8038 0
M  V30 9910 H 977.74 -3.69354 -1.91181 0
M  V30 9911 H 976.317 -2.21844 -2.99733 0
M  V30 9912 N 978.502 0.731368 -1.39602 0
M  V30 9913 C 979.727 1.52567 -1.40492 0
M  V30 9914 C 980.152 1.881 -0.00228828 0
M  V30 9915 O 979.51 1.52167 0.985643 0
M  V30 9916 C 979.558 2.78749 -2.2876 0
M  V30 9917 O 978.662 3.7482 -1.71999 0
M  V30 9918 H 978.003 0.460601 -0.478271 0
M  V30 9919 H 980.533 0.902042 -1.83642 0
M  V30 9920 H 980.543 3.27446 -2.43399 0
M  V30 9921 H 979.218 2.5222 -3.30693 0
M  V30 9922 H 977.795 3.33604 -1.66622 0
M  V30 9923 N 979.98 1.24838 0.961938 0
M  V30 9924 C 980.89 1.06304 2.09133 0
M  V30 9925 C 981.906 0.00221475 1.74 0
M  V30 9926 O 983.082 0.201611 2.00388 0
M  V30 9927 C 980.147 0.676117 3.40043 0
M  V30 9928 C 979.208 1.81407 3.89089 0
M  V30 9929 C 978.441 1.44551 5.13752 0
M  V30 9930 O 978.664 0.337894 5.69398 0
M  V30 9931 O 977.598 2.27316 5.57325 0
M  V30 9932 H 981.424 2.01001 2.27667 0
M  V30 9933 H 979.009 1.0371 1.07539 0
M  V30 9934 H 980.891 0.472124 4.18747 0
M  V30 9935 H 979.566 -0.241667 3.22797 0
M  V30 9936 H 978.473 2.07286 3.11421 0
M  V30 9937 H 979.806 2.71083 4.10822 0
M  V30 9938 N 981.458 -1.16348 1.06306 0
M  V30 9939 C 982.686 -1.90782 0.800614 0
M  V30 9940 C 983.101 -1.77439 -0.645033 0
M  V30 9941 O 982.458 -1.11912 -1.4416 0
M  V30 9942 C 982.509 -3.41484 1.18621 0
M  V30 9943 O 982.23 -3.54428 2.57512 0
M  V30 9944 C 983.731 -4.32968 0.951525 0
M  V30 9945 H 980.951 -0.604977 0.290247 0
M  V30 9946 H 983.495 -1.47476 1.41672 0
M  V30 9947 H 981.65 -3.82493 0.614633 0
M  V30 9948 H 982.064 -4.4788 2.72954 0
M  V30 9949 H 983.538 -5.37169 1.27095 0
M  V30 9950 H 984.015 -4.39055 -0.112734 0
M  V30 9951 H 984.621 -3.97687 1.50749 0
M  V30 9952 N 982.937 -0.845659 -1.3299 0
M  V30 9953 C 984.162 -0.457435 -2.02293 0
M  V30 9954 C 984.587 0.935634 -1.63179 0
M  V30 9955 O 983.945 1.61297 -0.827835 0
M  V30 9956 C 983.993 -0.593665 -3.5568 0
M  V30 9957 O 983.097 0.37729 -4.10671 0
M  V30 9958 H 982.438 -0.185022 -0.637701 0
M  V30 9959 H 984.968 -1.14237 -1.69738 0
M  V30 9960 H 984.978 -0.477834 -4.05192 0
M  V30 9961 H 983.653 -1.60957 -3.83491 0
M  V30 9962 H 982.23 0.218448 -3.7226 0
M  V30 9963 N 984.415 1.45619 -0.602734 0
M  V30 9964 C 985.663 2.01873 -0.095844 0
M  V30 9965 C 985.984 1.47427 1.27633 0
M  V30 9966 O 985.254 0.666652 1.84208 0
M  V30 9967 H 983.834 0.746295 -0.0324408 0
M  V30 9968 H 986.496 1.78478 -0.783037 0
M  V30 9969 H 985.592 3.12072 -0.0419507 0
M  V30 9970 N 985.893 0.34162 1.53853 0
M  V30 9971 C 987.142 -0.256475 2.00063 0
M  V30 9972 C 987.455 -1.51811 1.23341 0
M  V30 9973 O 988.661 -2.19332 1.60017 0
M  V30 9974 C 987.117 -0.507567 3.56303 0
M  V30 9975 C 986.725 0.738052 4.41879 0
M  V30 9976 C 988.469 -1.06463 4.10933 0
M  V30 9977 C 986.376 0.457865 5.89625 0
M  V30 9978 H 985.306 -0.0996143 0.747391 0
M  V30 9979 H 987.957 0.456649 1.77727 0
M  V30 9980 H 986.339 -1.28134 3.74697 0
M  V30 9981 H 987.513 1.51278 4.3526 0
M  V30 9982 H 985.828 1.21661 3.98231 0
M  V30 9983 H 988.425 -1.28918 5.18926 0
M  V30 9984 H 988.768 -2.01956 3.64032 0
M  V30 9985 H 989.301 -0.351601 3.96243 0
M  V30 9986 H 986.04 1.38247 6.40756 0
M  V30 9987 H 985.56 -0.278818 5.99152 0
M  V30 9988 H 987.239 0.0743914 6.46957 0
M  V30 9989 N 987.371 -1.57444 0.0701946 0
M  V30 9990 C 988.334 -2.11511 -0.882923 0
M  V30 9991 C 989.334 -1.03879 -1.22743 0
M  V30 9992 O 990.524 -1.29874 -1.16097 0
M  V30 9993 C 987.656 -2.61514 -2.18686 0
M  V30 9994 H 988.849 -2.9703 -0.413873 0
M  V30 9995 H 986.402 -1.55278 -0.178488 0
M  V30 9996 H 987.137 -1.79443 -2.70131 0
M  V30 9997 H 986.922 -3.40185 -1.94978 0
M  V30 9998 H 988.412 -3.03425 -2.86919 0
M  V30 9999 N 988.849 0.203349 -1.56283 0
M  V30 10000 C 990.265 0.55384 -1.49682 0
M  V30 10001 C 990.465 1.86261 -0.768701 0
M  V30 10002 O 989.521 2.50517 -0.315824 0
M  V30 10003 C 990.834 0.616216 -2.94318 0
M  V30 10004 C 992.382 0.705611 -3.04943 0
M  V30 10005 C 992.857 0.79917 -4.50974 0
M  V30 10006 N 994.348 0.862916 -4.55091 0
M  V30 10007 C 995.083 0.955334 -5.65386 0
M  V30 10008 N 994.579 1.01057 -6.8539 0
M  V30 10009 N 996.372 0.991884 -5.53279 0
M  V30 10010 H 988.523 -0.655244 -2.0204 0
M  V30 10011 H 990.786 -0.232344 -0.919087 0
M  V30 10012 H 990.492 -0.27619 -3.50614 0
M  V30 10013 H 990.366 1.47371 -3.4722 0
M  V30 10014 H 992.753 1.58845 -2.48701 0
M  V30 10015 H 992.834 -0.177921 -2.5518 0
M  V30 10016 H 992.478 -0.0792841 -5.07838 0
M  V30 10017 H 992.408 1.69838 -4.9846 0
M  V30 10018 H 994.899 0.829812 -3.68677 0
M  V30 10019 H 995.212 1.08137 -7.65197 0
M  V30 10020 H 993.557 0.979384 -6.88065 0
M  V30 10021 H 996.748 0.945514 -4.58451 0
M  V30 10022 H 996.921 1.06045 -6.39264 0
M  V30 10023 N 990.327 1.50405 0.470755 0
M  V30 10024 C 991.738 1.54266 1.05162 0
M  V30 10025 C 992.089 0.346359 1.93119 0
M  V30 10026 O 991.214 -0.540699 2.09536 0
M  V30 10027 C 991.809 2.7956 1.91394 0
M  V30 10028 C 990.368 2.86101 2.44588 0
M  V30 10029 C 989.515 2.48557 1.22941 0
M  V30 10030 H 992.466 1.56665 0.253359 0
M  V30 10031 H 992.487 2.61434 2.76464 0
M  V30 10032 H 991.999 3.66611 1.27351 0
M  V30 10033 H 990.1 2.03403 3.12183 0
M  V30 10034 H 990.213 3.88999 2.79672 0
M  V30 10035 H 988.577 2.01003 1.56429 0
M  V30 10036 H 989.36 3.37916 0.605598 0
M  V30 10037 N 991.805 -0.723954 1.39988 0
M  V30 10038 C 992.715 -1.86829 1.41887 0
M  V30 10039 C 993.731 -1.71173 0.312401 0
M  V30 10040 O 994.907 -1.93583 0.555651 0
M  V30 10041 C 991.972 -3.22541 1.27154 0
M  V30 10042 C 991.033 -3.50512 2.47871 0
M  V30 10043 C 990.266 -4.79749 2.33831 0
M  V30 10044 O 990.489 -5.54251 1.34765 0
M  V30 10045 O 989.423 -5.07868 3.23039 0
M  V30 10046 H 993.249 -1.88183 2.38371 0
M  V30 10047 H 990.834 -0.873259 1.21221 0
M  V30 10048 H 992.716 -4.0362 1.21114 0
M  V30 10049 H 991.391 -3.21933 0.337715 0
M  V30 10050 H 990.298 -2.69475 2.59488 0
M  V30 10051 H 991.631 -3.55909 3.39985 0
M  V30 10052 N 993.283 -1.25346 -0.955304 0
M  V30 10053 C 994.193 -1.07412 -2.08566 0
M  V30 10054 C 995.209 -0.0114424 -1.73996 0
M  V30 10055 O 996.385 -0.212236 -2.00279 0
M  V30 10056 C 993.45 -0.694141 -3.3968 0
M  V30 10057 C 992.511 -1.83468 -3.88121 0
M  V30 10058 C 991.744 -1.47274 -5.12978 0
M  V30 10059 O 991.967 -0.368086 -5.69211 0
M  V30 10060 O 990.901 -2.30269 -5.56111 0
M  V30 10061 H 994.727 -2.02206 -2.26598 0
M  V30 10062 H 992.312 -1.04279 -1.06988 0
M  V30 10063 H 994.194 -0.494325 -4.18491 0
M  V30 10064 H 992.869 0.224545 -3.2292 0
M  V30 10065 H 991.776 -2.08935 -3.10318 0
M  V30 10066 H 993.109 -2.73258 -4.09379 0
M  V30 10067 N 994.761 1.15782 -1.06922 0
M  V30 10068 C 996.009 1.86097 -0.788192 0
M  V30 10069 C 996.33 1.82475 0.687606 0
M  V30 10070 O 995.6 1.26266 1.49778 0
M  V30 10071 H 994.18 0.689008 -0.288577 0
M  V30 10072 H 996.842 1.40377 -1.35205 0
M  V30 10073 H 995.938 2.91358 -1.1188 0
M  V30 10074 N 996.239 0.8527 1.3254 0
M  V30 10075 C 997.655 0.542298 1.50104 0
M  V30 10076 C 997.855 -0.927465 1.78886 0
M  V30 10077 O 996.911 -1.7106 1.85728 0
M  V30 10078 C 998.224 1.4276 2.64651 0
M  V30 10079 C 999.772 1.42782 2.78536 0
M  V30 10080 C 1000.25 2.29828 3.9616 0
M  V30 10081 N 1001.74 2.27613 4.03418 0
M  V30 10082 C 1002.47 2.91696 4.93661 0
M  V30 10083 N 1001.97 3.64883 5.88925 0
M  V30 10084 N 1003.76 2.81094 4.86768 0
M  V30 10085 H 995.913 1.80395 1.12123 0
M  V30 10086 H 998.176 0.770394 0.552446 0
M  V30 10087 H 997.882 2.47266 2.50105 0
M  V30 10088 H 997.756 1.11358 3.60388 0
M  V30 10089 H 1000.14 0.390417 2.92506 0
M  V30 10090 H 1000.22 1.78198 1.83519 0
M  V30 10091 H 999.868 3.33635 3.82949 0
M  V30 10092 H 999.798 1.91746 4.9045 0
M  V30 10093 H 1002.29 1.74402 3.3525 0
M  V30 10094 H 1002.6 4.10952 6.54476 0
M  V30 10095 H 1000.95 3.68991 5.88957 0
M  V30 10096 H 1004.14 2.23469 4.11314 0
M  V30 10097 H 1004.31 3.31318 5.56895 0
M  V30 10098 N 997.718 -1.45297 0.610449 0
M  V30 10099 C 999.129 -1.85715 0.191488 0
M  V30 10100 C 999.48 -1.51036 -1.25229 0
M  V30 10101 O 998.605 -0.938422 -1.94994 0
M  V30 10102 C 999.2 -3.37082 0.340747 0
M  V30 10103 C 997.759 -3.76393 -0.0235433 0
M  V30 10104 C 996.906 -2.69237 0.663849 0
M  V30 10105 H 999.857 -1.36058 0.816948 0
M  V30 10106 H 999.878 -3.78105 -0.426233 0
M  V30 10107 H 999.39 -3.62291 1.39164 0
M  V30 10108 H 997.491 -3.56801 -1.07351 0
M  V30 10109 H 997.604 -4.77653 0.372102 0
M  V30 10110 H 995.968 -2.54499 0.101204 0
M  V30 10111 H 996.751 -2.97281 1.71694 0
M  V30 10112 N 999.196 -0.349774 -1.5367 0
M  V30 10113 C 1000.44 0.245189 -2.01312 0
M  V30 10114 C 1000.77 1.49702 -1.23705 0
M  V30 10115 O 1000.05 1.91742 -0.326371 0
M  V30 10116 C 1000.33 0.553071 -3.55827 0
M  V30 10117 C 1000.19 -0.71129 -4.4414 0
M  V30 10118 C 1001.5 1.36015 -4.18555 0
M  V30 10119 H 998.624 0.0876415 -0.73177 0
M  V30 10120 H 1001.27 -0.471543 -1.84056 0
M  V30 10121 H 999.416 1.16367 -3.70663 0
M  V30 10122 H 1001.09 -1.34913 -4.41131 0
M  V30 10123 H 999.331 -1.33491 -4.1275 0
M  V30 10124 H 1000 -0.45104 -5.50154 0
M  V30 10125 H 1002.48 0.843778 -4.07455 0
M  V30 10126 H 1001.35 1.54432 -5.26728 0
M  V30 10127 H 1001.61 2.36408 -3.73582 0
M  V30 10128 N 1000.67 1.57404 -0.0785433 0
M  V30 10129 C 1001.92 1.94031 0.589896 0
M  V30 10130 C 1002.25 0.959297 1.68852 0
M  V30 10131 O 1001.53 -0.0103978 1.94497 0
M  V30 10132 C 1001.81 3.40886 1.16055 0
M  V30 10133 C 1001.66 4.49748 0.0681072 0
M  V30 10134 C 1002.98 3.88699 2.06401 0
M  V30 10135 H 1000.1 0.70556 0.212965 0
M  V30 10136 H 1002.74 1.89439 -0.145886 0
M  V30 10137 H 1000.89 3.4493 1.78761 0
M  V30 10138 H 1002.57 4.57823 -0.565318 0
M  V30 10139 H 1000.81 4.29625 -0.600431 0
M  V30 10140 H 1001.48 5.49658 0.507906 0
M  V30 10141 H 1003.96 3.86703 1.53622 0
M  V30 10142 H 1002.83 4.92052 2.43261 0
M  V30 10143 H 1003.09 3.2703 2.97496 0
M  V30 10144 N 1002.15 -0.195058 1.56388 0
M  V30 10145 C 1003.38 -0.935745 1.85091 0
M  V30 10146 C 1003.8 -1.76061 0.662118 0
M  V30 10147 O 1003.16 -1.77076 -0.389083 0
M  V30 10148 C 1003.21 -1.80764 3.1202 0
M  V30 10149 O 1002.31 -2.90643 2.92575 0
M  V30 10150 H 1001.65 -0.26351 0.609474 0
M  V30 10151 H 1004.18 -0.200362 2.03617 0
M  V30 10152 H 1004.19 -2.21229 3.42815 0
M  V30 10153 H 1002.87 -1.20157 3.98165 0
M  V30 10154 H 1001.44 -2.53934 2.73079 0
M  V30 10155 N 1003.63 -1.50653 -0.462772 0
M  V30 10156 C 1004.88 -1.61737 -1.21184 0
M  V30 10157 C 1005.2 -0.32369 -1.92295 0
M  V30 10158 O 1004.47 0.659269 -1.84473 0
M  V30 10159 H 1003.05 -0.596015 -0.450306 0
M  V30 10160 H 1005.71 -1.87469 -0.533051 0
M  V30 10161 H 1004.81 -2.43262 -1.95525 0
M  V30 10162 N 1005.11 0.71652 -1.4037 0
M  V30 10163 C 1006.34 1.50563 -1.4191 0
M  V30 10164 C 1006.75 1.88791 -0.0185456 0
M  V30 10165 O 1006.11 1.55378 0.957289 0
M  V30 10166 C 1006.16 2.78155 -2.30894 0
M  V30 10167 O 1005.88 2.41543 -3.65497 0
M  V30 10168 C 1007.38 3.72057 -2.41016 0
M  V30 10169 H 1004.6 0.464679 -0.48406 0
M  V30 10170 H 1007.15 0.883927 -1.8441 0
M  V30 10171 H 1005.3 3.36611 -1.91759 0
M  V30 10172 H 1005.71 3.23636 -4.12747 0
M  V30 10173 H 1007.19 4.58426 -3.07489 0
M  V30 10174 H 1007.67 4.15098 -1.43492 0
M  V30 10175 H 1008.27 3.19512 -2.80699 0
M  V30 10176 N 1006.59 1.25851 0.948643 0
M  V30 10177 C 1007.83 1.10735 1.69062 0
M  V30 10178 C 1008.16 -0.351257 1.9181 0
M  V30 10179 O 1007.43 -1.24867 1.50947 0
M  V30 10180 H 1006.01 0.406796 0.626519 0
M  V30 10181 H 1008.67 1.58066 1.14022 0
M  V30 10182 H 1007.76 1.62033 2.66743 0
M  V30 10183 N 1008.06 -1.15214 1.07534 0
M  V30 10184 C 1009.01 -2.22078 0.69168 0
M  V30 10185 C 1010.01 -1.66751 -0.298382 0
M  V30 10186 O 1011.21 -1.7927 -0.161897 0
M  V30 10187 H 1007.59 -0.723347 0.205604 0
M  V30 10188 H 1009.56 -2.51716 1.60256 0
M  V30 10189 C 1008.31 -3.47534 0.107546 0
M  V30 10190 H 1007.63 -3.90429 0.860522 0
M  V30 10191 H 1009.07 -4.23821 -0.123215 0
M  V30 10192 C 1007.53 -3.16583 -1.15226 0
M  V30 10193 O 1008.06 -3.33551 -2.23845 0
M  V30 10194 N 1006.27 -2.70611 -1.05915 0
M  V30 10195 H 1005.81 -2.57004 -0.175198 0
M  V30 10196 H 1005.77 -2.50277 -1.90287 0
M  V30 10197 N 1009.54 -0.859717 -1.32086 0
M  V30 10198 C 1010.82 -0.386665 -1.9174 0
M  V30 10199 C 1011.2 1.13028 -1.78292 0
M  V30 10200 O 1010.55 1.95422 -1.18417 0
M  V30 10201 C 1010.76 -0.856648 -3.38323 0
M  V30 10202 C 1012.11 -0.87678 -4.15449 0
M  V30 10203 O 1013.13 -0.80162 -3.47063 0
M  V30 10204 O 1011.99 -0.98373 -5.37573 0
M  V30 10205 H 1009.08 -0.113758 -0.819139 0
M  V30 10206 H 1011.63 -0.946952 -1.40822 0
M  V30 10207 H 1010.4 -1.89996 -3.42078 0
M  V30 10208 H 1010.02 -0.274095 -3.96654 0
M  V30 10209 N 1011.02 1.44971 -0.618145 0
M  V30 10210 C 1012.27 2.01372 -0.115004 0
M  V30 10211 C 1012.58 1.49104 1.26599 0
M  V30 10212 O 1013.79 1.97549 1.86244 0
M  V30 10213 C 1012.24 3.59567 -0.154883 0
M  V30 10214 C 1011.85 4.20832 -1.53639 0
M  V30 10215 C 1013.6 4.23491 0.292468 0
M  V30 10216 C 1011.5 5.7121 -1.53208 0
M  V30 10217 H 1010.43 0.752979 -0.0392267 0
M  V30 10218 H 1013.08 1.66329 -0.775032 0
M  V30 10219 H 1011.47 3.91847 0.572001 0
M  V30 10220 H 1012.64 4.00109 -2.28582 0
M  V30 10221 H 1010.96 3.69143 -1.92672 0
M  V30 10222 H 1013.55 5.33771 0.315032 0
M  V30 10223 H 1013.9 3.9491 1.31725 0
M  V30 10224 H 1014.43 3.95967 -0.381493 0
M  V30 10225 H 1011.17 6.04506 -2.53481 0
M  V30 10226 H 1010.69 5.94094 -0.825387 0
M  V30 10227 H 1012.37 6.34606 -1.26032 0
M  V30 10228 N 1012.5 0.357919 1.53482 0
M  V30 10229 C 1013.73 -0.23514 2.05559 0
M  V30 10230 C 1014.14 -1.43068 1.23195 0
M  V30 10231 O 1013.5 -1.80481 0.270741 0
M  V30 10232 C 1013.55 -0.636147 3.55859 0
M  V30 10233 O 1013.27 0.511864 4.35099 0
M  V30 10234 C 1014.77 -1.28841 4.24164 0
M  V30 10235 H 1011.99 -0.0428446 0.669631 0
M  V30 10236 H 1014.54 0.51407 1.97933 0
M  V30 10237 H 1012.69 -1.33528 3.63661 0
M  V30 10238 H 1013.1 0.189328 5.24158 0
M  V30 10239 H 1014.58 -1.51962 5.30671 0
M  V30 10240 H 1015.06 -2.24638 3.77405 0
M  V30 10241 H 1015.66 -0.630914 4.20594 0
M  V30 10242 N 1013.98 -1.5736 0.0868897 0
M  V30 10243 C 1015.2 -1.98388 -0.587349 0
M  V30 10244 C 1015.62 -0.965757 -1.6223 0
M  V30 10245 O 1014.98 0.0456981 -1.82443 0
M  V30 10246 C 1015.03 -3.39479 -1.24242 0
M  V30 10247 O 1014.75 -4.37393 -0.248878 0
M  V30 10248 C 1016.25 -3.95465 -2.00305 0
M  V30 10249 H 1013.47 -0.652111 -0.15809 0
M  V30 10250 H 1016.01 -2.03843 0.163754 0
M  V30 10251 H 1014.17 -3.35063 -1.94451 0
M  V30 10252 H 1014.58 -5.19525 -0.720678 0
M  V30 10253 H 1016.06 -4.96363 -2.41511 0
M  V30 10254 H 1016.53 -3.32832 -2.86565 0
M  V30 10255 H 1017.14 -4.03328 -1.34931 0
M  V30 10256 N 1015.45 0.186762 -1.56489 0
M  V30 10257 C 1016.87 0.750675 -1.70944 0
M  V30 10258 C 1017.22 1.83483 -0.694858 0
M  V30 10259 O 1016.34 2.159 0.147009 0
M  V30 10260 C 1016.94 1.36843 -3.09934 0
M  V30 10261 C 1015.5 1.87934 -3.26125 0
M  V30 10262 C 1014.64 0.75242 -2.66897 0
M  V30 10263 H 1017.59 -0.0384292 -1.58653 0
M  V30 10264 H 1017.61 2.23795 -3.07727 0
M  V30 10265 H 1017.13 0.579135 -3.83755 0
M  V30 10266 H 1015.23 2.69556 -2.57235 0
M  V30 10267 H 1015.34 2.0354 -4.33715 0
M  V30 10268 H 1013.7 1.16888 -2.26295 0
M  V30 10269 H 1014.49 -0.0247769 -3.43291 0
M  V30 10270 N 1016.93 1.50896 0.454776 0
M  V30 10271 C 1018.34 1.55372 1.0352 0
M  V30 10272 C 1018.69 0.366822 1.9274 0
M  V30 10273 O 1017.82 -0.518444 2.10098 0
M  V30 10274 C 1018.41 2.81574 1.88418 0
M  V30 10275 C 1016.97 2.88679 2.4154 0
M  V30 10276 C 1016.12 2.49847 1.20298 0
M  V30 10277 H 1019.07 1.56924 0.236729 0
M  V30 10278 H 1019.09 2.64352 2.73676 0
M  V30 10279 H 1018.6 3.67941 1.23455 0
M  V30 10280 H 1016.71 2.06702 3.10008 0
M  V30 10281 H 1016.82 3.91944 2.7553 0
M  V30 10282 H 1015.18 2.02651 1.54288 0
M  V30 10283 H 1015.97 3.3854 0.569723 0
M  V30 10284 N 1018.41 -0.709066 1.40748 0
M  V30 10285 C 1019.36 -1.84445 1.41714 0
M  V30 10286 C 1020.35 -1.66779 0.296818 0
M  V30 10287 O 1021.56 -1.73805 0.468181 0
M  V30 10288 H 1017.93 -0.607581 0.443114 0
M  V30 10289 H 1019.9 -1.80747 2.3743 0
M  V30 10290 C 1018.65 -3.22362 1.303 0
M  V30 10291 H 1017.98 -3.36565 2.15787 0
M  V30 10292 H 1019.42 -4.01922 1.35036 0
M  V30 10293 C 1017.88 -3.36897 0.0139015 0
M  V30 10294 O 1018.41 -3.90389 -0.946553 0
M  V30 10295 N 1016.61 -2.90543 -0.0577491 0
M  V30 10296 H 1016.16 -2.472 0.724574 0
M  V30 10297 H 1016.12 -3.00647 -0.919721 0
M  V30 10298 N 1019.89 -1.26353 -0.941956 0
M  V30 10299 C 1020.84 -1.07842 -2.04056 0
M  V30 10300 C 1021.81 0.0163064 -1.66092 0
M  V30 10301 O 1022.99 -0.143313 -1.90261 0
M  V30 10302 C 1020.13 -0.716636 -3.37577 0
M  V30 10303 C 1019.24 -1.88754 -3.88582 0
M  V30 10304 C 1018.38 -1.46893 -5.10486 0
M  V30 10305 C 1017.42 -2.60819 -5.53751 0
M  V30 10306 N 1016.56 -2.19646 -6.66858 0
M  V30 10307 H 1021.4 -2.01856 -2.19221 0
M  V30 10308 H 1018.93 -1.00504 -1.07412 0
M  V30 10309 H 1020.89 -0.487768 -4.14339 0
M  V30 10310 H 1019.52 0.18653 -3.22261 0
M  V30 10311 H 1018.57 -2.22936 -3.08227 0
M  V30 10312 H 1019.88 -2.74264 -4.1663 0
M  V30 10313 H 1019.04 -1.20047 -5.94705 0
M  V30 10314 H 1017.78 -0.584721 -4.84182 0
M  V30 10315 H 1016.78 -2.88396 -4.6809 0
M  V30 10316 H 1018.01 -3.49838 -5.82057 0
M  V30 10317 H 1015.95 -1.33657 -6.4224 0
M  V30 10318 H 1015.87 -2.987 -6.94489 0
M  V30 10319 H 1017.14 -1.96009 -7.54454 0
M  V30 10320 N 1021.37 1.14642 -1.08144 0
M  V30 10321 C 1022.28 2.23257 -0.720668 0
M  V30 10322 C 1023.29 1.71866 0.271648 0
M  V30 10323 O 1024.47 2.01064 0.116266 0
M  V30 10324 C 1021.53 3.46447 -0.132542 0
M  V30 10325 C 1020.6 4.12789 -1.17913 0
M  V30 10326 C 1019.83 5.30099 -0.618971 0
M  V30 10327 O 1020.05 5.6762 0.562418 0
M  V30 10328 O 1018.99 5.86154 -1.36774 0
M  V30 10329 H 1022.81 2.56463 -1.62667 0
M  V30 10330 H 1020.4 1.22521 -0.854932 0
M  V30 10331 H 1022.28 4.20959 0.19277 0
M  V30 10332 H 1020.95 3.14971 0.746662 0
M  V30 10333 H 1019.86 3.40163 -1.55693 0
M  V30 10334 H 1021.19 4.48365 -2.03051 0
M  V30 10335 N 1022.85 0.866709 1.31628 0
M  V30 10336 C 1023.78 0.335762 2.31073 0
M  V30 10337 C 1024.76 -0.571597 1.60209 0
M  V30 10338 O 1025.94 -0.489306 1.87935 0
M  V30 10339 C 1023.07 -0.466416 3.44154 0
M  V30 10340 C 1022.03 0.347561 4.26586 0
M  V30 10341 C 1021.35 -0.5801 5.31544 0
M  V30 10342 C 1022.65 1.57986 4.97833 0
M  V30 10343 H 1024.35 1.16673 2.75731 0
M  V30 10344 H 1021.89 0.56248 1.3256 0
M  V30 10345 H 1023.84 -0.84836 4.12772 0
M  V30 10346 H 1022.57 -1.33086 2.98254 0
M  V30 10347 H 1021.23 0.71141 3.59631 0
M  V30 10348 H 1020.88 -1.44174 4.81895 0
M  V30 10349 H 1020.58 -0.0393965 5.87587 0
M  V30 10350 H 1022.1 -0.958958 6.03023 0
M  V30 10351 H 1023.51 1.26954 5.59067 0
M  V30 10352 H 1021.91 2.05939 5.63657 0
M  V30 10353 H 1022.98 2.3345 4.25005 0
M  V30 10354 N 1024.32 -1.44642 0.625825 0
M  V30 10355 C 1025.73 -1.85502 0.211175 0
M  V30 10356 C 1026.09 -1.52356 -1.2362 0
M  V30 10357 O 1025.21 -0.959051 -1.93988 0
M  V30 10358 C 1025.81 -3.36702 0.37648 0
M  V30 10359 C 1024.36 -3.76396 0.0163795 0
M  V30 10360 C 1023.51 -2.68517 0.692368 0
M  V30 10361 H 1026.46 -1.35183 0.831333 0
M  V30 10362 H 1026.48 -3.78536 -0.386106 0
M  V30 10363 H 1026 -3.60795 1.42999 0
M  V30 10364 H 1024.1 -3.57919 -1.0356 0
M  V30 10365 H 1024.21 -4.77231 0.422742 0
M  V30 10366 H 1022.57 -2.54377 0.128191 0
M  V30 10367 H 1023.36 -2.95444 1.74837 0
M  V30 10368 N 1025.8 -0.366053 -1.5329 0
M  V30 10369 C 1027.21 0.113056 -1.86357 0
M  V30 10370 C 1027.56 1.48123 -1.28662 0
M  V30 10371 O 1026.69 2.07658 -0.608849 0
M  V30 10372 C 1027.28 0.211923 -3.38137 0
M  V30 10373 C 1025.84 0.635289 -3.71 0
M  V30 10374 C 1024.99 -0.217203 -2.76448 0
M  V30 10375 H 1027.94 -0.584829 -1.47531 0
M  V30 10376 H 1027.96 1.0354 -3.66142 0
M  V30 10377 H 1027.47 -0.783994 -3.80099 0
M  V30 10378 H 1025.57 1.63942 -3.34595 0
M  V30 10379 H 1025.69 0.409571 -4.77346 0
M  V30 10380 H 1024.05 0.313988 -2.52757 0
M  V30 10381 H 1024.83 -1.21067 -3.21244 0
M  V30 10382 N 1027.28 1.57312 -0.0952337 0
M  V30 10383 C 1028.5 1.99119 0.580206 0
M  V30 10384 C 1028.93 0.973955 1.60922 0
M  V30 10385 O 1028.29 -0.0575338 1.81209 0
M  V30 10386 C 1028.34 3.39893 1.20438 0
M  V30 10387 O 1027.44 3.40941 2.32019 0
M  V30 10388 H 1026.78 0.64748 0.147195 0
M  V30 10389 H 1029.31 2.03836 -0.176686 0
M  V30 10390 H 1029.32 3.7759 1.54564 0
M  V30 10391 H 1028 4.13453 0.450514 0
M  V30 10392 H 1026.57 3.1504 1.9951 0
M  V30 10393 N 1028.76 -0.17846 1.56586 0
M  V30 10394 C 1030.17 -0.741599 1.71339 0
M  V30 10395 C 1030.52 -1.83112 0.704579 0
M  V30 10396 O 1029.64 -2.15975 -0.135557 0
M  V30 10397 C 1030.24 -1.35198 3.10656 0
M  V30 10398 C 1028.8 -1.86202 3.27118 0
M  V30 10399 C 1027.95 -0.738255 2.67292 0
M  V30 10400 H 1030.9 0.0468424 1.58631 0
M  V30 10401 H 1030.92 -2.2216 3.0891 0
M  V30 10402 H 1030.43 -0.558776 3.84056 0
M  V30 10403 H 1028.53 -2.68188 2.58661 0
M  V30 10404 H 1028.64 -2.01237 4.34788 0
M  V30 10405 H 1027.01 -1.15686 2.26912 0
M  V30 10406 H 1027.79 0.0429821 3.43273 0
M  V30 10407 N 1030.24 -1.51135 -0.446768 0
M  V30 10408 C 1031.15 -1.74595 -1.56696 0
M  V30 10409 C 1032.16 -0.629816 -1.62201 0
M  V30 10410 O 1033.34 -0.910987 -1.79619 0
M  V30 10411 C 1030.4 -1.85738 -2.9275 0
M  V30 10412 C 1029.46 -3.09564 -2.97437 0
M  V30 10413 C 1028.7 -3.20165 -4.27001 0
M  V30 10414 O 1028.92 -2.36939 -5.1886 0
M  V30 10415 O 1027.85 -4.13077 -4.3778 0
M  V30 10416 H 1031.68 -2.69601 -1.39817 0
M  V30 10417 H 1029.26 -1.35523 -0.628805 0
M  V30 10418 H 1031.15 -1.95107 -3.73512 0
M  V30 10419 H 1029.82 -0.939184 -3.09776 0
M  V30 10420 H 1028.73 -3.05679 -2.15664 0
M  V30 10421 H 1030.06 -4.01041 -2.85353 0
M  V30 10422 N 1031.71 0.701592 -1.41122 0
M  V30 10423 C 1032.66 1.81559 -1.42495 0
M  V30 10424 C 1033.63 1.63722 -0.280078 0
M  V30 10425 O 1034.82 1.84658 -0.480231 0
M  V30 10426 C 1031.96 3.19392 -1.30702 0
M  V30 10427 C 1031.07 3.48704 -2.55009 0
M  V30 10428 C 1030.2 4.76118 -2.35554 0
M  V30 10429 C 1029.24 4.98378 -3.55367 0
M  V30 10430 N 1028.38 6.17014 -3.3502 0
M  V30 10431 H 1033.22 1.7972 -2.37707 0
M  V30 10432 H 1030.76 0.877727 -1.18044 0
M  V30 10433 H 1032.71 3.99004 -1.21867 0
M  V30 10434 H 1031.34 3.20423 -0.391012 0
M  V30 10435 H 1030.4 2.63542 -2.74317 0
M  V30 10436 H 1031.71 3.61057 -3.44151 0
M  V30 10437 H 1030.86 5.63774 -2.24152 0
M  V30 10438 H 1029.6 4.66 -1.43859 0
M  V30 10439 H 1028.61 4.09172 -3.6723 0
M  V30 10440 H 1029.83 5.10359 -4.48007 0
M  V30 10441 H 1027.78 6.0812 -2.4602 0
M  V30 10442 H 1027.69 6.30107 -4.17733 0
M  V30 10443 H 1028.96 7.0742 -3.27379 0
M  V30 10444 N 1033.19 1.2685 0.935242 0
M  V30 10445 C 1034.14 1.08923 2.03481 0
M  V30 10446 C 1035.11 -0.00749786 1.66098 0
M  V30 10447 O 1036.29 0.153401 1.90182 0
M  V30 10448 C 1033.43 0.734529 3.37192 0
M  V30 10449 C 1032.55 1.90812 3.87576 0
M  V30 10450 C 1031.68 1.49599 5.097 0
M  V30 10451 C 1030.72 2.63752 5.5236 0
M  V30 10452 N 1029.86 2.23179 6.65684 0
M  V30 10453 H 1034.7 2.03016 2.18148 0
M  V30 10454 H 1032.23 1.01072 1.06878 0
M  V30 10455 H 1034.19 0.509734 4.14074 0
M  V30 10456 H 1032.82 -0.169438 3.22355 0
M  V30 10457 H 1031.87 2.24567 3.0704 0
M  V30 10458 H 1033.19 2.7647 4.1517 0
M  V30 10459 H 1032.34 1.23199 5.9406 0
M  V30 10460 H 1031.08 0.61039 4.83865 0
M  V30 10461 H 1030.08 2.90874 4.66554 0
M  V30 10462 H 1031.31 3.5292 5.80193 0
M  V30 10463 H 1029.26 1.37061 6.41522 0
M  V30 10464 H 1029.17 3.02379 6.92895 0
M  V30 10465 H 1030.44 2.00007 7.53404 0
M  V30 10466 N 1034.67 -1.14067 1.0875 0
M  V30 10467 C 1035.9 -1.89041 0.840902 0
M  V30 10468 C 1036.31 -1.78768 -0.60725 0
M  V30 10469 O 1035.67 -1.14945 -1.41753 0
M  V30 10470 C 1035.72 -3.38891 1.25838 0
M  V30 10471 O 1035.44 -3.48886 2.64972 0
M  V30 10472 C 1036.94 -4.30852 1.04315 0
M  V30 10473 H 1034.16 -0.598685 0.303014 0
M  V30 10474 H 1036.71 -1.44438 1.44769 0
M  V30 10475 H 1034.86 -3.81103 0.695627 0
M  V30 10476 H 1035.28 -4.41989 2.82393 0
M  V30 10477 H 1036.75 -5.34353 1.38461 0
M  V30 10478 H 1037.23 -4.39196 -0.0195784 0
M  V30 10479 H 1037.83 -3.944 1.59151 0
M  V30 10480 N 1036.15 -0.873678 -1.31166 0
M  V30 10481 C 1037.1 -0.330288 -2.28424 0
M  V30 10482 C 1038.07 0.573299 -1.55893 0
M  V30 10483 O 1039.25 0.504143 -1.84019 0
M  V30 10484 C 1036.39 0.459004 -3.42034 0
M  V30 10485 C 1035.5 -0.472519 -4.29408 0
M  V30 10486 C 1034.64 0.331261 -5.30166 0
M  V30 10487 C 1033.68 -0.596453 -6.09187 0
M  V30 10488 N 1032.81 0.171305 -7.01891 0
M  V30 10489 H 1037.65 -1.16485 -2.7429 0
M  V30 10490 H 1035.19 -0.585813 -1.34932 0
M  V30 10491 H 1037.15 0.932432 -4.06647 0
M  V30 10492 H 1035.78 1.25824 -2.97268 0
M  V30 10493 H 1034.83 -1.06441 -3.65205 0
M  V30 10494 H 1036.14 -1.18372 -4.84551 0
M  V30 10495 H 1035.3 0.867038 -6.00473 0
M  V30 10496 H 1034.04 1.07573 -4.75688 0
M  V30 10497 H 1033.04 -1.14395 -5.37767 0
M  V30 10498 H 1034.27 -1.33983 -6.65752 0
M  V30 10499 H 1032.21 0.89852 -6.49817 0
M  V30 10500 H 1032.13 -0.480481 -7.54472 0
M  V30 10501 H 1033.4 0.688192 -7.76456 0
M  V30 10502 N 1037.63 1.44308 -0.633487 0
M  V30 10503 C 1039.04 1.85387 -0.221009 0
M  V30 10504 C 1039.39 1.5301 1.22811 0
M  V30 10505 O 1038.51 0.969325 1.93476 0
M  V30 10506 C 1039.11 3.36497 -0.394331 0
M  V30 10507 C 1037.67 3.76382 -0.0363405 0
M  V30 10508 C 1036.81 2.68146 -0.706598 0
M  V30 10509 H 1039.77 1.34741 -0.83849 0
M  V30 10510 H 1039.79 3.78735 0.366026 0
M  V30 10511 H 1039.3 3.60031 -1.44911 0
M  V30 10512 H 1037.4 3.58463 1.01661 0
M  V30 10513 H 1037.51 4.77 -0.448045 0
M  V30 10514 H 1035.88 2.54306 -0.14168 0
M  V30 10515 H 1036.66 2.94512 -1.76401 0
M  V30 10516 N 1039.1 0.374177 1.53094 0
M  V30 10517 C 1040.03 -0.459976 2.28925 0
M  V30 10518 C 1041.02 -1.07656 1.31698 0
M  V30 10519 O 1042.2 -1.09219 1.60577 0
M  V30 10520 C 1039.33 -1.5954 3.08487 0
M  V30 10521 C 1038.28 -1.10563 4.13473 0
M  V30 10522 C 1037.61 -2.33196 4.81169 0
M  V30 10523 C 1038.91 -0.184275 5.21975 0
M  V30 10524 H 1040.6 0.172692 2.98902 0
M  V30 10525 H 1038.15 0.0844956 1.43752 0
M  V30 10526 H 1040.1 -2.18565 3.60288 0
M  V30 10527 H 1038.83 -2.25543 2.36216 0
M  V30 10528 H 1037.49 -0.53801 3.62631 0
M  V30 10529 H 1037.13 -2.97675 4.05461 0
M  V30 10530 H 1036.83 -2.01094 5.52119 0
M  V30 10531 H 1038.36 -2.92892 5.35767 0
M  V30 10532 H 1039.77 -0.682262 5.69226 0
M  V30 10533 H 1038.17 0.0462746 6.00082 0
M  V30 10534 H 1039.24 0.771152 4.78729 0
M  V30 10535 N 1040.58 -1.57259 0.103575 0
M  V30 10536 C 1041.55 -2.13337 -0.837859 0
M  V30 10537 C 1042.55 -1.06459 -1.20512 0
M  V30 10538 O 1043.74 -1.32307 -1.13316 0
M  V30 10539 C 1040.87 -2.66093 -2.13089 0
M  V30 10540 H 1042.06 -2.97842 -0.350775 0
M  V30 10541 H 1039.61 -1.55621 -0.145511 0
M  V30 10542 H 1040.35 -1.85133 -2.66264 0
M  V30 10543 H 1040.13 -3.44244 -1.87719 0
M  V30 10544 H 1041.62 -3.09443 -2.80419 0
M  V30 10545 N 1042.06 0.170153 -1.56679 0
M  V30 10546 C 1043.29 0.902134 -1.86197 0
M  V30 10547 C 1043.7 1.75775 -0.689098 0
M  V30 10548 O 1043.06 1.79271 0.341763 0
M  V30 10549 C 1043.11 1.77792 -3.14757 0
M  V30 10550 O 1042.83 0.956817 -4.27524 0
M  V30 10551 C 1044.33 2.61947 -3.57629 0
M  V30 10552 H 1041.55 0.262026 -0.617724 0
M  V30 10553 H 1044.1 0.169899 -2.03793 0
M  V30 10554 H 1042.25 2.46348 -2.98984 0
M  V30 10555 H 1042.67 1.5559 -5.00891 0
M  V30 10556 H 1044.14 3.19011 -4.50484 0
M  V30 10557 H 1044.62 3.36873 -2.81803 0
M  V30 10558 H 1045.22 1.98721 -3.76019 0
M  V30 10559 N 1043.54 1.5137 0.438746 0
M  V30 10560 C 1044.77 1.67774 1.21077 0
M  V30 10561 C 1045.18 0.374489 1.85049 0
M  V30 10562 O 1044.54 -0.646867 1.70651 0
M  V30 10563 C 1044.59 2.79238 2.29584 0
M  V30 10564 O 1044.31 4.04513 1.68228 0
M  V30 10565 C 1045.81 3.06898 3.19888 0
M  V30 10566 H 1043.03 0.563054 0.364981 0
M  V30 10567 H 1045.58 1.97777 0.520035 0
M  V30 10568 H 1043.73 2.51837 2.94375 0
M  V30 10569 H 1044.14 4.66405 2.3993 0
M  V30 10570 H 1045.62 3.88476 3.92162 0
M  V30 10571 H 1046.1 2.19249 3.80561 0
M  V30 10572 H 1046.7 3.35952 2.60799 0
M  V30 10573 N 1045.02 -0.694098 1.41492 0
M  V30 10574 C 1045.95 -1.81943 1.39389 0
M  V30 10575 C 1046.96 -1.6009 0.295836 0
M  V30 10576 O 1048.15 -1.69565 0.557658 0
M  V30 10577 C 1045.25 -3.18731 1.15167 0
M  V30 10578 C 1044.42 -3.67601 2.37041 0
M  V30 10579 C 1043.48 -4.83063 2.08654 0
M  V30 10580 O 1042.51 -4.94603 2.81704 0
M  V30 10581 N 1043.71 -5.70409 1.0777 0
M  V30 10582 H 1046.48 -1.84239 2.36381 0
M  V30 10583 H 1044.04 -0.876475 1.36123 0
M  V30 10584 H 1046.03 -3.93602 0.941264 0
M  V30 10585 H 1044.6 -3.11452 0.267673 0
M  V30 10586 H 1043.82 -2.83622 2.73774 0
M  V30 10587 H 1045.11 -3.96991 3.18239 0
M  V30 10588 H 1044.5 -5.63718 0.473123 0
M  V30 10589 H 1043.06 -6.45172 0.927177 0
M  V30 10590 N 1046.49 -1.27344 -0.928501 0
M  V30 10591 C 1047.91 -1.12361 -1.49103 0
M  V30 10592 C 1048.26 0.291667 -1.9402 0
M  V30 10593 O 1047.38 1.18449 -1.81104 0
M  V30 10594 C 1047.98 -2.03358 -2.70981 0
M  V30 10595 C 1046.54 -1.92483 -3.23461 0
M  V30 10596 C 1045.68 -1.95961 -1.962 0
M  V30 10597 H 1048.63 -1.40249 -0.742689 0
M  V30 10598 H 1048.65 -1.58892 -3.45736 0
M  V30 10599 H 1048.17 -3.06356 -2.38259 0
M  V30 10600 H 1046.27 -0.924676 -3.60944 0
M  V30 10601 H 1046.38 -2.78682 -3.89709 0
M  V30 10602 H 1044.74 -1.40175 -2.12657 0
M  V30 10603 H 1045.53 -3.00612 -1.65793 0
M  V30 10604 N 1047.97 1.13488 -1.09353 0
M  V30 10605 C 1048.94 2.17066 -0.735863 0
M  V30 10606 C 1049.94 1.59086 0.234181 0
M  V30 10607 O 1051.13 1.74196 0.012463 0
M  V30 10608 C 1048.26 3.40786 -0.0880975 0
M  V30 10609 H 1049.45 2.50221 -1.65316 0
M  V30 10610 H 1047 1.28304 -0.89263 0
M  V30 10611 H 1047.74 3.1322 0.840462 0
M  V30 10612 H 1047.52 3.8414 -0.786073 0
M  V30 10613 H 1049.01 4.17342 0.146775 0
M  V30 10614 N 1049.45 0.880621 1.30701 0
M  V30 10615 C 1050.4 0.342397 2.28246 0
M  V30 10616 C 1051.37 -0.565023 1.56194 0
M  V30 10617 O 1052.55 -0.494377 1.84284 0
M  V30 10618 C 1049.69 -0.440859 3.42272 0
M  V30 10619 C 1048.81 0.495284 4.29151 0
M  V30 10620 C 1047.94 -0.303141 5.30334 0
M  V30 10621 C 1046.98 0.628751 6.08862 0
M  V30 10622 N 1046.12 -0.13408 7.01972 0
M  V30 10623 H 1050.96 1.17938 2.73669 0
M  V30 10624 H 1048.49 0.59296 1.34619 0
M  V30 10625 H 1050.45 -0.910854 4.07135 0
M  V30 10626 H 1049.08 -1.24245 2.97931 0
M  V30 10627 H 1048.13 1.08376 3.64635 0
M  V30 10628 H 1049.45 1.2094 4.83916 0
M  V30 10629 H 1048.6 -0.835181 6.00924 0
M  V30 10630 H 1047.34 -1.05049 4.76252 0
M  V30 10631 H 1046.34 1.17246 5.37153 0
M  V30 10632 H 1047.57 1.37512 6.65032 0
M  V30 10633 H 1045.52 -0.864046 6.50285 0
M  V30 10634 H 1045.43 0.520486 7.54206 0
M  V30 10635 H 1046.7 -0.647005 7.7681 0
M  V30 10636 N 1050.93 -1.4397 0.641131 0
M  V30 10637 C 1052.16 -2.06303 0.157006 0
M  V30 10638 C 1052.57 -1.47981 -1.17248 0
M  V30 10639 O 1051.93 -0.606471 -1.72128 0
M  V30 10640 C 1051.98 -3.6147 0.0468425 0
M  V30 10641 O 1051.7 -4.17622 1.32376 0
M  V30 10642 C 1053.2 -4.40857 -0.464795 0
M  V30 10643 H 1050.42 -0.665684 0.0842946 0
M  V30 10644 H 1052.97 -1.84675 0.878363 0
M  V30 10645 H 1051.12 -3.82325 -0.625006 0
M  V30 10646 H 1051.54 -5.11167 1.17509 0
M  V30 10647 H 1053.01 -5.49813 -0.490862 0
M  V30 10648 H 1053.49 -4.13016 -1.4938 0
M  V30 10649 H 1054.09 -4.24943 0.174146 0
M  V30 10650 N 1052.41 -0.382291 -1.52893 0
M  V30 10651 C 1053.63 0.204961 -2.06385 0
M  V30 10652 C 1054.06 1.40316 -1.25271 0
M  V30 10653 O 1053.42 1.79187 -0.275969 0
M  V30 10654 C 1053.46 0.560205 -3.56222 0
M  V30 10655 O 1052.57 1.65515 -3.77728 0
M  V30 10656 H 1051.91 0.0258798 -0.663495 0
M  V30 10657 H 1054.44 -0.547733 -1.97132 0
M  V30 10658 H 1054.45 0.826501 -3.99541 0
M  V30 10659 H 1053.12 -0.31584 -4.14699 0
M  V30 10660 H 1051.7 1.38311 -3.46301 0
M  V30 10661 N 1053.89 1.57202 -0.111913 0
M  V30 10662 C 1055.11 1.99297 0.555713 0
M  V30 10663 C 1055.53 0.991444 1.60673 0
M  V30 10664 O 1054.89 -0.0166672 1.82492 0
M  V30 10665 C 1054.94 3.41413 1.18826 0
M  V30 10666 O 1054.66 4.37733 0.179261 0
M  V30 10667 C 1056.16 3.98602 1.93989 0
M  V30 10668 H 1053.38 0.654543 0.147695 0
M  V30 10669 H 1055.92 2.03557 -0.196163 0
M  V30 10670 H 1054.08 3.38115 1.89096 0
M  V30 10671 H 1054.49 5.20606 0.637935 0
M  V30 10672 H 1055.97 5.00143 2.33584 0
M  V30 10673 H 1056.44 3.37349 2.81233 0
M  V30 10674 H 1057.05 4.05424 1.28497 0
M  V30 10675 N 1055.36 -0.161842 1.56767 0
M  V30 10676 C 1056.59 -0.896274 1.87034 0
M  V30 10677 C 1057.01 -1.74617 0.699314 0
M  V30 10678 O 1056.37 -1.77861 -0.351435 0
M  V30 10679 C 1056.42 -1.74105 3.15784 0
M  V30 10680 O 1055.52 -2.84372 2.98674 0
M  V30 10681 H 1054.86 -0.250523 0.614926 0
M  V30 10682 H 1057.39 -0.157127 2.03996 0
M  V30 10683 H 1057.4 -2.13907 3.4743 0
M  V30 10684 H 1056.08 -1.11684 4.00624 0
M  V30 10685 H 1054.66 -2.48084 2.78404 0
M  V30 10686 N 1056.84 -1.516 -0.430713 0
M  V30 10687 C 1057.79 -1.73392 -1.52328 0
M  V30 10688 C 1058.76 -0.575758 -1.55802 0
M  V30 10689 O 1059.94 -0.810931 -1.72709 0
M  V30 10690 C 1057.08 -1.87092 -2.89984 0
M  V30 10691 C 1056.2 -3.14668 -2.95987 0
M  V30 10692 C 1055.33 -3.18923 -4.24807 0
M  V30 10693 C 1054.37 -4.40787 -4.24703 0
M  V30 10694 N 1053.51 -4.42556 -5.45059 0
M  V30 10695 H 1058.35 -2.6665 -1.33048 0
M  V30 10696 H 1055.88 -1.32146 -0.646207 0
M  V30 10697 H 1057.84 -1.93017 -3.69865 0
M  V30 10698 H 1056.47 -0.972363 -3.07807 0
M  V30 10699 H 1055.52 -3.1802 -2.08728 0
M  V30 10700 H 1056.84 -4.04562 -2.91772 0
M  V30 10701 H 1055.99 -3.23801 -5.13067 0
M  V30 10702 H 1054.73 -2.2693 -4.31688 0
M  V30 10703 H 1053.73 -4.36079 -3.34836 0
M  V30 10704 H 1054.96 -5.34053 -4.19481 0
M  V30 10705 H 1052.91 -3.53435 -5.52648 0
M  V30 10706 H 1052.82 -5.26267 -5.42751 0
M  V30 10707 H 1054.09 -4.51634 -6.35332 0
M  V30 10708 N 1058.32 0.686584 -1.41858 0
M  V30 10709 C 1059.28 1.78214 -1.44126 0
M  V30 10710 C 1060.28 1.57366 -0.330541 0
M  V30 10711 O 1061.47 1.63874 -0.590837 0
M  V30 10712 C 1058.6 3.16704 -1.26142 0
M  V30 10713 H 1059.8 1.77594 -2.41661 0
M  V30 10714 H 1057.35 0.895085 -1.28132 0
M  V30 10715 H 1058.09 3.22957 -0.294823 0
M  V30 10716 H 1057.87 3.33238 -2.06627 0
M  V30 10717 H 1059.36 3.96658 -1.30584 0
M  V30 10718 N 1059.8 1.27835 0.921735 0
M  V30 10719 C 1060.74 1.11075 2.02314 0
M  V30 10720 C 1061.71 0.0101195 1.66097 0
M  V30 10721 O 1062.9 0.173564 1.90009 0
M  V30 10722 C 1060.04 0.770251 3.36394 0
M  V30 10723 C 1059.15 1.94912 3.8553 0
M  V30 10724 C 1058.29 1.54996 5.08084 0
M  V30 10725 C 1057.33 2.69595 5.49531 0
M  V30 10726 N 1056.46 2.30227 6.6328 0
M  V30 10727 H 1061.3 2.05319 2.15982 0
M  V30 10728 H 1058.84 1.022 1.058 0
M  V30 10729 H 1060.8 0.553624 4.1351 0
M  V30 10730 H 1059.43 -0.135238 3.22517 0
M  V30 10731 H 1058.48 2.27811 3.04641 0
M  V30 10732 H 1059.79 2.80858 4.12214 0
M  V30 10733 H 1058.95 1.29493 5.9272 0
M  V30 10734 H 1057.69 0.661676 4.83191 0
M  V30 10735 H 1056.69 2.95806 4.63442 0
M  V30 10736 H 1057.92 3.59054 5.76417 0
M  V30 10737 H 1055.86 1.43858 6.40032 0
M  V30 10738 H 1055.78 3.09711 6.89649 0
M  V30 10739 H 1057.05 2.07987 7.5124 0
M  V30 10740 N 1061.28 -1.12907 1.09954 0
M  V30 10741 C 1062.5 -1.88138 0.860905 0
M  V30 10742 C 1062.92 -1.79402 -0.588256 0
M  V30 10743 O 1062.28 -1.16442 -1.40526 0
M  V30 10744 C 1062.33 -3.37537 1.29425 0
M  V30 10745 O 1062.05 -3.46056 2.68658 0
M  V30 10746 C 1063.55 -4.29721 1.08879 0
M  V30 10747 H 1060.77 -0.595437 0.309347 0
M  V30 10748 H 1063.31 -1.42894 1.46292 0
M  V30 10749 H 1061.47 -3.80344 0.736009 0
M  V30 10750 H 1061.88 -4.38969 2.87065 0
M  V30 10751 H 1063.36 -5.32854 1.4412 0
M  V30 10752 H 1063.83 -4.39192 0.0270053 0
M  V30 10753 H 1064.44 -3.9269 1.63325 0
M  V30 10754 N 1062.75 -0.88754 -1.30232 0
M  V30 10755 C 1063.69 -0.313488 -2.27046 0
M  V30 10756 C 1064.7 0.533383 -1.53814 0
M  V30 10757 O 1065.89 0.352516 -1.74984 0
M  V30 10758 C 1062.99 0.572674 -3.34026 0
M  V30 10759 C 1062.16 -0.245712 -4.36709 0
M  V30 10760 C 1061.22 0.57135 -5.23089 0
M  V30 10761 O 1060.25 -0.00685948 -5.692 0
M  V30 10762 N 1061.45 1.87994 -5.49216 0
M  V30 10763 H 1064.21 -1.14553 -2.76943 0
M  V30 10764 H 1061.77 -0.750785 -1.43439 0
M  V30 10765 H 1063.77 1.12539 -3.88738 0
M  V30 10766 H 1062.34 1.3054 -2.84039 0
M  V30 10767 H 1061.56 -0.979869 -3.81827 0
M  V30 10768 H 1062.84 -0.806618 -5.02366 0
M  V30 10769 H 1062.24 2.3726 -5.13541 0
M  V30 10770 H 1060.8 2.38005 -6.06792 0
M  V30 10771 N 1064.23 1.43628 -0.648757 0
M  V30 10772 C 1065.64 1.85142 -0.24066 0
M  V30 10773 C 1065.99 1.54304 1.21181 0
M  V30 10774 O 1065.12 0.989792 1.92437 0
M  V30 10775 C 1065.71 3.3606 -0.429999 0
M  V30 10776 C 1064.27 3.76323 -0.0762588 0
M  V30 10777 C 1063.42 2.67382 -0.734999 0
M  V30 10778 H 1066.37 1.33844 -0.852734 0
M  V30 10779 H 1066.39 3.79102 0.325836 0
M  V30 10780 H 1065.9 3.58474 -1.48721 0
M  V30 10781 H 1064.01 3.59521 0.978529 0
M  V30 10782 H 1064.12 4.76498 -0.498612 0
M  V30 10783 H 1062.48 2.54141 -0.168644 0
M  V30 10784 H 1063.27 2.92625 -1.79515 0
M  V30 10785 N 1065.71 0.390394 1.52688 0
M  V30 10786 C 1066.94 -0.191485 2.06012 0
M  V30 10787 C 1067.35 -1.40422 1.26202 0
M  V30 10788 O 1066.71 -1.79866 0.308963 0
M  V30 10789 C 1066.76 -0.560521 3.57128 0
M  V30 10790 O 1066.48 0.60404 4.33916 0
M  V30 10791 C 1067.98 -1.19814 4.26801 0
M  V30 10792 H 1065.2 -0.0286311 0.670389 0
M  V30 10793 H 1067.75 0.555939 1.96798 0
M  V30 10794 H 1065.9 -1.25784 3.66411 0
M  V30 10795 H 1066.32 0.300467 5.23639 0
M  V30 10796 H 1067.79 -1.40672 5.33775 0
M  V30 10797 H 1068.27 -2.16582 3.82085 0
M  V30 10798 H 1068.87 -0.541558 4.21838 0
M  V30 10799 N 1067.19 -1.57141 0.120249 0
M  V30 10800 C 1068.41 -2.00017 -0.548454 0
M  V30 10801 C 1068.84 -0.999433 -1.59352 0
M  V30 10802 O 1068.2 0.0286978 -1.81277 0
M  V30 10803 C 1068.24 -3.41766 -1.15015 0
M  V30 10804 O 1067.35 -3.44589 -2.26566 0
M  V30 10805 H 1066.69 -0.649739 -0.136875 0
M  V30 10806 H 1069.22 -2.03529 0.209092 0
M  V30 10807 H 1069.23 -3.80001 -1.48537 0
M  V30 10808 H 1067.9 -4.14117 -0.384681 0
M  V30 10809 H 1066.48 -3.18174 -1.94473 0
M  V30 10810 N 1068.67 0.153526 -1.5685 0
M  V30 10811 C 1069.6 1.19162 -2.00805 0
M  V30 10812 C 1070.58 1.45172 -0.886518 0
M  V30 10813 O 1071.76 1.56203 -1.15387 0
M  V30 10814 C 1068.89 2.52637 -2.38311 0
M  V30 10815 C 1067.85 2.41161 -3.53589 0
M  V30 10816 C 1067.17 3.79287 -3.76889 0
M  V30 10817 C 1068.47 1.90122 -4.86468 0
M  V30 10818 H 1070.17 0.82617 -2.87776 0
M  V30 10819 H 1067.71 0.395972 -1.38449 0
M  V30 10820 H 1069.67 3.25478 -2.6766 0
M  V30 10821 H 1068.39 2.91005 -1.4827 0
M  V30 10822 H 1067.05 1.70772 -3.24395 0
M  V30 10823 H 1066.7 4.15079 -2.84109 0
M  V30 10824 H 1066.4 3.72472 -4.54465 0
M  V30 10825 H 1067.92 4.53687 -4.08657 0
M  V30 10826 H 1069.33 2.52752 -5.14577 0
M  V30 10827 H 1067.73 1.94214 -5.67804 0
M  V30 10828 H 1068.8 0.856517 -4.77275 0
M  V30 10829 N 1070.14 1.51827 0.422667 0
M  V30 10830 C 1071.56 1.57533 1.00201 0
M  V30 10831 C 1071.91 0.407623 1.91919 0
M  V30 10832 O 1071.03 -0.473763 2.1115 0
M  V30 10833 C 1071.63 2.85508 1.82403 0
M  V30 10834 C 1070.19 2.93737 2.35362 0
M  V30 10835 C 1069.33 2.52343 1.14971 0
M  V30 10836 H 1072.28 1.57391 0.20339 0
M  V30 10837 H 1072.3 2.70097 2.68007 0
M  V30 10838 H 1071.82 3.70477 1.15623 0
M  V30 10839 H 1069.92 2.13231 3.05554 0
M  V30 10840 H 1070.03 3.977 2.67155 0
M  V30 10841 H 1068.39 2.05878 1.49955 0
M  V30 10842 H 1069.18 3.39672 0.497786 0
M  V30 10843 N 1071.62 -0.679052 1.4222 0
M  V30 10844 C 1072.57 -1.79269 1.45366 0
M  V30 10845 C 1073.54 -1.63255 0.306089 0
M  V30 10846 O 1074.72 -1.8387 0.509548 0
M  V30 10847 C 1071.86 -3.17272 1.35766 0
M  V30 10848 C 1070.98 -3.44603 2.60525 0
M  V30 10849 C 1070.11 -4.7231 2.43098 0
M  V30 10850 C 1069.15 -4.92661 3.63251 0
M  V30 10851 N 1068.29 -6.11606 3.44794 0
M  V30 10852 H 1073.13 -1.75916 2.40536 0
M  V30 10853 H 1070.67 -0.858836 1.19425 0
M  V30 10854 H 1072.62 -3.97015 1.282 0
M  V30 10855 H 1071.25 -3.1976 0.441939 0
M  V30 10856 H 1070.31 -2.59144 2.78475 0
M  V30 10857 H 1071.62 -3.55536 3.49851 0
M  V30 10858 H 1070.77 -5.60136 2.33093 0
M  V30 10859 H 1069.51 -4.63652 1.51255 0
M  V30 10860 H 1068.52 -4.03278 3.73693 0
M  V30 10861 H 1069.74 -5.03167 4.5607 0
M  V30 10862 H 1067.69 -6.04129 2.55663 0
M  V30 10863 H 1067.6 -6.23381 4.27705 0
M  V30 10864 H 1068.87 -7.02122 3.38592 0
M  V30 10865 N 1073.1 -1.28322 -0.914942 0
M  V30 10866 C 1074.03 -1.07947 -2.02188 0
M  V30 10867 C 1075.05 -0.0315743 -1.62769 0
M  V30 10868 O 1076.23 -0.274503 -1.76377 0
M  V30 10869 C 1073.33 -0.61805 -3.33217 0
M  V30 10870 C 1072.51 -1.74109 -4.01254 0
M  V30 10871 C 1071.57 -1.27325 -5.10563 0
M  V30 10872 O 1070.59 -1.97526 -5.33828 0
M  V30 10873 N 1071.79 -0.1358 -5.80341 0
M  V30 10874 H 1074.56 -2.03275 -2.20225 0
M  V30 10875 H 1072.12 -1.20059 -1.08616 0
M  V30 10876 H 1074.11 -0.288693 -4.03669 0
M  V30 10877 H 1072.68 0.242348 -3.11659 0
M  V30 10878 H 1071.9 -2.2401 -3.24366 0
M  V30 10879 H 1073.19 -2.49448 -4.43456 0
M  V30 10880 H 1072.59 0.449846 -5.63909 0
M  V30 10881 H 1071.15 0.134289 -6.51662 0
M  V30 10882 N 1074.58 1.12322 -1.10551 0
M  V30 10883 C 1075.99 1.6539 -0.8662 0
M  V30 10884 C 1076.34 1.86695 0.603284 0
M  V30 10885 O 1075.47 1.59432 1.46323 0
M  V30 10886 C 1076.06 3.00443 -1.56587 0
M  V30 10887 C 1074.62 3.50456 -1.37323 0
M  V30 10888 C 1073.77 2.25454 -1.61449 0
M  V30 10889 H 1076.72 0.960866 -1.26305 0
M  V30 10890 H 1076.74 3.66972 -1.00557 0
M  V30 10891 H 1076.25 2.84905 -2.63535 0
M  V30 10892 H 1074.35 3.71176 -0.325431 0
M  V30 10893 H 1074.46 4.29839 -2.11601 0
M  V30 10894 H 1072.83 2.32621 -1.03729 0
M  V30 10895 H 1073.61 2.12469 -2.69651 0
M  V30 10896 N 1076.06 0.894434 1.2976 0
M  V30 10897 C 1077.02 0.373094 2.26143 0
M  V30 10898 C 1078.02 -0.489756 1.5316 0
M  V30 10899 O 1079.21 -0.29556 1.71674 0
M  V30 10900 C 1076.34 -0.467234 3.37683 0
M  V30 10901 H 1077.53 1.22427 2.73773 0
M  V30 10902 H 1075.09 0.672112 1.41111 0
M  V30 10903 H 1075.82 -1.33861 2.95384 0
M  V30 10904 H 1075.61 0.150954 3.91809 0
M  V30 10905 H 1077.1 -0.823469 4.094 0
M  V30 10906 N 1077.53 -1.43282 0.656365 0
M  V30 10907 C 1078.95 -1.85012 0.250475 0
M  V30 10908 C 1079.3 -1.54944 -1.20361 0
M  V30 10909 O 1078.42 -0.999983 -1.9191 0
M  V30 10910 C 1079.02 -3.35827 0.447815 0
M  V30 10911 C 1077.58 -3.76277 0.0962151 0
M  V30 10912 C 1076.72 -2.66988 0.749168 0
M  V30 10913 H 1079.67 -1.3339 0.85982 0
M  V30 10914 H 1079.69 -3.7927 -0.305726 0
M  V30 10915 H 1079.21 -3.5768 1.5062 0
M  V30 10916 H 1077.31 -3.60035 -0.959449 0
M  V30 10917 H 1077.42 -4.76227 0.523875 0
M  V30 10918 H 1075.78 -2.54048 0.18212 0
M  V30 10919 H 1076.57 -2.91669 1.81064 0
M  V30 10920 N 1079.01 -0.398486 -1.52479 0
M  V30 10921 C 1080.24 0.180557 -2.06111 0
M  V30 10922 C 1080.66 1.39751 -1.26945 0
M  V30 10923 O 1080.01 1.79699 -0.318497 0
M  V30 10924 C 1080.06 0.541573 -3.5742 0
M  V30 10925 O 1079.79 -0.627043 -4.33589 0
M  V30 10926 C 1081.29 1.17549 -4.27431 0
M  V30 10927 H 1078.51 0.0250754 -0.670531 0
M  V30 10928 H 1081.05 -0.566368 -1.96501 0
M  V30 10929 H 1079.21 1.23839 -3.67073 0
M  V30 10930 H 1079.62 -0.328233 -5.23472 0
M  V30 10931 H 1081.09 1.37839 -5.34513 0
M  V30 10932 H 1081.57 2.14553 -3.83228 0
M  V30 10933 H 1082.18 0.51918 -4.22119 0
M  V30 10934 N 1080.49 1.57075 -0.12858 0
M  V30 10935 C 1081.72 1.99876 0.534544 0
M  V30 10936 C 1082.13 1.00843 1.59612 0
M  V30 10937 O 1081.49 0.00268947 1.825 0
M  V30 10938 C 1081.54 3.42654 1.15198 0
M  V30 10939 O 1081.26 4.37899 0.132823 0
M  V30 10940 C 1082.76 4.00637 1.8975 0
M  V30 10941 H 1079.98 0.656073 0.140744 0
M  V30 10942 H 1082.53 2.03337 -0.217742 0
M  V30 10943 H 1080.68 3.40101 1.85499 0
M  V30 10944 H 1081.1 5.21253 0.582682 0
M  V30 10945 H 1082.57 5.02592 2.28266 0
M  V30 10946 H 1083.05 3.40313 2.7764 0
M  V30 10947 H 1083.65 4.06764 1.2419 0
M  V30 10948 N 1081.97 -0.145205 1.5693 0
M  V30 10949 C 1083.22 -0.855955 1.82637 0
M  V30 10950 C 1083.53 -1.82255 0.710109 0
M  V30 10951 O 1084.74 -2.57758 0.852837 0
M  V30 10952 C 1083.19 -1.57278 3.23715 0
M  V30 10953 C 1082.8 -0.648507 4.43281 0
M  V30 10954 C 1084.55 -2.27021 3.58695 0
M  V30 10955 C 1082.45 -1.36706 5.75383 0
M  V30 10956 H 1081.38 -0.323385 0.68113 0
M  V30 10957 H 1084.03 -0.10869 1.83178 0
M  V30 10958 H 1082.42 -2.36574 3.17567 0
M  V30 10959 H 1083.59 0.109355 4.6067 0
M  V30 10960 H 1081.9 -0.0594029 4.16358 0
M  V30 10961 H 1084.5 -2.81423 4.54648 0
M  V30 10962 H 1084.84 -3.03598 2.8484 0
M  V30 10963 H 1085.38 -1.54642 3.66512 0
M  V30 10964 H 1082.12 -0.6431 6.52338 0
M  V30 10965 H 1081.64 -2.09759 5.61926 0
M  V30 10966 H 1083.32 -1.90748 6.18243 0
M  V30 10967 N 1083.45 -1.52049 -0.414609 0
M  V30 10968 C 1084.7 -1.65511 -1.15977 0
M  V30 10969 C 1085.02 -0.384703 -1.91168 0
M  V30 10970 O 1084.29 0.600247 -1.86477 0
M  V30 10971 H 1082.87 -0.610039 -0.431116 0
M  V30 10972 H 1085.53 -1.8907 -0.473139 0
M  V30 10973 H 1084.62 -2.4936 -1.87686 0
M  V30 10974 N 1084.93 0.6715 -1.42579 0
M  V30 10975 C 1086.17 1.42871 -1.42941 0
M  V30 10976 C 1086.49 1.94941 -0.0480483 0
M  V30 10977 O 1085.76 1.73275 0.913921 0
M  V30 10978 H 1084.34 0.530189 -0.526221 0
M  V30 10979 H 1087.01 0.793219 -1.78028 0
M  V30 10980 H 1086.1 2.2801 -2.13114 0
M  V30 10981 N 1086.4 1.28806 0.908124 0
M  V30 10982 C 1087.33 1.15758 2.02787 0
M  V30 10983 C 1088.31 0.053911 1.70015 0
M  V30 10984 O 1089.5 0.231901 1.9281 0
M  V30 10985 C 1086.63 0.824526 3.37371 0
M  V30 10986 C 1085.58 1.88359 3.84324 0
M  V30 10987 C 1084.91 1.40404 5.15937 0
M  V30 10988 C 1086.21 3.29108 4.05568 0
M  V30 10989 H 1087.9 2.09431 2.13961 0
M  V30 10990 H 1085.45 1.00831 1.02806 0
M  V30 10991 H 1087.4 0.71999 4.15204 0
M  V30 10992 H 1086.13 -0.147902 3.26265 0
M  V30 10993 H 1084.79 1.97736 3.087 0
M  V30 10994 H 1084.43 0.420515 5.01239 0
M  V30 10995 H 1084.13 2.11224 5.48323 0
M  V30 10996 H 1085.66 1.31283 5.9632 0
M  V30 10997 H 1087.07 3.2262 4.73909 0
M  V30 10998 H 1085.47 3.97812 4.49294 0
M  V30 10999 H 1086.54 3.72709 3.10187 0
M  V30 11000 N 1087.88 -1.11734 1.11145 0
M  V30 11001 C 1088.83 -2.19765 0.761982 0
M  V30 11002 C 1089.82 -1.67616 -0.24518 0
M  V30 11003 O 1091.03 -1.79695 -0.104781 0
M  V30 11004 H 1087.4 -0.71644 0.228513 0
M  V30 11005 H 1089.38 -2.4649 1.68183 0
M  V30 11006 C 1088.12 -3.47016 0.218057 0
M  V30 11007 H 1087.45 -3.87494 0.984299 0
M  V30 11008 H 1088.89 -4.23998 0.0116825 0
M  V30 11009 C 1087.35 -3.20088 -1.05096 0
M  V30 11010 O 1087.88 -3.40503 -2.1312 0
M  V30 11011 N 1086.08 -2.73844 -0.972523 0
M  V30 11012 H 1085.63 -2.57431 -0.0933459 0
M  V30 11013 H 1085.59 -2.56204 -1.82228 0
M  V30 11014 N 1089.36 -0.901303 -1.29284 0
M  V30 11015 C 1090.31 -0.378666 -2.27672 0
M  V30 11016 C 1091.28 0.540102 -1.57074 0
M  V30 11017 O 1092.46 0.464997 -1.85047 0
M  V30 11018 C 1089.6 0.38635 -3.42931 0
M  V30 11019 C 1088.71 -0.563496 -4.28309 0
M  V30 11020 C 1087.85 0.218731 -5.30749 0
M  V30 11021 C 1086.89 -0.725536 -6.07785 0
M  V30 11022 N 1086.03 0.0223854 -7.02096 0
M  V30 11023 H 1090.87 -1.22277 -2.71758 0
M  V30 11024 H 1088.4 -0.614302 -1.33659 0
M  V30 11025 H 1090.36 0.845967 -4.08533 0
M  V30 11026 H 1088.99 1.1949 -2.9987 0
M  V30 11027 H 1088.04 -1.14163 -3.62865 0
M  V30 11028 H 1089.35 -1.28623 -4.81931 0
M  V30 11029 H 1088.51 0.739473 -6.02177 0
M  V30 11030 H 1087.25 0.97459 -4.77863 0
M  V30 11031 H 1086.25 -1.25776 -5.3522 0
M  V30 11032 H 1087.48 -1.48075 -6.6276 0
M  V30 11033 H 1085.42 0.760482 -6.51577 0
M  V30 11034 H 1085.34 -0.640408 -7.53283 0
M  V30 11035 H 1086.61 0.523339 -7.77741 0
M  V30 11036 N 1090.84 1.42931 -0.663954 0
M  V30 11037 C 1091.78 2.3079 0.0210764 0
M  V30 11038 C 1092.75 1.45356 0.803796 0
M  V30 11039 O 1093.94 1.74207 0.778237 0
M  V30 11040 C 1091.08 3.31069 0.974023 0
M  V30 11041 C 1090.19 4.31598 0.186273 0
M  V30 11042 C 1089.33 5.18955 1.13399 0
M  V30 11043 C 1088.37 6.1117 0.337292 0
M  V30 11044 N 1087.5 6.91114 1.23715 0
M  V30 11045 H 1092.34 2.88819 -0.733995 0
M  V30 11046 H 1089.88 1.42274 -0.373711 0
M  V30 11047 H 1091.84 3.87727 1.54024 0
M  V30 11048 H 1090.47 2.74665 1.69585 0
M  V30 11049 H 1089.52 3.77147 -0.496402 0
M  V30 11050 H 1090.83 4.96919 -0.432753 0
M  V30 11051 H 1089.99 5.80292 1.77049 0
M  V30 11052 H 1088.73 4.53785 1.78691 0
M  V30 11053 H 1087.73 5.48911 -0.312492 0
M  V30 11054 H 1088.96 6.78386 -0.31138 0
M  V30 11055 H 1086.9 6.28583 1.87668 0
M  V30 11056 H 1086.82 7.52999 0.672946 0
M  V30 11057 H 1088.09 7.56948 1.86146 0
M  V30 11058 N 1092.32 0.406567 1.52266 0
M  V30 11059 C 1093.73 -0.063607 1.86592 0
M  V30 11060 C 1094.08 -1.4466 1.32544 0
M  V30 11061 O 1093.2 -2.05971 0.663692 0
M  V30 11062 C 1093.8 -0.122198 3.3858 0
M  V30 11063 C 1092.36 -0.536701 3.72554 0
M  V30 11064 C 1091.5 0.290422 2.75775 0
M  V30 11065 H 1094.45 0.623738 1.45929 0
M  V30 11066 H 1094.48 -0.937964 3.68758 0
M  V30 11067 H 1093.99 0.884495 3.77887 0
M  V30 11068 H 1092.09 -1.55013 3.38824 0
M  V30 11069 H 1092.2 -0.282867 4.78264 0
M  V30 11070 H 1090.57 -0.246864 2.53501 0
M  V30 11071 H 1091.35 1.29541 3.17921 0
M  V30 11072 N 1093.79 -1.57004 0.136909 0
M  V30 11073 C 1094.73 -2.12004 -0.844362 0
M  V30 11074 C 1095.71 -1.04099 -1.24909 0
M  V30 11075 O 1096.89 -1.31866 -1.34698 0
M  V30 11076 C 1094.02 -2.63147 -2.13241 0
M  V30 11077 C 1093.06 -3.83105 -1.87438 0
M  V30 11078 S 1093.9 -5.2461 -1.07447 0
M  V30 11079 C 1095.05 -5.79134 -2.37392 0
M  V30 11080 H 1095.28 -2.94905 -0.376614 0
M  V30 11081 H 1092.82 -1.54207 -0.0771977 0
M  V30 11082 H 1094.78 -2.93264 -2.87239 0
M  V30 11083 H 1093.44 -1.80395 -2.57131 0
M  V30 11084 H 1092.63 -4.17099 -2.82922 0
M  V30 11085 H 1092.23 -3.53696 -1.21553 0
M  V30 11086 H 1094.52 -5.8995 -3.33114 0
M  V30 11087 H 1095.47 -6.76887 -2.07918 0
M  V30 11088 H 1095.87 -5.07311 -2.47579 0
M  V30 11089 N 1095.27 0.136881 -1.57004 0
M  V30 11090 C 1096.5 0.866405 -1.88436 0
M  V30 11091 C 1096.92 1.73483 -0.727006 0
M  V30 11092 O 1096.28 1.78398 0.323094 0
M  V30 11093 C 1096.33 1.69059 -3.18514 0
M  V30 11094 O 1095.43 2.79584 -3.03161 0
M  V30 11095 H 1094.77 0.240709 -0.618834 0
M  V30 11096 H 1097.3 0.124653 -2.0422 0
M  V30 11097 H 1097.31 2.08353 -3.50789 0
M  V30 11098 H 1095.99 1.05296 -4.0235 0
M  V30 11099 H 1094.57 2.43623 -2.82315 0
M  V30 11100 N 1096.75 1.52266 0.40654 0
M  V30 11101 C 1097.68 1.78755 1.50229 0
M  V30 11102 C 1098.66 0.638652 1.57655 0
M  V30 11103 O 1099.85 0.884505 1.72888 0
M  V30 11104 C 1096.98 1.94057 2.88026 0
M  V30 11105 C 1095.93 3.09667 2.95449 0
M  V30 11106 C 1095.26 3.10196 4.35526 0
M  V30 11107 C 1096.56 4.49077 2.66697 0
M  V30 11108 H 1098.25 2.70511 1.28313 0
M  V30 11109 H 1095.8 1.30167 0.615836 0
M  V30 11110 H 1097.75 2.11171 3.64671 0
M  V30 11111 H 1096.47 0.989755 3.11242 0
M  V30 11112 H 1095.13 2.92308 2.2125 0
M  V30 11113 H 1094.78 2.12831 4.55754 0
M  V30 11114 H 1094.48 3.87847 4.41416 0
M  V30 11115 H 1096 3.29443 5.14101 0
M  V30 11116 H 1097.42 4.66628 3.33064 0
M  V30 11117 H 1095.82 5.28665 2.8396 0
M  V30 11118 H 1096.89 4.56995 1.62122 0
M  V30 11119 N 1098.23 -0.663929 1.42933 0
M  V30 11120 C 1099.19 -1.75899 1.46943 0
M  V30 11121 C 1100.19 -1.5682 0.355535 0
M  V30 11122 O 1101.38 -1.62914 0.616833 0
M  V30 11123 C 1098.51 -3.14657 1.31164 0
M  V30 11124 H 1099.71 -1.73727 2.44456 0
M  V30 11125 H 1097.26 -0.874587 1.2954 0
M  V30 11126 H 1097.99 -3.22447 0.346165 0
M  V30 11127 H 1097.78 -3.29909 2.11902 0
M  V30 11128 H 1099.27 -3.9453 1.36878 0
M  V30 11129 N 1099.71 -1.29285 -0.901281 0
M  V30 11130 C 1100.93 -1.20169 -1.69039 0
M  V30 11131 C 1101.36 0.234509 -1.86632 0
M  V30 11132 O 1100.71 1.16935 -1.38549 0
M  V30 11133 C 1100.76 -1.91852 -3.05328 0
M  V30 11134 O 1099.87 -1.23448 -3.9349 0
M  V30 11135 H 1099.21 -0.416486 -0.517141 0
M  V30 11136 H 1101.74 -1.70826 -1.12603 0
M  V30 11137 H 1101.75 -2.00244 -3.5548 0
M  V30 11138 H 1100.42 -2.96313 -2.91841 0
M  V30 11139 H 1099 -1.23303 -3.51924 0
M  V30 11140 N 1101.18 1.11143 -1.11736 0
M  V30 11141 C 1102.43 1.82586 -0.866412 0
M  V30 11142 C 1102.75 1.85227 0.609593 0
M  V30 11143 O 1102.02 1.32505 1.44288 0
M  V30 11144 H 1100.6 0.676149 -0.31754 0
M  V30 11145 H 1103.27 1.34516 -1.41037 0
M  V30 11146 H 1102.36 2.8635 -1.24136 0
M  V30 11147 N 1102.66 0.908147 1.28804 0
M  V30 11148 C 1103.59 0.409106 2.29888 0
M  V30 11149 C 1104.57 -0.520338 1.61946 0
M  V30 11150 O 1105.76 -0.429268 1.89396 0
M  V30 11151 C 1102.89 -0.35669 3.45463 0
M  V30 11152 C 1101.84 0.4831 4.25265 0
M  V30 11153 C 1101.17 -0.4107 5.3312 0
M  V30 11154 C 1102.47 1.73744 4.92555 0
M  V30 11155 H 1104.16 1.25386 2.7188 0
M  V30 11156 H 1101.71 0.604368 1.30703 0
M  V30 11157 H 1103.66 -0.71661 4.15262 0
M  V30 11158 H 1102.39 -1.2353 3.02337 0
M  V30 11159 H 1101.04 0.825464 3.57186 0
M  V30 11160 H 1100.69 -1.28769 4.86238 0
M  V30 11161 H 1100.39 0.14756 5.87415 0
M  V30 11162 H 1101.92 -0.766626 6.05768 0
M  V30 11163 H 1103.33 1.44676 5.54745 0
M  V30 11164 H 1101.73 2.23767 5.5682 0
M  V30 11165 H 1102.8 2.46853 4.17363 0
M  V30 11166 N 1104.14 -1.42577 0.671525 0
M  V30 11167 C 1105.39 -2.01882 0.192716 0
M  V30 11168 C 1105.72 -1.52959 -1.19654 0
M  V30 11169 O 1104.99 -0.730404 -1.80265 0
M  V30 11170 C 1105.28 -3.59404 0.223734 0
M  V30 11171 C 1105.13 -4.18514 1.64821 0
M  V30 11172 C 1106.45 -4.37996 -0.429858 0
M  V30 11173 H 1103.57 -0.733523 0.0715026 0
M  V30 11174 H 1106.21 -1.69641 0.855689 0
M  V30 11175 H 1104.36 -3.87003 -0.340776 0
M  V30 11176 H 1106.03 -4.01881 2.26472 0
M  V30 11177 H 1104.28 -3.74467 2.1899 0
M  V30 11178 H 1104.95 -5.27643 1.62162 0
M  V30 11179 H 1107.42 -4.16069 0.0506433 0
M  V30 11180 H 1106.3 -5.476 -0.377503 0
M  V30 11181 H 1106.56 -4.15625 -1.50693 0
M  V30 11182 N 1105.62 -0.414636 -1.52048 0
M  V30 11183 C 1107.03 0.0537107 -1.86623 0
M  V30 11184 C 1107.38 1.43955 -1.3331 0
M  V30 11185 O 1106.51 2.05616 -0.674606 0
M  V30 11186 C 1107.1 0.104241 -3.3864 0
M  V30 11187 C 1105.66 0.516936 -3.72833 0
M  V30 11188 C 1104.81 -0.305042 -2.75617 0
M  V30 11189 H 1107.76 -0.631469 -1.45596 0
M  V30 11190 H 1107.78 0.918395 -3.6925 0
M  V30 11191 H 1107.29 -0.904523 -3.77412 0
M  V30 11192 H 1105.39 1.53214 -3.39641 0
M  V30 11193 H 1105.5 0.2575 -4.78408 0
M  V30 11194 H 1103.87 0.233416 -2.53628 0
M  V30 11195 H 1104.65 -1.31226 -3.1723 0
M  V30 11196 N 1107.1 1.56929 -0.145233 0
M  V30 11197 C 1108.06 2.15483 0.781002 0
M  V30 11198 C 1109.06 1.09617 1.17647 0
M  V30 11199 O 1110.25 1.35265 1.09768 0
M  V30 11200 C 1107.38 2.7165 2.05959 0
M  V30 11201 H 1108.57 2.98667 0.271685 0
M  V30 11202 H 1106.13 1.55952 0.1042 0
M  V30 11203 H 1106.86 1.92127 2.61262 0
M  V30 11204 H 1106.65 3.491 1.78526 0
M  V30 11205 H 1108.14 3.16769 2.72116 0
M  V30 11206 N 1108.58 -0.128553 1.57075 0
M  V30 11207 C 1109.54 -1.14215 1.98715 0
M  V30 11208 C 1110.54 -1.34843 0.876019 0
M  V30 11209 O 1111.73 -1.31522 1.14227 0
M  V30 11210 C 1108.86 -2.49865 2.31905 0
M  V30 11211 H 1110.05 -0.784481 2.89458 0
M  V30 11212 H 1107.61 -0.372531 1.51796 0
M  V30 11213 H 1108.34 -2.9057 1.44012 0
M  V30 11214 H 1108.13 -2.3625 3.12935 0
M  V30 11215 H 1109.62 -3.22832 2.64895 0
M  V30 11216 N 1110.05 -1.5248 -0.398459 0
M  V30 11217 C 1111.46 -1.59107 -0.976817 0
M  V30 11218 C 1111.82 -0.438104 -1.91246 0
M  V30 11219 O 1110.94 0.440111 -2.11877 0
M  V30 11220 C 1111.54 -2.88373 -1.77838 0
M  V30 11221 C 1110.09 -2.97445 -2.30659 0
M  V30 11222 C 1109.24 -2.5414 -1.10942 0
M  V30 11223 H 1112.19 -1.57695 -0.178324 0
M  V30 11224 H 1112.21 -2.74327 -2.63676 0
M  V30 11225 H 1111.73 -3.72269 -1.09714 0
M  V30 11226 H 1109.83 -2.18066 -3.02123 0
M  V30 11227 H 1109.94 -4.019 -2.60794 0
M  V30 11228 H 1108.3 -2.08237 -1.46661 0
M  V30 11229 H 1109.09 -3.40421 -0.443684 0
M  V30 11230 N 1111.53 0.65634 -1.43283 0
M  V30 11231 C 1112.94 1.23744 -1.39801 0
M  V30 11232 C 1113.29 1.95942 -0.100507 0
M  V30 11233 O 1112.42 2.01063 0.800161 0
M  V30 11234 C 1113.01 2.25062 -2.53244 0
M  V30 11235 C 1111.57 2.78657 -2.53036 0
M  V30 11236 C 1110.72 1.53251 -2.31105 0
M  V30 11237 H 1113.67 0.448553 -1.52229 0
M  V30 11238 H 1113.69 3.07174 -2.24553 0
M  V30 11239 H 1113.2 1.72487 -3.47664 0
M  V30 11240 H 1111.3 3.35304 -1.62487 0
M  V30 11241 H 1111.42 3.26414 -3.507 0
M  V30 11242 H 1109.78 1.80487 -1.79713 0
M  V30 11243 H 1110.56 1.02615 -3.27605 0
M  V30 11244 N 1113.01 1.29761 0.894412 0
M  V30 11245 C 1113.96 1.15341 1.99912 0
M  V30 11246 C 1114.93 0.0453488 1.66038 0
M  V30 11247 O 1116.11 0.213829 1.89598 0
M  V30 11248 C 1113.25 0.841432 3.34685 0
M  V30 11249 C 1112.36 2.03046 3.81309 0
M  V30 11250 C 1111.5 1.65739 5.04682 0
M  V30 11251 C 1110.54 2.81191 5.43689 0
M  V30 11252 N 1109.68 2.44244 6.58247 0
M  V30 11253 H 1114.52 2.09854 2.11578 0
M  V30 11254 H 1112.05 1.04421 1.03608 0
M  V30 11255 H 1114.01 0.641211 4.12243 0
M  V30 11256 H 1112.64 -0.066797 3.22731 0
M  V30 11257 H 1111.69 2.34222 2.9974 0
M  V30 11258 H 1113 2.89538 4.06164 0
M  V30 11259 H 1112.16 1.42036 5.8984 0
M  V30 11260 H 1110.9 0.764019 4.81678 0
M  V30 11261 H 1109.9 3.0557 4.57064 0
M  V30 11262 H 1111.13 3.712 5.68672 0
M  V30 11263 H 1109.07 1.57402 6.36837 0
M  V30 11264 H 1108.99 3.24269 6.82924 0
M  V30 11265 H 1110.26 2.23875 7.46659 0
M  V30 11266 N 1114.49 -1.10549 1.12324 0
M  V30 11267 C 1115.9 -1.34508 0.85905 0
M  V30 11268 C 1116.1 -1.94901 -0.511468 0
M  V30 11269 O 1115.16 -2.18793 -1.2604 0
M  V30 11270 C 1116.47 -2.26788 1.97453 0
M  V30 11271 C 1118.02 -2.40328 2.00528 0
M  V30 11272 C 1118.5 -3.35936 3.11305 0
M  V30 11273 N 1119.99 -3.43504 3.1074 0
M  V30 11274 C 1120.72 -4.17449 3.93096 0
M  V30 11275 N 1120.22 -4.9429 4.85437 0
M  V30 11276 N 1122.01 -4.13055 3.81237 0
M  V30 11277 H 1114.16 -0.697171 2.00632 0
M  V30 11278 H 1116.42 -0.369548 0.873005 0
M  V30 11279 H 1116.13 -1.89621 2.96204 0
M  V30 11280 H 1116 -3.27086 1.87869 0
M  V30 11281 H 1118.39 -2.76765 1.02397 0
M  V30 11282 H 1118.47 -1.39849 2.14186 0
M  V30 11283 H 1118.12 -3.00225 4.09667 0
M  V30 11284 H 1118.05 -4.36291 2.94886 0
M  V30 11285 H 1120.54 -2.88702 2.43843 0
M  V30 11286 H 1120.85 -5.48109 5.4479 0
M  V30 11287 H 1119.2 -4.93419 4.89452 0
M  V30 11288 H 1122.39 -3.52117 3.08433 0
M  V30 11289 H 1122.56 -4.70424 4.45651 0
M  V30 11290 N 1115.97 -0.914965 -1.28321 0
M  V30 11291 C 1117.38 -0.59512 -1.76961 0
M  V30 11292 C 1117.73 0.88958 -1.74874 0
M  V30 11293 O 1116.85 1.6959 -1.34418 0
M  V30 11294 C 1117.45 -1.07353 -3.21342 0
M  V30 11295 C 1116.01 -0.804577 -3.677 0
M  V30 11296 C 1115.15 -1.23955 -2.48053 0
M  V30 11297 H 1118.1 -1.0961 -1.14767 0
M  V30 11298 H 1118.13 -0.415506 -3.78225 0
M  V30 11299 H 1117.64 -2.15413 -3.22829 0
M  V30 11300 H 1115.74 0.26277 -3.71672 0
M  V30 11301 H 1115.85 -1.41317 -4.57784 0
M  V30 11302 H 1114.22 -0.658274 -2.46046 0
M  V30 11303 H 1115 -2.32853 -2.52258 0
M  V30 11304 N 1117.44 1.42219 -0.679077 0
M  V30 11305 C 1118.41 2.29197 -0.0125475 0
M  V30 11306 C 1119.41 1.43544 0.724691 0
M  V30 11307 O 1120.6 1.64884 0.562052 0
M  V30 11308 C 1117.73 3.26122 0.992846 0
M  V30 11309 H 1118.92 2.89629 -0.778154 0
M  V30 11310 H 1116.47 1.4993 -0.44166 0
M  V30 11311 H 1117.21 2.70637 1.78679 0
M  V30 11312 H 1116.99 3.89302 0.467544 0
M  V30 11313 H 1118.48 3.91339 1.45751 0
M  V30 11314 N 1118.92 0.422693 1.51826 0
M  V30 11315 C 1120.17 -0.148861 2.02253 0
M  V30 11316 C 1120.5 -1.43629 1.30707 0
M  V30 11317 O 1119.78 -1.89967 0.417482 0
M  V30 11318 C 1120.06 -0.382672 3.58061 0
M  V30 11319 C 1119.91 0.922386 4.40241 0
M  V30 11320 C 1121.23 -1.1589 4.24567 0
M  V30 11321 H 1118.35 -0.0526279 0.735119 0
M  V30 11322 H 1120.99 0.558821 1.81596 0
M  V30 11323 H 1119.14 -0.985495 3.75793 0
M  V30 11324 H 1120.81 1.55806 4.34191 0
M  V30 11325 H 1119.06 1.53032 4.05911 0
M  V30 11326 H 1119.73 0.713012 5.47376 0
M  V30 11327 H 1122.2 -0.648415 4.11017 0
M  V30 11328 H 1121.08 -1.29125 5.33496 0
M  V30 11329 H 1121.34 -2.18315 3.84436 0
M  V30 11330 N 1120.4 -1.5685 0.153553 0
M  V30 11331 C 1121.36 -2.15894 -0.769564 0
M  V30 11332 C 1122.36 -1.10239 -1.17064 0
M  V30 11333 O 1123.55 -1.35845 -1.09049 0
M  V30 11334 C 1120.68 -2.72738 -2.04516 0
M  V30 11335 H 1121.88 -2.98807 -0.255842 0
M  V30 11336 H 1119.43 -1.56005 -0.0959279 0
M  V30 11337 H 1120.17 -1.9351 -2.60239 0
M  V30 11338 H 1119.95 -3.50042 -1.76672 0
M  V30 11339 H 1121.44 -3.18208 -2.70432 0
M  V30 11340 N 1121.88 0.120221 -1.57141 0
M  V30 11341 C 1123.1 0.84637 -1.89344 0
M  V30 11342 C 1123.53 1.72702 -0.745365 0
M  V30 11343 O 1122.89 1.7873 0.304155 0
M  V30 11344 C 1122.93 1.65671 -3.20289 0
M  V30 11345 O 1122.04 2.76353 -3.06109 0
M  V30 11346 H 1121.38 0.234132 -0.621352 0
M  V30 11347 H 1123.91 0.102986 -2.04341 0
M  V30 11348 H 1123.92 2.04621 -3.52979 0
M  V30 11349 H 1122.59 1.01023 -4.03444 0
M  V30 11350 H 1121.17 2.40615 -2.84884 0
M  V30 11351 N 1123.36 1.52689 0.390367 0
M  V30 11352 C 1124.32 1.76726 1.45947 0
M  V30 11353 C 1125.32 0.637269 1.47633 0
M  V30 11354 O 1126.51 0.905312 1.48828 0
M  V30 11355 C 1123.64 1.86678 2.85244 0
M  V30 11356 H 1124.83 2.72185 1.25918 0
M  V30 11357 H 1122.39 1.4339 0.622023 0
M  V30 11358 H 1123.12 0.931991 3.10619 0
M  V30 11359 H 1122.91 2.68843 2.85422 0
M  V30 11360 H 1124.4 2.06952 3.62713 0
M  V30 11361 N 1124.83 -0.648732 1.43629 0
M  V30 11362 C 1126.25 -0.964917 1.27128 0
M  V30 11363 C 1126.45 -2.00561 0.194251 0
M  V30 11364 O 1125.51 -2.48884 -0.42581 0
M  V30 11365 C 1126.82 -1.44491 2.6371 0
M  V30 11366 C 1128.37 -1.56133 2.71278 0
M  V30 11367 C 1128.84 -2.07521 4.08288 0
M  V30 11368 N 1130.33 -2.14817 4.10375 0
M  V30 11369 C 1131.07 -2.55712 5.13224 0
M  V30 11370 N 1130.56 -2.9587 6.26444 0
M  V30 11371 N 1132.36 -2.55691 5.00578 0
M  V30 11372 H 1124.51 0.0398357 2.12363 0
M  V30 11373 H 1126.77 -0.0447705 0.946942 0
M  V30 11374 H 1126.48 -0.754616 3.43509 0
M  V30 11375 H 1126.35 -2.41914 2.89409 0
M  V30 11376 H 1128.74 -2.24263 1.91808 0
M  V30 11377 H 1128.82 -0.571314 2.49338 0
M  V30 11378 H 1128.46 -1.39992 4.88226 0
M  V30 11379 H 1128.39 -3.07362 4.27594 0
M  V30 11380 H 1130.88 -1.86538 3.28652 0
M  V30 11381 H 1131.2 -3.25837 7.0075 0
M  V30 11382 H 1129.54 -2.93664 6.2991 0
M  V30 11383 H 1132.73 -2.23697 4.1119 0
M  V30 11384 H 1132.91 -2.87239 5.80859 0
M  V30 11385 N 1126.31 -1.30234 -0.887518 0
M  V30 11386 C 1127.72 -1.17048 -1.45453 0
M  V30 11387 C 1128.07 0.229793 -1.9485 0
M  V30 11388 O 1127.2 1.12628 -1.84781 0
M  V30 11389 C 1127.79 -2.11876 -2.64375 0
M  V30 11390 C 1126.35 -2.02676 -3.17174 0
M  V30 11391 C 1125.5 -2.02104 -1.89866 0
M  V30 11392 H 1128.45 -1.42541 -0.697694 0
M  V30 11393 H 1128.47 -1.69811 -3.40506 0
M  V30 11394 H 1127.98 -3.13781 -2.28392 0
M  V30 11395 H 1126.09 -1.03904 -3.57819 0
M  V30 11396 H 1126.2 -2.90939 -3.80646 0
M  V30 11397 H 1124.56 -1.4687 -2.0809 0
M  V30 11398 H 1125.35 -3.05735 -1.56145 0
M  V30 11399 N 1127.79 1.09952 -1.12909 0
M  V30 11400 C 1129.02 1.8633 -0.910821 0
M  V30 11401 C 1129.44 1.80335 0.534874 0
M  V30 11402 O 1128.8 1.1769 1.37908 0
M  V30 11403 C 1128.85 3.32462 -1.39648 0
M  V30 11404 O 1127.95 4.08327 -0.578192 0
M  V30 11405 H 1127.29 0.577984 -0.32685 0
M  V30 11406 H 1129.82 1.38883 -1.50242 0
M  V30 11407 H 1129.83 3.83311 -1.39774 0
M  V30 11408 H 1128.51 3.36141 -2.44913 0
M  V30 11409 H 1127.08 3.67291 -0.644347 0
M  V30 11410 N 1129.27 0.921757 1.27833 0
M  V30 11411 C 1130.52 0.55493 1.93916 0
M  V30 11412 C 1130.83 -0.907191 1.7329 0
M  V30 11413 O 1132.04 -1.38253 2.33663 0
M  V30 11414 C 1130.49 0.941644 3.47363 0
M  V30 11415 C 1130.1 2.42404 3.76755 0
M  V30 11416 C 1131.84 0.645785 4.19559 0
M  V30 11417 C 1129.75 2.75046 5.23549 0
M  V30 11418 H 1128.68 0.203818 0.72593 0
M  V30 11419 H 1131.33 1.12176 1.4522 0
M  V30 11420 H 1129.71 0.303519 3.94835 0
M  V30 11421 H 1130.89 3.10957 3.40062 0
M  V30 11422 H 1129.2 2.69118 3.17749 0
M  V30 11423 H 1131.8 0.866237 5.27637 0
M  V30 11424 H 1132.14 -0.41676 4.14209 0
M  V30 11425 H 1132.68 1.24274 3.7789 0
M  V30 11426 H 1129.42 3.80186 5.33984 0
M  V30 11427 H 1128.94 2.11138 5.6141 0
M  V30 11428 H 1130.61 2.62474 5.91368 0
M  V30 11429 N 1130.75 -1.41857 0.686609 0
M  V30 11430 C 1131.68 -2.33481 0.0298353 0
M  V30 11431 C 1132.66 -1.51329 -0.776756 0
M  V30 11432 O 1133.84 -1.79895 -0.731535 0
M  V30 11433 C 1130.97 -3.35065 -0.913707 0
M  V30 11434 C 1129.93 -4.2746 -0.214861 0
M  V30 11435 C 1129.25 -5.19346 -1.27215 0
M  V30 11436 C 1130.55 -5.14252 0.913367 0
M  V30 11437 H 1132.25 -2.8865 0.795067 0
M  V30 11438 H 1129.79 -1.38792 0.383785 0
M  V30 11439 H 1131.75 -3.98082 -1.38234 0
M  V30 11440 H 1130.47 -2.78226 -1.7105 0
M  V30 11441 H 1129.13 -3.65855 0.233651 0
M  V30 11442 H 1128.78 -4.58827 -2.06124 0
M  V30 11443 H 1128.48 -5.81996 -0.80961 0
M  V30 11444 H 1130 -5.85239 -1.74147 0
M  V30 11445 H 1131.41 -5.70887 0.525424 0
M  V30 11446 H 1129.81 -5.85796 1.30244 0
M  V30 11447 H 1130.88 -4.51949 1.75699 0
M  V30 11448 N 1132.22 -0.430739 -1.51599 0
M  V30 11449 C 1133.64 0.0339139 -1.86669 0
M  V30 11450 C 1133.99 1.42533 -1.34829 0
M  V30 11451 O 1133.11 2.04889 -0.696376 0
M  V30 11452 C 1133.71 0.0683174 -3.38731 0
M  V30 11453 C 1132.27 0.477363 -3.73361 0
M  V30 11454 C 1131.41 -0.334258 -2.75278 0
M  V30 11455 H 1134.36 -0.646875 -1.44918 0
M  V30 11456 H 1134.38 0.879179 -3.70204 0
M  V30 11457 H 1133.9 -0.944501 -3.76432 0
M  V30 11458 H 1132 1.49603 -3.41247 0
M  V30 11459 H 1132.11 0.206744 -4.78654 0
M  V30 11460 H 1130.47 0.206503 -2.53861 0
M  V30 11461 H 1131.26 -1.34583 -3.1582 0
M  V30 11462 N 1133.7 1.56767 -0.161869 0
M  V30 11463 C 1134.93 2.01401 0.49523 0
M  V30 11464 C 1135.35 1.04133 1.56646 0
M  V30 11465 O 1134.71 0.0193747 1.8129 0
M  V30 11466 C 1134.76 3.44695 1.05913 0
M  V30 11467 O 1133.86 3.50475 2.1735 0
M  V30 11468 H 1133.2 0.65314 0.1196 0
M  V30 11469 H 1135.73 2.02903 -0.26298 0
M  V30 11470 H 1135.74 3.83805 1.3841 0
M  V30 11471 H 1134.42 4.14991 0.274749 0
M  V30 11472 H 1133 3.23218 1.85969 0
M  V30 11473 N 1135.18 -0.111886 1.57202 0
M  V30 11474 C 1136.13 -1.13688 2.00858 0
M  V30 11475 C 1137.1 -1.40752 0.881939 0
M  V30 11476 O 1138.28 -1.52498 1.14669 0
M  V30 11477 C 1135.42 -2.45641 2.42393 0
M  V30 11478 C 1134.54 -2.25452 3.68504 0
M  V30 11479 C 1133.67 -3.50686 3.9899 0
M  V30 11480 C 1132.71 -3.25685 5.18262 0
M  V30 11481 N 1131.85 -4.4314 5.44583 0
M  V30 11482 H 1136.69 -0.757611 2.88209 0
M  V30 11483 H 1134.22 -0.362582 1.42561 0
M  V30 11484 H 1136.18 -3.22627 2.64514 0
M  V30 11485 H 1134.81 -2.81447 1.58074 0
M  V30 11486 H 1133.86 -1.39349 3.53958 0
M  V30 11487 H 1135.18 -2.0296 4.55641 0
M  V30 11488 H 1134.33 -4.36087 4.21797 0
M  V30 11489 H 1133.07 -3.76216 3.10343 0
M  V30 11490 H 1132.07 -2.38675 4.95292 0
M  V30 11491 H 1133.3 -3.01518 6.08493 0
M  V30 11492 H 1131.24 -4.68778 4.58893 0
M  V30 11493 H 1131.16 -4.23778 6.26058 0
M  V30 11494 H 1132.43 -5.29654 5.71915 0
M  V30 11495 N 1136.66 -1.52894 -0.382264 0
M  V30 11496 C 1137.94 -1.58853 -1.14127 0
M  V30 11497 C 1138.32 -0.38582 -2.07544 0
M  V30 11498 O 1137.66 0.625323 -2.19777 0
M  V30 11499 C 1137.87 -2.93068 -1.89504 0
M  V30 11500 C 1139.22 -3.47048 -2.44629 0
M  V30 11501 O 1140.25 -2.94987 -1.99652 0
M  V30 11502 O 1139.1 -4.3802 -3.26804 0
M  V30 11503 H 1136.2 -0.640969 -0.522578 0
M  V30 11504 H 1138.74 -1.65231 -0.386873 0
M  V30 11505 H 1137.52 -3.72047 -1.2123 0
M  V30 11506 H 1137.14 -2.90106 -2.7189 0
M  V30 11507 N 1138.14 0.641106 -1.43971 0
M  V30 11508 C 1139.38 1.40291 -1.46445 0
M  V30 11509 C 1139.72 1.93978 -0.0929004 0
M  V30 11510 O 1138.99 1.73043 0.888043 0
M  V30 11511 C 1139.27 2.57551 -2.51673 0
M  V30 11512 C 1139.13 2.09279 -3.98149 0
M  V30 11513 C 1140.45 3.59752 -2.53508 0
M  V30 11514 H 1137.57 0.508771 -0.533218 0
M  V30 11515 H 1140.21 0.725767 -1.75592 0
M  V30 11516 H 1138.36 3.15319 -2.2695 0
M  V30 11517 H 1140.03 1.56418 -4.33971 0
M  V30 11518 H 1138.27 1.40545 -4.10402 0
M  V30 11519 H 1138.94 2.93655 -4.67409 0
M  V30 11520 H 1141.42 3.11766 -2.75574 0
M  V30 11521 H 1140.3 4.39332 -3.29057 0
M  V30 11522 H 1140.56 4.13156 -1.57335 0
M  V30 11523 N 1139.62 1.30703 0.880598 0
M  V30 11524 C 1140.56 1.17455 1.98678 0
M  V30 11525 C 1141.53 0.0629569 1.65981 0
M  V30 11526 O 1142.72 0.233926 1.89361 0
M  V30 11527 C 1139.86 0.876882 3.33774 0
M  V30 11528 C 1138.97 2.07078 3.79134 0
M  V30 11529 C 1138.11 1.71082 5.02896 0
M  V30 11530 C 1137.14 2.86942 5.40676 0
M  V30 11531 N 1136.28 2.51212 6.55619 0
M  V30 11532 H 1141.12 2.12086 2.09341 0
M  V30 11533 H 1138.66 1.05514 1.02495 0
M  V30 11534 H 1140.62 0.684899 4.1154 0
M  V30 11535 H 1139.25 -0.0325633 3.22784 0
M  V30 11536 H 1138.3 2.37388 2.97239 0
M  V30 11537 H 1139.61 2.9383 4.0307 0
M  V30 11538 H 1138.76 1.48284 5.883 0
M  V30 11539 H 1137.5 0.815064 4.80841 0
M  V30 11540 H 1136.51 3.10401 4.53797 0
M  V30 11541 H 1137.73 3.77211 5.64703 0
M  V30 11542 H 1135.68 1.64147 6.35131 0
M  V30 11543 H 1135.6 3.31495 6.79446 0
M  V30 11544 H 1136.86 2.31781 7.44243 0
M  V30 11545 N 1141.09 -1.09351 1.1349 0
M  V30 11546 C 1142.5 -1.63035 0.909746 0
M  V30 11547 C 1142.86 -1.88229 -0.553573 0
M  V30 11548 O 1141.98 -1.63256 -1.42044 0
M  V30 11549 C 1142.58 -2.96186 1.64497 0
M  V30 11550 C 1141.13 -3.46692 1.46566 0
M  V30 11551 C 1140.28 -2.21095 1.67369 0
M  V30 11552 H 1143.23 -0.92704 1.28809 0
M  V30 11553 H 1143.25 -3.64177 1.10251 0
M  V30 11554 H 1142.77 -2.77818 2.70996 0
M  V30 11555 H 1140.87 -3.70183 0.423728 0
M  V30 11556 H 1140.98 -4.24078 2.22923 0
M  V30 11557 H 1139.34 -2.29789 1.0986 0
M  V30 11558 H 1140.13 -2.05245 2.7519 0
M  V30 11559 N 1142.57 -0.928524 -1.27343 0
M  V30 11560 C 1143.52 -0.426873 -2.26818 0
M  V30 11561 C 1144.49 0.506663 -1.58184 0
M  V30 11562 O 1145.67 0.425641 -1.85992 0
M  V30 11563 C 1142.81 0.313523 -3.43673 0
M  V30 11564 C 1141.93 -0.65422 -4.27018 0
M  V30 11565 C 1141.06 0.106102 -5.31094 0
M  V30 11566 C 1140.1 -0.854293 -6.06109 0
M  V30 11567 N 1139.24 -0.126545 -7.01986 0
M  V30 11568 H 1144.08 -1.28014 -2.69103 0
M  V30 11569 H 1141.61 -0.642515 -1.32326 0
M  V30 11570 H 1143.57 0.75912 -4.10236 0
M  V30 11571 H 1142.2 1.13102 -3.02337 0
M  V30 11572 H 1141.25 -1.21834 -3.60362 0
M  V30 11573 H 1142.57 -1.38817 -4.79094 0
M  V30 11574 H 1141.72 0.611577 -6.0361 0
M  V30 11575 H 1140.46 0.873009 -4.79823 0
M  V30 11576 H 1139.46 -1.37101 -5.32432 0
M  V30 11577 H 1140.69 -1.621 -6.5947 0
M  V30 11578 H 1138.64 0.622102 -6.53044 0
M  V30 11579 H 1138.55 -0.800046 -7.51755 0
M  V30 11580 H 1139.82 0.358251 -7.78676 0
M  V30 11581 N 1144.05 1.41491 -0.694123 0
M  V30 11582 C 1145.46 1.84283 -0.299439 0
M  V30 11583 C 1145.81 1.58081 1.16211 0
M  V30 11584 O 1144.94 1.05051 1.89191 0
M  V30 11585 C 1145.53 3.34522 -0.536696 0
M  V30 11586 C 1144.09 3.7589 -0.195944 0
M  V30 11587 C 1143.24 2.64908 -0.819692 0
M  V30 11588 H 1146.19 1.31063 -0.894884 0
M  V30 11589 H 1146.21 3.79947 0.205062 0
M  V30 11590 H 1145.72 3.53561 -1.6005 0
M  V30 11591 H 1143.82 3.62452 0.863655 0
M  V30 11592 H 1143.94 4.74671 -0.649954 0
M  V30 11593 H 1142.3 2.53476 -0.249412 0
M  V30 11594 H 1143.08 2.86765 -1.88734 0
M  V30 11595 N 1145.53 0.438773 1.51369 0
M  V30 11596 C 1146.78 -0.128723 2.01289 0
M  V30 11597 C 1147.09 -1.43659 1.32745 0
M  V30 11598 O 1148.3 -2.08712 1.73642 0
M  V30 11599 C 1146.75 -0.279945 3.5881 0
M  V30 11600 C 1146.36 1.01758 4.3629 0
M  V30 11601 C 1148.1 -0.801133 4.16872 0
M  V30 11602 C 1146.01 0.831918 5.85519 0
M  V30 11603 H 1144.94 -0.0518814 0.752213 0
M  V30 11604 H 1147.59 0.568753 1.74463 0
M  V30 11605 H 1145.97 -1.04046 3.82087 0
M  V30 11606 H 1147.15 1.78653 4.24758 0
M  V30 11607 H 1145.46 1.46741 3.89687 0
M  V30 11608 H 1148.06 -0.956548 5.26074 0
M  V30 11609 H 1148.4 -1.78396 3.76139 0
M  V30 11610 H 1148.94 -0.0988934 3.97677 0
M  V30 11611 H 1145.67 1.78716 6.30667 0
M  V30 11612 H 1145.19 0.102785 5.99712 0
M  V30 11613 H 1146.87 0.485681 6.45174 0
M  V30 11614 N 1147.01 -1.56678 0.170181 0
M  V30 11615 C 1147.97 -2.16698 -0.746622 0
M  V30 11616 C 1148.97 -1.11475 -1.15888 0
M  V30 11617 O 1150.16 -1.36994 -1.07602 0
M  V30 11618 C 1147.29 -2.74892 -2.01612 0
M  V30 11619 H 1148.48 -2.99061 -0.224135 0
M  V30 11620 H 1146.04 -1.56098 -0.0793761 0
M  V30 11621 H 1146.77 -1.96259 -2.58172 0
M  V30 11622 H 1146.56 -3.51896 -1.72949 0
M  V30 11623 H 1148.05 -3.21058 -2.67042 0
M  V30 11624 N 1148.48 0.103547 -1.57259 0
M  V30 11625 C 1149.76 0.839768 -1.76656 0
M  V30 11626 C 1150.14 1.9734 -0.749666 0
M  V30 11627 O 1149.49 2.27405 0.223466 0
M  V30 11628 C 1149.7 1.34218 -3.22159 0
M  V30 11629 C 1151.05 1.78835 -3.85102 0
M  V30 11630 O 1152.07 1.43861 -3.25857 0
M  V30 11631 O 1150.93 2.43474 -4.89267 0
M  V30 11632 H 1148.02 0.399928 -0.723869 0
M  V30 11633 H 1150.57 0.0860857 -1.69482 0
M  V30 11634 H 1149.34 0.52956 -3.877 0
M  V30 11635 H 1148.96 2.15811 -3.33933 0
M  V30 11636 N 1149.96 1.53094 0.37415 0
M  V30 11637 C 1150.92 1.78264 1.44065 0
M  V30 11638 C 1151.92 0.652892 1.46949 0
M  V30 11639 O 1153.11 0.921046 1.47859 0
M  V30 11640 C 1150.25 1.89693 2.83248 0
M  V30 11641 H 1151.44 2.73505 1.23025 0
M  V30 11642 H 1148.99 1.44041 0.60678 0
M  V30 11643 H 1149.73 0.964884 3.09613 0
M  V30 11644 H 1149.51 2.71855 2.82554 0
M  V30 11645 H 1151 2.10787 3.60498 0
M  V30 11646 N 1151.44 -0.633461 1.44309 0
M  V30 11647 C 1152.39 -1.74554 1.50995 0
M  V30 11648 C 1153.36 -1.62199 0.357873 0
M  V30 11649 O 1154.54 -1.82156 0.567787 0
M  V30 11650 C 1151.68 -3.12792 1.45791 0
M  V30 11651 C 1150.79 -3.3614 2.71356 0
M  V30 11652 C 1149.93 -4.64337 2.58002 0
M  V30 11653 C 1148.97 -4.80855 3.78741 0
M  V30 11654 N 1148.11 -6.00327 3.64077 0
M  V30 11655 H 1152.95 -1.68174 2.46011 0
M  V30 11656 H 1150.48 -0.820407 1.22097 0
M  V30 11657 H 1152.44 -3.92735 1.40765 0
M  V30 11658 H 1151.07 -3.18193 0.543445 0
M  V30 11659 H 1150.12 -2.50154 2.86579 0
M  V30 11660 H 1151.43 -3.44226 3.60985 0
M  V30 11661 H 1150.59 -5.52437 2.50795 0
M  V30 11662 H 1149.33 -4.58605 1.65929 0
M  V30 11663 H 1148.33 -3.91185 3.86334 0
M  V30 11664 H 1149.56 -4.88403 4.71847 0
M  V30 11665 H 1147.5 -5.9569 2.74754 0
M  V30 11666 H 1147.42 -6.09459 4.47321 0
M  V30 11667 H 1148.69 -6.90995 3.60758 0
M  V30 11668 N 1152.92 -1.31168 -0.873655 0
M  V30 11669 C 1153.88 -1.18471 -1.96207 0
M  V30 11670 C 1154.88 -0.112814 -1.60404 0
M  V30 11671 O 1156.07 -0.3618 -1.70401 0
M  V30 11672 C 1153.2 -0.817662 -3.30949 0
M  V30 11673 H 1154.4 -2.1518 -2.08896 0
M  V30 11674 H 1151.95 -1.14727 -1.06149 0
M  V30 11675 H 1152.68 0.148428 -3.2396 0
M  V30 11676 H 1152.47 -1.59244 -3.58307 0
M  V30 11677 H 1153.96 -0.75262 -4.10762 0
M  V30 11678 N 1154.4 1.08748 -1.14068 0
M  V30 11679 C 1155.81 1.62551 -0.918379 0
M  V30 11680 C 1156.16 1.8852 0.543583 0
M  V30 11681 O 1155.28 1.64007 1.41176 0
M  V30 11682 C 1155.88 2.95309 -1.66066 0
M  V30 11683 C 1154.44 3.4591 -1.48403 0
M  V30 11684 C 1153.58 2.20204 -1.6854 0
M  V30 11685 H 1156.54 0.920196 -1.29298 0
M  V30 11686 H 1156.56 3.63587 -1.12181 0
M  V30 11687 H 1156.07 2.76377 -2.72465 0
M  V30 11688 H 1154.17 3.69953 -0.443353 0
M  V30 11689 H 1154.28 4.2289 -2.25169 0
M  V30 11690 H 1152.65 2.29203 -1.11077 0
M  V30 11691 H 1153.43 2.03783 -2.76274 0
M  V30 11692 N 1155.87 0.935264 1.26849 0
M  V30 11693 C 1156.78 0.446122 2.30319 0
M  V30 11694 C 1157.8 -0.476965 1.67335 0
M  V30 11695 O 1158.98 -0.357934 1.98194 0
M  V30 11696 C 1156.04 -0.286297 3.45516 0
M  V30 11697 C 1155.1 0.672626 4.23998 0
M  V30 11698 C 1154.34 -0.0249345 5.33694 0
M  V30 11699 O 1154.56 -1.24296 5.56693 0
M  V30 11700 O 1153.49 0.650752 5.98372 0
M  V30 11701 H 1157.32 1.30546 2.74211 0
M  V30 11702 H 1154.9 0.70091 1.31938 0
M  V30 11703 H 1156.79 -0.699109 4.1556 0
M  V30 11704 H 1155.46 -1.12112 3.03665 0
M  V30 11705 H 1154.37 1.13527 3.56458 0
M  V30 11706 H 1155.7 1.47489 4.69583 0
M  V30 11707 N 1157.35 -1.41121 0.701616 0
M  V30 11708 C 1158.3 -2.30765 0.040121 0
M  V30 11709 C 1159.27 -1.47436 -0.764975 0
M  V30 11710 O 1160.45 -1.76209 -0.731775 0
M  V30 11711 C 1157.59 -3.33535 -0.885903 0
M  V30 11712 C 1156.71 -4.3194 -0.0717765 0
M  V30 11713 C 1155.84 -5.21779 -0.995996 0
M  V30 11714 C 1154.88 -6.11849 -0.175133 0
M  V30 11715 N 1154.02 -6.94151 -1.05348 0
M  V30 11716 H 1158.86 -2.86772 0.810312 0
M  V30 11717 H 1156.4 -1.41233 0.411301 0
M  V30 11718 H 1158.35 -3.91675 -1.4369 0
M  V30 11719 H 1156.98 -2.79065 -1.62243 0
M  V30 11720 H 1156.04 -3.75698 0.596221 0
M  V30 11721 H 1157.35 -4.95597 0.56435 0
M  V30 11722 H 1156.5 -5.84782 -1.61601 0
M  V30 11723 H 1155.24 -4.58363 -1.66597 0
M  V30 11724 H 1154.25 -5.4789 0.457916 0
M  V30 11725 H 1155.47 -6.77322 0.491133 0
M  V30 11726 H 1153.42 -6.33338 -1.70936 0
M  V30 11727 H 1153.33 -7.54518 -0.473065 0
M  V30 11728 H 1154.6 -7.61617 -1.66012 0
M  V30 11729 N 1158.83 -0.446794 -1.51134 0
M  V30 11730 C 1160.25 -0.0995905 -1.59289 0
M  V30 11731 C 1160.45 1.39191 -1.45699 0
M  V30 11732 O 1159.5 2.1628 -1.30303 0
M  V30 11733 C 1160.82 -0.628135 -2.94066 0
M  V30 11734 C 1162.36 -0.589409 -3.074 0
M  V30 11735 C 1162.84 -1.09509 -4.44715 0
M  V30 11736 N 1164.33 -1.05347 -4.51061 0
M  V30 11737 C 1165.06 -1.41551 -5.55654 0
M  V30 11738 N 1164.56 -1.85086 -6.67619 0
M  V30 11739 N 1166.35 -1.33307 -5.46064 0
M  V30 11740 H 1158.5 -1.41713 -1.58213 0
M  V30 11741 H 1160.77 -0.584555 -0.746324 0
M  V30 11742 H 1160.47 -1.67205 -3.09411 0
M  V30 11743 H 1160.35 -0.0582398 -3.77155 0
M  V30 11744 H 1162.73 0.445541 -2.91717 0
M  V30 11745 H 1162.82 -1.19582 -2.26128 0
M  V30 11746 H 1162.46 -2.12855 -4.61146 0
M  V30 11747 H 1162.39 -0.465122 -5.24542 0
M  V30 11748 H 1164.88 -0.733877 -3.70706 0
M  V30 11749 H 1165.19 -2.10923 -7.43459 0
M  V30 11750 H 1163.54 -1.8902 -6.68802 0
M  V30 11751 H 1166.73 -0.991547 -4.57478 0
M  V30 11752 H 1166.9 -1.6185 -6.27462 0
M  V30 11753 N 1160.31 1.56586 -0.178487 0
M  V30 11754 C 1161.27 2.17091 0.73512 0
M  V30 11755 C 1162.27 1.12088 1.15295 0
M  V30 11756 O 1163.46 1.37563 1.06874 0
M  V30 11757 C 1160.59 2.75957 2.00151 0
M  V30 11758 H 1161.79 2.99176 0.208272 0
M  V30 11759 H 1159.34 1.56138 0.0710967 0
M  V30 11760 H 1160.07 1.97626 2.57127 0
M  V30 11761 H 1159.86 3.52809 1.7108 0
M  V30 11762 H 1161.35 3.2247 2.65335 0
M  V30 11763 N 1161.79 -0.095206 1.57312 0
M  V30 11764 C 1163.01 -0.81614 1.90667 0
M  V30 11765 C 1163.44 -1.71494 0.772746 0
M  V30 11766 O 1162.79 -1.79192 -0.275682 0
M  V30 11767 C 1162.84 -1.60555 3.22885 0
M  V30 11768 O 1161.95 -2.71448 3.10467 0
M  V30 11769 H 1161.29 -0.224217 0.624998 0
M  V30 11770 H 1163.82 -0.070464 2.04479 0
M  V30 11771 H 1163.83 -1.98979 3.5619 0
M  V30 11772 H 1162.5 -0.945918 4.05 0
M  V30 11773 H 1161.08 -2.36053 2.88675 0
M  V30 11774 N 1163.26 -1.53291 -0.366026 0
M  V30 11775 C 1164.68 -1.61144 -0.942849 0
M  V30 11776 C 1165.03 -0.478571 -1.90274 0
M  V30 11777 O 1164.15 0.395069 -2.12763 0
M  V30 11778 C 1164.75 -2.92081 -1.71681 0
M  V30 11779 C 1163.31 -3.0227 -2.24298 0
M  V30 11780 C 1162.45 -2.56436 -1.05526 0
M  V30 11781 H 1165.4 -1.58038 -0.144835 0
M  V30 11782 H 1165.42 -2.79858 -2.57798 0
M  V30 11783 H 1164.94 -3.74513 -1.01793 0
M  V30 11784 H 1163.04 -2.24425 -2.97429 0
M  V30 11785 H 1163.15 -4.07341 -2.5221 0
M  V30 11786 H 1161.51 -2.11301 -1.42211 0
M  V30 11787 H 1162.3 -3.41285 -0.371376 0
M  V30 11788 N 1164.74 0.6258 -1.44643 0
M  V30 11789 C 1165.97 1.41726 -1.51422 0
M  V30 11790 C 1166.39 1.87565 -0.14181 0
M  V30 11791 O 1165.75 1.59059 0.870054 0
M  V30 11792 C 1165.8 2.61012 -2.48807 0
M  V30 11793 O 1164.9 3.61029 -1.99328 0
M  V30 11794 H 1164.24 0.423855 -0.511119 0
M  V30 11795 H 1166.77 0.763336 -1.89827 0
M  V30 11796 H 1166.78 3.08489 -2.67018 0
M  V30 11797 H 1165.46 2.26995 -3.48491 0
M  V30 11798 H 1164.04 3.20325 -1.90909 0
M  V30 11799 N 1166.22 1.31629 0.866686 0
M  V30 11800 C 1167.17 1.19556 1.97421 0
M  V30 11801 C 1168.14 0.0805578 1.65905 0
M  V30 11802 O 1169.32 0.253997 1.89102 0
M  V30 11803 C 1166.46 0.912234 3.32825 0
M  V30 11804 C 1165.58 2.11088 3.76916 0
M  V30 11805 C 1164.71 1.76406 5.01053 0
M  V30 11806 C 1163.75 2.9266 5.37602 0
M  V30 11807 N 1162.89 2.58152 6.52918 0
M  V30 11808 H 1167.73 2.14294 2.0708 0
M  V30 11809 H 1165.26 1.06595 1.0137 0
M  V30 11810 H 1167.22 0.72851 4.1079 0
M  V30 11811 H 1165.85 0.00167404 3.228 0
M  V30 11812 H 1164.9 2.40527 2.94705 0
M  V30 11813 H 1166.22 2.98089 3.99931 0
M  V30 11814 H 1165.37 1.54515 5.86694 0
M  V30 11815 H 1164.11 0.866018 4.79949 0
M  V30 11816 H 1163.11 3.15196 4.50479 0
M  V30 11817 H 1164.34 3.83179 5.6067 0
M  V30 11818 H 1162.28 1.70874 6.33355 0
M  V30 11819 H 1162.2 3.38682 6.75892 0
M  V30 11820 H 1163.47 2.39662 7.41743 0
M  V30 11821 N 1167.7 -1.08142 1.14644 0
M  V30 11822 C 1169.11 -1.62061 0.926986 0
M  V30 11823 C 1169.46 -1.88805 -0.533578 0
M  V30 11824 O 1168.59 -1.64753 -1.40305 0
M  V30 11825 C 1169.18 -2.94425 1.67629 0
M  V30 11826 C 1167.74 -3.45118 1.50235 0
M  V30 11827 C 1166.89 -2.19307 1.69705 0
M  V30 11828 H 1169.84 -0.913326 1.29785 0
M  V30 11829 H 1169.86 -3.62987 1.14107 0
M  V30 11830 H 1169.37 -2.74928 2.73927 0
M  V30 11831 H 1167.47 -3.69713 0.462967 0
M  V30 11832 H 1167.59 -4.2169 2.27408 0
M  V30 11833 H 1165.95 -2.28611 1.12291 0
M  V30 11834 H 1166.73 -2.02315 2.77351 0
M  V30 11835 N 1169.18 -0.941978 -1.26351 0
M  V30 11836 C 1170.14 -0.456768 -2.24602 0
M  V30 11837 C 1171.14 0.432574 -1.54872 0
M  V30 11838 O 1172.33 0.23164 -1.72653 0
M  V30 11839 C 1169.46 0.341583 -3.39184 0
M  V30 11840 H 1170.66 -1.32503 -2.69041 0
M  V30 11841 H 1168.21 -0.724021 -1.38519 0
M  V30 11842 H 1168.94 1.22806 -3.00149 0
M  V30 11843 H 1168.73 -0.296268 -3.90979 0
M  V30 11844 H 1170.22 0.670955 -4.12175 0
M  V30 11845 N 1170.66 1.40747 -0.709091 0
M  V30 11846 C 1171.88 2.05841 -0.253816 0
M  V30 11847 C 1172.31 1.53056 1.09341 0
M  V30 11848 O 1171.66 0.663181 1.68735 0
M  V30 11849 C 1171.71 3.59822 -0.236699 0
M  V30 11850 O 1170.82 4.04876 0.784168 0
M  V30 11851 H 1170.16 0.65295 -0.120631 0
M  V30 11852 H 1172.69 1.80266 -0.967749 0
M  V30 11853 H 1172.7 4.07936 -0.0721616 0
M  V30 11854 H 1171.37 3.97608 -1.21988 0
M  V30 11855 H 1169.95 3.68237 0.587884 0
M  V30 11856 N 1172.13 0.454803 1.50895 0
M  V30 11857 C 1173.1 -0.336293 2.26719 0
M  V30 11858 C 1174.1 -0.93464 1.30848 0
M  V30 11859 O 1175.29 -0.80636 1.54413 0
M  V30 11860 C 1172.42 -1.47744 3.07221 0
M  V30 11861 H 1173.61 0.328462 2.98096 0
M  V30 11862 H 1171.16 0.208419 1.54904 0
M  V30 11863 H 1171.9 -2.17773 2.40302 0
M  V30 11864 H 1171.68 -1.05438 3.77658 0
M  V30 11865 H 1173.17 -2.03592 3.6461 0
M  V30 11866 N 1173.61 -1.56489 0.186789 0
M  V30 11867 C 1175.02 -1.83809 -0.327265 0
M  V30 11868 C 1175.37 -1.10718 -1.61976 0
M  V30 11869 O 1174.5 -0.36525 -2.13295 0
M  V30 11870 C 1175.09 -3.33435 -0.600551 0
M  V30 11871 C 1173.65 -3.61195 -1.059 0
M  V30 11872 C 1172.8 -2.77108 -0.103131 0
M  V30 11873 H 1175.75 -1.53292 0.410747 0
M  V30 11874 H 1175.77 -3.51754 -1.45084 0
M  V30 11875 H 1175.28 -3.86605 0.340315 0
M  V30 11876 H 1173.38 -3.13451 -2.01443 0
M  V30 11877 H 1173.5 -4.69435 -0.957458 0
M  V30 11878 H 1171.86 -2.47448 -0.603449 0
M  V30 11879 H 1172.64 -3.33065 0.832031 0
M  V30 11880 N 1175.09 0.086862 -1.5736 0
M  V30 11881 C 1176.05 1.08906 -2.01673 0
M  V30 11882 C 1177.05 1.32473 -0.911463 0
M  V30 11883 O 1178.24 1.28447 -1.17673 0
M  V30 11884 C 1175.37 2.43629 -2.38449 0
M  V30 11885 H 1176.57 0.707461 -2.91436 0
M  V30 11886 H 1174.12 0.332154 -1.5273 0
M  V30 11887 H 1174.86 2.8665 -1.51665 0
M  V30 11888 H 1174.64 2.2787 -3.19089 0
M  V30 11889 H 1176.13 3.15695 -2.73361 0
M  V30 11890 N 1176.57 1.53483 0.357892 0
M  V30 11891 C 1177.79 1.74264 1.12458 0
M  V30 11892 C 1178.22 0.473944 1.82031 0
M  V30 11893 O 1177.58 -0.57253 1.72023 0
M  V30 11894 C 1177.62 2.91356 2.12471 0
M  V30 11895 O 1176.73 2.60502 3.19707 0
M  V30 11896 H 1176.07 0.578499 0.325937 0
M  V30 11897 H 1178.6 2.00395 0.412666 0
M  V30 11898 H 1178.61 3.1774 2.5594 0
M  V30 11899 H 1177.28 3.83378 1.61226 0
M  V30 11900 H 1175.86 2.44961 2.81156 0
M  V30 11901 N 1178.05 -0.61812 1.44973 0
M  V30 11902 C 1179.46 -0.937734 1.29146 0
M  V30 11903 C 1179.66 -2.00104 0.236749 0
M  V30 11904 O 1178.72 -2.49731 -0.372923 0
M  V30 11905 C 1180.03 -1.38865 2.66715 0
M  V30 11906 C 1181.58 -1.50343 2.74529 0
M  V30 11907 C 1182.05 -1.98814 4.12598 0
M  V30 11908 N 1183.54 -2.06064 4.14839 0
M  V30 11909 C 1184.28 -2.44768 5.18533 0
M  V30 11910 N 1183.78 -2.82516 6.32579 0
M  V30 11911 N 1185.57 -2.45016 5.05889 0
M  V30 11912 H 1177.72 0.084872 2.1223 0
M  V30 11913 H 1179.98 -0.0246744 0.947679 0
M  V30 11914 H 1179.69 -0.681583 3.45032 0
M  V30 11915 H 1179.56 -2.3572 2.94475 0
M  V30 11916 H 1181.95 -2.20144 1.96522 0
M  V30 11917 H 1182.03 -0.518297 2.50494 0
M  V30 11918 H 1181.67 -1.29604 4.91086 0
M  V30 11919 H 1181.6 -2.98223 4.34017 0
M  V30 11920 H 1184.1 -1.79525 3.32535 0
M  V30 11921 H 1184.41 -3.109 7.07504 0
M  V30 11922 H 1182.75 -2.80237 6.35997 0
M  V30 11923 H 1185.94 -2.14925 4.15842 0
M  V30 11924 H 1186.12 -2.74854 5.86821 0
M  V30 11925 N 1179.52 -1.32087 -0.859693 0
M  V30 11926 C 1180.75 -1.25486 -1.6513 0
M  V30 11927 C 1181.17 0.175015 -1.87284 0
M  V30 11928 O 1180.53 1.12468 -1.42199 0
M  V30 11929 C 1180.58 -2.01469 -2.9907 0
M  V30 11930 O 1179.68 -1.35904 -3.89363 0
M  V30 11931 H 1179.02 -0.432728 -0.503629 0
M  V30 11932 H 1181.55 -1.74322 -1.07112 0
M  V30 11933 H 1181.56 -2.11452 -3.4893 0
M  V30 11934 H 1180.24 -3.05448 -2.82266 0
M  V30 11935 H 1178.82 -1.34437 -3.47823 0
M  V30 11936 N 1181 1.07532 -1.15215 0
M  V30 11937 C 1182.25 1.79737 -0.924062 0
M  V30 11938 C 1182.57 1.87072 0.550356 0
M  V30 11939 O 1181.84 1.37029 1.4 0
M  V30 11940 H 1180.42 0.665704 -0.338891 0
M  V30 11941 H 1183.08 1.29961 -1.45245 0
M  V30 11942 H 1182.18 2.82256 -1.33184 0
M  V30 11943 N 1182.48 0.948665 1.2585 0
M  V30 11944 C 1183.71 0.616741 1.98018 0
M  V30 11945 C 1184.13 -0.803005 1.70098 0
M  V30 11946 O 1183.49 -1.54208 0.953392 0
M  V30 11947 C 1183.54 0.874429 3.49837 0
M  V30 11948 O 1182.64 -0.0497568 4.1237 0
M  V30 11949 H 1181.98 0.235112 0.620982 0
M  V30 11950 H 1184.51 1.27364 1.60124 0
M  V30 11951 H 1184.52 0.798309 4.00114 0
M  V30 11952 H 1183.2 1.90922 3.69488 0
M  V30 11953 H 1181.77 0.0780591 3.72818 0
M  V30 11954 N 1183.96 -1.40369 0.716545 0
M  V30 11955 C 1184.91 -2.3071 0.0645944 0
M  V30 11956 C 1185.88 -1.48239 -0.749294 0
M  V30 11957 O 1187.06 -1.76975 -0.713045 0
M  V30 11958 C 1184.2 -3.34456 -0.850478 0
M  V30 11959 C 1183.31 -4.31992 -0.0259594 0
M  V30 11960 C 1182.45 -5.22806 -0.940599 0
M  V30 11961 C 1181.49 -6.12001 -0.110228 0
M  V30 11962 N 1180.62 -6.9523 -0.979796 0
M  V30 11963 H 1185.46 -2.85896 0.840682 0
M  V30 11964 H 1183 -1.40789 0.426258 0
M  V30 11965 H 1184.96 -3.93177 -1.39528 0
M  V30 11966 H 1183.59 -2.8077 -1.59274 0
M  V30 11967 H 1182.64 -3.75045 0.636036 0
M  V30 11968 H 1183.95 -4.94971 0.616883 0
M  V30 11969 H 1183.11 -5.86463 -1.5539 0
M  V30 11970 H 1181.85 -4.60104 -1.61726 0
M  V30 11971 H 1180.85 -5.47373 0.516001 0
M  V30 11972 H 1182.08 -6.76763 0.562944 0
M  V30 11973 H 1180.02 -6.35115 -1.64209 0
M  V30 11974 H 1179.94 -7.54978 -0.393012 0
M  V30 11975 H 1181.21 -7.63335 -1.57924 0
M  V30 11976 N 1185.44 -0.462799 -1.50652 0
M  V30 11977 C 1186.66 0.0952726 -2.07181 0
M  V30 11978 C 1187.09 1.33479 -1.32533 0
M  V30 11979 O 1186.44 1.77473 -0.370564 0
M  V30 11980 C 1186.49 0.370592 -3.58691 0
M  V30 11981 O 1185.6 1.4526 -3.85971 0
M  V30 11982 H 1184.94 -0.00932702 -0.663934 0
M  V30 11983 H 1187.47 -0.651458 -1.93951 0
M  V30 11984 H 1187.48 0.613551 -4.0336 0
M  V30 11985 H 1186.15 -0.535219 -4.12442 0
M  V30 11986 H 1184.73 1.1976 -3.53146 0
M  V30 11987 N 1186.91 1.56388 -0.195085 0
M  V30 11988 C 1188.14 2.01963 0.449289 0
M  V30 11989 C 1188.56 1.07522 1.55192 0
M  V30 11990 O 1187.91 0.0800915 1.82324 0
M  V30 11991 C 1187.97 3.47231 1.00561 0
M  V30 11992 O 1187.69 4.38068 -0.0530241 0
M  V30 11993 C 1189.19 4.08324 1.72587 0
M  V30 11994 H 1186.41 0.661452 0.112792 0
M  V30 11995 H 1188.95 2.02231 -0.303788 0
M  V30 11996 H 1187.11 3.47663 1.70907 0
M  V30 11997 H 1187.52 5.23256 0.361076 0
M  V30 11998 H 1188.99 5.11821 2.06744 0
M  V30 11999 H 1189.47 3.51782 2.62956 0
M  V30 12000 H 1190.08 4.11665 1.06826 0
M  V30 12001 N 1188.39 -0.0785156 1.57404 0
M  V30 12002 C 1189.32 -1.12058 1.99939 0
M  V30 12003 C 1190.34 -1.35372 0.904343 0
M  V30 12004 O 1191.53 -1.33731 1.1823 0
M  V30 12005 C 1188.63 -2.47285 2.31739 0
M  V30 12006 C 1187.8 -2.44021 3.63005 0
M  V30 12007 C 1186.86 -3.61303 3.82552 0
M  V30 12008 O 1185.88 -3.43039 4.54217 0
M  V30 12009 N 1187.09 -4.81404 3.24392 0
M  V30 12010 H 1189.85 -0.758416 2.89945 0
M  V30 12011 H 1187.41 -0.267266 1.59679 0
M  V30 12012 H 1189.4 -3.24377 2.41995 0
M  V30 12013 H 1187.97 -2.75529 1.47657 0
M  V30 12014 H 1187.19 -1.52361 3.63565 0
M  V30 12015 H 1188.48 -2.38934 4.49208 0
M  V30 12016 H 1187.88 -4.99147 2.66211 0
M  V30 12017 H 1186.44 -5.56031 3.40107 0
M  V30 12018 N 1189.87 -1.5367 -0.349747 0
M  V30 12019 C 1191.1 -1.74547 -1.11089 0
M  V30 12020 C 1191.51 -0.481741 -1.82551 0
M  V30 12021 O 1190.87 0.546272 -1.74132 0
M  V30 12022 C 1190.92 -2.92148 -2.12913 0
M  V30 12023 O 1190.64 -4.13633 -1.44358 0
M  V30 12024 C 1192.14 -3.25027 -3.01451 0
M  V30 12025 H 1189.36 -0.583376 -0.331532 0
M  V30 12026 H 1191.91 -2.00473 -0.403841 0
M  V30 12027 H 1190.06 -2.68572 -2.79192 0
M  V30 12028 H 1190.48 -4.79601 -2.12329 0
M  V30 12029 H 1191.95 -4.10679 -3.68845 0
M  V30 12030 H 1192.43 -2.41064 -3.67131 0
M  V30 12031 H 1193.03 -3.50586 -2.40768 0
M  V30 12032 N 1191.35 0.610423 -1.45298 0
M  V30 12033 C 1192.59 1.37154 -1.49388 0
M  V30 12034 C 1192.93 1.93737 -0.134025 0
M  V30 12035 O 1192.2 1.74888 0.851138 0
M  V30 12036 C 1192.49 2.52155 -2.5708 0
M  V30 12037 C 1192.34 2.00786 -4.02498 0
M  V30 12038 C 1193.66 3.54294 -2.61082 0
M  V30 12039 H 1190.78 0.497346 -0.54389 0
M  V30 12040 H 1193.42 0.688358 -1.77092 0
M  V30 12041 H 1191.57 3.10434 -2.33587 0
M  V30 12042 H 1193.24 1.47178 -4.37191 0
M  V30 12043 H 1191.48 1.31809 -4.1329 0
M  V30 12044 H 1192.15 2.83674 -4.73533 0
M  V30 12045 H 1194.63 3.05851 -2.82125 0
M  V30 12046 H 1193.51 4.32254 -3.38301 0
M  V30 12047 H 1193.77 4.09726 -1.66063 0
M  V30 12048 N 1192.83 1.32541 0.852676 0
M  V30 12049 C 1193.79 1.21578 1.94297 0
M  V30 12050 C 1194.79 0.138318 1.60204 0
M  V30 12051 O 1195.98 0.388864 1.69804 0
M  V30 12052 C 1193.11 0.870209 3.29606 0
M  V30 12053 H 1194.3 2.18476 2.05446 0
M  V30 12054 H 1191.86 1.16401 1.0431 0
M  V30 12055 H 1192.59 -0.0968698 3.24155 0
M  V30 12056 H 1192.38 1.64924 3.55728 0
M  V30 12057 H 1193.87 0.817874 4.09513 0
M  V30 12058 N 1194.3 -1.0692 1.15784 0
M  V30 12059 C 1195.25 -2.14235 0.858616 0
M  V30 12060 C 1196.22 -1.65006 -0.190295 0
M  V30 12061 O 1197.41 -1.90715 -0.0568853 0
M  V30 12062 C 1194.55 -3.43229 0.35888 0
M  V30 12063 C 1193.66 -4.06225 1.46987 0
M  V30 12064 C 1192.79 -5.2307 0.925812 0
M  V30 12065 C 1191.83 -5.78037 2.01345 0
M  V30 12066 N 1190.97 -6.86206 1.48544 0
M  V30 12067 H 1195.81 -2.3917 1.77769 0
M  V30 12068 H 1193.35 -1.17354 0.886925 0
M  V30 12069 H 1195.31 -4.17169 0.0508198 0
M  V30 12070 H 1193.94 -3.18531 -0.523259 0
M  V30 12071 H 1192.99 -3.29895 1.89403 0
M  V30 12072 H 1194.3 -4.43081 2.29088 0
M  V30 12073 H 1193.45 -6.04011 0.570555 0
M  V30 12074 H 1192.19 -4.87644 0.0740371 0
M  V30 12075 H 1191.2 -4.95738 2.37748 0
M  V30 12076 H 1192.42 -6.15517 2.86907 0
M  V30 12077 H 1190.37 -6.52711 0.656092 0
M  V30 12078 H 1190.29 -7.2197 2.24266 0
M  V30 12079 H 1191.55 -7.70842 1.15856 0
M  V30 12080 N 1195.78 -0.955326 -1.25345 0
M  V30 12081 C 1197.01 -0.627693 -1.97149 0
M  V30 12082 C 1197.43 0.800349 -1.70997 0
M  V30 12083 O 1196.78 1.53545 -0.986417 0
M  V30 12084 C 1196.83 -0.877675 -3.50684 0
M  V30 12085 O 1196.55 -2.24957 -3.75934 0
M  V30 12086 C 1198.06 -0.562524 -4.39716 0
M  V30 12087 H 1195.28 -0.235269 -0.628402 0
M  V30 12088 H 1197.82 -1.27989 -1.59496 0
M  V30 12089 H 1195.97 -0.271878 -3.86445 0
M  V30 12090 H 1196.39 -2.32022 -4.70389 0
M  V30 12091 H 1197.86 -0.787972 -5.46347 0
M  V30 12092 H 1198.34 0.50293 -4.36311 0
M  V30 12093 H 1198.95 -1.14767 -4.09522 0
M  V30 12094 N 1197.26 1.39987 -0.723979 0
M  V30 12095 C 1198.49 2.05037 -0.27702 0
M  V30 12096 C 1198.9 1.54565 1.08421 0
M  V30 12097 O 1198.26 0.705795 1.683 0
M  V30 12098 C 1198.31 3.60582 -0.25751 0
M  V30 12099 O 1198.03 4.09194 -1.565 0
M  V30 12100 C 1199.53 4.42817 0.206972 0
M  V30 12101 H 1196.75 0.659637 -0.122963 0
M  V30 12102 H 1199.3 1.7924 -0.98454 0
M  V30 12103 H 1197.45 3.85319 0.401037 0
M  V30 12104 H 1197.87 5.03447 -1.47112 0
M  V30 12105 H 1199.34 5.5174 0.16947 0
M  V30 12106 H 1199.82 4.21023 1.25045 0
M  V30 12107 H 1200.42 4.23205 -0.421604 0
M  V30 12108 N 1198.74 0.470782 1.50404 0
M  V30 12109 C 1199.97 -0.0820134 2.06737 0
M  V30 12110 C 1200.38 -1.33535 1.33468 0
M  V30 12111 O 1199.74 -1.77975 0.403872 0
M  V30 12112 C 1199.79 -0.370427 3.59597 0
M  V30 12113 O 1199.51 0.8332 4.30104 0
M  V30 12114 C 1201.01 -0.970222 4.32552 0
M  V30 12115 H 1198.23 0.00694502 0.670964 0
M  V30 12116 H 1200.78 0.659476 1.93575 0
M  V30 12117 H 1198.93 -1.06185 3.72563 0
M  V30 12118 H 1199.35 0.577614 5.2131 0
M  V30 12119 H 1200.82 -1.1218 5.40481 0
M  V30 12120 H 1201.3 -1.96024 3.93028 0
M  V30 12121 H 1201.9 -0.31719 4.24116 0
M  V30 12122 N 1200.22 -1.56282 0.203376 0
M  V30 12123 C 1201.18 -2.18233 -0.700489 0
M  V30 12124 C 1202.18 -1.13908 -1.13497 0
M  V30 12125 O 1203.37 -1.39246 -1.04672 0
M  V30 12126 C 1200.5 -2.79107 -1.95735 0
M  V30 12127 H 1201.7 -2.99469 -0.160649 0
M  V30 12128 H 1199.25 -1.56232 -0.0462475 0
M  V30 12129 H 1199.98 -2.01691 -2.53951 0
M  V30 12130 H 1199.77 -3.55486 -1.65446 0
M  V30 12131 H 1201.26 -3.2665 -2.60172 0
M  V30 12132 N 1201.7 0.070167 -1.57444 0
M  V30 12133 C 1202.66 1.06761 -2.02817 0
M  V30 12134 C 1203.66 1.31498 -0.925462 0
M  V30 12135 O 1204.85 1.27192 -1.19029 0
M  V30 12136 C 1201.98 2.41086 -2.41019 0
M  V30 12137 H 1203.17 0.67651 -2.9217 0
M  V30 12138 H 1200.73 0.315936 -1.53074 0
M  V30 12139 H 1201.46 2.85025 -1.54697 0
M  V30 12140 H 1201.25 2.24472 -3.21488 0
M  V30 12141 H 1202.74 3.12778 -2.76694 0
M  V30 12142 N 1203.17 1.53854 0.341593 0
M  V30 12143 C 1204.14 1.8128 1.40251 0
M  V30 12144 C 1205.14 0.683915 1.45531 0
M  V30 12145 O 1206.33 0.952202 1.45872 0
M  V30 12146 C 1203.46 1.95658 2.79161 0
M  V30 12147 H 1204.65 2.76053 1.17195 0
M  V30 12148 H 1202.2 1.45296 0.57609 0
M  V30 12149 H 1202.94 1.03034 3.07497 0
M  V30 12150 H 1202.72 2.77788 2.76724 0
M  V30 12151 H 1204.21 2.18387 3.55945 0
M  V30 12152 N 1204.65 -0.602709 1.4562 0
M  V30 12153 C 1205.9 -1.36359 1.50113 0
M  V30 12154 C 1206.23 -1.93663 0.144297 0
M  V30 12155 O 1205.51 -1.75337 -0.841851 0
M  V30 12156 C 1205.79 -2.50788 2.58413 0
M  V30 12157 C 1205.64 -1.98649 4.03557 0
M  V30 12158 C 1206.96 -3.52905 2.62957 0
M  V30 12159 H 1204.08 -0.494455 0.54652 0
M  V30 12160 H 1206.72 -0.678957 1.77455 0
M  V30 12161 H 1204.87 -3.09191 2.3523 0
M  V30 12162 H 1206.54 -1.44857 4.37966 0
M  V30 12163 H 1204.79 -1.29615 4.13984 0
M  V30 12164 H 1205.46 -2.81159 4.7503 0
M  V30 12165 H 1207.93 -3.0435 2.83743 0
M  V30 12166 H 1206.81 -4.30454 3.40589 0
M  V30 12167 H 1207.07 -4.0884 1.68233 0
M  V30 12168 N 1206.13 -1.32992 -0.845635 0
M  V30 12169 C 1207.09 -1.22607 -1.9365 0
M  V30 12170 C 1208.09 -0.146812 -1.60128 0
M  V30 12171 O 1209.28 -0.397863 -1.69596 0
M  V30 12172 C 1206.41 -0.887677 -3.2914 0
M  V30 12173 H 1207.61 -2.19563 -2.04285 0
M  V30 12174 H 1205.16 -1.16952 -1.03691 0
M  V30 12175 H 1205.9 0.0796777 -3.24202 0
M  V30 12176 H 1205.68 -1.66808 -3.54849 0
M  V30 12177 H 1207.17 -0.83958 -4.09073 0
M  V30 12178 N 1207.61 1.06304 -1.1635 0
M  V30 12179 C 1208.83 1.83338 -0.969639 0
M  V30 12180 C 1209.26 1.81945 0.477231 0
M  V30 12181 O 1208.62 1.22018 1.34094 0
M  V30 12182 C 1208.66 3.2785 -1.50155 0
M  V30 12183 O 1207.77 4.06281 -0.707805 0
M  V30 12184 H 1207.11 0.567293 -0.345072 0
M  V30 12185 H 1209.64 1.34033 -1.54584 0
M  V30 12186 H 1209.65 3.7867 -1.51898 0
M  V30 12187 H 1208.32 3.28179 -2.55483 0
M  V30 12188 H 1206.9 3.65055 -0.760872 0
M  V30 12189 N 1209.09 0.96196 1.24836 0
M  V30 12190 C 1210.31 0.63814 1.96813 0
M  V30 12191 C 1210.73 -0.79127 1.71419 0
M  V30 12192 O 1210.09 -1.5302 0.994546 0
M  V30 12193 C 1210.14 0.89626 3.50213 0
M  V30 12194 O 1209.86 2.26947 3.74735 0
M  V30 12195 C 1211.36 0.585836 4.39412 0
M  V30 12196 H 1208.58 0.238598 0.627146 0
M  V30 12197 H 1211.12 1.28833 1.58815 0
M  V30 12198 H 1209.28 0.292368 3.86295 0
M  V30 12199 H 1209.69 2.34514 4.69152 0
M  V30 12200 H 1211.17 0.816935 5.45921 0
M  V30 12201 H 1211.64 -0.479784 4.36572 0
M  V30 12202 H 1212.25 1.16938 4.08908 0
M  V30 12203 N 1210.56 -1.39601 0.731392 0
M  V30 12204 C 1211.81 -2.0019 0.277208 0
M  V30 12205 C 1212.13 -1.5832 -1.13841 0
M  V30 12206 O 1211.4 -0.829793 -1.77458 0
M  V30 12207 H 1209.98 -0.740344 0.0995006 0
M  V30 12208 H 1212.64 -1.70704 0.940547 0
M  V30 12209 H 1211.74 -3.10427 0.322749 0
M  V30 12210 N 1212.04 -0.478751 -1.50152 0
M  V30 12211 C 1213.45 -0.0254907 -1.86683 0
M  V30 12212 C 1213.8 1.38171 -1.39295 0
M  V30 12213 O 1212.93 2.0257 -0.761207 0
M  V30 12214 C 1213.52 -0.0394819 -3.38777 0
M  V30 12215 C 1212.08 0.35834 -3.7469 0
M  V30 12216 C 1211.23 -0.421667 -2.74075 0
M  V30 12217 H 1214.18 -0.692653 -1.42787 0
M  V30 12218 H 1214.2 0.760957 -3.72813 0
M  V30 12219 H 1213.71 -1.06378 -3.73236 0
M  V30 12220 H 1211.82 1.38671 -3.45834 0
M  V30 12221 H 1211.93 0.0543589 -4.79069 0
M  V30 12222 H 1210.29 0.125634 -2.5439 0
M  V30 12223 H 1211.08 -1.44562 -3.11379 0
M  V30 12224 N 1213.52 1.56172 -0.211661 0
M  V30 12225 C 1214.75 2.02874 0.430905 0
M  V30 12226 C 1215.17 1.09064 1.53254 0
M  V30 12227 O 1214.53 0.0770408 1.81136 0
M  V30 12228 C 1214.58 3.4789 0.948933 0
M  V30 12229 O 1213.68 3.57213 2.0609 0
M  V30 12230 H 1213.02 0.656614 0.0987607 0
M  V30 12231 H 1215.55 2.01964 -0.327399 0
M  V30 12232 H 1215.56 3.88015 1.2613 0
M  V30 12233 H 1214.24 4.15656 0.142584 0
M  V30 12234 H 1212.81 3.28971 1.75592 0
M  V30 12235 N 1215 -0.0618163 1.57479 0
M  V30 12236 C 1216.22 -0.775513 1.92355 0
M  V30 12237 C 1216.65 -1.69816 0.808949 0
M  V30 12238 O 1216.01 -1.79736 -0.23761 0
M  V30 12239 C 1216.05 -1.5367 3.26218 0
M  V30 12240 O 1215.16 -2.64802 3.16155 0
M  V30 12241 H 1214.5 -0.210909 0.629614 0
M  V30 12242 H 1217.03 -0.0270752 2.04582 0
M  V30 12243 H 1217.04 -1.91379 3.6033 0
M  V30 12244 H 1215.71 -0.859798 4.06916 0
M  V30 12245 H 1214.29 -2.29876 2.93618 0
M  V30 12246 N 1216.48 -1.54033 -0.333429 0
M  V30 12247 C 1217.89 -1.44522 -0.677166 0
M  V30 12248 C 1218.09 -0.610122 -1.92041 0
M  V30 12249 O 1217.15 -0.105058 -2.52281 0
M  V30 12250 C 1218.46 -2.88129 -0.860369 0
M  V30 12251 C 1220.01 -2.97968 -0.958342 0
M  V30 12252 C 1220.48 -4.42703 -1.17379 0
M  V30 12253 N 1221.98 -4.46273 -1.24075 0
M  V30 12254 C 1222.71 -5.55407 -1.42515 0
M  V30 12255 N 1222.21 -6.74528 -1.58062 0
M  V30 12256 N 1224 -5.43037 -1.45144 0
M  V30 12257 H 1216.15 -2.06815 0.483858 0
M  V30 12258 H 1218.41 -0.935307 0.15461 0
M  V30 12259 H 1218.12 -3.51695 -0.0182085 0
M  V30 12260 H 1217.99 -3.33668 -1.75913 0
M  V30 12261 H 1220.38 -2.34535 -1.79102 0
M  V30 12262 H 1220.46 -2.55774 -0.0362643 0
M  V30 12263 H 1220.11 -5.0672 -0.346004 0
M  V30 12264 H 1220.04 -4.82498 -2.10959 0
M  V30 12265 H 1222.53 -3.60439 -1.13545 0
M  V30 12266 H 1222.84 -7.53462 -1.71797 0
M  V30 12267 H 1221.18 -6.77454 -1.55179 0
M  V30 12268 H 1224.38 -4.4893 -1.32588 0
M  V30 12269 H 1224.55 -6.28146 -1.59173 0
M  V30 12270 N 1217.95 0.594978 -1.45938 0
M  V30 12271 C 1219.18 1.38482 -1.54394 0
M  V30 12272 C 1219.6 1.87222 -0.181563 0
M  V30 12273 O 1218.96 1.60869 0.836119 0
M  V30 12274 C 1219.01 2.55676 -2.54287 0
M  V30 12275 O 1218.11 3.5672 -2.06941 0
M  V30 12276 H 1217.46 0.412918 -0.519995 0
M  V30 12277 H 1219.99 0.722899 -1.91404 0
M  V30 12278 H 1220 3.02756 -2.73501 0
M  V30 12279 H 1218.67 2.19552 -3.53228 0
M  V30 12280 H 1217.25 3.16204 -1.97661 0
M  V30 12281 N 1219.43 1.33438 0.838571 0
M  V30 12282 C 1220.84 1.22366 1.41009 0
M  V30 12283 C 1221.19 -0.157317 1.95568 0
M  V30 12284 O 1220.32 -1.05692 1.88834 0
M  V30 12285 C 1220.91 2.21542 2.56329 0
M  V30 12286 C 1219.47 2.14309 3.09433 0
M  V30 12287 C 1218.62 2.09012 1.82235 0
M  V30 12288 H 1221.57 1.45032 0.64431 0
M  V30 12289 H 1221.59 1.82332 3.33969 0
M  V30 12290 H 1221.1 3.22042 2.16589 0
M  V30 12291 H 1219.21 1.17113 3.53717 0
M  V30 12292 H 1219.32 3.04866 3.69586 0
M  V30 12293 H 1217.68 1.54492 2.02495 0
M  V30 12294 H 1218.47 3.11319 1.4469 0
M  V30 12295 N 1220.91 -1.05686 1.16912 0
M  V30 12296 C 1222.14 -1.82821 0.979348 0
M  V30 12297 C 1222.56 -1.82196 -0.467575 0
M  V30 12298 O 1221.92 -1.22727 -1.33445 0
M  V30 12299 C 1221.97 -3.2705 1.51891 0
M  V30 12300 O 1221.07 -4.05899 0.729341 0
M  V30 12301 H 1220.41 -0.565455 0.348076 0
M  V30 12302 H 1222.94 -1.33211 1.55293 0
M  V30 12303 H 1222.95 -3.77859 1.53904 0
M  V30 12304 H 1221.63 -3.26819 2.5722 0
M  V30 12305 H 1220.2 -3.64646 0.780221 0
M  V30 12306 N 1222.39 -0.968567 -1.24324 0
M  V30 12307 C 1223.62 -0.648568 -1.96472 0
M  V30 12308 C 1224.03 0.782168 -1.71836 0
M  V30 12309 O 1223.39 1.5249 -1.00265 0
M  V30 12310 C 1223.44 -0.91482 -3.49733 0
M  V30 12311 O 1223.16 -2.28931 -3.73527 0
M  V30 12312 C 1224.66 -0.609131 -4.39095 0
M  V30 12313 H 1221.88 -0.241921 -0.625872 0
M  V30 12314 H 1224.43 -1.29673 -1.5813 0
M  V30 12315 H 1222.58 -0.31285 -3.86135 0
M  V30 12316 H 1222.99 -2.36998 -4.67902 0
M  V30 12317 H 1224.47 -0.845875 -5.4548 0
M  V30 12318 H 1224.95 0.456625 -4.3682 0
M  V30 12319 H 1225.55 -1.19105 -4.08282 0
M  V30 12320 N 1223.87 1.39211 -0.738786 0
M  V30 12321 C 1224.8 2.33209 -0.11647 0
M  V30 12322 C 1225.78 1.54108 0.720056 0
M  V30 12323 O 1226.96 1.82486 0.664264 0
M  V30 12324 C 1224.09 3.38226 0.78872 0
M  V30 12325 C 1223.05 4.27963 0.0560636 0
M  V30 12326 C 1222.37 5.2371 1.07852 0
M  V30 12327 C 1223.67 5.10508 -1.1036 0
M  V30 12328 H 1225.37 2.85501 -0.901649 0
M  V30 12329 H 1222.91 1.37272 -0.435032 0
M  V30 12330 H 1224.87 4.02938 1.23364 0
M  V30 12331 H 1223.59 2.84382 1.60606 0
M  V30 12332 H 1222.25 3.64735 -0.369274 0
M  V30 12333 H 1221.9 4.66161 1.88953 0
M  V30 12334 H 1221.6 5.846 0.593048 0
M  V30 12335 H 1223.12 5.91299 1.52307 0
M  V30 12336 H 1224.53 5.68544 -0.736943 0
M  V30 12337 H 1222.93 5.80558 -1.51895 0
M  V30 12338 H 1224 4.45117 -1.92352 0
M  V30 12339 N 1225.34 0.486708 1.49896 0
M  V30 12340 C 1226.27 -0.288898 2.31706 0
M  V30 12341 C 1227.26 -0.975901 1.3932 0
M  V30 12342 O 1228.44 -0.970065 1.68236 0
M  V30 12343 C 1225.57 -1.36218 3.19471 0
M  V30 12344 C 1224.52 -0.795884 4.20535 0
M  V30 12345 C 1223.85 -1.96862 4.97141 0
M  V30 12346 C 1225.15 0.203421 5.21904 0
M  V30 12347 H 1226.84 0.393934 2.96797 0
M  V30 12348 H 1224.39 0.190894 1.42729 0
M  V30 12349 H 1226.34 -1.91238 3.75508 0
M  V30 12350 H 1225.07 -2.074 2.52295 0
M  V30 12351 H 1223.73 -0.267538 3.65622 0
M  V30 12352 H 1223.37 -2.66779 4.26425 0
M  V30 12353 H 1223.07 -1.59585 5.65514 0
M  V30 12354 H 1224.6 -2.52343 5.56017 0
M  V30 12355 H 1226.01 -0.258144 5.72719 0
M  V30 12356 H 1224.41 0.491273 5.98086 0
M  V30 12357 H 1225.48 1.12414 4.7169 0
M  V30 12358 N 1226.82 -1.56058 0.219941 0
M  V30 12359 C 1228.23 -1.84462 -0.288203 0
M  V30 12360 C 1228.59 -1.14128 -1.59591 0
M  V30 12361 O 1227.71 -0.410411 -2.12473 0
M  V30 12362 C 1228.31 -3.34634 -0.529689 0
M  V30 12363 C 1226.86 -3.63361 -0.982145 0
M  V30 12364 C 1226.01 -2.77265 -0.0443292 0
M  V30 12365 H 1228.96 -1.52387 0.44317 0
M  V30 12366 H 1228.98 -3.54752 -1.3759 0
M  V30 12367 H 1228.5 -3.85796 0.422243 0
M  V30 12368 H 1226.6 -3.17653 -1.94749 0
M  V30 12369 H 1226.71 -4.71361 -0.857668 0
M  V30 12370 H 1225.07 -2.48672 -0.550825 0
M  V30 12371 H 1225.86 -3.31225 0.902491 0
M  V30 12372 N 1228.3 0.053464 -1.57509 0
M  V30 12373 C 1229.25 1.06155 -2.04939 0
M  V30 12374 C 1230.22 1.37382 -0.93357 0
M  V30 12375 O 1231.4 1.48137 -1.2025 0
M  V30 12376 C 1228.54 2.36476 -2.51343 0
M  V30 12377 C 1227.66 2.1162 -3.76618 0
M  V30 12378 C 1226.79 3.35636 -4.11731 0
M  V30 12379 C 1225.83 3.06226 -5.29993 0
M  V30 12380 N 1224.97 4.22623 -5.60655 0
M  V30 12381 H 1229.81 0.650122 -2.90822 0
M  V30 12382 H 1227.34 0.309421 -1.43809 0
M  V30 12383 H 1229.3 3.12588 -2.76306 0
M  V30 12384 H 1227.93 2.75386 -1.68411 0
M  V30 12385 H 1226.98 1.26116 -3.58886 0
M  V30 12386 H 1228.3 1.85909 -4.6286 0
M  V30 12387 H 1227.45 4.20132 -4.37692 0
M  V30 12388 H 1226.19 3.64439 -3.24092 0
M  V30 12389 H 1225.19 2.20128 -5.03809 0
M  V30 12390 H 1226.42 2.78726 -6.19265 0
M  V30 12391 H 1224.37 4.51424 -4.75976 0
M  V30 12392 H 1224.28 4.0025 -6.41355 0
M  V30 12393 H 1225.55 5.08063 -5.91178 0
M  V30 12394 N 1229.78 1.54207 0.325255 0
M  V30 12395 C 1230.73 1.83474 1.40021 0
M  V30 12396 C 1231.7 0.681719 1.51466 0
M  V30 12397 O 1232.88 0.92798 1.66713 0
M  V30 12398 C 1230.02 2.06624 2.76407 0
M  V30 12399 C 1229.13 3.3431 2.73607 0
M  V30 12400 C 1228.27 3.4743 4.01828 0
M  V30 12401 C 1227.31 4.68997 3.93329 0
M  V30 12402 N 1226.45 4.79052 5.13277 0
M  V30 12403 H 1231.29 2.75182 1.14363 0
M  V30 12404 H 1228.82 1.36284 0.553639 0
M  V30 12405 H 1230.78 2.18037 3.5569 0
M  V30 12406 H 1229.41 1.18209 3.00377 0
M  V30 12407 H 1228.46 3.31643 1.86324 0
M  V30 12408 H 1229.77 4.237 2.6321 0
M  V30 12409 H 1228.93 3.58376 4.89542 0
M  V30 12410 H 1227.67 2.56128 4.1503 0
M  V30 12411 H 1226.67 4.58109 3.04 0
M  V30 12412 H 1227.9 5.61681 3.81695 0
M  V30 12413 H 1225.84 3.90666 5.26988 0
M  V30 12414 H 1225.76 5.62406 5.05208 0
M  V30 12415 H 1227.03 4.94328 6.02711 0
M  V30 12416 N 1231.26 -0.58723 1.46251 0
M  V30 12417 C 1232.67 -1.16933 1.45546 0
M  V30 12418 C 1233.02 -1.9524 0.193879 0
M  V30 12419 O 1232.14 -2.04652 -0.70332 0
M  V30 12420 C 1232.74 -2.12723 2.63693 0
M  V30 12421 C 1231.3 -2.66267 2.66043 0
M  V30 12422 C 1230.45 -1.42051 2.38153 0
M  V30 12423 H 1233.4 -0.375411 1.54196 0
M  V30 12424 H 1233.42 -2.96111 2.38953 0
M  V30 12425 H 1232.93 -1.55703 3.55497 0
M  V30 12426 H 1231.03 -3.2717 1.783 0
M  V30 12427 H 1231.14 -3.0931 3.65874 0
M  V30 12428 H 1229.51 -1.71707 1.88119 0
M  V30 12429 H 1230.29 -0.868675 3.32128 0
M  V30 12430 N 1232.74 -1.33881 -0.831482 0
M  V30 12431 C 1233.96 -1.28812 -1.61911 0
M  V30 12432 C 1234.38 0.139519 -1.88284 0
M  V30 12433 O 1233.74 1.08397 -1.46821 0
M  V30 12434 C 1233.79 -2.06806 -2.96502 0
M  V30 12435 O 1233.51 -3.44 -2.71285 0
M  V30 12436 C 1235.01 -2.09033 -3.90922 0
M  V30 12437 H 1232.23 -0.443473 -0.50356 0
M  V30 12438 H 1234.77 -1.76365 -1.03516 0
M  V30 12439 H 1232.93 -1.62915 -3.51479 0
M  V30 12440 H 1233.34 -3.84213 -3.57044 0
M  V30 12441 H 1234.82 -2.68044 -4.82552 0
M  V30 12442 H 1235.29 -1.08249 -4.25651 0
M  V30 12443 H 1235.9 -2.52975 -3.41883 0
M  V30 12444 N 1234.21 1.05064 -1.1747 0
M  V30 12445 C 1235.18 2.1101 -0.89485 0
M  V30 12446 C 1236.18 1.60384 0.11553 0
M  V30 12447 O 1237.37 1.73808 -0.116785 0
M  V30 12448 C 1234.5 3.39194 -0.340642 0
M  V30 12449 H 1235.69 2.37269 -1.83421 0
M  V30 12450 H 1233.24 1.21329 -0.985343 0
M  V30 12451 H 1233.98 3.18591 0.605808 0
M  V30 12452 H 1233.76 3.77251 -1.06885 0
M  V30 12453 H 1235.25 4.17281 -0.163204 0
M  V30 12454 N 1235.69 0.975146 1.23809 0
M  V30 12455 C 1236.94 0.636678 1.91388 0
M  V30 12456 C 1237.25 -0.832876 1.76982 0
M  V30 12457 O 1238.46 -1.28218 2.39316 0
M  V30 12458 C 1236.92 1.08813 3.43057 0
M  V30 12459 C 1236.52 2.58165 3.66135 0
M  V30 12460 C 1238.27 0.823154 4.16443 0
M  V30 12461 C 1236.17 2.97004 5.11412 0
M  V30 12462 H 1235.1 0.234424 0.716632 0
M  V30 12463 H 1237.76 1.18235 1.40331 0
M  V30 12464 H 1236.14 0.470709 3.93192 0
M  V30 12465 H 1237.31 3.25101 3.26567 0
M  V30 12466 H 1235.63 2.82353 3.06049 0
M  V30 12467 H 1238.22 1.08925 5.23488 0
M  V30 12468 H 1238.57 -0.240705 4.15604 0
M  V30 12469 H 1239.1 1.4019 3.72279 0
M  V30 12470 H 1235.84 4.02492 5.17378 0
M  V30 12471 H 1235.36 2.34759 5.51949 0
M  V30 12472 H 1237.04 2.8732 5.79704 0
M  V30 12473 N 1237.17 -1.38817 0.746158 0
M  V30 12474 C 1238.12 -2.30521 0.113517 0
M  V30 12475 C 1239.09 -1.49795 -0.717682 0
M  V30 12476 O 1240.27 -1.78448 -0.675345 0
M  V30 12477 C 1237.41 -3.36185 -0.779343 0
M  V30 12478 C 1236.52 -4.3195 0.0656784 0
M  V30 12479 C 1235.66 -5.24684 -0.829492 0
M  V30 12480 C 1234.7 -6.12097 0.0196112 0
M  V30 12481 N 1233.84 -6.97152 -0.832107 0
M  V30 12482 H 1238.68 -2.84048 0.901136 0
M  V30 12483 H 1236.21 -1.39853 0.456025 0
M  V30 12484 H 1238.17 -3.96048 -1.31156 0
M  V30 12485 H 1236.8 -2.84085 -1.53282 0
M  V30 12486 H 1235.85 -3.73611 0.715445 0
M  V30 12487 H 1237.16 -4.93551 0.721735 0
M  V30 12488 H 1236.32 -5.89627 -1.42915 0
M  V30 12489 H 1235.06 -4.63431 -1.5193 0
M  V30 12490 H 1234.06 -5.46156 0.631991 0
M  V30 12491 H 1235.29 -6.75416 0.706369 0
M  V30 12492 H 1233.23 -6.38456 -1.507 0
M  V30 12493 H 1233.15 -7.55642 -0.232782 0
M  V30 12494 H 1234.42 -7.66513 -1.41697 0
M  V30 12495 N 1238.65 -0.49465 -1.49636 0
M  V30 12496 C 1239.88 0.0491129 -2.06842 0
M  V30 12497 C 1240.29 1.31395 -1.35576 0
M  V30 12498 O 1239.65 1.7731 -0.432135 0
M  V30 12499 C 1239.7 0.313171 -3.60141 0
M  V30 12500 O 1239.42 -0.90152 -4.28724 0
M  V30 12501 C 1240.92 0.901284 -4.34041 0
M  V30 12502 H 1238.14 -0.0176186 -0.670769 0
M  V30 12503 H 1240.68 -0.690188 -1.92501 0
M  V30 12504 H 1238.84 1.00244 -3.74206 0
M  V30 12505 H 1239.25 -0.660477 -5.20325 0
M  V30 12506 H 1240.73 1.03567 -5.42197 0
M  V30 12507 H 1241.2 1.89746 -3.96097 0
M  V30 12508 H 1241.81 0.249677 -4.24566 0
M  V30 12509 N 1240.13 1.55939 -0.228214 0
M  V30 12510 C 1241.04 2.24213 0.690339 0
M  V30 12511 C 1242.05 1.25197 1.20838 0
M  V30 12512 O 1243.23 1.58026 1.24859 0
M  V30 12513 C 1240.29 2.91384 1.87873 0
M  V30 12514 C 1239.35 4.05761 1.40201 0
M  V30 12515 C 1238.59 4.6972 2.53376 0
M  V30 12516 O 1238.81 4.32687 3.71669 0
M  V30 12517 O 1237.74 5.58587 2.24198 0
M  V30 12518 H 1241.57 3.03383 0.138692 0
M  V30 12519 H 1239.15 1.494 0.00251504 0
M  V30 12520 H 1241.04 3.33758 2.57262 0
M  V30 12521 H 1239.71 2.15168 2.41835 0
M  V30 12522 H 1238.62 3.67943 0.675945 0
M  V30 12523 H 1239.95 4.83739 0.908691 0
M  V30 12524 N 1241.6 -0.0451101 1.57535 0
M  V30 12525 C 1242.85 -0.737654 1.88157 0
M  V30 12526 C 1243.17 -1.76743 0.823817 0
M  V30 12527 O 1242.44 -1.95366 -0.144503 0
M  V30 12528 H 1241.02 -0.275431 0.694368 0
M  V30 12529 H 1243.69 -0.0148651 1.94894 0
M  V30 12530 H 1242.78 -1.23726 2.86528 0
M  V30 12531 N 1243.08 -1.54377 -0.317073 0
M  V30 12532 C 1244.03 -1.84214 -1.39046 0
M  V30 12533 C 1245 -0.689742 -1.51102 0
M  V30 12534 O 1246.18 -0.936809 -1.66218 0
M  V30 12535 C 1243.32 -2.08087 -2.75307 0
M  V30 12536 C 1242.44 -3.35756 -2.7183 0
M  V30 12537 C 1241.57 -3.49556 -3.9998 0
M  V30 12538 C 1240.61 -4.71076 -3.90837 0
M  V30 12539 N 1239.75 -4.81767 -5.10729 0
M  V30 12540 H 1244.59 -2.75785 -1.12902 0
M  V30 12541 H 1242.13 -1.36575 -0.546404 0
M  V30 12542 H 1244.08 -2.19921 -3.54529 0
M  V30 12543 H 1242.71 -1.19801 -2.99746 0
M  V30 12544 H 1241.77 -3.32627 -1.84563 0
M  V30 12545 H 1243.08 -4.2509 -2.60959 0
M  V30 12546 H 1242.23 -3.60967 -4.87635 0
M  V30 12547 H 1240.97 -2.58326 -4.13665 0
M  V30 12548 H 1239.98 -4.59715 -3.01566 0
M  V30 12549 H 1241.2 -5.63698 -3.78711 0
M  V30 12550 H 1239.15 -3.93455 -5.24908 0
M  V30 12551 H 1239.06 -5.65077 -5.02219 0
M  V30 12552 H 1240.33 -4.97517 -6.00081 0
M  V30 12553 N 1244.56 0.579466 -1.4656 0
M  V30 12554 C 1245.97 1.1616 -1.46164 0
M  V30 12555 C 1246.32 1.95134 -0.20423 0
M  V30 12556 O 1245.45 2.05022 0.692457 0
M  V30 12557 C 1246.04 2.11322 -2.64818 0
M  V30 12558 C 1244.6 2.64852 -2.67452 0
M  V30 12559 C 1243.75 1.40786 -2.38903 0
M  V30 12560 H 1246.7 0.367229 -1.54393 0
M  V30 12561 H 1246.72 2.94839 -2.4052 0
M  V30 12562 H 1246.23 1.53815 -3.56318 0
M  V30 12563 H 1244.33 3.26219 -1.80032 0
M  V30 12564 H 1244.45 3.07366 -3.67509 0
M  V30 12565 H 1242.81 1.70707 -1.89027 0
M  V30 12566 H 1243.59 0.851049 -3.32584 0
M  V30 12567 N 1246.04 1.3432 0.824371 0
M  V30 12568 C 1247 1.25672 1.91675 0
M  V30 12569 C 1248 0.172269 1.59875 0
M  V30 12570 O 1249.19 0.424794 1.68941 0
M  V30 12571 C 1246.32 0.939928 3.27686 0
M  V30 12572 H 1247.52 2.22785 2.00766 0
M  V30 12573 H 1245.07 1.18587 1.01817 0
M  V30 12574 H 1245.8 -0.0280898 3.24288 0
M  V30 12575 H 1245.59 1.72432 3.5215 0
M  V30 12576 H 1247.08 0.904553 4.07686 0
M  V30 12577 N 1247.52 -1.0444 1.18026 0
M  V30 12578 C 1248.43 -2.15862 0.918747 0
M  V30 12579 C 1249.44 -1.73614 -0.115808 0
M  V30 12580 O 1250.62 -2.01294 0.0652312 0
M  V30 12581 C 1247.68 -3.43846 0.443922 0
M  V30 12582 C 1246.74 -4.00497 1.54599 0
M  V30 12583 C 1245.98 -5.22373 1.09372 0
M  V30 12584 O 1246.2 -5.70379 -0.049085 0
M  V30 12585 O 1245.13 -5.71459 1.88992 0
M  V30 12586 H 1248.96 -2.40776 1.85097 0
M  V30 12587 H 1246.55 -1.14326 0.961769 0
M  V30 12588 H 1248.43 -4.20985 0.187017 0
M  V30 12589 H 1247.1 -3.20414 -0.460051 0
M  V30 12590 H 1246.01 -3.24764 1.85686 0
M  V30 12591 H 1247.34 -4.28262 2.42595 0
M  V30 12592 N 1248.99 -0.981699 -1.2329 0
M  V30 12593 C 1250.24 -0.652266 -1.92024 0
M  V30 12594 C 1250.57 0.812297 -1.76396 0
M  V30 12595 O 1249.85 1.5861 -1.12575 0
M  V30 12596 C 1250.13 -1.04506 -3.44602 0
M  V30 12597 C 1249.98 -2.56735 -3.69333 0
M  V30 12598 C 1251.3 -0.589937 -4.36128 0
M  V30 12599 H 1248.42 -0.238437 -0.697364 0
M  V30 12600 H 1251.06 -1.22322 -1.45387 0
M  V30 12601 H 1249.21 -0.559242 -3.84454 0
M  V30 12602 H 1250.89 -3.12901 -3.38955 0
M  V30 12603 H 1249.13 -2.9931 -3.14 0
M  V30 12604 H 1249.8 -2.79269 -4.76144 0
M  V30 12605 H 1252.28 -1.00706 -4.0373 0
M  V30 12606 H 1251.15 -0.893192 -5.41584 0
M  V30 12607 H 1251.41 0.509707 -4.39152 0
M  V30 12608 N 1250.47 1.3842 -0.753509 0
M  V30 12609 C 1251.42 2.30457 -0.12574 0
M  V30 12610 C 1252.39 1.50173 0.709728 0
M  V30 12611 O 1253.57 1.78804 0.665872 0
M  V30 12612 C 1250.71 3.36593 0.761503 0
M  V30 12613 C 1249.83 4.31909 -0.0885848 0
M  V30 12614 C 1248.96 5.25116 0.801655 0
M  V30 12615 C 1248 6.12078 -0.0520719 0
M  V30 12616 N 1247.14 6.97583 0.795124 0
M  V30 12617 H 1251.98 2.83567 -0.916187 0
M  V30 12618 H 1249.52 1.39609 -0.463436 0
M  V30 12619 H 1251.47 3.96738 1.29054 0
M  V30 12620 H 1250.1 2.84894 1.51774 0
M  V30 12621 H 1249.16 3.73227 -0.735249 0
M  V30 12622 H 1250.47 4.93161 -0.747899 0
M  V30 12623 H 1249.62 5.90377 1.39786 0
M  V30 12624 H 1248.36 4.6423 1.4947 0
M  V30 12625 H 1247.37 5.45813 -0.660946 0
M  V30 12626 H 1248.59 6.75032 -0.742178 0
M  V30 12627 H 1246.54 6.39246 1.47312 0
M  V30 12628 H 1246.45 7.55754 0.192705 0
M  V30 12629 H 1247.72 7.67254 1.3763 0
M  V30 12630 N 1251.95 0.502579 1.49372 0
M  V30 12631 C 1252.9 -0.275004 2.29156 0
M  V30 12632 C 1253.87 -0.95892 1.35624 0
M  V30 12633 O 1255.05 -0.965276 1.64581 0
M  V30 12634 C 1252.19 -1.33255 3.18335 0
M  V30 12635 C 1251.31 -0.660248 4.26925 0
M  V30 12636 C 1250.44 -1.69837 5.03318 0
M  V30 12637 C 1249.48 -1.00802 6.03743 0
M  V30 12638 N 1248.62 -1.99042 6.73295 0
M  V30 12639 H 1253.46 0.411599 2.95144 0
M  V30 12640 H 1250.99 0.214824 1.45523 0
M  V30 12641 H 1252.95 -1.95769 3.68416 0
M  V30 12642 H 1251.58 -1.98789 2.54328 0
M  V30 12643 H 1250.63 0.0782181 3.8032 0
M  V30 12644 H 1251.95 -0.11689 4.98663 0
M  V30 12645 H 1251.1 -2.39852 5.57275 0
M  V30 12646 H 1249.84 -2.27558 4.31357 0
M  V30 12647 H 1248.84 -0.293654 5.49015 0
M  V30 12648 H 1250.07 -0.437285 6.77691 0
M  V30 12649 H 1248.01 -2.55722 6.04104 0
M  V30 12650 H 1247.93 -1.49776 7.41015 0
M  V30 12651 H 1249.2 -2.6834 7.31856 0
M  V30 12652 N 1253.43 -1.55816 0.23648 0
M  V30 12653 C 1254.36 -2.16945 -0.707826 0
M  V30 12654 C 1255.34 -1.11832 -1.18036 0
M  V30 12655 O 1256.52 -1.40166 -1.26039 0
M  V30 12656 C 1253.65 -2.76175 -1.96074 0
M  V30 12657 C 1252.7 -3.9425 -1.62695 0
M  V30 12658 S 1253.53 -5.30381 -0.738663 0
M  V30 12659 C 1254.69 -5.93059 -2.00081 0
M  V30 12660 H 1254.92 -2.96703 -0.188303 0
M  V30 12661 H 1252.45 -1.54386 0.0210284 0
M  V30 12662 H 1254.41 -3.10938 -2.68007 0
M  V30 12663 H 1253.07 -1.96382 -2.45138 0
M  V30 12664 H 1252.26 -4.34247 -2.55823 0
M  V30 12665 H 1251.87 -3.6071 -0.988129 0
M  V30 12666 H 1254.16 -6.09941 -2.94921 0
M  V30 12667 H 1255.1 -6.88739 -1.64449 0
M  V30 12668 H 1255.51 -5.2203 -2.14815 0
M  V30 12669 N 1254.91 0.036755 -1.57557 0
M  V30 12670 C 1256.13 0.741086 -1.93172 0
M  V30 12671 C 1256.55 1.69303 -0.835589 0
M  V30 12672 O 1255.91 1.81523 0.1886 0
M  V30 12673 C 1255.96 1.50477 -3.28693 0
M  V30 12674 O 1255.68 0.591046 -4.34095 0
M  V30 12675 C 1257.18 2.30695 -3.78543 0
M  V30 12676 H 1254.4 0.208731 -0.637709 0
M  V30 12677 H 1256.94 -0.00342776 -2.045 0
M  V30 12678 H 1255.1 2.20123 -3.18786 0
M  V30 12679 H 1255.51 1.12579 -5.12276 0
M  V30 12680 H 1256.99 2.79685 -4.759 0
M  V30 12681 H 1257.46 3.11778 -3.0934 0
M  V30 12682 H 1258.07 1.66138 -3.91508 0
M  V30 12683 N 1256.39 1.54543 0.308881 0
M  V30 12684 C 1257.35 1.84214 1.36374 0
M  V30 12685 C 1258.35 0.71463 1.44047 0
M  V30 12686 O 1259.54 0.98293 1.4382 0
M  V30 12687 C 1256.67 2.01535 2.74948 0
M  V30 12688 H 1257.86 2.78477 1.11314 0
M  V30 12689 H 1255.42 1.46485 0.545141 0
M  V30 12690 H 1256.15 1.09533 3.05242 0
M  V30 12691 H 1255.94 2.83595 2.7077 0
M  V30 12692 H 1257.43 2.25888 3.51233 0
M  V30 12693 N 1257.86 -0.571685 1.46866 0
M  V30 12694 C 1258.81 -1.67992 1.58263 0
M  V30 12695 C 1259.78 -1.60535 0.426345 0
M  V30 12696 O 1260.97 -1.79584 0.644534 0
M  V30 12697 C 1258.11 -3.06327 1.58927 0
M  V30 12698 C 1257.22 -3.24328 2.85369 0
M  V30 12699 C 1256.35 -4.52976 2.77464 0
M  V30 12700 C 1255.39 -4.64359 3.98795 0
M  V30 12701 N 1254.53 -5.84345 3.89211 0
M  V30 12702 H 1259.37 -1.57589 2.52922 0
M  V30 12703 H 1256.91 -0.767883 1.25467 0
M  V30 12704 H 1258.86 -3.86411 1.57296 0
M  V30 12705 H 1257.49 -3.15601 0.677912 0
M  V30 12706 H 1256.55 -2.37774 2.96931 0
M  V30 12707 H 1257.86 -3.28605 3.7526 0
M  V30 12708 H 1257.01 -5.41303 2.74001 0
M  V30 12709 H 1255.75 -4.51155 1.85231 0
M  V30 12710 H 1254.76 -3.74448 4.02578 0
M  V30 12711 H 1255.98 -4.6795 4.92137 0
M  V30 12712 H 1253.93 -5.835 2.99772 0
M  V30 12713 H 1253.84 -5.89938 4.72768 0
M  V30 12714 H 1255.11 -6.75072 3.89741 0
M  V30 12715 N 1259.34 -1.34755 -0.817236 0
M  V30 12716 C 1260.57 -1.30676 -1.61054 0
M  V30 12717 C 1260.99 0.115343 -1.87746 0
M  V30 12718 O 1260.35 1.07887 -1.45705 0
M  V30 12719 C 1260.4 -2.10881 -2.92509 0
M  V30 12720 O 1259.5 -1.48223 -3.84842 0
M  V30 12721 H 1258.84 -0.448531 -0.489608 0
M  V30 12722 H 1261.37 -1.77642 -1.01512 0
M  V30 12723 H 1261.38 -2.22446 -3.42026 0
M  V30 12724 H 1260.06 -3.14274 -2.72406 0
M  V30 12725 H 1258.63 -1.45434 -3.4337 0
M  V30 12726 N 1260.82 1.03812 -1.18578 0
M  V30 12727 C 1262.07 1.77319 -0.984173 0
M  V30 12728 C 1262.4 1.88052 0.484789 0
M  V30 12729 O 1261.67 1.3905 1.35998 0
M  V30 12730 C 1261.96 3.20448 -1.6427 0
M  V30 12731 C 1261.81 3.17643 -3.1847 0
M  V30 12732 C 1263.13 4.18623 -1.35805 0
M  V30 12733 H 1260.25 0.643681 -0.358949 0
M  V30 12734 H 1262.89 1.21249 -1.46283 0
M  V30 12735 H 1261.04 3.68324 -1.23572 0
M  V30 12736 H 1262.71 2.77738 -3.6832 0
M  V30 12737 H 1260.95 2.55606 -3.50497 0
M  V30 12738 H 1261.63 4.18724 -3.59686 0
M  V30 12739 H 1264.1 3.79306 -1.71073 0
M  V30 12740 H 1262.98 5.16982 -1.84446 0
M  V30 12741 H 1263.24 4.41203 -0.281418 0
M  V30 12742 N 1262.3 0.988223 1.22768 0
M  V30 12743 C 1263.71 0.697281 1.7319 0
M  V30 12744 C 1264.06 -0.786111 1.79763 0
M  V30 12745 O 1263.18 -1.61465 1.44077 0
M  V30 12746 C 1263.78 1.25905 3.14537 0
M  V30 12747 C 1262.34 1.01759 3.62384 0
M  V30 12748 C 1261.49 1.38207 2.40404 0
M  V30 12749 H 1264.44 1.16114 1.08181 0
M  V30 12750 H 1264.46 0.635315 3.75159 0
M  V30 12751 H 1263.97 2.33869 3.09721 0
M  V30 12752 H 1262.07 -0.045627 3.72572 0
M  V30 12753 H 1262.18 1.67767 4.48766 0
M  V30 12754 H 1260.55 0.800607 2.4179 0
M  V30 12755 H 1261.33 2.47165 2.38253 0
M  V30 12756 N 1263.78 -1.38018 0.760839 0
M  V30 12757 C 1264.74 -2.28734 0.146154 0
M  V30 12758 C 1265.74 -1.47525 -0.639768 0
M  V30 12759 O 1266.93 -1.6788 -0.464964 0
M  V30 12760 C 1264.06 -3.31356 -0.801019 0
M  V30 12761 H 1265.25 -2.84599 0.945692 0
M  V30 12762 H 1262.81 -1.471 0.528323 0
M  V30 12763 H 1263.54 -2.80594 -1.62597 0
M  V30 12764 H 1263.33 -3.91366 -0.239775 0
M  V30 12765 H 1264.82 -3.99171 -1.22687 0
M  V30 12766 N 1265.25 -0.510493 -1.49103 0
M  V30 12767 C 1266.53 0.0941122 -1.95373 0
M  V30 12768 C 1266.91 1.53207 -1.45227 0
M  V30 12769 O 1266.26 2.18452 -0.670161 0
M  V30 12770 C 1266.47 -0.00302507 -3.49 0
M  V30 12771 C 1267.82 0.166117 -4.24275 0
M  V30 12772 O 1268.84 0.0717097 -3.56128 0
M  V30 12773 O 1267.7 0.361155 -5.45305 0
M  V30 12774 H 1264.79 0.0900741 -0.82208 0
M  V30 12775 H 1267.34 -0.573707 -1.59708 0
M  V30 12776 H 1266.11 -1.00545 -3.78162 0
M  V30 12777 H 1265.73 0.704518 -3.91308 0
M  V30 12778 N 1266.73 1.55688 -0.24474 0
M  V30 12779 C 1267.66 2.24272 0.64995 0
M  V30 12780 C 1268.64 1.22226 1.183 0
M  V30 12781 O 1269.83 1.50873 1.22274 0
M  V30 12782 C 1266.96 2.94053 1.84798 0
M  V30 12783 C 1265.91 4.02769 1.44779 0
M  V30 12784 C 1265.24 4.59965 2.72647 0
M  V30 12785 C 1266.54 5.18601 0.62047 0
M  V30 12786 H 1268.23 2.99298 0.0780654 0
M  V30 12787 H 1265.78 1.43955 0.0361069 0
M  V30 12788 H 1267.73 3.40732 2.47951 0
M  V30 12789 H 1266.45 2.16511 2.44521 0
M  V30 12790 H 1265.11 3.56856 0.839609 0
M  V30 12791 H 1264.76 3.79126 3.30564 0
M  V30 12792 H 1264.46 5.33352 2.46596 0
M  V30 12793 H 1265.99 5.09376 3.36703 0
M  V30 12794 H 1267.4 5.61519 1.15625 0
M  V30 12795 H 1265.8 5.98364 0.456097 0
M  V30 12796 H 1266.87 4.83503 -0.367798 0
M  V30 12797 N 1268.21 -0.0283989 1.57574 0
M  V30 12798 C 1269.43 -0.734537 1.93957 0
M  V30 12799 C 1269.86 -1.68062 0.844787 0
M  V30 12800 O 1269.22 -1.802 -0.199432 0
M  V30 12801 C 1269.27 -1.46716 3.29404 0
M  V30 12802 O 1268.37 -2.58036 3.217 0
M  V30 12803 H 1267.71 -0.197507 0.633946 0
M  V30 12804 H 1270.24 0.0163258 2.04593 0
M  V30 12805 H 1270.25 -1.83693 3.64309 0
M  V30 12806 H 1268.93 -0.773292 4.08648 0
M  V30 12807 H 1267.5 -2.23597 2.98427 0
M  V30 12808 N 1269.69 -1.54705 -0.300681 0
M  V30 12809 C 1271.1 -1.45926 -0.646359 0
M  V30 12810 C 1271.3 -0.65072 -1.90704 0
M  V30 12811 O 1270.36 -0.158547 -2.52002 0
M  V30 12812 C 1271.67 -2.89889 -0.799059 0
M  V30 12813 C 1273.22 -2.99934 -0.894923 0
M  V30 12814 C 1273.7 -4.45093 -1.07962 0
M  V30 12815 N 1275.19 -4.48804 -1.14581 0
M  V30 12816 C 1275.92 -5.58305 -1.30702 0
M  V30 12817 N 1275.42 -6.77729 -1.43719 0
M  V30 12818 N 1277.21 -5.45994 -1.33593 0
M  V30 12819 H 1269.36 -2.05742 0.527617 0
M  V30 12820 H 1271.62 -0.931817 0.174415 0
M  V30 12821 H 1271.33 -3.51655 0.0563954 0
M  V30 12822 H 1271.2 -3.37325 -1.68796 0
M  V30 12823 H 1273.59 -2.38281 -1.74086 0
M  V30 12824 H 1273.67 -2.55794 0.0179973 0
M  V30 12825 H 1273.32 -5.0734 -0.238444 0
M  V30 12826 H 1273.25 -4.86864 -2.00677 0
M  V30 12827 H 1275.74 -3.62766 -1.05874 0
M  V30 12828 H 1276.05 -7.56937 -1.55776 0
M  V30 12829 H 1274.4 -6.80594 -1.40774 0
M  V30 12830 H 1277.59 -4.51641 -1.23035 0
M  V30 12831 H 1277.76 -6.31381 -1.45813 0
M  V30 12832 N 1271.17 0.563888 -1.47167 0
M  V30 12833 C 1272.58 1.14603 -1.47388 0
M  V30 12834 C 1272.93 1.94907 -0.224916 0
M  V30 12835 O 1272.05 2.05745 0.670672 0
M  V30 12836 C 1272.65 2.08501 -2.67044 0
M  V30 12837 C 1271.21 2.62 -2.70246 0
M  V30 12838 C 1270.35 1.38244 -2.40383 0
M  V30 12839 H 1273.31 0.350833 -1.54774 0
M  V30 12840 H 1273.33 2.92272 -2.43634 0
M  V30 12841 H 1272.84 1.50027 -3.57929 0
M  V30 12842 H 1270.94 3.24292 -1.83482 0
M  V30 12843 H 1271.05 3.0345 -3.70749 0
M  V30 12844 H 1269.42 1.68692 -1.90827 0
M  V30 12845 H 1270.2 0.815726 -3.33468 0
M  V30 12846 N 1272.64 1.35187 0.810078 0
M  V30 12847 C 1273.59 1.27822 1.92173 0
M  V30 12848 C 1274.56 0.150851 1.65414 0
M  V30 12849 O 1275.75 0.333973 1.87854 0
M  V30 12850 C 1272.89 1.05258 3.28656 0
M  V30 12851 C 1272 2.26884 3.67624 0
M  V30 12852 C 1271.13 1.97499 4.9312 0
M  V30 12853 C 1270.17 3.15198 5.24706 0
M  V30 12854 N 1269.31 2.85612 6.41381 0
M  V30 12855 H 1274.15 2.22884 1.97804 0
M  V30 12856 H 1271.69 1.10799 0.967577 0
M  V30 12857 H 1273.65 0.902084 4.07331 0
M  V30 12858 H 1272.28 0.138583 3.22502 0
M  V30 12859 H 1271.33 2.5281 2.84238 0
M  V30 12860 H 1272.64 3.14783 3.86928 0
M  V30 12861 H 1271.79 1.7926 5.79613 0
M  V30 12862 H 1270.53 1.0688 4.75844 0
M  V30 12863 H 1269.54 3.34019 4.36705 0
M  V30 12864 H 1270.76 4.06614 5.43913 0
M  V30 12865 H 1268.71 1.97583 6.25537 0
M  V30 12866 H 1268.63 3.67044 6.60919 0
M  V30 12867 H 1269.89 2.70906 7.3091 0
M  V30 12868 N 1274.12 -1.03182 1.19127 0
M  V30 12869 C 1275.35 -1.80703 1.01791 0
M  V30 12870 C 1275.77 -1.83147 -0.428824 0
M  V30 12871 O 1275.13 -1.2553 -1.30812 0
M  V30 12872 C 1275.18 -3.23754 1.58794 0
M  V30 12873 O 1274.28 -4.04261 0.815274 0
M  V30 12874 H 1273.62 -0.557944 0.359992 0
M  V30 12875 H 1276.15 -1.29887 1.58084 0
M  V30 12876 H 1276.16 -3.7451 1.61884 0
M  V30 12877 H 1274.84 -3.2129 2.64094 0
M  V30 12878 H 1273.42 -3.62909 0.857392 0
M  V30 12879 N 1275.6 -0.99472 -1.22242 0
M  V30 12880 C 1276.83 -0.690097 -1.95052 0
M  V30 12881 C 1277.24 0.745543 -1.73456 0
M  V30 12882 O 1276.6 1.50329 -1.03477 0
M  V30 12883 C 1276.65 -0.988798 -3.47714 0
M  V30 12884 O 1276.37 -2.36803 -3.68587 0
M  V30 12885 C 1277.87 -0.702132 -4.37704 0
M  V30 12886 H 1275.09 -0.255142 -0.620599 0
M  V30 12887 H 1277.64 -1.32998 -1.55344 0
M  V30 12888 H 1275.79 -0.394684 -3.85384 0
M  V30 12889 H 1276.21 -2.4687 -4.62769 0
M  V30 12890 H 1277.68 -0.961389 -5.43564 0
M  V30 12891 H 1278.16 0.363866 -4.3769 0
M  V30 12892 H 1278.76 -1.27738 -4.05664 0
M  V30 12893 N 1277.08 1.37613 -0.768148 0
M  V30 12894 C 1278.3 2.04579 -0.340892 0
M  V30 12895 C 1278.73 1.57556 1.02751 0
M  V30 12896 O 1278.09 0.734151 1.65771 0
M  V30 12897 C 1278.13 3.58495 -0.389099 0
M  V30 12898 O 1277.24 4.07838 0.611741 0
M  V30 12899 H 1276.58 0.647246 -0.148216 0
M  V30 12900 H 1279.11 1.75999 -1.04333 0
M  V30 12901 H 1279.12 4.07263 -0.245116 0
M  V30 12902 H 1277.79 3.92076 -1.38742 0
M  V30 12903 H 1276.37 3.70399 0.431173 0
M  V30 12904 N 1278.56 0.518393 1.4883 0
M  V30 12905 C 1279.78 -0.0162 2.06894 0
M  V30 12906 C 1280.2 -1.29222 1.37649 0
M  V30 12907 O 1279.56 -1.766 0.460288 0
M  V30 12908 C 1279.61 -0.255836 3.60594 0
M  V30 12909 O 1279.33 0.969612 4.27235 0
M  V30 12910 C 1280.83 -0.832117 4.3542 0
M  V30 12911 H 1278.05 0.0282877 0.670403 0
M  V30 12912 H 1280.59 0.720726 1.91379 0
M  V30 12913 H 1278.75 -0.942782 3.75753 0
M  V30 12914 H 1279.16 0.743172 5.19208 0
M  V30 12915 H 1280.64 -0.949279 5.43776 0
M  V30 12916 H 1281.11 -1.83421 3.99066 0
M  V30 12917 H 1281.72 -0.1821 4.2491 0
M  V30 12918 N 1280.03 -1.55556 0.252993 0
M  V30 12919 C 1281.26 -2.03945 -0.376965 0
M  V30 12920 C 1281.68 -1.13089 -1.50308 0
M  V30 12921 O 1281.04 -0.125039 -1.80868 0
M  V30 12922 C 1281.09 -3.50284 -0.856363 0
M  V30 12923 O 1280.19 -3.62551 -1.96546 0
M  V30 12924 H 1279.54 -0.659002 -0.081317 0
M  V30 12925 H 1282.07 -2.01024 0.380831 0
M  V30 12926 H 1282.08 -3.91222 -1.15798 0
M  V30 12927 H 1280.75 -4.15887 -0.0323302 0
M  V30 12928 H 1279.33 -3.33511 -1.66808 0
M  V30 12929 N 1281.51 0.0200419 -1.57587 0
M  V30 12930 C 1282.74 0.724241 -1.94344 0
M  V30 12931 C 1283.16 1.67612 -0.853688 0
M  V30 12932 O 1282.52 1.80303 0.189873 0
M  V30 12933 C 1282.57 1.44967 -3.30177 0
M  V30 12934 O 1281.67 2.56326 -3.23064 0
M  V30 12935 H 1281.01 0.194142 -0.634984 0
M  V30 12936 H 1283.54 -0.0271756 -2.04582 0
M  V30 12937 H 1283.55 1.81758 -3.65278 0
M  V30 12938 H 1282.23 0.75161 -4.09052 0
M  V30 12939 H 1280.81 2.22011 -2.99609 0
M  V30 12940 N 1282.99 1.54862 0.292472 0
M  V30 12941 C 1283.92 1.81298 1.38586 0
M  V30 12942 C 1284.9 0.664704 1.48393 0
M  V30 12943 O 1286.09 0.905595 1.65322 0
M  V30 12944 C 1283.21 1.9573 2.76419 0
M  V30 12945 C 1282.26 3.18197 2.83994 0
M  V30 12946 S 1283.09 4.76054 2.45219 0
M  V30 12947 C 1284.25 4.93433 3.85064 0
M  V30 12948 H 1284.48 2.73755 1.15955 0
M  V30 12949 H 1282.01 1.46383 0.491053 0
M  V30 12950 H 1283.97 2.0473 3.55803 0
M  V30 12951 H 1282.63 1.04196 2.96314 0
M  V30 12952 H 1281.83 3.25123 3.85112 0
M  V30 12953 H 1281.43 3.07688 2.12613 0
M  V30 12954 H 1283.72 4.7798 4.80148 0
M  V30 12955 H 1284.66 5.95515 3.83103 0
M  V30 12956 H 1285.07 4.2153 3.75463 0
M  V30 12957 N 1284.47 -0.556076 1.47464 0
M  V30 12958 C 1285.42 -1.66304 1.60036 0
M  V30 12959 C 1286.39 -1.60074 0.443348 0
M  V30 12960 O 1287.57 -1.7889 0.663545 0
M  V30 12961 C 1284.71 -3.04624 1.62167 0
M  V30 12962 C 1283.82 -3.21283 2.88793 0
M  V30 12963 C 1282.96 -4.50008 2.82252 0
M  V30 12964 C 1282 -4.60103 4.03698 0
M  V30 12965 N 1281.13 -5.80184 3.95387 0
M  V30 12966 H 1285.97 -1.54897 2.5458 0
M  V30 12967 H 1283.51 -0.754533 1.26274 0
M  V30 12968 H 1285.47 -3.84721 1.61386 0
M  V30 12969 H 1284.1 -3.14865 0.711348 0
M  V30 12970 H 1283.15 -2.34611 2.99436 0
M  V30 12971 H 1284.46 -3.24607 3.78724 0
M  V30 12972 H 1283.62 -5.38366 2.79726 0
M  V30 12973 H 1282.36 -4.49165 1.90005 0
M  V30 12974 H 1281.36 -3.70157 4.06527 0
M  V30 12975 H 1282.59 -4.62704 4.97073 0
M  V30 12976 H 1280.53 -5.80288 3.05944 0
M  V30 12977 H 1280.45 -5.8489 4.78998 0
M  V30 12978 H 1281.72 -6.709 3.96879 0
M  V30 12979 N 1285.95 -1.35615 -0.802897 0
M  V30 12980 C 1286.89 -1.28839 -1.91492 0
M  V30 12981 C 1287.86 -0.159621 -1.65331 0
M  V30 12982 O 1289.05 -0.343931 -1.87675 0
M  V30 12983 C 1286.19 -1.06999 -3.28093 0
M  V30 12984 C 1285.3 -2.28831 -3.66416 0
M  V30 12985 C 1284.44 -2.00111 -4.92066 0
M  V30 12986 C 1283.48 -3.17977 -5.23027 0
M  V30 12987 N 1282.61 -2.89009 -6.39858 0
M  V30 12988 H 1287.45 -2.2393 -1.96619 0
M  V30 12989 H 1284.99 -1.1131 -0.961687 0
M  V30 12990 H 1286.95 -0.923673 -4.06847 0
M  V30 12991 H 1285.58 -0.155684 -3.22424 0
M  V30 12992 H 1284.63 -2.54314 -2.82893 0
M  V30 12993 H 1285.94 -3.1683 -3.85253 0
M  V30 12994 H 1285.1 -1.82331 -5.78654 0
M  V30 12995 H 1283.84 -1.09402 -4.75271 0
M  V30 12996 H 1282.84 -3.3633 -4.34928 0
M  V30 12997 H 1284.07 -4.09493 -5.41749 0
M  V30 12998 H 1282.01 -2.00898 -6.24481 0
M  V30 12999 H 1281.93 -3.70544 -6.58964 0
M  V30 13000 H 1283.2 -2.74779 -7.29463 0
M  V30 13001 N 1287.43 1.02549 -1.19673 0
M  V30 13002 C 1288.65 1.79623 -1.0268 0
M  V30 13003 C 1289.07 1.83969 0.424345 0
M  V30 13004 O 1288.43 1.28621 1.29472 0
M  V30 13005 C 1288.48 3.24514 -1.59289 0
M  V30 13006 O 1288.2 3.20462 -2.98723 0
M  V30 13007 C 1289.7 4.18173 -1.47126 0
M  V30 13008 H 1286.92 0.565167 -0.3617 0
M  V30 13009 H 1289.46 1.29143 -1.58564 0
M  V30 13010 H 1287.62 3.72173 -1.07546 0
M  V30 13011 H 1288.03 4.11341 -3.25421 0
M  V30 13012 H 1289.51 5.17714 -1.9151 0
M  V30 13013 H 1289.98 4.37165 -0.422315 0
M  V30 13014 H 1290.59 3.7639 -1.98017 0
M  V30 13015 N 1288.9 1.00119 1.21713 0
M  V30 13016 C 1290.13 0.700431 1.94683 0
M  V30 13017 C 1290.55 -0.736333 1.73849 0
M  V30 13018 O 1289.9 -1.49778 1.04272 0
M  V30 13019 C 1289.95 1.00722 3.47185 0
M  V30 13020 O 1289.68 2.38754 3.67326 0
M  V30 13021 C 1291.18 0.725335 4.37326 0
M  V30 13022 H 1288.4 0.25843 0.619238 0
M  V30 13023 H 1290.94 1.3382 1.54636 0
M  V30 13024 H 1289.1 0.415117 3.85169 0
M  V30 13025 H 1289.51 2.49321 4.61454 0
M  V30 13026 H 1290.98 0.990202 5.43046 0
M  V30 13027 H 1291.46 -0.340649 4.37877 0
M  V30 13028 H 1292.07 1.29888 4.04981 0
M  V30 13029 N 1290.38 -1.37203 0.775435 0
M  V30 13030 C 1291.61 -2.03868 0.352927 0
M  V30 13031 C 1292.02 -1.58482 -1.0261 0
M  V30 13032 O 1291.38 -0.767772 -1.65564 0
M  V30 13033 C 1291.43 -3.59378 0.39116 0
M  V30 13034 O 1291.15 -4.03103 1.71579 0
M  V30 13035 C 1292.65 -4.4328 -0.0424808 0
M  V30 13036 H 1289.87 -0.654619 0.14736 0
M  V30 13037 H 1292.42 -1.75463 1.05039 0
M  V30 13038 H 1290.57 -3.86542 -0.257752 0
M  V30 13039 H 1290.99 -4.9764 1.65695 0
M  V30 13040 H 1292.46 -5.51989 0.0354215 0
M  V30 13041 H 1292.94 -4.25374 -1.09333 0
M  V30 13042 H 1293.54 -4.21349 0.578384 0
M  V30 13043 N 1291.86 -0.526279 -1.48553 0
M  V30 13044 C 1292.79 0.227364 -2.3239 0
M  V30 13045 C 1293.77 0.93862 -1.41859 0
M  V30 13046 O 1294.96 0.925119 -1.70749 0
M  V30 13047 C 1292.09 1.277 -3.22971 0
M  V30 13048 C 1291.04 0.684107 -4.22497 0
M  V30 13049 C 1290.37 1.83612 -5.02186 0
M  V30 13050 C 1291.67 -0.341723 -5.21181 0
M  V30 13051 H 1293.36 -0.472486 -2.95648 0
M  V30 13052 H 1290.91 -0.228669 -1.42173 0
M  V30 13053 H 1292.86 1.81215 -3.80446 0
M  V30 13054 H 1291.58 2.00638 -2.57705 0
M  V30 13055 H 1290.24 0.170505 -3.66203 0
M  V30 13056 H 1289.89 2.55379 -4.33348 0
M  V30 13057 H 1289.59 1.44536 -5.69547 0
M  V30 13058 H 1291.11 2.37513 -5.62512 0
M  V30 13059 H 1292.53 0.106207 -5.73202 0
M  V30 13060 H 1290.92 -0.649673 -5.96573 0
M  V30 13061 H 1291.99 -1.2488 -4.68543 0
M  V30 13062 N 1293.34 1.5542 -0.261239 0
M  V30 13063 C 1294.56 2.04142 0.366144 0
M  V30 13064 C 1294.99 1.13884 1.49706 0
M  V30 13065 O 1294.35 0.134629 1.80799 0
M  V30 13066 C 1294.39 3.50733 0.837774 0
M  V30 13067 O 1293.5 3.63588 1.94621 0
M  V30 13068 H 1292.84 0.659424 0.077821 0
M  V30 13069 H 1295.37 2.0082 -0.391487 0
M  V30 13070 H 1295.38 3.91831 1.13721 0
M  V30 13071 H 1294.05 4.15899 0.0102742 0
M  V30 13072 H 1292.63 3.34391 1.65037 0
M  V30 13073 N 1294.82 -0.0116844 1.57596 0
M  V30 13074 C 1296.06 -0.697577 1.89679 0
M  V30 13075 C 1296.38 -1.74956 0.861122 0
M  V30 13076 O 1295.65 -1.95629 -0.103031 0
M  V30 13077 H 1294.23 -0.26064 0.700054 0
M  V30 13078 H 1296.9 0.0264782 1.94882 0
M  V30 13079 H 1295.99 -1.17621 2.89088 0
M  V30 13080 N 1296.29 -1.55015 -0.284256 0
M  V30 13081 C 1297.52 -1.79102 -1.03586 0
M  V30 13082 C 1297.94 -0.558733 -1.80343 0
M  V30 13083 O 1297.29 0.471925 -1.76293 0
M  V30 13084 C 1297.34 -3.00915 -2.0033 0
M  V30 13085 O 1297.07 -4.19384 -1.26685 0
M  V30 13086 C 1298.57 -3.3752 -2.87394 0
M  V30 13087 H 1295.79 -0.596912 -0.306491 0
M  V30 13088 H 1298.33 -2.02005 -0.31845 0
M  V30 13089 H 1296.49 -2.80171 -2.67549 0
M  V30 13090 H 1296.9 -4.88175 -1.91796 0
M  V30 13091 H 1298.37 -4.25953 -3.51095 0
M  V30 13092 H 1298.85 -2.56418 -3.56576 0
M  V30 13093 H 1299.46 -3.60483 -2.25682 0
M  V30 13094 N 1297.77 0.548248 -1.47757 0
M  V30 13095 C 1298.73 1.63666 -1.60456 0
M  V30 13096 C 1299.73 1.53499 -0.479028 0
M  V30 13097 O 1300.92 1.57497 -0.744342 0
M  V30 13098 C 1298.06 3.03239 -1.55754 0
M  V30 13099 H 1299.25 1.53752 -2.57488 0
M  V30 13100 H 1296.8 0.768881 -1.36081 0
M  V30 13101 H 1297.54 3.18677 -0.601303 0
M  V30 13102 H 1297.32 3.12027 -2.37448 0
M  V30 13103 H 1298.81 3.82406 -1.67797 0
M  V30 13104 N 1299.25 1.36039 0.795694 0
M  V30 13105 C 1300.66 1.2679 1.37044 0
M  V30 13106 C 1301.01 -0.0950192 1.9597 0
M  V30 13107 O 1300.14 -0.996311 1.921 0
M  V30 13108 C 1300.73 2.29585 2.49151 0
M  V30 13109 C 1299.29 2.24044 3.02458 0
M  V30 13110 C 1298.44 2.14703 1.75493 0
M  V30 13111 H 1301.39 1.47009 0.597843 0
M  V30 13112 H 1301.41 1.92864 3.27999 0
M  V30 13113 H 1300.92 3.28769 2.06234 0
M  V30 13114 H 1299.02 1.28307 3.49812 0
M  V30 13115 H 1299.14 3.1647 3.597 0
M  V30 13116 H 1297.5 1.60856 1.97478 0
M  V30 13117 H 1298.28 3.15765 1.34713 0
M  V30 13118 N 1300.73 -1.01913 1.20215 0
M  V30 13119 C 1301.69 -2.08563 0.950481 0
M  V30 13120 C 1302.69 -1.60634 -0.0729659 0
M  V30 13121 O 1303.88 -1.73437 0.162826 0
M  V30 13122 C 1301.01 -3.38171 0.430453 0
M  V30 13123 H 1302.21 -2.32323 1.89647 0
M  V30 13124 H 1299.76 -1.18674 1.01716 0
M  V30 13125 H 1300.49 -3.20086 -0.521126 0
M  V30 13126 H 1300.28 -3.74284 1.1685 0
M  V30 13127 H 1301.77 -4.16702 0.273781 0
M  V30 13128 N 1302.21 -1.00763 -1.2118 0
M  V30 13129 C 1303.17 -0.575183 -2.21865 0
M  V30 13130 C 1304.17 0.349871 -1.56948 0
M  V30 13131 O 1305.36 0.139795 -1.73638 0
M  V30 13132 C 1302.49 0.161308 -3.40518 0
M  V30 13133 H 1303.68 -1.46578 -2.61639 0
M  V30 13134 H 1301.24 -0.79643 -1.34487 0
M  V30 13135 H 1301.97 1.06723 -3.06236 0
M  V30 13136 H 1301.76 -0.503101 -3.88859 0
M  V30 13137 H 1303.25 0.451527 -4.15152 0
M  V30 13138 N 1303.68 1.3679 -0.7827 0
M  V30 13139 C 1304.93 1.99023 -0.351316 0
M  V30 13140 C 1305.25 1.62436 1.07887 0
M  V30 13141 O 1304.52 0.895084 1.74256 0
M  V30 13142 H 1303.1 0.736141 -0.126909 0
M  V30 13143 H 1305.77 1.67095 -1.00325 0
M  V30 13144 H 1304.86 3.09015 -0.43774 0
M  V30 13145 N 1305.16 0.53415 1.48272 0
M  V30 13146 C 1306.41 0.00157492 2.028 0
M  V30 13147 C 1306.74 -1.33538 1.41001 0
M  V30 13148 O 1306.02 -1.86347 0.557245 0
M  V30 13149 C 1306.3 -0.116016 3.59913 0
M  V30 13150 C 1306.15 1.2464 4.32186 0
M  V30 13151 C 1307.47 -0.840775 4.31994 0
M  V30 13152 H 1304.59 0.00204634 0.736997 0
M  V30 13153 H 1307.23 0.691985 1.76951 0
M  V30 13154 H 1305.38 -0.704027 3.82068 0
M  V30 13155 H 1307.05 1.87584 4.21438 0
M  V30 13156 H 1305.3 1.8272 3.93441 0
M  V30 13157 H 1305.97 1.11708 5.40579 0
M  V30 13158 H 1308.44 -0.341746 4.14694 0
M  V30 13159 H 1307.32 -0.89196 5.41604 0
M  V30 13160 H 1307.58 -1.89197 3.99571 0
M  V30 13161 N 1306.64 -1.55279 0.269478 0
M  V30 13162 C 1307.89 -1.99767 -0.34943 0
M  V30 13163 C 1308.22 -1.15762 -1.55926 0
M  V30 13164 O 1307.49 -0.22633 -1.93179 0
M  V30 13165 C 1307.78 -3.52474 -0.73716 0
M  V30 13166 C 1307.63 -4.47236 0.479621 0
M  V30 13167 C 1308.95 -4.10924 -1.57573 0
M  V30 13168 H 1306.07 -0.72623 -0.125535 0
M  V30 13169 H 1308.71 -1.86257 0.375298 0
M  V30 13170 H 1306.86 -3.64118 -1.35464 0
M  V30 13171 H 1308.53 -4.47543 1.11816 0
M  V30 13172 H 1306.78 -4.19127 1.11871 0
M  V30 13173 H 1307.45 -5.51754 0.164653 0
M  V30 13174 H 1309.92 -4.02522 -1.05429 0
M  V30 13175 H 1308.8 -5.17995 -1.81584 0
M  V30 13176 H 1309.06 -3.60798 -2.55495 0
M  V30 13177 N 1308.12 0.00332656 -1.576 0
M  V30 13178 C 1309.53 0.546581 -1.7852 0
M  V30 13179 C 1309.88 1.74147 -0.903722 0
M  V30 13180 O 1309.01 2.16144 -0.105314 0
M  V30 13181 C 1309.6 0.998344 -3.23757 0
M  V30 13182 C 1308.16 1.48693 -3.45785 0
M  V30 13183 C 1307.31 0.436617 -2.73841 0
M  V30 13184 H 1310.26 -0.222852 -1.57128 0
M  V30 13185 H 1310.28 1.86452 -3.31686 0
M  V30 13186 H 1309.79 0.128479 -3.87887 0
M  V30 13187 H 1307.89 2.3778 -2.86865 0
M  V30 13188 H 1308 1.51668 -4.5446 0
M  V30 13189 H 1306.37 0.897506 -2.38363 0
M  V30 13190 H 1307.15 -0.424225 -3.40669 0
M  V30 13191 N 1309.6 1.55164 0.276031 0
M  V30 13192 C 1310.82 1.7998 1.03063 0
M  V30 13193 C 1311.25 0.569769 1.79263 0
M  V30 13194 O 1310.6 -0.48054 1.74816 0
M  V30 13195 C 1310.65 3.02209 1.96728 0
M  V30 13196 O 1309.76 2.77083 3.05449 0
M  V30 13197 H 1309.1 0.594963 0.294814 0
M  V30 13198 H 1311.63 2.02301 0.305861 0
M  V30 13199 H 1311.64 3.3086 2.38738 0
M  V30 13200 H 1310.31 3.91386 1.40677 0
M  V30 13201 H 1308.89 2.5952 2.67776 0
M  V30 13202 N 1311.07 -0.540404 1.48045 0
M  V30 13203 C 1312.49 -0.867958 1.33935 0
M  V30 13204 C 1312.69 -1.98568 0.342488 0
M  V30 13205 O 1311.75 -2.51357 -0.240022 0
M  V30 13206 C 1313.06 -1.24532 2.73701 0
M  V30 13207 C 1314.61 -1.3558 2.82112 0
M  V30 13208 C 1315.08 -1.76664 4.22556 0
M  V30 13209 N 1316.57 -1.83785 4.25179 0
M  V30 13210 C 1317.31 -2.16938 5.30778 0
M  V30 13211 N 1316.8 -2.48587 6.46666 0
M  V30 13212 N 1318.6 -2.17855 5.18166 0
M  V30 13213 H 1310.75 0.197251 2.11482 0
M  V30 13214 H 1313.01 0.0255947 0.947654 0
M  V30 13215 H 1312.72 -0.497731 3.4816 0
M  V30 13216 H 1312.59 -2.19779 3.06556 0
M  V30 13217 H 1314.98 -2.09417 2.07915 0
M  V30 13218 H 1315.06 -0.384787 2.52889 0
M  V30 13219 H 1314.7 -1.03391 4.97265 0
M  V30 13220 H 1314.63 -2.74797 4.49215 0
M  V30 13221 H 1317.12 -1.61645 3.41583 0
M  V30 13222 H 1317.44 -2.72959 7.22989 0
M  V30 13223 H 1315.78 -2.4613 6.49958 0
M  V30 13224 H 1318.97 -1.9258 4.2665 0
M  V30 13225 H 1319.15 -2.43361 6.00566 0
M  V30 13226 N 1312.55 -1.36459 -0.788468 0
M  V30 13227 C 1313.8 -1.30935 -1.54867 0
M  V30 13228 C 1314.13 0.110916 -1.93883 0
M  V30 13229 O 1313.41 1.06452 -1.62783 0
M  V30 13230 C 1313.69 -2.23294 -2.8251 0
M  V30 13231 C 1313.54 -3.74022 -2.49856 0
M  V30 13232 C 1314.86 -2.14407 -3.84341 0
M  V30 13233 H 1311.98 -0.476958 -0.561854 0
M  V30 13234 H 1314.62 -1.67018 -0.905805 0
M  V30 13235 H 1312.77 -1.92652 -3.37369 0
M  V30 13236 H 1314.44 -4.15187 -2.01041 0
M  V30 13237 H 1312.69 -3.93411 -1.82785 0
M  V30 13238 H 1313.36 -4.34057 -3.41026 0
M  V30 13239 H 1315.83 -2.41381 -3.38932 0
M  V30 13240 H 1314.71 -2.81199 -4.71401 0
M  V30 13241 H 1314.97 -1.13166 -4.27371 0
M  V30 13242 N 1314.03 1.01274 -1.20754 0
M  V30 13243 C 1314.98 2.09894 -0.959852 0
M  V30 13244 C 1315.95 1.65726 0.111351 0
M  V30 13245 O 1317.13 1.90769 -0.0341721 0
M  V30 13246 C 1314.27 3.41126 -0.52223 0
M  V30 13247 C 1313.39 3.98749 -1.66202 0
M  V30 13248 C 1312.52 5.18057 -1.17432 0
M  V30 13249 C 1311.56 5.67772 -2.28694 0
M  V30 13250 N 1310.7 6.78338 -1.81114 0
M  V30 13251 H 1315.54 2.30416 -1.88977 0
M  V30 13252 H 1313.07 1.12989 -0.941906 0
M  V30 13253 H 1315.03 4.16451 -0.249799 0
M  V30 13254 H 1313.66 3.20665 0.370688 0
M  V30 13255 H 1312.71 3.20483 -2.04927 0
M  V30 13256 H 1314.03 4.31646 -2.49967 0
M  V30 13257 H 1313.18 6.00601 -0.858086 0
M  V30 13258 H 1311.92 4.86735 -0.306614 0
M  V30 13259 H 1310.92 4.8383 -2.61129 0
M  V30 13260 H 1312.15 6.01127 -3.15948 0
M  V30 13261 H 1310.09 6.48837 -0.966761 0
M  V30 13262 H 1310.01 7.10448 -2.58457 0
M  V30 13263 H 1311.28 7.64437 -1.52502 0
M  V30 13264 N 1315.51 1.01404 1.20644 0
M  V30 13265 C 1316.47 0.586941 2.21557 0
M  V30 13266 C 1317.47 -0.341543 1.57131 0
M  V30 13267 O 1318.66 -0.130585 1.7371 0
M  V30 13268 C 1315.79 -0.143248 3.40599 0
M  V30 13269 H 1316.99 1.47964 2.60858 0
M  V30 13270 H 1314.54 0.803551 1.34063 0
M  V30 13271 H 1315.28 -1.05097 3.06798 0
M  V30 13272 H 1315.06 0.523716 3.88587 0
M  V30 13273 H 1316.55 -0.429504 4.15385 0
M  V30 13274 N 1316.99 -1.36373 0.789944 0
M  V30 13275 C 1318.22 -2.03482 0.37453 0
M  V30 13276 C 1318.63 -1.59562 -1.00923 0
M  V30 13277 O 1317.99 -0.785289 -1.64741 0
M  V30 13278 C 1318.04 -3.58942 0.429255 0
M  V30 13279 O 1317.76 -4.01261 1.75845 0
M  V30 13280 C 1319.26 -4.433 0.00453729 0
M  V30 13281 H 1316.48 -0.653019 0.154295 0
M  V30 13282 H 1319.02 -1.74339 1.06894 0
M  V30 13283 H 1317.18 -3.86793 -0.21674 0
M  V30 13284 H 1317.59 -4.95854 1.70964 0
M  V30 13285 H 1319.07 -5.5192 0.0939653 0
M  V30 13286 H 1319.54 -4.26509 -1.04816 0
M  V30 13287 H 1320.15 -4.20712 0.623041 0
M  V30 13288 N 1318.47 -0.542005 -1.47987 0
M  V30 13289 C 1319.88 -0.104646 -1.86406 0
M  V30 13290 C 1320.23 1.32139 -1.4503 0
M  V30 13291 O 1319.35 1.99159 -0.846439 0
M  V30 13292 C 1319.95 -0.183133 -3.38305 0
M  V30 13293 C 1318.51 0.199098 -3.75873 0
M  V30 13294 C 1317.65 -0.537532 -2.7204 0
M  V30 13295 H 1320.6 -0.75259 -1.3972 0
M  V30 13296 H 1320.63 0.602149 -3.75705 0
M  V30 13297 H 1320.14 -1.22113 -3.68389 0
M  V30 13298 H 1318.24 1.23878 -3.51404 0
M  V30 13299 H 1318.35 -0.14888 -4.78869 0
M  V30 13300 H 1316.72 0.0176255 -2.54694 0
M  V30 13301 H 1317.5 -1.57639 -3.04967 0
M  V30 13302 N 1319.94 1.55134 -0.277709 0
M  V30 13303 C 1320.88 2.18745 0.650058 0
M  V30 13304 C 1321.85 1.14922 1.15029 0
M  V30 13305 O 1323.04 1.43458 1.22278 0
M  V30 13306 C 1320.17 2.81277 1.88683 0
M  V30 13307 C 1319.21 3.98425 1.52185 0
M  V30 13308 S 1320.04 5.32153 0.597782 0
M  V30 13309 C 1321.2 5.98155 1.84287 0
M  V30 13310 H 1321.43 2.97098 0.109571 0
M  V30 13311 H 1318.97 1.54276 -0.0619536 0
M  V30 13312 H 1320.92 3.17934 2.59669 0
M  V30 13313 H 1319.59 2.02813 2.39845 0
M  V30 13314 H 1318.78 4.40877 2.4422 0
M  V30 13315 H 1318.38 3.63203 0.892146 0
M  V30 13316 H 1320.67 6.17546 2.78646 0
M  V30 13317 H 1321.62 6.92857 1.46131 0
M  V30 13318 H 1322.02 5.27541 2.00899 0
M  V30 13319 N 1321.42 0.00503138 1.57599 0
M  V30 13320 C 1322.83 -0.537106 1.78807 0
M  V30 13321 C 1323.18 -1.73666 0.912945 0
M  V30 13322 O 1322.31 -2.16085 0.116775 0
M  V30 13323 C 1322.9 -0.98116 3.24282 0
M  V30 13324 C 1321.46 -1.46857 3.46569 0
M  V30 13325 C 1320.61 -0.422088 2.74069 0
M  V30 13326 H 1323.56 0.231182 1.57007 0
M  V30 13327 H 1323.58 -1.8469 3.32671 0
M  V30 13328 H 1323.09 -0.107907 3.8795 0
M  V30 13329 H 1321.19 -2.36255 2.88122 0
M  V30 13330 H 1321.31 -1.49256 4.55258 0
M  V30 13331 H 1319.67 -0.884853 2.38836 0
M  V30 13332 H 1320.45 0.442285 3.40439 0
M  V30 13333 N 1322.9 -1.55308 -0.267798 0
M  V30 13334 C 1324.12 -1.80524 -1.02107 0
M  V30 13335 C 1324.55 -0.579268 -1.78958 0
M  V30 13336 O 1323.91 0.471262 -1.75068 0
M  V30 13337 C 1323.96 -3.03248 -1.95123 0
M  V30 13338 O 1323.06 -2.78699 -3.03975 0
M  V30 13339 H 1322.4 -0.596518 -0.291655 0
M  V30 13340 H 1324.93 -2.0246 -0.295128 0
M  V30 13341 H 1324.94 -3.32121 -2.3698 0
M  V30 13342 H 1323.62 -3.92126 -1.386 0
M  V30 13343 H 1322.19 -2.60936 -2.66396 0
M  V30 13344 N 1324.38 0.532545 -1.4833 0
M  V30 13345 C 1325.79 0.860843 -1.34394 0
M  V30 13346 C 1325.99 1.98384 -0.353013 0
M  V30 13347 O 1325.05 2.5148 0.226688 0
M  V30 13348 C 1326.36 1.23079 -2.74358 0
M  V30 13349 C 1327.91 1.34082 -2.82827 0
M  V30 13350 C 1328.39 1.74421 -4.23487 0
M  V30 13351 N 1329.88 1.81528 -4.26148 0
M  V30 13352 C 1330.61 2.1412 -5.31921 0
M  V30 13353 N 1330.11 2.45154 -6.47975 0
M  V30 13354 N 1331.9 2.15104 -5.19314 0
M  V30 13355 H 1324.05 -0.208464 -2.11375 0
M  V30 13356 H 1326.31 -0.03062 -0.947505 0
M  V30 13357 H 1326.02 0.47926 -3.48419 0
M  V30 13358 H 1325.89 2.18151 -3.07718 0
M  V30 13359 H 1328.28 2.08311 -2.09022 0
M  V30 13360 H 1328.36 0.37137 -2.5309 0
M  V30 13361 H 1328.01 1.00752 -4.97807 0
M  V30 13362 H 1327.94 2.72411 -4.50666 0
M  V30 13363 H 1330.43 1.59832 -3.42436 0
M  V30 13364 H 1330.74 2.69121 -7.24426 0
M  V30 13365 H 1329.09 2.42679 -6.51254 0
M  V30 13366 H 1332.28 1.90315 -4.27666 0
M  V30 13367 H 1332.45 2.40173 -6.01848 0
M  V30 13368 N 1325.86 1.36875 0.78122 0
M  V30 13369 C 1327.27 1.28236 1.35692 0
M  V30 13370 C 1327.62 -0.0742286 1.9606 0
M  V30 13371 O 1326.74 -0.97588 1.93146 0
M  V30 13372 C 1327.34 2.32215 2.46702 0
M  V30 13373 C 1325.9 2.2724 3.00065 0
M  V30 13374 C 1325.04 2.16553 1.73206 0
M  V30 13375 H 1327.99 1.47634 0.582217 0
M  V30 13376 H 1328.02 1.96333 3.25935 0
M  V30 13377 H 1327.53 3.30938 2.02735 0
M  V30 13378 H 1325.63 1.3201 3.48431 0
M  V30 13379 H 1325.74 3.20267 3.56323 0
M  V30 13380 H 1324.11 1.62941 1.95761 0
M  V30 13381 H 1324.89 3.17176 1.31356 0
M  V30 13382 N 1327.33 -1.00632 1.21289 0
M  V30 13383 C 1328.56 -1.78503 1.05601 0
M  V30 13384 C 1328.98 -1.84015 -0.389879 0
M  V30 13385 O 1328.34 -1.28277 -1.2812 0
M  V30 13386 C 1328.39 -3.20313 1.65626 0
M  V30 13387 O 1327.49 -4.02441 0.900841 0
M  V30 13388 H 1326.83 -0.550183 0.371746 0
M  V30 13389 H 1329.36 -1.26505 1.60803 0
M  V30 13390 H 1329.37 -3.70992 1.69792 0
M  V30 13391 H 1328.05 -3.15616 2.7085 0
M  V30 13392 H 1326.63 -3.61009 0.934178 0
M  V30 13393 N 1328.81 -1.02043 -1.20104 0
M  V30 13394 C 1330.04 -0.731315 -1.93544 0
M  V30 13395 C 1330.45 0.708582 -1.74999 0
M  V30 13396 O 1329.81 1.481 -1.06642 0
M  V30 13397 C 1329.86 -1.06233 -3.45538 0
M  V30 13398 O 1329.58 -2.44568 -3.63481 0
M  V30 13399 C 1331.08 -0.794818 -4.36116 0
M  V30 13400 H 1328.3 -0.268248 -0.615048 0
M  V30 13401 H 1330.85 -1.36264 -1.52488 0
M  V30 13402 H 1329 -0.476341 -3.8446 0
M  V30 13403 H 1329.42 -2.5663 -4.57429 0
M  V30 13404 H 1330.89 -1.07647 -5.41402 0
M  V30 13405 H 1331.37 0.270944 -4.38363 0
M  V30 13406 H 1331.97 -1.36314 -4.02863 0
M  V30 13407 N 1330.29 1.35952 -0.797165 0
M  V30 13408 C 1331.52 2.0328 -0.385316 0
M  V30 13409 C 1331.93 1.60095 1.00076 0
M  V30 13410 O 1331.29 0.794014 1.64322 0
M  V30 13411 C 1331.34 3.5871 -0.448284 0
M  V30 13412 O 1331.06 4.00323 -1.7797 0
M  V30 13413 C 1332.56 4.43291 -0.0280465 0
M  V30 13414 H 1329.78 0.652192 -0.157756 0
M  V30 13415 H 1332.33 1.73769 -1.07817 0
M  V30 13416 H 1330.48 3.86903 0.196224 0
M  V30 13417 H 1330.9 4.94941 -1.73592 0
M  V30 13418 H 1332.37 5.51862 -0.123234 0
M  V30 13419 H 1332.85 4.27059 1.02552 0
M  V30 13420 H 1333.45 4.20375 -0.645343 0
M  V30 13421 N 1331.77 0.549846 1.47697 0
M  V30 13422 C 1333.18 0.11453 1.86348 0
M  V30 13423 C 1333.53 -1.31368 1.45729 0
M  V30 13424 O 1332.66 -1.98707 0.856989 0
M  V30 13425 C 1333.25 0.201072 3.38203 0
M  V30 13426 C 1331.81 -0.179162 3.75973 0
M  V30 13427 C 1330.96 0.551951 2.71751 0
M  V30 13428 H 1333.91 0.759989 1.39319 0
M  V30 13429 H 1333.93 -0.582216 3.76019 0
M  V30 13430 H 1333.44 1.24065 3.67736 0
M  V30 13431 H 1331.54 -1.22013 3.52056 0
M  V30 13432 H 1331.65 0.174273 4.78783 0
M  V30 13433 H 1330.02 -0.00411819 2.547 0
M  V30 13434 H 1330.8 1.59254 3.04127 0
M  V30 13435 N 1333.25 -1.54984 0.285932 0
M  V30 13436 C 1334.49 -1.9983 -0.327737 0
M  V30 13437 C 1334.82 -1.17435 -1.55046 0
M  V30 13438 O 1334.08 -0.234735 -1.94287 0
M  V30 13439 C 1334.38 -3.49581 -0.7435 0
M  V30 13440 C 1334.04 -4.49331 0.375792 0
M  V30 13441 C 1332.7 -4.76327 0.683103 0
M  V30 13442 C 1335.06 -5.08815 1.12947 0
M  V30 13443 C 1332.38 -5.60071 1.74748 0
M  V30 13444 C 1334.74 -5.93716 2.18366 0
M  V30 13445 C 1333.4 -6.19028 2.4972 0
M  V30 13446 H 1332.67 -0.731231 -0.119928 0
M  V30 13447 H 1335.32 -1.87235 0.401896 0
M  V30 13448 H 1333.62 -3.59708 -1.55298 0
M  V30 13449 H 1335.32 -3.81694 -1.22924 0
M  V30 13450 H 1331.91 -4.28414 0.126159 0
M  V30 13451 H 1336.09 -4.87973 0.905313 0
M  V30 13452 H 1331.35 -5.77925 1.9953 0
M  V30 13453 H 1335.52 -6.38838 2.77233 0
M  V30 13454 H 1333.15 -6.83711 3.3233 0
M  V30 13455 N 1334.72 -0.0133892 -1.57594 0
M  V30 13456 C 1335.97 0.667896 -1.90321 0
M  V30 13457 C 1336.29 1.74187 -0.88984 0
M  V30 13458 O 1337.49 2.47871 -1.10779 0
M  V30 13459 C 1335.95 1.23917 -3.37894 0
M  V30 13460 C 1335.56 0.199313 -4.47556 0
M  V30 13461 C 1337.3 1.89788 -3.79712 0
M  V30 13462 C 1335.21 0.781339 -5.86216 0
M  V30 13463 H 1334.14 0.253229 -0.710205 0
M  V30 13464 H 1336.79 -0.0761229 -1.83342 0
M  V30 13465 H 1335.17 2.03429 -3.39754 0
M  V30 13466 H 1336.34 -0.572196 -4.57234 0
M  V30 13467 H 1334.66 -0.359719 -4.14843 0
M  V30 13468 H 1337.26 2.34262 -4.80651 0
M  V30 13469 H 1337.6 2.73406 -3.13934 0
M  V30 13470 H 1338.13 1.16989 -3.80208 0
M  V30 13471 H 1334.87 -0.0163598 -6.55498 0
M  V30 13472 H 1334.39 1.5217 -5.80176 0
M  V30 13473 H 1336.07 1.2759 -6.34295 0
M  V30 13474 N 1336.2 1.55448 0.259558 0
M  V30 13475 C 1337.48 1.6742 1.01143 0
M  V30 13476 C 1337.86 0.549525 2.03822 0
M  V30 13477 O 1337.21 -0.448699 2.24051 0
M  V30 13478 C 1337.42 3.07201 1.65616 0
M  V30 13479 C 1338.77 3.6539 2.16277 0
M  V30 13480 O 1339.79 3.0992 1.7558 0
M  V30 13481 O 1338.65 4.62604 2.90963 0
M  V30 13482 H 1335.74 0.680469 0.469991 0
M  V30 13483 H 1338.29 1.67783 0.254348 0
M  V30 13484 H 1337.06 3.80504 0.912819 0
M  V30 13485 H 1336.68 3.10794 2.47977 0
M  V30 13486 N 1337.68 -0.524672 1.4861 0
M  V30 13487 C 1338.63 -1.62872 1.63527 0
M  V30 13488 C 1339.6 -1.59097 0.477202 0
M  V30 13489 O 1340.78 -1.77443 0.701341 0
M  V30 13490 C 1337.92 -3.01116 1.68592 0
M  V30 13491 C 1337.04 -3.15085 2.95542 0
M  V30 13492 C 1336.17 -4.4392 2.91734 0
M  V30 13493 C 1335.21 -4.51436 4.13366 0
M  V30 13494 N 1334.35 -5.71667 4.07605 0
M  V30 13495 H 1339.19 -1.49462 2.57808 0
M  V30 13496 H 1336.72 -0.727578 1.27846 0
M  V30 13497 H 1338.68 -3.81212 1.6951 0
M  V30 13498 H 1337.31 -3.13285 0.777975 0
M  V30 13499 H 1336.36 -2.28207 3.04345 0
M  V30 13500 H 1337.68 -3.165 3.85524 0
M  V30 13501 H 1336.83 -5.32312 2.91083 0
M  V30 13502 H 1335.57 -4.45034 1.9949 0
M  V30 13503 H 1334.57 -3.6145 4.14287 0
M  V30 13504 H 1335.8 -4.52057 5.06776 0
M  V30 13505 H 1333.74 -5.73668 3.18184 0
M  V30 13506 H 1333.66 -5.74599 4.91297 0
M  V30 13507 H 1334.93 -6.62331 4.1102 0
M  V30 13508 N 1339.16 -1.37287 -0.77395 0
M  V30 13509 C 1340.11 -1.32872 -1.88716 0
M  V30 13510 C 1341.08 -0.194655 -1.64955 0
M  V30 13511 O 1342.26 -0.383662 -1.86903 0
M  V30 13512 C 1339.4 -1.13934 -3.2575 0
M  V30 13513 C 1338.51 -2.36552 -3.61479 0
M  V30 13514 C 1337.65 -2.10504 -4.87711 0
M  V30 13515 C 1336.69 -3.28999 -5.16165 0
M  V30 13516 N 1335.82 -3.02517 -6.33584 0
M  V30 13517 H 1340.66 -2.28051 -1.91825 0
M  V30 13518 H 1338.2 -1.13325 -0.93786 0
M  V30 13519 H 1340.16 -1.00976 -4.04796 0
M  V30 13520 H 1338.79 -0.22404 -3.22022 0
M  V30 13521 H 1337.84 -2.60257 -2.77435 0
M  V30 13522 H 1339.15 -3.24931 -3.78446 0
M  V30 13523 H 1338.31 -1.94564 -5.74656 0
M  V30 13524 H 1337.05 -1.19459 -4.72843 0
M  V30 13525 H 1336.05 -3.4548 -4.27696 0
M  V30 13526 H 1337.28 -4.20892 -5.32942 0
M  V30 13527 H 1335.22 -2.14099 -6.20079 0
M  V30 13528 H 1335.14 -3.84439 -6.50955 0
M  V30 13529 H 1336.41 -2.9019 -7.23471 0
M  V30 13530 N 1340.64 0.999871 -1.21821 0
M  V30 13531 C 1342.05 1.5529 -1.03642 0
M  V30 13532 C 1342.4 1.92032 0.402246 0
M  V30 13533 O 1341.52 1.74027 1.28622 0
M  V30 13534 C 1342.12 2.82177 -1.87514 0
M  V30 13535 C 1340.68 3.33949 -1.73653 0
M  V30 13536 C 1339.82 2.07095 -1.84409 0
M  V30 13537 H 1342.78 0.821751 -1.35768 0
M  V30 13538 H 1342.8 3.54264 -1.38842 0
M  V30 13539 H 1342.31 2.55405 -2.92216 0
M  V30 13540 H 1340.41 3.65645 -0.716554 0
M  V30 13541 H 1340.52 4.05022 -2.55918 0
M  V30 13542 H 1338.89 2.20332 -1.27773 0
M  V30 13543 H 1339.67 1.82728 -2.90629 0
M  V30 13544 N 1342.11 1.02678 1.19562 0
M  V30 13545 C 1343.34 0.741569 1.93154 0
M  V30 13546 C 1343.76 -0.699292 1.75372 0
M  V30 13547 O 1343.11 -1.47533 1.07426 0
M  V30 13548 C 1343.17 1.08064 3.4497 0
M  V30 13549 O 1342.89 2.46492 3.62179 0
M  V30 13550 C 1344.39 0.817935 4.35689 0
M  V30 13551 H 1341.61 0.271506 0.613617 0
M  V30 13552 H 1344.15 1.3707 1.51763 0
M  V30 13553 H 1342.31 0.496723 3.84202 0
M  V30 13554 H 1342.72 2.59053 4.56061 0
M  V30 13555 H 1344.19 1.10517 5.40823 0
M  V30 13556 H 1344.67 -0.247693 4.38501 0
M  V30 13557 H 1345.28 1.38449 4.02134 0
M  V30 13558 N 1343.59 -1.35528 0.804364 0
M  V30 13559 C 1344.82 -2.03604 0.395013 0
M  V30 13560 C 1345.24 -1.60225 -0.985371 0
M  V30 13561 O 1344.6 -0.777844 -1.63766 0
M  V30 13562 C 1344.65 -3.57337 0.484011 0
M  V30 13563 O 1343.75 -4.09316 -0.503395 0
M  V30 13564 H 1343.09 -0.643089 0.165325 0
M  V30 13565 H 1345.62 -1.73171 1.08963 0
M  V30 13566 H 1345.63 -4.0647 0.353009 0
M  V30 13567 H 1344.31 -3.8826 1.49088 0
M  V30 13568 H 1342.89 -3.71412 -0.332817 0
M  V30 13569 N 1345.07 -0.557671 -1.47404 0
M  V30 13570 C 1346.03 0.179311 -2.28498 0
M  V30 13571 C 1347.03 0.842281 -1.36975 0
M  V30 13572 O 1348.22 0.698072 -1.59601 0
M  V30 13573 C 1345.36 1.26229 -3.16668 0
M  V30 13574 H 1346.55 -0.533033 -2.95125 0
M  V30 13575 H 1344.1 -0.314634 -1.531 0
M  V30 13576 H 1344.84 2.00702 -2.54733 0
M  V30 13577 H 1344.62 0.791712 -3.84024 0
M  V30 13578 H 1346.11 1.77991 -3.77768 0
M  V30 13579 N 1346.55 1.54831 -0.294147 0
M  V30 13580 C 1347.5 2.23263 0.58499 0
M  V30 13581 C 1348.47 1.21278 1.13494 0
M  V30 13582 O 1349.65 1.49878 1.18073 0
M  V30 13583 C 1346.79 2.97185 1.75429 0
M  V30 13584 C 1345.9 4.1393 1.23638 0
M  V30 13585 C 1345.04 4.7545 2.36899 0
M  V30 13586 C 1344.08 5.84352 1.82207 0
M  V30 13587 N 1343.22 6.39855 2.89015 0
M  V30 13588 H 1348.06 2.98 -0.00519329 0
M  V30 13589 H 1345.59 1.47093 -0.0143313 0
M  V30 13590 H 1347.55 3.38271 2.4419 0
M  V30 13591 H 1346.18 2.24837 2.3162 0
M  V30 13592 H 1345.23 3.77832 0.441247 0
M  V30 13593 H 1346.54 4.92409 0.795946 0
M  V30 13594 H 1345.7 5.19353 3.1362 0
M  V30 13595 H 1344.44 3.96288 2.84266 0
M  V30 13596 H 1343.44 5.39879 1.03974 0
M  V30 13597 H 1344.67 6.65393 1.35753 0
M  V30 13598 H 1342.61 5.6358 3.35729 0
M  V30 13599 H 1342.53 7.13661 2.49447 0
M  V30 13600 H 1343.8 6.88417 3.65654 0
M  V30 13601 N 1348.03 0.0217466 1.57585 0
M  V30 13602 C 1349.44 -0.51811 1.79367 0
M  V30 13603 C 1349.79 -1.72688 0.931313 0
M  V30 13604 O 1348.91 -2.15949 0.139687 0
M  V30 13605 C 1349.51 -0.946711 3.25304 0
M  V30 13606 C 1348.07 -1.43173 3.48107 0
M  V30 13607 C 1347.22 -0.392996 2.74501 0
M  V30 13608 H 1350.17 0.247822 1.56753 0
M  V30 13609 H 1350.19 -1.81152 3.34611 0
M  V30 13610 H 1349.7 -0.0667536 3.88043 0
M  V30 13611 H 1347.8 -2.33186 2.90612 0
M  V30 13612 H 1347.91 -1.44419 4.56815 0
M  V30 13613 H 1346.28 -0.859471 2.39761 0
M  V30 13614 H 1347.06 0.478368 3.39951 0
M  V30 13615 N 1349.51 -1.55583 -0.251311 0
M  V30 13616 C 1350.73 -1.81597 -1.00186 0
M  V30 13617 C 1351.16 -0.598216 -1.78334 0
M  V30 13618 O 1350.51 0.452667 -1.75558 0
M  V30 13619 C 1350.56 -3.05301 -1.91895 0
M  V30 13620 O 1349.67 -2.81907 -3.01002 0
M  V30 13621 H 1349.01 -0.599578 -0.285311 0
M  V30 13622 H 1351.54 -2.02762 -0.273638 0
M  V30 13623 H 1351.55 -3.34616 -2.33444 0
M  V30 13624 H 1350.22 -3.93574 -1.34433 0
M  V30 13625 H 1348.8 -2.63747 -2.63613 0
M  V30 13626 N 1350.98 0.516783 -1.48886 0
M  V30 13627 C 1352.21 1.30103 -1.61518 0
M  V30 13628 C 1352.63 1.85996 -0.28055 0
M  V30 13629 O 1351.99 1.65075 0.749671 0
M  V30 13630 C 1352.04 2.41837 -2.67483 0
M  V30 13631 O 1351.14 3.45249 -2.25559 0
M  V30 13632 H 1350.48 0.384774 -0.541152 0
M  V30 13633 H 1353.01 0.620424 -1.94966 0
M  V30 13634 H 1353.02 2.87832 -2.89165 0
M  V30 13635 H 1351.7 2.00519 -3.64369 0
M  V30 13636 H 1350.28 3.05281 -2.14144 0
M  V30 13637 N 1352.46 1.37696 0.766659 0
M  V30 13638 C 1353.69 1.3639 1.55581 0
M  V30 13639 C 1354.1 -0.0495272 1.88735 0
M  V30 13640 O 1353.46 -1.01268 1.51826 0
M  V30 13641 C 1353.51 2.20717 2.86298 0
M  V30 13642 O 1353.23 3.56552 2.54563 0
M  V30 13643 C 1354.73 2.27446 3.80504 0
M  V30 13644 H 1351.95 0.466993 0.481828 0
M  V30 13645 H 1354.5 1.81103 0.949834 0
M  V30 13646 H 1352.65 1.79499 3.43306 0
M  V30 13647 H 1353.07 4.00811 3.38306 0
M  V30 13648 H 1354.54 2.90762 4.69214 0
M  V30 13649 H 1355.02 1.28434 4.20002 0
M  V30 13650 H 1355.62 2.68998 3.29424 0
M  V30 13651 N 1353.94 -0.993397 1.22349 0
M  V30 13652 C 1355.17 -1.76838 1.07406 0
M  V30 13653 C 1355.58 -1.8503 -0.37542 0
M  V30 13654 O 1354.94 -1.32008 -1.26016 0
M  V30 13655 C 1354.99 -3.20177 1.67837 0
M  V30 13656 O 1354.71 -3.12429 3.07115 0
M  V30 13657 C 1356.21 -4.14125 1.58161 0
M  V30 13658 H 1353.43 -0.555379 0.376557 0
M  V30 13659 H 1355.98 -1.24893 1.61932 0
M  V30 13660 H 1354.13 -3.69191 1.17375 0
M  V30 13661 H 1354.55 -4.02568 3.36213 0
M  V30 13662 H 1356.02 -5.12455 2.05169 0
M  V30 13663 H 1356.5 -4.35892 0.538073 0
M  V30 13664 H 1357.1 -3.71008 2.07926 0
M  V30 13665 N 1355.42 -1.03311 -1.19015 0
M  V30 13666 C 1356.83 -0.761079 -1.70483 0
M  V30 13667 C 1357.18 0.718851 -1.82557 0
M  V30 13668 O 1356.3 1.56006 -1.4997 0
M  V30 13669 C 1356.9 -1.37492 -3.09647 0
M  V30 13670 C 1355.46 -1.15138 -3.58358 0
M  V30 13671 C 1354.61 -1.47034 -2.35109 0
M  V30 13672 H 1357.56 -1.2005 -1.03797 0
M  V30 13673 H 1357.58 -0.774115 -3.72542 0
M  V30 13674 H 1357.09 -2.45203 -3.00828 0
M  V30 13675 H 1355.19 -0.0926822 -3.72485 0
M  V30 13676 H 1355.3 -1.84307 -4.4223 0
M  V30 13677 H 1353.67 -0.889794 -2.38652 0
M  V30 13678 H 1354.45 -2.55837 -2.28916 0
M  V30 13679 N 1356.9 1.35099 -0.81154 0
M  V30 13680 C 1358.31 1.51701 -0.495883 0
M  V30 13681 C 1358.51 1.7595 0.982035 0
M  V30 13682 O 1357.57 1.8038 1.7669 0
M  V30 13683 C 1358.88 2.68916 -1.34554 0
M  V30 13684 C 1360.43 2.82795 -1.34149 0
M  V30 13685 C 1360.9 4.0304 -2.17538 0
M  V30 13686 N 1362.39 4.10227 -2.151 0
M  V30 13687 C 1363.13 5.02397 -2.76377 0
M  V30 13688 N 1362.63 5.99866 -3.46601 0
M  V30 13689 N 1364.42 4.95181 -2.65992 0
M  V30 13690 H 1356.57 1.17617 -1.76862 0
M  V30 13691 H 1358.83 0.575875 -0.753042 0
M  V30 13692 H 1358.54 2.57591 -2.39458 0
M  V30 13693 H 1358.41 3.63641 -1.00223 0
M  V30 13694 H 1360.8 2.93568 -0.300285 0
M  V30 13695 H 1360.88 1.88912 -1.7247 0
M  V30 13696 H 1360.52 3.93027 -3.21702 0
M  V30 13697 H 1360.45 4.96114 -1.76574 0
M  V30 13698 H 1362.95 3.40454 -1.6401 0
M  V30 13699 H 1363.26 6.66803 -3.90632 0
M  V30 13700 H 1361.6 6.00025 -3.50706 0
M  V30 13701 H 1364.79 4.17991 -2.10715 0
M  V30 13702 H 1364.97 5.6682 -3.14036 0
M  V30 13703 N 1358.37 0.56548 1.47106 0
M  V30 13704 C 1359.3 -0.16567 2.32912 0
M  V30 13705 C 1360.28 -0.900678 1.44298 0
M  V30 13706 O 1361.47 -0.879523 1.73142 0
M  V30 13707 C 1358.6 -1.19092 3.26243 0
M  V30 13708 C 1357.55 -0.571849 4.24163 0
M  V30 13709 C 1356.88 -1.70233 5.06878 0
M  V30 13710 C 1358.18 0.479785 5.20092 0
M  V30 13711 H 1359.87 0.550705 2.94292 0
M  V30 13712 H 1357.42 0.266284 1.41517 0
M  V30 13713 H 1359.37 -1.71064 3.85117 0
M  V30 13714 H 1358.1 -1.93734 2.62934 0
M  V30 13715 H 1356.76 -0.073353 3.66527 0
M  V30 13716 H 1356.4 -2.438 4.39967 0
M  V30 13717 H 1356.1 -1.29384 5.73178 0
M  V30 13718 H 1357.63 -2.22515 5.68612 0
M  V30 13719 H 1359.04 0.0458042 5.73282 0
M  V30 13720 H 1357.44 0.807615 5.94641 0
M  V30 13721 H 1358.51 1.37259 4.65068 0
M  V30 13722 N 1359.85 -1.54672 0.302354 0
M  V30 13723 C 1361.08 -2.05041 -0.311891 0
M  V30 13724 C 1361.5 -1.17814 -1.46634 0
M  V30 13725 O 1360.86 -0.182517 -1.80379 0
M  V30 13726 C 1360.91 -3.52831 -0.744489 0
M  V30 13727 O 1360.01 -3.68621 -1.84913 0
M  V30 13728 H 1359.35 -0.661255 -0.0603102 0
M  V30 13729 H 1361.88 -1.99711 0.444593 0
M  V30 13730 H 1361.89 -3.94708 -1.03293 0
M  V30 13731 H 1360.57 -4.1578 0.0999976 0
M  V30 13732 H 1359.15 -3.38649 -1.56113 0
M  V30 13733 N 1361.33 -0.0301034 -1.57571 0
M  V30 13734 C 1362.75 0.326296 -1.56229 0
M  V30 13735 C 1362.95 1.72839 -1.03581 0
M  V30 13736 O 1362 2.43088 -0.682979 0
M  V30 13737 C 1363.32 0.174001 -3.00196 0
M  V30 13738 C 1364.86 0.246694 -3.12026 0
M  V30 13739 C 1365.34 0.123177 -4.57834 0
M  V30 13740 N 1366.83 0.180129 -4.6285 0
M  V30 13741 C 1367.56 0.108353 -5.73298 0
M  V30 13742 N 1367.06 -0.0145648 -6.92798 0
M  V30 13743 N 1368.85 0.162411 -5.61865 0
M  V30 13744 H 1361 -0.946945 -1.90123 0
M  V30 13745 H 1363.27 -0.365762 -0.874598 0
M  V30 13746 H 1362.97 -0.791871 -3.42669 0
M  V30 13747 H 1362.85 0.943794 -3.65202 0
M  V30 13748 H 1365.23 1.20303 -2.69465 0
M  V30 13749 H 1365.32 -0.553493 -2.4974 0
M  V30 13750 H 1364.96 -0.82974 -5.01077 0
M  V30 13751 H 1364.89 0.94224 -5.18102 0
M  V30 13752 H 1367.38 0.275236 -3.76896 0
M  V30 13753 H 1367.69 -0.062614 -7.72775 0
M  V30 13754 H 1366.04 -0.0493606 -6.94982 0
M  V30 13755 H 1369.23 0.256847 -4.67395 0
M  V30 13756 H 1369.4 0.103013 -6.47918 0
M  V30 13757 N 1362.81 1.55714 0.243056 0
M  V30 13758 C 1363.74 1.93655 1.30461 0
M  V30 13759 C 1364.72 0.801968 1.50008 0
M  V30 13760 O 1365.9 1.06256 1.62552 0
M  V30 13761 C 1363.03 2.23459 2.65863 0
M  V30 13762 C 1361.99 3.39205 2.61006 0
M  V30 13763 C 1361.31 3.5456 4.00239 0
M  V30 13764 C 1362.61 4.74787 2.17656 0
M  V30 13765 H 1364.31 2.82575 0.98954 0
M  V30 13766 H 1361.85 1.35955 0.474572 0
M  V30 13767 H 1363.81 2.48591 3.40266 0
M  V30 13768 H 1362.53 1.31369 2.99014 0
M  V30 13769 H 1361.19 3.14088 1.89061 0
M  V30 13770 H 1360.84 2.59884 4.30661 0
M  V30 13771 H 1360.54 4.32399 3.97876 0
M  V30 13772 H 1362.06 3.82017 4.76335 0
M  V30 13773 H 1363.48 4.99266 2.81792 0
M  V30 13774 H 1361.87 5.55756 2.26397 0
M  V30 13775 H 1362.94 4.7159 1.12831 0
M  V30 13776 N 1364.29 -0.50888 1.49158 0
M  V30 13777 C 1365.25 -1.59354 1.64739 0
M  V30 13778 C 1366.25 -1.52175 0.519557 0
M  V30 13779 O 1367.44 -1.55468 0.785838 0
M  V30 13780 C 1364.57 -2.99002 1.63739 0
M  V30 13781 H 1365.76 -1.46871 2.61474 0
M  V30 13782 H 1363.32 -0.732532 1.38071 0
M  V30 13783 H 1364.05 -3.1697 0.685583 0
M  V30 13784 H 1363.84 -3.05622 2.45637 0
M  V30 13785 H 1365.33 -3.77822 1.77877 0
M  V30 13786 N 1365.76 -1.381 -0.759346 0
M  V30 13787 C 1366.99 -1.37213 -1.54855 0
M  V30 13788 C 1367.41 0.0395175 -1.88759 0
M  V30 13789 O 1366.76 1.00462 -1.5236 0
M  V30 13790 C 1366.82 -2.22232 -2.85123 0
M  V30 13791 O 1366.54 -3.57897 -2.52668 0
M  V30 13792 C 1368.04 -2.29461 -3.79292 0
M  V30 13793 H 1365.26 -0.469542 -0.479345 0
M  V30 13794 H 1367.8 -1.81604 -0.940216 0
M  V30 13795 H 1365.96 -1.81317 -3.42349 0
M  V30 13796 H 1366.37 -4.02599 -3.36176 0
M  V30 13797 H 1367.84 -2.93246 -4.67665 0
M  V30 13798 H 1368.32 -1.3066 -4.19315 0
M  V30 13799 H 1368.93 -2.70741 -3.27993 0
M  V30 13800 N 1367.24 0.986894 -1.22875 0
M  V30 13801 C 1368.19 2.09935 -1.00151 0
M  V30 13802 C 1369.18 1.69303 0.0573751 0
M  V30 13803 O 1370.39 1.79746 -0.0955781 0
M  V30 13804 H 1366.77 0.686605 -0.306721 0
M  V30 13805 H 1368.74 2.26271 -1.94535 0
M  V30 13806 C 1367.49 3.42442 -0.602374 0
M  V30 13807 H 1366.81 3.74154 -1.40886 0
M  V30 13808 H 1368.25 4.21242 -0.482836 0
M  V30 13809 C 1366.71 3.29785 0.688707 0
M  V30 13810 O 1367.24 3.6208 1.73957 0
M  V30 13811 N 1365.44 2.82956 0.662152 0
M  V30 13812 H 1364.99 2.56873 -0.193337 0
M  V30 13813 H 1364.95 2.74869 1.52625 0
M  V30 13814 N 1368.72 1.0394 1.18466 0
M  V30 13815 C 1369.95 0.762014 1.92356 0
M  V30 13816 C 1370.36 -0.680652 1.76104 0
M  V30 13817 O 1369.72 -1.46385 1.08985 0
M  V30 13818 C 1369.77 1.11717 3.43805 0
M  V30 13819 O 1369.49 2.50319 3.59544 0
M  V30 13820 C 1370.99 0.864099 4.34797 0
M  V30 13821 H 1368.21 0.277999 0.610702 0
M  V30 13822 H 1370.76 1.38672 1.503 0
M  V30 13823 H 1368.91 0.537445 3.83654 0
M  V30 13824 H 1369.33 2.63875 4.53288 0
M  V30 13825 H 1370.8 1.16247 5.39621 0
M  V30 13826 H 1371.28 -0.20117 4.38739 0
M  V30 13827 H 1371.88 1.42706 4.00643 0
M  V30 13828 N 1370.2 -1.34667 0.818693 0
M  V30 13829 C 1371.42 -2.03173 0.416585 0
M  V30 13830 C 1371.85 -1.61261 -0.968321 0
M  V30 13831 O 1371.21 -0.79517 -1.62932 0
M  V30 13832 C 1371.25 -3.56803 0.521884 0
M  V30 13833 O 1370.36 -4.09827 -0.459953 0
M  V30 13834 H 1369.7 -0.6413 0.172136 0
M  V30 13835 H 1372.23 -1.72006 1.10794 0
M  V30 13836 H 1372.24 -4.06073 0.3961 0
M  V30 13837 H 1370.91 -3.86656 1.53198 0
M  V30 13838 H 1369.49 -3.71744 -0.293405 0
M  V30 13839 N 1371.68 -0.573274 -1.46804 0
M  V30 13840 C 1372.64 0.155066 -2.28675 0
M  V30 13841 C 1373.64 0.827706 -1.37861 0
M  V30 13842 O 1374.83 0.681105 -1.60333 0
M  V30 13843 C 1371.96 1.22864 -3.1799 0
M  V30 13844 H 1373.15 -0.564305 -2.94543 0
M  V30 13845 H 1370.71 -0.330855 -1.52758 0
M  V30 13846 H 1371.44 1.97989 -2.56848 0
M  V30 13847 H 1371.23 0.750936 -3.84842 0
M  V30 13848 H 1372.72 1.73974 -3.79635 0
M  V30 13849 N 1373.15 1.5451 -0.310553 0
M  V30 13850 C 1374.57 1.85829 0.180166 0
M  V30 13851 C 1374.92 1.23239 1.52665 0
M  V30 13852 O 1374.04 0.53359 2.09718 0
M  V30 13853 C 1374.64 3.37153 0.333687 0
M  V30 13854 C 1373.2 3.68469 0.768625 0
M  V30 13855 C 1372.34 2.77051 -0.117399 0
M  V30 13856 H 1375.29 1.49544 -0.531262 0
M  V30 13857 H 1375.31 3.62171 1.16673 0
M  V30 13858 H 1374.83 3.82678 -0.646455 0
M  V30 13859 H 1372.93 3.28467 1.75898 0
M  V30 13860 H 1373.04 4.75559 0.581392 0
M  V30 13861 H 1371.4 2.51461 0.404905 0
M  V30 13862 H 1372.19 3.254 -1.09407 0
M  V30 13863 N 1374.63 0.0384594 1.57553 0
M  V30 13864 C 1375.91 -0.677308 1.83499 0
M  V30 13865 C 1376.29 -1.89789 0.924294 0
M  V30 13866 O 1375.64 -2.28493 -0.0178185 0
M  V30 13867 C 1375.85 -1.04667 3.32935 0
M  V30 13868 C 1377.2 -1.43436 3.99639 0
M  V30 13869 O 1378.22 -1.13938 3.37486 0
M  V30 13870 O 1377.08 -1.98435 5.09201 0
M  V30 13871 H 1374.17 -0.333131 0.756936 0
M  V30 13872 H 1376.72 0.066854 1.69568 0
M  V30 13873 H 1375.49 -0.178349 3.90893 0
M  V30 13874 H 1375.11 -1.8487 3.52007 0
M  V30 13875 N 1376.11 -1.55841 -0.234795 0
M  V30 13876 C 1377.04 -1.94344 -1.29432 0
M  V30 13877 C 1378.02 -0.809912 -1.49581 0
M  V30 13878 O 1379.21 -1.07117 -1.61986 0
M  V30 13879 C 1376.34 -2.24866 -2.64675 0
M  V30 13880 C 1375.29 -3.40584 -2.59203 0
M  V30 13881 C 1374.62 -3.56678 -3.98353 0
M  V30 13882 C 1375.92 -4.75935 -2.15135 0
M  V30 13883 H 1377.61 -2.83096 -0.97454 0
M  V30 13884 H 1375.16 -1.36205 -0.467355 0
M  V30 13885 H 1377.11 -2.50392 -3.38942 0
M  V30 13886 H 1375.83 -1.32953 -2.98314 0
M  V30 13887 H 1374.49 -3.15087 -1.87393 0
M  V30 13888 H 1374.14 -2.62164 -4.29277 0
M  V30 13889 H 1373.84 -4.34503 -3.95577 0
M  V30 13890 H 1375.37 -3.84538 -4.74302 0
M  V30 13891 H 1376.78 -5.00753 -2.7914 0
M  V30 13892 H 1375.18 -5.56949 -2.23446 0
M  V30 13893 H 1376.25 -4.72182 -1.10328 0
M  V30 13894 N 1377.59 0.500963 -1.49426 0
M  V30 13895 C 1378.54 1.6025 -1.66098 0
M  V30 13896 C 1379.51 1.58318 -0.502453 0
M  V30 13897 O 1380.69 1.76304 -0.729482 0
M  V30 13898 C 1377.83 2.98396 -1.73361 0
M  V30 13899 C 1376.94 3.10343 -3.00518 0
M  V30 13900 C 1376.08 4.39222 -2.9876 0
M  V30 13901 C 1375.12 4.44803 -4.20496 0
M  V30 13902 N 1374.26 5.6511 -4.16648 0
M  V30 13903 H 1379.1 1.45342 -2.60153 0
M  V30 13904 H 1376.63 0.707147 -1.28988 0
M  V30 13905 H 1378.59 3.78467 -1.75553 0
M  V30 13906 H 1377.22 3.12007 -0.827718 0
M  V30 13907 H 1376.27 2.23336 -3.07937 0
M  V30 13908 H 1377.58 3.10327 -3.90511 0
M  V30 13909 H 1376.74 5.27613 -2.99515 0
M  V30 13910 H 1375.48 4.41804 -2.06545 0
M  V30 13911 H 1374.48 3.54814 -4.19985 0
M  V30 13912 H 1375.71 4.43937 -5.13903 0
M  V30 13913 H 1373.65 5.68533 -3.2727 0
M  V30 13914 H 1373.57 5.6671 -5.00376 0
M  V30 13915 H 1374.84 6.55708 -4.21506 0
M  V30 13916 N 1379.07 1.38501 0.752011 0
M  V30 13917 C 1380.02 1.35975 1.88716 0
M  V30 13918 C 1381.01 0.245392 1.67613 0
M  V30 13919 O 1382.22 0.414514 1.75162 0
M  V30 13920 H 1378.59 0.424221 0.620919 0
M  V30 13921 H 1380.56 2.3176 1.87962 0
M  V30 13922 C 1379.31 1.20326 3.26216 0
M  V30 13923 H 1378.63 2.05336 3.43041 0
M  V30 13924 H 1380.07 1.22613 4.05884 0
M  V30 13925 C 1378.53 -0.0897029 3.36781 0
M  V30 13926 O 1379.06 -1.06615 3.87293 0
M  V30 13927 N 1377.27 -0.147065 2.90228 0
M  V30 13928 H 1376.82 0.648216 2.49311 0
M  V30 13929 H 1376.77 -1.01174 2.97676 0
M  V30 13930 N 1380.55 -0.980364 1.23396 0
M  V30 13931 C 1381.79 -1.72421 1.06765 0
M  V30 13932 C 1382.12 -1.90151 -0.394515 0
M  V30 13933 O 1381.4 -1.4538 -1.29209 0
M  V30 13934 C 1381.68 -3.12246 1.79372 0
M  V30 13935 C 1381.54 -3.02087 3.33262 0
M  V30 13936 C 1382.85 -4.11667 1.55624 0
M  V30 13937 H 1379.97 -0.625822 0.389251 0
M  V30 13938 H 1382.62 -1.14132 1.51901 0
M  V30 13939 H 1380.77 -3.62008 1.41004 0
M  V30 13940 H 1382.44 -2.59848 3.81152 0
M  V30 13941 H 1380.68 -2.38592 3.62293 0
M  V30 13942 H 1381.35 -4.01087 3.79254 0
M  V30 13943 H 1383.83 -3.70712 1.88975 0
M  V30 13944 H 1382.7 -5.07593 2.08902 0
M  V30 13945 H 1382.96 -4.39358 0.491601 0
M  V30 13946 N 1382.02 -1.04567 -1.17913 0
M  V30 13947 C 1383.44 -0.76584 -1.40025 0
M  V30 13948 C 1383.64 0.642484 -1.90983 0
M  V30 13949 O 1382.7 1.40589 -2.0974 0
M  V30 13950 C 1384.01 -1.81616 -2.39658 0
M  V30 13951 C 1385.56 -1.83765 -2.53376 0
M  V30 13952 C 1386.03 -2.87803 -3.56277 0
M  V30 13953 N 1387.52 -2.86726 -3.63789 0
M  V30 13954 C 1388.26 -3.63876 -4.4315 0
M  V30 13955 N 1387.75 -4.50793 -5.26077 0
M  V30 13956 N 1389.55 -3.52344 -4.37962 0
M  V30 13957 H 1381.7 -1.95442 -0.831647 0
M  V30 13958 H 1383.96 -0.84593 -0.42791 0
M  V30 13959 H 1383.67 -2.8266 -2.09275 0
M  V30 13960 H 1383.54 -1.65251 -3.39075 0
M  V30 13961 H 1385.93 -0.833896 -2.83073 0
M  V30 13962 H 1386.01 -2.04208 -1.54055 0
M  V30 13963 H 1385.65 -3.88361 -3.2732 0
M  V30 13964 H 1385.58 -2.64614 -4.55288 0
M  V30 13965 H 1388.07 -2.237 -3.04576 0
M  V30 13966 H 1388.39 -5.0636 -5.83798 0
M  V30 13967 H 1386.73 -4.54858 -5.2548 0
M  V30 13968 H 1389.92 -2.8384 -3.72226 0
M  V30 13969 H 1390.1 -4.12718 -4.99568 0
M  V30 13970 N 1383.5 1.34231 -0.825823 0
M  V30 13971 C 1384.73 2.02949 -0.427354 0
M  V30 13972 C 1385.15 1.61772 0.959755 0
M  V30 13973 O 1384.51 0.803799 1.62508 0
M  V30 13974 C 1384.56 3.56522 -0.540799 0
M  V30 13975 O 1383.66 4.10065 0.438213 0
M  V30 13976 H 1383 0.640378 -0.175535 0
M  V30 13977 H 1385.53 1.71416 -1.11704 0
M  V30 13978 H 1385.54 4.05857 -0.41763 0
M  V30 13979 H 1384.22 3.85839 -1.55246 0
M  V30 13980 H 1382.79 3.71894 0.273687 0
M  V30 13981 N 1384.98 0.581051 1.46498 0
M  V30 13982 C 1385.93 -0.153147 2.30291 0
M  V30 13983 C 1386.9 -0.885681 1.40517 0
M  V30 13984 O 1388.08 -0.876678 1.69467 0
M  V30 13985 C 1385.22 -1.16193 3.24951 0
M  V30 13986 C 1384.33 -0.433016 4.29824 0
M  V30 13987 C 1383.47 -1.42918 5.11613 0
M  V30 13988 C 1382.51 -0.686576 6.08237 0
M  V30 13989 N 1381.65 -1.63072 6.829 0
M  V30 13990 H 1386.49 0.56747 2.92547 0
M  V30 13991 H 1384.02 0.29166 1.4418 0
M  V30 13992 H 1385.98 -1.75965 3.78275 0
M  V30 13993 H 1384.61 -1.85028 2.64508 0
M  V30 13994 H 1383.66 0.279707 3.7937 0
M  V30 13995 H 1384.97 0.147604 4.98582 0
M  V30 13996 H 1384.13 -2.09975 5.69206 0
M  V30 13997 H 1382.87 -2.04373 4.42813 0
M  V30 13998 H 1381.87 -0.00222013 5.498 0
M  V30 13999 H 1383.1 -0.0774416 6.79056 0
M  V30 14000 H 1381.04 -2.2334 6.1681 0
M  V30 14001 H 1380.96 -1.10286 7.47912 0
M  V30 14002 H 1382.23 -2.29169 7.45052 0
M  V30 14003 N 1386.46 -1.54343 0.318742 0
M  V30 14004 C 1387.7 -2.00777 -0.285699 0
M  V30 14005 C 1388.04 -1.20664 -1.52164 0
M  V30 14006 O 1387.31 -0.287674 -1.92361 0
M  V30 14007 C 1387.59 -3.54641 -0.624649 0
M  V30 14008 C 1387.45 -4.45483 0.621663 0
M  V30 14009 C 1388.77 -4.15729 -1.4442 0
M  V30 14010 H 1385.89 -0.729856 -0.102367 0
M  V30 14011 H 1388.53 -1.84968 0.434364 0
M  V30 14012 H 1386.68 -3.68243 -1.23811 0
M  V30 14013 H 1388.35 -4.43759 1.25998 0
M  V30 14014 H 1386.59 -4.15356 1.25148 0
M  V30 14015 H 1387.26 -5.50951 0.340106 0
M  V30 14016 H 1389.74 -4.05672 -0.925699 0
M  V30 14017 H 1388.62 -5.23509 -1.65013 0
M  V30 14018 H 1388.88 -3.68743 -2.43887 0
M  V30 14019 N 1387.94 -0.0468143 -1.5753 0
M  V30 14020 C 1389.18 0.626699 -1.92138 0
M  V30 14021 C 1389.5 1.7164 -0.925463 0
M  V30 14022 O 1388.77 1.95876 0.0303531 0
M  V30 14023 H 1387.35 0.234479 -0.709245 0
M  V30 14024 H 1390.02 -0.0987892 -1.94649 0
M  V30 14025 H 1389.11 1.06811 -2.93254 0
M  V30 14026 N 1389.41 1.55964 0.226527 0
M  V30 14027 C 1390.64 1.83168 0.972846 0
M  V30 14028 C 1391.06 0.626512 1.7736 0
M  V30 14029 O 1390.42 -0.42468 1.76256 0
M  V30 14030 C 1390.47 3.08315 1.87014 0
M  V30 14031 O 1389.57 2.8666 2.96479 0
M  V30 14032 H 1388.92 0.604041 0.275736 0
M  V30 14033 H 1391.45 2.03172 0.241345 0
M  V30 14034 H 1391.46 3.38288 2.28091 0
M  V30 14035 H 1390.13 3.95663 1.28154 0
M  V30 14036 H 1388.71 2.67907 2.59384 0
M  V30 14037 N 1390.89 -0.493031 1.4969 0
M  V30 14038 C 1392.12 -1.27046 1.633 0
M  V30 14039 C 1392.54 -1.86278 0.307534 0
M  V30 14040 O 1391.89 -1.68208 -0.707968 0
M  V30 14041 C 1391.94 -2.39501 2.70779 0
M  V30 14042 O 1391.66 -1.82702 3.98185 0
M  V30 14043 C 1393.17 -3.30744 2.95166 0
M  V30 14044 H 1390.39 -0.385042 0.54953 0
M  V30 14045 H 1392.93 -0.590998 1.95774 0
M  V30 14046 H 1391.08 -3.03263 2.41061 0
M  V30 14047 H 1391.5 -2.56588 4.57452 0
M  V30 14048 H 1392.97 -4.05912 3.74085 0
M  V30 14049 H 1393.45 -3.88217 2.05387 0
M  V30 14050 H 1394.06 -2.72741 3.26332 0
M  V30 14051 N 1392.37 -1.38898 -0.744656 0
M  V30 14052 C 1393.28 -1.39098 -1.88915 0
M  V30 14053 C 1394.3 -0.286956 -1.71617 0
M  V30 14054 O 1395.47 -0.526852 -1.94387 0
M  V30 14055 C 1392.54 -1.22352 -3.24393 0
M  V30 14056 C 1391.6 -2.4264 -3.54153 0
M  V30 14057 C 1390.83 -2.26683 -4.83167 0
M  V30 14058 O 1391.05 -1.26523 -5.56191 0
M  V30 14059 O 1389.99 -3.15464 -5.12607 0
M  V30 14060 H 1393.81 -2.35551 -1.91701 0
M  V30 14061 H 1391.4 -1.19911 -0.891158 0
M  V30 14062 H 1393.28 -1.15109 -4.05374 0
M  V30 14063 H 1391.96 -0.289886 -3.22399 0
M  V30 14064 H 1390.86 -2.55459 -2.73298 0
M  V30 14065 H 1392.2 -3.34664 -3.60917 0
M  V30 14066 N 1393.85 0.973806 -1.23914 0
M  V30 14067 C 1394.8 2.08861 -1.02372 0
M  V30 14068 C 1395.79 1.69354 0.039415 0
M  V30 14069 O 1397 1.79635 -0.114637 0
M  V30 14070 H 1393.37 0.683313 -0.313986 0
M  V30 14071 H 1395.34 2.24195 -1.96924 0
M  V30 14072 C 1394.09 3.41784 -0.638661 0
M  V30 14073 H 1393.41 3.72639 -1.44846 0
M  V30 14074 H 1394.85 4.20706 -0.527487 0
M  V30 14075 C 1393.31 3.30497 0.65369 0
M  V30 14076 O 1393.84 3.63905 1.70107 0
M  V30 14077 N 1392.05 2.83642 0.632104 0
M  V30 14078 H 1391.6 2.56654 -0.220571 0
M  V30 14079 H 1391.55 2.76472 1.49701 0
M  V30 14080 N 1395.33 1.05191 1.17357 0
M  V30 14081 C 1396.58 0.757104 1.86951 0
M  V30 14082 C 1396.89 -0.718637 1.8192 0
M  V30 14083 O 1398.09 -1.12739 2.46986 0
M  V30 14084 C 1396.55 1.30409 3.35442 0
M  V30 14085 C 1396.16 2.80928 3.48975 0
M  V30 14086 C 1397.9 1.08633 4.10365 0
M  V30 14087 C 1395.81 3.28927 4.91488 0
M  V30 14088 H 1394.74 0.279525 0.700273 0
M  V30 14089 H 1397.39 1.2692 1.32528 0
M  V30 14090 H 1395.77 0.719812 3.89403 0
M  V30 14091 H 1396.95 3.45211 3.05231 0
M  V30 14092 H 1395.26 3.01245 2.87473 0
M  V30 14093 H 1397.86 1.41996 5.15501 0
M  V30 14094 H 1398.2 0.0240903 4.16293 0
M  V30 14095 H 1398.73 1.63581 3.6261 0
M  V30 14096 H 1395.47 4.34581 4.90734 0
M  V30 14097 H 1394.99 2.69386 5.35902 0
M  V30 14098 H 1396.67 3.23605 5.60258 0
M  V30 14099 N 1396.8 -1.33791 0.83293 0
M  V30 14100 C 1397.75 -2.29332 0.25989 0
M  V30 14101 C 1398.72 -1.54056 -0.620965 0
M  V30 14102 O 1399.91 -1.82382 -0.560492 0
M  V30 14103 C 1397.05 -3.40461 -0.563964 0
M  V30 14104 C 1396.16 -4.30658 0.34025 0
M  V30 14105 C 1395.29 -5.28897 -0.494134 0
M  V30 14106 C 1394.33 -6.10733 0.408842 0
M  V30 14107 N 1393.47 -7.01032 -0.38706 0
M  V30 14108 H 1398.31 -2.77743 1.07996 0
M  V30 14109 H 1395.85 -1.3667 0.544043 0
M  V30 14110 H 1397.81 -4.03587 -1.05704 0
M  V30 14111 H 1396.44 -2.93258 -1.34905 0
M  V30 14112 H 1395.49 -3.68305 0.9516 0
M  V30 14113 H 1396.8 -4.87962 1.03415 0
M  V30 14114 H 1395.95 -5.97522 -1.05128 0
M  V30 14115 H 1394.69 -4.72155 -1.2215 0
M  V30 14116 H 1393.7 -5.41031 0.978046 0
M  V30 14117 H 1394.92 -6.69557 1.13448 0
M  V30 14118 H 1392.87 -6.46747 -1.09792 0
M  V30 14119 H 1392.79 -7.55592 0.248249 0
M  V30 14120 H 1394.05 -7.73973 -0.926631 0
M  V30 14121 N 1398.28 -0.588812 -1.46187 0
M  V30 14122 C 1399.23 0.161973 -2.27424 0
M  V30 14123 C 1400.22 0.856178 -1.36229 0
M  V30 14124 O 1401.41 0.749266 -1.60359 0
M  V30 14125 C 1398.54 1.17104 -3.2271 0
M  V30 14126 C 1397.62 0.478637 -4.2139 0
M  V30 14127 N 1398.01 -0.46921 -5.03619 0
M  V30 14128 C 1396.31 0.728608 -4.40008 0
M  V30 14129 C 1397.01 -0.874455 -5.7509 0
M  V30 14130 N 1395.99 -0.222267 -5.43145 0
M  V30 14131 H 1399.79 -0.566306 -2.88392 0
M  V30 14132 H 1397.31 -0.41106 -1.57112 0
M  V30 14133 H 1399.3 1.72314 -3.79623 0
M  V30 14134 H 1397.96 1.90008 -2.63301 0
M  V30 14135 H 1398.97 -0.84504 -5.10959 0
M  V30 14136 H 1395.65 1.44375 -3.91742 0
M  V30 14137 H 1397.04 -1.65514 -6.51195 0
M  V30 14138 N 1399.76 1.54172 -0.326923 0
M  V30 14139 C 1400.69 2.21958 0.571588 0
M  V30 14140 C 1401.71 1.22067 1.0772 0
M  V30 14141 O 1402.89 1.48517 0.990202 0
M  V30 14142 C 1399.99 2.87307 1.79744 0
M  V30 14143 C 1399.17 4.13366 1.42995 0
M  V30 14144 C 1398.23 4.62276 2.5137 0
M  V30 14145 O 1397.25 5.2688 2.15373 0
M  V30 14146 N 1398.45 4.36789 3.82355 0
M  V30 14147 H 1401.22 2.99699 -0.00885848 0
M  V30 14148 H 1398.78 1.61201 -0.150279 0
M  V30 14149 H 1400.77 3.1695 2.51644 0
M  V30 14150 H 1399.34 2.13252 2.28566 0
M  V30 14151 H 1398.56 3.9045 0.542444 0
M  V30 14152 H 1399.85 4.95396 1.16017 0
M  V30 14153 H 1399.25 3.85086 4.14397 0
M  V30 14154 H 1397.81 4.71079 4.50475 0
M  V30 14155 N 1401.24 0.0551678 1.57503 0
M  V30 14156 C 1402.65 -0.479948 1.80426 0
M  V30 14157 C 1403 -1.70673 0.967733 0
M  V30 14158 O 1402.13 -2.15604 0.185462 0
M  V30 14159 C 1402.72 -0.877496 3.27239 0
M  V30 14160 C 1401.28 -1.35757 3.51066 0
M  V30 14161 C 1400.43 -0.334681 2.75273 0
M  V30 14162 H 1403.38 0.281016 1.56192 0
M  V30 14163 H 1403.4 -1.74013 3.38378 0
M  V30 14164 H 1402.91 0.015571 3.88097 0
M  V30 14165 H 1401.01 -2.26969 2.95492 0
M  V30 14166 H 1401.12 -1.34697 4.59776 0
M  V30 14167 H 1399.49 -0.808421 2.4153 0
M  V30 14168 H 1400.27 0.550369 3.3886 0
M  V30 14169 N 1402.72 -1.56081 -0.218252 0
M  V30 14170 C 1403.96 -1.78893 -0.940296 0
M  V30 14171 C 1404.29 -0.62425 -1.84738 0
M  V30 14172 O 1403.56 0.358686 -1.92588 0
M  V30 14173 H 1402.14 -0.659828 -0.350193 0
M  V30 14174 H 1404.8 -1.93546 -0.229316 0
M  V30 14175 H 1403.89 -2.71167 -1.54516 0
M  V30 14176 N 1404.2 0.485086 -1.49949 0
M  V30 14177 C 1405.44 1.23571 -1.5992 0
M  V30 14178 C 1405.76 1.92754 -0.295108 0
M  V30 14179 O 1405.03 1.83474 0.686582 0
M  V30 14180 H 1403.61 0.459104 -0.589264 0
M  V30 14181 H 1406.28 0.560822 -1.86657 0
M  V30 14182 H 1405.37 1.99114 -2.40333 0
M  V30 14183 N 1405.67 1.39291 0.737279 0
M  V30 14184 C 1406.92 1.36121 1.49384 0
M  V30 14185 C 1407.24 -0.0429406 1.94953 0
M  V30 14186 O 1406.51 -0.993756 1.68823 0
M  V30 14187 H 1405.09 0.500916 0.554159 0
M  V30 14188 H 1407.75 1.74134 0.875402 0
M  V30 14189 H 1406.85 2.02246 2.37704 0
M  V30 14190 N 1407.15 -0.967221 1.24429 0
M  V30 14191 C 1408.57 -1.23594 1.00979 0
M  V30 14192 C 1408.77 -1.99529 -0.281112 0
M  V30 14193 O 1407.82 -2.31977 -0.997139 0
M  V30 14194 C 1409.14 -2.02261 2.22511 0
M  V30 14195 C 1410.68 -2.15352 2.2714 0
M  V30 14196 C 1411.16 -2.97414 3.48294 0
M  V30 14197 N 1412.65 -3.04996 3.48614 0
M  V30 14198 C 1413.39 -3.68851 4.39017 0
M  V30 14199 N 1412.88 -4.34421 5.39676 0
M  V30 14200 N 1414.67 -3.65868 4.26728 0
M  V30 14201 H 1406.83 -0.458881 2.07384 0
M  V30 14202 H 1409.09 -0.265411 0.910088 0
M  V30 14203 H 1408.79 -1.53852 3.16263 0
M  V30 14204 H 1408.67 -3.02993 2.24667 0
M  V30 14205 H 1411.06 -2.62964 1.33919 0
M  V30 14206 H 1411.14 -1.13966 2.2901 0
M  V30 14207 H 1410.78 -2.50495 4.41831 0
M  V30 14208 H 1410.71 -3.98998 3.43668 0
M  V30 14209 H 1413.2 -2.58354 2.75793 0
M  V30 14210 H 1413.51 -4.80965 6.04891 0
M  V30 14211 H 1411.86 -4.33089 5.43562 0
M  V30 14212 H 1415.05 -3.13819 3.47325 0
M  V30 14213 H 1415.22 -4.15349 4.97382 0
M  V30 14214 N 1408.63 -1.05812 -1.16797 0
M  V30 14215 C 1409.59 -0.668766 -2.19226 0
M  V30 14216 C 1410.59 0.28299 -1.5829 0
M  V30 14217 O 1411.78 0.0660233 -1.74075 0
M  V30 14218 C 1408.91 0.0167379 -3.40896 0
M  V30 14219 H 1410.11 -1.57543 -2.55187 0
M  V30 14220 H 1407.66 -0.852753 -1.30988 0
M  V30 14221 H 1408.4 0.936382 -3.10487 0
M  V30 14222 H 1408.18 -0.667576 -3.86375 0
M  V30 14223 H 1409.67 0.275041 -4.16693 0
M  V30 14224 N 1410.11 1.33347 -0.840014 0
M  V30 14225 C 1411.05 2.29191 -0.272048 0
M  V30 14226 C 1412.02 1.54383 0.612787 0
M  V30 14227 O 1413.21 1.82676 0.550812 0
M  V30 14228 C 1410.35 3.40755 0.545901 0
M  V30 14229 C 1409.46 4.30471 -0.363084 0
M  V30 14230 C 1408.6 5.29151 0.466078 0
M  V30 14231 C 1407.64 6.10508 -0.441225 0
M  V30 14232 N 1406.77 7.01228 0.349877 0
M  V30 14233 H 1411.61 2.77166 -1.09467 0
M  V30 14234 H 1409.15 1.36379 -0.551284 0
M  V30 14235 H 1411.11 4.04142 1.03562 0
M  V30 14236 H 1409.74 2.9397 1.33348 0
M  V30 14237 H 1408.79 3.67795 -0.971119 0
M  V30 14238 H 1410.1 4.87406 -1.06002 0
M  V30 14239 H 1409.26 5.98072 1.01957 0
M  V30 14240 H 1408 4.72796 1.19644 0
M  V30 14241 H 1407 5.40504 -1.00672 0
M  V30 14242 H 1408.23 6.68946 -1.16997 0
M  V30 14243 H 1406.17 6.4732 1.0636 0
M  V30 14244 H 1406.09 7.5545 -0.288317 0
M  V30 14245 H 1407.36 7.74453 0.885573 0
M  V30 14246 N 1411.59 0.596556 1.45873 0
M  V30 14247 C 1412.83 0.0875879 2.02611 0
M  V30 14248 C 1413.16 -1.27438 1.46538 0
M  V30 14249 O 1412.44 -1.83815 0.635779 0
M  V30 14250 C 1412.72 0.0367394 3.60081 0
M  V30 14251 C 1412.58 1.42859 4.26511 0
M  V30 14252 C 1413.89 -0.656795 4.35171 0
M  V30 14253 H 1411.01 0.0333031 0.736247 0
M  V30 14254 H 1413.66 0.766413 1.73857 0
M  V30 14255 H 1411.81 -0.541345 3.8471 0
M  V30 14256 H 1413.48 2.0529 4.13102 0
M  V30 14257 H 1411.72 1.99243 3.85337 0
M  V30 14258 H 1412.39 1.34535 5.35354 0
M  V30 14259 H 1414.87 -0.165553 4.15771 0
M  V30 14260 H 1413.74 -0.661445 5.449 0
M  V30 14261 H 1414 -1.72079 4.07236 0
M  V30 14262 N 1413.06 -1.53996 0.335095 0
M  V30 14263 C 1413.97 -2.28436 -0.534244 0
M  V30 14264 C 1414.99 -1.33224 -1.11926 0
M  V30 14265 O 1416.17 -1.66252 -1.13676 0
M  V30 14266 C 1413.23 -3.03634 -1.67354 0
M  V30 14267 C 1412.29 -4.14455 -1.11916 0
M  V30 14268 C 1411.52 -4.86058 -2.20416 0
M  V30 14269 O 1411.75 -4.57263 -3.40979 0
M  V30 14270 O 1410.68 -5.72704 -1.85185 0
M  V30 14271 H 1414.51 -3.03618 0.0706314 0
M  V30 14272 H 1412.09 -1.49062 0.100409 0
M  V30 14273 H 1413.97 -3.50687 -2.33659 0
M  V30 14274 H 1412.65 -2.31317 -2.26438 0
M  V30 14275 H 1411.56 -3.71725 -0.420871 0
M  V30 14276 H 1412.89 -4.8885 -0.573295 0
M  V30 14277 N 1414.54 -0.0635198 -1.57472 0
M  V30 14278 C 1415.49 0.906604 -2.12248 0
M  V30 14279 C 1416.46 1.30078 -1.0329 0
M  V30 14280 O 1417.64 1.38809 -1.30907 0
M  V30 14281 C 1414.78 2.1718 -2.68192 0
M  V30 14282 C 1413.9 1.831 -3.91278 0
M  V30 14283 C 1413.03 3.0417 -4.35493 0
M  V30 14284 C 1412.07 2.66069 -5.51248 0
M  V30 14285 N 1411.21 3.79871 -5.9046 0
M  V30 14286 H 1416.05 0.432606 -2.94843 0
M  V30 14287 H 1413.58 0.201895 -1.45708 0
M  V30 14288 H 1415.54 2.91231 -2.98732 0
M  V30 14289 H 1414.17 2.62135 -1.88375 0
M  V30 14290 H 1413.22 0.991473 -3.67252 0
M  V30 14291 H 1414.54 1.51063 -4.75375 0
M  V30 14292 H 1413.69 3.86507 -4.6765 0
M  V30 14293 H 1412.43 3.39395 -3.50232 0
M  V30 14294 H 1411.43 1.82151 -5.1875 0
M  V30 14295 H 1412.66 2.32023 -6.38234 0
M  V30 14296 H 1410.61 4.14873 -5.0815 0
M  V30 14297 H 1410.52 3.51573 -6.69277 0
M  V30 14298 H 1411.79 4.62811 -6.27237 0
M  V30 14299 N 1416.02 1.56195 0.209972 0
M  V30 14300 C 1416.97 1.93355 1.26026 0
M  V30 14301 C 1417.94 0.792195 1.45991 0
M  V30 14302 O 1419.12 1.04909 1.5937 0
M  V30 14303 C 1416.26 2.26558 2.60318 0
M  V30 14304 C 1415.37 3.53685 2.48055 0
M  V30 14305 C 1414.51 3.76279 3.7495 0
M  V30 14306 C 1413.55 4.96881 3.57457 0
M  V30 14307 N 1412.69 5.15806 4.76328 0
M  V30 14308 H 1417.53 2.82907 0.936357 0
M  V30 14309 H 1415.06 1.40015 0.451022 0
M  V30 14310 H 1417.02 2.43821 3.38537 0
M  V30 14311 H 1415.65 1.40165 2.90781 0
M  V30 14312 H 1414.7 3.44551 1.61211 0
M  V30 14313 H 1416.01 4.42057 2.31056 0
M  V30 14314 H 1415.17 3.93702 4.6161 0
M  V30 14315 H 1413.91 2.86209 3.94887 0
M  V30 14316 H 1412.91 4.79397 2.69181 0
M  V30 14317 H 1414.14 5.88447 3.38979 0
M  V30 14318 H 1412.08 4.28681 4.96557 0
M  V30 14319 H 1412 5.98332 4.62099 0
M  V30 14320 H 1413.27 5.37674 5.64382 0
M  V30 14321 N 1417.5 -0.477127 1.50204 0
M  V30 14322 C 1418.73 -1.25307 1.64638 0
M  V30 14323 C 1419.14 -1.85942 0.327274 0
M  V30 14324 O 1418.5 -1.6895 -0.690088 0
M  V30 14325 C 1418.55 -2.36616 2.73304 0
M  V30 14326 O 1418.27 -1.78469 4.00101 0
M  V30 14327 C 1419.77 -3.27595 2.98658 0
M  V30 14328 H 1416.99 -0.379192 0.553583 0
M  V30 14329 H 1419.53 -0.5702 1.9639 0
M  V30 14330 H 1417.69 -3.00689 2.44264 0
M  V30 14331 H 1418.1 -2.51722 4.60148 0
M  V30 14332 H 1419.58 -4.01921 3.7837 0
M  V30 14333 H 1420.05 -3.86017 2.09493 0
M  V30 14334 H 1420.66 -2.69264 3.29206 0
M  V30 14335 N 1418.98 -1.3968 -0.729882 0
M  V30 14336 C 1419.89 -1.41094 -1.87429 0
M  V30 14337 C 1420.9 -0.305142 -1.71303 0
M  V30 14338 O 1422.08 -0.54744 -1.93817 0
M  V30 14339 C 1419.14 -1.25786 -3.23077 0
M  V30 14340 C 1418.2 -2.46382 -3.5156 0
M  V30 14341 C 1417.44 -2.31795 -4.80735 0
M  V30 14342 O 1417.66 -1.32415 -5.54818 0
M  V30 14343 O 1416.59 -3.20883 -5.09232 0
M  V30 14344 H 1420.42 -2.37571 -1.89192 0
M  V30 14345 H 1418.01 -1.2085 -0.878389 0
M  V30 14346 H 1419.89 -1.19402 -4.0413 0
M  V30 14347 H 1418.56 -0.324065 -3.22074 0
M  V30 14348 H 1417.47 -2.58343 -2.70573 0
M  V30 14349 H 1418.8 -3.38473 -3.57347 0
M  V30 14350 N 1420.45 0.960609 -1.2494 0
M  V30 14351 C 1421.42 2.03791 -1.04891 0
M  V30 14352 C 1422.42 1.608 -0.00375792 0
M  V30 14353 O 1423.61 1.72463 -0.24539 0
M  V30 14354 C 1420.74 3.35733 -0.591309 0
M  V30 14355 H 1421.93 2.2301 -2.00516 0
M  V30 14356 H 1419.49 1.13686 -1.07263 0
M  V30 14357 H 1420.22 3.22207 0.367816 0
M  V30 14358 H 1420.01 3.68283 -1.34574 0
M  V30 14359 H 1421.5 4.14921 -0.472283 0
M  V30 14360 N 1421.93 1.0643 1.16234 0
M  V30 14361 C 1422.9 0.680383 2.18869 0
M  V30 14362 C 1423.9 -0.274591 1.58438 0
M  V30 14363 O 1425.09 -0.0567907 1.74107 0
M  V30 14364 C 1422.22 0.00134091 3.409 0
M  V30 14365 H 1423.41 1.58894 2.54347 0
M  V30 14366 H 1420.96 0.859688 1.30534 0
M  V30 14367 H 1421.7 -0.919903 3.1098 0
M  V30 14368 H 1421.48 0.688057 3.86016 0
M  V30 14369 H 1422.97 -0.252938 4.16833 0
M  V30 14370 N 1423.41 -1.329 0.847073 0
M  V30 14371 C 1424.37 -2.27341 0.291324 0
M  V30 14372 C 1425.37 -1.51295 -0.544653 0
M  V30 14373 O 1426.56 -1.70497 -0.357258 0
M  V30 14374 C 1423.7 -3.35779 -0.588668 0
M  V30 14375 H 1424.89 -2.78009 1.12477 0
M  V30 14376 H 1422.44 -1.43442 0.620803 0
M  V30 14377 H 1423.18 -2.90366 -1.44423 0
M  V30 14378 H 1422.96 -3.92099 0.00960515 0
M  V30 14379 H 1424.45 -4.06166 -0.970526 0
M  V30 14380 N 1424.89 -0.604284 -1.45555 0
M  V30 14381 C 1426.12 -0.104452 -2.06636 0
M  V30 14382 C 1426.53 1.20976 -1.44949 0
M  V30 14383 O 1425.89 1.73616 -0.562468 0
M  V30 14384 C 1425.94 0.0451646 -3.61472 0
M  V30 14385 O 1425.66 -1.21705 -4.20856 0
M  V30 14386 C 1427.16 0.57684 -4.39531 0
M  V30 14387 H 1424.38 -0.067326 -0.667614 0
M  V30 14388 H 1426.93 -0.831079 -1.86851 0
M  V30 14389 H 1425.08 0.722104 -3.80611 0
M  V30 14390 H 1425.49 -1.04462 -5.13992 0
M  V30 14391 H 1426.97 0.630627 -5.48386 0
M  V30 14392 H 1427.45 1.59842 -4.09081 0
M  V30 14393 H 1428.05 -0.0659444 -4.25249 0
M  V30 14394 N 1426.37 1.53816 -0.343257 0
M  V30 14395 C 1427.59 2.05326 0.254744 0
M  V30 14396 C 1428.01 1.21824 1.44237 0
M  V30 14397 O 1427.37 0.253507 1.80731 0
M  V30 14398 C 1427.42 3.55235 0.670075 0
M  V30 14399 O 1427.14 4.35568 -0.470322 0
M  V30 14400 C 1428.64 4.22915 1.32882 0
M  V30 14401 H 1425.86 0.669191 0.0492324 0
M  V30 14402 H 1428.4 1.98415 -0.495159 0
M  V30 14403 H 1426.56 3.6237 1.36992 0
M  V30 14404 H 1426.97 5.24315 -0.139303 0
M  V30 14405 H 1428.45 5.29197 1.57019 0
M  V30 14406 H 1428.92 3.75244 2.28229 0
M  V30 14407 H 1429.53 4.19973 0.67102 0
M  V30 14408 N 1427.84 0.0718701 1.57436 0
M  V30 14409 C 1429.26 -0.28476 1.57039 0
M  V30 14410 C 1429.46 -1.70032 1.08127 0
M  V30 14411 O 1428.52 -2.41191 0.747189 0
M  V30 14412 C 1429.83 -0.0943482 3.00552 0
M  V30 14413 C 1431.38 -0.163879 3.12571 0
M  V30 14414 C 1431.85 -0.00174658 4.58 0
M  V30 14415 N 1433.34 -0.0573489 4.63164 0
M  V30 14416 C 1434.08 0.0436849 5.73383 0
M  V30 14417 N 1433.57 0.198243 6.92516 0
M  V30 14418 N 1435.37 -0.0133856 5.62098 0
M  V30 14419 H 1427.52 0.99702 1.87545 0
M  V30 14420 H 1429.78 0.388822 0.864593 0
M  V30 14421 H 1429.49 0.882445 3.40449 0
M  V30 14422 H 1429.36 -0.846636 3.67576 0
M  V30 14423 H 1431.75 -1.13116 2.7256 0
M  V30 14424 H 1431.83 0.619513 2.48185 0
M  V30 14425 H 1431.47 0.9623 4.98701 0
M  V30 14426 H 1431.4 -0.804543 5.20418 0
M  V30 14427 H 1433.89 -0.175212 3.77494 0
M  V30 14428 H 1434.21 0.267479 7.72337 0
M  V30 14429 H 1432.55 0.233606 6.94607 0
M  V30 14430 H 1435.74 -0.132835 4.67911 0
M  V30 14431 H 1435.92 0.0688076 6.47963 0
M  V30 14432 N 1429.32 -1.56304 -0.201686 0
M  V30 14433 C 1430.27 -1.94021 -1.24999 0
M  V30 14434 C 1431.24 -0.799926 -1.45569 0
M  V30 14435 O 1432.42 -1.05752 -1.58811 0
M  V30 14436 C 1429.56 -2.27935 -2.59113 0
M  V30 14437 C 1428.68 -3.54995 -2.46176 0
M  V30 14438 C 1427.81 -3.78262 -3.72949 0
M  V30 14439 C 1426.85 -4.9877 -3.54817 0
M  V30 14440 N 1425.99 -5.18325 -4.73586 0
M  V30 14441 H 1430.83 -2.834 -0.92134 0
M  V30 14442 H 1428.37 -1.40252 -0.44359 0
M  V30 14443 H 1430.32 -2.45613 -3.37239 0
M  V30 14444 H 1428.95 -1.41705 -2.90034 0
M  V30 14445 H 1428.01 -3.45401 -1.59381 0
M  V30 14446 H 1429.32 -4.43277 -2.28708 0
M  V30 14447 H 1428.47 -3.96144 -4.59516 0
M  V30 14448 H 1427.21 -2.88299 -3.93364 0
M  V30 14449 H 1426.22 -4.80818 -2.66635 0
M  V30 14450 H 1427.44 -5.90237 -3.35854 0
M  V30 14451 H 1425.39 -4.31308 -4.94277 0
M  V30 14452 H 1425.3 -6.00774 -4.58919 0
M  V30 14453 H 1426.57 -5.40659 -5.61523 0
M  V30 14454 N 1430.8 0.469154 -1.50455 0
M  V30 14455 C 1432.21 1.04997 -1.54378 0
M  V30 14456 C 1432.56 1.93082 -0.348414 0
M  V30 14457 O 1431.69 2.09594 0.538469 0
M  V30 14458 C 1432.28 1.91096 -2.79764 0
M  V30 14459 C 1430.84 2.44283 -2.86361 0
M  V30 14460 C 1429.99 1.22676 -2.48688 0
M  V30 14461 H 1432.94 0.251692 -1.56691 0
M  V30 14462 H 1432.96 2.76186 -2.61728 0
M  V30 14463 H 1432.47 1.26961 -3.66746 0
M  V30 14464 H 1430.57 3.11966 -2.03735 0
M  V30 14465 H 1430.69 2.79258 -3.89297 0
M  V30 14466 H 1429.05 1.56215 -2.01169 0
M  V30 14467 H 1429.83 0.602002 -3.37981 0
M  V30 14468 N 1432.28 1.40065 0.722464 0
M  V30 14469 C 1433.19 1.42086 1.86678 0
M  V30 14470 C 1434.2 0.314223 1.71139 0
M  V30 14471 O 1435.38 0.55771 1.93524 0
M  V30 14472 C 1432.45 1.27498 3.22405 0
M  V30 14473 C 1431.51 2.48243 3.50248 0
M  V30 14474 C 1430.74 2.34342 4.79499 0
M  V30 14475 O 1430.96 1.35355 5.54108 0
M  V30 14476 O 1429.9 3.23579 5.07523 0
M  V30 14477 H 1433.72 2.38571 1.87929 0
M  V30 14478 H 1431.31 1.21314 0.871968 0
M  V30 14479 H 1433.19 1.21543 4.03491 0
M  V30 14480 H 1431.86 0.341141 3.21897 0
M  V30 14481 H 1430.77 2.59775 2.69199 0
M  V30 14482 H 1432.1 3.40364 3.55547 0
M  V30 14483 N 1433.76 -0.95397 1.25448 0
M  V30 14484 C 1434.98 -1.73863 1.13077 0
M  V30 14485 C 1435.41 -1.85503 -0.311481 0
M  V30 14486 O 1434.77 -1.33596 -1.22564 0
M  V30 14487 C 1434.81 -3.13 1.79062 0
M  V30 14488 O 1433.92 -3.98258 1.07072 0
M  V30 14489 H 1433.26 -0.533921 0.394746 0
M  V30 14490 H 1435.79 -1.19571 1.66024 0
M  V30 14491 H 1435.8 -3.63456 1.85374 0
M  V30 14492 H 1434.47 -3.03844 2.83992 0
M  V30 14493 H 1433.05 -3.56722 1.08645 0
M  V30 14494 N 1435.24 -1.07045 -1.15668 0
M  V30 14495 C 1436.18 -0.68226 -2.22369 0
M  V30 14496 C 1437.18 0.305448 -1.66623 0
M  V30 14497 O 1438.38 0.169495 -1.792 0
M  V30 14498 H 1434.76 -0.202536 -0.724212 0
M  V30 14499 H 1436.73 -1.59187 -2.52393 0
M  V30 14500 C 1435.48 -0.0928131 -3.47576 0
M  V30 14501 H 1434.8 -0.843964 -3.90791 0
M  V30 14502 H 1436.24 0.14118 -4.23765 0
M  V30 14503 C 1434.7 1.16567 -3.16091 0
M  V30 14504 O 1435.23 2.25257 -3.32599 0
M  V30 14505 N 1433.44 1.07061 -2.7016 0
M  V30 14506 H 1432.98 0.186091 -2.56927 0
M  V30 14507 H 1432.94 1.91346 -2.49468 0
M  V30 14508 N 1436.71 1.32449 -0.85411 0
M  V30 14509 C 1437.68 2.27183 -0.303377 0
M  V30 14510 C 1438.68 1.51582 0.536622 0
M  V30 14511 O 1439.87 1.70684 0.348211 0
M  V30 14512 C 1437 3.36086 0.570852 0
M  V30 14513 H 1438.19 2.77408 -1.1395 0
M  V30 14514 H 1435.74 1.43111 -0.628402 0
M  V30 14515 H 1436.48 2.91128 1.42881 0
M  V30 14516 H 1436.26 3.92088 -0.030399 0
M  V30 14517 H 1437.75 4.06675 0.948972 0
M  V30 14518 N 1438.19 0.611994 1.45232 0
M  V30 14519 C 1439.44 0.109073 2.02506 0
M  V30 14520 C 1439.77 -1.25876 1.47881 0
M  V30 14521 O 1439.05 -1.83131 0.65524 0
M  V30 14522 C 1439.33 0.0749288 3.60022 0
M  V30 14523 C 1439.18 1.47374 4.24972 0
M  V30 14524 C 1440.5 -0.610602 4.35844 0
M  V30 14525 H 1437.62 0.0411101 0.735853 0
M  V30 14526 H 1440.26 0.78481 1.73034 0
M  V30 14527 H 1438.41 -0.500511 3.85262 0
M  V30 14528 H 1440.08 2.0966 4.10902 0
M  V30 14529 H 1438.33 2.03319 3.83202 0
M  V30 14530 H 1439 1.40206 5.33897 0
M  V30 14531 H 1441.47 -0.121445 4.15923 0
M  V30 14532 H 1440.35 -0.603614 5.45571 0
M  V30 14533 H 1440.61 -1.6775 4.09038 0
M  V30 14534 N 1439.67 -1.53632 0.351409 0
M  V30 14535 C 1440.9 -2.05458 -0.243852 0
M  V30 14536 C 1441.31 -1.22588 -1.43589 0
M  V30 14537 O 1440.67 -0.263088 -1.80594 0
M  V30 14538 C 1440.72 -3.55586 -0.651226 0
M  V30 14539 O 1440.44 -4.35313 0.493415 0
M  V30 14540 C 1441.94 -4.23614 -1.30637 0
M  V30 14541 H 1439.16 -0.669443 -0.0456828 0
M  V30 14542 H 1441.71 -1.98149 0.505675 0
M  V30 14543 H 1439.86 -3.63091 -1.35068 0
M  V30 14544 H 1440.28 -5.24234 0.167107 0
M  V30 14545 H 1441.75 -5.30022 -1.5421 0
M  V30 14546 H 1442.23 -3.76449 -2.26236 0
M  V30 14547 H 1442.83 -4.20323 -0.648738 0
M  V30 14548 N 1441.15 -0.0802183 -1.57396 0
M  V30 14549 C 1442.09 0.884041 -2.13198 0
M  V30 14550 C 1443.06 1.28975 -1.04664 0
M  V30 14551 O 1444.25 1.37413 -1.32372 0
M  V30 14552 C 1441.39 2.14323 -2.7048 0
M  V30 14553 C 1440.5 1.7894 -3.93198 0
M  V30 14554 C 1439.64 2.99534 -4.38695 0
M  V30 14555 C 1438.68 2.60207 -5.54039 0
M  V30 14556 N 1437.81 3.73587 -5.94455 0
M  V30 14557 H 1442.65 0.40131 -2.95285 0
M  V30 14558 H 1440.19 0.186429 -1.45914 0
M  V30 14559 H 1442.15 2.88046 -3.01804 0
M  V30 14560 H 1440.78 2.60122 -1.91144 0
M  V30 14561 H 1439.83 0.952465 -3.68283 0
M  V30 14562 H 1441.14 1.46012 -4.76951 0
M  V30 14563 H 1440.3 3.81526 -4.71724 0
M  V30 14564 H 1439.04 3.35661 -3.53812 0
M  V30 14565 H 1438.04 1.76638 -5.20652 0
M  V30 14566 H 1439.27 2.2524 -6.40659 0
M  V30 14567 H 1437.21 4.0946 -5.12521 0
M  V30 14568 H 1437.13 3.44455 -6.72969 0
M  V30 14569 H 1438.4 4.56133 -6.3211 0
M  V30 14570 N 1442.63 1.56409 0.193394 0
M  V30 14571 C 1443.85 1.84837 0.929676 0
M  V30 14572 C 1444.27 0.662928 1.76779 0
M  V30 14573 O 1443.63 -0.368339 1.78744 0
M  V30 14574 C 1443.68 3.12083 1.82445 0
M  V30 14575 O 1443.4 4.26056 1.02018 0
M  V30 14576 C 1444.9 3.53701 2.67227 0
M  V30 14577 H 1442.12 0.613766 0.271168 0
M  V30 14578 H 1444.66 2.03518 0.200134 0
M  V30 14579 H 1442.82 2.95294 2.5076 0
M  V30 14580 H 1443.23 4.98526 1.63008 0
M  V30 14581 H 1444.71 4.45699 3.25663 0
M  V30 14582 H 1445.18 2.76771 3.41019 0
M  V30 14583 H 1445.79 3.73027 2.04281 0
M  V30 14584 N 1444.1 -0.461169 1.50702 0
M  V30 14585 C 1445.07 -1.54032 1.69725 0
M  V30 14586 C 1446.07 -1.50445 0.567707 0
M  V30 14587 O 1447.26 -1.52889 0.834901 0
M  V30 14588 C 1444.39 -2.93642 1.73168 0
M  V30 14589 H 1445.58 -1.38478 2.66015 0
M  V30 14590 H 1443.13 -0.688235 1.40332 0
M  V30 14591 H 1443.87 -3.14629 0.786078 0
M  V30 14592 H 1443.65 -2.97652 2.55236 0
M  V30 14593 H 1445.14 -3.71972 1.89807 0
M  V30 14594 N 1445.58 -1.40446 -0.715026 0
M  V30 14595 C 1446.83 -1.3848 -1.47199 0
M  V30 14596 C 1447.15 0.0119198 -1.94996 0
M  V30 14597 O 1446.42 0.966772 -1.70383 0
M  V30 14598 H 1445 -0.509669 -0.54612 0
M  V30 14599 H 1447.66 -1.75505 -0.847588 0
M  V30 14600 H 1446.76 -2.06002 -2.34456 0
M  V30 14601 N 1447.06 0.947303 -1.25952 0
M  V30 14602 C 1448.47 1.50755 -1.10136 0
M  V30 14603 C 1448.82 1.93566 0.320437 0
M  V30 14604 O 1447.95 1.79326 1.21125 0
M  V30 14605 C 1448.54 2.7397 -1.99313 0
M  V30 14606 C 1447.1 3.26283 -1.8766 0
M  V30 14607 C 1446.25 1.99088 -1.93027 0
M  V30 14608 H 1449.2 0.763427 -1.39131 0
M  V30 14609 H 1449.22 3.48057 -1.53742 0
M  V30 14610 H 1448.73 2.42781 -3.02785 0
M  V30 14611 H 1446.83 3.62277 -0.870992 0
M  V30 14612 H 1446.95 3.93803 -2.72866 0
M  V30 14613 H 1445.31 2.14714 -1.37003 0
M  V30 14614 H 1446.09 1.70237 -2.98118 0
M  V30 14615 N 1448.54 1.07657 1.15099 0
M  V30 14616 C 1449.79 0.796589 1.85303 0
M  V30 14617 C 1450.1 -0.679887 1.83404 0
M  V30 14618 O 1451.31 -1.07475 2.49322 0
M  V30 14619 C 1449.76 1.37495 3.326 0
M  V30 14620 C 1449.37 2.88267 3.42938 0
M  V30 14621 C 1451.11 1.17313 4.07968 0
M  V30 14622 C 1449.02 3.39278 4.84401 0
M  V30 14623 H 1447.95 0.294316 0.694186 0
M  V30 14624 H 1450.6 1.29702 1.29806 0
M  V30 14625 H 1448.98 0.802248 3.87789 0
M  V30 14626 H 1450.16 3.51608 2.9784 0
M  V30 14627 H 1448.47 3.07275 2.81018 0
M  V30 14628 H 1451.07 1.52899 5.12373 0
M  V30 14629 H 1451.41 0.112387 4.16148 0
M  V30 14630 H 1451.95 1.71236 3.59059 0
M  V30 14631 H 1448.69 4.44892 4.81406 0
M  V30 14632 H 1448.21 2.80692 5.30068 0
M  V30 14633 H 1449.88 3.35416 5.53267 0
M  V30 14634 N 1450.02 -1.31994 0.861122 0
M  V30 14635 C 1450.98 -2.27019 0.315421 0
M  V30 14636 C 1451.98 -1.51864 -0.528575 0
M  V30 14637 O 1453.17 -1.70867 -0.339154 0
M  V30 14638 C 1450.3 -3.36384 -0.553021 0
M  V30 14639 H 1451.49 -2.768 1.1542 0
M  V30 14640 H 1449.05 -1.42776 0.635982 0
M  V30 14641 H 1449.78 -2.91882 -1.41335 0
M  V30 14642 H 1449.57 -3.92067 0.0511919 0
M  V30 14643 H 1451.06 -4.07172 -0.927392 0
M  V30 14644 N 1451.49 -0.619688 -1.44906 0
M  V30 14645 C 1452.72 -0.124598 -2.07025 0
M  V30 14646 C 1453.14 1.18698 -1.45919 0
M  V30 14647 O 1452.5 1.72552 -0.556366 0
M  V30 14648 C 1452.55 -0.0112238 -3.60598 0
M  V30 14649 O 1451.65 1.03582 -3.9918 0
M  V30 14650 H 1451 -0.0795631 -0.659216 0
M  V30 14651 H 1453.53 -0.853127 -1.85965 0
M  V30 14652 H 1453.54 0.183079 -4.07589 0
M  V30 14653 H 1452.21 -0.968849 -4.04458 0
M  V30 14654 H 1450.79 0.817008 -3.6384 0
M  V30 14655 N 1452.97 1.53444 -0.359552 0
M  V30 14656 C 1453.94 2.24173 0.477412 0
M  V30 14657 C 1454.94 1.24747 1.01464 0
M  V30 14658 O 1456.13 1.49069 0.901343 0
M  V30 14659 C 1453.26 2.9738 1.66667 0
M  V30 14660 H 1454.45 2.99566 -0.141407 0
M  V30 14661 H 1452 1.55904 -0.111143 0
M  V30 14662 H 1452.74 2.26214 2.32374 0
M  V30 14663 H 1452.52 3.70325 1.28848 0
M  V30 14664 H 1454.01 3.51165 2.25994 0
M  V30 14665 N 1454.45 0.0885642 1.57351 0
M  V30 14666 C 1455.38 -0.902617 2.10679 0
M  V30 14667 C 1456.4 -1.25037 1.04257 0
M  V30 14668 O 1457.58 -1.20462 1.31723 0
M  V30 14669 C 1454.68 -2.21362 2.56616 0
M  V30 14670 C 1453.86 -2.04219 3.86799 0
M  V30 14671 C 1452.92 -3.18774 4.18652 0
M  V30 14672 O 1451.94 -2.93024 4.87981 0
M  V30 14673 N 1453.14 -4.44357 3.73534 0
M  V30 14674 H 1455.91 -0.447199 2.96345 0
M  V30 14675 H 1453.47 -0.0967178 1.61611 0
M  V30 14676 H 1455.46 -2.96935 2.74976 0
M  V30 14677 H 1454.03 -2.58349 1.75996 0
M  V30 14678 H 1453.25 -1.13015 3.77652 0
M  V30 14679 H 1454.54 -1.90035 4.71979 0
M  V30 14680 H 1453.94 -4.68159 3.17558 0
M  V30 14681 H 1452.5 -5.169 3.97061 0
M  V30 14682 N 1455.93 -1.56509 -0.185096 0
M  V30 14683 C 1456.88 -1.95336 -1.22934 0
M  V30 14684 C 1457.85 -0.81532 -1.44713 0
M  V30 14685 O 1459.03 -1.07431 -1.57681 0
M  V30 14686 C 1456.17 -2.30671 -2.56681 0
M  V30 14687 C 1455.28 -3.57586 -2.42397 0
M  V30 14688 C 1454.42 -3.82197 -3.68916 0
M  V30 14689 C 1453.46 -5.02505 -3.49507 0
M  V30 14690 N 1452.59 -5.23319 -4.68062 0
M  V30 14691 H 1457.43 -2.84361 -0.89123 0
M  V30 14692 H 1454.97 -1.40715 -0.428689 0
M  V30 14693 H 1456.93 -2.49176 -3.34615 0
M  V30 14694 H 1455.56 -1.44773 -2.88514 0
M  V30 14695 H 1454.61 -3.47072 -1.55709 0
M  V30 14696 H 1455.92 -4.45677 -2.23994 0
M  V30 14697 H 1455.08 -4.00996 -4.55288 0
M  V30 14698 H 1453.82 -2.92455 -3.90284 0
M  V30 14699 H 1452.82 -4.83619 -2.6152 0
M  V30 14700 H 1454.05 -5.93765 -3.29574 0
M  V30 14701 H 1451.99 -4.36526 -4.89674 0
M  V30 14702 H 1451.91 -6.05608 -4.52521 0
M  V30 14703 H 1453.18 -5.46585 -5.55757 0
M  V30 14704 N 1457.41 0.45317 -1.50944 0
M  V30 14705 C 1458.34 1.56678 -1.67287 0
M  V30 14706 C 1459.35 1.53089 -0.553853 0
M  V30 14707 O 1460.54 1.58152 -0.827653 0
M  V30 14708 C 1457.64 2.95585 -1.65779 0
M  V30 14709 C 1456.81 3.2385 -2.94007 0
M  V30 14710 C 1455.87 4.42401 -2.84899 0
M  V30 14711 O 1454.9 4.4183 -3.58853 0
M  V30 14712 N 1456.1 5.4508 -1.99671 0
M  V30 14713 H 1458.87 1.43069 -2.63347 0
M  V30 14714 H 1456.43 0.641875 -1.48632 0
M  V30 14715 H 1458.42 3.7289 -1.57275 0
M  V30 14716 H 1456.99 3.02872 -0.773791 0
M  V30 14717 H 1456.21 2.34991 -3.16501 0
M  V30 14718 H 1457.5 3.39554 -3.7892 0
M  V30 14719 H 1456.89 5.48374 -1.38933 0
M  V30 14720 H 1455.45 6.21298 -1.97057 0
M  V30 14721 N 1458.88 1.40823 0.707568 0
M  V30 14722 C 1460.3 1.35249 1.28704 0
M  V30 14723 C 1460.65 0.0298026 1.96177 0
M  V30 14724 O 1459.77 -0.872126 1.98048 0
M  V30 14725 C 1460.37 2.44965 2.34046 0
M  V30 14726 C 1458.93 2.42826 2.87598 0
M  V30 14727 C 1458.07 2.25429 1.61483 0
M  V30 14728 H 1461.02 1.50513 0.503141 0
M  V30 14729 H 1461.04 2.13334 3.1507 0
M  V30 14730 H 1460.56 3.41219 1.84908 0
M  V30 14731 H 1458.66 1.50294 3.40944 0
M  V30 14732 H 1458.77 3.38704 3.38845 0
M  V30 14733 H 1457.13 1.73089 1.86848 0
M  V30 14734 H 1457.92 3.23693 1.14359 0
M  V30 14735 N 1460.36 -0.94061 1.26453 0
M  V30 14736 C 1461.33 -2.02096 1.0812 0
M  V30 14737 C 1462.33 -1.60773 0.0293393 0
M  V30 14738 O 1463.52 -1.72051 0.272796 0
M  V30 14739 C 1460.65 -3.34749 0.644646 0
M  V30 14740 H 1461.84 -2.19792 2.04038 0
M  V30 14741 H 1459.39 -1.11965 1.09058 0
M  V30 14742 H 1460.13 -3.22752 -0.316509 0
M  V30 14743 H 1459.91 -3.66095 1.40416 0
M  V30 14744 H 1461.4 -4.14117 0.538233 0
M  V30 14745 N 1461.84 -1.08266 -1.14527 0
M  V30 14746 C 1463.09 -0.809856 -1.85164 0
M  V30 14747 C 1463.41 0.666263 -1.83265 0
M  V30 14748 O 1462.68 1.48295 -1.28006 0
M  V30 14749 H 1461.26 -0.296598 -0.685594 0
M  V30 14750 H 1463.92 -1.36834 -1.38789 0
M  V30 14751 H 1463.02 -1.15272 -2.90032 0
M  V30 14752 N 1463.32 1.31536 -0.86811 0
M  V30 14753 C 1464.27 2.28562 -0.320602 0
M  V30 14754 C 1465.24 1.55648 0.579902 0
M  V30 14755 O 1466.42 1.83804 0.51194 0
M  V30 14756 C 1463.56 3.41836 0.473499 0
M  V30 14757 C 1462.67 4.29604 -0.454311 0
M  V30 14758 C 1461.81 5.30021 0.353733 0
M  V30 14759 C 1460.85 6.09434 -0.570624 0
M  V30 14760 N 1459.99 7.01812 0.201058 0
M  V30 14761 H 1464.83 2.74782 -1.15322 0
M  V30 14762 H 1462.36 1.35179 -0.580088 0
M  V30 14763 H 1464.32 4.06248 0.949662 0
M  V30 14764 H 1462.95 2.96732 1.27083 0
M  V30 14765 H 1462 3.65653 -1.04892 0
M  V30 14766 H 1463.31 4.85048 -1.16316 0
M  V30 14767 H 1462.47 6.001 0.892484 0
M  V30 14768 H 1461.21 4.75228 1.09589 0
M  V30 14769 H 1460.21 5.38247 -1.12115 0
M  V30 14770 H 1461.44 6.66314 -1.3116 0
M  V30 14771 H 1459.38 6.49431 0.926058 0
M  V30 14772 H 1459.3 7.54668 -0.448494 0
M  V30 14773 H 1460.57 7.76157 0.7211 0
M  V30 14774 N 1464.8 0.627364 1.44575 0
M  V30 14775 C 1466.04 0.130545 2.02379 0
M  V30 14776 C 1466.38 -1.24301 1.49208 0
M  V30 14777 O 1465.65 -1.82425 0.674626 0
M  V30 14778 C 1465.93 0.11311 3.59922 0
M  V30 14779 C 1465.79 1.51874 4.23385 0
M  V30 14780 C 1467.11 -0.564341 4.36467 0
M  V30 14781 H 1464.23 0.0489125 0.735375 0
M  V30 14782 H 1466.87 0.803118 1.72192 0
M  V30 14783 H 1465.02 -0.459621 3.85772 0
M  V30 14784 H 1466.69 2.14007 4.08655 0
M  V30 14785 H 1464.93 2.07371 3.81024 0
M  V30 14786 H 1465.6 1.4586 5.3238 0
M  V30 14787 H 1468.08 -0.0773244 4.16028 0
M  V30 14788 H 1466.96 -0.545715 5.46181 0
M  V30 14789 H 1467.22 -1.63403 4.10794 0
M  V30 14790 N 1466.28 -1.53251 0.367684 0
M  V30 14791 C 1467.21 -2.23396 -0.512539 0
M  V30 14792 C 1468.22 -1.2488 -1.04446 0
M  V30 14793 O 1469.41 -1.5109 -0.950477 0
M  V30 14794 C 1466.51 -2.91971 -1.72064 0
M  V30 14795 C 1465.68 -4.17011 -1.31986 0
M  V30 14796 C 1464.74 -4.68779 -2.39025 0
M  V30 14797 O 1463.77 -5.32405 -2.01328 0
M  V30 14798 N 1464.97 -4.46773 -3.7064 0
M  V30 14799 H 1467.73 -2.9957 0.0883152 0
M  V30 14800 H 1465.3 -1.60746 0.192966 0
M  V30 14801 H 1467.29 -3.23511 -2.43152 0
M  V30 14802 H 1465.86 -2.19237 -2.22831 0
M  V30 14803 H 1465.08 -3.91751 -0.438732 0
M  V30 14804 H 1466.37 -4.98298 -1.02842 0
M  V30 14805 H 1465.76 -3.95938 -4.04042 0
M  V30 14806 H 1464.32 -4.82857 -4.37827 0
M  V30 14807 N 1467.75 -0.0969077 -1.57302 0
M  V30 14808 C 1469 0.566072 -1.93594 0
M  V30 14809 C 1469.32 1.69226 -0.980922 0
M  V30 14810 O 1470.52 2.41651 -1.23763 0
M  V30 14811 C 1468.98 1.05832 -3.43988 0
M  V30 14812 C 1468.59 -0.038207 -4.47984 0
M  V30 14813 C 1470.33 1.69393 -3.89238 0
M  V30 14814 C 1468.24 0.4695 -5.89533 0
M  V30 14815 H 1467.17 0.215226 -0.72263 0
M  V30 14816 H 1469.82 -0.173202 -1.82681 0
M  V30 14817 H 1468.2 1.85134 -3.50059 0
M  V30 14818 H 1469.37 -0.813761 -4.53558 0
M  V30 14819 H 1467.69 -0.579113 -4.12353 0
M  V30 14820 H 1470.29 2.08454 -4.92393 0
M  V30 14821 H 1470.63 2.56381 -3.27986 0
M  V30 14822 H 1471.16 0.966709 -3.85875 0
M  V30 14823 H 1467.9 -0.363802 -6.5449 0
M  V30 14824 H 1467.42 1.21202 -5.87427 0
M  V30 14825 H 1469.1 0.937885 -6.40166 0
M  V30 14826 N 1469.23 1.56605 0.176793 0
M  V30 14827 C 1470.48 1.81952 0.895627 0
M  V30 14828 C 1470.81 0.673893 1.82133 0
M  V30 14829 O 1470.09 -0.324494 1.91774 0
M  V30 14830 C 1470.37 3.17658 1.69604 0
M  V30 14831 C 1470.22 4.4274 0.793834 0
M  V30 14832 C 1471.54 3.50246 2.66488 0
M  V30 14833 H 1468.66 0.661884 0.324159 0
M  V30 14834 H 1471.3 1.89307 0.162092 0
M  V30 14835 H 1469.45 3.11518 2.3214 0
M  V30 14836 H 1471.12 4.60942 0.181775 0
M  V30 14837 H 1469.37 4.33681 0.101566 0
M  V30 14838 H 1470.04 5.34231 1.38927 0
M  V30 14839 H 1472.51 3.56804 2.1408 0
M  V30 14840 H 1471.39 4.46286 3.19562 0
M  V30 14841 H 1471.65 2.7467 3.46423 0
M  V30 14842 N 1470.71 -0.445159 1.51182 0
M  V30 14843 C 1471.93 -1.22249 1.67541 0
M  V30 14844 C 1472.36 -1.84446 0.368972 0
M  V30 14845 O 1471.72 -1.68463 -0.670058 0
M  V30 14846 C 1471.77 -2.288 2.78717 0
M  V30 14847 O 1470.87 -3.34094 2.41775 0
M  V30 14848 H 1470.21 -0.358516 0.558894 0
M  V30 14849 H 1472.74 -0.526696 1.97704 0
M  V30 14850 H 1472.75 -2.73708 3.02569 0
M  V30 14851 H 1471.43 -1.82906 3.73521 0
M  V30 14852 H 1470 -2.94717 2.28466 0
M  V30 14853 N 1472.19 -1.41197 -0.700089 0
M  V30 14854 C 1473.13 -1.42688 -1.81407 0
M  V30 14855 C 1474.1 -0.28182 -1.63692 0
M  V30 14856 O 1475.29 -0.482196 -1.84606 0
M  V30 14857 C 1472.43 -1.31041 -3.19252 0
M  V30 14858 C 1471.54 -2.5538 -3.48432 0
M  V30 14859 C 1470.68 -2.3606 -4.75867 0
M  V30 14860 C 1469.72 -3.55898 -4.97999 0
M  V30 14861 N 1468.85 -3.35676 -6.16657 0
M  V30 14862 H 1473.69 -2.37898 -1.79467 0
M  V30 14863 H 1471.23 -1.18137 -0.87647 0
M  V30 14864 H 1473.19 -1.22292 -3.98874 0
M  V30 14865 H 1471.82 -0.394422 -3.20381 0
M  V30 14866 H 1470.87 -2.74598 -2.6325 0
M  V30 14867 H 1472.18 -3.44535 -3.6069 0
M  V30 14868 H 1471.34 -2.24752 -5.63535 0
M  V30 14869 H 1470.08 -1.44355 -4.65846 0
M  V30 14870 H 1469.08 -3.67665 -4.08781 0
M  V30 14871 H 1470.31 -4.4855 -5.09882 0
M  V30 14872 H 1468.25 -2.46667 -6.07858 0
M  V30 14873 H 1468.17 -4.18404 -6.29662 0
M  V30 14874 H 1469.44 -3.28132 -7.07071 0
M  V30 14875 N 1473.67 0.933891 -1.2695 0
M  V30 14876 C 1474.61 2.03365 -1.09139 0
M  V30 14877 C 1475.58 1.66099 0.00573029 0
M  V30 14878 O 1476.77 1.90166 -0.155425 0
M  V30 14879 C 1473.91 3.37114 -0.738117 0
M  V30 14880 C 1473.02 3.87372 -1.91224 0
M  V30 14881 C 1472.16 5.0954 -1.50141 0
M  V30 14882 C 1471.19 5.52079 -2.64339 0
M  V30 14883 N 1470.33 6.65446 -2.23887 0
M  V30 14884 H 1475.17 2.17932 -2.03248 0
M  V30 14885 H 1472.71 1.0677 -1.01186 0
M  V30 14886 H 1474.67 4.1402 -0.514141 0
M  V30 14887 H 1473.3 3.22373 0.166007 0
M  V30 14888 H 1472.35 3.06801 -2.24894 0
M  V30 14889 H 1473.66 4.14875 -2.76912 0
M  V30 14890 H 1472.81 5.93928 -1.23831 0
M  V30 14891 H 1471.55 4.838 -0.615539 0
M  V30 14892 H 1470.56 4.66244 -2.9137 0
M  V30 14893 H 1471.78 5.79817 -3.53537 0
M  V30 14894 H 1469.73 6.41376 -1.37744 0
M  V30 14895 H 1469.65 6.92573 -3.03116 0
M  V30 14896 H 1470.91 7.53191 -2.00809 0
M  V30 14897 N 1475.14 1.08871 1.13951 0
M  V30 14898 C 1476.39 0.822504 1.85372 0
M  V30 14899 C 1476.72 -0.650183 1.82993 0
M  V30 14900 O 1476 -1.4783 1.26398 0
M  V30 14901 C 1476.28 1.35107 3.33793 0
M  V30 14902 C 1476.13 2.88945 3.44719 0
M  V30 14903 C 1477.45 0.980203 4.29045 0
M  V30 14904 H 1474.57 0.300255 0.673065 0
M  V30 14905 H 1477.21 1.34914 1.33784 0
M  V30 14906 H 1475.36 0.903108 3.77857 0
M  V30 14907 H 1477.04 3.42148 3.09407 0
M  V30 14908 H 1475.28 3.26365 2.85777 0
M  V30 14909 H 1475.95 3.21004 4.49066 0
M  V30 14910 H 1478.43 1.36646 3.93023 0
M  V30 14911 H 1477.3 1.37717 5.31343 0
M  V30 14912 H 1477.56 -0.112253 4.41957 0
M  V30 14913 N 1476.62 -1.31073 0.875073 0
M  V30 14914 C 1477.85 -2.01223 0.502383 0
M  V30 14915 C 1478.27 -1.65223 -0.899053 0
M  V30 14916 O 1477.63 -0.863559 -1.59412 0
M  V30 14917 C 1477.68 -3.54269 0.672747 0
M  V30 14918 O 1476.78 -4.11409 -0.285718 0
M  V30 14919 H 1476.12 -0.633422 0.199181 0
M  V30 14920 H 1478.65 -1.67152 1.17989 0
M  V30 14921 H 1478.66 -4.04027 0.567973 0
M  V30 14922 H 1477.34 -3.79811 1.69459 0
M  V30 14923 H 1475.91 -3.72654 -0.135472 0
M  V30 14924 N 1478.1 -0.635022 -1.4424 0
M  V30 14925 C 1479.33 -0.148045 -2.06069 0
M  V30 14926 C 1479.74 1.1842 -1.47558 0
M  V30 14927 O 1479.08 1.73817 -0.594425 0
M  V30 14928 C 1479.14 0.0369593 -3.59481 0
M  V30 14929 C 1478.81 -1.21773 -4.40478 0
M  V30 14930 C 1479.8 -2.14233 -4.73709 0
M  V30 14931 C 1477.49 -1.45423 -4.80788 0
M  V30 14932 C 1479.48 -3.2865 -5.46139 0
M  V30 14933 C 1477.17 -2.60136 -5.52967 0
M  V30 14934 C 1478.17 -3.51576 -5.85562 0
M  V30 14935 O 1477.86 -4.64289 -6.5627 0
M  V30 14936 H 1477.59 -0.0787231 -0.671401 0
M  V30 14937 H 1480.14 -0.870639 -1.86035 0
M  V30 14938 H 1478.37 0.814739 -3.7802 0
M  V30 14939 H 1480.06 0.478984 -4.03064 0
M  V30 14940 H 1480.83 -1.97196 -4.43101 0
M  V30 14941 H 1476.71 -0.751378 -4.54835 0
M  V30 14942 H 1480.25 -4.00043 -5.71499 0
M  V30 14943 H 1476.15 -2.77114 -5.82991 0
M  V30 14944 H 1476.92 -4.6332 -6.74742 0
M  V30 14945 N 1479.58 1.53054 -0.375806 0
M  V30 14946 C 1480.8 2.06296 0.213708 0
M  V30 14947 C 1481.23 1.24675 1.40846 0
M  V30 14948 O 1480.59 0.268371 1.79303 0
M  V30 14949 C 1480.63 3.55981 0.575301 0
M  V30 14950 O 1479.74 3.77023 1.67115 0
M  V30 14951 H 1479.08 0.66338 0.0286922 0
M  V30 14952 H 1481.61 1.97362 -0.539371 0
M  V30 14953 H 1481.62 3.99187 0.843431 0
M  V30 14954 H 1480.29 4.14829 -0.298258 0
M  V30 14955 H 1478.87 3.45712 1.39778 0
M  V30 14956 N 1481.06 0.105248 1.57248 0
M  V30 14957 C 1482.01 -0.860855 2.11124 0
M  V30 14958 C 1482.99 -1.23721 1.02868 0
M  V30 14959 O 1484.18 -1.2106 1.29126 0
M  V30 14960 C 1481.31 -2.11612 2.70325 0
M  V30 14961 C 1480.4 -1.76474 3.85639 0
M  V30 14962 N 1480.79 -1.11944 4.93257 0
M  V30 14963 C 1479.09 -2.0602 3.95565 0
M  V30 14964 C 1479.79 -0.956421 5.73783 0
M  V30 14965 N 1478.76 -1.47701 5.23149 0
M  V30 14966 H 1482.57 -0.35816 2.91709 0
M  V30 14967 H 1480.08 -0.0976543 1.62106 0
M  V30 14968 H 1482.08 -2.81778 3.07257 0
M  V30 14969 H 1480.74 -2.62438 1.91198 0
M  V30 14970 H 1481.75 -0.785042 5.11916 0
M  V30 14971 H 1478.42 -2.58989 3.27461 0
M  V30 14972 H 1479.81 -0.450964 6.70385 0
M  V30 14973 N 1482.53 -1.56697 -0.168486 0
M  V30 14974 C 1483.78 -1.81346 -0.882973 0
M  V30 14975 C 1484.1 -0.682975 -1.83289 0
M  V30 14976 O 1485.3 -0.814479 -2.58995 0
M  V30 14977 C 1483.76 -3.21345 -1.62066 0
M  V30 14978 C 1483.37 -4.4227 -0.714241 0
M  V30 14979 C 1485.11 -3.55285 -2.32321 0
M  V30 14980 C 1483.02 -5.7329 -1.45233 0
M  V30 14981 H 1481.95 -0.676254 -0.333461 0
M  V30 14982 H 1484.6 -1.82996 -0.135871 0
M  V30 14983 H 1482.98 -3.1402 -2.41262 0
M  V30 14984 H 1484.15 -4.60782 0.0409556 0
M  V30 14985 H 1482.47 -4.16224 -0.121205 0
M  V30 14986 H 1485.07 -4.50421 -2.88141 0
M  V30 14987 H 1485.41 -2.80301 -3.07793 0
M  V30 14988 H 1485.94 -3.64176 -1.60066 0
M  V30 14989 H 1482.68 -6.51311 -0.739869 0
M  V30 14990 H 1482.2 -5.58751 -2.18077 0
M  V30 14991 H 1483.88 -6.15343 -1.99905 0
M  V30 14992 N 1484.01 0.437135 -1.51416 0
M  V30 14993 C 1484.94 1.54894 -1.68939 0
M  V30 14994 C 1485.96 1.52493 -0.570059 0
M  V30 14995 O 1487.15 1.57266 -0.844381 0
M  V30 14996 C 1484.25 2.9381 -1.68904 0
M  V30 14997 C 1483.42 3.20714 -2.97425 0
M  V30 14998 C 1482.48 4.39355 -2.89575 0
M  V30 14999 O 1481.5 4.37999 -3.63519 0
M  V30 15000 N 1482.71 5.42931 -2.05441 0
M  V30 15001 H 1485.47 1.40267 -2.64849 0
M  V30 15002 H 1483.03 0.626075 -1.49305 0
M  V30 15003 H 1485.02 3.71201 -1.61221 0
M  V30 15004 H 1483.59 3.02034 -0.805871 0
M  V30 15005 H 1482.81 2.31621 -3.18975 0
M  V30 15006 H 1484.1 3.35516 -3.825 0
M  V30 15007 H 1483.5 5.4687 -1.44742 0
M  V30 15008 H 1482.06 6.19173 -2.03636 0
M  V30 15009 N 1485.49 1.41566 0.692592 0
M  V30 15010 C 1486.72 1.44646 1.48635 0
M  V30 15011 C 1487.14 0.0541597 1.88022 0
M  V30 15012 O 1486.5 -0.943305 1.54827 0
M  V30 15013 C 1486.55 2.3636 2.72335 0
M  V30 15014 O 1485.65 1.8227 3.69934 0
M  V30 15015 H 1484.99 0.490791 0.447236 0
M  V30 15016 H 1487.52 1.8606 0.851056 0
M  V30 15017 H 1487.53 2.52337 3.20609 0
M  V30 15018 H 1486.21 3.37523 2.43004 0
M  V30 15019 H 1484.78 1.75759 3.28882 0
M  V30 15020 N 1486.97 -0.927146 1.27443 0
M  V30 15021 C 1487.92 -2.02783 1.10216 0
M  V30 15022 C 1488.89 -1.661 0.00307842 0
M  V30 15023 O 1490.07 -1.90081 0.165508 0
M  V30 15024 C 1487.21 -3.36718 0.755984 0
M  V30 15025 C 1486.32 -3.86353 1.93276 0
M  V30 15026 C 1485.46 -5.08737 1.52841 0
M  V30 15027 C 1484.5 -5.50669 2.67263 0
M  V30 15028 N 1483.63 -6.6425 2.27413 0
M  V30 15029 H 1488.47 -2.16851 2.04401 0
M  V30 15030 H 1486.01 -1.06232 1.0175 0
M  V30 15031 H 1487.97 -4.13741 0.53609 0
M  V30 15032 H 1486.6 -3.22456 -0.148909 0
M  V30 15033 H 1485.65 -3.05604 2.26518 0
M  V30 15034 H 1486.96 -4.13401 2.79108 0
M  V30 15035 H 1486.12 -5.93263 1.26979 0
M  V30 15036 H 1484.86 -4.83467 0.641187 0
M  V30 15037 H 1483.86 -4.64692 2.93839 0
M  V30 15038 H 1485.09 -5.77934 3.56607 0
M  V30 15039 H 1483.03 -6.40636 1.41143 0
M  V30 15040 H 1482.95 -6.90955 3.06784 0
M  V30 15041 H 1484.22 -7.52115 2.048 0
M  V30 15042 N 1488.45 -1.09474 -1.13372 0
M  V30 15043 C 1489.69 -0.840753 -1.86308 0
M  V30 15044 C 1490.05 0.622327 -1.81635 0
M  V30 15045 O 1491.25 0.992265 -2.49815 0
M  V30 15046 C 1489.52 -1.3618 -3.30439 0
M  V30 15047 S 1491.08 -1.24176 -4.20863 0
M  V30 15048 H 1487.9 -0.304071 -0.642699 0
M  V30 15049 H 1490.5 -1.39822 -1.36639 0
M  V30 15050 H 1489.21 -2.42087 -3.31394 0
M  V30 15051 H 1488.74 -0.800485 -3.8517 0
M  V30 15052 H 1490.75 -0.193021 -4.95824 0
M  V30 15053 N 1489.92 1.30607 -0.882012 0
M  V30 15054 C 1491.17 1.95869 -0.497978 0
M  V30 15055 C 1491.49 1.69991 0.955405 0
M  V30 15056 O 1490.76 1.02188 1.67136 0
M  V30 15057 H 1489.34 0.724699 -0.181165 0
M  V30 15058 H 1492.01 1.59193 -1.12444 0
M  V30 15059 H 1491.1 3.04917 -0.665754 0
M  V30 15060 N 1491.4 0.642663 1.43901 0
M  V30 15061 C 1492.63 0.157518 2.06801 0
M  V30 15062 C 1493.05 -1.16361 1.47789 0
M  V30 15063 O 1492.41 -1.71645 0.583747 0
M  V30 15064 C 1492.46 0.0685904 3.60535 0
M  V30 15065 O 1491.56 -0.972183 4.00777 0
M  V30 15066 H 1490.9 0.0900406 0.657867 0
M  V30 15067 H 1493.43 0.882604 1.84584 0
M  V30 15068 H 1493.44 -0.118212 4.07829 0
M  V30 15069 H 1492.12 1.03307 4.02865 0
M  V30 15070 H 1490.7 -0.75902 3.65094 0
M  V30 15071 N 1492.88 -1.52852 0.383918 0
M  V30 15072 C 1493.83 -2.26294 -0.453826 0
M  V30 15073 C 1494.8 -1.27688 -1.0623 0
M  V30 15074 O 1495.98 -1.56507 -1.09134 0
M  V30 15075 C 1493.12 -3.06907 -1.57803 0
M  V30 15076 C 1492.24 -4.20434 -0.992943 0
M  V30 15077 C 1491.37 -4.88453 -2.08776 0
M  V30 15078 C 1490.41 -5.93981 -1.47828 0
M  V30 15079 N 1489.55 -6.55617 -2.51218 0
M  V30 15080 H 1494.39 -2.97462 0.178927 0
M  V30 15081 H 1491.92 -1.46759 0.100066 0
M  V30 15082 H 1493.88 -3.51933 -2.24052 0
M  V30 15083 H 1492.51 -2.37959 -2.18118 0
M  V30 15084 H 1491.56 -3.79762 -0.22021 0
M  V30 15085 H 1492.88 -4.96211 -0.507504 0
M  V30 15086 H 1492.03 -5.36755 -2.82806 0
M  V30 15087 H 1490.77 -4.12187 -2.60678 0
M  V30 15088 H 1489.77 -5.45023 -0.723202 0
M  V30 15089 H 1491 -6.72176 -0.967278 0
M  V30 15090 H 1488.95 -5.82195 -3.02299 0
M  V30 15091 H 1488.86 -7.26991 -2.07414 0
M  V30 15092 H 1490.13 -7.08564 -3.24895 0
M  V30 15093 N 1494.36 -0.113586 -1.5719 0
M  V30 15094 C 1495.64 0.588987 -1.86522 0
M  V30 15095 C 1496.02 1.85163 -1.01379 0
M  V30 15096 O 1495.36 2.28318 -0.0912188 0
M  V30 15097 C 1495.57 0.886633 -3.3755 0
M  V30 15098 C 1496.92 1.24206 -4.06027 0
M  V30 15099 O 1497.95 0.977068 -3.42537 0
M  V30 15100 O 1496.81 1.73914 -5.18089 0
M  V30 15101 H 1493.9 0.296637 -0.771968 0
M  V30 15102 H 1496.45 -0.147681 -1.69056 0
M  V30 15103 H 1495.22 -0.00835421 -3.91299 0
M  V30 15104 H 1494.84 1.67865 -3.60426 0
M  V30 15105 N 1495.84 1.56784 0.160173 0
M  V30 15106 C 1496.79 1.98199 1.21737 0
M  V30 15107 C 1497.78 0.872381 1.4521 0
M  V30 15108 O 1498.99 1.05753 1.45658 0
M  V30 15109 H 1495.36 0.630742 0.409474 0
M  V30 15110 H 1497.33 2.86295 0.841289 0
M  V30 15111 C 1496.08 2.36748 2.54648 0
M  V30 15112 H 1495.4 3.21676 2.37413 0
M  V30 15113 H 1496.84 2.69561 3.27281 0
M  V30 15114 C 1495.3 1.2151 3.14224 0
M  V30 15115 O 1495.83 0.508739 3.98465 0
M  V30 15116 N 1494.04 0.982766 2.73478 0
M  V30 15117 H 1493.59 1.55893 2.05073 0
M  V30 15118 H 1493.54 0.213589 3.13674 0
M  V30 15119 N 1497.32 -0.429099 1.51646 0
M  V30 15120 C 1498.56 -1.17482 1.63954 0
M  V30 15121 C 1498.88 -1.92152 0.36565 0
M  V30 15122 O 1500.08 -2.68991 0.368221 0
M  V30 15123 C 1498.54 -2.13703 2.89585 0
M  V30 15124 C 1498.15 -1.44642 4.24008 0
M  V30 15125 C 1499.89 -2.88657 3.11252 0
M  V30 15126 C 1497.8 -2.39395 5.40781 0
M  V30 15127 H 1496.73 -0.442234 0.610692 0
M  V30 15128 H 1499.38 -0.441088 1.7812 0
M  V30 15129 H 1497.76 -2.90545 2.69071 0
M  V30 15130 H 1498.94 -0.733012 4.54932 0
M  V30 15131 H 1497.25 -0.818084 4.08285 0
M  V30 15132 H 1499.85 -3.59653 3.95669 0
M  V30 15133 H 1500.19 -3.50473 2.24664 0
M  V30 15134 H 1500.72 -2.18919 3.32144 0
M  V30 15135 H 1497.46 -1.82255 6.29653 0
M  V30 15136 H 1496.98 -3.08766 5.14222 0
M  V30 15137 H 1498.66 -3.0035 5.73061 0
M  V30 15138 N 1498.79 -1.41931 -0.685074 0
M  V30 15139 C 1499.74 -1.44604 -1.79884 0
M  V30 15140 C 1500.71 -0.299166 -1.63384 0
M  V30 15141 O 1501.9 -0.501749 -1.84085 0
M  V30 15142 C 1499.04 -1.3442 -3.17845 0
M  V30 15143 C 1498.15 -2.59061 -3.45704 0
M  V30 15144 C 1497.28 -2.41094 -4.73336 0
M  V30 15145 C 1496.32 -3.61159 -4.94197 0
M  V30 15146 N 1495.46 -3.42198 -6.13062 0
M  V30 15147 H 1500.3 -2.39788 -1.76934 0
M  V30 15148 H 1497.84 -1.1906 -0.863891 0
M  V30 15149 H 1499.79 -1.26515 -3.97555 0
M  V30 15150 H 1498.42 -0.42838 -3.19945 0
M  V30 15151 H 1497.48 -2.77374 -2.60322 0
M  V30 15152 H 1498.79 -3.48341 -3.57016 0
M  V30 15153 H 1497.94 -2.30717 -5.61119 0
M  V30 15154 H 1496.68 -1.49288 -4.64289 0
M  V30 15155 H 1495.69 -3.7198 -4.04859 0
M  V30 15156 H 1496.91 -4.53933 -5.05096 0
M  V30 15157 H 1494.86 -2.531 -6.05208 0
M  V30 15158 H 1494.77 -4.25059 -6.25189 0
M  V30 15159 H 1496.04 -3.35612 -7.03551 0
M  V30 15160 N 1500.27 0.920374 -1.27933 0
M  V30 15161 C 1501.22 2.00832 -1.07937 0
M  V30 15162 C 1502.21 1.60899 -0.005079 0
M  V30 15163 O 1503.4 1.75571 -0.224461 0
M  V30 15164 C 1500.53 3.35311 -0.736301 0
M  V30 15165 C 1499.61 3.81666 -1.8491 0
M  V30 15166 N 1500 4.00458 -3.08977 0
M  V30 15167 C 1498.3 4.10766 -1.73745 0
M  V30 15168 C 1499 4.39178 -3.81441 0
M  V30 15169 N 1497.98 4.47064 -3.09249 0
M  V30 15170 H 1501.78 2.13402 -2.02081 0
M  V30 15171 H 1499.29 1.10774 -1.18755 0
M  V30 15172 H 1501.29 4.12928 -0.574144 0
M  V30 15173 H 1499.95 3.24099 0.197437 0
M  V30 15174 H 1500.96 3.86562 -3.4466 0
M  V30 15175 H 1497.64 4.08227 -0.875042 0
M  V30 15176 H 1499.03 4.61736 -4.88109 0
M  V30 15177 N 1501.75 1.10074 1.1279 0
M  V30 15178 C 1503 0.842118 1.84489 0
M  V30 15179 C 1503.33 -0.630737 1.83672 0
M  V30 15180 O 1502.6 -1.46481 1.27959 0
M  V30 15181 C 1502.89 1.3864 3.32342 0
M  V30 15182 C 1502.74 2.92585 3.41635 0
M  V30 15183 C 1504.06 1.02565 4.27982 0
M  V30 15184 H 1501.18 0.307376 0.669842 0
M  V30 15185 H 1503.82 1.36326 1.32345 0
M  V30 15186 H 1501.97 0.943134 3.76878 0
M  V30 15187 H 1503.64 3.4541 3.0576 0
M  V30 15188 H 1501.88 3.29378 2.82299 0
M  V30 15189 H 1502.56 3.25749 4.45636 0
M  V30 15190 H 1505.03 1.40807 3.91552 0
M  V30 15191 H 1503.91 1.43345 5.29852 0
M  V30 15192 H 1504.17 -0.0653712 4.42052 0
M  V30 15193 N 1503.23 -1.30138 0.888926 0
M  V30 15194 C 1504.64 -1.78124 0.559346 0
M  V30 15195 C 1504.99 -1.73046 -0.924633 0
M  V30 15196 O 1504.11 -1.30974 -1.72264 0
M  V30 15197 C 1504.71 -3.2344 1.00856 0
M  V30 15198 C 1503.27 -3.69247 0.730332 0
M  V30 15199 C 1502.42 -2.505 1.18933 0
M  V30 15200 H 1505.37 -1.16952 1.07275 0
M  V30 15201 H 1505.39 -3.78985 0.339219 0
M  V30 15202 H 1504.9 -3.27104 2.08865 0
M  V30 15203 H 1503 -3.71067 -0.337599 0
M  V30 15204 H 1503.11 -4.60538 1.32066 0
M  V30 15205 H 1501.48 -2.47323 0.608568 0
M  V30 15206 H 1502.26 -2.56899 2.27724 0
M  V30 15207 N 1504.71 -0.650285 -1.43559 0
M  V30 15208 C 1505.95 -0.162164 -2.01448 0
M  V30 15209 C 1506.27 1.22717 -1.51544 0
M  V30 15210 O 1505.54 1.81917 -0.726855 0
M  V30 15211 H 1504.12 -0.0569599 -0.744825 0
M  V30 15212 H 1506.79 -0.841294 -1.75807 0
M  V30 15213 H 1505.88 -0.144531 -3.11765 0
M  V30 15214 N 1506.18 1.52647 -0.392018 0
M  V30 15215 C 1507.43 2.01215 0.188926 0
M  V30 15216 C 1507.75 1.28019 1.47092 0
M  V30 15217 O 1507.02 0.401048 1.91751 0
M  V30 15218 H 1505.6 0.743444 0.0728049 0
M  V30 15219 H 1508.26 1.87715 -0.524332 0
M  V30 15220 H 1507.36 3.09562 0.397216 0
M  V30 15221 N 1507.66 0.121921 1.57128 0
M  V30 15222 C 1508.91 -0.534313 1.94909 0
M  V30 15223 C 1509.23 -1.67029 1.0063 0
M  V30 15224 O 1508.5 -1.95798 0.0631366 0
M  V30 15225 H 1507.08 -0.200372 0.719625 0
M  V30 15226 H 1509.74 0.191546 1.93956 0
M  V30 15227 H 1508.84 -0.926974 2.98016 0
M  V30 15228 N 1509.14 -1.56867 -0.151857 0
M  V30 15229 C 1510.09 -1.98842 -1.20685 0
M  V30 15230 C 1511.08 -0.88007 -1.44745 0
M  V30 15231 O 1512.29 -1.06524 -1.45095 0
M  V30 15232 H 1508.66 -0.632904 -0.406123 0
M  V30 15233 H 1510.63 -2.86737 -0.826095 0
M  V30 15234 C 1509.38 -2.38095 -2.53389 0
M  V30 15235 H 1508.71 -3.2293 -2.35703 0
M  V30 15236 H 1510.15 -2.71292 -3.25847 0
M  V30 15237 C 1508.61 -1.23175 -3.13575 0
M  V30 15238 O 1509.14 -0.529864 -3.9819 0
M  V30 15239 N 1507.34 -0.997255 -2.72953 0
M  V30 15240 H 1506.89 -1.56979 -2.04243 0
M  V30 15241 H 1506.85 -0.23022 -3.13556 0
M  V30 15242 N 1510.62 0.421051 -1.51871 0
M  V30 15243 C 1511.86 1.17082 -1.65589 0
M  V30 15244 C 1512.2 1.90469 -0.378861 0
M  V30 15245 O 1511.47 1.84277 0.622259 0
M  V30 15246 C 1511.76 2.17483 -2.87007 0
M  V30 15247 C 1511.61 1.48071 -4.24729 0
M  V30 15248 C 1512.93 3.18288 -3.03942 0
M  V30 15249 H 1510.05 0.424284 -0.602621 0
M  V30 15250 H 1512.69 0.457998 -1.84397 0
M  V30 15251 H 1510.84 2.78273 -2.71102 0
M  V30 15252 H 1512.51 0.904926 -4.52337 0
M  V30 15253 H 1510.75 0.782814 -4.26678 0
M  V30 15254 H 1511.42 2.21272 -5.0571 0
M  V30 15255 H 1513.9 2.67565 -3.18666 0
M  V30 15256 H 1512.78 3.85815 -3.90433 0
M  V30 15257 H 1513.04 3.85333 -2.16728 0
M  V30 15258 N 1512.1 1.42293 0.677538 0
M  V30 15259 C 1513.03 1.41503 1.80304 0
M  V30 15260 C 1514.04 0.314499 1.59733 0
M  V30 15261 O 1515.23 0.57741 1.68903 0
M  V30 15262 C 1512.33 1.18879 3.17366 0
M  V30 15263 C 1511.5 2.41314 3.6481 0
M  V30 15264 C 1510.56 2.14277 4.80595 0
M  V30 15265 O 1509.59 2.87457 4.91281 0
M  V30 15266 N 1510.79 1.14419 5.69112 0
M  V30 15267 H 1513.56 2.38515 1.81468 0
M  V30 15268 H 1511.12 1.37137 0.860529 0
M  V30 15269 H 1513.11 0.987135 3.92476 0
M  V30 15270 H 1511.68 0.304002 3.11118 0
M  V30 15271 H 1510.9 2.77066 2.80407 0
M  V30 15272 H 1512.19 3.2285 3.9325 0
M  V30 15273 H 1511.58 0.53888 5.63127 0
M  V30 15274 H 1510.14 1.00241 6.44046 0
M  V30 15275 N 1513.57 -0.913576 1.28419 0
M  V30 15276 C 1514.82 -1.65731 1.14961 0
M  V30 15277 C 1515.14 -1.93269 -0.301079 0
M  V30 15278 O 1516.34 -2.6573 -0.556778 0
M  V30 15279 C 1514.8 -2.98562 2.00969 0
M  V30 15280 C 1514.41 -2.78671 3.5078 0
M  V30 15281 C 1516.15 -3.76439 1.96198 0
M  V30 15282 C 1514.06 -4.07144 4.28938 0
M  V30 15283 H 1512.99 -0.621681 0.426648 0
M  V30 15284 H 1515.64 -1.0138 1.52952 0
M  V30 15285 H 1514.02 -3.64049 1.55835 0
M  V30 15286 H 1515.19 -2.21864 4.03873 0
M  V30 15287 H 1513.51 -2.14206 3.57078 0
M  V30 15288 H 1516.11 -4.71668 2.51861 0
M  V30 15289 H 1516.45 -4.05577 0.938771 0
M  V30 15290 H 1516.98 -3.17772 2.39303 0
M  V30 15291 H 1513.72 -3.83178 5.31841 0
M  V30 15292 H 1513.24 -4.63562 3.80619 0
M  V30 15293 H 1514.92 -4.754 4.38866 0
M  V30 15294 N 1515.05 -1.1067 -1.12204 0
M  V30 15295 C 1515.98 -0.715581 -2.17743 0
M  V30 15296 C 1517 0.248892 -1.60886 0
M  V30 15297 O 1518.19 0.0329917 -1.7847 0
M  V30 15298 C 1515.29 -0.0356388 -3.38881 0
M  V30 15299 C 1514.46 -1.0249 -4.25223 0
M  V30 15300 C 1513.52 -0.375998 -5.24855 0
M  V30 15301 O 1512.54 -1.02753 -5.59849 0
M  V30 15302 N 1513.75 0.864525 -5.74026 0
M  V30 15303 H 1516.51 -1.62362 -2.5191 0
M  V30 15304 H 1514.07 -0.995851 -1.2765 0
M  V30 15305 H 1516.06 0.41 -4.02618 0
M  V30 15306 H 1514.63 0.77485 -3.02845 0
M  V30 15307 H 1513.85 -1.64874 -3.58065 0
M  V30 15308 H 1515.14 -1.69446 -4.79756 0
M  V30 15309 H 1514.54 1.41317 -5.47764 0
M  V30 15310 H 1513.1 1.25327 -6.39638 0
M  V30 15311 N 1516.53 1.29665 -0.895815 0
M  V30 15312 C 1517.48 2.29791 -0.360404 0
M  V30 15313 C 1518.47 1.60617 0.538384 0
M  V30 15314 O 1519.68 1.74993 0.421616 0
M  V30 15315 H 1516.05 0.745599 -0.0979118 0
M  V30 15316 H 1518.02 2.72396 -1.21832 0
M  V30 15317 C 1516.77 3.45386 0.400451 0
M  V30 15318 H 1516.1 3.98805 -0.281915 0
M  V30 15319 H 1517.54 4.17492 0.740003 0
M  V30 15320 C 1516 2.96393 1.60165 0
M  V30 15321 O 1516.53 2.97339 2.70097 0
M  V30 15322 N 1514.73 2.52271 1.44249 0
M  V30 15323 H 1514.28 2.51701 0.548142 0
M  V30 15324 H 1514.24 2.19849 2.24753 0
M  V30 15325 N 1518.01 0.657889 1.43212 0
M  V30 15326 C 1518.96 -0.0308596 2.30779 0
M  V30 15327 C 1519.93 -0.809951 1.45014 0
M  V30 15328 O 1521.11 -0.785615 1.73876 0
M  V30 15329 C 1518.25 -0.988048 3.30653 0
M  V30 15330 C 1517.36 -0.204567 4.31515 0
M  V30 15331 C 1516.5 -1.15598 5.1847 0
M  V30 15332 C 1515.54 -0.363197 6.11022 0
M  V30 15333 N 1514.67 -1.26644 6.90584 0
M  V30 15334 H 1519.51 0.721745 2.89128 0
M  V30 15335 H 1517.05 0.367677 1.42431 0
M  V30 15336 H 1519.01 -1.55666 3.87071 0
M  V30 15337 H 1517.64 -1.70747 2.73944 0
M  V30 15338 H 1516.69 0.48041 3.77354 0
M  V30 15339 H 1518 0.411684 4.97098 0
M  V30 15340 H 1517.16 -1.79507 5.79536 0
M  V30 15341 H 1515.9 -1.80613 4.53023 0
M  V30 15342 H 1514.9 0.28922 5.49039 0
M  V30 15343 H 1516.13 0.28262 6.78512 0
M  V30 15344 H 1514.07 -1.90331 6.27782 0
M  V30 15345 H 1513.99 -0.70486 7.52707 0
M  V30 15346 H 1515.26 -1.89353 7.56152 0
M  V30 15347 N 1519.49 -1.52437 0.400108 0
M  V30 15348 C 1520.43 -2.26763 -0.429799 0
M  V30 15349 C 1521.4 -1.28808 -1.0487 0
M  V30 15350 O 1522.59 -1.57655 -1.07468 0
M  V30 15351 C 1519.73 -3.08564 -1.54539 0
M  V30 15352 C 1518.84 -4.21463 -0.948294 0
M  V30 15353 C 1517.98 -4.9064 -2.03584 0
M  V30 15354 C 1517.02 -5.95515 -1.4152 0
M  V30 15355 N 1516.15 -6.58245 -2.4425 0
M  V30 15356 H 1520.99 -2.97256 0.210467 0
M  V30 15357 H 1518.53 -1.46645 0.115627 0
M  V30 15358 H 1520.49 -3.54289 -2.20307 0
M  V30 15359 H 1519.12 -2.40259 -2.15582 0
M  V30 15360 H 1518.17 -3.79974 -0.179918 0
M  V30 15361 H 1519.48 -4.96722 -0.454845 0
M  V30 15362 H 1518.64 -5.39724 -2.77097 0
M  V30 15363 H 1517.37 -4.14929 -2.56291 0
M  V30 15364 H 1516.38 -5.45759 -0.665354 0
M  V30 15365 H 1517.6 -6.73164 -0.89593 0
M  V30 15366 H 1515.55 -5.85369 -2.96107 0
M  V30 15367 H 1515.47 -7.2915 -1.99692 0
M  V30 15368 H 1516.74 -7.1197 -3.17362 0
M  V30 15369 N 1520.96 -0.130252 -1.57061 0
M  V30 15370 C 1522.21 0.525784 -1.95866 0
M  V30 15371 C 1522.54 1.65607 -1.01429 0
M  V30 15372 O 1521.82 1.94426 -0.0535544 0
M  V30 15373 C 1522.1 1.04784 -3.44517 0
M  V30 15374 C 1521.95 -0.0797972 -4.49729 0
M  V30 15375 C 1523.27 1.9351 -3.95275 0
M  V30 15376 H 1520.39 0.189652 -0.71218 0
M  V30 15377 H 1523.03 -0.208091 -1.88857 0
M  V30 15378 H 1521.18 1.67324 -3.50621 0
M  V30 15379 H 1522.86 -0.715535 -4.55717 0
M  V30 15380 H 1521.1 -0.741358 -4.27418 0
M  V30 15381 H 1521.77 0.326915 -5.51031 0
M  V30 15382 H 1524.25 1.40825 -3.91545 0
M  V30 15383 H 1523.12 2.26952 -4.99784 0
M  V30 15384 H 1523.38 2.86583 -3.36634 0
M  V30 15385 N 1522.44 1.56945 0.143535 0
M  V30 15386 C 1523.72 1.74461 0.884454 0
M  V30 15387 C 1524.1 0.699201 1.99184 0
M  V30 15388 O 1523.45 -0.281267 2.26762 0
M  V30 15389 C 1523.66 3.18639 1.42373 0
M  V30 15390 C 1525.01 3.80426 1.88577 0
M  V30 15391 O 1526.03 3.2209 1.52107 0
M  V30 15392 O 1524.89 4.82913 2.55847 0
M  V30 15393 H 1521.98 0.713457 0.41822 0
M  V30 15394 H 1524.53 1.69208 0.12919 0
M  V30 15395 H 1523.3 3.86227 0.628056 0
M  V30 15396 H 1522.92 3.28332 2.2424 0
M  V30 15397 N 1523.92 -0.412991 1.52093 0
M  V30 15398 C 1525.17 -1.15737 1.65191 0
M  V30 15399 C 1525.48 -1.91753 0.38601 0
M  V30 15400 O 1526.69 -2.68586 0.396731 0
M  V30 15401 C 1525.15 -2.10619 2.91835 0
M  V30 15402 C 1524.75 -1.40137 4.25518 0
M  V30 15403 C 1526.5 -2.85339 3.14296 0
M  V30 15404 C 1524.4 -2.33645 5.4329 0
M  V30 15405 H 1523.33 -0.435732 0.615348 0
M  V30 15406 H 1525.99 -0.422172 1.78578 0
M  V30 15407 H 1524.37 -2.87675 2.72138 0
M  V30 15408 H 1525.54 -0.684719 4.55684 0
M  V30 15409 H 1523.86 -0.774734 4.09129 0
M  V30 15410 H 1526.45 -3.55437 3.99461 0
M  V30 15411 H 1526.8 -3.48071 2.28369 0
M  V30 15412 H 1527.33 -2.15384 3.34447 0
M  V30 15413 H 1524.07 -1.75566 6.31551 0
M  V30 15414 H 1523.59 -3.03294 5.17467 0
M  V30 15415 H 1525.27 -2.94255 5.76215 0
M  V30 15416 N 1525.4 -1.4265 -0.669982 0
M  V30 15417 C 1526.62 -1.46992 -1.46315 0
M  V30 15418 C 1527.05 -0.0840655 -1.87912 0
M  V30 15419 O 1526.41 0.918554 -1.56308 0
M  V30 15420 C 1526.46 -2.40663 -2.6854 0
M  V30 15421 O 1525.56 -1.88132 -3.66988 0
M  V30 15422 H 1524.9 -0.497844 -0.439372 0
M  V30 15423 H 1527.43 -1.8739 -0.821348 0
M  V30 15424 H 1527.44 -2.57405 -3.16554 0
M  V30 15425 H 1526.12 -3.41346 -2.37604 0
M  V30 15426 H 1524.69 -1.80969 -3.26044 0
M  V30 15427 N 1526.88 0.906753 -1.28902 0
M  V30 15428 C 1527.82 2.01004 -1.13429 0
M  V30 15429 C 1528.79 1.66074 -0.0295031 0
M  V30 15430 O 1529.98 1.89793 -0.195727 0
M  V30 15431 C 1527.12 3.35473 -0.809457 0
M  V30 15432 C 1526.23 3.83229 -1.99398 0
M  V30 15433 C 1525.37 5.06241 -1.60915 0
M  V30 15434 C 1524.41 5.46348 -2.7599 0
M  V30 15435 N 1523.54 6.60548 -2.37952 0
M  V30 15436 H 1528.38 2.13571 -2.07825 0
M  V30 15437 H 1525.92 1.046 -1.03428 0
M  V30 15438 H 1527.88 4.12836 -0.601845 0
M  V30 15439 H 1526.51 3.22652 0.0975896 0
M  V30 15440 H 1525.56 3.01962 -2.31351 0
M  V30 15441 H 1526.87 4.08908 -2.85649 0
M  V30 15442 H 1526.03 5.91168 -1.36401 0
M  V30 15443 H 1524.77 4.82385 -0.718021 0
M  V30 15444 H 1523.77 4.59959 -3.01195 0
M  V30 15445 H 1525 5.72188 -3.65757 0
M  V30 15446 H 1522.94 6.38309 -1.51318 0
M  V30 15447 H 1522.86 6.85987 -3.17738 0
M  V30 15448 H 1524.13 7.48762 -2.1674 0
M  V30 15449 N 1528.36 1.11264 1.11616 0
M  V30 15450 C 1529.6 0.861639 1.83585 0
M  V30 15451 C 1529.93 -0.611221 1.8433 0
M  V30 15452 O 1529.21 -1.45116 1.29505 0
M  V30 15453 C 1529.49 1.42157 3.30852 0
M  V30 15454 C 1529.35 2.96192 3.38512 0
M  V30 15455 C 1530.66 1.07099 4.2687 0
M  V30 15456 H 1527.78 0.314464 0.666545 0
M  V30 15457 H 1530.43 1.37722 1.30892 0
M  V30 15458 H 1528.58 0.983054 3.75857 0
M  V30 15459 H 1530.25 3.48634 3.0208 0
M  V30 15460 H 1528.49 3.32353 2.7879 0
M  V30 15461 H 1529.16 3.30457 4.42156 0
M  V30 15462 H 1531.64 1.44952 3.90036 0
M  V30 15463 H 1530.51 1.48957 5.28302 0
M  V30 15464 H 1530.77 -0.018482 4.42096 0
M  V30 15465 N 1529.83 -1.29188 0.902679 0
M  V30 15466 C 1531.06 -2.00113 0.544953 0
M  V30 15467 C 1531.48 -1.67093 -0.863805 0
M  V30 15468 O 1530.84 -0.897179 -1.57545 0
M  V30 15469 C 1530.89 -3.52762 0.747741 0
M  V30 15470 O 1529.99 -4.11923 -0.198388 0
M  V30 15471 H 1529.33 -0.629054 0.212572 0
M  V30 15472 H 1531.86 -1.64611 1.21508 0
M  V30 15473 H 1531.87 -4.02732 0.653546 0
M  V30 15474 H 1530.55 -3.76131 1.77478 0
M  V30 15475 H 1529.13 -3.72857 -0.0563959 0
M  V30 15476 N 1531.31 -0.665475 -1.42861 0
M  V30 15477 C 1532.54 -0.190399 -2.06524 0
M  V30 15478 C 1532.96 1.13995 -1.49622 0
M  V30 15479 O 1532.32 1.70695 -0.610981 0
M  V30 15480 C 1532.37 -0.12594 -3.6038 0
M  V30 15481 O 1531.47 0.908299 -4.02273 0
M  V30 15482 H 1530.81 -0.100495 -0.656351 0
M  V30 15483 H 1533.34 -0.911858 -1.83156 0
M  V30 15484 H 1533.35 0.0533153 -4.07965 0
M  V30 15485 H 1532.03 -1.09703 -4.01171 0
M  V30 15486 H 1530.6 0.700841 -3.66255 0
M  V30 15487 N 1532.79 1.52222 -0.408187 0
M  V30 15488 C 1533.74 2.26988 0.417767 0
M  V30 15489 C 1534.71 1.29362 1.04185 0
M  V30 15490 O 1535.89 1.58223 1.06631 0
M  V30 15491 C 1533.03 3.09379 1.52901 0
M  V30 15492 C 1532.14 4.2196 0.92593 0
M  V30 15493 C 1531.28 4.91712 2.00979 0
M  V30 15494 C 1530.32 5.96258 1.3836 0
M  V30 15495 N 1529.46 6.59531 2.40756 0
M  V30 15496 H 1534.3 2.9714 -0.226228 0
M  V30 15497 H 1531.83 1.46581 -0.123402 0
M  V30 15498 H 1533.79 3.55452 2.18425 0
M  V30 15499 H 1532.42 2.41399 2.14304 0
M  V30 15500 H 1531.47 3.80064 0.159765 0
M  V30 15501 H 1532.78 4.96956 0.428497 0
M  V30 15502 H 1531.94 5.41186 2.74231 0
M  V30 15503 H 1530.68 4.16282 2.54087 0
M  V30 15504 H 1529.68 5.46104 0.636402 0
M  V30 15505 H 1530.91 6.7363 0.860218 0
M  V30 15506 H 1528.85 5.86931 2.92999 0
M  V30 15507 H 1528.77 7.30198 1.95822 0
M  V30 15508 H 1530.04 7.13643 3.13581 0
M  V30 15509 N 1534.27 0.138579 1.5699 0
M  V30 15510 C 1535.51 -0.517479 1.97741 0
M  V30 15511 C 1535.87 -1.62587 1.02125 0
M  V30 15512 O 1537.07 -2.3422 1.31888 0
M  V30 15513 C 1535.34 -1.01841 3.42583 0
M  V30 15514 S 1536.9 -1.68025 4.05355 0
M  V30 15515 H 1533.72 -0.167594 0.690965 0
M  V30 15516 H 1536.32 0.2283 1.94162 0
M  V30 15517 H 1535.03 -0.200832 4.09908 0
M  V30 15518 H 1534.56 -1.79901 3.49856 0
M  V30 15519 H 1536.57 -2.96708 3.97717 0
M  V30 15520 N 1535.75 -1.57019 -0.13521 0
M  V30 15521 C 1536.99 -1.83626 -0.844147 0
M  V30 15522 C 1537.31 -0.721298 -1.81169 0
M  V30 15523 O 1536.58 0.256095 -1.94219 0
M  V30 15524 H 1535.16 -0.677464 -0.314725 0
M  V30 15525 H 1537.83 -1.9449 -0.126399 0
M  V30 15526 H 1536.92 -2.78976 -1.39925 0
M  V30 15527 N 1537.22 0.404919 -1.52309 0
M  V30 15528 C 1538.45 1.17764 -1.70723 0
M  V30 15529 C 1538.87 1.83403 -0.417744 0
M  V30 15530 O 1538.23 1.70181 0.625157 0
M  V30 15531 C 1538.28 2.2133 -2.84685 0
M  V30 15532 O 1537.38 3.27566 -2.50548 0
M  V30 15533 H 1536.73 0.343572 -0.568203 0
M  V30 15534 H 1539.26 0.474093 -1.99031 0
M  V30 15535 H 1539.27 2.6559 -3.09719 0
M  V30 15536 H 1537.94 1.72939 -3.78239 0
M  V30 15537 H 1536.52 2.88556 -2.36199 0
M  V30 15538 N 1538.7 1.43003 0.662408 0
M  V30 15539 C 1539.65 1.47448 1.77561 0
M  V30 15540 C 1540.62 0.325121 1.62887 0
M  V30 15541 O 1541.8 0.530971 1.83263 0
M  V30 15542 C 1538.94 1.3946 3.15666 0
M  V30 15543 C 1538.06 2.64529 3.41539 0
M  V30 15544 C 1537.19 2.48594 4.69441 0
M  V30 15545 C 1536.23 3.68976 4.88388 0
M  V30 15546 N 1535.37 3.51908 6.0754 0
M  V30 15547 H 1540.21 2.42573 1.73097 0
M  V30 15548 H 1537.75 1.2042 0.84484 0
M  V30 15549 H 1539.7 1.32824 3.95492 0
M  V30 15550 H 1538.33 0.479227 3.19223 0
M  V30 15551 H 1537.39 2.81481 2.55877 0
M  V30 15552 H 1538.7 3.53977 3.51429 0
M  V30 15553 H 1537.85 2.39614 5.57378 0
M  V30 15554 H 1536.59 1.56656 4.61855 0
M  V30 15555 H 1535.6 3.78374 3.9889 0
M  V30 15556 H 1536.82 4.61911 4.9781 0
M  V30 15557 H 1534.77 2.62697 6.01104 0
M  V30 15558 H 1534.68 4.34951 6.18347 0
M  V30 15559 H 1535.95 3.46763 6.98123 0
M  V30 15560 N 1540.18 -0.899904 1.29381 0
M  V30 15561 C 1541.14 -1.98554 1.14494 0
M  V30 15562 C 1542.14 -1.60599 0.0804732 0
M  V30 15563 O 1543.33 -1.71096 0.327395 0
M  V30 15564 C 1540.47 -3.32529 0.750818 0
M  V30 15565 H 1541.66 -2.13189 2.10928 0
M  V30 15566 H 1539.21 -1.08438 1.12565 0
M  V30 15567 H 1539.95 -3.23595 -0.213668 0
M  V30 15568 H 1539.73 -3.61443 1.51992 0
M  V30 15569 H 1541.22 -4.12195 0.669709 0
M  V30 15570 N 1541.66 -1.11854 -1.11024 0
M  V30 15571 C 1542.61 -0.77596 -2.19275 0
M  V30 15572 C 1543.6 0.234503 -1.67769 0
M  V30 15573 O 1544.81 0.0933372 -1.79758 0
M  V30 15574 H 1541.18 -0.23307 -0.71497 0
M  V30 15575 H 1543.15 -1.69749 -2.45414 0
M  V30 15576 C 1541.9 -0.240148 -3.4687 0
M  V30 15577 H 1541.22 -1.00895 -3.86859 0
M  V30 15578 H 1542.66 -0.0386799 -4.23982 0
M  V30 15579 C 1541.12 1.03056 -3.20751 0
M  V30 15580 O 1541.65 2.10948 -3.41854 0
M  V30 15581 N 1539.86 0.955066 -2.74457 0
M  V30 15582 H 1539.41 0.0769523 -2.57485 0
M  V30 15583 H 1539.36 1.80593 -2.57359 0
M  V30 15584 N 1543.14 1.28707 -0.909517 0
M  V30 15585 C 1544.39 1.94437 -0.536401 0
M  V30 15586 C 1544.7 1.72416 0.923685 0
M  V30 15587 O 1545.9 2.32333 1.40477 0
M  V30 15588 C 1544.36 3.48246 -0.908455 0
M  V30 15589 C 1543.97 3.79051 -2.38798 0
M  V30 15590 C 1545.71 4.20156 -0.605721 0
M  V30 15591 C 1543.62 5.2615 -2.70038 0
M  V30 15592 H 1542.55 0.727842 -0.196882 0
M  V30 15593 H 1545.2 1.46283 -1.10786 0
M  V30 15594 H 1543.58 3.95107 -0.265829 0
M  V30 15595 H 1544.76 3.43014 -3.07698 0
M  V30 15596 H 1543.07 3.20303 -2.66074 0
M  V30 15597 H 1545.67 5.28439 -0.815849 0
M  V30 15598 H 1546.01 4.13792 0.456266 0
M  V30 15599 H 1546.54 3.79059 -1.20662 0
M  V30 15600 H 1543.28 5.37587 -3.75073 0
M  V30 15601 H 1542.8 5.63399 -2.05771 0
M  V30 15602 H 1544.48 5.93846 -2.56819 0
M  V30 15603 N 1544.61 0.673042 1.42506 0
M  V30 15604 C 1545.56 -0.00638067 2.30799 0
M  V30 15605 C 1546.53 -0.794524 1.45865 0
M  V30 15606 O 1547.72 -0.767129 1.74699 0
M  V30 15607 C 1544.86 -0.952923 3.31683 0
M  V30 15608 C 1543.97 -0.158787 4.31708 0
M  V30 15609 C 1543.1 -1.10092 5.19666 0
M  V30 15610 C 1542.14 -0.29837 6.11372 0
M  V30 15611 N 1541.28 -1.19312 6.91888 0
M  V30 15612 H 1546.12 0.75237 2.88346 0
M  V30 15613 H 1543.66 0.382763 1.42033 0
M  V30 15614 H 1545.62 -1.51552 3.887 0
M  V30 15615 H 1544.25 -1.67832 2.75739 0
M  V30 15616 H 1543.3 0.520406 3.76823 0
M  V30 15617 H 1544.61 0.464385 4.96634 0
M  V30 15618 H 1543.76 -1.7335 5.81407 0
M  V30 15619 H 1542.5 -1.75798 4.54914 0
M  V30 15620 H 1541.51 0.347437 5.48701 0
M  V30 15621 H 1542.73 0.354569 6.78174 0
M  V30 15622 H 1540.68 -1.83661 6.29765 0
M  V30 15623 H 1540.6 -0.624986 7.53412 0
M  V30 15624 H 1541.86 -1.81323 7.58118 0
M  V30 15625 N 1546.09 -1.52004 0.416254 0
M  V30 15626 C 1547.04 -2.24037 -0.423226 0
M  V30 15627 C 1548.03 -1.25444 -1.0076 0
M  V30 15628 O 1549.22 -1.50646 -0.92924 0
M  V30 15629 C 1546.35 -3.07048 -1.53547 0
M  V30 15630 C 1545.43 -4.13056 -0.961518 0
M  V30 15631 N 1545.82 -5.0567 -0.114849 0
M  V30 15632 C 1544.12 -4.28667 -1.2313 0
M  V30 15633 C 1544.82 -5.81338 0.205249 0
M  V30 15634 N 1543.8 -5.42084 -0.405736 0
M  V30 15635 H 1547.6 -2.93 0.229864 0
M  V30 15636 H 1545.12 -1.60804 0.227087 0
M  V30 15637 H 1547.11 -3.57212 -2.14954 0
M  V30 15638 H 1545.77 -2.39626 -2.19111 0
M  V30 15639 H 1546.78 -5.17296 0.250006 0
M  V30 15640 H 1543.46 -3.72474 -1.88599 0
M  V30 15641 H 1544.85 -6.6594 0.892938 0
M  V30 15642 N 1547.57 -0.146903 -1.56914 0
M  V30 15643 C 1548.52 0.792821 -2.16756 0
M  V30 15644 C 1549.49 1.2442 -1.1004 0
M  V30 15645 O 1550.67 1.31674 -1.38081 0
M  V30 15646 C 1547.81 2.02659 -2.79327 0
M  V30 15647 C 1546.93 1.62102 -4.00433 0
M  V30 15648 C 1546.06 2.80658 -4.51004 0
M  V30 15649 C 1545.1 2.36474 -5.64576 0
M  V30 15650 N 1544.24 3.48038 -6.09766 0
M  V30 15651 H 1549.08 0.275708 -2.96722 0
M  V30 15652 H 1546.61 0.124374 -1.46573 0
M  V30 15653 H 1548.57 2.74986 -3.13749 0
M  V30 15654 H 1547.2 2.51781 -2.02005 0
M  V30 15655 H 1546.25 0.795407 -3.71991 0
M  V30 15656 H 1547.57 1.25652 -4.82714 0
M  V30 15657 H 1546.72 3.61175 -4.87481 0
M  V30 15658 H 1545.46 3.20353 -3.6773 0
M  V30 15659 H 1544.46 1.54397 -5.27676 0
M  V30 15660 H 1545.69 1.97865 -6.49635 0
M  V30 15661 H 1543.63 3.87354 -5.29427 0
M  V30 15662 H 1543.55 3.15602 -6.86972 0
M  V30 15663 H 1544.82 4.28912 -6.50887 0
M  V30 15664 N 1549.05 1.57088 0.126881 0
M  V30 15665 C 1550.46 1.73685 0.684865 0
M  V30 15666 C 1550.81 0.764401 1.80697 0
M  V30 15667 O 1549.94 -0.0644761 2.16304 0
M  V30 15668 C 1550.53 3.14933 1.24911 0
M  V30 15669 C 1549.09 3.33063 1.75346 0
M  V30 15670 C 1548.24 2.69575 0.649976 0
M  V30 15671 H 1551.19 1.58391 -0.0989715 0
M  V30 15672 H 1551.21 3.16047 2.11884 0
M  V30 15673 H 1550.72 3.85686 0.432204 0
M  V30 15674 H 1548.82 2.67339 2.59539 0
M  V30 15675 H 1548.93 4.41169 1.86833 0
M  V30 15676 H 1547.3 2.30592 1.08163 0
M  V30 15677 H 1548.08 3.42946 -0.15582 0
M  V30 15678 N 1550.53 -0.396836 1.52522 0
M  V30 15679 C 1551.77 -1.14037 1.66853 0
M  V30 15680 C 1552.1 -1.90706 0.406987 0
M  V30 15681 O 1551.37 -1.87165 -0.578443 0
M  V30 15682 H 1549.95 -0.423967 0.615029 0
M  V30 15683 H 1552.61 -0.451042 1.89609 0
M  V30 15684 H 1551.7 -1.84763 2.51533 0
M  V30 15685 N 1552.01 -1.43353 -0.654814 0
M  V30 15686 C 1553.25 -1.44599 -1.41193 0
M  V30 15687 C 1553.57 -0.0707955 -1.94871 0
M  V30 15688 O 1552.84 0.893637 -1.7433 0
M  V30 15689 H 1551.42 -0.532373 -0.524011 0
M  V30 15690 H 1554.09 -1.78942 -0.772388 0
M  V30 15691 H 1553.18 -2.15761 -2.25508 0
M  V30 15692 N 1553.48 0.89303 -1.29857 0
M  V30 15693 C 1554.73 1.64088 -1.17981 0
M  V30 15694 C 1555.05 1.93156 0.267533 0
M  V30 15695 O 1554.32 1.56233 1.18186 0
M  V30 15696 H 1552.9 0.608241 -0.43365 0
M  V30 15697 H 1555.56 1.07042 -1.62874 0
M  V30 15698 H 1554.66 2.59446 -1.73477 0
M  V30 15699 N 1554.96 1.12442 1.10429 0
M  V30 15700 C 1556.24 0.791191 1.78884 0
M  V30 15701 C 1556.62 -0.719044 1.98477 0
M  V30 15702 O 1555.97 -1.65275 1.57786 0
M  V30 15703 C 1556.18 1.56632 3.11877 0
M  V30 15704 C 1557.52 1.75236 3.86752 0
M  V30 15705 O 1558.55 1.53145 3.21598 0
M  V30 15706 O 1557.41 2.12025 5.03694 0
M  V30 15707 H 1554.5 0.287788 0.775311 0
M  V30 15708 H 1557.05 1.22844 1.17078 0
M  V30 15709 H 1555.82 2.59317 2.93037 0
M  V30 15710 H 1555.44 1.12332 3.81402 0
M  V30 15711 N 1556.44 -1.28223 0.91633 0
M  V30 15712 C 1557.69 -1.95153 0.551639 0
M  V30 15713 C 1558.02 -1.71938 -0.902829 0
M  V30 15714 O 1557.29 -1.04184 -1.64243 0
M  V30 15715 C 1557.58 -3.49565 0.864647 0
M  V30 15716 C 1557.43 -3.82171 2.37203 0
M  V30 15717 C 1558.75 -4.38604 0.362593 0
M  V30 15718 H 1555.87 -0.708808 0.20189 0
M  V30 15719 H 1558.51 -1.51545 1.14604 0
M  V30 15720 H 1556.66 -3.8684 0.358782 0
M  V30 15721 H 1558.33 -3.54751 2.94872 0
M  V30 15722 H 1556.57 -3.29124 2.82595 0
M  V30 15723 H 1557.25 -4.90007 2.54159 0
M  V30 15724 H 1559.72 -4.08416 0.795983 0
M  V30 15725 H 1558.6 -5.45493 0.61066 0
M  V30 15726 H 1558.86 -4.35911 -0.737137 0
M  V30 15727 N 1557.92 -0.68059 -1.42147 0
M  V30 15728 C 1558.86 -0.00585926 -2.30799 0
M  V30 15729 C 1559.83 0.786778 -1.46284 0
M  V30 15730 O 1561.02 0.757853 -1.75103 0
M  V30 15731 C 1558.16 0.935319 -3.32183 0
M  V30 15732 C 1557.27 0.13589 -4.31786 0
M  V30 15733 C 1556.41 1.07335 -5.20243 0
M  V30 15734 C 1555.45 0.265943 -6.11522 0
M  V30 15735 N 1554.58 1.15641 -6.92511 0
M  V30 15736 H 1559.42 -0.767651 -2.87943 0
M  V30 15737 H 1556.96 -0.39029 -1.41828 0
M  V30 15738 H 1558.92 1.49489 -3.89498 0
M  V30 15739 H 1557.55 1.66368 -2.76626 0
M  V30 15740 H 1556.6 -0.540383 -3.76542 0
M  V30 15741 H 1557.91 -0.490716 -4.9638 0
M  V30 15742 H 1557.07 1.70265 -5.82319 0
M  V30 15743 H 1555.81 1.73383 -4.55839 0
M  V30 15744 H 1554.81 -0.376531 -5.48509 0
M  V30 15745 H 1556.04 -0.39053 -6.77976 0
M  V30 15746 H 1553.98 1.80319 -6.30731 0
M  V30 15747 H 1553.9 0.585022 -7.53733 0
M  V30 15748 H 1555.17 1.773 -7.59069 0
M  V30 15749 N 1559.4 1.51781 -0.424309 0
M  V30 15750 C 1560.64 2.01157 0.147925 0
M  V30 15751 C 1560.96 1.31369 1.44919 0
M  V30 15752 O 1562.16 1.71643 2.10359 0
M  V30 15753 C 1560.62 3.58526 0.31417 0
M  V30 15754 C 1560.23 4.37242 -0.975898 0
M  V30 15755 C 1561.97 4.16088 0.840876 0
M  V30 15756 C 1559.88 5.86287 -0.776009 0
M  V30 15757 H 1558.81 0.751684 0.0590568 0
M  V30 15758 H 1561.46 1.74998 -0.552079 0
M  V30 15759 H 1559.84 3.81077 1.07687 0
M  V30 15760 H 1561.02 4.26444 -1.74592 0
M  V30 15761 H 1559.33 3.9107 -1.43015 0
M  V30 15762 H 1561.93 5.25138 1.0067 0
M  V30 15763 H 1562.27 3.7442 1.81977 0
M  V30 15764 H 1562.8 3.97565 0.136836 0
M  V30 15765 H 1559.54 6.32343 -1.7269 0
M  V30 15766 H 1559.06 5.99783 -0.0455544 0
M  V30 15767 H 1560.74 6.45609 -0.424095 0
M  V30 15768 N 1560.87 0.155222 1.56834 0
M  V30 15769 C 1561.78 -0.794179 2.20749 0
M  V30 15770 C 1562.8 -1.26546 1.19424 0
M  V30 15771 O 1563.98 -1.32094 1.5203 0
M  V30 15772 C 1561.04 -2.01261 2.82303 0
M  V30 15773 C 1560.1 -1.58976 3.98779 0
M  V30 15774 C 1559.33 -2.75011 4.57389 0
M  V30 15775 O 1559.56 -3.91449 4.14879 0
M  V30 15776 O 1558.49 -2.50011 5.4752 0
M  V30 15777 H 1562.32 -0.280064 3.02406 0
M  V30 15778 H 1559.9 -0.0722048 1.49225 0
M  V30 15779 H 1561.78 -2.72551 3.21394 0
M  V30 15780 H 1560.46 -2.51609 2.03653 0
M  V30 15781 H 1559.37 -0.846848 3.64389 0
M  V30 15782 H 1560.7 -1.13336 4.78974 0
M  V30 15783 N 1562.35 -1.57153 -0.118549 0
M  V30 15784 C 1563.58 -1.89434 -0.844355 0
M  V30 15785 C 1564 -0.747203 -1.72622 0
M  V30 15786 O 1563.36 0.302252 -1.78763 0
M  V30 15787 C 1563.41 -3.20466 -1.65331 0
M  V30 15788 O 1562.51 -3.06403 -2.76027 0
M  V30 15789 H 1561.85 -0.621601 -0.23347 0
M  V30 15790 H 1564.38 -2.04351 -0.100811 0
M  V30 15791 H 1564.39 -3.53197 -2.04245 0
M  V30 15792 H 1563.07 -4.03551 -1.00594 0
M  V30 15793 H 1561.64 -2.85139 -2.40312 0
M  V30 15794 N 1563.83 0.388742 -1.5273 0
M  V30 15795 C 1564.76 1.49441 -1.73781 0
M  V30 15796 C 1565.77 1.50602 -0.618285 0
M  V30 15797 O 1566.96 1.545 -0.893986 0
M  V30 15798 C 1564.06 2.88288 -1.78166 0
M  V30 15799 C 1563.24 3.11089 -3.07478 0
M  V30 15800 C 1562.3 4.2992 -3.03407 0
M  V30 15801 O 1561.32 4.26212 -3.77269 0
M  V30 15802 N 1562.52 5.36121 -2.2261 0
M  V30 15803 H 1565.29 1.3177 -2.69178 0
M  V30 15804 H 1562.85 0.578258 -1.51221 0
M  V30 15805 H 1564.84 3.65884 -1.72949 0
M  V30 15806 H 1563.41 2.99317 -0.901553 0
M  V30 15807 H 1562.63 2.21356 -3.26183 0
M  V30 15808 H 1563.92 3.23177 -3.92981 0
M  V30 15809 H 1563.32 5.41988 -1.62067 0
M  V30 15810 H 1561.87 6.12381 -2.23232 0
M  V30 15811 N 1565.31 1.43698 0.647203 0
M  V30 15812 C 1566.25 1.49323 1.75987 0
M  V30 15813 C 1567.22 0.342379 1.62533 0
M  V30 15814 O 1568.41 0.550379 1.8269 0
M  V30 15815 C 1565.55 1.428 3.14169 0
M  V30 15816 C 1564.66 2.68136 3.38714 0
M  V30 15817 C 1563.8 2.53559 4.66778 0
M  V30 15818 C 1562.84 3.74135 4.84447 0
M  V30 15819 N 1561.97 3.58332 6.03774 0
M  V30 15820 H 1566.81 2.44395 1.70514 0
M  V30 15821 H 1564.35 1.21309 0.832021 0
M  V30 15822 H 1566.31 1.37011 3.94061 0
M  V30 15823 H 1564.94 0.513057 3.18697 0
M  V30 15824 H 1563.99 2.84179 2.52877 0
M  V30 15825 H 1565.3 3.57684 3.47654 0
M  V30 15826 H 1564.46 2.45513 5.54805 0
M  V30 15827 H 1563.2 1.61545 4.60168 0
M  V30 15828 H 1562.2 3.82584 3.94854 0
M  V30 15829 H 1563.43 4.67165 4.92883 0
M  V30 15830 H 1561.37 2.69057 5.98284 0
M  V30 15831 H 1561.29 4.41485 6.13699 0
M  V30 15832 H 1562.56 3.54148 6.94406 0
M  V30 15833 N 1566.79 -0.886131 1.30328 0
M  V30 15834 C 1567.72 -2.00793 1.19183 0
M  V30 15835 C 1568.7 -1.69899 0.08276 0
M  V30 15836 O 1569.88 -1.92389 0.264593 0
M  V30 15837 C 1567.01 -3.35922 0.881669 0
M  V30 15838 C 1565.97 -3.81072 1.94855 0
M  V30 15839 C 1565.29 -5.1348 1.4914 0
M  V30 15840 C 1566.59 -3.99923 3.35944 0
M  V30 15841 H 1568.29 -2.10375 2.13032 0
M  V30 15842 H 1565.83 -1.0108 1.02561 0
M  V30 15843 H 1567.79 -4.13922 0.790359 0
M  V30 15844 H 1566.51 -3.26469 -0.0925037 0
M  V30 15845 H 1565.17 -3.053 2.02947 0
M  V30 15846 H 1564.82 -5.00453 0.50553 0
M  V30 15847 H 1564.52 -5.44659 2.205 0
M  V30 15848 H 1566.04 -5.94005 1.41386 0
M  V30 15849 H 1567.45 -4.68364 3.30617 0
M  V30 15850 H 1565.85 -4.42477 4.05381 0
M  V30 15851 H 1566.92 -3.03816 3.77921 0
M  V30 15852 N 1568.26 -1.13026 -1.09832 0
M  V30 15853 C 1569.21 -0.799174 -2.1844 0
M  V30 15854 C 1570.21 0.216695 -1.68008 0
M  V30 15855 O 1571.41 0.0742662 -1.79847 0
M  V30 15856 H 1567.79 -0.24064 -0.712458 0
M  V30 15857 H 1569.76 -1.72342 -2.436 0
M  V30 15858 C 1568.51 -0.276925 -3.46595 0
M  V30 15859 H 1567.83 -1.04993 -3.85768 0
M  V30 15860 H 1569.27 -0.0836468 -4.23917 0
M  V30 15861 C 1567.73 0.996479 -3.21826 0
M  V30 15862 O 1568.26 2.0731 -3.44072 0
M  V30 15863 N 1566.47 0.925903 -2.75455 0
M  V30 15864 H 1566.01 0.0496383 -2.57552 0
M  V30 15865 H 1565.97 1.77853 -2.5926 0
M  V30 15866 N 1569.74 1.27735 -0.923117 0
M  V30 15867 C 1570.99 1.9457 -0.561149 0
M  V30 15868 C 1571.32 1.72591 0.896805 0
M  V30 15869 O 1570.57 1.04546 1.65434 0
M  V30 15870 C 1570.87 3.47677 -0.827959 0
M  V30 15871 C 1570.54 3.8977 -2.26693 0
M  V30 15872 C 1569.2 4.00973 -2.66033 0
M  V30 15873 C 1571.55 4.11173 -3.20291 0
M  V30 15874 C 1568.88 4.30963 -3.98105 0
M  V30 15875 C 1571.23 4.42645 -4.51938 0
M  V30 15876 C 1569.9 4.52061 -4.91119 0
M  V30 15877 H 1569.17 0.711981 -0.205339 0
M  V30 15878 H 1571.81 1.51894 -1.16621 0
M  V30 15879 H 1570.12 3.91549 -0.140178 0
M  V30 15880 H 1571.81 3.97523 -0.526932 0
M  V30 15881 H 1568.4 3.81584 -1.95171 0
M  V30 15882 H 1572.59 4.01962 -2.91102 0
M  V30 15883 H 1567.84 4.36461 -4.28149 0
M  V30 15884 H 1572.02 4.58153 -5.2447 0
M  V30 15885 H 1569.65 4.75053 -5.93488 0
M  V30 15886 N 1571.22 0.688118 1.41784 0
M  V30 15887 C 1572.17 0.018099 2.30793 0
M  V30 15888 C 1573.14 -0.779009 1.46699 0
M  V30 15889 O 1574.32 -0.748556 1.75503 0
M  V30 15890 C 1571.46 -0.91769 3.32675 0
M  V30 15891 C 1570.58 -0.11299 4.31852 0
M  V30 15892 C 1569.71 -1.04574 5.20805 0
M  V30 15893 C 1568.75 -0.233509 6.11654 0
M  V30 15894 N 1567.89 -1.11967 6.93115 0
M  V30 15895 H 1572.73 0.782911 2.87532 0
M  V30 15896 H 1570.26 0.397806 1.41619 0
M  V30 15897 H 1572.22 -1.47421 3.90286 0
M  V30 15898 H 1570.85 -1.64898 2.77504 0
M  V30 15899 H 1569.9 0.560344 3.7625 0
M  V30 15900 H 1571.22 0.517033 4.96113 0
M  V30 15901 H 1570.37 -1.67174 5.83213 0
M  V30 15902 H 1569.11 -1.70963 4.56753 0
M  V30 15903 H 1568.11 0.405614 5.48302 0
M  V30 15904 H 1569.34 0.426479 6.7776 0
M  V30 15905 H 1567.28 -1.76972 6.31678 0
M  V30 15906 H 1567.2 -0.545042 7.54033 0
M  V30 15907 H 1568.47 -1.73272 7.59998 0
M  V30 15908 N 1572.7 -1.51554 0.432352 0
M  V30 15909 C 1573.61 -2.31371 -0.387885 0
M  V30 15910 C 1574.62 -1.40072 -1.03227 0
M  V30 15911 O 1575.8 -1.73145 -1.02873 0
M  V30 15912 C 1572.87 -3.13662 -1.47705 0
M  V30 15913 C 1571.93 -4.20734 -0.853315 0
M  V30 15914 C 1571.16 -4.99092 -1.89058 0
M  V30 15915 O 1571.38 -4.78022 -3.11209 0
M  V30 15916 O 1570.32 -5.83322 -1.48389 0
M  V30 15917 H 1574.14 -3.02554 0.263578 0
M  V30 15918 H 1571.73 -1.48122 0.195004 0
M  V30 15919 H 1573.61 -3.64837 -2.10884 0
M  V30 15920 H 1572.28 -2.45249 -2.11269 0
M  V30 15921 H 1571.19 -3.73649 -0.183616 0
M  V30 15922 H 1572.52 -4.91506 -0.261244 0
M  V30 15923 N 1574.18 -0.163538 -1.56749 0
M  V30 15924 C 1575.12 0.769787 -2.17584 0
M  V30 15925 C 1576.09 1.23246 -1.11354 0
M  V30 15926 O 1577.28 1.30203 -1.3947 0
M  V30 15927 C 1574.42 1.99685 -2.81461 0
M  V30 15928 C 1573.53 1.57846 -4.0213 0
M  V30 15929 C 1572.67 2.75858 -4.53955 0
M  V30 15930 C 1571.71 2.30473 -5.67053 0
M  V30 15931 N 1570.84 3.41551 -6.13423 0
M  V30 15932 H 1575.68 0.244221 -2.96998 0
M  V30 15933 H 1573.22 0.108821 -1.46697 0
M  V30 15934 H 1575.18 2.71643 -3.16648 0
M  V30 15935 H 1573.81 2.49624 -2.04664 0
M  V30 15936 H 1572.86 0.755907 -3.72814 0
M  V30 15937 H 1574.17 1.20525 -4.8402 0
M  V30 15938 H 1573.33 3.55984 -4.91284 0
M  V30 15939 H 1572.06 3.16434 -3.71107 0
M  V30 15940 H 1571.07 1.48791 -5.29284 0
M  V30 15941 H 1572.29 1.90964 -6.51698 0
M  V30 15942 H 1570.24 3.81717 -5.33506 0
M  V30 15943 H 1570.16 3.08298 -6.90281 0
M  V30 15944 H 1571.43 4.21985 -6.554 0
M  V30 15945 N 1575.65 1.57214 0.110213 0
M  V30 15946 C 1576.62 2.00034 1.11888 0
M  V30 15947 C 1577.62 0.891697 1.33811 0
M  V30 15948 O 1578.81 1.15754 1.3018 0
M  V30 15949 C 1575.94 2.34806 2.47142 0
M  V30 15950 H 1577.13 2.90354 0.750647 0
M  V30 15951 H 1574.69 1.5222 0.35479 0
M  V30 15952 H 1575.42 1.47393 2.8887 0
M  V30 15953 H 1575.21 3.15671 2.32581 0
M  V30 15954 H 1576.7 2.68644 3.19719 0
M  V30 15955 N 1577.13 -0.380637 1.52934 0
M  V30 15956 C 1578.06 -1.48518 1.74571 0
M  V30 15957 C 1579.08 -1.50272 0.626263 0
M  V30 15958 O 1580.27 -1.54023 0.902167 0
M  V30 15959 C 1577.37 -2.87339 1.79693 0
M  V30 15960 C 1576.54 -3.09454 3.09123 0
M  V30 15961 C 1575.6 -4.28305 3.05682 0
M  V30 15962 O 1574.62 -4.24205 3.79524 0
M  V30 15963 N 1575.83 -5.34932 2.2545 0
M  V30 15964 H 1578.59 -1.30341 2.69873 0
M  V30 15965 H 1576.15 -0.57023 1.51526 0
M  V30 15966 H 1578.14 -3.64961 1.74887 0
M  V30 15967 H 1576.71 -2.98835 0.917414 0
M  V30 15968 H 1575.93 -2.19623 3.27352 0
M  V30 15969 H 1577.22 -3.21089 3.94689 0
M  V30 15970 H 1576.62 -5.41121 1.64939 0
M  V30 15971 H 1575.18 -6.11189 2.26476 0
M  V30 15972 N 1578.61 -1.44039 -0.639573 0
M  V30 15973 C 1579.57 -1.49907 -1.7338 0
M  V30 15974 C 1580.57 -0.382101 -1.56194 0
M  V30 15975 O 1581.76 -0.644396 -1.61843 0
M  V30 15976 C 1578.9 -1.36486 -3.12385 0
M  V30 15977 H 1580.09 -2.4737 -1.69553 0
M  V30 15978 H 1577.64 -1.31006 -0.852474 0
M  V30 15979 H 1578.38 -0.400845 -3.21813 0
M  V30 15980 H 1578.16 -2.17471 -3.26265 0
M  V30 15981 H 1579.65 -1.43555 -3.9215 0
M  V30 15982 N 1580.09 0.879207 -1.30796 0
M  V30 15983 C 1581.04 1.98553 -1.17667 0
M  V30 15984 C 1582.01 1.65974 -0.0647231 0
M  V30 15985 O 1583.19 1.89336 -0.235941 0
M  V30 15986 C 1580.33 3.3368 -0.880434 0
M  V30 15987 C 1579.44 3.78913 -2.07482 0
M  V30 15988 C 1578.58 5.02714 -1.71617 0
M  V30 15989 C 1577.62 5.40371 -2.87517 0
M  V30 15990 N 1576.75 6.55352 -2.5191 0
M  V30 15991 H 1581.59 2.09115 -2.12309 0
M  V30 15992 H 1579.13 1.02382 -1.05623 0
M  V30 15993 H 1581.09 4.11467 -0.689278 0
M  V30 15994 H 1579.72 3.22787 0.0291283 0
M  V30 15995 H 1578.77 2.96987 -2.37704 0
M  V30 15996 H 1580.08 4.02757 -2.94259 0
M  V30 15997 H 1579.24 5.88142 -1.4891 0
M  V30 15998 H 1577.98 4.80754 -0.820181 0
M  V30 15999 H 1576.98 4.53466 -3.10883 0
M  V30 16000 H 1578.21 5.64301 -3.77811 0
M  V30 16001 H 1576.15 6.34956 -1.64823 0
M  V30 16002 H 1576.07 6.79093 -3.32217 0
M  V30 16003 H 1577.34 7.43996 -2.32573 0
M  V30 16004 N 1581.57 1.13606 1.09231 0
M  V30 16005 C 1582.81 0.900386 1.81717 0
M  V30 16006 C 1583.15 -0.571984 1.85586 0
M  V30 16007 O 1582.42 -1.42336 1.32554 0
M  V30 16008 C 1582.7 1.49143 3.27763 0
M  V30 16009 C 1582.56 3.03306 3.32153 0
M  V30 16010 C 1583.88 1.16129 4.24502 0
M  V30 16011 H 1581 0.328531 0.659724 0
M  V30 16012 H 1583.64 1.40467 1.27941 0
M  V30 16013 H 1581.79 1.06256 3.73687 0
M  V30 16014 H 1583.46 3.54963 2.94617 0
M  V30 16015 H 1581.7 3.38192 2.71677 0
M  V30 16016 H 1582.37 3.39761 4.35047 0
M  V30 16017 H 1584.85 1.53193 3.86874 0
M  V30 16018 H 1583.73 1.60129 5.25024 0
M  V30 16019 H 1583.99 0.0752973 4.42036 0
M  V30 16020 N 1583.05 -1.27244 0.929878 0
M  V30 16021 C 1584.29 -1.93886 0.570331 0
M  V30 16022 C 1584.61 -1.7342 -0.891656 0
M  V30 16023 O 1583.88 -1.0832 -1.63228 0
M  V30 16024 H 1582.46 -0.717476 0.207937 0
M  V30 16025 H 1585.13 -1.5491 1.18275 0
M  V30 16026 H 1584.22 -3.02236 0.778463 0
M  V30 16027 N 1584.52 -0.695628 -1.41417 0
M  V30 16028 C 1585.75 -0.234163 -2.06074 0
M  V30 16029 C 1586.17 1.10796 -1.52006 0
M  V30 16030 O 1585.53 1.6936 -0.64705 0
M  V30 16031 C 1585.58 -0.202353 -3.60032 0
M  V30 16032 O 1584.68 0.822767 -4.04109 0
M  V30 16033 H 1584.02 -0.114395 -0.654072 0
M  V30 16034 H 1586.55 -0.950503 -1.81181 0
M  V30 16035 H 1586.56 -0.0332321 -4.07986 0
M  V30 16036 H 1585.24 -1.18188 -3.98754 0
M  V30 16037 H 1583.82 0.622995 -3.67659 0
M  V30 16038 N 1586 1.51322 -0.440383 0
M  V30 16039 C 1586.93 2.30708 0.360013 0
M  V30 16040 C 1587.91 1.36254 1.01828 0
M  V30 16041 O 1589.1 1.65174 1.02134 0
M  V30 16042 C 1586.23 3.15132 1.45977 0
M  V30 16043 C 1585.18 4.17889 0.924825 0
M  V30 16044 C 1584.51 4.90853 2.12056 0
M  V30 16045 C 1585.81 5.22282 -0.0428362 0
M  V30 16046 H 1587.5 2.97868 -0.30248 0
M  V30 16047 H 1585.05 1.43249 -0.146914 0
M  V30 16048 H 1587 3.69449 2.02695 0
M  V30 16049 H 1585.72 2.45798 2.1506 0
M  V30 16050 H 1584.38 3.64627 0.379842 0
M  V30 16051 H 1584.03 4.1802 2.79765 0
M  V30 16052 H 1583.73 5.60339 1.769 0
M  V30 16053 H 1585.26 5.47995 2.69322 0
M  V30 16054 H 1586.67 5.71654 0.434137 0
M  V30 16055 H 1585.07 5.99314 -0.307126 0
M  V30 16056 H 1586.14 4.74923 -0.978557 0
M  V30 16057 N 1587.48 0.171848 1.5666 0
M  V30 16058 C 1588.76 -0.519355 1.88579 0
M  V30 16059 C 1589.14 -1.81273 1.08182 0
M  V30 16060 O 1588.48 -2.27822 0.175895 0
M  V30 16061 C 1588.69 -0.760743 3.40608 0
M  V30 16062 C 1590.04 -1.09051 4.10357 0
M  V30 16063 O 1591.07 -0.849264 3.45928 0
M  V30 16064 O 1589.93 -1.54566 5.24187 0
M  V30 16065 H 1587.02 -0.267782 0.782446 0
M  V30 16066 H 1589.57 0.210323 1.68392 0
M  V30 16067 H 1588.34 0.153577 3.90999 0
M  V30 16068 H 1587.96 -1.54372 3.66408 0
M  V30 16069 N 1588.96 -1.5727 -0.101874 0
M  V30 16070 C 1589.91 -2.0258 -1.14297 0
M  V30 16071 C 1590.9 -0.925674 -1.41872 0
M  V30 16072 O 1592.11 -1.11086 -1.41633 0
M  V30 16073 H 1588.48 -0.645504 -0.385782 0
M  V30 16074 H 1590.45 -2.8922 -0.734453 0
M  V30 16075 C 1589.2 -2.46036 -2.45686 0
M  V30 16076 H 1588.52 -3.30266 -2.2531 0
M  V30 16077 H 1589.96 -2.81522 -3.17051 0
M  V30 16078 C 1588.42 -1.33089 -3.09498 0
M  V30 16079 O 1588.95 -0.656277 -3.96303 0
M  V30 16080 N 1587.16 -1.08359 -2.69642 0
M  V30 16081 H 1586.71 -1.63397 -1.99146 0
M  V30 16082 H 1586.66 -0.329859 -3.12665 0
M  V30 16083 N 1590.44 0.372521 -1.53134 0
M  V30 16084 C 1591.68 1.11754 -1.6923 0
M  V30 16085 C 1592.01 1.89167 -0.439265 0
M  V30 16086 O 1591.29 1.86164 0.563317 0
M  V30 16087 C 1591.57 2.08242 -2.93781 0
M  V30 16088 C 1591.43 1.34484 -4.29225 0
M  V30 16089 C 1592.74 3.08457 -3.13914 0
M  V30 16090 H 1589.86 0.404898 -0.615814 0
M  V30 16091 H 1592.51 0.399101 -1.85761 0
M  V30 16092 H 1590.66 2.69507 -2.79818 0
M  V30 16093 H 1592.33 0.76056 -4.54987 0
M  V30 16094 H 1590.57 0.646673 -4.28953 0
M  V30 16095 H 1591.24 2.05071 -5.12494 0
M  V30 16096 H 1593.72 2.57292 -3.27017 0
M  V30 16097 H 1592.59 3.73198 -4.0251 0
M  V30 16098 H 1592.85 3.78243 -2.28878 0
M  V30 16099 N 1591.91 1.44376 0.631925 0
M  V30 16100 C 1593.16 1.46827 1.38875 0
M  V30 16101 C 1593.48 0.101789 1.94734 0
M  V30 16102 O 1592.75 -0.86579 1.7573 0
M  V30 16103 H 1591.33 0.540642 0.515475 0
M  V30 16104 H 1593.99 1.80148 0.743822 0
M  V30 16105 H 1593.09 2.19321 2.22047 0
M  V30 16106 N 1593.39 -0.872258 1.31261 0
M  V30 16107 C 1594.34 -1.96688 1.15317 0
M  V30 16108 C 1595.33 -1.60769 0.0647922 0
M  V30 16109 O 1596.52 -1.74617 0.289469 0
M  V30 16110 C 1593.65 -3.32347 0.860242 0
M  V30 16111 C 1592.73 -3.7454 1.98948 0
M  V30 16112 N 1593.12 -3.88715 3.23627 0
M  V30 16113 C 1591.42 -4.04035 1.88871 0
M  V30 16114 C 1592.12 -4.24718 3.97478 0
M  V30 16115 N 1591.1 -4.35278 3.25629 0
M  V30 16116 H 1594.9 -2.05755 2.09862 0
M  V30 16117 H 1592.41 -1.0629 1.22785 0
M  V30 16118 H 1594.41 -4.10512 0.727004 0
M  V30 16119 H 1593.07 -3.24609 -0.0770132 0
M  V30 16120 H 1594.08 -3.73504 3.58769 0
M  V30 16121 H 1590.76 -4.04698 1.02595 0
M  V30 16122 H 1592.15 -4.43302 5.04909 0
M  V30 16123 N 1594.87 -1.14184 -1.08627 0
M  V30 16124 C 1595.8 -0.849455 -2.17501 0
M  V30 16125 C 1596.78 0.194617 -1.68983 0
M  V30 16126 O 1597.97 0.0517757 -1.94131 0
M  V30 16127 C 1595.1 -0.323685 -3.45788 0
M  V30 16128 C 1594.05 -1.30294 -4.07685 0
M  V30 16129 C 1593.38 -0.636575 -5.30897 0
M  V30 16130 C 1594.68 -2.66441 -4.49229 0
M  V30 16131 H 1596.37 -1.75987 -2.42217 0
M  V30 16132 H 1593.92 -0.847595 -1.16412 0
M  V30 16133 H 1595.87 -0.106754 -4.21265 0
M  V30 16134 H 1594.59 0.62215 -3.20619 0
M  V30 16135 H 1593.25 -1.50601 -3.34238 0
M  V30 16136 H 1592.9 0.314995 -5.02013 0
M  V30 16137 H 1592.6 -1.28998 -5.73266 0
M  V30 16138 H 1594.12 -0.429117 -6.0909 0
M  V30 16139 H 1595.54 -2.50055 -5.15893 0
M  V30 16140 H 1593.93 -3.28033 -5.02508 0
M  V30 16141 H 1595 -3.23486 -3.61226 0
M  V30 16142 N 1596.35 1.26749 -0.936613 0
M  V30 16143 C 1597.76 1.75925 -0.62507 0
M  V30 16144 C 1598.11 1.76359 0.859771 0
M  V30 16145 O 1597.24 1.37277 1.67284 0
M  V30 16146 C 1597.83 3.19474 -1.12791 0
M  V30 16147 C 1596.39 3.66282 -0.866872 0
M  V30 16148 C 1595.54 2.45913 -1.28148 0
M  V30 16149 H 1598.49 1.1289 -1.11542 0
M  V30 16150 H 1598.51 3.77465 -0.479643 0
M  V30 16151 H 1598.02 3.19126 -2.20862 0
M  V30 16152 H 1596.12 3.72065 0.199647 0
M  V30 16153 H 1596.23 4.55319 -1.49067 0
M  V30 16154 H 1594.6 2.44894 -0.699941 0
M  V30 16155 H 1595.38 2.4827 -2.37101 0
M  V30 16156 N 1597.83 0.703118 1.41046 0
M  V30 16157 C 1598.79 0.0514476 2.29142 0
M  V30 16158 C 1599.79 -0.700223 1.44753 0
M  V30 16159 O 1600.98 -0.533985 1.65814 0
M  V30 16160 C 1598.11 -0.93735 3.2776 0
M  V30 16161 H 1599.3 0.827201 2.88266 0
M  V30 16162 H 1596.86 0.467045 1.49159 0
M  V30 16163 H 1597.59 -1.7406 2.7363 0
M  V30 16164 H 1597.38 -0.4014 3.9004 0
M  V30 16165 H 1598.87 -1.39088 3.93757 0
M  V30 16166 N 1599.3 -1.51086 0.448402 0
M  V30 16167 C 1600.55 -2.01778 -0.114116 0
M  V30 16168 C 1600.87 -1.3339 -1.4224 0
M  V30 16169 O 1600.14 -0.471938 -1.9013 0
M  V30 16170 H 1598.72 -0.745634 -0.0451624 0
M  V30 16171 H 1601.39 -1.85639 0.59364 0
M  V30 16172 H 1600.48 -3.10823 -0.28205 0
M  V30 16173 N 1600.78 -0.180154 -1.56567 0
M  V30 16174 C 1602.03 0.461606 -1.96758 0
M  V30 16175 C 1602.35 1.63179 -1.0676 0
M  V30 16176 O 1601.62 1.95429 -0.135762 0
M  V30 16177 H 1600.2 0.173526 -0.726566 0
M  V30 16178 H 1602.86 -0.2634 -1.93112 0
M  V30 16179 H 1601.96 0.815729 -3.01251 0
M  V30 16180 N 1602.26 1.57322 0.0935319 0
M  V30 16181 C 1603.22 2.0121 1.0976 0
M  V30 16182 C 1604.22 0.905839 1.32858 0
M  V30 16183 O 1605.41 1.17128 1.28945 0
M  V30 16184 C 1602.55 2.37414 2.44638 0
M  V30 16185 H 1603.74 2.91134 0.719809 0
M  V30 16186 H 1601.29 1.52588 0.338625 0
M  V30 16187 H 1602.03 1.50449 2.8729 0
M  V30 16188 H 1601.81 3.1812 2.2922 0
M  V30 16189 H 1603.3 2.7202 3.16851 0
M  V30 16190 N 1603.74 -0.364395 1.53329 0
M  V30 16191 C 1604.98 -1.10855 1.6982 0
M  V30 16192 C 1605.32 -1.88931 0.449291 0
M  V30 16193 O 1604.59 -1.8646 -0.553437 0
M  V30 16194 C 1604.88 -2.06681 2.94881 0
M  V30 16195 C 1604.73 -1.32206 4.29932 0
M  V30 16196 C 1606.05 -3.06788 3.15546 0
M  V30 16197 H 1603.17 -0.401626 0.617953 0
M  V30 16198 H 1605.81 -0.389244 1.8597 0
M  V30 16199 H 1603.96 -2.68019 2.81244 0
M  V30 16200 H 1605.63 -0.73642 4.55384 0
M  V30 16201 H 1603.87 -0.623916 4.2929 0
M  V30 16202 H 1604.54 -2.0235 5.13574 0
M  V30 16203 H 1607.02 -2.55554 3.28377 0
M  V30 16204 H 1605.9 -3.71059 4.04483 0
M  V30 16205 H 1606.16 -3.77023 2.3088 0
M  V30 16206 N 1605.22 -1.44709 -0.62426 0
M  V30 16207 C 1606.16 -1.52104 -1.73589 0
M  V30 16208 C 1607.13 -0.368193 -1.61968 0
M  V30 16209 O 1608.32 -0.579374 -1.81791 0
M  V30 16210 C 1605.46 -1.4778 -3.11857 0
M  V30 16211 C 1604.57 -2.73491 -3.34405 0
M  V30 16212 C 1603.71 -2.60953 -4.62685 0
M  V30 16213 C 1602.75 -3.81795 -4.78434 0
M  V30 16214 N 1601.88 -3.67892 -5.97997 0
M  V30 16215 H 1606.72 -2.47077 -1.66604 0
M  V30 16216 H 1604.26 -1.22617 -0.812616 0
M  V30 16217 H 1606.22 -1.43263 -3.91831 0
M  V30 16218 H 1604.85 -0.563694 -3.1784 0
M  V30 16219 H 1603.9 -2.88166 -2.48324 0
M  V30 16220 H 1605.21 -3.6317 -3.4192 0
M  V30 16221 H 1604.37 -2.54308 -5.50829 0
M  V30 16222 H 1603.1 -1.68846 -4.57539 0
M  V30 16223 H 1602.11 -3.88817 -3.88717 0
M  V30 16224 H 1603.33 -4.74947 -4.85388 0
M  V30 16225 H 1601.28 -2.78541 -5.93928 0
M  V30 16226 H 1601.2 -4.51193 -6.06598 0
M  V30 16227 H 1602.47 -3.6515 -6.88684 0
M  V30 16228 N 1606.69 0.865285 -1.31722 0
M  V30 16229 C 1607.92 1.65137 -1.24649 0
M  V30 16230 C 1608.34 1.87868 0.187391 0
M  V30 16231 O 1607.69 1.44015 1.12098 0
M  V30 16232 C 1607.75 3.0167 -1.99193 0
M  V30 16233 O 1607.47 2.79951 -3.36985 0
M  V30 16234 C 1608.97 3.96115 -1.99017 0
M  V30 16235 H 1606.19 0.514683 -0.430514 0
M  V30 16236 H 1608.73 1.07971 -1.73674 0
M  V30 16237 H 1606.89 3.55511 -1.53918 0
M  V30 16238 H 1607.3 3.66706 -3.75002 0
M  V30 16239 H 1608.77 4.89217 -2.55677 0
M  V30 16240 H 1609.25 4.28268 -0.973815 0
M  V30 16241 H 1609.86 3.4821 -2.44192 0
M  V30 16242 N 1608.17 1.14759 1.0802 0
M  V30 16243 C 1609.08 0.851934 2.18585 0
M  V30 16244 C 1610.1 -0.16914 1.73176 0
M  V30 16245 O 1611.27 0.00330114 2.014 0
M  V30 16246 C 1608.34 0.337977 3.45049 0
M  V30 16247 C 1607.4 1.4221 4.05061 0
M  V30 16248 C 1606.63 0.932574 5.25489 0
M  V30 16249 O 1606.86 -0.224457 5.69958 0
M  V30 16250 O 1605.79 1.7133 5.77001 0
M  V30 16251 H 1609.62 1.77605 2.46354 0
M  V30 16252 H 1607.2 0.926159 1.17229 0
M  V30 16253 H 1609.08 0.0574734 4.21361 0
M  V30 16254 H 1607.76 -0.558363 3.18848 0
M  V30 16255 H 1606.67 1.75612 3.3032 0
M  V30 16256 H 1608 2.29311 4.3552 0
M  V30 16257 N 1609.65 -1.26251 0.943322 0
M  V30 16258 C 1610.9 -1.9327 0.590863 0
M  V30 16259 C 1611.22 -1.74356 -0.873212 0
M  V30 16260 O 1610.49 -1.10046 -1.6207 0
M  V30 16261 H 1609.07 -0.71523 0.215535 0
M  V30 16262 H 1611.73 -1.53647 1.19911 0
M  V30 16263 H 1610.83 -3.01393 0.810475 0
M  V30 16264 N 1611.13 -0.710588 -1.40671 0
M  V30 16265 C 1612.38 -0.247459 -2.00579 0
M  V30 16266 C 1612.7 1.16179 -1.56612 0
M  V30 16267 O 1611.97 1.7867 -0.803358 0
M  V30 16268 H 1610.55 -0.0884992 -0.741739 0
M  V30 16269 H 1613.21 -0.915103 -1.72081 0
M  V30 16270 H 1612.31 -0.276631 -3.10872 0
M  V30 16271 N 1612.61 1.50847 -0.456408 0
M  V30 16272 C 1613.86 2.01835 0.103414 0
M  V30 16273 C 1614.18 1.34142 1.4153 0
M  V30 16274 O 1613.45 0.482015 1.89877 0
M  V30 16275 H 1612.03 0.745863 0.0412074 0
M  V30 16276 H 1614.69 1.85322 -0.603477 0
M  V30 16277 H 1613.78 3.10968 0.265562 0
M  V30 16278 N 1614.09 0.188454 1.56469 0
M  V30 16279 C 1615.31 -0.460975 2.02212 0
M  V30 16280 C 1615.74 -1.54856 1.06777 0
M  V30 16281 O 1615.09 -1.81231 0.0501425 0
M  V30 16282 C 1615.14 -1.00047 3.46443 0
M  V30 16283 O 1614.25 -2.1137 3.54114 0
M  V30 16284 H 1613.59 -0.108497 0.655076 0
M  V30 16285 H 1616.12 0.297381 2.02427 0
M  V30 16286 H 1616.13 -1.31876 3.86099 0
M  V30 16287 H 1614.8 -0.204273 4.15398 0
M  V30 16288 H 1613.38 -1.80456 3.26328 0
M  V30 16289 N 1615.56 -1.5737 -0.0851874 0
M  V30 16290 C 1616.47 -2.06097 -1.12078 0
M  V30 16291 C 1617.49 -0.987809 -1.43242 0
M  V30 16292 O 1618.67 -1.30163 -1.53686 0
M  V30 16293 C 1615.73 -2.48397 -2.41867 0
M  V30 16294 C 1614.79 -3.69951 -2.17795 0
M  V30 16295 C 1614.02 -4.10225 -3.41396 0
M  V30 16296 O 1614.25 -3.50495 -4.5001 0
M  V30 16297 O 1613.18 -5.03111 -3.30399 0
M  V30 16298 H 1617.01 -2.94625 -0.736877 0
M  V30 16299 H 1614.59 -1.4639 -0.298392 0
M  V30 16300 H 1616.47 -2.76187 -3.18274 0
M  V30 16301 H 1615.15 -1.63003 -2.79664 0
M  V30 16302 H 1614.06 -3.47263 -1.39136 0
M  V30 16303 H 1615.39 -4.56156 -1.84886 0
M  V30 16304 N 1617.04 0.356258 -1.53521 0
M  V30 16305 C 1618 1.41975 -1.79933 0
M  V30 16306 C 1619 1.46177 -0.669997 0
M  V30 16307 O 1620.19 1.46774 -0.938239 0
M  V30 16308 C 1617.33 2.81015 -1.92985 0
M  V30 16309 H 1618.52 1.19824 -2.74922 0
M  V30 16310 H 1616.07 0.589928 -1.4474 0
M  V30 16311 H 1616.81 3.08466 -1.00095 0
M  V30 16312 H 1616.59 2.79363 -2.75135 0
M  V30 16313 H 1618.08 3.58013 -2.1498 0
M  V30 16314 N 1618.52 1.45038 0.616577 0
M  V30 16315 C 1619.93 1.4316 1.19842 0
M  V30 16316 C 1620.28 0.154504 1.95591 0
M  V30 16317 O 1619.41 -0.744409 2.03193 0
M  V30 16318 C 1620 2.59354 2.17993 0
M  V30 16319 C 1618.56 2.60625 2.71573 0
M  V30 16320 C 1617.71 2.35243 1.4682 0
M  V30 16321 H 1620.66 1.53408 0.406402 0
M  V30 16322 H 1620.68 2.32939 3.00865 0
M  V30 16323 H 1620.19 3.52288 1.62833 0
M  V30 16324 H 1618.29 1.71672 3.30695 0
M  V30 16325 H 1618.41 3.59568 3.16619 0
M  V30 16326 H 1616.77 1.84622 1.75462 0
M  V30 16327 H 1617.55 3.3031 0.935414 0
M  V30 16328 N 1620 -0.858287 1.32179 0
M  V30 16329 C 1620.93 -1.98219 1.23415 0
M  V30 16330 C 1621.91 -1.69685 0.118779 0
M  V30 16331 O 1623.09 -1.91785 0.305342 0
M  V30 16332 C 1620.22 -3.33977 0.952725 0
M  V30 16333 C 1619.18 -3.76853 2.02894 0
M  V30 16334 C 1618.5 -5.10201 1.59999 0
M  V30 16335 C 1619.8 -3.92707 3.44352 0
M  V30 16336 H 1621.5 -2.05809 2.17446 0
M  V30 16337 H 1619.04 -0.988817 1.04682 0
M  V30 16338 H 1621 -4.12152 0.87798 0
M  V30 16339 H 1619.72 -3.26592 -0.023234 0
M  V30 16340 H 1618.38 -3.00926 2.09378 0
M  V30 16341 H 1618.03 -4.99268 0.61157 0
M  V30 16342 H 1617.73 -5.39859 2.32004 0
M  V30 16343 H 1619.25 -5.90873 1.53954 0
M  V30 16344 H 1620.67 -4.61246 3.40477 0
M  V30 16345 H 1619.06 -4.33779 4.14675 0
M  V30 16346 H 1620.13 -2.95731 3.8428 0
M  V30 16347 N 1621.48 -1.1533 -1.07409 0
M  V30 16348 C 1622.72 -0.938329 -1.8159 0
M  V30 16349 C 1623.08 0.525171 -1.84678 0
M  V30 16350 O 1624.28 0.858449 -2.54724 0
M  V30 16351 C 1622.55 -1.53504 -3.22756 0
M  V30 16352 S 1624.11 -1.4631 -4.13689 0
M  V30 16353 H 1620.93 -0.337711 -0.625677 0
M  V30 16354 H 1623.53 -1.46868 -1.29035 0
M  V30 16355 H 1622.23 -2.59313 -3.18096 0
M  V30 16356 H 1621.77 -1.00353 -3.80385 0
M  V30 16357 H 1623.78 -0.455576 -4.94104 0
M  V30 16358 N 1622.95 1.25748 -0.950004 0
M  V30 16359 C 1624.36 1.75253 -0.643694 0
M  V30 16360 C 1624.72 1.77261 0.841017 0
M  V30 16361 O 1623.84 1.39043 1.65819 0
M  V30 16362 C 1624.44 3.1826 -1.16173 0
M  V30 16363 C 1622.99 3.65342 -0.905672 0
M  V30 16364 C 1622.14 2.4454 -1.30749 0
M  V30 16365 H 1625.09 1.117 -1.12733 0
M  V30 16366 H 1625.11 3.76935 -0.519651 0
M  V30 16367 H 1624.63 3.16766 -2.24234 0
M  V30 16368 H 1622.73 3.72256 0.160174 0
M  V30 16369 H 1622.84 4.53713 -1.53888 0
M  V30 16370 H 1621.2 2.44138 -0.725876 0
M  V30 16371 H 1621.99 2.45741 -2.39721 0
M  V30 16372 N 1624.43 0.718038 1.40292 0
M  V30 16373 C 1625.68 0.258092 2.00445 0
M  V30 16374 C 1626 -1.15347 1.57226 0
M  V30 16375 O 1625.27 -1.78241 0.812822 0
M  V30 16376 H 1623.85 0.0924316 0.741259 0
M  V30 16377 H 1626.51 0.924216 1.71593 0
M  V30 16378 H 1625.61 0.293113 3.10721 0
M  V30 16379 N 1625.91 -1.50602 0.464402 0
M  V30 16380 C 1627.32 -1.86698 0.00767586 0
M  V30 16381 C 1627.67 -1.37971 -1.39494 0
M  V30 16382 O 1626.8 -0.741843 -2.03287 0
M  V30 16383 C 1627.39 -3.38799 0.00715323 0
M  V30 16384 C 1625.95 -3.74331 -0.394077 0
M  V30 16385 C 1625.1 -2.74465 0.395495 0
M  V30 16386 H 1628.05 -1.43441 0.678996 0
M  V30 16387 H 1628.07 -3.7207 -0.796497 0
M  V30 16388 H 1627.58 -3.74234 1.02812 0
M  V30 16389 H 1625.68 -3.44495 -1.41964 0
M  V30 16390 H 1625.8 -4.78995 -0.10007 0
M  V30 16391 H 1624.16 -2.54258 -0.149903 0
M  V30 16392 H 1624.94 -3.12744 1.41585 0
M  V30 16393 N 1627.39 -0.19675 -1.56367 0
M  V30 16394 C 1628.8 0.315555 -1.84014 0
M  V30 16395 C 1629.15 1.61267 -1.11747 0
M  V30 16396 O 1628.28 2.13058 -0.378824 0
M  V30 16397 C 1628.87 0.579307 -3.33811 0
M  V30 16398 C 1627.43 1.03598 -3.61862 0
M  V30 16399 C 1626.58 0.0854845 -2.77168 0
M  V30 16400 H 1629.53 -0.4205 -1.53028 0
M  V30 16401 H 1629.55 1.42841 -3.52671 0
M  V30 16402 H 1629.06 -0.364925 -3.86381 0
M  V30 16403 H 1627.16 1.99443 -3.14727 0
M  V30 16404 H 1627.27 0.927547 -4.70035 0
M  V30 16405 H 1625.64 0.58768 -2.47827 0
M  V30 16406 H 1626.42 -0.853221 -3.32528 0
M  V30 16407 N 1628.87 1.57413 0.0768405 0
M  V30 16408 C 1629.83 2.02363 1.0762 0
M  V30 16409 C 1630.83 0.919879 1.3189 0
M  V30 16410 O 1632.02 1.18489 1.27695 0
M  V30 16411 C 1629.15 2.39995 2.42106 0
M  V30 16412 H 1630.34 2.91881 0.688889 0
M  V30 16413 H 1627.9 1.52938 0.322422 0
M  V30 16414 H 1628.63 1.53488 2.85678 0
M  V30 16415 H 1628.42 3.20534 2.25833 0
M  V30 16416 H 1629.91 2.75365 3.13948 0
M  V30 16417 N 1630.34 -0.348112 1.53707 0
M  V30 16418 C 1631.59 -1.08671 1.70396 0
M  V30 16419 C 1631.91 -1.89314 0.467453 0
M  V30 16420 O 1631.18 -1.88911 -0.518605 0
M  V30 16421 H 1629.76 -0.404186 0.628206 0
M  V30 16422 H 1632.43 -0.390491 1.90948 0
M  V30 16423 H 1631.52 -1.76668 2.57284 0
M  V30 16424 N 1631.82 -1.45363 -0.608876 0
M  V30 16425 C 1632.73 -1.56471 -1.74797 0
M  V30 16426 C 1633.75 -0.449225 -1.68101 0
M  V30 16427 O 1634.92 -0.709731 -1.8848 0
M  V30 16428 C 1631.99 -1.52714 -3.11254 0
M  V30 16429 C 1631.05 -2.75291 -3.29414 0
M  V30 16430 C 1630.28 -2.71704 -4.59361 0
M  V30 16431 O 1630.51 -1.78959 -5.41599 0
M  V30 16432 O 1629.44 -3.62886 -4.80205 0
M  V30 16433 H 1633.27 -2.52751 -1.68377 0
M  V30 16434 H 1630.85 -1.27859 -0.772808 0
M  V30 16435 H 1632.73 -1.53222 -3.92557 0
M  V30 16436 H 1631.41 -0.595858 -3.18169 0
M  V30 16437 H 1630.32 -2.80345 -2.47704 0
M  V30 16438 H 1631.65 -3.67541 -3.27375 0
M  V30 16439 N 1633.3 0.851265 -1.32632 0
M  V30 16440 C 1634.21 1.99239 -1.23858 0
M  V30 16441 C 1635.23 1.73339 -0.151517 0
M  V30 16442 O 1636.4 1.97919 -0.372822 0
M  V30 16443 C 1633.47 3.32987 -0.965417 0
M  V30 16444 C 1632.53 3.72087 -2.14126 0
M  V30 16445 C 1631.76 4.99453 -1.88103 0
M  V30 16446 O 1631.98 5.64399 -0.825253 0
M  V30 16447 O 1630.92 5.35763 -2.74302 0
M  V30 16448 H 1634.74 2.09579 -2.19796 0
M  V30 16449 H 1632.33 0.98243 -1.12555 0
M  V30 16450 H 1634.21 4.13151 -0.829713 0
M  V30 16451 H 1632.89 3.2368 -0.036219 0
M  V30 16452 H 1631.79 2.92485 -2.33245 0
M  V30 16453 H 1633.13 3.86045 -3.05336 0
M  V30 16454 N 1634.78 1.15898 1.06796 0
M  V30 16455 C 1636.19 0.945837 1.60968 0
M  V30 16456 C 1636.54 -0.511507 1.89415 0
M  V30 16457 O 1635.67 -1.38372 1.66379 0
M  V30 16458 C 1636.26 1.71054 2.92448 0
M  V30 16459 C 1634.82 1.54252 3.43341 0
M  V30 16460 C 1633.97 1.72253 2.17311 0
M  V30 16461 H 1636.92 1.30842 0.898118 0
M  V30 16462 H 1636.94 1.18336 3.61631 0
M  V30 16463 H 1636.45 2.77117 2.71712 0
M  V30 16464 H 1634.55 0.506082 3.69147 0
M  V30 16465 H 1634.66 2.32314 4.19007 0
M  V30 16466 H 1633.03 1.14952 2.27284 0
M  V30 16467 H 1633.81 2.79693 1.99064 0
M  V30 16468 N 1636.26 -1.25243 0.956659 0
M  V30 16469 C 1637.22 -2.24054 0.482949 0
M  V30 16470 C 1638.22 -1.55367 -0.41447 0
M  V30 16471 O 1639.41 -1.72912 -0.211475 0
M  V30 16472 C 1636.54 -3.3956 -0.301975 0
M  V30 16473 H 1637.73 -2.67476 1.35634 0
M  V30 16474 H 1635.29 -1.37665 0.740138 0
M  V30 16475 H 1636.02 -3.01561 -1.19294 0
M  V30 16476 H 1635.81 -3.90607 0.341876 0
M  V30 16477 H 1637.3 -4.1293 -0.622807 0
M  V30 16478 N 1637.73 -0.725468 -1.3991 0
M  V30 16479 C 1638.98 -0.266188 -1.99936 0
M  V30 16480 C 1639.3 1.15022 -1.58207 0
M  V30 16481 O 1640.5 1.70853 -2.11001 0
M  V30 16482 C 1638.96 -0.424978 -3.57382 0
M  V30 16483 C 1638.57 -1.84866 -4.08079 0
M  V30 16484 C 1640.31 -0.0269907 -4.24491 0
M  V30 16485 C 1638.22 -1.95751 -5.58064 0
M  V30 16486 H 1637.15 -0.0957688 -0.747893 0
M  V30 16487 H 1639.8 -0.89798 -1.60027 0
M  V30 16488 H 1638.18 0.275558 -3.9504 0
M  V30 16489 H 1639.35 -2.58037 -3.81776 0
M  V30 16490 H 1637.67 -2.199 -3.536 0
M  V30 16491 H 1640.27 -0.0874638 -5.34628 0
M  V30 16492 H 1640.61 1.01639 -4.03702 0
M  V30 16493 H 1641.14 -0.678332 -3.91974 0
M  V30 16494 H 1637.88 -2.98244 -5.83721 0
M  V30 16495 H 1637.4 -1.27004 -5.862 0
M  V30 16496 H 1639.08 -1.73422 -6.23325 0
M  V30 16497 N 1639.21 1.50354 -0.472382 0
M  V30 16498 C 1640.44 2.07238 0.0820787 0
M  V30 16499 C 1640.86 1.3338 1.32632 0
M  V30 16500 O 1640.22 0.381857 1.77233 0
M  V30 16501 C 1640.27 3.58919 0.347746 0
M  V30 16502 O 1639.37 3.86888 1.42799 0
M  V30 16503 H 1638.71 0.663862 -0.0135544 0
M  V30 16504 H 1641.24 1.93533 -0.663795 0
M  V30 16505 H 1641.25 4.03743 0.587855 0
M  V30 16506 H 1639.93 4.12093 -0.56147 0
M  V30 16507 H 1638.51 3.53901 1.17509 0
M  V30 16508 N 1640.69 0.205039 1.56261 0
M  V30 16509 C 1641.6 -0.723548 2.23164 0
M  V30 16510 C 1642.62 -1.22683 1.23389 0
M  V30 16511 O 1643.79 -1.27191 1.56155 0
M  V30 16512 C 1640.86 -1.92178 2.88563 0
M  V30 16513 C 1639.92 -1.46209 4.03635 0
M  V30 16514 C 1639.15 -2.60321 4.65906 0
M  V30 16515 O 1639.38 -3.78051 4.27122 0
M  V30 16516 O 1638.31 -2.32465 5.55197 0
M  V30 16517 H 1642.14 -0.183715 3.03144 0
M  V30 16518 H 1639.72 -0.0246933 1.4938 0
M  V30 16519 H 1641.6 -2.62188 3.29902 0
M  V30 16520 H 1640.28 -2.45003 2.11555 0
M  V30 16521 H 1639.18 -0.730492 3.66899 0
M  V30 16522 H 1640.52 -0.980402 4.82337 0
M  V30 16523 N 1642.17 -1.57451 -0.0684915 0
M  V30 16524 C 1643.13 -2.0293 -1.06545 0
M  V30 16525 C 1644.13 -0.926861 -1.314 0
M  V30 16526 O 1645.32 -1.19164 -1.27065 0
M  V30 16527 C 1642.45 -2.41276 -2.4083 0
M  V30 16528 H 1643.65 -2.92242 -0.673401 0
M  V30 16529 H 1641.2 -1.53107 -0.314307 0
M  V30 16530 H 1641.94 -1.55 -2.8486 0
M  V30 16531 H 1641.72 -3.21727 -2.2413 0
M  V30 16532 H 1643.21 -2.77026 -3.12484 0
M  V30 16533 N 1643.65 0.339955 -1.5389 0
M  V30 16534 C 1644.61 1.40058 -1.81429 0
M  V30 16535 C 1645.61 1.45458 -0.685463 0
M  V30 16536 O 1646.8 1.45771 -0.953754 0
M  V30 16537 C 1643.93 2.78952 -1.95955 0
M  V30 16538 H 1645.13 1.16902 -2.76178 0
M  V30 16539 H 1642.68 0.574543 -1.45357 0
M  V30 16540 H 1643.41 3.07387 -1.03361 0
M  V30 16541 H 1643.2 2.76429 -2.78082 0
M  V30 16542 H 1644.69 3.55713 -2.18765 0
M  V30 16543 N 1645.13 1.45684 0.601159 0
M  V30 16544 C 1646.54 1.44423 1.18317 0
M  V30 16545 C 1646.89 0.17524 1.95416 0
M  V30 16546 O 1646.01 -0.722816 2.03971 0
M  V30 16547 C 1646.61 2.61651 2.1523 0
M  V30 16548 C 1645.17 2.6349 2.68793 0
M  V30 16549 C 1644.31 2.36787 1.44317 0
M  V30 16550 H 1647.26 1.53831 0.390108 0
M  V30 16551 H 1647.29 2.36117 2.98377 0
M  V30 16552 H 1646.8 3.53995 1.59088 0
M  V30 16553 H 1644.9 1.7517 3.28856 0
M  V30 16554 H 1645.01 3.62906 3.12787 0
M  V30 16555 H 1643.38 1.86472 1.73494 0
M  V30 16556 H 1644.16 3.31284 0.900327 0
M  V30 16557 N 1646.6 -0.84422 1.33082 0
M  V30 16558 C 1647.51 -1.9858 1.24913 0
M  V30 16559 C 1648.53 -1.73256 0.160708 0
M  V30 16560 O 1649.71 -1.97719 0.383313 0
M  V30 16561 C 1646.77 -3.32471 0.983063 0
M  V30 16562 C 1645.83 -3.70946 2.16096 0
M  V30 16563 C 1645.06 -4.98448 1.90749 0
M  V30 16564 O 1645.29 -5.63953 0.855173 0
M  V30 16565 O 1644.22 -5.34301 2.7714 0
M  V30 16566 H 1648.05 -2.0841 2.20905 0
M  V30 16567 H 1645.63 -0.976447 1.13075 0
M  V30 16568 H 1647.51 -4.12705 0.851612 0
M  V30 16569 H 1646.19 -3.23656 0.053384 0
M  V30 16570 H 1645.1 -2.91244 2.34793 0
M  V30 16571 H 1646.43 -3.8442 3.07379 0
M  V30 16572 N 1648.08 -1.16463 -1.0618 0
M  V30 16573 C 1649.04 -0.874674 -2.11854 0
M  V30 16574 C 1650.04 0.130829 -1.60267 0
M  V30 16575 O 1651.23 -0.100195 -1.73912 0
M  V30 16576 C 1648.37 -0.30826 -3.39503 0
M  V30 16577 H 1649.56 -1.81149 -2.39009 0
M  V30 16578 H 1647.11 -0.973721 -1.22264 0
M  V30 16579 H 1647.85 0.636181 -3.17999 0
M  V30 16580 H 1647.63 -1.03281 -3.78253 0
M  V30 16581 H 1649.12 -0.123378 -4.17418 0
M  V30 16582 N 1649.56 1.24734 -0.963288 0
M  V30 16583 C 1650.81 1.92305 -0.621536 0
M  V30 16584 C 1651.13 1.75723 0.845363 0
M  V30 16585 O 1650.4 1.1261 1.60299 0
M  V30 16586 H 1648.98 0.71171 -0.226886 0
M  V30 16587 H 1651.64 1.5172 -1.2234 0
M  V30 16588 H 1650.74 3.00065 -0.858322 0
M  V30 16589 N 1651.04 0.732878 1.39523 0
M  V30 16590 C 1652 0.10004 2.28982 0
M  V30 16591 C 1653 -0.669361 1.46206 0
M  V30 16592 O 1654.19 -0.498694 1.66909 0
M  V30 16593 C 1651.32 -0.867616 3.29674 0
M  V30 16594 H 1652.52 0.88816 2.86447 0
M  V30 16595 H 1650.07 0.498578 1.48135 0
M  V30 16596 H 1650.8 -1.68217 2.77261 0
M  V30 16597 H 1650.59 -0.318577 3.90804 0
M  V30 16598 H 1652.08 -1.30704 3.96618 0
M  V30 16599 N 1652.52 -1.50101 0.480349 0
M  V30 16600 C 1653.93 -1.8668 0.0274773 0
M  V30 16601 C 1654.28 -1.39442 -1.38023 0
M  V30 16602 O 1653.4 -0.763363 -2.02489 0
M  V30 16603 C 1654 -3.38773 0.043087 0
M  V30 16604 C 1652.56 -3.74728 -0.354352 0
M  V30 16605 C 1651.7 -2.7403 0.424583 0
M  V30 16606 H 1654.65 -1.42713 0.694172 0
M  V30 16607 H 1654.68 -3.72894 -0.756989 0
M  V30 16608 H 1654.19 -3.73123 1.06775 0
M  V30 16609 H 1652.29 -3.45981 -1.38303 0
M  V30 16610 H 1652.4 -4.79075 -0.0492608 0
M  V30 16611 H 1650.77 -2.54403 -0.122927 0
M  V30 16612 H 1651.55 -3.11225 1.44894 0
M  V30 16613 N 1653.99 -0.213323 -1.5615 0
M  V30 16614 C 1655.22 0.425688 -2.02473 0
M  V30 16615 C 1655.64 1.53926 -1.09326 0
M  V30 16616 O 1654.99 1.82218 -0.101364 0
M  V30 16617 C 1655.04 0.965021 -3.48381 0
M  V30 16618 O 1654.77 -0.104145 -4.37976 0
M  V30 16619 C 1656.27 1.6781 -4.10311 0
M  V30 16620 H 1653.49 0.105064 -0.662724 0
M  V30 16621 H 1656.03 -0.327369 -2.01863 0
M  V30 16622 H 1654.19 1.66838 -3.49634 0
M  V30 16623 H 1654.6 0.299985 -5.23641 0
M  V30 16624 H 1656.07 2.00757 -5.14199 0
M  V30 16625 H 1656.55 2.58833 -3.54827 0
M  V30 16626 H 1657.16 1.02014 -4.12884 0
M  V30 16627 N 1655.47 1.57485 0.0601405 0
M  V30 16628 C 1656.7 1.92438 0.773466 0
M  V30 16629 C 1657.12 0.810755 1.6973 0
M  V30 16630 O 1656.48 -0.235697 1.79761 0
M  V30 16631 C 1656.53 3.26381 1.53323 0
M  V30 16632 O 1655.63 3.16436 2.64465 0
M  V30 16633 H 1654.97 0.629838 0.210239 0
M  V30 16634 H 1657.5 2.04585 0.0248981 0
M  V30 16635 H 1657.51 3.60534 1.90996 0
M  V30 16636 H 1656.19 4.07007 0.855468 0
M  V30 16637 H 1654.77 2.93862 2.29564 0
M  V30 16638 N 1656.95 -0.331789 1.54068 0
M  V30 16639 C 1657.91 -1.39094 1.82169 0
M  V30 16640 C 1658.91 -1.45092 0.693168 0
M  V30 16641 O 1660.1 -1.45263 0.961471 0
M  V30 16642 C 1657.24 -2.77909 1.97432 0
M  V30 16643 H 1658.43 -1.15435 2.76794 0
M  V30 16644 H 1655.98 -0.566827 1.4566 0
M  V30 16645 H 1656.72 -3.06835 1.0499 0
M  V30 16646 H 1656.5 -2.7495 2.79544 0
M  V30 16647 H 1657.99 -3.54548 2.20649 0
M  V30 16648 N 1658.43 -1.46001 -0.593424 0
M  V30 16649 C 1659.65 -1.54541 -1.38318 0
M  V30 16650 C 1660.08 -0.183555 -1.87202 0
M  V30 16651 O 1659.44 0.834407 -1.60958 0
M  V30 16652 C 1659.48 -2.54559 -2.55405 0
M  V30 16653 O 1658.59 -2.07321 -3.56499 0
M  V30 16654 H 1657.93 -0.520434 -0.412364 0
M  V30 16655 H 1660.46 -1.9148 -0.720862 0
M  V30 16656 H 1660.47 -2.73823 -3.02465 0
M  V30 16657 H 1659.14 -3.53461 -2.19176 0
M  V30 16658 H 1657.72 -1.97997 -3.15993 0
M  V30 16659 N 1659.91 0.83715 -1.33527 0
M  V30 16660 C 1661.15 1.58937 -1.24834 0
M  V30 16661 C 1661.48 1.94117 0.185368 0
M  V30 16662 O 1660.75 1.61105 1.11453 0
M  V30 16663 H 1659.33 0.589301 -0.459057 0
M  V30 16664 H 1661.99 1.00038 -1.67267 0
M  V30 16665 H 1661.08 2.51855 -1.84325 0
M  V30 16666 N 1661.38 1.17024 1.05561 0
M  V30 16667 C 1662.31 0.906823 2.15172 0
M  V30 16668 C 1663.3 -0.149745 1.6944 0
M  V30 16669 O 1664.48 -0.000287092 1.942 0
M  V30 16670 C 1661.61 0.415251 3.44809 0
M  V30 16671 C 1660.56 1.41058 4.04088 0
M  V30 16672 C 1659.89 0.777109 5.29023 0
M  V30 16673 C 1661.19 2.78258 4.42007 0
M  V30 16674 H 1662.88 1.82347 2.37466 0
M  V30 16675 H 1660.43 0.878162 1.14124 0
M  V30 16676 H 1662.38 0.218407 4.20834 0
M  V30 16677 H 1661.11 -0.536924 3.22156 0
M  V30 16678 H 1659.77 1.5941 3.30127 0
M  V30 16679 H 1659.41 -0.181784 5.02671 0
M  V30 16680 H 1659.11 1.44151 5.69644 0
M  V30 16681 H 1660.64 0.590455 6.07738 0
M  V30 16682 H 1662.05 2.63645 5.09082 0
M  V30 16683 H 1660.45 3.41241 4.93634 0
M  V30 16684 H 1661.52 3.3295 3.52523 0
M  V30 16685 N 1662.86 -1.24221 0.969889 0
M  V30 16686 C 1663.81 -2.27299 0.493765 0
M  V30 16687 C 1664.8 -1.63483 -0.443824 0
M  V30 16688 O 1666.01 -1.77153 -0.318873 0
M  V30 16689 H 1662.39 -0.738622 0.141216 0
M  V30 16690 H 1664.36 -2.6483 1.37506 0
M  V30 16691 C 1663.11 -3.47134 -0.198399 0
M  V30 16692 H 1662.43 -3.96483 0.51395 0
M  V30 16693 H 1663.87 -4.21097 -0.495334 0
M  V30 16694 C 1662.33 -3.05227 -1.42612 0
M  V30 16695 O 1662.86 -3.1258 -2.52302 0
M  V30 16696 N 1661.06 -2.60252 -1.29295 0
M  V30 16697 H 1660.61 -2.54468 -0.400461 0
M  V30 16698 H 1660.57 -2.32579 -2.11553 0
M  V30 16699 N 1664.34 -0.740267 -1.39132 0
M  V30 16700 C 1665.59 -0.289949 -2.00009 0
M  V30 16701 C 1665.91 1.12831 -1.59042 0
M  V30 16702 O 1665.18 1.76926 -0.841076 0
M  V30 16703 H 1663.76 -0.104213 -0.739695 0
M  V30 16704 H 1666.42 -0.951398 -1.70101 0
M  V30 16705 H 1665.52 -0.342509 -3.10215 0
M  V30 16706 N 1665.82 1.49844 -0.488302 0
M  V30 16707 C 1666.77 2.25802 0.315853 0
M  V30 16708 C 1667.75 1.30108 0.946606 0
M  V30 16709 O 1668.94 1.54908 0.856306 0
M  V30 16710 C 1666.07 3.14024 1.38723 0
M  V30 16711 C 1665.16 4.17174 0.763348 0
M  V30 16712 N 1665.55 5.05642 -0.126544 0
M  V30 16713 C 1663.85 4.34053 1.02537 0
M  V30 16714 C 1664.55 5.79696 -0.482379 0
M  V30 16715 N 1663.53 5.43402 0.146639 0
M  V30 16716 H 1667.33 2.91569 -0.369397 0
M  V30 16717 H 1664.84 1.59538 -0.30355 0
M  V30 16718 H 1666.84 3.67061 1.97666 0
M  V30 16719 H 1665.5 2.49807 2.07429 0
M  V30 16720 H 1666.51 5.15514 -0.49653 0
M  V30 16721 H 1663.19 3.81048 1.70613 0
M  V30 16722 H 1664.58 6.60921 -1.20965 0
M  V30 16723 N 1667.3 0.221601 1.56034 0
M  V30 16724 C 1668.71 -0.28624 1.84493 0
M  V30 16725 C 1669.06 -1.59469 1.14298 0
M  V30 16726 O 1668.18 -2.12429 0.412672 0
M  V30 16727 C 1668.78 -0.526128 3.3469 0
M  V30 16728 C 1667.34 -0.978278 3.63465 0
M  V30 16729 C 1666.48 -0.0413786 2.77269 0
M  V30 16730 H 1669.44 0.444792 1.52339 0
M  V30 16731 H 1669.46 -1.37212 3.54899 0
M  V30 16732 H 1668.97 0.426348 3.85751 0
M  V30 16733 H 1667.07 -1.94411 3.1786 0
M  V30 16734 H 1667.18 -0.852651 4.71452 0
M  V30 16735 H 1665.55 -0.548179 2.48731 0
M  V30 16736 H 1666.33 0.906016 3.31129 0
M  V30 16737 N 1668.77 -1.57515 -0.0517878 0
M  V30 16738 C 1670 -1.92456 -0.759485 0
M  V30 16739 C 1670.42 -0.819396 -1.70092 0
M  V30 16740 O 1669.77 0.205913 -1.81335 0
M  V30 16741 C 1669.83 -3.27242 -1.53606 0
M  V30 16742 O 1669.55 -4.33511 -0.632441 0
M  V30 16743 C 1671.05 -3.76324 -2.34297 0
M  V30 16744 H 1668.27 -0.635688 -0.214807 0
M  V30 16745 H 1670.81 -2.04494 -0.0160862 0
M  V30 16746 H 1668.97 -3.16671 -2.23155 0
M  V30 16747 H 1669.38 -5.11178 -1.17462 0
M  V30 16748 H 1670.85 -4.73209 -2.84213 0
M  V30 16749 H 1671.33 -3.06351 -3.14716 0
M  V30 16750 H 1671.94 -3.89904 -1.69866 0
M  V30 16751 N 1670.25 0.323614 -1.54242 0
M  V30 16752 C 1671.18 1.40344 -1.86616 0
M  V30 16753 C 1672.16 1.53972 -0.722963 0
M  V30 16754 O 1673.35 1.67852 -0.976692 0
M  V30 16755 C 1670.48 2.77112 -2.09347 0
M  V30 16756 C 1669.43 2.78273 -3.25189 0
M  V30 16757 C 1668.76 4.18116 -3.33291 0
M  V30 16758 C 1670.06 2.42025 -4.6284 0
M  V30 16759 H 1671.75 1.13499 -2.77053 0
M  V30 16760 H 1669.3 0.544553 -1.33306 0
M  V30 16761 H 1671.25 3.52719 -2.3058 0
M  V30 16762 H 1669.98 3.05435 -1.1566 0
M  V30 16763 H 1668.64 2.05121 -3.03844 0
M  V30 16764 H 1668.28 4.4358 -2.37163 0
M  V30 16765 H 1667.98 4.19799 -4.11147 0
M  V30 16766 H 1669.51 4.95536 -3.56758 0
M  V30 16767 H 1670.92 3.07346 -4.83954 0
M  V30 16768 H 1669.32 2.5496 -5.43245 0
M  V30 16769 H 1670.39 1.37175 -4.65092 0
M  V30 16770 N 1671.73 1.46313 0.585673 0
M  V30 16771 C 1672.96 1.55273 1.37496 0
M  V30 16772 C 1673.38 0.193481 1.87102 0
M  V30 16773 O 1672.74 -0.825859 1.61398 0
M  V30 16774 C 1672.79 2.5591 2.54052 0
M  V30 16775 O 1671.89 2.09208 3.55395 0
M  V30 16776 H 1671.23 0.522614 0.409598 0
M  V30 16777 H 1673.76 1.9186 0.710697 0
M  V30 16778 H 1673.77 2.75424 3.01008 0
M  V30 16779 H 1672.45 3.54619 2.17298 0
M  V30 16780 H 1671.02 1.9967 3.14939 0
M  V30 16781 N 1673.21 -0.830057 1.33969 0
M  V30 16782 C 1674.46 -1.58272 1.25675 0
M  V30 16783 C 1674.78 -1.94213 -0.175071 0
M  V30 16784 O 1674.05 -1.61694 -1.10597 0
M  V30 16785 H 1672.63 -0.586858 0.462176 0
M  V30 16786 H 1675.29 -0.991495 1.67796 0
M  V30 16787 H 1674.39 -2.50874 1.85658 0
M  V30 16788 N 1674.69 -1.17582 -1.04939 0
M  V30 16789 C 1675.94 -0.96387 -1.77634 0
M  V30 16790 C 1676.26 0.508548 -1.88252 0
M  V30 16791 O 1675.53 1.36913 -1.40113 0
M  V30 16792 H 1674.11 -0.353636 -0.65799 0
M  V30 16793 H 1676.77 -1.48104 -1.26693 0
M  V30 16794 H 1675.86 -1.39438 -2.79219 0
M  V30 16795 N 1676.17 1.23705 -0.976463 0
M  V30 16796 C 1677.41 1.91635 -0.641897 0
M  V30 16797 C 1677.73 1.7661 0.826678 0
M  V30 16798 O 1677 1.14304 1.59096 0
M  V30 16799 H 1675.58 0.709264 -0.234422 0
M  V30 16800 H 1678.25 1.50414 -1.23943 0
M  V30 16801 H 1677.34 2.99138 -0.890099 0
M  V30 16802 N 1677.64 0.747635 1.38738 0
M  V30 16803 C 1678.92 0.226908 1.94279 0
M  V30 16804 C 1679.3 -1.27373 1.68343 0
M  V30 16805 O 1678.65 -2.04538 1.01865 0
M  V30 16806 C 1678.86 0.574164 3.44245 0
M  V30 16807 C 1680.21 0.530498 4.21273 0
M  V30 16808 O 1681.23 0.512102 3.525 0
M  V30 16809 O 1680.09 0.536171 5.43863 0
M  V30 16810 H 1677.18 0.0456834 0.825737 0
M  V30 16811 H 1679.73 0.827353 1.48165 0
M  V30 16812 H 1678.5 1.6108 3.56607 0
M  V30 16813 H 1678.12 -0.0545964 3.97563 0
M  V30 16814 N 1679.12 -1.49583 0.496242 0
M  V30 16815 C 1680.05 -2.26936 -0.321366 0
M  V30 16816 C 1681.07 -1.33282 -0.934863 0
M  V30 16817 O 1682.26 -1.58602 -0.819008 0
M  V30 16818 C 1679.36 -3.05503 -1.467 0
M  V30 16819 C 1678.53 -4.26697 -0.961687 0
M  V30 16820 C 1677.59 -4.8735 -1.98436 0
M  V30 16821 O 1676.61 -5.47553 -1.55482 0
M  V30 16822 N 1677.82 -4.76577 -3.31443 0
M  V30 16823 H 1680.58 -2.97744 0.341884 0
M  V30 16824 H 1678.14 -1.58532 0.328504 0
M  V30 16825 H 1680.13 -3.42954 -2.1486 0
M  V30 16826 H 1678.7 -2.37334 -2.03449 0
M  V30 16827 H 1677.92 -3.9406 -0.105143 0
M  V30 16828 H 1679.21 -5.05221 -0.602405 0
M  V30 16829 H 1678.61 -4.28756 -3.69032 0
M  V30 16830 H 1677.17 -5.18226 -3.95329 0
M  V30 16831 N 1680.6 -0.229873 -1.55915 0
M  V30 16832 C 1682.02 0.125347 -1.59107 0
M  V30 16833 C 1682.22 1.58293 -1.24682 0
M  V30 16834 O 1681.27 2.32452 -0.986018 0
M  V30 16835 C 1682.58 -0.208461 -2.99977 0
M  V30 16836 C 1684.13 -0.151373 -3.12634 0
M  V30 16837 C 1684.61 -0.458972 -4.55694 0
M  V30 16838 N 1686.1 -0.408847 -4.61392 0
M  V30 16839 C 1686.83 -0.620239 -5.70036 0
M  V30 16840 N 1686.33 -0.893851 -6.8701 0
M  V30 16841 N 1688.12 -0.552107 -5.59382 0
M  V30 16842 H 1680.27 -1.18062 -1.76565 0
M  V30 16843 H 1682.54 -0.473821 -0.821095 0
M  V30 16844 H 1682.24 -1.22043 -3.29846 0
M  V30 16845 H 1682.12 0.472591 -3.74228 0
M  V30 16846 H 1684.5 0.851249 -2.82556 0
M  V30 16847 H 1684.58 -0.866024 -2.40694 0
M  V30 16848 H 1684.23 -1.45907 -4.86491 0
M  V30 16849 H 1684.16 0.276965 -5.25871 0
M  V30 16850 H 1686.65 -0.205404 -3.77341 0
M  V30 16851 H 1686.96 -1.04303 -7.65729 0
M  V30 16852 H 1685.31 -0.931138 -6.88734 0
M  V30 16853 H 1688.5 -0.338518 -4.66874 0
M  V30 16854 H 1688.67 -0.720256 -6.43985 0
M  V30 16855 N 1682.08 1.5754 0.0434337 0
M  V30 16856 C 1682.99 2.08996 1.06574 0
M  V30 16857 C 1684 1.02544 1.40573 0
M  V30 16858 O 1685.18 1.34192 1.50181 0
M  V30 16859 C 1682.24 2.54723 2.35196 0
M  V30 16860 C 1681.31 3.75595 2.0791 0
M  V30 16861 C 1680.54 4.19132 3.304 0
M  V30 16862 O 1680.76 3.62303 4.40559 0
M  V30 16863 O 1679.7 5.11694 3.16944 0
M  V30 16864 H 1683.52 2.96475 0.658503 0
M  V30 16865 H 1681.11 1.47129 0.259475 0
M  V30 16866 H 1682.99 2.84529 3.1084 0
M  V30 16867 H 1681.66 1.70361 2.75243 0
M  V30 16868 H 1680.57 3.5083 1.2988 0
M  V30 16869 H 1681.9 4.60897 1.72727 0
M  V30 16870 N 1683.56 -0.31543 1.54411 0
M  V30 16871 C 1684.52 -1.37154 1.83634 0
M  V30 16872 C 1685.52 -1.44349 0.708518 0
M  V30 16873 O 1686.71 -1.44235 0.976824 0
M  V30 16874 C 1683.84 -2.758 2.00368 0
M  V30 16875 H 1685.03 -1.12493 2.78002 0
M  V30 16876 H 1682.59 -0.551346 1.46253 0
M  V30 16877 H 1683.32 -3.05704 1.08238 0
M  V30 16878 H 1683.11 -2.7197 2.82445 0
M  V30 16879 H 1684.6 -3.52187 2.24397 0
M  V30 16880 N 1685.03 -1.46622 -0.577906 0
M  V30 16881 C 1685.97 -1.53587 -1.70128 0
M  V30 16882 C 1686.98 -0.423789 -1.57187 0
M  V30 16883 O 1688.17 -0.692392 -1.64524 0
M  V30 16884 C 1685.27 -1.40459 -3.08422 0
M  V30 16885 C 1684.44 -2.65872 -3.47319 0
M  V30 16886 C 1683.5 -2.46875 -4.64693 0
M  V30 16887 O 1682.53 -3.20617 -4.70312 0
M  V30 16888 N 1683.73 -1.53352 -5.59878 0
M  V30 16889 H 1686.49 -2.50449 -1.64606 0
M  V30 16890 H 1684.05 -1.42739 -0.764014 0
M  V30 16891 H 1686.05 -1.25516 -3.84744 0
M  V30 16892 H 1684.62 -0.517603 -3.08285 0
M  V30 16893 H 1683.84 -2.95724 -2.60655 0
M  V30 16894 H 1685.12 -3.49173 -3.70075 0
M  V30 16895 H 1684.52 -0.925526 -5.58078 0
M  V30 16896 H 1683.08 -1.4437 -6.3561 0
M  V30 16897 N 1686.51 0.822941 -1.34408 0
M  V30 16898 C 1687.74 1.61087 -1.2984 0
M  V30 16899 C 1688.16 1.88369 0.127527 0
M  V30 16900 O 1687.51 1.47508 1.0746 0
M  V30 16901 C 1687.56 2.9518 -2.08689 0
M  V30 16902 O 1687.28 2.69089 -3.45721 0
M  V30 16903 C 1688.79 3.89583 -2.11518 0
M  V30 16904 H 1686.01 0.500726 -0.44667 0
M  V30 16905 H 1688.55 1.02391 -1.77021 0
M  V30 16906 H 1686.7 3.50434 -1.6515 0
M  V30 16907 H 1687.12 3.5459 -3.86479 0
M  V30 16908 H 1688.59 4.80835 -2.71111 0
M  V30 16909 H 1689.07 4.24953 -1.10957 0
M  V30 16910 H 1689.68 3.40265 -2.55146 0
M  V30 16911 N 1687.99 1.18137 1.04314 0
M  V30 16912 C 1688.92 0.929593 2.14198 0
M  V30 16913 C 1689.9 -0.131766 1.69589 0
M  V30 16914 O 1691.09 0.0203104 1.94189 0
M  V30 16915 C 1688.22 0.451799 3.44349 0
M  V30 16916 C 1687.17 1.45336 4.02569 0
M  V30 16917 C 1686.5 0.833176 5.28169 0
M  V30 16918 C 1687.8 2.8293 4.39031 0
M  V30 16919 H 1689.49 1.84856 2.35518 0
M  V30 16920 H 1687.04 0.890217 1.13186 0
M  V30 16921 H 1688.99 0.26303 4.20578 0
M  V30 16922 H 1687.71 -0.502725 3.22708 0
M  V30 16923 H 1686.37 1.62902 3.28418 0
M  V30 16924 H 1686.02 -0.128459 5.02836 0
M  V30 16925 H 1685.72 1.50185 5.68083 0
M  V30 16926 H 1687.24 0.654881 6.07078 0
M  V30 16927 H 1688.66 2.6903 5.06257 0
M  V30 16928 H 1687.06 3.46458 4.89987 0
M  V30 16929 H 1688.13 3.3667 3.48972 0
M  V30 16930 N 1689.47 -1.23186 0.98301 0
M  V30 16931 C 1690.75 -1.87121 0.569651 0
M  V30 16932 C 1691.13 -1.88355 -0.95319 0
M  V30 16933 O 1690.47 -1.36699 -1.831 0
M  V30 16934 C 1690.68 -3.28493 1.17871 0
M  V30 16935 C 1692.03 -4.05065 1.27308 0
M  V30 16936 O 1693.06 -3.37722 1.13236 0
M  V30 16937 O 1691.91 -5.2559 1.49723 0
M  V30 16938 H 1689.01 -0.804363 0.192171 0
M  V30 16939 H 1691.55 -1.31041 1.07826 0
M  V30 16940 H 1690.33 -3.22175 2.22078 0
M  V30 16941 H 1689.95 -3.92166 0.655087 0
M  V30 16942 N 1690.95 -0.754982 -1.38339 0
M  V30 16943 C 1692.17 -0.321355 -2.04895 0
M  V30 16944 C 1692.6 1.04249 -1.56569 0
M  V30 16945 O 1691.95 1.66464 -0.718299 0
M  V30 16946 C 1692 -0.354873 -3.5885 0
M  V30 16947 O 1691.11 0.65063 -4.07235 0
M  V30 16948 H 1690.45 -0.142033 -0.648631 0
M  V30 16949 H 1692.98 -1.02649 -1.76987 0
M  V30 16950 H 1692.99 -0.206243 -4.07478 0
M  V30 16951 H 1691.66 -1.34994 -3.93382 0
M  V30 16952 H 1690.24 0.466498 -3.69971 0
M  V30 16953 N 1692.42 1.49318 -0.504168 0
M  V30 16954 C 1693.36 2.27103 0.309327 0
M  V30 16955 C 1694.37 1.33776 0.927781 0
M  V30 16956 O 1695.56 1.59034 0.810585 0
M  V30 16957 C 1692.66 3.06277 1.45078 0
M  V30 16958 C 1691.83 4.27201 0.939045 0
M  V30 16959 C 1690.89 4.88395 1.95849 0
M  V30 16960 O 1689.92 5.4837 1.52576 0
M  V30 16961 N 1691.12 4.78328 3.28911 0
M  V30 16962 H 1693.88 2.97558 -0.35767 0
M  V30 16963 H 1691.44 1.58356 -0.336907 0
M  V30 16964 H 1693.44 3.44088 2.13038 0
M  V30 16965 H 1692.01 2.38409 2.02188 0
M  V30 16966 H 1691.23 3.9411 0.0842433 0
M  V30 16967 H 1692.51 5.05534 0.575603 0
M  V30 16968 H 1691.91 4.30707 3.66753 0
M  V30 16969 H 1690.47 5.20315 3.92576 0
M  V30 16970 N 1693.9 0.238138 1.5579 0
M  V30 16971 C 1695.15 -0.389474 1.97904 0
M  V30 16972 C 1695.46 -1.59707 1.1293 0
M  V30 16973 O 1696.67 -2.29526 1.45017 0
M  V30 16974 C 1695.13 -0.744319 3.52119 0
M  V30 16975 C 1694.73 0.441387 4.4582 0
M  V30 16976 C 1696.48 -1.33661 4.02908 0
M  V30 16977 C 1694.39 0.063184 5.91366 0
M  V30 16978 H 1693.32 -0.149291 0.739072 0
M  V30 16979 H 1695.97 0.336972 1.80379 0
M  V30 16980 H 1694.35 -1.52865 3.65306 0
M  V30 16981 H 1695.52 1.21881 4.44389 0
M  V30 16982 H 1693.84 0.948017 4.05465 0
M  V30 16983 H 1696.43 -1.63276 5.09161 0
M  V30 16984 H 1696.78 -2.2581 3.49737 0
M  V30 16985 H 1697.31 -0.615366 3.93012 0
M  V30 16986 H 1694.05 0.951584 6.48556 0
M  V30 16987 H 1693.57 -0.678216 5.95953 0
M  V30 16988 H 1695.25 -0.357712 6.4601 0
M  V30 16989 N 1695.38 -1.57561 -0.0350783 0
M  V30 16990 C 1696.31 -2.02953 -1.06502 0
M  V30 16991 C 1697.33 -0.941331 -1.32826 0
M  V30 16992 O 1698.51 -1.21873 -1.30419 0
M  V30 16993 C 1695.61 -2.38471 -2.40801 0
M  V30 16994 C 1694.79 -3.69596 -2.33917 0
M  V30 16995 C 1693.85 -3.9237 -3.50616 0
M  V30 16996 O 1692.87 -4.63504 -3.30382 0
M  V30 16997 N 1694.07 -3.37544 -4.72275 0
M  V30 16998 H 1696.84 -2.91926 -0.678169 0
M  V30 16999 H 1694.4 -1.60355 -0.22313 0
M  V30 17000 H 1696.39 -2.50849 -3.1758 0
M  V30 17001 H 1694.96 -1.55199 -2.71352 0
M  V30 17002 H 1694.18 -3.67629 -1.42277 0
M  V30 17003 H 1695.47 -4.55627 -2.26455 0
M  V30 17004 H 1694.87 -2.79875 -4.91616 0
M  V30 17005 H 1693.43 -3.55312 -5.4644 0
M  V30 17006 N 1696.86 0.307236 -1.54576 0
M  V30 17007 C 1697.77 1.4014 -1.88143 0
M  V30 17008 C 1698.78 1.5579 -0.774952 0
M  V30 17009 O 1699.96 1.70574 -1.07082 0
M  V30 17010 C 1697.03 2.74613 -2.11633 0
M  V30 17011 C 1696.09 2.68001 -3.35371 0
M  V30 17012 C 1695.32 3.96061 -3.57731 0
M  V30 17013 O 1695.54 4.95119 -2.83219 0
M  V30 17014 O 1694.48 3.98331 -4.51238 0
M  V30 17015 H 1698.3 1.14677 -2.81217 0
M  V30 17016 H 1695.89 0.502739 -1.40687 0
M  V30 17017 H 1697.77 3.54186 -2.2832 0
M  V30 17018 H 1696.44 2.99933 -1.21746 0
M  V30 17019 H 1695.35 1.86922 -3.24054 0
M  V30 17020 H 1696.68 2.47635 -4.25368 0
M  V30 17021 N 1698.34 1.46926 0.570122 0
M  V30 17022 C 1699.56 1.5648 1.35358 0
M  V30 17023 C 1699.98 0.210356 1.87624 0
M  V30 17024 O 1699.34 -0.794388 1.64304 0
M  V30 17025 C 1699.39 2.57973 2.53243 0
M  V30 17026 O 1699.11 3.88157 2.03139 0
M  V30 17027 C 1700.61 2.77587 3.4563 0
M  V30 17028 H 1697.83 0.528787 0.413068 0
M  V30 17029 H 1700.37 1.9244 0.691895 0
M  V30 17030 H 1698.53 2.24982 3.15375 0
M  V30 17031 H 1698.94 4.43506 2.80004 0
M  V30 17032 H 1700.42 3.52495 4.24795 0
M  V30 17033 H 1700.89 1.84944 3.98362 0
M  V30 17034 H 1701.5 3.11724 2.89324 0
M  V30 17035 N 1699.82 -0.815801 1.34842 0
M  V30 17036 C 1701.04 -1.60915 1.30848 0
M  V30 17037 C 1701.47 -1.87758 -0.113345 0
M  V30 17038 O 1700.82 -1.4582 -1.07732 0
M  V30 17039 C 1700.87 -2.92284 2.11192 0
M  V30 17040 O 1699.98 -3.84685 1.48632 0
M  V30 17041 H 1699.32 -0.48913 0.449052 0
M  V30 17042 H 1701.85 -1.01322 1.7775 0
M  V30 17043 H 1701.86 -3.41789 2.2281 0
M  V30 17044 H 1700.53 -2.72071 3.14563 0
M  V30 17045 H 1699.11 -3.43215 1.458 0
M  V30 17046 N 1701.29 -1.18689 -1.03686 0
M  V30 17047 C 1702.54 -0.978948 -1.7635 0
M  V30 17048 C 1702.86 0.49195 -1.89312 0
M  V30 17049 O 1704.06 0.818501 -2.58868 0
M  V30 17050 C 1702.52 -1.70255 -3.17083 0
M  V30 17051 C 1702.13 -3.21301 -3.12201 0
M  V30 17052 C 1703.87 -1.57756 -3.94098 0
M  V30 17053 C 1701.78 -3.86284 -4.47815 0
M  V30 17054 H 1700.71 -0.362652 -0.661059 0
M  V30 17055 H 1703.36 -1.42102 -1.161 0
M  V30 17056 H 1701.74 -1.18826 -3.77752 0
M  V30 17057 H 1702.91 -3.79785 -2.6096 0
M  V30 17058 H 1701.23 -3.33984 -2.48684 0
M  V30 17059 H 1703.83 -2.03664 -4.94394 0
M  V30 17060 H 1704.17 -0.530427 -4.12907 0
M  V30 17061 H 1704.7 -2.06486 -3.40012 0
M  V30 17062 H 1701.44 -4.91061 -4.34211 0
M  V30 17063 H 1700.96 -3.32589 -4.99144 0
M  V30 17064 H 1702.64 -3.89369 -5.16721 0
M  V30 17065 O 1702.81 1.16553 -1.11793 0
M  V30 17066 H 1703.5 1.75204 -0.826023 0
M  V30 END ATOM
M  V30 BEGIN BOND
M  V30 END BOND
M  V30 END CTAB
M  END
$$$$
