drugbank_target|P27824 Calnexin (DB00025; DB00031; DB06245; DB11093; DB11348; DB13998; DB13999; DB14481)
 OpenBabel12092119453D

  0  0  0     0  0            999 V3000
M  V30 BEGIN CTAB
M  V30 COUNTS 9288 9415 0 0 0
M  V30 BEGIN ATOM
M  V30 1 H -0.908 1.98254 -0.117106 0
M  V30 2 N 0 1.576 0 0
M  V30 3 C 0.933 2.03868 1.02534 0
M  V30 4 C 1.911 0.928543 1.3348 0
M  V30 5 O 3.095 1.19667 1.45644 0
M  V30 6 C 0.222 2.43627 2.35294 0
M  V30 7 C -0.732 3.65373 2.2001 0
M  V30 8 S 0.101 5.13292 1.52614 0
M  V30 9 C 1.257 5.56322 2.86805 0
M  V30 10 H 1.49 2.90518 0.631377 0
M  V30 11 H -0.977 1.52953 0.210867 0
M  V30 12 H 0.981 2.67203 3.11629 0
M  V30 13 H -0.358 1.57376 2.7183 0
M  V30 14 H -1.165 3.90944 3.18086 0
M  V30 15 H -1.563 3.418 1.51819 0
M  V30 16 H 0.729 5.58782 3.83104 0
M  V30 17 H 1.672 6.56266 2.65933 0
M  V30 18 H 2.08 4.83886 2.90714 0
M  V30 19 N 1.4781 -0.272755 1.55222 0
M  V30 20 C 2.3881 -1.35918 1.91216 0
M  V30 21 C 3.4041 -1.54026 0.809436 0
M  V30 22 O 4.5801 -1.68148 1.10852 0
M  V30 23 C 1.6451 -2.69834 2.17693 0
M  V30 24 C 0.7061 -2.6047 3.41253 0
M  V30 25 C -0.0609 -3.88 3.66458 0
M  V30 26 O 0.1621 -4.88693 2.94169 0
M  V30 27 O -0.9039 -3.88189 4.59992 0
M  V30 28 H 2.9221 -1.0839 2.83699 0
M  V30 29 H 0.5071 -0.471301 1.41771 0
M  V30 30 H 2.3891 -3.49017 2.36147 0
M  V30 31 H 1.0641 -2.97148 1.28392 0
M  V30 32 H -0.0289 -1.79663 3.28134 0
M  V30 33 H 1.3041 -2.38106 4.30774 0
M  V30 34 N 2.9562 -1.48159 -0.537278 0
M  V30 35 C 4.2042 -1.55497 -1.29094 0
M  V30 36 C 4.5252 -0.227454 -1.93669 0
M  V30 37 O 3.7952 0.750386 -1.80959 0
M  V30 38 H 2.3752 -0.572832 -0.47945 0
M  V30 39 H 5.0372 -1.84579 -0.625818 0
M  V30 40 H 4.1332 -2.33216 -2.07405 0
M  V30 41 N 4.4343 0.785586 -1.36625 0
M  V30 42 C 5.3813 1.89838 -1.31264 0
M  V30 43 C 6.3513 1.65115 -0.180633 0
M  V30 44 O 7.5363 1.87222 -0.36777 0
M  V30 45 C 4.6763 3.26706 -1.11163 0
M  V30 46 C 3.7893 3.63476 -2.33472 0
M  V30 47 C 2.9243 4.89481 -2.06353 0
M  V30 48 C 1.9633 5.18941 -3.24602 0
M  V30 49 N 1.1003 6.36131 -2.97123 0
M  V30 50 H 5.9403 1.93756 -2.26413 0
M  V30 51 H 3.4773 0.947454 -1.12524 0
M  V30 52 H 5.4353 4.05639 -0.975337 0
M  V30 53 H 4.0653 3.222 -0.196674 0
M  V30 54 H 3.1173 2.79636 -2.57891 0
M  V30 55 H 4.4293 3.81193 -3.21704 0
M  V30 56 H 3.5833 5.76288 -1.89675 0
M  V30 57 H 2.3223 4.73841 -1.15437 0
M  V30 58 H 1.3273 4.30615 -3.41834 0
M  V30 59 H 2.5523 5.36498 -4.16349 0
M  V30 60 H 0.4983 6.21875 -2.08823 0
M  V30 61 H 0.4153 6.54198 -3.78894 0
M  V30 62 H 1.6833 7.2591 -2.84033 0
M  V30 63 N 5.9124 1.20967 1.01018 0
M  V30 64 C 7.1584 1.0353 1.7508 0
M  V30 65 C 7.5134 -0.42734 1.87594 0
M  V30 66 O 6.8064 -1.31298 1.3954 0
M  V30 67 C 7.0004 1.65997 3.16512 0
M  V30 68 C 6.8294 3.18184 3.17788 0
M  V30 69 C 5.5994 3.87198 3.24662 0
M  V30 70 C 7.7974 4.15334 3.03319 0
M  V30 71 N 5.7794 5.26618 3.15509 0
M  V30 72 C 7.1504 5.41472 3.02007 0
M  V30 73 C 9.2054 4.06449 2.87583 0
M  V30 74 C 7.9084 6.5975 2.86571 0
M  V30 75 C 9.9344 5.24357 2.73503 0
M  V30 76 C 9.2964 6.49404 2.72862 0
M  V30 77 H 5.3954 0.433137 0.651089 0
M  V30 78 H 7.9794 1.5324 1.20107 0
M  V30 79 H 6.1504 1.18863 3.69765 0
M  V30 80 H 7.8824 1.41816 3.79039 0
M  V30 81 H 4.6374 3.38093 3.31648 0
M  V30 82 H 5.0614 5.99626 3.14289 0
M  V30 83 H 9.7034 3.10573 2.86887 0
M  V30 84 H 7.4214 7.55792 2.86015 0
M  V30 85 H 11.0074 5.19299 2.62334 0
M  V30 86 H 9.8874 7.39105 2.62093 0
M  V30 87 N 7.3905 -1.2043 1.01659 0
M  V30 88 C 8.3205 -2.25466 0.607226 0
M  V30 89 C 9.3015 -1.65853 -0.377716 0
M  V30 90 O 10.4865 -1.92409 -0.263149 0
M  V30 91 C 7.6165 -3.47256 -0.0552949 0
M  V30 92 C 6.5705 -4.19462 0.850632 0
M  V30 93 C 5.8965 -5.34673 0.0538859 0
M  V30 94 C 7.1965 -4.75603 2.15868 0
M  V30 95 H 8.8905 -2.59962 1.48526 0
M  V30 96 H 6.4365 -1.2496 0.715605 0
M  V30 97 H 8.3895 -4.19917 -0.353233 0
M  V30 98 H 7.1135 -3.11924 -0.968045 0
M  V30 99 H 5.7725 -3.48667 1.13257 0
M  V30 100 H 5.4205 -4.95585 -0.860514 0
M  V30 101 H 5.1205 -5.83913 0.657192 0
M  V30 102 H 6.6445 -6.10138 -0.237598 0
M  V30 103 H 8.0585 -5.40083 1.92311 0
M  V30 104 H 6.4555 -5.3528 2.71284 0
M  V30 105 H 7.5255 -3.94346 2.82169 0
M  V30 106 N 8.8686 -0.792821 -1.36206 0
M  V30 107 C 9.7986 -0.207853 -2.32573 0
M  V30 108 C 10.7796 0.659055 -1.56813 0
M  V30 109 O 11.9646 0.592176 -1.84951 0
M  V30 110 C 9.0946 0.655449 -3.41059 0
M  V30 111 C 8.0486 -0.111842 -4.27854 0
M  V30 112 C 7.3746 0.872274 -5.27537 0
M  V30 113 C 8.6746 -1.30299 -5.05786 0
M  V30 114 H 10.3686 -1.01294 -2.81744 0
M  V30 115 H 7.9146 -0.48854 -1.3546 0
M  V30 116 H 9.8676 1.07464 -4.07467 0
M  V30 117 H 8.5916 1.49328 -2.90463 0
M  V30 118 H 7.2506 -0.512053 -3.63006 0
M  V30 119 H 6.8986 1.70523 -4.73214 0
M  V30 120 H 6.5986 0.363291 -5.86476 0
M  V30 121 H 8.1226 1.28996 -5.96818 0
M  V30 122 H 9.5366 -0.959379 -5.65216 0
M  V30 123 H 7.9336 -1.7455 -5.74154 0
M  V30 124 H 9.0036 -2.09663 -4.37229 0
M  V30 125 N 10.3467 1.47872 -0.545128 0
M  V30 126 C 11.5867 2.04391 -0.0187854 0
M  V30 127 C 11.9507 1.41162 1.30144 0
M  V30 128 O 13.1517 1.88656 1.91474 0
M  V30 129 C 11.4227 3.57299 0.0850867 0
M  V30 130 S 12.9817 4.35221 0.559302 0
M  V30 131 H 9.7997 0.710737 -0.0193301 0
M  V30 132 H 12.4017 1.81395 -0.729125 0
M  V30 133 H 11.1057 4.00847 -0.880351 0
M  V30 134 H 10.6367 3.84773 0.819348 0
M  V30 135 H 12.6517 4.61571 1.82118 0
M  V30 136 N 11.8248 0.280983 1.55075 0
M  V30 137 C 12.7578 -0.645439 2.18882 0
M  V30 138 C 13.7358 -1.14786 1.15165 0
M  V30 139 O 14.9198 -1.21975 1.43716 0
M  V30 140 C 12.0468 -1.88088 2.81674 0
M  V30 141 C 11.0928 -1.51343 3.98745 0
M  V30 142 S 11.9258 -0.586548 5.32278 0
M  V30 143 C 13.0818 -1.83024 5.98543 0
M  V30 144 H 13.3148 -0.1033 2.9712 0
M  V30 145 H 10.8478 0.0652099 1.54262 0
M  V30 146 H 12.8058 -2.58997 3.18482 0
M  V30 147 H 11.4668 -2.39417 2.03318 0
M  V30 148 H 10.6598 -2.43289 4.41392 0
M  V30 149 H 10.2618 -0.884477 3.63391 0
M  V30 150 H 12.5538 -2.77342 6.18133 0
M  V30 151 H 13.4968 -1.44668 6.93164 0
M  V30 152 H 13.9048 -1.99785 5.27964 0
M  V30 153 N 13.3029 -1.57598 0.00835791 0
M  V30 154 C 14.2329 -2.1198 -0.979113 0
M  V30 155 C 15.2139 -1.03091 -1.35301 0
M  V30 156 O 16.3989 -1.30818 -1.43528 0
M  V30 157 C 13.5289 -2.62995 -2.26828 0
M  V30 158 C 12.4829 -3.76485 -2.03576 0
M  V30 159 C 11.8089 -4.13846 -3.38579 0
M  V30 160 C 13.1089 -5.0342 -1.39161 0
M  V30 161 H 14.8029 -2.94738 -0.526281 0
M  V30 162 H 12.3489 -1.41783 -0.251704 0
M  V30 163 H 14.3019 -2.99669 -2.96271 0
M  V30 164 H 13.0259 -1.7737 -2.7424 0
M  V30 165 H 11.6849 -3.40217 -1.36557 0
M  V30 166 H 11.3329 -3.25232 -3.83709 0
M  V30 167 H 11.0329 -4.90312 -3.23834 0
M  V30 168 H 12.5569 -4.53086 -4.09323 0
M  V30 169 H 13.9709 -5.37812 -1.98573 0
M  V30 170 H 12.3679 -5.84746 -1.34878 0
M  V30 171 H 13.4379 -4.83548 -0.361868 0
M  V30 172 N 14.781 0.264519 -1.55364 0
M  V30 173 C 15.711 1.33121 -1.91836 0
M  V30 174 C 16.692 1.51101 -0.781192 0
M  V30 175 O 17.877 1.64003 -1.04003 0
M  V30 176 C 15.007 2.68921 -2.19769 0
M  V30 177 C 13.961 2.65661 -3.35571 0
M  V30 178 C 13.287 4.05093 -3.49004 0
M  V30 179 C 14.587 2.24187 -4.71739 0
M  V30 180 H 16.281 1.02844 -2.81182 0
M  V30 181 H 13.827 0.493286 -1.35287 0
M  V30 182 H 15.78 3.43663 -2.43872 0
M  V30 183 H 14.504 3.00799 -1.27231 0
M  V30 184 H 13.163 1.93377 -3.1145 0
M  V30 185 H 12.811 4.34206 -2.53917 0
M  V30 186 H 12.511 4.03804 -4.26868 0
M  V30 187 H 14.035 4.81561 -3.75408 0
M  V30 188 H 15.449 2.88654 -4.9533 0
M  V30 189 H 13.846 2.34044 -5.52579 0
M  V30 190 H 14.916 1.19327 -4.69988 0
M  V30 191 N 16.2591 1.48442 0.529413 0
M  V30 192 C 17.5051 1.5672 1.28711 0
M  V30 193 C 17.8381 0.2406 1.92704 0
M  V30 194 O 17.1131 -0.753454 1.79313 0
M  V30 195 C 17.3961 2.70587 2.37603 0
M  V30 196 C 17.2491 4.12953 1.78297 0
M  V30 197 C 18.5681 2.80212 3.39366 0
M  V30 198 H 15.6871 0.570474 0.466613 0
M  V30 199 H 18.3291 1.80617 0.589706 0
M  V30 200 H 16.4791 2.50342 2.97088 0
M  V30 201 H 18.1511 4.44639 1.22858 0
M  V30 202 H 16.3941 4.19927 1.0883 0
M  V30 203 H 17.0651 4.88448 2.57144 0
M  V30 204 H 19.5411 2.98553 2.89836 0
M  V30 205 H 18.4171 3.61611 4.12951 0
M  V30 206 H 18.6781 1.88393 3.99951 0
M  V30 207 N 17.7372 -0.778329 1.37039 0
M  V30 208 C 18.6672 -1.90546 1.34962 0
M  V30 209 C 19.6482 -1.68681 0.219274 0
M  V30 210 O 20.8332 -1.89634 0.418624 0
M  V30 211 C 17.9632 -3.27734 1.14925 0
M  V30 212 C 16.9172 -3.64147 2.24902 0
M  V30 213 C 16.2432 -4.99806 1.89996 0
M  V30 214 C 17.5432 -3.71579 3.67051 0
M  V30 215 H 19.2372 -1.92541 2.29277 0
M  V30 216 H 16.7832 -0.924948 1.10366 0
M  V30 217 H 18.7362 -4.06215 1.12104 0
M  V30 218 H 17.4602 -3.26154 0.170631 0
M  V30 219 H 16.1192 -2.8797 2.26868 0
M  V30 220 H 15.7672 -4.94759 0.906796 0
M  V30 221 H 15.4672 -5.25139 2.63634 0
M  V30 222 H 16.9912 -5.80694 1.88749 0
M  V30 223 H 18.4052 -4.40227 3.67251 0
M  V30 224 H 16.8022 -4.08405 4.39688 0
M  V30 225 H 17.8722 -2.72404 4.01154 0
M  V30 226 N 19.2153 -1.21501 -1.00376 0
M  V30 227 C 20.4633 -1.03095 -1.73827 0
M  V30 228 C 20.7843 0.436341 -1.90055 0
M  V30 229 O 20.0543 1.31466 -1.45236 0
M  V30 230 H 18.6343 -0.378487 -0.644016 0
M  V30 231 H 21.2963 -1.52831 -1.20949 0
M  V30 232 H 20.3923 -1.49991 -2.73695 0
M  V30 233 N 20.6934 1.19889 -1.02296 0
M  V30 234 C 21.9214 1.9339 -0.735399 0
M  V30 235 C 22.3364 1.75148 0.704887 0
M  V30 236 O 21.6934 1.06954 1.47875 0
M  V30 237 C 21.7444 3.45313 -1.06962 0
M  V30 238 O 21.4654 3.62964 -2.45334 0
M  V30 239 C 22.9664 4.35948 -0.804021 0
M  V30 240 H 20.1864 0.61448 -0.269546 0
M  V30 241 H 22.7304 1.522 -1.36585 0
M  V30 242 H 20.8854 3.84359 -0.484455 0
M  V30 243 H 21.2994 4.56886 -2.57595 0
M  V30 244 H 22.7734 5.41174 -1.0879 0
M  V30 245 H 23.2504 4.3842 0.261691 0
M  V30 246 H 23.8564 4.02574 -1.37164 0
M  V30 247 N 22.1715 0.800033 1.35784 0
M  V30 248 C 23.1345 0.211565 2.28221 0
M  V30 249 C 24.1345 -0.59728 1.49296 0
M  V30 250 O 25.3245 -0.416721 1.69142 0
M  V30 251 C 22.4565 -0.705846 3.33513 0
M  V30 252 H 23.6495 1.02677 2.81776 0
M  V30 253 H 21.2025 0.570211 1.45528 0
M  V30 254 H 21.9375 -1.54498 2.85133 0
M  V30 255 H 21.7225 -0.127655 3.91892 0
M  V30 256 H 23.2125 -1.11211 4.02519 0
M  V30 257 N 23.6496 -1.47581 0.552962 0
M  V30 258 C 24.8986 -2.01684 0.0251995 0
M  V30 259 C 25.2116 -1.43317 -1.33115 0
M  V30 260 O 26.4176 -1.89057 -1.94858 0
M  V30 261 C 24.8736 -3.599 -0.00542052 0
M  V30 262 C 24.4816 -4.27257 1.34742 0
M  V30 263 C 26.2256 -4.21768 -0.4808 0
M  V30 264 C 24.1326 -5.77467 1.27614 0
M  V30 265 H 23.0626 -0.753979 0.00565033 0
M  V30 266 H 25.7136 -1.69616 0.70018 0
M  V30 267 H 24.0956 -3.88911 -0.745961 0
M  V30 268 H 25.2696 -4.09893 2.10534 0
M  V30 269 H 23.5846 -3.77358 1.76039 0
M  V30 270 H 26.1816 -5.31838 -0.55246 0
M  V30 271 H 26.5246 -3.88651 -1.49184 0
M  V30 272 H 27.0576 -3.97273 0.204752 0
M  V30 273 H 23.7966 -6.15196 2.26304 0
M  V30 274 H 23.3166 -5.9718 0.55996 0
M  V30 275 H 24.9956 -6.3959 0.976421 0
M  V30 276 N 25.1277 -0.289203 -1.54924 0
M  V30 277 C 26.3737 0.323998 -2.00195 0
M  V30 278 C 26.7067 1.54441 -1.17735 0
M  V30 279 O 25.9817 1.92875 -0.250878 0
M  V30 280 C 26.2647 0.692276 -3.53383 0
M  V30 281 C 26.1177 -0.536457 -4.46589 0
M  V30 282 C 27.4367 1.52335 -4.12895 0
M  V30 283 H 24.5557 0.116289 -0.727768 0
M  V30 284 H 27.1977 -0.398954 -1.85764 0
M  V30 285 H 25.3477 1.30822 -3.65811 0
M  V30 286 H 27.0197 -1.17499 -4.46085 0
M  V30 287 H 25.2627 -1.17192 -4.1767 0
M  V30 288 H 25.9337 -0.234806 -5.515 0
M  V30 289 H 28.4097 1.00302 -4.0383 0
M  V30 290 H 27.2857 1.74982 -5.20262 0
M  V30 291 H 27.5467 2.50886 -3.64018 0
M  V30 292 N 26.6058 1.57591 -0.0167156 0
M  V30 293 C 27.5158 2.1291 0.98521 0
M  V30 294 C 28.5318 1.07834 1.36557 0
M  V30 295 O 29.7078 1.39826 1.44951 0
M  V30 296 C 26.7728 2.63512 2.25305 0
M  V30 297 C 25.8338 3.83256 1.93426 0
M  V30 298 C 25.0668 4.31435 3.14165 0
M  V30 299 O 25.2898 3.78851 4.26413 0
M  V30 300 O 24.2238 5.23416 2.97186 0
M  V30 301 H 28.0498 2.98772 0.544888 0
M  V30 302 H 25.6348 1.48012 0.203141 0
M  V30 303 H 27.5168 2.96183 2.99756 0
M  V30 304 H 26.1918 1.8074 2.68542 0
M  V30 305 H 25.0988 3.55531 1.16398 0
M  V30 306 H 26.4318 4.67153 1.55013 0
M  V30 307 N 28.0839 -0.256276 1.55502 0
M  V30 308 C 29.0469 -1.30047 1.88734 0
M  V30 309 C 30.0469 -1.4154 0.763086 0
M  V30 310 O 31.2369 -1.40403 1.03115 0
M  V30 311 C 28.3689 -2.67953 2.10747 0
M  V30 312 H 29.5619 -1.01802 2.82093 0
M  V30 313 H 27.1149 -0.495134 1.4825 0
M  V30 314 H 27.8499 -3.01351 1.19825 0
M  V30 315 H 27.6349 -2.60993 2.92617 0
M  V30 316 H 29.1249 -3.43368 2.37673 0
M  V30 317 N 29.562 -1.4872 -0.521534 0
M  V30 318 C 30.512 -1.60269 -1.62166 0
M  V30 319 C 31.496 -0.45935 -1.54204 0
M  V30 320 O 32.688 -0.711241 -1.62081 0
M  V30 321 C 29.817 -1.65344 -3.00859 0
M  V30 322 C 28.903 -2.85187 -3.13894 0
M  V30 323 N 29.294 -4.09509 -2.96877 0
M  V30 324 C 27.592 -2.82695 -3.44963 0
M  V30 325 C 28.293 -4.89959 -3.13552 0
M  V30 326 N 27.269 -4.22934 -3.41508 0
M  V30 327 H 31.071 -2.5413 -1.47632 0
M  V30 328 H 28.585 -1.45209 -0.727194 0
M  V30 329 H 30.582 -1.71713 -3.79895 0
M  V30 330 H 29.242 -0.726058 -3.16478 0
M  V30 331 H 30.253 -4.39814 -2.73467 0
M  V30 332 H 26.93 -1.99249 -3.66887 0
M  V30 333 H 28.32 -5.98654 -3.05061 0
M  V30 334 N 31.0401 0.771051 -1.3745 0
M  V30 335 C 32.3171 1.519 -1.23231 0
M  V30 336 C 32.6971 2.10383 0.173809 0
M  V30 337 O 32.0451 1.95583 1.18151 0
M  V30 338 C 32.2551 2.59933 -2.32886 0
M  V30 339 C 33.6031 3.27316 -2.70461 0
M  V30 340 O 34.6271 2.70228 -2.32068 0
M  V30 341 O 33.4861 4.30531 -3.36608 0
M  V30 342 H 30.5801 0.672803 -0.480901 0
M  V30 343 H 33.1261 0.807957 -1.49232 0
M  V30 344 H 31.8981 2.14842 -3.27045 0
M  V30 345 H 31.5211 3.38637 -2.08353 0
M  V30 346 N 32.5182 1.22032 0.997298 0
M  V30 347 C 33.7662 1.04016 1.73278 0
M  V30 348 C 34.0872 -0.426255 1.90284 0
M  V30 349 O 33.3572 -1.30694 1.45931 0
M  V30 350 H 31.9372 0.381897 0.642 0
M  V30 351 H 34.5992 1.5347 1.20137 0
M  V30 352 H 33.6952 1.51441 2.72896 0
M  V30 353 N 33.9963 -1.19345 1.0293 0
M  V30 354 C 34.9463 -2.20472 0.58104 0
M  V30 355 C 35.9303 -1.56578 -0.370442 0
M  V30 356 O 37.1223 -1.75963 -0.191344 0
M  V30 357 C 34.2513 -3.43236 -0.066306 0
M  V30 358 C 33.3373 -4.14274 0.907642 0
M  V30 359 N 33.7283 -4.61492 2.07023 0
M  V30 360 C 32.0263 -4.39966 0.731177 0
M  V30 361 C 32.7273 -5.1605 2.68454 0
M  V30 362 N 31.7033 -5.06875 1.96414 0
M  V30 363 H 35.5053 -2.54659 1.46717 0
M  V30 364 H 33.0193 -1.35423 0.896345 0
M  V30 365 H 35.0163 -4.14927 -0.405068 0
M  V30 366 H 33.6763 -3.10549 -0.948118 0
M  V30 367 H 34.6873 -4.56304 2.44963 0
M  V30 368 H 31.3643 -4.17377 -0.101507 0
M  V30 369 H 32.7543 -5.6287 3.66915 0
M  V30 370 N 35.4744 -0.807222 -1.35358 0
M  V30 371 C 36.7514 -0.311126 -1.9311 0
M  V30 372 C 37.1314 1.19937 -1.73719 0
M  V30 373 O 36.4794 1.99918 -1.10657 0
M  V30 374 C 36.6894 -0.723226 -3.41424 0
M  V30 375 C 38.0374 -0.713078 -4.18569 0
M  V30 376 O 39.0614 -0.664811 -3.49941 0
M  V30 377 O 37.9204 -0.772022 -5.41019 0
M  V30 378 H 35.0144 -0.081526 -0.822972 0
M  V30 379 H 37.5604 -0.890962 -1.4443 0
M  V30 380 H 36.3324 -1.76426 -3.4927 0
M  V30 381 H 35.9554 -0.118232 -3.97424 0
M  V30 382 N 36.9525 1.47285 -0.560781 0
M  V30 383 C 38.2295 1.9558 0.0277798 0
M  V30 384 C 38.6095 1.5034 1.48192 0
M  V30 385 O 37.9575 0.743882 2.16052 0
M  V30 386 C 38.1675 3.48789 -0.121418 0
M  V30 387 C 39.5155 4.24594 0.0220912 0
M  V30 388 O 40.5395 3.56166 -0.0491439 0
M  V30 389 O 39.3985 5.46217 0.175958 0
M  V30 390 H 36.4925 0.824663 0.0621342 0
M  V30 391 H 39.0385 1.5767 -0.627556 0
M  V30 392 H 37.8105 3.74533 -1.13316 0
M  V30 393 H 37.4335 3.93473 0.571366 0
M  V30 394 N 38.4306 0.297415 1.54768 0
M  V30 395 C 39.7076 -0.365847 1.92148 0
M  V30 396 C 40.0876 -1.71975 1.22424 0
M  V30 397 O 39.4356 -2.25666 0.358739 0
M  V30 398 C 39.6456 -0.484056 3.45627 0
M  V30 399 C 40.9936 -0.756594 4.17805 0
M  V30 400 O 42.0176 -0.568007 3.51642 0
M  V30 401 O 40.8766 -1.11863 5.34929 0
M  V30 402 H 37.9706 -0.203919 0.801465 0
M  V30 403 H 40.5166 0.34521 1.66152 0
M  V30 404 H 39.2886 0.467865 3.88493 0
M  V30 405 H 38.9116 -1.24372 3.77647 0
M  V30 406 N 39.9087 -1.5758 0.0250728 0
M  V30 407 C 41.1547 -1.91917 -0.655413 0
M  V30 408 C 41.4877 -0.901433 -1.72011 0
M  V30 409 O 40.7627 0.0764069 -1.9435 0
M  V30 410 C 41.0457 -3.36751 -1.27558 0
M  V30 411 C 40.8987 -4.49258 -0.220719 0
M  V30 412 C 42.2177 -3.81469 -2.19475 0
M  V30 413 H 39.3367 -0.697925 -0.23679 0
M  V30 414 H 41.9787 -1.89825 0.0815036 0
M  V30 415 H 40.1287 -3.38664 -1.90365 0
M  V30 416 H 41.8007 -4.59478 0.409601 0
M  V30 417 H 40.0437 -4.31415 0.454264 0
M  V30 418 H 40.7147 -5.47618 -0.694175 0
M  V30 419 H 43.1907 -3.81266 -1.66659 0
M  V30 420 H 42.0667 -4.83512 -2.59822 0
M  V30 421 H 42.3277 -3.16744 -3.08424 0
M  V30 422 N 41.3868 0.248026 -1.55636 0
M  V30 423 C 42.6358 0.974134 -1.76617 0
M  V30 424 C 42.9488 1.86528 -0.588796 0
M  V30 425 O 44.1548 2.62805 -0.681594 0
M  V30 426 C 42.6108 1.78213 -3.12679 0
M  V30 427 C 42.2188 0.93843 -4.38061 0
M  V30 428 C 43.9628 2.50104 -3.42999 0
M  V30 429 C 41.8698 1.74225 -5.65155 0
M  V30 430 H 40.7998 0.36745 -0.658405 0
M  V30 431 H 43.4508 0.22884 -1.82067 0
M  V30 432 H 41.8328 2.56933 -3.01333 0
M  V30 433 H 43.0068 0.193635 -4.60393 0
M  V30 434 H 41.3218 0.332905 -4.15067 0
M  V30 435 H 43.9188 3.10694 -4.3517 0
M  V30 436 H 44.2618 3.21662 -2.64271 0
M  V30 437 H 44.7948 1.78395 -3.55556 0
M  V30 438 H 41.5338 1.07043 -6.46701 0
M  V30 439 H 41.0538 2.46235 -5.46926 0
M  V30 440 H 42.7328 2.30967 -6.0437 0
M  V30 441 N 42.8649 1.48995 0.513639 0
M  V30 442 C 44.1419 1.48338 1.27495 0
M  V30 443 C 44.5219 0.204065 2.10111 0
M  V30 444 O 43.8699 -0.813881 2.13514 0
M  V30 445 C 44.0799 2.75498 2.14247 0
M  V30 446 C 45.4279 3.24484 2.73852 0
M  V30 447 O 46.4519 2.76528 2.24523 0
M  V30 448 O 45.3109 4.07974 3.6362 0
M  V30 449 H 42.4049 0.593149 0.576284 0
M  V30 450 H 44.9509 1.61246 0.528948 0
M  V30 451 H 43.7229 3.60109 1.53092 0
M  V30 452 H 43.3459 2.6539 2.96064 0
M  V30 453 N 44.343 -0.763751 1.37857 0
M  V30 454 C 45.592 -1.51789 1.32827 0
M  V30 455 C 45.905 -1.95426 -0.0823719 0
M  V30 456 O 47.111 -2.70298 -0.255172 0
M  V30 457 C 45.567 -2.74133 2.33193 0
M  V30 458 C 45.175 -2.37562 3.79827 0
M  V30 459 C 46.919 -3.52054 2.37188 0
M  V30 460 C 44.826 -3.56456 4.71904 0
M  V30 461 H 43.756 -0.569896 0.493695 0
M  V30 462 H 46.407 -0.835822 1.63359 0
M  V30 463 H 44.789 -3.4427 1.9569 0
M  V30 464 H 45.963 -1.75157 4.26212 0
M  V30 465 H 44.278 -1.72798 3.78853 0
M  V30 466 H 46.875 -4.40437 3.03182 0
M  V30 467 H 47.218 -3.92486 1.38782 0
M  V30 468 H 47.751 -2.88921 2.7344 0
M  V30 469 H 44.49 -3.21099 5.71468 0
M  V30 470 H 44.01 -4.17938 4.30218 0
M  V30 471 H 45.689 -4.23168 4.89426 0
M  V30 472 N 45.8211 -1.22559 -0.990812 0
M  V30 473 C 46.7311 -1.01394 -2.11557 0
M  V30 474 C 47.7471 0.0383962 -1.73958 0
M  V30 475 O 48.9231 -0.154787 -2.00804 0
M  V30 476 C 45.9881 -0.596569 -3.41529 0
M  V30 477 C 45.0491 -1.72276 -3.93217 0
M  V30 478 C 44.2821 -1.32521 -5.16985 0
M  V30 479 O 44.5051 -0.204909 -5.70032 0
M  V30 480 O 43.4391 -2.14247 -5.62478 0
M  V30 481 H 47.2651 -1.95633 -2.32296 0
M  V30 482 H 44.8501 -1.01172 -1.0993 0
M  V30 483 H 46.7321 -0.374263 -4.19735 0
M  V30 484 H 45.4071 0.316939 -3.22145 0
M  V30 485 H 44.3141 -1.99961 -3.16174 0
M  V30 486 H 45.6471 -2.61421 -4.17037 0
M  V30 487 N 47.2992 1.18797 -1.03562 0
M  V30 488 C 48.5762 1.84469 -0.650434 0
M  V30 489 C 48.9562 1.92319 0.870433 0
M  V30 490 O 48.3042 1.44528 1.76986 0
M  V30 491 C 48.5142 3.2306 -1.32036 0
M  V30 492 C 49.8622 3.9915 -1.44792 0
M  V30 493 O 50.8862 3.32481 -1.27806 0
M  V30 494 O 49.7452 5.18587 -1.72423 0
M  V30 495 H 46.8392 0.795251 -0.226946 0
M  V30 496 H 49.3852 1.26231 -1.13419 0
M  V30 497 H 48.1572 3.1222 -2.3587 0
M  V30 498 H 47.7802 3.88949 -0.8249 0
M  V30 499 N 48.7773 0.814389 1.34928 0
M  V30 500 C 50.0543 0.321363 1.92942 0
M  V30 501 C 50.4343 -1.19014 1.74353 0
M  V30 502 O 49.7823 -1.99328 1.11716 0
M  V30 503 C 49.9923 0.741323 3.41036 0
M  V30 504 C 51.3403 0.735266 4.18185 0
M  V30 505 O 52.3643 0.68336 3.49584 0
M  V30 506 O 51.2233 0.800703 5.40602 0
M  V30 507 H 48.3173 0.0858893 0.822528 0
M  V30 508 H 50.8633 0.898609 1.43955 0
M  V30 509 H 49.6353 1.78276 3.4833 0
M  V30 510 H 49.2583 0.139307 3.97356 0
M  V30 511 N 50.2554 -1.46986 0.568584 0
M  V30 512 C 51.1854 -2.32946 -0.160753 0
M  V30 513 C 52.1664 -1.44487 -0.897631 0
M  V30 514 O 53.3514 -1.73327 -0.875867 0
M  V30 515 C 50.4814 -3.26494 -1.18403 0
M  V30 516 C 49.4354 -4.24282 -0.562895 0
M  V30 517 C 48.7614 -5.07236 -1.69163 0
M  V30 518 C 50.0614 -5.19989 0.490761 0
M  V30 519 H 51.7554 -2.94175 0.556916 0
M  V30 520 H 49.3014 -1.4146 0.26927 0
M  V30 521 H 51.2544 -3.85477 -1.70251 0
M  V30 522 H 49.9784 -2.63343 -1.93179 0
M  V30 523 H 48.6374 -3.66541 -0.0656164 0
M  V30 524 H 48.2854 -4.4048 -2.42871 0
M  V30 525 H 47.9854 -5.7345 -1.28174 0
M  V30 526 H 49.5094 -5.6908 -2.21314 0
M  V30 527 H 50.9234 -5.73271 0.0579047 0
M  V30 528 H 49.3204 -5.94469 0.820165 0
M  V30 529 H 50.3904 -4.64777 1.3824 0
M  V30 530 N 51.7335 -0.305618 -1.54608 0
M  V30 531 C 53.0105 0.355652 -1.92339 0
M  V30 532 C 53.3905 1.71324 -1.23335 0
M  V30 533 O 52.7385 2.25473 -0.370702 0
M  V30 534 C 52.9485 0.46572 -3.45879 0
M  V30 535 C 54.2965 0.734426 -4.182 0
M  V30 536 O 55.3205 0.54935 -3.51938 0
M  V30 537 O 54.1795 1.09024 -5.35515 0
M  V30 538 H 51.2735 0.199666 -0.802535 0
M  V30 539 H 53.8195 -0.354017 -1.65966 0
M  V30 540 H 52.5915 -0.488461 -3.88239 0
M  V30 541 H 52.2145 1.22367 -3.78301 0
M  V30 542 N 53.2116 1.57565 -0.0334293 0
M  V30 543 C 54.4886 1.83282 0.683163 0
M  V30 544 C 54.8686 0.91823 1.90084 0
M  V30 545 O 54.2166 -0.025113 2.28486 0
M  V30 546 C 54.4266 3.32599 1.0573 0
M  V30 547 C 55.7746 3.99179 1.44711 0
M  V30 548 O 56.7986 3.3712 1.15015 0
M  V30 549 O 55.6576 5.08565 2.0006 0
M  V30 550 H 52.7516 0.755869 0.335546 0
M  V30 551 H 55.2976 1.69589 -0.0614402 0
M  V30 552 H 54.0696 3.90834 0.190828 0
M  V30 553 H 53.6926 3.51415 1.85993 0
M  V30 554 N 54.6897 -0.239769 1.55765 0
M  V30 555 C 55.9357 -0.968234 1.78194 0
M  V30 556 C 56.2687 -1.84701 0.599938 0
M  V30 557 O 55.5437 -1.9031 -0.401524 0
M  V30 558 C 55.8267 -1.8227 3.10564 0
M  V30 559 C 55.6797 -0.971633 4.3918 0
M  V30 560 C 56.9987 -2.80388 3.39221 0
M  V30 561 H 54.1177 -0.350572 0.648281 0
M  V30 562 H 56.7597 -0.238259 1.885 0
M  V30 563 H 54.9097 -2.44507 3.01908 0
M  V30 564 H 56.5817 -0.367408 4.59835 0
M  V30 565 H 54.8247 -0.276276 4.32919 0
M  V30 566 H 55.4957 -1.60346 5.28198 0
M  V30 567 H 57.9717 -2.28287 3.47885 0
M  V30 568 H 56.8477 -3.3729 4.33044 0
M  V30 569 H 57.1087 -3.57212 2.60484 0
M  V30 570 N 56.1678 -1.49265 -0.50573 0
M  V30 571 C 57.4168 -1.57761 -1.25675 0
M  V30 572 C 57.7298 -0.267371 -1.93764 0
M  V30 573 O 58.9358 -0.230827 -2.70517 0
M  V30 574 C 57.3918 -2.78332 -2.28165 0
M  V30 575 C 56.9998 -4.16096 -1.66037 0
M  V30 576 C 58.7438 -2.96155 -3.04125 0
M  V30 577 C 56.6508 -5.27895 -2.6661 0
M  V30 578 H 55.5808 -0.587391 -0.472745 0
M  V30 579 H 58.2318 -1.75644 -0.53118 0
M  V30 580 H 56.6138 -2.53934 -3.03865 0
M  V30 581 H 57.7878 -4.50612 -0.963622 0
M  V30 582 H 56.1028 -4.03591 -1.02484 0
M  V30 583 H 58.6998 -3.76849 -3.79327 0
M  V30 584 H 59.0428 -2.06534 -3.61455 0
M  V30 585 H 59.5758 -3.2057 -2.35541 0
M  V30 586 H 56.3148 -6.1956 -2.14068 0
M  V30 587 H 55.8348 -4.97839 -3.34539 0
M  V30 588 H 57.5138 -5.57031 -3.29129 0
M  V30 589 N 57.6459 0.756429 -1.3826 0
M  V30 590 C 58.5559 1.9009 -1.37488 0
M  V30 591 C 59.5719 1.71855 -0.272366 0
M  V30 592 O 60.7479 1.94827 -0.510318 0
M  V30 593 C 57.8129 3.25421 -1.19592 0
M  V30 594 C 56.8739 3.56202 -2.39622 0
M  V30 595 C 56.1069 4.85075 -2.2257 0
M  V30 596 O 56.3299 5.57246 -1.21793 0
M  V30 597 O 55.2639 5.15269 -3.11098 0
M  V30 598 H 59.0899 1.93695 -2.33914 0
M  V30 599 H 56.6749 0.901313 -1.1915 0
M  V30 600 H 58.5569 4.06337 -1.11661 0
M  V30 601 H 57.2319 3.22634 -0.262486 0
M  V30 602 H 56.1389 2.75458 -2.53128 0
M  V30 603 H 57.4719 3.63747 -3.31586 0
M  V30 604 N 59.124 1.23083 0.984299 0
M  V30 605 C 60.034 1.02515 2.11016 0
M  V30 606 C 61.05 -0.0291702 1.73976 0
M  V30 607 O 62.226 0.165434 2.00719 0
M  V30 608 C 59.291 0.614673 3.41208 0
M  V30 609 C 58.352 1.74359 3.92297 0
M  V30 610 C 57.585 1.35261 5.16275 0
M  V30 611 O 57.808 0.235136 5.69915 0
M  V30 612 O 56.742 2.17227 5.61334 0
M  V30 613 H 60.568 1.96862 2.31255 0
M  V30 614 H 58.153 1.01753 1.09392 0
M  V30 615 H 60.035 0.396518 4.1953 0
M  V30 616 H 58.71 -0.299851 3.22308 0
M  V30 617 H 57.617 2.01635 3.1511 0
M  V30 618 H 58.95 2.63629 4.15645 0
M  V30 619 N 60.6021 -1.18246 1.0419 0
M  V30 620 C 61.8481 -1.88536 0.747122 0
M  V30 621 C 62.1811 -1.80223 -0.723409 0
M  V30 622 O 61.4561 -1.20337 -1.52804 0
M  V30 623 C 61.7391 -3.38968 1.21544 0
M  V30 624 C 61.5921 -3.56084 2.74816 0
M  V30 625 C 62.9111 -4.32648 0.806482 0
M  V30 626 H 60.0301 -0.684619 0.272883 0
M  V30 627 H 62.6721 -1.39113 1.29413 0
M  V30 628 H 60.8221 -3.8119 0.750081 0
M  V30 629 H 62.4941 -3.22946 3.29399 0
M  V30 630 H 60.7371 -2.98699 3.14582 0
M  V30 631 H 61.4081 -4.61639 3.02644 0
M  V30 632 H 63.8841 -3.98211 1.20695 0
M  V30 633 H 62.7601 -5.36462 1.1619 0
M  V30 634 H 63.0211 -4.41146 -0.29029 0
M  V30 635 N 62.0802 -0.821533 -1.34494 0
M  V30 636 C 62.9902 -0.244355 -2.33324 0
M  V30 637 C 64.0062 0.620527 -1.62559 0
M  V30 638 O 65.1822 0.528754 -1.94335 0
M  V30 639 C 62.2472 0.585368 -3.41723 0
M  V30 640 C 61.3082 -0.301752 -4.28238 0
M  V30 641 C 60.5412 0.488466 -5.3146 0
M  V30 642 O 60.7642 1.72186 -5.4379 0
M  V30 643 O 59.6982 -0.12848 -6.01763 0
M  V30 644 H 63.5242 -1.06231 -2.84515 0
M  V30 645 H 61.1092 -0.583645 -1.37528 0
M  V30 646 H 62.9912 1.05747 -4.07916 0
M  V30 647 H 61.6662 1.38068 -2.92778 0
M  V30 648 H 60.5732 -0.821315 -3.64973 0
M  V30 649 H 61.9062 -1.06138 -4.8062 0
M  V30 650 N 63.5583 1.46682 -0.576371 0
M  V30 651 C 64.8353 1.95599 0.00703437 0
M  V30 652 C 65.2153 1.51904 1.46589 0
M  V30 653 O 64.5633 0.766755 2.15251 0
M  V30 654 C 64.7733 3.4864 -0.158404 0
M  V30 655 C 66.1213 4.24594 -0.0229439 0
M  V30 656 O 67.1453 3.56094 -0.0869173 0
M  V30 657 O 66.0043 5.46373 0.118015 0
M  V30 658 H 63.0983 0.825275 0.053384 0
M  V30 659 H 65.6443 1.56996 -0.644244 0
M  V30 660 H 64.4163 3.7331 -1.17282 0
M  V30 661 H 64.0393 3.94057 0.5296 0
M  V30 662 N 65.0364 0.313813 1.54444 0
M  V30 663 C 66.2614 -0.296681 2.05267 0
M  V30 664 C 66.6864 -1.45757 1.18897 0
M  V30 665 O 66.0444 -1.80239 0.195886 0
M  V30 666 C 66.0924 -0.71831 3.53373 0
M  V30 667 O 65.1964 -1.82175 3.69981 0
M  V30 668 H 64.5374 -0.0554061 0.661684 0
M  V30 669 H 67.0674 0.459387 1.99376 0
M  V30 670 H 67.0774 -1.00364 3.95463 0
M  V30 671 H 65.7524 0.130821 4.15694 0
M  V30 672 H 64.3294 -1.53598 3.39797 0
M  V30 673 N 66.5145 -1.57545 0.0417849 0
M  V30 674 C 67.4615 -2.10977 -0.935805 0
M  V30 675 C 68.4315 -1.01486 -1.31491 0
M  V30 676 O 69.6165 -1.2898 -1.40602 0
M  V30 677 C 66.7565 -2.65169 -2.2086 0
M  V30 678 C 65.8695 -3.88714 -1.88482 0
M  V30 679 C 65.0045 -4.31254 -3.1015 0
M  V30 680 C 64.0435 -5.47524 -2.7365 0
M  V30 681 N 63.1805 -5.85162 -3.87982 0
M  V30 682 H 68.0205 -2.94218 -0.473249 0
M  V30 683 H 65.5575 -1.45415 -0.221981 0
M  V30 684 H 67.5155 -2.94685 -2.95325 0
M  V30 685 H 66.1455 -1.8474 -2.64709 0
M  V30 686 H 65.1975 -3.65849 -1.04205 0
M  V30 687 H 66.5095 -4.73245 -1.57608 0
M  V30 688 H 65.6635 -4.62273 -3.92923 0
M  V30 689 H 64.4025 -3.45516 -3.44195 0
M  V30 690 H 63.4075 -5.16187 -1.89291 0
M  V30 691 H 64.6325 -6.34971 -2.40807 0
M  V30 692 H 62.5785 -5.02377 -4.21846 0
M  V30 693 H 62.4955 -6.64362 -3.60775 0
M  V30 694 H 63.7635 -6.20791 -4.71422 0
M  V30 695 N 67.9926 0.231505 -1.5589 0
M  V30 696 C 69.4036 0.799327 -1.68724 0
M  V30 697 C 69.7546 1.85398 -0.642022 0
M  V30 698 O 68.8796 2.1539 0.208784 0
M  V30 699 C 69.4746 1.45664 -3.05888 0
M  V30 700 C 68.0336 1.97197 -3.20609 0
M  V30 701 C 67.1806 0.828552 -2.64632 0
M  V30 702 H 70.1316 0.00702616 -1.58698 0
M  V30 703 H 70.1526 2.32517 -3.01191 0
M  V30 704 H 69.6646 0.688808 -3.81939 0
M  V30 705 H 67.7656 2.76813 -2.4941 0
M  V30 706 H 67.8786 2.15878 -4.27707 0
M  V30 707 H 66.2426 1.23321 -2.22854 0
M  V30 708 H 67.0256 0.0735544 -3.43221 0
M  V30 709 N 69.4707 1.49531 0.497807 0
M  V30 710 C 70.7477 1.49682 1.25915 0
M  V30 711 C 71.1277 0.226339 2.09883 0
M  V30 712 O 70.4757 -0.791189 2.14365 0
M  V30 713 C 70.6857 2.77755 2.11313 0
M  V30 714 C 72.0337 3.27371 2.70395 0
M  V30 715 O 73.0577 2.78894 2.21578 0
M  V30 716 O 71.9167 4.11808 3.59272 0
M  V30 717 H 69.0107 0.599228 0.56996 0
M  V30 718 H 71.5567 1.61798 0.511816 0
M  V30 719 H 70.3287 3.61713 1.49264 0
M  V30 720 H 69.9517 2.68515 2.93233 0
M  V30 721 N 70.9488 -0.749086 1.3866 0
M  V30 722 C 72.1768 -1.53834 1.38358 0
M  V30 723 C 72.5918 -1.88783 -0.0255219 0
M  V30 724 O 71.9488 -1.53101 -0.993292 0
M  V30 725 C 71.9998 -2.83468 2.2434 0
M  V30 726 O 71.7208 -2.50008 3.5976 0
M  V30 727 C 73.2218 -3.7758 2.32267 0
M  V30 728 H 70.4418 -0.47585 0.473083 0
M  V30 729 H 72.9858 -0.926726 1.82297 0
M  V30 730 H 71.1408 -3.40995 1.83851 0
M  V30 731 H 71.5548 -3.33182 4.05081 0
M  V30 732 H 73.0288 -4.65478 2.96706 0
M  V30 733 H 73.5058 -4.18334 1.33765 0
M  V30 734 H 74.1118 -3.25976 2.73166 0
M  V30 735 N 72.4269 -1.23603 -0.977757 0
M  V30 736 C 73.6549 -1.09646 -1.75458 0
M  V30 737 C 74.0699 0.351859 -1.85492 0
M  V30 738 O 73.4269 1.24327 -1.336 0
M  V30 739 C 73.4779 -1.71895 -3.18016 0
M  V30 740 O 73.1989 -3.11063 -3.08498 0
M  V30 741 C 74.6999 -1.63415 -4.12081 0
M  V30 742 H 71.9199 -0.38359 -0.550545 0
M  V30 743 H 74.4639 -1.63507 -1.22824 0
M  V30 744 H 72.6189 -1.22061 -3.67668 0
M  V30 745 H 73.0329 -3.41305 -3.9826 0
M  V30 746 H 74.5069 -2.11669 -5.09804 0
M  V30 747 H 74.9839 -0.593462 -4.35172 0
M  V30 748 H 75.5899 -2.12628 -3.68334 0
M  V30 749 N 73.905 1.17692 -1.04816 0
M  V30 750 C 74.868 2.19787 -0.650117 0
M  V30 751 C 75.868 1.58044 0.296427 0
M  V30 752 O 77.058 1.74012 0.0808097 0
M  V30 753 C 74.19 3.40869 0.0456987 0
M  V30 754 H 75.383 2.56516 -1.5537 0
M  V30 755 H 72.936 1.31708 -0.841594 0
M  V30 756 H 73.671 3.09681 0.962726 0
M  V30 757 H 73.456 3.86928 -0.634727 0
M  V30 758 H 74.946 4.16445 0.310432 0
M  V30 759 N 75.3831 0.828654 1.34056 0
M  V30 760 C 76.7941 0.477534 1.8049 0
M  V30 761 C 77.1451 -1.00258 1.6865 0
M  V30 762 O 76.2701 -1.78057 1.22982 0
M  V30 763 C 76.8651 0.860018 3.27703 0
M  V30 764 C 75.4241 0.561185 3.72193 0
M  V30 765 C 74.5711 1.07385 2.55663 0
M  V30 766 H 77.5221 1.0183 1.21722 0
M  V30 767 H 77.5431 0.166038 3.80138 0
M  V30 768 H 77.0551 1.93731 3.36288 0
M  V30 769 H 75.1561 -0.506465 3.69142 0
M  V30 770 H 75.2691 1.10926 4.66082 0
M  V30 771 H 73.6331 0.495149 2.49841 0
M  V30 772 H 74.4161 2.15771 2.67016 0
M  V30 773 N 76.8612 -1.46375 0.584142 0
M  V30 774 C 78.2722 -1.86031 0.157959 0
M  V30 775 C 78.6232 -1.48753 -1.27933 0
M  V30 776 O 77.7482 -0.903098 -1.96655 0
M  V30 777 C 78.3432 -3.37642 0.279892 0
M  V30 778 C 76.9022 -3.76289 -0.09143 0
M  V30 779 C 76.0492 -2.7039 0.615178 0
M  V30 780 H 79.0002 -1.37509 0.792274 0
M  V30 781 H 79.0212 -3.77275 -0.494364 0
M  V30 782 H 78.5332 -3.64742 1.32607 0
M  V30 783 H 76.6342 -3.54806 -1.13769 0
M  V30 784 H 76.7472 -4.78246 0.285886 0
M  V30 785 H 75.1112 -2.5464 0.0552833 0
M  V30 786 H 75.8942 -3.0033 1.66303 0
M  V30 787 N 78.3393 -0.321999 -1.54275 0
M  V30 788 C 79.5643 0.285791 -2.05422 0
M  V30 789 C 79.9893 1.45124 -1.19669 0
M  V30 790 O 79.3473 1.80132 -0.205441 0
M  V30 791 C 79.3953 0.69956 -3.53749 0
M  V30 792 O 78.4993 1.8021 -3.70942 0
M  V30 793 H 77.8403 0.0518962 -0.661969 0
M  V30 794 H 80.3703 -0.469954 -1.9913 0
M  V30 795 H 80.3803 0.982649 -3.9599 0
M  V30 796 H 79.0553 -0.152864 -4.15619 0
M  V30 797 H 77.6323 1.51794 -3.40607 0
M  V30 798 N 79.8174 1.5752 -0.0501392 0
M  V30 799 C 81.0424 1.97376 0.636997 0
M  V30 800 C 81.4674 0.927466 1.63645 0
M  V30 801 O 80.8254 -0.10941 1.8097 0
M  V30 802 C 80.8734 3.36304 1.30123 0
M  V30 803 O 79.9774 3.34156 2.41689 0
M  V30 804 H 79.3184 0.642998 0.165679 0
M  V30 805 H 81.8484 2.04258 -0.118233 0
M  V30 806 H 81.8584 3.73008 1.65315 0
M  V30 807 H 80.5334 4.11993 0.568746 0
M  V30 808 H 79.1104 3.09196 2.08451 0
M  V30 809 N 81.2955 -0.223234 1.56011 0
M  V30 810 C 82.7065 -0.790368 1.69145 0
M  V30 811 C 83.0575 -1.85055 0.651845 0
M  V30 812 O 82.1825 -2.15498 -0.197359 0
M  V30 813 C 82.7775 -1.4404 3.06656 0
M  V30 814 C 81.3365 -1.95494 3.2165 0
M  V30 815 C 80.4835 -0.814506 2.65068 0
M  V30 816 H 83.4345 0.00139011 1.587 0
M  V30 817 H 83.4555 -2.30916 3.0242 0
M  V30 818 H 82.9675 -0.668543 3.82298 0
M  V30 819 H 81.0685 -2.75487 2.50874 0
M  V30 820 H 81.1815 -2.13607 4.28846 0
M  V30 821 H 79.5455 -1.22137 2.23505 0
M  V30 822 H 80.3285 -0.0553515 3.43255 0
M  V30 823 N 82.7736 -1.49793 -0.48987 0
M  V30 824 C 83.7206 -1.67281 -1.59014 0
M  V30 825 C 84.6906 -0.514177 -1.57941 0
M  V30 826 O 85.8756 -0.742533 -1.75759 0
M  V30 827 C 83.0156 -1.75569 -2.97102 0
M  V30 828 C 82.1286 -3.0281 -3.08107 0
M  V30 829 C 81.2636 -3.02008 -4.36995 0
M  V30 830 C 80.3026 -4.23782 -4.41673 0
M  V30 831 N 79.4396 -4.20826 -5.62005 0
M  V30 832 H 84.2796 -2.61224 -1.43409 0
M  V30 833 H 81.8166 -1.29508 -0.697565 0
M  V30 834 H 83.7746 -1.78354 -3.77155 0
M  V30 835 H 82.4046 -0.850827 -3.11385 0
M  V30 836 H 81.4566 -3.09584 -2.21047 0
M  V30 837 H 82.7686 -3.92801 -3.07423 0
M  V30 838 H 81.9226 -3.03418 -5.25378 0
M  V30 839 H 80.6616 -2.09815 -4.4026 0
M  V30 840 H 79.6666 -4.22604 -3.5169 0
M  V30 841 H 80.8916 -5.17181 -4.40115 0
M  V30 842 H 78.8376 -3.31476 -5.66091 0
M  V30 843 H 78.7546 -5.04564 -5.62984 0
M  V30 844 H 80.0226 -4.26355 -6.52565 0
M  V30 845 N 84.2517 0.741722 -1.39055 0
M  V30 846 C 85.4977 1.50336 -1.36113 0
M  V30 847 C 85.8307 1.94148 0.0450796 0
M  V30 848 O 85.1057 1.66301 1.00868 0
M  V30 849 C 85.3887 2.74773 -2.32749 0
M  V30 850 C 85.2417 2.37023 -3.82283 0
M  V30 851 C 86.5607 3.76846 -2.27322 0
M  V30 852 H 83.6797 0.545351 -0.495743 0
M  V30 853 H 86.3217 0.848624 -1.69995 0
M  V30 854 H 84.4717 3.30639 -2.03986 0
M  V30 855 H 86.1437 1.8684 -4.21768 0
M  V30 856 H 84.3867 1.69334 -3.99385 0
M  V30 857 H 85.0577 3.26104 -4.45376 0
M  V30 858 H 87.5337 3.30548 -2.5274 0
M  V30 859 H 86.4097 4.6159 -2.97028 0
M  V30 860 H 86.6707 4.23286 -1.27599 0
M  V30 861 N 85.7298 1.2412 0.971189 0
M  V30 862 C 86.9578 1.10575 1.74874 0
M  V30 863 C 87.3728 -0.342017 1.85676 0
M  V30 864 O 86.7298 -1.23617 1.34258 0
M  V30 865 C 86.7808 1.73579 3.171 0
M  V30 866 O 86.5018 3.12695 3.06844 0
M  V30 867 C 88.0028 1.65598 4.11208 0
M  V30 868 H 85.2228 0.386504 0.548503 0
M  V30 869 H 87.7668 1.64156 1.21955 0
M  V30 870 H 85.9218 1.24009 3.67016 0
M  V30 871 H 86.3358 3.43412 3.96445 0
M  V30 872 H 87.8098 2.1437 5.08674 0
M  V30 873 H 88.2868 0.616532 4.34851 0
M  V30 874 H 88.8928 2.14578 3.67201 0
M  V30 875 N 87.2079 -1.17134 1.05439 0
M  V30 876 C 88.4379 -1.91094 0.785274 0
M  V30 877 C 88.8459 -1.77198 -0.663142 0
M  V30 878 O 88.1889 -1.10835 -1.46497 0
M  V30 879 C 88.2509 -3.42594 1.08949 0
M  V30 880 C 87.9149 -3.80274 2.53458 0
M  V30 881 C 88.9119 -3.82912 3.51673 0
M  V30 882 C 86.5969 -4.11162 2.88532 0
M  V30 883 C 88.5909 -4.15913 4.83006 0
M  V30 884 C 86.2779 -4.43831 4.20068 0
M  V30 885 C 87.2759 -4.46185 5.17115 0
M  V30 886 O 86.9639 -4.78083 6.46291 0
M  V30 887 H 86.6959 -0.613073 0.284811 0
M  V30 888 H 89.2499 -1.49461 1.40893 0
M  V30 889 H 87.4799 -3.84534 0.408741 0
M  V30 890 H 89.1689 -3.97817 0.805991 0
M  V30 891 H 89.9349 -3.5917 3.25917 0
M  V30 892 H 85.8139 -4.085 2.13656 0
M  V30 893 H 89.3579 -4.17665 5.5875 0
M  V30 894 H 85.2549 -4.67037 4.45586 0
M  V30 895 H 86.0229 -4.9593 6.51149 0
M  V30 896 N 88.686 -0.835752 -1.33615 0
M  V30 897 C 89.633 -0.26473 -2.29277 0
M  V30 898 C 90.603 0.617712 -1.54187 0
M  V30 899 O 91.788 0.556641 -1.825 0
M  V30 900 C 88.928 0.556777 -3.40579 0
M  V30 901 C 88.041 -0.349339 -4.30585 0
M  V30 902 C 87.176 0.482969 -5.29 0
M  V30 903 C 86.215 -0.421732 -6.10645 0
M  V30 904 N 85.352 0.372262 -7.01112 0
M  V30 905 H 90.192 -1.08582 -2.77514 0
M  V30 906 H 87.729 -0.546927 -1.36554 0
M  V30 907 H 89.687 1.04852 -4.03809 0
M  V30 908 H 88.317 1.34286 -2.93542 0
M  V30 909 H 87.369 -0.959372 -3.68104 0
M  V30 910 H 88.681 -1.04445 -4.87742 0
M  V30 911 H 87.835 1.03866 -5.97743 0
M  V30 912 H 86.574 1.21153 -4.72412 0
M  V30 913 H 85.579 -0.989464 -5.40823 0
M  V30 914 H 86.804 -1.14861 -6.69316 0
M  V30 915 H 84.75 1.08426 -6.46977 0
M  V30 916 H 84.667 -0.264198 -7.55538 0
M  V30 917 H 85.935 0.910293 -7.74167 0
M  V30 918 N 90.1641 1.46063 -0.591896 0
M  V30 919 C 91.1271 2.28854 0.125973 0
M  V30 920 C 92.1271 1.38903 0.810107 0
M  V30 921 O 93.3171 1.61186 0.66066 0
M  V30 922 C 90.4491 3.19526 1.1881 0
M  V30 923 H 91.6421 2.93802 -0.601717 0
M  V30 924 H 89.1951 1.52325 -0.350254 0
M  V30 925 H 89.9301 2.59345 1.94707 0
M  V30 926 H 89.7151 3.85766 0.701936 0
M  V30 927 H 91.2051 3.81817 1.69132 0
M  V30 928 N 91.6422 0.330177 1.54103 0
M  V30 929 C 93.0532 -0.15652 1.86043 0
M  V30 930 C 93.4042 -1.51086 1.2517 0
M  V30 931 O 92.5292 -2.09023 0.560217 0
M  V30 932 C 93.1242 -0.290784 3.3755 0
M  V30 933 C 91.6832 -0.721705 3.69416 0
M  V30 934 C 90.8302 0.152622 2.7688 0
M  V30 935 H 93.7812 0.550237 1.48856 0
M  V30 936 H 93.8022 -1.12058 3.63625 0
M  V30 937 H 93.3142 0.695068 3.81825 0
M  V30 938 H 91.4152 -1.71706 3.30678 0
M  V30 939 H 91.5282 -0.520869 4.7626 0
M  V30 940 H 89.8922 -0.372894 2.51956 0
M  V30 941 H 90.6752 1.13536 3.23982 0
M  V30 942 N 93.1203 -1.57491 0.0584922 0
M  V30 943 C 94.3663 -1.93264 -0.614558 0
M  V30 944 C 94.6993 -0.937717 -1.7006 0
M  V30 945 O 93.9743 0.0351652 -1.94468 0
M  V30 946 C 94.2573 -3.3938 -1.20386 0
M  V30 947 C 94.1103 -4.49625 -0.125375 0
M  V30 948 C 95.4293 -3.86039 -2.11334 0
M  V30 949 H 92.5483 -0.702791 -0.221933 0
M  V30 950 H 95.1903 -1.8961 0.12175 0
M  V30 951 H 93.3403 -3.42626 -1.83139 0
M  V30 952 H 95.0123 -4.58506 0.506971 0
M  V30 953 H 93.2553 -4.30354 0.545672 0
M  V30 954 H 93.9263 -5.48967 -0.577861 0
M  V30 955 H 96.4023 -3.84716 -1.58534 0
M  V30 956 H 95.2783 -4.88914 -2.49507 0
M  V30 957 H 95.5393 -3.23215 -3.01636 0
M  V30 958 N 94.5984 0.214957 -1.56127 0
M  V30 959 C 96.0094 0.781386 -1.69562 0
M  V30 960 C 96.3604 1.84707 -0.66165 0
M  V30 961 O 95.4854 2.156 0.185927 0
M  V30 962 C 96.0804 1.42411 -3.07416 0
M  V30 963 C 94.6394 1.93786 -3.22683 0
M  V30 964 C 93.7864 0.800438 -2.65496 0
M  V30 965 H 96.7374 -0.00980633 -1.58697 0
M  V30 966 H 96.7584 2.29309 -3.0364 0
M  V30 967 H 96.2704 0.64826 -3.82648 0
M  V30 968 H 94.3714 2.74152 -2.52332 0
M  V30 969 H 94.4844 2.1133 -4.29973 0
M  V30 970 H 92.8484 1.2095 -2.2415 0
M  V30 971 H 93.6314 0.0371471 -3.4328 0
M  V30 972 N 96.0765 1.50051 0.48192 0
M  V30 973 C 97.3045 1.64237 1.25832 0
M  V30 974 C 97.7195 0.321336 1.86045 0
M  V30 975 O 97.0765 -0.695478 1.68729 0
M  V30 976 C 97.1275 2.72548 2.37487 0
M  V30 977 O 96.8485 3.99529 1.79745 0
M  V30 978 C 98.3495 2.9761 3.28547 0
M  V30 979 H 95.5695 0.55237 0.380957 0
M  V30 980 H 98.1135 1.96207 0.576467 0
M  V30 981 H 96.2685 2.43303 3.01467 0
M  V30 982 H 96.6825 4.59342 2.5319 0
M  V30 983 H 98.1565 3.77084 4.03127 0
M  V30 984 H 98.6335 2.0826 3.86684 0
M  V30 985 H 99.2395 3.28345 2.70314 0
M  V30 986 N 97.5546 -0.734337 1.39446 0
M  V30 987 C 98.8026 -1.49096 1.36436 0
M  V30 988 C 99.1236 -1.94961 -0.0388255 0
M  V30 989 O 98.3936 -1.69033 -0.990191 0
M  V30 990 H 96.9736 -0.5531 0.502085 0
M  V30 991 H 99.6356 -0.871725 1.74319 0
M  V30 992 H 98.7316 -2.37276 2.02747 0
M  V30 993 N 99.0327 -1.24633 -0.964593 0
M  V30 994 C 99.9427 -1.05859 -2.09359 0
M  V30 995 C 100.959 0.00148855 -1.74 0
M  V30 996 O 102.135 -0.197346 -2.00431 0
M  V30 997 C 99.1997 -0.668879 -3.40187 0
M  V30 998 C 98.2607 -1.80578 -3.89474 0
M  V30 999 C 97.4937 -1.43457 -5.14058 0
M  V30 1000 O 97.7167 -0.325775 -5.69469 0
M  V30 1001 O 96.6507 -2.2613 -5.57807 0
M  V30 1002 H 100.477 -2.00516 -2.28094 0
M  V30 1003 H 98.0617 -1.03481 -1.0776 0
M  V30 1004 H 99.9437 -0.463211 -4.18846 0
M  V30 1005 H 98.6187 0.248536 -3.22744 0
M  V30 1006 H 97.5257 -2.06623 -3.11862 0
M  V30 1007 H 98.8587 -2.70208 -4.11398 0
M  V30 1008 N 100.511 1.16574 -1.06058 0
M  V30 1009 C 101.757 1.87324 -0.777022 0
M  V30 1010 C 102.09 1.81351 0.694645 0
M  V30 1011 O 101.365 1.22753 1.50871 0
M  V30 1012 C 101.648 3.36991 -1.26922 0
M  V30 1013 C 101.501 3.51667 -2.80447 0
M  V30 1014 C 102.82 4.3131 -0.87521 0
M  V30 1015 H 99.9388 0.680191 -0.28374 0
M  V30 1016 H 102.581 1.37036 -1.3161 0
M  V30 1017 H 100.731 3.79949 -0.81063 0
M  V30 1018 H 102.403 3.17664 -3.34495 0
M  V30 1019 H 100.646 2.93656 -3.19294 0
M  V30 1020 H 101.317 4.56766 -3.0995 0
M  V30 1021 H 103.793 3.9624 -1.27014 0
M  V30 1022 H 102.669 5.34545 -1.2471 0
M  V30 1023 H 102.93 4.41552 0.220071 0
M  V30 1024 N 101.989 0.842826 1.3317 0
M  V30 1025 C 103.219 0.453397 2.01564 0
M  V30 1026 C 103.627 -0.951147 1.63554 0
M  V30 1027 O 102.97 -1.63021 0.846746 0
M  V30 1028 C 103.032 0.499013 3.5602 0
M  V30 1029 C 102.696 1.86037 4.1742 0
M  V30 1030 C 103.693 2.82416 4.36506 0
M  V30 1031 C 101.378 2.15428 4.53757 0
M  V30 1032 C 103.372 4.06346 4.91082 0
M  V30 1033 C 101.059 3.39615 5.0804 0
M  V30 1034 C 102.057 4.3489 5.26649 0
M  V30 1035 O 101.745 5.5688 5.79776 0
M  V30 1036 H 101.477 0.177871 0.652179 0
M  V30 1037 H 104.031 1.13808 1.70988 0
M  V30 1038 H 102.261 -0.242467 3.85939 0
M  V30 1039 H 103.95 0.126852 4.05702 0
M  V30 1040 H 104.716 2.6101 4.08777 0
M  V30 1041 H 100.595 1.42061 4.38565 0
M  V30 1042 H 104.139 4.80722 5.05522 0
M  V30 1043 H 100.036 3.60876 5.352 0
M  V30 1044 H 100.804 5.58674 5.98185 0
M  V30 1045 N 103.467 -1.45747 0.599634 0
M  V30 1046 C 104.714 -2.02292 0.0917284 0
M  V30 1047 C 105.042 -1.46906 -1.27472 0
M  V30 1048 O 104.297 -0.630652 -1.8526 0
M  V30 1049 C 104.596 -3.57399 -0.00602758 0
M  V30 1050 C 104.262 -4.31902 1.29503 0
M  V30 1051 C 102.924 -4.51974 1.65144 0
M  V30 1052 C 105.276 -4.74551 2.15525 0
M  V30 1053 C 102.604 -5.11949 2.86574 0
M  V30 1054 C 104.956 -5.35868 3.36196 0
M  V30 1055 C 103.62 -5.54165 3.72099 0
M  V30 1056 H 102.89 -0.740239 0.0335658 0
M  V30 1057 H 105.537 -1.7491 0.779661 0
M  V30 1058 H 103.842 -3.84014 -0.777183 0
M  V30 1059 H 105.539 -3.98846 -0.415038 0
M  V30 1060 H 102.129 -4.16588 1.00761 0
M  V30 1061 H 106.313 -4.58784 1.8929 0
M  V30 1062 H 101.569 -5.24305 3.14507 0
M  V30 1063 H 105.743 -5.6787 4.03109 0
M  V30 1064 H 103.37 -6.00406 4.6628 0
M  V30 1065 N 104.945 -0.338344 -1.53925 0
M  V30 1066 C 105.908 0.508299 -2.23493 0
M  V30 1067 C 106.908 1.03175 -1.23335 0
M  V30 1068 O 108.098 0.921826 -1.47811 0
M  V30 1069 C 105.23 1.70754 -2.95052 0
M  V30 1070 H 106.423 -0.100058 -2.99733 0
M  V30 1071 H 103.976 -0.0896198 -1.56043 0
M  V30 1072 H 104.711 2.35474 -2.22986 0
M  V30 1073 H 104.496 1.33946 -3.68512 0
M  V30 1074 H 105.986 2.30818 -3.48013 0
M  V30 1075 N 106.423 1.57458 -0.0668435 0
M  V30 1076 C 107.7 1.8469 0.644132 0
M  V30 1077 C 108.08 0.958343 1.88093 0
M  V30 1078 O 107.428 0.0233579 2.28488 0
M  V30 1079 C 107.638 3.34767 0.986509 0
M  V30 1080 C 108.986 4.02159 1.36212 0
M  V30 1081 O 110.01 3.39484 1.07839 0
M  V30 1082 O 108.869 5.12694 1.89227 0
M  V30 1083 H 105.963 0.762816 0.319437 0
M  V30 1084 H 108.509 1.6942 -0.0973986 0
M  V30 1085 H 107.281 3.91151 0.107883 0
M  V30 1086 H 106.904 3.55281 1.78497 0
M  V30 1087 N 107.901 -0.206675 1.56239 0
M  V30 1088 C 109.126 -0.949474 1.8439 0
M  V30 1089 C 109.551 -1.76549 0.649016 0
M  V30 1090 O 108.909 -1.76782 -0.402231 0
M  V30 1091 C 108.957 -1.83078 3.10668 0
M  V30 1092 O 108.061 -2.9281 2.90407 0
M  V30 1093 H 107.402 -0.268033 0.607499 0
M  V30 1094 H 109.932 -0.215488 2.03462 0
M  V30 1095 H 109.942 -2.2377 3.41161 0
M  V30 1096 H 108.617 -1.23112 3.97261 0
M  V30 1097 H 107.194 -2.55956 2.71184 0
M  V30 1098 N 109.379 -1.50304 -0.473955 0
M  V30 1099 C 110.626 -1.6115 -1.22625 0
M  V30 1100 C 110.954 -0.310517 -1.92005 0
M  V30 1101 O 110.209 0.703419 -1.82621 0
M  V30 1102 C 110.508 -2.73938 -2.29549 0
M  V30 1103 C 110.174 -4.14519 -1.7744 0
M  V30 1104 C 108.836 -4.5277 -1.62949 0
M  V30 1105 C 111.188 -5.02392 -1.3875 0
M  V30 1106 C 108.516 -5.76639 -1.08187 0
M  V30 1107 C 110.868 -6.26805 -0.854309 0
M  V30 1108 C 109.532 -6.63861 -0.696011 0
M  V30 1109 H 108.802 -0.589691 -0.448715 0
M  V30 1110 H 111.449 -1.84228 -0.522705 0
M  V30 1111 H 109.754 -2.44937 -3.05799 0
M  V30 1112 H 111.451 -2.79534 -2.87509 0
M  V30 1113 H 108.041 -3.8434 -1.89685 0
M  V30 1114 H 112.225 -4.73474 -1.4878 0
M  V30 1115 H 107.481 -6.04027 -0.946666 0
M  V30 1116 H 111.655 -6.94258 -0.545843 0
M  V30 1117 H 109.282 -7.59722 -0.26952 0
M  V30 1118 N 110.857 0.726932 -1.39834 0
M  V30 1119 C 112.134 1.47902 -1.28001 0
M  V30 1120 C 112.514 2.1083 0.106789 0
M  V30 1121 O 111.862 1.99242 1.11869 0
M  V30 1122 C 112.072 2.52392 -2.41038 0
M  V30 1123 C 113.42 3.18546 -2.80737 0
M  V30 1124 O 114.444 2.62708 -2.40547 0
M  V30 1125 O 113.303 4.19604 -3.50135 0
M  V30 1126 H 110.397 0.657163 -0.502062 0
M  V30 1127 H 112.943 0.760071 -1.51727 0
M  V30 1128 H 111.715 2.04329 -3.33715 0
M  V30 1129 H 111.338 3.31837 -2.19021 0
M  V30 1130 N 112.336 1.25143 0.95797 0
M  V30 1131 C 113.752 1.01892 1.22842 0
M  V30 1132 C 113.952 -0.266311 1.99732 0
M  V30 1133 O 113.008 -0.979913 2.3271 0
M  V30 1134 C 114.321 2.24004 2.00606 0
M  V30 1135 C 115.869 2.28731 2.13662 0
M  V30 1136 C 116.344 3.5049 2.94823 0
M  V30 1137 N 117.835 3.50866 3.02403 0
M  V30 1138 C 118.57 4.4174 3.65586 0
M  V30 1139 N 118.066 5.42882 4.30408 0
M  V30 1140 N 119.859 4.29429 3.62694 0
M  V30 1141 H 112.01 2.07718 0.443493 0
M  V30 1142 H 114.273 0.912031 0.258657 0
M  V30 1143 H 113.979 3.17395 1.51503 0
M  V30 1144 H 113.853 2.26907 3.01319 0
M  V30 1145 H 116.24 1.35865 2.61963 0
M  V30 1146 H 116.321 2.29848 1.12265 0
M  V30 1147 H 115.965 4.43676 2.47213 0
M  V30 1148 H 115.895 3.46617 3.96439 0
M  V30 1149 H 118.386 2.777 2.56302 0
M  V30 1150 H 118.699 6.0844 4.76467 0
M  V30 1151 H 117.044 5.46758 4.29047 0
M  V30 1152 H 120.235 3.49643 3.11236 0
M  V30 1153 H 120.408 5.00448 4.1165 0
M  V30 1154 N 113.814 -1.1601 1.06675 0
M  V30 1155 C 115.062 -1.86264 0.784229 0
M  V30 1156 C 115.383 -1.82328 -0.691488 0
M  V30 1157 O 114.653 -1.25947 -1.50047 0
M  V30 1158 H 113.233 -0.689621 0.28711 0
M  V30 1159 H 115.895 -1.40664 1.34906 0
M  V30 1160 H 114.991 -2.91595 1.11259 0
M  V30 1161 N 115.292 -0.849877 -1.32721 0
M  V30 1162 C 116.52 -0.464754 -2.01613 0
M  V30 1163 C 116.935 0.937191 -1.63897 0
M  V30 1164 O 116.292 1.61081 -0.857856 0
M  V30 1165 C 116.343 -0.588638 -3.56675 0
M  V30 1166 O 116.064 -1.93535 -3.93034 0
M  V30 1167 C 117.565 -0.2019 -4.4284 0
M  V30 1168 H 114.785 -0.183215 -0.645502 0
M  V30 1169 H 117.329 -1.1455 -1.69407 0
M  V30 1170 H 115.484 0.0443159 -3.87375 0
M  V30 1171 H 115.898 -1.92871 -4.87751 0
M  V30 1172 H 117.372 -0.339599 -5.50954 0
M  V30 1173 H 117.849 0.857224 -4.30753 0
M  V30 1174 H 118.455 -0.809733 -4.17521 0
M  V30 1175 N 116.77 1.45427 -0.607355 0
M  V30 1176 C 117.7 2.3329 0.0989352 0
M  V30 1177 C 118.681 1.46816 0.859007 0
M  V30 1178 O 119.866 1.75588 0.829604 0
M  V30 1179 C 116.996 3.29518 1.09705 0
M  V30 1180 C 115.95 4.25626 0.450206 0
M  V30 1181 C 115.276 5.11542 1.55655 0
M  V30 1182 C 116.576 5.18505 -0.628455 0
M  V30 1183 H 118.27 2.92595 -0.634716 0
M  V30 1184 H 115.816 1.40696 -0.306681 0
M  V30 1185 H 117.769 3.89855 1.59971 0
M  V30 1186 H 116.493 2.68372 1.86129 0
M  V30 1187 H 115.152 3.66586 -0.0315886 0
M  V30 1188 H 114.8 4.46765 2.31107 0
M  V30 1189 H 114.5 5.76647 1.12925 0
M  V30 1190 H 116.024 5.74748 2.06148 0
M  V30 1191 H 117.438 5.72916 -0.209877 0
M  V30 1192 H 115.835 5.92085 -0.977489 0
M  V30 1193 H 116.905 4.60948 -1.50514 0
M  V30 1194 N 118.248 0.346503 1.53744 0
M  V30 1195 C 119.473 -0.253074 2.0585 0
M  V30 1196 C 119.898 -1.43202 1.21962 0
M  V30 1197 O 119.256 -1.79783 0.234073 0
M  V30 1198 C 119.304 -0.643193 3.54817 0
M  V30 1199 O 118.408 -1.74286 3.73762 0
M  V30 1200 H 117.749 -0.0413583 0.662711 0
M  V30 1201 H 120.279 0.501574 1.98357 0
M  V30 1202 H 120.289 -0.919526 3.97503 0
M  V30 1203 H 118.964 0.218966 4.15323 0
M  V30 1204 H 117.541 -1.46356 3.42979 0
M  V30 1205 N 119.726 -1.57421 0.075193 0
M  V30 1206 C 120.974 -1.93236 -0.591974 0
M  V30 1207 C 121.295 -0.956241 -1.69944 0
M  V30 1208 O 120.565 -0.00494792 -1.95899 0
M  V30 1209 H 119.145 -0.713355 -0.22166 0
M  V30 1210 H 121.807 -1.9444 0.133848 0
M  V30 1211 H 120.903 -2.95131 -1.01509 0
M  V30 1212 N 121.204 0.198386 -1.56346 0
M  V30 1213 C 122.45 0.916115 -1.81601 0
M  V30 1214 C 122.805 1.81025 -0.651744 0
M  V30 1215 O 122.098 1.88316 0.353229 0
M  V30 1216 C 122.292 1.77031 -3.10475 0
M  V30 1217 C 122.121 0.960365 -4.39326 0
M  V30 1218 C 120.891 0.646093 -5.01152 0
M  V30 1219 C 123.089 0.314628 -5.13337 0
M  V30 1220 N 121.071 -0.182828 -6.13628 0
M  V30 1221 C 122.442 -0.37664 -6.18855 0
M  V30 1222 C 124.497 0.230019 -4.97368 0
M  V30 1223 C 123.2 -1.14445 -7.10137 0
M  V30 1224 C 125.226 -0.524389 -5.89071 0
M  V30 1225 C 124.588 -1.20412 -6.94032 0
M  V30 1226 H 120.687 0.314732 -0.715868 0
M  V30 1227 H 123.271 0.185102 -1.93818 0
M  V30 1228 H 121.442 2.47295 -2.99499 0
M  V30 1229 H 123.174 2.42727 -3.2383 0
M  V30 1230 H 119.929 0.969724 -4.63566 0
M  V30 1231 H 120.353 -0.586802 -6.74452 0
M  V30 1232 H 124.995 0.741184 -4.16253 0
M  V30 1233 H 122.713 -1.66706 -7.90718 0
M  V30 1234 H 126.299 -0.591167 -5.78789 0
M  V30 1235 H 125.179 -1.77853 -7.63766 0
M  V30 1236 N 122.682 1.50554 0.465978 0
M  V30 1237 C 123.931 1.61038 1.21448 0
M  V30 1238 C 124.244 0.31865 1.92987 0
M  V30 1239 O 125.45 0.302469 2.6981 0
M  V30 1240 C 123.906 2.84283 2.20706 0
M  V30 1241 C 123.514 4.20352 1.54946 0
M  V30 1242 C 125.258 3.04115 2.96166 0
M  V30 1243 C 123.165 5.34778 2.5252 0
M  V30 1244 H 122.095 0.599718 0.457005 0
M  V30 1245 H 124.746 1.7699 0.484424 0
M  V30 1246 H 123.128 2.61901 2.97025 0
M  V30 1247 H 124.302 4.53008 0.843811 0
M  V30 1248 H 122.617 4.06167 0.917475 0
M  V30 1249 H 125.214 3.86774 3.69202 0
M  V30 1250 H 125.557 2.16045 3.55852 0
M  V30 1251 H 126.09 3.26702 2.26959 0
M  V30 1252 H 122.829 6.25018 1.97566 0
M  V30 1253 H 122.349 5.06534 3.21222 0
M  V30 1254 H 124.028 5.65561 3.14245 0
M  V30 1255 N 124.16 -0.719506 1.40217 0
M  V30 1256 C 125.09 -1.8465 1.42922 0
M  V30 1257 C 126.071 -1.67599 0.29062 0
M  V30 1258 O 127.256 -1.87688 0.498677 0
M  V30 1259 C 124.386 -3.22565 1.28722 0
M  V30 1260 C 123.34 -3.54281 2.40144 0
M  V30 1261 C 122.666 -4.91298 2.11023 0
M  V30 1262 C 123.966 -3.55676 3.82481 0
M  V30 1263 H 125.66 -1.82644 2.37237 0
M  V30 1264 H 123.206 -0.877305 1.1419 0
M  V30 1265 H 125.159 -4.01095 1.29232 0
M  V30 1266 H 123.883 -3.25137 0.308811 0
M  V30 1267 H 122.542 -2.78088 2.38877 0
M  V30 1268 H 122.19 -4.90468 1.11582 0
M  V30 1269 H 121.89 -5.13485 2.8567 0
M  V30 1270 H 123.414 -5.72166 2.13209 0
M  V30 1271 H 124.828 -4.24254 3.85592 0
M  V30 1272 H 123.225 -3.89388 4.56614 0
M  V30 1273 H 124.295 -2.55144 4.12346 0
M  V30 1274 N 125.638 -1.25649 -0.95132 0
M  V30 1275 C 126.863 -1.13443 -1.73624 0
M  V30 1276 C 127.288 0.307565 -1.85568 0
M  V30 1277 O 126.646 1.22282 -1.33854 0
M  V30 1278 C 126.694 -1.79723 -3.12621 0
M  V30 1279 O 125.798 -1.07912 -3.98031 0
M  V30 1280 H 125.139 -0.395872 -0.533086 0
M  V30 1281 H 127.669 -1.66276 -1.1922 0
M  V30 1282 H 127.679 -1.86141 -3.63064 0
M  V30 1283 H 126.354 -2.84633 -3.03244 0
M  V30 1284 H 124.931 -1.09398 -3.56492 0
M  V30 1285 N 127.117 1.15442 -1.07289 0
M  V30 1286 C 128.064 2.20161 -0.692653 0
M  V30 1287 C 129.034 1.63073 0.31564 0
M  V30 1288 O 130.219 1.89725 0.202235 0
M  V30 1289 C 127.359 3.44967 -0.0959509 0
M  V30 1290 C 126.472 4.16256 -1.15564 0
M  V30 1291 C 125.607 5.28609 -0.524011 0
M  V30 1292 C 124.646 5.91715 -1.56653 0
M  V30 1293 N 123.783 6.9554 -0.957531 0
M  V30 1294 H 128.623 2.52037 -1.59002 0
M  V30 1295 H 126.16 1.2378 -0.794798 0
M  V30 1296 H 128.118 4.16341 0.267628 0
M  V30 1297 H 126.748 3.1361 0.764772 0
M  V30 1298 H 125.8 3.43385 -1.6368 0
M  V30 1299 H 127.112 4.59268 -1.94613 0
M  V30 1300 H 126.266 6.06604 -0.108032 0
M  V30 1301 H 125.005 4.86787 0.29825 0
M  V30 1302 H 124.01 5.12433 -1.9923 0
M  V30 1303 H 125.235 6.35614 -2.39107 0
M  V30 1304 H 123.181 6.55814 -0.156162 0
M  V30 1305 H 123.098 7.36977 -1.68526 0
M  V30 1306 H 124.366 7.77435 -0.567032 0
M  V30 1307 N 128.595 0.856903 1.32268 0
M  V30 1308 C 129.558 0.308171 2.27119 0
M  V30 1309 C 130.558 -0.533421 1.51695 0
M  V30 1310 O 131.748 -0.344607 1.70757 0
M  V30 1311 C 128.88 -0.563757 3.36206 0
M  V30 1312 H 130.073 1.14535 2.77167 0
M  V30 1313 H 127.626 0.631421 1.42978 0
M  V30 1314 H 128.361 -1.42266 2.91429 0
M  V30 1315 H 128.146 0.0386749 3.92081 0
M  V30 1316 H 129.636 -0.940386 4.06874 0
M  V30 1317 N 130.073 -1.45103 0.615059 0
M  V30 1318 C 131.02 -2.30586 -0.0993978 0
M  V30 1319 C 131.99 -1.42544 -0.852669 0
M  V30 1320 O 133.175 -1.71465 -0.836917 0
M  V30 1321 C 130.315 -3.27572 -1.08583 0
M  V30 1322 C 129.428 -4.30717 -0.332656 0
M  V30 1323 C 128.563 -5.14807 -1.30947 0
M  V30 1324 C 127.602 -6.09673 -0.544538 0
M  V30 1325 N 126.739 -6.86517 -1.47101 0
M  V30 1326 H 131.579 -2.91144 0.635542 0
M  V30 1327 H 129.116 -1.4346 0.325206 0
M  V30 1328 H 131.074 -3.82276 -1.67095 0
M  V30 1329 H 129.704 -2.68751 -1.78809 0
M  V30 1330 H 128.756 -3.78615 0.368107 0
M  V30 1331 H 130.068 -4.98102 0.263842 0
M  V30 1332 H 129.222 -5.73948 -1.96643 0
M  V30 1333 H 127.961 -4.47458 -1.9399 0
M  V30 1334 H 126.966 -5.49656 0.126003 0
M  V30 1335 H 128.191 -6.79052 0.080947 0
M  V30 1336 H 126.137 -6.21851 -2.08895 0
M  V30 1337 H 126.054 -7.50281 -0.928137 0
M  V30 1338 H 127.322 -7.50194 -2.11731 0
M  V30 1339 N 131.551 -0.354651 -1.53558 0
M  V30 1340 C 132.498 0.496968 -2.25386 0
M  V30 1341 C 133.468 1.0865 -1.25636 0
M  V30 1342 O 134.653 1.12104 -1.54394 0
M  V30 1343 C 131.793 1.63637 -3.03837 0
M  V30 1344 C 130.906 1.07307 -4.18461 0
M  V30 1345 C 130.041 2.18068 -4.84376 0
M  V30 1346 C 129.08 1.59147 -5.91049 0
M  V30 1347 N 128.217 2.63695 -6.50699 0
M  V30 1348 H 133.057 -0.122075 -2.9775 0
M  V30 1349 H 130.594 -0.0720154 -1.46924 0
M  V30 1350 H 132.552 2.30734 -3.47589 0
M  V30 1351 H 131.182 2.22623 -2.33749 0
M  V30 1352 H 130.234 0.292708 -3.79272 0
M  V30 1353 H 131.546 0.602193 -4.95152 0
M  V30 1354 H 130.7 2.93007 -5.31255 0
M  V30 1355 H 129.439 2.68504 -4.07133 0
M  V30 1356 H 128.444 0.827175 -5.43542 0
M  V30 1357 H 129.669 1.09549 -6.70206 0
M  V30 1358 H 127.615 3.13365 -5.76315 0
M  V30 1359 H 127.532 2.21263 -7.22896 0
M  V30 1360 H 128.8 3.3837 -7.02229 0
M  V30 1361 N 133.029 1.57378 -0.0835403 0
M  V30 1362 C 134.306 1.85363 0.624507 0
M  V30 1363 C 134.686 0.978239 1.87066 0
M  V30 1364 O 134.034 0.0475908 2.2845 0
M  V30 1365 C 134.244 3.35795 0.950947 0
M  V30 1366 C 135.592 4.03581 1.31939 0
M  V30 1367 O 136.616 3.40609 1.04232 0
M  V30 1368 O 135.475 5.14672 1.83779 0
M  V30 1369 H 132.569 0.766162 0.311329 0
M  V30 1370 H 135.115 1.69307 -0.115362 0
M  V30 1371 H 133.887 3.91244 0.0663899 0
M  V30 1372 H 133.51 3.57154 1.74719 0
M  V30 1373 N 134.507 -0.190092 1.56449 0
M  V30 1374 C 135.784 -0.935886 1.71757 0
M  V30 1375 C 136.164 -2.01173 0.639726 0
M  V30 1376 O 135.512 -2.25827 -0.348502 0
M  V30 1377 C 135.722 -1.51775 3.1427 0
M  V30 1378 C 137.07 -1.99794 3.74656 0
M  V30 1379 O 138.094 -1.61607 3.1743 0
M  V30 1380 O 136.953 -2.70079 4.751 0
M  V30 1381 H 134.047 -0.439229 0.700719 0
M  V30 1382 H 136.593 -0.179395 1.68749 0
M  V30 1383 H 135.365 -0.742505 3.84191 0
M  V30 1384 H 134.988 -2.33894 3.21527 0
M  V30 1385 N 135.985 -1.50799 -0.457987 0
M  V30 1386 C 137.213 -1.66218 -1.23203 0
M  V30 1387 C 137.628 -0.350894 -1.85511 0
M  V30 1388 O 136.985 0.668546 -1.69814 0
M  V30 1389 C 137.036 -2.76291 -2.33121 0
M  V30 1390 O 136.757 -4.02338 -1.73366 0
M  V30 1391 C 138.258 -3.028 -3.2377 0
M  V30 1392 H 135.478 -0.558361 -0.372121 0
M  V30 1393 H 138.022 -1.97099 -0.545179 0
M  V30 1394 H 136.177 -2.48068 -2.97558 0
M  V30 1395 H 136.591 -4.63312 -2.4585 0
M  V30 1396 H 138.065 -3.8345 -3.97077 0
M  V30 1397 H 138.542 -2.14385 -3.83322 0
M  V30 1398 H 139.148 -3.32604 -2.65056 0
M  V30 1399 N 137.463 0.71206 -1.40597 0
M  V30 1400 C 138.74 1.46536 -1.29563 0
M  V30 1401 C 139.12 2.10931 0.0844217 0
M  V30 1402 O 138.468 2.00418 1.0975 0
M  V30 1403 C 138.678 2.49821 -2.43701 0
M  V30 1404 C 140.026 3.15551 -2.841 0
M  V30 1405 O 141.05 2.60142 -2.4332 0
M  V30 1406 O 139.909 4.15867 -3.54566 0
M  V30 1407 H 137.003 0.651801 -0.509004 0
M  V30 1408 H 139.549 0.743935 -1.52524 0
M  V30 1409 H 138.321 2.00778 -3.35863 0
M  V30 1410 H 137.944 3.29495 -2.22528 0
M  V30 1411 N 138.941 1.26152 0.944643 0
M  V30 1412 C 140.218 1.02247 1.66748 0
M  V30 1413 C 140.598 -0.448202 2.06287 0
M  V30 1414 O 139.946 -1.42779 1.78399 0
M  V30 1415 C 140.156 1.96788 2.88228 0
M  V30 1416 C 141.504 2.25201 3.59958 0
M  V30 1417 O 142.528 1.94626 2.98327 0
M  V30 1418 O 141.387 2.77242 4.70956 0
M  V30 1419 H 138.481 0.388517 0.730057 0
M  V30 1420 H 141.027 1.37348 0.99668 0
M  V30 1421 H 139.799 2.96047 2.55875 0
M  V30 1422 H 139.422 1.62145 3.63035 0
M  V30 1423 N 140.419 -1.14872 1.07899 0
M  V30 1424 C 141.329 -2.2341 0.715915 0
M  V30 1425 C 142.345 -1.71808 -0.275306 0
M  V30 1426 O 143.521 -2.01039 -0.120545 0
M  V30 1427 C 140.586 -3.46474 0.125168 0
M  V30 1428 C 139.647 -4.13039 1.17034 0
M  V30 1429 C 138.88 -5.30229 0.607688 0
M  V30 1430 O 139.103 -5.675 -0.574497 0
M  V30 1431 O 138.037 -5.86444 1.35526 0
M  V30 1432 H 141.863 -2.56808 1.62121 0
M  V30 1433 H 139.448 -1.22702 0.852322 0
M  V30 1434 H 141.33 -4.20917 -0.201729 0
M  V30 1435 H 140.005 -3.14811 -0.753364 0
M  V30 1436 H 138.912 -3.40493 1.54968 0
M  V30 1437 H 140.245 -4.48796 2.02097 0
M  V30 1438 N 141.898 -0.863906 -1.31812 0
M  V30 1439 C 143.147 -0.46801 -1.96195 0
M  V30 1440 C 143.46 0.983474 -1.69077 0
M  V30 1441 O 144.666 1.48523 -2.27273 0
M  V30 1442 C 143.122 -0.785995 -3.51212 0
M  V30 1443 C 142.73 -2.25383 -3.87178 0
M  V30 1444 C 144.474 -0.458274 -4.22019 0
M  V30 1445 C 142.381 -2.51455 -5.3528 0
M  V30 1446 H 141.311 -0.171283 -0.734287 0
M  V30 1447 H 143.962 -1.05597 -1.50072 0
M  V30 1448 H 142.344 -0.127359 -3.95795 0
M  V30 1449 H 143.518 -2.95502 -3.53575 0
M  V30 1450 H 141.833 -2.54698 -3.2942 0
M  V30 1451 H 144.43 -0.630369 -5.30971 0
M  V30 1452 H 144.773 0.600834 -4.11941 0
M  V30 1453 H 145.306 -1.07319 -3.8305 0
M  V30 1454 H 142.045 -3.56025 -5.50387 0
M  V30 1455 H 141.565 -1.85923 -5.70257 0
M  V30 1456 H 143.244 -2.35874 -6.02472 0
M  V30 1457 N 143.376 1.44774 -0.622745 0
M  V30 1458 C 144.339 2.29069 0.0774015 0
M  V30 1459 C 145.339 1.4059 0.780461 0
M  V30 1460 O 146.529 1.62551 0.626322 0
M  V30 1461 C 143.661 3.21974 1.12006 0
M  V30 1462 H 144.854 2.92459 -0.663901 0
M  V30 1463 H 142.407 1.51548 -0.382486 0
M  V30 1464 H 143.142 2.63417 1.89162 0
M  V30 1465 H 142.927 3.87168 0.619951 0
M  V30 1466 H 144.417 3.85318 1.60995 0
M  V30 1467 N 144.854 0.36279 1.53368 0
M  V30 1468 C 145.801 -0.485008 2.25646 0
M  V30 1469 C 146.771 -1.07982 1.2621 0
M  V30 1470 O 147.956 -1.11284 1.54986 0
M  V30 1471 C 145.096 -1.62023 3.04701 0
M  V30 1472 C 144.209 -1.05086 4.19024 0
M  V30 1473 C 143.344 -2.15496 4.85525 0
M  V30 1474 C 142.383 -1.5601 5.91884 0
M  V30 1475 N 141.52 -2.60241 6.52088 0
M  V30 1476 H 146.36 0.137864 2.97681 0
M  V30 1477 H 143.897 0.0798061 1.46883 0
M  V30 1478 H 145.855 -2.28887 3.48807 0
M  V30 1479 H 144.485 -2.2138 2.34927 0
M  V30 1480 H 143.537 -0.27259 3.79422 0
M  V30 1481 H 144.849 -0.575926 4.95464 0
M  V30 1482 H 144.003 -2.90186 5.32801 0
M  V30 1483 H 142.742 -2.66341 4.08551 0
M  V30 1484 H 141.747 -0.798338 5.43973 0
M  V30 1485 H 142.972 -1.05994 6.70777 0
M  V30 1486 H 140.918 -3.10304 5.77968 0
M  V30 1487 H 140.835 -2.17426 7.24059 0
M  V30 1488 H 142.103 -3.34641 7.04014 0
M  V30 1489 N 146.332 -1.57332 0.0918853 0
M  V30 1490 C 147.562 -1.98286 -0.580205 0
M  V30 1491 C 147.97 -0.969713 -1.6246 0
M  V30 1492 O 147.313 0.0493501 -1.83634 0
M  V30 1493 C 147.375 -3.35603 -1.28882 0
M  V30 1494 C 147.039 -4.55285 -0.395559 0
M  V30 1495 C 148.036 -5.18687 0.355002 0
M  V30 1496 C 145.721 -5.01314 -0.314556 0
M  V30 1497 C 147.715 -6.26484 1.17458 0
M  V30 1498 C 145.402 -6.08979 0.508677 0
M  V30 1499 C 146.4 -6.71429 1.2519 0
M  V30 1500 O 146.088 -7.77018 2.06151 0
M  V30 1501 H 145.82 -0.656678 -0.160466 0
M  V30 1502 H 148.374 -2.04721 0.16688 0
M  V30 1503 H 146.604 -3.25842 -2.08241 0
M  V30 1504 H 148.293 -3.61026 -1.85512 0
M  V30 1505 H 149.059 -4.84058 0.302134 0
M  V30 1506 H 144.938 -4.5247 -0.882697 0
M  V30 1507 H 148.482 -6.75159 1.75518 0
M  V30 1508 H 144.379 -6.4304 0.563037 0
M  V30 1509 H 145.147 -7.93991 1.98799 0
M  V30 1510 N 147.81 0.181792 -1.56548 0
M  V30 1511 C 149.087 0.926765 -1.72251 0
M  V30 1512 C 149.467 2.00831 -0.650386 0
M  V30 1513 O 148.815 2.26008 0.336521 0
M  V30 1514 C 149.025 1.50106 -3.1507 0
M  V30 1515 C 150.373 1.97805 -3.75711 0
M  V30 1516 O 151.397 1.59922 -3.18282 0
M  V30 1517 O 150.256 2.67555 -4.76525 0
M  V30 1518 H 147.35 0.435506 -0.703039 0
M  V30 1519 H 149.896 0.170443 -1.68842 0
M  V30 1520 H 148.668 0.72212 -3.84579 0
M  V30 1521 H 148.291 2.32186 -3.22763 0
M  V30 1522 N 149.288 1.51039 0.449983 0
M  V30 1523 C 150.536 1.62759 1.19808 0
M  V30 1524 C 150.857 0.339981 1.92013 0
M  V30 1525 O 150.127 -0.643606 1.85026 0
M  V30 1526 H 148.707 0.599811 0.445237 0
M  V30 1527 H 151.369 1.87914 0.517138 0
M  V30 1528 H 150.465 2.44911 1.93455 0
M  V30 1529 N 150.766 -0.704594 1.40972 0
M  V30 1530 C 151.713 -1.81862 1.42109 0
M  V30 1531 C 152.683 -1.63781 0.276593 0
M  V30 1532 O 153.868 -1.84759 0.4763 0
M  V30 1533 C 151.008 -3.19669 1.30022 0
M  V30 1534 C 150.121 -3.49246 2.54267 0
M  V30 1535 C 149.256 -4.76618 2.3454 0
M  V30 1536 C 148.295 -4.99133 3.54306 0
M  V30 1537 N 147.432 -6.17726 3.33706 0
M  V30 1538 H 152.272 -1.80226 2.37324 0
M  V30 1539 H 149.809 -0.880238 1.17857 0
M  V30 1540 H 151.767 -3.99263 1.21018 0
M  V30 1541 H 150.397 -3.20506 0.384192 0
M  V30 1542 H 149.449 -2.64125 2.73756 0
M  V30 1543 H 150.761 -3.61788 3.43381 0
M  V30 1544 H 149.915 -5.64249 2.22952 0
M  V30 1545 H 148.654 -4.66305 1.42867 0
M  V30 1546 H 147.659 -4.09953 3.66359 0
M  V30 1547 H 148.884 -5.11311 4.4692 0
M  V30 1548 H 146.83 -6.08642 2.44725 0
M  V30 1549 H 146.747 -6.30995 4.16391 0
M  V30 1550 H 148.015 -7.08115 3.25873 0
M  V30 1551 N 152.244 -1.26651 -0.937939 0
M  V30 1552 C 153.49 -1.13562 -1.68746 0
M  V30 1553 C 153.845 0.317241 -1.89767 0
M  V30 1554 O 153.138 1.22939 -1.46957 0
M  V30 1555 C 153.332 -1.84168 -3.06295 0
M  V30 1556 C 153.161 -3.36171 -2.98696 0
M  V30 1557 C 151.931 -4.05468 -3.01535 0
M  V30 1558 C 154.129 -4.32312 -2.78588 0
M  V30 1559 N 152.111 -5.44118 -2.84269 0
M  V30 1560 C 153.482 -5.58159 -2.69924 0
M  V30 1561 C 155.537 -4.22524 -2.63396 0
M  V30 1562 C 154.24 -6.75335 -2.47618 0
M  V30 1563 C 156.266 -5.39411 -2.42466 0
M  V30 1564 C 155.628 -6.64208 -2.34536 0
M  V30 1565 H 151.727 -0.470361 -0.624728 0
M  V30 1566 H 154.311 -1.59982 -1.10968 0
M  V30 1567 H 152.482 -1.40219 -3.62206 0
M  V30 1568 H 154.214 -1.63674 -3.70126 0
M  V30 1569 H 150.969 -3.56854 -3.11372 0
M  V30 1570 H 151.393 -6.1693 -2.78795 0
M  V30 1571 H 156.035 -3.26771 -2.68292 0
M  V30 1572 H 153.753 -7.71182 -2.41463 0
M  V30 1573 H 157.339 -5.33711 -2.31611 0
M  V30 1574 H 156.219 -7.53129 -2.18555 0
M  V30 1575 N 153.722 1.14298 -1.08507 0
M  V30 1576 C 154.632 2.23027 -0.727753 0
M  V30 1577 C 155.648 1.71952 0.26619 0
M  V30 1578 O 156.824 2.011 0.109882 0
M  V30 1579 C 153.889 3.46403 -0.143541 0
M  V30 1580 C 152.95 4.12413 -1.19223 0
M  V30 1581 C 152.183 5.29899 -0.635798 0
M  V30 1582 O 152.406 5.67796 0.544393 0
M  V30 1583 O 151.34 5.85717 -1.38634 0
M  V30 1584 H 155.166 2.55945 -1.63481 0
M  V30 1585 H 152.751 1.22248 -0.858817 0
M  V30 1586 H 154.633 4.21018 0.179404 0
M  V30 1587 H 153.308 3.15206 0.736659 0
M  V30 1588 H 152.215 3.39667 -1.56772 0
M  V30 1589 H 153.548 4.47718 -2.04474 0
M  V30 1590 N 155.201 0.870884 1.31352 0
M  V30 1591 C 156.447 0.482987 1.96965 0
M  V30 1592 C 156.78 -0.962462 1.68672 0
M  V30 1593 O 156.055 -1.6779 0.98371 0
M  V30 1594 C 156.338 0.741752 3.52378 0
M  V30 1595 C 156.191 2.2368 3.9024 0
M  V30 1596 C 157.51 0.208838 4.39604 0
M  V30 1597 H 154.629 0.176955 0.715441 0
M  V30 1598 H 157.271 1.09229 1.55464 0
M  V30 1599 H 155.421 0.223149 3.87859 0
M  V30 1600 H 157.093 2.82273 3.64856 0
M  V30 1601 H 155.336 2.70901 3.38814 0
M  V30 1602 H 156.007 2.3685 4.98604 0
M  V30 1603 H 158.483 0.652529 4.10952 0
M  V30 1604 H 157.359 0.419336 5.47296 0
M  V30 1605 H 157.62 -0.889275 4.33064 0
M  V30 1606 N 156.679 -1.44442 0.630414 0
M  V30 1607 C 157.589 -2.34476 -0.0761693 0
M  V30 1608 C 158.605 -1.52576 -0.836449 0
M  V30 1609 O 159.781 -1.85307 -0.788874 0
M  V30 1610 C 156.846 -3.30545 -1.04599 0
M  V30 1611 C 155.907 -4.28352 -0.28516 0
M  V30 1612 C 155.14 -5.19831 -1.20878 0
M  V30 1613 O 155.363 -5.15223 -2.44747 0
M  V30 1614 O 154.297 -5.97892 -0.693491 0
M  V30 1615 H 158.123 -2.96345 0.664324 0
M  V30 1616 H 155.708 -1.44203 0.39061 0
M  V30 1617 H 157.59 -3.89681 -1.60396 0
M  V30 1618 H 156.265 -2.7121 -1.76711 0
M  V30 1619 H 155.172 -3.72764 0.315837 0
M  V30 1620 H 156.505 -4.90605 0.395924 0
M  V30 1621 N 158.157 -0.370918 -1.53173 0
M  V30 1622 C 159.067 0.480823 -2.2962 0
M  V30 1623 C 160.083 1.08789 -1.35798 0
M  V30 1624 O 161.259 1.09768 -1.68858 0
M  V30 1625 C 158.324 1.60227 -3.07454 0
M  V30 1626 C 157.385 1.0222 -4.16953 0
M  V30 1627 C 156.618 2.0902 -4.91066 0
M  V30 1628 O 156.841 3.30222 -4.65091 0
M  V30 1629 O 155.775 1.71778 -5.76867 0
M  V30 1630 H 159.601 -0.141421 -3.03371 0
M  V30 1631 H 157.186 -0.135146 -1.48787 0
M  V30 1632 H 159.068 2.25417 -3.56041 0
M  V30 1633 H 157.743 2.20982 -2.36535 0
M  V30 1634 H 156.65 0.334064 -3.72605 0
M  V30 1635 H 157.983 0.459131 -4.90054 0
M  V30 1636 N 159.635 1.57281 -0.100228 0
M  V30 1637 C 160.568 2.09976 0.893612 0
M  V30 1638 C 161.546 1.01155 1.27304 0
M  V30 1639 O 162.73 1.28687 1.37739 0
M  V30 1640 C 159.857 2.58098 2.19324 0
M  V30 1641 C 158.903 3.78626 1.96328 0
M  V30 1642 S 159.736 5.21959 1.19662 0
M  V30 1643 C 160.892 5.73435 2.50844 0
M  V30 1644 H 161.125 2.93946 0.44534 0
M  V30 1645 H 158.658 1.53985 0.113167 0
M  V30 1646 H 160.616 2.8648 2.94005 0
M  V30 1647 H 159.277 1.74344 2.61272 0
M  V30 1648 H 158.47 4.10382 2.92579 0
M  V30 1649 H 158.072 3.50763 1.29775 0
M  V30 1650 H 160.364 5.82015 3.46792 0
M  V30 1651 H 161.307 6.7185 2.23659 0
M  V30 1652 H 161.715 5.01395 2.59352 0
M  V30 1653 N 161.113 -0.173488 1.56642 0
M  V30 1654 C 162.06 -1.21482 1.96242 0
M  V30 1655 C 163.03 -1.44104 0.826027 0
M  V30 1656 O 164.215 -1.5688 1.08597 0
M  V30 1657 C 161.355 -2.54964 2.32567 0
M  V30 1658 C 160.468 -2.39739 3.59373 0
M  V30 1659 C 159.603 -3.66072 3.84921 0
M  V30 1660 C 158.642 -3.45771 5.05083 0
M  V30 1661 N 157.779 -4.64169 5.26775 0
M  V30 1662 H 162.619 -0.870123 2.85014 0
M  V30 1663 H 160.156 -0.418245 1.41029 0
M  V30 1664 H 162.114 -3.32758 2.5165 0
M  V30 1665 H 160.744 -2.87433 1.46908 0
M  V30 1666 H 159.796 -1.53131 3.48217 0
M  V30 1667 H 161.108 -2.20683 4.47326 0
M  V30 1668 H 160.262 -4.52303 4.0436 0
M  V30 1669 H 159.001 -3.88105 2.9534 0
M  V30 1670 H 158.006 -2.57927 4.85545 0
M  V30 1671 H 159.231 -3.25163 5.96193 0
M  V30 1672 H 157.177 -4.86425 4.40144 0
M  V30 1673 H 157.094 -4.48019 6.08946 0
M  V30 1674 H 158.362 -5.51689 5.5069 0
M  V30 1675 N 162.591 -1.51276 -0.441967 0
M  V30 1676 C 163.501 -1.75092 -1.56141 0
M  V30 1677 C 164.517 -0.634963 -1.62001 0
M  V30 1678 O 165.693 -0.916686 -1.79329 0
M  V30 1679 C 162.758 -1.86666 -2.92158 0
M  V30 1680 C 161.819 -3.10506 -2.96453 0
M  V30 1681 C 161.052 -3.21519 -4.25982 0
M  V30 1682 O 161.275 -2.38586 -5.18105 0
M  V30 1683 O 160.209 -4.14465 -4.36466 0
M  V30 1684 H 164.035 -2.70044 -1.38961 0
M  V30 1685 H 161.62 -1.35722 -0.624499 0
M  V30 1686 H 163.502 -1.96292 -3.72891 0
M  V30 1687 H 162.177 -0.949014 -3.09476 0
M  V30 1688 H 161.084 -3.06363 -2.14692 0
M  V30 1689 H 162.417 -4.01945 -2.84079 0
M  V30 1690 N 164.069 0.697108 -1.41344 0
M  V30 1691 C 165.294 1.49096 -1.44171 0
M  V30 1692 C 165.719 1.88038 -0.0481568 0
M  V30 1693 O 165.077 1.54525 0.948243 0
M  V30 1694 C 165.125 2.73088 -2.3549 0
M  V30 1695 O 164.229 3.70514 -1.81088 0
M  V30 1696 H 163.57 0.448801 -0.489361 0
M  V30 1697 H 166.1 0.856992 -1.85787 0
M  V30 1698 H 166.11 3.21413 -2.51312 0
M  V30 1699 H 164.785 2.44081 -3.36745 0
M  V30 1700 H 163.362 3.29441 -1.74708 0
M  V30 1701 N 165.547 1.27147 0.931209 0
M  V30 1702 C 166.494 1.09568 2.03134 0
M  V30 1703 C 167.464 -0.00222433 1.661 0
M  V30 1704 O 168.649 0.159439 1.90133 0
M  V30 1705 C 165.789 0.745231 3.36957 0
M  V30 1706 C 164.902 1.92041 3.86968 0
M  V30 1707 C 164.037 1.51216 5.09222 0
M  V30 1708 C 163.076 2.65504 5.5152 0
M  V30 1709 N 162.213 2.25291 6.64972 0
M  V30 1710 H 167.053 2.03708 2.17502 0
M  V30 1711 H 164.59 1.01411 1.06556 0
M  V30 1712 H 166.548 0.522878 4.1391 0
M  V30 1713 H 165.178 -0.159202 3.22407 0
M  V30 1714 H 164.23 2.25541 3.06326 0
M  V30 1715 H 165.542 2.77787 4.1429 0
M  V30 1716 H 164.696 1.25084 5.93666 0
M  V30 1717 H 163.435 0.625749 4.83669 0
M  V30 1718 H 162.44 2.92354 4.65628 0
M  V30 1719 H 163.665 3.54761 5.7907 0
M  V30 1720 H 161.611 1.39098 6.41083 0
M  V30 1721 H 161.528 3.04577 6.91931 0
M  V30 1722 H 162.796 2.02398 7.52765 0
M  V30 1723 N 167.025 -1.13721 1.09112 0
M  V30 1724 C 167.955 -2.21148 0.749385 0
M  V30 1725 C 168.936 -1.6792 -0.271475 0
M  V30 1726 O 170.121 -1.93693 -0.140251 0
M  V30 1727 C 167.251 -3.46905 0.165659 0
M  V30 1728 C 166.205 -4.13203 1.11567 0
M  V30 1729 C 165.531 -5.33248 0.393809 0
M  V30 1730 C 166.831 -4.60912 2.45678 0
M  V30 1731 H 168.525 -2.4999 1.64758 0
M  V30 1732 H 166.071 -1.20156 0.793626 0
M  V30 1733 H 168.024 -4.21313 -0.085466 0
M  V30 1734 H 166.748 -3.17449 -0.767714 0
M  V30 1735 H 165.407 -3.40758 1.35202 0
M  V30 1736 H 165.055 -5.00054 -0.543599 0
M  V30 1737 H 164.755 -5.78552 1.02721 0
M  V30 1738 H 166.279 -6.10413 0.150908 0
M  V30 1739 H 167.693 -5.26759 2.26269 0
M  V30 1740 H 166.09 -5.16944 3.04776 0
M  V30 1741 H 167.16 -3.75603 3.06677 0
M  V30 1742 N 168.503 -0.877838 -1.30888 0
M  V30 1743 C 169.914 -0.544193 -1.78593 0
M  V30 1744 C 170.265 0.939301 -1.72254 0
M  V30 1745 O 169.39 1.7337 -1.29505 0
M  V30 1746 C 169.985 -0.98105 -3.24285 0
M  V30 1747 C 168.544 -0.698935 -3.69854 0
M  V30 1748 C 167.691 -1.168 -2.51502 0
M  V30 1749 H 170.642 -1.06278 -1.17859 0
M  V30 1750 H 170.663 -0.307009 -3.79259 0
M  V30 1751 H 170.175 -2.06079 -3.28866 0
M  V30 1752 H 168.276 0.369112 -3.70767 0
M  V30 1753 H 168.389 -1.28148 -4.61644 0
M  V30 1754 H 166.753 -0.587535 -2.47831 0
M  V30 1755 H 167.536 -2.25533 -2.58824 0
M  V30 1756 N 169.982 1.44106 -0.638065 0
M  V30 1757 C 171.23 2.01579 -0.145043 0
M  V30 1758 C 171.551 1.50496 1.24 0
M  V30 1759 O 170.821 0.711374 1.82527 0
M  V30 1760 H 169.401 0.745282 -0.05063 0
M  V30 1761 H 172.063 1.76516 -0.826327 0
M  V30 1762 H 171.159 3.11877 -0.118039 0
M  V30 1763 N 171.46 0.379036 1.52974 0
M  V30 1764 C 172.737 -0.263479 1.93817 0
M  V30 1765 C 173.117 -1.65244 1.31368 0
M  V30 1766 O 172.465 -2.23448 0.477856 0
M  V30 1767 C 172.675 -0.300166 3.47707 0
M  V30 1768 C 174.023 -0.534061 4.21228 0
M  V30 1769 O 175.047 -0.38081 3.54159 0
M  V30 1770 O 173.906 -0.833501 5.40106 0
M  V30 1771 H 171 -0.161149 0.811147 0
M  V30 1772 H 173.546 0.432798 1.64088 0
M  V30 1773 H 172.318 0.673138 3.85467 0
M  V30 1774 H 171.941 -1.04179 3.83709 0
M  V30 1775 N 172.938 -1.57226 0.108567 0
M  V30 1776 C 173.885 -2.14756 -0.845481 0
M  V30 1777 C 174.855 -1.06971 -1.27068 0
M  V30 1778 O 176.04 -1.34827 -1.35005 0
M  V30 1779 C 173.18 -2.74298 -2.09415 0
M  V30 1780 C 172.293 -3.96358 -1.71826 0
M  V30 1781 C 171.428 -4.44021 -2.9158 0
M  V30 1782 C 170.467 -5.58637 -2.50181 0
M  V30 1783 N 169.604 -6.01091 -3.62814 0
M  V30 1784 H 174.444 -2.95961 -0.348035 0
M  V30 1785 H 171.981 -1.46226 -0.160106 0
M  V30 1786 H 173.939 -3.06945 -2.82561 0
M  V30 1787 H 172.569 -1.95801 -2.56636 0
M  V30 1788 H 171.621 -3.69939 -0.885947 0
M  V30 1789 H 172.933 -4.79504 -1.37394 0
M  V30 1790 H 172.087 -4.78522 -3.72963 0
M  V30 1791 H 170.826 -3.59803 -3.29231 0
M  V30 1792 H 169.831 -5.23751 -1.67228 0
M  V30 1793 H 171.056 -6.44613 -2.13659 0
M  V30 1794 H 169.002 -5.19817 -4.00158 0
M  V30 1795 H 168.919 -6.79066 -3.32273 0
M  V30 1796 H 170.187 -6.40227 -4.44668 0
M  V30 1797 N 174.416 0.165178 -1.56732 0
M  V30 1798 C 175.664 0.879068 -1.8198 0
M  V30 1799 C 175.985 1.82514 -0.686561 0
M  V30 1800 O 175.255 1.93694 0.293146 0
M  V30 1801 H 173.835 0.327608 -0.671329 0
M  V30 1802 H 176.497 0.163526 -1.94213 0
M  V30 1803 H 175.593 1.45228 -2.76252 0
M  V30 1804 N 175.894 1.51508 0.433938 0
M  V30 1805 C 176.824 1.76016 1.53429 0
M  V30 1806 C 177.805 0.610112 1.58782 0
M  V30 1807 O 178.99 0.853177 1.74455 0
M  V30 1808 C 176.12 1.88831 2.9148 0
M  V30 1809 C 175.074 3.04288 3.00987 0
M  V30 1810 C 174.4 3.0229 4.4105 0
M  V30 1811 C 175.7 4.44193 2.74754 0
M  V30 1812 H 177.394 2.68152 1.33171 0
M  V30 1813 H 174.94 1.29035 0.639214 0
M  V30 1814 H 176.893 2.04559 3.6842 0
M  V30 1815 H 175.617 0.933455 3.12976 0
M  V30 1816 H 174.276 2.8827 2.26486 0
M  V30 1817 H 173.924 2.04576 4.59519 0
M  V30 1818 H 173.624 3.79822 4.4834 0
M  V30 1819 H 175.148 3.20116 5.1996 0
M  V30 1820 H 176.562 4.60544 3.41426 0
M  V30 1821 H 174.959 5.23457 2.9345 0
M  V30 1822 H 176.029 4.53996 1.70339 0
M  V30 1823 N 177.372 -0.689602 1.41712 0
M  V30 1824 C 178.618 -1.45181 1.41599 0
M  V30 1825 C 178.951 -1.94181 0.0270081 0
M  V30 1826 O 178.226 -1.6993 -0.946265 0
M  V30 1827 C 178.509 -2.65945 2.42787 0
M  V30 1828 C 178.362 -2.22672 3.90816 0
M  V30 1829 C 179.681 -3.68149 2.41151 0
M  V30 1830 H 176.8 -0.526576 0.515642 0
M  V30 1831 H 179.442 -0.784947 1.73028 0
M  V30 1832 H 177.592 -3.2284 2.16116 0
M  V30 1833 H 179.264 -1.71058 4.28412 0
M  V30 1834 H 177.507 -1.54394 4.05395 0
M  V30 1835 H 178.178 -3.0935 4.57172 0
M  V30 1836 H 180.654 -3.2094 2.64834 0
M  V30 1837 H 179.53 -4.50248 3.13955 0
M  V30 1838 H 179.791 -4.18259 1.43221 0
M  V30 1839 N 178.85 -1.27639 -0.924453 0
M  V30 1840 C 179.78 -1.13166 -2.04244 0
M  V30 1841 C 180.761 -0.032256 -1.70069 0
M  V30 1842 O 181.946 -0.207328 -1.9309 0
M  V30 1843 C 179.076 -0.781496 -3.38393 0
M  V30 1844 C 178.03 -1.83449 -3.86692 0
M  V30 1845 C 177.356 -1.33822 -5.17683 0
M  V30 1846 C 178.656 -3.23917 -4.09726 0
M  V30 1847 H 180.35 -2.06689 -2.1661 0
M  V30 1848 H 177.896 -0.995136 -1.04082 0
M  V30 1849 H 179.849 -0.667057 -4.16087 0
M  V30 1850 H 178.573 0.189439 -3.2605 0
M  V30 1851 H 177.232 -1.93789 -3.11193 0
M  V30 1852 H 176.88 -0.35665 -5.01734 0
M  V30 1853 H 176.58 -2.04224 -5.50968 0
M  V30 1854 H 178.104 -1.23679 -5.97943 0
M  V30 1855 H 179.518 -3.16559 -4.77978 0
M  V30 1856 H 177.915 -3.92059 -4.54324 0
M  V30 1857 H 178.985 -3.68729 -3.14908 0
M  V30 1858 N 180.328 1.1314 -1.09713 0
M  V30 1859 C 181.261 2.17735 -0.683137 0
M  V30 1860 C 182.239 1.59582 0.311841 0
M  V30 1861 O 183.423 1.87298 0.212514 0
M  V30 1862 C 180.55 3.38699 -0.00684324 0
M  V30 1863 C 179.596 4.1546 -0.964102 0
M  V30 1864 S 180.429 4.74733 -2.47767 0
M  V30 1865 C 181.585 5.9904 -1.81387 0
M  V30 1866 H 181.818 2.52515 -1.56918 0
M  V30 1867 H 179.351 1.24484 -0.913404 0
M  V30 1868 H 181.309 4.08765 0.377044 0
M  V30 1869 H 179.97 3.02214 0.85589 0
M  V30 1870 H 179.163 5.02093 -0.43803 0
M  V30 1871 H 178.765 3.51066 -1.28953 0
M  V30 1872 H 181.057 6.67846 -1.13967 0
M  V30 1873 H 182 6.56261 -2.65947 0
M  V30 1874 H 182.408 5.4976 -1.28155 0
M  V30 1875 N 181.806 0.884767 1.30421 0
M  V30 1876 C 183.031 0.517288 2.00845 0
M  V30 1877 C 183.456 -0.886779 1.65885 0
M  V30 1878 O 182.814 -1.58768 0.875354 0
M  V30 1879 C 182.862 0.698994 3.5376 0
M  V30 1880 O 181.966 -0.255208 4.1161 0
M  V30 1881 H 181.307 0.203872 0.631927 0
M  V30 1882 H 183.837 1.19225 1.66272 0
M  V30 1883 H 183.847 0.597912 4.03595 0
M  V30 1884 H 182.522 1.72271 3.78544 0
M  V30 1885 H 181.099 -0.10784 3.72744 0
M  V30 1886 N 183.284 -1.43765 0.645699 0
M  V30 1887 C 184.7 -1.56509 0.312591 0
M  V30 1888 C 184.9 -1.6307 -1.18365 0
M  V30 1889 O 183.956 -1.58167 -1.96824 0
M  V30 1890 C 185.269 -2.82968 1.01733 0
M  V30 1891 C 186.817 -2.96701 0.996865 0
M  V30 1892 C 187.292 -4.25982 1.68236 0
M  V30 1893 N 188.783 -4.32829 1.64964 0
M  V30 1894 C 189.518 -5.31613 2.14885 0
M  V30 1895 N 189.014 -6.36718 2.73061 0
M  V30 1896 N 190.807 -5.23217 2.05428 0
M  V30 1897 H 182.958 -1.3775 1.61675 0
M  V30 1898 H 185.221 -0.661067 0.679481 0
M  V30 1899 H 184.927 -2.84156 2.0724 0
M  V30 1900 H 184.801 -3.72957 0.564177 0
M  V30 1901 H 187.188 -2.95058 -0.0497719 0
M  V30 1902 H 187.269 -2.08022 1.48865 0
M  V30 1903 H 186.913 -4.28386 2.72852 0
M  V30 1904 H 186.843 -5.13545 1.16529 0
M  V30 1905 H 189.334 -3.57493 1.22503 0
M  V30 1906 H 189.647 -7.08401 3.08848 0
M  V30 1907 H 187.992 -6.37362 2.77118 0
M  V30 1908 H 191.183 -4.40019 1.59689 0
M  V30 1909 H 191.356 -6.00045 2.44643 0
M  V30 1910 N 184.763 -0.387143 -1.52771 0
M  V30 1911 C 185.726 0.436939 -2.24997 0
M  V30 1912 C 186.726 0.991991 -1.26555 0
M  V30 1913 O 187.916 0.874335 -1.50669 0
M  V30 1914 C 185.048 1.61281 -3.00335 0
M  V30 1915 H 186.241 -0.195365 -2.99263 0
M  V30 1916 H 183.794 -0.139218 -1.55679 0
M  V30 1917 H 184.529 2.2826 -2.30364 0
M  V30 1918 H 184.314 1.22154 -3.72587 0
M  V30 1919 H 185.804 2.19629 -3.5518 0
M  V30 1920 N 186.241 1.57166 -0.116904 0
M  V30 1921 C 187.188 2.15202 0.83408 0
M  V30 1922 C 188.158 1.07644 1.26499 0
M  V30 1923 O 189.343 1.35541 1.34288 0
M  V30 1924 C 186.483 2.75405 2.07957 0
M  V30 1925 C 185.596 3.97264 1.69721 0
M  V30 1926 C 184.731 4.45561 2.89221 0
M  V30 1927 C 183.77 5.59956 2.47215 0
M  V30 1928 N 182.907 6.03006 3.59622 0
M  V30 1929 H 187.747 2.96141 0.332335 0
M  V30 1930 H 185.284 1.46309 0.152349 0
M  V30 1931 H 187.242 3.08439 2.80929 0
M  V30 1932 H 185.872 1.97159 2.55594 0
M  V30 1933 H 184.924 3.70404 0.866316 0
M  V30 1934 H 186.236 4.80226 1.34849 0
M  V30 1935 H 185.39 4.80493 3.7042 0
M  V30 1936 H 184.129 3.61544 3.27318 0
M  V30 1937 H 183.134 5.2463 1.64448 0
M  V30 1938 H 184.359 6.45738 2.10238 0
M  V30 1939 H 182.305 5.21931 3.97396 0
M  V30 1940 H 182.222 6.80819 3.28667 0
M  V30 1941 H 183.49 6.42576 4.41267 0
M  V30 1942 N 187.719 -0.156864 1.56817 0
M  V30 1943 C 188.669 -1.19891 1.93934 0
M  V30 1944 C 189.653 -1.39061 0.809372 0
M  V30 1945 O 190.845 -1.40789 1.07273 0
M  V30 1946 C 187.974 -2.53493 2.31508 0
M  V30 1947 C 187.06 -2.37957 3.51052 0
M  V30 1948 N 187.451 -1.92158 4.67877 0
M  V30 1949 C 185.749 -2.68739 3.55943 0
M  V30 1950 C 186.45 -1.8943 5.49992 0
M  V30 1951 N 185.426 -2.32375 4.91429 0
M  V30 1952 H 189.228 -0.836746 2.81737 0
M  V30 1953 H 186.742 -0.365012 1.58245 0
M  V30 1954 H 188.739 -3.28811 2.56299 0
M  V30 1955 H 187.399 -2.905 1.45051 0
M  V30 1956 H 188.41 -1.62274 4.91821 0
M  V30 1957 H 185.087 -3.09687 2.80001 0
M  V30 1958 H 186.477 -1.55596 6.53636 0
M  V30 1959 N 189.197 -1.51736 -0.425897 0
M  V30 1960 C 190.147 -1.70258 -1.51645 0
M  V30 1961 C 191.131 -0.556488 -1.5097 0
M  V30 1962 O 192.323 -0.812879 -1.5723 0
M  V30 1963 C 189.452 -1.84143 -2.89735 0
M  V30 1964 C 188.538 -3.04572 -2.95122 0
M  V30 1965 N 188.929 -4.2756 -2.70233 0
M  V30 1966 C 187.227 -3.04061 -3.26286 0
M  V30 1967 C 187.928 -5.08908 -2.81757 0
M  V30 1968 N 186.904 -4.43797 -3.13919 0
M  V30 1969 H 190.706 -2.63004 -1.31172 0
M  V30 1970 H 188.22 -1.4954 -0.633375 0
M  V30 1971 H 190.217 -1.95525 -3.68206 0
M  V30 1972 H 188.877 -0.925857 -3.1122 0
M  V30 1973 H 189.888 -4.56315 -2.44943 0
M  V30 1974 H 186.565 -2.22179 -3.53473 0
M  V30 1975 H 187.955 -6.16843 -2.66372 0
M  V30 1976 N 190.675 0.682077 -1.42076 0
M  V30 1977 C 191.638 1.77756 -1.44691 0
M  V30 1978 C 192.638 1.5726 -0.335535 0
M  V30 1979 O 193.828 1.63686 -0.596037 0
M  V30 1980 C 190.96 3.16301 -1.27146 0
M  V30 1981 H 192.153 1.76826 -2.42224 0
M  V30 1982 H 189.706 0.891012 -1.28416 0
M  V30 1983 H 190.441 3.22862 -0.305075 0
M  V30 1984 H 190.226 3.32581 -2.07683 0
M  V30 1985 H 191.716 3.96241 -1.31843 0
M  V30 1986 N 192.153 1.28127 0.917671 0
M  V30 1987 C 193.402 1.14432 1.66097 0
M  V30 1988 C 193.715 -0.307247 1.93172 0
M  V30 1989 O 194.921 -0.565259 2.65551 0
M  V30 1990 C 193.377 2.00015 2.99202 0
M  V30 1991 C 192.985 3.49889 2.79789 0
M  V30 1992 C 194.729 1.94996 3.77064 0
M  V30 1993 C 192.636 4.27636 4.08511 0
M  V30 1994 H 191.566 0.424662 0.62304 0
M  V30 1995 H 194.217 1.52628 1.01868 0
M  V30 1996 H 192.599 1.54672 3.64544 0
M  V30 1997 H 193.773 4.03162 2.23152 0
M  V30 1998 H 192.088 3.56392 2.15345 0
M  V30 1999 H 194.685 2.50354 4.72469 0
M  V30 2000 H 195.028 0.925819 4.05875 0
M  V30 2001 H 195.561 2.38287 3.18534 0
M  V30 2002 H 192.3 5.30615 3.84874 0
M  V30 2003 H 191.82 3.79137 4.64774 0
M  V30 2004 H 193.499 4.37346 4.76799 0
M  V30 2005 N 193.631 -1.12557 1.10312 0
M  V30 2006 C 194.856 -1.88405 0.867085 0
M  V30 2007 C 195.281 -1.79038 -0.576817 0
M  V30 2008 O 194.639 -1.14439 -1.40618 0
M  V30 2009 C 194.687 -3.3563 1.31851 0
M  V30 2010 O 193.791 -4.09565 0.482734 0
M  V30 2011 H 193.132 -0.585455 0.313271 0
M  V30 2012 H 195.662 -1.42352 1.4696 0
M  V30 2013 H 195.672 -3.86469 1.3079 0
M  V30 2014 H 194.347 -3.41765 2.37001 0
M  V30 2015 H 192.924 -3.68695 0.558448 0
M  V30 2016 N 195.109 -0.891671 -1.2995 0
M  V30 2017 C 196.072 -0.36828 -2.26222 0
M  V30 2018 C 197.072 0.493014 -1.53056 0
M  V30 2019 O 198.262 0.299213 -1.71611 0
M  V30 2020 C 195.394 0.47442 -3.37583 0
M  V30 2021 H 196.587 -1.21844 -2.74033 0
M  V30 2022 H 194.14 -0.669107 -1.41254 0
M  V30 2023 H 194.875 1.34489 -2.95099 0
M  V30 2024 H 194.66 -0.142615 -3.91841 0
M  V30 2025 H 196.15 0.83218 -4.09224 0
M  V30 2026 N 196.587 1.43421 -0.653314 0
M  V30 2027 C 197.534 2.30768 0.0382271 0
M  V30 2028 C 198.504 1.44755 0.814576 0
M  V30 2029 O 199.689 1.73624 0.791162 0
M  V30 2030 C 196.829 3.30336 0.998599 0
M  V30 2031 C 195.942 4.31448 0.218342 0
M  V30 2032 C 195.077 5.18098 1.17252 0
M  V30 2033 C 194.116 6.10902 0.382702 0
M  V30 2034 N 193.253 6.90176 1.28848 0
M  V30 2035 H 198.093 2.89357 -0.712511 0
M  V30 2036 H 195.63 1.42548 -0.363128 0
M  V30 2037 H 197.588 3.86572 1.56901 0
M  V30 2038 H 196.218 2.73397 1.71621 0
M  V30 2039 H 195.27 3.77506 -0.46836 0
M  V30 2040 H 196.582 4.97227 -0.395812 0
M  V30 2041 H 195.736 5.7896 1.81356 0
M  V30 2042 H 194.475 4.52444 1.82058 0
M  V30 2043 H 193.48 5.49128 -0.27169 0
M  V30 2044 H 194.705 6.78598 -0.260957 0
M  V30 2045 H 192.651 6.27171 1.92334 0
M  V30 2046 H 192.568 7.52478 0.728887 0
M  V30 2047 H 193.836 7.55543 1.91766 0
M  V30 2048 N 198.065 0.39524 1.52563 0
M  V30 2049 C 198.995 -0.428384 2.29537 0
M  V30 2050 C 199.976 -1.05831 1.33169 0
M  V30 2051 O 201.161 -1.06995 1.62067 0
M  V30 2052 C 198.291 -1.55274 3.10656 0
M  V30 2053 C 197.245 -1.04855 4.14957 0
M  V30 2054 C 196.571 -2.26543 4.84337 0
M  V30 2055 C 197.871 -0.112324 5.22179 0
M  V30 2056 H 199.565 0.213867 2.98635 0
M  V30 2057 H 197.111 0.104298 1.43622 0
M  V30 2058 H 199.064 -2.1358 3.63265 0
M  V30 2059 H 197.788 -2.22266 2.39302 0
M  V30 2060 H 196.447 -0.487985 3.63338 0
M  V30 2061 H 196.095 -2.92059 4.09525 0
M  V30 2062 H 195.795 -1.93466 5.54837 0
M  V30 2063 H 197.319 -2.85481 5.39753 0
M  V30 2064 H 198.733 -0.603752 5.70112 0
M  V30 2065 H 197.13 0.128968 5.99961 0
M  V30 2066 H 198.2 0.837052 4.77621 0
M  V30 2067 N 199.544 -1.57102 0.125237 0
M  V30 2068 C 200.492 -2.16905 -0.839927 0
M  V30 2069 C 201.486 -1.11998 -1.27094 0
M  V30 2070 O 202.692 -1.3029 -1.24195 0
M  V30 2071 H 199.067 -0.694252 -0.288995 0
M  V30 2072 H 201.038 -2.96774 -0.311115 0
M  V30 2073 C 199.787 -2.78795 -2.07771 0
M  V30 2074 H 199.11 -3.59221 -1.755 0
M  V30 2075 H 200.55 -3.2417 -2.73295 0
M  V30 2076 C 199.009 -1.76193 -2.87155 0
M  V30 2077 O 199.539 -1.21909 -3.82755 0
M  V30 2078 N 197.745 -1.45991 -2.51267 0
M  V30 2079 H 197.292 -1.90325 -1.73592 0
M  V30 2080 H 197.25 -0.775844 -3.04677 0
M  V30 2081 N 201.022 0.148545 -1.56898 0
M  V30 2082 C 201.969 1.18345 -1.98149 0
M  V30 2083 C 202.939 1.42772 -0.848848 0
M  V30 2084 O 204.124 1.55132 -1.11079 0
M  V30 2085 C 201.264 2.51231 -2.36594 0
M  V30 2086 C 200.377 2.33991 -3.63142 0
M  V30 2087 C 199.512 3.59902 -3.90697 0
M  V30 2088 C 198.551 3.37692 -5.1052 0
M  V30 2089 N 197.688 4.5573 -5.34092 0
M  V30 2090 H 202.528 0.82467 -2.86362 0
M  V30 2091 H 200.065 0.395756 -1.41676 0
M  V30 2092 H 202.023 3.28713 -2.56912 0
M  V30 2093 H 200.653 2.85059 -1.51463 0
M  V30 2094 H 199.705 1.47572 -3.50609 0
M  V30 2095 H 201.017 2.13539 -4.5078 0
M  V30 2096 H 200.171 4.45813 -4.11505 0
M  V30 2097 H 198.91 3.83357 -3.01477 0
M  V30 2098 H 197.915 2.5017 -4.89587 0
M  V30 2099 H 199.14 3.15637 -6.0129 0
M  V30 2100 H 197.086 4.79361 -4.47827 0
M  V30 2101 H 197.003 4.38274 -6.15996 0
M  V30 2102 H 198.271 5.42858 -5.59397 0
M  V30 2103 N 202.5 1.5196 0.417844 0
M  V30 2104 C 203.911 1.57851 0.997 0
M  V30 2105 C 204.262 0.413714 1.91789 0
M  V30 2106 O 203.387 -0.467057 2.113 0
M  V30 2107 C 203.982 2.86085 1.81496 0
M  V30 2108 C 202.541 2.94483 2.34428 0
M  V30 2109 C 201.688 2.52707 1.14169 0
M  V30 2110 H 204.639 1.57455 0.198392 0
M  V30 2111 H 204.66 2.70947 2.67148 0
M  V30 2112 H 204.172 3.70842 1.14446 0
M  V30 2113 H 202.273 2.142 3.04875 0
M  V30 2114 H 202.386 3.98546 2.65891 0
M  V30 2115 H 200.75 2.06353 1.49301 0
M  V30 2116 H 201.533 3.39828 0.486999 0
M  V30 2117 N 203.978 -0.674533 1.42435 0
M  V30 2118 C 205.225 -1.43459 1.42919 0
M  V30 2119 C 205.553 -1.94446 0.0457312 0
M  V30 2120 O 204.808 -1.7132 -0.94593 0
M  V30 2121 C 205.107 -2.64767 2.40069 0
M  V30 2122 C 204.773 -2.3232 3.86443 0
M  V30 2123 C 203.435 -2.23182 4.26314 0
M  V30 2124 C 205.787 -2.05977 4.78773 0
M  V30 2125 C 203.115 -1.85827 5.56494 0
M  V30 2126 C 205.467 -1.70125 6.09295 0
M  V30 2127 C 204.131 -1.59498 6.48164 0
M  V30 2128 H 203.401 -0.524952 0.522978 0
M  V30 2129 H 206.048 -0.769097 1.75377 0
M  V30 2130 H 204.353 -3.36349 2.00939 0
M  V30 2131 H 206.05 -3.22949 2.37707 0
M  V30 2132 H 202.64 -2.40334 3.54877 0
M  V30 2133 H 206.824 -2.11969 4.48757 0
M  V30 2134 H 202.08 -1.76168 5.8547 0
M  V30 2135 H 206.254 -1.48767 6.80324 0
M  V30 2136 H 203.881 -1.30322 7.48946 0
M  V30 2137 N 205.456 -1.28612 -0.910864 0
M  V30 2138 C 206.386 -1.15326 -2.03032 0
M  V30 2139 C 207.367 -0.0502924 -1.70026 0
M  V30 2140 O 208.552 -0.227797 -1.92859 0
M  V30 2141 C 205.682 -0.817343 -3.37545 0
M  V30 2142 C 204.636 -1.8754 -3.84724 0
M  V30 2143 C 203.962 -1.39305 -5.16235 0
M  V30 2144 C 205.262 -3.28244 -4.06267 0
M  V30 2145 H 206.956 -2.08975 -2.14406 0
M  V30 2146 H 204.502 -1.00612 -1.03021 0
M  V30 2147 H 206.455 -0.711151 -4.15356 0
M  V30 2148 H 205.179 0.154846 -3.26233 0
M  V30 2149 H 203.838 -1.97079 -3.09121 0
M  V30 2150 H 203.486 -0.409846 -5.01328 0
M  V30 2151 H 203.186 -2.10057 -5.48771 0
M  V30 2152 H 204.71 -1.30014 -5.96598 0
M  V30 2153 H 206.124 -3.21611 -4.74594 0
M  V30 2154 H 204.521 -3.96855 -4.5014 0
M  V30 2155 H 205.591 -3.72048 -3.10979 0
M  V30 2156 N 206.934 1.1197 -1.10907 0
M  V30 2157 C 208.181 1.83588 -0.854507 0
M  V30 2158 C 208.509 1.84357 0.6199 0
M  V30 2159 O 207.764 1.28809 1.47332 0
M  V30 2160 C 208.063 3.30749 -1.35425 0
M  V30 2161 C 207.729 3.50146 -2.84093 0
M  V30 2162 C 206.391 3.55148 -3.2469 0
M  V30 2163 C 208.743 3.56857 -3.79872 0
M  V30 2164 C 206.071 3.6441 -4.59806 0
M  V30 2165 C 208.423 3.6765 -5.14797 0
M  V30 2166 C 207.087 3.7091 -5.54961 0
M  V30 2167 H 206.357 0.671795 -0.312686 0
M  V30 2168 H 209.004 1.32091 -1.38652 0
M  V30 2169 H 207.309 3.84703 -0.742361 0
M  V30 2170 H 209.006 3.8464 -1.1337 0
M  V30 2171 H 205.596 3.46919 -2.51685 0
M  V30 2172 H 209.78 3.52258 -3.49611 0
M  V30 2173 H 205.036 3.65208 -4.9034 0
M  V30 2174 H 209.21 3.71786 -5.88853 0
M  V30 2175 H 206.837 3.7784 -6.59652 0
M  V30 2176 N 208.412 0.89855 1.29475 0
M  V30 2177 C 209.689 0.443416 1.90508 0
M  V30 2178 C 210.069 -1.07685 1.81569 0
M  V30 2179 O 209.417 -1.9182 1.24166 0
M  V30 2180 C 209.627 0.956708 3.35631 0
M  V30 2181 C 210.975 0.999728 4.12663 0
M  V30 2182 O 211.999 0.904299 3.4453 0
M  V30 2183 O 210.858 1.14289 5.34416 0
M  V30 2184 H 207.952 0.138025 0.815401 0
M  V30 2185 H 210.498 0.98834 1.37949 0
M  V30 2186 H 209.27 2.00067 3.36287 0
M  V30 2187 H 208.893 0.391728 3.95666 0
M  V30 2188 N 209.89 -1.43072 0.660911 0
M  V30 2189 C 211.118 -2.06067 0.185422 0
M  V30 2190 C 211.533 -1.49582 -1.15198 0
M  V30 2191 O 210.89 -0.630134 -1.71276 0
M  V30 2192 C 210.941 -3.61371 0.0966523 0
M  V30 2193 O 210.662 -4.15758 1.38119 0
M  V30 2194 C 212.163 -4.41455 -0.403996 0
M  V30 2195 H 209.383 -0.664459 0.0934604 0
M  V30 2196 H 211.927 -1.83447 0.90373 0
M  V30 2197 H 210.082 -3.8315 -0.572259 0
M  V30 2198 H 210.496 -5.09499 1.24542 0
M  V30 2199 H 211.97 -5.50437 -0.415045 0
M  V30 2200 H 212.447 -4.15036 -1.43674 0
M  V30 2201 H 213.053 -4.24663 0.232691 0
M  V30 2202 N 211.368 -0.403325 -1.52352 0
M  V30 2203 C 212.315 0.425011 -2.26853 0
M  V30 2204 C 213.285 1.04598 -1.29029 0
M  V30 2205 O 214.47 1.07135 -1.57882 0
M  V30 2206 C 211.61 1.53888 -3.08889 0
M  V30 2207 C 210.723 0.939396 -4.21663 0
M  V30 2208 C 209.858 2.02547 -4.91068 0
M  V30 2209 C 208.897 1.40263 -5.95813 0
M  V30 2210 N 208.034 2.4286 -6.58759 0
M  V30 2211 H 212.874 -0.21674 -2.97211 0
M  V30 2212 H 210.411 -0.118722 -1.4662 0
M  V30 2213 H 212.369 2.19558 -3.54753 0
M  V30 2214 H 210.999 2.15074 -2.40714 0
M  V30 2215 H 210.051 0.171898 -3.80011 0
M  V30 2216 H 211.363 0.44436 -4.96817 0
M  V30 2217 H 210.517 2.75958 -5.40308 0
M  V30 2218 H 209.256 2.55415 -4.15469 0
M  V30 2219 H 208.261 0.653833 -5.45898 0
M  V30 2220 H 209.486 0.881719 -6.73352 0
M  V30 2221 H 207.432 2.94871 -5.85992 0
M  V30 2222 H 207.349 1.98152 -7.2957 0
M  V30 2223 H 208.617 3.15858 -7.12639 0
M  V30 2224 N 212.846 1.57033 -0.133567 0
M  V30 2225 C 214.257 1.82593 0.389464 0
M  V30 2226 C 214.608 1.05156 1.6564 0
M  V30 2227 O 213.733 0.292644 2.14412 0
M  V30 2228 C 214.328 3.31204 0.713377 0
M  V30 2229 C 212.887 3.57393 1.18098 0
M  V30 2230 C 212.034 2.76598 0.197126 0
M  V30 2231 H 214.985 1.54598 -0.358481 0
M  V30 2232 H 215.006 3.46627 1.56939 0
M  V30 2233 H 214.518 3.87537 -0.2089 0
M  V30 2234 H 212.619 3.06433 2.11966 0
M  V30 2235 H 212.732 4.65915 1.11624 0
M  V30 2236 H 211.096 2.45257 0.687088 0
M  V30 2237 H 211.879 3.35697 -0.718504 0
M  V30 2238 N 214.325 -0.140222 1.56975 0
M  V30 2239 C 215.255 -1.17456 2.01808 0
M  V30 2240 C 216.236 -1.44415 0.898794 0
M  V30 2241 O 217.421 -1.5522 1.16707 0
M  V30 2242 C 214.551 -2.50607 2.40444 0
M  V30 2243 C 213.505 -2.38155 3.55621 0
M  V30 2244 C 212.831 -3.76078 3.80091 0
M  V30 2245 C 214.131 -1.85991 4.88062 0
M  V30 2246 H 215.825 -0.801743 2.88466 0
M  V30 2247 H 213.371 -0.38422 1.38779 0
M  V30 2248 H 215.324 -3.23197 2.7041 0
M  V30 2249 H 214.048 -2.89737 1.50732 0
M  V30 2250 H 212.707 -1.68016 3.25832 0
M  V30 2251 H 212.355 -4.12656 2.87618 0
M  V30 2252 H 212.055 -3.68606 4.57606 0
M  V30 2253 H 213.579 -4.50206 4.12488 0
M  V30 2254 H 214.993 -2.4838 5.16701 0
M  V30 2255 H 213.39 -1.89393 5.6943 0
M  V30 2256 H 214.46 -0.816023 4.77984 0
M  V30 2257 N 215.803 -1.52179 -0.40978 0
M  V30 2258 C 217.052 -1.65434 -1.15388 0
M  V30 2259 C 217.365 -0.390056 -1.91671 0
M  V30 2260 O 218.571 -0.402399 -2.68501 0
M  V30 2261 C 217.027 -2.92279 -2.10003 0
M  V30 2262 C 216.635 -4.25813 -1.39239 0
M  V30 2263 C 218.379 -3.14897 -2.84675 0
M  V30 2264 C 216.286 -5.43782 -2.32498 0
M  V30 2265 H 215.216 -0.616267 -0.434432 0
M  V30 2266 H 217.867 -1.78666 -0.418401 0
M  V30 2267 H 216.249 -2.72744 -2.871 0
M  V30 2268 H 217.423 -4.55828 -0.675099 0
M  V30 2269 H 215.738 -4.09292 -0.766097 0
M  V30 2270 H 218.335 -4.0021 -3.54593 0
M  V30 2271 H 218.678 -2.29103 -3.47588 0
M  V30 2272 H 219.211 -3.34901 -2.14677 0
M  V30 2273 H 215.95 -6.3192 -1.74233 0
M  V30 2274 H 215.47 -5.18106 -3.02201 0
M  V30 2275 H 217.149 -5.76834 -2.93038 0
M  V30 2276 N 217.281 0.66697 -1.42791 0
M  V30 2277 C 218.527 1.4291 -1.43891 0
M  V30 2278 C 218.86 1.94114 -0.0578972 0
M  V30 2279 O 218.135 1.71414 0.91911 0
M  V30 2280 C 218.418 2.62049 -2.46987 0
M  V30 2281 C 218.271 2.16426 -3.94309 0
M  V30 2282 C 219.59 3.64266 -2.46978 0
M  V30 2283 H 216.709 0.518306 -0.523954 0
M  V30 2284 H 219.351 0.757321 -1.74255 0
M  V30 2285 H 217.501 3.19361 -2.21225 0
M  V30 2286 H 219.173 1.64221 -4.31079 0
M  V30 2287 H 217.416 1.47925 -4.078 0
M  V30 2288 H 218.087 3.02038 -4.62036 0
M  V30 2289 H 220.563 3.16686 -2.69906 0
M  V30 2290 H 219.439 4.45196 -3.21079 0
M  V30 2291 H 219.7 4.15927 -1.49857 0
M  V30 2292 N 218.759 1.29093 0.90403 0
M  V30 2293 C 219.691 1.09658 2.01266 0
M  V30 2294 C 220.704 0.0453729 1.62737 0
M  V30 2295 O 221.893 0.289446 1.76138 0
M  V30 2296 C 218.993 0.646278 3.32681 0
M  V30 2297 C 218.166 1.77505 3.99763 0
M  V30 2298 C 217.225 1.31649 5.09465 0
M  V30 2299 O 216.251 2.02045 5.32134 0
M  V30 2300 N 217.453 0.184997 5.80205 0
M  V30 2301 H 220.218 2.05135 2.18494 0
M  V30 2302 H 217.779 1.20975 1.07594 0
M  V30 2303 H 219.771 0.322906 4.0341 0
M  V30 2304 H 218.341 -0.215916 3.11853 0
M  V30 2305 H 217.561 2.26752 3.22455 0
M  V30 2306 H 218.849 2.53198 4.41325 0
M  V30 2307 H 218.247 -0.402021 5.6427 0
M  V30 2308 H 216.804 -0.0790358 6.51752 0
M  V30 2309 N 220.237 -1.11381 1.11499 0
M  V30 2310 C 221.467 -1.86663 0.885464 0
M  V30 2311 C 221.875 -1.80464 -0.568281 0
M  V30 2312 O 221.218 -1.18445 -1.40415 0
M  V30 2313 C 221.28 -3.36337 1.26956 0
M  V30 2314 C 220.944 -3.66304 2.73259 0
M  V30 2315 C 221.941 -3.63733 3.71476 0
M  V30 2316 C 219.626 -3.9529 3.09921 0
M  V30 2317 C 221.62 -3.89725 5.04374 0
M  V30 2318 C 219.307 -4.20941 4.43004 0
M  V30 2319 C 220.305 -4.18147 5.40039 0
M  V30 2320 O 219.993 -4.43153 6.70724 0
M  V30 2321 H 219.725 -0.597114 0.316908 0
M  V30 2322 H 222.279 -1.41782 1.48617 0
M  V30 2323 H 220.509 -3.81826 0.611999 0
M  V30 2324 H 222.198 -3.92986 1.01573 0
M  V30 2325 H 222.964 -3.41389 3.44498 0
M  V30 2326 H 218.843 -3.966 2.35009 0
M  V30 2327 H 222.387 -3.8746 5.80104 0
M  V30 2328 H 218.284 -4.42761 4.69716 0
M  V30 2329 H 219.052 -4.60717 6.76522 0
M  V30 2330 N 221.715 -0.905404 -1.28997 0
M  V30 2331 C 222.625 -0.392246 -2.31298 0
M  V30 2332 C 223.641 0.515889 -1.66176 0
M  V30 2333 O 224.817 0.404093 -1.97304 0
M  V30 2334 C 221.882 0.36686 -3.44754 0
M  V30 2335 C 220.943 -0.573485 -4.25452 0
M  V30 2336 C 220.176 0.149488 -5.33491 0
M  V30 2337 O 220.399 1.37255 -5.5364 0
M  V30 2338 O 219.333 -0.510919 -5.99728 0
M  V30 2339 H 223.159 -1.2411 -2.77183 0
M  V30 2340 H 220.744 -0.669926 -1.33538 0
M  V30 2341 H 222.626 0.795907 -4.13816 0
M  V30 2342 H 221.301 1.19169 -3.00966 0
M  V30 2343 H 220.208 -1.05176 -3.59011 0
M  V30 2344 H 221.541 -1.36489 -4.72897 0
M  V30 2345 N 223.193 1.4272 -0.668489 0
M  V30 2346 C 224.439 2.01923 -0.188419 0
M  V30 2347 C 224.772 1.52704 1.19979 0
M  V30 2348 O 224.047 0.726566 1.8042 0
M  V30 2349 C 224.33 3.59451 -0.216085 0
M  V30 2350 C 224.183 4.18864 -1.6393 0
M  V30 2351 C 225.502 4.37903 0.439179 0
M  V30 2352 H 222.621 0.733674 -0.0699412 0
M  V30 2353 H 225.263 1.69822 -0.852076 0
M  V30 2354 H 223.413 3.86929 0.349012 0
M  V30 2355 H 225.085 4.02362 -2.25616 0
M  V30 2356 H 223.328 3.74933 -2.18193 0
M  V30 2357 H 223.999 5.27987 -1.61039 0
M  V30 2358 H 226.475 4.16079 -0.0417878 0
M  V30 2359 H 225.351 5.47519 0.389157 0
M  V30 2360 H 225.612 4.15303 1.51577 0
M  V30 2361 N 224.671 0.411399 1.52136 0
M  V30 2362 C 225.619 -0.427633 2.28635 0
M  V30 2363 C 226.613 -1.04383 1.33419 0
M  V30 2364 O 227.819 -0.981772 1.50868 0
M  V30 2365 H 224.194 -0.156689 0.735495 0
M  V30 2366 H 226.165 0.238761 2.97443 0
M  V30 2367 C 224.914 -1.53082 3.12188 0
M  V30 2368 H 224.237 -1.06601 3.85326 0
M  V30 2369 H 225.677 -2.09167 3.68816 0
M  V30 2370 C 224.136 -2.49946 2.25895 0
M  V30 2371 O 224.666 -3.53884 1.90076 0
M  V30 2372 N 222.872 -2.2021 1.8962 0
M  V30 2373 H 222.419 -1.35719 2.18948 0
M  V30 2374 H 222.377 -2.85266 1.32176 0
M  V30 2375 N 226.149 -1.5696 0.141893 0
M  V30 2376 C 227.396 -1.9596 -0.510492 0
M  V30 2377 C 227.724 -1.02648 -1.65208 0
M  V30 2378 O 226.979 -0.0546947 -1.95624 0
M  V30 2379 C 227.278 -3.41242 -1.06249 0
M  V30 2380 C 226.944 -4.50882 -0.0398791 0
M  V30 2381 C 225.606 -4.80595 0.241247 0
M  V30 2382 C 227.958 -5.17058 0.65578 0
M  V30 2383 C 225.286 -5.73792 1.22393 0
M  V30 2384 C 227.638 -6.11313 1.62724 0
M  V30 2385 C 226.302 -6.39407 1.91612 0
M  V30 2386 H 225.572 -0.717068 -0.186802 0
M  V30 2387 H 228.219 -1.90142 0.227643 0
M  V30 2388 H 226.524 -3.43866 -1.87785 0
M  V30 2389 H 228.221 -3.68742 -1.57576 0
M  V30 2390 H 224.811 -4.27754 -0.269174 0
M  V30 2391 H 228.995 -4.94239 0.451779 0
M  V30 2392 H 224.251 -5.93853 1.45424 0
M  V30 2393 H 228.425 -6.61668 2.17183 0
M  V30 2394 H 226.052 -7.11427 2.6791 0
M  V30 2395 N 227.627 0.131896 -1.57047 0
M  V30 2396 C 228.559 1.1878 -1.9602 0
M  V30 2397 C 229.572 1.38363 -0.857875 0
M  V30 2398 O 230.761 1.37666 -1.13623 0
M  V30 2399 C 227.861 2.55008 -2.23213 0
M  V30 2400 C 227.034 2.56201 -3.54513 0
M  V30 2401 C 226.093 3.7408 -3.70069 0
M  V30 2402 O 225.119 3.58258 -4.42312 0
M  V30 2403 N 226.321 4.92137 -3.07866 0
M  V30 2404 H 229.086 0.85639 -2.87204 0
M  V30 2405 H 226.647 0.321309 -1.5868 0
M  V30 2406 H 228.639 3.32404 -2.30846 0
M  V30 2407 H 227.209 2.80382 -1.3822 0
M  V30 2408 H 226.429 1.64613 -3.58185 0
M  V30 2409 H 227.717 2.54043 -4.4084 0
M  V30 2410 H 227.115 5.07895 -2.49116 0
M  V30 2411 H 225.672 5.67254 -3.21039 0
M  V30 2412 N 229.106 1.52395 0.401703 0
M  V30 2413 C 230.054 1.7689 1.51039 0
M  V30 2414 C 231.048 0.636298 1.56996 0
M  V30 2415 O 232.254 0.818507 1.60314 0
M  V30 2416 H 228.629 0.559502 0.502456 0
M  V30 2417 H 230.6 2.69757 1.27568 0
M  V30 2418 C 229.349 1.94331 2.88324 0
M  V30 2419 H 228.672 2.80905 2.84486 0
M  V30 2420 H 230.112 2.15466 3.65172 0
M  V30 2421 C 228.571 0.712396 3.29282 0
M  V30 2422 O 229.101 -0.116218 4.01532 0
M  V30 2423 N 227.307 0.546154 2.85422 0
M  V30 2424 H 226.854 1.22156 2.26794 0
M  V30 2425 H 226.812 -0.276113 3.13185 0
M  V30 2426 N 230.584 -0.659388 1.43143 0
M  V30 2427 C 231.832 -1.41654 1.44147 0
M  V30 2428 C 232.153 -1.94893 0.0645739 0
M  V30 2429 O 231.423 -1.74044 -0.899198 0
M  V30 2430 H 230.003 -0.525708 0.530697 0
M  V30 2431 H 232.665 -0.778097 1.78694 0
M  V30 2432 H 231.761 -2.26195 2.1504 0
M  V30 2433 N 232.062 -1.29571 -0.897171 0
M  V30 2434 C 233.311 -1.1706 -1.64256 0
M  V30 2435 C 233.624 0.276476 -1.93636 0
M  V30 2436 O 234.83 0.52294 -2.66416 0
M  V30 2437 C 233.286 -2.0475 -2.95982 0
M  V30 2438 C 232.894 -3.54295 -2.74187 0
M  V30 2439 C 234.638 -2.0097 -3.73914 0
M  V30 2440 C 232.545 -4.34081 -4.01656 0
M  V30 2441 H 231.475 -0.43452 -0.616205 0
M  V30 2442 H 234.126 -1.54229 -0.994268 0
M  V30 2443 H 232.508 -1.60452 -3.62038 0
M  V30 2444 H 233.682 -4.06662 -2.1671 0
M  V30 2445 H 231.997 -3.59773 -2.09648 0
M  V30 2446 H 234.594 -2.57838 -4.68427 0
M  V30 2447 H 234.937 -0.990273 -4.0435 0
M  V30 2448 H 235.47 -2.43325 -3.14703 0
M  V30 2449 H 232.209 -5.36671 -3.76384 0
M  V30 2450 H 231.729 -3.86483 -4.58684 0
M  V30 2451 H 233.408 -4.44877 -4.69781 0
M  V30 2452 N 233.54 1.10788 -1.12088 0
M  V30 2453 C 234.45 2.20599 -0.798338 0
M  V30 2454 C 235.466 1.72712 0.21135 0
M  V30 2455 O 236.642 2.01348 0.0458477 0
M  V30 2456 C 233.707 3.45771 -0.253674 0
M  V30 2457 C 232.768 4.08411 -1.32283 0
M  V30 2458 C 232.001 5.27608 -0.80406 0
M  V30 2459 O 232.224 5.69241 0.363478 0
M  V30 2460 O 231.158 5.8101 -1.57198 0
M  V30 2461 H 234.984 2.50614 -1.7154 0
M  V30 2462 H 232.569 1.19454 -0.897275 0
M  V30 2463 H 234.451 4.21376 0.0453691 0
M  V30 2464 H 233.126 3.1739 0.636005 0
M  V30 2465 H 232.033 3.34507 -1.67499 0
M  V30 2466 H 233.366 4.40986 -2.18614 0
M  V30 2467 N 235.018 0.912232 1.28515 0
M  V30 2468 C 236.258 0.551677 1.96814 0
M  V30 2469 C 236.622 -0.887825 1.7024 0
M  V30 2470 O 237.823 -1.35588 2.32098 0
M  V30 2471 C 236.094 0.850555 3.47132 0
M  V30 2472 S 237.653 0.59619 4.34731 0
M  V30 2473 H 234.471 0.204191 0.681049 0
M  V30 2474 H 237.073 1.17736 1.56072 0
M  V30 2475 H 235.777 1.8962 3.63968 0
M  V30 2476 H 235.308 0.213471 3.9282 0
M  V30 2477 H 237.323 -0.553154 4.93107 0
M  V30 2478 N 236.496 -1.42363 0.676048 0
M  V30 2479 C 237.744 -2.01123 0.198437 0
M  V30 2480 C 238.065 -1.53731 -1.19966 0
M  V30 2481 O 237.335 -0.759518 -1.80577 0
M  V30 2482 H 235.915 -0.743678 0.0703721 0
M  V30 2483 H 238.577 -1.74263 0.872837 0
M  V30 2484 H 237.673 -3.11454 0.200686 0
M  V30 2485 N 237.974 -0.419461 -1.51915 0
M  V30 2486 C 239.222 0.152637 -2.01523 0
M  V30 2487 C 239.543 1.44762 -1.30649 0
M  V30 2488 O 238.813 1.90997 -0.435535 0
M  V30 2489 H 237.393 0.0593966 -0.744635 0
M  V30 2490 H 240.055 -0.558073 -1.86739 0
M  V30 2491 H 239.151 0.341369 -3.10227 0
M  V30 2492 N 239.452 1.56882 -0.150215 0
M  V30 2493 C 240.415 2.1573 0.774157 0
M  V30 2494 C 241.415 1.0999 1.17298 0
M  V30 2495 O 242.605 1.35613 1.09338 0
M  V30 2496 C 239.737 2.72302 2.05096 0
M  V30 2497 H 240.93 2.98752 0.262201 0
M  V30 2498 H 238.483 1.55985 0.099248 0
M  V30 2499 H 239.218 1.92956 2.6065 0
M  V30 2500 H 239.003 3.49665 1.77416 0
M  V30 2501 H 240.493 3.17632 2.71109 0
M  V30 2502 N 240.93 -0.123565 1.57115 0
M  V30 2503 C 242.16 -0.845233 1.88519 0
M  V30 2504 C 242.568 -1.74168 0.739064 0
M  V30 2505 O 241.911 -1.81244 -0.299355 0
M  V30 2506 C 241.973 -1.73452 3.14888 0
M  V30 2507 C 241.637 -1.01285 4.45635 0
M  V30 2508 C 242.634 -0.355774 5.18681 0
M  V30 2509 C 240.319 -0.99538 4.92339 0
M  V30 2510 C 242.313 0.309114 6.3665 0
M  V30 2511 C 240 -0.32669 6.10226 0
M  V30 2512 C 240.998 0.324406 6.82229 0
M  V30 2513 O 240.686 0.982437 7.97874 0
M  V30 2514 H 240.418 -0.248534 0.628655 0
M  V30 2515 H 242.972 -0.113907 2.05084 0
M  V30 2516 H 241.202 -2.50737 2.94394 0
M  V30 2517 H 242.891 -2.33021 3.32349 0
M  V30 2518 H 243.657 -0.360918 4.83655 0
M  V30 2519 H 239.536 -1.49159 4.36202 0
M  V30 2520 H 243.08 0.8179 6.92789 0
M  V30 2521 H 238.977 -0.319294 6.4471 0
M  V30 2522 H 239.745 0.886454 8.13686 0
M  V30 2523 N 242.408 -1.52605 -0.393616 0
M  V30 2524 C 243.654 -1.67672 -1.14079 0
M  V30 2525 C 243.987 -0.413121 -1.89755 0
M  V30 2526 O 243.262 0.588952 -1.85369 0
M  V30 2527 C 243.545 -2.9088 -2.12276 0
M  V30 2528 C 243.398 -4.27329 -1.40394 0
M  V30 2529 C 244.717 -3.09628 -3.12759 0
M  V30 2530 H 241.836 -0.610168 -0.413356 0
M  V30 2531 H 244.478 -1.85193 -0.424696 0
M  V30 2532 H 242.628 -2.76073 -2.73342 0
M  V30 2533 H 244.3 -4.53894 -0.82327 0
M  V30 2534 H 242.543 -4.2802 -0.705801 0
M  V30 2535 H 243.214 -5.09615 -2.12123 0
M  V30 2536 H 245.69 -3.23436 -2.61779 0
M  V30 2537 H 244.566 -3.97322 -3.78717 0
M  V30 2538 H 244.827 -2.23637 -3.81365 0
M  V30 2539 N 243.887 0.651787 -1.4349 0
M  V30 2540 C 244.834 1.76462 -1.4876 0
M  V30 2541 C 245.804 1.62641 -0.337189 0
M  V30 2542 O 246.989 1.82864 -0.544544 0
M  V30 2543 C 244.129 3.14623 -1.41796 0
M  V30 2544 C 243.242 3.39568 -2.67053 0
M  V30 2545 C 242.377 4.67585 -2.52068 0
M  V30 2546 C 241.416 4.85639 -3.72587 0
M  V30 2547 N 240.553 6.04915 -3.56402 0
M  V30 2548 H 245.393 1.71293 -2.43849 0
M  V30 2549 H 242.93 0.835889 -1.21043 0
M  V30 2550 H 244.888 3.94496 -1.35753 0
M  V30 2551 H 243.518 3.18859 -0.50288 0
M  V30 2552 H 242.57 2.53783 -2.8337 0
M  V30 2553 H 243.882 3.48795 -3.56572 0
M  V30 2554 H 243.036 5.55586 -2.4374 0
M  V30 2555 H 241.775 4.60681 -1.60075 0
M  V30 2556 H 240.78 3.96073 -3.81321 0
M  V30 2557 H 242.005 4.94372 -4.65589 0
M  V30 2558 H 239.951 5.9914 -2.67146 0
M  V30 2559 H 239.868 6.15106 -4.39524 0
M  V30 2560 H 241.136 6.95533 -3.51929 0
M  V30 2561 N 245.365 1.30045 0.890287 0
M  V30 2562 C 246.295 1.18541 2.01172 0
M  V30 2563 C 247.276 0.0773356 1.69924 0
M  V30 2564 O 248.461 0.25845 1.92473 0
M  V30 2565 C 245.591 0.870941 3.36202 0
M  V30 2566 C 244.545 1.93637 3.81692 0
M  V30 2567 C 243.871 1.475 5.13953 0
M  V30 2568 C 245.171 3.34666 4.00994 0
M  V30 2569 H 246.865 2.12359 2.11054 0
M  V30 2570 H 244.411 1.02238 1.01407 0
M  V30 2571 H 246.364 0.777141 4.14172 0
M  V30 2572 H 245.088 -0.102926 3.26438 0
M  V30 2573 H 243.747 2.01972 3.05946 0
M  V30 2574 H 243.395 0.489551 5.00612 0
M  V30 2575 H 243.095 2.1876 5.4536 0
M  V30 2576 H 244.619 1.39489 5.94454 0
M  V30 2577 H 246.033 3.2912 4.69417 0
M  V30 2578 H 244.43 4.03966 4.43769 0
M  V30 2579 H 245.5 3.76949 3.05021 0
M  V30 2580 N 246.843 -1.10192 1.12674 0
M  V30 2581 C 247.773 -2.18652 0.819362 0
M  V30 2582 C 248.754 -1.68698 -0.217915 0
M  V30 2583 O 249.939 -1.94041 -0.0785581 0
M  V30 2584 C 247.069 -3.46202 0.27594 0
M  V30 2585 C 246.023 -4.09444 1.24656 0
M  V30 2586 C 245.349 -5.31725 0.563258 0
M  V30 2587 C 246.649 -4.52863 2.60217 0
M  V30 2588 H 248.343 -2.44622 1.72628 0
M  V30 2589 H 245.889 -1.17571 0.831451 0
M  V30 2590 H 247.842 -4.21372 0.0486149 0
M  V30 2591 H 246.566 -3.1973 -0.666331 0
M  V30 2592 H 245.225 -3.36284 1.45974 0
M  V30 2593 H 244.873 -5.0153 -0.384235 0
M  V30 2594 H 244.573 -5.74991 1.21075 0
M  V30 2595 H 246.097 -6.09624 0.34503 0
M  V30 2596 H 247.511 -5.19294 2.42913 0
M  V30 2597 H 245.908 -5.06986 3.21068 0
M  V30 2598 H 246.978 -3.65656 3.18471 0
M  V30 2599 N 248.321 -0.919034 -1.28029 0
M  V30 2600 C 249.546 -0.570357 -1.99403 0
M  V30 2601 C 249.971 0.842486 -1.68178 0
M  V30 2602 O 249.329 1.56391 -0.917141 0
M  V30 2603 C 249.377 -0.792541 -3.51783 0
M  V30 2604 O 248.481 0.145988 -4.12142 0
M  V30 2605 H 247.822 -0.220555 -0.6263 0
M  V30 2606 H 250.352 -1.23592 -1.63053 0
M  V30 2607 H 250.362 -0.704708 -4.01868 0
M  V30 2608 H 249.037 -1.82247 -3.73844 0
M  V30 2609 H 247.614 0.00897528 -3.72899 0
M  V30 2610 N 249.799 1.42003 -0.683588 0
M  V30 2611 C 250.746 2.30798 -0.0107309 0
M  V30 2612 C 251.716 1.4645 0.783688 0
M  V30 2613 O 252.901 1.75263 0.754156 0
M  V30 2614 C 250.041 3.3238 0.928306 0
M  V30 2615 C 249.154 4.31814 0.126776 0
M  V30 2616 C 248.289 5.20468 1.06236 0
M  V30 2617 C 247.328 6.11577 0.253035 0
M  V30 2618 N 246.465 6.92754 1.14179 0
M  V30 2619 H 251.305 2.8778 -0.773727 0
M  V30 2620 H 248.842 1.41745 -0.393283 0
M  V30 2621 H 250.8 3.89813 1.48666 0
M  V30 2622 H 249.43 2.76976 1.65783 0
M  V30 2623 H 248.482 3.76427 -0.54833 0
M  V30 2624 H 249.794 4.96276 -0.501192 0
M  V30 2625 H 248.948 5.82677 1.69035 0
M  V30 2626 H 247.687 4.56204 1.7242 0
M  V30 2627 H 246.692 5.48428 -0.388108 0
M  V30 2628 H 247.917 6.77892 -0.404839 0
M  V30 2629 H 245.863 6.3111 1.78987 0
M  V30 2630 H 245.78 7.53855 0.569111 0
M  V30 2631 H 247.048 7.59441 1.75697 0
M  V30 2632 N 251.277 0.427512 1.51691 0
M  V30 2633 C 252.505 -0.141191 2.06418 0
M  V30 2634 C 252.92 -1.37303 1.29589 0
M  V30 2635 O 252.277 -1.79059 0.352732 0
M  V30 2636 C 252.328 -0.473266 3.58389 0
M  V30 2637 O 252.049 0.709673 4.32314 0
M  V30 2638 C 253.55 -1.09371 4.29596 0
M  V30 2639 H 250.77 -0.0122747 0.670888 0
M  V30 2640 H 253.314 0.603764 1.95384 0
M  V30 2641 H 251.469 -1.16812 3.69369 0
M  V30 2642 H 251.883 0.42807 5.2275 0
M  V30 2643 H 253.357 -1.27613 5.37046 0
M  V30 2644 H 253.834 -2.072 3.87253 0
M  V30 2645 H 254.44 -0.43853 4.23033 0
M  V30 2646 N 252.755 -1.56801 0.158532 0
M  V30 2647 C 254.166 -1.83189 -0.360366 0
M  V30 2648 C 254.517 -1.07778 -1.63946 0
M  V30 2649 O 253.642 -0.326718 -2.13919 0
M  V30 2650 C 254.237 -3.32297 -0.660595 0
M  V30 2651 C 252.796 -3.59227 -1.12398 0
M  V30 2652 C 251.943 -2.76877 -0.153097 0
M  V30 2653 H 254.894 -1.54008 0.383031 0
M  V30 2654 H 254.915 -3.4908 -1.51405 0
M  V30 2655 H 254.427 -3.87156 0.270527 0
M  V30 2656 H 252.528 -3.09766 -2.07064 0
M  V30 2657 H 252.641 -4.67632 -1.04197 0
M  V30 2658 H 251.005 -2.46319 -0.647983 0
M  V30 2659 H 251.788 -3.34511 0.77182 0
M  V30 2660 N 254.233 0.115231 -1.57178 0
M  V30 2661 C 255.143 1.15994 -2.03918 0
M  V30 2662 C 256.159 1.45103 -0.960268 0
M  V30 2663 O 257.335 1.56144 -1.27204 0
M  V30 2664 C 254.4 2.46568 -2.43732 0
M  V30 2665 C 253.461 2.24822 -3.65723 0
M  V30 2666 C 252.694 3.4917 -4.03629 0
M  V30 2667 O 252.917 4.56623 -3.41835 0
M  V30 2668 O 251.851 3.39949 -4.96708 0
M  V30 2669 H 255.677 0.793019 -2.93164 0
M  V30 2670 H 253.262 0.3263 -1.45793 0
M  V30 2671 H 255.144 3.23492 -2.70057 0
M  V30 2672 H 253.819 2.82726 -1.57631 0
M  V30 2673 H 252.726 1.45744 -3.44542 0
M  V30 2674 H 254.059 1.93566 -4.52541 0
M  V30 2675 N 255.711 1.52812 0.385517 0
M  V30 2676 C 256.641 1.80808 1.47752 0
M  V30 2677 C 257.622 0.660318 1.5676 0
M  V30 2678 O 258.807 0.908246 1.71652 0
M  V30 2679 C 255.937 1.98008 2.85324 0
M  V30 2680 C 254.891 3.13709 2.91154 0
M  V30 2681 C 254.217 3.16169 4.31209 0
M  V30 2682 C 255.517 4.52709 2.60483 0
M  V30 2683 H 257.211 2.72253 1.24573 0
M  V30 2684 H 254.757 1.31003 0.597839 0
M  V30 2685 H 256.71 2.16176 3.61726 0
M  V30 2686 H 255.434 1.03255 3.09848 0
M  V30 2687 H 254.093 2.95329 2.17201 0
M  V30 2688 H 253.741 2.19092 4.52778 0
M  V30 2689 H 253.441 3.93894 4.36029 0
M  V30 2690 H 254.965 3.36496 5.09512 0
M  V30 2691 H 256.379 4.71173 3.26602 0
M  V30 2692 H 254.776 5.32528 2.76648 0
M  V30 2693 H 255.846 4.59186 1.55809 0
M  V30 2694 N 257.189 -0.644168 1.43834 0
M  V30 2695 C 258.137 -1.77793 1.49974 0
M  V30 2696 C 259.131 -1.65253 0.372536 0
M  V30 2697 O 260.337 -1.7149 0.546924 0
M  V30 2698 H 256.712 -0.58675 0.47035 0
M  V30 2699 H 258.683 -1.69736 2.45423 0
M  V30 2700 C 257.432 -3.16087 1.4486 0
M  V30 2701 H 256.755 -3.26378 2.30905 0
M  V30 2702 H 258.195 -3.95349 1.53217 0
M  V30 2703 C 256.654 -3.36484 0.167463 0
M  V30 2704 O 257.184 -3.94298 -0.767609 0
M  V30 2705 N 255.39 -2.90504 0.0747556 0
M  V30 2706 H 254.937 -2.4364 0.836507 0
M  V30 2707 H 254.895 -3.04527 -0.781714 0
M  V30 2708 N 258.668 -1.30515 -0.883378 0
M  V30 2709 C 259.598 -1.19607 -2.00541 0
M  V30 2710 C 260.579 -0.086346 -1.69881 0
M  V30 2711 O 261.764 -0.268654 -1.92333 0
M  V30 2712 C 258.894 -0.888758 -3.35736 0
M  V30 2713 C 257.848 -1.95659 -3.8066 0
M  V30 2714 C 257.174 -1.50224 -5.13164 0
M  V30 2715 C 258.474 -3.36788 -3.99213 0
M  V30 2716 H 260.168 -2.13476 -2.09925 0
M  V30 2717 H 257.714 -1.02775 -1.00863 0
M  V30 2718 H 259.667 -0.799094 -4.13754 0
M  V30 2719 H 258.391 0.0856125 -3.26488 0
M  V30 2720 H 257.05 -2.03591 -3.04871 0
M  V30 2721 H 256.698 -0.516092 -5.00345 0
M  V30 2722 H 256.398 -2.2165 -5.44192 0
M  V30 2723 H 257.922 -1.42639 -5.93706 0
M  V30 2724 H 259.336 -3.31605 -4.67665 0
M  V30 2725 H 257.733 -4.06314 -4.41621 0
M  V30 2726 H 258.803 -3.78561 -3.03017 0
M  V30 2727 N 260.146 1.09593 -1.13257 0
M  V30 2728 C 261.423 1.78293 -0.804432 0
M  V30 2729 C 261.803 1.99004 0.70431 0
M  V30 2730 O 261.151 1.59007 1.641 0
M  V30 2731 C 261.361 3.10707 -1.5894 0
M  V30 2732 C 262.709 3.85443 -1.78099 0
M  V30 2733 O 263.733 3.20454 -1.55525 0
M  V30 2734 O 262.592 5.02108 -2.15753 0
M  V30 2735 H 259.686 0.773156 -0.293528 0
M  V30 2736 H 262.232 1.16164 -1.23709 0
M  V30 2737 H 261.004 2.91106 -2.61482 0
M  V30 2738 H 260.627 3.80558 -1.15157 0
M  V30 2739 N 261.624 0.925811 1.2754 0
M  V30 2740 C 262.556 0.380753 2.26015 0
M  V30 2741 C 263.569 -0.487485 1.5533 0
M  V30 2742 O 264.758 -0.300413 1.75954 0
M  V30 2743 C 261.858 -0.473259 3.35579 0
M  V30 2744 C 261.031 0.375249 4.35787 0
M  V30 2745 C 260.09 -0.415809 5.24555 0
M  V30 2746 O 259.116 0.175834 5.68928 0
M  V30 2747 N 260.318 -1.71607 5.54555 0
M  V30 2748 H 263.083 1.22725 2.73421 0
M  V30 2749 H 260.644 0.793037 1.41147 0
M  V30 2750 H 262.636 -1.00949 3.91907 0
M  V30 2751 H 261.206 -1.2205 2.87789 0
M  V30 2752 H 260.426 1.09279 3.7875 0
M  V30 2753 H 261.714 0.955399 4.99749 0
M  V30 2754 H 261.112 -2.2191 5.20358 0
M  V30 2755 H 259.669 -2.19887 6.1359 0
M  V30 2756 N 263.102 -1.41638 0.69111 0
M  V30 2757 C 264.349 -2.01299 0.220193 0
M  V30 2758 C 264.677 -1.54715 -1.17871 0
M  V30 2759 O 263.932 -0.747193 -1.80874 0
M  V30 2760 C 264.231 -3.56714 0.221277 0
M  V30 2761 C 263.897 -4.22792 1.56709 0
M  V30 2762 C 262.559 -4.40557 1.93554 0
M  V30 2763 C 264.911 -4.59883 2.45268 0
M  V30 2764 C 262.239 -4.92688 3.18552 0
M  V30 2765 C 264.591 -5.13403 3.69595 0
M  V30 2766 C 263.255 -5.29379 4.06589 0
M  V30 2767 H 262.525 -0.736606 0.0805743 0
M  V30 2768 H 265.172 -1.69598 0.889319 0
M  V30 2769 H 263.477 -3.8818 -0.531391 0
M  V30 2770 H 265.174 -4.00678 -0.160547 0
M  V30 2771 H 261.764 -4.09336 1.2705 0
M  V30 2772 H 265.948 -4.45817 2.18084 0
M  V30 2773 H 261.204 -5.03242 3.47214 0
M  V30 2774 H 265.378 -5.41084 4.38407 0
M  V30 2775 H 263.005 -5.69537 5.03519 0
M  V30 2776 N 264.58 -0.43555 -1.51462 0
M  V30 2777 C 265.53 0.394701 -2.24558 0
M  V30 2778 C 266.514 0.99157 -1.26715 0
M  V30 2779 O 267.706 0.910007 -1.51815 0
M  V30 2780 C 264.835 1.4963 -3.08975 0
M  V30 2781 C 263.921 0.908912 -4.14246 0
M  V30 2782 N 264.312 0.0505335 -5.05775 0
M  V30 2783 C 262.61 1.17668 -4.30198 0
M  V30 2784 C 263.311 -0.279161 -5.8103 0
M  V30 2785 N 262.287 0.336767 -5.42556 0
M  V30 2786 H 266.089 -0.267106 -2.92684 0
M  V30 2787 H 263.603 -0.247518 -1.60503 0
M  V30 2788 H 265.6 2.10394 -3.59917 0
M  V30 2789 H 264.26 2.16046 -2.42393 0
M  V30 2790 H 265.271 -0.31577 -5.16936 0
M  V30 2791 H 261.948 1.83847 -3.74842 0
M  V30 2792 H 263.338 -0.977553 -6.64751 0
M  V30 2793 N 266.058 1.56714 -0.166846 0
M  V30 2794 C 267.335 1.88412 0.525373 0
M  V30 2795 C 267.715 1.07602 1.81618 0
M  V30 2796 O 267.063 0.168621 2.27877 0
M  V30 2797 C 267.273 3.40363 0.771613 0
M  V30 2798 C 268.621 4.10007 1.1036 0
M  V30 2799 O 269.645 3.45655 0.860304 0
M  V30 2800 O 268.504 5.2369 1.56239 0
M  V30 2801 H 265.598 0.781587 0.270278 0
M  V30 2802 H 268.144 1.68458 -0.204946 0
M  V30 2803 H 266.916 3.91046 -0.141093 0
M  V30 2804 H 266.539 3.65914 1.55541 0
M  V30 2805 N 267.536 -0.106894 1.57237 0
M  V30 2806 C 268.483 -1.13049 2.01217 0
M  V30 2807 C 269.453 -1.40471 0.886403 0
M  V30 2808 O 270.638 -1.52133 1.15153 0
M  V30 2809 C 267.778 -2.4487 2.43172 0
M  V30 2810 C 266.891 -2.24281 3.69218 0
M  V30 2811 C 266.026 -3.49417 4.00101 0
M  V30 2812 C 265.065 -3.24038 5.19294 0
M  V30 2813 N 264.202 -4.41409 5.45988 0
M  V30 2814 H 269.042 -0.748456 2.88448 0
M  V30 2815 H 266.579 -0.358054 1.42676 0
M  V30 2816 H 268.537 -3.21786 2.65537 0
M  V30 2817 H 267.167 -2.80944 1.58967 0
M  V30 2818 H 266.219 -1.38224 3.54398 0
M  V30 2819 H 267.531 -2.01512 4.56283 0
M  V30 2820 H 266.685 -4.34746 4.2318 0
M  V30 2821 H 265.424 -3.75229 3.11535 0
M  V30 2822 H 264.429 -2.37102 4.96047 0
M  V30 2823 H 265.654 -2.99584 6.09447 0
M  V30 2824 H 263.6 -4.67319 4.60379 0
M  V30 2825 H 263.517 -4.21788 6.274 0
M  V30 2826 H 264.785 -5.27836 5.73593 0
M  V30 2827 N 269.014 -1.53014 -0.377408 0
M  V30 2828 C 270.242 -1.72515 -1.14219 0
M  V30 2829 C 270.657 -0.448735 -1.8339 0
M  V30 2830 O 270.014 0.577592 -1.73119 0
M  V30 2831 C 270.065 -2.8826 -2.18148 0
M  V30 2832 O 269.786 -4.10962 -1.51795 0
M  V30 2833 C 271.287 -3.19536 -3.07264 0
M  V30 2834 H 268.507 -0.577301 -0.342001 0
M  V30 2835 H 271.051 -1.99712 -0.439935 0
M  V30 2836 H 269.206 -2.63492 -2.83991 0
M  V30 2837 H 269.62 -4.75693 -2.20945 0
M  V30 2838 H 271.094 -4.03959 -3.76193 0
M  V30 2839 H 271.571 -2.34403 -3.71419 0
M  V30 2840 H 272.177 -3.46186 -2.47053 0
M  V30 2841 N 270.492 0.636531 -1.44174 0
M  V30 2842 C 271.903 1.21806 -1.41493 0
M  V30 2843 C 272.254 1.95785 -0.1275 0
M  V30 2844 O 271.379 2.02147 0.772376 0
M  V30 2845 C 271.974 2.21551 -2.56321 0
M  V30 2846 C 270.533 2.75143 -2.56853 0
M  V30 2847 C 269.68 1.50052 -2.33195 0
M  V30 2848 H 272.631 0.427531 -1.52833 0
M  V30 2849 H 272.652 3.0405 -2.28765 0
M  V30 2850 H 272.164 1.67679 -3.50008 0
M  V30 2851 H 270.265 3.33033 -1.67093 0
M  V30 2852 H 270.378 3.2155 -3.55165 0
M  V30 2853 H 268.742 1.77993 -1.82183 0
M  V30 2854 H 269.525 0.980903 -3.28988 0
M  V30 2855 N 271.97 1.30982 0.876444 0
M  V30 2856 C 273.2 1.23063 1.65949 0
M  V30 2857 C 273.608 -0.207537 1.88058 0
M  V30 2858 O 272.951 -1.14781 1.43426 0
M  V30 2859 C 273.013 1.89768 3.05333 0
M  V30 2860 C 272.677 3.39106 3.0636 0
M  V30 2861 C 273.674 4.3496 2.84791 0
M  V30 2862 C 271.359 3.80693 3.27686 0
M  V30 2863 C 273.353 5.70375 2.84519 0
M  V30 2864 C 271.04 5.16223 3.27043 0
M  V30 2865 C 272.038 6.10875 3.05485 0
M  V30 2866 O 271.726 7.43928 3.04674 0
M  V30 2867 H 271.458 0.426685 0.524324 0
M  V30 2868 H 274.012 1.7329 1.10271 0
M  V30 2869 H 272.242 1.34082 3.6271 0
M  V30 2870 H 273.931 1.75853 3.65829 0
M  V30 2871 H 274.697 4.0416 2.68103 0
M  V30 2872 H 270.576 3.07457 3.43499 0
M  V30 2873 H 274.12 6.44228 2.67611 0
M  V30 2874 H 270.017 5.4666 3.43269 0
M  V30 2875 H 270.785 7.53022 3.2078 0
M  V30 2876 N 273.449 -1.08991 1.13837 0
M  V30 2877 C 274.677 -1.85011 0.926202 0
M  V30 2878 C 275.092 -1.8135 -0.525127 0
M  V30 2879 O 274.449 -1.21287 -1.36366 0
M  V30 2880 C 274.5 -3.32802 1.41155 0
M  V30 2881 O 274.221 -3.36444 2.80601 0
M  V30 2882 C 275.722 -4.25649 1.23847 0
M  V30 2883 H 272.942 -0.584249 0.32999 0
M  V30 2884 H 275.486 -1.37688 1.51202 0
M  V30 2885 H 273.641 -3.77536 0.868631 0
M  V30 2886 H 274.055 -4.28657 3.02248 0
M  V30 2887 H 275.529 -5.27485 1.62675 0
M  V30 2888 H 276.006 -4.38828 0.18065 0
M  V30 2889 H 276.612 -3.86735 1.76964 0
M  V30 2890 N 274.927 -0.932562 -1.27047 0
M  V30 2891 C 276.176 -0.571351 -1.93439 0
M  V30 2892 C 276.489 0.892467 -1.74053 0
M  V30 2893 O 277.695 1.36267 -2.34826 0
M  V30 2894 C 276.151 -0.97106 -3.46552 0
M  V30 2895 C 275.759 -2.4559 -3.74686 0
M  V30 2896 C 277.503 -0.681333 -4.18997 0
M  V30 2897 C 275.41 -2.79475 -5.21198 0
M  V30 2898 H 274.34 -0.209966 -0.724176 0
M  V30 2899 H 276.991 -1.13403 -1.44263 0
M  V30 2900 H 275.373 -0.336983 -3.94564 0
M  V30 2901 H 276.547 -3.13829 -3.37414 0
M  V30 2902 H 274.862 -2.71802 -3.15456 0
M  V30 2903 H 277.459 -0.910939 -5.26883 0
M  V30 2904 H 277.802 0.381628 -4.14547 0
M  V30 2905 H 278.335 -1.27473 -3.76823 0
M  V30 2906 H 275.074 -3.847 -5.30741 0
M  V30 2907 H 274.594 -2.1589 -5.596 0
M  V30 2908 H 276.273 -2.67478 -5.89122 0
M  V30 2909 N 276.405 1.4127 -0.698611 0
M  V30 2910 C 277.338 2.28195 0.0153898 0
M  V30 2911 C 278.316 1.42402 0.784883 0
M  V30 2912 O 279.5 1.71828 0.775067 0
M  V30 2913 C 276.627 3.22685 1.02918 0
M  V30 2914 C 275.673 4.25041 0.352501 0
M  V30 2915 S 276.506 5.27757 -0.907322 0
M  V30 2916 C 277.662 6.25812 0.104796 0
M  V30 2917 H 277.895 2.88403 -0.721858 0
M  V30 2918 H 275.428 1.46452 -0.488996 0
M  V30 2919 H 277.386 3.77655 1.60893 0
M  V30 2920 H 276.047 2.61566 1.73902 0
M  V30 2921 H 275.24 4.91437 1.11828 0
M  V30 2922 H 274.842 3.73682 -0.154254 0
M  V30 2923 H 277.134 6.70705 0.957103 0
M  V30 2924 H 278.077 7.06149 -0.525323 0
M  V30 2925 H 278.485 5.62615 0.460931 0
M  V30 2926 N 277.883 0.443576 1.51229 0
M  V30 2927 C 279.13 -0.120796 2.02139 0
M  V30 2928 C 279.458 -1.42166 1.32736 0
M  V30 2929 O 278.713 -1.90849 0.43301 0
M  V30 2930 C 279.012 -0.380579 3.55368 0
M  V30 2931 C 278.678 0.83523 4.43097 0
M  V30 2932 C 277.34 1.16864 4.66794 0
M  V30 2933 C 279.692 1.64601 4.94526 0
M  V30 2934 C 277.02 2.31339 5.39165 0
M  V30 2935 C 279.372 2.78181 5.68153 0
M  V30 2936 C 278.036 3.11969 5.90112 0
M  V30 2937 H 277.306 -0.0442023 0.73968 0
M  V30 2938 H 279.953 0.592046 1.82118 0
M  V30 2939 H 278.258 -1.17538 3.73754 0
M  V30 2940 H 279.955 -0.830777 3.923 0
M  V30 2941 H 276.545 0.565437 4.24854 0
M  V30 2942 H 280.729 1.40163 4.76097 0
M  V30 2943 H 275.985 2.57823 5.5438 0
M  V30 2944 H 280.159 3.41371 6.06992 0
M  V30 2945 H 277.786 4.00784 6.45969 0
M  V30 2946 N 279.361 -1.56624 0.175154 0
M  V30 2947 C 280.609 -1.96609 -0.467885 0
M  V30 2948 C 280.93 -1.06238 -1.63519 0
M  V30 2949 O 280.2 -0.129523 -1.95471 0
M  V30 2950 H 278.78 -0.726008 -0.175845 0
M  V30 2951 H 281.442 -1.93195 0.257234 0
M  V30 2952 H 280.538 -3.00989 -0.825342 0
M  V30 2953 N 280.839 0.0985539 -1.57292 0
M  V30 2954 C 282.25 0.653457 -1.74891 0
M  V30 2955 C 282.601 1.7929 -0.796838 0
M  V30 2956 O 281.726 2.16385 0.0254886 0
M  V30 2957 C 282.321 1.19216 -3.17133 0
M  V30 2958 C 280.88 1.69316 -3.36168 0
M  V30 2959 C 280.027 0.601294 -2.70702 0
M  V30 2960 H 282.978 -0.127497 -1.58187 0
M  V30 2961 H 282.999 2.06154 -3.19814 0
M  V30 2962 H 282.511 0.362635 -3.86402 0
M  V30 2963 H 280.612 2.5468 -2.71972 0
M  V30 2964 H 280.725 1.78853 -4.44464 0
M  V30 2965 H 279.089 1.0399 -2.32504 0
M  V30 2966 H 279.872 -0.217592 -3.4261 0
M  V30 2967 N 282.317 1.53212 0.369288 0
M  V30 2968 C 283.594 1.59815 1.12776 0
M  V30 2969 C 283.974 0.403402 2.0721 0
M  V30 2970 O 283.322 -0.606667 2.20299 0
M  V30 2971 C 283.532 2.94664 1.87013 0
M  V30 2972 C 284.88 3.49109 2.41677 0
M  V30 2973 O 285.904 2.96669 1.97144 0
M  V30 2974 O 284.763 4.40775 3.23079 0
M  V30 2975 H 281.857 0.645376 0.517125 0
M  V30 2976 H 284.403 1.65553 0.37285 0
M  V30 2977 H 283.175 3.73061 1.18071 0
M  V30 2978 H 282.798 2.92401 2.69421 0
M  V30 2979 N 283.795 -0.628877 1.44509 0
M  V30 2980 C 284.742 -1.74074 1.51549 0
M  V30 2981 C 285.712 -1.62084 0.363021 0
M  V30 2982 O 286.897 -1.81975 0.573567 0
M  V30 2983 C 284.037 -3.12328 1.46784 0
M  V30 2984 C 283.15 -3.35277 2.72422 0
M  V30 2985 C 282.285 -4.63515 2.59475 0
M  V30 2986 C 281.324 -4.7965 3.80266 0
M  V30 2987 N 280.461 -5.99168 3.65981 0
M  V30 2988 H 285.301 -1.67392 2.46544 0
M  V30 2989 H 282.838 -0.816527 1.22357 0
M  V30 2990 H 284.796 -3.92286 1.42012 0
M  V30 2991 H 283.426 -3.18018 0.553544 0
M  V30 2992 H 282.478 -2.49242 2.87372 0
M  V30 2993 H 283.79 -3.43078 3.62076 0
M  V30 2994 H 282.944 -5.51638 2.52548 0
M  V30 2995 H 281.683 -4.58076 1.67384 0
M  V30 2996 H 280.688 -3.89957 3.87574 0
M  V30 2997 H 281.913 -4.86902 4.73395 0
M  V30 2998 H 279.859 -5.94814 2.76644 0
M  V30 2999 H 279.776 -6.08035 4.49254 0
M  V30 3000 H 281.044 -6.89846 3.6295 0
M  V30 3001 N 285.273 -1.31445 -0.869486 0
M  V30 3002 C 286.513 -1.22458 -1.63656 0
M  V30 3003 C 286.877 0.213846 -1.90805 0
M  V30 3004 O 288.078 0.427212 -2.65383 0
M  V30 3005 C 286.349 -2.04564 -2.93067 0
M  V30 3006 S 287.908 -2.12445 -3.83944 0
M  V30 3007 H 284.726 -0.436145 -0.561514 0
M  V30 3008 H 287.328 -1.66114 -1.03085 0
M  V30 3009 H 286.032 -3.0816 -2.71045 0
M  V30 3010 H 285.563 -1.6163 -3.58663 0
M  V30 3011 H 287.578 -1.26312 -4.79854 0
M  V30 3012 N 286.751 1.08385 -1.14413 0
M  V30 3013 C 287.999 1.80419 -0.910679 0
M  V30 3014 C 288.32 1.86658 0.564243 0
M  V30 3015 O 287.59 1.35985 1.41014 0
M  V30 3016 H 286.17 0.668204 -0.333934 0
M  V30 3017 H 288.832 1.31037 -1.44275 0
M  V30 3018 H 287.928 2.83238 -1.31082 0
M  V30 3019 N 288.23 0.939286 1.26551 0
M  V30 3020 C 289.14 0.453432 2.30176 0
M  V30 3021 C 290.156 -0.471649 1.67486 0
M  V30 3022 O 291.332 -0.35164 1.98306 0
M  V30 3023 C 288.397 -0.275326 3.45605 0
M  V30 3024 C 287.458 0.686084 4.23782 0
M  V30 3025 C 286.691 -0.00798994 5.33699 0
M  V30 3026 O 286.914 -1.22528 5.57085 0
M  V30 3027 O 285.848 0.669746 5.98162 0
M  V30 3028 H 289.674 1.31416 2.73795 0
M  V30 3029 H 287.259 0.705095 1.31715 0
M  V30 3030 H 289.141 -0.685911 4.1578 0
M  V30 3031 H 287.816 -1.11147 3.0402 0
M  V30 3032 H 286.723 1.14658 3.56096 0
M  V30 3033 H 288.056 1.48979 4.69112 0
M  V30 3034 N 289.708 -1.40897 0.706093 0
M  V30 3035 C 290.985 -1.94868 0.169099 0
M  V30 3036 C 291.365 -1.64485 -1.32318 0
M  V30 3037 O 290.713 -0.95744 -2.07474 0
M  V30 3038 C 290.923 -3.45798 0.471654 0
M  V30 3039 C 292.271 -4.22663 0.405127 0
M  V30 3040 O 293.295 -3.53865 0.407168 0
M  V30 3041 O 292.154 -5.45216 0.374383 0
M  V30 3042 H 289.248 -0.82673 0.0211352 0
M  V30 3043 H 291.794 -1.50558 0.782976 0
M  V30 3044 H 290.566 -3.61235 1.50416 0
M  V30 3045 H 290.189 -3.97225 -0.172666 0
M  V30 3046 N 291.186 -0.45159 -1.50991 0
M  V30 3047 C 292.416 0.108177 -2.06317 0
M  V30 3048 C 292.824 1.35774 -1.31765 0
M  V30 3049 O 292.167 1.79838 -0.374694 0
M  V30 3050 C 292.229 0.481659 -3.56259 0
M  V30 3051 C 291.893 -0.663114 -4.52163 0
M  V30 3052 C 292.89 -1.53947 -4.96585 0
M  V30 3053 C 290.575 -0.8479 -4.95092 0
M  V30 3054 C 292.569 -2.58518 -5.82621 0
M  V30 3055 C 290.256 -1.89686 -5.80915 0
M  V30 3056 C 291.254 -2.76388 -6.24579 0
M  V30 3057 O 290.942 -3.79482 -7.08695 0
M  V30 3058 H 290.674 0.00499183 -0.675982 0
M  V30 3059 H 293.228 -0.633659 -1.95381 0
M  V30 3060 H 291.458 1.27641 -3.65027 0
M  V30 3061 H 293.147 0.974233 -3.94035 0
M  V30 3062 H 293.913 -1.4083 -4.64103 0
M  V30 3063 H 289.792 -0.18258 -4.60638 0
M  V30 3064 H 293.336 -3.26224 -6.16623 0
M  V30 3065 H 289.233 -2.02817 -6.12809 0
M  V30 3066 H 290.001 -3.76234 -7.26905 0
M  V30 3067 N 292.664 1.56529 -0.183458 0
M  V30 3068 C 293.611 2.18546 0.742055 0
M  V30 3069 C 294.581 1.12912 1.2182 0
M  V30 3070 O 295.766 1.41115 1.28418 0
M  V30 3071 C 292.906 2.83977 1.96089 0
M  V30 3072 C 292.019 4.04105 1.52719 0
M  V30 3073 C 291.154 4.57427 2.70063 0
M  V30 3074 C 290.193 5.69938 2.23243 0
M  V30 3075 N 289.33 6.17717 3.33722 0
M  V30 3076 H 294.17 2.97284 0.206432 0
M  V30 3077 H 291.707 1.46823 0.0901571 0
M  V30 3078 H 293.665 3.20077 2.67594 0
M  V30 3079 H 292.295 2.07822 2.47002 0
M  V30 3080 H 291.347 3.73745 0.708436 0
M  V30 3081 H 292.659 4.85513 1.1436 0
M  V30 3082 H 291.813 4.95772 3.49708 0
M  V30 3083 H 290.552 3.75101 3.11689 0
M  V30 3084 H 289.557 5.31133 1.42048 0
M  V30 3085 H 290.782 6.54073 1.82661 0
M  V30 3086 H 288.728 5.38317 3.74902 0
M  V30 3087 H 288.645 6.94146 2.99495 0
M  V30 3088 H 289.913 6.60713 4.13616 0
M  V30 3089 N 294.142 -0.090211 1.57342 0
M  V30 3090 C 295.072 -1.10976 2.05443 0
M  V30 3091 C 296.053 -1.41482 0.944284 0
M  V30 3092 O 297.238 -1.51428 1.21586 0
M  V30 3093 C 294.368 -2.42831 2.48295 0
M  V30 3094 C 293.322 -2.26721 3.63018 0
M  V30 3095 C 292.648 -3.63796 3.91863 0
M  V30 3096 C 293.948 -1.7037 4.93732 0
M  V30 3097 H 295.642 -0.709564 2.9087 0
M  V30 3098 H 293.188 -0.339874 1.39932 0
M  V30 3099 H 295.141 -3.14431 2.80555 0
M  V30 3100 H 293.865 -2.84795 1.59873 0
M  V30 3101 H 292.524 -1.57565 3.31012 0
M  V30 3102 H 292.172 -4.03297 3.00601 0
M  V30 3103 H 291.872 -3.53861 4.69101 0
M  V30 3104 H 293.396 -4.36855 4.26603 0
M  V30 3105 H 294.81 -2.31816 5.24342 0
M  V30 3106 H 293.207 -1.71181 5.75167 0
M  V30 3107 H 294.277 -0.663542 4.80339 0
M  V30 3108 N 295.62 -1.53406 -0.361157 0
M  V30 3109 C 296.57 -1.76536 -1.44287 0
M  V30 3110 C 297.554 -0.620019 -1.48474 0
M  V30 3111 O 298.746 -0.878834 -1.53641 0
M  V30 3112 C 295.875 -1.96266 -2.81664 0
M  V30 3113 C 294.961 -3.16815 -2.81938 0
M  V30 3114 N 295.352 -4.38637 -2.51855 0
M  V30 3115 C 293.65 -3.17627 -3.13096 0
M  V30 3116 C 294.351 -5.20401 -2.59919 0
M  V30 3117 N 293.327 -4.56712 -2.94814 0
M  V30 3118 H 297.129 -2.68331 -1.19899 0
M  V30 3119 H 294.643 -1.52091 -0.56938 0
M  V30 3120 H 296.64 -2.10966 -3.59582 0
M  V30 3121 H 295.3 -1.05702 -3.07013 0
M  V30 3122 H 296.311 -4.66293 -2.25369 0
M  V30 3123 H 292.988 -2.36971 -3.43731 0
M  V30 3124 H 294.378 -6.27586 -2.39969 0
M  V30 3125 N 297.098 0.621204 -1.44841 0
M  V30 3126 C 298.345 1.38055 -1.48145 0
M  V30 3127 C 298.673 1.94143 -0.117867 0
M  V30 3128 O 297.928 1.74713 0.881694 0
M  V30 3129 C 298.227 2.55675 -2.4973 0
M  V30 3130 C 297.893 2.17817 -3.94799 0
M  V30 3131 C 296.555 2.07205 -4.34303 0
M  V30 3132 C 298.907 1.88065 -4.86087 0
M  V30 3133 C 296.235 1.65045 -5.63007 0
M  V30 3134 C 298.587 1.47394 -6.15189 0
M  V30 3135 C 297.251 1.35331 -6.53637 0
M  V30 3136 H 296.521 0.505181 -0.542101 0
M  V30 3137 H 299.168 0.703477 -1.78111 0
M  V30 3138 H 297.473 3.2866 -2.13284 0
M  V30 3139 H 299.17 3.13904 -2.4953 0
M  V30 3140 H 295.76 2.26998 -3.63552 0
M  V30 3141 H 299.944 1.95168 -4.56315 0
M  V30 3142 H 295.2 1.54317 -5.91605 0
M  V30 3143 H 299.374 1.23415 -6.85377 0
M  V30 3144 H 297.001 1.02435 -7.53267 0
M  V30 3145 N 298.576 1.31904 0.862503 0
M  V30 3146 C 299.825 1.21373 1.61094 0
M  V30 3147 C 300.138 -0.22504 1.94301 0
M  V30 3148 O 301.344 -0.452121 2.67709 0
M  V30 3149 C 299.8 2.12525 2.9045 0
M  V30 3150 C 299.408 3.61441 2.64697 0
M  V30 3151 C 301.152 2.10813 3.68454 0
M  V30 3152 C 299.059 4.44578 3.90006 0
M  V30 3153 H 297.989 0.450705 0.604468 0
M  V30 3154 H 300.64 1.56811 0.953027 0
M  V30 3155 H 299.022 1.69994 3.57656 0
M  V30 3156 H 300.196 4.12264 2.05851 0
M  V30 3157 H 298.511 3.65205 2.00036 0
M  V30 3158 H 301.108 2.70167 4.61426 0
M  V30 3159 H 301.451 1.09713 4.01583 0
M  V30 3160 H 301.984 2.51583 3.08141 0
M  V30 3161 H 298.723 5.46461 3.62023 0
M  V30 3162 H 298.243 3.98508 4.48276 0
M  V30 3163 H 299.922 4.57176 4.5782 0
M  V30 3164 N 300.054 -1.07777 1.14986 0
M  V30 3165 C 301.301 -1.8029 0.922056 0
M  V30 3166 C 301.629 -1.86531 -0.55105 0
M  V30 3167 O 300.884 -1.34189 -1.42449 0
M  V30 3168 C 301.183 -3.25495 1.47608 0
M  V30 3169 C 300.849 -3.39361 2.96893 0
M  V30 3170 C 299.511 -3.42852 3.37647 0
M  V30 3171 C 301.863 -3.42512 3.92854 0
M  V30 3172 C 299.191 -3.47094 4.73015 0
M  V30 3173 C 301.543 -3.4829 5.28088 0
M  V30 3174 C 300.207 -3.50058 5.68345 0
M  V30 3175 H 299.477 -0.659727 0.337404 0
M  V30 3176 H 302.124 -1.26854 1.43459 0
M  V30 3177 H 300.429 -3.81683 0.88463 0
M  V30 3178 H 302.126 -3.80168 1.27568 0
M  V30 3179 H 298.716 -3.37339 2.64387 0
M  V30 3180 H 302.9 -3.3904 3.62444 0
M  V30 3181 H 298.156 -3.46758 5.03556 0
M  V30 3182 H 302.33 -3.49675 6.02246 0
M  V30 3183 H 299.957 -3.53097 6.73221 0
M  V30 3184 N 301.532 -0.945985 -1.26051 0
M  V30 3185 C 302.948 -0.649045 -1.45807 0
M  V30 3186 C 303.148 0.796158 -1.85104 0
M  V30 3187 O 302.204 1.57233 -1.97571 0
M  V30 3188 C 303.517 -1.61458 -2.53677 0
M  V30 3189 C 305.065 -1.62481 -2.67524 0
M  V30 3190 C 305.54 -2.57776 -3.7857 0
M  V30 3191 N 307.031 -2.5609 -3.85969 0
M  V30 3192 C 307.766 -3.26508 -4.7136 0
M  V30 3193 N 307.262 -4.0637 -5.61102 0
M  V30 3194 N 309.055 -3.15437 -4.65248 0
M  V30 3195 H 301.206 -1.88005 -0.988328 0
M  V30 3196 H 303.469 -0.808198 -0.4955 0
M  V30 3197 H 303.175 -2.64644 -2.31638 0
M  V30 3198 H 303.049 -1.37036 -3.51427 0
M  V30 3199 H 305.436 -0.600167 -2.88933 0
M  V30 3200 H 305.517 -1.90958 -1.70202 0
M  V30 3201 H 305.161 -3.60361 -3.57913 0
M  V30 3202 H 305.091 -2.26587 -4.75359 0
M  V30 3203 H 307.582 -1.98105 -3.21812 0
M  V30 3204 H 307.895 -4.57042 -6.23164 0
M  V30 3205 H 306.24 -4.10469 -5.60839 0
M  V30 3206 H 309.431 -2.52525 -3.94143 0
M  V30 3207 H 309.604 -3.70584 -5.31575 0
M  V30 3208 N 303.011 1.40521 -0.713556 0
M  V30 3209 C 303.961 2.27971 -0.036165 0
M  V30 3210 C 304.945 1.43151 0.734623 0
M  V30 3211 O 306.137 1.66261 0.607158 0
M  V30 3212 C 303.266 3.31661 0.886331 0
M  V30 3213 C 302.352 4.23955 0.110836 0
M  V30 3214 N 302.743 4.97641 -0.904847 0
M  V30 3215 C 301.041 4.44674 0.343692 0
M  V30 3216 C 301.742 5.65322 -1.37064 0
M  V30 3217 N 300.718 5.39162 -0.693168 0
M  V30 3218 H 304.52 2.82384 -0.814645 0
M  V30 3219 H 302.034 1.52948 -0.545963 0
M  V30 3220 H 304.031 3.93154 1.38692 0
M  V30 3221 H 302.691 2.78808 1.66421 0
M  V30 3222 H 303.702 5.01689 -1.28563 0
M  V30 3223 H 300.379 4.02801 1.09805 0
M  V30 3224 H 301.769 6.34359 -2.21447 0
M  V30 3225 N 304.489 0.459591 1.5075 0
M  V30 3226 C 305.436 -0.340524 2.28274 0
M  V30 3227 C 306.406 -0.997371 1.32822 0
M  V30 3228 O 307.591 -1.01202 1.61749 0
M  V30 3229 C 304.731 -1.42317 3.14388 0
M  V30 3230 C 303.844 -0.782251 4.24859 0
M  V30 3231 C 302.979 -1.84182 4.98247 0
M  V30 3232 C 302.018 -1.18053 6.00608 0
M  V30 3233 N 301.155 -2.18244 6.67319 0
M  V30 3234 H 305.995 0.326899 2.96202 0
M  V30 3235 H 303.532 0.173057 1.46078 0
M  V30 3236 H 305.49 -2.06241 3.62658 0
M  V30 3237 H 304.12 -2.05992 2.4853 0
M  V30 3238 H 303.172 -0.0307404 3.80388 0
M  V30 3239 H 304.484 -0.259663 4.98124 0
M  V30 3240 H 303.638 -2.55714 5.50177 0
M  V30 3241 H 302.377 -2.39819 4.24662 0
M  V30 3242 H 301.382 -0.450776 5.47949 0
M  V30 3243 H 302.607 -0.631202 6.7616 0
M  V30 3244 H 300.553 -2.72919 5.96533 0
M  V30 3245 H 300.47 -1.70938 7.36421 0
M  V30 3246 H 301.738 -2.89191 7.23871 0
M  V30 3247 N 305.967 -1.56429 0.191757 0
M  V30 3248 C 306.915 -2.20273 -0.747174 0
M  V30 3249 C 307.909 -1.17288 -1.22229 0
M  V30 3250 O 309.115 -1.35441 -1.18557 0
M  V30 3251 H 305.49 -0.705885 -0.259289 0
M  V30 3252 H 307.461 -2.97826 -0.184963 0
M  V30 3253 C 306.21 -2.87356 -1.95759 0
M  V30 3254 H 305.533 -3.66341 -1.60106 0
M  V30 3255 H 306.973 -3.3547 -2.59299 0
M  V30 3256 C 305.432 -1.88213 -2.79423 0
M  V30 3257 O 305.962 -1.38033 -3.7724 0
M  V30 3258 N 304.168 -1.56516 -2.44849 0
M  V30 3259 H 303.715 -1.97516 -1.65364 0
M  V30 3260 H 303.673 -0.904369 -3.01112 0
M  V30 3261 N 307.445 0.0818655 -1.57387 0
M  V30 3262 C 308.856 0.634871 -1.75574 0
M  V30 3263 C 309.207 1.78435 -0.815809 0
M  V30 3264 O 308.332 2.164 0.0025366 0
M  V30 3265 C 308.927 1.15845 -3.18379 0
M  V30 3266 C 307.486 1.65741 -3.37945 0
M  V30 3267 C 306.633 0.572549 -2.71325 0
M  V30 3268 H 309.584 -0.144268 -1.58043 0
M  V30 3269 H 309.605 2.02751 -3.21982 0
M  V30 3270 H 309.117 0.321631 -3.86765 0
M  V30 3271 H 307.218 2.51781 -2.74658 0
M  V30 3272 H 307.331 1.74129 -4.46336 0
M  V30 3273 H 305.695 1.01518 -2.33594 0
M  V30 3274 H 306.478 -0.253918 -3.4236 0
M  V30 3275 N 308.923 1.53595 0.353017 0
M  V30 3276 C 309.87 1.80919 1.43308 0
M  V30 3277 C 310.84 0.654288 1.5267 0
M  V30 3278 O 312.025 0.897759 1.6836 0
M  V30 3279 C 309.165 2.01605 2.80089 0
M  V30 3280 C 308.278 3.29321 2.79593 0
M  V30 3281 C 307.413 3.40125 4.0803 0
M  V30 3282 C 306.452 4.61826 4.01725 0
M  V30 3283 N 305.589 4.69716 5.21834 0
M  V30 3284 H 310.429 2.73074 1.19308 0
M  V30 3285 H 307.966 1.35263 0.578131 0
M  V30 3286 H 309.924 2.11586 3.59565 0
M  V30 3287 H 308.554 1.12772 3.0246 0
M  V30 3288 H 307.606 3.28229 1.92276 0
M  V30 3289 H 308.918 4.18884 2.70809 0
M  V30 3290 H 308.072 3.49488 4.95927 0
M  V30 3291 H 306.811 2.48601 4.19582 0
M  V30 3292 H 305.816 4.52552 3.12213 0
M  V30 3293 H 307.041 5.54705 3.91764 0
M  V30 3294 H 304.987 3.81097 5.33948 0
M  V30 3295 H 304.904 5.53202 5.1527 0
M  V30 3296 H 306.172 4.83376 6.11529 0
M  V30 3297 N 310.401 -0.613514 1.45168 0
M  V30 3298 C 311.629 -1.39946 1.5239 0
M  V30 3299 C 312.044 -1.88167 0.154531 0
M  V30 3300 O 311.401 -1.61872 -0.842843 0
M  V30 3301 C 311.452 -2.60795 2.50337 0
M  V30 3302 O 311.173 -2.1458 3.81952 0
M  V30 3303 C 312.674 -3.53723 2.67198 0
M  V30 3304 H 309.894 -0.428593 0.516284 0
M  V30 3305 H 312.438 -0.748753 1.903 0
M  V30 3306 H 310.593 -3.21919 2.15515 0
M  V30 3307 H 311.007 -2.93055 4.34993 0
M  V30 3308 H 312.481 -4.35079 3.39721 0
M  V30 3309 H 312.958 -4.0368 1.73029 0
M  V30 3310 H 313.564 -2.98456 3.02992 0
M  V30 3311 N 311.879 -1.3236 -0.855495 0
M  V30 3312 C 313.127 -1.22629 -1.60644 0
M  V30 3313 C 313.448 0.212136 -1.93843 0
M  V30 3314 O 312.718 1.13666 -1.59552 0
M  V30 3315 H 311.298 -0.450882 -0.595579 0
M  V30 3316 H 313.96 -1.65871 -1.02337 0
M  V30 3317 H 313.056 -1.80832 -2.54374 0
M  V30 3318 N 313.357 1.07166 -1.15556 0
M  V30 3319 C 314.606 1.79181 -0.926132 0
M  V30 3320 C 314.919 1.87768 0.547967 0
M  V30 3321 O 316.125 2.56323 0.895036 0
M  V30 3322 C 314.581 3.22 -1.60761 0
M  V30 3323 C 314.189 3.21607 -3.11886 0
M  V30 3324 C 315.933 3.9861 -1.4598 0
M  V30 3325 C 313.84 4.59092 -3.72812 0
M  V30 3326 H 312.77 0.67154 -0.342856 0
M  V30 3327 H 315.421 1.2027 -1.3859 0
M  V30 3328 H 313.803 3.81115 -1.07553 0
M  V30 3329 H 314.977 2.72127 -3.71865 0
M  V30 3330 H 313.292 2.58495 -3.2645 0
M  V30 3331 H 315.889 5.00225 -1.88888 0
M  V30 3332 H 316.232 4.143 -0.407541 0
M  V30 3333 H 316.765 3.45996 -1.96295 0
M  V30 3334 H 313.504 4.48606 -4.77946 0
M  V30 3335 H 313.024 5.08803 -3.17616 0
M  V30 3336 H 314.703 5.28059 -3.73848 0
M  V30 3337 N 314.835 0.952656 1.25548 0
M  V30 3338 C 316.065 0.622592 1.96996 0
M  V30 3339 C 316.473 -0.809112 1.71026 0
M  V30 3340 O 315.816 -1.55258 0.981861 0
M  V30 3341 C 315.878 0.798946 3.5051 0
M  V30 3342 C 315.542 2.20744 4.00151 0
M  V30 3343 C 316.539 3.18394 4.11001 0
M  V30 3344 C 314.224 2.5311 4.33867 0
M  V30 3345 C 316.218 4.46504 4.54877 0
M  V30 3346 C 313.905 3.8145 4.7743 0
M  V30 3347 C 314.903 4.77959 4.87897 0
M  V30 3348 O 314.591 6.04012 5.30494 0
M  V30 3349 H 314.323 0.232503 0.634758 0
M  V30 3350 H 316.877 1.2789 1.60728 0
M  V30 3351 H 315.107 0.0854903 3.86605 0
M  V30 3352 H 316.796 0.47023 4.03167 0
M  V30 3353 H 317.562 2.94715 3.85186 0
M  V30 3354 H 313.441 1.78719 4.24948 0
M  V30 3355 H 316.985 5.21835 4.62962 0
M  V30 3356 H 312.882 4.04936 5.0269 0
M  V30 3357 H 313.65 6.0736 5.48685 0
M  V30 3358 N 316.313 -1.40141 0.720998 0
M  V30 3359 C 317.223 -2.34486 0.0731031 0
M  V30 3360 C 318.239 -1.57587 -0.737723 0
M  V30 3361 O 319.415 -1.89949 -0.669429 0
M  V30 3362 C 316.48 -3.36528 -0.833656 0
M  V30 3363 C 315.541 -4.29298 -0.0121673 0
M  V30 3364 C 314.774 -5.26466 -0.875742 0
M  V30 3365 O 314.997 -5.29745 -2.11485 0
M  V30 3366 O 313.931 -6.01092 -0.31185 0
M  V30 3367 H 317.757 -2.9152 0.851444 0
M  V30 3368 H 315.342 -1.41427 0.481527 0
M  V30 3369 H 317.224 -3.99093 -1.35289 0
M  V30 3370 H 315.899 -2.81899 -1.59105 0
M  V30 3371 H 314.806 -3.70001 0.552262 0
M  V30 3372 H 316.139 -4.87094 0.707129 0
M  V30 3373 N 317.792 -0.46758 -1.50504 0
M  V30 3374 C 318.702 0.33382 -2.32213 0
M  V30 3375 C 319.718 0.999323 -1.42441 0
M  V30 3376 O 320.894 0.988068 -1.75497 0
M  V30 3377 C 317.959 1.4035 -3.17022 0
M  V30 3378 C 317.02 0.754961 -4.2261 0
M  V30 3379 C 316.253 1.77367 -5.03365 0
M  V30 3380 O 316.476 2.99976 -4.8515 0
M  V30 3381 O 315.41 1.34744 -5.86624 0
M  V30 3382 H 319.236 -0.334067 -3.01857 0
M  V30 3383 H 316.821 -0.229496 -1.47627 0
M  V30 3384 H 318.703 2.02318 -3.69656 0
M  V30 3385 H 317.378 2.05492 -2.5011 0
M  V30 3386 H 316.285 0.0964244 -3.73976 0
M  V30 3387 H 317.618 0.146545 -4.91982 0
M  V30 3388 N 319.27 1.56325 -0.20005 0
M  V30 3389 C 320.217 2.1932 0.718833 0
M  V30 3390 C 321.187 1.14198 1.20615 0
M  V30 3391 O 322.372 1.42469 1.26914 0
M  V30 3392 C 319.512 2.86041 1.93066 0
M  V30 3393 C 318.625 4.05702 1.48425 0
M  V30 3394 C 317.76 4.60266 2.65196 0
M  V30 3395 C 316.799 5.72273 2.17185 0
M  V30 3396 N 315.936 6.21221 3.27152 0
M  V30 3397 H 320.776 2.97486 0.17489 0
M  V30 3398 H 318.313 1.46911 0.0745794 0
M  V30 3399 H 320.271 3.22897 2.64184 0
M  V30 3400 H 318.901 2.1043 2.44783 0
M  V30 3401 H 317.953 3.74475 0.668755 0
M  V30 3402 H 319.265 4.86699 1.09204 0
M  V30 3403 H 318.419 4.99453 3.4443 0
M  V30 3404 H 317.158 3.78386 3.07693 0
M  V30 3405 H 316.163 5.3261 1.36407 0
M  V30 3406 H 317.388 6.55974 1.75713 0
M  V30 3407 H 315.334 5.42263 3.69171 0
M  V30 3408 H 315.251 6.97284 2.92116 0
M  V30 3409 H 316.519 6.65063 4.06585 0
M  V30 3410 N 320.748 -0.0735177 1.57428 0
M  V30 3411 C 321.698 -1.09442 2.00016 0
M  V30 3412 C 322.682 -1.34575 0.881947 0
M  V30 3413 O 323.874 -1.34905 1.14585 0
M  V30 3414 C 321.003 -2.40865 2.4462 0
M  V30 3415 C 320.089 -2.19014 3.63172 0
M  V30 3416 N 320.48 -1.67087 4.77405 0
M  V30 3417 C 318.778 -2.49494 3.69688 0
M  V30 3418 C 319.479 -1.6001 5.5926 0
M  V30 3419 N 318.455 -2.05999 5.03056 0
M  V30 3420 H 322.257 -0.686227 2.85776 0
M  V30 3421 H 319.771 -0.280617 1.59957 0
M  V30 3422 H 321.768 -3.14763 2.73368 0
M  V30 3423 H 320.428 -2.82403 1.60246 0
M  V30 3424 H 321.439 -1.35975 4.99731 0
M  V30 3425 H 318.116 -2.94409 2.96023 0
M  V30 3426 H 319.506 -1.2073 6.60964 0
M  V30 3427 N 322.226 -1.5378 -0.344866 0
M  V30 3428 C 323.189 -1.80981 -1.40637 0
M  V30 3429 C 324.189 -0.680816 -1.45676 0
M  V30 3430 O 325.379 -0.949095 -1.46075 0
M  V30 3431 C 322.511 -1.95063 -2.79577 0
M  V30 3432 H 323.704 -2.75803 -1.17783 0
M  V30 3433 H 321.257 -1.45173 -0.579181 0
M  V30 3434 H 321.992 -1.02379 -3.07716 0
M  V30 3435 H 321.777 -2.77198 -2.77315 0
M  V30 3436 H 323.267 -2.17629 -3.56409 0
M  V30 3437 N 323.704 0.605807 -1.45491 0
M  V30 3438 C 324.651 1.7164 -1.54299 0
M  V30 3439 C 325.621 1.61486 -0.388761 0
M  V30 3440 O 326.806 1.81039 -0.602445 0
M  V30 3441 C 323.946 3.09953 -1.51734 0
M  V30 3442 C 323.059 3.309 -2.77721 0
M  V30 3443 C 322.194 4.59329 -2.66816 0
M  V30 3444 C 321.233 4.7354 -3.87848 0
M  V30 3445 N 320.37 5.9327 -3.75467 0
M  V30 3446 H 325.21 1.63449 -2.49176 0
M  V30 3447 H 322.747 0.796957 -1.23641 0
M  V30 3448 H 324.705 3.89977 -1.48235 0
M  V30 3449 H 323.335 3.17098 -0.604068 0
M  V30 3450 H 322.387 2.44639 -2.913 0
M  V30 3451 H 323.699 3.37274 -3.67488 0
M  V30 3452 H 322.853 5.4755 -2.61292 0
M  V30 3453 H 321.592 4.55355 -1.74651 0
M  V30 3454 H 320.597 3.83741 -3.93729 0
M  V30 3455 H 321.822 4.79309 -4.81082 0
M  V30 3456 H 319.768 5.90338 -2.86072 0
M  V30 3457 H 319.685 6.00811 -4.5887 0
M  V30 3458 H 320.953 6.83984 -3.73879 0
M  V30 3459 N 325.182 1.32811 0.848464 0
M  V30 3460 C 326.598 1.11937 1.13764 0
M  V30 3461 C 326.798 -0.0960789 2.01271 0
M  V30 3462 O 325.854 -0.779165 2.40178 0
M  V30 3463 C 327.167 2.402 1.809 0
M  V30 3464 C 328.715 2.46016 1.93508 0
M  V30 3465 C 329.19 3.74215 2.64059 0
M  V30 3466 N 330.681 3.75232 2.71579 0
M  V30 3467 C 331.416 4.71134 3.26833 0
M  V30 3468 N 330.912 5.77406 3.8285 0
M  V30 3469 N 332.705 4.58623 3.24995 0
M  V30 3470 H 324.856 2.1073 0.265855 0
M  V30 3471 H 327.119 0.930671 0.180431 0
M  V30 3472 H 326.825 3.29093 1.24058 0
M  V30 3473 H 326.699 2.51628 2.81004 0
M  V30 3474 H 329.086 1.57577 2.49506 0
M  V30 3475 H 329.167 2.38536 0.923811 0
M  V30 3476 H 328.811 4.63031 2.08722 0
M  V30 3477 H 328.741 3.78968 3.65637 0
M  V30 3478 H 331.232 2.98423 2.31845 0
M  V30 3479 H 331.545 6.46632 4.23187 0
M  V30 3480 H 329.89 5.81152 3.81165 0
M  V30 3481 H 333.081 3.74762 2.80484 0
M  V30 3482 H 333.254 5.33535 3.67756 0
M  V30 3483 N 326.66 -1.06551 1.16123 0
M  V30 3484 C 328.071 -1.60768 0.949232 0
M  V30 3485 C 328.422 -1.89523 -0.507508 0
M  V30 3486 O 327.547 -1.66671 -1.38021 0
M  V30 3487 C 328.142 -2.92086 1.71671 0
M  V30 3488 C 326.701 -3.43015 1.54977 0
M  V30 3489 C 325.848 -2.16947 1.72711 0
M  V30 3490 H 328.799 -0.895354 1.31031 0
M  V30 3491 H 328.82 -3.6138 1.19099 0
M  V30 3492 H 328.332 -2.71127 2.7769 0
M  V30 3493 H 326.433 -3.69039 0.513873 0
M  V30 3494 H 326.546 -4.18516 2.33198 0
M  V30 3495 H 324.91 -2.27041 1.15431 0
M  V30 3496 H 325.693 -1.98473 2.80113 0
M  V30 3497 N 328.138 -0.959301 -1.25041 0
M  V30 3498 C 329.415 -0.533805 -1.88175 0
M  V30 3499 C 329.795 0.988994 -1.865 0
M  V30 3500 O 329.143 1.85677 -1.33177 0
M  V30 3501 C 329.353 -1.11575 -3.30684 0
M  V30 3502 C 330.701 -1.19548 -4.07423 0
M  V30 3503 O 331.725 -1.06765 -3.39823 0
M  V30 3504 O 330.584 -1.39656 -5.28354 0
M  V30 3505 H 327.678 -0.176772 -0.807887 0
M  V30 3506 H 330.224 -1.05303 -1.33076 0
M  V30 3507 H 328.996 -2.15884 -3.26358 0
M  V30 3508 H 328.619 -0.580059 -3.93346 0
M  V30 3509 N 329.616 1.39756 -0.72842 0
M  V30 3510 C 330.579 2.29012 -0.0927297 0
M  V30 3511 C 331.579 1.45992 0.674025 0
M  V30 3512 O 332.769 1.66749 0.50402 0
M  V30 3513 C 329.901 3.29396 0.878137 0
M  V30 3514 H 331.094 2.86729 -0.879011 0
M  V30 3515 H 328.647 1.48293 -0.493847 0
M  V30 3516 H 329.382 2.76722 1.69101 0
M  V30 3517 H 329.167 3.907 0.331051 0
M  V30 3518 H 330.657 3.96199 1.3197 0
M  V30 3519 N 331.094 0.475555 1.50254 0
M  V30 3520 C 332.371 -0.139685 1.95101 0
M  V30 3521 C 332.751 -1.56555 1.41611 0
M  V30 3522 O 332.099 -2.19956 0.618993 0
M  V30 3523 C 332.309 -0.0784298 3.48912 0
M  V30 3524 C 333.657 -0.265095 4.23772 0
M  V30 3525 O 334.681 -0.154808 3.55863 0
M  V30 3526 O 333.54 -0.488327 5.44314 0
M  V30 3527 H 330.634 -0.109236 0.819754 0
M  V30 3528 H 333.18 0.536276 1.61004 0
M  V30 3529 H 331.952 0.916918 3.80405 0
M  V30 3530 H 331.575 -0.795655 3.89558 0
M  V30 3531 N 332.573 -1.56217 0.208337 0
M  V30 3532 C 333.503 -2.22694 -0.702116 0
M  V30 3533 C 334.484 -1.19432 -1.2112 0
M  V30 3534 O 335.669 -1.47978 -1.25762 0
M  V30 3535 C 332.799 -2.8966 -1.9161 0
M  V30 3536 C 331.753 -3.9928 -1.5414 0
M  V30 3537 C 331.079 -4.53476 -2.83308 0
M  V30 3538 C 332.379 -5.17012 -0.741339 0
M  V30 3539 H 334.073 -2.99034 -0.147898 0
M  V30 3540 H 331.619 -1.43831 -0.0696951 0
M  V30 3541 H 333.572 -3.34852 -2.55836 0
M  V30 3542 H 332.296 -2.10746 -2.49507 0
M  V30 3543 H 330.955 -3.54799 -0.922668 0
M  V30 3544 H 330.603 -3.71308 -3.39322 0
M  V30 3545 H 330.303 -5.27451 -2.58976 0
M  V30 3546 H 331.827 -5.01378 -3.485 0
M  V30 3547 H 333.241 -5.58667 -1.28699 0
M  V30 3548 H 331.638 -5.97137 -0.595627 0
M  V30 3549 H 332.708 -4.8423 0.254851 0
M  V30 3550 N 334.051 0.0651679 -1.57465 0
M  V30 3551 C 334.998 1.07675 -2.04144 0
M  V30 3552 C 335.968 1.38071 -0.923335 0
M  V30 3553 O 337.153 1.49026 -1.19146 0
M  V30 3554 C 334.293 2.38337 -2.49579 0
M  V30 3555 C 333.406 2.14413 -3.75035 0
M  V30 3556 C 332.541 3.38686 -4.09225 0
M  V30 3557 C 331.58 3.10156 -5.27702 0
M  V30 3558 N 330.717 4.26778 -5.57499 0
M  V30 3559 H 335.557 0.671716 -2.90331 0
M  V30 3560 H 333.094 0.3201 -1.43575 0
M  V30 3561 H 335.052 3.14632 -2.73975 0
M  V30 3562 H 333.682 2.7663 -1.6636 0
M  V30 3563 H 332.734 1.2878 -3.57939 0
M  V30 3564 H 334.046 1.89344 -4.61466 0
M  V30 3565 H 333.2 4.23373 -4.34558 0
M  V30 3566 H 331.939 3.66837 -3.21374 0
M  V30 3567 H 330.944 2.23866 -5.02159 0
M  V30 3568 H 332.169 2.8332 -6.17176 0
M  V30 3569 H 330.115 4.54948 -4.72608 0
M  V30 3570 H 330.032 4.05005 -6.38362 0
M  V30 3571 H 331.3 5.12443 -5.87386 0
M  V30 3572 N 335.529 1.53961 0.336706 0
M  V30 3573 C 336.757 1.75483 1.09605 0
M  V30 3574 C 337.172 0.4972 1.82136 0
M  V30 3575 O 336.529 -0.53149 1.74589 0
M  V30 3576 C 336.58 2.93943 2.10428 0
M  V30 3577 O 336.301 4.14842 1.40846 0
M  V30 3578 C 337.802 3.27571 2.98684 0
M  V30 3579 H 335.022 0.586166 0.326574 0
M  V30 3580 H 337.566 2.00808 0.38683 0
M  V30 3581 H 335.721 2.70929 2.76905 0
M  V30 3582 H 336.135 4.81383 2.08255 0
M  V30 3583 H 337.609 4.13791 3.6535 0
M  V30 3584 H 338.086 2.44168 3.65074 0
M  V30 3585 H 338.692 3.52615 2.37787 0
M  V30 3586 N 337.007 -0.598083 1.45811 0
M  V30 3587 C 338.237 -1.38121 1.53643 0
M  V30 3588 C 338.645 -1.88425 0.171081 0
M  V30 3589 O 337.988 -1.63409 -0.839237 0
M  V30 3590 C 338.05 -2.61432 2.46766 0
M  V30 3591 C 337.714 -2.32702 3.93318 0
M  V30 3592 C 338.711 -1.92479 4.82957 0
M  V30 3593 C 336.396 -2.45321 4.38318 0
M  V30 3594 C 338.39 -1.65248 6.15607 0
M  V30 3595 C 336.077 -2.17703 5.71007 0
M  V30 3596 C 337.075 -1.7773 6.5947 0
M  V30 3597 O 336.763 -1.50441 7.89698 0
M  V30 3598 H 336.495 -0.428863 0.522544 0
M  V30 3599 H 339.049 -0.73557 1.91777 0
M  V30 3600 H 337.279 -3.28749 2.0362 0
M  V30 3601 H 338.968 -3.23487 2.45175 0
M  V30 3602 H 339.734 -1.82258 4.49452 0
M  V30 3603 H 335.613 -2.75399 3.69697 0
M  V30 3604 H 339.157 -1.33973 6.84614 0
M  V30 3605 H 335.054 -2.27544 6.04065 0
M  V30 3606 H 335.822 -1.64415 8.01817 0
M  V30 3607 N 338.485 -1.33259 -0.841409 0
M  V30 3608 C 339.732 -1.24572 -1.5965 0
M  V30 3609 C 340.06 0.189137 -1.93578 0
M  V30 3610 O 339.315 1.14566 -1.5866 0
M  V30 3611 C 339.614 -2.06381 -2.9179 0
M  V30 3612 C 339.28 -3.556 -2.77235 0
M  V30 3613 C 337.942 -3.96282 -2.72973 0
M  V30 3614 C 340.294 -4.50433 -2.62221 0
M  V30 3615 C 337.622 -5.30017 -2.51592 0
M  V30 3616 C 339.974 -5.84327 -2.42374 0
M  V30 3617 C 338.638 -6.24194 -2.36512 0
M  V30 3618 H 337.908 -0.455842 -0.5842 0
M  V30 3619 H 340.555 -1.6482 -0.975016 0
M  V30 3620 H 338.86 -1.58903 -3.5813 0
M  V30 3621 H 340.557 -1.97019 -3.49263 0
M  V30 3622 H 337.147 -3.23298 -2.81384 0
M  V30 3623 H 341.331 -4.19914 -2.64549 0
M  V30 3624 H 336.587 -5.59947 -2.45499 0
M  V30 3625 H 340.761 -6.57414 -2.29739 0
M  V30 3626 H 338.388 -7.27759 -2.19706 0
M  V30 3627 N 339.963 1.05934 -1.16686 0
M  V30 3628 C 341.191 1.8249 -0.974929 0
M  V30 3629 C 341.606 1.82679 0.476861 0
M  V30 3630 O 340.963 1.2486 1.33103 0
M  V30 3631 C 341.014 3.28943 -1.49929 0
M  V30 3632 O 340.735 3.28886 -2.89423 0
M  V30 3633 C 342.236 4.22215 -1.35089 0
M  V30 3634 H 339.456 0.575295 -0.345365 0
M  V30 3635 H 342 1.33631 -1.548 0
M  V30 3636 H 340.155 3.751 -0.968423 0
M  V30 3637 H 340.569 4.20493 -3.13506 0
M  V30 3638 H 342.043 5.22987 -1.76603 0
M  V30 3639 H 342.52 4.38195 -0.296935 0
M  V30 3640 H 343.126 3.81907 -1.87155 0
M  V30 3641 N 341.441 0.965919 1.2453 0
M  V30 3642 C 342.718 0.543777 1.87889 0
M  V30 3643 C 343.098 -0.97909 1.87021 0
M  V30 3644 O 342.446 -1.84969 1.3416 0
M  V30 3645 C 342.656 1.13327 3.30088 0
M  V30 3646 C 344.004 1.21707 4.06783 0
M  V30 3647 O 345.028 1.08566 3.39252 0
M  V30 3648 O 343.887 1.42456 5.27606 0
M  V30 3649 H 340.981 0.181054 0.806938 0
M  V30 3650 H 343.527 1.06007 1.32516 0
M  V30 3651 H 342.299 2.17612 3.25209 0
M  V30 3652 H 341.922 0.600911 3.93033 0
M  V30 3653 N 342.919 -1.39368 0.735821 0
M  V30 3654 C 343.866 -2.30599 0.0963825 0
M  V30 3655 C 344.836 -1.49257 -0.728794 0
M  V30 3656 O 346.021 -1.77941 -0.688588 0
M  V30 3657 C 343.161 -3.35596 -0.804305 0
M  V30 3658 C 342.274 -4.31987 0.0335761 0
M  V30 3659 C 341.409 -5.24053 -0.868461 0
M  V30 3660 C 340.448 -6.12095 -0.0258776 0
M  V30 3661 N 339.585 -6.96514 -0.883893 0
M  V30 3662 H 344.425 -2.8471 0.880002 0
M  V30 3663 H 341.962 -1.40188 0.445619 0
M  V30 3664 H 343.92 -3.95062 -1.34096 0
M  V30 3665 H 342.55 -2.82938 -1.55389 0
M  V30 3666 H 341.602 -3.74133 0.68766 0
M  V30 3667 H 342.914 -4.94074 0.685036 0
M  V30 3668 H 342.068 -5.88549 -1.47293 0
M  V30 3669 H 340.807 -4.62289 -1.5537 0
M  V30 3670 H 339.812 -5.4661 0.591386 0
M  V30 3671 H 341.037 -6.75923 0.656156 0
M  V30 3672 H 338.983 -6.37318 -1.55441 0
M  V30 3673 H 338.9 -7.55448 -0.288931 0
M  V30 3674 H 340.168 -7.65439 -1.4739 0
M  V30 3675 N 344.397 -0.483516 -1.5 0
M  V30 3676 C 345.344 0.304164 -2.28787 0
M  V30 3677 C 346.314 0.976114 -1.34392 0
M  V30 3678 O 347.499 0.986156 -1.63339 0
M  V30 3679 C 344.639 1.37298 -3.16612 0
M  V30 3680 C 343.752 0.714561 -4.26049 0
M  V30 3681 C 342.887 1.76232 -5.01114 0
M  V30 3682 C 341.926 1.08483 -6.0241 0
M  V30 3683 N 341.063 2.076 -6.70706 0
M  V30 3684 H 345.903 -0.373981 -2.95644 0
M  V30 3685 H 343.44 -0.196275 -1.45785 0
M  V30 3686 H 345.398 2.00445 -3.65893 0
M  V30 3687 H 344.028 2.02012 -2.51776 0
M  V30 3688 H 343.08 -0.0297798 -3.80388 0
M  V30 3689 H 344.392 0.180383 -4.98474 0
M  V30 3690 H 343.546 2.46929 -5.54176 0
M  V30 3691 H 342.285 2.33033 -4.28424 0
M  V30 3692 H 341.29 0.363545 -5.48597 0
M  V30 3693 H 342.515 0.523551 -6.77079 0
M  V30 3694 H 340.461 2.63394 -6.00799 0
M  V30 3695 H 340.378 1.59201 -7.39047 0
M  V30 3696 H 341.646 2.77639 -7.2838 0
M  V30 3697 N 345.875 1.56104 -0.216619 0
M  V30 3698 C 347.103 2.02563 0.421413 0
M  V30 3699 C 347.518 1.0965 1.53695 0
M  V30 3700 O 346.875 0.10521 1.82196 0
M  V30 3701 C 346.926 3.48584 0.957665 0
M  V30 3702 O 346.647 4.37953 -0.113389 0
M  V30 3703 C 348.148 4.10664 1.66943 0
M  V30 3704 H 345.368 0.662944 0.103665 0
M  V30 3705 H 347.912 2.01793 -0.331629 0
M  V30 3706 H 346.067 3.49985 1.661 0
M  V30 3707 H 346.481 5.23704 0.288932 0
M  V30 3708 H 347.955 5.14622 1.99671 0
M  V30 3709 H 348.432 3.55373 2.58083 0
M  V30 3710 H 349.038 4.13098 1.01142 0
M  V30 3711 N 347.353 -0.0568162 1.57498 0
M  V30 3712 C 348.303 -1.07315 2.01166 0
M  V30 3713 C 349.287 -1.33632 0.896171 0
M  V30 3714 O 350.479 -1.33682 1.16009 0
M  V30 3715 C 347.608 -2.38257 2.47161 0
M  V30 3716 C 346.694 -2.1515 3.65474 0
M  V30 3717 N 347.085 -1.62014 4.7915 0
M  V30 3718 C 345.383 -2.45559 3.72313 0
M  V30 3719 C 346.084 -1.54069 5.60926 0
M  V30 3720 N 345.06 -2.00652 5.05213 0
M  V30 3721 H 348.862 -0.655878 2.86488 0
M  V30 3722 H 346.376 -0.263635 1.60246 0
M  V30 3723 H 348.373 -3.11845 2.76691 0
M  V30 3724 H 347.033 -2.80687 1.63232 0
M  V30 3725 H 348.044 -1.30667 5.01145 0
M  V30 3726 H 344.721 -2.91253 2.99129 0
M  V30 3727 H 346.111 -1.13712 6.62208 0
M  V30 3728 N 348.832 -1.54138 -0.328536 0
M  V30 3729 C 349.762 -1.86167 -1.40939 0
M  V30 3730 C 350.743 -0.718044 -1.54202 0
M  V30 3731 O 351.928 -0.971328 -1.68163 0
M  V30 3732 C 349.058 -2.08461 -2.77779 0
M  V30 3733 C 348.012 -3.24299 -2.7931 0
M  V30 3734 C 347.338 -3.31955 -4.19178 0
M  V30 3735 C 348.638 -4.62065 -2.43502 0
M  V30 3736 H 350.332 -2.76689 -1.14383 0
M  V30 3737 H 347.878 -1.33132 -0.548806 0
M  V30 3738 H 349.831 -2.29453 -3.53454 0
M  V30 3739 H 348.555 -1.14684 -3.05802 0
M  V30 3740 H 347.214 -3.03187 -2.0609 0
M  V30 3741 H 346.862 -2.35745 -4.44335 0
M  V30 3742 H 346.562 -4.09805 -4.2111 0
M  V30 3743 H 348.086 -3.55175 -4.96672 0
M  V30 3744 H 349.5 -4.8297 -3.08889 0
M  V30 3745 H 347.897 -5.42429 -2.56693 0
M  V30 3746 H 348.967 -4.64652 -1.38659 0
M  V30 3747 N 350.31 0.590341 -1.46126 0
M  V30 3748 C 351.54 1.37304 -1.54373 0
M  V30 3749 C 351.948 1.88332 -0.181071 0
M  V30 3750 O 351.291 1.63852 0.830559 0
M  V30 3751 C 351.353 2.6012 -2.48149 0
M  V30 3752 C 351.017 2.30613 -3.94546 0
M  V30 3753 C 352.014 1.89915 -4.83971 0
M  V30 3754 C 349.699 2.42993 -4.39613 0
M  V30 3755 C 351.693 1.61981 -6.16475 0
M  V30 3756 C 349.38 2.14672 -5.72153 0
M  V30 3757 C 350.378 1.7423 -6.60404 0
M  V30 3758 O 350.066 1.46251 -7.90485 0
M  V30 3759 H 349.798 0.426086 -0.524811 0
M  V30 3760 H 352.352 0.72539 -1.92165 0
M  V30 3761 H 350.582 3.27664 -2.05361 0
M  V30 3762 H 352.271 3.22182 -2.46887 0
M  V30 3763 H 353.037 1.79872 -4.50412 0
M  V30 3764 H 348.916 2.73435 -3.71153 0
M  V30 3765 H 352.46 1.30341 -6.85315 0
M  V30 3766 H 348.357 2.24337 -6.05263 0
M  V30 3767 H 349.125 1.6016 -8.02677 0
M  V30 3768 N 351.788 1.33704 0.83433 0
M  V30 3769 C 353.016 1.28467 1.62185 0
M  V30 3770 C 353.431 -0.143526 1.88254 0
M  V30 3771 O 352.788 -1.08709 1.4659 0
M  V30 3772 C 352.839 2.06174 2.96942 0
M  V30 3773 O 352.56 3.43422 2.72016 0
M  V30 3774 C 354.061 2.08201 3.91366 0
M  V30 3775 H 351.281 0.4424 0.504503 0
M  V30 3776 H 353.825 1.76145 1.03891 0
M  V30 3777 H 351.98 1.62167 3.51825 0
M  V30 3778 H 352.394 3.83453 3.57861 0
M  V30 3779 H 353.868 2.67017 4.83121 0
M  V30 3780 H 354.345 1.07343 4.2588 0
M  V30 3781 H 354.951 2.52246 3.42421 0
M  V30 3782 N 353.266 -1.05314 1.17247 0
M  V30 3783 C 354.196 -2.1498 0.911362 0
M  V30 3784 C 355.177 -1.69471 -0.146169 0
M  V30 3785 O 356.362 -1.942 0.003812 0
M  V30 3786 C 353.492 -3.4472 0.422528 0
M  V30 3787 C 352.446 -4.03789 1.4191 0
M  V30 3788 C 351.772 -5.28858 0.788274 0
M  V30 3789 C 353.072 -4.41418 2.7919 0
M  V30 3790 H 354.766 -2.3708 1.82848 0
M  V30 3791 H 352.312 -1.13938 0.880569 0
M  V30 3792 H 354.265 -4.20787 0.227289 0
M  V30 3793 H 352.989 -3.22269 -0.530123 0
M  V30 3794 H 351.648 -3.2979 1.60106 0
M  V30 3795 H 351.296 -5.02709 -0.171173 0
M  V30 3796 H 350.996 -5.69338 1.45353 0
M  V30 3797 H 352.52 -6.07612 0.603282 0
M  V30 3798 H 353.934 -5.08524 2.64719 0
M  V30 3799 H 352.331 -4.92913 3.42282 0
M  V30 3800 H 353.401 -3.51819 3.33693 0
M  V30 3801 N 354.744 -0.972509 -1.24016 0
M  V30 3802 C 355.993 -0.632603 -1.91523 0
M  V30 3803 C 356.306 0.836641 -1.76804 0
M  V30 3804 O 357.512 1.28728 -2.39043 0
M  V30 3805 C 355.968 -1.08082 -3.43287 0
M  V30 3806 C 355.576 -2.57386 -3.66683 0
M  V30 3807 C 357.32 -0.814288 -4.16617 0
M  V30 3808 C 355.227 -2.95915 -5.12043 0
M  V30 3809 H 354.157 -0.232898 -0.717129 0
M  V30 3810 H 356.808 -1.17936 -1.40582 0
M  V30 3811 H 355.19 -0.462339 -3.93292 0
M  V30 3812 H 356.364 -3.24405 -3.27258 0
M  V30 3813 H 354.679 -2.81701 -3.06649 0
M  V30 3814 H 357.276 -1.0781 -5.23718 0
M  V30 3815 H 357.619 0.24955 -4.15551 0
M  V30 3816 H 358.152 -1.39397 -3.72577 0
M  V30 3817 H 354.891 -4.0139 -5.18234 0
M  V30 3818 H 354.411 -2.33584 -5.52448 0
M  V30 3819 H 356.09 -2.86086 -5.80314 0
M  V30 3820 N 356.222 1.38976 -0.743202 0
M  V30 3821 C 357.152 2.33171 -0.123873 0
M  V30 3822 C 358.133 1.54336 0.71516 0
M  V30 3823 O 359.318 1.82696 0.658467 0
M  V30 3824 C 356.448 3.38474 0.777978 0
M  V30 3825 C 355.402 4.27979 0.0424758 0
M  V30 3826 C 354.728 5.2405 1.06189 0
M  V30 3827 C 356.028 5.10155 -1.1198 0
M  V30 3828 H 357.722 2.85213 -0.910709 0
M  V30 3829 H 355.268 1.37133 -0.439388 0
M  V30 3830 H 357.221 4.03328 1.22084 0
M  V30 3831 H 355.945 2.84891 1.59702 0
M  V30 3832 H 354.604 3.64616 -0.380853 0
M  V30 3833 H 354.252 4.66758 1.87472 0
M  V30 3834 H 353.952 5.84785 0.574485 0
M  V30 3835 H 355.476 5.9178 1.50428 0
M  V30 3836 H 356.89 5.68307 -0.75499 0
M  V30 3837 H 355.287 5.80073 -1.53738 0
M  V30 3838 H 356.357 4.44504 -1.93764 0
M  V30 3839 N 357.7 0.491464 1.49741 0
M  V30 3840 C 358.648 -0.305837 2.30581 0
M  V30 3841 C 359.642 -0.971642 1.38764 0
M  V30 3842 O 360.848 -0.90042 1.5586 0
M  V30 3843 H 357.223 -0.117482 0.742767 0
M  V30 3844 H 359.194 0.396093 2.95759 0
M  V30 3845 C 357.943 -1.36319 3.19863 0
M  V30 3846 H 357.266 -0.860258 3.90435 0
M  V30 3847 H 358.706 -1.89323 3.79385 0
M  V30 3848 C 357.165 -2.37621 2.38826 0
M  V30 3849 O 357.695 -3.43311 2.08567 0
M  V30 3850 N 355.901 -2.09849 2.01026 0
M  V30 3851 H 355.448 -1.23922 2.25834 0
M  V30 3852 H 355.406 -2.77859 1.47112 0
M  V30 3853 N 359.178 -1.55987 0.224894 0
M  V30 3854 C 360.589 -1.84553 -0.282345 0
M  V30 3855 C 360.94 -1.14634 -1.59227 0
M  V30 3856 O 360.065 -0.417155 -2.12341 0
M  V30 3857 C 360.66 -3.348 -0.519062 0
M  V30 3858 C 359.219 -3.63671 -0.970604 0
M  V30 3859 C 358.366 -2.77277 -0.0355261 0
M  V30 3860 H 361.317 -1.52245 0.448006 0
M  V30 3861 H 361.338 -3.55187 -1.36463 0
M  V30 3862 H 360.85 -3.8566 0.43449 0
M  V30 3863 H 358.951 -3.1827 -1.9374 0
M  V30 3864 H 359.064 -4.71631 -0.842698 0
M  V30 3865 H 357.428 -2.48846 -0.542927 0
M  V30 3866 H 358.211 -3.30937 0.913003 0
M  V30 3867 N 360.656 0.0484629 -1.57525 0
M  V30 3868 C 361.933 0.777447 -1.79486 0
M  V30 3869 C 362.313 1.94597 -0.818251 0
M  V30 3870 O 361.661 2.28047 0.143767 0
M  V30 3871 C 361.871 1.22864 -3.26658 0
M  V30 3872 C 363.219 1.65251 -3.91123 0
M  V30 3873 O 364.243 1.32372 -3.3069 0
M  V30 3874 O 363.102 2.26207 -4.97486 0
M  V30 3875 H 360.196 0.374357 -0.737419 0
M  V30 3876 H 362.742 0.0267359 -1.69679 0
M  V30 3877 H 361.514 0.393589 -3.89316 0
M  V30 3878 H 361.137 2.03996 -3.41279 0
M  V30 3879 N 362.134 1.5431 0.320358 0
M  V30 3880 C 363.082 1.84647 1.4145 0
M  V30 3881 C 364.076 0.718624 1.53402 0
M  V30 3882 O 365.282 0.902335 1.5575 0
M  V30 3883 H 361.657 0.585349 0.472091 0
M  V30 3884 H 363.628 2.7614 1.13089 0
M  V30 3885 C 362.377 2.09341 2.77617 0
M  V30 3886 H 361.7 2.9559 2.69196 0
M  V30 3887 H 363.14 2.3452 3.53237 0
M  V30 3888 C 361.599 0.885939 3.25043 0
M  V30 3889 O 362.129 0.0967891 4.01583 0
M  V30 3890 N 360.335 0.696682 2.82125 0
M  V30 3891 H 359.882 1.34006 2.2 0
M  V30 3892 H 359.84 -0.109712 3.14209 0
M  V30 3893 N 363.613 -0.582584 1.46437 0
M  V30 3894 C 364.838 -1.37168 1.55563 0
M  V30 3895 C 365.263 -1.87061 0.19743 0
M  V30 3896 O 364.621 -1.61572 -0.822451 0
M  V30 3897 C 364.669 -2.53511 2.56446 0
M  V30 3898 O 363.773 -3.54953 2.09958 0
M  V30 3899 H 363.114 -0.408494 0.523477 0
M  V30 3900 H 365.644 -0.706646 1.9201 0
M  V30 3901 H 365.654 -3.00426 2.76058 0
M  V30 3902 H 364.329 -2.16549 3.55076 0
M  V30 3903 H 362.906 -3.14516 2.00334 0
M  V30 3904 N 365.091 -1.34144 -0.827227 0
M  V30 3905 C 366.338 -1.26258 -1.58319 0
M  V30 3906 C 366.666 0.168595 -1.93768 0
M  V30 3907 O 365.921 1.12877 -1.59866 0
M  V30 3908 C 366.22 -2.09464 -2.89585 0
M  V30 3909 C 365.886 -3.58521 -2.73448 0
M  V30 3910 C 364.548 -3.99155 -2.68754 0
M  V30 3911 C 366.9 -4.53189 -2.57428 0
M  V30 3912 C 364.228 -5.32656 -2.45957 0
M  V30 3913 C 366.58 -5.86864 -2.36163 0
M  V30 3914 C 365.244 -6.26667 -2.29879 0
M  V30 3915 H 364.514 -0.462013 -0.579332 0
M  V30 3916 H 367.161 -1.65845 -0.95748 0
M  V30 3917 H 365.466 -1.62692 -3.56425 0
M  V30 3918 H 367.163 -2.00712 -3.47154 0
M  V30 3919 H 363.753 -3.26264 -2.77939 0
M  V30 3920 H 367.937 -4.22696 -2.60081 0
M  V30 3921 H 363.193 -5.62519 -2.39546 0
M  V30 3922 H 367.367 -6.59813 -2.22754 0
M  V30 3923 H 364.994 -7.30049 -2.11975 0
M  V30 3924 N 366.569 1.04691 -1.17803 0
M  V30 3925 C 367.479 2.16057 -0.914151 0
M  V30 3926 C 368.495 1.73589 0.119503 0
M  V30 3927 O 369.671 2.01308 -0.0609468 0
M  V30 3928 C 366.736 3.4394 -0.436603 0
M  V30 3929 C 365.797 4.00825 -1.53746 0
M  V30 3930 C 365.03 5.22604 -1.0826 0
M  V30 3931 O 365.253 5.70367 0.0612244 0
M  V30 3932 O 364.187 5.7186 -1.87775 0
M  V30 3933 H 368.013 2.41169 -1.84584 0
M  V30 3934 H 365.598 1.1453 -0.959334 0
M  V30 3935 H 367.48 4.21024 -0.178057 0
M  V30 3936 H 366.155 3.20316 0.466869 0
M  V30 3937 H 365.062 3.25158 -1.84995 0
M  V30 3938 H 366.395 4.28778 -2.41683 0
M  V30 3939 N 368.047 0.979072 1.23499 0
M  V30 3940 C 369.296 0.642751 1.91185 0
M  V30 3941 C 369.609 -0.827253 1.77245 0
M  V30 3942 O 370.815 -1.27458 2.39722 0
M  V30 3943 C 369.271 1.09901 3.42709 0
M  V30 3944 C 368.879 2.59327 3.65313 0
M  V30 3945 C 370.623 0.836371 4.16179 0
M  V30 3946 C 368.53 2.98627 5.10467 0
M  V30 3947 H 367.46 0.236698 0.715884 0
M  V30 3948 H 370.111 1.1868 1.39955 0
M  V30 3949 H 368.493 0.48319 3.93041 0
M  V30 3950 H 369.667 3.26136 3.25533 0
M  V30 3951 H 367.982 2.83323 3.05151 0
M  V30 3952 H 370.579 1.10586 5.23139 0
M  V30 3953 H 370.922 -0.227509 4.15678 0
M  V30 3954 H 371.455 1.41371 3.71832 0
M  V30 3955 H 368.194 4.04133 5.16098 0
M  V30 3956 H 367.714 2.3651 5.51201 0
M  V30 3957 H 369.393 2.89159 5.78788 0
M  V30 3958 N 369.525 -1.3858 0.750561 0
M  V30 3959 C 370.455 -2.33102 0.136237 0
M  V30 3960 C 371.436 -1.54713 -0.706965 0
M  V30 3961 O 372.621 -1.83043 -0.648769 0
M  V30 3962 C 369.751 -3.38882 -0.760017 0
M  V30 3963 C 368.705 -4.27995 -0.0197785 0
M  V30 3964 C 368.031 -5.24605 -1.03408 0
M  V30 3965 C 369.331 -5.09554 1.14684 0
M  V30 3966 H 371.025 -2.84726 0.925822 0
M  V30 3967 H 368.571 -1.36898 0.446654 0
M  V30 3968 H 370.524 -4.0397 -1.19943 0
M  V30 3969 H 369.248 -2.85734 -1.58189 0
M  V30 3970 H 367.907 -3.64409 0.400184 0
M  V30 3971 H 367.555 -4.67746 -1.84994 0
M  V30 3972 H 367.255 -5.85081 -0.543464 0
M  V30 3973 H 368.779 -5.9257 -1.47288 0
M  V30 3974 H 370.193 -5.67899 0.785118 0
M  V30 3975 H 368.59 -5.7925 1.56812 0
M  V30 3976 H 369.66 -4.4347 1.96118 0
M  V30 3977 N 371.003 -0.499398 -1.49478 0
M  V30 3978 C 372.249 0.0457576 -2.02748 0
M  V30 3979 C 372.582 1.36793 -1.37846 0
M  V30 3980 O 371.857 1.87596 -0.513601 0
M  V30 3981 C 372.14 0.199986 -3.59544 0
M  V30 3982 C 371.993 -1.1452 -4.34977 0
M  V30 3983 C 373.312 0.94137 -4.29914 0
M  V30 3984 H 370.431 0.0151552 -0.736844 0
M  V30 3985 H 373.073 -0.650498 -1.78518 0
M  V30 3986 H 371.223 0.793007 -3.8032 0
M  V30 3987 H 372.895 -1.77697 -4.25701 0
M  V30 3988 H 371.138 -1.73488 -3.97598 0
M  V30 3989 H 371.809 -0.990607 -5.43039 0
M  V30 3990 H 374.285 0.43844 -4.13784 0
M  V30 3991 H 373.161 1.01812 -5.39375 0
M  V30 3992 H 373.422 1.98471 -3.95046 0
M  V30 3993 N 372.481 1.55866 -0.233164 0
M  V30 3994 C 373.758 1.90471 0.444988 0
M  V30 3995 C 374.138 1.15209 1.7689 0
M  V30 3996 O 373.486 0.265119 2.26957 0
M  V30 3997 C 373.696 3.4333 0.626559 0
M  V30 3998 C 375.044 4.14319 0.92871 0
M  V30 3999 O 376.068 3.48993 0.712926 0
M  V30 4000 O 374.927 5.29846 1.33887 0
M  V30 4001 H 372.021 0.792347 0.236885 0
M  V30 4002 H 374.567 1.67437 -0.276211 0
M  V30 4003 H 373.339 3.90095 -0.306822 0
M  V30 4004 H 372.962 3.72181 1.39881 0
M  V30 4005 N 373.959 -0.0401083 1.57549 0
M  V30 4006 C 374.891 -1.07149 2.02612 0
M  V30 4007 C 375.904 -1.33126 0.937085 0
M  V30 4008 O 377.093 -1.30808 1.21456 0
M  V30 4009 C 374.193 -2.41561 2.37701 0
M  V30 4010 C 373.366 -2.35096 3.68848 0
M  V30 4011 C 372.425 -3.51867 3.91249 0
M  V30 4012 O 371.451 -3.3186 4.62447 0
M  V30 4013 N 372.653 -4.73351 3.36035 0
M  V30 4014 H 375.418 -0.687485 2.91708 0
M  V30 4015 H 372.979 -0.228248 1.60283 0
M  V30 4016 H 374.971 -3.18379 2.49833 0
M  V30 4017 H 373.541 -2.71846 1.54332 0
M  V30 4018 H 372.761 -1.4345 3.67173 0
M  V30 4019 H 374.049 -2.27908 4.54901 0
M  V30 4020 H 373.447 -4.92507 2.78304 0
M  V30 4021 H 372.004 -5.47572 3.53565 0
M  V30 4022 N 375.437 -1.54477 -0.31217 0
M  V30 4023 C 376.662 -1.77526 -1.07235 0
M  V30 4024 C 377.087 -0.527775 -1.80544 0
M  V30 4025 O 376.445 0.52121 -1.73646 0
M  V30 4026 C 376.493 -2.97535 -2.03728 0
M  V30 4027 O 375.597 -2.69878 -3.11833 0
M  V30 4028 H 374.938 -0.58792 -0.30862 0
M  V30 4029 H 377.468 -2.01532 -0.352993 0
M  V30 4030 H 377.478 -3.25198 -2.46395 0
M  V30 4031 H 376.153 -3.87996 -1.49774 0
M  V30 4032 H 374.73 -2.53199 -2.7376 0
M  V30 4033 N 376.915 0.57481 -1.46744 0
M  V30 4034 C 378.161 1.3347 -1.52688 0
M  V30 4035 C 378.494 1.93353 -0.181229 0
M  V30 4036 O 377.769 1.76912 0.808237 0
M  V30 4037 C 378.052 2.45811 -2.63152 0
M  V30 4038 C 377.905 1.90912 -4.07275 0
M  V30 4039 C 379.224 3.47822 -2.69644 0
M  V30 4040 H 376.343 0.483935 -0.555856 0
M  V30 4041 H 378.985 0.644968 -1.78718 0
M  V30 4042 H 377.135 3.04646 -2.41088 0
M  V30 4043 H 378.807 1.36473 -4.4065 0
M  V30 4044 H 377.05 1.21691 -4.16382 0
M  V30 4045 H 377.721 2.72042 -4.80309 0
M  V30 4046 H 380.197 2.9888 -2.895 0
M  V30 4047 H 379.073 4.23876 -3.48742 0
M  V30 4048 H 379.334 4.05555 -1.76005 0
M  V30 4049 N 378.394 1.34581 0.820102 0
M  V30 4050 C 379.64 1.27285 1.57881 0
M  V30 4051 C 379.973 -0.156137 1.93571 0
M  V30 4052 O 379.248 -1.10222 1.60254 0
M  V30 4053 C 379.531 2.16639 2.87645 0
M  V30 4054 C 379.384 3.68088 2.58517 0
M  V30 4055 C 380.703 2.05378 3.8924 0
M  V30 4056 H 377.822 0.463714 0.572833 0
M  V30 4057 H 380.464 1.64859 0.944539 0
M  V30 4058 H 378.614 1.84725 3.41773 0
M  V30 4059 H 380.286 4.10382 2.10676 0
M  V30 4060 H 378.529 3.89038 1.91917 0
M  V30 4061 H 379.2 4.2598 3.51063 0
M  V30 4062 H 381.676 2.33404 3.44473 0
M  V30 4063 H 380.552 2.7012 4.77835 0
M  V30 4064 H 380.813 1.0316 4.29896 0
M  V30 4065 N 379.872 -1.04064 1.18357 0
M  V30 4066 C 380.82 -2.14187 0.907007 0
M  V30 4067 C 381.814 -1.68879 -0.132725 0
M  V30 4068 O 383.02 -1.79993 0.0154248 0
M  V30 4069 H 379.395 -0.699585 0.275835 0
M  V30 4070 H 381.366 -2.34711 1.84264 0
M  V30 4071 C 380.115 -3.44785 0.449254 0
M  V30 4072 H 379.438 -3.80058 1.24081 0
M  V30 4073 H 380.878 -4.22974 0.294737 0
M  V30 4074 C 379.337 -3.26391 -0.834909 0
M  V30 4075 O 379.867 -3.53973 -1.89911 0
M  V30 4076 N 378.073 -2.79726 -0.787523 0
M  V30 4077 H 377.62 -2.5748 0.0787347 0
M  V30 4078 H 377.578 -2.67798 -1.64716 0
M  V30 4079 N 381.35 -0.985608 -1.22978 0
M  V30 4080 C 382.575 -0.675254 -1.961 0
M  V30 4081 C 383 0.752154 -1.72407 0
M  V30 4082 O 382.358 1.5131 -0.998751 0
M  V30 4083 C 382.406 -0.977899 -3.47087 0
M  V30 4084 O 381.51 -0.072685 -4.12336 0
M  V30 4085 H 380.851 -0.253443 -0.613728 0
M  V30 4086 H 383.381 -1.32061 -1.56272 0
M  V30 4087 H 383.391 -0.916739 -3.97567 0
M  V30 4088 H 382.066 -2.01807 -3.63657 0
M  V30 4089 H 380.643 -0.188703 -3.72422 0
M  V30 4090 N 382.828 1.3818 -0.7579 0
M  V30 4091 C 384.076 1.99624 -0.315361 0
M  V30 4092 C 384.397 1.60464 1.10799 0
M  V30 4093 O 383.667 0.863507 1.75842 0
M  V30 4094 H 382.247 0.73831 -0.113611 0
M  V30 4095 H 384.909 1.68878 -0.972952 0
M  V30 4096 H 384.005 3.09754 -0.381931 0
M  V30 4097 N 384.306 0.507319 1.49211 0
M  V30 4098 C 385.254 -0.281364 2.30892 0
M  V30 4099 C 386.248 -0.95687 1.39787 0
M  V30 4100 O 387.454 -0.883838 1.56807 0
M  V30 4101 H 383.829 -0.109597 0.743971 0
M  V30 4102 H 385.8 0.42744 2.95323 0
M  V30 4103 C 384.549 -1.32918 3.21291 0
M  V30 4104 H 383.872 -0.818799 3.91326 0
M  V30 4105 H 385.312 -1.85288 3.81372 0
M  V30 4106 C 383.771 -2.35074 2.41333 0
M  V30 4107 O 384.301 -3.4108 2.12197 0
M  V30 4108 N 382.507 -2.07705 2.03241 0
M  V30 4109 H 382.054 -1.2152 2.27136 0
M  V30 4110 H 382.012 -2.76283 1.50051 0
M  V30 4111 N 385.784 -1.5574 0.241426 0
M  V30 4112 C 386.714 -2.24133 -0.654722 0
M  V30 4113 C 387.695 -1.21974 -1.1856 0
M  V30 4114 O 388.88 -1.50612 -1.22595 0
M  V30 4115 C 386.01 -2.93659 -1.85423 0
M  V30 4116 C 384.964 -4.0246 -1.45636 0
M  V30 4117 C 384.29 -4.59383 -2.73626 0
M  V30 4118 C 385.59 -5.18468 -0.631506 0
M  V30 4119 H 387.284 -2.99281 -0.0844353 0
M  V30 4120 H 384.83 -1.43947 -0.0391707 0
M  V30 4121 H 386.783 -3.40203 -2.48676 0
M  V30 4122 H 385.507 -2.15991 -2.44981 0
M  V30 4123 H 384.166 -3.56676 -0.847202 0
M  V30 4124 H 383.814 -3.78422 -3.3137 0
M  V30 4125 H 383.514 -5.32826 -2.4773 0
M  V30 4126 H 385.038 -5.08658 -3.37786 0
M  V30 4127 H 386.452 -5.61272 -1.1682 0
M  V30 4128 H 384.849 -5.98266 -0.468831 0
M  V30 4129 H 385.919 -4.8358 0.357506 0
M  V30 4130 N 387.262 0.0317525 -1.57568 0
M  V30 4131 C 388.192 1.03274 -2.0942 0
M  V30 4132 C 389.173 1.3788 -0.996143 0
M  V30 4133 O 390.358 1.46811 -1.27122 0
M  V30 4134 C 387.488 2.33448 -2.57137 0
M  V30 4135 C 386.442 2.13091 -3.71182 0
M  V30 4136 C 385.768 3.49001 -4.05095 0
M  V30 4137 C 387.068 1.51928 -4.99715 0
M  V30 4138 H 388.762 0.60112 -2.93303 0
M  V30 4139 H 386.308 0.287705 -1.41097 0
M  V30 4140 H 388.261 3.03802 -2.92032 0
M  V30 4141 H 386.985 2.78665 -1.70333 0
M  V30 4142 H 385.644 1.45171 -3.36632 0
M  V30 4143 H 385.292 3.91862 -3.15362 0
M  V30 4144 H 384.992 3.36207 -4.81911 0
M  V30 4145 H 386.516 4.20721 -4.42522 0
M  V30 4146 H 387.93 2.12196 -5.32584 0
M  V30 4147 H 386.327 1.49716 -5.81124 0
M  V30 4148 H 387.397 0.484811 -4.8247 0
M  V30 4149 N 388.74 1.54641 0.303973 0
M  V30 4150 C 389.688 1.86137 1.39484 0
M  V30 4151 C 390.682 0.734854 1.52631 0
M  V30 4152 O 391.888 0.918803 1.54784 0
M  V30 4153 H 388.263 0.590324 0.465856 0
M  V30 4154 H 390.234 2.77324 1.10154 0
M  V30 4155 C 388.983 2.12274 2.75382 0
M  V30 4156 H 388.306 2.98429 2.66046 0
M  V30 4157 H 389.746 2.38254 3.5073 0
M  V30 4158 C 388.205 0.920365 3.24085 0
M  V30 4159 O 388.735 0.139377 4.01458 0
M  V30 4160 N 386.941 0.726566 2.81371 0
M  V30 4161 H 386.488 1.36332 2.18567 0
M  V30 4162 H 386.446 -0.0763799 3.14307 0
M  V30 4163 N 390.218 -0.567019 1.47046 0
M  V30 4164 C 391.495 -1.3276 1.43646 0
M  V30 4165 C 391.875 -2.1071 0.128186 0
M  V30 4166 O 391.223 -2.10441 -0.890326 0
M  V30 4167 C 391.433 -2.2404 2.67595 0
M  V30 4168 C 392.781 -2.85372 3.14401 0
M  V30 4169 O 393.805 -2.34346 2.68254 0
M  V30 4170 O 392.664 -3.78091 3.946 0
M  V30 4171 H 389.758 -0.597293 0.571988 0
M  V30 4172 H 392.304 -0.586735 1.59234 0
M  V30 4173 H 391.076 -1.65975 3.54356 0
M  V30 4174 H 390.699 -3.05439 2.54544 0
M  V30 4175 N 391.696 -1.35014 -0.812953 0
M  V30 4176 C 392.629 -1.21761 -1.93001 0
M  V30 4177 C 393.607 -0.10694 -1.62248 0
M  V30 4178 O 394.791 -0.273891 -1.865 0
M  V30 4179 C 391.918 -0.873404 -3.27245 0
M  V30 4180 C 390.964 -1.99523 -3.76952 0
M  V30 4181 S 391.797 -3.61009 -3.95516 0
M  V30 4182 C 392.953 -3.28651 -5.32672 0
M  V30 4183 H 393.186 -2.16315 -2.03948 0
M  V30 4184 H 390.719 -1.20156 -0.969631 0
M  V30 4185 H 392.677 -0.68161 -4.04802 0
M  V30 4186 H 391.338 0.053971 -3.14054 0
M  V30 4187 H 390.531 -1.70838 -4.74163 0
M  V30 4188 H 390.133 -2.14503 -3.06373 0
M  V30 4189 H 392.425 -2.81085 -6.1644 0
M  V30 4190 H 393.368 -4.25039 -5.66346 0
M  V30 4191 H 393.776 -2.6458 -4.98656 0
M  V30 4192 N 393.175 1.03435 -1.18907 0
M  V30 4193 C 394.403 1.80381 -1.01342 0
M  V30 4194 C 394.818 1.83649 0.438005 0
M  V30 4195 O 394.175 1.27655 1.30424 0
M  V30 4196 C 394.226 3.25689 -1.56873 0
M  V30 4197 O 393.947 3.22673 -2.96334 0
M  V30 4198 C 395.448 4.19255 -1.44014 0
M  V30 4199 H 392.668 0.56784 -0.35749 0
M  V30 4200 H 395.212 1.30317 -1.576 0
M  V30 4201 H 393.367 3.72962 -1.04777 0
M  V30 4202 H 393.781 4.13748 -3.22355 0
M  V30 4203 H 395.255 5.19123 -1.87657 0
M  V30 4204 H 395.732 4.37467 -0.389815 0
M  V30 4205 H 396.338 3.77851 -1.95214 0
M  V30 4206 N 394.653 0.992116 1.22453 0
M  V30 4207 C 396.064 0.702776 1.72968 0
M  V30 4208 C 396.415 -0.780399 1.80012 0
M  V30 4209 O 395.54 -1.61007 1.44589 0
M  V30 4210 C 396.135 1.26903 3.14135 0
M  V30 4211 C 394.694 1.02909 3.62059 0
M  V30 4212 C 393.841 1.38969 2.39964 0
M  V30 4213 H 396.792 1.16457 1.07812 0
M  V30 4214 H 396.813 0.647223 3.74955 0
M  V30 4215 H 396.325 2.34851 3.08977 0
M  V30 4216 H 394.426 -0.0337979 3.72585 0
M  V30 4217 H 394.539 1.69191 4.48231 0
M  V30 4218 H 392.903 0.808279 2.41535 0
M  V30 4219 H 393.686 2.4792 2.37467 0
M  V30 4220 N 396.131 -1.37776 0.765217 0
M  V30 4221 C 397.542 -1.82521 0.392819 0
M  V30 4222 C 397.893 -1.63789 -1.08017 0
M  V30 4223 O 397.018 -1.14542 -1.83601 0
M  V30 4224 C 397.613 -3.31358 0.706214 0
M  V30 4225 C 396.172 -3.74406 0.386952 0
M  V30 4226 C 395.319 -2.60394 0.953422 0
M  V30 4227 H 398.27 -1.2634 0.960412 0
M  V30 4228 H 398.291 -3.80498 -0.0114706 0
M  V30 4229 H 397.803 -3.44959 1.77833 0
M  V30 4230 H 395.904 -3.66377 -0.678112 0
M  V30 4231 H 396.017 -4.70749 0.890636 0
M  V30 4232 H 394.381 -2.51878 0.378064 0
M  V30 4233 H 395.164 -2.76791 2.03081 0
M  V30 4234 N 397.609 -0.515225 -1.4894 0
M  V30 4235 C 398.855 0.0242508 -2.02785 0
M  V30 4236 C 399.188 1.35323 -1.39289 0
M  V30 4237 O 398.463 1.87041 -0.533469 0
M  V30 4238 C 398.746 0.16184 -3.59736 0
M  V30 4239 C 398.599 -1.19127 -4.33738 0
M  V30 4240 C 399.918 0.895719 -4.30888 0
M  V30 4241 H 397.037 0.00733914 -0.736963 0
M  V30 4242 H 399.679 -0.669395 -1.77818 0
M  V30 4243 H 397.829 0.752624 -3.8114 0
M  V30 4244 H 399.501 -1.82202 -4.23792 0
M  V30 4245 H 397.744 -1.77695 -3.95736 0
M  V30 4246 H 398.415 -1.04815 -5.41957 0
M  V30 4247 H 400.891 0.394528 -4.14225 0
M  V30 4248 H 399.767 0.960859 -5.40425 0
M  V30 4249 H 400.028 1.9427 -3.97129 0
M  V30 4250 N 399.087 1.5561 -0.249682 0
M  V30 4251 C 400.035 2.22894 0.664906 0
M  V30 4252 C 401.029 1.21743 1.17792 0
M  V30 4253 O 402.235 1.39748 1.13449 0
M  V30 4254 H 398.61 0.715022 0.232912 0
M  V30 4255 H 400.581 2.98307 0.0742998 0
M  V30 4256 C 399.33 2.94424 1.84959 0
M  V30 4257 H 398.653 3.72031 1.46399 0
M  V30 4258 H 400.093 3.44862 2.4667 0
M  V30 4259 C 398.552 1.98454 2.72245 0
M  V30 4260 O 399.082 1.51939 3.71857 0
M  V30 4261 N 397.288 1.65496 2.38871 0
M  V30 4262 H 396.835 2.03517 1.57919 0
M  V30 4263 H 396.793 1.0155 2.97548 0
M  V30 4264 N 400.565 -0.0233959 1.57583 0
M  V30 4265 C 401.976 -0.56927 1.77809 0
M  V30 4266 C 402.327 -1.75284 0.881472 0
M  V30 4267 O 401.452 -2.1626 0.0777805 0
M  V30 4268 C 402.047 -1.03949 3.22459 0
M  V30 4269 C 400.606 -1.53084 3.43864 0
M  V30 4270 C 399.753 -0.471454 2.73263 0
M  V30 4271 H 402.704 0.202825 1.57399 0
M  V30 4272 H 402.725 -1.90661 3.29285 0
M  V30 4273 H 402.237 -0.177865 3.87692 0
M  V30 4274 H 400.338 -2.41414 2.83814 0
M  V30 4275 H 400.451 -1.57443 4.52491 0
M  V30 4276 H 398.815 -0.927788 2.37201 0
M  V30 4277 H 399.598 0.380808 3.41181 0
M  V30 4278 N 402.043 -1.548 -0.295768 0
M  V30 4279 C 403.268 -1.78653 -1.05346 0
M  V30 4280 C 403.693 -0.546894 -1.79974 0
M  V30 4281 O 403.051 0.502763 -1.7419 0
M  V30 4282 C 403.099 -2.99679 -2.00561 0
M  V30 4283 O 402.203 -2.7317 -3.08953 0
M  V30 4284 H 401.544 -0.59116 -0.302367 0
M  V30 4285 H 404.074 -2.01895 -0.331598 0
M  V30 4286 H 404.084 -3.27793 -2.42932 0
M  V30 4287 H 402.759 -3.89562 -1.4565 0
M  V30 4288 H 401.336 -2.56089 -2.71059 0
M  V30 4289 N 403.521 0.559213 -1.47345 0
M  V30 4290 C 404.937 0.884943 -1.32819 0
M  V30 4291 C 405.137 1.98988 -0.317173 0
M  V30 4292 O 404.193 2.51031 0.272011 0
M  V30 4293 C 405.506 1.28007 -2.72093 0
M  V30 4294 C 407.054 1.39161 -2.80363 0
M  V30 4295 C 407.529 1.82031 -4.20272 0
M  V30 4296 N 409.02 1.89185 -4.22804 0
M  V30 4297 C 409.755 2.2368 -5.27973 0
M  V30 4298 N 409.251 2.56802 -6.43447 0
M  V30 4299 N 411.044 2.24436 -5.15349 0
M  V30 4300 H 403.195 -0.170304 -2.11716 0
M  V30 4301 H 405.458 -0.0135247 -0.947904 0
M  V30 4302 H 405.164 0.542027 -3.47498 0
M  V30 4303 H 405.038 2.23665 -3.03733 0
M  V30 4304 H 407.425 2.12048 -2.05231 0
M  V30 4305 H 407.506 0.41696 -2.52379 0
M  V30 4306 H 407.15 1.09715 -4.95908 0
M  V30 4307 H 407.08 2.80495 -4.45679 0
M  V30 4308 H 409.571 1.65982 -3.39497 0
M  V30 4309 H 409.884 2.82144 -7.19454 0
M  V30 4310 H 408.229 2.54387 -6.46771 0
M  V30 4311 H 411.42 1.97998 -4.24163 0
M  V30 4312 H 411.593 2.50989 -5.97418 0
M  V30 4313 N 404.999 1.35443 0.805782 0
M  V30 4314 C 405.909 1.30546 1.94923 0
M  V30 4315 C 406.925 0.210233 1.72725 0
M  V30 4316 O 408.101 0.43975 1.9654 0
M  V30 4317 C 405.166 1.07782 3.29521 0
M  V30 4318 C 404.227 2.26625 3.64609 0
M  V30 4319 C 403.46 2.04938 4.92784 0
M  V30 4320 O 403.683 1.01624 5.61274 0
M  V30 4321 O 402.617 2.9232 5.26149 0
M  V30 4322 H 406.443 2.26779 2.02002 0
M  V30 4323 H 404.028 1.15823 0.943682 0
M  V30 4324 H 405.91 0.969392 4.10098 0
M  V30 4325 H 404.585 0.146003 3.23371 0
M  V30 4326 H 403.492 2.43033 2.84404 0
M  V30 4327 H 404.825 3.18257 3.75464 0
M  V30 4328 N 406.477 -1.02803 1.19454 0
M  V30 4329 C 407.726 -1.7562 0.991996 0
M  V30 4330 C 408.039 -1.89672 -0.477901 0
M  V30 4331 O 409.245 -2.59468 -0.799287 0
M  V30 4332 C 407.701 -3.15812 1.72601 0
M  V30 4333 C 407.309 -3.0981 3.23607 0
M  V30 4334 C 409.053 -3.92918 1.60674 0
M  V30 4335 C 406.96 -4.44939 3.89594 0
M  V30 4336 H 405.89 -0.658352 0.367543 0
M  V30 4337 H 408.541 -1.15044 1.42959 0
M  V30 4338 H 406.923 -3.7686 1.21624 0
M  V30 4339 H 408.097 -2.58138 3.81709 0
M  V30 4340 H 406.412 -2.46201 3.35819 0
M  V30 4341 H 409.009 -4.9287 2.07323 0
M  V30 4342 H 409.352 -4.12502 0.561025 0
M  V30 4343 H 409.885 -3.38472 2.09001 0
M  V30 4344 H 406.624 -4.30559 4.94267 0
M  V30 4345 H 406.144 -4.96664 3.36281 0
M  V30 4346 H 407.823 -5.1382 3.93189 0
M  V30 4347 N 407.956 -0.998596 -1.21925 0
M  V30 4348 C 408.866 -0.562736 -2.27751 0
M  V30 4349 C 409.882 0.391203 -1.69545 0
M  V30 4350 O 411.058 0.256625 -1.99758 0
M  V30 4351 C 408.123 0.11012 -3.46525 0
M  V30 4352 C 407.184 -0.887495 -4.20026 0
M  V30 4353 C 406.417 -0.246654 -5.3313 0
M  V30 4354 O 406.64 0.958088 -5.62296 0
M  V30 4355 O 405.574 -0.954374 -5.94286 0
M  V30 4356 H 409.4 -1.44329 -2.67213 0
M  V30 4357 H 406.985 -0.767135 -1.28201 0
M  V30 4358 H 408.867 0.486756 -4.18579 0
M  V30 4359 H 407.542 0.965154 -3.08976 0
M  V30 4360 H 406.449 -1.31517 -3.5022 0
M  V30 4361 H 407.782 -1.71191 -4.6147 0
M  V30 4362 N 409.434 1.37368 -0.772513 0
M  V30 4363 C 410.711 1.93839 -0.26188 0
M  V30 4364 C 411.091 1.7061 1.24319 0
M  V30 4365 O 410.439 1.05534 2.02669 0
M  V30 4366 C 410.649 3.43154 -0.636102 0
M  V30 4367 C 411.997 4.20249 -0.606324 0
M  V30 4368 O 413.021 3.5152 -0.575538 0
M  V30 4369 O 411.88 5.42809 -0.634086 0
M  V30 4370 H 408.974 0.82478 -0.0605555 0
M  V30 4371 H 411.52 1.4665 -0.853917 0
M  V30 4372 H 410.292 3.53647 -1.6748 0
M  V30 4373 H 409.915 3.97596 -0.0170516 0
M  V30 4374 N 410.912 0.523116 1.48665 0
M  V30 4375 C 412.323 0.0808997 1.86525 0
M  V30 4376 C 412.674 -1.33975 1.43336 0
M  V30 4377 O 411.799 -2.00221 0.821009 0
M  V30 4378 C 412.394 0.140037 3.3851 0
M  V30 4379 C 410.953 -0.246948 3.75589 0
M  V30 4380 C 410.1 0.502845 2.72703 0
M  V30 4381 H 413.051 0.734736 1.40667 0
M  V30 4382 H 413.072 -0.649945 3.74908 0
M  V30 4383 H 412.584 1.17412 3.69914 0
M  V30 4384 H 410.685 -1.28343 3.49798 0
M  V30 4385 H 410.798 0.0878859 4.79019 0
M  V30 4386 H 409.162 -0.0500581 2.54651 0
M  V30 4387 H 409.945 1.53743 3.0695 0
M  V30 4388 N 412.39 -1.55475 0.257931 0
M  V30 4389 C 413.3 -2.2549 -0.647425 0
M  V30 4390 C 414.316 -1.2748 -1.18427 0
M  V30 4391 O 415.492 -1.6038 -1.2182 0
M  V30 4392 C 412.557 -2.94916 -1.82278 0
M  V30 4393 C 411.618 -4.08363 -1.32432 0
M  V30 4394 C 410.851 -4.74469 -2.44366 0
M  V30 4395 O 411.074 -4.39701 -3.63344 0
M  V30 4396 O 410.008 -5.62763 -2.13497 0
M  V30 4397 H 413.834 -3.03593 -0.0807707 0
M  V30 4398 H 411.419 -1.49377 0.0259962 0
M  V30 4399 H 413.301 -3.38606 -2.50846 0
M  V30 4400 H 411.976 -2.19744 -2.37685 0
M  V30 4401 H 410.883 -3.69166 -0.605605 0
M  V30 4402 H 412.216 -4.85385 -0.816211 0
M  V30 4403 N 413.868 0.0150385 -1.57593 0
M  V30 4404 C 415.145 0.7392 -1.81094 0
M  V30 4405 C 415.525 1.92817 -0.859344 0
M  V30 4406 O 414.873 2.28301 0.095362 0
M  V30 4407 C 415.083 1.15907 -3.29191 0
M  V30 4408 C 416.431 1.56918 -3.9454 0
M  V30 4409 O 417.455 1.25328 -3.33424 0
M  V30 4410 O 416.314 2.15604 -5.02173 0
M  V30 4411 H 413.408 0.358631 -0.745193 0
M  V30 4412 H 415.954 -0.00926156 -1.69697 0
M  V30 4413 H 414.726 0.310921 -3.90063 0
M  V30 4414 H 414.349 1.96711 -3.45529 0
M  V30 4415 N 415.346 1.54954 0.287554 0
M  V30 4416 C 416.762 1.46469 0.633964 0
M  V30 4417 C 416.962 0.666865 1.90145 0
M  V30 4418 O 416.018 0.179906 2.51858 0
M  V30 4419 C 417.331 2.90556 0.774454 0
M  V30 4420 C 418.879 3.00681 0.869462 0
M  V30 4421 C 419.354 4.45993 1.04184 0
M  V30 4422 N 420.845 4.4976 1.10772 0
M  V30 4423 C 421.58 5.59393 1.25964 0
M  V30 4424 N 421.076 6.78923 1.37968 0
M  V30 4425 N 422.869 5.47107 1.28959 0
M  V30 4426 H 415.02 2.05288 -0.545041 0
M  V30 4427 H 417.283 0.930305 -0.182308 0
M  V30 4428 H 416.989 3.51594 -0.086207 0
M  V30 4429 H 416.863 3.38743 1.6593 0
M  V30 4430 H 419.25 2.39749 1.7206 0
M  V30 4431 H 419.331 2.55769 -0.0396831 0
M  V30 4432 H 418.975 5.07524 0.195422 0
M  V30 4433 H 418.905 4.88548 1.96542 0
M  V30 4434 H 421.396 3.63651 1.02794 0
M  V30 4435 H 421.709 7.58231 1.49353 0
M  V30 4436 H 420.054 6.81763 1.34999 0
M  V30 4437 H 423.245 4.52668 1.19202 0
M  V30 4438 H 423.418 6.32595 1.40455 0
M  V30 4439 N 416.824 -0.551391 1.4764 0
M  V30 4440 C 417.771 -1.65796 1.60563 0
M  V30 4441 C 418.741 -1.59932 0.448428 0
M  V30 4442 O 419.926 -1.78679 0.669222 0
M  V30 4443 C 417.066 -3.04108 1.63133 0
M  V30 4444 C 416.179 -3.20365 2.89811 0
M  V30 4445 C 415.314 -4.49109 2.8368 0
M  V30 4446 C 414.353 -4.58819 4.05156 0
M  V30 4447 N 413.49 -5.78926 3.97227 0
M  V30 4448 H 418.33 -1.54088 2.5507 0
M  V30 4449 H 415.867 -0.75052 1.26513 0
M  V30 4450 H 417.825 -3.84207 1.62606 0
M  V30 4451 H 416.455 -3.14637 0.721341 0
M  V30 4452 H 415.507 -2.33659 3.00179 0
M  V30 4453 H 416.819 -3.23402 3.79753 0
M  V30 4454 H 415.973 -5.37475 2.81434 0
M  V30 4455 H 414.712 -4.4856 1.91431 0
M  V30 4456 H 413.717 -3.68864 4.077 0
M  V30 4457 H 414.942 -4.61124 4.98539 0
M  V30 4458 H 412.888 -5.79314 3.07785 0
M  V30 4459 H 412.805 -5.83367 4.80853 0
M  V30 4460 H 414.073 -6.69637 3.99007 0
M  V30 4461 N 418.302 -1.35869 -0.798587 0
M  V30 4462 C 419.713 -1.26498 -1.37314 0
M  V30 4463 C 420.064 0.0991899 -1.95949 0
M  V30 4464 O 419.189 1.0004 -1.91888 0
M  V30 4465 C 419.784 -2.29054 -2.49639 0
M  V30 4466 C 418.343 -2.234 -3.02935 0
M  V30 4467 C 417.49 -2.14329 -1.75949 0
M  V30 4468 H 420.441 -1.46881 -0.600971 0
M  V30 4469 H 420.462 -1.92166 -3.28409 0
M  V30 4470 H 419.974 -3.2833 -2.06933 0
M  V30 4471 H 418.075 -1.27562 -3.50084 0
M  V30 4472 H 418.188 -3.15703 -3.60372 0
M  V30 4473 H 416.552 -1.60435 -1.9782 0
M  V30 4474 H 417.335 -3.15477 -1.35384 0
M  V30 4475 N 419.78 1.02168 -1.19998 0
M  V30 4476 C 420.69 2.14069 -0.959774 0
M  V30 4477 C 421.706 1.73804 0.082655 0
M  V30 4478 O 422.882 2.01133 -0.103633 0
M  V30 4479 C 419.947 3.42936 -0.509459 0
M  V30 4480 C 419.008 3.97474 -1.62213 0
M  V30 4481 C 418.241 5.2019 -1.19321 0
M  V30 4482 O 418.464 5.70369 -0.0597726 0
M  V30 4483 O 417.398 5.67749 -1.99863 0
M  V30 4484 H 421.224 2.37199 -1.89658 0
M  V30 4485 H 418.809 1.12469 -0.983411 0
M  V30 4486 H 420.691 4.20551 -0.267322 0
M  V30 4487 H 419.366 3.21234 0.398821 0
M  V30 4488 H 418.273 3.21161 -1.9185 0
M  V30 4489 H 419.606 4.23555 -2.50723 0
M  V30 4490 N 421.258 1.00505 1.21394 0
M  V30 4491 C 422.535 0.603277 1.86064 0
M  V30 4492 C 422.915 -0.919095 1.90042 0
M  V30 4493 O 422.263 -1.80607 1.39977 0
M  V30 4494 C 422.473 1.23772 3.26315 0
M  V30 4495 C 423.821 1.34586 4.02705 0
M  V30 4496 O 424.845 1.19304 3.35626 0
M  V30 4497 O 423.704 1.59169 5.22807 0
M  V30 4498 H 420.798 0.206634 0.800769 0
M  V30 4499 H 423.344 1.1017 1.29076 0
M  V30 4500 H 422.116 2.27848 3.18121 0
M  V30 4501 H 421.739 0.725648 3.90922 0
M  V30 4502 N 422.737 -1.36956 0.779787 0
M  V30 4503 C 423.983 -2.00237 0.357324 0
M  V30 4504 C 424.338 -1.60787 -1.05666 0
M  V30 4505 O 423.631 -0.847836 -1.71821 0
M  V30 4506 C 423.825 -3.54585 0.447686 0
M  V30 4507 C 423.654 -4.09025 1.86891 0
M  V30 4508 C 422.424 -4.39612 2.49138 0
M  V30 4509 C 424.622 -4.29461 2.82963 0
M  V30 4510 N 422.604 -4.79816 3.82949 0
M  V30 4511 C 423.975 -4.72363 4.01588 0
M  V30 4512 C 426.03 -4.1161 2.80145 0
M  V30 4513 C 424.733 -4.99284 5.17791 0
M  V30 4514 C 426.759 -4.39672 3.95528 0
M  V30 4515 C 426.121 -4.82822 5.12896 0
M  V30 4516 H 422.22 -0.76148 0.177968 0
M  V30 4517 H 424.804 -1.6613 1.01533 0
M  V30 4518 H 422.975 -3.87982 -0.180184 0
M  V30 4519 H 424.707 -4.047 0.0023955 0
M  V30 4520 H 421.462 -4.28975 2.00693 0
M  V30 4521 H 421.886 -5.04216 4.51769 0
M  V30 4522 H 426.528 -3.77415 1.90572 0
M  V30 4523 H 424.246 -5.32365 6.07958 0
M  V30 4524 H 427.832 -4.27441 3.94697 0
M  V30 4525 H 426.712 -5.04118 6.00695 0
M  V30 4526 N 424.215 -0.530993 -1.48385 0
M  V30 4527 C 425.492 0.0671788 -1.95485 0
M  V30 4528 C 425.872 1.51191 -1.47324 0
M  V30 4529 O 425.22 2.17507 -0.700202 0
M  V30 4530 C 425.43 -0.0511206 -3.48963 0
M  V30 4531 C 426.778 0.107632 -4.24464 0
M  V30 4532 O 427.802 0.0226248 -3.56193 0
M  V30 4533 O 426.661 0.285972 -5.45751 0
M  V30 4534 H 423.755 0.0787365 -0.823243 0
M  V30 4535 H 426.301 -0.595662 -1.58902 0
M  V30 4536 H 425.073 -1.05747 -3.7674 0
M  V30 4537 H 424.696 0.650525 -3.92242 0
M  V30 4538 N 425.693 1.55336 -0.266172 0
M  V30 4539 C 426.603 2.2583 0.635458 0
M  V30 4540 C 427.619 1.28106 1.17749 0
M  V30 4541 O 428.795 1.61024 1.20968 0
M  V30 4542 C 425.86 2.95879 1.80712 0
M  V30 4543 C 424.921 4.09059 1.30265 0
M  V30 4544 C 424.154 4.75759 2.41846 0
M  V30 4545 O 424.377 4.41622 3.61007 0
M  V30 4546 O 423.311 5.63888 2.1051 0
M  V30 4547 H 427.137 3.03631 0.0646693 0
M  V30 4548 H 424.722 1.49361 -0.0339177 0
M  V30 4549 H 426.604 3.39932 2.49047 0
M  V30 4550 H 425.279 2.21002 2.36516 0
M  V30 4551 H 424.186 3.69482 0.586019 0
M  V30 4552 H 425.519 4.85811 0.790458 0
M  V30 4553 N 427.171 -0.0066808 1.57599 0
M  V30 4554 C 428.587 -0.36267 1.55425 0
M  V30 4555 C 428.787 -1.75209 0.995187 0
M  V30 4556 O 427.843 -2.44616 0.626058 0
M  V30 4557 C 429.156 -0.244017 2.99708 0
M  V30 4558 C 430.704 -0.319451 3.11366 0
M  V30 4559 C 431.179 -0.229998 4.57422 0
M  V30 4560 N 432.67 -0.288105 4.62303 0
M  V30 4561 C 433.405 -0.242127 5.72889 0
M  V30 4562 N 432.901 -0.147133 6.92644 0
M  V30 4563 N 434.694 -0.293502 5.61333 0
M  V30 4564 H 426.845 0.902314 1.92281 0
M  V30 4565 H 429.108 0.34525 0.882896 0
M  V30 4566 H 428.814 0.711678 3.44424 0
M  V30 4567 H 428.688 -1.02877 3.629 0
M  V30 4568 H 431.075 -1.26559 2.66584 0
M  V30 4569 H 431.156 0.495055 2.50964 0
M  V30 4570 H 430.8 0.712566 5.02877 0
M  V30 4571 H 430.73 -1.0629 5.15761 0
M  V30 4572 H 433.221 -0.363126 3.76151 0
M  V30 4573 H 433.534 -0.117763 7.7271 0
M  V30 4574 H 431.879 -0.112857 6.94908 0
M  V30 4575 H 435.07 -0.365864 4.66668 0
M  V30 4576 H 435.243 -0.254204 6.47501 0
M  V30 4577 N 428.649 -1.55105 -0.279332 0
M  V30 4578 C 430.06 -1.66186 -0.850832 0
M  V30 4579 C 430.411 -0.584707 -1.87285 0
M  V30 4580 O 429.536 0.274919 -2.14647 0
M  V30 4581 C 430.131 -3.01264 -1.55001 0
M  V30 4582 C 428.69 -3.14394 -2.06963 0
M  V30 4583 C 427.837 -2.61959 -0.909536 0
M  V30 4584 H 430.788 -1.58602 -0.0558235 0
M  V30 4585 H 430.809 -2.93899 -2.41669 0
M  V30 4586 H 430.321 -3.7964 -0.805931 0
M  V30 4587 H 428.422 -2.4078 -2.84352 0
M  V30 4588 H 428.535 -4.20867 -2.28928 0
M  V30 4589 H 426.899 -2.18957 -1.30116 0
M  V30 4590 H 427.682 -3.42833 -0.179062 0
M  V30 4591 N 430.127 0.543554 -1.4793 0
M  V30 4592 C 431.074 1.64942 -1.6144 0
M  V30 4593 C 432.044 1.59692 -0.456903 0
M  V30 4594 O 433.229 1.78321 -0.678688 0
M  V30 4595 C 430.369 3.03238 -1.64744 0
M  V30 4596 C 429.482 3.18823 -2.91506 0
M  V30 4597 C 428.617 4.47599 -2.86057 0
M  V30 4598 C 427.656 4.56664 -4.07584 0
M  V30 4599 N 426.793 5.76811 -4.00292 0
M  V30 4600 H 431.633 1.52733 -2.55884 0
M  V30 4601 H 429.17 0.7438 -1.2691 0
M  V30 4602 H 431.128 3.83339 -1.64641 0
M  V30 4603 H 429.758 3.1425 -0.738017 0
M  V30 4604 H 428.81 2.32064 -3.01414 0
M  V30 4605 H 430.122 3.21384 -3.81463 0
M  V30 4606 H 429.276 5.35975 -2.84281 0
M  V30 4607 H 428.015 4.47538 -1.93807 0
M  V30 4608 H 427.02 3.66697 -4.09651 0
M  V30 4609 H 428.245 4.58474 -5.00978 0
M  V30 4610 H 426.191 5.77673 -3.10853 0
M  V30 4611 H 426.108 5.80808 -4.8394 0
M  V30 4612 H 427.376 6.67512 -4.02553 0
M  V30 4613 N 431.605 1.3629 0.791371 0
M  V30 4614 C 432.854 1.29742 1.54434 0
M  V30 4615 C 433.167 -0.121729 1.95221 0
M  V30 4616 O 434.373 -0.309579 2.69729 0
M  V30 4617 C 432.829 2.27623 2.78776 0
M  V30 4618 C 432.437 3.74963 2.45166 0
M  V30 4619 C 434.181 2.30047 3.56761 0
M  V30 4620 C 432.088 4.64626 3.65891 0
M  V30 4621 H 431.018 0.482113 0.579727 0
M  V30 4622 H 433.669 1.61642 0.868565 0
M  V30 4623 H 432.051 1.88714 3.48142 0
M  V30 4624 H 433.225 4.22596 1.83709 0
M  V30 4625 H 431.54 3.75295 1.80396 0
M  V30 4626 H 434.137 2.94247 4.46456 0
M  V30 4627 H 434.48 1.30846 3.95203 0
M  V30 4628 H 435.013 2.67563 2.94372 0
M  V30 4629 H 431.752 5.64883 3.32547 0
M  V30 4630 H 431.272 4.2171 4.26521 0
M  V30 4631 H 432.951 4.80801 4.32943 0
M  V30 4632 N 433.083 -1.0153 1.20538 0
M  V30 4633 C 434.494 -1.56598 1.01657 0
M  V30 4634 C 434.845 -1.91505 -0.426668 0
M  V30 4635 O 433.97 -1.72375 -1.30827 0
M  V30 4636 C 434.565 -2.84542 1.83905 0
M  V30 4637 C 433.124 -3.36133 1.69386 0
M  V30 4638 C 432.271 -2.09427 1.81757 0
M  V30 4639 H 435.222 -0.838974 1.34711 0
M  V30 4640 H 435.243 -3.56004 1.34319 0
M  V30 4641 H 434.755 -2.59105 2.8894 0
M  V30 4642 H 432.856 -3.66528 0.669933 0
M  V30 4643 H 432.969 -4.08248 2.50739 0
M  V30 4644 H 431.333 -2.21941 1.24957 0
M  V30 4645 H 432.116 -1.86414 2.88279 0
M  V30 4646 N 434.561 -1.01147 -1.20859 0
M  V30 4647 C 435.838 -0.613136 -1.85742 0
M  V30 4648 C 436.218 0.909004 -1.90526 0
M  V30 4649 O 435.566 1.79862 -1.40932 0
M  V30 4650 C 435.776 -1.255 -3.25654 0
M  V30 4651 C 437.124 -1.3672 -4.01986 0
M  V30 4652 O 438.148 -1.21082 -3.34989 0
M  V30 4653 O 437.007 -1.6194 -5.21956 0
M  V30 4654 H 434.101 -0.210878 -0.799662 0
M  V30 4655 H 436.647 -1.10853 -1.2849 0
M  V30 4656 H 435.419 -2.29532 -3.16908 0
M  V30 4657 H 435.042 -0.746369 -3.90532 0
M  V30 4658 N 436.039 1.36541 -0.78704 0
M  V30 4659 C 437.45 1.81873 -0.421807 0
M  V30 4660 C 437.801 1.65487 1.05397 0
M  V30 4661 O 436.926 1.17448 1.81755 0
M  V30 4662 C 437.521 3.30192 -0.758841 0
M  V30 4663 C 436.08 3.73743 -0.446468 0
M  V30 4664 C 435.227 2.58844 -0.994728 0
M  V30 4665 H 438.178 1.24796 -0.98039 0
M  V30 4666 H 438.199 3.80468 -0.0490648 0
M  V30 4667 H 437.711 3.42087 -1.83299 0
M  V30 4668 H 435.812 3.6741 0.619739 0
M  V30 4669 H 435.925 4.69272 -0.965415 0
M  V30 4670 H 434.289 2.51245 -0.418087 0
M  V30 4671 H 435.072 2.73525 -2.07458 0
M  V30 4672 N 437.518 0.538854 1.48102 0
M  V30 4673 C 438.428 -0.222648 2.33541 0
M  V30 4674 C 439.444 -0.930225 1.47047 0
M  V30 4675 O 440.62 -0.903211 1.80011 0
M  V30 4676 C 437.685 -1.25064 3.23357 0
M  V30 4677 C 436.746 -0.552469 4.2573 0
M  V30 4678 C 435.979 -1.53149 5.11254 0
M  V30 4679 O 436.202 -2.76487 4.9891 0
M  V30 4680 O 435.136 -1.06602 5.92385 0
M  V30 4681 H 438.962 0.477707 2.99919 0
M  V30 4682 H 436.547 0.299669 1.46364 0
M  V30 4683 H 438.429 -1.8445 3.78888 0
M  V30 4684 H 437.104 -1.93325 2.59629 0
M  V30 4685 H 436.011 0.082114 3.7401 0
M  V30 4686 H 437.344 0.0883526 4.92121 0
M  V30 4687 N 438.996 -1.55193 0.274407 0
M  V30 4688 C 439.959 -2.212 -0.600279 0
M  V30 4689 C 440.959 -1.18963 -1.08187 0
M  V30 4690 O 442.149 -1.43873 -0.982158 0
M  V30 4691 C 439.281 -2.87739 -1.82809 0
M  V30 4692 H 440.474 -2.9989 -0.0239682 0
M  V30 4693 H 438.027 -1.5628 0.0250192 0
M  V30 4694 H 438.762 -2.13058 -2.44493 0
M  V30 4695 H 438.547 -3.62658 -1.49069 0
M  V30 4696 H 440.037 -3.38171 -2.45011 0
M  V30 4697 N 440.474 -0.00167713 -1.576 0
M  V30 4698 C 441.72 0.683832 -1.90923 0
M  V30 4699 C 442.053 1.7333 -0.875799 0
M  V30 4700 O 441.328 1.94215 0.10525 0
M  V30 4701 C 441.611 1.32543 -3.3482 0
M  V30 4702 C 441.464 0.287387 -4.48881 0
M  V30 4703 C 442.783 2.25114 -3.78169 0
M  V30 4704 H 439.902 0.247125 -0.694333 0
M  V30 4705 H 442.544 -0.0533149 -1.89925 0
M  V30 4706 H 440.694 1.95372 -3.35801 0
M  V30 4707 H 442.366 -0.341346 -4.60035 0
M  V30 4708 H 440.609 -0.39017 -4.32042 0
M  V30 4709 H 441.28 0.775393 -5.46527 0
M  V30 4710 H 443.756 1.723 -3.7875 0
M  V30 4711 H 442.632 2.66971 -4.79602 0
M  V30 4712 H 442.893 3.13092 -3.12131 0
M  V30 4713 N 441.952 1.55251 0.271103 0
M  V30 4714 C 442.899 1.88261 1.33516 0
M  V30 4715 C 443.869 0.734296 1.48988 0
M  V30 4716 O 445.054 0.985741 1.63364 0
M  V30 4717 C 442.194 2.16168 2.69008 0
M  V30 4718 C 441.307 3.43678 2.61743 0
M  V30 4719 C 440.442 3.61276 3.89427 0
M  V30 4720 C 439.481 4.82472 3.7668 0
M  V30 4721 N 438.618 4.96717 4.96202 0
M  V30 4722 H 443.458 2.79015 1.04665 0
M  V30 4723 H 440.995 1.38137 0.505618 0
M  V30 4724 H 442.953 2.30349 3.47844 0
M  V30 4725 H 441.583 1.28646 2.96057 0
M  V30 4726 H 440.635 3.37959 1.74607 0
M  V30 4727 H 441.947 4.3265 2.48224 0
M  V30 4728 H 441.101 3.75284 4.76704 0
M  V30 4729 H 439.84 2.70492 4.05814 0
M  V30 4730 H 438.845 4.68465 2.87786 0
M  V30 4731 H 440.07 5.74692 3.61809 0
M  V30 4732 H 438.016 4.08865 5.12997 0
M  V30 4733 H 437.933 5.79738 4.85222 0
M  V30 4734 H 439.201 5.15113 5.85046 0
M  V30 4735 N 443.43 -0.535701 1.48216 0
M  V30 4736 C 444.841 -1.11769 1.49548 0
M  V30 4737 C 445.192 -1.94442 0.26207 0
M  V30 4738 O 444.317 -2.06987 -0.631287 0
M  V30 4739 C 444.912 -2.03367 2.70975 0
M  V30 4740 C 443.471 -2.56795 2.75196 0
M  V30 4741 C 442.618 -1.33631 2.42977 0
M  V30 4742 H 445.569 -0.321232 1.55415 0
M  V30 4743 H 445.59 -2.87569 2.49167 0
M  V30 4744 H 445.102 -1.43169 3.60727 0
M  V30 4745 H 443.203 -3.20731 1.89638 0
M  V30 4746 H 443.316 -2.9632 3.76472 0
M  V30 4747 H 441.68 -1.6502 1.94012 0
M  V30 4748 H 442.463 -0.75194 3.34964 0
M  V30 4749 N 444.908 -1.36708 -0.784132 0
M  V30 4750 C 446.185 -1.21776 -1.53069 0
M  V30 4751 C 446.565 0.193876 -2.10208 0
M  V30 4752 O 445.913 1.20012 -1.94446 0
M  V30 4753 C 446.123 -2.30395 -2.62143 0
M  V30 4754 C 447.471 -2.67325 -3.29882 0
M  V30 4755 O 448.495 -2.29478 -2.7243 0
M  V30 4756 O 447.354 -3.32485 -4.33724 0
M  V30 4757 H 444.448 -0.474459 -0.677361 0
M  V30 4758 H 446.994 -1.48454 -0.82216 0
M  V30 4759 H 445.766 -3.2498 -2.17953 0
M  V30 4760 H 445.389 -2.05112 -3.40609 0
M  V30 4761 N 446.386 1.0089 -1.21074 0
M  V30 4762 C 447.663 1.71834 -0.934469 0
M  V30 4763 C 448.043 2.0368 0.554753 0
M  V30 4764 O 447.391 1.70742 1.51854 0
M  V30 4765 C 447.601 2.98061 -1.8155 0
M  V30 4766 C 448.949 3.7117 -2.06199 0
M  V30 4767 O 449.973 3.08034 -1.78867 0
M  V30 4768 O 448.832 4.84721 -2.52404 0
M  V30 4769 H 445.926 0.749253 -0.35007 0
M  V30 4770 H 448.472 1.06668 -1.31985 0
M  V30 4771 H 447.244 2.70908 -2.82355 0
M  V30 4772 H 446.867 3.70968 -1.43068 0
M  V30 4773 N 447.864 1.01787 1.20321 0
M  V30 4774 C 449.11 0.718699 1.90279 0
M  V30 4775 C 449.465 -0.743669 1.77447 0
M  V30 4776 O 448.758 -1.53345 1.14874 0
M  V30 4777 C 448.952 1.09076 3.40349 0
M  V30 4778 C 448.781 2.58775 3.67784 0
M  V30 4779 C 447.551 3.25578 3.86428 0
M  V30 4780 C 449.749 3.56966 3.70243 0
M  V30 4781 N 447.731 4.64495 4.01395 0
M  V30 4782 C 449.102 4.8145 3.90649 0
M  V30 4783 C 451.157 3.5092 3.53213 0
M  V30 4784 C 449.86 6.00619 3.95789 0
M  V30 4785 C 451.886 4.69493 3.59625 0
M  V30 4786 C 451.248 5.92786 3.80505 0
M  V30 4787 H 447.347 0.31468 0.715891 0
M  V30 4788 H 449.931 1.30295 1.44677 0
M  V30 4789 H 448.102 0.534839 3.847 0
M  V30 4790 H 449.834 0.744997 3.97784 0
M  V30 4791 H 446.589 2.76003 3.84862 0
M  V30 4792 H 447.013 5.36624 4.12752 0
M  V30 4793 H 451.655 2.56593 3.36035 0
M  V30 4794 H 449.373 6.95326 4.11762 0
M  V30 4795 H 452.959 4.66432 3.47754 0
M  V30 4796 H 451.839 6.83003 3.85327 0
M  V30 4797 N 449.342 -1.36122 0.79427 0
M  V30 4798 C 450.619 -1.93398 0.292685 0
M  V30 4799 C 450.999 -1.72567 -1.21589 0
M  V30 4800 O 450.347 -1.08745 -2.00965 0
M  V30 4801 C 450.557 -3.42099 0.690614 0
M  V30 4802 C 451.905 -4.19231 0.673105 0
M  V30 4803 O 452.929 -3.50559 0.631389 0
M  V30 4804 O 451.788 -5.41732 0.720362 0
M  V30 4805 H 448.882 -0.823712 0.0736693 0
M  V30 4806 H 451.428 -1.45273 0.87714 0
M  V30 4807 H 450.2 -3.50938 1.73085 0
M  V30 4808 H 449.823 -3.97519 0.0803036 0
M  V30 4809 N 450.82 -0.546701 -1.47814 0
M  V30 4810 C 451.73 0.21026 -2.33656 0
M  V30 4811 C 452.746 0.922413 -1.47538 0
M  V30 4812 O 453.922 0.893652 -1.80488 0
M  V30 4813 C 450.987 1.23348 -3.24016 0
M  V30 4814 C 450.048 0.529883 -4.26017 0
M  V30 4815 C 449.281 1.50435 -5.12059 0
M  V30 4816 O 449.504 2.73837 -5.00369 0
M  V30 4817 O 448.438 1.03459 -5.92942 0
M  V30 4818 H 452.264 -0.493605 -2.99662 0
M  V30 4819 H 449.849 -0.307427 -1.46203 0
M  V30 4820 H 451.731 1.82438 -3.79861 0
M  V30 4821 H 450.406 1.91945 -2.60651 0
M  V30 4822 H 449.313 -0.101948 -3.73961 0
M  V30 4823 H 450.646 -0.11445 -4.92067 0
M  V30 4824 N 452.299 1.55045 -0.282633 0
M  V30 4825 C 453.576 1.9179 0.384166 0
M  V30 4826 C 453.956 1.20778 1.73136 0
M  V30 4827 O 453.304 0.33719 2.25998 0
M  V30 4828 C 453.514 3.45149 0.517014 0
M  V30 4829 C 454.862 4.17064 0.796427 0
M  V30 4830 O 455.886 3.51084 0.601535 0
M  V30 4831 O 454.745 5.33837 1.16962 0
M  V30 4832 H 451.839 0.799483 0.211558 0
M  V30 4833 H 454.385 1.66474 -0.32934 0
M  V30 4834 H 453.157 3.88922 -0.430772 0
M  V30 4835 H 452.78 3.76443 1.2797 0
M  V30 4836 N 453.777 0.010035 1.57597 0
M  V30 4837 C 454.74 -0.963029 2.07986 0
M  V30 4838 C 455.74 -1.26619 0.991173 0
M  V30 4839 O 456.93 -1.2097 1.25347 0
M  V30 4840 C 454.062 -2.2851 2.52974 0
M  V30 4841 H 455.255 -0.526971 2.95234 0
M  V30 4842 H 452.808 -0.237639 1.54483 0
M  V30 4843 H 453.543 -2.76784 1.69 0
M  V30 4844 H 453.328 -2.07824 3.32493 0
M  V30 4845 H 454.818 -2.98294 2.9225 0
M  V30 4846 N 455.255 -1.55392 -0.262866 0
M  V30 4847 C 456.666 -1.67079 -0.833158 0
M  V30 4848 C 457.017 -0.604539 -1.86654 0
M  V30 4849 O 456.142 0.252138 -2.14926 0
M  V30 4850 C 456.737 -3.02891 -1.51797 0
M  V30 4851 C 455.296 -3.16571 -2.03617 0
M  V30 4852 C 454.443 -2.62909 -0.881701 0
M  V30 4853 H 457.394 -1.58652 -0.0389986 0
M  V30 4854 H 457.415 -2.96445 -2.38538 0
M  V30 4855 H 456.927 -3.80473 -0.765619 0
M  V30 4856 H 455.028 -2.43782 -2.81782 0
M  V30 4857 H 455.141 -4.23271 -2.24452 0
M  V30 4858 H 453.505 -2.20324 -1.27786 0
M  V30 4859 H 454.288 -3.43003 -0.14269 0
M  V30 4860 N 456.733 0.527833 -1.48498 0
M  V30 4861 C 457.696 1.61439 -1.62696 0
M  V30 4862 C 458.696 1.52824 -0.500136 0
M  V30 4863 O 459.886 1.56456 -0.765976 0
M  V30 4864 C 457.018 3.01063 -1.59918 0
M  V30 4865 H 458.211 1.50189 -2.59583 0
M  V30 4866 H 455.764 0.750055 -1.37127 0
M  V30 4867 H 456.499 3.17818 -0.645163 0
M  V30 4868 H 456.284 3.08725 -2.41726 0
M  V30 4869 H 457.774 3.80057 -1.73051 0
M  V30 4870 N 458.211 1.37122 0.776871 0
M  V30 4871 C 459.158 1.3247 1.88998 0
M  V30 4872 C 460.128 0.191143 1.64997 0
M  V30 4873 O 461.313 0.379683 1.86984 0
M  V30 4874 C 458.453 1.13241 3.25992 0
M  V30 4875 C 457.566 2.35782 3.61982 0
M  V30 4876 C 456.701 2.09465 4.88158 0
M  V30 4877 C 455.74 3.279 5.16864 0
M  V30 4878 N 454.877 3.01167 6.34226 0
M  V30 4879 H 459.717 2.27642 1.9231 0
M  V30 4880 H 457.254 1.13125 0.94027 0
M  V30 4881 H 459.212 1.00115 4.0501 0
M  V30 4882 H 457.842 0.217186 3.22069 0
M  V30 4883 H 456.894 2.59666 2.77989 0
M  V30 4884 H 458.206 3.24125 3.79137 0
M  V30 4885 H 457.36 1.93341 5.75069 0
M  V30 4886 H 456.099 1.18452 4.73097 0
M  V30 4887 H 455.104 3.44569 4.2843 0
M  V30 4888 H 456.329 4.19757 5.33836 0
M  V30 4889 H 454.275 2.12779 6.20533 0
M  V30 4890 H 454.192 3.83052 6.51772 0
M  V30 4891 H 455.46 2.88649 7.24087 0
M  V30 4892 N 459.689 -1.00246 1.21608 0
M  V30 4893 C 460.938 -1.73476 1.02902 0
M  V30 4894 C 461.251 -1.90643 -0.437561 0
M  V30 4895 O 462.457 -2.61105 -0.74407 0
M  V30 4896 C 460.913 -3.12079 1.79261 0
M  V30 4897 C 460.521 -3.02877 3.30106 0
M  V30 4898 C 462.265 -3.89421 1.68972 0
M  V30 4899 C 460.172 -4.36575 3.98944 0
M  V30 4900 H 459.102 -0.650408 0.381425 0
M  V30 4901 H 461.753 -1.11985 1.45367 0
M  V30 4902 H 460.135 -3.74196 1.2959 0
M  V30 4903 H 461.309 -2.49983 3.87098 0
M  V30 4904 H 459.624 -2.39022 3.40965 0
M  V30 4905 H 462.221 -4.88362 2.17731 0
M  V30 4906 H 462.564 -4.1122 0.648397 0
M  V30 4907 H 463.097 -3.33963 2.16133 0
M  V30 4908 H 459.836 -4.19978 5.03288 0
M  V30 4909 H 459.356 -4.8942 3.4674 0
M  V30 4910 H 461.035 -5.05364 4.04 0
M  V30 4911 N 461.167 -1.02423 -1.1978 0
M  V30 4912 C 462.578 -0.748389 -1.71044 0
M  V30 4913 C 462.929 0.732398 -1.82017 0
M  V30 4914 O 462.054 1.57116 -1.48807 0
M  V30 4915 C 462.649 -1.35187 -3.1066 0
M  V30 4916 C 461.208 -1.12472 -3.59203 0
M  V30 4917 C 460.355 -1.45283 -2.36195 0
M  V30 4918 H 463.306 -1.19275 -1.04686 0
M  V30 4919 H 463.327 -0.746408 -3.73107 0
M  V30 4920 H 462.839 -2.4296 -3.02642 0
M  V30 4921 H 460.94 -0.0649983 -3.72543 0
M  V30 4922 H 461.053 -1.81016 -4.43588 0
M  V30 4923 H 459.417 -0.872034 -2.39307 0
M  V30 4924 H 460.2 -2.54129 -2.30811 0
M  V30 4925 N 462.645 1.35699 -0.801477 0
M  V30 4926 C 463.922 1.9324 -0.302937 0
M  V30 4927 C 464.302 1.73209 1.20672 0
M  V30 4928 O 463.65 1.09809 2.00385 0
M  V30 4929 C 463.86 3.41728 -0.708747 0
M  V30 4930 C 465.208 4.18868 -0.695328 0
M  V30 4931 O 466.232 3.5022 -0.649971 0
M  V30 4932 O 465.091 5.41342 -0.749081 0
M  V30 4933 H 462.185 0.82331 -0.0780367 0
M  V30 4934 H 464.731 1.44806 -0.884832 0
M  V30 4935 H 463.503 3.50015 -1.74944 0
M  V30 4936 H 463.126 3.97471 -0.101384 0
M  V30 4937 N 464.123 0.554532 1.47522 0
M  V30 4938 C 465.033 -0.197865 2.33764 0
M  V30 4939 C 466.049 -0.914576 1.48025 0
M  V30 4940 O 467.225 -0.884067 1.80959 0
M  V30 4941 C 464.29 -1.21628 3.24665 0
M  V30 4942 C 463.351 -0.507283 4.26292 0
M  V30 4943 C 462.584 -1.47718 5.1285 0
M  V30 4944 O 462.807 -2.7118 5.01814 0
M  V30 4945 O 461.741 -1.00313 5.93482 0
M  V30 4946 H 465.567 0.50949 2.99396 0
M  V30 4947 H 463.152 0.315176 1.46038 0
M  V30 4948 H 465.034 -1.80421 3.80823 0
M  V30 4949 H 463.709 -1.9056 2.61665 0
M  V30 4950 H 462.616 0.121778 3.73902 0
M  V30 4951 H 463.949 0.140544 4.91999 0
M  V30 4952 N 465.601 -1.54893 0.290851 0
M  V30 4953 C 466.511 -2.26812 -0.59945 0
M  V30 4954 C 467.527 -1.29963 -1.15696 0
M  V30 4955 O 468.703 -1.62928 -1.18391 0
M  V30 4956 C 465.768 -2.98716 -1.75982 0
M  V30 4957 C 464.829 -4.1108 -1.2374 0
M  V30 4958 C 464.062 -4.79546 -2.34246 0
M  V30 4959 O 464.285 -4.47309 -3.53936 0
M  V30 4960 O 463.219 -5.67165 -2.01512 0
M  V30 4961 H 467.045 -3.03696 -0.0163561 0
M  V30 4962 H 464.63 -1.49289 0.0576755 0
M  V30 4963 H 466.512 -3.43851 -2.43607 0
M  V30 4964 H 465.187 -2.24737 -2.3297 0
M  V30 4965 H 464.094 -3.70367 -0.527163 0
M  V30 4966 H 465.427 -4.87007 -0.71307 0
M  V30 4967 N 467.08 -0.0183926 -1.57589 0
M  V30 4968 C 468.043 0.951986 -2.08494 0
M  V30 4969 C 469.043 1.26092 -0.997874 0
M  V30 4970 O 470.233 1.20304 -1.25987 0
M  V30 4971 C 467.365 2.27165 -2.54182 0
M  V30 4972 H 468.558 0.511307 -2.95509 0
M  V30 4973 H 466.111 0.229444 -1.54607 0
M  V30 4974 H 466.846 2.75884 -1.70465 0
M  V30 4975 H 466.631 2.06057 -3.33591 0
M  V30 4976 H 468.121 2.9674 -2.93828 0
M  V30 4977 N 468.558 1.5553 0.254621 0
M  V30 4978 C 469.786 1.81046 1.00149 0
M  V30 4979 C 470.201 0.593047 1.79244 0
M  V30 4980 O 469.558 -0.438196 1.77161 0
M  V30 4981 C 469.609 3.04684 1.94551 0
M  V30 4982 O 469.33 4.21725 1.18658 0
M  V30 4983 C 470.831 3.42943 2.80901 0
M  V30 4984 H 468.051 0.602653 0.295044 0
M  V30 4985 H 470.595 2.02576 0.279842 0
M  V30 4986 H 468.75 2.85226 2.62154 0
M  V30 4987 H 469.164 4.91746 1.82445 0
M  V30 4988 H 470.638 4.32576 3.42902 0
M  V30 4989 H 471.115 2.63176 3.51617 0
M  V30 4990 H 471.721 3.64724 2.18762 0
M  V30 4991 N 470.036 -0.519951 1.48776 0
M  V30 4992 C 470.983 -1.62352 1.64044 0
M  V30 4993 C 471.953 -1.58945 0.482251 0
M  V30 4994 O 473.138 -1.77219 0.706971 0
M  V30 4995 C 470.278 -3.00579 1.69547 0
M  V30 4996 C 469.391 -3.14145 2.96541 0
M  V30 4997 C 468.526 -4.42991 2.93142 0
M  V30 4998 C 467.565 -4.50122 4.14797 0
M  V30 4999 N 466.702 -5.7037 4.09418 0
M  V30 5000 H 471.542 -1.48643 2.58281 0
M  V30 5001 H 469.079 -0.723516 1.28077 0
M  V30 5002 H 471.037 -3.80671 1.70719 0
M  V30 5003 H 469.667 -3.13036 0.787918 0
M  V30 5004 H 468.719 -2.27239 3.05068 0
M  V30 5005 H 470.031 -3.15275 3.86527 0
M  V30 5006 H 469.185 -5.31385 2.92772 0
M  V30 5007 H 467.924 -4.44398 2.00902 0
M  V30 5008 H 466.929 -3.60133 4.15433 0
M  V30 5009 H 468.154 -4.50445 5.08208 0
M  V30 5010 H 466.1 -5.72655 3.20004 0
M  V30 5011 H 466.017 -5.73036 4.93119 0
M  V30 5012 H 467.285 -6.61023 4.13121 0
M  V30 5013 N 471.514 -1.37532 -0.769588 0
M  V30 5014 C 472.925 -1.29382 -1.346 0
M  V30 5015 C 473.276 0.0576039 -1.96115 0
M  V30 5016 O 472.401 0.95947 -1.93967 0
M  V30 5017 C 472.996 -2.34298 -2.44724 0
M  V30 5018 C 471.555 -2.29776 -2.98128 0
M  V30 5019 C 470.702 -2.18013 -1.71364 0
M  V30 5020 H 473.653 -1.48123 -0.56968 0
M  V30 5021 H 473.674 -1.99089 -3.24259 0
M  V30 5022 H 473.186 -3.32645 -1.99922 0
M  V30 5023 H 471.287 -1.34959 -3.47299 0
M  V30 5024 H 471.4 -3.23276 -3.53595 0
M  V30 5025 H 469.764 -1.64595 -1.94372 0
M  V30 5026 H 470.547 -3.18278 -1.28662 0
M  V30 5027 N 472.992 0.995999 -1.22138 0
M  V30 5028 C 473.902 2.11985 -1.00496 0
M  V30 5029 C 474.918 1.7394 0.0457701 0
M  V30 5030 O 476.094 2.00868 -0.146273 0
M  V30 5031 C 473.159 3.41779 -0.582086 0
M  V30 5032 C 472.22 3.93943 -1.70608 0
M  V30 5033 C 471.453 5.17542 -1.30328 0
M  V30 5034 O 471.676 5.70114 -0.180743 0
M  V30 5035 O 470.61 5.63382 -2.11861 0
M  V30 5036 H 474.436 2.33123 -1.94647 0
M  V30 5037 H 472.021 1.10358 -1.00705 0
M  V30 5038 H 473.903 4.1989 -0.356467 0
M  V30 5039 H 472.578 3.22007 0.330592 0
M  V30 5040 H 471.485 3.17019 -1.98619 0
M  V30 5041 H 472.818 4.18141 -2.59651 0
M  V30 5042 N 474.47 1.03057 1.19235 0
M  V30 5043 C 475.718 0.726581 1.88587 0
M  V30 5044 C 476.039 -0.747227 1.80115 0
M  V30 5045 O 475.309 -1.53849 1.21274 0
M  V30 5046 H 473.889 0.265768 0.698124 0
M  V30 5047 H 476.551 1.30516 1.44746 0
M  V30 5048 H 475.647 1.0224 2.94879 0
M  V30 5049 N 475.948 -1.35272 0.808662 0
M  V30 5050 C 477.194 -1.99434 0.399717 0
M  V30 5051 C 477.549 -1.62992 -1.02232 0
M  V30 5052 O 476.842 -0.884091 -1.69983 0
M  V30 5053 C 477.036 -3.53556 0.522798 0
M  V30 5054 C 476.865 -4.04969 1.95525 0
M  V30 5055 C 475.635 -4.34228 2.58407 0
M  V30 5056 C 477.833 -4.23362 2.92009 0
M  V30 5057 N 475.815 -4.71585 3.93041 0
M  V30 5058 C 477.186 -4.63739 4.11517 0
M  V30 5059 C 479.241 -4.05576 2.88813 0
M  V30 5060 C 477.944 -4.88189 5.28265 0
M  V30 5061 C 479.97 -4.31184 4.04765 0
M  V30 5062 C 479.332 -4.71834 5.23022 0
M  V30 5063 H 475.431 -0.757534 0.19408 0
M  V30 5064 H 478.015 -1.63939 1.05034 0
M  V30 5065 H 476.186 -3.88277 -0.0978471 0
M  V30 5066 H 477.918 -4.04604 0.0882378 0
M  V30 5067 H 474.673 -4.24621 2.09747 0
M  V30 5068 H 475.097 -4.9452 4.62363 0
M  V30 5069 H 479.739 -3.73288 1.98535 0
M  V30 5070 H 477.457 -5.1935 6.19113 0
M  V30 5071 H 481.043 -4.18972 4.03675 0
M  V30 5072 H 479.923 -4.91263 6.11253 0
M  V30 5073 N 477.426 -0.562348 -1.47226 0
M  V30 5074 C 478.356 0.170627 -2.32876 0
M  V30 5075 C 479.337 0.903748 -1.44106 0
M  V30 5076 O 480.522 0.883206 -1.72954 0
M  V30 5077 C 477.652 1.19786 -3.25989 0
M  V30 5078 C 476.606 0.580875 -4.2404 0
M  V30 5079 C 475.932 1.71311 -5.06514 0
M  V30 5080 C 477.232 -0.468714 -5.20193 0
M  V30 5081 H 478.926 -0.544441 -2.94408 0
M  V30 5082 H 476.472 -0.263271 -1.41573 0
M  V30 5083 H 478.425 1.71884 -3.84752 0
M  V30 5084 H 477.149 1.94294 -2.62521 0
M  V30 5085 H 475.808 0.0811538 -3.6651 0
M  V30 5086 H 475.456 2.44736 -4.39447 0
M  V30 5087 H 475.156 1.30604 -5.72902 0
M  V30 5088 H 476.68 2.23725 -5.68137 0
M  V30 5089 H 478.094 -0.0336028 -5.7329 0
M  V30 5090 H 476.491 -0.794957 -5.94811 0
M  V30 5091 H 477.561 -1.36269 -4.65359 0
M  V30 5092 N 478.904 1.54736 -0.299062 0
M  V30 5093 C 480.181 1.92187 0.363802 0
M  V30 5094 C 480.561 1.22607 1.71845 0
M  V30 5095 O 479.909 0.361141 2.25628 0
M  V30 5096 C 480.119 3.45678 0.480377 0
M  V30 5097 C 481.467 4.17885 0.752147 0
M  V30 5098 O 482.491 3.51702 0.564264 0
M  V30 5099 O 481.35 5.35048 1.11294 0
M  V30 5100 H 478.444 0.801681 0.203066 0
M  V30 5101 H 480.99 1.66115 -0.346978 0
M  V30 5102 H 479.762 3.88443 -0.471999 0
M  V30 5103 H 479.385 3.77779 1.2397 0
M  V30 5104 N 480.382 0.0267497 1.57577 0
M  V30 5105 C 481.659 -0.690926 1.82991 0
M  V30 5106 C 482.039 -1.90471 0.910164 0
M  V30 5107 O 481.387 -2.28474 -0.0347985 0
M  V30 5108 C 481.597 -1.07139 3.32148 0
M  V30 5109 C 482.945 -1.46402 3.98562 0
M  V30 5110 O 483.969 -1.16443 3.36629 0
M  V30 5111 O 482.828 -2.02214 5.07712 0
M  V30 5112 H 479.922 -0.338747 0.75444 0
M  V30 5113 H 482.468 0.0542506 1.69613 0
M  V30 5114 H 481.24 -0.207394 3.9075 0
M  V30 5115 H 480.863 -1.87481 3.50623 0
M  V30 5116 N 481.861 -1.55662 -0.24637 0
M  V30 5117 C 482.771 -1.93495 -1.32653 0
M  V30 5118 C 483.787 -0.835462 -1.5263 0
M  V30 5119 O 484.963 -1.1369 -1.66242 0
M  V30 5120 C 482.028 -2.22242 -2.66101 0
M  V30 5121 C 481.089 -3.45625 -2.54641 0
M  V30 5122 C 480.322 -3.72991 -3.81724 0
M  V30 5123 O 480.545 -3.02421 -4.8363 0
M  V30 5124 O 479.479 -4.66515 -3.80325 0
M  V30 5125 H 483.305 -2.85498 -1.03559 0
M  V30 5126 H 480.89 -1.42551 -0.44717 0
M  V30 5127 H 482.772 -2.42037 -3.44958 0
M  V30 5128 H 481.447 -1.33417 -2.94926 0
M  V30 5129 H 480.354 -3.31136 -1.74067 0
M  V30 5130 H 481.687 -4.34754 -2.3076 0
M  V30 5131 N 483.339 0.512053 -1.4905 0
M  V30 5132 C 484.75 1.09376 -1.51307 0
M  V30 5133 C 485.101 1.94 -0.292971 0
M  V30 5134 O 484.226 2.07965 0.598277 0
M  V30 5135 C 484.821 1.99031 -2.74176 0
M  V30 5136 C 483.38 2.52385 -2.79247 0
M  V30 5137 C 482.527 1.29749 -2.45073 0
M  V30 5138 H 485.478 0.296467 -1.55906 0
M  V30 5139 H 485.499 2.83569 -2.53711 0
M  V30 5140 H 485.011 1.37412 -3.62959 0
M  V30 5141 H 483.112 3.17673 -1.94716 0
M  V30 5142 H 483.225 2.90293 -3.81139 0
M  V30 5143 H 481.589 1.61912 -1.96612 0
M  V30 5144 H 482.372 0.698555 -3.36118 0
M  V30 5145 N 484.817 1.37938 0.762283 0
M  V30 5146 C 485.727 1.36681 1.90671 0
M  V30 5147 C 486.743 0.265078 1.71969 0
M  V30 5148 O 487.919 0.502055 1.95042 0
M  V30 5149 C 484.984 1.18211 3.25925 0
M  V30 5150 C 484.045 2.3811 3.57214 0
M  V30 5151 C 483.278 2.20512 4.86014 0
M  V30 5152 O 483.501 1.19429 5.57757 0
M  V30 5153 O 482.435 3.08911 5.16583 0
M  V30 5154 H 486.261 2.33091 1.94685 0
M  V30 5155 H 483.846 1.18767 0.906356 0
M  V30 5156 H 485.728 1.09937 4.06807 0
M  V30 5157 H 484.403 0.248807 3.22742 0
M  V30 5158 H 483.31 2.51958 2.76529 0
M  V30 5159 H 484.643 3.30041 3.65149 0
M  V30 5160 N 486.295 -0.989507 1.22664 0
M  V30 5161 C 487.525 -1.7624 1.0781 0
M  V30 5162 C 487.933 -1.85466 -0.374036 0
M  V30 5163 O 487.276 -1.32645 -1.27087 0
M  V30 5164 C 487.338 -3.21007 1.61849 0
M  V30 5165 C 487.002 -3.35316 3.10503 0
M  V30 5166 C 487.999 -3.22362 4.07896 0
M  V30 5167 C 485.684 -3.60258 3.50028 0
M  V30 5168 C 487.678 -3.34139 5.42798 0
M  V30 5169 C 485.365 -3.71676 4.85078 0
M  V30 5170 C 486.363 -3.58625 5.81272 0
M  V30 5171 O 486.051 -3.69655 7.1387 0
M  V30 5172 H 485.783 -0.560209 0.378341 0
M  V30 5173 H 488.337 -1.25252 1.62792 0
M  V30 5174 H 486.567 -3.73202 1.01279 0
M  V30 5175 H 488.256 -3.80024 1.42606 0
M  V30 5176 H 489.022 -3.03 3.78703 0
M  V30 5177 H 484.901 -3.69492 2.75675 0
M  V30 5178 H 488.445 -3.23869 6.17863 0
M  V30 5179 H 484.342 -3.90545 5.1395 0
M  V30 5180 H 485.11 -3.86507 7.21495 0
M  V30 5181 N 487.773 -1.03688 -1.18687 0
M  V30 5182 C 489.019 -0.739123 -1.88851 0
M  V30 5183 C 489.352 0.731042 -1.79915 0
M  V30 5184 O 488.627 1.53313 -1.19688 0
M  V30 5185 C 488.91 -1.20106 -3.3948 0
M  V30 5186 C 488.763 -2.73304 -3.57246 0
M  V30 5187 C 490.082 -0.788134 -4.32986 0
M  V30 5188 H 487.201 -0.269978 -0.68577 0
M  V30 5189 H 489.843 -1.28822 -1.3966 0
M  V30 5190 H 487.993 -0.733915 -3.81505 0
M  V30 5191 H 489.665 -3.28027 -3.24339 0
M  V30 5192 H 487.908 -3.13313 -3.00029 0
M  V30 5193 H 488.579 -3.00684 -4.62918 0
M  V30 5194 H 491.055 -1.19005 -3.98719 0
M  V30 5195 H 489.931 -1.13915 -5.36949 0
M  V30 5196 H 490.192 0.308988 -4.41019 0
M  V30 5197 N 489.251 1.34841 -0.815825 0
M  V30 5198 C 490.662 1.80937 -0.46029 0
M  V30 5199 C 491.013 1.67685 1.01863 0
M  V30 5200 O 490.138 1.21277 1.79223 0
M  V30 5201 C 490.733 3.28509 -0.828708 0
M  V30 5202 C 489.292 3.72712 -0.525644 0
M  V30 5203 C 488.439 2.56676 -1.04941 0
M  V30 5204 H 491.39 1.22688 -1.00664 0
M  V30 5205 H 491.411 3.80279 -0.129757 0
M  V30 5206 H 490.923 3.38122 -1.90513 0
M  V30 5207 H 489.024 3.68642 0.541666 0
M  V30 5208 H 489.137 4.67119 -1.06474 0
M  V30 5209 H 487.501 2.50302 -0.471286 0
M  V30 5210 H 488.284 2.69063 -2.13214 0
M  V30 5211 N 490.729 0.570148 1.46925 0
M  V30 5212 C 492.006 -0.0153259 1.95594 0
M  V30 5213 C 492.386 -1.47232 1.51281 0
M  V30 5214 O 491.734 -2.15574 0.757624 0
M  V30 5215 C 491.944 0.143624 3.48704 0
M  V30 5216 C 493.292 0.00494484 4.246 0
M  V30 5217 O 494.316 0.0718214 3.56128 0
M  V30 5218 O 493.175 -0.141175 5.46318 0
M  V30 5219 H 490.269 -0.0568819 0.825041 0
M  V30 5220 H 492.815 0.637583 1.57267 0
M  V30 5221 H 491.587 1.15699 3.73804 0
M  V30 5222 H 491.21 -0.5463 3.93829 0
M  V30 5223 N 492.207 -1.54576 0.307264 0
M  V30 5224 C 493.618 -1.8579 -0.184121 0
M  V30 5225 C 493.969 -1.22914 -1.52927 0
M  V30 5226 O 493.094 -0.529126 -2.09831 0
M  V30 5227 C 493.689 -3.37081 -0.340862 0
M  V30 5228 C 492.248 -3.68304 -0.776465 0
M  V30 5229 C 491.395 -2.77076 0.111503 0
M  V30 5230 H 494.346 -1.49656 0.528078 0
M  V30 5231 H 494.367 -3.61922 -1.17443 0
M  V30 5232 H 493.879 -3.82815 0.638309 0
M  V30 5233 H 491.98 -3.28092 -1.76596 0
M  V30 5234 H 492.093 -4.75434 -0.591512 0
M  V30 5235 H 490.457 -2.51374 -0.410256 0
M  V30 5236 H 491.24 -3.25632 1.08714 0
M  V30 5237 N 493.685 -0.035106 -1.57561 0
M  V30 5238 C 494.962 0.681212 -1.83354 0
M  V30 5239 C 495.342 1.89986 -0.920252 0
M  V30 5240 O 494.69 2.28489 0.0226815 0
M  V30 5241 C 494.9 1.05376 -3.32712 0
M  V30 5242 C 496.248 1.44286 -3.99333 0
M  V30 5243 O 497.272 1.14656 -3.37242 0
M  V30 5244 O 496.131 1.99518 -5.08778 0
M  V30 5245 H 493.225 0.334741 -0.756226 0
M  V30 5246 H 495.771 -0.0632448 -1.69582 0
M  V30 5247 H 494.543 0.186668 -3.90854 0
M  V30 5248 H 494.166 1.85619 -3.51613 0
M  V30 5249 N 495.163 1.55791 0.238111 0
M  V30 5250 C 496.126 1.90239 1.27835 0
M  V30 5251 C 497.126 0.779552 1.4064 0
M  V30 5252 O 498.316 1.04747 1.3919 0
M  V30 5253 C 495.448 2.13859 2.65475 0
M  V30 5254 H 496.641 2.83262 0.985034 0
M  V30 5255 H 494.194 1.48818 0.477799 0
M  V30 5256 H 494.929 1.23334 2.99932 0
M  V30 5257 H 494.714 2.95643 2.57561 0
M  V30 5258 H 496.204 2.41664 3.40571 0
M  V30 5259 N 496.642 -0.504142 1.49319 0
M  V30 5260 C 497.552 -1.63248 1.68486 0
M  V30 5261 C 498.568 -1.64488 0.567432 0
M  V30 5262 O 499.744 -1.82966 0.841749 0
M  V30 5263 C 496.809 -2.99627 1.74426 0
M  V30 5264 C 495.87 -3.09039 2.97982 0
M  V30 5265 C 495.103 -4.38913 3.0363 0
M  V30 5266 O 495.326 -5.27528 2.16958 0
M  V30 5267 O 494.26 -4.53231 3.96062 0
M  V30 5268 H 498.086 -1.50008 2.64067 0
M  V30 5269 H 495.671 -0.680086 1.33023 0
M  V30 5270 H 497.553 -3.80689 1.80705 0
M  V30 5271 H 496.228 -3.13136 0.820233 0
M  V30 5272 H 495.135 -2.27177 2.97223 0
M  V30 5273 H 496.468 -3.00456 3.89855 0
M  V30 5274 N 498.12 -1.38341 -0.754957 0
M  V30 5275 C 499.067 -1.3546 -1.86867 0
M  V30 5276 C 500.037 -0.217369 -1.64672 0
M  V30 5277 O 501.222 -0.409383 -1.86356 0
M  V30 5278 C 498.362 -1.18413 -3.24149 0
M  V30 5279 C 497.475 -2.41511 -3.58185 0
M  V30 5280 C 496.61 -2.17205 -4.84763 0
M  V30 5281 C 495.649 -3.36081 -5.11582 0
M  V30 5282 N 494.786 -3.11219 -6.29354 0
M  V30 5283 H 499.626 -2.30672 -1.88664 0
M  V30 5284 H 497.163 -1.14607 -0.922154 0
M  V30 5285 H 499.121 -1.06545 -4.03366 0
M  V30 5286 H 497.751 -0.268397 -3.21682 0
M  V30 5287 H 496.803 -2.64056 -2.73822 0
M  V30 5288 H 498.115 -3.30115 -3.73932 0
M  V30 5289 H 497.269 -2.02465 -5.7192 0
M  V30 5290 H 496.008 -1.25964 -4.71152 0
M  V30 5291 H 495.013 -3.51341 -4.22894 0
M  V30 5292 H 496.238 -4.28196 -5.27091 0
M  V30 5293 H 494.184 -2.22624 -6.17069 0
M  V30 5294 H 494.101 -3.93373 -6.45596 0
M  V30 5295 H 495.369 -3.00132 -7.19403 0
M  V30 5296 N 499.598 0.982988 -1.23187 0
M  V30 5297 C 501.009 1.53847 -1.05773 0
M  V30 5298 C 501.36 1.92568 0.375744 0
M  V30 5299 O 500.485 1.75783 1.26211 0
M  V30 5300 C 501.08 2.79567 -1.91384 0
M  V30 5301 C 499.639 3.31524 -1.78238 0
M  V30 5302 C 498.786 2.04534 -1.87246 0
M  V30 5303 H 501.737 0.802962 -1.36888 0
M  V30 5304 H 501.758 3.52317 -1.43711 0
M  V30 5305 H 501.27 2.51353 -2.95708 0
M  V30 5306 H 499.371 3.64623 -0.766875 0
M  V30 5307 H 499.484 4.01457 -2.61475 0
M  V30 5308 H 497.848 2.1855 -1.30797 0
M  V30 5309 H 498.631 1.78706 -2.9312 0
M  V30 5310 N 501.076 1.04316 1.18135 0
M  V30 5311 C 501.986 0.646876 2.25505 0
M  V30 5312 C 503.002 -0.328008 1.7088 0
M  V30 5313 O 504.178 -0.182309 2.00573 0
M  V30 5314 C 501.243 0.0185664 3.46695 0
M  V30 5315 C 500.304 1.04277 4.16443 0
M  V30 5316 C 499.537 0.444352 5.31847 0
M  V30 5317 O 499.76 -0.748735 5.65465 0
M  V30 5318 O 498.694 1.17428 5.90334 0
M  V30 5319 H 502.52 1.54147 2.61672 0
M  V30 5320 H 500.105 0.814188 1.25265 0
M  V30 5321 H 501.987 -0.331068 4.20097 0
M  V30 5322 H 500.662 -0.849814 3.12346 0
M  V30 5323 H 499.569 1.44425 3.45098 0
M  V30 5324 H 500.902 1.882 4.54798 0
M  V30 5325 N 502.554 -1.34406 0.822964 0
M  V30 5326 C 503.831 -1.92733 0.333641 0
M  V30 5327 C 504.211 -1.75107 -1.17901 0
M  V30 5328 O 503.559 -1.12983 -1.98613 0
M  V30 5329 C 503.769 -3.40557 0.763023 0
M  V30 5330 C 505.117 -4.17709 0.761879 0
M  V30 5331 O 506.141 -3.49141 0.705606 0
M  V30 5332 O 505 -5.40082 0.835109 0
M  V30 5333 H 502.094 -0.821964 0.0911249 0
M  V30 5334 H 504.64 -1.4338 0.907757 0
M  V30 5335 H 503.412 -3.47187 1.8049 0
M  V30 5336 H 503.035 -3.97259 0.164605 0
M  V30 5337 N 504.032 -0.577932 -1.46621 0
M  V30 5338 C 505.278 -0.0700937 -2.03279 0
M  V30 5339 C 505.633 1.27376 -1.44198 0
M  V30 5340 O 504.926 1.82097 -0.595911 0
M  V30 5341 C 505.12 0.0590832 -3.57351 0
M  V30 5342 C 504.949 -1.2707 -4.31374 0
M  V30 5343 C 503.719 -1.84357 -4.70469 0
M  V30 5344 C 505.917 -2.19278 -4.65211 0
M  V30 5345 N 503.899 -3.11124 -5.29221 0
M  V30 5346 C 505.27 -3.30631 -5.24484 0
M  V30 5347 C 507.325 -2.19018 -4.47142 0
M  V30 5348 C 506.028 -4.41849 -5.67593 0
M  V30 5349 C 508.054 -3.29262 -4.91264 0
M  V30 5350 C 507.416 -4.39335 -5.50604 0
M  V30 5351 H 503.515 -0.0683127 -0.779011 0
M  V30 5352 H 506.099 -0.76978 -1.78836 0
M  V30 5353 H 504.27 0.727929 -3.81518 0
M  V30 5354 H 506.002 0.57087 -4.00653 0
M  V30 5355 H 502.757 -1.37906 -4.53077 0
M  V30 5356 H 503.181 -3.75794 -5.63123 0
M  V30 5357 H 507.823 -1.35191 -4.00604 0
M  V30 5358 H 505.541 -5.26421 -6.13112 0
M  V30 5359 H 509.127 -3.30172 -4.79038 0
M  V30 5360 H 508.007 -5.23233 -5.84121 0
M  V30 5361 N 505.51 1.54411 -0.315457 0
M  V30 5362 C 506.787 1.92562 0.343398 0
M  V30 5363 C 507.167 1.24423 1.70535 0
M  V30 5364 O 506.515 0.385051 2.25232 0
M  V30 5365 C 506.725 3.46168 0.443687 0
M  V30 5366 C 508.073 4.18659 0.707783 0
M  V30 5367 O 509.097 3.52281 0.52693 0
M  V30 5368 O 507.956 5.36198 1.05612 0
M  V30 5369 H 505.05 0.80379 0.194552 0
M  V30 5370 H 507.596 1.65738 -0.364577 0
M  V30 5371 H 506.368 3.8792 -0.513172 0
M  V30 5372 H 505.991 3.79073 1.19956 0
M  V30 5373 N 506.988 0.0434614 1.5754 0
M  V30 5374 C 507.898 -0.94893 2.14552 0
M  V30 5375 C 508.914 -1.34707 1.10136 0
M  V30 5376 O 510.09 -1.42557 1.42266 0
M  V30 5377 C 507.155 -2.208 2.67298 0
M  V30 5378 C 506.216 -1.86893 3.86484 0
M  V30 5379 C 505.449 -3.06797 4.36705 0
M  V30 5380 O 505.672 -4.19921 3.86034 0
M  V30 5381 O 504.606 -2.8826 5.28384 0
M  V30 5382 H 508.432 -0.494099 2.99654 0
M  V30 5383 H 506.017 -0.177989 1.48336 0
M  V30 5384 H 507.899 -2.94686 3.01228 0
M  V30 5385 H 506.574 -2.65436 1.85272 0
M  V30 5386 H 505.481 -1.10347 3.57455 0
M  V30 5387 H 506.814 -1.47062 4.69716 0
M  V30 5388 N 508.466 -1.55915 -0.229846 0
M  V30 5389 C 509.743 -1.6932 -0.979295 0
M  V30 5390 C 510.123 -0.588321 -2.02736 0
M  V30 5391 O 509.471 0.40586 -2.24867 0
M  V30 5392 C 509.681 -3.10305 -1.59724 0
M  V30 5393 C 511.029 -3.6945 -2.09264 0
M  V30 5394 O 512.053 -3.13214 -1.69633 0
M  V30 5395 O 510.912 -4.68072 -2.82082 0
M  V30 5396 H 508.006 -0.689314 -0.456919 0
M  V30 5397 H 510.552 -1.68238 -0.222283 0
M  V30 5398 H 509.324 -3.82177 -0.840039 0
M  V30 5399 H 508.947 -3.1547 -2.42001 0
M  V30 5400 N 509.944 0.496216 -1.49584 0
M  V30 5401 C 510.877 1.61508 -1.61215 0
M  V30 5402 C 511.855 1.55927 -0.461045 0
M  V30 5403 O 513.039 1.75914 -0.677231 0
M  V30 5404 C 510.166 3.00035 -1.57152 0
M  V30 5405 C 509.212 3.23861 -2.77518 0
M  V30 5406 S 510.045 3.06466 -4.39134 0
M  V30 5407 C 511.201 4.4738 -4.37724 0
M  V30 5408 H 511.434 1.51398 -2.55863 0
M  V30 5409 H 508.967 0.681727 -1.38535 0
M  V30 5410 H 510.925 3.7991 -1.55494 0
M  V30 5411 H 509.586 3.07556 -0.637834 0
M  V30 5412 H 508.779 4.25 -2.70908 0
M  V30 5413 H 508.381 2.51716 -2.76614 0
M  V30 5414 H 510.673 5.39556 -4.09738 0
M  V30 5415 H 511.616 4.59038 -5.39156 0
M  V30 5416 H 512.024 4.28283 -3.67742 0
M  V30 5417 N 511.423 1.38739 0.74761 0
M  V30 5418 C 512.7 1.25791 1.49786 0
M  V30 5419 C 513.08 -0.138075 2.10648 0
M  V30 5420 O 512.428 -1.14815 1.9756 0
M  V30 5421 C 512.638 2.37265 2.55942 0
M  V30 5422 C 513.986 2.75978 3.22679 0
M  V30 5423 O 515.01 2.36621 2.6625 0
M  V30 5424 O 513.869 3.43867 4.24756 0
M  V30 5425 H 510.963 0.492251 0.664543 0
M  V30 5426 H 513.509 1.50582 0.782511 0
M  V30 5427 H 512.281 3.30644 2.0926 0
M  V30 5428 H 511.904 2.14071 3.35051 0
M  V30 5429 N 512.901 -0.976442 1.23707 0
M  V30 5430 C 514.149 -1.71487 1.06942 0
M  V30 5431 C 514.47 -1.9098 -0.393897 0
M  V30 5432 O 513.74 -1.48128 -1.28198 0
M  V30 5433 H 512.32 -0.635425 0.392739 0
M  V30 5434 H 514.982 -1.17515 1.55487 0
M  V30 5435 H 514.078 -2.70286 1.56051 0
M  V30 5436 N 514.379 -1.04941 -1.1758 0
M  V30 5437 C 515.289 -0.658826 -2.25159 0
M  V30 5438 C 516.305 0.318941 -1.71052 0
M  V30 5439 O 517.481 0.171669 -2.00667 0
M  V30 5440 C 514.546 -0.0369522 -3.4668 0
M  V30 5441 C 513.607 -1.06484 -4.15884 0
M  V30 5442 C 512.84 -0.472551 -5.31604 0
M  V30 5443 O 513.063 0.718736 -5.65854 0
M  V30 5444 O 511.997 -1.20557 -5.89703 0
M  V30 5445 H 515.823 -1.55533 -2.60851 0
M  V30 5446 H 513.408 -0.820819 -1.24832 0
M  V30 5447 H 515.29 0.308784 -4.20267 0
M  V30 5448 H 513.965 0.833238 -3.12792 0
M  V30 5449 H 512.872 -1.46253 -3.44327 0
M  V30 5450 H 514.205 -1.9061 -4.53794 0
M  V30 5451 N 515.857 1.33968 -0.830081 0
M  V30 5452 C 517.103 1.98773 -0.431394 0
M  V30 5453 C 517.458 1.64598 0.99626 0
M  V30 5454 O 516.751 0.911022 1.68555 0
M  V30 5455 C 516.945 3.52679 -0.57898 0
M  V30 5456 C 516.774 4.01807 -2.01943 0
M  V30 5457 C 515.544 4.30062 -2.65282 0
M  V30 5458 C 517.742 4.18663 -2.98707 0
M  V30 5459 N 515.724 4.65272 -4.00493 0
M  V30 5460 C 517.095 4.57133 -4.18843 0
M  V30 5461 C 519.15 4.00929 -2.95229 0
M  V30 5462 C 517.853 4.79723 -5.35965 0
M  V30 5463 C 519.879 4.2469 -4.11573 0
M  V30 5464 C 519.241 4.63454 -5.30462 0
M  V30 5465 H 515.34 0.75435 -0.206107 0
M  V30 5466 H 517.924 1.62247 -1.07629 0
M  V30 5467 H 516.095 3.88383 0.0360632 0
M  V30 5468 H 517.827 4.04412 -0.152596 0
M  V30 5469 H 514.582 4.21231 -2.16475 0
M  V30 5470 H 515.006 4.87101 -4.70172 0
M  V30 5471 H 519.648 3.70082 -2.04448 0
M  V30 5472 H 517.366 5.09434 -6.27297 0
M  V30 5473 H 520.952 4.12497 -4.10289 0
M  V30 5474 H 519.832 4.81476 -6.18992 0
M  V30 5475 N 517.335 0.585699 1.46312 0
M  V30 5476 C 518.245 -0.148236 2.34131 0
M  V30 5477 C 519.261 -0.882972 1.49932 0
M  V30 5478 O 520.437 -0.845484 1.82794 0
M  V30 5479 C 517.502 -1.14714 3.27172 0
M  V30 5480 C 516.563 -0.416746 4.27272 0
M  V30 5481 C 515.796 -1.36806 5.15868 0
M  V30 5482 O 516.019 -2.60475 5.07454 0
M  V30 5483 O 514.953 -0.877018 5.95476 0
M  V30 5484 H 518.779 0.572882 2.98248 0
M  V30 5485 H 516.364 0.346082 1.45336 0
M  V30 5486 H 518.246 -1.72303 3.84564 0
M  V30 5487 H 516.921 -1.84967 2.65648 0
M  V30 5488 H 515.828 0.201061 3.73559 0
M  V30 5489 H 517.161 0.244872 4.9159 0
M  V30 5490 N 518.813 -1.54241 0.323641 0
M  V30 5491 C 519.776 -2.22997 -0.529602 0
M  V30 5492 C 520.776 -1.22345 -1.04347 0
M  V30 5493 O 521.966 -1.46924 -0.935889 0
M  V30 5494 C 519.098 -2.93409 -1.73562 0
M  V30 5495 H 520.291 -2.99815 0.0714518 0
M  V30 5496 H 517.844 -1.56121 0.0747258 0
M  V30 5497 H 518.579 -2.20729 -2.37591 0
M  V30 5498 H 518.364 -3.67217 -1.37456 0
M  V30 5499 H 519.854 -3.45794 -2.34128 0
M  V30 5500 N 520.291 -0.0518155 -1.57515 0
M  V30 5501 C 521.702 0.483787 -1.80323 0
M  V30 5502 C 522.053 1.70879 -0.964099 0
M  V30 5503 O 521.178 2.15643 -0.180872 0
M  V30 5504 C 521.773 0.884459 -3.27052 0
M  V30 5505 C 520.332 1.36504 -3.50776 0
M  V30 5506 C 519.479 0.340539 -2.75201 0
M  V30 5507 H 522.43 -0.277691 -1.56252 0
M  V30 5508 H 522.451 1.74733 -3.38007 0
M  V30 5509 H 521.963 -0.00731093 -3.88099 0
M  V30 5510 H 520.064 2.27598 -2.95009 0
M  V30 5511 H 520.177 1.35675 -4.59488 0
M  V30 5512 H 518.541 0.81356 -2.41357 0
M  V30 5513 H 519.324 -0.543156 -3.38976 0
M  V30 5514 N 521.769 1.56035 0.221574 0
M  V30 5515 C 522.701 1.889 1.29805 0
M  V30 5516 C 523.714 0.777269 1.43047 0
M  V30 5517 O 524.903 1.05557 1.43945 0
M  V30 5518 C 522.003 2.0825 2.67367 0
M  V30 5519 C 521.176 3.39267 2.76073 0
M  V30 5520 C 520.235 3.48049 3.94649 0
M  V30 5521 O 519.261 4.2108 3.82988 0
M  V30 5522 N 520.463 2.79191 5.08953 0
M  V30 5523 H 523.228 2.81831 1.01938 0
M  V30 5524 H 520.789 1.5658 0.411612 0
M  V30 5525 H 522.781 2.11441 3.45072 0
M  V30 5526 H 521.351 1.21944 2.87834 0
M  V30 5527 H 520.571 3.48175 1.84846 0
M  V30 5528 H 521.859 4.25575 2.7886 0
M  V30 5529 H 521.257 2.19635 5.21322 0
M  V30 5530 H 519.814 2.88043 5.84701 0
M  V30 5531 N 523.247 -0.488276 1.49845 0
M  V30 5532 C 524.496 -1.23826 1.59217 0
M  V30 5533 C 524.809 -1.93439 0.289966 0
M  V30 5534 O 526.015 -2.70229 0.262382 0
M  V30 5535 C 524.471 -2.24902 2.80976 0
M  V30 5536 C 524.079 -1.6117 4.18005 0
M  V30 5537 C 525.823 -3.00648 2.99685 0
M  V30 5538 C 523.73 -2.60431 5.3097 0
M  V30 5539 H 522.66 -0.465858 0.592868 0
M  V30 5540 H 525.311 -0.510645 1.76252 0
M  V30 5541 H 523.693 -3.0088 2.57463 0
M  V30 5542 H 524.867 -0.910968 4.51706 0
M  V30 5543 H 523.182 -0.97767 4.0476 0
M  V30 5544 H 525.779 -3.74903 3.81251 0
M  V30 5545 H 526.122 -3.5902 2.10738 0
M  V30 5546 H 526.655 -2.31784 3.23297 0
M  V30 5547 H 523.394 -2.06823 6.22017 0
M  V30 5548 H 522.914 -3.28707 5.01709 0
M  V30 5549 H 524.593 -3.22606 5.60834 0
M  V30 5550 N 524.725 -1.39134 -0.740242 0
M  V30 5551 C 525.688 -1.37217 -1.83587 0
M  V30 5552 C 526.688 -0.270221 -1.58513 0
M  V30 5553 O 527.878 -0.527843 -1.6601 0
M  V30 5554 C 525.01 -1.13959 -3.21288 0
M  V30 5555 H 526.203 -2.34705 -1.86691 0
M  V30 5556 H 523.756 -1.24622 -0.94335 0
M  V30 5557 H 524.491 -0.17131 -3.23847 0
M  V30 5558 H 524.276 -1.93754 -3.40884 0
M  V30 5559 H 525.766 -1.15346 -4.01354 0
M  V30 5560 N 526.204 0.969867 -1.24223 0
M  V30 5561 C 527.152 2.08535 -1.03034 0
M  V30 5562 C 528.146 1.69366 0.0340379 0
M  V30 5563 O 529.352 1.79597 -0.12034 0
M  V30 5564 H 525.727 0.682313 -0.316154 0
M  V30 5565 H 527.698 2.23569 -1.97635 0
M  V30 5566 C 526.447 3.4158 -0.649509 0
M  V30 5567 H 525.77 3.72177 -1.46028 0
M  V30 5568 H 527.21 4.20536 -0.540841 0
M  V30 5569 C 525.669 3.30703 0.643194 0
M  V30 5570 O 526.199 3.64443 1.68951 0
M  V30 5571 N 524.405 2.83841 0.623095 0
M  V30 5572 H 523.952 2.56583 -0.228719 0
M  V30 5573 H 523.91 2.76946 1.48823 0
M  V30 5574 N 527.682 1.05563 1.17022 0
M  V30 5575 C 529.093 0.793475 1.69 0
M  V30 5576 C 529.444 -0.683882 1.83895 0
M  V30 5577 O 528.569 -1.53116 1.5292 0
M  V30 5578 C 529.164 1.43376 3.06967 0
M  V30 5579 C 527.723 1.21956 3.56095 0
M  V30 5580 C 526.87 1.51494 2.3226 0
M  V30 5581 H 529.821 1.22008 1.01487 0
M  V30 5582 H 529.842 0.845068 3.70997 0
M  V30 5583 H 529.354 2.50899 2.96093 0
M  V30 5584 H 527.455 0.163749 3.7224 0
M  V30 5585 H 527.568 1.92713 4.38633 0
M  V30 5586 H 525.932 0.935175 2.3691 0
M  V30 5587 H 526.715 2.60159 2.23992 0
M  V30 5588 N 529.16 -1.33526 0.837174 0
M  V30 5589 C 530.576 -1.50727 0.524743 0
M  V30 5590 C 530.776 -1.77792 -0.948279 0
M  V30 5591 O 529.832 -1.83719 -1.73216 0
M  V30 5592 C 531.145 -2.66299 1.39661 0
M  V30 5593 C 532.693 -2.80183 1.39521 0
M  V30 5594 C 533.168 -3.98815 2.25189 0
M  V30 5595 N 534.659 -4.06047 2.2289 0
M  V30 5596 C 535.394 -4.97032 2.85915 0
M  V30 5597 N 534.89 -5.93143 3.57985 0
M  V30 5598 N 536.683 -4.90015 2.75394 0
M  V30 5599 H 528.834 -1.1422 1.79074 0
M  V30 5600 H 531.097 -0.561399 0.763894 0
M  V30 5601 H 530.803 -2.52974 2.4433 0
M  V30 5602 H 530.677 -3.61663 1.07145 0
M  V30 5603 H 533.064 -2.92942 0.356253 0
M  V30 5604 H 533.145 -1.85586 1.76044 0
M  V30 5605 H 532.789 -3.86817 3.29143 0
M  V30 5606 H 532.719 -4.92654 1.86009 0
M  V30 5607 H 535.21 -3.37262 1.70478 0
M  V30 5608 H 535.523 -6.59227 4.03286 0
M  V30 5609 H 533.868 -5.93223 3.62093 0
M  V30 5610 H 537.059 -4.13894 2.18654 0
M  V30 5611 H 537.232 -5.60724 3.24796 0
M  V30 5612 N 530.638 -0.59345 -1.46 0
M  V30 5613 C 531.878 -0.0859747 -2.04219 0
M  V30 5614 C 532.242 1.25432 -1.45364 0
M  V30 5615 O 533.443 1.85168 -1.9485 0
M  V30 5616 C 531.714 -0.0324314 -3.57385 0
M  V30 5617 S 533.273 0.415908 -4.36824 0
M  V30 5618 H 530.091 -0.0426872 -0.709717 0
M  V30 5619 H 532.693 -0.788369 -1.78899 0
M  V30 5620 H 531.397 -1.01166 -3.97735 0
M  V30 5621 H 530.928 0.6924 -3.87259 0
M  V30 5622 H 532.943 1.66844 -4.67309 0
M  V30 5623 N 532.116 1.54067 -0.331816 0
M  V30 5624 C 533.026 2.28322 0.539104 0
M  V30 5625 C 534.042 1.32985 1.1221 0
M  V30 5626 O 535.218 1.6601 1.1403 0
M  V30 5627 C 532.283 3.03277 1.68 0
M  V30 5628 C 531.344 4.14216 1.12798 0
M  V30 5629 C 530.577 4.85588 2.2145 0
M  V30 5630 O 530.8 4.56536 3.41952 0
M  V30 5631 O 529.734 5.72309 1.86404 0
M  V30 5632 H 533.56 3.03632 -0.0641692 0
M  V30 5633 H 531.145 1.49083 -0.0972365 0
M  V30 5634 H 533.027 3.50189 2.34405 0
M  V30 5635 H 531.702 2.30834 2.2693 0
M  V30 5636 H 530.609 3.71635 0.428782 0
M  V30 5637 H 531.942 4.88727 0.583698 0
M  V30 5638 N 533.594 0.0601682 1.57485 0
M  V30 5639 C 534.819 -0.624416 1.97777 0
M  V30 5640 C 535.244 -1.63051 0.937867 0
M  V30 5641 O 534.602 -1.81036 -0.0978845 0
M  V30 5642 C 534.65 -1.27979 3.37126 0
M  V30 5643 O 533.754 -2.39556 3.35688 0
M  V30 5644 H 533.095 -0.161581 0.64404 0
M  V30 5645 H 535.625 0.131237 2.04179 0
M  V30 5646 H 535.635 -1.62937 3.74053 0
M  V30 5647 H 534.31 -0.542501 4.12347 0
M  V30 5648 H 532.887 -2.06478 3.10517 0
M  V30 5649 N 535.072 -1.5615 -0.213296 0
M  V30 5650 C 536.035 -1.92249 -1.24792 0
M  V30 5651 C 537.035 -0.801828 -1.39382 0
M  V30 5652 O 538.225 -1.06948 -1.37506 0
M  V30 5653 C 535.357 -2.18056 -2.62039 0
M  V30 5654 H 536.55 -2.84793 -0.939845 0
M  V30 5655 H 534.103 -1.49559 -0.454062 0
M  V30 5656 H 534.838 -1.2809 -2.97932 0
M  V30 5657 H 534.623 -2.99703 -2.52825 0
M  V30 5658 H 536.113 -2.47051 -3.36683 0
M  V30 5659 N 536.55 0.480323 -1.50102 0
M  V30 5660 C 537.961 1.06142 -1.53593 0
M  V30 5661 C 538.312 1.93335 -0.334055 0
M  V30 5662 O 537.437 2.09188 0.55403 0
M  V30 5663 C 538.032 1.9317 -2.78336 0
M  V30 5664 C 536.591 2.46405 -2.84538 0
M  V30 5665 C 535.738 1.24521 -2.4777 0
M  V30 5666 H 538.689 0.26333 -1.565 0
M  V30 5667 H 538.71 2.78123 -2.59669 0
M  V30 5668 H 538.222 1.29683 -3.65792 0
M  V30 5669 H 536.323 3.13472 -2.01411 0
M  V30 5670 H 536.436 2.82143 -3.87211 0
M  V30 5671 H 534.8 1.57706 -2.00003 0
M  V30 5672 H 535.583 0.627102 -3.37524 0
M  V30 5673 N 538.028 1.39524 0.732853 0
M  V30 5674 C 539.276 1.36594 1.48951 0
M  V30 5675 C 539.597 -0.0367507 1.94965 0
M  V30 5676 O 538.867 -0.988391 1.69138 0
M  V30 5677 H 537.447 0.502673 0.552566 0
M  V30 5678 H 540.109 1.74411 0.869869 0
M  V30 5679 H 539.205 2.03 2.3706 0
M  V30 5680 N 539.506 -0.963266 1.24736 0
M  V30 5681 C 540.746 -1.72172 1.10165 0
M  V30 5682 C 541.11 -1.88731 -0.352784 0
M  V30 5683 O 542.311 -2.61549 -0.620107 0
M  V30 5684 C 540.582 -3.0724 1.82589 0
M  V30 5685 S 542.141 -3.98449 1.83803 0
M  V30 5686 H 538.959 -0.591901 0.393922 0
M  V30 5687 H 541.561 -1.14955 1.58132 0
M  V30 5688 H 540.265 -2.92851 2.87518 0
M  V30 5689 H 539.796 -3.69521 1.34973 0
M  V30 5690 H 541.811 -4.87805 0.908883 0
M  V30 5691 N 540.985 -1.06182 -1.16461 0
M  V30 5692 C 542.233 -0.776326 -1.86595 0
M  V30 5693 C 542.554 0.69921 -1.82033 0
M  V30 5694 O 541.824 1.50579 -1.2531 0
M  V30 5695 H 540.404 -0.284184 -0.690832 0
M  V30 5696 H 543.066 -1.34308 -1.41235 0
M  V30 5697 H 542.162 -1.10022 -2.92064 0
M  V30 5698 N 542.463 1.3308 -0.844243 0
M  V30 5699 C 543.709 1.97898 -0.443206 0
M  V30 5700 C 544.042 1.66699 0.99625 0
M  V30 5701 O 543.317 0.949704 1.69738 0
M  V30 5702 C 543.6 3.53801 -0.670606 0
M  V30 5703 C 543.453 3.94667 -2.15772 0
M  V30 5704 C 544.772 4.39936 -0.120226 0
M  V30 5705 H 541.891 0.718861 -0.162504 0
M  V30 5706 H 544.533 1.57633 -1.06075 0
M  V30 5707 H 542.683 3.88229 -0.14496 0
M  V30 5708 H 544.355 3.70469 -2.74865 0
M  V30 5709 H 542.598 3.44203 -2.6402 0
M  V30 5710 H 543.269 5.03275 -2.26757 0
M  V30 5711 H 545.745 4.12183 -0.5696 0
M  V30 5712 H 544.621 5.4803 -0.308984 0
M  V30 5713 H 544.882 4.31184 0.976347 0
M  V30 5714 N 543.941 0.601185 1.45683 0
M  V30 5715 C 545.187 0.102425 2.03142 0
M  V30 5716 C 545.542 -1.25066 1.46207 0
M  V30 5717 O 544.835 -1.81126 0.624806 0
M  V30 5718 C 545.029 -0.00222425 3.574 0
M  V30 5719 C 544.858 1.33917 4.29298 0
M  V30 5720 C 543.628 1.91818 4.67476 0
M  V30 5721 C 545.826 2.26652 4.61664 0
M  V30 5722 N 543.808 3.19504 5.24204 0
M  V30 5723 C 545.179 3.38933 5.19157 0
M  V30 5724 C 547.234 2.26103 4.43601 0
M  V30 5725 C 545.937 4.50823 5.60492 0
M  V30 5726 C 547.963 3.37036 4.85964 0
M  V30 5727 C 547.325 4.48039 5.43545 0
M  V30 5728 H 543.424 0.0806974 0.777825 0
M  V30 5729 H 546.008 0.798134 1.77589 0
M  V30 5730 H 544.179 -0.66714 3.82627 0
M  V30 5731 H 545.911 -0.507058 4.01511 0
M  V30 5732 H 542.666 1.45097 4.50826 0
M  V30 5733 H 543.09 3.84705 5.57073 0
M  V30 5734 H 547.732 1.41547 3.98402 0
M  V30 5735 H 545.45 5.36108 6.0466 0
M  V30 5736 H 549.036 3.37752 4.73725 0
M  V30 5737 H 547.916 5.32459 5.75723 0
M  V30 5738 N 545.419 -1.53889 0.339982 0
M  V30 5739 C 546.351 -2.22435 -0.55275 0
M  V30 5740 C 547.364 -1.22975 -1.06681 0
M  V30 5741 O 548.553 -1.49351 -0.977575 0
M  V30 5742 C 545.653 -2.8882 -1.77302 0
M  V30 5743 C 544.826 -4.14563 -1.39486 0
M  V30 5744 C 543.885 -4.64391 -2.47442 0
M  V30 5745 O 542.911 -5.28687 -2.10899 0
M  V30 5746 N 544.113 -4.40015 -3.78639 0
M  V30 5747 H 546.878 -2.9968 0.0342669 0
M  V30 5748 H 544.439 -1.61068 0.16394 0
M  V30 5749 H 546.431 -3.19072 -2.48948 0
M  V30 5750 H 545.001 -2.15182 -2.26749 0
M  V30 5751 H 544.221 -3.90896 -0.509321 0
M  V30 5752 H 545.509 -4.96362 -1.11813 0
M  V30 5753 H 544.907 -3.88586 -4.11118 0
M  V30 5754 H 543.464 -4.74881 -4.46465 0
M  V30 5755 N 546.897 -0.0685191 -1.57451 0
M  V30 5756 C 548.313 0.288101 -1.56978 0
M  V30 5757 C 548.513 1.70262 -1.07765 0
M  V30 5758 O 547.569 2.4135 -0.742054 0
M  V30 5759 C 548.882 0.100745 -3.00531 0
M  V30 5760 C 550.43 0.170531 -3.12535 0
M  V30 5761 C 550.905 0.0114944 -4.57999 0
M  V30 5762 N 552.396 0.0672065 -4.63151 0
M  V30 5763 C 553.131 -0.0314813 -5.73391 0
M  V30 5764 N 552.627 -0.183503 -6.92557 0
M  V30 5765 N 554.42 0.0253489 -5.62094 0
M  V30 5766 H 546.571 -0.993026 -1.87757 0
M  V30 5767 H 548.834 -0.386981 -0.865419 0
M  V30 5768 H 548.54 -0.875197 -3.40636 0
M  V30 5769 H 548.414 0.854457 -3.67395 0
M  V30 5770 H 550.801 1.13696 -2.72318 0
M  V30 5771 H 550.882 -0.614229 -2.48316 0
M  V30 5772 H 550.526 -0.951684 -4.98904 0
M  V30 5773 H 550.456 0.815617 -5.20245 0
M  V30 5774 H 552.947 0.183246 -3.77455 0
M  V30 5775 H 553.26 -0.251041 -7.72392 0
M  V30 5776 H 551.605 -0.218822 -6.94655 0
M  V30 5777 H 554.796 0.142794 -4.67882 0
M  V30 5778 H 554.969 -0.0550166 -6.47977 0
M  V30 5779 N 548.375 1.56261 0.205012 0
M  V30 5780 C 549.786 1.70056 0.770574 0
M  V30 5781 C 550.137 0.673398 1.84282 0
M  V30 5782 O 549.262 -0.172196 2.15714 0
M  V30 5783 C 549.857 3.08316 1.40451 0
M  V30 5784 C 548.416 3.2391 1.91727 0
M  V30 5785 C 547.563 2.66001 0.783516 0
M  V30 5786 H 550.514 1.58688 -0.019911 0
M  V30 5787 H 550.535 3.05094 2.27371 0
M  V30 5788 H 550.047 3.83053 0.623882 0
M  V30 5789 H 548.148 2.54072 2.7254 0
M  V30 5790 H 548.261 4.3131 2.08588 0
M  V30 5791 H 546.625 2.24915 1.19521 0
M  V30 5792 H 547.408 3.43297 0.0152883 0
M  V30 5793 N 549.853 -0.472356 1.50355 0
M  V30 5794 C 551.099 -1.22634 1.6152 0
M  V30 5795 C 551.432 -1.91645 0.313995 0
M  V30 5796 O 550.707 -1.82059 -0.684446 0
M  V30 5797 C 550.99 -2.27099 2.7946 0
M  V30 5798 C 550.843 -1.62402 4.19459 0
M  V30 5799 C 552.162 -3.28421 2.92964 0
M  V30 5800 H 549.281 -0.444494 0.587873 0
M  V30 5801 H 551.923 -0.520321 1.82737 0
M  V30 5802 H 550.073 -2.87314 2.61501 0
M  V30 5803 H 551.745 -1.05793 4.49005 0
M  V30 5804 H 549.988 -0.927184 4.23776 0
M  V30 5805 H 550.659 -2.38309 4.97909 0
M  V30 5806 H 553.135 -2.78227 3.09401 0
M  V30 5807 H 552.011 -3.98845 3.77113 0
M  V30 5808 H 552.272 -3.92467 2.03525 0
M  V30 5809 N 551.331 -1.39911 -0.725443 0
M  V30 5810 C 552.58 -1.36963 -1.48068 0
M  V30 5811 C 552.893 0.0284478 -1.95579 0
M  V30 5812 O 554.099 0.180535 -2.70899 0
M  V30 5813 C 552.555 -2.40664 -2.67598 0
M  V30 5814 C 552.163 -3.86234 -2.26997 0
M  V30 5815 C 553.907 -2.46807 -3.45379 0
M  V30 5816 C 551.814 -4.81554 -3.43307 0
M  V30 5817 H 550.744 -0.509223 -0.556065 0
M  V30 5818 H 553.395 -1.65602 -0.790454 0
M  V30 5819 H 551.777 -2.05109 -3.38742 0
M  V30 5820 H 552.951 -4.3088 -1.63337 0
M  V30 5821 H 551.266 -3.83475 -1.62284 0
M  V30 5822 H 553.863 -3.15213 -4.31909 0
M  V30 5823 H 554.206 -1.49552 -3.8851 0
M  V30 5824 H 554.739 -2.81303 -2.81271 0
M  V30 5825 H 551.478 -5.80106 -3.05217 0
M  V30 5826 H 550.998 -4.4158 -4.05915 0
M  V30 5827 H 552.677 -5.0091 -4.0951 0
M  V30 5828 N 552.809 0.956637 -1.25245 0
M  V30 5829 C 554.086 1.67716 -1.00651 0
M  V30 5830 C 554.466 2.0585 0.467866 0
M  V30 5831 O 553.814 1.77029 1.44475 0
M  V30 5832 C 554.024 2.90093 -1.94028 0
M  V30 5833 C 555.372 3.6209 -2.21756 0
M  V30 5834 O 556.396 3.00171 -1.9177 0
M  V30 5835 O 555.255 4.7358 -2.72735 0
M  V30 5836 H 552.349 0.733731 -0.381533 0
M  V30 5837 H 554.895 1.00974 -1.3639 0
M  V30 5838 H 553.667 2.58689 -2.93591 0
M  V30 5839 H 553.29 3.64566 -1.58674 0
M  V30 5840 N 554.287 1.06798 1.15896 0
M  V30 5841 C 555.235 0.677525 2.22514 0
M  V30 5842 C 556.229 -0.308994 1.66558 0
M  V30 5843 O 557.435 -0.173308 1.79164 0
M  V30 5844 H 553.81 0.200994 0.724642 0
M  V30 5845 H 555.781 1.5865 2.52731 0
M  V30 5846 C 554.53 0.0854153 3.47595 0
M  V30 5847 H 553.853 0.835645 3.90969 0
M  V30 5848 H 555.293 -0.150199 4.23734 0
M  V30 5849 C 553.752 -1.1724 3.15843 0
M  V30 5850 O 554.282 -2.25965 3.32119 0
M  V30 5851 N 552.488 -1.07636 2.69931 0
M  V30 5852 H 552.035 -0.191559 2.56887 0
M  V30 5853 H 551.993 -1.91876 2.4906 0
M  V30 5854 N 555.766 -1.3263 0.851289 0
M  V30 5855 C 557.177 -1.79653 0.5081 0
M  V30 5856 C 557.528 -1.70327 -0.973815 0
M  V30 5857 O 556.653 -1.25986 -1.75944 0
M  V30 5858 C 557.248 -3.26196 0.915515 0
M  V30 5859 C 555.807 -3.71187 0.624277 0
M  V30 5860 C 554.954 -2.53804 1.11709 0
M  V30 5861 H 557.905 -1.19976 1.03882 0
M  V30 5862 H 557.926 -3.79801 0.230535 0
M  V30 5863 H 557.438 -3.32952 1.99411 0
M  V30 5864 H 555.539 -3.69948 -0.443737 0
M  V30 5865 H 555.652 -4.64132 1.18821 0
M  V30 5866 H 554.016 -2.48964 0.537484 0
M  V30 5867 H 554.799 -2.63315 2.20272 0
M  V30 5868 N 557.244 -0.608902 -1.45362 0
M  V30 5869 C 558.192 0.121639 -2.32282 0
M  V30 5870 C 559.186 0.858301 -1.46046 0
M  V30 5871 O 560.392 0.773718 -1.62523 0
M  V30 5872 H 556.767 0.058086 -0.749753 0
M  V30 5873 H 558.738 -0.629866 -2.91677 0
M  V30 5874 C 557.487 1.1047 -3.29684 0
M  V30 5875 H 556.81 0.547278 -3.96036 0
M  V30 5876 H 558.25 1.58576 -3.9323 0
M  V30 5877 C 556.709 2.17891 -2.56954 0
M  V30 5878 O 557.239 3.25652 -2.35189 0
M  V30 5879 N 555.445 1.93211 -2.17066 0
M  V30 5880 H 554.992 1.05584 -2.34967 0
M  V30 5881 H 554.95 2.6529 -1.68727 0
M  V30 5882 N 558.722 1.53707 -0.348139 0
M  V30 5883 C 559.952 2.05108 0.247864 0
M  V30 5884 C 560.36 1.22252 1.44399 0
M  V30 5885 O 559.703 0.251853 1.81965 0
M  V30 5886 C 559.765 3.52171 0.722187 0
M  V30 5887 C 559.429 4.5562 -0.354902 0
M  V30 5888 C 560.426 5.05883 -1.19911 0
M  V30 5889 C 558.111 4.99703 -0.510145 0
M  V30 5890 C 560.105 5.98814 -2.18406 0
M  V30 5891 C 557.792 5.92443 -1.49848 0
M  V30 5892 C 558.79 6.41887 -2.33389 0
M  V30 5893 O 558.478 7.32802 -3.3054 0
M  V30 5894 H 558.21 0.674086 0.0508296 0
M  V30 5895 H 560.764 1.99229 -0.49968 0
M  V30 5896 H 558.994 3.55529 1.52105 0
M  V30 5897 H 560.683 3.8652 1.23925 0
M  V30 5898 H 561.449 4.72586 -1.09028 0
M  V30 5899 H 557.328 4.60816 0.130274 0
M  V30 5900 H 560.872 6.3733 -2.83649 0
M  V30 5901 H 556.769 6.25155 -1.60786 0
M  V30 5902 H 557.537 7.50749 -3.26064 0
M  V30 5903 N 560.2 0.0768682 1.57412 0
M  V30 5904 C 561.147 -0.888577 2.13009 0
M  V30 5905 C 562.117 -1.29198 1.0439 0
M  V30 5906 O 563.302 -1.37694 1.3208 0
M  V30 5907 C 560.442 -2.14899 2.70023 0
M  V30 5908 C 559.555 -1.79777 3.92816 0
M  V30 5909 C 558.69 -3.00467 4.38056 0
M  V30 5910 C 557.729 -2.61385 5.53484 0
M  V30 5911 N 556.866 -3.74851 5.93659 0
M  V30 5912 H 561.706 -0.407593 2.95199 0
M  V30 5913 H 559.243 -0.189534 1.45874 0
M  V30 5914 H 561.201 -2.88688 3.0119 0
M  V30 5915 H 559.831 -2.60529 1.9059 0
M  V30 5916 H 558.883 -0.960301 3.68079 0
M  V30 5917 H 560.195 -1.47027 4.76639 0
M  V30 5918 H 559.349 -3.82529 4.7091 0
M  V30 5919 H 558.088 -3.36413 3.53097 0
M  V30 5920 H 557.093 -1.77746 5.20275 0
M  V30 5921 H 558.318 -2.26603 6.40178 0
M  V30 5922 H 556.264 -4.1055 5.11649 0
M  V30 5923 H 556.181 -3.45887 6.72234 0
M  V30 5924 H 557.449 -4.57477 6.31138 0
M  V30 5925 N 561.678 -1.56367 -0.196722 0
M  V30 5926 C 562.926 -1.80172 -0.915554 0
M  V30 5927 C 563.247 -0.649649 -1.8386 0
M  V30 5928 O 562.517 0.332111 -1.93064 0
M  V30 5929 H 561.097 -0.664592 -0.341067 0
M  V30 5930 H 563.759 -1.93844 -0.202622 0
M  V30 5931 H 562.855 -2.7327 -1.50764 0
M  V30 5932 N 563.156 0.464375 -1.50603 0
M  V30 5933 C 564.103 1.56152 -1.69956 0
M  V30 5934 C 565.073 1.57046 -0.54091 0
M  V30 5935 O 566.258 1.74473 -0.772258 0
M  V30 5936 C 563.398 2.94079 -1.80586 0
M  V30 5937 C 562.511 3.02923 -3.07996 0
M  V30 5938 C 561.646 4.31806 -3.09382 0
M  V30 5939 C 560.685 4.34417 -4.31218 0
M  V30 5940 N 559.822 5.54782 -4.30304 0
M  V30 5941 H 564.662 1.38955 -2.6362 0
M  V30 5942 H 562.199 0.675482 -1.30674 0
M  V30 5943 H 564.157 3.74073 -1.8473 0
M  V30 5944 H 562.787 3.09896 -0.903556 0
M  V30 5945 H 561.839 2.1576 -3.13292 0
M  V30 5946 H 563.151 3.00712 -3.97962 0
M  V30 5947 H 562.305 5.20153 -3.12292 0
M  V30 5948 H 561.044 4.36636 -2.17257 0
M  V30 5949 H 560.049 3.44467 -4.28512 0
M  V30 5950 H 561.274 4.31273 -5.24576 0
M  V30 5951 H 559.22 5.60384 -3.41037 0
M  V30 5952 H 559.137 5.54339 -5.14047 0
M  V30 5953 H 560.405 6.45235 -4.3737 0
M  V30 5954 N 564.634 1.40294 0.718013 0
M  V30 5955 C 565.88 1.39648 1.47885 0
M  V30 5956 C 566.235 -0.0023879 1.924 0
M  V30 5957 O 565.528 -0.972304 1.65096 0
M  V30 5958 C 565.722 2.31814 2.72024 0
M  V30 5959 C 565.551 3.80523 2.3965 0
M  V30 5960 C 564.321 4.49351 2.3111 0
M  V30 5961 C 566.519 4.72077 2.04079 0
M  V30 5962 N 564.501 5.83305 1.91385 0
M  V30 5963 C 565.872 5.94809 1.74935 0
M  V30 5964 C 567.927 4.59935 1.90694 0
M  V30 5965 C 566.63 7.06755 1.33753 0
M  V30 5966 C 568.656 5.7182 1.50915 0
M  V30 5967 C 568.018 6.93637 1.22668 0
M  V30 5968 H 564.117 0.566263 0.539324 0
M  V30 5969 H 566.701 1.75986 0.832891 0
M  V30 5970 H 564.872 1.97607 3.34374 0
M  V30 5971 H 566.604 2.22042 3.38348 0
M  V30 5972 H 563.359 4.03002 2.4877 0
M  V30 5973 H 563.783 6.54239 1.74068 0
M  V30 5974 H 568.425 3.66274 2.11194 0
M  V30 5975 H 566.143 8.00302 1.11995 0
M  V30 5976 H 569.729 5.64421 1.4114 0
M  V30 5977 H 568.609 7.78743 0.923502 0
M  V30 5978 N 566.112 -0.949982 1.2575 0
M  V30 5979 C 567.059 -2.04738 1.06541 0
M  V30 5980 C 568.029 -1.66078 -0.0268818 0
M  V30 5981 O 569.214 -1.90348 0.131196 0
M  V30 5982 C 566.354 -3.38027 0.695127 0
M  V30 5983 C 565.467 -3.89776 1.86276 0
M  V30 5984 C 564.602 -5.11411 1.4364 0
M  V30 5985 C 563.641 -5.554 2.57287 0
M  V30 5986 N 562.778 -6.68244 2.15395 0
M  V30 5987 H 567.618 -2.20502 2.00457 0
M  V30 5988 H 565.155 -1.0805 0.998178 0
M  V30 5989 H 567.113 -4.14641 0.461375 0
M  V30 5990 H 565.743 -3.22135 -0.207046 0
M  V30 5991 H 564.795 -3.0964 2.20969 0
M  V30 5992 H 566.107 -4.18368 2.71606 0
M  V30 5993 H 565.261 -5.95457 1.16257 0
M  V30 5994 H 564 -4.84545 0.553879 0
M  V30 5995 H 563.005 -4.69916 2.85409 0
M  V30 5996 H 564.23 -5.84272 3.46125 0
M  V30 5997 H 562.176 -6.43078 1.29565 0
M  V30 5998 H 562.093 -6.96377 2.94272 0
M  V30 5999 H 563.361 -7.55687 1.91201 0
M  V30 6000 N 567.59 -1.07411 -1.15328 0
M  V30 6001 C 569.001 -0.820261 -1.67716 0
M  V30 6002 C 569.352 0.654539 -1.8496 0
M  V30 6003 O 568.477 1.50664 -1.55337 0
M  V30 6004 C 569.072 -1.48242 -3.04647 0
M  V30 6005 C 567.631 -1.27606 -3.5411 0
M  V30 6006 C 566.778 -1.5517 -2.29821 0
M  V30 6007 H 569.729 -1.23608 -0.995332 0
M  V30 6008 H 569.75 -0.903984 -3.69606 0
M  V30 6009 H 569.262 -2.55578 -2.92064 0
M  V30 6010 H 567.363 -0.222948 -3.71932 0
M  V30 6011 H 567.476 -1.99667 -4.35511 0
M  V30 6012 H 565.84 -0.972747 -2.35393 0
M  V30 6013 H 566.623 -2.63689 -2.19824 0
M  V30 6014 N 569.068 1.32177 -0.85831 0
M  V30 6015 C 570.479 1.79381 -0.517621 0
M  V30 6016 C 570.83 1.70841 0.964769 0
M  V30 6017 O 569.955 1.26917 1.75274 0
M  V30 6018 C 570.55 3.25706 -0.932801 0
M  V30 6019 C 569.109 3.70851 -0.643953 0
M  V30 6020 C 568.256 2.53208 -1.13054 0
M  V30 6021 H 571.207 1.19424 -1.04516 0
M  V30 6022 H 571.228 3.79673 -0.250674 0
M  V30 6023 H 570.74 3.31889 -2.01174 0
M  V30 6024 H 568.841 3.70178 0.424112 0
M  V30 6025 H 568.954 4.63495 -1.21281 0
M  V30 6026 H 567.318 2.48676 -0.550679 0
M  V30 6027 H 568.101 2.62143 -2.21666 0
M  V30 6028 N 570.547 0.616602 1.45037 0
M  V30 6029 C 571.48 -0.145984 2.27733 0
M  V30 6030 C 572.458 -0.865108 1.37676 0
M  V30 6031 O 573.642 -0.872152 1.6711 0
M  V30 6032 C 570.769 -1.2122 3.16265 0
M  V30 6033 C 569.815 -0.595218 4.22326 0
M  V30 6034 S 570.648 0.603744 5.32086 0
M  V30 6035 C 571.804 -0.462842 6.24186 0
M  V30 6036 H 572.037 0.555591 2.92062 0
M  V30 6037 H 569.57 0.404364 1.49011 0
M  V30 6038 H 571.528 -1.82247 3.67827 0
M  V30 6039 H 570.189 -1.88589 2.51183 0
M  V30 6040 H 569.382 -1.39775 4.8423 0
M  V30 6041 H 568.984 -0.0598965 3.73952 0
M  V30 6042 H 571.276 -1.33945 6.64127 0
M  V30 6043 H 572.219 0.120259 7.07998 0
M  V30 6044 H 572.627 -0.782219 5.59054 0
M  V30 6045 N 572.025 -1.5352 0.356285 0
M  V30 6046 C 573.274 -2.00298 -0.237373 0
M  V30 6047 C 573.587 -1.24784 -1.50627 0
M  V30 6048 O 574.793 -1.62103 -2.17795 0
M  V30 6049 C 573.249 -3.56771 -0.473545 0
M  V30 6050 C 572.857 -4.41154 0.780183 0
M  V30 6051 C 574.601 -4.1193 -1.02537 0
M  V30 6052 C 572.508 -5.89161 0.514108 0
M  V30 6053 H 571.438 -0.748307 -0.092478 0
M  V30 6054 H 574.089 -1.77283 0.473588 0
M  V30 6055 H 572.471 -3.75902 -1.24553 0
M  V30 6056 H 573.645 -4.33797 1.55425 0
M  V30 6057 H 571.96 -3.97052 1.25455 0
M  V30 6058 H 574.557 -5.20133 -1.2396 0
M  V30 6059 H 574.9 -3.65943 -1.98473 0
M  V30 6060 H 575.433 -3.96561 -0.313775 0
M  V30 6061 H 572.172 -6.39408 1.44355 0
M  V30 6062 H 571.692 -5.9939 -0.221632 0
M  V30 6063 H 573.371 -6.46857 0.136122 0
M  V30 6064 N 573.503 -0.0852151 -1.57369 0
M  V30 6065 C 574.78 0.622534 -1.85429 0
M  V30 6066 C 575.16 1.86962 -0.980229 0
M  V30 6067 O 574.508 2.28445 -0.0500219 0
M  V30 6068 C 574.718 0.947374 -3.35896 0
M  V30 6069 C 576.066 1.31509 -4.03721 0
M  V30 6070 O 577.09 1.03869 -3.40719 0
M  V30 6071 O 575.949 1.83231 -5.14868 0
M  V30 6072 H 573.043 0.310513 -0.766492 0
M  V30 6073 H 575.589 -0.117164 -1.69295 0
M  V30 6074 H 574.361 0.0622264 -3.91251 0
M  V30 6075 H 573.984 1.74338 -3.5734 0
M  V30 6076 N 574.981 1.5647 0.188427 0
M  V30 6077 C 575.929 1.95971 1.25293 0
M  V30 6078 C 576.923 0.846047 1.4676 0
M  V30 6079 O 578.129 1.03109 1.47542 0
M  V30 6080 H 574.504 0.623253 0.420784 0
M  V30 6081 H 576.475 2.84731 0.892792 0
M  V30 6082 C 575.224 2.32116 2.58877 0
M  V30 6083 H 574.547 3.17341 2.43176 0
M  V30 6084 H 575.987 2.63613 3.3209 0
M  V30 6085 C 574.446 1.15823 3.16365 0
M  V30 6086 O 574.976 0.436785 3.99318 0
M  V30 6087 N 573.182 0.933278 2.75206 0
M  V30 6088 H 572.729 1.52169 2.07852 0
M  V30 6089 H 572.687 0.156976 3.14008 0
M  V30 6090 N 576.459 -0.456382 1.50847 0
M  V30 6091 C 577.87 -1.03685 1.55262 0
M  V30 6092 C 578.221 -1.92779 0.364771 0
M  V30 6093 O 577.346 -2.10043 -0.52068 0
M  V30 6094 C 577.941 -1.88718 2.81374 0
M  V30 6095 C 576.5 -2.41847 2.88422 0
M  V30 6096 C 575.647 -1.20564 2.49719 0
M  V30 6097 H 578.598 -0.238399 1.56899 0
M  V30 6098 H 578.619 -2.73957 2.6406 0
M  V30 6099 H 578.131 -1.23847 3.67809 0
M  V30 6100 H 576.232 -3.10228 2.06372 0
M  V30 6101 H 576.345 -2.75947 3.9165 0
M  V30 6102 H 574.709 -1.54504 2.02486 0
M  V30 6103 H 575.492 -0.573326 3.38479 0
M  V30 6104 N 577.937 -1.40673 -0.710563 0
M  V30 6105 C 579.162 -1.42741 -1.50465 0
M  V30 6106 C 579.587 -0.0302116 -1.88076 0
M  V30 6107 O 578.945 0.962945 -1.53613 0
M  V30 6108 C 578.993 -2.32873 -2.75322 0
M  V30 6109 O 578.097 -1.77544 -3.72226 0
M  V30 6110 H 577.438 -0.485056 -0.45345 0
M  V30 6111 H 579.968 -1.84961 -0.874681 0
M  V30 6112 H 579.978 -2.48233 -3.23797 0
M  V30 6113 H 578.653 -3.34401 -2.47283 0
M  V30 6114 H 577.23 -1.71556 -3.31093 0
M  V30 6115 N 579.415 0.9433 -1.26252 0
M  V30 6116 C 580.645 1.72117 -1.14277 0
M  V30 6117 C 581.053 1.86726 0.304944 0
M  V30 6118 O 580.396 1.3727 1.22076 0
M  V30 6119 C 580.458 3.14778 -1.73651 0
M  V30 6120 C 580.122 3.23561 -3.22734 0
M  V30 6121 C 581.119 3.07001 -4.19579 0
M  V30 6122 C 578.804 3.47019 -3.63157 0
M  V30 6123 C 580.798 3.13763 -5.54826 0
M  V30 6124 C 578.485 3.53416 -4.98538 0
M  V30 6125 C 579.483 3.36804 -5.94182 0
M  V30 6126 O 579.171 3.42906 -7.27098 0
M  V30 6127 H 578.903 0.545781 -0.398873 0
M  V30 6128 H 581.457 1.19123 -1.67328 0
M  V30 6129 H 579.687 3.69186 -1.1506 0
M  V30 6130 H 581.376 3.74469 -1.56613 0
M  V30 6131 H 582.142 2.88736 -3.89688 0
M  V30 6132 H 578.021 3.59006 -2.89199 0
M  V30 6133 H 581.565 3.00714 -6.29458 0
M  V30 6134 H 577.462 3.71201 -5.28091 0
M  V30 6135 H 578.23 3.59463 -7.35342 0
M  V30 6136 N 580.893 1.08022 1.14757 0
M  V30 6137 C 581.825 0.664566 2.19354 0
M  V30 6138 C 582.838 -0.286374 1.60261 0
M  V30 6139 O 584.027 -0.0746362 1.78344 0
M  V30 6140 C 581.127 -0.0434634 3.38872 0
M  V30 6141 C 580.3 0.925381 4.27499 0
M  V30 6142 C 579.359 0.253398 5.2559 0
M  V30 6143 O 578.385 0.896581 5.62094 0
M  V30 6144 N 579.587 -0.998263 5.71852 0
M  V30 6145 H 582.352 1.56438 2.55631 0
M  V30 6146 H 579.913 0.965788 1.29939 0
M  V30 6147 H 581.905 -0.503857 4.01551 0
M  V30 6148 H 580.475 -0.845321 3.00954 0
M  V30 6149 H 579.695 1.56472 3.61815 0
M  V30 6150 H 580.983 1.58203 4.8358 0
M  V30 6151 H 580.381 -1.54063 5.44317 0
M  V30 6152 H 578.938 -1.40222 6.36538 0
M  V30 6153 N 582.371 -1.3172 0.865308 0
M  V30 6154 C 583.619 -1.96487 0.472995 0
M  V30 6155 C 583.94 -1.68761 -0.976975 0
M  V30 6156 O 583.21 -1.00051 -1.68424 0
M  V30 6157 H 581.79 -0.726947 0.171922 0
M  V30 6158 H 584.452 -1.60612 1.10407 0
M  V30 6159 H 583.548 -3.0574 0.62687 0
M  V30 6160 N 583.85 -0.624285 -1.44708 0
M  V30 6161 C 585.099 -0.123539 -2.01321 0
M  V30 6162 C 585.412 1.25966 -1.49639 0
M  V30 6163 O 586.618 1.85405 -1.98336 0
M  V30 6164 C 585.074 -0.170124 -3.59498 0
M  V30 6165 C 584.682 -1.55421 -4.20176 0
M  V30 6166 C 586.426 0.274513 -4.23611 0
M  V30 6167 C 584.332 -1.55628 -5.70556 0
M  V30 6168 H 583.263 -0.0424183 -0.752806 0
M  V30 6169 H 585.913 -0.782076 -1.65999 0
M  V30 6170 H 584.296 0.555385 -3.92086 0
M  V30 6171 H 585.47 -2.30276 -3.99136 0
M  V30 6172 H 583.784 -1.94235 -3.68323 0
M  V30 6173 H 586.382 0.292402 -5.339 0
M  V30 6174 H 586.725 1.3005 -3.95465 0
M  V30 6175 H 587.258 -0.398275 -3.95801 0
M  V30 6176 H 583.997 -2.56041 -6.03426 0
M  V30 6177 H 583.517 -0.850563 -5.93739 0
M  V30 6178 H 585.196 -1.28721 -6.34066 0
M  V30 6179 N 585.328 1.53329 -0.364422 0
M  V30 6180 C 586.574 2.02222 0.21855 0
M  V30 6181 C 586.929 1.24702 1.46517 0
M  V30 6182 O 586.222 0.331969 1.88702 0
M  V30 6183 C 586.416 3.52911 0.564661 0
M  V30 6184 C 586.245 4.45023 -0.646862 0
M  V30 6185 C 585.015 4.91838 -1.15858 0
M  V30 6186 C 587.213 4.91581 -1.51172 0
M  V30 6187 N 585.195 5.67955 -2.33025 0
M  V30 6188 C 586.566 5.66028 -2.53006 0
M  V30 6189 C 588.621 4.73656 -1.53473 0
M  V30 6190 C 587.324 6.24457 -3.56996 0
M  V30 6191 C 589.35 5.3295 -2.56356 0
M  V30 6192 C 588.712 6.07282 -3.56914 0
M  V30 6193 H 584.811 0.780832 0.0427199 0
M  V30 6194 H 587.395 1.87937 -0.508704 0
M  V30 6195 H 585.566 3.6736 1.26099 0
M  V30 6196 H 587.298 3.88528 1.13262 0
M  V30 6197 H 584.053 4.68043 -0.723393 0
M  V30 6198 H 584.477 6.10675 -2.92241 0
M  V30 6199 H 589.119 4.15714 -0.770842 0
M  V30 6200 H 586.837 6.81496 -4.34268 0
M  V30 6201 H 590.423 5.20976 -2.58989 0
M  V30 6202 H 589.303 6.52345 -4.35218 0
M  V30 6203 N 586.806 0.0935595 1.57322 0
M  V30 6204 C 587.753 -0.865935 2.1394 0
M  V30 6205 C 588.723 -1.28083 1.05754 0
M  V30 6206 O 589.908 -1.36285 1.33533 0
M  V30 6207 C 587.048 -2.12023 2.72287 0
M  V30 6208 C 586.161 -1.756 3.94701 0
M  V30 6209 C 585.296 -2.95804 4.41218 0
M  V30 6210 C 584.335 -2.555 5.56225 0
M  V30 6211 N 583.472 -3.68534 5.97601 0
M  V30 6212 H 588.312 -0.376261 2.95615 0
M  V30 6213 H 585.849 -0.174052 1.46067 0
M  V30 6214 H 587.807 -2.85477 3.04235 0
M  V30 6215 H 586.437 -2.58492 1.93343 0
M  V30 6216 H 585.489 -0.921208 3.69077 0
M  V30 6217 H 586.801 -1.41964 4.78171 0
M  V30 6218 H 585.955 -3.77513 4.74941 0
M  V30 6219 H 584.694 -3.32649 3.56645 0
M  V30 6220 H 583.699 -1.72218 5.22131 0
M  V30 6221 H 584.924 -2.19801 6.42545 0
M  V30 6222 H 582.87 -4.051 5.15974 0
M  V30 6223 H 582.787 -3.38737 6.75865 0
M  V30 6224 H 584.055 -4.50757 6.35955 0
M  V30 6225 N 588.284 -1.56567 -0.180126 0
M  V30 6226 C 589.695 -1.7126 -0.743422 0
M  V30 6227 C 590.046 -0.70263 -1.83187 0
M  V30 6228 O 589.171 0.137856 -2.1596 0
M  V30 6229 C 589.766 -3.10512 -1.35528 0
M  V30 6230 C 588.325 -3.26919 -1.8655 0
M  V30 6231 C 587.472 -2.67213 -0.741099 0
M  V30 6232 H 590.423 -1.58636 0.0451543 0
M  V30 6233 H 590.444 -3.08673 -2.22489 0
M  V30 6234 H 589.956 -3.83997 -0.562862 0
M  V30 6235 H 588.057 -2.58376 -2.68464 0
M  V30 6236 H 588.17 -4.34574 -2.01699 0
M  V30 6237 H 586.534 -2.26788 -1.15927 0
M  V30 6238 H 587.317 -3.43277 0.0393291 0
M  V30 6239 N 589.762 0.448376 -1.51087 0
M  V30 6240 C 591.178 0.783984 -1.39017 0
M  V30 6241 C 591.378 1.96087 -0.463904 0
M  V30 6242 O 590.434 2.52357 0.0850534 0
M  V30 6243 C 591.747 1.07471 -2.80839 0
M  V30 6244 C 593.295 1.17981 -2.89913 0
M  V30 6245 C 593.77 1.50354 -4.32617 0
M  V30 6246 N 595.261 1.57301 -4.35673 0
M  V30 6247 C 595.996 1.839 -5.4311 0
M  V30 6248 N 595.492 2.08365 -6.60724 0
M  V30 6249 N 597.285 1.8559 -5.30578 0
M  V30 6250 H 589.436 -0.326881 -2.0987 0
M  V30 6251 H 591.699 -0.0838006 -0.944289 0
M  V30 6252 H 591.405 0.282768 -3.50561 0
M  V30 6253 H 591.279 2.00519 -3.19487 0
M  V30 6254 H 593.666 1.9624 -2.20395 0
M  V30 6255 H 593.747 0.228603 -2.54776 0
M  V30 6256 H 593.391 0.726273 -5.0268 0
M  V30 6257 H 593.321 2.46663 -4.65258 0
M  V30 6258 H 595.812 1.40342 -3.50874 0
M  V30 6259 H 596.125 2.27999 -7.38401 0
M  V30 6260 H 594.47 2.0571 -6.63859 0
M  V30 6261 H 597.661 1.65989 -4.37682 0
M  V30 6262 H 597.834 2.05983 -6.1439 0
M  V30 6263 N 591.24 1.41047 0.703093 0
M  V30 6264 C 592.187 1.42302 1.81711 0
M  V30 6265 C 593.157 0.278336 1.63751 0
M  V30 6266 O 594.342 0.478266 1.84709 0
M  V30 6267 C 591.482 1.30362 3.19531 0
M  V30 6268 C 590.595 2.54638 3.48975 0
M  V30 6269 C 589.73 2.35047 4.76368 0
M  V30 6270 C 588.769 3.54837 4.98756 0
M  V30 6271 N 587.906 3.34363 6.1737 0
M  V30 6272 H 592.746 2.37516 1.79973 0
M  V30 6273 H 590.283 1.1795 0.878983 0
M  V30 6274 H 592.241 1.21443 3.99134 0
M  V30 6275 H 590.871 0.387602 3.20464 0
M  V30 6276 H 589.923 2.74037 2.63833 0
M  V30 6277 H 591.235 3.43766 3.61423 0
M  V30 6278 H 590.389 2.23552 5.64012 0
M  V30 6279 H 589.128 1.43363 4.66153 0
M  V30 6280 H 588.133 3.66795 4.09563 0
M  V30 6281 H 589.358 4.47464 5.10835 0
M  V30 6282 H 587.304 2.45373 6.08382 0
M  V30 6283 H 587.221 4.17063 6.30551 0
M  V30 6284 H 588.489 3.26626 7.07768 0
M  V30 6285 N 592.718 -0.936591 1.26751 0
M  V30 6286 C 593.967 -1.67778 1.11953 0
M  V30 6287 C 594.28 -1.92694 -0.33589 0
M  V30 6288 O 595.486 -2.64682 -0.604618 0
M  V30 6289 C 593.942 -3.02138 1.95551 0
M  V30 6290 C 593.55 -2.84953 3.45696 0
M  V30 6291 C 595.294 -3.79917 1.89377 0
M  V30 6292 C 593.201 -4.14814 4.21525 0
M  V30 6293 H 592.131 -0.629275 0.415366 0
M  V30 6294 H 594.782 -1.04122 1.51099 0
M  V30 6295 H 593.164 -3.668 1.49243 0
M  V30 6296 H 594.338 -2.29112 3.99805 0
M  V30 6297 H 592.653 -2.20612 3.53156 0
M  V30 6298 H 595.25 -4.76134 2.43312 0
M  V30 6299 H 595.593 -4.07204 0.865464 0
M  V30 6300 H 596.126 -3.22037 2.33532 0
M  V30 6301 H 592.865 -3.92709 5.24843 0
M  V30 6302 H 592.385 -4.70352 3.72195 0
M  V30 6303 H 594.064 -4.83239 4.3022 0
M  V30 6304 N 594.196 -1.08629 -1.14182 0
M  V30 6305 C 595.607 -0.838003 -1.66836 0
M  V30 6306 C 595.958 0.634885 -1.85644 0
M  V30 6307 O 595.083 1.49008 -1.56926 0
M  V30 6308 C 595.678 -1.51465 -3.03058 0
M  V30 6309 C 594.237 -1.31355 -3.52736 0
M  V30 6310 C 593.384 -1.57599 -2.28162 0
M  V30 6311 H 596.335 -1.24656 -0.982165 0
M  V30 6312 H 596.356 -0.943134 -3.68626 0
M  V30 6313 H 595.868 -2.58661 -2.89337 0
M  V30 6314 H 593.969 -0.262384 -3.71675 0
M  V30 6315 H 594.082 -2.04275 -4.33369 0
M  V30 6316 H 592.446 -0.997659 -2.34348 0
M  V30 6317 H 593.229 -2.66006 -2.17015 0
M  V30 6318 N 595.674 1.31259 -0.872281 0
M  V30 6319 C 596.622 2.30404 -0.318897 0
M  V30 6320 C 597.616 1.5962 0.567267 0
M  V30 6321 O 598.822 1.74204 0.453111 0
M  V30 6322 H 595.197 0.747243 -0.0844474 0
M  V30 6323 H 597.168 2.74549 -1.16899 0
M  V30 6324 C 595.917 3.44608 0.462683 0
M  V30 6325 H 595.24 3.99248 -0.209936 0
M  V30 6326 H 596.68 4.1609 0.815187 0
M  V30 6327 C 595.139 2.93456 1.65485 0
M  V30 6328 O 595.669 2.92418 2.75417 0
M  V30 6329 N 593.875 2.49628 1.48776 0
M  V30 6330 H 593.422 2.50671 0.593452 0
M  V30 6331 H 593.38 2.15759 2.28682 0
M  V30 6332 N 597.152 0.631951 1.44375 0
M  V30 6333 C 598.563 0.219036 1.85411 0
M  V30 6334 C 598.914 -1.22974 1.52879 0
M  V30 6335 O 598.039 -1.93579 0.967266 0
M  V30 6336 C 598.634 0.39075 3.36539 0
M  V30 6337 C 597.193 0.0323351 3.76386 0
M  V30 6338 C 596.34 0.703744 2.68221 0
M  V30 6339 H 599.291 0.837056 1.3483 0
M  V30 6340 H 599.312 -0.370056 3.78696 0
M  V30 6341 H 598.824 1.44527 3.60185 0
M  V30 6342 H 596.925 -1.02042 3.58355 0
M  V30 6343 H 597.038 0.442969 4.77048 0
M  V30 6344 H 595.402 0.138974 2.54321 0
M  V30 6345 H 596.185 1.76088 2.947 0
M  V30 6346 N 598.631 -1.53133 0.372548 0
M  V30 6347 C 599.908 -1.93704 -0.271693 0
M  V30 6348 C 600.288 -1.30667 -1.65799 0
M  V30 6349 O 599.636 -0.46838 -2.23648 0
M  V30 6350 C 599.846 -3.47576 -0.314903 0
M  V30 6351 C 601.194 -4.20998 -0.551912 0
M  V30 6352 O 602.218 -3.53994 -0.39582 0
M  V30 6353 O 601.077 -5.39748 -0.85639 0
M  V30 6354 H 598.171 -0.810457 -0.164586 0
M  V30 6355 H 600.717 -1.6427 0.425838 0
M  V30 6356 H 599.489 -3.85749 0.656792 0
M  V30 6357 H 599.112 -3.83264 -1.05804 0
M  V30 6358 N 600.109 -0.101901 -1.5727 0
M  V30 6359 C 601.356 0.560197 -1.94597 0
M  V30 6360 C 601.684 1.67767 -0.984101 0
M  V30 6361 O 600.939 1.95699 -0.00489193 0
M  V30 6362 C 601.238 1.14898 -3.38427 0
M  V30 6363 C 600.904 0.154613 -4.50635 0
M  V30 6364 C 599.566 -0.118861 -4.81053 0
M  V30 6365 C 601.918 -0.523979 -5.18559 0
M  V30 6366 C 599.246 -1.0775 -5.76721 0
M  V30 6367 C 601.598 -1.47114 -6.15256 0
M  V30 6368 C 600.262 -1.75278 -6.44076 0
M  V30 6369 H 599.532 0.204991 -0.712081 0
M  V30 6370 H 602.179 -0.17918 -1.9066 0
M  V30 6371 H 600.484 1.96476 -3.38976 0
M  V30 6372 H 602.181 1.66909 -3.64613 0
M  V30 6373 H 598.771 0.377948 -4.2693 0
M  V30 6374 H 602.955 -0.325851 -4.95229 0
M  V30 6375 H 598.211 -1.30263 -5.97362 0
M  V30 6376 H 602.385 -2.00274 -6.66981 0
M  V30 6377 H 600.012 -2.49717 -7.18015 0
M  V30 6378 N 601.587 1.56661 0.17182 0
M  V30 6379 C 602.834 1.81965 0.888529 0
M  V30 6380 C 603.162 0.6789 1.82267 0
M  V30 6381 O 602.417 -0.333875 1.92831 0
M  V30 6382 C 602.716 3.13435 1.71736 0
M  V30 6383 C 602.382 4.41159 0.932184 0
M  V30 6384 C 601.044 4.75851 0.715481 0
M  V30 6385 C 603.396 5.19803 0.381387 0
M  V30 6386 C 600.724 5.86666 -0.063126 0
M  V30 6387 C 603.076 6.31433 -0.384129 0
M  V30 6388 C 601.74 6.64692 -0.611637 0
M  V30 6389 H 601.01 0.665859 0.325136 0
M  V30 6390 H 603.657 1.90884 0.153495 0
M  V30 6391 H 601.962 2.99857 2.52177 0
M  V30 6392 H 603.659 3.30224 2.27493 0
M  V30 6393 H 600.249 4.13947 1.11112 0
M  V30 6394 H 604.433 4.93396 0.536148 0
M  V30 6395 H 599.689 6.10892 -0.249136 0
M  V30 6396 H 603.863 6.91577 -0.818185 0
M  V30 6397 H 601.49 7.50398 -1.21684 0
M  V30 6398 N 603.065 -0.440357 1.51323 0
M  V30 6399 C 603.975 -1.55955 1.75258 0
M  V30 6400 C 604.991 -1.61933 0.636687 0
M  V30 6401 O 606.167 -1.79231 0.918593 0
M  V30 6402 C 603.232 -2.9196 1.86977 0
M  V30 6403 C 602.293 -2.96122 3.10822 0
M  V30 6404 C 601.526 -4.2564 3.21973 0
M  V30 6405 O 601.749 -5.17851 2.39137 0
M  V30 6406 O 600.683 -4.36025 4.14929 0
M  V30 6407 H 604.509 -1.38673 2.70191 0
M  V30 6408 H 602.094 -0.623055 1.35788 0
M  V30 6409 H 603.976 -3.72682 1.96688 0
M  V30 6410 H 602.651 -3.09375 0.952307 0
M  V30 6411 H 601.558 -2.14366 3.06591 0
M  V30 6412 H 602.891 -2.83651 4.02247 0
M  V30 6413 N 604.543 -1.41418 -0.695603 0
M  V30 6414 C 605.82 -1.31264 -1.45014 0
M  V30 6415 C 606.2 0.0597994 -2.11015 0
M  V30 6416 O 605.548 1.07403 -2.01685 0
M  V30 6417 C 605.758 -2.466 -2.4696 0
M  V30 6418 C 607.106 -2.87763 -3.12214 0
M  V30 6419 O 608.13 -2.46339 -2.57285 0
M  V30 6420 O 606.989 -3.59395 -4.11701 0
M  V30 6421 H 604.083 -0.516576 -0.645816 0
M  V30 6422 H 606.629 -1.53382 -0.726084 0
M  V30 6423 H 605.401 -3.38183 -1.96845 0
M  V30 6424 H 605.024 -2.26358 -3.26876 0
M  V30 6425 N 606.021 0.929856 -1.27246 0
M  V30 6426 C 606.951 2.04722 -1.12299 0
M  V30 6427 C 607.932 1.70082 -0.0250464 0
M  V30 6428 O 609.117 1.93176 -0.199141 0
M  V30 6429 C 606.247 3.38721 -0.767145 0
M  V30 6430 C 605.201 3.87466 -1.81808 0
M  V30 6431 C 604.527 5.18246 -1.31626 0
M  V30 6432 C 605.827 4.11095 -3.22177 0
M  V30 6433 H 607.521 2.17485 -2.05769 0
M  V30 6434 H 605.067 1.04503 -0.990715 0
M  V30 6435 H 607.02 4.16366 -0.649413 0
M  V30 6436 H 605.744 3.25967 0.203259 0
M  V30 6437 H 604.403 3.12012 -1.92468 0
M  V30 6438 H 604.051 5.01881 -0.335378 0
M  V30 6439 H 603.751 5.51829 -2.01887 0
M  V30 6440 H 605.275 5.98462 -1.21143 0
M  V30 6441 H 606.689 4.79316 -3.1453 0
M  V30 6442 H 605.086 4.55982 -3.90129 0
M  V30 6443 H 606.156 3.16468 -3.67391 0
M  V30 6444 N 607.499 1.09233 1.13605 0
M  V30 6445 C 608.409 0.741939 2.22559 0
M  V30 6446 C 609.425 -0.255236 1.72118 0
M  V30 6447 O 610.601 -0.0970747 2.01166 0
M  V30 6448 C 607.666 0.165595 3.46304 0
M  V30 6449 C 606.727 1.21846 4.11645 0
M  V30 6450 C 605.96 0.669526 5.29484 0
M  V30 6451 O 606.183 -0.508228 5.68131 0
M  V30 6452 O 605.117 1.42361 5.84822 0
M  V30 6453 H 608.943 1.65107 2.54899 0
M  V30 6454 H 606.528 0.866584 1.21699 0
M  V30 6455 H 608.41 -0.152592 4.21124 0
M  V30 6456 H 607.085 -0.716573 3.15669 0
M  V30 6457 H 605.992 1.58931 3.38662 0
M  V30 6458 H 607.325 2.07321 4.46407 0
M  V30 6459 N 608.977 -1.30795 0.87923 0
M  V30 6460 C 610.388 -1.78535 0.546093 0
M  V30 6461 C 610.739 -1.72354 -0.937467 0
M  V30 6462 O 609.864 -1.2969 -1.73233 0
M  V30 6463 C 610.459 -3.24181 0.9845 0
M  V30 6464 C 609.018 -3.69779 0.702871 0
M  V30 6465 C 608.165 -2.51377 1.17068 0
M  V30 6466 H 611.116 -1.17746 1.06403 0
M  V30 6467 H 611.137 -3.79227 0.311045 0
M  V30 6468 H 610.649 -3.28647 2.06429 0
M  V30 6469 H 608.75 -3.70806 -0.365166 0
M  V30 6470 H 608.863 -4.61507 1.28639 0
M  V30 6471 H 607.227 -2.47768 0.590172 0
M  V30 6472 H 608.01 -2.58584 2.25808 0
M  V30 6473 N 610.455 -0.639598 -1.44038 0
M  V30 6474 C 611.702 -0.14748 -2.01962 0
M  V30 6475 C 612.03 1.23372 -1.50365 0
M  V30 6476 O 611.285 1.8345 -0.681501 0
M  V30 6477 C 611.584 -0.0925348 -3.5728 0
M  V30 6478 C 611.25 -1.41365 -4.28167 0
M  V30 6479 C 609.912 -1.77545 -4.47248 0
M  V30 6480 C 612.264 -2.2853 -4.68427 0
M  V30 6481 C 609.592 -3.00583 -5.03852 0
M  V30 6482 C 611.944 -3.50846 -5.26393 0
M  V30 6483 C 610.608 -3.8724 -5.43692 0
M  V30 6484 H 609.878 -0.0539666 -0.739032 0
M  V30 6485 H 612.525 -0.827599 -1.72694 0
M  V30 6486 H 610.83 0.670987 -3.86012 0
M  V30 6487 H 612.527 0.304891 -3.99839 0
M  V30 6488 H 609.117 -1.1221 -4.13651 0
M  V30 6489 H 613.301 -2.0187 -4.5339 0
M  V30 6490 H 608.557 -3.28846 -5.15432 0
M  V30 6491 H 612.731 -4.18616 -5.56537 0
M  V30 6492 H 610.358 -4.8266 -5.87319 0
M  V30 6493 N 611.933 1.52934 -0.380664 0
M  V30 6494 C 613.349 1.59571 -0.0302429 0
M  V30 6495 C 613.549 1.39509 1.45394 0
M  V30 6496 O 612.605 1.20777 2.21741 0
M  V30 6497 C 613.918 2.96519 -0.499691 0
M  V30 6498 C 615.466 3.09672 -0.455204 0
M  V30 6499 C 615.941 4.49056 -0.900703 0
M  V30 6500 N 617.432 4.55215 -0.856367 0
M  V30 6501 C 618.167 5.61282 -1.17259 0
M  V30 6502 N 617.663 6.75035 -1.55885 0
M  V30 6503 N 619.456 5.51343 -1.0944 0
M  V30 6504 H 611.607 1.64224 -1.347 0
M  V30 6505 H 613.87 0.771033 -0.551554 0
M  V30 6506 H 613.576 3.16388 -1.53595 0
M  V30 6507 H 613.45 3.77052 0.105789 0
M  V30 6508 H 615.837 2.89504 0.571949 0
M  V30 6509 H 615.918 2.31113 -1.09638 0
M  V30 6510 H 615.562 4.69964 -1.92604 0
M  V30 6511 H 615.492 5.26068 -0.236629 0
M  V30 6512 H 617.983 3.73546 -0.572013 0
M  V30 6513 H 618.296 7.51926 -1.784 0
M  V30 6514 H 616.641 6.76388 -1.59764 0
M  V30 6515 H 619.832 4.61356 -0.791713 0
M  V30 6516 H 620.005 6.33905 -1.34417 0
M  V30 6517 N 613.412 0.11024 1.57214 0
M  V30 6518 C 614.345 -0.880224 2.1054 0
M  V30 6519 C 615.323 -1.26658 1.01964 0
M  V30 6520 O 616.507 -1.36917 1.29561 0
M  V30 6521 C 613.634 -2.17676 2.59489 0
M  V30 6522 C 612.68 -1.93914 3.79868 0
M  V30 6523 S 613.513 -1.16336 5.2271 0
M  V30 6524 C 614.669 -2.47188 5.75021 0
M  V30 6525 H 614.902 -0.426614 2.94223 0
M  V30 6526 H 612.435 -0.10336 1.54054 0
M  V30 6527 H 614.393 -2.92175 2.88347 0
M  V30 6528 H 613.054 -2.60156 1.76005 0
M  V30 6529 H 612.247 -2.8996 4.12236 0
M  V30 6530 H 611.849 -1.27539 3.51582 0
M  V30 6531 H 614.141 -3.43079 5.84211 0
M  V30 6532 H 615.084 -2.19377 6.7326 0
M  V30 6533 H 615.492 -2.56154 5.03036 0
M  V30 6534 N 614.89 -1.56749 -0.16351 0
M  V30 6535 C 616.118 -1.86577 -0.894233 0
M  V30 6536 C 616.533 -0.696543 -1.75481 0
M  V30 6537 O 615.89 0.334161 -1.79415 0
M  V30 6538 C 615.941 -3.15508 -1.76456 0
M  V30 6539 O 615.662 -4.27926 -0.938685 0
M  V30 6540 C 617.163 -3.58737 -2.60428 0
M  V30 6541 H 614.383 -0.618829 -0.259405 0
M  V30 6542 H 616.927 -2.03863 -0.161259 0
M  V30 6543 H 615.082 -3.00025 -2.45079 0
M  V30 6544 H 615.496 -5.01546 -1.53465 0
M  V30 6545 H 616.97 -4.51832 -3.17099 0
M  V30 6546 H 617.447 -2.83229 -3.35675 0
M  V30 6547 H 618.053 -3.76858 -1.97125 0
M  V30 6548 N 616.368 0.432326 -1.51554 0
M  V30 6549 C 617.779 1.01202 -1.56892 0
M  V30 6550 C 618.13 1.92175 -0.395394 0
M  V30 6551 O 617.255 2.10844 0.487198 0
M  V30 6552 C 617.85 1.84217 -2.8434 0
M  V30 6553 C 616.409 2.37228 -2.92233 0
M  V30 6554 C 615.556 1.16576 -2.51606 0
M  V30 6555 H 618.507 0.213407 -1.57259 0
M  V30 6556 H 618.528 2.69721 -2.68385 0
M  V30 6557 H 618.04 1.17979 -3.69733 0
M  V30 6558 H 616.141 3.06905 -2.11282 0
M  V30 6559 H 616.254 2.69682 -3.95991 0
M  V30 6560 H 614.618 1.51263 -2.04919 0
M  V30 6561 H 615.401 0.519404 -3.39348 0
M  V30 6562 N 617.846 1.41785 0.688094 0
M  V30 6563 C 619.093 1.41544 1.44816 0
M  V30 6564 C 619.421 0.0271746 1.94481 0
M  V30 6565 O 618.676 -0.962235 1.7041 0
M  V30 6566 C 618.975 2.37532 2.67046 0
M  V30 6567 C 618.641 3.84209 2.35996 0
M  V30 6568 C 617.303 4.24165 2.27239 0
M  V30 6569 C 619.655 4.76785 2.10536 0
M  V30 6570 C 616.983 5.54695 1.91128 0
M  V30 6571 C 619.335 6.07644 1.75931 0
M  V30 6572 C 617.999 6.46613 1.65675 0
M  V30 6573 H 617.269 0.517945 0.529919 0
M  V30 6574 H 619.916 1.74635 0.785797 0
M  V30 6575 H 618.221 1.9772 3.38251 0
M  V30 6576 H 619.918 2.34615 3.25203 0
M  V30 6577 H 616.508 3.52567 2.4371 0
M  V30 6578 H 620.692 4.46714 2.16242 0
M  V30 6579 H 615.948 5.83762 1.81746 0
M  V30 6580 H 620.122 6.78874 1.55252 0
M  V30 6581 H 617.749 7.47668 1.37463 0
M  V30 6582 N 619.324 -0.923095 1.27737 0
M  V30 6583 C 620.549 -1.71054 1.17283 0
M  V30 6584 C 620.974 -1.86208 -0.266153 0
M  V30 6585 O 620.332 -1.36545 -1.1927 0
M  V30 6586 C 620.38 -3.0854 1.86642 0
M  V30 6587 O 619.484 -3.95528 1.16752 0
M  V30 6588 H 618.825 -0.524136 0.407649 0
M  V30 6589 H 621.355 -1.15487 1.6889 0
M  V30 6590 H 621.365 -3.58828 1.94182 0
M  V30 6591 H 620.04 -2.96828 2.91317 0
M  V30 6592 H 618.617 -3.53967 1.17312 0
M  V30 6593 N 620.802 -1.09834 -1.13024 0
M  V30 6594 C 621.765 -0.745058 -2.16752 0
M  V30 6595 C 622.765 0.227435 -1.59183 0
M  V30 6596 O 623.955 0.0050786 -1.74199 0
M  V30 6597 C 621.087 -0.102543 -3.40746 0
M  V30 6598 H 622.28 -1.66375 -2.49518 0
M  V30 6599 H 619.833 -0.898061 -1.27924 0
M  V30 6600 H 620.568 0.827177 -3.13573 0
M  V30 6601 H 620.353 -0.80235 -3.83803 0
M  V30 6602 H 621.843 0.129082 -4.174 0
M  V30 6603 N 622.28 1.30327 -0.886154 0
M  V30 6604 C 623.529 1.95373 -0.501243 0
M  V30 6605 C 623.842 1.70722 0.954634 0
M  V30 6606 O 625.048 2.29761 1.44644 0
M  V30 6607 C 623.504 3.49828 -0.845493 0
M  V30 6608 C 623.112 3.83296 -2.31922 0
M  V30 6609 C 624.856 4.2118 -0.529838 0
M  V30 6610 C 622.763 5.30935 -2.60504 0
M  V30 6611 H 621.693 0.731274 -0.183722 0
M  V30 6612 H 624.344 1.48258 -1.08129 0
M  V30 6613 H 622.726 3.95522 -0.19452 0
M  V30 6614 H 623.9 3.48508 -3.01461 0
M  V30 6615 H 622.215 3.2505 -2.60253 0
M  V30 6616 H 624.812 5.29825 -0.720401 0
M  V30 6617 H 625.155 4.12902 0.530828 0
M  V30 6618 H 625.688 3.81173 -1.13806 0
M  V30 6619 H 622.427 5.44265 -3.65316 0
M  V30 6620 H 621.947 5.67019 -1.95575 0
M  V30 6621 H 623.626 5.98381 -2.46066 0
M  V30 6622 N 623.758 0.647228 1.43697 0
M  V30 6623 C 625.006 0.157876 2.01482 0
M  V30 6624 C 625.327 -1.23039 1.51282 0
M  V30 6625 O 624.597 -1.82071 0.722982 0
M  V30 6626 H 623.177 0.0553745 0.744945 0
M  V30 6627 H 625.839 0.83755 1.75986 0
M  V30 6628 H 624.935 0.137895 3.11795 0
M  V30 6629 N 625.236 -1.5273 0.388769 0
M  V30 6630 C 626.166 -2.29353 -0.438111 0
M  V30 6631 C 627.147 -1.32719 -1.06394 0
M  V30 6632 O 628.332 -1.61612 -1.07681 0
M  V30 6633 C 625.462 -3.09995 -1.56589 0
M  V30 6634 C 624.416 -4.14509 -1.06613 0
M  V30 6635 C 623.742 -4.83372 -2.28594 0
M  V30 6636 C 625.042 -5.22127 -0.134459 0
M  V30 6637 H 626.736 -2.98723 0.201206 0
M  V30 6638 H 624.282 -1.43665 0.0982089 0
M  V30 6639 H 626.235 -3.62357 -2.15118 0
M  V30 6640 H 624.959 -2.38357 -2.23279 0
M  V30 6641 H 623.618 -3.63128 -0.503383 0
M  V30 6642 H 623.266 -4.08283 -2.93792 0
M  V30 6643 H 622.966 -5.54012 -1.95817 0
M  V30 6644 H 624.49 -5.38538 -2.87766 0
M  V30 6645 H 625.904 -5.69851 -0.627914 0
M  V30 6646 H 624.301 -6.00011 0.103534 0
M  V30 6647 H 625.371 -4.77971 0.816798 0
M  V30 6648 N 626.714 -0.118576 -1.57153 0
M  V30 6649 C 627.624 0.845484 -2.18835 0
M  V30 6650 C 628.64 1.29299 -1.16438 0
M  V30 6651 O 629.816 1.35607 -1.48905 0
M  V30 6652 C 626.881 2.07795 -2.77529 0
M  V30 6653 C 625.942 1.6824 -3.9496 0
M  V30 6654 C 625.175 2.85612 -4.50845 0
M  V30 6655 O 625.398 4.01025 -4.05629 0
M  V30 6656 O 624.332 2.62721 -5.41536 0
M  V30 6657 H 628.158 0.350568 -3.0167 0
M  V30 6658 H 625.743 0.107013 -1.49016 0
M  V30 6659 H 627.625 2.79978 -3.14945 0
M  V30 6660 H 626.3 2.56294 -1.97725 0
M  V30 6661 H 625.207 0.931663 -3.62313 0
M  V30 6662 H 626.54 1.24484 -4.76198 0
M  V30 6663 N 628.193 1.56834 0.155195 0
M  V30 6664 C 629.123 2.00678 1.19376 0
M  V30 6665 C 630.104 0.884973 1.45266 0
M  V30 6666 O 631.289 1.1522 1.56326 0
M  V30 6667 C 628.419 2.38042 2.5289 0
M  V30 6668 C 627.373 3.53332 2.41538 0
M  V30 6669 C 626.699 3.76485 3.79688 0
M  V30 6670 C 627.999 4.86265 1.9064 0
M  V30 6671 H 629.693 2.87688 0.829232 0
M  V30 6672 H 627.239 1.38407 0.397445 0
M  V30 6673 H 629.192 2.67314 3.25763 0
M  V30 6674 H 627.916 1.4796 2.91162 0
M  V30 6675 H 626.575 3.24213 1.71117 0
M  V30 6676 H 626.223 2.83667 4.15382 0
M  V30 6677 H 625.923 4.54068 3.72956 0
M  V30 6678 H 627.447 4.08174 4.54122 0
M  V30 6679 H 628.861 5.14308 2.53299 0
M  V30 6680 H 627.258 5.67597 1.94818 0
M  V30 6681 H 628.328 4.77184 0.861596 0
M  V30 6682 N 629.671 -0.424282 1.51781 0
M  V30 6683 C 630.917 -1.17117 1.66298 0
M  V30 6684 C 631.272 -1.88595 0.380767 0
M  V30 6685 O 630.565 -1.81151 -0.624094 0
M  V30 6686 C 630.759 -2.20418 2.81337 0
M  V30 6687 C 630.588 -1.59081 4.20622 0
M  V30 6688 C 629.358 -1.37007 4.86371 0
M  V30 6689 C 631.556 -1.05992 5.0326 0
M  V30 6690 N 629.538 -0.714049 6.09733 0
M  V30 6691 C 630.909 -0.529933 6.17731 0
M  V30 6692 C 632.964 -0.952927 4.88696 0
M  V30 6693 C 631.667 0.0965457 7.19235 0
M  V30 6694 C 633.693 -0.340325 5.9042 0
M  V30 6695 C 633.055 0.179057 7.04172 0
M  V30 6696 H 629.154 -0.41577 0.662314 0
M  V30 6697 H 631.738 -0.46579 1.89046 0
M  V30 6698 H 629.909 -2.8833 2.60231 0
M  V30 6699 H 631.641 -2.8736 2.84968 0
M  V30 6700 H 628.396 -1.63543 4.44467 0
M  V30 6701 H 628.82 -0.403101 6.75799 0
M  V30 6702 H 633.462 -1.34033 4.00993 0
M  V30 6703 H 631.18 0.496044 8.06576 0
M  V30 6704 H 634.766 -0.259266 5.81222 0
M  V30 6705 H 633.646 0.645626 7.81538 0
M  V30 6706 N 631.149 -1.42148 -0.680565 0
M  V30 6707 C 632.374 -1.45901 -1.47403 0
M  V30 6708 C 632.799 -0.0700985 -1.87969 0
M  V30 6709 O 632.157 0.930145 -1.55621 0
M  V30 6710 C 632.205 -2.38661 -2.70321 0
M  V30 6711 O 631.309 -1.85399 -3.68376 0
M  V30 6712 H 630.65 -0.494565 -0.443059 0
M  V30 6713 H 633.18 -1.86774 -0.835251 0
M  V30 6714 H 633.19 -2.55046 -3.18458 0
M  V30 6715 H 631.865 -3.39571 -2.40134 0
M  V30 6716 H 630.442 -1.78541 -3.2738 0
M  V30 6717 N 632.627 0.916307 -1.28225 0
M  V30 6718 C 633.56 2.01954 -1.06254 0
M  V30 6719 C 634.538 1.62587 0.0205983 0
M  V30 6720 O 635.722 1.88073 -0.126824 0
M  V30 6721 C 632.849 3.33086 -0.614141 0
M  V30 6722 C 631.895 3.91435 -1.69354 0
M  V30 6723 S 632.728 4.22603 -3.28887 0
M  V30 6724 C 633.884 5.568 -2.85876 0
M  V30 6725 H 634.117 2.20281 -1.99659 0
M  V30 6726 H 631.65 1.06085 -1.12184 0
M  V30 6727 H 633.608 4.089 -0.36213 0
M  V30 6728 H 632.269 3.12664 0.300036 0
M  V30 6729 H 631.462 4.86098 -1.33136 0
M  V30 6730 H 631.064 3.22248 -1.89821 0
M  V30 6731 H 633.356 6.3658 -2.31888 0
M  V30 6732 H 634.299 5.97927 -3.79326 0
M  V30 6733 H 634.707 5.17865 -2.24669 0
M  V30 6734 N 634.105 1.10431 1.1244 0
M  V30 6735 C 635.333 0.868872 1.87772 0
M  V30 6736 C 635.748 -0.580645 1.7965 0
M  V30 6737 O 635.105 -1.40031 1.17036 0
M  V30 6738 C 635.156 1.30855 3.36986 0
M  V30 6739 O 634.877 2.70123 3.44914 0
M  V30 6740 C 636.378 1.107 4.29256 0
M  V30 6741 H 633.598 0.311868 0.59412 0
M  V30 6742 H 636.142 1.46897 1.42273 0
M  V30 6743 H 634.297 0.752126 3.80029 0
M  V30 6744 H 634.711 2.88923 4.37748 0
M  V30 6745 H 636.185 1.46378 5.32238 0
M  V30 6746 H 636.662 0.0456228 4.39176 0
M  V30 6747 H 637.268 1.64988 3.91994 0
M  V30 6748 N 635.583 -1.29855 0.893053 0
M  V30 6749 C 636.808 -2.00512 0.530066 0
M  V30 6750 C 637.233 -1.66446 -0.876199 0
M  V30 6751 O 636.591 -0.885446 -1.58207 0
M  V30 6752 C 636.639 -3.53308 0.721505 0
M  V30 6753 O 635.743 -4.11764 -0.228994 0
M  V30 6754 H 635.084 -0.630617 0.207891 0
M  V30 6755 H 637.614 -1.6551 1.20282 0
M  V30 6756 H 637.624 -4.03206 0.623599 0
M  V30 6757 H 636.299 -3.77439 1.74678 0
M  V30 6758 H 634.876 -3.72805 -0.0841034 0
M  V30 6759 N 637.061 -0.65484 -1.43351 0
M  V30 6760 C 638.338 -0.0987371 -1.95351 0
M  V30 6761 C 638.718 1.38161 -1.59608 0
M  V30 6762 O 638.066 2.10791 -0.882021 0
M  V30 6763 C 638.276 -0.346684 -3.47274 0
M  V30 6764 C 639.624 -0.25249 -4.23849 0
M  V30 6765 O 640.648 -0.279332 -3.55103 0
M  V30 6766 O 639.507 -0.177584 -5.46211 0
M  V30 6767 H 636.601 0.0086829 -0.826954 0
M  V30 6768 H 639.147 -0.728189 -1.53282 0
M  V30 6769 H 637.919 -1.37296 -3.66423 0
M  V30 6770 H 637.542 0.315757 -3.96344 0
M  V30 6771 N 638.539 1.52521 -0.396863 0
M  V30 6772 C 639.788 2.00857 0.184184 0
M  V30 6773 C 640.101 1.28733 1.47265 0
M  V30 6774 O 641.307 1.67821 2.13421 0
M  V30 6775 C 639.763 3.57901 0.378787 0
M  V30 6776 C 639.371 4.38931 -0.896873 0
M  V30 6777 C 641.115 4.14504 0.915789 0
M  V30 6778 C 639.022 5.87591 -0.670133 0
M  V30 6779 H 637.952 0.750496 0.0726055 0
M  V30 6780 H 640.603 1.75965 -0.520425 0
M  V30 6781 H 638.985 3.79072 1.14543 0
M  V30 6782 H 640.159 4.29524 -1.66872 0
M  V30 6783 H 638.474 3.93586 -1.35938 0
M  V30 6784 H 641.071 5.23236 1.10126 0
M  V30 6785 H 641.414 3.71076 1.88701 0
M  V30 6786 H 641.947 3.97253 0.208523 0
M  V30 6787 H 638.686 6.35355 -1.61257 0
M  V30 6788 H 638.206 5.99767 0.0626368 0
M  V30 6789 H 639.885 6.46268 -0.307577 0
M  V30 6790 N 640.017 0.126909 1.57088 0
M  V30 6791 C 641.264 -0.529168 1.95464 0
M  V30 6792 C 641.592 -1.6618 1.01067 0
M  V30 6793 O 640.847 -1.95667 0.0360254 0
M  V30 6794 C 641.146 -1.095 3.40212 0
M  V30 6795 C 640.812 -0.0829015 4.50824 0
M  V30 6796 C 639.474 0.195377 4.80803 0
M  V30 6797 C 641.826 0.606411 5.1766 0
M  V30 6798 C 639.154 1.16912 5.74933 0
M  V30 6799 C 641.506 1.56884 6.12838 0
M  V30 6800 C 640.17 1.85502 6.41206 0
M  V30 6801 H 639.44 -0.193636 0.715252 0
M  V30 6802 H 642.087 0.209489 1.90351 0
M  V30 6803 H 640.392 -1.91058 3.42059 0
M  V30 6804 H 642.089 -1.61087 3.67222 0
M  V30 6805 H 638.679 -0.309979 4.27478 0
M  V30 6806 H 642.863 0.404597 4.94648 0
M  V30 6807 H 638.119 1.3975 5.95214 0
M  V30 6808 H 642.293 2.10859 6.6371 0
M  V30 6809 H 639.92 2.61109 7.13951 0
M  V30 6810 N 641.495 -1.56914 -0.146875 0
M  V30 6811 C 642.742 -1.83356 -0.859467 0
M  V30 6812 C 643.07 -0.707811 -1.81164 0
M  V30 6813 O 642.325 0.303155 -1.93338 0
M  V30 6814 C 642.624 -3.16128 -1.66727 0
M  V30 6815 C 642.29 -4.42586 -0.861881 0
M  V30 6816 C 640.952 -4.76929 -0.639687 0
M  V30 6817 C 643.304 -5.20344 -0.298643 0
M  V30 6818 C 640.632 -5.86491 0.156451 0
M  V30 6819 C 642.984 -6.30742 0.484536 0
M  V30 6820 C 641.648 -6.63635 0.717306 0
M  V30 6821 H 640.918 -0.670947 -0.314501 0
M  V30 6822 H 643.565 -1.91104 -0.123108 0
M  V30 6823 H 641.87 -3.03831 -2.47374 0
M  V30 6824 H 643.567 -3.33802 -2.2221 0
M  V30 6825 H 640.157 -4.15662 -1.04513 0
M  V30 6826 H 644.341 -4.94186 -0.457585 0
M  V30 6827 H 639.597 -6.10419 0.346292 0
M  V30 6828 H 643.771 -6.90188 0.928105 0
M  V30 6829 H 641.398 -7.48367 1.33607 0
M  V30 6830 N 642.974 0.416227 -1.52004 0
M  V30 6831 C 644.251 1.17637 -1.56272 0
M  V30 6832 C 644.631 2.08352 -0.339493 0
M  V30 6833 O 643.979 2.1833 0.674124 0
M  V30 6834 C 644.189 1.95986 -2.88774 0
M  V30 6835 C 645.537 2.52299 -3.41512 0
M  V30 6836 O 646.561 2.06174 -2.90467 0
M  V30 6837 O 645.42 3.3648 -4.30631 0
M  V30 6838 H 642.514 0.536726 -0.629169 0
M  V30 6839 H 645.06 0.423583 -1.64329 0
M  V30 6840 H 643.832 1.29487 -3.69254 0
M  V30 6841 H 643.455 2.78285 -2.83978 0
M  V30 6842 N 644.452 1.42507 0.673017 0
M  V30 6843 C 645.4 1.46362 1.80779 0
M  V30 6844 C 646.394 0.339166 1.6597 0
M  V30 6845 O 647.6 0.512262 1.72557 0
M  V30 6846 H 643.975 0.458433 0.596107 0
M  V30 6847 H 645.946 2.41953 1.74646 0
M  V30 6848 C 644.695 1.38462 3.18941 0
M  V30 6849 H 644.018 2.24283 3.30964 0
M  V30 6850 H 645.458 1.45221 3.98355 0
M  V30 6851 C 643.917 0.0996354 3.36753 0
M  V30 6852 O 644.447 -0.846894 3.92671 0
M  V30 6853 N 642.653 0.016211 2.90595 0
M  V30 6854 H 642.2 0.78725 2.45276 0
M  V30 6855 H 642.158 -0.84291 3.0289 0
M  V30 6856 N 645.93 -0.909495 1.28709 0
M  V30 6857 C 647.177 -1.65905 1.16111 0
M  V30 6858 C 647.505 -1.92334 -0.289436 0
M  V30 6859 O 646.76 -1.52495 -1.22653 0
M  V30 6860 C 647.059 -3.02117 1.90945 0
M  V30 6861 C 646.725 -2.95332 3.40719 0
M  V30 6862 C 645.387 -2.93189 3.81567 0
M  V30 6863 C 647.739 -2.85264 4.36204 0
M  V30 6864 C 645.067 -2.78784 5.16233 0
M  V30 6865 C 647.419 -2.724 5.70948 0
M  V30 6866 C 646.083 -2.68617 6.11066 0
M  V30 6867 H 645.353 -0.60709 0.42488 0
M  V30 6868 H 648 -1.05932 1.59533 0
M  V30 6869 H 646.305 -3.65901 1.40085 0
M  V30 6870 H 648.002 -3.59026 1.7861 0
M  V30 6871 H 644.592 -2.97797 3.08245 0
M  V30 6872 H 648.776 -2.86005 4.05605 0
M  V30 6873 H 644.032 -2.74254 5.46438 0
M  V30 6874 H 648.206 -2.63579 6.44592 0
M  V30 6875 H 645.833 -2.57213 7.15364 0
M  V30 6876 N 647.408 -1.11026 -1.11852 0
M  V30 6877 C 648.657 -0.851249 -1.82857 0
M  V30 6878 C 648.97 0.62514 -1.85341 0
M  V30 6879 O 650.176 1.00026 -2.52403 0
M  V30 6880 C 648.632 -1.47309 -3.28372 0
M  V30 6881 C 648.24 -2.9832 -3.34229 0
M  V30 6882 C 649.984 -1.29373 -4.04306 0
M  V30 6883 C 647.891 -3.53509 -4.74115 0
M  V30 6884 H 646.821 -0.314794 -0.685143 0
M  V30 6885 H 649.472 -1.33499 -1.25898 0
M  V30 6886 H 647.854 -0.917017 -3.85236 0
M  V30 6887 H 649.028 -3.60295 -2.87271 0
M  V30 6888 H 647.343 -3.15482 -2.71772 0
M  V30 6889 H 649.94 -1.68042 -5.07608 0
M  V30 6890 H 650.283 -0.235879 -4.15631 0
M  V30 6891 H 650.816 -1.8182 -3.53817 0
M  V30 6892 H 647.555 -4.58987 -4.67986 0
M  V30 6893 H 647.075 -2.96305 -5.21501 0
M  V30 6894 H 648.754 -3.51693 -5.43066 0
M  V30 6895 N 648.886 1.2938 -0.899927 0
M  V30 6896 C 650.135 1.9483 -0.521937 0
M  V30 6897 C 650.448 1.71725 0.936473 0
M  V30 6898 O 651.654 2.31282 1.42199 0
M  V30 6899 C 650.11 3.48911 -0.88255 0
M  V30 6900 C 649.718 3.80815 -2.35974 0
M  V30 6901 C 651.462 4.20595 -0.57448 0
M  V30 6902 C 649.369 5.28142 -2.66121 0
M  V30 6903 H 648.299 0.729285 -0.191468 0
M  V30 6904 H 650.95 1.47103 -1.09695 0
M  V30 6905 H 649.332 3.95293 -0.236459 0
M  V30 6906 H 650.506 3.45291 -3.05141 0
M  V30 6907 H 648.821 3.22271 -2.63686 0
M  V30 6908 H 651.418 5.29031 -0.776556 0
M  V30 6909 H 651.761 4.13442 0.487005 0
M  V30 6910 H 652.294 3.79945 -1.17842 0
M  V30 6911 H 649.033 5.4036 -3.71068 0
M  V30 6912 H 648.553 5.64913 -2.01578 0
M  V30 6913 H 650.232 5.95738 -2.52399 0
M  V30 6914 N 650.364 0.662433 1.43002 0
M  V30 6915 C 651.604 0.183312 2.03576 0
M  V30 6916 C 651.968 -1.18354 1.51183 0
M  V30 6917 O 653.169 -1.7566 2.03462 0
M  V30 6918 C 651.44 0.202908 3.56824 0
M  V30 6919 S 652.999 -0.20702 4.38311 0
M  V30 6920 H 649.817 0.0765001 0.706872 0
M  V30 6921 H 652.419 0.872827 1.74934 0
M  V30 6922 H 651.123 1.20028 3.92456 0
M  V30 6923 H 650.654 -0.506845 3.90121 0
M  V30 6924 H 652.669 -1.44358 4.74737 0
M  V30 6925 N 651.842 -1.52309 0.404946 0
M  V30 6926 C 652.805 -2.25491 -0.410651 0
M  V30 6927 C 653.805 -1.27704 -0.977154 0
M  V30 6928 O 654.995 -1.51679 -0.856691 0
M  V30 6929 C 652.127 -3.02197 -1.57765 0
M  V30 6930 H 653.32 -2.99015 0.230277 0
M  V30 6931 H 650.873 -1.55506 0.157377 0
M  V30 6932 H 651.608 -2.33013 -2.25556 0
M  V30 6933 H 651.393 -3.73987 -1.17797 0
M  V30 6934 H 652.883 -3.57719 -2.15469 0
M  V30 6935 N 653.32 -0.135238 -1.57019 0
M  V30 6936 C 654.597 0.563227 -1.87316 0
M  V30 6937 C 654.977 1.83749 -1.03921 0
M  V30 6938 O 654.325 2.2817 -0.122675 0
M  V30 6939 C 654.535 0.840031 -3.3874 0
M  V30 6940 C 655.883 1.18598 -4.077 0
M  V30 6941 O 656.907 0.92977 -3.43851 0
M  V30 6942 O 655.766 1.66758 -5.20436 0
M  V30 6943 H 652.86 0.285971 -0.775983 0
M  V30 6944 H 655.406 -0.170965 -1.68837 0
M  V30 6945 H 654.178 -0.0622785 -3.9125 0
M  V30 6946 H 653.801 1.62882 -3.62706 0
M  V30 6947 N 654.798 1.5699 0.138552 0
M  V30 6948 C 656.214 1.51844 0.491472 0
M  V30 6949 C 656.414 0.845063 1.82923 0
M  V30 6950 O 655.47 0.419143 2.48997 0
M  V30 6951 C 656.783 2.96615 0.493987 0
M  V30 6952 C 658.331 3.076 0.578913 0
M  V30 6953 C 658.806 4.53893 0.612009 0
M  V30 6954 N 660.297 4.5827 0.673997 0
M  V30 6955 C 661.032 5.68852 0.720729 0
M  V30 6956 N 660.528 6.88982 0.726292 0
M  V30 6957 N 662.321 5.56908 0.762253 0
M  V30 6958 H 654.472 1.99158 -0.738228 0
M  V30 6959 H 656.735 0.908693 -0.270149 0
M  V30 6960 H 656.441 3.49172 -0.420933 0
M  V30 6961 H 656.315 3.53017 1.32887 0
M  V30 6962 H 658.702 2.55057 1.48425 0
M  V30 6963 H 658.783 2.54227 -0.283286 0
M  V30 6964 H 658.427 5.07076 -0.289208 0
M  V30 6965 H 658.357 5.05057 1.49082 0
M  V30 6966 H 660.848 3.71793 0.676654 0
M  V30 6967 H 661.161 7.69014 0.764032 0
M  V30 6968 H 659.506 6.91526 0.69403 0
M  V30 6969 H 662.697 4.61969 0.755135 0
M  V30 6970 H 662.87 6.43102 0.795207 0
M  V30 6971 N 656.276 -0.40816 1.52223 0
M  V30 6972 C 657.692 -0.74685 1.41047 0
M  V30 6973 C 657.892 -1.94788 0.51573 0
M  V30 6974 O 656.948 -2.52494 -0.0181156 0
M  V30 6975 C 658.261 -0.999878 2.83589 0
M  V30 6976 C 659.809 -1.10253 2.92939 0
M  V30 6977 C 660.284 -1.38832 4.36451 0
M  V30 6978 N 661.775 -1.45694 4.3969 0
M  V30 6979 C 662.51 -1.69435 5.47795 0
M  V30 6980 N 662.006 -1.90774 6.66016 0
M  V30 6981 N 663.799 -1.71458 5.35312 0
M  V30 6982 H 655.95 0.382409 2.08929 0
M  V30 6983 H 658.213 0.108807 0.941735 0
M  V30 6984 H 657.919 -0.189723 3.51188 0
M  V30 6985 H 657.793 -1.91978 3.24691 0
M  V30 6986 H 660.18 -1.90328 2.2552 0
M  V30 6987 H 660.261 -0.160973 2.55293 0
M  V30 6988 H 659.905 -0.592741 5.04429 0
M  V30 6989 H 659.835 -2.34241 4.71634 0
M  V30 6990 H 662.326 -1.3099 3.54472 0
M  V30 6991 H 662.639 -2.08342 7.44186 0
M  V30 6992 H 660.984 -1.88037 6.69079 0
M  V30 6993 H 664.175 -1.54326 4.41929 0
M  V30 6994 H 664.348 -1.89621 6.19635 0
M  V30 6995 N 657.755 -1.42862 -0.66545 0
M  V30 6996 C 659.004 -1.43119 -1.42126 0
M  V30 6997 C 659.317 -0.0545297 -1.95524 0
M  V30 6998 O 660.523 0.0654747 -2.71421 0
M  V30 6999 C 658.979 -2.51797 -2.5715 0
M  V30 7000 C 658.587 -3.95514 -2.10411 0
M  V30 7001 C 660.331 -2.61233 -3.346 0
M  V30 7002 C 658.238 -4.95682 -3.22573 0
M  V30 7003 H 657.168 -0.532349 -0.533966 0
M  V30 7004 H 659.819 -1.68806 -0.719506 0
M  V30 7005 H 658.201 -2.19292 -3.29738 0
M  V30 7006 H 659.375 -4.3742 -1.44915 0
M  V30 7007 H 657.69 -3.90012 -1.45874 0
M  V30 7008 H 660.287 -3.33248 -4.18151 0
M  V30 7009 H 660.63 -1.65896 -3.81817 0
M  V30 7010 H 661.163 -2.9298 -2.69087 0
M  V30 7011 H 657.902 -5.92529 -2.80338 0
M  V30 7012 H 657.422 -4.58399 -3.86821 0
M  V30 7013 H 659.101 -5.17828 -3.87896 0
M  V30 7014 N 659.233 0.902656 -1.29189 0
M  V30 7015 C 660.479 1.65532 -1.17163 0
M  V30 7016 C 660.812 1.92216 0.276879 0
M  V30 7017 O 660.087 1.53048 1.20027 0
M  V30 7018 C 660.37 3.00629 -1.98228 0
M  V30 7019 C 660.223 2.81029 -3.51202 0
M  V30 7020 C 661.542 4.01321 -1.80635 0
M  V30 7021 H 658.661 0.60071 -0.426985 0
M  V30 7022 H 661.303 1.04578 -1.5863 0
M  V30 7023 H 659.453 3.52656 -1.62991 0
M  V30 7024 H 661.125 2.35927 -3.96404 0
M  V30 7025 H 659.368 2.1587 -3.76275 0
M  V30 7026 H 660.039 3.77014 -4.03192 0
M  V30 7027 H 662.515 3.58394 -2.11406 0
M  V30 7028 H 661.391 4.93792 -2.3971 0
M  V30 7029 H 661.652 4.35505 -0.760754 0
M  V30 7030 N 660.711 1.11618 1.11262 0
M  V30 7031 C 661.988 0.777876 1.79467 0
M  V30 7032 C 662.368 -0.733774 1.97937 0
M  V30 7033 O 661.716 -1.66443 1.56554 0
M  V30 7034 C 661.926 1.5431 3.13032 0
M  V30 7035 C 663.274 1.72357 3.88044 0
M  V30 7036 O 664.298 1.5075 3.22727 0
M  V30 7037 O 663.157 2.08276 5.05256 0
M  V30 7038 H 660.251 0.282018 0.777428 0
M  V30 7039 H 662.797 1.21971 1.17988 0
M  V30 7040 H 661.569 2.57132 2.94956 0
M  V30 7041 H 661.192 1.09495 3.82226 0
M  V30 7042 N 662.189 -1.289 0.906776 0
M  V30 7043 C 663.466 -1.90221 0.455537 0
M  V30 7044 C 663.846 -1.82251 -1.06527 0
M  V30 7045 O 663.194 -1.25385 -1.91026 0
M  V30 7046 C 663.404 -3.35015 0.97806 0
M  V30 7047 C 664.752 -4.12018 1.02598 0
M  V30 7048 O 665.776 -3.43947 0.926218 0
M  V30 7049 O 664.635 -5.33677 1.17689 0
M  V30 7050 H 661.729 -0.814505 0.143214 0
M  V30 7051 H 664.275 -1.37317 0.997104 0
M  V30 7052 H 663.047 -3.35006 2.02204 0
M  V30 7053 H 662.67 -3.95408 0.416914 0
M  V30 7054 N 663.667 -0.670007 -1.42649 0
M  V30 7055 C 664.913 -0.19923 -2.02422 0
M  V30 7056 C 665.268 1.17947 -1.52007 0
M  V30 7057 O 664.561 1.77939 -0.710512 0
M  V30 7058 C 664.755 -0.168298 -3.57004 0
M  V30 7059 C 664.584 -1.54246 -4.22419 0
M  V30 7060 C 663.354 -2.13904 -4.57792 0
M  V30 7061 C 665.552 -2.4842 -4.50324 0
M  V30 7062 N 663.534 -3.44151 -5.08364 0
M  V30 7063 C 664.905 -3.63317 -5.02395 0
M  V30 7064 C 666.96 -2.47011 -4.32308 0
M  V30 7065 C 665.663 -4.77051 -5.38345 0
M  V30 7066 C 667.689 -3.59838 -4.6933 0
M  V30 7067 C 667.051 -4.73462 -5.21549 0
M  V30 7068 H 663.15 -0.117717 -0.773089 0
M  V30 7069 H 665.734 -0.881955 -1.73579 0
M  V30 7070 H 663.905 0.483824 -3.85375 0
M  V30 7071 H 665.637 0.314914 -4.03473 0
M  V30 7072 H 662.392 -1.66441 -4.4339 0
M  V30 7073 H 662.816 -4.10846 -5.38084 0
M  V30 7074 H 667.458 -1.60394 -3.91195 0
M  V30 7075 H 665.176 -5.64347 -5.78393 0
M  V30 7076 H 668.762 -3.59969 -4.57071 0
M  V30 7077 H 667.642 -5.59321 -5.49663 0
M  V30 7078 N 665.145 1.52092 -0.413018 0
M  V30 7079 C 666.108 2.25706 0.398687 0
M  V30 7080 C 667.108 1.28221 0.970368 0
M  V30 7081 O 668.298 1.52131 0.848635 0
M  V30 7082 C 665.43 3.03029 1.5616 0
M  V30 7083 H 666.623 2.98888 -0.246131 0
M  V30 7084 H 664.176 1.5542 -0.165622 0
M  V30 7085 H 664.911 2.34205 2.24317 0
M  V30 7086 H 664.696 3.74606 1.15812 0
M  V30 7087 H 666.186 3.58857 2.13569 0
M  V30 7088 N 666.623 0.143563 1.56945 0
M  V30 7089 C 667.571 -0.814556 2.17871 0
M  V30 7090 C 668.565 -1.25778 1.13474 0
M  V30 7091 O 669.771 -1.22666 1.31731 0
M  V30 7092 H 666.146 -0.280873 0.697578 0
M  V30 7093 H 668.117 -0.276459 2.97117 0
M  V30 7094 C 666.866 -2.04503 2.81201 0
M  V30 7095 H 666.189 -1.71296 3.61245 0
M  V30 7096 H 667.629 -2.69493 3.27337 0
M  V30 7097 C 666.088 -2.85079 1.79532 0
M  V30 7098 O 666.618 -3.81306 1.26368 0
M  V30 7099 N 664.824 -2.49546 1.48913 0
M  V30 7100 H 664.371 -1.71359 1.92338 0
M  V30 7101 H 664.329 -3.03751 0.811348 0
M  V30 7102 N 668.101 -1.57061 -0.130224 0
M  V30 7103 C 669.378 -1.75205 -0.869631 0
M  V30 7104 C 669.758 -0.716063 -1.98584 0
M  V30 7105 O 669.106 0.262032 -2.26993 0
M  V30 7106 C 669.316 -3.19835 -1.39666 0
M  V30 7107 C 670.664 -3.82011 -1.85345 0
M  V30 7108 O 671.688 -3.23368 -1.49371 0
M  V30 7109 O 670.547 -4.85064 -2.51744 0
M  V30 7110 H 667.641 -0.716977 -0.412157 0
M  V30 7111 H 670.187 -1.69311 -0.11484 0
M  V30 7112 H 668.959 -3.86745 -0.595288 0
M  V30 7113 H 668.582 -3.30222 -2.21448 0
M  V30 7114 N 669.579 0.400081 -1.52437 0
M  V30 7115 C 670.827 1.14392 -1.6661 0
M  V30 7116 C 671.148 1.90792 -0.402927 0
M  V30 7117 O 670.418 1.87042 0.582425 0
M  V30 7118 H 668.998 0.425275 -0.614125 0
M  V30 7119 H 671.66 0.455076 -1.89513 0
M  V30 7120 H 670.756 1.85298 -2.51139 0
M  V30 7121 N 671.057 1.43213 0.657864 0
M  V30 7122 C 672.303 1.45795 1.41829 0
M  V30 7123 C 672.658 0.0792176 1.92237 0
M  V30 7124 O 671.951 -0.901406 1.69072 0
M  V30 7125 C 672.145 2.43143 2.61947 0
M  V30 7126 C 671.974 3.90345 2.23295 0
M  V30 7127 C 670.744 4.58749 2.11843 0
M  V30 7128 C 672.942 4.80308 1.83873 0
M  V30 7129 N 670.924 5.90898 1.66473 0
M  V30 7130 C 672.295 6.01693 1.49549 0
M  V30 7131 C 674.35 4.67609 1.71015 0
M  V30 7132 C 673.053 7.11792 1.03657 0
M  V30 7133 C 675.079 5.77707 1.26527 0
M  V30 7134 C 674.441 6.98215 0.931379 0
M  V30 7135 H 670.54 0.588628 0.514822 0
M  V30 7136 H 673.124 1.7936 0.7575 0
M  V30 7137 H 671.295 2.11612 3.25692 0
M  V30 7138 H 673.027 2.36193 3.28626 0
M  V30 7139 H 669.782 4.1319 2.31453 0
M  V30 7140 H 670.206 6.61034 1.46163 0
M  V30 7141 H 674.848 3.74902 1.95469 0
M  V30 7142 H 672.566 8.04332 0.779502 0
M  V30 7143 H 676.152 5.69899 1.17074 0
M  V30 7144 H 675.032 7.81959 0.592379 0
M  V30 7145 N 672.536 -0.895792 1.29666 0
M  V30 7146 C 673.784 -1.64339 1.17631 0
M  V30 7147 C 674.105 -1.93099 -0.271643 0
M  V30 7148 O 673.375 -1.55981 -1.18518 0
M  V30 7149 H 671.955 -0.609162 0.432354 0
M  V30 7150 H 674.617 -1.07389 1.62646 0
M  V30 7151 H 673.713 -2.59815 1.72924 0
M  V30 7152 N 674.014 -1.12206 -1.10668 0
M  V30 7153 C 674.944 -0.810086 -2.18997 0
M  V30 7154 C 675.925 0.225065 -1.68604 0
M  V30 7155 O 677.11 0.086783 -1.94006 0
M  V30 7156 C 674.24 -0.261262 -3.46316 0
M  V30 7157 C 673.194 -1.2292 -4.09969 0
M  V30 7158 C 672.52 -0.540713 -5.31959 0
M  V30 7159 C 673.82 -2.58295 -4.53962 0
M  V30 7160 H 675.514 -1.7159 -2.45352 0
M  V30 7161 H 673.06 -0.82646 -1.17922 0
M  V30 7162 H 675.013 -0.0307522 -4.21389 0
M  V30 7163 H 673.737 0.679879 -3.19445 0
M  V30 7164 H 672.396 -1.44548 -3.369 0
M  V30 7165 H 672.044 0.405492 -5.01363 0
M  V30 7166 H 671.744 -1.18637 -5.75499 0
M  V30 7167 H 673.268 -0.319184 -6.09765 0
M  V30 7168 H 674.682 -2.40709 -5.20319 0
M  V30 7169 H 673.079 -3.18916 -5.08343 0
M  V30 7170 H 674.149 -3.16918 -3.67002 0
M  V30 7171 N 675.492 1.28418 -0.913599 0
M  V30 7172 C 676.439 2.27301 -0.400373 0
M  V30 7173 C 677.409 1.57582 0.52509 0
M  V30 7174 O 678.594 1.85482 0.447318 0
M  V30 7175 C 675.734 3.43284 0.35361 0
M  V30 7176 C 674.847 4.27752 -0.604341 0
M  V30 7177 C 673.982 5.30934 0.168075 0
M  V30 7178 C 673.021 6.07065 -0.783499 0
M  V30 7179 N 672.158 7.02086 -0.0446112 0
M  V30 7180 H 676.998 2.70579 -1.24865 0
M  V30 7181 H 674.535 1.33067 -0.627028 0
M  V30 7182 H 676.493 4.09322 0.806945 0
M  V30 7183 H 675.123 3.00997 1.16623 0
M  V30 7184 H 674.175 3.61759 -1.17621 0
M  V30 7185 H 675.487 4.80682 -1.33216 0
M  V30 7186 H 674.641 6.02855 0.681979 0
M  V30 7187 H 673.38 4.78771 0.928947 0
M  V30 7188 H 672.385 5.33995 -1.30878 0
M  V30 7189 H 673.61 6.61317 -1.54392 0
M  V30 7190 H 671.556 6.52273 0.698272 0
M  V30 7191 H 671.473 7.52637 -0.712258 0
M  V30 7192 H 672.741 7.78205 0.449102 0
M  V30 7193 N 676.97 0.677563 1.42291 0
M  V30 7194 C 677.917 0.000947061 2.308 0
M  V30 7195 C 678.887 -0.789889 1.46116 0
M  V30 7196 O 680.072 -0.761578 1.74942 0
M  V30 7197 C 677.212 -0.942387 3.31984 0
M  V30 7198 C 676.325 -0.14508 4.31756 0
M  V30 7199 C 675.46 -1.08442 5.20013 0
M  V30 7200 C 674.499 -0.278958 6.11464 0
M  V30 7201 N 673.636 -1.17115 6.92263 0
M  V30 7202 H 678.476 0.761521 2.88106 0
M  V30 7203 H 676.013 0.38727 1.41911 0
M  V30 7204 H 677.971 -1.50317 3.89179 0
M  V30 7205 H 676.601 -1.66956 2.76271 0
M  V30 7206 H 675.653 0.532368 3.76656 0
M  V30 7207 H 676.965 0.48015 4.96484 0
M  V30 7208 H 676.119 -1.71504 5.81955 0
M  V30 7209 H 674.858 -1.74353 4.55469 0
M  V30 7210 H 673.863 0.364856 5.48588 0
M  V30 7211 H 675.088 0.376099 6.78058 0
M  V30 7212 H 673.034 -1.81661 6.30345 0
M  V30 7213 H 672.951 -0.601063 7.53607 0
M  V30 7214 H 674.219 -1.78915 7.58689 0
M  V30 7215 N 678.448 -1.51871 0.421078 0
M  V30 7216 C 679.411 -2.25914 -0.386712 0
M  V30 7217 C 680.411 -1.28733 -0.963555 0
M  V30 7218 O 681.601 -1.52579 -0.840556 0
M  V30 7219 C 678.733 -3.03853 -1.54551 0
M  V30 7220 H 679.926 -2.98754 0.261978 0
M  V30 7221 H 677.479 -1.5533 0.173862 0
M  V30 7222 H 678.214 -2.35392 -2.23072 0
M  V30 7223 H 677.999 -3.75215 -1.13824 0
M  V30 7224 H 679.489 -3.59984 -2.11663 0
M  V30 7225 N 679.926 -0.151884 -1.56866 0
M  V30 7226 C 680.889 0.771861 -2.15812 0
M  V30 7227 C 681.889 1.17181 -1.10115 0
M  V30 7228 O 683.079 1.09194 -1.35729 0
M  V30 7229 C 680.211 2.04806 -2.7252 0
M  V30 7230 H 681.404 0.259021 -2.98779 0
M  V30 7231 H 678.957 0.097588 -1.55995 0
M  V30 7232 H 679.692 2.60445 -1.93233 0
M  V30 7233 H 679.477 1.77044 -3.49854 0
M  V30 7234 H 680.967 2.70771 -3.1792 0
M  V30 7235 N 681.404 1.57128 0.121893 0
M  V30 7236 C 682.681 1.75664 0.860327 0
M  V30 7237 C 683.061 0.726585 1.98202 0
M  V30 7238 O 682.409 -0.24999 2.27128 0
M  V30 7239 C 682.619 3.20571 1.37968 0
M  V30 7240 C 683.967 3.82988 1.83317 0
M  V30 7241 O 684.991 3.24156 1.47654 0
M  V30 7242 O 683.85 4.86393 2.49168 0
M  V30 7243 H 680.944 0.719153 0.408348 0
M  V30 7244 H 683.49 1.6937 0.105859 0
M  V30 7245 H 682.262 3.87056 0.57477 0
M  V30 7246 H 681.885 3.31392 2.19694 0
M  V30 7247 N 682.882 -0.391992 1.52647 0
M  V30 7248 C 684.13 -1.13507 1.67214 0
M  V30 7249 C 684.451 -1.90575 0.41304 0
M  V30 7250 O 683.721 -1.87348 -0.572498 0
M  V30 7251 H 682.301 -0.422013 0.616372 0
M  V30 7252 H 684.963 -0.44502 1.89751 0
M  V30 7253 H 684.059 -1.83964 2.52118 0
M  V30 7254 N 684.36 -1.4356 -0.65026 0
M  V30 7255 C 685.323 -1.48615 -1.74489 0
M  V30 7256 C 686.323 -0.370483 -1.56474 0
M  V30 7257 O 687.513 -0.632351 -1.62317 0
M  V30 7258 C 684.645 -1.34161 -3.13391 0
M  V30 7259 H 685.838 -2.46103 -1.71387 0
M  V30 7260 H 683.391 -1.30369 -0.862186 0
M  V30 7261 H 684.126 -0.376918 -3.22102 0
M  V30 7262 H 683.911 -2.1504 -3.27872 0
M  V30 7263 H 685.401 -1.40637 -3.93206 0
M  V30 7264 N 685.838 0.888903 -1.30139 0
M  V30 7265 C 686.801 1.97576 -1.16174 0
M  V30 7266 C 687.801 1.60525 -0.094086 0
M  V30 7267 O 688.991 1.70812 -0.341889 0
M  V30 7268 C 686.123 3.3188 -0.778983 0
M  V30 7269 H 687.316 2.11393 -2.12728 0
M  V30 7270 H 684.869 1.0748 -1.1348 0
M  V30 7271 H 685.604 3.23765 0.186225 0
M  V30 7272 H 685.389 3.60141 -1.55051 0
M  V30 7273 H 686.879 4.11612 -0.704631 0
M  V30 7274 N 687.317 1.12792 1.10072 0
M  V30 7275 C 688.227 0.812369 2.20086 0
M  V30 7276 C 689.243 -0.200349 1.72843 0
M  V30 7277 O 690.419 -0.0330262 2.01373 0
M  V30 7278 C 687.484 0.275685 3.45602 0
M  V30 7279 C 686.545 1.34881 4.07561 0
M  V30 7280 C 685.778 0.837639 5.27086 0
M  V30 7281 O 686.001 -0.327224 5.69461 0
M  V30 7282 O 684.935 1.60894 5.79997 0
M  V30 7283 H 688.761 1.73133 2.49517 0
M  V30 7284 H 686.346 0.904863 1.18881 0
M  V30 7285 H 688.228 -0.0185375 4.21396 0
M  V30 7286 H 686.903 -0.615783 3.17789 0
M  V30 7287 H 685.81 1.69625 3.33434 0
M  V30 7288 H 687.143 2.21418 4.39585 0
M  V30 7289 N 688.795 -1.27931 0.920396 0
M  V30 7290 C 690.206 -1.76707 0.602616 0
M  V30 7291 C 690.557 -1.75249 -0.882159 0
M  V30 7292 O 689.682 -1.35135 -1.69019 0
M  V30 7293 C 690.277 -3.20884 1.08714 0
M  V30 7294 C 688.836 -3.67356 0.820157 0
M  V30 7295 C 687.983 -2.47525 1.25006 0
M  V30 7296 H 690.934 -1.14301 1.10095 0
M  V30 7297 H 690.955 -3.78045 0.431535 0
M  V30 7298 H 690.467 -3.21913 2.1678 0
M  V30 7299 H 688.568 -3.7178 -0.247012 0
M  V30 7300 H 688.681 -4.57181 1.43257 0
M  V30 7301 H 687.045 -2.45765 0.668698 0
M  V30 7302 H 687.828 -2.51269 2.3392 0
M  V30 7303 N 690.273 -0.685099 -1.4193 0
M  V30 7304 C 691.521 -0.21124 -2.00993 0
M  V30 7305 C 691.842 1.18985 -1.54491 0
M  V30 7306 O 691.112 1.8009 -0.771 0
M  V30 7307 H 689.692 -0.0751059 -0.743215 0
M  V30 7308 H 692.354 -0.883915 -1.73704 0
M  V30 7309 H 691.45 -0.220513 -3.1132 0
M  V30 7310 N 691.751 1.51645 -0.429126 0
M  V30 7311 C 692.997 2.02314 0.140286 0
M  V30 7312 C 693.33 1.31314 1.43074 0
M  V30 7313 O 692.605 0.425531 1.89788 0
M  V30 7314 C 692.888 3.5822 0.36749 0
M  V30 7315 C 692.741 4.39846 -0.941039 0
M  V30 7316 C 694.06 4.25055 1.14089 0
M  V30 7317 H 691.179 0.735335 0.0495112 0
M  V30 7318 H 693.821 1.81358 -0.566514 0
M  V30 7319 H 691.971 3.76207 0.969556 0
M  V30 7320 H 693.643 4.33527 -1.57646 0
M  V30 7321 H 691.886 4.05259 -1.54751 0
M  V30 7322 H 692.557 5.47069 -0.73621 0
M  V30 7323 H 695.033 4.11288 0.630986 0
M  V30 7324 H 693.909 5.34038 1.26863 0
M  V30 7325 H 694.17 3.85358 2.16683 0
M  V30 7326 N 693.229 0.160201 1.56784 0
M  V30 7327 C 694.475 -0.48831 1.96833 0
M  V30 7328 C 694.808 -1.63641 1.04571 0
M  V30 7329 O 694.083 -1.94289 0.0906481 0
M  V30 7330 C 694.366 -0.981908 3.46454 0
M  V30 7331 C 694.219 0.165607 4.49495 0
M  V30 7332 C 695.538 -1.85931 3.98896 0
M  V30 7333 H 692.657 -0.176027 0.71567 0
M  V30 7334 H 695.299 0.244093 1.88426 0
M  V30 7335 H 693.449 -1.60602 3.5375 0
M  V30 7336 H 695.121 0.802372 4.54268 0
M  V30 7337 H 693.364 0.822789 4.25926 0
M  V30 7338 H 694.035 -0.221699 5.51555 0
M  V30 7339 H 696.511 -1.33327 3.94161 0
M  V30 7340 H 695.387 -2.17373 5.04024 0
M  V30 7341 H 695.648 -2.80106 3.42042 0
M  V30 7342 N 694.707 -1.5719 -0.113559 0
M  V30 7343 C 695.955 -1.84772 -0.818761 0
M  V30 7344 C 696.276 -0.746196 -1.80158 0
M  V30 7345 O 695.546 0.229305 -1.94553 0
M  V30 7346 H 694.126 -0.681737 -0.305359 0
M  V30 7347 H 696.788 -1.94645 -0.0995845 0
M  V30 7348 H 695.884 -2.80878 -1.36067 0
M  V30 7349 N 696.185 0.383891 -1.52853 0
M  V30 7350 C 697.117 1.48889 -1.74255 0
M  V30 7351 C 698.13 1.50405 -0.623063 0
M  V30 7352 O 699.319 1.54215 -0.898887 0
M  V30 7353 C 696.419 2.87721 -1.79081 0
M  V30 7354 C 695.592 3.10111 -3.08464 0
M  V30 7355 C 694.651 4.28954 -3.0477 0
M  V30 7356 O 693.677 4.25012 -3.78621 0
M  V30 7357 N 694.879 5.35411 -2.24311 0
M  V30 7358 H 697.644 1.30915 -2.69595 0
M  V30 7359 H 695.205 0.573454 -1.51404 0
M  V30 7360 H 697.197 3.65333 -1.7411 0
M  V30 7361 H 695.767 2.99029 -0.911052 0
M  V30 7362 H 694.987 2.20319 -3.26884 0
M  V30 7363 H 696.275 3.21928 -3.94005 0
M  V30 7364 H 695.673 5.41471 -1.63787 0
M  V30 7365 H 694.23 6.1167 -2.25175 0
M  V30 7366 N 697.663 1.43903 0.642637 0
M  V30 7367 C 698.596 1.44339 1.76753 0
M  V30 7368 C 699.574 0.303558 1.59741 0
M  V30 7369 O 700.758 0.498775 1.81781 0
M  V30 7370 C 697.885 1.26508 3.14187 0
M  V30 7371 C 696.931 2.43905 3.49875 0
M  V30 7372 S 697.764 4.0645 3.48653 0
M  V30 7373 C 698.92 3.91021 4.88726 0
M  V30 7374 H 699.153 2.39523 1.76113 0
M  V30 7375 H 696.686 1.31061 0.81623 0
M  V30 7376 H 698.644 1.16908 3.93501 0
M  V30 7377 H 697.305 0.328548 3.12377 0
M  V30 7378 H 696.498 2.27262 4.49853 0
M  V30 7379 H 696.1 2.50186 2.77998 0
M  V30 7380 H 698.392 3.54 5.77659 0
M  V30 7381 H 699.335 4.9079 5.10423 0
M  V30 7382 H 699.743 3.23287 4.62759 0
M  V30 7383 N 699.141 -0.881989 1.30609 0
M  V30 7384 C 700.39 -1.62878 1.18969 0
M  V30 7385 C 700.703 -1.93946 -0.253859 0
M  V30 7386 O 701.909 -2.67008 -0.491813 0
M  V30 7387 C 700.365 -2.93573 2.0819 0
M  V30 7388 C 699.973 -2.70034 3.57471 0
M  V30 7389 C 701.717 -3.71543 2.0532 0
M  V30 7390 C 699.624 -3.96563 4.38739 0
M  V30 7391 H 698.554 -0.611092 0.441682 0
M  V30 7392 H 701.205 -0.976201 1.55379 0
M  V30 7393 H 699.587 -3.6014 1.64666 0
M  V30 7394 H 700.761 -2.11949 4.09163 0
M  V30 7395 H 699.076 -2.05435 3.62195 0
M  V30 7396 H 701.673 -4.65386 2.63288 0
M  V30 7397 H 702.016 -4.03167 1.03739 0
M  V30 7398 H 702.549 -3.11842 2.46981 0
M  V30 7399 H 699.288 -3.70095 5.41027 0
M  V30 7400 H 698.808 -4.54142 3.9181 0
M  V30 7401 H 700.487 -4.64557 4.50329 0
M  V30 7402 N 700.619 -1.13374 -1.09472 0
M  V30 7403 C 701.529 -0.824029 -2.19652 0
M  V30 7404 C 702.545 0.19118 -1.72947 0
M  V30 7405 O 703.721 0.0223464 -2.01388 0
M  V30 7406 C 700.786 -0.294009 -3.45451 0
M  V30 7407 C 699.847 -1.3704 -4.0684 0
M  V30 7408 C 699.08 -0.86558 -5.26634 0
M  V30 7409 O 699.303 0.29702 -5.69626 0
M  V30 7410 O 698.237 -1.63968 -5.79136 0
M  V30 7411 H 702.063 -1.74454 -2.48595 0
M  V30 7412 H 699.648 -0.911155 -1.18399 0
M  V30 7413 H 701.53 -0.00381039 -4.214 0
M  V30 7414 H 700.205 0.598921 -3.18111 0
M  V30 7415 H 699.112 -1.71391 -3.3253 0
M  V30 7416 H 700.445 -2.23746 -4.38405 0
M  V30 7417 N 702.098 1.27442 -0.927168 0
M  V30 7418 C 703.061 2.2512 -0.430525 0
M  V30 7419 C 704.061 1.54357 0.450619 0
M  V30 7420 O 705.251 1.72371 0.251774 0
M  V30 7421 C 702.383 3.38763 0.381144 0
M  V30 7422 H 703.576 2.70569 -1.29354 0
M  V30 7423 H 701.129 1.39355 -0.707806 0
M  V30 7424 H 701.864 2.98695 1.263 0
M  V30 7425 H 701.649 3.91298 -0.250618 0
M  V30 7426 H 703.139 4.11364 0.719012 0
M  V30 7427 N 703.576 0.692616 1.41565 0
M  V30 7428 C 704.539 0.0344174 2.29174 0
M  V30 7429 C 705.539 -0.710961 1.44229 0
M  V30 7430 O 706.729 -0.546293 1.65412 0
M  V30 7431 C 703.861 -0.961682 3.27054 0
M  V30 7432 H 705.054 0.805755 2.88873 0
M  V30 7433 H 702.607 0.455947 1.49502 0
M  V30 7434 H 703.342 -1.76089 2.72329 0
M  V30 7435 H 703.127 -0.430375 3.89731 0
M  V30 7436 H 704.617 -1.4201 3.92712 0
M  V30 7437 N 705.054 -1.51416 0.437162 0
M  V30 7438 C 705.964 -2.31493 -0.380537 0
M  V30 7439 C 706.98 -1.40399 -1.02782 0
M  V30 7440 O 708.156 -1.73471 -1.02323 0
M  V30 7441 C 705.221 -3.1413 -1.46709 0
M  V30 7442 C 704.282 -4.21003 -0.839953 0
M  V30 7443 C 703.515 -4.9969 -1.87473 0
M  V30 7444 O 703.738 -4.79008 -3.09689 0
M  V30 7445 O 702.672 -5.8379 -1.46536 0
M  V30 7446 H 706.498 -3.02469 0.273183 0
M  V30 7447 H 704.083 -1.48059 0.199706 0
M  V30 7448 H 705.965 -3.65505 -2.09724 0
M  V30 7449 H 704.64 -2.45919 -2.10489 0
M  V30 7450 H 703.547 -3.73706 -0.171752 0
M  V30 7451 H 704.88 -4.91587 -0.245638 0
M  V30 7452 N 706.532 -0.168513 -1.56696 0
M  V30 7453 C 707.442 0.775435 -2.21414 0
M  V30 7454 C 708.458 1.25529 -1.20492 0
M  V30 7455 O 709.634 1.30801 -1.53144 0
M  V30 7456 C 706.699 1.9886 -2.83999 0
M  V30 7457 C 705.76 1.5559 -4.00113 0
M  V30 7458 C 704.993 2.71124 -4.59704 0
M  V30 7459 O 705.216 3.87917 -4.18182 0
M  V30 7460 O 704.15 2.4536 -5.4962 0
M  V30 7461 H 707.976 0.254416 -3.02632 0
M  V30 7462 H 705.561 0.0595507 -1.49281 0
M  V30 7463 H 707.443 2.69816 -3.23693 0
M  V30 7464 H 706.118 2.49874 -2.05779 0
M  V30 7465 H 705.025 0.815924 -3.65094 0
M  V30 7466 H 706.358 1.09271 -4.79917 0
M  V30 7467 N 708.01 1.57248 0.105221 0
M  V30 7468 C 709.426 1.52853 0.459153 0
M  V30 7469 C 709.626 0.883674 1.8109 0
M  V30 7470 O 708.682 0.471864 2.48052 0
M  V30 7471 C 709.995 2.97596 0.43096 0
M  V30 7472 C 711.543 3.08758 0.513536 0
M  V30 7473 C 712.018 4.55089 0.515593 0
M  V30 7474 N 713.509 4.59597 0.576639 0
M  V30 7475 C 714.244 5.70253 0.599904 0
M  V30 7476 N 713.74 6.90368 0.579985 0
M  V30 7477 N 715.533 5.58399 0.643953 0
M  V30 7478 H 707.684 1.97547 -0.780306 0
M  V30 7479 H 709.947 0.902758 -0.289363 0
M  V30 7480 H 709.653 3.48201 -0.494903 0
M  V30 7481 H 709.527 3.55756 1.2537 0
M  V30 7482 H 711.914 2.58148 1.42982 0
M  V30 7483 H 711.995 2.53568 -0.337148 0
M  V30 7484 H 711.639 5.06348 -0.396701 0
M  V30 7485 H 711.569 5.08105 1.38335 0
M  V30 7486 H 714.06 3.73144 0.597639 0
M  V30 7487 H 714.373 7.70462 0.600741 0
M  V30 7488 H 712.718 6.92843 0.547191 0
M  V30 7489 H 715.909 4.63467 0.656975 0
M  V30 7490 H 716.082 6.44644 0.658616 0
M  V30 7491 N 709.488 -0.375779 1.53054 0
M  V30 7492 C 710.899 -0.95309 1.6054 0
M  V30 7493 C 711.25 -1.90575 0.466446 0
M  V30 7494 O 710.375 -2.12507 -0.408609 0
M  V30 7495 C 710.97 -1.73537 2.90982 0
M  V30 7496 C 709.529 -2.26218 3.00836 0
M  V30 7497 C 708.676 -1.07157 2.55759 0
M  V30 7498 H 711.627 -0.154895 1.57942 0
M  V30 7499 H 711.648 -2.59574 2.78211 0
M  V30 7500 H 711.16 -1.04176 3.73857 0
M  V30 7501 H 709.261 -2.98852 2.22527 0
M  V30 7502 H 709.374 -2.54799 4.05727 0
M  V30 7503 H 707.738 -1.43553 2.10391 0
M  V30 7504 H 708.521 -0.393099 3.41042 0
M  V30 7505 N 710.966 -1.44241 -0.634997 0
M  V30 7506 C 712.212 -1.48033 -1.39492 0
M  V30 7507 C 712.567 -0.109791 -1.92086 0
M  V30 7508 O 711.86 0.874394 -1.70484 0
M  V30 7509 C 712.054 -2.47279 -2.58046 0
M  V30 7510 C 711.883 -3.93848 -2.17057 0
M  V30 7511 C 710.653 -4.62061 -2.04518 0
M  V30 7512 C 712.851 -4.83172 -1.76208 0
M  V30 7513 N 710.833 -5.93471 -1.57051 0
M  V30 7514 C 712.204 -6.03996 -1.39958 0
M  V30 7515 C 714.259 -4.70271 -1.63554 0
M  V30 7516 C 712.962 -7.13351 -0.923196 0
M  V30 7517 C 714.988 -5.79646 -1.1732 0
M  V30 7518 C 714.35 -6.99609 -0.820181 0
M  V30 7519 H 710.449 -0.596743 -0.505392 0
M  V30 7520 H 713.033 -1.80542 -0.72887 0
M  V30 7521 H 711.204 -2.16766 -3.22284 0
M  V30 7522 H 712.936 -2.41391 -3.24827 0
M  V30 7523 H 709.691 -4.1682 -2.24851 0
M  V30 7524 H 710.115 -6.63275 -1.35628 0
M  V30 7525 H 714.757 -3.77964 -1.8948 0
M  V30 7526 H 712.475 -8.0547 -0.651441 0
M  V30 7527 H 716.061 -5.71689 -1.07993 0
M  V30 7528 H 714.941 -7.82803 -0.467901 0
M  V30 7529 N 712.444 0.87505 -1.31075 0
M  V30 7530 C 713.374 1.99775 -1.20881 0
M  V30 7531 C 714.355 1.69822 -0.0971612 0
M  V30 7532 O 715.54 1.92158 -0.280895 0
M  V30 7533 C 712.67 3.35163 -0.910118 0
M  V30 7534 C 711.624 3.79406 -1.98078 0
M  V30 7535 C 710.95 5.12197 -1.53488 0
M  V30 7536 C 712.25 3.97061 -3.39323 0
M  V30 7537 H 713.944 2.08562 -2.14808 0
M  V30 7538 H 711.49 1.00207 -1.03415 0
M  V30 7539 H 713.443 4.13237 -0.825423 0
M  V30 7540 H 712.167 3.26536 0.064822 0
M  V30 7541 H 710.826 3.03568 -2.05528 0
M  V30 7542 H 710.474 5.00007 -0.547941 0
M  V30 7543 H 710.174 5.4277 -2.2511 0
M  V30 7544 H 711.698 5.92785 -1.46417 0
M  V30 7545 H 713.112 4.65545 -3.34576 0
M  V30 7546 H 711.509 4.39025 -4.09118 0
M  V30 7547 H 712.579 3.00601 -3.80483 0
M  V30 7548 N 713.922 1.13953 1.08869 0
M  V30 7549 C 715.168 0.916103 1.81602 0
M  V30 7550 C 715.523 -0.551633 1.84322 0
M  V30 7551 O 714.816 -1.40322 1.30462 0
M  V30 7552 C 715.01 1.44495 3.26888 0
M  V30 7553 C 714.839 2.96257 3.38322 0
M  V30 7554 C 713.609 3.64658 3.49789 0
M  V30 7555 C 715.807 3.94156 3.30372 0
M  V30 7556 N 713.789 5.04379 3.49965 0
M  V30 7557 C 715.16 5.20101 3.37484 0
M  V30 7558 C 717.215 3.86342 3.14077 0
M  V30 7559 C 715.918 6.39145 3.29979 0
M  V30 7560 C 717.944 5.04927 3.07901 0
M  V30 7561 C 717.306 6.29738 3.1561 0
M  V30 7562 H 713.405 0.388701 0.678554 0
M  V30 7563 H 715.989 1.44879 1.3007 0
M  V30 7564 H 714.16 0.939102 3.76876 0
M  V30 7565 H 715.892 1.16193 3.87661 0
M  V30 7566 H 712.647 3.15196 3.5348 0
M  V30 7567 H 713.071 5.77305 3.53622 0
M  V30 7568 H 717.713 2.90726 3.06982 0
M  V30 7569 H 715.431 7.3501 3.35836 0
M  V30 7570 H 719.017 5.00626 2.9642 0
M  V30 7571 H 717.897 7.19958 3.10854 0
M  V30 7572 N 715.4 -1.26948 0.933913 0
M  V30 7573 C 716.646 -1.94374 0.57848 0
M  V30 7574 C 716.979 -1.73166 -0.879048 0
M  V30 7575 O 716.254 -1.06438 -1.62792 0
M  V30 7576 C 716.537 -3.4834 0.912739 0
M  V30 7577 C 716.39 -3.78866 2.42448 0
M  V30 7578 C 717.709 -4.38062 0.423003 0
M  V30 7579 H 714.828 -0.705959 0.211639 0
M  V30 7580 H 717.47 -1.49951 1.16682 0
M  V30 7581 H 715.62 -3.86309 0.412058 0
M  V30 7582 H 717.292 -3.50654 2.99733 0
M  V30 7583 H 715.535 -3.25198 2.87104 0
M  V30 7584 H 716.206 -4.86458 2.60887 0
M  V30 7585 H 718.682 -4.0728 0.852191 0
M  V30 7586 H 717.558 -5.44599 0.685776 0
M  V30 7587 H 717.819 -4.36886 -0.676994 0
M  V30 7588 N 716.879 -0.700114 -1.41195 0
M  V30 7589 C 718.125 -0.233351 -2.01453 0
M  V30 7590 C 718.458 1.16548 -1.55339 0
M  V30 7591 O 717.733 1.78756 -0.766575 0
M  V30 7592 C 718.016 -0.2961 -3.58881 0
M  V30 7593 C 717.869 -1.7322 -4.15108 0
M  V30 7594 C 719.188 0.341525 -4.38773 0
M  V30 7595 H 716.307 -0.0862667 -0.731934 0
M  V30 7596 H 718.949 -0.889693 -1.67882 0
M  V30 7597 H 717.099 0.262736 -3.87611 0
M  V30 7598 H 718.771 -2.34523 -3.97236 0
M  V30 7599 H 717.014 -2.2649 -3.69979 0
M  V30 7600 H 717.685 -1.7276 -5.24269 0
M  V30 7601 H 720.161 -0.134461 -4.15883 0
M  V30 7602 H 719.037 0.267098 -5.4825 0
M  V30 7603 H 719.298 1.42289 -4.18577 0
M  V30 7604 N 718.357 1.51182 -0.445186 0
M  V30 7605 C 719.587 2.06269 0.116922 0
M  V30 7606 C 719.995 1.31188 1.36332 0
M  V30 7607 O 719.338 0.367067 1.79995 0
M  V30 7608 C 719.4 3.56051 0.496757 0
M  V30 7609 C 719.064 4.52441 -0.64394 0
M  V30 7610 C 720.061 4.97233 -1.5184 0
M  V30 7611 C 717.746 4.95447 -0.826905 0
M  V30 7612 C 719.74 5.83712 -2.56046 0
M  V30 7613 C 717.427 5.81714 -1.87222 0
M  V30 7614 C 718.425 6.25745 -2.73738 0
M  V30 7615 O 718.113 7.10298 -3.76474 0
M  V30 7616 H 717.845 0.675954 0.00785733 0
M  V30 7617 H 720.399 1.95648 -0.625371 0
M  V30 7618 H 718.629 3.64483 1.29187 0
M  V30 7619 H 720.318 3.93618 0.990928 0
M  V30 7620 H 721.084 4.64696 -1.38862 0
M  V30 7621 H 716.963 4.60712 -0.163052 0
M  V30 7622 H 720.507 6.18 -3.23607 0
M  V30 7623 H 716.404 6.13664 -2.00218 0
M  V30 7624 H 717.172 7.28493 -3.73149 0
M  V30 7625 N 719.835 0.176821 1.56605 0
M  V30 7626 C 721.084 -0.466833 1.96223 0
M  V30 7627 C 721.397 -1.64015 1.06576 0
M  V30 7628 O 722.603 -2.3504 1.35898 0
M  V30 7629 C 721.059 -0.881921 3.48927 0
M  V30 7630 C 720.667 0.266102 4.47209 0
M  V30 7631 C 722.411 -1.49368 3.97353 0
M  V30 7632 C 720.318 -0.168923 5.91159 0
M  V30 7633 H 719.248 -0.178178 0.732645 0
M  V30 7634 H 721.899 0.265929 1.81563 0
M  V30 7635 H 720.281 -1.67082 3.59026 0
M  V30 7636 H 721.455 1.04349 4.4883 0
M  V30 7637 H 719.77 0.788178 4.08872 0
M  V30 7638 H 722.367 -1.8313 5.02362 0
M  V30 7639 H 722.71 -2.3936 3.40606 0
M  V30 7640 H 723.243 -0.769114 3.90294 0
M  V30 7641 H 719.982 0.696351 6.51791 0
M  V30 7642 H 719.502 -0.911552 5.92833 0
M  V30 7643 H 721.181 -0.610938 6.44109 0
M  V30 7644 N 721.313 -1.57302 -0.09688 0
M  V30 7645 C 722.243 -2.0497 -1.11846 0
M  V30 7646 C 723.224 -0.938278 -1.41882 0
M  V30 7647 O 724.409 -1.20943 -1.51942 0
M  V30 7648 C 721.539 -2.47264 -2.43881 0
M  V30 7649 C 720.493 -3.62053 -2.28257 0
M  V30 7650 C 719.819 -3.90318 -3.65453 0
M  V30 7651 C 721.119 -4.93005 -1.72461 0
M  V30 7652 H 722.813 -2.90567 -0.721888 0
M  V30 7653 H 720.359 -1.39786 -0.345803 0
M  V30 7654 H 722.312 -2.7922 -3.15617 0
M  V30 7655 H 721.036 -1.58664 -2.8547 0
M  V30 7656 H 719.695 -3.30341 -1.58967 0
M  V30 7657 H 719.343 -2.98889 -4.04567 0
M  V30 7658 H 719.043 -4.67597 -3.55846 0
M  V30 7659 H 720.567 -4.24747 -4.3866 0
M  V30 7660 H 721.981 -5.23354 -2.34036 0
M  V30 7661 H 720.378 -5.74436 -1.73618 0
M  V30 7662 H 721.448 -4.80053 -0.683898 0
M  V30 7663 N 722.791 0.367657 -1.53252 0
M  V30 7664 C 724.019 1.13119 -1.73239 0
M  V30 7665 C 724.434 1.831 -0.460404 0
M  V30 7666 O 723.791 1.73483 0.566557 0
M  V30 7667 C 723.842 2.16308 -2.89643 0
M  V30 7668 O 723.563 1.49175 -4.1192 0
M  V30 7669 C 725.064 3.05224 -3.21486 0
M  V30 7670 H 722.284 0.338318 -0.579467 0
M  V30 7671 H 724.828 0.42721 -1.99988 0
M  V30 7672 H 722.983 2.82307 -2.65295 0
M  V30 7673 H 723.397 2.17912 -4.7709 0
M  V30 7674 H 724.871 3.73613 -4.06346 0
M  V30 7675 H 725.348 3.69919 -2.36763 0
M  V30 7676 H 725.954 2.44843 -3.47753 0
M  V30 7677 N 724.269 1.44576 0.627338 0
M  V30 7678 C 725.515 1.47777 1.38888 0
M  V30 7679 C 725.848 0.111406 1.9388 0
M  V30 7680 O 725.123 -0.87149 1.73883 0
M  V30 7681 C 725.406 2.54119 2.55138 0
M  V30 7682 C 725.259 4.00128 2.0547 0
M  V30 7683 C 726.578 2.56929 3.57317 0
M  V30 7684 H 723.697 0.538048 0.50366 0
M  V30 7685 H 726.339 1.76277 0.708978 0
M  V30 7686 H 724.489 2.29948 3.13139 0
M  V30 7687 H 726.161 4.35444 1.5227 0
M  V30 7688 H 724.404 4.11724 1.36623 0
M  V30 7689 H 725.075 4.7019 2.89181 0
M  V30 7690 H 727.551 2.78536 3.09122 0
M  V30 7691 H 726.427 3.33234 4.36173 0
M  V30 7692 H 726.688 1.6127 4.11636 0
M  V30 7693 N 725.747 -0.868086 1.31537 0
M  V30 7694 C 726.71 -1.95703 1.19302 0
M  V30 7695 C 727.71 -1.60355 0.119612 0
M  V30 7696 O 728.9 -1.70247 0.36902 0
M  V30 7697 C 726.032 -3.30599 0.831684 0
M  V30 7698 H 727.225 -2.07982 2.16064 0
M  V30 7699 H 724.778 -1.05661 1.15176 0
M  V30 7700 H 725.513 -3.2402 -0.134694 0
M  V30 7701 H 725.298 -3.57629 1.60761 0
M  V30 7702 H 726.788 -4.10439 0.770026 0
M  V30 7703 N 727.225 -1.14528 -1.08264 0
M  V30 7704 C 728.155 -0.856356 -2.1723 0
M  V30 7705 C 729.136 0.189251 -1.69044 0
M  V30 7706 O 730.321 0.0456119 -1.94146 0
M  V30 7707 C 727.451 -0.334662 -3.45684 0
M  V30 7708 C 726.405 -1.31588 -4.0727 0
M  V30 7709 C 725.731 -0.653428 -5.30692 0
M  V30 7710 C 727.031 -2.67866 -4.48381 0
M  V30 7711 H 728.725 -1.76755 -2.41657 0
M  V30 7712 H 726.271 -0.851287 -1.16143 0
M  V30 7713 H 728.224 -0.120128 -4.21229 0
M  V30 7714 H 726.948 0.611967 -3.20815 0
M  V30 7715 H 725.607 -1.51661 -3.33758 0
M  V30 7716 H 725.255 0.299054 -5.0211 0
M  V30 7717 H 724.955 -1.30817 -5.72853 0
M  V30 7718 H 726.479 -0.448453 -6.08951 0
M  V30 7719 H 727.893 -2.51692 -5.15096 0
M  V30 7720 H 726.29 -3.29627 -5.01464 0
M  V30 7721 H 727.36 -3.24632 -3.60198 0
M  V30 7722 N 728.703 1.26451 -0.940633 0
M  V30 7723 C 730.114 1.75726 -0.630653 0
M  V30 7724 C 730.465 1.76631 0.854167 0
M  V30 7725 O 729.59 1.37807 1.66848 0
M  V30 7726 C 730.185 3.19114 -1.13805 0
M  V30 7727 C 728.744 3.66005 -0.878497 0
M  V30 7728 C 727.891 2.45505 -1.28928 0
M  V30 7729 H 730.842 1.12535 -1.119 0
M  V30 7730 H 730.863 3.77311 -0.491625 0
M  V30 7731 H 730.375 3.18424 -2.21874 0
M  V30 7732 H 728.476 3.72126 0.187833 0
M  V30 7733 H 728.589 4.54844 -1.50512 0
M  V30 7734 H 726.953 2.4467 -0.707713 0
M  V30 7735 H 727.736 2.47516 -2.37888 0
M  V30 7736 N 730.181 0.707592 1.40822 0
M  V30 7737 C 731.427 0.244031 2.01326 0
M  V30 7738 C 731.76 -1.15722 1.55955 0
M  V30 7739 O 731.035 -1.78347 0.776044 0
M  V30 7740 C 731.318 0.315128 3.58718 0
M  V30 7741 C 731.171 1.75419 4.14184 0
M  V30 7742 C 732.49 -0.318251 4.38948 0
M  V30 7743 H 729.609 0.0901471 0.731466 0
M  V30 7744 H 732.251 0.898584 1.67408 0
M  V30 7745 H 730.401 -0.242176 3.87744 0
M  V30 7746 H 732.073 2.36626 3.95987 0
M  V30 7747 H 730.316 2.28449 3.68773 0
M  V30 7748 H 730.987 1.75538 5.23345 0
M  V30 7749 H 733.463 0.156514 4.15806 0
M  V30 7750 H 732.339 -0.238019 5.48384 0
M  V30 7751 H 732.6 -1.40067 4.19325 0
M  V30 7752 N 731.66 -1.50943 0.453197 0
M  V30 7753 C 732.907 -2.02212 -0.107922 0
M  V30 7754 C 733.235 -1.33639 -1.41318 0
M  V30 7755 O 732.49 -0.445154 -1.9057 0
M  V30 7756 C 732.789 -3.55603 -0.357944 0
M  V30 7757 C 732.455 -4.42556 0.863427 0
M  V30 7758 C 731.117 -4.6604 1.19834 0
M  V30 7759 C 733.469 -4.93468 1.67747 0
M  V30 7760 C 730.797 -5.37681 2.34768 0
M  V30 7761 C 733.149 -5.6637 2.81793 0
M  V30 7762 C 731.813 -5.88113 3.1572 0
M  V30 7763 H 731.083 -0.739947 -0.0394916 0
M  V30 7764 H 733.73 -1.81738 0.60363 0
M  V30 7765 H 732.035 -3.74495 -1.15156 0
M  V30 7766 H 733.732 -3.92821 -0.805781 0
M  V30 7767 H 730.322 -4.24485 0.592478 0
M  V30 7768 H 734.506 -4.75194 1.43192 0
M  V30 7769 H 729.762 -5.52727 2.61348 0
M  V30 7770 H 733.936 -6.04806 3.45229 0
M  V30 7771 H 731.563 -6.43404 4.04889 0
M  V30 7772 N 733.138 -0.185124 -1.56509 0
M  V30 7773 C 734.068 0.735098 -2.21627 0
M  V30 7774 C 735.049 1.2288 -1.1762 0
M  V30 7775 O 736.234 1.27945 -1.46095 0
M  V30 7776 C 733.364 1.95889 -2.86783 0
M  V30 7777 C 732.318 1.6005 -3.96948 0
M  V30 7778 C 731.644 2.90009 -4.4922 0
M  V30 7779 C 732.944 0.818008 -5.15855 0
M  V30 7780 H 734.638 0.192274 -2.98782 0
M  V30 7781 H 732.184 0.0910393 -1.43712 0
M  V30 7782 H 734.137 2.60779 -3.31017 0
M  V30 7783 H 732.861 2.52608 -2.07018 0
M  V30 7784 H 731.52 0.975237 -3.5339 0
M  V30 7785 H 731.168 3.44797 -3.6623 0
M  V30 7786 H 730.868 2.66778 -5.23549 0
M  V30 7787 H 732.392 3.55904 -4.9615 0
M  V30 7788 H 733.806 1.36979 -5.56695 0
M  V30 7789 H 732.203 0.684207 -5.96187 0
M  V30 7790 H 733.273 -0.182939 -4.84555 0
M  V30 7791 N 734.616 1.57351 0.0885366 0
M  V30 7792 C 735.862 1.86696 0.791996 0
M  V30 7793 C 736.195 0.775148 1.78059 0
M  V30 7794 O 735.47 -0.216247 1.93294 0
M  V30 7795 C 735.753 3.26684 1.51491 0
M  V30 7796 C 735.606 4.465 0.543858 0
M  V30 7797 C 736.925 3.64664 2.46391 0
M  V30 7798 H 734.044 0.679049 0.286463 0
M  V30 7799 H 736.686 1.89919 0.0554866 0
M  V30 7800 H 734.836 3.24067 2.14273 0
M  V30 7801 H 736.508 4.61235 -0.0774597 0
M  V30 7802 H 734.751 4.33567 -0.142228 0
M  V30 7803 H 735.422 5.41192 1.08696 0
M  V30 7804 H 737.898 3.68267 1.93698 0
M  V30 7805 H 736.774 4.63534 2.93986 0
M  V30 7806 H 737.035 2.93698 3.30445 0
M  V30 7807 N 736.094 -0.359525 1.53444 0
M  V30 7808 C 737.343 -1.09886 1.69139 0
M  V30 7809 C 737.656 -1.90285 0.452863 0
M  V30 7810 O 738.862 -2.67033 0.490459 0
M  V30 7811 C 737.318 -2.0028 2.99025 0
M  V30 7812 C 736.926 -1.25164 4.30161 0
M  V30 7813 C 738.67 -2.74168 3.24086 0
M  V30 7814 C 736.577 -2.14494 5.51132 0
M  V30 7815 H 735.507 -0.413936 0.630217 0
M  V30 7816 H 738.158 -0.359434 1.79945 0
M  V30 7817 H 736.54 -2.77978 2.82036 0
M  V30 7818 H 737.714 -0.524867 4.57801 0
M  V30 7819 H 736.029 -0.631116 4.11589 0
M  V30 7820 H 738.626 -3.41243 4.11652 0
M  V30 7821 H 738.969 -3.39868 2.40407 0
M  V30 7822 H 739.502 -2.0355 3.41778 0
M  V30 7823 H 736.241 -1.53362 6.37307 0
M  V30 7824 H 735.761 -2.85004 5.27762 0
M  V30 7825 H 737.44 -2.73914 5.86157 0
M  V30 7826 N 737.572 -1.44907 -0.619662 0
M  V30 7827 C 738.502 -1.55488 -1.742 0
M  V30 7828 C 739.483 -0.407143 -1.65156 0
M  V30 7829 O 740.668 -0.628743 -1.8374 0
M  V30 7830 C 737.798 -1.5097 -3.1277 0
M  V30 7831 C 736.752 -2.64337 -3.36615 0
M  V30 7832 C 736.078 -2.44872 -4.75333 0
M  V30 7833 C 737.378 -4.06423 -3.28051 0
M  V30 7834 H 739.072 -2.49432 -1.65602 0
M  V30 7835 H 736.618 -1.20047 -0.795281 0
M  V30 7836 H 738.571 -1.56971 -3.91073 0
M  V30 7837 H 737.295 -0.535486 -3.2218 0
M  V30 7838 H 735.954 -2.57744 -2.60698 0
M  V30 7839 H 735.602 -1.45617 -4.81461 0
M  V30 7840 H 735.302 -3.20888 -4.92244 0
M  V30 7841 H 736.826 -2.52709 -5.55851 0
M  V30 7842 H 738.24 -4.14324 -3.96243 0
M  V30 7843 H 736.637 -4.82733 -3.56495 0
M  V30 7844 H 737.707 -4.29183 -2.25676 0
M  V30 7845 N 739.05 0.861098 -1.31996 0
M  V30 7846 C 740.297 1.61481 -1.22188 0
M  V30 7847 C 740.625 1.93276 0.217853 0
M  V30 7848 O 739.88 1.56942 1.16909 0
M  V30 7849 C 740.179 2.94822 -2.02027 0
M  V30 7850 C 739.845 2.82483 -3.51446 0
M  V30 7851 C 738.507 2.78825 -3.92186 0
M  V30 7852 C 740.859 2.68878 -4.46491 0
M  V30 7853 C 738.187 2.59433 -5.26224 0
M  V30 7854 C 740.539 2.51022 -5.80664 0
M  V30 7855 C 739.203 2.45753 -6.20614 0
M  V30 7856 H 738.473 0.590902 -0.447119 0
M  V30 7857 H 741.12 0.999376 -1.63355 0
M  V30 7858 H 739.425 3.6045 -1.53569 0
M  V30 7859 H 741.122 3.52149 -1.91812 0
M  V30 7860 H 737.712 2.86152 -3.19085 0
M  V30 7861 H 741.896 2.70754 -4.1594 0
M  V30 7862 H 737.152 2.53784 -5.5624 0
M  V30 7863 H 741.326 2.39473 -6.53931 0
M  V30 7864 H 738.953 2.30485 -7.24417 0
M  V30 7865 N 740.528 1.15101 1.07655 0
M  V30 7866 C 741.768 0.934462 1.81789 0
M  V30 7867 C 742.132 -0.529101 1.84566 0
M  V30 7868 O 743.333 -0.863868 2.5454 0
M  V30 7869 C 741.604 1.52817 3.23082 0
M  V30 7870 S 743.163 1.45429 4.14 0
M  V30 7871 H 739.981 0.336379 0.626395 0
M  V30 7872 H 742.583 1.46593 1.29347 0
M  V30 7873 H 741.287 2.58635 3.18647 0
M  V30 7874 H 740.818 0.995432 3.80598 0
M  V30 7875 H 742.833 0.445058 4.942 0
M  V30 7876 N 742.006 -1.2595 0.947325 0
M  V30 7877 C 743.246 -1.95218 0.605743 0
M  V30 7878 C 743.61 -1.72624 -0.84054 0
M  V30 7879 O 744.811 -2.35748 -1.29136 0
M  V30 7880 C 743.082 -3.44654 0.94596 0
M  V30 7881 S 744.641 -4.32922 0.715849 0
M  V30 7882 H 741.459 -0.675159 0.222894 0
M  V30 7883 H 744.061 -1.52766 1.21995 0
M  V30 7884 H 742.765 -3.586 1.99585 0
M  V30 7885 H 742.296 -3.92082 0.321718 0
M  V30 7886 H 744.311 -4.94445 -0.416959 0
M  V30 7887 N 743.484 -0.715051 -1.40445 0
M  V30 7888 C 744.709 -0.26254 -2.05732 0
M  V30 7889 C 745.134 1.08691 -1.53519 0
M  V30 7890 O 744.492 1.68453 -0.670328 0
M  V30 7891 C 744.54 -0.25195 -3.59719 0
M  V30 7892 O 743.644 0.766998 -4.05205 0
M  V30 7893 H 742.985 -0.123398 -0.652433 0
M  V30 7894 H 745.515 -0.975382 -1.79854 0
M  V30 7895 H 745.525 -0.0894537 -4.07902 0
M  V30 7896 H 744.2 -1.23672 -3.97087 0
M  V30 7897 H 742.777 0.572269 -3.68483 0
M  V30 7898 N 744.962 1.50701 -0.461195 0
M  V30 7899 C 746.21 2.01867 0.0970051 0
M  V30 7900 C 746.531 1.34591 1.41104 0
M  V30 7901 O 745.801 0.488041 1.89723 0
M  V30 7902 H 744.381 0.74599 0.0388392 0
M  V30 7903 H 747.043 1.85129 -0.609357 0
M  V30 7904 H 746.139 3.11051 0.255688 0
M  V30 7905 N 746.441 0.193421 1.56409 0
M  V30 7906 C 747.388 -0.728124 2.19014 0
M  V30 7907 C 748.358 -1.21098 1.13686 0
M  V30 7908 O 749.543 -1.27517 1.4193 0
M  V30 7909 C 746.683 -1.94277 2.8522 0
M  V30 7910 C 745.796 -1.50143 4.05069 0
M  V30 7911 C 744.931 -2.67145 4.59137 0
M  V30 7912 C 743.97 -2.19609 5.71348 0
M  V30 7913 N 743.107 -3.29782 6.19829 0
M  V30 7914 H 747.947 -0.187499 2.9741 0
M  V30 7915 H 745.484 -0.0808064 1.46878 0
M  V30 7916 H 747.442 -2.65551 3.21774 0
M  V30 7917 H 746.072 -2.45673 2.09391 0
M  V30 7918 H 745.124 -0.684624 3.74189 0
M  V30 7919 H 746.436 -1.11266 4.86232 0
M  V30 7920 H 745.59 -3.46544 4.97988 0
M  V30 7921 H 744.329 -3.09295 3.77078 0
M  V30 7922 H 743.334 -1.38664 5.32027 0
M  V30 7923 H 744.559 -1.78492 6.55223 0
M  V30 7924 H 742.505 -3.71466 5.40693 0
M  V30 7925 H 742.422 -2.95069 6.96039 0
M  V30 7926 H 743.69 -4.094 6.63334 0
M  V30 7927 N 747.919 -1.57396 -0.0801906 0
M  V30 7928 C 748.866 -2.03107 -1.09618 0
M  V30 7929 C 749.836 -0.910118 -1.38946 0
M  V30 7930 O 751.021 -1.17719 -1.50156 0
M  V30 7931 C 748.161 -2.47293 -2.40708 0
M  V30 7932 C 747.274 -3.72972 -2.17982 0
M  V30 7933 C 746.409 -4.05975 -3.42576 0
M  V30 7934 C 745.448 -5.24719 -3.15177 0
M  V30 7935 N 744.585 -5.53401 -4.32078 0
M  V30 7936 H 749.425 -2.89677 -0.69939 0
M  V30 7937 H 746.962 -1.43263 -0.333785 0
M  V30 7938 H 748.92 -2.7096 -3.17232 0
M  V30 7939 H 747.55 -1.63713 -2.78205 0
M  V30 7940 H 746.602 -3.56693 -1.32189 0
M  V30 7941 H 747.914 -4.59638 -1.93738 0
M  V30 7942 H 747.068 -4.30498 -4.275 0
M  V30 7943 H 745.807 -3.17859 -3.69887 0
M  V30 7944 H 744.812 -5 -2.28648 0
M  V30 7945 H 746.037 -6.14445 -2.89197 0
M  V30 7946 H 743.983 -4.68245 -4.59437 0
M  V30 7947 H 743.9 -6.34469 -4.11078 0
M  V30 7948 H 745.168 -5.8247 -5.18024 0
M  V30 7949 N 749.397 0.351382 -1.53633 0
M  V30 7950 C 750.329 1.45159 -1.77374 0
M  V30 7951 C 751.342 1.4905 -0.654826 0
M  V30 7952 O 752.531 1.52274 -0.931396 0
M  V30 7953 C 749.631 2.83858 -1.85143 0
M  V30 7954 C 748.804 3.03498 -3.14972 0
M  V30 7955 C 747.863 4.22393 -3.138 0
M  V30 7956 O 746.889 4.16885 -3.87551 0
M  V30 7957 N 748.091 5.30533 -2.35617 0
M  V30 7958 H 750.856 1.25167 -2.72311 0
M  V30 7959 H 748.417 0.54121 -1.52586 0
M  V30 7960 H 750.409 3.61557 -1.8182 0
M  V30 7961 H 748.979 2.9703 -0.974275 0
M  V30 7962 H 748.199 2.13336 -3.31484 0
M  V30 7963 H 749.487 3.13498 -4.00745 0
M  V30 7964 H 748.885 5.37875 -1.75235 0
M  V30 7965 H 747.442 6.06756 -2.38098 0
M  V30 7966 N 750.875 1.45233 0.611969 0
M  V30 7967 C 752.103 1.52539 1.39784 0
M  V30 7968 C 752.518 0.156533 1.8815 0
M  V30 7969 O 751.875 -0.84112 1.61961 0
M  V30 7970 C 751.926 2.50614 2.60528 0
M  V30 7971 O 751.647 3.8218 2.14173 0
M  V30 7972 C 753.148 2.67574 3.53439 0
M  V30 7973 H 750.368 0.51674 0.428043 0
M  V30 7974 H 752.912 1.90379 0.746727 0
M  V30 7975 H 751.067 2.15858 3.2169 0
M  V30 7976 H 751.481 4.35305 2.92592 0
M  V30 7977 H 752.955 3.40184 4.34717 0
M  V30 7978 H 753.432 1.73458 4.03496 0
M  V30 7979 H 754.038 3.0331 2.98133 0
M  V30 7980 N 752.353 -0.854086 1.3245 0
M  V30 7981 C 753.578 -1.64597 1.26185 0
M  V30 7982 C 754.003 -1.87357 -0.167074 0
M  V30 7983 O 753.361 -1.42675 -1.11864 0
M  V30 7984 C 753.409 -2.98213 2.02734 0
M  V30 7985 O 752.513 -3.88784 1.37554 0
M  V30 7986 H 751.854 -0.50179 0.434859 0
M  V30 7987 H 754.384 -1.06372 1.74775 0
M  V30 7988 H 754.394 -3.4803 2.1293 0
M  V30 7989 H 753.069 -2.80969 3.06642 0
M  V30 7990 H 751.646 -3.4725 1.3591 0
M  V30 7991 N 753.831 -1.1567 -1.07043 0
M  V30 7992 C 755.079 -0.931673 -1.79344 0
M  V30 7993 C 755.4 0.542421 -1.87304 0
M  V30 7994 O 754.67 1.39418 -1.37621 0
M  V30 7995 H 753.25 -0.34171 -0.664262 0
M  V30 7996 H 755.912 -1.45795 -1.29344 0
M  V30 7997 H 755.008 -1.34379 -2.81689 0
M  V30 7998 N 755.309 1.25446 -0.953992 0
M  V30 7999 C 756.242 2.24341 -0.417912 0
M  V30 8000 C 757.22 1.54709 0.5004 0
M  V30 8001 O 758.404 1.83414 0.434923 0
M  V30 8002 C 755.531 3.36352 0.398155 0
M  V30 8003 C 754.577 4.24007 -0.460461 0
M  V30 8004 S 755.41 5.00951 -1.89231 0
M  V30 8005 C 756.566 6.1643 -1.08465 0
M  V30 8006 H 756.799 2.69465 -1.25602 0
M  V30 8007 H 754.332 1.34512 -0.758018 0
M  V30 8008 H 756.29 4.01325 0.863059 0
M  V30 8009 H 754.951 2.89813 1.21108 0
M  V30 8010 H 754.144 5.03728 0.165415 0
M  V30 8011 H 753.746 3.63965 -0.860549 0
M  V30 8012 H 756.038 6.76681 -0.333017 0
M  V30 8013 H 756.981 6.8335 -1.85577 0
M  V30 8014 H 757.389 5.61139 -0.615062 0
M  V30 8015 N 756.787 0.722489 1.40064 0
M  V30 8016 C 757.697 0.0755984 2.34478 0
M  V30 8017 C 758.713 -0.736046 1.57665 0
M  V30 8018 O 759.889 -0.667407 1.9002 0
M  V30 8019 C 756.954 -0.830075 3.36616 0
M  V30 8020 C 756.015 -0.00759884 4.29299 0
M  V30 8021 C 755.248 -0.870139 5.26559 0
M  V30 8022 O 755.471 -2.10921 5.2997 0
M  V30 8023 O 754.405 -0.305454 6.01124 0
M  V30 8024 H 758.231 0.854545 2.9143 0
M  V30 8025 H 755.816 0.483032 1.41376 0
M  V30 8026 H 757.698 -1.34864 3.99236 0
M  V30 8027 H 756.373 -1.58805 2.82069 0
M  V30 8028 H 755.28 0.556199 3.69942 0
M  V30 8029 H 756.613 0.712312 4.87018 0
M  V30 8030 N 758.265 -1.50454 0.469181 0
M  V30 8031 C 759.495 -2.06429 -0.0840913 0
M  V30 8032 C 759.903 -1.3334 -1.34227 0
M  V30 8033 O 759.246 -0.395656 -1.79389 0
M  V30 8034 C 759.308 -3.56797 -0.440049 0
M  V30 8035 C 758.972 -4.51359 0.715838 0
M  V30 8036 C 759.969 -4.94754 1.59732 0
M  V30 8037 C 757.654 -4.94069 0.905621 0
M  V30 8038 C 759.648 -5.79564 2.653 0
M  V30 8039 C 757.335 -5.78662 1.96453 0
M  V30 8040 C 758.333 -6.21311 2.83658 0
M  V30 8041 O 758.021 -7.04218 3.87727 0
M  V30 8042 H 757.753 -0.675994 0.00289751 0
M  V30 8043 H 760.307 -1.94629 0.656417 0
M  V30 8044 H 758.537 -3.66492 -1.23372 0
M  V30 8045 H 760.226 -3.95145 -0.928181 0
M  V30 8046 H 760.992 -4.62428 1.46237 0
M  V30 8047 H 756.871 -4.60394 0.236326 0
M  V30 8048 H 760.415 -6.12774 3.33398 0
M  V30 8049 H 756.312 -6.10401 2.09955 0
M  V30 8050 H 757.08 -7.22464 3.84692 0
M  V30 8051 N 759.743 -0.201713 -1.56304 0
M  V30 8052 C 760.69 0.716499 -2.19397 0
M  V30 8053 C 761.66 1.20494 -1.14326 0
M  V30 8054 O 762.845 1.26763 -1.42604 0
M  V30 8055 C 759.985 1.92762 -2.86246 0
M  V30 8056 C 759.098 1.47993 -4.0586 0
M  V30 8057 C 758.233 2.64706 -4.60547 0
M  V30 8058 C 757.272 2.16576 -5.72504 0
M  V30 8059 N 756.409 3.26491 -6.21569 0
M  V30 8060 H 761.249 0.171724 -2.97505 0
M  V30 8061 H 758.786 0.073016 -1.46919 0
M  V30 8062 H 760.744 2.6384 -3.23178 0
M  V30 8063 H 759.374 2.44559 -2.10691 0
M  V30 8064 H 758.426 0.66477 -3.74546 0
M  V30 8065 H 759.738 1.08686 -4.86815 0
M  V30 8066 H 758.892 3.43898 -4.99819 0
M  V30 8067 H 757.631 3.0729 -3.78713 0
M  V30 8068 H 756.636 1.3584 -5.32755 0
M  V30 8069 H 757.861 1.75015 -6.56161 0
M  V30 8070 H 755.807 3.68594 -5.42655 0
M  V30 8071 H 755.724 2.91374 -6.97594 0
M  V30 8072 H 756.992 4.05877 -6.65495 0
M  V30 8073 N 761.222 1.57436 0.0718424 0
M  V30 8074 C 762.169 2.03686 1.08539 0
M  V30 8075 C 763.139 0.917474 1.38462 0
M  V30 8076 O 764.324 1.18513 1.4953 0
M  V30 8077 C 761.464 2.48566 2.39393 0
M  V30 8078 C 760.577 3.74122 2.16001 0
M  V30 8079 C 759.712 4.07786 3.40418 0
M  V30 8080 C 758.751 5.26383 3.1239 0
M  V30 8081 N 757.888 5.55685 4.29138 0
M  V30 8082 H 762.728 2.90043 0.684018 0
M  V30 8083 H 760.265 1.43438 0.326183 0
M  V30 8084 H 762.223 2.72639 3.15791 0
M  V30 8085 H 760.853 1.65186 2.77333 0
M  V30 8086 H 759.905 3.57389 1.30296 0
M  V30 8087 H 761.217 4.60659 1.91298 0
M  V30 8088 H 760.371 4.32759 4.25211 0
M  V30 8089 H 759.11 3.19817 3.68197 0
M  V30 8090 H 758.115 5.01206 2.25993 0
M  V30 8091 H 759.34 6.1597 2.85934 0
M  V30 8092 H 757.286 4.70675 4.56948 0
M  V30 8093 H 757.203 6.3664 4.07708 0
M  V30 8094 H 758.471 5.85209 5.14928 0
M  V30 8095 N 762.7 -0.34323 1.53817 0
M  V30 8096 C 763.928 -1.10348 1.75017 0
M  V30 8097 C 764.343 -1.82345 0.489475 0
M  V30 8098 O 763.7 -1.74362 -0.538886 0
M  V30 8099 C 763.751 -2.11672 2.93048 0
M  V30 8100 O 763.472 -1.42603 4.14241 0
M  V30 8101 C 764.973 -3.0007 3.26301 0
M  V30 8102 H 762.193 -0.329056 0.584776 0
M  V30 8103 H 764.737 -0.395339 2.00642 0
M  V30 8104 H 762.892 -2.78051 2.69753 0
M  V30 8105 H 763.306 -2.10294 4.80496 0
M  V30 8106 H 764.78 -3.67101 4.12239 0
M  V30 8107 H 765.257 -3.66105 2.42618 0
M  V30 8108 H 765.863 -2.3928 3.51604 0
M  V30 8109 N 764.178 -1.45556 -0.604258 0
M  V30 8110 C 765.455 -1.40221 -1.36373 0
M  V30 8111 C 765.835 -0.0745195 -2.10968 0
M  V30 8112 O 765.183 0.943594 -2.08107 0
M  V30 8113 C 765.393 -2.61807 -2.30777 0
M  V30 8114 C 766.741 -3.07037 -2.93281 0
M  V30 8115 O 767.765 -2.62203 -2.41097 0
M  V30 8116 O 766.624 -3.8485 -3.88011 0
M  V30 8117 H 763.718 -0.556602 -0.611656 0
M  V30 8118 H 766.264 -1.57689 -0.627069 0
M  V30 8119 H 765.036 -3.50017 -1.74939 0
M  V30 8120 H 764.659 -2.46688 -3.11818 0
M  V30 8121 N 765.656 0.84705 -1.32902 0
M  V30 8122 C 766.619 1.9378 -1.224 0
M  V30 8123 C 767.619 1.60144 -0.145108 0
M  V30 8124 O 768.809 1.69638 -0.396058 0
M  V30 8125 C 765.941 3.29234 -0.884174 0
M  V30 8126 H 767.134 2.04518 -2.19345 0
M  V30 8127 H 764.687 1.03816 -1.16842 0
M  V30 8128 H 765.422 3.24193 0.0831277 0
M  V30 8129 H 765.207 3.55026 -1.6643 0
M  V30 8130 H 766.697 4.09162 -0.835226 0
M  V30 8131 N 767.134 1.16236 1.06428 0
M  V30 8132 C 768.545 0.950942 1.60667 0
M  V30 8133 C 768.896 -0.505491 1.89576 0
M  V30 8134 O 768.021 -1.37843 1.66818 0
M  V30 8135 C 768.616 1.71982 2.91904 0
M  V30 8136 C 767.175 1.55342 3.4285 0
M  V30 8137 C 766.322 1.72942 2.16763 0
M  V30 8138 H 769.273 1.31126 0.893959 0
M  V30 8139 H 769.294 1.19483 3.61253 0
M  V30 8140 H 768.806 2.77978 2.70831 0
M  V30 8141 H 766.907 0.5178 3.68985 0
M  V30 8142 H 767.02 2.33643 4.18267 0
M  V30 8143 H 765.384 1.15673 2.26918 0
M  V30 8144 H 766.167 2.80324 1.98175 0
M  V30 8145 N 768.612 -1.24939 0.960631 0
M  V30 8146 C 769.544 -2.24879 0.442937 0
M  V30 8147 C 770.557 -1.56615 -0.444464 0
M  V30 8148 O 771.746 -1.76715 -0.251776 0
M  V30 8149 C 768.846 -3.36757 -0.380537 0
M  V30 8150 C 768.019 -4.34587 0.495283 0
M  V30 8151 C 767.078 -5.25502 -0.270995 0
M  V30 8152 O 766.104 -5.68227 0.332661 0
M  V30 8153 N 767.306 -5.59077 -1.56249 0
M  V30 8154 H 770.071 -2.69932 1.30218 0
M  V30 8155 H 767.632 -1.38907 0.83166 0
M  V30 8156 H 769.624 -3.94542 -0.90103 0
M  V30 8157 H 768.194 -2.91045 -1.14067 0
M  V30 8158 H 767.414 -3.75593 1.19682 0
M  V30 8159 H 768.702 -4.96925 1.09285 0
M  V30 8160 H 768.1 -5.2628 -2.07476 0
M  V30 8161 H 766.657 -6.19421 -2.02882 0
M  V30 8162 N 770.09 -0.729906 -1.39679 0
M  V30 8163 C 771.501 -0.346241 -1.83461 0
M  V30 8164 C 771.852 1.1215 -1.60987 0
M  V30 8165 O 770.977 1.86456 -1.09832 0
M  V30 8166 C 771.572 -0.621656 -3.33048 0
M  V30 8167 C 770.131 -0.291543 -3.75269 0
M  V30 8168 C 769.278 -0.886844 -2.62736 0
M  V30 8169 H 772.229 -0.927949 -1.28743 0
M  V30 8170 H 772.25 0.108301 -3.80346 0
M  V30 8171 H 771.762 -1.68996 -3.49373 0
M  V30 8172 H 769.863 0.771133 -3.64533 0
M  V30 8173 H 769.976 -0.770544 -4.72863 0
M  V30 8174 H 768.34 -0.313839 -2.52759 0
M  V30 8175 H 769.123 -1.95971 -2.81869 0
M  V30 8176 N 771.568 1.50203 -0.477153 0
M  V30 8177 C 772.845 1.95115 0.137609 0
M  V30 8178 C 773.225 1.41778 1.56404 0
M  V30 8179 O 772.573 0.621333 2.1989 0
M  V30 8180 C 772.783 3.4892 0.0747168 0
M  V30 8181 C 774.131 4.238 0.260585 0
M  V30 8182 O 775.155 3.5588 0.151021 0
M  V30 8183 O 774.014 5.44366 0.482534 0
M  V30 8184 H 771.108 0.81987 0.108364 0
M  V30 8185 H 773.654 1.60946 -0.537989 0
M  V30 8186 H 772.426 3.80308 -0.920966 0
M  V30 8187 H 772.049 3.89642 0.791509 0
M  V30 8188 N 773.046 0.209999 1.56195 0
M  V30 8189 C 774.292 -0.425442 1.98287 0
M  V30 8190 C 774.625 -1.60232 1.09724 0
M  V30 8191 O 773.9 -1.93902 0.152414 0
M  V30 8192 C 774.183 -0.871189 3.49403 0
M  V30 8193 C 774.036 0.308527 4.48741 0
M  V30 8194 C 775.355 -1.73146 4.04609 0
M  V30 8195 H 772.474 -0.153169 0.720908 0
M  V30 8196 H 775.116 0.303916 1.87554 0
M  V30 8197 H 773.266 -1.49266 3.58681 0
M  V30 8198 H 774.938 0.946487 4.51486 0
M  V30 8199 H 773.181 0.957878 4.23092 0
M  V30 8200 H 773.852 -0.0461143 5.51981 0
M  V30 8201 H 776.328 -1.2072 3.98203 0
M  V30 8202 H 775.204 -2.01228 5.10684 0
M  V30 8203 H 775.465 -2.69083 3.5078 0
M  V30 8204 N 774.524 -1.57472 -0.0634922 0
M  V30 8205 C 775.471 -2.04258 -1.07457 0
M  V30 8206 C 776.441 -0.924804 -1.37973 0
M  V30 8207 O 777.626 -1.19305 -1.48899 0
M  V30 8208 C 774.766 -2.49832 -2.38071 0
M  V30 8209 C 773.879 -3.75263 -2.14014 0
M  V30 8210 C 773.014 -4.09585 -3.38251 0
M  V30 8211 C 772.053 -5.28032 -3.09594 0
M  V30 8212 N 771.19 -5.57953 -4.26185 0
M  V30 8213 H 776.03 -2.90402 -0.668626 0
M  V30 8214 H 773.567 -1.43609 -0.318572 0
M  V30 8215 H 775.525 -2.7431 -3.14341 0
M  V30 8216 H 774.155 -1.66654 -2.76453 0
M  V30 8217 H 773.207 -3.58075 -1.28399 0
M  V30 8218 H 774.519 -4.61667 -1.88852 0
M  V30 8219 H 773.673 -4.35008 -4.2291 0
M  V30 8220 H 772.412 -3.21765 -3.66495 0
M  V30 8221 H 771.417 -5.02397 -2.23332 0
M  V30 8222 H 772.642 -6.17477 -2.82663 0
M  V30 8223 H 770.588 -4.73092 -4.54445 0
M  V30 8224 H 770.505 -6.38793 -4.04326 0
M  V30 8225 H 771.773 -5.87931 -5.11817 0
M  V30 8226 N 776.003 0.335068 -1.53997 0
M  V30 8227 C 776.913 1.43511 -1.85585 0
M  V30 8228 C 777.929 1.57162 -0.746726 0
M  V30 8229 O 779.105 1.72477 -1.03988 0
M  V30 8230 C 776.17 2.78386 -2.06646 0
M  V30 8231 C 775.231 2.74007 -3.30483 0
M  V30 8232 C 774.464 4.02449 -3.50529 0
M  V30 8233 O 774.687 5.00147 -2.74242 0
M  V30 8234 O 773.621 4.06405 -4.4398 0
M  V30 8235 H 777.447 1.19731 -2.79102 0
M  V30 8236 H 775.032 0.528033 -1.39758 0
M  V30 8237 H 776.914 3.58247 -2.21894 0
M  V30 8238 H 775.589 3.0208 -1.16317 0
M  V30 8239 H 774.496 1.92736 -3.2063 0
M  V30 8240 H 775.829 2.55267 -4.20832 0
M  V30 8241 N 777.481 1.45874 0.596531 0
M  V30 8242 C 778.391 1.57947 1.73464 0
M  V30 8243 C 779.407 0.463461 1.67714 0
M  V30 8244 O 780.583 0.725685 1.87872 0
M  V30 8245 C 777.648 1.55348 3.09948 0
M  V30 8246 C 776.709 2.78074 3.27068 0
M  V30 8247 C 775.942 2.75589 4.57041 0
M  V30 8248 O 776.165 1.83545 5.40063 0
M  V30 8249 O 775.099 3.66945 4.77111 0
M  V30 8250 H 778.925 2.54169 1.66228 0
M  V30 8251 H 776.51 1.2851 0.76194 0
M  V30 8252 H 778.392 1.56545 3.91244 0
M  V30 8253 H 777.067 0.622811 3.17652 0
M  V30 8254 H 775.974 2.82435 2.45319 0
M  V30 8255 H 777.307 3.70303 3.24248 0
M  V30 8256 N 778.959 -0.83999 1.33349 0
M  V30 8257 C 779.869 -1.98182 1.25543 0
M  V30 8258 C 780.885 -1.73204 0.166208 0
M  V30 8259 O 782.061 -1.97596 0.389589 0
M  V30 8260 C 779.126 -3.32157 0.993614 0
M  V30 8261 C 778.187 -3.70258 2.17273 0
M  V30 8262 C 777.42 -4.9784 1.92331 0
M  V30 8263 O 777.643 -5.63679 0.873074 0
M  V30 8264 O 776.577 -5.33418 2.78835 0
M  V30 8265 H 780.403 -2.07708 2.21565 0
M  V30 8266 H 777.988 -0.972852 1.13384 0
M  V30 8267 H 779.87 -4.12433 0.864711 0
M  V30 8268 H 778.545 -3.23637 0.0636596 0
M  V30 8269 H 777.452 -2.90497 2.35716 0
M  V30 8270 H 778.785 -3.83442 3.08598 0
M  V30 8271 N 780.437 -1.16799 -1.0581 0
M  V30 8272 C 781.347 -0.893492 -2.16919 0
M  V30 8273 C 782.363 0.136061 -1.73467 0
M  V30 8274 O 783.539 -0.0417348 -2.01357 0
M  V30 8275 C 780.604 -0.403763 -3.44341 0
M  V30 8276 C 779.665 -1.49914 -4.02274 0
M  V30 8277 C 778.898 -1.03269 -5.23614 0
M  V30 8278 O 779.121 0.115647 -5.70283 0
M  V30 8279 O 778.055 -1.8231 -5.73626 0
M  V30 8280 H 781.881 -1.82274 -2.42919 0
M  V30 8281 H 779.466 -0.948361 -1.1544 0
M  V30 8282 H 781.348 -0.137874 -4.21174 0
M  V30 8283 H 780.023 0.497413 -3.19855 0
M  V30 8284 H 778.93 -1.81883 -3.26909 0
M  V30 8285 H 780.263 -2.3758 -4.31064 0
M  V30 8286 N 781.915 1.24427 -0.967243 0
M  V30 8287 C 782.825 2.29109 -0.504592 0
M  V30 8288 C 783.841 1.68495 0.434224 0
M  V30 8289 O 785.017 1.99041 0.307379 0
M  V30 8290 C 782.082 3.46133 0.198273 0
M  V30 8291 C 781.143 4.22149 -0.780313 0
M  V30 8292 C 780.376 5.33585 -0.110896 0
M  V30 8293 O 780.599 5.59676 1.10088 0
M  V30 8294 O 779.533 5.96522 -0.802823 0
M  V30 8295 H 783.359 2.708 -1.37482 0
M  V30 8296 H 780.944 1.30111 -0.73426 0
M  V30 8297 H 782.826 4.17205 0.593124 0
M  V30 8298 H 781.501 3.0642 1.04347 0
M  V30 8299 H 780.408 3.53454 -1.22561 0
M  V30 8300 H 781.741 4.65677 -1.59392 0
M  V30 8301 N 783.393 0.737304 1.3929 0
M  V30 8302 C 784.34 0.0988364 2.30588 0
M  V30 8303 C 785.31 -0.727206 1.49335 0
M  V30 8304 O 786.495 -0.686694 1.78014 0
M  V30 8305 C 783.635 -0.800734 3.35682 0
M  V30 8306 C 782.748 0.0381731 4.31983 0
M  V30 8307 C 781.883 -0.862884 5.24145 0
M  V30 8308 C 780.922 -0.0193639 6.12097 0
M  V30 8309 N 780.059 -0.87648 6.96608 0
M  V30 8310 H 784.899 0.883031 2.84617 0
M  V30 8311 H 782.436 0.447111 1.4014 0
M  V30 8312 H 784.394 -1.33676 3.95205 0
M  V30 8313 H 783.024 -1.55088 2.83103 0
M  V30 8314 H 782.076 0.691641 3.74059 0
M  V30 8315 H 783.388 0.690294 4.94 0
M  V30 8316 H 782.542 -1.46667 5.88705 0
M  V30 8317 H 781.281 -1.54878 4.62454 0
M  V30 8318 H 780.286 0.597202 5.46547 0
M  V30 8319 H 781.511 0.663348 6.75852 0
M  V30 8320 H 779.457 -1.54762 6.37483 0
M  V30 8321 H 779.374 -0.280892 7.55478 0
M  V30 8322 H 780.642 -1.46575 7.65595 0
M  V30 8323 N 784.871 -1.49948 0.485112 0
M  V30 8324 C 785.781 -2.32587 -0.306697 0
M  V30 8325 C 786.797 -1.43598 -0.982632 0
M  V30 8326 O 787.973 -1.76638 -0.967519 0
M  V30 8327 C 785.038 -3.18638 -1.3664 0
M  V30 8328 C 784.099 -4.23462 -0.705589 0
M  V30 8329 C 783.332 -5.05401 -1.7148 0
M  V30 8330 O 783.555 -4.88618 -2.94293 0
M  V30 8331 O 782.489 -5.88157 -1.27889 0
M  V30 8332 H 786.315 -3.01447 0.369272 0
M  V30 8333 H 783.9 -1.47349 0.246709 0
M  V30 8334 H 785.782 -3.71992 -1.9799 0
M  V30 8335 H 784.457 -2.52491 -2.02559 0
M  V30 8336 H 783.364 -3.74063 -0.0527733 0
M  V30 8337 H 784.697 -4.92119 -0.0891187 0
M  V30 8338 N 786.349 -0.21828 -1.56081 0
M  V30 8339 C 787.259 0.704602 -2.23769 0
M  V30 8340 C 788.275 1.21633 -1.24425 0
M  V30 8341 O 789.451 1.25862 -1.57228 0
M  V30 8342 C 786.516 1.89725 -2.90182 0
M  V30 8343 C 785.577 1.42782 -4.0486 0
M  V30 8344 C 784.81 2.56361 -4.68097 0
M  V30 8345 O 785.033 3.74417 -4.30312 0
M  V30 8346 O 783.967 2.2775 -5.57148 0
M  V30 8347 H 787.793 0.158007 -3.03289 0
M  V30 8348 H 785.378 0.0120279 -1.49395 0
M  V30 8349 H 787.26 2.59382 -3.32113 0
M  V30 8350 H 785.935 2.432 -2.13624 0
M  V30 8351 H 784.842 0.699359 -3.67505 0
M  V30 8352 H 786.175 0.939474 -4.83151 0
M  V30 8353 N 787.827 1.57504 0.0551401 0
M  V30 8354 C 788.737 2.08198 1.08124 0
M  V30 8355 C 789.753 1.01496 1.41331 0
M  V30 8356 O 790.929 1.33073 1.51174 0
M  V30 8357 C 787.994 2.52968 2.37083 0
M  V30 8358 C 787.055 3.7404 2.10696 0
M  V30 8359 C 786.288 4.16665 3.33505 0
M  V30 8360 O 786.511 3.59019 4.4324 0
M  V30 8361 O 785.445 5.09324 3.20737 0
M  V30 8362 H 789.271 2.95977 0.680518 0
M  V30 8363 H 786.856 1.46933 0.270401 0
M  V30 8364 H 788.738 2.82211 3.12946 0
M  V30 8365 H 787.413 1.6831 2.76502 0
M  V30 8366 H 786.32 3.49855 1.32484 0
M  V30 8367 H 787.653 4.59601 1.76148 0
M  V30 8368 N 789.305 -0.326896 1.54172 0
M  V30 8369 C 790.252 -1.40216 1.83325 0
M  V30 8370 C 791.222 -1.51538 0.680107 0
M  V30 8371 O 792.407 -1.66811 0.926206 0
M  V30 8372 C 789.547 -2.76626 2.0633 0
M  V30 8373 C 788.66 -2.73963 3.34019 0
M  V30 8374 C 787.795 -4.02198 3.47002 0
M  V30 8375 C 786.834 -3.93828 4.68578 0
M  V30 8376 N 785.971 -5.13787 4.78506 0
M  V30 8377 H 790.811 -1.14656 2.7506 0
M  V30 8378 H 788.348 -0.555089 1.36225 0
M  V30 8379 H 790.306 -3.55922 2.17659 0
M  V30 8380 H 788.936 -3.00503 1.1789 0
M  V30 8381 H 787.988 -1.86677 3.31445 0
M  V30 8382 H 789.3 -2.6366 4.2342 0
M  V30 8383 H 788.454 -4.89923 3.57855 0
M  V30 8384 H 787.193 -4.15302 2.55687 0
M  V30 8385 H 786.198 -3.04487 4.57786 0
M  V30 8386 H 787.423 -3.82292 5.61275 0
M  V30 8387 H 785.369 -5.27403 3.90105 0
M  V30 8388 H 785.286 -5.05807 5.61868 0
M  V30 8389 H 786.554 -6.03236 4.93686 0
M  V30 8390 N 790.784 -1.46188 -0.588786 0
M  V30 8391 C 792.061 -1.41659 -1.34878 0
M  V30 8392 C 792.441 -0.0968913 -2.10878 0
M  V30 8393 O 791.789 0.921468 -2.09096 0
M  V30 8394 C 791.999 -2.6424 -2.27988 0
M  V30 8395 C 793.347 -3.1013 -2.90008 0
M  V30 8396 O 794.371 -2.64745 -2.38303 0
M  V30 8397 O 793.23 -3.88944 -3.83908 0
M  V30 8398 H 790.324 -0.563058 -0.605718 0
M  V30 8399 H 792.87 -1.58346 -0.610309 0
M  V30 8400 H 791.642 -3.51853 -1.71217 0
M  V30 8401 H 791.265 -2.49982 -3.09184 0
M  V30 8402 N 792.262 0.832906 -1.33792 0
M  V30 8403 C 793.209 1.94314 -1.24541 0
M  V30 8404 C 794.179 1.65646 -0.122753 0
M  V30 8405 O 795.364 1.88394 -0.30204 0
M  V30 8406 C 792.504 3.30395 -0.996641 0
M  V30 8407 C 791.617 3.71422 -2.20612 0
M  V30 8408 C 790.752 4.96401 -1.89101 0
M  V30 8409 C 789.791 5.2998 -3.06247 0
M  V30 8410 N 788.928 6.46137 -2.74685 0
M  V30 8411 H 793.768 2.01559 -2.19495 0
M  V30 8412 H 791.305 0.986243 -1.09141 0
M  V30 8413 H 793.263 4.08803 -0.832817 0
M  V30 8414 H 791.893 3.22691 -0.0838242 0
M  V30 8415 H 790.945 2.88488 -2.47949 0
M  V30 8416 H 792.257 3.92215 -3.0817 0
M  V30 8417 H 791.411 5.82572 -1.69396 0
M  V30 8418 H 790.15 4.7759 -0.987882 0
M  V30 8419 H 789.155 4.42312 -3.26559 0
M  V30 8420 H 790.38 5.50737 -3.97323 0
M  V30 8421 H 788.326 6.28801 -1.86938 0
M  V30 8422 H 788.243 6.67054 -3.55774 0
M  V30 8423 H 789.511 7.35403 -2.58461 0
M  V30 8424 N 793.74 1.17359 1.05189 0
M  V30 8425 C 794.988 0.960087 1.77839 0
M  V30 8426 C 795.309 -0.512554 1.88143 0
M  V30 8427 O 794.579 -1.3721 1.39822 0
M  V30 8428 H 793.159 0.352234 0.658741 0
M  V30 8429 H 795.821 1.47834 1.27008 0
M  V30 8430 H 794.917 1.38843 2.79516 0
M  V30 8431 N 795.218 -1.23913 0.973828 0
M  V30 8432 C 796.495 -1.87539 0.555729 0
M  V30 8433 C 796.875 -1.87641 -0.967162 0
M  V30 8434 O 796.223 -1.35335 -1.84111 0
M  V30 8435 C 796.433 -3.29359 1.15427 0
M  V30 8436 C 797.781 -4.06 1.24294 0
M  V30 8437 O 798.805 -3.38554 1.10723 0
M  V30 8438 O 797.664 -5.26689 1.45813 0
M  V30 8439 H 794.758 -0.805769 0.186188 0
M  V30 8440 H 797.304 -1.31838 1.06849 0
M  V30 8441 H 796.076 -3.23817 2.19678 0
M  V30 8442 H 795.699 -3.92642 0.625925 0
M  V30 8443 N 796.696 -0.74468 -1.38897 0
M  V30 8444 C 797.606 -0.112892 -2.34328 0
M  V30 8445 C 798.622 0.71087 -1.58816 0
M  V30 8446 O 799.798 0.637092 -1.91058 0
M  V30 8447 C 796.863 0.776417 -3.37894 0
M  V30 8448 C 795.924 -0.0606999 -4.29257 0
M  V30 8449 C 795.157 0.786258 -5.27877 0
M  V30 8450 O 795.38 2.02463 -5.33259 0
M  V30 8451 O 794.314 0.209781 -6.01534 0
M  V30 8452 H 798.14 -0.900801 -2.90033 0
M  V30 8453 H 795.725 -0.505462 -1.4059 0
M  V30 8454 H 797.607 1.28496 -4.01331 0
M  V30 8455 H 796.282 1.54297 -2.84559 0
M  V30 8456 H 795.189 -0.614984 -3.69011 0
M  V30 8457 H 796.522 -0.789702 -4.85824 0
M  V30 8458 N 798.174 1.49689 -0.493057 0
M  V30 8459 C 799.084 2.32746 0.294358 0
M  V30 8460 C 800.1 1.44117 0.975003 0
M  V30 8461 O 801.276 1.77149 0.958138 0
M  V30 8462 C 798.341 3.19358 1.34949 0
M  V30 8463 C 797.402 4.2383 0.683122 0
M  V30 8464 C 796.635 5.06303 1.68798 0
M  V30 8465 O 796.858 4.90172 2.91698 0
M  V30 8466 O 795.792 5.88826 1.24768 0
M  V30 8467 H 799.618 3.01247 -0.385254 0
M  V30 8468 H 797.203 1.47216 -0.254519 0
M  V30 8469 H 799.085 3.73037 1.96014 0
M  V30 8470 H 797.76 2.53561 2.01217 0
M  V30 8471 H 796.667 3.74086 0.0329351 0
M  V30 8472 H 798 4.9216 0.0630192 0
M  V30 8473 N 799.652 0.226554 1.55963 0
M  V30 8474 C 800.562 -0.692725 2.24139 0
M  V30 8475 C 801.578 -1.20971 1.25068 0
M  V30 8476 O 802.754 -1.25027 1.57893 0
M  V30 8477 C 799.819 -1.88183 2.91184 0
M  V30 8478 C 798.88 -1.40633 4.05612 0
M  V30 8479 C 798.113 -2.53875 4.6945 0
M  V30 8480 O 798.336 -3.72129 4.32292 0
M  V30 8481 O 797.27 -2.24792 5.58348 0
M  V30 8482 H 801.096 -0.141921 3.03368 0
M  V30 8483 H 798.681 -0.0041049 1.49399 0
M  V30 8484 H 800.563 -2.57617 3.33484 0
M  V30 8485 H 799.238 -2.42064 2.14911 0
M  V30 8486 H 798.145 -0.67986 3.67871 0
M  V30 8487 H 799.478 -0.913838 4.83642 0
M  V30 8488 N 801.13 -1.57531 -0.0467866 0
M  V30 8489 C 802.04 -2.08768 -1.07018 0
M  V30 8490 C 803.056 -1.02245 -1.40791 0
M  V30 8491 O 804.232 -1.33873 -1.50466 0
M  V30 8492 C 801.297 -2.54221 -2.35738 0
M  V30 8493 C 800.358 -3.75152 -2.08709 0
M  V30 8494 C 799.591 -4.18428 -3.31291 0
M  V30 8495 O 799.814 -3.61365 -4.4133 0
M  V30 8496 O 798.748 -5.11018 -3.18032 0
M  V30 8497 H 802.574 -2.96334 -0.664812 0
M  V30 8498 H 800.159 -1.47074 -0.262605 0
M  V30 8499 H 802.041 -2.83866 -3.11445 0
M  V30 8500 H 800.716 -1.69774 -2.75605 0
M  V30 8501 H 799.623 -3.50553 -1.30627 0
M  V30 8502 H 800.956 -4.60528 -1.73708 0
M  V30 8503 N 802.608 0.318715 -1.54344 0
M  V30 8504 C 803.856 1.054 -1.72439 0
M  V30 8505 C 804.177 1.88388 -0.503495 0
M  V30 8506 O 803.447 1.89866 0.48246 0
M  V30 8507 H 802.027 0.392124 -0.635805 0
M  V30 8508 H 804.689 0.35398 -1.91659 0
M  V30 8509 H 803.785 1.71726 -2.60608 0
M  V30 8510 N 804.086 1.46499 0.581025 0
M  V30 8511 C 804.996 1.59778 1.71779 0
M  V30 8512 C 806.012 0.481223 1.67213 0
M  V30 8513 O 807.188 0.74557 1.87091 0
M  V30 8514 C 804.253 1.58626 3.08283 0
M  V30 8515 C 803.314 2.81527 3.241 0
M  V30 8516 C 802.547 2.80421 4.54092 0
M  V30 8517 O 802.77 1.89262 5.38085 0
M  V30 8518 O 801.704 3.71984 4.73193 0
M  V30 8519 H 805.53 2.55918 1.63523 0
M  V30 8520 H 803.115 1.29311 0.748267 0
M  V30 8521 H 804.997 1.60686 3.89561 0
M  V30 8522 H 803.672 0.656467 3.16973 0
M  V30 8523 H 802.579 2.85021 2.42309 0
M  V30 8524 H 803.912 3.73721 3.20302 0
M  V30 8525 N 805.565 -0.825799 1.34232 0
M  V30 8526 C 806.475 -1.9684 1.27638 0
M  V30 8527 C 807.491 -1.73018 0.184569 0
M  V30 8528 O 808.667 -1.97172 0.410525 0
M  V30 8529 C 805.732 -3.31084 1.02879 0
M  V30 8530 C 804.793 -3.67933 2.21188 0
M  V30 8531 C 804.026 -4.95772 1.976 0
M  V30 8532 O 804.249 -5.62721 0.93281 0
M  V30 8533 O 803.183 -5.30431 2.84477 0
M  V30 8534 H 807.009 -2.05346 2.23756 0
M  V30 8535 H 804.594 -0.960772 1.1441 0
M  V30 8536 H 806.476 -4.11492 0.908406 0
M  V30 8537 H 805.151 -3.23552 0.0979821 0
M  V30 8538 H 804.058 -2.87981 2.38784 0
M  V30 8539 H 805.391 -3.80147 3.12648 0
M  V30 8540 N 807.043 -1.17915 -1.04565 0
M  V30 8541 C 807.99 -0.901605 -2.12461 0
M  V30 8542 C 808.96 0.157011 -1.65356 0
M  V30 8543 O 810.145 0.0184494 -1.90791 0
M  V30 8544 C 807.285 -0.42796 -3.42436 0
M  V30 8545 C 806.398 -1.55142 -4.03181 0
M  V30 8546 C 805.533 -1.03101 -5.21098 0
M  V30 8547 C 804.572 -2.1295 -5.73863 0
M  V30 8548 N 803.709 -1.62339 -6.83074 0
M  V30 8549 H 808.549 -1.82551 -2.3554 0
M  V30 8550 H 806.086 -0.910389 -1.15544 0
M  V30 8551 H 808.044 -0.134859 -4.16982 0
M  V30 8552 H 806.674 0.458977 -3.1952 0
M  V30 8553 H 805.726 -1.96011 -3.26012 0
M  V30 8554 H 807.038 -2.37968 -4.38375 0
M  V30 8555 H 806.192 -0.692132 -6.02739 0
M  V30 8556 H 804.931 -0.17227 -4.87396 0
M  V30 8557 H 803.936 -2.47687 -4.90847 0
M  V30 8558 H 805.161 -2.9925 -6.09611 0
M  V30 8559 H 803.107 -0.787464 -6.51256 0
M  V30 8560 H 803.024 -2.38767 -7.17305 0
M  V30 8561 H 804.292 -1.31363 -7.68351 0
M  V30 8562 N 808.521 1.23394 -0.980386 0
M  V30 8563 C 809.451 2.2717 -0.540024 0
M  V30 8564 C 810.432 1.64659 0.426787 0
M  V30 8565 O 811.617 1.91543 0.320153 0
M  V30 8566 C 808.747 3.46939 0.15836 0
M  V30 8567 C 807.701 4.21802 -0.725732 0
M  V30 8568 C 807.027 5.34597 0.104866 0
M  V30 8569 C 808.327 4.81802 -2.01654 0
M  V30 8570 H 810.021 2.64257 -1.40743 0
M  V30 8571 H 807.567 1.2703 -0.678193 0
M  V30 8572 H 809.52 4.18683 0.477737 0
M  V30 8573 H 808.244 3.08912 1.06022 0
M  V30 8574 H 806.903 3.51875 -1.02857 0
M  V30 8575 H 806.551 4.92812 1.00726 0
M  V30 8576 H 806.251 5.85607 -0.483557 0
M  V30 8577 H 807.775 6.09163 0.418624 0
M  V30 8578 H 809.189 5.45554 -1.76193 0
M  V30 8579 H 807.586 5.43098 -2.55273 0
M  V30 8580 H 808.656 4.02549 -2.70338 0
M  V30 8581 N 809.999 0.752036 1.385 0
M  V30 8582 C 810.909 0.125318 2.34265 0
M  V30 8583 C 811.925 -0.702437 1.59191 0
M  V30 8584 O 813.101 -0.626951 1.91393 0
M  V30 8585 C 810.166 -0.758486 3.38301 0
M  V30 8586 C 809.227 0.0834636 4.29219 0
M  V30 8587 C 808.46 -0.758252 5.28286 0
M  V30 8588 O 808.683 -1.99632 5.34325 0
M  V30 8589 O 807.617 -0.177878 6.01637 0
M  V30 8590 H 811.443 0.91617 2.89551 0
M  V30 8591 H 809.028 0.512911 1.4032 0
M  V30 8592 H 810.91 -1.26365 4.02007 0
M  V30 8593 H 809.585 -1.52786 2.85374 0
M  V30 8594 H 808.492 0.634545 3.68679 0
M  V30 8595 H 809.825 0.815455 4.85398 0
M  V30 8596 N 811.477 -1.49425 0.500989 0
M  V30 8597 C 812.387 -2.32899 -0.282011 0
M  V30 8598 C 813.403 -1.44632 -0.967346 0
M  V30 8599 O 814.579 -1.77654 -0.94873 0
M  V30 8600 C 811.644 -3.20069 -1.33253 0
M  V30 8601 C 810.705 -4.24186 -0.660636 0
M  V30 8602 C 809.938 -5.07191 -1.6611 0
M  V30 8603 O 810.161 -4.91712 -2.89094 0
M  V30 8604 O 809.095 -5.8948 -1.21643 0
M  V30 8605 H 812.921 -3.01038 0.401224 0
M  V30 8606 H 810.506 -1.47079 0.262323 0
M  V30 8607 H 812.388 -3.74071 -1.94033 0
M  V30 8608 H 811.063 -2.54625 -1.9987 0
M  V30 8609 H 809.97 -3.74098 -0.0130959 0
M  V30 8610 H 811.303 -4.92186 -0.0369179 0
M  V30 8611 N 812.955 -0.234822 -1.55841 0
M  V30 8612 C 813.902 0.6698 -2.20867 0
M  V30 8613 C 814.872 1.18042 -1.16856 0
M  V30 8614 O 816.057 1.23709 -1.45261 0
M  V30 8615 C 813.197 1.86646 -2.90271 0
M  V30 8616 C 812.31 1.39351 -4.08908 0
M  V30 8617 C 811.445 2.54878 -4.66059 0
M  V30 8618 C 810.484 2.04384 -5.76969 0
M  V30 8619 N 809.621 3.13233 -6.28355 0
M  V30 8620 H 814.461 0.10858 -2.97802 0
M  V30 8621 H 811.998 0.041836 -1.4704 0
M  V30 8622 H 813.956 2.56926 -3.28702 0
M  V30 8623 H 812.586 2.40035 -2.15831 0
M  V30 8624 H 811.638 0.585173 -3.75872 0
M  V30 8625 H 812.95 0.983356 -4.89011 0
M  V30 8626 H 812.104 3.33219 -5.07001 0
M  V30 8627 H 810.843 2.99188 -3.85146 0
M  V30 8628 H 809.848 1.24509 -5.35516 0
M  V30 8629 H 811.073 1.61057 -6.59725 0
M  V30 8630 H 809.019 3.57 -5.50352 0
M  V30 8631 H 808.936 2.76511 -7.03618 0
M  V30 8632 H 810.204 3.91669 -6.73955 0
M  V30 8633 N 814.433 1.57553 0.0384317 0
M  V30 8634 C 815.365 2.02726 1.06934 0
M  V30 8635 C 816.378 0.938502 1.33026 0
M  V30 8636 O 817.567 1.21595 1.30678 0
M  V30 8637 C 814.667 2.37958 2.41308 0
M  V30 8638 C 813.84 3.69098 2.34703 0
M  V30 8639 C 812.899 3.91623 3.51451 0
M  V30 8640 O 811.925 4.628 3.31368 0
M  V30 8641 N 813.127 3.36538 4.72993 0
M  V30 8642 H 815.892 2.91781 0.684381 0
M  V30 8643 H 813.453 1.60307 0.226542 0
M  V30 8644 H 815.445 2.50172 3.18113 0
M  V30 8645 H 814.015 1.54621 2.71682 0
M  V30 8646 H 813.235 3.67325 1.43059 0
M  V30 8647 H 814.523 4.55144 2.27424 0
M  V30 8648 H 813.921 2.78828 4.92211 0
M  V30 8649 H 812.478 3.54148 5.47195 0
M  V30 8650 N 815.911 -0.310526 1.54511 0
M  V30 8651 C 816.858 -1.38264 1.84802 0
M  V30 8652 C 817.828 -1.50808 0.696141 0
M  V30 8653 O 819.013 -1.6582 0.943846 0
M  V30 8654 C 816.153 -2.74422 2.09252 0
M  V30 8655 C 815.266 -2.70405 3.36906 0
M  V30 8656 C 814.401 -3.98495 3.51248 0
M  V30 8657 C 813.44 -3.88836 4.72729 0
M  V30 8658 N 812.577 -5.08683 4.83928 0
M  V30 8659 H 817.417 -1.11732 2.76261 0
M  V30 8660 H 814.954 -0.540609 1.36806 0
M  V30 8661 H 816.912 -3.53593 2.21422 0
M  V30 8662 H 815.542 -2.99235 1.2107 0
M  V30 8663 H 814.594 -1.83151 3.33406 0
M  V30 8664 H 815.906 -2.59155 4.26193 0
M  V30 8665 H 815.06 -4.861 3.63031 0
M  V30 8666 H 813.799 -4.12567 2.60077 0
M  V30 8667 H 812.804 -2.99615 4.60989 0
M  V30 8668 H 814.029 -3.76318 5.65298 0
M  V30 8669 H 811.975 -5.23236 3.95677 0
M  V30 8670 H 811.892 -4.99819 5.67201 0
M  V30 8671 H 813.16 -5.97966 5.00057 0
M  V30 8672 N 817.389 -1.46805 -0.573248 0
M  V30 8673 C 818.614 -1.56433 -1.36175 0
M  V30 8674 C 819.039 -0.209336 -1.86932 0
M  V30 8675 O 818.397 0.812146 -1.62092 0
M  V30 8676 C 818.445 -2.58055 -2.51873 0
M  V30 8677 O 817.549 -2.12214 -3.53609 0
M  V30 8678 H 816.89 -0.526068 -0.405153 0
M  V30 8679 H 819.42 -1.92456 -0.694405 0
M  V30 8680 H 819.43 -2.77966 -2.98662 0
M  V30 8681 H 818.105 -3.56448 -2.14284 0
M  V30 8682 H 816.682 -2.02333 -3.13234 0
M  V30 8683 N 818.867 0.818669 -1.34668 0
M  V30 8684 C 820.144 1.56118 -1.17841 0
M  V30 8685 C 820.524 2.09646 0.24731 0
M  V30 8686 O 819.872 1.91329 1.24922 0
M  V30 8687 C 820.082 2.67922 -2.23649 0
M  V30 8688 C 821.43 3.36579 -2.58843 0
M  V30 8689 O 822.454 2.78182 -2.22471 0
M  V30 8690 O 821.313 4.42045 -3.21339 0
M  V30 8691 H 818.407 0.689216 -0.457067 0
M  V30 8692 H 820.953 0.859674 -1.46314 0
M  V30 8693 H 819.725 2.26153 -3.19328 0
M  V30 8694 H 819.348 3.45719 -1.96377 0
M  V30 8695 N 820.346 1.18468 1.03938 0
M  V30 8696 C 821.309 0.914944 2.10146 0
M  V30 8697 C 822.309 -0.10022 1.60487 0
M  V30 8698 O 823.499 0.133365 1.73689 0
M  V30 8699 C 820.631 0.372993 3.38853 0
M  V30 8700 H 821.824 1.85677 2.35508 0
M  V30 8701 H 819.377 0.996876 1.20383 0
M  V30 8702 H 820.112 -0.57538 3.19155 0
M  V30 8703 H 819.897 1.1048 3.76213 0
M  V30 8704 H 821.387 0.203014 4.17106 0
M  V30 8705 N 821.824 -1.22873 0.986916 0
M  V30 8706 C 822.734 -2.28277 0.540978 0
M  V30 8707 C 823.75 -1.69164 -0.407363 0
M  V30 8708 O 824.926 -1.99504 -0.275674 0
M  V30 8709 C 821.991 -3.46404 -0.143181 0
M  V30 8710 C 821.052 -4.20854 0.847375 0
M  V30 8711 C 820.285 -5.33341 0.19577 0
M  V30 8712 O 820.508 -5.61356 -1.0117 0
M  V30 8713 O 819.442 -5.95169 0.897623 0
M  V30 8714 H 823.268 -2.68578 1.41773 0
M  V30 8715 H 820.853 -1.28927 0.754867 0
M  V30 8716 H 822.735 -4.18096 -0.526676 0
M  V30 8717 H 821.41 -3.08041 -0.994593 0
M  V30 8718 H 820.317 -3.51459 1.28169 0
M  V30 8719 H 821.65 -4.63082 1.6678 0
M  V30 8720 N 823.302 -0.75937 -1.38099 0
M  V30 8721 C 824.212 -0.13774 -2.34195 0
M  V30 8722 C 825.228 0.693985 -1.59561 0
M  V30 8723 O 826.404 0.616792 -1.91723 0
M  V30 8724 C 823.469 0.740535 -3.38699 0
M  V30 8725 C 822.53 -0.106225 -4.29169 0
M  V30 8726 C 821.763 0.730225 -5.28681 0
M  V30 8727 O 821.986 1.96796 -5.35376 0
M  V30 8728 O 820.92 0.145969 -6.01723 0
M  V30 8729 H 824.746 -0.931512 -2.89061 0
M  V30 8730 H 822.331 -0.520345 -1.40046 0
M  V30 8731 H 824.213 1.24232 -4.02672 0
M  V30 8732 H 822.888 1.51271 -2.8618 0
M  V30 8733 H 821.795 -0.654088 -3.68337 0
M  V30 8734 H 823.128 -0.841186 -4.84959 0
M  V30 8735 N 824.78 1.49157 -0.508906 0
M  V30 8736 C 826.057 1.95363 0.0961913 0
M  V30 8737 C 826.437 1.45064 1.53362 0
M  V30 8738 O 825.785 0.667835 2.18523 0
M  V30 8739 C 825.995 3.49 0.000688881 0
M  V30 8740 C 827.343 4.24257 0.170632 0
M  V30 8741 O 828.367 3.5612 0.0754994 0
M  V30 8742 O 827.226 5.45267 0.366957 0
M  V30 8743 H 824.32 0.821984 0.0909489 0
M  V30 8744 H 826.866 1.59769 -0.572007 0
M  V30 8745 H 825.638 3.78269 -1.00143 0
M  V30 8746 H 825.261 3.91233 0.708682 0
M  V30 8747 N 826.258 0.243083 1.55714 0
M  V30 8748 C 827.506 -0.381964 1.98458 0
M  V30 8749 C 827.827 -1.58745 1.13247 0
M  V30 8750 O 827.097 -1.94723 0.214384 0
M  V30 8751 H 825.677 -0.144114 0.732967 0
M  V30 8752 H 828.339 0.340985 1.91894 0
M  V30 8753 H 827.435 -0.693702 3.04293 0
M  V30 8754 N 827.736 -1.57571 -0.0300757 0
M  V30 8755 C 828.984 -1.88852 -0.719666 0
M  V30 8756 C 829.305 -0.840645 -1.75949 0
M  V30 8757 O 828.575 0.125854 -1.95495 0
M  V30 8758 H 827.155 -0.696965 -0.268792 0
M  V30 8759 H 829.817 -1.949 0.00373285 0
M  V30 8760 H 828.913 -2.87695 -1.20987 0
M  V30 8761 N 829.214 0.302327 -1.54673 0
M  V30 8762 C 830.442 1.05669 -1.77881 0
M  V30 8763 C 830.857 1.80983 -0.537648 0
M  V30 8764 O 830.214 1.7573 0.492467 0
M  V30 8765 C 830.265 2.03828 -2.98557 0
M  V30 8766 O 829.986 1.3157 -4.17877 0
M  V30 8767 C 831.487 2.91314 -3.34143 0
M  V30 8768 H 828.707 0.313436 -0.593295 0
M  V30 8769 H 831.251 0.342003 -2.0162 0
M  V30 8770 H 829.406 2.70801 -2.7703 0
M  V30 8771 H 829.82 1.97481 -4.85903 0
M  V30 8772 H 831.294 3.56042 -4.21827 0
M  V30 8773 H 831.771 3.59544 -2.52239 0
M  V30 8774 H 832.377 2.29874 -3.57824 0
M  V30 8775 N 830.692 1.47107 0.565454 0
M  V30 8776 C 831.938 1.53535 1.32495 0
M  V30 8777 C 832.271 0.193537 1.93233 0
M  V30 8778 O 831.546 -0.796956 1.77423 0
M  V30 8779 C 831.829 2.64712 2.4413 0
M  V30 8780 C 831.682 4.08482 1.88314 0
M  V30 8781 C 833.001 2.71853 3.46098 0
M  V30 8782 H 830.12 0.558926 0.480386 0
M  V30 8783 H 832.762 1.79125 0.633575 0
M  V30 8784 H 830.912 2.43023 3.03104 0
M  V30 8785 H 832.584 4.4151 1.33665 0
M  V30 8786 H 830.827 4.17148 1.19037 0
M  V30 8787 H 831.498 4.82032 2.68978 0
M  V30 8788 H 833.974 2.91397 2.97031 0
M  V30 8789 H 832.85 3.51433 4.21646 0
M  V30 8790 H 833.111 1.78584 4.04426 0
M  V30 8791 N 832.17 -0.811516 1.35101 0
M  V30 8792 C 833.395 -1.60499 1.31358 0
M  V30 8793 C 833.82 -1.87793 -0.107383 0
M  V30 8794 O 833.178 -1.46161 -1.07268 0
M  V30 8795 C 833.226 -2.91612 2.12119 0
M  V30 8796 O 832.33 -3.84211 1.49853 0
M  V30 8797 H 831.671 -0.487702 0.450603 0
M  V30 8798 H 834.201 -1.00758 1.7807 0
M  V30 8799 H 834.211 -3.4108 2.23894 0
M  V30 8800 H 832.886 -2.71071 3.15426 0
M  V30 8801 H 831.463 -3.42751 1.46889 0
M  V30 8802 N 833.648 -1.19017 -1.03309 0
M  V30 8803 C 834.58 -0.881847 -2.11556 0
M  V30 8804 C 835.593 0.123711 -1.62329 0
M  V30 8805 O 836.782 -0.105141 -1.7819 0
M  V30 8806 C 833.882 -0.297634 -3.37591 0
M  V30 8807 C 833.055 -1.35072 -4.16022 0
M  V30 8808 C 832.114 -0.780812 -5.20375 0
M  V30 8809 O 831.14 -1.45745 -5.50224 0
M  V30 8810 N 832.342 0.417964 -5.78993 0
M  V30 8811 H 835.107 -1.81359 -2.38598 0
M  V30 8812 H 832.668 -1.0916 -1.19565 0
M  V30 8813 H 834.66 0.097374 -4.04583 0
M  V30 8814 H 833.23 0.538299 -3.0793 0
M  V30 8815 H 832.45 -1.92074 -3.4424 0
M  V30 8816 H 833.738 -2.06044 -4.65213 0
M  V30 8817 H 833.136 0.985281 -5.57054 0
M  V30 8818 H 831.693 0.754802 -6.47415 0
M  V30 8819 N 835.127 1.22348 -0.993418 0
M  V30 8820 C 836.037 2.27987 -0.553076 0
M  V30 8821 C 837.053 1.69378 0.398386 0
M  V30 8822 O 838.229 1.99648 0.26509 0
M  V30 8823 C 835.294 3.46475 0.124809 0
M  V30 8824 C 834.355 4.20399 -0.869682 0
M  V30 8825 C 833.588 5.33229 -0.224052 0
M  V30 8826 O 833.811 5.61885 0.981915 0
M  V30 8827 O 832.745 5.94685 -0.929174 0
M  V30 8828 H 836.571 2.67822 -1.43195 0
M  V30 8829 H 834.156 1.28525 -0.761694 0
M  V30 8830 H 836.038 4.18369 0.504496 0
M  V30 8831 H 834.713 3.08565 0.978243 0
M  V30 8832 H 833.62 3.50774 -1.30031 0
M  V30 8833 H 834.953 4.62191 -1.69233 0
M  V30 8834 N 836.605 0.766683 1.37694 0
M  V30 8835 C 837.515 0.150158 2.34119 0
M  V30 8836 C 838.531 -0.685513 1.59927 0
M  V30 8837 O 839.707 -0.606616 1.92047 0
M  V30 8838 C 836.772 -0.722562 3.39087 0
M  V30 8839 C 835.833 0.128983 4.29106 0
M  V30 8840 C 835.066 -0.702178 5.29061 0
M  V30 8841 O 835.289 -1.93954 5.36412 0
M  V30 8842 O 834.223 -0.114056 6.01792 0
M  V30 8843 H 838.049 0.946829 2.88563 0
M  V30 8844 H 835.634 0.527765 1.39768 0
M  V30 8845 H 837.516 -1.22095 4.03325 0
M  V30 8846 H 836.191 -1.49751 2.86978 0
M  V30 8847 H 835.098 0.673612 3.67985 0
M  V30 8848 H 836.431 0.866892 4.84506 0
M  V30 8849 N 838.083 -1.48885 0.516809 0
M  V30 8850 C 838.993 -2.33185 -0.257293 0
M  V30 8851 C 840.009 -1.4565 -0.951952 0
M  V30 8852 O 841.185 -1.78651 -0.929834 0
M  V30 8853 C 838.25 -3.21465 -1.29851 0
M  V30 8854 C 837.311 -4.24863 -0.615608 0
M  V30 8855 C 836.544 -5.08925 -1.60722 0
M  V30 8856 O 836.767 -4.9475 -2.83863 0
M  V30 8857 O 835.701 -5.90737 -1.15384 0
M  V30 8858 H 839.527 -3.00596 0.433131 0
M  V30 8859 H 837.112 -1.46792 0.277908 0
M  V30 8860 H 838.994 -3.76108 -1.90055 0
M  V30 8861 H 837.669 -2.5673 -1.97158 0
M  V30 8862 H 836.576 -3.74091 0.0265829 0
M  V30 8863 H 837.909 -4.92198 0.0152871 0
M  V30 8864 N 839.561 -0.251338 -1.55583 0
M  V30 8865 C 840.838 0.422729 -1.90977 0
M  V30 8866 C 841.218 1.75534 -1.17265 0
M  V30 8867 O 840.566 2.26632 -0.291588 0
M  V30 8868 C 840.776 0.586448 -3.44037 0
M  V30 8869 C 842.124 0.880294 -4.15375 0
M  V30 8870 O 843.148 0.672148 -3.49801 0
M  V30 8871 O 842.007 1.27694 -5.31372 0
M  V30 8872 H 839.101 0.227622 -0.795058 0
M  V30 8873 H 841.647 -0.295733 -1.67103 0
M  V30 8874 H 840.419 -0.352327 -3.89711 0
M  V30 8875 H 840.042 1.35528 -3.73789 0
M  V30 8876 N 841.039 1.57585 0.0217189 0
M  V30 8877 C 842.455 1.55072 0.377484 0
M  V30 8878 C 842.655 0.978423 1.76151 0
M  V30 8879 O 841.711 0.602688 2.45202 0
M  V30 8880 C 843.024 2.99462 0.272605 0
M  V30 8881 C 844.572 3.11047 0.349148 0
M  V30 8882 C 845.047 4.57182 0.273636 0
M  V30 8883 N 846.538 4.62007 0.332206 0
M  V30 8884 C 847.273 5.72631 0.296782 0
M  V30 8885 N 846.769 6.92472 0.21322 0
M  V30 8886 N 848.562 5.61028 0.347053 0
M  V30 8887 H 840.713 1.93133 -0.883925 0
M  V30 8888 H 842.976 0.886151 -0.33681 0
M  V30 8889 H 842.682 3.45088 -0.67878 0
M  V30 8890 H 842.556 3.61901 1.06335 0
M  V30 8891 H 844.943 2.65364 1.29097 0
M  V30 8892 H 845.024 2.51425 -0.471085 0
M  V30 8893 H 844.668 5.03534 -0.664548 0
M  V30 8894 H 844.598 5.14724 1.11207 0
M  V30 8895 H 847.089 3.75788 0.399003 0
M  V30 8896 H 847.402 7.72563 0.191492 0
M  V30 8897 H 845.747 6.94769 0.179161 0
M  V30 8898 H 848.938 4.66298 0.410378 0
M  V30 8899 H 849.111 6.47229 0.315979 0
M  V30 8900 N 842.517 -0.29412 1.54831 0
M  V30 8901 C 843.464 -1.36296 1.86258 0
M  V30 8902 C 844.434 -1.50061 0.712097 0
M  V30 8903 O 845.619 -1.64809 0.961381 0
M  V30 8904 C 842.759 -2.72187 2.12151 0
M  V30 8905 C 841.872 -2.66816 3.39755 0
M  V30 8906 C 841.007 -3.94747 3.55455 0
M  V30 8907 C 840.046 -3.838 4.76827 0
M  V30 8908 N 839.183 -5.03521 4.89296 0
M  V30 8909 H 844.023 -1.08796 2.7743 0
M  V30 8910 H 841.56 -0.526069 1.37371 0
M  V30 8911 H 843.518 -3.51225 2.25159 0
M  V30 8912 H 842.148 -2.97934 1.24237 0
M  V30 8913 H 841.2 -1.79605 3.3533 0
M  V30 8914 H 842.512 -2.5462 4.28917 0
M  V30 8915 H 841.666 -4.82223 3.68166 0
M  V30 8916 H 840.405 -4.09785 2.64438 0
M  V30 8917 H 839.41 -2.94708 4.64141 0
M  V30 8918 H 840.635 -3.70301 5.69258 0
M  V30 8919 H 838.581 -5.1901 4.01204 0
M  V30 8920 H 838.498 -4.93775 5.72471 0
M  V30 8921 H 839.766 -5.92629 5.06371 0
M  V30 8922 N 843.995 -1.47404 -0.557645 0
M  V30 8923 C 845.406 -1.47872 -1.13977 0
M  V30 8924 C 845.757 -0.233176 -1.94809 0
M  V30 8925 O 844.882 0.661945 -2.06027 0
M  V30 8926 C 845.477 -2.67926 -2.07368 0
M  V30 8927 C 844.036 -2.71354 -2.60852 0
M  V30 8928 C 843.183 -2.40967 -1.37223 0
M  V30 8929 H 846.134 -1.54921 -0.344268 0
M  V30 8930 H 846.155 -2.44871 -2.91236 0
M  V30 8931 H 845.667 -3.58562 -1.48509 0
M  V30 8932 H 843.768 -1.84855 -3.23511 0
M  V30 8933 H 843.881 -3.72032 -3.01876 0
M  V30 8934 H 842.245 -1.91541 -1.67882 0
M  V30 8935 H 843.028 -3.33811 -0.801583 0
M  V30 8936 N 845.473 0.80434 -1.35529 0
M  V30 8937 C 846.42 1.91629 -1.28635 0
M  V30 8938 C 847.39 1.65348 -0.157862 0
M  V30 8939 O 848.575 1.87711 -0.341934 0
M  V30 8940 C 845.715 3.28207 -1.0665 0
M  V30 8941 C 844.828 3.66659 -2.28441 0
M  V30 8942 C 843.963 4.92279 -1.99588 0
M  V30 8943 C 843.002 5.23365 -3.1742 0
M  V30 8944 N 842.139 6.40165 -2.88328 0
M  V30 8945 H 846.979 1.96858 -2.23721 0
M  V30 8946 H 844.516 0.962871 -1.11208 0
M  V30 8947 H 846.474 4.06945 -0.919343 0
M  V30 8948 H 845.104 3.22441 -0.152253 0
M  V30 8949 H 844.156 2.83164 -2.54013 0
M  V30 8950 H 845.468 3.8559 -3.1642 0
M  V30 8951 H 844.622 5.78847 -1.81715 0
M  V30 8952 H 843.361 4.75387 -1.08896 0
M  V30 8953 H 842.366 4.35285 -3.35867 0
M  V30 8954 H 843.591 5.42185 -4.08916 0
M  V30 8955 H 841.537 6.24694 -2.00233 0
M  V30 8956 H 841.454 6.59357 -3.69843 0
M  V30 8957 H 842.722 7.29755 -2.74002 0
M  V30 8958 N 846.951 1.19563 1.02676 0
M  V30 8959 C 847.914 0.937182 2.09164 0
M  V30 8960 C 848.914 -0.0831927 1.60585 0
M  V30 8961 O 850.104 0.15178 1.73538 0
M  V30 8962 C 847.236 0.408912 3.38439 0
M  V30 8963 H 848.429 1.88164 2.33526 0
M  V30 8964 H 845.982 1.00959 1.19319 0
M  V30 8965 H 846.717 -0.541497 3.19747 0
M  V30 8966 H 846.502 1.14464 3.7502 0
M  V30 8967 H 847.992 0.247242 4.16867 0
M  V30 8968 N 848.429 -1.21819 0.999893 0
M  V30 8969 C 849.339 -2.27691 0.565159 0
M  V30 8970 C 850.355 -1.69587 -0.389398 0
M  V30 8971 O 851.531 -1.99786 -0.254499 0
M  V30 8972 C 848.596 -3.46537 -0.106432 0
M  V30 8973 C 847.657 -4.19932 0.891964 0
M  V30 8974 C 846.89 -5.33103 0.252327 0
M  V30 8975 O 847.113 -5.62398 -0.952103 0
M  V30 8976 O 846.047 -5.94184 0.960698 0
M  V30 8977 H 849.873 -2.67059 1.44613 0
M  V30 8978 H 847.458 -1.28119 0.768499 0
M  V30 8979 H 849.34 -4.18631 -0.482301 0
M  V30 8980 H 848.015 -3.09079 -0.961865 0
M  V30 8981 H 846.922 -3.5008 1.3189 0
M  V30 8982 H 848.255 -4.61287 1.71682 0
M  V30 8983 N 849.908 -0.773975 -1.37286 0
M  V30 8984 C 850.818 -0.162571 -2.34036 0
M  V30 8985 C 851.834 0.677022 -1.60289 0
M  V30 8986 O 853.01 0.596423 -1.92366 0
M  V30 8987 C 850.075 0.70457 -3.39465 0
M  V30 8988 C 849.136 -0.151738 -4.29032 0
M  V30 8989 C 848.369 0.674111 -5.29426 0
M  V30 8990 O 848.592 1.91107 -5.37433 0
M  V30 8991 O 847.526 0.0821398 -6.01844 0
M  V30 8992 H 851.352 -0.962119 -2.88057 0
M  V30 8993 H 848.937 -0.53517 -1.39486 0
M  V30 8994 H 850.819 1.19954 -4.03967 0
M  V30 8995 H 849.494 1.48227 -2.87768 0
M  V30 8996 H 848.401 -0.693118 -3.67623 0
M  V30 8997 H 849.734 -0.892575 -4.84039 0
M  V30 8998 N 851.386 1.48609 -0.524698 0
M  V30 8999 C 852.663 1.95454 0.075465 0
M  V30 9000 C 853.043 1.46682 1.51814 0
M  V30 9001 O 852.391 0.690975 2.17802 0
M  V30 9002 C 852.601 3.48981 -0.0363273 0
M  V30 9003 C 853.949 4.24414 0.125624 0
M  V30 9004 O 854.973 3.5618 0.0377239 0
M  V30 9005 O 853.832 5.45625 0.309104 0
M  V30 9006 H 850.926 0.822902 0.0822256 0
M  V30 9007 H 853.472 1.59153 -0.588921 0
M  V30 9008 H 852.244 3.77185 -1.04149 0
M  V30 9009 H 851.867 3.91963 0.667146 0
M  V30 9010 N 852.864 0.259585 1.55447 0
M  V30 9011 C 853.774 -0.645026 2.25558 0
M  V30 9012 C 854.79 -1.18291 1.27606 0
M  V30 9013 O 855.966 -1.21649 1.6051 0
M  V30 9014 C 853.031 -1.81964 2.9511 0
M  V30 9015 C 852.092 -1.31997 4.08504 0
M  V30 9016 C 851.325 -2.43861 4.74729 0
M  V30 9017 O 851.548 -3.62876 4.40088 0
M  V30 9018 O 850.482 -2.12898 5.6299 0
M  V30 9019 H 854.308 -0.0775399 3.03601 0
M  V30 9020 H 851.893 0.0275859 1.49375 0
M  V30 9021 H 853.775 -2.50485 3.38873 0
M  V30 9022 H 852.45 -2.37451 2.19997 0
M  V30 9023 H 851.357 -0.601676 3.6923 0
M  V30 9024 H 852.69 -0.811045 4.85472 0
M  V30 9025 N 854.342 -1.57594 -0.0133615 0
M  V30 9026 C 855.591 -1.8916 -0.700103 0
M  V30 9027 C 855.904 -0.860147 -1.75673 0
M  V30 9028 O 857.11 -1.06556 -2.49716 0
M  V30 9029 C 855.566 -3.35742 -1.29635 0
M  V30 9030 C 855.174 -4.47154 -0.275249 0
M  V30 9031 C 856.918 -3.76436 -1.96205 0
M  V30 9032 C 854.825 -5.84805 -0.880726 0
M  V30 9033 H 853.755 -0.705805 -0.265247 0
M  V30 9034 H 856.406 -1.83445 0.044993 0
M  V30 9035 H 854.788 -3.36252 -2.09167 0
M  V30 9036 H 855.962 -4.58139 0.494506 0
M  V30 9037 H 854.277 -4.15394 0.289256 0
M  V30 9038 H 856.874 -4.76606 -2.42386 0
M  V30 9039 H 857.217 -3.09249 -2.78695 0
M  V30 9040 H 857.75 -3.78168 -1.23426 0
M  V30 9041 H 854.489 -6.55431 -0.0949013 0
M  V30 9042 H 854.009 -5.7751 -1.61995 0
M  V30 9043 H 855.688 -6.32038 -1.38338 0
M  V30 9044 N 855.82 0.285905 -1.54985 0
M  V30 9045 C 856.75 1.35752 -1.89983 0
M  V30 9046 C 857.731 1.52163 -0.760295 0
M  V30 9047 O 858.916 1.65421 -1.01733 0
M  V30 9048 C 856.046 2.71925 -2.16042 0
M  V30 9049 C 855 2.70261 -3.31878 0
M  V30 9050 C 854.326 4.09864 -3.43388 0
M  V30 9051 C 855.626 2.30667 -4.68604 0
M  V30 9052 H 857.32 1.06709 -2.79738 0
M  V30 9053 H 854.866 0.511884 -1.34595 0
M  V30 9054 H 856.819 3.46992 -2.39113 0
M  V30 9055 H 855.543 3.02523 -1.23074 0
M  V30 9056 H 854.202 1.97651 -3.08755 0
M  V30 9057 H 853.85 4.37664 -2.47909 0
M  V30 9058 H 853.55 4.09648 -4.21262 0
M  V30 9059 H 855.074 4.86689 -3.68736 0
M  V30 9060 H 856.488 2.95453 -4.91305 0
M  V30 9061 H 854.885 2.41637 -5.49301 0
M  V30 9062 H 855.955 1.25793 -4.68299 0
M  V30 9063 N 857.298 1.47698 0.54982 0
M  V30 9064 C 858.246 1.61156 1.67724 0
M  V30 9065 C 859.24 0.478606 1.62498 0
M  V30 9066 O 860.446 0.656661 1.67595 0
M  V30 9067 H 856.821 0.507304 0.55511 0
M  V30 9068 H 858.792 2.55884 1.53512 0
M  V30 9069 C 857.541 1.64994 3.06059 0
M  V30 9070 H 856.864 2.51525 3.10765 0
M  V30 9071 H 858.304 1.78459 3.84615 0
M  V30 9072 C 856.763 0.384677 3.34697 0
M  V30 9073 O 857.293 -0.511057 3.98436 0
M  V30 9074 N 855.499 0.262434 2.89413 0
M  V30 9075 H 855.046 0.99229 2.37721 0
M  V30 9076 H 855.004 -0.583177 3.08944 0
M  V30 9077 N 858.776 -0.797141 1.35954 0
M  V30 9078 C 860.192 -1.09408 1.16198 0
M  V30 9079 C 860.392 -2.01491 -0.0191682 0
M  V30 9080 O 859.448 -2.42977 -0.686902 0
M  V30 9081 C 860.761 -1.71597 2.46931 0
M  V30 9082 C 862.309 -1.83974 2.53224 0
M  V30 9083 C 862.784 -2.49579 3.84024 0
M  V30 9084 N 864.275 -2.57055 3.85327 0
M  V30 9085 C 865.01 -3.08608 4.83268 0
M  V30 9086 N 864.506 -3.60527 5.91601 0
M  V30 9087 N 866.299 -3.07249 4.70696 0
M  V30 9088 H 858.45 -0.185209 2.11591 0
M  V30 9089 H 860.713 -0.144768 0.936881 0
M  V30 9090 H 860.419 -1.11404 3.3359 0
M  V30 9091 H 860.293 -2.71193 2.62172 0
M  V30 9092 H 862.68 -2.43308 1.66988 0
M  V30 9093 H 862.761 -0.83207 2.41889 0
M  V30 9094 H 862.405 -1.90892 4.70662 0
M  V30 9095 H 862.335 -3.50902 3.92651 0
M  V30 9096 H 864.826 -2.20283 3.07057 0
M  V30 9097 H 865.139 -3.98192 6.62317 0
M  V30 9098 H 863.484 -3.587 5.95281 0
M  V30 9099 H 866.675 -2.65972 3.85197 0
M  V30 9100 H 866.848 -3.47119 5.47186 0
M  V30 9101 N 860.254 -1.20106 -1.0204 0
M  V30 9102 C 861.479 -1.0351 -1.79723 0
M  V30 9103 C 861.904 0.411328 -1.83548 0
M  V30 9104 O 861.262 1.29608 -1.26773 0
M  V30 9105 C 861.31 -1.61876 -3.22224 0
M  V30 9106 O 860.414 -0.853813 -4.03465 0
M  V30 9107 H 859.755 -0.365299 -0.554484 0
M  V30 9108 H 862.285 -1.59316 -1.28373 0
M  V30 9109 H 862.295 -1.65451 -3.72948 0
M  V30 9110 H 860.97 -2.67148 -3.18755 0
M  V30 9111 H 859.547 -0.891983 -3.62075 0
M  V30 9112 N 861.732 1.21287 -1.00634 0
M  V30 9113 C 863.143 1.72136 -0.722914 0
M  V30 9114 C 863.494 1.8091 0.759338 0
M  V30 9115 O 862.619 1.46458 1.59308 0
M  V30 9116 C 863.214 3.12633 -1.30561 0
M  V30 9117 C 861.773 3.60833 -1.07127 0
M  V30 9118 C 860.92 2.38326 -1.4176 0
M  V30 9119 H 863.871 1.06445 -1.17708 0
M  V30 9120 H 863.892 3.74174 -0.690937 0
M  V30 9121 H 863.404 3.06215 -2.38441 0
M  V30 9122 H 861.505 3.72599 -0.00968671 0
M  V30 9123 H 861.618 4.46226 -1.74411 0
M  V30 9124 H 859.982 2.40575 -0.836412 0
M  V30 9125 H 860.765 2.34558 -2.50674 0
M  V30 9126 N 863.21 0.781244 1.36873 0
M  V30 9127 C 864.626 0.461968 1.52768 0
M  V30 9128 C 864.826 -1.02099 1.73719 0
M  V30 9129 O 863.882 -1.80665 1.76399 0
M  V30 9130 C 865.195 1.2853 2.71846 0
M  V30 9131 C 866.743 1.27817 2.85713 0
M  V30 9132 C 867.218 2.08506 4.07786 0
M  V30 9133 N 868.709 2.05909 4.14917 0
M  V30 9134 C 869.444 2.65118 5.08429 0
M  V30 9135 N 868.94 3.33152 6.07438 0
M  V30 9136 N 870.733 2.54896 5.00983 0
M  V30 9137 H 862.884 1.74198 1.21527 0
M  V30 9138 H 865.147 0.740027 0.592506 0
M  V30 9139 H 864.853 2.3366 2.62861 0
M  V30 9140 H 864.727 0.920981 3.65784 0
M  V30 9141 H 867.114 0.234817 2.94164 0
M  V30 9142 H 867.195 1.68219 1.92707 0
M  V30 9143 H 866.839 3.12867 4.00096 0
M  V30 9144 H 866.769 1.65479 4.99924 0
M  V30 9145 H 869.26 1.56386 3.44023 0
M  V30 9146 H 869.573 3.75681 6.75339 0
M  V30 9147 H 867.918 3.37253 6.07689 0
M  V30 9148 H 871.109 2.01352 4.22581 0
M  V30 9149 H 871.282 3.01332 5.73675 0
M  V30 9150 N 864.689 -1.48329 0.532571 0
M  V30 9151 C 865.637 -2.31336 -0.242133 0
M  V30 9152 C 866.631 -1.41391 -0.933006 0
M  V30 9153 O 867.837 -1.58284 -0.857096 0
M  V30 9154 H 864.212 -0.745724 -0.0969536 0
M  V30 9155 H 866.183 -2.94555 0.477504 0
M  V30 9156 C 864.932 -3.23501 -1.27446 0
M  V30 9157 H 864.255 -3.92659 -0.752261 0
M  V30 9158 H 865.695 -3.84461 -1.78789 0
M  V30 9159 C 864.154 -2.45288 -2.30944 0
M  V30 9160 O 864.684 -2.17955 -3.37429 0
M  V30 9161 N 862.89 -2.06737 -2.04226 0
M  V30 9162 H 862.437 -2.29166 -1.17647 0
M  V30 9163 H 862.395 -1.54719 -2.73696 0
M  V30 9164 N 866.167 -0.267825 -1.55308 0
M  V30 9165 C 867.583 0.0865107 -1.59365 0
M  V30 9166 C 867.783 1.55205 -1.28505 0
M  V30 9167 O 866.839 2.29978 -1.04241 0
M  V30 9168 C 868.152 -0.28155 -2.99379 0
M  V30 9169 C 869.7 -0.227565 -3.12172 0
M  V30 9170 C 870.175 -0.569959 -4.5444 0
M  V30 9171 N 871.666 -0.521238 -4.60258 0
M  V30 9172 C 872.401 -0.759061 -5.68354 0
M  V30 9173 N 871.897 -1.06112 -6.84626 0
M  V30 9174 N 873.69 -0.688351 -5.57869 0
M  V30 9175 H 865.841 -1.22332 -1.73633 0
M  V30 9176 H 868.104 -0.493703 -0.809297 0
M  V30 9177 H 867.81 -1.3005 -3.26772 0
M  V30 9178 H 867.684 0.381192 -3.75269 0
M  V30 9179 H 870.071 0.782093 -2.84548 0
M  V30 9180 H 870.152 -0.924461 -2.38511 0
M  V30 9181 H 869.796 -1.57727 -4.82788 0
M  V30 9182 H 869.726 0.148646 -5.2639 0
M  V30 9183 H 872.217 -0.297359 -3.76728 0
M  V30 9184 H 872.53 -1.22945 -7.62958 0
M  V30 9185 H 870.875 -1.09881 -6.86259 0
M  V30 9186 H 874.066 -0.452268 -4.6591 0
M  V30 9187 H 874.239 -0.877081 -6.42037 0
M  V30 9188 N 867.645 1.57599 0.00500368 0
M  V30 9189 C 868.592 2.08106 0.998025 0
M  V30 9190 C 869.562 0.975374 1.34446 0
M  V30 9191 O 870.747 1.24749 1.44369 0
M  V30 9192 C 867.887 2.58496 2.28635 0
M  V30 9193 C 867 3.82947 1.99939 0
M  V30 9194 C 866.135 4.21857 3.22816 0
M  V30 9195 C 865.174 5.39159 2.89783 0
M  V30 9196 N 864.311 5.73386 4.05183 0
M  V30 9197 H 869.151 2.92684 0.560385 0
M  V30 9198 H 866.688 1.44692 0.265053 0
M  V30 9199 H 868.646 2.85787 3.03943 0
M  V30 9200 H 867.276 1.768 2.70077 0
M  V30 9201 H 866.328 3.62594 1.1502 0
M  V30 9202 H 867.64 4.68358 1.71588 0
M  V30 9203 H 866.794 4.50404 4.06474 0
M  V30 9204 H 865.533 3.35145 3.54301 0
M  V30 9205 H 864.538 5.1034 2.04532 0
M  V30 9206 H 865.763 6.27543 2.59551 0
M  V30 9207 H 863.709 4.89632 4.36574 0
M  V30 9208 H 863.626 6.53359 3.80339 0
M  V30 9209 H 864.894 6.06522 4.89644 0
M  V30 9210 N 869.123 -0.277682 1.55134 0
M  V30 9211 C 870.534 -0.849063 1.66276 0
M  V30 9212 C 870.885 -1.87223 0.5867 0
M  V30 9213 O 870.01 -2.14676 -0.272635 0
M  V30 9214 C 870.605 -1.54681 3.01429 0
M  V30 9215 C 869.164 -2.06628 3.14614 0
M  V30 9216 C 868.311 -0.906748 2.62056 0
M  V30 9217 H 871.262 -0.0541357 1.58608 0
M  V30 9218 H 871.283 -2.41356 2.94156 0
M  V30 9219 H 870.795 -0.80189 3.79725 0
M  V30 9220 H 868.896 -2.84095 2.41082 0
M  V30 9221 H 869.009 -2.2848 4.2111 0
M  V30 9222 H 867.373 -1.29882 2.19095 0
M  V30 9223 H 868.156 -0.175414 3.42852 0
M  V30 9224 N 870.601 -1.47988 -0.541979 0
M  V30 9225 C 872.017 -1.33843 -0.869383 0
M  V30 9226 C 872.217 -0.340374 -1.98604 0
M  V30 9227 O 871.273 0.242696 -2.51331 0
M  V30 9228 C 872.586 -2.73568 -1.24823 0
M  V30 9229 C 874.134 -2.81967 -1.3588 0
M  V30 9230 C 874.609 -4.22368 -1.77114 0
M  V30 9231 N 876.1 -4.24983 -1.84237 0
M  V30 9232 C 876.835 -5.30547 -2.17503 0
M  V30 9233 N 876.331 -6.46401 -2.49275 0
M  V30 9234 N 878.124 -5.17933 -2.18406 0
M  V30 9235 H 870.275 -2.11503 0.195001 0
M  V30 9236 H 872.538 -0.947681 0.0245862 0
M  V30 9237 H 872.244 -3.48107 -0.501435 0
M  V30 9238 H 872.118 -3.06322 -2.20106 0
M  V30 9239 H 874.505 -2.07692 -2.09638 0
M  V30 9240 H 874.586 -2.52848 -0.387478 0
M  V30 9241 H 874.23 -4.97155 -1.0392 0
M  V30 9242 H 874.16 -4.48922 -2.75275 0
M  V30 9243 H 876.651 -3.41411 -1.62009 0
M  V30 9244 H 876.964 -7.22698 -2.73729 0
M  V30 9245 H 875.309 -6.49696 -2.46821 0
M  V30 9246 H 878.5 -4.26445 -1.93034 0
M  V30 9247 H 878.673 -6.00307 -2.44 0
M  V30 9248 N 872.079 0.78992 -1.36375 0
M  V30 9249 C 873.495 1.0879 -1.16777 0
M  V30 9250 C 873.695 2.01498 0.00848236 0
M  V30 9251 O 872.751 2.43338 0.674007 0
M  V30 9252 C 874.064 1.70285 -2.47837 0
M  V30 9253 C 875.612 1.82629 -2.54196 0
M  V30 9254 C 876.087 2.47539 -3.85342 0
M  V30 9255 N 877.578 2.55008 -3.86685 0
M  V30 9256 C 878.313 3.06041 -4.84898 0
M  V30 9257 N 877.809 3.57385 -5.93505 0
M  V30 9258 N 879.602 3.04748 -4.72319 0
M  V30 9259 H 871.753 0.173985 -2.11686 0
M  V30 9260 H 874.016 0.139798 -0.937636 0
M  V30 9261 H 873.722 1.09633 -3.34176 0
M  V30 9262 H 873.596 2.69799 -2.63607 0
M  V30 9263 H 875.983 2.42419 -1.68276 0
M  V30 9264 H 876.064 0.81923 -2.42327 0
M  V30 9265 H 875.708 1.88393 -4.71668 0
M  V30 9266 H 875.638 3.48815 -3.94507 0
M  V30 9267 H 878.129 2.18651 -3.08221 0
M  V30 9268 H 878.442 3.94674 -6.64419 0
M  V30 9269 H 876.787 3.55538 -5.97175 0
M  V30 9270 H 879.978 2.63925 -3.86602 0
M  V30 9271 H 880.151 3.44212 -5.49019 0
M  V30 9272 N 873.557 1.20646 1.01402 0
M  V30 9273 C 874.467 0.973385 2.13453 0
M  V30 9274 C 875.483 -0.0715865 1.73853 0
M  V30 9275 O 876.659 0.116438 2.01063 0
M  V30 9276 C 873.724 0.531285 3.42605 0
M  V30 9277 C 872.785 1.64741 3.96433 0
M  V30 9278 C 872.018 1.22631 5.1942 0
M  V30 9279 O 872.241 0.0960891 5.70319 0
M  V30 9280 O 871.175 2.03474 5.66465 0
M  V30 9281 H 875.001 1.91164 2.35987 0
M  V30 9282 H 872.586 0.990553 1.11841 0
M  V30 9283 H 874.468 0.294095 4.20373 0
M  V30 9284 H 873.143 -0.378358 3.21481 0
M  V30 9285 H 872.05 1.93891 3.19933 0
M  V30 9286 H 873.383 2.53415 4.2195 0
M  V30 9287 O 875.074 -1.14398 1.13997 0
M  V30 9288 H 875.765 -1.73596 0.859308 0
M  V30 END ATOM
M  V30 BEGIN BOND
M  V30 END BOND
M  V30 END CTAB
M  END
$$$$
