drugbank_target|P27907 Neuraminidase (DB00558; DB06614)
 OpenBabel12092120343D

  0  0  0     0  0            999 V3000
M  V30 BEGIN CTAB
M  V30 COUNTS 7138 7220 0 0 0
M  V30 BEGIN ATOM
M  V30 1 H -0.908 1.98254 -0.117106 0
M  V30 2 N 0 1.576 0 0
M  V30 3 C 0.933 2.03868 1.02534 0
M  V30 4 C 1.911 0.928543 1.3348 0
M  V30 5 O 3.095 1.19667 1.45644 0
M  V30 6 C 0.222 2.43627 2.35294 0
M  V30 7 C -0.732 3.65373 2.2001 0
M  V30 8 S 0.101 5.13292 1.52614 0
M  V30 9 C 1.257 5.56322 2.86805 0
M  V30 10 H 1.49 2.90518 0.631377 0
M  V30 11 H -0.977 1.52953 0.210867 0
M  V30 12 H 0.981 2.67203 3.11629 0
M  V30 13 H -0.358 1.57376 2.7183 0
M  V30 14 H -1.165 3.90944 3.18086 0
M  V30 15 H -1.563 3.418 1.51819 0
M  V30 16 H 0.729 5.58782 3.83104 0
M  V30 17 H 1.672 6.56266 2.65933 0
M  V30 18 H 2.08 4.83886 2.90714 0
M  V30 19 N 1.4781 -0.272755 1.55222 0
M  V30 20 C 2.4081 -1.34136 1.91127 0
M  V30 21 C 3.3891 -1.51513 0.773168 0
M  V30 22 O 4.5741 -1.64552 1.03132 0
M  V30 23 C 1.7041 -2.70083 2.1834 0
M  V30 24 C 0.6581 -2.67437 3.34158 0
M  V30 25 C -0.0159 -4.06938 3.46851 0
M  V30 26 C 1.2841 -2.26686 4.70543 0
M  V30 27 H 2.9781 -1.04333 2.80633 0
M  V30 28 H 0.5241 -0.500454 1.35024 0
M  V30 29 H 2.4771 -3.44952 2.42046 0
M  V30 30 H 1.2011 -3.01469 1.25634 0
M  V30 31 H -0.1399 -1.95026 3.1042 0
M  V30 32 H -0.4919 -4.35547 2.51611 0
M  V30 33 H -0.7919 -4.06062 4.2472 0
M  V30 34 H 0.7321 -4.83545 3.72849 0
M  V30 35 H 2.1461 -2.91277 4.93792 0
M  V30 36 H 0.5431 -2.36971 5.5133 0
M  V30 37 H 1.6131 -1.21818 4.69349 0
M  V30 38 N 2.9562 -1.48159 -0.537278 0
M  V30 39 C 4.3672 -1.49429 -1.11928 0
M  V30 40 C 4.7182 -0.26 -1.9447 0
M  V30 41 O 3.8432 0.633489 -2.0692 0
M  V30 42 C 4.4382 -2.70758 -2.03656 0
M  V30 43 C 2.9972 -2.74923 -2.57088 0
M  V30 44 C 2.1442 -2.42835 -1.3389 0
M  V30 45 H 5.0952 -1.55381 -0.322886 0
M  V30 46 H 5.1162 -2.48861 -2.87834 0
M  V30 47 H 4.6282 -3.60575 -1.43553 0
M  V30 48 H 2.7292 -1.89296 -3.20933 0
M  V30 49 H 2.8422 -3.76157 -2.9672 0
M  V30 50 H 1.2062 -1.93836 -1.65226 0
M  V30 51 H 1.9892 -3.34884 -0.755504 0
M  V30 52 N 4.4343 0.785586 -1.36625 0
M  V30 53 C 5.6593 1.57963 -1.34397 0
M  V30 54 C 6.0843 1.87964 0.071526 0
M  V30 55 O 5.4423 1.48182 1.0446 0
M  V30 56 C 5.4903 2.87511 -2.17646 0
M  V30 57 O 4.5943 3.81281 -1.57158 0
M  V30 58 H 3.9353 0.479014 -0.459828 0
M  V30 59 H 6.4653 0.973411 -1.79961 0
M  V30 60 H 6.4753 3.36745 -2.30362 0
M  V30 61 H 5.1503 2.65002 -3.20541 0
M  V30 62 H 3.7273 3.39885 -1.53403 0
M  V30 63 N 5.9124 1.20967 1.01018 0
M  V30 64 C 7.1404 1.04956 1.78303 0
M  V30 65 C 7.5554 -0.400915 1.84494 0
M  V30 66 O 6.9124 -1.27826 1.30257 0
M  V30 67 C 6.9634 1.63403 3.22462 0
M  V30 68 O 6.6844 3.02775 3.16637 0
M  V30 69 C 8.1854 1.52432 4.16268 0
M  V30 70 H 5.4054 0.368858 0.560522 0
M  V30 71 H 7.9494 1.60193 1.27116 0
M  V30 72 H 6.1044 1.1227 3.70775 0
M  V30 73 H 6.5184 3.30626 4.07169 0
M  V30 74 H 7.9924 1.98078 5.15237 0
M  V30 75 H 8.4694 0.477875 4.36592 0
M  V30 76 H 9.0754 2.02787 3.73841 0
M  V30 77 N 7.3905 -1.2043 1.01659 0
M  V30 78 C 8.6395 -1.89118 0.701237 0
M  V30 79 C 8.9525 -1.79705 -0.772358 0
M  V30 80 O 10.1585 -2.43528 -1.20026 0
M  V30 81 C 8.6145 -3.39168 1.20388 0
M  V30 82 C 8.2225 -3.57166 2.70438 0
M  V30 83 C 9.9665 -4.1341 0.963953 0
M  V30 84 C 7.8735 -5.01042 3.14183 0
M  V30 85 H 6.8035 -0.708267 0.2586 0
M  V30 86 H 9.4545 -1.36239 1.22927 0
M  V30 87 H 7.8365 -3.91369 0.603824 0
M  V30 88 H 9.0105 -3.15351 3.35992 0
M  V30 89 H 7.3255 -2.96294 2.92572 0
M  V30 90 H 9.9225 -5.19491 1.26621 0
M  V30 91 H 10.2655 -4.16181 -0.099578 0
M  V30 92 H 10.7985 -3.67309 1.52738 0
M  V30 93 H 7.5375 -5.03426 4.19812 0
M  V30 94 H 7.0575 -5.43668 2.53348 0
M  V30 95 H 8.7365 -5.69623 3.0682 0
M  V30 96 N 8.8686 -0.792821 -1.36206 0
M  V30 97 C 9.8006 -0.151469 -2.28699 0
M  V30 98 C 10.8136 0.641262 -1.49638 0
M  V30 99 O 12.0026 0.475885 -1.72039 0
M  V30 100 C 9.1026 0.808424 -3.29117 0
M  V30 101 C 8.2756 0.0650202 -4.37352 0
M  V30 102 C 7.3346 0.941358 -5.17711 0
M  V30 103 O 6.3606 0.397352 -5.67811 0
M  V30 104 N 7.5626 2.2652 -5.3448 0
M  V30 105 H 10.3276 -0.945982 -2.84379 0
M  V30 106 H 7.8886 -0.647032 -1.48409 0
M  V30 107 H 9.8806 1.3986 -3.79765 0
M  V30 108 H 8.4506 1.5038 -2.74052 0
M  V30 109 H 7.6706 -0.706255 -3.87822 0
M  V30 110 H 8.9586 -0.447847 -5.06825 0
M  V30 111 H 8.3566 2.73128 -4.95396 0
M  V30 112 H 6.9136 2.80493 -5.88359 0
M  V30 113 N 10.3467 1.47872 -0.545128 0
M  V30 114 C 11.5747 2.06889 -0.021084 0
M  V30 115 C 11.9897 1.39955 1.2672 0
M  V30 116 O 11.3467 0.492036 1.75742 0
M  V30 117 C 11.3977 3.60996 0.190817 0
M  V30 118 O 11.1187 4.25419 -1.04644 0
M  V30 119 C 12.6197 4.36849 0.753521 0
M  V30 120 H 9.8397 0.669785 -0.0403635 0
M  V30 121 H 12.3837 1.90049 -0.755095 0
M  V30 122 H 10.5387 3.77391 0.87492 0
M  V30 123 H 10.9527 5.17785 -0.836611 0
M  V30 124 H 12.4267 5.45399 0.851139 0
M  V30 125 H 12.9037 4.02306 1.762 0
M  V30 126 H 13.5097 4.25169 0.105503 0
M  V30 127 N 11.8248 0.280983 1.55075 0
M  V30 128 C 12.7548 -0.597469 2.25727 0
M  V30 129 C 13.7358 -1.15417 1.24952 0
M  V30 130 O 14.9208 -1.18722 1.53684 0
M  V30 131 C 12.0508 -1.7789 2.98283 0
M  V30 132 C 11.0048 -1.35347 4.06036 0
M  V30 133 C 10.3308 -2.61846 4.66198 0
M  V30 134 C 11.6308 -0.499354 5.19907 0
M  V30 135 H 13.3248 -0.00824265 2.99399 0
M  V30 136 H 10.8708 -0.0025244 1.44 0
M  V30 137 H 12.8238 -2.39937 3.46422 0
M  V30 138 H 11.5478 -2.39405 2.22155 0
M  V30 139 H 10.2068 -0.756156 3.58717 0
M  V30 140 H 9.8548 -3.21632 3.86732 0
M  V30 141 H 9.5548 -2.3409 5.38958 0
M  V30 142 H 11.0788 -3.24732 5.1709 0
M  V30 143 H 12.4928 -1.02498 5.64063 0
M  V30 144 H 10.8898 -0.316424 5.99265 0
M  V30 145 H 11.9598 0.480459 4.82514 0
M  V30 146 N 13.3029 -1.57598 0.00835791 0
M  V30 147 C 14.5309 -1.95214 -0.68549 0
M  V30 148 C 14.9459 -0.883706 -1.66841 0
M  V30 149 O 14.3029 0.136565 -1.81988 0
M  V30 150 C 14.3539 -3.32865 -1.41007 0
M  V30 151 O 14.0749 -4.35609 -0.466552 0
M  V30 152 C 15.5759 -3.84991 -2.19765 0
M  V30 153 H 12.7959 -0.643422 -0.190392 0
M  V30 154 H 15.3399 -2.04406 0.0619607 0
M  V30 155 H 13.4949 -3.24956 -2.10908 0
M  V30 156 H 13.9089 -5.15288 -0.978699 0
M  V30 157 H 15.3829 -4.8371 -2.65948 0
M  V30 158 H 15.8599 -3.18137 -3.02796 0
M  V30 159 H 16.4659 -3.96103 -1.54864 0
M  V30 160 N 14.781 0.264519 -1.55364 0
M  V30 161 C 15.711 1.33121 -1.91836 0
M  V30 162 C 16.692 1.51101 -0.781192 0
M  V30 163 O 17.877 1.64003 -1.04003 0
M  V30 164 C 15.007 2.68921 -2.19769 0
M  V30 165 C 13.961 2.65661 -3.35571 0
M  V30 166 C 13.287 4.05093 -3.49004 0
M  V30 167 C 14.587 2.24187 -4.71739 0
M  V30 168 H 16.281 1.02844 -2.81182 0
M  V30 169 H 13.827 0.493286 -1.35287 0
M  V30 170 H 15.78 3.43663 -2.43872 0
M  V30 171 H 14.504 3.00799 -1.27231 0
M  V30 172 H 13.163 1.93377 -3.1145 0
M  V30 173 H 12.811 4.34206 -2.53917 0
M  V30 174 H 12.511 4.03804 -4.26868 0
M  V30 175 H 14.035 4.81561 -3.75408 0
M  V30 176 H 15.449 2.88654 -4.9533 0
M  V30 177 H 13.846 2.34044 -5.52579 0
M  V30 178 H 14.916 1.19327 -4.69988 0
M  V30 179 N 16.2591 1.48442 0.529413 0
M  V30 180 C 17.5061 1.56488 1.28521 0
M  V30 181 C 17.8341 0.239042 1.93025 0
M  V30 182 O 17.0891 -0.770713 1.79885 0
M  V30 183 C 17.3881 2.6523 2.39558 0
M  V30 184 C 17.0541 4.07648 1.92702 0
M  V30 185 C 15.7161 4.46411 1.79641 0
M  V30 186 C 18.0681 4.96896 1.573 0
M  V30 187 C 15.3961 5.72226 1.29514 0
M  V30 188 C 17.7481 6.23202 1.08636 0
M  V30 189 C 16.4121 6.60821 0.941919 0
M  V30 190 H 15.6821 0.572631 0.470292 0
M  V30 191 H 18.3291 1.82161 0.59072 0
M  V30 192 H 16.6341 2.33419 3.14679 0
M  V30 193 H 18.3311 2.68671 2.97686 0
M  V30 194 H 14.9211 3.77036 2.03819 0
M  V30 195 H 19.1051 4.67626 1.66251 0
M  V30 196 H 14.3611 6.00097 1.17019 0
M  V30 197 H 18.5351 6.91753 0.803136 0
M  V30 198 H 16.1621 7.58198 0.5513 0
M  V30 199 N 17.7372 -0.778329 1.37039 0
M  V30 200 C 18.6672 -1.90546 1.34962 0
M  V30 201 C 19.6482 -1.68681 0.219274 0
M  V30 202 O 20.8332 -1.89634 0.418624 0
M  V30 203 C 17.9632 -3.27734 1.14925 0
M  V30 204 C 16.9172 -3.64147 2.24902 0
M  V30 205 C 16.2432 -4.99806 1.89996 0
M  V30 206 C 17.5432 -3.71579 3.67051 0
M  V30 207 H 19.2372 -1.92541 2.29277 0
M  V30 208 H 16.7832 -0.924948 1.10366 0
M  V30 209 H 18.7362 -4.06215 1.12104 0
M  V30 210 H 17.4602 -3.26154 0.170631 0
M  V30 211 H 16.1192 -2.8797 2.26868 0
M  V30 212 H 15.7672 -4.94759 0.906796 0
M  V30 213 H 15.4672 -5.25139 2.63634 0
M  V30 214 H 16.9912 -5.80694 1.88749 0
M  V30 215 H 18.4052 -4.40227 3.67251 0
M  V30 216 H 16.8022 -4.08405 4.39688 0
M  V30 217 H 17.8722 -2.72404 4.01154 0
M  V30 218 N 19.2153 -1.21501 -1.00376 0
M  V30 219 C 20.4433 -1.059 -1.77744 0
M  V30 220 C 20.8583 0.391125 -1.84704 0
M  V30 221 O 20.2153 1.27133 -1.30933 0
M  V30 222 C 20.2663 -1.65111 -3.21591 0
M  V30 223 O 19.9873 -3.0445 -3.15027 0
M  V30 224 C 21.4883 -1.54637 -4.15454 0
M  V30 225 H 18.7083 -0.371825 -0.558558 0
M  V30 226 H 21.2523 -1.60865 -1.26264 0
M  V30 227 H 19.4073 -1.14235 -3.70175 0
M  V30 228 H 19.8213 -3.3278 -4.0541 0
M  V30 229 H 21.2953 -2.00808 -5.14179 0
M  V30 230 H 21.7723 -0.501022 -4.36333 0
M  V30 231 H 22.3783 -2.04767 -3.72761 0
M  V30 232 N 20.6934 1.19889 -1.02296 0
M  V30 233 C 21.9184 1.9393 -0.735237 0
M  V30 234 C 22.3434 1.74639 0.698782 0
M  V30 235 O 21.7014 1.04481 1.48167 0
M  V30 236 C 21.7494 3.43916 -1.08417 0
M  V30 237 O 20.8534 4.11917 -0.199446 0
M  V30 238 H 20.1944 0.605645 -0.272196 0
M  V30 239 H 22.7244 1.52137 -1.36804 0
M  V30 240 H 22.7344 3.9456 -1.03856 0
M  V30 241 H 21.4094 3.5728 -2.12894 0
M  V30 242 H 19.9864 3.71666 -0.303136 0
M  V30 243 N 22.1715 0.800033 1.35784 0
M  V30 244 C 23.4195 0.376597 1.9856 0
M  V30 245 C 23.7405 -1.05812 1.63795 0
M  V30 246 O 23.0105 -1.73103 0.917171 0
M  V30 247 H 21.5905 0.136261 0.734467 0
M  V30 248 H 24.2525 1.02442 1.65806 0
M  V30 249 H 23.3485 0.477002 3.08433 0
M  V30 250 N 23.6496 -1.47581 0.552962 0
M  V30 251 C 24.8976 -2.02082 0.0272703 0
M  V30 252 C 25.2186 -1.4301 -1.32563 0
M  V30 253 O 24.4886 -0.603745 -1.86365 0
M  V30 254 H 23.0686 -0.746966 0.00709182 0
M  V30 255 H 25.7306 -1.81033 0.722008 0
M  V30 256 H 24.8266 -3.12034 -0.0639951 0
M  V30 257 N 25.1277 -0.289203 -1.54924 0
M  V30 258 C 26.3737 0.323998 -2.00195 0
M  V30 259 C 26.7067 1.54441 -1.17735 0
M  V30 260 O 25.9817 1.92875 -0.250878 0
M  V30 261 C 26.2647 0.692276 -3.53383 0
M  V30 262 C 26.1177 -0.536457 -4.46589 0
M  V30 263 C 27.4367 1.52335 -4.12895 0
M  V30 264 H 24.5557 0.116289 -0.727768 0
M  V30 265 H 27.1977 -0.398954 -1.85764 0
M  V30 266 H 25.3477 1.30822 -3.65811 0
M  V30 267 H 27.0197 -1.17499 -4.46085 0
M  V30 268 H 25.2627 -1.17192 -4.1767 0
M  V30 269 H 25.9337 -0.234806 -5.515 0
M  V30 270 H 28.4097 1.00302 -4.0383 0
M  V30 271 H 27.2857 1.74982 -5.20262 0
M  V30 272 H 27.5467 2.50886 -3.64018 0
M  V30 273 N 26.6058 1.57591 -0.0167156 0
M  V30 274 C 27.5358 2.12496 0.967858 0
M  V30 275 C 28.5168 1.03807 1.34752 0
M  V30 276 O 29.7018 1.31577 1.42833 0
M  V30 277 C 26.8318 2.64194 2.25431 0
M  V30 278 C 25.7858 3.77559 2.01576 0
M  V30 279 C 25.1118 4.15636 3.36379 0
M  V30 280 C 26.4118 5.04151 1.36489 0
M  V30 281 H 28.1058 2.95013 0.510643 0
M  V30 282 H 25.6518 1.41915 0.244181 0
M  V30 283 H 27.6048 3.01236 2.94678 0
M  V30 284 H 26.3288 1.78821 2.73296 0
M  V30 285 H 24.9878 3.40937 1.34751 0
M  V30 286 H 24.6358 3.27263 3.81979 0
M  V30 287 H 24.3358 4.92022 3.21229 0
M  V30 288 H 25.8598 4.5525 4.06915 0
M  V30 289 H 27.2738 5.38857 1.95718 0
M  V30 290 H 25.6708 5.85453 1.31776 0
M  V30 291 H 26.7408 4.83733 0.336219 0
M  V30 292 N 28.0839 -0.256276 1.55502 0
M  V30 293 C 29.0139 -1.32102 1.92539 0
M  V30 294 C 29.9949 -1.50684 0.789194 0
M  V30 295 O 31.1799 -1.63449 1.04872 0
M  V30 296 C 28.3099 -2.67752 2.21192 0
M  V30 297 C 27.2639 -2.63878 3.36975 0
M  V30 298 C 26.5899 -4.03236 3.51147 0
M  V30 299 C 27.8899 -2.21682 4.72921 0
M  V30 300 H 29.5839 -1.01351 2.81724 0
M  V30 301 H 27.1299 -0.486105 1.35547 0
M  V30 302 H 29.0829 -3.42365 2.45691 0
M  V30 303 H 27.8069 -3.0012 1.28824 0
M  V30 304 H 26.4659 -1.91722 3.12471 0
M  V30 305 H 26.1139 -4.32854 2.56216 0
M  V30 306 H 25.8139 -4.01535 4.29003 0
M  V30 307 H 27.3379 -4.79563 3.77957 0
M  V30 308 H 28.7519 -2.86023 4.96854 0
M  V30 309 H 27.1489 -2.3111 5.53812 0
M  V30 310 H 28.2189 -1.16833 4.70615 0
M  V30 311 N 29.562 -1.4872 -0.521534 0
M  V30 312 C 30.787 -1.61101 -1.30618 0
M  V30 313 C 31.212 -0.274611 -1.86085 0
M  V30 314 O 30.57 0.754937 -1.64834 0
M  V30 315 C 30.618 -2.66709 -2.4269 0
M  V30 316 O 29.722 -2.24456 -3.45967 0
M  V30 317 H 29.063 -0.539921 -0.386499 0
M  V30 318 H 31.593 -1.94767 -0.626645 0
M  V30 319 H 31.603 -2.88245 -2.88754 0
M  V30 320 H 30.278 -3.63727 -2.01682 0
M  V30 321 H 28.855 -2.13168 -3.05964 0
M  V30 322 N 31.0401 0.771051 -1.3745 0
M  V30 323 C 31.9701 1.89827 -1.3597 0
M  V30 324 C 32.9511 1.68562 -0.228216 0
M  V30 325 O 34.1361 1.8941 -0.428675 0
M  V30 326 C 31.2661 3.2712 -1.16662 0
M  V30 327 C 30.2201 3.6295 -2.2683 0
M  V30 328 C 29.5461 4.98791 -1.92644 0
M  V30 329 C 30.8461 3.69627 -3.69017 0
M  V30 330 H 32.5401 1.91323 -2.30295 0
M  V30 331 H 30.0861 0.919082 -1.10855 0
M  V30 332 H 32.0391 4.05615 -1.14256 0
M  V30 333 H 30.7631 3.26059 -0.187926 0
M  V30 334 H 29.4221 2.86763 -2.28392 0
M  V30 335 H 29.0701 4.94271 -0.933021 0
M  V30 336 H 28.7701 5.23733 -2.66416 0
M  V30 337 H 30.2941 5.79685 -1.91826 0
M  V30 338 H 31.7081 4.38273 -3.69581 0
M  V30 339 H 30.1051 4.06067 -4.41848 0
M  V30 340 H 31.1751 2.70273 -4.02592 0
M  V30 341 N 32.5182 1.22032 0.997298 0
M  V30 342 C 33.7482 1.06686 1.76923 0
M  V30 343 C 34.1562 -0.385838 1.85224 0
M  V30 344 O 33.4992 -1.27929 1.31833 0
M  V30 345 C 33.5612 1.59802 3.22031 0
M  V30 346 C 33.2252 3.08362 3.37286 0
M  V30 347 C 34.2222 4.05835 3.24952 0
M  V30 348 C 31.9072 3.47727 3.6248 0
M  V30 349 C 33.9012 5.4066 3.37588 0
M  V30 350 C 31.5882 4.82701 3.74757 0
M  V30 351 C 32.5862 5.78977 3.62319 0
M  V30 352 O 32.2742 7.11502 3.74193 0
M  V30 353 H 32.0062 0.374767 0.562606 0
M  V30 354 H 34.5602 1.61991 1.26286 0
M  V30 355 H 32.7902 0.989003 3.73839 0
M  V30 356 H 34.4792 1.40184 3.80924 0
M  V30 357 H 35.2452 3.76766 3.05405 0
M  V30 358 H 31.1242 2.73317 3.7124 0
M  V30 359 H 34.6682 6.15788 3.27796 0
M  V30 360 H 30.5652 5.11453 3.9381 0
M  V30 361 H 31.3332 7.19019 3.91093 0
M  V30 362 N 33.9963 -1.19345 1.0293 0
M  V30 363 C 35.2423 -1.89318 0.727083 0
M  V30 364 C 35.5753 -1.79446 -0.742483 0
M  V30 365 O 34.8503 -1.1871 -1.54072 0
M  V30 366 C 35.1333 -3.40238 1.17942 0
M  V30 367 C 34.9863 -3.58979 2.71024 0
M  V30 368 C 36.3053 -4.33479 0.760548 0
M  V30 369 H 33.4243 -0.687475 0.265606 0
M  V30 370 H 36.0663 -1.40477 1.2793 0
M  V30 371 H 34.2163 -3.81964 0.709608 0
M  V30 372 H 35.8883 -3.26421 3.25955 0
M  V30 373 H 34.1313 -3.02018 3.11396 0
M  V30 374 H 34.8023 -4.64823 2.9773 0
M  V30 375 H 37.2783 -3.99469 1.16464 0
M  V30 376 H 36.1543 -5.37664 1.10493 0
M  V30 377 H 36.4153 -4.40813 -0.337063 0
M  V30 378 N 35.4744 -0.807222 -1.35358 0
M  V30 379 C 36.6994 -0.399309 -2.0352 0
M  V30 380 C 37.1244 0.981986 -1.60433 0
M  V30 381 O 36.4824 1.63601 -0.781299 0
M  V30 382 C 36.5304 -0.491552 -3.57234 0
M  V30 383 O 35.6344 0.494754 -4.09421 0
M  V30 384 H 34.9754 -0.166682 -0.642739 0
M  V30 385 H 37.5054 -1.09328 -1.72941 0
M  V30 386 H 37.5154 -0.361588 -4.06395 0
M  V30 387 H 36.1904 -1.49907 -3.87944 0
M  V30 388 H 34.7674 0.324977 -3.71481 0
M  V30 389 N 36.9525 1.47285 -0.560781 0
M  V30 390 C 37.9155 2.28535 0.174488 0
M  V30 391 C 38.9155 1.37153 0.839388 0
M  V30 392 O 40.1055 1.59748 0.694702 0
M  V30 393 C 37.2375 3.16934 1.25561 0
M  V30 394 H 38.4305 2.95012 -0.539262 0
M  V30 395 H 35.9835 1.53034 -0.317865 0
M  V30 396 H 36.7185 2.55157 2.00164 0
M  V30 397 H 36.5035 3.8419 0.783604 0
M  V30 398 H 37.9935 3.78143 1.77193 0
M  V30 399 N 38.4306 0.297415 1.54768 0
M  V30 400 C 39.6556 -0.318435 2.04941 0
M  V30 401 C 40.0806 -1.4701 1.17345 0
M  V30 402 O 39.4386 -1.80436 0.176758 0
M  V30 403 C 39.4866 -0.755749 3.52592 0
M  V30 404 O 38.5906 -1.86088 3.68028 0
M  V30 405 H 37.9316 -0.062421 0.661059 0
M  V30 406 H 40.4616 0.438215 1.99852 0
M  V30 407 H 40.4716 -1.04552 3.94376 0
M  V30 408 H 39.1466 0.0867233 4.1581 0
M  V30 409 H 37.7236 -1.57193 3.38149 0
M  V30 410 N 39.9087 -1.5758 0.0250728 0
M  V30 411 C 40.8387 -2.13007 -0.956575 0
M  V30 412 C 41.8197 -1.0452 -1.342 0
M  V30 413 O 43.0047 -1.32332 -1.42133 0
M  V30 414 C 40.1347 -2.65386 -2.24026 0
M  V30 415 C 39.0887 -3.78623 -1.99571 0
M  V30 416 C 38.4147 -4.17414 -3.3417 0
M  V30 417 C 39.7147 -5.04867 -1.33814 0
M  V30 418 H 41.4087 -2.9528 -0.494991 0
M  V30 419 H 38.9547 -1.42042 -0.236651 0
M  V30 420 H 40.9077 -3.02794 -2.93076 0
M  V30 421 H 39.6317 -1.80268 -2.72343 0
M  V30 422 H 38.2907 -3.41646 -1.32941 0
M  V30 423 H 37.9387 -3.29284 -3.80238 0
M  V30 424 H 37.6387 -4.93719 -3.18615 0
M  V30 425 H 39.1627 -4.57402 -4.04495 0
M  V30 426 H 40.5767 -5.39888 -1.92857 0
M  V30 427 H 38.9737 -5.86144 -1.28669 0
M  V30 428 H 40.0437 -4.83904 -0.310561 0
M  V30 429 N 41.3868 0.248026 -1.55636 0
M  V30 430 C 42.6118 0.998028 -1.81808 0
M  V30 431 C 43.0368 1.78207 -0.601979 0
M  V30 432 O 42.3948 1.75653 0.448961 0
M  V30 433 C 42.4428 1.9125 -3.05705 0
M  V30 434 O 41.5468 3.00406 -2.82542 0
M  V30 435 H 40.8878 0.284045 -0.600179 0
M  V30 436 H 43.4178 0.269357 -2.02819 0
M  V30 437 H 43.4278 2.32737 -3.35108 0
M  V30 438 H 42.1028 1.33602 -3.93857 0
M  V30 439 H 40.6798 2.63056 -2.64303 0
M  V30 440 N 42.8649 1.48995 0.513639 0
M  V30 441 C 44.0949 1.61297 1.291 0
M  V30 442 C 44.5029 0.278656 1.87137 0
M  V30 443 O 43.8459 -0.744325 1.67945 0
M  V30 444 C 43.9079 2.61326 2.46879 0
M  V30 445 C 43.5719 4.05993 2.09807 0
M  V30 446 C 44.5689 4.93183 1.64519 0
M  V30 447 C 42.2539 4.51642 2.19829 0
M  V30 448 C 44.2479 6.24056 1.2974 0
M  V30 449 C 41.9349 5.82532 1.84662 0
M  V30 450 C 42.9329 6.68562 1.3969 0
M  V30 451 O 42.6209 7.97014 1.04992 0
M  V30 452 H 42.3529 0.546236 0.39825 0
M  V30 453 H 44.9069 1.95673 0.62459 0
M  V30 454 H 43.1369 2.22104 3.16554 0
M  V30 455 H 44.8259 2.6329 3.08923 0
M  V30 456 H 45.5919 4.59147 1.56233 0
M  V30 457 H 41.4709 3.84855 2.53786 0
M  V30 458 H 45.0149 6.91161 0.945659 0
M  V30 459 H 40.9119 6.16099 1.92594 0
M  V30 460 H 41.6799 8.09913 1.18249 0
M  V30 461 N 44.343 -0.763751 1.37857 0
M  V30 462 C 45.273 -1.89103 1.36975 0
M  V30 463 C 46.254 -1.68439 0.237152 0
M  V30 464 O 47.439 -1.8918 0.438713 0
M  V30 465 C 44.569 -3.26496 1.18395 0
M  V30 466 C 43.523 -3.61741 2.28751 0
M  V30 467 C 42.849 -4.97762 1.95286 0
M  V30 468 C 44.149 -3.67665 3.70972 0
M  V30 469 H 45.843 -1.90099 2.31307 0
M  V30 470 H 43.389 -0.91319 1.11341 0
M  V30 471 H 45.342 -4.05003 1.16406 0
M  V30 472 H 44.066 -3.25955 0.205215 0
M  V30 473 H 42.725 -2.85547 2.29909 0
M  V30 474 H 42.373 -4.93769 0.959221 0
M  V30 475 H 42.073 -5.22313 2.69189 0
M  V30 476 H 43.597 -5.7866 1.94898 0
M  V30 477 H 45.011 -4.36307 3.719 0
M  V30 478 H 43.408 -4.03718 4.43995 0
M  V30 479 H 44.478 -2.68134 4.0402 0
M  V30 480 N 45.8211 -1.22559 -0.990812 0
M  V30 481 C 46.7511 -1.0218 -2.09956 0
M  V30 482 C 47.7321 0.0579394 -1.70001 0
M  V30 483 O 48.9171 -0.104684 -1.93918 0
M  V30 484 C 46.0471 -0.601023 -3.4206 0
M  V30 485 C 45.0011 -1.62694 -3.95872 0
M  V30 486 C 44.3271 -1.06193 -5.24049 0
M  V30 487 C 45.6271 -3.01743 -4.2632 0
M  V30 488 H 47.3211 -1.94916 -2.27262 0
M  V30 489 H 44.8671 -0.938566 -1.09211 0
M  V30 490 H 46.8201 -0.445561 -4.19038 0
M  V30 491 H 45.5441 0.362005 -3.24588 0
M  V30 492 H 44.2031 -1.77021 -3.21028 0
M  V30 493 H 43.8511 -0.0901903 -5.02919 0
M  V30 494 H 43.5511 -1.74732 -5.61019 0
M  V30 495 H 45.0751 -0.918092 -6.03658 0
M  V30 496 H 46.4891 -2.90777 -4.94087 0
M  V30 497 H 44.8861 -3.67425 -4.74467 0
M  V30 498 H 45.9561 -3.51518 -3.34011 0
M  V30 499 N 47.2992 1.18797 -1.03562 0
M  V30 500 C 48.5292 1.92319 -0.754773 0
M  V30 501 C 48.9372 1.7612 0.691248 0
M  V30 502 O 48.2802 1.08491 1.48241 0
M  V30 503 C 48.3422 3.44284 -1.03484 0
M  V30 504 C 48.0062 3.84258 -2.47376 0
M  V30 505 C 49.0032 3.88459 -3.45537 0
M  V30 506 C 46.6882 4.15701 -2.81954 0
M  V30 507 C 48.6822 4.23545 -4.76328 0
M  V30 508 C 46.3692 4.50458 -4.12954 0
M  V30 509 C 47.3672 4.54356 -5.09951 0
M  V30 510 O 47.0552 4.88305 -6.38603 0
M  V30 511 H 46.7872 0.617527 -0.275021 0
M  V30 512 H 49.3412 1.51683 -1.38497 0
M  V30 513 H 47.5712 3.85135 -0.347513 0
M  V30 514 H 49.2602 3.99049 -0.7426 0
M  V30 515 H 50.0262 3.6431 -3.20162 0
M  V30 516 H 45.9052 4.11847 -2.0713 0
M  V30 517 H 49.4492 4.26502 -5.52035 0
M  V30 518 H 45.3462 4.74067 -4.38099 0
M  V30 519 H 46.1142 5.06227 -6.43177 0
M  V30 520 N 48.7773 0.814389 1.34928 0
M  V30 521 C 50.0023 0.410097 2.03305 0
M  V30 522 C 50.4273 -0.973464 1.60951 0
M  V30 523 O 49.7853 -1.63185 0.789964 0
M  V30 524 C 49.8333 0.51049 3.56968 0
M  V30 525 O 48.9373 -0.473035 4.09678 0
M  V30 526 H 48.2783 0.170088 0.641846 0
M  V30 527 H 50.8083 1.10244 1.72358 0
M  V30 528 H 50.8183 0.383135 4.06197 0
M  V30 529 H 49.4933 1.51963 3.87144 0
M  V30 530 H 48.0703 -0.305272 3.71648 0
M  V30 531 N 50.2554 -1.46986 0.568584 0
M  V30 532 C 51.5324 -1.95592 -0.0174074 0
M  V30 533 C 51.9124 -1.51124 -1.47393 0
M  V30 534 O 51.2604 -0.755329 -2.15655 0
M  V30 535 C 51.4704 -3.48719 0.139913 0
M  V30 536 C 52.8184 -4.246 0.000426376 0
M  V30 537 O 53.8424 -3.56135 0.0680316 0
M  V30 538 O 52.7014 -5.46302 -0.146988 0
M  V30 539 H 49.7954 -0.82498 -0.0577599 0
M  V30 540 H 52.3414 -1.57335 0.635909 0
M  V30 541 H 51.1134 -3.73927 1.15301 0
M  V30 542 H 50.7364 -3.93771 -0.550491 0
M  V30 543 N 51.7335 -0.305618 -1.54608 0
M  V30 544 C 52.9825 0.303098 -1.9941 0
M  V30 545 C 53.2955 1.54648 -1.19764 0
M  V30 546 O 54.5015 2.23007 -1.54855 0
M  V30 547 C 52.9575 0.590588 -3.55021 0
M  V30 548 C 52.5655 -0.634719 -4.43481 0
M  V30 549 C 54.3095 1.16025 -4.08336 0
M  V30 550 C 52.2165 -0.320126 -5.90533 0
M  V30 551 H 51.1465 0.117031 -0.744862 0
M  V30 552 H 53.7975 -0.415045 -1.78745 0
M  V30 553 H 52.1795 1.36845 -3.71604 0
M  V30 554 H 53.3535 -1.41079 -4.38672 0
M  V30 555 H 51.6685 -1.12333 -4.00962 0
M  V30 556 H 54.2655 1.40994 -5.15776 0
M  V30 557 H 54.6085 2.10397 -3.5922 0
M  V30 558 H 55.1415 0.443985 -3.95315 0
M  V30 559 H 51.8805 -1.23254 -6.43808 0
M  V30 560 H 51.4005 0.418579 -5.98338 0
M  V30 561 H 53.0795 0.0766241 -6.46955 0
M  V30 562 N 53.2116 1.57565 -0.0334293 0
M  V30 563 C 54.1416 2.13511 0.945265 0
M  V30 564 C 55.1226 1.05231 1.33643 0
M  V30 565 O 56.3076 1.33084 1.41429 0
M  V30 566 C 53.4376 2.6657 2.22616 0
M  V30 567 C 52.3916 3.79676 1.97561 0
M  V30 568 C 51.7176 4.1918 3.31952 0
M  V30 569 C 53.0176 5.0557 1.31135 0
M  V30 570 H 54.7116 2.95538 0.479325 0
M  V30 571 H 52.2576 1.42166 0.229115 0
M  V30 572 H 54.2106 3.04344 2.91466 0
M  V30 573 H 52.9346 1.8171 2.71384 0
M  V30 574 H 51.5936 3.42347 1.31127 0
M  V30 575 H 51.2416 3.31296 3.78487 0
M  V30 576 H 50.9416 4.95402 3.15992 0
M  V30 577 H 52.4656 4.59541 4.02063 0
M  V30 578 H 53.8796 5.40903 1.89992 0
M  V30 579 H 52.2766 5.86818 1.25559 0
M  V30 580 H 53.3466 4.84062 0.284894 0
M  V30 581 N 54.6897 -0.239769 1.55765 0
M  V30 582 C 55.6197 -1.30052 1.9393 0
M  V30 583 C 56.6007 -1.49839 0.805132 0
M  V30 584 O 57.7857 -1.62328 1.06599 0
M  V30 585 C 54.9157 -2.65391 2.2402 0
M  V30 586 C 53.8697 -2.60289 3.39755 0
M  V30 587 C 53.1957 -3.99489 3.55405 0
M  V30 588 C 54.4957 -2.16654 4.75246 0
M  V30 589 H 56.1897 -0.983573 2.82783 0
M  V30 590 H 53.7357 -0.471701 1.36055 0
M  V30 591 H 55.6887 -3.3974 2.49308 0
M  V30 592 H 54.4127 -2.98736 1.32 0
M  V30 593 H 53.0717 -1.88398 3.14487 0
M  V30 594 H 52.7197 -4.30112 2.60793 0
M  V30 595 H 52.4197 -3.96962 4.33238 0
M  V30 596 H 53.9437 -4.75528 3.83022 0
M  V30 597 H 55.3577 -2.80737 4.99859 0
M  V30 598 H 53.7547 -2.25223 5.56232 0
M  V30 599 H 54.8247 -1.11835 4.71827 0
M  V30 600 N 56.1678 -1.49265 -0.50573 0
M  V30 601 C 57.1148 -1.65585 -1.6078 0
M  V30 602 C 58.0848 -0.497396 -1.58478 0
M  V30 603 O 59.2698 -0.72385 -1.76536 0
M  V30 604 C 56.4098 -1.72408 -2.98948 0
M  V30 605 C 55.5228 -2.99525 -3.11301 0
M  V30 606 C 54.6578 -2.97356 -4.40174 0
M  V30 607 C 53.6968 -4.19074 -4.46143 0
M  V30 608 N 52.8338 -4.14841 -5.66437 0
M  V30 609 H 57.6738 -2.59688 -1.46172 0
M  V30 610 H 55.2108 -1.28761 -0.711261 0
M  V30 611 H 57.1688 -1.74344 -3.79025 0
M  V30 612 H 55.7988 -0.817753 -3.1227 0
M  V30 613 H 54.8508 -3.07222 -2.24318 0
M  V30 614 H 56.1628 -3.89518 -3.11572 0
M  V30 615 H 55.3168 -2.97829 -5.28567 0
M  V30 616 H 54.0558 -2.05133 -4.42461 0
M  V30 617 H 53.0608 -4.1885 -3.56153 0
M  V30 618 H 54.2858 -5.12483 -4.45575 0
M  V30 619 H 52.2318 -3.25453 -5.69575 0
M  V30 620 H 52.1488 -4.98564 -5.68304 0
M  V30 621 H 53.4168 -4.1941 -6.57051 0
M  V30 622 N 57.6459 0.756429 -1.3826 0
M  V30 623 C 58.8929 1.51547 -1.34312 0
M  V30 624 C 59.2209 1.94382 0.0677144 0
M  V30 625 O 58.4759 1.65514 1.04421 0
M  V30 626 C 58.7749 2.78313 -2.24224 0
M  V30 627 C 58.4409 2.54455 -3.72241 0
M  V30 628 C 57.1029 2.47657 -4.12576 0
M  V30 629 C 59.4549 2.3354 -4.65949 0
M  V30 630 C 56.7829 2.17956 -5.44713 0
M  V30 631 C 59.1349 2.05359 -5.9834 0
M  V30 632 C 57.7989 1.97016 -6.37762 0
M  V30 633 H 57.0689 0.55455 -0.491482 0
M  V30 634 H 59.7159 0.870039 -1.70595 0
M  V30 635 H 58.0209 3.47492 -1.80987 0
M  V30 636 H 59.7179 3.36259 -2.18474 0
M  V30 637 H 56.3079 2.60616 -3.40261 0
M  V30 638 H 60.4919 2.37772 -4.35635 0
M  V30 639 H 55.7479 2.10003 -5.74203 0
M  V30 640 H 59.9219 1.88179 -6.70494 0
M  V30 641 H 57.5489 1.73766 -7.40074 0
M  V30 642 N 59.124 1.23083 0.984299 0
M  V30 643 C 60.349 1.088 1.76571 0
M  V30 644 C 60.774 -0.356657 1.84688 0
M  V30 645 O 60.132 -1.25788 1.30565 0
M  V30 646 C 60.18 1.71371 3.17277 0
M  V30 647 O 59.284 0.973213 4.00752 0
M  V30 648 H 58.625 0.381599 0.543395 0
M  V30 649 H 61.155 1.63057 1.23587 0
M  V30 650 H 61.165 1.76449 3.67872 0
M  V30 651 H 59.84 2.76493 3.10684 0
M  V30 652 H 58.417 0.999078 3.59267 0
M  V30 653 N 60.6021 -1.18246 1.0419 0
M  V30 654 C 61.8271 -1.92736 0.765996 0
M  V30 655 C 62.2521 -1.75728 -0.67091 0
M  V30 656 O 61.6101 -1.06825 -1.46486 0
M  V30 657 C 61.6581 -3.42148 1.13875 0
M  V30 658 O 60.7621 -4.11548 0.264954 0
M  V30 659 H 60.1031 -0.601238 0.281797 0
M  V30 660 H 62.6331 -1.49942 1.39207 0
M  V30 661 H 62.6431 -3.92858 1.1012 0
M  V30 662 H 61.3181 -3.53848 2.18551 0
M  V30 663 H 59.8951 -3.71137 0.362226 0
M  V30 664 N 62.0802 -0.821533 -1.34494 0
M  V30 665 C 63.0272 -0.240397 -2.29545 0
M  V30 666 C 63.9972 0.634031 -1.53523 0
M  V30 667 O 65.1822 0.575966 -1.81899 0
M  V30 668 C 62.3222 0.592869 -3.39969 0
M  V30 669 C 61.4352 -0.30365 -4.30932 0
M  V30 670 C 60.5702 0.539049 -5.28458 0
M  V30 671 C 59.6092 -0.356942 -6.11058 0
M  V30 672 N 58.7462 0.446603 -7.00678 0
M  V30 673 H 63.5862 -1.05632 -2.7865 0
M  V30 674 H 61.1232 -0.532413 -1.37127 0
M  V30 675 H 63.0812 1.09129 -4.02675 0
M  V30 676 H 61.7112 1.37392 -2.92102 0
M  V30 677 H 60.7632 -0.920276 -3.691 0
M  V30 678 H 62.0752 -0.992661 -4.88823 0
M  V30 679 H 61.2292 1.102 -5.96608 0
M  V30 680 H 59.9682 1.26157 -4.71101 0
M  V30 681 H 58.9732 -0.932047 -5.41842 0
M  V30 682 H 60.1982 -1.07755 -6.70497 0
M  V30 683 H 58.1442 1.15282 -6.45791 0
M  V30 684 H 58.0612 -0.184048 -7.55776 0
M  V30 685 H 59.3292 0.992352 -7.73158 0
M  V30 686 N 63.5583 1.46682 -0.576371 0
M  V30 687 C 64.8073 2.01619 -0.0572825 0
M  V30 688 C 65.1203 1.45417 1.30818 0
M  V30 689 O 66.3263 1.92133 1.91825 0
M  V30 690 C 64.7823 3.59863 -0.0518371 0
M  V30 691 C 64.3903 4.25059 -1.41523 0
M  V30 692 C 66.1343 4.2248 0.413639 0
M  V30 693 C 64.0413 5.75364 -1.36785 0
M  V30 694 H 62.9713 0.753794 -0.0176448 0
M  V30 695 H 65.6223 1.68481 -0.727076 0
M  V30 696 H 64.0043 3.90048 0.683994 0
M  V30 697 H 65.1783 4.06491 -2.17029 0
M  V30 698 H 63.4933 3.7451 -1.8202 0
M  V30 699 H 66.0903 5.3265 0.467779 0
M  V30 700 H 66.4333 3.90976 1.42982 0
M  V30 701 H 66.9663 3.96897 -0.267929 0
M  V30 702 H 63.7053 6.11518 -2.36063 0
M  V30 703 H 63.2253 5.96214 -0.654895 0
M  V30 704 H 64.9043 6.37955 -1.07805 0
M  V30 705 N 65.0364 0.313813 1.54444 0
M  V30 706 C 66.2644 -0.293918 2.04802 0
M  V30 707 C 66.6794 -1.46537 1.19047 0
M  V30 708 O 66.0364 -1.81182 0.218939 0
M  V30 709 C 66.0874 -0.737806 3.53891 0
M  V30 710 O 65.8084 0.387038 4.36387 0
M  V30 711 C 67.3094 -1.40936 4.203 0
M  V30 712 H 64.5294 -0.0620057 0.668129 0
M  V30 713 H 67.0734 0.457169 1.99324 0
M  V30 714 H 65.2284 -1.43889 3.59687 0
M  V30 715 H 65.6424 0.0391274 5.24485 0
M  V30 716 H 67.1164 -1.67099 5.26101 0
M  V30 717 H 67.5934 -2.35355 3.70816 0
M  V30 718 H 68.1994 -0.751117 4.18615 0
M  V30 719 N 66.5145 -1.57545 0.0417849 0
M  V30 720 C 67.4775 -2.09885 -0.92093 0
M  V30 721 C 68.4775 -1.01648 -1.24596 0
M  V30 722 O 69.6675 -1.27759 -1.1842 0
M  V30 723 C 66.7995 -2.57527 -2.23367 0
M  V30 724 H 67.9925 -2.96236 -0.467382 0
M  V30 725 H 65.5455 -1.5493 -0.206467 0
M  V30 726 H 66.2805 -1.74542 -2.73323 0
M  V30 727 H 66.0655 -3.36613 -2.01083 0
M  V30 728 H 67.5555 -2.98201 -2.92346 0
M  V30 729 N 67.9926 0.231505 -1.5589 0
M  V30 730 C 69.4036 0.799327 -1.68724 0
M  V30 731 C 69.7546 1.85398 -0.642022 0
M  V30 732 O 68.8796 2.1539 0.208784 0
M  V30 733 C 69.4746 1.45664 -3.05888 0
M  V30 734 C 68.0336 1.97197 -3.20609 0
M  V30 735 C 67.1806 0.828552 -2.64632 0
M  V30 736 H 70.1316 0.00702616 -1.58698 0
M  V30 737 H 70.1526 2.32517 -3.01191 0
M  V30 738 H 69.6646 0.688808 -3.81939 0
M  V30 739 H 67.7656 2.76813 -2.4941 0
M  V30 740 H 67.8786 2.15878 -4.27707 0
M  V30 741 H 66.2426 1.23321 -2.22854 0
M  V30 742 H 67.0256 0.0735544 -3.43221 0
M  V30 743 N 69.4707 1.49531 0.497807 0
M  V30 744 C 70.6987 1.62893 1.27567 0
M  V30 745 C 71.1137 0.301585 1.86376 0
M  V30 746 O 70.4707 -0.713335 1.67982 0
M  V30 747 C 70.5217 2.70013 2.40364 0
M  V30 748 O 70.2427 3.976 1.83972 0
M  V30 749 C 71.7437 2.94109 3.31685 0
M  V30 750 H 68.9637 0.548298 0.386794 0
M  V30 751 H 71.5077 1.95584 0.597245 0
M  V30 752 H 69.6627 2.40092 3.04031 0
M  V30 753 H 70.0767 4.56631 2.58047 0
M  V30 754 H 71.5507 3.72788 4.07104 0
M  V30 755 H 72.0277 2.04147 3.88871 0
M  V30 756 H 72.6337 3.2546 2.73781 0
M  V30 757 N 70.9488 -0.749086 1.3866 0
M  V30 758 C 71.8818 -1.87111 1.30631 0
M  V30 759 C 72.8598 -1.61572 0.18251 0
M  V30 760 O 74.0438 -1.85019 0.360592 0
M  V30 761 C 71.1708 -3.22815 1.02511 0
M  V30 762 C 70.2168 -3.67234 2.1689 0
M  V30 763 S 71.0498 -3.78245 3.79066 0
M  V30 764 C 72.2058 -5.16761 3.53142 0
M  V30 765 H 72.4388 -1.93636 2.25594 0
M  V30 766 H 69.9718 -0.912525 1.24549 0
M  V30 767 H 71.9298 -4.01181 0.869701 0
M  V30 768 H 70.5908 -3.13964 0.0925884 0
M  V30 769 H 69.7838 -4.65677 1.92771 0
M  V30 770 H 69.3858 -2.96034 2.28561 0
M  V30 771 H 71.6778 -6.02656 3.09534 0
M  V30 772 H 72.6208 -5.45902 4.50995 0
M  V30 773 H 73.0288 -4.85771 2.87554 0
M  V30 774 N 72.4269 -1.23603 -0.977757 0
M  V30 775 C 73.6549 -1.09646 -1.75458 0
M  V30 776 C 74.0699 0.351859 -1.85492 0
M  V30 777 O 73.4269 1.24327 -1.336 0
M  V30 778 C 73.4779 -1.71895 -3.18016 0
M  V30 779 O 73.1989 -3.11063 -3.08498 0
M  V30 780 C 74.6999 -1.63415 -4.12081 0
M  V30 781 H 71.9199 -0.38359 -0.550545 0
M  V30 782 H 74.4639 -1.63507 -1.22824 0
M  V30 783 H 72.6189 -1.22061 -3.67668 0
M  V30 784 H 73.0329 -3.41305 -3.9826 0
M  V30 785 H 74.5069 -2.11669 -5.09804 0
M  V30 786 H 74.9839 -0.593462 -4.35172 0
M  V30 787 H 75.5899 -2.12628 -3.68334 0
M  V30 788 N 73.905 1.17692 -1.04816 0
M  V30 789 C 74.835 2.23777 -0.666791 0
M  V30 790 C 75.816 1.66796 0.33361 0
M  V30 791 O 77.001 1.93039 0.212042 0
M  V30 792 C 74.131 3.47281 -0.0367933 0
M  V30 793 C 73.085 4.17059 -0.961546 0
M  V30 794 C 72.411 5.34342 -0.195626 0
M  V30 795 C 73.711 4.69713 -2.28402 0
M  V30 796 H 75.405 2.55933 -1.55367 0
M  V30 797 H 72.951 1.23019 -0.748484 0
M  V30 798 H 74.904 4.20706 0.241775 0
M  V30 799 H 73.628 3.14381 0.885004 0
M  V30 800 H 72.287 3.45541 -1.22462 0
M  V30 801 H 71.935 4.97692 0.728816 0
M  V30 802 H 71.635 5.81966 -0.811775 0
M  V30 803 H 73.159 6.10553 0.0757473 0
M  V30 804 H 74.573 5.34794 -2.06563 0
M  V30 805 H 72.97 5.279 -2.8538 0
M  V30 806 H 74.04 3.86726 -2.92525 0
M  V30 807 N 75.3831 0.828654 1.34056 0
M  V30 808 C 76.6601 0.341809 1.9259 0
M  V30 809 C 77.0401 -1.17158 1.75605 0
M  V30 810 O 76.3881 -1.98132 1.13824 0
M  V30 811 C 76.5981 0.777453 3.4023 0
M  V30 812 C 77.9461 0.779579 4.17382 0
M  V30 813 O 78.9701 0.7204 3.48839 0
M  V30 814 O 77.8291 0.857996 5.39723 0
M  V30 815 H 74.9231 0.0946085 0.821571 0
M  V30 816 H 77.4691 0.913827 1.42994 0
M  V30 817 H 76.2411 1.8196 3.46419 0
M  V30 818 H 75.8641 0.181444 3.97186 0
M  V30 819 N 76.8612 -1.46375 0.584142 0
M  V30 820 C 78.1012 -2.0427 0.0729695 0
M  V30 821 C 78.4652 -1.44563 -1.26355 0
M  V30 822 O 79.6662 -1.93667 -1.86405 0
M  V30 823 C 77.9372 -3.57399 0.00967464 0
M  V30 824 S 79.4962 -4.36551 -0.443714 0
M  V30 825 H 76.3142 -0.709975 0.0381673 0
M  V30 826 H 78.9162 -1.79398 0.776962 0
M  V30 827 H 77.6202 -3.98372 0.986319 0
M  V30 828 H 77.1512 -3.8681 -0.717044 0
M  V30 829 H 79.1662 -4.66237 -1.69816 0
M  V30 830 N 78.3393 -0.321999 -1.54275 0
M  V30 831 C 79.3023 0.531975 -2.22941 0
M  V30 832 C 80.3023 1.04478 -1.22234 0
M  V30 833 O 81.4923 0.937452 -1.46825 0
M  V30 834 C 78.6243 1.73874 -2.93224 0
M  V30 835 H 79.8173 -0.0682612 -2.99822 0
M  V30 836 H 77.3703 -0.0730644 -1.56129 0
M  V30 837 H 78.1053 2.37825 -2.20476 0
M  V30 838 H 77.8903 1.37847 -3.6707 0
M  V30 839 H 79.3803 2.34496 -3.45545 0
M  V30 840 N 79.8174 1.5752 -0.0501392 0
M  V30 841 C 80.7654 2.12651 0.942459 0
M  V30 842 C 81.7594 1.05807 1.32292 0
M  V30 843 O 82.9654 1.24217 1.3027 0
M  V30 844 H 79.3404 0.679673 0.321789 0
M  V30 845 H 81.3114 2.94951 0.452356 0
M  V30 846 C 80.0604 2.68565 2.20836 0
M  V30 847 H 79.3834 3.50439 1.92439 0
M  V30 848 H 80.8234 3.10761 2.8845 0
M  V30 849 C 79.2824 1.62291 2.95234 0
M  V30 850 O 79.8124 1.03508 3.88135 0
M  V30 851 N 78.0184 1.33836 2.57946 0
M  V30 852 H 77.5654 1.81826 1.82475 0
M  V30 853 H 77.5234 0.629595 3.08032 0
M  V30 854 N 81.2955 -0.223234 1.56011 0
M  V30 855 C 82.2585 -1.26014 1.9145 0
M  V30 856 C 83.2585 -1.3989 0.792937 0
M  V30 857 O 84.4485 -1.38184 1.0607 0
M  V30 858 C 81.5805 -2.63422 2.16383 0
M  V30 859 H 82.7735 -0.95796 2.84189 0
M  V30 860 H 80.3265 -0.463576 1.49267 0
M  V30 861 H 81.0615 -2.98741 1.2619 0
M  V30 862 H 80.8465 -2.54728 2.98088 0
M  V30 863 H 82.3365 -3.38249 2.44903 0
M  V30 864 N 82.7736 -1.49793 -0.48987 0
M  V30 865 C 83.9986 -1.63836 -1.27172 0
M  V30 866 C 84.4236 -0.31402 -1.8546 0
M  V30 867 O 83.7816 0.719803 -1.66399 0
M  V30 868 C 83.8296 -2.71797 -2.36978 0
M  V30 869 O 82.9336 -2.31744 -3.41128 0
M  V30 870 H 82.2746 -0.547997 -0.37496 0
M  V30 871 H 84.8046 -1.96053 -0.585191 0
M  V30 872 H 84.8146 -2.94305 -2.82575 0
M  V30 873 H 83.4896 -3.67923 -1.93921 0
M  V30 874 H 82.0666 -2.1961 -3.01373 0
M  V30 875 N 84.2517 0.741722 -1.39055 0
M  V30 876 C 85.1997 1.87702 -1.3737 0
M  V30 877 C 86.1937 1.67427 -0.257812 0
M  V30 878 O 87.3997 1.7485 -0.427489 0
M  V30 879 H 83.7747 0.617757 -0.428812 0
M  V30 880 H 85.7457 1.86239 -2.33147 0
M  V30 881 C 84.4947 3.25315 -1.22741 0
M  V30 882 H 83.8177 3.41509 -2.07873 0
M  V30 883 H 85.2577 4.04964 -1.25618 0
M  V30 884 C 83.7167 3.36838 0.0647316 0
M  V30 885 O 84.2467 3.88073 1.03741 0
M  V30 886 N 82.4527 2.90329 0.125544 0
M  V30 887 H 81.9997 2.48823 -0.666682 0
M  V30 888 H 81.9577 2.98418 0.989639 0
M  V30 889 N 85.7298 1.2412 0.971189 0
M  V30 890 C 86.9758 1.08041 1.71625 0
M  V30 891 C 87.3088 -0.380407 1.90438 0
M  V30 892 O 86.5838 -1.28127 1.46334 0
M  V30 893 C 86.8668 1.81682 3.10908 0
M  V30 894 C 86.7198 3.35493 2.99608 0
M  V30 895 C 88.0388 1.58671 4.10501 0
M  V30 896 H 85.1578 0.39388 0.622919 0
M  V30 897 H 87.7998 1.52743 1.13003 0
M  V30 898 H 85.9498 1.43684 3.60953 0
M  V30 899 H 87.6218 3.83068 2.57015 0
M  V30 900 H 85.8648 3.64052 2.35899 0
M  V30 901 H 86.5358 3.82217 3.98264 0
M  V30 902 H 89.0118 1.91719 3.69301 0
M  V30 903 H 87.8878 2.1266 5.06031 0
M  V30 904 H 88.1488 0.524161 4.38982 0
M  V30 905 N 87.2079 -1.17134 1.05439 0
M  V30 906 C 88.1399 -2.2078 0.615539 0
M  V30 907 C 89.1529 -1.59584 -0.322001 0
M  V30 908 O 90.3419 -1.78133 -0.114344 0
M  V30 909 C 87.4419 -3.38691 -0.118938 0
M  V30 910 C 86.6149 -4.29454 0.829924 0
M  V30 911 C 85.6739 -5.26024 0.136258 0
M  V30 912 O 84.6999 -5.63952 0.77115 0
M  V30 913 N 85.9019 -5.69487 -1.1254 0
M  V30 914 H 88.6669 -2.59052 1.50705 0
M  V30 915 H 86.2279 -1.32058 0.936603 0
M  V30 916 H 88.2199 -4.00329 -0.593179 0
M  V30 917 H 86.7899 -2.98996 -0.91215 0
M  V30 918 H 86.0099 -3.65211 1.48373 0
M  V30 919 H 87.2979 -4.86984 1.47392 0
M  V30 920 H 86.6959 -5.4075 -1.6615 0
M  V30 921 H 85.2529 -6.33257 -1.54366 0
M  V30 922 N 88.686 -0.835752 -1.33615 0
M  V30 923 C 89.649 -0.272 -2.2758 0
M  V30 924 C 90.649 0.557487 -1.50827 0
M  V30 925 O 91.839 0.37173 -1.70188 0
M  V30 926 C 88.971 0.617173 -3.35267 0
M  V30 927 H 90.164 -1.10111 -2.78954 0
M  V30 928 H 87.717 -0.608594 -1.43965 0
M  V30 929 H 88.452 1.46884 -2.89129 0
M  V30 930 H 88.237 0.0237066 -3.92093 0
M  V30 931 H 89.727 1.005 -4.05326 0
M  V30 932 N 90.1641 1.46063 -0.591896 0
M  V30 933 C 91.4101 2.02638 -0.0811191 0
M  V30 934 C 91.7431 1.4613 1.27905 0
M  V30 935 O 91.0181 0.629908 1.84017 0
M  V30 936 C 91.3011 3.60091 -0.0252436 0
M  V30 937 C 91.1541 4.26965 -1.41496 0
M  V30 938 C 92.4731 4.3496 0.670685 0
M  V30 939 H 89.5921 0.73635 -0.0309524 0
M  V30 940 H 92.2341 1.741 -0.760859 0
M  V30 941 H 90.3841 3.84535 0.553624 0
M  V30 942 H 92.0561 4.13756 -2.0397 0
M  V30 943 H 90.2991 3.85971 -1.98011 0
M  V30 944 H 90.9701 5.35781 -1.32825 0
M  V30 945 H 93.4461 4.15716 0.178825 0
M  V30 946 H 92.3221 5.44686 0.678837 0
M  V30 947 H 92.5831 4.06685 1.73379 0
M  V30 948 N 91.6422 0.330177 1.54103 0
M  V30 949 C 92.5902 -0.548226 2.26047 0
M  V30 950 C 93.5842 -1.11309 1.27698 0
M  V30 951 O 94.7902 -1.06036 1.45452 0
M  V30 952 H 91.1652 -0.195456 0.726155 0
M  V30 953 H 93.1362 0.0807567 2.98291 0
M  V30 954 C 91.8852 -1.69415 3.03634 0
M  V30 955 H 91.2082 -1.26876 3.79134 0
M  V30 956 H 92.6482 -2.28423 3.5721 0
M  V30 957 C 91.1072 -2.61569 2.12328 0
M  V30 958 O 91.6372 -3.63462 1.7105 0
M  V30 959 N 89.8432 -2.29952 1.77681 0
M  V30 960 H 89.3902 -1.47134 2.11446 0
M  V30 961 H 89.3482 -2.91871 1.16869 0
M  V30 962 N 93.1203 -1.57491 0.0584922 0
M  V30 963 C 94.5363 -1.56792 -0.298091 0
M  V30 964 C 94.7363 -1.06679 -1.70944 0
M  V30 965 O 93.7923 -0.726672 -2.41818 0
M  V30 966 C 95.1053 -3.00461 -0.119879 0
M  V30 967 C 96.6533 -3.1242 -0.190428 0
M  V30 968 C 97.1283 -4.57982 -0.0406567 0
M  V30 969 N 98.6193 -4.63099 -0.0966958 0
M  V30 970 C 99.3543 -5.734 -0.00502943 0
M  V30 971 N 98.8503 -6.9266 0.139402 0
M  V30 972 N 100.643 -5.62067 -0.0611391 0
M  V30 973 H 92.7943 -1.88386 0.98105 0
M  V30 974 H 95.0573 -0.867865 0.381463 0
M  V30 975 H 94.7633 -3.41187 0.85349 0
M  V30 976 H 94.6373 -3.66843 -0.877833 0
M  V30 977 H 97.0243 -2.71589 -1.15427 0
M  V30 978 H 97.1053 -2.48702 0.598405 0
M  V30 979 H 96.7493 -4.995 0.919897 0
M  V30 980 H 96.6793 -5.19715 -0.848727 0
M  V30 981 H 99.1703 -3.77331 -0.207277 0
M  V30 982 H 99.4833 -7.72536 0.201855 0
M  V30 983 H 97.8283 -6.94781 0.174586 0
M  V30 984 H 101.019 -4.67782 -0.172583 0
M  V30 985 H 101.192 -6.47999 0.0137562 0
M  V30 986 N 94.5984 0.214957 -1.56127 0
M  V30 987 C 95.8234 0.95924 -1.83884 0
M  V30 988 C 96.2484 1.7689 -0.639644 0
M  V30 989 O 95.6064 1.76566 0.411601 0
M  V30 990 C 95.6544 1.84723 -3.09693 0
M  V30 991 O 94.7584 2.94346 -2.8885 0
M  V30 992 H 94.0994 0.27125 -0.606069 0
M  V30 993 H 96.6294 0.226276 -2.03345 0
M  V30 994 H 96.6394 2.25576 -3.39969 0
M  V30 995 H 95.3144 1.25218 -3.96602 0
M  V30 996 H 93.8914 2.57391 -2.69823 0
M  V30 997 N 96.0765 1.50051 0.48192 0
M  V30 998 C 97.0395 1.67584 1.5636 0
M  V30 999 C 98.0395 0.546894 1.51214 0
M  V30 1000 O 99.2295 0.813725 1.54026 0
M  V30 1001 C 96.3615 1.691 2.96003 0
M  V30 1002 H 97.5545 2.64078 1.42136 0
M  V30 1003 H 95.1075 1.39369 0.707533 0
M  V30 1004 H 95.8425 0.742589 3.15684 0
M  V30 1005 H 95.6275 2.51105 3.01146 0
M  V30 1006 H 97.1175 1.84656 3.74556 0
M  V30 1007 N 97.5546 -0.734337 1.39446 0
M  V30 1008 C 98.7826 -1.52358 1.39981 0
M  V30 1009 C 99.1976 -1.88799 -0.0054975 0
M  V30 1010 O 98.5546 -1.54146 -0.976998 0
M  V30 1011 C 98.6056 -2.81072 2.27333 0
M  V30 1012 O 98.3266 -2.46178 3.62392 0
M  V30 1013 C 99.8276 -3.75096 2.36259 0
M  V30 1014 H 97.0476 -0.470806 0.478103 0
M  V30 1015 H 99.5916 -0.907339 1.83269 0
M  V30 1016 H 97.7466 -3.39026 1.87457 0
M  V30 1017 H 98.1606 -3.28866 4.08592 0
M  V30 1018 H 99.6346 -4.62305 3.01626 0
M  V30 1019 H 100.112 -4.16892 1.38194 0
M  V30 1020 H 100.718 -3.23061 2.76608 0
M  V30 1021 N 99.0327 -1.24633 -0.964593 0
M  V30 1022 C 99.9797 -1.04144 -2.05968 0
M  V30 1023 C 100.95 0.046262 -1.66036 0
M  V30 1024 O 102.135 -0.108972 -1.90489 0
M  V30 1025 C 99.2747 -0.65563 -3.38815 0
M  V30 1026 C 98.3877 -1.81714 -3.91923 0
M  V30 1027 C 97.5227 -1.37662 -5.13052 0
M  V30 1028 C 96.5617 -2.50788 -5.58365 0
M  V30 1029 N 95.6987 -2.07582 -6.70712 0
M  V30 1030 H 100.539 -1.9787 -2.22827 0
M  V30 1031 H 98.0757 -0.9855 -1.09208 0
M  V30 1032 H 100.034 -0.412954 -4.15151 0
M  V30 1033 H 98.6637 0.244627 -3.21872 0
M  V30 1034 H 97.7157 -2.1734 -3.12198 0
M  V30 1035 H 99.0277 -2.66705 -4.21509 0
M  V30 1036 H 98.1817 -1.093 -5.96773 0
M  V30 1037 H 96.9207 -0.497293 -4.85158 0
M  V30 1038 H 95.9257 -2.79906 -4.73215 0
M  V30 1039 H 97.1507 -3.39283 -5.88272 0
M  V30 1040 H 95.0967 -1.22051 -6.44546 0
M  V30 1041 H 95.0137 -2.86125 -6.99763 0
M  V30 1042 H 96.2817 -1.82369 -7.57867 0
M  V30 1043 N 100.511 1.16574 -1.06058 0
M  V30 1044 C 101.421 2.2452 -0.680282 0
M  V30 1045 C 102.437 1.71348 0.302604 0
M  V30 1046 O 103.613 2.00822 0.152513 0
M  V30 1047 C 100.678 3.46629 -0.0700315 0
M  V30 1048 C 99.7388 4.14849 -1.10448 0
M  V30 1049 C 98.9718 5.31129 -0.523256 0
M  V30 1050 O 99.1948 5.66514 0.664709 0
M  V30 1051 O 98.1288 5.88526 -1.26179 0
M  V30 1052 H 101.955 2.59355 -1.58015 0
M  V30 1053 H 99.5398 1.24043 -0.832694 0
M  V30 1054 H 101.422 4.20543 0.268667 0
M  V30 1055 H 100.097 3.13573 0.803353 0
M  V30 1056 H 99.0038 3.42916 -1.49532 0
M  V30 1057 H 100.337 4.51954 -1.94931 0
M  V30 1058 N 101.989 0.842826 1.3317 0
M  V30 1059 C 102.922 0.223862 2.27099 0
M  V30 1060 C 103.9 -0.631311 1.49844 0
M  V30 1061 O 105.084 -0.590708 1.79005 0
M  V30 1062 C 102.211 -0.685313 3.31694 0
M  V30 1063 C 101.257 0.094919 4.26394 0
M  V30 1064 S 102.09 1.45546 5.15341 0
M  V30 1065 C 103.246 0.551685 6.23464 0
M  V30 1066 H 103.479 1.02015 2.79249 0
M  V30 1067 H 101.012 0.639797 1.4052 0
M  V30 1068 H 102.97 -1.20426 3.92438 0
M  V30 1069 H 101.631 -1.4553 2.78352 0
M  V30 1070 H 100.824 -0.597059 5.00451 0
M  V30 1071 H 100.426 0.545054 3.70007 0
M  V30 1072 H 102.718 -0.248877 6.77043 0
M  V30 1073 H 103.661 1.26253 6.96754 0
M  V30 1074 H 104.069 0.131275 5.64347 0
M  V30 1075 N 103.467 -1.45747 0.599634 0
M  V30 1076 C 104.695 -2.06668 0.0978551 0
M  V30 1077 C 105.11 -1.44562 -1.21439 0
M  V30 1078 O 104.467 -0.556923 -1.73795 0
M  V30 1079 C 104.518 -3.61456 -0.0567044 0
M  V30 1080 O 104.239 -4.21242 1.20361 0
M  V30 1081 C 105.74 -4.39345 -0.590869 0
M  V30 1082 H 102.96 -0.667825 0.0651943 0
M  V30 1083 H 105.504 -1.87115 0.82511 0
M  V30 1084 H 103.659 -3.80378 -0.734251 0
M  V30 1085 H 104.073 -5.14323 1.02821 0
M  V30 1086 H 105.547 -5.48182 -0.648131 0
M  V30 1087 H 106.024 -4.08568 -1.61147 0
M  V30 1088 H 106.63 -4.25268 0.0523679 0
M  V30 1089 N 104.945 -0.338344 -1.53925 0
M  V30 1090 C 106.192 0.259758 -2.00827 0
M  V30 1091 C 106.52 1.50973 -1.22628 0
M  V30 1092 O 105.775 1.93379 -0.300509 0
M  V30 1093 C 106.074 0.62448 -3.51902 0
M  V30 1094 C 105.74 -0.528006 -4.47798 0
M  V30 1095 C 104.402 -0.844298 -4.73735 0
M  V30 1096 C 106.754 -1.30143 -5.0469 0
M  V30 1097 C 104.082 -1.93648 -5.53821 0
M  V30 1098 C 106.434 -2.38382 -5.85967 0
M  V30 1099 C 105.098 -2.70576 -6.10201 0
M  V30 1100 H 104.368 0.0950523 -0.734878 0
M  V30 1101 H 107.015 -0.465182 -1.85764 0
M  V30 1102 H 105.32 1.43006 -3.64769 0
M  V30 1103 H 107.017 1.09905 -3.85645 0
M  V30 1104 H 103.607 -0.271421 -4.2774 0
M  V30 1105 H 107.791 -1.07033 -4.84621 0
M  V30 1106 H 103.047 -2.19021 -5.70824 0
M  V30 1107 H 107.221 -2.98746 -6.29066 0
M  V30 1108 H 104.848 -3.55333 -6.72044 0
M  V30 1109 N 106.423 1.57458 -0.0668435 0
M  V30 1110 C 107.353 2.15468 0.899764 0
M  V30 1111 C 108.334 1.08042 1.31381 0
M  V30 1112 O 109.519 1.36054 1.38574 0
M  V30 1113 C 106.649 2.71232 2.16911 0
M  V30 1114 C 105.603 3.83781 1.89463 0
M  V30 1115 C 104.929 4.26127 3.22986 0
M  V30 1116 C 106.229 5.08238 1.20381 0
M  V30 1117 H 107.923 2.96488 0.416529 0
M  V30 1118 H 105.469 1.4262 0.198908 0
M  V30 1119 H 107.422 3.10458 2.84945 0
M  V30 1120 H 106.146 1.87426 2.67468 0
M  V30 1121 H 104.805 3.45051 1.23836 0
M  V30 1122 H 104.453 3.39249 3.71374 0
M  V30 1123 H 104.153 5.01993 3.05413 0
M  V30 1124 H 105.677 4.67966 3.92225 0
M  V30 1125 H 107.091 5.44811 1.78475 0
M  V30 1126 H 105.488 5.89349 1.13083 0
M  V30 1127 H 106.558 4.84558 0.182153 0
M  V30 1128 N 107.901 -0.206675 1.56239 0
M  V30 1129 C 108.831 -1.25909 1.96645 0
M  V30 1130 C 109.812 -1.48097 0.836734 0
M  V30 1131 O 110.997 -1.6003 1.10019 0
M  V30 1132 C 108.127 -2.6058 2.29599 0
M  V30 1133 C 107.081 -2.53024 3.452 0
M  V30 1134 C 106.407 -3.91861 3.63798 0
M  V30 1135 C 107.707 -2.06524 4.79734 0
M  V30 1136 H 109.401 -0.923369 2.84806 0
M  V30 1137 H 106.947 -0.442735 1.37025 0
M  V30 1138 H 108.9 -3.34375 2.56459 0
M  V30 1139 H 107.624 -2.95869 1.38307 0
M  V30 1140 H 106.283 -1.81684 3.18412 0
M  V30 1141 H 105.931 -4.24483 2.69857 0
M  V30 1142 H 105.631 -3.87683 4.4156 0
M  V30 1143 H 107.155 -4.67296 3.93022 0
M  V30 1144 H 108.569 -2.70072 5.05702 0
M  V30 1145 H 106.966 -2.13374 5.60885 0
M  V30 1146 H 108.036 -1.01802 4.74093 0
M  V30 1147 N 109.379 -1.50304 -0.473955 0
M  V30 1148 C 110.79 -1.54042 -1.0549 0
M  V30 1149 C 111.141 -0.342248 -1.93192 0
M  V30 1150 O 110.266 0.545157 -2.09421 0
M  V30 1151 C 110.861 -2.79152 -1.91989 0
M  V30 1152 C 109.42 -2.8558 -2.45196 0
M  V30 1153 C 108.567 -2.48295 -1.2347 0
M  V30 1154 H 111.518 -1.5661 -0.256693 0
M  V30 1155 H 111.539 -2.60845 -2.7702 0
M  V30 1156 H 111.051 -3.66339 -1.28131 0
M  V30 1157 H 109.152 -2.02738 -3.12615 0
M  V30 1158 H 109.265 -3.88403 -2.80499 0
M  V30 1159 H 107.629 -2.00669 -1.56856 0
M  V30 1160 H 108.412 -3.37787 -0.612789 0
M  V30 1161 N 110.857 0.726932 -1.39834 0
M  V30 1162 C 111.767 1.87131 -1.41489 0
M  V30 1163 C 112.783 1.71239 -0.308757 0
M  V30 1164 O 113.959 1.93701 -0.551529 0
M  V30 1165 C 111.024 3.22811 -1.26468 0
M  V30 1166 C 110.085 3.51039 -2.47124 0
M  V30 1167 C 109.318 4.80245 -2.3281 0
M  V30 1168 O 109.541 5.54537 -1.33585 0
M  V30 1169 O 108.475 5.08554 -3.21957 0
M  V30 1170 H 112.301 1.8869 -2.3797 0
M  V30 1171 H 109.886 0.875837 -1.21035 0
M  V30 1172 H 111.768 4.03877 -1.20255 0
M  V30 1173 H 110.443 3.22005 -0.330862 0
M  V30 1174 H 109.35 2.70027 -2.58914 0
M  V30 1175 H 110.683 3.56632 -3.39227 0
M  V30 1176 N 112.336 1.25143 0.95797 0
M  V30 1177 C 113.747 1.08851 1.51685 0
M  V30 1178 C 114.098 -0.33687 1.93286 0
M  V30 1179 O 113.223 -1.22644 1.7829 0
M  V30 1180 C 113.818 1.96978 2.75654 0
M  V30 1181 C 112.377 1.84881 3.27866 0
M  V30 1182 C 111.524 1.91329 2.0072 0
M  V30 1183 H 114.475 1.38478 0.77522 0
M  V30 1184 H 114.496 1.5078 3.4935 0
M  V30 1185 H 114.008 3.00712 2.45345 0
M  V30 1186 H 112.109 0.840182 3.63004 0
M  V30 1187 H 112.222 2.6951 3.96107 0
M  V30 1188 H 110.586 1.35174 2.15871 0
M  V30 1189 H 111.369 2.96661 1.72764 0
M  V30 1190 N 113.814 -1.1601 1.06675 0
M  V30 1191 C 114.724 -2.24156 0.692179 0
M  V30 1192 C 115.74 -1.71507 -0.293513 0
M  V30 1193 O 116.916 -2.009 -0.141861 0
M  V30 1194 C 113.981 -3.46587 0.0884131 0
M  V30 1195 C 113.042 -4.14257 1.12646 0
M  V30 1196 C 112.275 -5.30844 0.551416 0
M  V30 1197 O 112.498 -5.66858 -0.634656 0
M  V30 1198 O 111.432 -5.87848 1.29298 0
M  V30 1199 H 115.258 -2.58513 1.59388 0
M  V30 1200 H 112.843 -1.23599 0.83926 0
M  V30 1201 H 114.725 -4.20679 -0.246361 0
M  V30 1202 H 113.4 -3.13994 -0.786712 0
M  V30 1203 H 112.307 -3.42118 1.51348 0
M  V30 1204 H 113.64 -4.50914 1.97325 0
M  V30 1205 N 115.292 -0.849877 -1.32721 0
M  V30 1206 C 116.538 -0.460855 -1.9811 0
M  V30 1207 C 116.893 0.971716 -1.66059 0
M  V30 1208 O 116.186 1.67184 -0.935944 0
M  V30 1209 C 116.38 -0.631272 -3.51781 0
M  V30 1210 C 116.209 -2.07886 -3.98765 0
M  V30 1211 C 114.979 -2.71637 -4.26077 0
M  V30 1212 C 117.177 -3.04889 -4.14182 0
M  V30 1213 N 115.159 -4.07356 -4.59276 0
M  V30 1214 C 116.53 -4.25583 -4.50865 0
M  V30 1215 C 118.585 -3.01148 -3.96503 0
M  V30 1216 C 117.288 -5.43027 -4.71714 0
M  V30 1217 C 119.314 -4.17832 -4.18533 0
M  V30 1218 C 118.676 -5.37284 -4.55528 0
M  V30 1219 H 114.775 -0.217283 -0.751207 0
M  V30 1220 H 117.359 -1.10026 -1.60631 0
M  V30 1221 H 115.53 -0.0215966 -3.88394 0
M  V30 1222 H 117.262 -0.212614 -4.04141 0
M  V30 1223 H 114.017 -2.22705 -4.17971 0
M  V30 1224 H 114.441 -4.77351 -4.80068 0
M  V30 1225 H 119.083 -2.0992 -3.67006 0
M  V30 1226 H 116.801 -6.34791 -5.00066 0
M  V30 1227 H 120.387 -4.16368 -4.06361 0
M  V30 1228 H 119.267 -6.26071 -4.72234 0
M  V30 1229 N 116.77 1.45427 -0.607355 0
M  V30 1230 C 117.998 2.06614 -0.108814 0
M  V30 1231 C 118.413 1.45204 1.2067 0
M  V30 1232 O 117.77 0.566132 1.73497 0
M  V30 1233 C 117.821 3.61481 0.0375347 0
M  V30 1234 O 117.542 4.20598 -1.22593 0
M  V30 1235 C 119.043 4.39652 0.567561 0
M  V30 1236 H 116.263 0.66747 -0.0687351 0
M  V30 1237 H 118.807 1.86675 -0.835022 0
M  V30 1238 H 116.962 3.80762 0.714068 0
M  V30 1239 H 117.376 5.1377 -1.05547 0
M  V30 1240 H 118.85 5.48518 0.61905 0
M  V30 1241 H 119.327 4.09417 1.58978 0
M  V30 1242 H 119.933 4.25234 -0.0749202 0
M  V30 1243 N 118.248 0.346503 1.53744 0
M  V30 1244 C 119.478 -0.250047 2.05081 0
M  V30 1245 C 119.886 -1.44529 1.22098 0
M  V30 1246 O 119.229 -1.81992 0.249917 0
M  V30 1247 C 119.291 -0.725934 3.52094 0
M  V30 1248 C 118.955 0.350053 4.55657 0
M  V30 1249 C 119.952 1.19372 5.0601 0
M  V30 1250 C 117.637 0.504827 4.99757 0
M  V30 1251 C 119.631 2.17768 5.99046 0
M  V30 1252 C 117.318 1.49218 5.92602 0
M  V30 1253 C 118.316 2.32706 6.42135 0
M  V30 1254 O 118.004 3.2976 7.33153 0
M  V30 1255 H 117.736 -0.0515469 0.674032 0
M  V30 1256 H 120.29 0.497559 1.99282 0
M  V30 1257 H 118.52 -1.52483 3.55367 0
M  V30 1258 H 120.209 -1.24336 3.86388 0
M  V30 1259 H 120.975 1.08525 4.72702 0
M  V30 1260 H 116.854 -0.135178 4.60802 0
M  V30 1261 H 120.398 2.82971 6.37631 0
M  V30 1262 H 116.295 1.6012 6.25325 0
M  V30 1263 H 117.063 3.25265 7.51096 0
M  V30 1264 N 119.726 -1.57421 0.075193 0
M  V30 1265 C 121.137 -1.81021 -0.456964 0
M  V30 1266 C 121.488 -0.98936 -1.69429 0
M  V30 1267 O 120.613 -0.212865 -2.15351 0
M  V30 1268 C 121.208 -3.28329 -0.83581 0
M  V30 1269 C 119.767 -3.52764 -1.31281 0
M  V30 1270 C 118.914 -2.75676 -0.299648 0
M  V30 1271 H 121.865 -1.55822 0.300856 0
M  V30 1272 H 121.886 -3.40564 -1.69696 0
M  V30 1273 H 121.398 -3.88046 0.0649238 0
M  V30 1274 H 119.499 -2.98355 -2.23193 0
M  V30 1275 H 119.612 -4.61451 -1.28839 0
M  V30 1276 H 117.976 -2.42538 -0.777641 0
M  V30 1277 H 118.759 -3.38132 0.593417 0
M  V30 1278 N 121.204 0.198386 -1.56346 0
M  V30 1279 C 122.62 0.549085 -1.49857 0
M  V30 1280 C 122.82 1.86016 -0.774611 0
M  V30 1281 O 121.876 2.50416 -0.323776 0
M  V30 1282 C 123.189 0.606868 -2.94512 0
M  V30 1283 C 124.737 0.695925 -3.05165 0
M  V30 1284 C 125.212 0.784848 -4.51225 0
M  V30 1285 N 126.703 0.848463 -4.55363 0
M  V30 1286 C 127.438 0.937378 -5.65686 0
M  V30 1287 N 126.934 0.9888 -6.85707 0
M  V30 1288 N 128.727 0.974312 -5.53592 0
M  V30 1289 H 120.878 -0.661655 -2.01831 0
M  V30 1290 H 123.141 -0.235261 -0.918344 0
M  V30 1291 H 122.847 -0.28732 -3.50524 0
M  V30 1292 H 122.721 1.46268 -3.47686 0
M  V30 1293 H 125.108 1.58055 -2.49204 0
M  V30 1294 H 125.189 -0.186022 -2.55123 0
M  V30 1295 H 124.833 -0.0954072 -5.0781 0
M  V30 1296 H 124.763 1.68255 -4.98997 0
M  V30 1297 H 127.254 0.818103 -3.68938 0
M  V30 1298 H 127.567 1.05707 -7.65536 0
M  V30 1299 H 125.912 0.957534 -6.88372 0
M  V30 1300 H 129.103 0.930954 -4.58749 0
M  V30 1301 H 129.276 1.04015 -6.39597 0
M  V30 1302 N 122.682 1.50554 0.465978 0
M  V30 1303 C 123.612 1.72722 1.57128 0
M  V30 1304 C 124.593 0.576294 1.6004 0
M  V30 1305 O 125.778 0.81598 1.76225 0
M  V30 1306 C 122.908 1.82605 2.95419 0
M  V30 1307 C 121.862 2.97835 3.07373 0
M  V30 1308 C 121.188 2.92867 4.47363 0
M  V30 1309 C 122.488 4.38265 2.84114 0
M  V30 1310 H 124.182 2.65267 1.38829 0
M  V30 1311 H 121.728 1.2765 0.666441 0
M  V30 1312 H 123.681 1.96698 3.72677 0
M  V30 1313 H 122.405 0.866858 3.14886 0
M  V30 1314 H 121.064 2.83401 2.3255 0
M  V30 1315 H 120.712 1.94783 4.63755 0
M  V30 1316 H 120.412 3.70227 4.56296 0
M  V30 1317 H 121.936 3.09015 5.26633 0
M  V30 1318 H 123.35 4.53198 3.51118 0
M  V30 1319 H 121.747 5.17115 3.04487 0
M  V30 1320 H 122.817 4.50281 1.7993 0
M  V30 1321 N 124.16 -0.719506 1.40217 0
M  V30 1322 C 125.385 -1.51371 1.4178 0
M  V30 1323 C 125.81 -1.88091 0.0182355 0
M  V30 1324 O 125.168 -1.52997 -0.972707 0
M  V30 1325 C 125.216 -2.768 2.31115 0
M  V30 1326 O 124.32 -3.73349 1.7517 0
M  V30 1327 H 123.661 -0.456529 0.482159 0
M  V30 1328 H 126.191 -0.88644 1.844 0
M  V30 1329 H 126.201 -3.25371 2.46167 0
M  V30 1330 H 124.876 -2.49407 3.3282 0
M  V30 1331 H 123.453 -3.32179 1.69444 0
M  V30 1332 N 125.638 -1.25649 -0.95132 0
M  V30 1333 C 126.878 -1.11802 -1.71113 0
M  V30 1334 C 127.242 0.334758 -1.89059 0
M  V30 1335 O 128.443 0.595121 -2.62129 0
M  V30 1336 C 126.714 -1.85512 -3.05483 0
M  V30 1337 S 128.273 -1.87597 -3.96677 0
M  V30 1338 H 125.091 -0.399552 -0.588115 0
M  V30 1339 H 127.693 -1.59222 -1.1344 0
M  V30 1340 H 126.397 -2.90299 -2.90094 0
M  V30 1341 H 125.928 -1.38493 -3.68216 0
M  V30 1342 H 127.943 -0.955389 -4.86916 0
M  V30 1343 N 127.117 1.15442 -1.07289 0
M  V30 1344 C 128.049 2.19773 -0.650585 0
M  V30 1345 C 129.062 1.60076 0.296572 0
M  V30 1346 O 130.251 1.78293 0.0859905 0
M  V30 1347 C 127.351 3.38838 0.0650398 0
M  V30 1348 C 126.524 4.2808 -0.898141 0
M  V30 1349 C 125.583 5.2574 -0.219926 0
M  V30 1350 O 124.609 5.62654 -0.860773 0
M  V30 1351 N 125.811 5.71205 1.03466 0
M  V30 1352 H 128.576 2.56622 -1.54808 0
M  V30 1353 H 126.137 1.30551 -0.957494 0
M  V30 1354 H 128.129 4.01222 0.529415 0
M  V30 1355 H 126.699 3.00409 0.864466 0
M  V30 1356 H 125.919 3.62804 -1.54165 0
M  V30 1357 H 127.207 4.84577 -1.5512 0
M  V30 1358 H 126.605 5.43325 1.57526 0
M  V30 1359 H 125.162 6.35633 1.44272 0
M  V30 1360 N 128.595 0.856903 1.32268 0
M  V30 1361 C 129.843 0.460474 1.96784 0
M  V30 1362 C 130.164 -0.987701 1.68135 0
M  V30 1363 O 129.434 -1.69058 0.989765 0
M  V30 1364 H 128.014 0.167289 0.728027 0
M  V30 1365 H 130.676 1.09383 1.61312 0
M  V30 1366 H 129.772 0.60739 3.06133 0
M  V30 1367 N 130.073 -1.45103 0.615059 0
M  V30 1368 C 131.298 -2.07064 0.117988 0
M  V30 1369 C 131.723 -1.4554 -1.19163 0
M  V30 1370 O 131.081 -0.550855 -1.72729 0
M  V30 1371 C 131.129 -3.606 -0.000288387 0
M  V30 1372 O 130.233 -3.98847 -1.04856 0
M  V30 1373 H 129.574 -0.659467 0.0774581 0
M  V30 1374 H 132.104 -1.86236 0.847186 0
M  V30 1375 H 132.114 -4.07529 -0.196091 0
M  V30 1376 H 130.789 -4.04765 0.955932 0
M  V30 1377 H 129.366 -3.63577 -0.828619 0
M  V30 1378 N 131.551 -0.354651 -1.53558 0
M  V30 1379 C 132.779 0.239515 -2.05509 0
M  V30 1380 C 133.194 1.4333 -1.2289 0
M  V30 1381 O 132.551 1.80538 -0.266899 0
M  V30 1382 C 132.602 0.643719 -3.55723 0
M  V30 1383 O 132.323 -0.502602 -4.35207 0
M  V30 1384 C 133.824 1.29743 -4.23889 0
M  V30 1385 H 131.044 0.0442697 -0.669538 0
M  V30 1386 H 133.588 -0.509856 -1.98042 0
M  V30 1387 H 131.743 1.34302 -3.63376 0
M  V30 1388 H 132.157 -0.178172 -5.24197 0
M  V30 1389 H 133.631 1.53091 -5.30346 0
M  V30 1390 H 134.108 2.25441 -3.76926 0
M  V30 1391 H 134.714 0.639865 -4.20459 0
M  V30 1392 N 133.029 1.57378 -0.0835403 0
M  V30 1393 C 134.276 1.9393 0.58287 0
M  V30 1394 C 134.604 0.964455 1.68904 0
M  V30 1395 O 133.859 -0.0179474 1.95692 0
M  V30 1396 C 134.158 3.37063 1.1884 0
M  V30 1397 C 133.824 4.50424 0.207194 0
M  V30 1398 C 132.486 4.81159 -0.0627115 0
M  V30 1399 C 134.838 5.19136 -0.463426 0
M  V30 1400 C 132.166 5.77939 -1.01012 0
M  V30 1401 C 134.518 6.16931 -1.39924 0
M  V30 1402 C 133.182 6.46078 -1.67749 0
M  V30 1403 H 132.452 0.70964 0.213287 0
M  V30 1404 H 135.099 1.90856 -0.156916 0
M  V30 1405 H 133.404 3.3666 2.00418 0
M  V30 1406 H 135.101 3.6264 1.71153 0
M  V30 1407 H 131.691 4.2646 0.427747 0
M  V30 1408 H 135.875 4.95576 -0.268034 0
M  V30 1409 H 131.131 5.98842 -1.23283 0
M  V30 1410 H 135.305 6.69273 -1.92476 0
M  V30 1411 H 132.932 7.2088 -2.41321 0
M  V30 1412 N 134.507 -0.190092 1.56449 0
M  V30 1413 C 135.439 -1.25973 1.91477 0
M  V30 1414 C 136.452 -1.41452 0.805931 0
M  V30 1415 O 137.641 -1.41789 1.08435 0
M  V30 1416 C 134.741 -2.63117 2.13594 0
M  V30 1417 C 133.914 -2.69182 3.4476 0
M  V30 1418 C 132.973 -3.87557 3.5593 0
M  V30 1419 O 131.999 -3.74427 4.28711 0
M  V30 1420 N 133.201 -5.03224 2.89388 0
M  V30 1421 H 135.966 -0.962394 2.83828 0
M  V30 1422 H 133.527 -0.379981 1.57378 0
M  V30 1423 H 135.519 -3.40742 2.1835 0
M  V30 1424 H 134.089 -2.85319 1.27719 0
M  V30 1425 H 133.309 -1.77793 3.51828 0
M  V30 1426 H 134.597 -2.70229 4.31107 0
M  V30 1427 H 133.995 -5.16791 2.30094 0
M  V30 1428 H 132.552 -5.78778 2.99764 0
M  V30 1429 N 135.985 -1.50799 -0.457987 0
M  V30 1430 C 136.932 -1.70617 -1.5543 0
M  V30 1431 C 137.902 -0.547562 -1.56815 0
M  V30 1432 O 139.087 -0.779647 -1.74144 0
M  V30 1433 C 136.227 -1.81831 -2.93311 0
M  V30 1434 C 135.34 -3.09278 -3.01615 0
M  V30 1435 C 134.475 -3.11209 -4.30491 0
M  V30 1436 C 133.514 -4.33055 -4.32585 0
M  V30 1437 N 132.651 -4.32652 -5.52952 0
M  V30 1438 H 137.491 -2.64207 -1.37836 0
M  V30 1439 H 135.028 -1.30959 -0.669937 0
M  V30 1440 H 136.986 -1.86314 -3.73287 0
M  V30 1441 H 135.616 -0.916685 -3.0951 0
M  V30 1442 H 134.668 -3.14203 -2.1443 0
M  V30 1443 H 135.98 -3.99233 -2.99022 0
M  V30 1444 H 135.134 -3.14494 -5.18824 0
M  V30 1445 H 133.873 -2.19106 -4.35711 0
M  V30 1446 H 132.878 -4.29969 -3.42647 0
M  V30 1447 H 134.103 -5.264 -4.29046 0
M  V30 1448 H 132.049 -3.43409 -5.58933 0
M  V30 1449 H 131.966 -5.16392 -5.52155 0
M  V30 1450 H 133.234 -4.40101 -6.43375 0
M  V30 1451 N 137.463 0.71206 -1.40597 0
M  V30 1452 C 138.426 1.80785 -1.40888 0
M  V30 1453 C 139.426 1.57937 -0.302103 0
M  V30 1454 O 140.616 1.64913 -0.561182 0
M  V30 1455 C 137.748 3.18927 -1.20409 0
M  V30 1456 H 138.941 1.81924 -2.38419 0
M  V30 1457 H 136.494 0.91805 -1.26497 0
M  V30 1458 H 137.229 3.23436 -0.236522 0
M  V30 1459 H 137.014 3.36911 -2.00582 0
M  V30 1460 H 138.504 3.98949 -1.23408 0
M  V30 1461 N 138.941 1.26152 0.944643 0
M  V30 1462 C 139.871 1.09902 2.06019 0
M  V30 1463 C 140.852 0.00519538 1.70099 0
M  V30 1464 O 142.037 0.176583 1.93396 0
M  V30 1465 C 139.167 0.727562 3.39594 0
M  V30 1466 C 138.121 1.77274 3.89561 0
M  V30 1467 C 137.447 1.25569 5.19747 0
M  V30 1468 C 138.747 3.17357 4.14827 0
M  V30 1469 H 140.441 2.03217 2.19871 0
M  V30 1470 H 137.987 0.978452 1.05652 0
M  V30 1471 H 139.94 0.600777 4.17095 0
M  V30 1472 H 138.664 -0.241287 3.25707 0
M  V30 1473 H 137.323 1.88814 3.14237 0
M  V30 1474 H 136.971 0.276783 5.02238 0
M  V30 1475 H 136.671 1.95433 5.54148 0
M  V30 1476 H 138.195 1.1415 5.99835 0
M  V30 1477 H 139.609 3.08914 4.82954 0
M  V30 1478 H 138.006 3.84781 4.60504 0
M  V30 1479 H 139.076 3.63673 3.20734 0
M  V30 1480 N 140.419 -1.14872 1.07899 0
M  V30 1481 C 141.349 -2.2193 0.725887 0
M  V30 1482 C 142.33 -1.67622 -0.28927 0
M  V30 1483 O 143.515 -1.93533 -0.160787 0
M  V30 1484 C 140.645 -3.47061 0.128856 0
M  V30 1485 C 139.599 -4.14363 1.07178 0
M  V30 1486 C 138.925 -5.33636 0.337229 0
M  V30 1487 C 140.225 -4.63492 2.40775 0
M  V30 1488 H 141.919 -2.51724 1.62097 0
M  V30 1489 H 139.465 -1.20991 0.780838 0
M  V30 1490 H 141.418 -4.21199 -0.130147 0
M  V30 1491 H 140.142 -3.16617 -0.80134 0
M  V30 1492 H 138.801 -3.42173 1.3158 0
M  V30 1493 H 138.449 -4.99449 -0.596606 0
M  V30 1494 H 138.149 -5.79609 0.965788 0
M  V30 1495 H 139.673 -6.10539 0.0861567 0
M  V30 1496 H 141.087 -5.2913 2.20669 0
M  V30 1497 H 139.484 -5.20148 2.99276 0
M  V30 1498 H 140.554 -3.78834 3.02676 0
M  V30 1499 N 141.898 -0.863906 -1.31812 0
M  V30 1500 C 143.147 -0.46801 -1.96195 0
M  V30 1501 C 143.46 0.983474 -1.69077 0
M  V30 1502 O 144.666 1.48523 -2.27273 0
M  V30 1503 C 143.122 -0.785995 -3.51212 0
M  V30 1504 C 142.73 -2.25383 -3.87178 0
M  V30 1505 C 144.474 -0.458274 -4.22019 0
M  V30 1506 C 142.381 -2.51455 -5.3528 0
M  V30 1507 H 141.311 -0.171283 -0.734287 0
M  V30 1508 H 143.962 -1.05597 -1.50072 0
M  V30 1509 H 142.344 -0.127359 -3.95795 0
M  V30 1510 H 143.518 -2.95502 -3.53575 0
M  V30 1511 H 141.833 -2.54698 -3.2942 0
M  V30 1512 H 144.43 -0.630369 -5.30971 0
M  V30 1513 H 144.773 0.600834 -4.11941 0
M  V30 1514 H 145.306 -1.07319 -3.8305 0
M  V30 1515 H 142.045 -3.56025 -5.50387 0
M  V30 1516 H 141.565 -1.85923 -5.70257 0
M  V30 1517 H 143.244 -2.35874 -6.02472 0
M  V30 1518 N 143.376 1.44774 -0.622745 0
M  V30 1519 C 144.601 2.06999 -0.128968 0
M  V30 1520 C 145.026 1.4617 1.1839 0
M  V30 1521 O 144.384 0.560007 1.72434 0
M  V30 1522 C 144.432 3.60595 -0.0188351 0
M  V30 1523 O 143.536 3.99398 1.02739 0
M  V30 1524 H 142.877 0.659047 -0.0809544 0
M  V30 1525 H 145.407 1.85784 -0.85705 0
M  V30 1526 H 145.417 4.07627 0.174476 0
M  V30 1527 H 144.092 4.04252 -0.977384 0
M  V30 1528 H 142.669 3.64011 0.809326 0
M  V30 1529 N 144.854 0.36279 1.53368 0
M  V30 1530 C 146.265 -0.117022 1.86333 0
M  V30 1531 C 146.616 -1.48397 1.28347 0
M  V30 1532 O 145.741 -2.07787 0.604428 0
M  V30 1533 C 146.336 -0.21912 3.38091 0
M  V30 1534 C 144.895 -0.643184 3.70864 0
M  V30 1535 C 144.042 0.211318 2.76494 0
M  V30 1536 H 146.993 0.581687 1.47655 0
M  V30 1537 H 147.014 -1.04319 3.6592 0
M  V30 1538 H 146.526 0.775902 3.80265 0
M  V30 1539 H 144.627 -1.64654 3.34245 0
M  V30 1540 H 144.74 -0.41973 4.77258 0
M  V30 1541 H 143.104 -0.319367 2.5269 0
M  V30 1542 H 143.887 1.20383 3.21501 0
M  V30 1543 N 146.332 -1.57332 0.0918853 0
M  V30 1544 C 147.282 -2.10385 -0.87876 0
M  V30 1545 C 148.266 -1.01814 -1.24591 0
M  V30 1546 O 149.458 -1.28093 -1.22152 0
M  V30 1547 C 146.587 -2.68517 -2.13901 0
M  V30 1548 C 145.673 -3.84126 -1.79744 0
M  V30 1549 N 146.064 -4.92288 -1.1613 0
M  V30 1550 C 144.362 -3.93801 -2.09373 0
M  V30 1551 C 145.063 -5.7295 -1.00513 0
M  V30 1552 N 144.039 -5.21876 -1.5214 0
M  V30 1553 H 147.841 -2.91395 -0.38293 0
M  V30 1554 H 145.355 -1.62017 -0.111423 0
M  V30 1555 H 147.352 -3.04852 -2.84378 0
M  V30 1556 H 146.012 -1.88961 -2.64053 0
M  V30 1557 H 147.023 -5.1123 -0.828504 0
M  V30 1558 H 143.7 -3.25249 -2.61762 0
M  V30 1559 H 145.09 -6.69978 -0.507902 0
M  V30 1560 N 147.81 0.181792 -1.56548 0
M  V30 1561 C 149.226 0.53316 -1.50431 0
M  V30 1562 C 149.426 1.85184 -0.794297 0
M  V30 1563 O 148.482 2.50058 -0.350318 0
M  V30 1564 C 149.795 0.575597 -2.9514 0
M  V30 1565 C 151.343 0.663519 -3.05886 0
M  V30 1566 C 151.818 0.736946 -4.52032 0
M  V30 1567 N 153.309 0.800118 -4.56237 0
M  V30 1568 C 154.044 0.877327 -5.66649 0
M  V30 1569 N 153.54 0.916016 -6.86718 0
M  V30 1570 N 155.333 0.915542 -5.54594 0
M  V30 1571 H 147.484 -0.683025 -2.01118 0
M  V30 1572 H 149.747 -0.244988 -0.915797 0
M  V30 1573 H 149.453 -0.324482 -3.502 0
M  V30 1574 H 149.327 1.42572 -3.49218 0
M  V30 1575 H 151.714 1.55403 -2.50867 0
M  V30 1576 H 151.795 -0.21307 -2.54911 0
M  V30 1577 H 151.439 -0.149262 -5.07681 0
M  V30 1578 H 151.369 1.62953 -5.00753 0
M  V30 1579 H 153.86 0.778926 -3.69785 0
M  V30 1580 H 154.173 0.975813 -7.66614 0
M  V30 1581 H 152.518 0.884469 -6.89349 0
M  V30 1582 H 155.709 0.882245 -4.59711 0
M  V30 1583 H 155.882 0.972253 -6.40665 0
M  V30 1584 N 149.288 1.51039 0.449983 0
M  V30 1585 C 150.535 1.63081 1.20045 0
M  V30 1586 C 150.863 0.341024 1.91487 0
M  V30 1587 O 150.118 -0.674276 1.83717 0
M  V30 1588 C 150.417 2.77556 2.25161 0
M  V30 1589 C 150.083 4.17289 1.70823 0
M  V30 1590 C 148.745 4.55305 1.55725 0
M  V30 1591 C 151.097 5.04536 1.3074 0
M  V30 1592 C 148.425 5.78287 0.989999 0
M  V30 1593 C 150.777 6.28085 0.754482 0
M  V30 1594 C 149.441 6.64885 0.590308 0
M  V30 1595 H 148.711 0.596755 0.439277 0
M  V30 1596 H 151.358 1.85037 0.49333 0
M  V30 1597 H 149.663 2.49771 3.01863 0
M  V30 1598 H 151.36 2.84073 2.83026 0
M  V30 1599 H 147.95 3.8731 1.83546 0
M  V30 1600 H 152.134 4.75782 1.41229 0
M  V30 1601 H 147.39 6.05456 0.850451 0
M  V30 1602 H 151.564 6.95038 0.435324 0
M  V30 1603 H 149.191 7.60055 0.14862 0
M  V30 1604 N 150.766 -0.704594 1.40972 0
M  V30 1605 C 152.014 -1.46169 1.39568 0
M  V30 1606 C 152.335 -1.95 0.00253745 0
M  V30 1607 O 151.605 -1.71095 -0.954114 0
M  V30 1608 H 150.185 -0.542326 0.513704 0
M  V30 1609 H 152.847 -0.834553 1.76128 0
M  V30 1610 H 151.943 -2.32922 2.07735 0
M  V30 1611 N 152.244 -1.26651 -0.937939 0
M  V30 1612 C 153.154 -1.10276 -2.07066 0
M  V30 1613 C 154.17 -0.0354197 -1.73964 0
M  V30 1614 O 155.346 -0.239816 -1.99967 0
M  V30 1615 C 152.411 -0.740887 -3.38691 0
M  V30 1616 C 151.472 -1.88799 -3.85556 0
M  V30 1617 C 150.705 -1.54329 -5.10899 0
M  V30 1618 O 150.928 -0.446494 -5.6865 0
M  V30 1619 O 149.862 -2.37911 -5.52885 0
M  V30 1620 H 153.688 -2.05309 -2.23789 0
M  V30 1621 H 151.273 -1.05743 -1.0554 0
M  V30 1622 H 153.155 -0.55195 -4.1777 0
M  V30 1623 H 151.83 0.180022 -3.23199 0
M  V30 1624 H 150.737 -2.13191 -3.07409 0
M  V30 1625 H 152.07 -2.78874 -4.05574 0
M  V30 1626 N 153.722 1.14298 -1.08507 0
M  V30 1627 C 154.685 2.17607 -0.719711 0
M  V30 1628 C 155.685 1.58907 0.245997 0
M  V30 1629 O 156.875 1.74181 0.0254081 0
M  V30 1630 C 154.007 3.40842 -0.0627695 0
M  V30 1631 H 155.2 2.51443 -1.63452 0
M  V30 1632 H 152.753 1.28963 -0.88307 0
M  V30 1633 H 153.488 3.12587 0.863716 0
M  V30 1634 H 153.273 3.84713 -0.757504 0
M  V30 1635 H 154.763 4.17221 0.177786 0
M  V30 1636 N 155.201 0.870884 1.31352 0
M  V30 1637 C 156.617 0.562932 1.49343 0
M  V30 1638 C 156.817 -0.902725 1.80148 0
M  V30 1639 O 155.873 -1.68484 1.88067 0
M  V30 1640 C 157.186 1.46393 2.62659 0
M  V30 1641 C 158.734 1.46607 2.76542 0
M  V30 1642 C 159.209 2.35266 3.92955 0
M  V30 1643 N 160.7 2.33151 4.00243 0
M  V30 1644 C 161.435 2.98471 4.89594 0
M  V30 1645 N 160.931 3.72964 5.8384 0
M  V30 1646 N 162.724 2.87775 4.82848 0
M  V30 1647 H 154.875 1.81923 1.09626 0
M  V30 1648 H 157.138 0.777934 0.541777 0
M  V30 1649 H 156.844 2.50689 2.46674 0
M  V30 1650 H 156.718 1.16314 3.58819 0
M  V30 1651 H 159.105 0.43069 2.9194 0
M  V30 1652 H 159.186 1.8071 1.81046 0
M  V30 1653 H 158.83 3.38881 3.78315 0
M  V30 1654 H 158.76 1.98487 4.87761 0
M  V30 1655 H 161.251 1.79006 3.32814 0
M  V30 1656 H 161.564 4.19932 6.4875 0
M  V30 1657 H 159.909 3.77073 5.83816 0
M  V30 1658 H 163.1 2.29116 4.08195 0
M  V30 1659 H 163.273 3.38961 5.52277 0
M  V30 1660 N 156.679 -1.44442 0.630414 0
M  V30 1661 C 157.927 -2.01653 0.134351 0
M  V30 1662 C 158.248 -1.49836 -1.24796 0
M  V30 1663 O 157.518 -0.701684 -1.82902 0
M  V30 1664 H 156.098 -0.74554 0.0466769 0
M  V30 1665 H 158.76 -1.76952 0.816955 0
M  V30 1666 H 157.856 -3.11935 0.101498 0
M  V30 1667 N 158.157 -0.370918 -1.53173 0
M  V30 1668 C 159.105 0.488101 -2.27421 0
M  V30 1669 C 160.099 1.07884 -1.30604 0
M  V30 1670 O 161.305 1.02143 -1.48212 0
M  V30 1671 H 157.68 0.176134 -0.731082 0
M  V30 1672 H 159.651 -0.159815 -2.97972 0
M  V30 1673 C 158.4 1.61306 -3.08019 0
M  V30 1674 H 157.723 1.1678 -3.82364 0
M  V30 1675 H 159.163 2.18872 -3.63141 0
M  V30 1676 C 157.622 2.55848 -2.19188 0
M  V30 1677 O 158.152 3.58799 -1.80626 0
M  V30 1678 N 156.358 2.2516 -1.83715 0
M  V30 1679 H 155.905 1.41476 -2.15273 0
M  V30 1680 H 155.863 2.8867 -1.24567 0
M  V30 1681 N 159.635 1.57281 -0.100228 0
M  V30 1682 C 160.86 1.99302 0.573881 0
M  V30 1683 C 161.285 0.979059 1.60611 0
M  V30 1684 O 160.643 -0.0517803 1.81226 0
M  V30 1685 C 160.691 3.40274 1.19358 0
M  V30 1686 O 159.795 3.41676 2.30935 0
M  V30 1687 H 159.136 0.647944 0.145138 0
M  V30 1688 H 161.666 2.03779 -0.183156 0
M  V30 1689 H 161.676 3.78078 1.53365 0
M  V30 1690 H 160.351 4.13594 0.437385 0
M  V30 1691 H 158.928 3.15672 1.98509 0
M  V30 1692 N 161.113 -0.173488 1.56642 0
M  V30 1693 C 162.076 -1.19859 1.95362 0
M  V30 1694 C 163.076 -1.37296 0.83704 0
M  V30 1695 O 164.266 -1.34739 1.10413 0
M  V30 1696 C 161.398 -2.56405 2.24654 0
M  V30 1697 H 162.591 -0.867062 2.87092 0
M  V30 1698 H 160.144 -0.415853 1.50666 0
M  V30 1699 H 160.879 -2.94576 1.35631 0
M  V30 1700 H 160.664 -2.45115 3.06041 0
M  V30 1701 H 162.154 -3.30287 2.5554 0
M  V30 1702 N 162.591 -1.51276 -0.441967 0
M  V30 1703 C 164.002 -1.56244 -1.02199 0
M  V30 1704 C 164.353 -0.383149 -1.92422 0
M  V30 1705 O 163.478 0.500613 -2.1053 0
M  V30 1706 C 164.073 -2.83162 -1.86024 0
M  V30 1707 C 162.632 -2.90716 -2.39084 0
M  V30 1708 C 161.779 -2.50858 -1.18175 0
M  V30 1709 H 164.73 -1.5712 -0.223416 0
M  V30 1710 H 164.751 -2.66663 -2.71425 0
M  V30 1711 H 164.263 -3.68974 -1.20331 0
M  V30 1712 H 162.364 -2.09323 -3.08244 0
M  V30 1713 H 162.477 -3.94266 -2.72198 0
M  V30 1714 H 160.841 -2.03951 -1.52565 0
M  V30 1715 H 161.624 -3.3901 -0.541001 0
M  V30 1716 N 164.069 0.697108 -1.41344 0
M  V30 1717 C 164.999 1.82353 -1.45841 0
M  V30 1718 C 165.98 1.67115 -0.317247 0
M  V30 1719 O 167.165 1.86871 -0.528474 0
M  V30 1720 C 164.295 3.20476 -1.33838 0
M  V30 1721 C 163.249 3.50415 -2.4575 0
M  V30 1722 C 162.575 4.87878 -2.18813 0
M  V30 1723 C 163.875 3.49546 -3.88091 0
M  V30 1724 H 165.569 1.78846 -2.40113 0
M  V30 1725 H 163.115 0.859028 -1.15571 0
M  V30 1726 H 165.068 3.98988 -1.35596 0
M  V30 1727 H 163.792 3.24604 -0.360498 0
M  V30 1728 H 162.451 2.74253 -2.43271 0
M  V30 1729 H 162.099 4.8863 -1.19371 0
M  V30 1730 H 161.799 5.08875 -2.93803 0
M  V30 1731 H 163.323 5.68702 -2.22284 0
M  V30 1732 H 164.737 4.18066 -3.92293 0
M  V30 1733 H 163.134 3.82075 -4.62751 0
M  V30 1734 H 164.204 2.48552 -4.16353 0
M  V30 1735 N 165.547 1.27147 0.931209 0
M  V30 1736 C 166.796 1.12664 1.67302 0
M  V30 1737 C 167.109 -0.327718 1.92835 0
M  V30 1738 O 168.315 -0.593392 2.64936 0
M  V30 1739 C 166.771 1.9683 3.01307 0
M  V30 1740 C 166.379 3.46901 2.83485 0
M  V30 1741 C 168.123 1.90985 3.79111 0
M  V30 1742 C 166.03 4.23279 4.13024 0
M  V30 1743 H 164.96 0.41803 0.627509 0
M  V30 1744 H 167.611 1.51539 1.03481 0
M  V30 1745 H 165.993 1.50797 3.66164 0
M  V30 1746 H 167.167 4.00773 2.27415 0
M  V30 1747 H 165.482 3.54088 2.19113 0
M  V30 1748 H 168.079 2.45328 4.75098 0
M  V30 1749 H 168.422 0.882718 4.06834 0
M  V30 1750 H 168.955 2.34895 3.21044 0
M  V30 1751 H 165.694 5.26503 3.90481 0
M  V30 1752 H 165.214 3.74186 4.6877 0
M  V30 1753 H 166.893 4.32265 4.81411 0
M  V30 1754 N 167.025 -1.13721 1.09112 0
M  V30 1755 C 168.274 -1.84275 0.82009 0
M  V30 1756 C 168.587 -1.84253 -0.656509 0
M  V30 1757 O 169.793 -2.50668 -1.04296 0
M  V30 1758 C 168.249 -3.30825 1.41714 0
M  V30 1759 C 167.857 -3.39244 2.92605 0
M  V30 1760 C 169.601 -4.06443 1.22492 0
M  V30 1761 C 167.508 -4.80047 3.45411 0
M  V30 1762 H 166.438 -0.690387 0.30312 0
M  V30 1763 H 169.089 -1.28146 1.31343 0
M  V30 1764 H 167.471 -3.86737 0.851498 0
M  V30 1765 H 168.645 -2.93344 3.55367 0
M  V30 1766 H 166.96 -2.77088 3.10823 0
M  V30 1767 H 169.557 -5.10387 1.59402 0
M  V30 1768 H 169.9 -4.15972 0.165299 0
M  V30 1769 H 170.433 -3.56852 1.75788 0
M  V30 1770 H 167.172 -4.75709 4.50978 0
M  V30 1771 H 166.692 -5.26455 2.87411 0
M  V30 1772 H 168.371 -5.48957 3.42425 0
M  V30 1773 N 168.503 -0.877838 -1.30888 0
M  V30 1774 C 169.919 -0.570844 -1.49042 0
M  V30 1775 C 170.119 0.893159 -1.80624 0
M  V30 1776 O 169.175 1.67485 -1.88958 0
M  V30 1777 C 170.488 -1.47784 -2.61878 0
M  V30 1778 C 172.036 -1.48071 -2.75761 0
M  V30 1779 C 172.511 -2.37347 -3.91702 0
M  V30 1780 N 174.002 -2.35271 -3.99001 0
M  V30 1781 C 174.737 -3.01063 -4.88004 0
M  V30 1782 N 174.233 -3.76055 -5.81854 0
M  V30 1783 N 176.026 -2.90332 -4.81315 0
M  V30 1784 H 168.177 -1.82502 -1.0866 0
M  V30 1785 H 170.44 -0.780797 -0.537644 0
M  V30 1786 H 170.146 -2.51993 -2.45341 0
M  V30 1787 H 170.02 -1.18215 -3.58197 0
M  V30 1788 H 172.407 -0.446166 -2.91708 0
M  V30 1789 H 172.488 -1.81668 -1.80085 0
M  V30 1790 H 172.132 -3.40883 -3.76512 0
M  V30 1791 H 172.062 -2.01071 -4.86701 0
M  V30 1792 H 174.553 -1.80768 -3.3186 0
M  V30 1793 H 174.866 -4.23366 -6.46514 0
M  V30 1794 H 173.211 -3.80163 -5.81808 0
M  V30 1795 H 176.402 -2.31278 -4.06974 0
M  V30 1796 H 176.575 -3.41885 -5.50471 0
M  V30 1797 N 169.982 1.44106 -0.638065 0
M  V30 1798 C 170.892 2.34513 0.0637334 0
M  V30 1799 C 171.908 1.53018 0.828346 0
M  V30 1800 O 173.084 1.85723 0.779036 0
M  V30 1801 C 170.149 3.31095 1.02844 0
M  V30 1802 C 169.21 4.28497 0.26244 0
M  V30 1803 C 168.443 5.20465 1.1812 0
M  V30 1804 O 168.666 5.16514 2.42011 0
M  V30 1805 O 167.6 5.98251 0.661774 0
M  V30 1806 H 171.426 2.95989 -0.68003 0
M  V30 1807 H 169.011 1.43994 -0.398252 0
M  V30 1808 H 170.893 3.90526 1.58327 0
M  V30 1809 H 169.568 2.72144 1.7527 0
M  V30 1810 H 168.475 3.72592 -0.335602 0
M  V30 1811 H 169.808 4.90388 -0.421936 0
M  V30 1812 N 171.46 0.379036 1.52974 0
M  V30 1813 C 172.871 -0.0972525 1.86447 0
M  V30 1814 C 173.222 -1.47027 1.29914 0
M  V30 1815 O 172.347 -2.07135 0.626433 0
M  V30 1816 C 172.942 -0.183248 3.38304 0
M  V30 1817 C 171.501 -0.603812 3.71525 0
M  V30 1818 C 170.648 0.240632 2.76254 0
M  V30 1819 H 173.599 0.597316 1.4703 0
M  V30 1820 H 173.62 -1.00432 3.67006 0
M  V30 1821 H 173.132 0.816191 3.79421 0
M  V30 1822 H 171.233 -1.61099 3.35973 0
M  V30 1823 H 171.346 -0.369086 4.77676 0
M  V30 1824 H 169.71 -0.292548 2.53014 0
M  V30 1825 H 170.493 1.23786 3.20206 0
M  V30 1826 N 172.938 -1.57226 0.108567 0
M  V30 1827 C 174.185 -1.94833 -0.551943 0
M  V30 1828 C 174.513 -0.991204 -1.67348 0
M  V30 1829 O 173.768 -0.0131878 -1.95696 0
M  V30 1830 C 174.067 -3.38911 -1.13463 0
M  V30 1831 C 173.733 -4.50696 -0.135509 0
M  V30 1832 C 172.395 -4.80998 0.139252 0
M  V30 1833 C 174.747 -5.18333 0.545957 0
M  V30 1834 C 172.075 -5.76259 1.10194 0
M  V30 1835 C 174.427 -6.14627 1.49721 0
M  V30 1836 C 173.091 -6.43327 1.78006 0
M  V30 1837 H 172.361 -0.712944 -0.20197 0
M  V30 1838 H 175.008 -1.90582 0.18726 0
M  V30 1839 H 173.313 -3.39805 -1.95037 0
M  V30 1840 H 175.01 -3.65317 -1.65362 0
M  V30 1841 H 171.6 -4.27087 -0.359846 0
M  V30 1842 H 175.784 -4.95087 0.346842 0
M  V30 1843 H 171.04 -5.96804 1.32795 0
M  V30 1844 H 175.214 -6.66126 2.03099 0
M  V30 1845 H 172.841 -7.1695 2.52759 0
M  V30 1846 N 174.416 0.165178 -1.56732 0
M  V30 1847 C 175.665 0.879143 -1.81532 0
M  V30 1848 C 175.978 1.83144 -0.686842 0
M  V30 1849 O 177.184 2.58823 -0.819944 0
M  V30 1850 C 175.64 1.61388 -3.21686 0
M  V30 1851 C 175.248 0.704904 -4.4242 0
M  V30 1852 C 176.992 2.3157 -3.55774 0
M  V30 1853 C 174.899 1.44022 -5.73595 0
M  V30 1854 H 173.829 0.332033 -0.676957 0
M  V30 1855 H 176.48 0.132008 -1.83025 0
M  V30 1856 H 174.862 2.40599 -3.14529 0
M  V30 1857 H 176.036 -0.0506815 -4.60772 0
M  V30 1858 H 174.351 0.112419 -4.16248 0
M  V30 1859 H 176.948 2.8719 -4.51028 0
M  V30 1860 H 177.291 3.07201 -2.8095 0
M  V30 1861 H 177.824 1.59297 -3.64513 0
M  V30 1862 H 174.563 0.72612 -6.51466 0
M  V30 1863 H 174.083 2.16898 -5.5921 0
M  V30 1864 H 175.762 1.98606 -6.15764 0
M  V30 1865 N 175.894 1.51508 0.433938 0
M  V30 1866 C 176.857 1.72473 1.50949 0
M  V30 1867 C 177.857 0.594725 1.49398 0
M  V30 1868 O 179.047 0.862315 1.5136 0
M  V30 1869 C 176.179 1.78431 2.90474 0
M  V30 1870 H 177.372 2.68467 1.33662 0
M  V30 1871 H 174.925 1.41549 0.662836 0
M  V30 1872 H 175.66 0.842645 3.13161 0
M  V30 1873 H 175.445 2.60558 2.93005 0
M  V30 1874 H 176.935 1.96479 3.68491 0
M  V30 1875 N 177.372 -0.689602 1.41712 0
M  V30 1876 C 178.612 -1.46184 1.42862 0
M  V30 1877 C 178.976 -1.91962 0.0382204 0
M  V30 1878 O 180.177 -2.68694 -0.0755019 0
M  V30 1879 C 178.448 -2.6371 2.4123 0
M  V30 1880 S 180.007 -3.52768 2.6096 0
M  V30 1881 H 176.825 -0.49947 0.506015 0
M  V30 1882 H 179.427 -0.804107 1.78198 0
M  V30 1883 H 178.131 -2.28293 3.41044 0
M  V30 1884 H 177.662 -3.3437 2.07269 0
M  V30 1885 H 179.677 -4.59146 1.88148 0
M  V30 1886 N 178.85 -1.27639 -0.924453 0
M  V30 1887 C 180.098 -1.13941 -1.66918 0
M  V30 1888 C 180.419 0.314589 -1.92446 0
M  V30 1889 O 179.689 1.21964 -1.53303 0
M  V30 1890 H 178.269 -0.418678 -0.618642 0
M  V30 1891 H 180.931 -1.60213 -1.10985 0
M  V30 1892 H 180.027 -1.67094 -2.63602 0
M  V30 1893 N 180.328 1.1314 -1.09713 0
M  V30 1894 C 181.739 1.66029 -0.853885 0
M  V30 1895 C 182.09 1.86241 0.617142 0
M  V30 1896 O 181.215 1.5834 1.47503 0
M  V30 1897 C 181.81 3.01599 -1.5435 0
M  V30 1898 C 180.369 3.51467 -1.34714 0
M  V30 1899 C 179.516 2.26648 -1.59769 0
M  V30 1900 H 182.467 0.970226 -1.25588 0
M  V30 1901 H 182.488 3.67709 -0.978267 0
M  V30 1902 H 182 2.86856 -2.6141 0
M  V30 1903 H 180.101 3.71408 -0.297838 0
M  V30 1904 H 180.214 4.314 -2.08401 0
M  V30 1905 H 178.578 2.33385 -1.01998 0
M  V30 1906 H 179.361 2.14467 -2.68065 0
M  V30 1907 N 181.806 0.884767 1.30421 0
M  V30 1908 C 182.753 0.349642 2.28136 0
M  V30 1909 C 183.723 -0.560061 1.56373 0
M  V30 1910 O 184.908 -0.488524 1.8444 0
M  V30 1911 C 182.048 -0.42999 3.42411 0
M  V30 1912 C 181.161 0.508907 4.28992 0
M  V30 1913 C 180.296 -0.286301 5.30428 0
M  V30 1914 C 179.335 0.648079 6.08659 0
M  V30 1915 N 178.472 -0.111792 7.02011 0
M  V30 1916 H 183.312 1.18807 2.73293 0
M  V30 1917 H 180.849 0.597231 1.3443 0
M  V30 1918 H 182.807 -0.897923 4.07423 0
M  V30 1919 H 181.437 -1.23299 2.98324 0
M  V30 1920 H 180.489 1.09533 3.64289 0
M  V30 1921 H 181.801 1.22475 4.8353 0
M  V30 1922 H 180.955 -0.816098 6.01186 0
M  V30 1923 H 179.694 -1.03536 4.76583 0
M  V30 1924 H 178.699 1.18951 5.36778 0
M  V30 1925 H 179.924 1.39623 6.64592 0
M  V30 1926 H 177.87 -0.843395 6.50556 0
M  V30 1927 H 177.787 0.544429 7.54037 0
M  V30 1928 H 179.055 -0.622339 7.77012 0
M  V30 1929 N 183.284 -1.43765 0.645699 0
M  V30 1930 C 184.194 -2.34544 -0.0512957 0
M  V30 1931 C 185.21 -1.53455 -0.82022 0
M  V30 1932 O 186.386 -1.86133 -0.769176 0
M  V30 1933 C 183.451 -3.31636 -1.01087 0
M  V30 1934 C 182.512 -4.2863 -0.239712 0
M  V30 1935 C 181.745 -5.21084 -1.15358 0
M  V30 1936 O 181.968 -5.1779 -2.39269 0
M  V30 1937 O 180.902 -5.98593 -0.630038 0
M  V30 1938 H 184.728 -2.95624 0.695718 0
M  V30 1939 H 182.313 -1.43781 0.405882 0
M  V30 1940 H 184.195 -3.9136 -1.56254 0
M  V30 1941 H 182.87 -2.73069 -1.73824 0
M  V30 1942 H 181.777 -3.72408 0.355356 0
M  V30 1943 H 183.11 -4.90157 0.447936 0
M  V30 1944 N 184.763 -0.387143 -1.52771 0
M  V30 1945 C 186.003 0.195537 -2.03463 0
M  V30 1946 C 186.367 1.44222 -1.26744 0
M  V30 1947 O 187.568 2.10192 -1.67549 0
M  V30 1948 C 185.839 0.459097 -3.54439 0
M  V30 1949 S 187.398 1.01237 -4.26962 0
M  V30 1950 H 184.216 0.0552675 -0.708849 0
M  V30 1951 H 186.818 -0.534992 -1.88037 0
M  V30 1952 H 185.522 -0.455382 -4.07866 0
M  V30 1953 H 185.053 1.21811 -3.74066 0
M  V30 1954 H 187.068 2.29492 -4.39941 0
M  V30 1955 N 186.241 1.57166 -0.116904 0
M  V30 1956 C 187.188 2.15202 0.83408 0
M  V30 1957 C 188.158 1.07644 1.26499 0
M  V30 1958 O 189.343 1.35541 1.34288 0
M  V30 1959 C 186.483 2.75405 2.07957 0
M  V30 1960 C 185.596 3.97264 1.69721 0
M  V30 1961 C 184.731 4.45561 2.89221 0
M  V30 1962 C 183.77 5.59956 2.47215 0
M  V30 1963 N 182.907 6.03006 3.59622 0
M  V30 1964 H 187.747 2.96141 0.332335 0
M  V30 1965 H 185.284 1.46309 0.152349 0
M  V30 1966 H 187.242 3.08439 2.80929 0
M  V30 1967 H 185.872 1.97159 2.55594 0
M  V30 1968 H 184.924 3.70404 0.866316 0
M  V30 1969 H 186.236 4.80226 1.34849 0
M  V30 1970 H 185.39 4.80493 3.7042 0
M  V30 1971 H 184.129 3.61544 3.27318 0
M  V30 1972 H 183.134 5.2463 1.64448 0
M  V30 1973 H 184.359 6.45738 2.10238 0
M  V30 1974 H 182.305 5.21931 3.97396 0
M  V30 1975 H 182.222 6.80819 3.28667 0
M  V30 1976 H 183.49 6.42576 4.41267 0
M  V30 1977 N 187.719 -0.156864 1.56817 0
M  V30 1978 C 188.669 -1.19891 1.93934 0
M  V30 1979 C 189.653 -1.39061 0.809372 0
M  V30 1980 O 190.845 -1.40789 1.07273 0
M  V30 1981 C 187.974 -2.53493 2.31508 0
M  V30 1982 C 187.06 -2.37957 3.51052 0
M  V30 1983 N 187.451 -1.92158 4.67877 0
M  V30 1984 C 185.749 -2.68739 3.55943 0
M  V30 1985 C 186.45 -1.8943 5.49992 0
M  V30 1986 N 185.426 -2.32375 4.91429 0
M  V30 1987 H 189.228 -0.836746 2.81737 0
M  V30 1988 H 186.742 -0.365012 1.58245 0
M  V30 1989 H 188.739 -3.28811 2.56299 0
M  V30 1990 H 187.399 -2.905 1.45051 0
M  V30 1991 H 188.41 -1.62274 4.91821 0
M  V30 1992 H 185.087 -3.09687 2.80001 0
M  V30 1993 H 186.477 -1.55596 6.53636 0
M  V30 1994 N 189.197 -1.51736 -0.425897 0
M  V30 1995 C 190.444 -1.6497 -1.17436 0
M  V30 1996 C 190.772 -0.371445 -1.9092 0
M  V30 1997 O 190.027 0.644963 -1.84767 0
M  V30 1998 C 190.326 -2.81103 -2.20717 0
M  V30 1999 C 189.992 -4.19954 -1.64162 0
M  V30 2000 C 188.654 -4.57725 -1.48462 0
M  V30 2001 C 191.006 -5.06552 -1.22696 0
M  V30 2002 C 188.334 -5.79789 -0.897873 0
M  V30 2003 C 190.686 -6.29205 -0.654464 0
M  V30 2004 C 189.35 -6.6574 -0.484456 0
M  V30 2005 H 188.62 -0.603668 -0.429727 0
M  V30 2006 H 191.267 -1.85798 -0.463829 0
M  V30 2007 H 189.572 -2.54542 -2.97852 0
M  V30 2008 H 191.269 -2.8854 -2.78471 0
M  V30 2009 H 187.859 -3.90181 -1.77361 0
M  V30 2010 H 192.043 -4.77968 -1.33642 0
M  V30 2011 H 187.299 -6.06733 -0.75402 0
M  V30 2012 H 191.473 -6.95643 -0.324694 0
M  V30 2013 H 189.1 -7.60195 -0.0276833 0
M  V30 2014 N 190.675 0.682077 -1.42076 0
M  V30 2015 C 191.638 1.77756 -1.44691 0
M  V30 2016 C 192.638 1.5726 -0.335535 0
M  V30 2017 O 193.828 1.63686 -0.596037 0
M  V30 2018 C 190.96 3.16301 -1.27146 0
M  V30 2019 H 192.153 1.76826 -2.42224 0
M  V30 2020 H 189.706 0.891012 -1.28416 0
M  V30 2021 H 190.441 3.22862 -0.305075 0
M  V30 2022 H 190.226 3.32581 -2.07683 0
M  V30 2023 H 191.716 3.96241 -1.31843 0
M  V30 2024 N 192.153 1.28127 0.917671 0
M  V30 2025 C 193.083 1.14248 2.03641 0
M  V30 2026 C 194.064 0.0412748 1.7005 0
M  V30 2027 O 195.249 0.217566 1.92977 0
M  V30 2028 C 192.379 0.799431 3.37974 0
M  V30 2029 C 191.333 1.85497 3.85713 0
M  V30 2030 C 190.659 1.36565 5.16966 0
M  V30 2031 C 191.959 3.26085 4.08002 0
M  V30 2032 H 193.653 2.07835 2.15511 0
M  V30 2033 H 191.199 1.00064 1.03553 0
M  V30 2034 H 193.152 0.689114 4.15727 0
M  V30 2035 H 191.876 -0.172145 3.26146 0
M  V30 2036 H 190.535 1.95437 3.10161 0
M  V30 2037 H 190.183 0.383253 5.01538 0
M  V30 2038 H 189.883 2.07143 5.49878 0
M  V30 2039 H 191.407 1.26848 5.97279 0
M  V30 2040 H 192.821 3.19089 4.76293 0
M  V30 2041 H 191.218 3.94462 4.52238 0
M  V30 2042 H 192.288 3.70394 3.12948 0
M  V30 2043 N 193.631 -1.12557 1.10312 0
M  V30 2044 C 194.859 -1.87864 0.866873 0
M  V30 2045 C 195.274 -1.79588 -0.582557 0
M  V30 2046 O 194.631 -1.16887 -1.40156 0
M  V30 2047 C 194.682 -3.37125 1.30496 0
M  V30 2048 O 194.403 -3.45201 2.69755 0
M  V30 2049 C 195.904 -4.29373 1.10243 0
M  V30 2050 H 193.124 -0.594452 0.311236 0
M  V30 2051 H 195.668 -1.42429 1.46745 0
M  V30 2052 H 193.823 -3.80109 0.748081 0
M  V30 2053 H 194.237 -4.38056 2.88457 0
M  V30 2054 H 195.711 -5.32394 1.45811 0
M  V30 2055 H 196.188 -4.39181 0.0409492 0
M  V30 2056 H 196.794 -3.92169 1.64571 0
M  V30 2057 N 195.109 -0.891671 -1.2995 0
M  V30 2058 C 196.059 -0.334811 -2.25528 0
M  V30 2059 C 197.043 0.540553 -1.51548 0
M  V30 2060 O 198.235 0.383882 -1.72787 0
M  V30 2061 C 195.364 0.44374 -3.4042 0
M  V30 2062 C 194.45 -0.44609 -4.21747 0
M  V30 2063 N 194.841 -1.54963 -4.81477 0
M  V30 2064 C 193.139 -0.242415 -4.45341 0
M  V30 2065 C 193.84 -2.10015 -5.42465 0
M  V30 2066 N 192.816 -1.39423 -5.25416 0
M  V30 2067 H 196.618 -1.17792 -2.69262 0
M  V30 2068 H 194.132 -0.741822 -1.44467 0
M  V30 2069 H 196.129 0.859362 -4.07947 0
M  V30 2070 H 194.789 1.28421 -2.98225 0
M  V30 2071 H 195.8 -1.93244 -4.80497 0
M  V30 2072 H 192.477 0.560342 -4.13723 0
M  V30 2073 H 193.867 -3.02724 -5.9984 0
M  V30 2074 N 196.587 1.43421 -0.653314 0
M  V30 2075 C 197.817 2.05864 -0.174238 0
M  V30 2076 C 198.225 1.49052 1.16534 0
M  V30 2077 O 197.568 0.616481 1.73047 0
M  V30 2078 C 197.63 3.59499 -0.00875873 0
M  V30 2079 C 197.294 4.38893 -1.27364 0
M  V30 2080 C 198.291 4.70947 -2.20239 0
M  V30 2081 C 195.976 4.789 -1.51525 0
M  V30 2082 C 197.97 5.41916 -3.35568 0
M  V30 2083 C 195.657 5.49614 -2.67147 0
M  V30 2084 C 196.655 5.81044 -3.58994 0
M  V30 2085 O 196.343 6.50313 -4.72597 0
M  V30 2086 H 196.075 0.670345 -0.0872549 0
M  V30 2087 H 198.629 1.84913 -0.894226 0
M  V30 2088 H 196.859 3.79025 0.7666 0
M  V30 2089 H 198.548 4.0364 0.427687 0
M  V30 2090 H 199.314 4.40558 -2.02815 0
M  V30 2091 H 195.193 4.53843 -0.809158 0
M  V30 2092 H 198.737 5.66365 -4.07279 0
M  V30 2093 H 194.634 5.79419 -2.84505 0
M  V30 2094 H 195.402 6.68795 -4.71864 0
M  V30 2095 N 198.065 0.39524 1.52563 0
M  V30 2096 C 199.028 -0.425001 2.25225 0
M  V30 2097 C 200.028 -0.985266 1.27079 0
M  V30 2098 O 201.218 -0.866332 1.5113 0
M  V30 2099 C 198.35 -1.59686 3.01186 0
M  V30 2100 H 199.543 0.211233 2.99155 0
M  V30 2101 H 197.096 0.147472 1.55603 0
M  V30 2102 H 197.831 -2.27035 2.31572 0
M  V30 2103 H 197.616 -1.20176 3.73229 0
M  V30 2104 H 199.106 -2.17743 3.5634 0
M  V30 2105 N 199.544 -1.57102 0.125237 0
M  V30 2106 C 200.507 -2.14471 -0.80838 0
M  V30 2107 C 201.507 -1.0811 -1.19033 0
M  V30 2108 O 202.697 -1.33856 -1.11482 0
M  V30 2109 C 199.829 -2.69005 -2.09402 0
M  V30 2110 H 201.022 -2.98297 -0.309696 0
M  V30 2111 H 198.575 -1.55807 -0.124051 0
M  V30 2112 H 199.31 -1.88785 -2.63687 0
M  V30 2113 H 199.095 -3.46799 -1.82957 0
M  V30 2114 H 200.585 -3.13278 -2.76128 0
M  V30 2115 N 201.022 0.148545 -1.56898 0
M  V30 2116 C 201.954 1.20852 -1.9475 0
M  V30 2117 C 202.967 1.39265 -0.843152 0
M  V30 2118 O 204.156 1.38864 -1.12156 0
M  V30 2119 C 201.256 2.57362 -2.20495 0
M  V30 2120 C 200.429 2.59947 -3.51776 0
M  V30 2121 C 199.488 3.77984 -3.6608 0
M  V30 2122 O 198.514 3.62929 -4.38487 0
M  V30 2123 N 199.716 4.95375 -3.02629 0
M  V30 2124 H 202.481 0.886804 -2.86279 0
M  V30 2125 H 200.042 0.338121 -1.5833 0
M  V30 2126 H 202.034 3.34833 -2.27307 0
M  V30 2127 H 200.604 2.81832 -1.35238 0
M  V30 2128 H 199.824 1.68403 -3.56419 0
M  V30 2129 H 201.112 2.58704 -4.38121 0
M  V30 2130 H 200.51 5.10509 -2.43715 0
M  V30 2131 H 199.067 5.70627 -3.15004 0
M  V30 2132 N 202.5 1.5196 0.417844 0
M  V30 2133 C 203.911 1.57851 0.997 0
M  V30 2134 C 204.262 0.413714 1.91789 0
M  V30 2135 O 203.387 -0.467057 2.113 0
M  V30 2136 C 203.982 2.86085 1.81496 0
M  V30 2137 C 202.541 2.94483 2.34428 0
M  V30 2138 C 201.688 2.52707 1.14169 0
M  V30 2139 H 204.639 1.57455 0.198392 0
M  V30 2140 H 204.66 2.70947 2.67148 0
M  V30 2141 H 204.172 3.70842 1.14446 0
M  V30 2142 H 202.273 2.142 3.04875 0
M  V30 2143 H 202.386 3.98546 2.65891 0
M  V30 2144 H 200.75 2.06353 1.49301 0
M  V30 2145 H 201.533 3.39828 0.486999 0
M  V30 2146 N 203.978 -0.674533 1.42435 0
M  V30 2147 C 205.226 -1.43175 1.42637 0
M  V30 2148 C 205.547 -1.94951 0.0438992 0
M  V30 2149 O 204.817 -1.7308 -0.917607 0
M  V30 2150 H 203.397 -0.531307 0.525092 0
M  V30 2151 H 206.059 -0.797006 1.77859 0
M  V30 2152 H 205.155 -2.28463 2.12629 0
M  V30 2153 N 205.456 -1.28612 -0.910864 0
M  V30 2154 C 206.704 -1.15705 -1.65701 0
M  V30 2155 C 207.025 0.29416 -1.92769 0
M  V30 2156 O 206.295 1.20331 -1.54588 0
M  V30 2157 H 204.875 -0.425216 -0.614167 0
M  V30 2158 H 207.537 -1.61381 -1.0928 0
M  V30 2159 H 206.633 -1.6988 -2.61815 0
M  V30 2160 N 206.934 1.1197 -1.10907 0
M  V30 2161 C 208.164 1.8713 -0.875553 0
M  V30 2162 C 208.572 1.8016 0.577843 0
M  V30 2163 O 207.915 1.17699 1.41042 0
M  V30 2164 C 207.977 3.37005 -1.2517 0
M  V30 2165 C 207.641 3.67748 -2.71313 0
M  V30 2166 C 208.638 3.65698 -3.69542 0
M  V30 2167 C 206.323 3.96928 -3.07821 0
M  V30 2168 C 208.317 3.92395 -5.023 0
M  V30 2169 C 206.004 4.23284 -4.40765 0
M  V30 2170 C 207.002 4.21005 -5.37814 0
M  V30 2171 O 206.69 4.46704 -6.68364 0
M  V30 2172 H 206.422 0.598786 -0.313737 0
M  V30 2173 H 208.976 1.42568 -1.47863 0
M  V30 2174 H 207.206 3.82146 -0.591741 0
M  V30 2175 H 208.895 3.93519 -0.994877 0
M  V30 2176 H 209.661 3.43211 -3.42682 0
M  V30 2177 H 205.54 3.97841 -2.32902 0
M  V30 2178 H 209.084 3.90531 -5.78041 0
M  V30 2179 H 204.981 4.45246 -4.67361 0
M  V30 2180 H 205.749 4.64299 -6.74069 0
M  V30 2181 N 208.412 0.89855 1.29475 0
M  V30 2182 C 209.642 0.538479 1.99459 0
M  V30 2183 C 210.05 -0.880922 1.67441 0
M  V30 2184 O 209.393 -1.59283 0.915127 0
M  V30 2185 C 209.455 0.649564 3.53583 0
M  V30 2186 C 209.119 2.03573 4.09154 0
M  V30 2187 C 210.116 3.00675 4.24135 0
M  V30 2188 C 207.801 2.3448 4.44212 0
M  V30 2189 C 209.795 4.26809 4.73405 0
M  V30 2190 C 207.482 3.60857 4.93179 0
M  V30 2191 C 208.48 4.56836 5.0773 0
M  V30 2192 O 208.168 5.80969 5.55635 0
M  V30 2193 H 207.9 0.205372 0.644048 0
M  V30 2194 H 210.454 1.20958 1.66007 0
M  V30 2195 H 208.684 -0.0785592 3.8662 0
M  V30 2196 H 210.373 0.29881 4.04799 0
M  V30 2197 H 211.139 2.78112 3.97339 0
M  V30 2198 H 207.018 1.60534 4.32145 0
M  V30 2199 H 210.562 5.0173 4.84678 0
M  V30 2200 H 206.459 3.83251 5.19412 0
M  V30 2201 H 207.227 5.83542 5.73952 0
M  V30 2202 N 209.89 -1.43072 0.660911 0
M  V30 2203 C 210.838 -2.32569 -0.0378199 0
M  V30 2204 C 211.832 -1.49046 -0.805092 0
M  V30 2205 O 213.038 -1.65206 -0.714624 0
M  V30 2206 H 209.413 -0.75136 -0.031019 0
M  V30 2207 H 211.384 -2.89216 0.734609 0
M  V30 2208 C 210.133 -3.33453 -0.985124 0
M  V30 2209 H 209.456 -3.97752 -0.404147 0
M  V30 2210 H 210.896 -3.98691 -1.44297 0
M  V30 2211 C 209.355 -2.64642 -2.08486 0
M  V30 2212 O 209.885 -2.46776 -3.16961 0
M  V30 2213 N 208.091 -2.23891 -1.8526 0
M  V30 2214 H 207.638 -2.38621 -0.970449 0
M  V30 2215 H 207.596 -1.78181 -2.59034 0
M  V30 2216 N 211.368 -0.403325 -1.52352 0
M  V30 2217 C 212.616 0.174003 -2.0135 0
M  V30 2218 C 212.937 1.46139 -1.29106 0
M  V30 2219 O 212.207 1.91448 -0.415253 0
M  V30 2220 H 210.787 0.0672911 -0.743963 0
M  V30 2221 H 213.449 -0.538235 -1.87321 0
M  V30 2222 H 212.545 0.374254 -3.09848 0
M  V30 2223 N 212.846 1.57033 -0.133567 0
M  V30 2224 C 214.074 2.00044 0.528195 0
M  V30 2225 C 214.489 1.01349 1.59291 0
M  V30 2226 O 213.846 0.00848369 1.82498 0
M  V30 2227 C 213.897 3.43018 1.1411 0
M  V30 2228 O 213.618 4.37939 0.11892 0
M  V30 2229 C 215.119 4.01237 1.88477 0
M  V30 2230 H 212.339 0.656517 0.138661 0
M  V30 2231 H 214.883 2.03267 -0.224196 0
M  V30 2232 H 213.038 3.40688 1.84418 0
M  V30 2233 H 213.452 5.21436 0.56613 0
M  V30 2234 H 214.926 5.03314 2.26669 0
M  V30 2235 H 215.403 3.41193 2.76558 0
M  V30 2236 H 216.009 4.07156 1.22898 0
M  V30 2237 N 214.325 -0.140222 1.56975 0
M  V30 2238 C 215.741 -0.493088 1.51792 0
M  V30 2239 C 215.941 -1.83013 0.843116 0
M  V30 2240 O 214.997 -2.49041 0.416493 0
M  V30 2241 C 216.31 -0.497144 2.96562 0
M  V30 2242 C 217.858 -0.582186 3.07538 0
M  V30 2243 C 218.333 -0.616838 4.53827 0
M  V30 2244 N 219.824 -0.678873 4.58198 0
M  V30 2245 C 220.559 -0.726782 5.68775 0
M  V30 2246 N 220.055 -0.733623 6.88905 0
M  V30 2247 N 221.848 -0.768179 5.56826 0
M  V30 2248 H 213.999 0.736108 1.99237 0
M  V30 2249 H 216.262 0.269182 0.90898 0
M  V30 2250 H 215.968 0.417217 3.49217 0
M  V30 2251 H 215.842 -1.33263 3.52875 0
M  V30 2252 H 218.229 -1.48697 2.54899 0
M  V30 2253 H 218.31 0.280581 2.54257 0
M  V30 2254 H 217.954 0.283812 5.07106 0
M  V30 2255 H 217.884 -1.49619 5.04898 0
M  V30 2256 H 220.375 -0.68061 3.7172 0
M  V30 2257 H 220.688 -0.772215 7.68932 0
M  V30 2258 H 219.033 -0.701389 6.91452 0
M  V30 2259 H 222.224 -0.760051 4.61888 0
M  V30 2260 H 222.397 -0.80205 6.43017 0
M  V30 2261 N 215.803 -1.52179 -0.40978 0
M  V30 2262 C 216.713 -1.78364 -1.52392 0
M  V30 2263 C 217.729 -0.669183 -1.60617 0
M  V30 2264 O 218.905 -0.954518 -1.77344 0
M  V30 2265 C 215.97 -1.92822 -2.88133 0
M  V30 2266 C 215.031 -3.16725 -2.898 0
M  V30 2267 C 214.264 -3.30483 -4.19067 0
M  V30 2268 O 214.487 -2.49522 -5.12928 0
M  V30 2269 O 213.421 -4.2363 -4.27576 0
M  V30 2270 H 217.247 -2.72931 -1.33201 0
M  V30 2271 H 214.832 -1.37016 -0.59557 0
M  V30 2272 H 216.714 -2.04157 -3.68643 0
M  V30 2273 H 215.389 -1.01444 -3.07393 0
M  V30 2274 H 214.296 -3.10848 -2.08146 0
M  V30 2275 H 215.629 -4.07881 -2.75489 0
M  V30 2276 N 217.281 0.66697 -1.42791 0
M  V30 2277 C 218.558 1.4234 -1.34159 0
M  V30 2278 C 218.938 2.11093 0.0172729 0
M  V30 2279 O 218.286 2.03808 1.03318 0
M  V30 2280 C 218.496 2.41942 -2.51526 0
M  V30 2281 C 219.844 3.06353 -2.93995 0
M  V30 2282 O 220.868 2.52269 -2.51473 0
M  V30 2283 O 219.727 4.04376 -3.67617 0
M  V30 2284 H 216.821 0.635277 -0.529483 0
M  V30 2285 H 219.367 0.695034 -1.54814 0
M  V30 2286 H 218.139 1.89991 -3.42081 0
M  V30 2287 H 217.762 3.22249 -2.32898 0
M  V30 2288 N 218.759 1.29093 0.90403 0
M  V30 2289 C 220.175 1.07011 1.1841 0
M  V30 2290 C 220.375 -0.181358 2.00682 0
M  V30 2291 O 219.431 -0.880331 2.36657 0
M  V30 2292 C 220.744 2.32311 1.90924 0
M  V30 2293 C 222.292 2.37587 2.03768 0
M  V30 2294 C 222.767 3.62679 2.79693 0
M  V30 2295 N 224.258 3.63376 2.87249 0
M  V30 2296 C 224.993 4.56848 3.46522 0
M  V30 2297 N 224.489 5.60648 4.06996 0
M  V30 2298 N 226.282 4.44426 3.44154 0
M  V30 2299 H 218.433 2.09412 0.354993 0
M  V30 2300 H 220.696 0.922181 0.219742 0
M  V30 2301 H 220.402 3.23536 1.37905 0
M  V30 2302 H 220.276 2.39483 2.91424 0
M  V30 2303 H 222.663 1.46853 2.55965 0
M  V30 2304 H 222.744 2.34403 1.02415 0
M  V30 2305 H 222.388 4.53762 2.28173 0
M  V30 2306 H 222.318 3.63119 3.81381 0
M  V30 2307 H 224.809 2.88321 2.44293 0
M  V30 2308 H 225.122 6.28101 4.50232 0
M  V30 2309 H 223.467 5.64463 4.05471 0
M  V30 2310 H 226.658 3.62529 2.96126 0
M  V30 2311 H 226.831 5.17457 3.90054 0
M  V30 2312 N 220.237 -1.11381 1.11499 0
M  V30 2313 C 221.185 -2.19522 0.768956 0
M  V30 2314 C 222.179 -1.67693 -0.239857 0
M  V30 2315 O 223.385 -1.79727 -0.0990755 0
M  V30 2316 H 219.76 -0.715711 0.230786 0
M  V30 2317 H 221.731 -2.45954 1.68964 0
M  V30 2318 C 220.48 -3.46945 0.229073 0
M  V30 2319 H 219.803 -3.8718 0.996596 0
M  V30 2320 H 221.243 -4.23993 0.0251441 0
M  V30 2321 C 219.702 -3.2042 -1.04079 0
M  V30 2322 O 220.232 -3.41178 -2.12038 0
M  V30 2323 N 218.438 -2.74151 -0.963823 0
M  V30 2324 H 217.985 -2.57459 -0.0851722 0
M  V30 2325 H 217.943 -2.56781 -1.81414 0
M  V30 2326 N 221.715 -0.905404 -1.28997 0
M  V30 2327 C 222.662 -0.385892 -2.27551 0
M  V30 2328 C 223.632 0.535113 -1.57244 0
M  V30 2329 O 224.817 0.459119 -1.85194 0
M  V30 2330 C 221.957 0.375461 -3.43051 0
M  V30 2331 C 221.07 -0.577092 -4.28128 0
M  V30 2332 C 220.205 0.201879 -5.30816 0
M  V30 2333 C 219.244 -0.744829 -6.07551 0
M  V30 2334 N 218.381 9.42587e-05 -7.021 0
M  V30 2335 H 223.221 -1.23139 -2.71368 0
M  V30 2336 H 220.758 -0.618542 -1.33463 0
M  V30 2337 H 222.716 0.832992 -4.088 0
M  V30 2338 H 221.346 1.18537 -3.00248 0
M  V30 2339 H 220.398 -1.15315 -3.62501 0
M  V30 2340 H 221.71 -1.30152 -4.8152 0
M  V30 2341 H 220.864 0.720351 -6.02408 0
M  V30 2342 H 219.603 0.959413 -4.7817 0
M  V30 2343 H 218.608 -1.27475 -5.34818 0
M  V30 2344 H 219.833 -1.50178 -6.62286 0
M  V30 2345 H 217.779 0.739791 -6.51815 0
M  V30 2346 H 217.696 -0.664321 -7.53076 0
M  V30 2347 H 218.964 0.498644 -7.77903 0
M  V30 2348 N 223.193 1.4272 -0.668489 0
M  V30 2349 C 224.123 2.335 -0.000100175 0
M  V30 2350 C 225.104 1.50328 0.795964 0
M  V30 2351 O 226.289 1.78949 0.754385 0
M  V30 2352 C 223.419 3.33874 0.956302 0
M  V30 2353 C 222.373 4.27152 0.269278 0
M  V30 2354 C 221.699 5.17684 1.33818 0
M  V30 2355 C 222.999 5.15373 -0.847805 0
M  V30 2356 H 224.693 2.89639 -0.758244 0
M  V30 2357 H 222.239 1.39269 -0.366079 0
M  V30 2358 H 224.192 3.9629 1.43292 0
M  V30 2359 H 222.916 2.76025 1.74579 0
M  V30 2360 H 221.575 3.66123 -0.187042 0
M  V30 2361 H 221.223 4.56165 2.1195 0
M  V30 2362 H 220.923 5.80918 0.883659 0
M  V30 2363 H 222.447 5.82974 1.81586 0
M  V30 2364 H 223.861 5.7151 -0.452681 0
M  V30 2365 H 222.258 5.87407 -1.22773 0
M  V30 2366 H 223.328 4.5415 -1.69929 0
M  V30 2367 N 224.671 0.411399 1.52136 0
M  V30 2368 C 226.087 0.0623865 1.59478 0
M  V30 2369 C 226.287 -1.42554 1.4241 0
M  V30 2370 O 225.343 -2.19263 1.2522 0
M  V30 2371 C 226.656 0.559331 2.95452 0
M  V30 2372 C 228.204 0.517503 3.08692 0
M  V30 2373 C 228.679 0.990994 4.4715 0
M  V30 2374 N 230.17 0.947908 4.53397 0
M  V30 2375 C 230.905 1.28544 5.58806 0
M  V30 2376 N 230.401 1.69454 6.71757 0
M  V30 2377 N 232.194 1.20526 5.49026 0
M  V30 2378 H 224.345 1.37982 1.61477 0
M  V30 2379 H 226.608 0.566977 0.759764 0
M  V30 2380 H 226.314 1.59938 3.1323 0
M  V30 2381 H 226.188 -0.0298014 3.77188 0
M  V30 2382 H 228.575 -0.513505 2.90598 0
M  V30 2383 H 228.656 1.14272 2.28857 0
M  V30 2384 H 228.3 2.02034 4.65988 0
M  V30 2385 H 228.23 0.34257 5.25485 0
M  V30 2386 H 230.721 0.647157 3.72317 0
M  V30 2387 H 231.034 1.93513 7.48179 0
M  V30 2388 H 229.379 1.73359 6.73032 0
M  V30 2389 H 232.57 0.884505 4.59667 0
M  V30 2390 H 232.743 1.47161 6.31069 0
M  V30 2391 N 226.149 -1.5696 0.141893 0
M  V30 2392 C 227.099 -2.13074 -0.811383 0
M  V30 2393 C 228.083 -1.05726 -1.21288 0
M  V30 2394 O 229.275 -1.31914 -1.18015 0
M  V30 2395 C 226.404 -2.75186 -2.0525 0
M  V30 2396 C 225.49 -3.8965 -1.67432 0
M  V30 2397 N 225.881 -4.95733 -1.0041 0
M  V30 2398 C 224.179 -4.00262 -1.96739 0
M  V30 2399 C 224.88 -5.75858 -0.822345 0
M  V30 2400 N 223.856 -5.26452 -1.3546 0
M  V30 2401 H 227.658 -2.92465 -0.290031 0
M  V30 2402 H 225.172 -1.6229 -0.0598218 0
M  V30 2403 H 227.169 -3.13745 -2.74535 0
M  V30 2404 H 225.829 -1.97266 -2.57907 0
M  V30 2405 H 226.84 -5.13607 -0.665441 0
M  V30 2406 H 223.517 -3.33412 -2.51282 0
M  V30 2407 H 224.907 -6.71254 -0.294496 0
M  V30 2408 N 227.627 0.131896 -1.57047 0
M  V30 2409 C 228.557 1.16384 -2.02428 0
M  V30 2410 C 229.538 1.43936 -0.90644 0
M  V30 2411 O 230.723 1.54599 -1.17528 0
M  V30 2412 C 227.853 2.49328 -2.4177 0
M  V30 2413 C 226.807 2.36266 -3.56879 0
M  V30 2414 C 226.133 3.74057 -3.8208 0
M  V30 2415 C 227.433 1.834 -4.89042 0
M  V30 2416 H 229.127 0.786433 -2.88887 0
M  V30 2417 H 226.673 0.376855 -1.38981 0
M  V30 2418 H 228.626 3.21759 -2.7212 0
M  V30 2419 H 227.35 2.88934 -1.52266 0
M  V30 2420 H 226.009 1.66286 -3.26718 0
M  V30 2421 H 225.657 4.11125 -2.89803 0
M  V30 2422 H 225.357 3.66174 -4.59554 0
M  V30 2423 H 226.881 4.48012 -4.1487 0
M  V30 2424 H 228.295 2.45636 -5.18011 0
M  V30 2425 H 226.692 1.8637 -5.70426 0
M  V30 2426 H 227.762 0.790662 -4.7841 0
M  V30 2427 N 229.106 1.52395 0.401703 0
M  V30 2428 C 230.355 1.66044 1.14509 0
M  V30 2429 C 230.668 0.400216 1.91462 0
M  V30 2430 O 231.874 0.416632 2.68284 0
M  V30 2431 C 230.33 2.93388 2.0845 0
M  V30 2432 C 229.938 4.26545 1.36978 0
M  V30 2433 C 231.682 3.16402 2.83001 0
M  V30 2434 C 229.589 5.45007 2.29611 0
M  V30 2435 H 228.519 0.618562 0.431158 0
M  V30 2436 H 231.17 1.78886 0.40892 0
M  V30 2437 H 229.552 2.74263 2.8565 0
M  V30 2438 H 230.726 4.56179 0.650916 0
M  V30 2439 H 229.041 4.09692 0.74438 0
M  V30 2440 H 231.638 4.02085 3.52465 0
M  V30 2441 H 231.981 2.30943 3.46368 0
M  V30 2442 H 232.514 3.36034 2.12898 0
M  V30 2443 H 229.253 6.32835 1.70879 0
M  V30 2444 H 228.773 5.19702 2.9945 0
M  V30 2445 H 230.452 5.7838 2.89974 0
M  V30 2446 N 230.584 -0.659388 1.43143 0
M  V30 2447 C 231.809 -1.45221 1.48073 0
M  V30 2448 C 232.234 -1.87845 0.097995 0
M  V30 2449 O 231.592 -1.56985 -0.90694 0
M  V30 2450 C 231.64 -2.66748 2.42647 0
M  V30 2451 O 230.744 -3.65583 1.90848 0
M  V30 2452 H 230.085 -0.435669 0.501088 0
M  V30 2453 H 232.615 -0.807432 1.87994 0
M  V30 2454 H 232.625 -3.14637 2.59745 0
M  V30 2455 H 231.3 -2.35067 3.43098 0
M  V30 2456 H 229.877 -3.24693 1.83381 0
M  V30 2457 N 232.062 -1.29571 -0.897171 0
M  V30 2458 C 233.308 -1.17863 -1.65034 0
M  V30 2459 C 233.641 0.268729 -1.92332 0
M  V30 2460 O 232.916 1.19378 -1.53555 0
M  V30 2461 C 233.199 -1.995 -2.99786 0
M  V30 2462 C 233.052 -3.5239 -2.79538 0
M  V30 2463 C 234.371 -1.82335 -4.00552 0
M  V30 2464 H 231.49 -0.429528 -0.598895 0
M  V30 2465 H 234.132 -1.59072 -1.03905 0
M  V30 2466 H 232.282 -1.64485 -3.51962 0
M  V30 2467 H 233.954 -3.97401 -2.34244 0
M  V30 2468 H 232.197 -3.77187 -2.14273 0
M  V30 2469 H 232.868 -4.04787 -3.75302 0
M  V30 2470 H 235.344 -2.12924 -3.57495 0
M  V30 2471 H 234.22 -2.41801 -4.92771 0
M  V30 2472 H 234.481 -0.779209 -4.35179 0
M  V30 2473 N 233.54 1.10788 -1.12088 0
M  V30 2474 C 234.487 2.17025 -0.785407 0
M  V30 2475 C 235.457 1.64265 0.246191 0
M  V30 2476 O 236.642 1.90412 0.121584 0
M  V30 2477 C 233.782 3.44249 -0.242177 0
M  V30 2478 C 232.895 4.1098 -1.33115 0
M  V30 2479 C 232.03 5.25911 -0.747741 0
M  V30 2480 C 231.069 5.84538 -1.81609 0
M  V30 2481 N 230.206 6.90853 -1.25167 0
M  V30 2482 H 235.046 2.45066 -1.69548 0
M  V30 2483 H 232.583 1.20297 -0.846582 0
M  V30 2484 H 234.541 4.17101 0.0908026 0
M  V30 2485 H 233.171 3.16571 0.631072 0
M  V30 2486 H 232.223 3.36133 -1.78097 0
M  V30 2487 H 233.535 4.50601 -2.13917 0
M  V30 2488 H 232.689 6.056 -0.365216 0
M  V30 2489 H 231.428 4.87614 0.0915188 0
M  V30 2490 H 230.433 5.03522 -2.20785 0
M  V30 2491 H 231.658 6.249 -2.6585 0
M  V30 2492 H 229.604 6.54562 -0.434174 0
M  V30 2493 H 229.521 7.29166 -1.99633 0
M  V30 2494 H 230.789 7.7433 -0.896259 0
M  V30 2495 N 235.018 0.912232 1.28515 0
M  V30 2496 C 235.948 0.416403 2.29757 0
M  V30 2497 C 236.929 -0.515194 1.6211 0
M  V30 2498 O 238.114 -0.423253 1.89532 0
M  V30 2499 C 235.244 -0.34572 3.45575 0
M  V30 2500 C 234.198 0.496599 4.25109 0
M  V30 2501 C 233.524 -0.393771 5.33248 0
M  V30 2502 C 234.824 1.75307 4.92001 0
M  V30 2503 H 236.518 1.26249 2.7148 0
M  V30 2504 H 234.064 0.608515 1.30511 0
M  V30 2505 H 236.017 -0.703422 4.15488 0
M  V30 2506 H 234.741 -1.2257 3.02728 0
M  V30 2507 H 233.4 0.8368 3.56922 0
M  V30 2508 H 233.048 -1.27225 4.86644 0
M  V30 2509 H 232.748 0.166209 5.87365 0
M  V30 2510 H 234.272 -0.747389 6.06009 0
M  V30 2511 H 235.686 1.46437 5.54283 0
M  V30 2512 H 234.083 2.25534 5.56106 0
M  V30 2513 H 235.153 2.48176 4.16577 0
M  V30 2514 N 236.496 -1.42363 0.676048 0
M  V30 2515 C 237.744 -2.01123 0.198437 0
M  V30 2516 C 238.065 -1.53731 -1.19966 0
M  V30 2517 O 237.335 -0.759518 -1.80577 0
M  V30 2518 H 235.915 -0.743678 0.0703721 0
M  V30 2519 H 238.577 -1.74263 0.872837 0
M  V30 2520 H 237.673 -3.11454 0.200686 0
M  V30 2521 N 237.974 -0.419461 -1.51915 0
M  V30 2522 C 238.921 0.400927 -2.27291 0
M  V30 2523 C 239.891 1.03224 -1.30131 0
M  V30 2524 O 241.076 1.05455 -1.59009 0
M  V30 2525 C 238.216 1.50603 -3.10504 0
M  V30 2526 C 237.329 0.89462 -4.22635 0
M  V30 2527 C 236.464 1.97328 -4.93189 0
M  V30 2528 C 235.503 1.33935 -5.97267 0
M  V30 2529 N 234.64 2.3586 -6.61298 0
M  V30 2530 H 239.48 -0.248251 -2.96964 0
M  V30 2531 H 237.017 -0.134266 -1.46486 0
M  V30 2532 H 238.975 2.15783 -3.57062 0
M  V30 2533 H 237.605 2.12509 -2.42981 0
M  V30 2534 H 236.657 0.131583 -3.80172 0
M  V30 2535 H 237.969 0.391641 -4.9726 0
M  V30 2536 H 237.123 2.70211 -5.43204 0
M  V30 2537 H 235.862 2.50994 -4.18155 0
M  V30 2538 H 234.867 0.595896 -5.46561 0
M  V30 2539 H 236.092 0.810252 -6.74249 0
M  V30 2540 H 234.038 2.88639 -5.89087 0
M  V30 2541 H 233.955 1.90403 -7.3163 0
M  V30 2542 H 235.223 3.08282 -7.15949 0
M  V30 2543 N 239.452 1.56882 -0.150215 0
M  V30 2544 C 240.701 1.95403 0.500071 0
M  V30 2545 C 241.014 1.03777 1.658 0
M  V30 2546 O 242.22 1.31889 2.37313 0
M  V30 2547 C 240.676 3.4738 0.941018 0
M  V30 2548 C 240.284 4.47596 -0.190158 0
M  V30 2549 C 242.028 3.9476 1.56091 0
M  V30 2550 C 239.935 5.90787 0.269237 0
M  V30 2551 H 238.865 0.729515 0.190588 0
M  V30 2552 H 241.516 1.81988 -0.235074 0
M  V30 2553 H 239.898 3.56138 1.73152 0
M  V30 2554 H 241.072 4.50536 -0.967157 0
M  V30 2555 H 239.387 4.10151 -0.718666 0
M  V30 2556 H 241.984 4.99181 1.9163 0
M  V30 2557 H 242.327 3.36494 2.45107 0
M  V30 2558 H 242.86 3.88932 0.835249 0
M  V30 2559 H 239.599 6.52879 -0.585621 0
M  V30 2560 H 239.119 5.912 1.01204 0
M  V30 2561 H 240.798 6.42979 0.720176 0
M  V30 2562 N 240.93 -0.123565 1.57115 0
M  V30 2563 C 242.341 -0.681198 1.73829 0
M  V30 2564 C 242.692 -1.80535 0.768214 0
M  V30 2565 O 241.817 -2.16317 -0.0599103 0
M  V30 2566 C 242.412 -1.24246 3.15196 0
M  V30 2567 C 240.971 -1.74643 3.33432 0
M  V30 2568 C 240.118 -0.644284 2.69711 0
M  V30 2569 H 243.069 0.102315 1.5837 0
M  V30 2570 H 243.09 -2.11216 3.16493 0
M  V30 2571 H 242.602 -0.424062 3.85776 0
M  V30 2572 H 240.703 -2.58974 2.67886 0
M  V30 2573 H 240.816 -1.85902 4.41562 0
M  V30 2574 H 239.18 -1.07676 2.3082 0
M  V30 2575 H 239.963 0.163058 3.42913 0
M  V30 2576 N 242.408 -1.52605 -0.393616 0
M  V30 2577 C 243.636 -1.71294 -1.16043 0
M  V30 2578 C 244.051 -0.429259 -1.83855 0
M  V30 2579 O 243.408 0.595921 -1.72496 0
M  V30 2580 C 243.459 -2.8593 -2.21193 0
M  V30 2581 O 243.18 -4.09329 -1.56146 0
M  V30 2582 C 244.681 -3.16259 -3.10636 0
M  V30 2583 H 241.901 -0.573641 -0.348104 0
M  V30 2584 H 244.445 -1.99234 -0.461092 0
M  V30 2585 H 242.6 -2.60465 -2.86769 0
M  V30 2586 H 243.014 -4.73323 -2.25978 0
M  V30 2587 H 244.488 -3.99946 -3.80456 0
M  V30 2588 H 244.965 -2.3045 -3.73884 0
M  V30 2589 H 245.571 -3.43547 -2.50711 0
M  V30 2590 N 243.887 0.651787 -1.4349 0
M  V30 2591 C 245.133 1.41376 -1.45398 0
M  V30 2592 C 245.466 1.94041 -0.0784823 0
M  V30 2593 O 244.741 1.72379 0.900878 0
M  V30 2594 C 245.024 2.59414 -2.49752 0
M  V30 2595 C 244.877 2.12232 -3.96582 0
M  V30 2596 C 246.196 3.61626 -2.50827 0
M  V30 2597 H 243.315 0.512719 -0.529422 0
M  V30 2598 H 245.957 0.738796 -1.75048 0
M  V30 2599 H 244.107 3.16997 -2.246 0
M  V30 2600 H 245.779 1.59639 -4.32797 0
M  V30 2601 H 244.022 1.43592 -4.09346 0
M  V30 2602 H 244.693 2.9712 -4.65214 0
M  V30 2603 H 247.169 3.13805 -2.7325 0
M  V30 2604 H 246.045 4.41766 -3.25783 0
M  V30 2605 H 246.306 4.14314 -1.5426 0
M  V30 2606 N 245.365 1.30045 0.890287 0
M  V30 2607 C 246.275 1.17885 2.02831 0
M  V30 2608 C 247.291 0.0999609 1.73713 0
M  V30 2609 O 248.467 0.313867 1.98939 0
M  V30 2610 C 245.532 0.866079 3.35708 0
M  V30 2611 C 244.593 2.02979 3.78283 0
M  V30 2612 C 243.826 1.73184 5.0482 0
M  V30 2613 O 244.049 0.657237 5.66601 0
M  V30 2614 O 242.983 2.58267 5.43674 0
M  V30 2615 H 246.809 2.13474 2.16015 0
M  V30 2616 H 244.394 1.09587 1.01543 0
M  V30 2617 H 246.276 0.706623 4.15433 0
M  V30 2618 H 244.951 -0.0599443 3.23644 0
M  V30 2619 H 243.858 2.24454 2.99285 0
M  V30 2620 H 245.191 2.93734 3.94944 0
M  V30 2621 N 246.843 -1.10192 1.12674 0
M  V30 2622 C 247.791 -2.18694 0.792196 0
M  V30 2623 C 248.785 -1.67938 -0.222058 0
M  V30 2624 O 249.991 -1.79822 -0.0800074 0
M  V30 2625 H 246.366 -0.713223 0.238364 0
M  V30 2626 H 248.337 -2.44149 1.71564 0
M  V30 2627 C 247.086 -3.46682 0.265859 0
M  V30 2628 H 246.409 -3.86101 1.03761 0
M  V30 2629 H 247.849 -4.23942 0.0701128 0
M  V30 2630 C 246.308 -3.21506 -1.00675 0
M  V30 2631 O 246.838 -3.43408 -2.08408 0
M  V30 2632 N 245.044 -2.75158 -0.934692 0
M  V30 2633 H 244.591 -2.57535 -0.0578604 0
M  V30 2634 H 244.549 -2.58691 -1.7868 0
M  V30 2635 N 248.321 -0.919034 -1.28029 0
M  V30 2636 C 249.546 -0.570357 -1.99403 0
M  V30 2637 C 249.971 0.842486 -1.68178 0
M  V30 2638 O 249.329 1.56391 -0.917141 0
M  V30 2639 C 249.377 -0.792541 -3.51783 0
M  V30 2640 O 248.481 0.145988 -4.12142 0
M  V30 2641 H 247.822 -0.220555 -0.6263 0
M  V30 2642 H 250.352 -1.23592 -1.63053 0
M  V30 2643 H 250.362 -0.704708 -4.01868 0
M  V30 2644 H 249.037 -1.82247 -3.73844 0
M  V30 2645 H 247.614 0.00897528 -3.72899 0
M  V30 2646 N 249.799 1.42003 -0.683588 0
M  V30 2647 C 251.048 2.00638 -0.206681 0
M  V30 2648 C 251.361 1.5472 1.19671 0
M  V30 2649 O 252.567 2.05833 1.77045 0
M  V30 2650 C 251.023 3.58487 -0.318632 0
M  V30 2651 C 250.631 4.1339 -1.72663 0
M  V30 2652 C 252.375 4.24384 0.0991141 0
M  V30 2653 C 250.282 5.63633 -1.79087 0
M  V30 2654 H 249.212 0.750408 -0.0735107 0
M  V30 2655 H 251.863 1.62624 -0.850048 0
M  V30 2656 H 250.245 3.94047 0.392781 0
M  V30 2657 H 251.419 3.89273 -2.46583 0
M  V30 2658 H 249.734 3.59976 -2.09299 0
M  V30 2659 H 252.331 5.34652 0.0713833 0
M  V30 2660 H 252.674 4.00505 1.13586 0
M  V30 2661 H 253.207 3.93816 -0.561599 0
M  V30 2662 H 249.946 5.92323 -2.80774 0
M  V30 2663 H 249.466 5.89714 -1.09535 0
M  V30 2664 H 251.145 6.28201 -1.5483 0
M  V30 2665 N 251.277 0.427512 1.51691 0
M  V30 2666 C 252.524 -0.142229 2.02 0
M  V30 2667 C 252.852 -1.43566 1.31221 0
M  V30 2668 O 252.107 -1.91298 0.412744 0
M  V30 2669 C 252.406 -0.418249 3.54944 0
M  V30 2670 C 252.072 0.788187 4.43958 0
M  V30 2671 C 250.734 1.11906 4.68007 0
M  V30 2672 C 253.086 1.59347 4.96244 0
M  V30 2673 C 250.414 2.25608 5.41588 0
M  V30 2674 C 252.766 2.7214 5.71072 0
M  V30 2675 C 251.43 3.05692 5.93387 0
M  V30 2676 H 250.7 -0.0520451 0.73917 0
M  V30 2677 H 253.347 0.572697 1.82736 0
M  V30 2678 H 251.652 -1.21496 3.72486 0
M  V30 2679 H 253.349 -0.872339 3.91397 0
M  V30 2680 H 249.939 0.520344 4.2543 0
M  V30 2681 H 254.123 1.35106 4.77556 0
M  V30 2682 H 249.379 2.51929 5.57083 0
M  V30 2683 H 253.553 3.34914 6.10578 0
M  V30 2684 H 251.18 3.9391 6.50184 0
M  V30 2685 N 252.755 -1.56801 0.158532 0
M  V30 2686 C 253.705 -2.13923 -0.788738 0
M  V30 2687 C 254.689 -1.07006 -1.2016 0
M  V30 2688 O 255.881 -1.33159 -1.1661 0
M  V30 2689 C 253.01 -2.77348 -2.02319 0
M  V30 2690 C 252.096 -3.91404 -1.6329 0
M  V30 2691 N 252.487 -4.9677 -0.951463 0
M  V30 2692 C 250.785 -4.02326 -1.92482 0
M  V30 2693 C 251.486 -5.76698 -0.761221 0
M  V30 2694 N 250.462 -5.27859 -1.29869 0
M  V30 2695 H 254.264 -2.92757 -0.258995 0
M  V30 2696 H 251.778 -1.62344 -0.0426055 0
M  V30 2697 H 253.775 -3.16639 -2.71192 0
M  V30 2698 H 252.435 -1.99991 -2.558 0
M  V30 2699 H 253.446 -5.14284 -0.610928 0
M  V30 2700 H 250.123 -3.36059 -2.47732 0
M  V30 2701 H 251.513 -6.71529 -0.223284 0
M  V30 2702 N 254.233 0.115231 -1.57178 0
M  V30 2703 C 255.166 1.17166 -1.95825 0
M  V30 2704 C 256.144 1.39912 -0.828463 0
M  V30 2705 O 257.328 1.54004 -1.08697 0
M  V30 2706 C 254.455 2.52478 -2.25771 0
M  V30 2707 C 253.501 2.46136 -3.48309 0
M  V30 2708 S 254.334 1.89736 -5.0076 0
M  V30 2709 C 255.49 3.26713 -5.33863 0
M  V30 2710 H 255.723 0.842103 -2.85124 0
M  V30 2711 H 253.256 0.322136 -1.51002 0
M  V30 2712 H 255.214 3.30332 -2.43702 0
M  V30 2713 H 253.875 2.82609 -1.37079 0
M  V30 2714 H 253.068 3.45819 -3.66641 0
M  V30 2715 H 252.67 1.76404 -3.29784 0
M  V30 2716 H 254.962 4.22935 -5.29275 0
M  V30 2717 H 255.905 3.13205 -6.35065 0
M  V30 2718 H 256.313 3.25316 -4.61335 0
M  V30 2719 N 255.711 1.52812 0.385517 0
M  V30 2720 C 256.674 1.77188 1.45386 0
M  V30 2721 C 257.674 0.641953 1.4743 0
M  V30 2722 O 258.864 0.910033 1.4854 0
M  V30 2723 C 255.996 1.87582 2.8465 0
M  V30 2724 H 257.189 2.72583 1.25054 0
M  V30 2725 H 254.742 1.43586 0.617467 0
M  V30 2726 H 255.477 0.941849 3.10322 0
M  V30 2727 H 255.262 2.69748 2.84567 0
M  V30 2728 H 256.752 2.08102 3.62054 0
M  V30 2729 N 257.189 -0.644168 1.43834 0
M  V30 2730 C 258.152 -1.73857 1.49353 0
M  V30 2731 C 259.152 -1.56315 0.377112 0
M  V30 2732 O 260.342 -1.62048 0.639226 0
M  V30 2733 C 257.474 -3.12819 1.35488 0
M  V30 2734 H 258.667 -1.70342 2.46827 0
M  V30 2735 H 256.22 -0.856652 1.30733 0
M  V30 2736 H 256.955 -3.2194 0.390569 0
M  V30 2737 H 256.74 -3.26958 2.16428 0
M  V30 2738 H 258.23 -3.92606 1.42302 0
M  V30 2739 N 258.668 -1.30515 -0.883378 0
M  V30 2740 C 259.914 -1.20617 -1.63778 0
M  V30 2741 C 260.269 0.236469 -1.90941 0
M  V30 2742 O 259.562 1.16596 -1.52039 0
M  V30 2743 C 259.756 -1.96994 -2.98209 0
M  V30 2744 C 259.585 -3.48537 -2.84169 0
M  V30 2745 C 258.355 -4.17893 -2.84067 0
M  V30 2746 C 260.553 -4.43738 -2.60001 0
M  V30 2747 N 258.535 -5.55685 -2.60936 0
M  V30 2748 C 259.906 -5.69105 -2.46007 0
M  V30 2749 C 261.961 -4.33316 -2.45239 0
M  V30 2750 C 260.664 -6.8523 -2.18752 0
M  V30 2751 C 262.69 -5.4921 -2.19369 0
M  V30 2752 C 262.052 -6.73558 -2.06153 0
M  V30 2753 H 258.151 -0.496434 -0.604216 0
M  V30 2754 H 260.735 -1.64544 -1.04083 0
M  V30 2755 H 258.906 -1.55455 -3.55933 0
M  V30 2756 H 260.638 -1.79225 -3.62851 0
M  V30 2757 H 257.393 -3.69739 -2.95956 0
M  V30 2758 H 257.817 -6.28199 -2.52378 0
M  V30 2759 H 262.459 -3.37856 -2.54191 0
M  V30 2760 H 260.177 -7.80729 -2.08537 0
M  V30 2761 H 263.763 -5.43054 -2.08766 0
M  V30 2762 H 262.643 -7.61721 -1.86416 0
M  V30 2763 N 260.146 1.09593 -1.13257 0
M  V30 2764 C 261.371 1.8604 -0.916732 0
M  V30 2765 C 261.796 1.80504 0.529146 0
M  V30 2766 O 261.154 1.18127 1.37534 0
M  V30 2767 C 261.202 3.32017 -1.40703 0
M  V30 2768 O 260.306 4.08141 -0.591153 0
M  V30 2769 H 259.647 0.576943 -0.328683 0
M  V30 2770 H 262.177 1.38405 -1.50682 0
M  V30 2771 H 262.187 3.82865 -1.4099 0
M  V30 2772 H 260.862 3.35361 -2.45979 0
M  V30 2773 H 259.439 3.67084 -0.656005 0
M  V30 2774 N 261.624 0.925811 1.2754 0
M  V30 2775 C 262.872 0.564138 1.94067 0
M  V30 2776 C 263.193 -0.897188 1.73134 0
M  V30 2777 O 262.463 -1.63573 1.07799 0
M  V30 2778 H 261.043 0.205645 0.718136 0
M  V30 2779 H 263.705 1.1778 1.55287 0
M  V30 2780 H 262.801 0.76881 3.02483 0
M  V30 2781 N 263.102 -1.41638 0.69111 0
M  V30 2782 C 264.327 -2.06148 0.227583 0
M  V30 2783 C 264.752 -1.51652 -1.11281 0
M  V30 2784 O 264.11 -0.64164 -1.69566 0
M  V30 2785 C 264.158 -3.60095 0.190858 0
M  V30 2786 O 263.262 -4.03845 -0.835664 0
M  V30 2787 H 262.603 -0.654434 0.112306 0
M  V30 2788 H 265.133 -1.81484 0.944714 0
M  V30 2789 H 265.143 -4.07995 0.020207 0
M  V30 2790 H 263.818 -3.99129 1.16915 0
M  V30 2791 H 262.395 -3.67458 -0.63473 0
M  V30 2792 N 264.58 -0.43555 -1.51462 0
M  V30 2793 C 265.543 0.365137 -2.26273 0
M  V30 2794 C 266.543 0.951227 -1.29647 0
M  V30 2795 O 267.733 0.825958 -1.53374 0
M  V30 2796 C 264.865 1.51645 -3.05314 0
M  V30 2797 H 266.058 -0.290474 -2.9849 0
M  V30 2798 H 263.611 -0.188676 -1.55157 0
M  V30 2799 H 264.346 2.20816 -2.3751 0
M  V30 2800 H 264.131 1.10238 -3.76284 0
M  V30 2801 H 265.621 2.08218 -3.61987 0
M  V30 2802 N 266.058 1.56714 -0.166846 0
M  V30 2803 C 267.298 1.98641 0.481763 0
M  V30 2804 C 267.662 1.05038 1.6072 0
M  V30 2805 O 268.863 1.36087 2.31805 0
M  V30 2806 C 267.134 3.44362 0.956517 0
M  V30 2807 S 268.693 4.08317 1.60694 0
M  V30 2808 H 265.511 0.693873 0.155116 0
M  V30 2809 H 268.113 1.93719 -0.263251 0
M  V30 2810 H 266.817 4.10204 0.126936 0
M  V30 2811 H 266.348 3.53041 1.73568 0
M  V30 2812 H 268.363 4.02999 2.89494 0
M  V30 2813 N 267.536 -0.106894 1.57237 0
M  V30 2814 C 268.486 -1.1366 1.9765 0
M  V30 2815 C 269.47 -1.36416 0.853203 0
M  V30 2816 O 270.662 -1.37305 1.11697 0
M  V30 2817 C 267.791 -2.46 2.39455 0
M  V30 2818 C 266.877 -2.26668 3.58445 0
M  V30 2819 N 267.268 -1.77176 4.73754 0
M  V30 2820 C 265.566 -2.57279 3.64312 0
M  V30 2821 C 266.267 -1.71836 5.5574 0
M  V30 2822 N 265.243 -2.16623 4.98573 0
M  V30 2823 H 269.045 -0.74669 2.84256 0
M  V30 2824 H 266.559 -0.314483 1.59326 0
M  V30 2825 H 268.556 -3.2049 2.6663 0
M  V30 2826 H 267.216 -2.85738 1.54219 0
M  V30 2827 H 268.227 -1.46545 4.96734 0
M  V30 2828 H 264.904 -3.00622 2.89711 0
M  V30 2829 H 266.294 -1.34723 6.58255 0
M  V30 2830 N 269.014 -1.53014 -0.377408 0
M  V30 2831 C 270.291 -1.59215 -1.13622 0
M  V30 2832 C 270.671 -0.392407 -2.07421 0
M  V30 2833 O 270.019 0.618342 -2.19975 0
M  V30 2834 C 270.229 -2.93669 -1.88573 0
M  V30 2835 C 271.577 -3.47822 -2.43526 0
M  V30 2836 O 272.601 -2.9562 -1.98715 0
M  V30 2837 O 271.46 -4.39055 -3.25412 0
M  V30 2838 H 268.554 -0.642625 -0.52054 0
M  V30 2839 H 271.1 -1.65353 -0.381625 0
M  V30 2840 H 269.872 -3.7243 -1.20048 0
M  V30 2841 H 269.495 -2.90968 -2.70968 0
M  V30 2842 N 270.492 0.636531 -1.44174 0
M  V30 2843 C 271.74 1.39343 -1.46383 0
M  V30 2844 C 272.061 1.94766 -0.0955715 0
M  V30 2845 O 271.331 1.75452 0.871395 0
M  V30 2846 H 269.911 0.517199 -0.538994 0
M  V30 2847 H 272.573 0.74957 -1.7991 0
M  V30 2848 H 271.669 2.22746 -2.18611 0
M  V30 2849 N 271.97 1.30982 0.876444 0
M  V30 2850 C 273.386 1.09498 1.16113 0
M  V30 2851 C 273.586 -0.13875 2.01022 0
M  V30 2852 O 272.642 -0.829935 2.38471 0
M  V30 2853 C 273.955 2.36308 1.85954 0
M  V30 2854 C 275.503 2.41856 1.98683 0
M  V30 2855 C 275.978 3.6853 2.71937 0
M  V30 2856 N 277.469 3.69387 2.79477 0
M  V30 2857 C 278.204 4.64096 3.36753 0
M  V30 2858 N 277.7 5.69155 3.95012 0
M  V30 2859 N 279.493 4.51626 3.3465 0
M  V30 2860 H 271.644 2.10118 0.310494 0
M  V30 2861 H 273.907 0.926634 0.200131 0
M  V30 2862 H 273.613 3.26388 1.31011 0
M  V30 2863 H 273.487 2.4561 2.86278 0
M  V30 2864 H 275.874 1.52249 2.52793 0
M  V30 2865 H 275.955 2.36523 0.9742 0
M  V30 2866 H 275.599 4.58499 2.18496 0
M  V30 2867 H 275.529 3.71127 3.73593 0
M  V30 2868 H 278.02 2.93438 2.38123 0
M  V30 2869 H 278.333 6.3751 4.36808 0
M  V30 2870 H 276.678 5.72937 3.93406 0
M  V30 2871 H 279.869 3.68728 2.8837 0
M  V30 2872 H 280.042 5.25614 3.7899 0
M  V30 2873 N 273.449 -1.08991 1.13837 0
M  V30 2874 C 274.359 -2.19301 0.833333 0
M  V30 2875 C 275.375 -1.73026 -0.183847 0
M  V30 2876 O 276.551 -2.01395 -0.0138092 0
M  V30 2877 C 273.616 -3.45323 0.308651 0
M  V30 2878 C 272.677 -4.06255 1.38764 0
M  V30 2879 C 271.91 -5.26262 0.887896 0
M  V30 2880 O 272.133 -5.69747 -0.27287 0
M  V30 2881 O 271.067 -5.78435 1.66421 0
M  V30 2882 H 274.893 -2.47854 1.75506 0
M  V30 2883 H 272.478 -1.18012 0.916166 0
M  V30 2884 H 274.36 -4.21394 0.0216739 0
M  V30 2885 H 273.035 -3.18362 -0.585431 0
M  V30 2886 H 271.942 -3.318 1.72799 0
M  V30 2887 H 273.275 -4.37452 2.25602 0
M  V30 2888 N 274.927 -0.932562 -1.27047 0
M  V30 2889 C 276.173 -0.585913 -1.94778 0
M  V30 2890 C 276.528 0.864142 -1.71902 0
M  V30 2891 O 275.821 1.60894 -1.04037 0
M  V30 2892 C 276.015 -0.853713 -3.47054 0
M  V30 2893 C 275.844 -2.32825 -3.84737 0
M  V30 2894 C 274.614 -2.98184 -4.07939 0
M  V30 2895 C 276.812 -3.30612 -3.93954 0
M  V30 2896 N 274.794 -4.3574 -4.3244 0
M  V30 2897 C 276.165 -4.53395 -4.22887 0
M  V30 2898 C 278.22 -3.25755 -3.76548 0
M  V30 2899 C 276.923 -5.71927 -4.36224 0
M  V30 2900 C 278.949 -4.43604 -3.91113 0
M  V30 2901 C 278.311 -5.65166 -4.20437 0
M  V30 2902 H 274.41 -0.264617 -0.735868 0
M  V30 2903 H 276.994 -1.20019 -1.53309 0
M  V30 2904 H 275.165 -0.268557 -3.8747 0
M  V30 2905 H 276.897 -0.469202 -4.01971 0
M  V30 2906 H 273.652 -2.48835 -4.02961 0
M  V30 2907 H 274.076 -5.06915 -4.48738 0
M  V30 2908 H 278.718 -2.32835 -3.52913 0
M  V30 2909 H 276.436 -6.65308 -4.58683 0
M  V30 2910 H 280.022 -4.41368 -3.79059 0
M  V30 2911 H 278.902 -6.54836 -4.31462 0
M  V30 2912 N 276.405 1.4127 -0.698611 0
M  V30 2913 C 277.633 2.05503 -0.239992 0
M  V30 2914 C 278.048 1.52584 1.11191 0
M  V30 2915 O 277.405 0.675323 1.69545 0
M  V30 2916 C 277.456 3.60987 -0.192429 0
M  V30 2917 O 277.177 4.1195 -1.49094 0
M  V30 2918 C 278.678 4.42371 0.28681 0
M  V30 2919 H 275.898 0.661748 -0.111045 0
M  V30 2920 H 278.442 1.80987 -0.95205 0
M  V30 2921 H 276.597 3.84533 0.470472 0
M  V30 2922 H 277.011 5.06018 -1.38007 0
M  V30 2923 H 278.485 5.51344 0.26896 0
M  V30 2924 H 278.962 4.18699 1.32619 0
M  V30 2925 H 279.568 4.23897 -0.345201 0
M  V30 2926 N 277.883 0.443576 1.51229 0
M  V30 2927 C 279.113 -0.119117 2.06256 0
M  V30 2928 C 279.521 -1.36471 1.31043 0
M  V30 2929 O 278.864 -1.80034 0.365151 0
M  V30 2930 C 278.926 -0.500546 3.55998 0
M  V30 2931 C 278.59 0.639125 4.52509 0
M  V30 2932 C 279.587 1.51311 4.97394 0
M  V30 2933 C 277.272 0.821632 4.95535 0
M  V30 2934 C 279.266 2.55425 5.83984 0
M  V30 2935 C 276.953 1.86603 5.81913 0
M  V30 2936 C 277.951 2.73072 6.26036 0
M  V30 2937 O 277.639 3.75718 7.10698 0
M  V30 2938 H 277.371 -0.00857665 0.675946 0
M  V30 2939 H 279.925 0.623288 1.95715 0
M  V30 2940 H 278.155 -1.29575 3.64345 0
M  V30 2941 H 279.844 -0.995116 3.93513 0
M  V30 2942 H 280.61 1.38367 4.64844 0
M  V30 2943 H 276.489 0.158149 4.60729 0
M  V30 2944 H 280.033 3.22949 6.18344 0
M  V30 2945 H 275.93 1.99564 6.13876 0
M  V30 2946 H 276.698 3.72374 7.2889 0
M  V30 2947 N 279.361 -1.56624 0.175154 0
M  V30 2948 C 280.61 -1.96173 -0.468921 0
M  V30 2949 C 280.923 -1.06401 -1.64128 0
M  V30 2950 O 282.129 -1.35648 -2.35185 0
M  V30 2951 C 280.585 -3.48833 -0.885633 0
M  V30 2952 C 280.193 -4.47237 0.261343 0
M  V30 2953 C 281.937 -3.97194 -1.49791 0
M  V30 2954 C 279.844 -5.9114 -0.175214 0
M  V30 2955 H 278.774 -0.732455 -0.178958 0
M  V30 2956 H 281.425 -1.81591 0.263997 0
M  V30 2957 H 279.807 -3.58848 -1.67464 0
M  V30 2958 H 280.981 -4.4894 1.03871 0
M  V30 2959 H 279.296 -4.08956 0.783827 0
M  V30 2960 H 281.893 -5.02167 -1.83665 0
M  V30 2961 H 282.236 -3.40351 -2.39722 0
M  V30 2962 H 282.769 -3.90212 -0.773267 0
M  V30 2963 H 279.508 -6.51865 0.689414 0
M  V30 2964 H 279.028 -5.92735 -0.91786 0
M  V30 2965 H 280.707 -6.44044 -0.617792 0
M  V30 2966 N 280.839 0.0985539 -1.57292 0
M  V30 2967 C 282.087 0.801092 -1.85545 0
M  V30 2968 C 282.408 1.79438 -0.763353 0
M  V30 2969 O 281.678 1.94763 0.21073 0
M  V30 2970 H 280.258 0.29884 -0.684619 0
M  V30 2971 H 282.92 0.0810064 -1.94732 0
M  V30 2972 H 282.016 1.3338 -2.82163 0
M  V30 2973 N 282.317 1.53212 0.369288 0
M  V30 2974 C 283.563 1.69466 1.11397 0
M  V30 2975 C 283.896 0.443257 1.89074 0
M  V30 2976 O 283.171 -0.559386 1.86282 0
M  V30 2977 C 283.454 2.9422 2.07621 0
M  V30 2978 C 283.307 4.29508 1.33577 0
M  V30 2979 C 284.626 3.14565 3.07794 0
M  V30 2980 H 281.745 0.616667 0.403597 0
M  V30 2981 H 284.387 1.85845 0.395179 0
M  V30 2982 H 282.537 2.80387 2.68916 0
M  V30 2983 H 284.209 4.55147 0.750955 0
M  V30 2984 H 282.452 4.29088 0.637618 0
M  V30 2985 H 283.123 5.12926 2.03989 0
M  V30 2986 H 285.599 3.2756 2.56601 0
M  V30 2987 H 284.475 4.03297 3.72348 0
M  V30 2988 H 284.736 2.29675 3.77759 0
M  V30 2989 N 283.795 -0.628877 1.44509 0
M  V30 2990 C 285.072 -1.38733 1.37886 0
M  V30 2991 C 285.452 -2.11065 0.0387008 0
M  V30 2992 O 284.8 -2.06476 -0.97878 0
M  V30 2993 C 285.01 -2.35188 2.57852 0
M  V30 2994 C 286.358 -2.9845 3.02014 0
M  V30 2995 O 287.382 -2.45513 2.58073 0
M  V30 2996 O 286.241 -3.94487 3.78209 0
M  V30 2997 H 283.335 -0.621015 0.54614 0
M  V30 2998 H 285.881 -0.653744 1.56602 0
M  V30 2999 H 284.653 -1.80855 3.46998 0
M  V30 3000 H 284.276 -3.1596 2.4136 0
M  V30 3001 N 285.273 -1.31445 -0.869486 0
M  V30 3002 C 286.521 -1.20918 -1.61936 0
M  V30 3003 C 286.842 0.232683 -1.93607 0
M  V30 3004 O 286.112 1.15352 -1.58338 0
M  V30 3005 H 284.692 -0.44454 -0.600328 0
M  V30 3006 H 287.354 -1.64776 -1.0409 0
M  V30 3007 H 286.45 -1.78124 -2.56278 0
M  V30 3008 N 286.751 1.08385 -1.14413 0
M  V30 3009 C 288.162 1.62258 -0.923535 0
M  V30 3010 C 288.513 1.88691 0.537595 0
M  V30 3011 O 287.638 1.64454 1.40655 0
M  V30 3012 C 288.233 2.94781 -1.67002 0
M  V30 3013 C 286.792 3.45437 -1.495 0
M  V30 3014 C 285.939 2.19668 -1.69238 0
M  V30 3015 H 288.89 0.916086 -1.2959 0
M  V30 3016 H 288.911 3.63229 -1.13334 0
M  V30 3017 H 288.423 2.7551 -2.73342 0
M  V30 3018 H 286.524 3.6981 -0.455097 0
M  V30 3019 H 286.637 4.22173 -2.2651 0
M  V30 3020 H 285.001 2.28849 -1.11804 0
M  V30 3021 H 285.784 2.02905 -2.7692 0
M  V30 3022 N 288.23 0.939286 1.26551 0
M  V30 3023 C 289.507 0.5038 1.89001 0
M  V30 3024 C 289.887 -1.01854 1.84903 0
M  V30 3025 O 289.235 -1.87773 1.30206 0
M  V30 3026 C 289.445 1.063 3.32417 0
M  V30 3027 C 290.793 1.13051 4.09273 0
M  V30 3028 O 291.817 1.01345 3.41479 0
M  V30 3029 O 290.676 1.31233 5.30509 0
M  V30 3030 H 287.77 0.163897 0.810597 0
M  V30 3031 H 290.316 1.03173 1.34735 0
M  V30 3032 H 289.088 2.10665 3.29752 0
M  V30 3033 H 288.711 0.517408 3.94219 0
M  V30 3034 N 289.708 -1.40897 0.706093 0
M  V30 3035 C 290.933 -2.05895 0.249435 0
M  V30 3036 C 291.358 -1.52823 -1.09666 0
M  V30 3037 O 290.716 -0.659589 -1.68876 0
M  V30 3038 C 290.764 -3.59872 0.22904 0
M  V30 3039 O 289.868 -4.04708 -0.792784 0
M  V30 3040 H 289.209 -0.653206 0.119241 0
M  V30 3041 H 291.739 -1.80471 0.96391 0
M  V30 3042 H 291.749 -4.07951 0.0634791 0
M  V30 3043 H 290.424 -3.97866 1.21141 0
M  V30 3044 H 289.001 -3.68111 -0.59572 0
M  V30 3045 N 291.186 -0.45159 -1.50991 0
M  V30 3046 C 292.134 0.366864 -2.29689 0
M  V30 3047 C 293.128 1.00809 -1.36139 0
M  V30 3048 O 294.334 0.941427 -1.53418 0
M  V30 3049 H 290.709 0.137133 -0.739391 0
M  V30 3050 H 292.68 -0.317538 -2.96706 0
M  V30 3051 C 291.429 1.44751 -3.16137 0
M  V30 3052 H 290.752 0.963473 -3.88017 0
M  V30 3053 H 292.192 1.99315 -3.74232 0
M  V30 3054 C 290.651 2.43869 -2.32442 0
M  V30 3055 O 291.181 3.4872 -1.99392 0
M  V30 3056 N 289.387 2.15105 -1.95392 0
M  V30 3057 H 288.934 1.29866 -2.22469 0
M  V30 3058 H 288.892 2.81661 -1.39693 0
M  V30 3059 N 292.664 1.56529 -0.183458 0
M  V30 3060 C 293.627 2.17324 0.728223 0
M  V30 3061 C 294.627 1.12453 1.14939 0
M  V30 3062 O 295.817 1.37902 1.06437 0
M  V30 3063 C 292.949 2.76591 1.99274 0
M  V30 3064 H 294.142 2.99241 0.198772 0
M  V30 3065 H 291.695 1.5616 0.0661391 0
M  V30 3066 H 292.43 1.98441 2.56499 0
M  V30 3067 H 292.215 3.5335 1.69959 0
M  V30 3068 H 293.705 3.23311 2.6431 0
M  V30 3069 N 294.142 -0.090211 1.57342 0
M  V30 3070 C 295.072 -1.10976 2.05443 0
M  V30 3071 C 296.053 -1.41482 0.944284 0
M  V30 3072 O 297.238 -1.51428 1.21586 0
M  V30 3073 C 294.368 -2.42831 2.48295 0
M  V30 3074 C 293.322 -2.26721 3.63018 0
M  V30 3075 C 292.648 -3.63796 3.91863 0
M  V30 3076 C 293.948 -1.7037 4.93732 0
M  V30 3077 H 295.642 -0.709564 2.9087 0
M  V30 3078 H 293.188 -0.339874 1.39932 0
M  V30 3079 H 295.141 -3.14431 2.80555 0
M  V30 3080 H 293.865 -2.84795 1.59873 0
M  V30 3081 H 292.524 -1.57565 3.31012 0
M  V30 3082 H 292.172 -4.03297 3.00601 0
M  V30 3083 H 291.872 -3.53861 4.69101 0
M  V30 3084 H 293.396 -4.36855 4.26603 0
M  V30 3085 H 294.81 -2.31816 5.24342 0
M  V30 3086 H 293.207 -1.71181 5.75167 0
M  V30 3087 H 294.277 -0.663542 4.80339 0
M  V30 3088 N 295.62 -1.53406 -0.361157 0
M  V30 3089 C 296.869 -1.69022 -1.10066 0
M  V30 3090 C 297.182 -0.450838 -1.90333 0
M  V30 3091 O 298.388 -0.487617 -2.67085 0
M  V30 3092 C 296.844 -2.98812 -2.00598 0
M  V30 3093 C 296.452 -4.30027 -1.25621 0
M  V30 3094 C 298.196 -3.23795 -2.74513 0
M  V30 3095 C 296.103 -5.50903 -2.1508 0
M  V30 3096 H 295.033 -0.629776 -0.414606 0
M  V30 3097 H 297.684 -1.79907 -0.361348 0
M  V30 3098 H 296.066 -2.8174 -2.78278 0
M  V30 3099 H 297.24 -4.57745 -0.529739 0
M  V30 3100 H 295.555 -4.11522 -0.635496 0
M  V30 3101 H 298.152 -4.11289 -3.41681 0
M  V30 3102 H 298.495 -2.40045 -3.40123 0
M  V30 3103 H 299.028 -3.41561 -2.03914 0
M  V30 3104 H 295.767 -6.37143 -1.54041 0
M  V30 3105 H 295.287 -5.27459 -2.85565 0
M  V30 3106 H 296.966 -5.85865 -2.74538 0
M  V30 3107 N 297.098 0.621204 -1.44841 0
M  V30 3108 C 298.045 1.73267 -1.5247 0
M  V30 3109 C 299.015 1.6189 -0.371611 0
M  V30 3110 O 300.2 1.81668 -0.58321 0
M  V30 3111 C 297.34 3.11545 -1.48438 0
M  V30 3112 C 296.453 3.33827 -2.74196 0
M  V30 3113 C 295.588 4.62133 -2.61929 0
M  V30 3114 C 294.627 4.77627 -3.82804 0
M  V30 3115 N 293.764 5.97219 -3.69153 0
M  V30 3116 H 298.604 1.66082 -2.47428 0
M  V30 3117 H 296.141 0.810026 -1.22788 0
M  V30 3118 H 298.099 3.91528 -1.4409 0
M  V30 3119 H 296.729 3.1772 -0.570402 0
M  V30 3120 H 295.781 2.47715 -2.88689 0
M  V30 3121 H 297.093 3.41153 -3.6389 0
M  V30 3122 H 296.247 5.50291 -2.5547 0
M  V30 3123 H 294.986 4.57182 -1.69811 0
M  V30 3124 H 293.991 3.87896 -3.89637 0
M  V30 3125 H 295.216 4.84385 -4.75971 0
M  V30 3126 H 293.162 5.93339 -2.79794 0
M  V30 3127 H 293.079 6.05644 -4.52472 0
M  V30 3128 H 294.347 6.87912 -3.66603 0
M  V30 3129 N 298.576 1.31904 0.862503 0
M  V30 3130 C 299.825 1.21373 1.61094 0
M  V30 3131 C 300.138 -0.22504 1.94301 0
M  V30 3132 O 301.344 -0.452121 2.67709 0
M  V30 3133 C 299.8 2.12525 2.9045 0
M  V30 3134 C 299.408 3.61441 2.64697 0
M  V30 3135 C 301.152 2.10813 3.68454 0
M  V30 3136 C 299.059 4.44578 3.90006 0
M  V30 3137 H 297.989 0.450705 0.604468 0
M  V30 3138 H 300.64 1.56811 0.953027 0
M  V30 3139 H 299.022 1.69994 3.57656 0
M  V30 3140 H 300.196 4.12264 2.05851 0
M  V30 3141 H 298.511 3.65205 2.00036 0
M  V30 3142 H 301.108 2.70167 4.61426 0
M  V30 3143 H 301.451 1.09713 4.01583 0
M  V30 3144 H 301.984 2.51583 3.08141 0
M  V30 3145 H 298.723 5.46461 3.62023 0
M  V30 3146 H 298.243 3.98508 4.48276 0
M  V30 3147 H 299.922 4.57176 4.5782 0
M  V30 3148 N 300.054 -1.07777 1.14986 0
M  V30 3149 C 301.001 -2.14867 0.842672 0
M  V30 3150 C 301.971 -1.6486 -0.202552 0
M  V30 3151 O 303.156 -1.90668 -0.0710568 0
M  V30 3152 C 300.296 -3.43486 0.333363 0
M  V30 3153 C 299.409 -4.07306 1.43965 0
M  V30 3154 C 298.544 -5.23744 0.886914 0
M  V30 3155 C 297.583 -5.79517 1.97043 0
M  V30 3156 N 296.72 -6.87291 1.4344 0
M  V30 3157 H 301.56 -2.40485 1.75986 0
M  V30 3158 H 299.097 -1.1801 0.878179 0
M  V30 3159 H 301.055 -4.17195 0.0198163 0
M  V30 3160 H 299.685 -3.18133 -0.546916 0
M  V30 3161 H 298.737 -3.31293 1.86946 0
M  V30 3162 H 300.049 -4.44771 2.25788 0
M  V30 3163 H 299.203 -6.04419 0.525651 0
M  V30 3164 H 297.942 -4.87685 0.0377957 0
M  V30 3165 H 296.947 -4.97491 2.34057 0
M  V30 3166 H 298.172 -6.17632 2.82325 0
M  V30 3167 H 296.118 -6.5318 0.607567 0
M  V30 3168 H 296.035 -7.23617 2.18895 0
M  V30 3169 H 297.303 -7.71682 1.10124 0
M  V30 3170 N 301.532 -0.945985 -1.26051 0
M  V30 3171 C 302.762 -0.612136 -1.97323 0
M  V30 3172 C 303.17 0.818171 -1.70595 0
M  V30 3173 O 302.513 1.55777 -0.973613 0
M  V30 3174 C 302.575 -0.780347 -3.50929 0
M  V30 3175 C 302.239 -2.18619 -4.01317 0
M  V30 3176 C 303.236 -3.16209 -4.12683 0
M  V30 3177 C 300.921 -2.50805 -4.35203 0
M  V30 3178 C 302.915 -4.44085 -4.57238 0
M  V30 3179 C 300.602 -3.78912 -4.79446 0
M  V30 3180 C 301.6 -4.75365 -4.90425 0
M  V30 3181 O 301.288 -6.01191 -5.3369 0
M  V30 3182 H 301.02 -0.229134 -0.635982 0
M  V30 3183 H 303.574 -1.27036 -1.61404 0
M  V30 3184 H 301.804 -0.0649864 -3.86645 0
M  V30 3185 H 303.493 -0.448842 -4.03411 0
M  V30 3186 H 304.259 -2.92668 -3.86744 0
M  V30 3187 H 300.138 -1.76463 -4.2589 0
M  V30 3188 H 303.682 -5.19373 -4.65723 0
M  V30 3189 H 299.579 -4.02265 -5.0483 0
M  V30 3190 H 300.347 -6.04442 -5.51899 0
M  V30 3191 N 303.011 1.40521 -0.713556 0
M  V30 3192 C 304.259 2.00527 -0.251692 0
M  V30 3193 C 304.58 1.56857 1.15848 0
M  V30 3194 O 303.85 0.807127 1.785 0
M  V30 3195 H 302.43 0.741551 -0.0900646 0
M  V30 3196 H 305.092 1.71887 -0.918733 0
M  V30 3197 H 304.188 3.10813 -0.283192 0
M  V30 3198 N 304.489 0.459591 1.5075 0
M  V30 3199 C 305.399 -0.34613 2.32033 0
M  V30 3200 C 306.415 -1.00686 1.41909 0
M  V30 3201 O 307.591 -0.997361 1.7497 0
M  V30 3202 C 304.656 -1.42029 3.16273 0
M  V30 3203 C 303.717 -0.777362 4.22203 0
M  V30 3204 C 302.95 -1.80034 5.02418 0
M  V30 3205 O 303.173 -3.02544 4.83553 0
M  V30 3206 O 302.107 -1.37853 5.85901 0
M  V30 3207 H 305.933 0.318054 3.0203 0
M  V30 3208 H 303.518 0.221663 1.47746 0
M  V30 3209 H 305.4 -2.04275 3.68578 0
M  V30 3210 H 304.075 -2.06815 2.49016 0
M  V30 3211 H 302.982 -0.116256 3.73919 0
M  V30 3212 H 304.315 -0.172634 4.91897 0
M  V30 3213 N 305.967 -1.56429 0.191757 0
M  V30 3214 C 306.93 -2.17707 -0.716688 0
M  V30 3215 C 307.93 -1.13061 -1.14341 0
M  V30 3216 O 309.12 -1.38464 -1.05704 0
M  V30 3217 C 306.252 -2.77644 -1.97804 0
M  V30 3218 H 307.445 -2.99342 -0.1829 0
M  V30 3219 H 304.998 -1.56193 -0.0578566 0
M  V30 3220 H 305.733 -1.99799 -2.55443 0
M  V30 3221 H 305.518 -3.54246 -1.68083 0
M  V30 3222 H 307.008 -3.24708 -2.62592 0
M  V30 3223 N 307.445 0.0818655 -1.57387 0
M  V30 3224 C 308.675 0.794954 -1.90694 0
M  V30 3225 C 309.083 1.72147 -0.784982 0
M  V30 3226 O 308.426 1.81974 0.251196 0
M  V30 3227 C 308.488 1.65042 -3.19376 0
M  V30 3228 C 308.152 0.894337 -4.48164 0
M  V30 3229 C 309.149 0.21813 -5.19442 0
M  V30 3230 C 306.834 0.864495 -4.94805 0
M  V30 3231 C 308.828 -0.477802 -6.35607 0
M  V30 3232 C 306.515 0.164785 -6.10878 0
M  V30 3233 C 307.513 -0.505173 -6.81129 0
M  V30 3234 O 307.201 -1.19363 -7.94989 0
M  V30 3235 H 306.933 0.231779 -0.635023 0
M  V30 3236 H 309.487 0.059493 -2.05314 0
M  V30 3237 H 307.717 2.42844 -3.00938 0
M  V30 3238 H 309.406 2.24127 -3.38411 0
M  V30 3239 H 310.172 0.232558 -4.84442 0
M  V30 3240 H 306.051 1.37542 -4.40004 0
M  V30 3241 H 309.595 -1.00129 -6.90377 0
M  V30 3242 H 305.492 0.148249 -6.4533 0
M  V30 3243 H 306.26 -1.10188 -8.11049 0
M  V30 3244 N 308.923 1.53595 0.353017 0
M  V30 3245 C 310.151 1.74311 1.1146 0
M  V30 3246 C 310.566 0.477854 1.82653 0
M  V30 3247 O 309.923 -0.549977 1.74016 0
M  V30 3248 C 309.974 2.91694 2.13534 0
M  V30 3249 O 309.695 4.13325 1.45238 0
M  V30 3250 C 311.196 3.24384 3.02142 0
M  V30 3251 H 308.416 0.582669 0.332773 0
M  V30 3252 H 310.96 2.00386 0.408107 0
M  V30 3253 H 309.115 2.67977 2.79763 0
M  V30 3254 H 309.529 4.79148 2.13349 0
M  V30 3255 H 311.003 4.09893 3.69718 0
M  V30 3256 H 311.48 2.40282 3.67643 0
M  V30 3257 H 312.086 3.50073 2.41514 0
M  V30 3258 N 310.401 -0.613514 1.45168 0
M  V30 3259 C 311.678 -1.37263 1.39349 0
M  V30 3260 C 312.058 -2.11012 0.0610848 0
M  V30 3261 O 311.406 -2.07502 -0.956825 0
M  V30 3262 C 311.616 -2.3244 2.60332 0
M  V30 3263 C 312.964 -2.9523 3.05163 0
M  V30 3264 O 313.988 -2.42762 2.60663 0
M  V30 3265 O 312.847 -3.90454 3.82372 0
M  V30 3266 H 309.941 -0.615188 0.552696 0
M  V30 3267 H 312.487 -0.637097 1.57287 0
M  V30 3268 H 311.259 -1.77164 3.48896 0
M  V30 3269 H 310.882 -3.13383 2.44698 0
M  V30 3270 N 311.879 -1.3236 -0.855495 0
M  V30 3271 C 313.107 -1.2587 -1.64208 0
M  V30 3272 C 313.522 0.173457 -1.88002 0
M  V30 3273 O 312.879 1.11027 -1.44842 0
M  V30 3274 C 312.93 -2.01424 -3.00184 0
M  V30 3275 O 312.651 -3.39051 -2.77445 0
M  V30 3276 C 314.152 -2.01948 -3.94629 0
M  V30 3277 H 311.372 -0.434318 -0.511477 0
M  V30 3278 H 313.916 -1.74469 -1.0668 0
M  V30 3279 H 312.071 -1.56549 -3.5436 0
M  V30 3280 H 312.485 -3.77711 -3.63916 0
M  V30 3281 H 313.959 -2.59297 -4.87308 0
M  V30 3282 H 314.436 -1.00554 -4.27534 0
M  V30 3283 H 315.042 -2.46767 -3.4639 0
M  V30 3284 N 313.357 1.07166 -1.15556 0
M  V30 3285 C 314.587 1.83248 -0.954133 0
M  V30 3286 C 314.995 1.82449 0.500911 0
M  V30 3287 O 314.338 1.23575 1.35923 0
M  V30 3288 C 314.4 3.31393 -1.39351 0
M  V30 3289 C 314.064 3.5591 -2.86666 0
M  V30 3290 C 315.061 3.49695 -3.8472 0
M  V30 3291 C 312.746 3.83515 -3.24379 0
M  V30 3292 C 314.74 3.70737 -5.18491 0
M  V30 3293 C 312.427 4.04209 -4.58321 0
M  V30 3294 C 313.425 3.97815 -5.55186 0
M  V30 3295 O 313.113 4.17954 -6.86709 0
M  V30 3296 H 312.845 0.584941 -0.338851 0
M  V30 3297 H 315.399 1.36169 -1.53777 0
M  V30 3298 H 313.629 3.79292 -0.75329 0
M  V30 3299 H 315.318 3.88945 -1.16089 0
M  V30 3300 H 316.084 3.28368 -3.56931 0
M  V30 3301 H 311.963 3.87605 -2.49567 0
M  V30 3302 H 315.507 3.65663 -5.94085 0
M  V30 3303 H 311.404 4.25023 -4.85825 0
M  V30 3304 H 312.172 4.35291 -6.93155 0
M  V30 3305 N 314.835 0.952656 1.25548 0
M  V30 3306 C 315.785 0.442033 2.23674 0
M  V30 3307 C 316.769 -0.467632 1.53955 0
M  V30 3308 O 317.961 -0.301006 1.74422 0
M  V30 3309 C 315.09 -0.280816 3.4215 0
M  V30 3310 C 314.176 0.646803 4.19139 0
M  V30 3311 N 314.567 1.77759 4.73535 0
M  V30 3312 C 312.865 0.454617 4.43677 0
M  V30 3313 C 313.566 2.35658 5.31827 0
M  V30 3314 N 312.542 1.64333 5.18166 0
M  V30 3315 H 316.344 1.30505 2.63336 0
M  V30 3316 H 313.858 0.809904 1.40763 0
M  V30 3317 H 315.855 -0.663747 4.11582 0
M  V30 3318 H 314.515 -1.14046 3.04012 0
M  V30 3319 H 315.526 2.15949 4.7073 0
M  V30 3320 H 312.203 -0.362312 4.15925 0
M  V30 3321 H 313.593 3.30998 5.84713 0
M  V30 3322 N 316.313 -1.40141 0.720998 0
M  V30 3323 C 317.538 -2.05618 0.271258 0
M  V30 3324 C 317.963 -1.53978 -1.08039 0
M  V30 3325 O 317.321 -0.677463 -1.68167 0
M  V30 3326 C 317.369 -3.59609 0.267197 0
M  V30 3327 O 316.473 -4.05526 -0.749814 0
M  V30 3328 H 315.814 -0.651904 0.126162 0
M  V30 3329 H 318.344 -1.79439 0.982997 0
M  V30 3330 H 318.354 -4.0786 0.106744 0
M  V30 3331 H 317.029 -3.96559 1.25354 0
M  V30 3332 H 315.606 -3.68722 -0.556644 0
M  V30 3333 N 317.792 -0.46758 -1.50504 0
M  V30 3334 C 319.022 0.086288 -2.0642 0
M  V30 3335 C 319.43 1.34369 -1.33197 0
M  V30 3336 O 318.773 1.79431 -0.393747 0
M  V30 3337 C 318.835 0.443846 -3.5675 0
M  V30 3338 C 318.499 -0.711035 -4.51435 0
M  V30 3339 C 319.496 -1.59205 -4.94924 0
M  V30 3340 C 317.181 -0.900363 -4.94165 0
M  V30 3341 C 319.175 -2.64683 -5.79846 0
M  V30 3342 C 316.862 -1.95837 -5.7887 0
M  V30 3343 C 317.86 -2.82997 -6.21612 0
M  V30 3344 O 317.548 -3.86977 -7.0463 0
M  V30 3345 H 317.28 -0.00217814 -0.675996 0
M  V30 3346 H 319.834 -0.654346 -1.94698 0
M  V30 3347 H 318.064 1.23762 -3.6636 0
M  V30 3348 H 319.753 0.932386 -3.95046 0
M  V30 3349 H 320.519 -1.45745 -4.62583 0
M  V30 3350 H 316.398 -0.231427 -4.60419 0
M  V30 3351 H 319.942 -3.32745 -6.13128 0
M  V30 3352 H 315.839 -2.09305 -6.10624 0
M  V30 3353 H 316.607 -3.83923 -7.22873 0
M  V30 3354 N 319.27 1.56325 -0.20005 0
M  V30 3355 C 320.233 2.18084 0.705132 0
M  V30 3356 C 321.233 1.13666 1.1374 0
M  V30 3357 O 322.423 1.39023 1.04968 0
M  V30 3358 C 319.555 2.78689 1.96329 0
M  V30 3359 H 320.748 2.99435 0.167023 0
M  V30 3360 H 318.301 1.56221 0.0495725 0
M  V30 3361 H 319.036 2.0115 2.5438 0
M  V30 3362 H 318.821 3.55133 1.66202 0
M  V30 3363 H 320.311 3.26096 2.60866 0
M  V30 3364 N 320.748 -0.0735177 1.57428 0
M  V30 3365 C 321.696 -1.10628 2.04607 0
M  V30 3366 C 322.69 -1.40181 0.951088 0
M  V30 3367 O 323.896 -1.39608 1.1362 0
M  V30 3368 H 320.271 -0.374088 0.652351 0
M  V30 3369 H 322.242 -0.682218 2.90497 0
M  V30 3370 C 320.991 -2.41212 2.50423 0
M  V30 3371 H 320.314 -2.19322 3.34272 0
M  V30 3372 H 321.754 -3.11927 2.87189 0
M  V30 3373 C 320.213 -3.0705 1.38644 0
M  V30 3374 O 320.743 -3.95056 0.727582 0
M  V30 3375 N 318.949 -2.67645 1.132 0
M  V30 3376 H 318.496 -1.96169 1.66959 0
M  V30 3377 H 318.454 -3.1202 0.386147 0
M  V30 3378 N 322.226 -1.5378 -0.344866 0
M  V30 3379 C 323.174 -1.82373 -1.4437 0
M  V30 3380 C 324.168 -0.694128 -1.54526 0
M  V30 3381 O 325.374 -0.877442 -1.57165 0
M  V30 3382 H 321.749 -0.577765 -0.481344 0
M  V30 3383 H 323.72 -2.74306 -1.17468 0
M  V30 3384 C 322.469 -2.04898 -2.80913 0
M  V30 3385 H 321.792 -2.9127 -2.73865 0
M  V30 3386 H 323.232 -2.28871 -3.56923 0
M  V30 3387 C 321.691 -0.834116 -3.26411 0
M  V30 3388 O 322.221 -0.0328885 -4.01687 0
M  V30 3389 N 320.427 -0.65171 -2.83198 0
M  V30 3390 H 319.974 -1.30489 -2.22104 0
M  V30 3391 H 319.932 0.159686 -3.13994 0
M  V30 3392 N 323.704 0.605807 -1.45491 0
M  V30 3393 C 324.953 1.36086 -1.48874 0
M  V30 3394 C 325.266 1.95131 -0.135333 0
M  V30 3395 O 326.472 2.7146 -0.0468144 0
M  V30 3396 C 324.928 2.46518 -2.62215 0
M  V30 3397 C 324.536 1.93877 -4.03876 0
M  V30 3398 C 326.28 3.23512 -2.74846 0
M  V30 3399 C 324.187 3.01801 -5.08596 0
M  V30 3400 H 323.117 0.511497 -0.553974 0
M  V30 3401 H 325.768 0.649089 -1.71636 0
M  V30 3402 H 324.15 3.20388 -2.32739 0
M  V30 3403 H 325.324 1.26704 -4.43038 0
M  V30 3404 H 323.639 1.29622 -3.95711 0
M  V30 3405 H 326.236 4.04013 -3.50253 0
M  V30 3406 H 326.579 3.74631 -1.81542 0
M  V30 3407 H 327.112 2.56742 -3.03856 0
M  V30 3408 H 323.851 2.55597 -6.03614 0
M  V30 3409 H 323.371 3.67535 -4.74002 0
M  V30 3410 H 325.05 3.66152 -5.33424 0
M  V30 3411 N 325.182 1.32811 0.848464 0
M  V30 3412 C 326.112 1.24882 1.97299 0
M  V30 3413 C 327.093 0.131357 1.69592 0
M  V30 3414 O 328.278 0.319553 1.91553 0
M  V30 3415 C 325.408 0.97746 3.33261 0
M  V30 3416 C 324.362 2.05682 3.75338 0
M  V30 3417 C 323.688 1.63777 5.09 0
M  V30 3418 C 324.988 3.47254 3.90144 0
M  V30 3419 H 326.682 2.18966 2.04191 0
M  V30 3420 H 324.228 1.05413 0.981029 0
M  V30 3421 H 326.181 0.908513 4.1149 0
M  V30 3422 H 324.905 0.000980011 3.266 0
M  V30 3423 H 323.564 2.11603 2.99366 0
M  V30 3424 H 323.212 0.648569 4.98801 0
M  V30 3425 H 322.912 2.36 5.38124 0
M  V30 3426 H 324.436 1.5833 5.89715 0
M  V30 3427 H 325.85 3.43888 4.58709 0
M  V30 3428 H 324.247 4.1788 4.30693 0
M  V30 3429 H 325.317 3.86462 2.92874 0
M  V30 3430 N 326.66 -1.06551 1.16123 0
M  V30 3431 C 328.076 -1.3142 0.905585 0
M  V30 3432 C 328.276 -1.96571 -0.442964 0
M  V30 3433 O 327.332 -2.23068 -1.18308 0
M  V30 3434 C 328.645 -2.19741 2.05267 0
M  V30 3435 C 330.193 -2.33165 2.08813 0
M  V30 3436 C 330.668 -3.24838 3.22868 0
M  V30 3437 N 332.159 -3.32421 3.22568 0
M  V30 3438 C 332.894 -4.0344 4.0746 0
M  V30 3439 N 332.39 -4.77003 5.02434 0
M  V30 3440 N 334.183 -3.99464 3.95456 0
M  V30 3441 H 326.334 -0.626548 2.02949 0
M  V30 3442 H 328.597 -0.338777 0.8854 0
M  V30 3443 H 328.303 -1.79142 3.02657 0
M  V30 3444 H 328.177 -3.20313 1.99198 0
M  V30 3445 H 330.564 -2.73013 1.12018 0
M  V30 3446 H 330.645 -1.3227 2.18948 0
M  V30 3447 H 330.289 -2.85708 4.19921 0
M  V30 3448 H 330.219 -4.25707 3.0997 0
M  V30 3449 H 332.71 -2.79994 2.53795 0
M  V30 3450 H 333.023 -5.28712 5.63634 0
M  V30 3451 H 331.368 -4.75992 5.06415 0
M  V30 3452 H 334.559 -3.4111 3.20564 0
M  V30 3453 H 334.732 -4.54544 4.61837 0
M  V30 3454 N 328.138 -0.959301 -1.25041 0
M  V30 3455 C 329.366 -0.633949 -1.96948 0
M  V30 3456 C 329.781 0.794916 -1.7125 0
M  V30 3457 O 329.138 1.53231 -0.991287 0
M  V30 3458 C 329.189 -0.888805 -3.50403 0
M  V30 3459 O 328.91 -2.26149 -3.75218 0
M  V30 3460 C 330.411 -0.576482 -4.39536 0
M  V30 3461 H 327.631 -0.237263 -0.627652 0
M  V30 3462 H 330.175 -1.28495 -1.59089 0
M  V30 3463 H 328.33 -0.284145 -3.86357 0
M  V30 3464 H 328.744 -2.33514 -4.6965 0
M  V30 3465 H 330.218 -0.805314 -5.46094 0
M  V30 3466 H 330.695 0.489075 -4.36468 0
M  V30 3467 H 331.301 -1.16067 -4.09156 0
M  V30 3468 N 329.616 1.39756 -0.72842 0
M  V30 3469 C 330.548 2.29157 -0.0446202 0
M  V30 3470 C 331.561 1.46484 0.710367 0
M  V30 3471 O 332.75 1.69632 0.55562 0
M  V30 3472 C 329.85 3.24987 0.961071 0
M  V30 3473 C 329.023 4.36572 0.268967 0
M  V30 3474 C 328.082 5.12756 1.18184 0
M  V30 3475 O 327.108 5.6534 0.661794 0
M  V30 3476 N 328.31 5.23331 2.51206 0
M  V30 3477 H 331.075 2.88482 -0.812295 0
M  V30 3478 H 328.636 1.51265 -0.577098 0
M  V30 3479 H 330.628 3.72827 1.57423 0
M  V30 3480 H 329.198 2.66739 1.63 0
M  V30 3481 H 328.418 3.90694 -0.524574 0
M  V30 3482 H 329.706 5.08363 -0.210934 0
M  V30 3483 H 329.104 4.82116 2.9594 0
M  V30 3484 H 327.661 5.74634 3.07634 0
M  V30 3485 N 331.094 0.475555 1.50254 0
M  V30 3486 C 332.004 -0.321501 2.32387 0
M  V30 3487 C 333.02 -0.991755 1.42969 0
M  V30 3488 O 334.196 -0.978747 1.76018 0
M  V30 3489 C 331.261 -1.38667 3.17762 0
M  V30 3490 C 330.322 -0.732538 4.23004 0
M  V30 3491 C 329.555 -1.74695 5.04299 0
M  V30 3492 O 329.778 -2.97399 4.86734 0
M  V30 3493 O 328.712 -1.31631 5.8733 0
M  V30 3494 H 332.538 0.350071 3.01676 0
M  V30 3495 H 330.123 0.237321 1.47503 0
M  V30 3496 H 332.005 -2.00354 3.70724 0
M  V30 3497 H 330.68 -2.04163 2.51196 0
M  V30 3498 H 329.587 -0.0765902 3.74022 0
M  V30 3499 H 330.92 -0.120452 4.92053 0
M  V30 3500 N 332.573 -1.56217 0.208337 0
M  V30 3501 C 333.798 -2.02782 -0.435222 0
M  V30 3502 C 334.223 -1.08738 -1.53485 0
M  V30 3503 O 333.581 -0.0731855 -1.81152 0
M  V30 3504 C 333.629 -3.47687 -0.956335 0
M  V30 3505 O 332.733 -3.56773 -2.06849 0
M  V30 3506 H 332.074 -0.656403 -0.100158 0
M  V30 3507 H 334.604 -2.02033 0.3231 0
M  V30 3508 H 334.614 -3.87745 -1.26955 0
M  V30 3509 H 333.289 -4.15624 -0.15143 0
M  V30 3510 H 331.866 -3.28597 -1.76292 0
M  V30 3511 N 334.051 0.0651679 -1.57465 0
M  V30 3512 C 335.014 1.06117 -2.03155 0
M  V30 3513 C 336.014 1.31204 -0.929632 0
M  V30 3514 O 337.204 1.26813 -1.19432 0
M  V30 3515 C 334.336 2.4032 -2.41783 0
M  V30 3516 H 335.529 0.667231 -2.92383 0
M  V30 3517 H 333.082 0.311075 -1.53173 0
M  V30 3518 H 333.817 2.84532 -1.55601 0
M  V30 3519 H 333.602 2.23451 -3.22199 0
M  V30 3520 H 335.092 3.11898 -2.77685 0
M  V30 3521 N 335.529 1.53961 0.336706 0
M  V30 3522 C 336.769 1.73254 1.08454 0
M  V30 3523 C 337.133 0.488937 1.8567 0
M  V30 3524 O 338.334 0.559001 2.62923 0
M  V30 3525 C 336.605 2.96519 1.99528 0
M  V30 3526 S 338.164 3.36655 2.81441 0
M  V30 3527 H 334.982 0.609353 0.366347 0
M  V30 3528 H 337.584 1.92117 0.362124 0
M  V30 3529 H 336.288 3.85193 1.41614 0
M  V30 3530 H 335.819 2.80142 2.76196 0
M  V30 3531 H 337.834 2.90925 4.01967 0
M  V30 3532 N 337.007 -0.598083 1.45811 0
M  V30 3533 C 337.955 -1.72932 1.55555 0
M  V30 3534 C 338.949 -1.63984 0.424921 0
M  V30 3535 O 340.155 -1.69663 0.601205 0
M  V30 3536 H 336.53 -0.571489 0.488779 0
M  V30 3537 H 338.501 -1.61842 2.50699 0
M  V30 3538 C 337.25 -3.11318 1.54843 0
M  V30 3539 H 336.573 -3.18867 2.41172 0
M  V30 3540 H 338.013 -3.90274 1.65717 0
M  V30 3541 C 336.472 -3.3578 0.274427 0
M  V30 3542 O 337.002 -3.9654 -0.641778 0
M  V30 3543 N 335.208 -2.90119 0.167139 0
M  V30 3544 H 334.755 -2.40855 0.913596 0
M  V30 3545 H 334.713 -3.0686 -0.684435 0
M  V30 3546 N 338.485 -1.33259 -0.841409 0
M  V30 3547 C 339.725 -1.25902 -1.61022 0
M  V30 3548 C 340.089 0.173325 -1.91216 0
M  V30 3549 O 341.29 0.370824 -2.6623 0
M  V30 3550 C 339.561 -2.10735 -2.88662 0
M  V30 3551 S 341.12 -2.20541 -3.79351 0
M  V30 3552 H 337.938 -0.447958 -0.552137 0
M  V30 3553 H 340.54 -1.68263 -0.995382 0
M  V30 3554 H 339.244 -3.1384 -2.64448 0
M  V30 3555 H 338.775 -1.69201 -3.55154 0
M  V30 3556 H 340.79 -1.36462 -4.77067 0
M  V30 3557 N 339.963 1.05934 -1.16686 0
M  V30 3558 C 341.212 1.78188 -0.945085 0
M  V30 3559 C 341.525 1.88338 0.528021 0
M  V30 3560 O 342.731 2.57258 0.867799 0
M  V30 3561 C 341.187 3.20277 -1.64167 0
M  V30 3562 C 340.795 3.18281 -3.15279 0
M  V30 3563 C 342.539 3.97039 -1.502 0
M  V30 3564 C 340.446 4.55112 -3.7766 0
M  V30 3565 H 339.376 0.667866 -0.349959 0
M  V30 3566 H 342.027 1.18794 -1.39858 0
M  V30 3567 H 340.409 3.79952 -1.11589 0
M  V30 3568 H 341.583 2.68167 -3.74731 0
M  V30 3569 H 339.898 2.55018 -3.29173 0
M  V30 3570 H 342.495 4.98194 -1.94183 0
M  V30 3571 H 342.838 4.13845 -0.451461 0
M  V30 3572 H 343.371 3.43894 -1.99954 0
M  V30 3573 H 340.11 4.43512 -4.82677 0
M  V30 3574 H 339.63 5.05406 -3.22994 0
M  V30 3575 H 341.309 5.24064 -3.79428 0
M  V30 3576 N 341.441 0.965919 1.2453 0
M  V30 3577 C 342.689 0.625593 1.92174 0
M  V30 3578 C 343.01 -0.841652 1.75901 0
M  V30 3579 O 342.28 -1.60061 1.12948 0
M  V30 3580 H 340.86 0.228388 0.71123 0
M  V30 3581 H 343.522 1.2266 1.51461 0
M  V30 3582 H 342.618 0.864653 2.99884 0
M  V30 3583 N 342.919 -1.39368 0.735821 0
M  V30 3584 C 344.167 -2.00101 0.283562 0
M  V30 3585 C 344.488 -1.5868 -1.13338 0
M  V30 3586 O 343.758 -0.835423 -1.77193 0
M  V30 3587 H 342.338 -0.740024 0.101851 0
M  V30 3588 H 345 -1.70404 0.945962 0
M  V30 3589 H 344.096 -3.10323 0.332604 0
M  V30 3590 N 344.397 -0.483516 -1.5 0
M  V30 3591 C 345.674 0.129337 -1.95172 0
M  V30 3592 C 346.054 1.55802 -1.4244 0
M  V30 3593 O 345.402 2.19625 -0.630649 0
M  V30 3594 C 345.612 0.0599251 -3.48949 0
M  V30 3595 C 346.96 0.242617 -4.23906 0
M  V30 3596 O 347.984 0.135933 -3.55941 0
M  V30 3597 O 346.843 0.459454 -5.44565 0
M  V30 3598 H 343.937 0.104887 -0.820322 0
M  V30 3599 H 346.483 -0.544807 -1.60717 0
M  V30 3600 H 345.255 -0.937079 -3.79914 0
M  V30 3601 H 344.878 0.774984 -3.89974 0
M  V30 3602 N 345.875 1.56104 -0.216619 0
M  V30 3603 C 347.115 2.00074 0.418322 0
M  V30 3604 C 347.479 1.10098 1.57297 0
M  V30 3605 O 348.68 1.43393 2.27359 0
M  V30 3606 C 346.951 3.47231 0.846477 0
M  V30 3607 S 348.51 4.13223 1.47622 0
M  V30 3608 H 345.328 0.698457 0.132962 0
M  V30 3609 H 347.93 1.92784 -0.324748 0
M  V30 3610 H 346.634 4.104 -0.0036319 0
M  V30 3611 H 346.165 3.58384 1.62248 0
M  V30 3612 H 348.18 4.12005 2.76526 0
M  V30 3613 N 347.353 -0.0568162 1.57498 0
M  V30 3614 C 348.583 -0.764515 1.91934 0
M  V30 3615 C 348.991 -1.70877 0.81227 0
M  V30 3616 O 348.334 -1.82351 -0.222213 0
M  V30 3617 C 348.396 -1.5994 3.21962 0
M  V30 3618 C 348.06 -0.822925 4.4953 0
M  V30 3619 C 349.057 -0.135464 5.19723 0
M  V30 3620 C 346.742 -0.785666 4.96117 0
M  V30 3621 C 348.736 0.578861 6.34766 0
M  V30 3622 C 346.423 -0.0675784 6.11063 0
M  V30 3623 C 347.421 0.613471 6.80239 0
M  V30 3624 O 347.109 1.31996 7.92989 0
M  V30 3625 H 346.841 -0.221647 0.63863 0
M  V30 3626 H 349.395 -0.0268218 2.05382 0
M  V30 3627 H 347.625 -2.38026 3.04763 0
M  V30 3628 H 349.314 -2.18715 3.41934 0
M  V30 3629 H 350.08 -0.155458 4.84751 0
M  V30 3630 H 345.959 -1.30524 4.42136 0
M  V30 3631 H 349.503 1.111 6.88696 0
M  V30 3632 H 345.4 -0.0455636 6.45484 0
M  V30 3633 H 346.168 1.23077 8.09194 0
M  V30 3634 N 348.832 -1.54138 -0.328536 0
M  V30 3635 C 349.762 -1.86167 -1.40939 0
M  V30 3636 C 350.743 -0.718044 -1.54202 0
M  V30 3637 O 351.928 -0.971328 -1.68163 0
M  V30 3638 C 349.058 -2.08461 -2.77779 0
M  V30 3639 C 348.012 -3.24299 -2.7931 0
M  V30 3640 C 347.338 -3.31955 -4.19178 0
M  V30 3641 C 348.638 -4.62065 -2.43502 0
M  V30 3642 H 350.332 -2.76689 -1.14383 0
M  V30 3643 H 347.878 -1.33132 -0.548806 0
M  V30 3644 H 349.831 -2.29453 -3.53454 0
M  V30 3645 H 348.555 -1.14684 -3.05802 0
M  V30 3646 H 347.214 -3.03187 -2.0609 0
M  V30 3647 H 346.862 -2.35745 -4.44335 0
M  V30 3648 H 346.562 -4.09805 -4.2111 0
M  V30 3649 H 348.086 -3.55175 -4.96672 0
M  V30 3650 H 349.5 -4.8297 -3.08889 0
M  V30 3651 H 347.897 -5.42429 -2.56693 0
M  V30 3652 H 348.967 -4.64652 -1.38659 0
M  V30 3653 N 350.31 0.590341 -1.46126 0
M  V30 3654 C 351.243 1.71434 -1.50617 0
M  V30 3655 C 352.221 1.58543 -0.360948 0
M  V30 3656 O 353.405 1.79865 -0.563985 0
M  V30 3657 C 350.532 3.09422 -1.37753 0
M  V30 3658 C 349.578 3.40854 -2.5636 0
M  V30 3659 S 350.411 3.33773 -4.18755 0
M  V30 3660 C 351.567 4.74312 -4.08386 0
M  V30 3661 H 351.8 1.67364 -2.45717 0
M  V30 3662 H 349.333 0.76845 -1.33919 0
M  V30 3663 H 351.291 3.8903 -1.31018 0
M  V30 3664 H 349.952 3.10989 -0.440949 0
M  V30 3665 H 349.145 4.41368 -2.43332 0
M  V30 3666 H 348.747 2.68798 -2.60046 0
M  V30 3667 H 351.039 5.64522 -3.74595 0
M  V30 3668 H 351.982 4.92397 -5.08872 0
M  V30 3669 H 352.39 4.50803 -3.3976 0
M  V30 3670 N 351.788 1.33704 0.83433 0
M  V30 3671 C 353.037 1.24763 1.58484 0
M  V30 3672 C 353.35 -0.183775 1.94735 0
M  V30 3673 O 354.556 -0.395234 2.68608 0
M  V30 3674 C 353.012 2.18638 2.85876 0
M  V30 3675 C 352.62 3.66974 2.56971 0
M  V30 3676 C 354.364 2.18581 3.63899 0
M  V30 3677 C 352.271 4.5275 3.80488 0
M  V30 3678 H 351.201 0.463425 0.594772 0
M  V30 3679 H 353.852 1.58797 0.919551 0
M  V30 3680 H 352.234 1.77542 3.5397 0
M  V30 3681 H 353.408 4.16538 1.9706 0
M  V30 3682 H 351.723 3.69366 1.92244 0
M  V30 3683 H 354.32 2.79894 4.55591 0
M  V30 3684 H 354.663 1.18207 3.99165 0
M  V30 3685 H 355.196 2.58062 3.02735 0
M  V30 3686 H 351.935 5.54017 3.5035 0
M  V30 3687 H 351.455 4.07927 4.39722 0
M  V30 3688 H 353.134 4.66784 4.4802 0
M  V30 3689 N 353.266 -1.05314 1.17247 0
M  V30 3690 C 354.494 -1.81971 0.984593 0
M  V30 3691 C 354.909 -1.82929 -0.467166 0
M  V30 3692 O 354.266 -1.25564 -1.32438 0
M  V30 3693 C 354.317 -3.28143 1.51672 0
M  V30 3694 O 354.038 -3.27347 2.91163 0
M  V30 3695 C 355.539 -4.21493 1.37326 0
M  V30 3696 H 352.759 -0.573455 0.348411 0
M  V30 3697 H 355.303 -1.32808 1.55506 0
M  V30 3698 H 353.458 -3.74582 0.988302 0
M  V30 3699 H 353.872 -4.18824 3.15732 0
M  V30 3700 H 355.346 -5.22043 1.79375 0
M  V30 3701 H 355.823 -4.38031 0.320169 0
M  V30 3702 H 356.429 -3.80909 1.89178 0
M  V30 3703 N 354.744 -0.972509 -1.24016 0
M  V30 3704 C 356.021 -0.553733 -1.87598 0
M  V30 3705 C 356.401 0.969158 -1.87538 0
M  V30 3706 O 355.749 1.84255 -1.35139 0
M  V30 3707 C 355.959 -1.15076 -3.29482 0
M  V30 3708 C 357.307 -1.23862 -4.06132 0
M  V30 3709 O 358.331 -1.10363 -3.38672 0
M  V30 3710 O 357.19 -1.45252 -5.26844 0
M  V30 3711 H 354.284 -0.185331 -0.805966 0
M  V30 3712 H 356.83 -1.06709 -1.31952 0
M  V30 3713 H 355.602 -2.19333 -3.2405 0
M  V30 3714 H 355.225 -0.621746 -3.92709 0
M  V30 3715 N 356.222 1.38976 -0.743202 0
M  V30 3716 C 357.47 1.99948 -0.29417 0
M  V30 3717 C 357.791 1.59279 1.12495 0
M  V30 3718 O 357.061 0.844808 1.76748 0
M  V30 3719 H 355.641 0.739473 -0.105774 0
M  V30 3720 H 358.303 1.699 -0.954986 0
M  V30 3721 H 357.399 3.10142 -0.349056 0
M  V30 3722 N 357.7 0.491464 1.49741 0
M  V30 3723 C 358.925 -0.0557177 2.07325 0
M  V30 3724 C 359.35 -1.30925 1.35056 0
M  V30 3725 O 358.708 -1.76733 0.404365 0
M  V30 3726 C 358.756 -0.302074 3.59333 0
M  V30 3727 O 357.86 -1.37868 3.88672 0
M  V30 3728 H 357.201 0.0219956 0.663636 0
M  V30 3729 H 359.731 0.688352 1.92673 0
M  V30 3730 H 359.741 -0.536464 4.04458 0
M  V30 3731 H 358.416 0.61383 4.11345 0
M  V30 3732 H 356.993 -1.12999 3.55367 0
M  V30 3733 N 359.178 -1.55987 0.224894 0
M  V30 3734 C 360.141 -2.19178 -0.670348 0
M  V30 3735 C 361.141 -1.15461 -1.11917 0
M  V30 3736 O 362.331 -1.40675 -1.02743 0
M  V30 3737 C 359.463 -2.81777 -1.9187 0
M  V30 3738 H 360.656 -2.99662 -0.119364 0
M  V30 3739 H 358.209 -1.5628 -0.0247128 0
M  V30 3740 H 358.944 -2.05172 -2.51147 0
M  V30 3741 H 358.729 -3.57732 -1.60531 0
M  V30 3742 H 360.219 -3.30205 -2.55645 0
M  V30 3743 N 360.656 0.0484629 -1.57525 0
M  V30 3744 C 361.881 0.759177 -1.93006 0
M  V30 3745 C 362.306 1.69125 -0.823317 0
M  V30 3746 O 361.664 1.79931 0.222364 0
M  V30 3747 C 361.712 1.50899 -3.27509 0
M  V30 3748 O 360.816 2.62112 -3.18388 0
M  V30 3749 H 360.157 0.205564 -0.631379 0
M  V30 3750 H 362.687 0.00972959 -2.04598 0
M  V30 3751 H 362.697 1.88317 -3.6194 0
M  V30 3752 H 361.372 0.825269 -4.0763 0
M  V30 3753 H 359.949 2.27379 -2.95556 0
M  V30 3754 N 362.134 1.5431 0.320358 0
M  V30 3755 C 363.382 1.72327 1.05583 0
M  V30 3756 C 363.703 0.50149 1.88441 0
M  V30 3757 O 362.973 -0.48448 1.89815 0
M  V30 3758 H 361.553 0.635387 0.3928 0
M  V30 3759 H 364.215 1.91621 0.356019 0
M  V30 3760 H 363.311 2.60426 1.72003 0
M  V30 3761 N 363.613 -0.582584 1.46437 0
M  V30 3762 C 364.862 -1.337 1.5102 0
M  V30 3763 C 365.175 -1.94891 0.166359 0
M  V30 3764 O 366.381 -2.71351 0.0899954 0
M  V30 3765 C 364.837 -2.42315 2.66104 0
M  V30 3766 C 364.445 -1.87427 4.06909 0
M  V30 3767 C 366.189 -3.19099 2.79958 0
M  V30 3768 C 364.096 -2.93672 5.13333 0
M  V30 3769 H 363.026 -0.502619 0.562041 0
M  V30 3770 H 365.677 -0.621701 1.72647 0
M  V30 3771 H 364.059 -3.16645 2.37807 0
M  V30 3772 H 365.233 -1.19639 4.44998 0
M  V30 3773 H 363.548 -1.2331 3.97723 0
M  V30 3774 H 366.145 -3.9839 3.56636 0
M  V30 3775 H 366.488 -3.71695 1.87479 0
M  V30 3776 H 367.021 -2.51875 3.07902 0
M  V30 3777 H 363.76 -2.45962 6.07604 0
M  V30 3778 H 363.28 -3.59948 4.79789 0
M  V30 3779 H 364.959 -3.5762 5.39182 0
M  V30 3780 N 365.091 -1.34144 -0.827227 0
M  V30 3781 C 366.316 -1.29476 -1.62021 0
M  V30 3782 C 366.741 0.129292 -1.87655 0
M  V30 3783 O 366.099 1.08967 -1.449 0
M  V30 3784 C 366.147 -2.08702 -2.94068 0
M  V30 3785 O 365.251 -1.45359 -3.85933 0
M  V30 3786 H 364.592 -0.444881 -0.492927 0
M  V30 3787 H 367.122 -1.76882 -1.02829 0
M  V30 3788 H 367.132 -2.19898 -3.43669 0
M  V30 3789 H 365.807 -3.12241 -2.74734 0
M  V30 3790 H 364.384 -1.42879 -3.44442 0
M  V30 3791 N 366.569 1.04691 -1.17803 0
M  V30 3792 C 367.516 2.12557 -0.899343 0
M  V30 3793 C 368.486 1.65339 0.158771 0
M  V30 3794 O 369.671 1.90789 0.0204797 0
M  V30 3795 C 366.811 3.42481 -0.424315 0
M  V30 3796 C 365.924 4.03346 -1.54713 0
M  V30 3797 C 365.059 5.21208 -1.02546 0
M  V30 3798 C 364.098 5.74089 -2.12339 0
M  V30 3799 N 363.235 6.83247 -1.61612 0
M  V30 3800 H 368.075 2.35734 -1.823 0
M  V30 3801 H 365.612 1.1564 -0.909159 0
M  V30 3802 H 367.57 4.16996 -0.130421 0
M  V30 3803 H 366.2 3.19471 0.462377 0
M  V30 3804 H 365.252 3.2622 -1.95664 0
M  V30 3805 H 366.564 4.38628 -2.37501 0
M  V30 3806 H 365.718 6.02812 -0.685718 0
M  V30 3807 H 364.457 4.87414 -0.167084 0
M  V30 3808 H 363.462 4.91111 -2.47165 0
M  V30 3809 H 364.687 6.0993 -2.98601 0
M  V30 3810 H 362.633 6.5134 -0.780533 0
M  V30 3811 H 362.55 7.17559 -2.38003 0
M  V30 3812 H 363.818 7.68491 -1.30545 0
M  V30 3813 N 368.047 0.979072 1.23499 0
M  V30 3814 C 369.287 0.655228 1.93613 0
M  V30 3815 C 369.651 -0.796336 1.74707 0
M  V30 3816 O 370.852 -1.23094 2.38959 0
M  V30 3817 C 369.123 1.03337 3.42135 0
M  V30 3818 S 370.682 0.825793 4.3096 0
M  V30 3819 H 367.5 0.240004 0.669267 0
M  V30 3820 H 370.102 1.25843 1.49612 0
M  V30 3821 H 368.806 2.08646 3.53405 0
M  V30 3822 H 368.337 0.421397 3.91137 0
M  V30 3823 H 370.352 -0.290991 4.95346 0
M  V30 3824 N 369.525 -1.3858 0.750561 0
M  V30 3825 C 370.941 -1.53759 0.427824 0
M  V30 3826 C 371.141 -1.71401 -1.05943 0
M  V30 3827 O 370.197 -1.72331 -1.84549 0
M  V30 3828 C 371.51 -2.74642 1.22443 0
M  V30 3829 C 373.058 -2.88489 1.2142 0
M  V30 3830 C 373.533 -4.12329 1.9937 0
M  V30 3831 N 375.024 -4.194 1.96616 0
M  V30 3832 C 375.759 -5.14209 2.53727 0
M  V30 3833 N 375.255 -6.14709 3.19539 0
M  V30 3834 N 377.048 -5.06537 2.43673 0
M  V30 3835 H 369.199 -1.25377 1.71447 0
M  V30 3836 H 371.462 -0.608844 0.726645 0
M  V30 3837 H 371.168 -2.68 2.27747 0
M  V30 3838 H 371.042 -3.67745 0.839273 0
M  V30 3839 H 373.429 -2.94614 0.169232 0
M  V30 3840 H 373.51 -1.96406 1.63885 0
M  V30 3841 H 373.154 -4.06966 3.03877 0
M  V30 3842 H 373.084 -5.03486 1.54302 0
M  V30 3843 H 375.575 -3.47421 1.48684 0
M  V30 3844 H 375.888 -6.8354 3.60545 0
M  V30 3845 H 374.233 -6.1505 3.23633 0
M  V30 3846 H 377.424 -4.26962 1.91889 0
M  V30 3847 H 377.597 -5.80245 2.88479 0
M  V30 3848 N 371.003 -0.499398 -1.49478 0
M  V30 3849 C 372.25 0.0456899 -2.02448 0
M  V30 3850 C 372.578 1.37142 -1.37921 0
M  V30 3851 O 371.833 1.89111 -0.503544 0
M  V30 3852 C 372.132 0.248424 -3.56536 0
M  V30 3853 C 371.798 -0.999107 -4.39692 0
M  V30 3854 C 370.46 -1.34108 -4.62135 0
M  V30 3855 C 372.812 -1.82842 -4.88076 0
M  V30 3856 C 370.14 -2.51191 -5.30208 0
M  V30 3857 C 372.492 -2.99076 -5.57437 0
M  V30 3858 C 371.156 -3.33655 -5.78127 0
M  V30 3859 H 370.426 0.0167191 -0.740811 0
M  V30 3860 H 373.073 -0.65923 -1.79795 0
M  V30 3861 H 371.378 1.03586 -3.77859 0
M  V30 3862 H 373.075 0.684605 -3.95113 0
M  V30 3863 H 369.665 -0.722729 -4.22463 0
M  V30 3864 H 373.849 -1.57737 -4.70566 0
M  V30 3865 H 369.105 -2.78221 -5.44429 0
M  V30 3866 H 373.279 -3.63664 -5.93904 0
M  V30 3867 H 370.906 -4.24483 -6.30649 0
M  V30 3868 N 372.481 1.55866 -0.233164 0
M  V30 3869 C 373.411 2.23783 0.666599 0
M  V30 3870 C 374.392 1.21343 1.19205 0
M  V30 3871 O 375.577 1.4996 1.23392 0
M  V30 3872 C 372.707 2.92671 1.86978 0
M  V30 3873 C 371.661 4.01682 1.47768 0
M  V30 3874 C 370.987 4.57926 2.76058 0
M  V30 3875 C 372.287 5.18126 0.658993 0
M  V30 3876 H 373.981 2.99232 0.100306 0
M  V30 3877 H 371.527 1.43924 0.046804 0
M  V30 3878 H 373.48 3.3888 2.50476 0
M  V30 3879 H 372.204 2.14688 2.46123 0
M  V30 3880 H 370.863 3.56222 0.866106 0
M  V30 3881 H 370.511 3.76659 3.33372 0
M  V30 3882 H 370.211 5.31505 2.50552 0
M  V30 3883 H 371.735 5.06859 3.40479 0
M  V30 3884 H 373.149 5.60644 1.19795 0
M  V30 3885 H 371.546 5.98009 0.500552 0
M  V30 3886 H 372.616 4.83763 -0.331856 0
M  V30 3887 N 373.959 -0.0401083 1.57549 0
M  V30 3888 C 374.906 -1.04413 2.05831 0
M  V30 3889 C 375.876 -1.36585 0.945184 0
M  V30 3890 O 377.061 -1.47112 1.21502 0
M  V30 3891 C 374.201 -2.34336 2.53339 0
M  V30 3892 C 373.314 -2.08419 3.78398 0
M  V30 3893 C 372.449 -3.32133 4.14561 0
M  V30 3894 C 371.488 -3.01721 5.3257 0
M  V30 3895 N 370.625 -4.17855 5.64218 0
M  V30 3896 H 375.465 -0.625442 2.91363 0
M  V30 3897 H 373.002 -0.297218 1.44066 0
M  V30 3898 H 374.96 -3.10234 2.78946 0
M  V30 3899 H 373.59 -2.73948 1.7074 0
M  V30 3900 H 372.642 -1.23069 3.59942 0
M  V30 3901 H 373.954 -1.81978 4.64419 0
M  V30 3902 H 373.108 -4.16406 4.41238 0
M  V30 3903 H 371.847 -3.61678 3.2717 0
M  V30 3904 H 370.852 -2.15849 5.05657 0
M  V30 3905 H 372.077 -2.73466 6.21605 0
M  V30 3906 H 370.023 -4.47372 4.79786 0
M  V30 3907 H 369.94 -3.94798 6.44725 0
M  V30 3908 H 371.208 -5.03033 5.95465 0
M  V30 3909 N 375.437 -1.54477 -0.31217 0
M  V30 3910 C 376.686 -1.72438 -1.04633 0
M  V30 3911 C 376.999 -0.511163 -1.88803 0
M  V30 3912 O 378.205 -0.572341 -2.65399 0
M  V30 3913 C 376.661 -3.05043 -1.9099 0
M  V30 3914 C 376.269 -4.33806 -1.11877 0
M  V30 3915 C 378.013 -3.32364 -2.64073 0
M  V30 3916 C 375.92 -5.57467 -1.97445 0
M  V30 3917 H 374.85 -0.642647 -0.394361 0
M  V30 3918 H 377.501 -1.80966 -0.303929 0
M  V30 3919 H 375.883 -2.90451 -2.69173 0
M  V30 3920 H 377.057 -4.59199 -0.383843 0
M  V30 3921 H 375.372 -4.13336 -0.504252 0
M  V30 3922 H 377.969 -4.21951 -3.28423 0
M  V30 3923 H 378.312 -2.50745 -3.32314 0
M  V30 3924 H 378.845 -3.47875 -1.92944 0
M  V30 3925 H 375.584 -6.41722 -1.33692 0
M  V30 3926 H 375.104 -5.36277 -2.6864 0
M  V30 3927 H 376.783 -5.94303 -2.5576 0
M  V30 3928 N 376.915 0.57481 -1.46744 0
M  V30 3929 C 378.331 0.898981 -1.31873 0
M  V30 3930 C 378.531 1.99313 -0.29605 0
M  V30 3931 O 377.587 2.50728 0.298621 0
M  V30 3932 C 378.9 1.30886 -2.7072 0
M  V30 3933 C 380.448 1.42127 -2.78871 0
M  V30 3934 C 380.923 1.86478 -4.18318 0
M  V30 3935 N 382.414 1.93658 -4.20774 0
M  V30 3936 C 383.149 2.29267 -5.2557 0
M  V30 3937 N 382.645 2.63612 -6.40688 0
M  V30 3938 N 384.438 2.29889 -5.1294 0
M  V30 3939 H 376.589 -0.147839 -2.11885 0
M  V30 3940 H 378.852 -0.00347013 -0.947994 0
M  V30 3941 H 378.558 0.578853 -3.46904 0
M  V30 3942 H 378.432 2.26874 -3.01343 0
M  V30 3943 H 380.819 2.14213 -2.0297 0
M  V30 3944 H 380.9 0.443705 -2.51922 0
M  V30 3945 H 380.544 1.14968 -4.94717 0
M  V30 3946 H 380.474 2.85207 -4.42679 0
M  V30 3947 H 382.965 1.69574 -3.37718 0
M  V30 3948 H 383.278 2.89759 -7.16421 0
M  V30 3949 H 381.623 2.61232 -6.44036 0
M  V30 3950 H 384.814 2.02485 -4.22039 0
M  V30 3951 H 384.987 2.57312 -5.94722 0
M  V30 3952 N 378.394 1.34581 0.820102 0
M  V30 3953 C 379.304 1.28471 1.96297 0
M  V30 3954 C 380.32 0.191902 1.72939 0
M  V30 3955 O 381.496 0.418879 1.96996 0
M  V30 3956 C 378.561 1.04281 3.30645 0
M  V30 3957 C 377.622 2.22745 3.66992 0
M  V30 3958 C 376.855 1.997 4.9493 0
M  V30 3959 O 377.078 0.956656 5.6232 0
M  V30 3960 O 376.012 2.86723 5.2922 0
M  V30 3961 H 379.838 2.24624 2.04396 0
M  V30 3962 H 377.423 1.14816 0.955913 0
M  V30 3963 H 379.305 0.925841 4.11104 0
M  V30 3964 H 377.98 0.111697 3.23507 0
M  V30 3965 H 376.887 2.40003 2.86966 0
M  V30 3966 H 378.22 3.14257 3.78819 0
M  V30 3967 N 379.872 -1.04064 1.18357 0
M  V30 3968 C 381.12 -1.76915 0.977013 0
M  V30 3969 C 381.441 -1.88624 -0.494577 0
M  V30 3970 O 380.711 -1.41125 -1.3587 0
M  V30 3971 H 379.291 -0.65535 0.358504 0
M  V30 3972 H 381.953 -1.25592 1.49039 0
M  V30 3973 H 381.049 -2.78178 1.41504 0
M  V30 3974 N 381.35 -0.985608 -1.22978 0
M  V30 3975 C 382.766 -0.695104 -1.43668 0
M  V30 3976 C 382.966 0.736866 -1.87543 0
M  V30 3977 O 382.022 1.50868 -2.02473 0
M  V30 3978 C 383.335 -1.69447 -2.48412 0
M  V30 3979 C 384.883 -1.70909 -2.62219 0
M  V30 3980 C 385.358 -2.6969 -3.70178 0
M  V30 3981 N 386.849 -2.6824 -3.77626 0
M  V30 3982 C 387.584 -3.41339 -4.60733 0
M  V30 3983 N 387.08 -4.24015 -5.4789 0
M  V30 3984 N 388.873 -3.30079 -4.54977 0
M  V30 3985 H 381.024 -1.91054 -0.928016 0
M  V30 3986 H 383.287 -0.823553 -0.469536 0
M  V30 3987 H 382.993 -2.7188 -2.23102 0
M  V30 3988 H 382.867 -1.48147 -3.46889 0
M  V30 3989 H 385.254 -0.691785 -2.86877 0
M  V30 3990 H 385.335 -1.96276 -1.6404 0
M  V30 3991 H 384.979 -3.71566 -3.46268 0
M  V30 3992 H 384.909 -2.41595 -4.67909 0
M  V30 3993 H 387.4 -2.08243 -3.15346 0
M  V30 3994 H 387.713 -4.76636 -6.08308 0
M  V30 3995 H 386.058 -4.28104 -5.47496 0
M  V30 3996 H 389.249 -2.64937 -3.85909 0
M  V30 3997 H 389.422 -3.87308 -5.19516 0
M  V30 3998 N 382.828 1.3818 -0.7579 0
M  V30 3999 C 384.077 1.99261 -0.312744 0
M  V30 4000 C 384.39 1.60846 1.11301 0
M  V30 4001 O 385.596 2.14929 1.65885 0
M  V30 4002 C 384.052 3.56294 -0.50821 0
M  V30 4003 C 383.66 4.03657 -1.94333 0
M  V30 4004 C 385.404 4.24313 -0.125982 0
M  V30 4005 C 383.311 5.53347 -2.08712 0
M  V30 4006 H 382.241 0.745456 -0.113185 0
M  V30 4007 H 384.892 1.57889 -0.935056 0
M  V30 4008 H 383.274 3.95575 0.183353 0
M  V30 4009 H 384.448 3.75655 -2.66871 0
M  V30 4010 H 382.763 3.48376 -2.28086 0
M  V30 4011 H 385.36 5.34279 -0.212125 0
M  V30 4012 H 385.703 4.05962 0.921964 0
M  V30 4013 H 386.236 3.90285 -0.769563 0
M  V30 4014 H 382.975 5.76607 -3.11777 0
M  V30 4015 H 382.495 5.83078 -1.4064 0
M  V30 4016 H 384.174 6.19111 -1.87912 0
M  V30 4017 N 384.306 0.507319 1.49211 0
M  V30 4018 C 385.555 -0.0368315 2.01666 0
M  V30 4019 C 385.868 -1.37459 1.39156 0
M  V30 4020 O 387.074 -2.00579 1.82976 0
M  V30 4021 C 385.53 -0.116089 3.59713 0
M  V30 4022 C 385.138 1.2154 4.31198 0
M  V30 4023 C 386.882 -0.610268 4.2009 0
M  V30 4024 C 384.789 1.09796 5.81119 0
M  V30 4025 H 383.719 -0.0175376 0.753796 0
M  V30 4026 H 386.37 0.647691 1.71689 0
M  V30 4027 H 384.752 -0.8652 3.86433 0
M  V30 4028 H 385.926 1.9783 4.16173 0
M  V30 4029 H 384.241 1.64352 3.82593 0
M  V30 4030 H 386.838 -0.715742 5.29888 0
M  V30 4031 H 387.181 -1.61064 3.8388 0
M  V30 4032 H 387.714 0.0824916 3.97714 0
M  V30 4033 H 384.453 2.0728 6.21864 0
M  V30 4034 H 383.973 0.376058 5.9862 0
M  V30 4035 H 385.652 0.779281 6.4229 0
M  V30 4036 N 385.784 -1.5574 0.241426 0
M  V30 4037 C 386.731 -2.21149 -0.660432 0
M  V30 4038 C 387.701 -1.17356 -1.17545 0
M  V30 4039 O 388.886 -1.45784 -1.23093 0
M  V30 4040 C 386.026 -2.91059 -1.85414 0
M  V30 4041 C 385.139 -4.09495 -1.37616 0
M  V30 4042 C 384.274 -4.67135 -2.529 0
M  V30 4043 C 383.313 -5.77831 -2.01936 0
M  V30 4044 N 382.45 -6.29677 -3.10566 0
M  V30 4045 H 387.29 -2.97845 -0.095955 0
M  V30 4046 H 384.827 -1.47057 -0.0356024 0
M  V30 4047 H 386.785 -3.29788 -2.5553 0
M  V30 4048 H 385.415 -2.16846 -2.39118 0
M  V30 4049 H 384.467 -3.76117 -0.569235 0
M  V30 4050 H 385.779 -4.89423 -0.962618 0
M  V30 4051 H 384.933 -5.08409 -3.31067 0
M  V30 4052 H 383.672 -3.86411 -2.97553 0
M  V30 4053 H 382.677 -5.36039 -1.22238 0
M  V30 4054 H 383.902 -6.60402 -1.58259 0
M  V30 4055 H 381.848 -5.5186 -3.54664 0
M  V30 4056 H 381.765 -7.04783 -2.73526 0
M  V30 4057 H 383.033 -6.75609 -3.88809 0
M  V30 4058 N 387.262 0.0317525 -1.57568 0
M  V30 4059 C 388.172 1.05021 -2.0978 0
M  V30 4060 C 389.188 1.39809 -1.03583 0
M  V30 4061 O 390.364 1.49182 -1.35302 0
M  V30 4062 C 387.429 2.33301 -2.56459 0
M  V30 4063 C 386.49 2.0512 -3.77127 0
M  V30 4064 C 385.723 3.27283 -4.2157 0
M  V30 4065 O 385.946 4.37861 -3.65559 0
M  V30 4066 O 384.88 3.13141 -5.14029 0
M  V30 4067 H 388.706 0.636505 -2.96955 0
M  V30 4068 H 386.291 0.248559 -1.47318 0
M  V30 4069 H 388.173 3.08722 -2.86825 0
M  V30 4070 H 386.848 2.73973 -1.72397 0
M  V30 4071 H 385.755 1.27276 -3.51784 0
M  V30 4072 H 387.088 1.69305 -4.62165 0
M  V30 4073 N 388.74 1.54641 0.303973 0
M  V30 4074 C 389.989 1.7299 1.03717 0
M  V30 4075 C 390.302 0.521168 1.88529 0
M  V30 4076 O 391.508 0.586408 2.65092 0
M  V30 4077 C 389.964 3.06051 1.89369 0
M  V30 4078 C 389.572 4.34393 1.09574 0
M  V30 4079 C 391.316 3.3376 2.62306 0
M  V30 4080 C 389.223 5.58506 1.94486 0
M  V30 4081 H 388.153 0.64473 0.390947 0
M  V30 4082 H 390.804 1.81124 0.294328 0
M  V30 4083 H 389.186 2.91874 2.67629 0
M  V30 4084 H 390.36 4.59396 0.359485 0
M  V30 4085 H 388.675 4.13597 0.482324 0
M  V30 4086 H 391.272 4.23687 3.26181 0
M  V30 4087 H 391.615 2.52503 3.3098 0
M  V30 4088 H 392.148 3.48894 1.91097 0
M  V30 4089 H 388.887 6.42422 1.30287 0
M  V30 4090 H 388.407 5.37694 2.65792 0
M  V30 4091 H 390.086 5.95651 2.52605 0
M  V30 4092 N 390.218 -0.567019 1.47046 0
M  V30 4093 C 391.465 -1.32462 1.53167 0
M  V30 4094 C 391.793 -1.93571 0.189841 0
M  V30 4095 O 391.048 -1.77865 -0.816243 0
M  V30 4096 C 391.347 -2.4623 2.59047 0
M  V30 4097 C 391.013 -2.03014 4.02612 0
M  V30 4098 C 389.675 -1.90944 4.41694 0
M  V30 4099 C 392.027 -1.69895 4.92732 0
M  V30 4100 C 389.355 -1.44035 5.68745 0
M  V30 4101 C 391.707 -1.2446 6.20236 0
M  V30 4102 C 390.371 -1.10979 6.5821 0
M  V30 4103 H 389.641 -0.484713 0.560477 0
M  V30 4104 H 392.288 -0.636888 1.80599 0
M  V30 4105 H 390.593 -3.20517 2.25335 0
M  V30 4106 H 392.29 -3.04427 2.61008 0
M  V30 4107 H 388.88 -2.13348 3.71726 0
M  V30 4108 H 393.064 -1.78098 4.63244 0
M  V30 4109 H 388.32 -1.32254 5.96925 0
M  V30 4110 H 392.494 -0.978924 6.89485 0
M  V30 4111 H 390.121 -0.744078 7.5655 0
M  V30 4112 N 391.696 -1.35014 -0.812953 0
M  V30 4113 C 393.107 -1.25035 -1.38648 0
M  V30 4114 C 393.458 0.119967 -1.95833 0
M  V30 4115 O 392.583 1.02069 -1.90816 0
M  V30 4116 C 393.178 -2.26394 -2.52054 0
M  V30 4117 C 391.737 -2.20175 -3.05287 0
M  V30 4118 C 390.884 -2.12451 -1.78213 0
M  V30 4119 H 393.835 -1.46235 -0.616516 0
M  V30 4120 H 393.856 -1.88672 -3.30429 0
M  V30 4121 H 393.368 -3.26116 -2.10404 0
M  V30 4122 H 391.469 -1.23841 -3.51417 0
M  V30 4123 H 391.582 -3.11863 -3.63701 0
M  V30 4124 H 389.946 -1.58328 -1.9951 0
M  V30 4125 H 390.729 -3.14024 -1.38723 0
M  V30 4126 N 393.175 1.03435 -1.18907 0
M  V30 4127 C 394.403 1.80381 -1.01342 0
M  V30 4128 C 394.818 1.83649 0.438005 0
M  V30 4129 O 394.175 1.27655 1.30424 0
M  V30 4130 C 394.226 3.25689 -1.56873 0
M  V30 4131 O 393.947 3.22673 -2.96334 0
M  V30 4132 C 395.448 4.19255 -1.44014 0
M  V30 4133 H 392.668 0.56784 -0.35749 0
M  V30 4134 H 395.212 1.30317 -1.576 0
M  V30 4135 H 393.367 3.72962 -1.04777 0
M  V30 4136 H 393.781 4.13748 -3.22355 0
M  V30 4137 H 395.255 5.19123 -1.87657 0
M  V30 4138 H 395.732 4.37467 -0.389815 0
M  V30 4139 H 396.338 3.77851 -1.95214 0
M  V30 4140 N 394.653 0.992116 1.22453 0
M  V30 4141 C 395.901 0.666215 1.90804 0
M  V30 4142 C 396.222 -0.804152 1.77647 0
M  V30 4143 O 395.492 -1.57629 1.16318 0
M  V30 4144 H 394.072 0.243423 0.706225 0
M  V30 4145 H 396.734 1.25845 1.48825 0
M  V30 4146 H 395.83 0.928069 2.97982 0
M  V30 4147 N 396.131 -1.37776 0.765217 0
M  V30 4148 C 397.547 -1.53297 0.444108 0
M  V30 4149 C 397.747 -1.72515 -1.04119 0
M  V30 4150 O 396.803 -1.74278 -1.82711 0
M  V30 4151 C 398.116 -2.73328 1.25349 0
M  V30 4152 C 399.664 -2.87185 1.24473 0
M  V30 4153 C 400.139 -4.10191 2.03733 0
M  V30 4154 N 401.63 -4.17291 2.01053 0
M  V30 4155 C 402.365 -5.11488 2.59166 0
M  V30 4156 N 401.861 -6.11285 3.26041 0
M  V30 4157 N 403.654 -5.03924 2.49032 0
M  V30 4158 H 395.805 -1.23552 1.72768 0
M  V30 4159 H 398.068 -0.601103 0.733062 0
M  V30 4160 H 397.774 -2.6557 2.30577 0
M  V30 4161 H 397.648 -3.66834 0.87823 0
M  V30 4162 H 400.035 -2.94418 0.20047 0
M  V30 4163 H 400.116 -1.94657 1.65959 0
M  V30 4164 H 399.76 -4.0372 3.08176 0
M  V30 4165 H 399.69 -5.01821 1.59633 0
M  V30 4166 H 402.181 -3.45825 1.5236 0
M  V30 4167 H 402.494 -6.79678 3.67774 0
M  V30 4168 H 400.839 -6.11583 3.30138 0
M  V30 4169 H 404.03 -4.24902 1.96407 0
M  V30 4170 H 404.203 -5.77152 2.94617 0
M  V30 4171 N 397.609 -0.515225 -1.4894 0
M  V30 4172 C 398.855 0.0242508 -2.02785 0
M  V30 4173 C 399.188 1.35323 -1.39289 0
M  V30 4174 O 398.463 1.87041 -0.533469 0
M  V30 4175 C 398.746 0.16184 -3.59736 0
M  V30 4176 C 398.599 -1.19127 -4.33738 0
M  V30 4177 C 399.918 0.895719 -4.30888 0
M  V30 4178 H 397.037 0.00733914 -0.736963 0
M  V30 4179 H 399.679 -0.669395 -1.77818 0
M  V30 4180 H 397.829 0.752624 -3.8114 0
M  V30 4181 H 399.501 -1.82202 -4.23792 0
M  V30 4182 H 397.744 -1.77695 -3.95736 0
M  V30 4183 H 398.415 -1.04815 -5.41957 0
M  V30 4184 H 400.891 0.394528 -4.14225 0
M  V30 4185 H 399.767 0.960859 -5.40425 0
M  V30 4186 H 400.028 1.9427 -3.97129 0
M  V30 4187 N 399.087 1.5561 -0.249682 0
M  V30 4188 C 399.997 2.25143 0.659375 0
M  V30 4189 C 401.013 1.2685 1.19101 0
M  V30 4190 O 402.189 1.59732 1.22669 0
M  V30 4191 C 399.254 2.93945 1.8384 0
M  V30 4192 C 398.315 4.07655 1.34596 0
M  V30 4193 C 397.548 4.73167 2.46878 0
M  V30 4194 O 397.771 4.37768 3.65671 0
M  V30 4195 O 396.705 5.61623 2.16478 0
M  V30 4196 H 400.531 3.03545 0.0968698 0
M  V30 4197 H 398.116 1.49389 -0.018074 0
M  V30 4198 H 399.998 3.37271 2.52638 0
M  V30 4199 H 398.673 2.18481 2.38847 0
M  V30 4200 H 397.58 3.68839 0.625174 0
M  V30 4201 H 398.913 4.84946 0.841941 0
M  V30 4202 N 400.565 -0.0233959 1.57583 0
M  V30 4203 C 401.515 -1.03023 2.03397 0
M  V30 4204 C 402.499 -1.31701 0.924315 0
M  V30 4205 O 403.691 -1.31191 1.18819 0
M  V30 4206 C 400.82 -2.32961 2.52159 0
M  V30 4207 C 399.906 -2.07349 3.69956 0
M  V30 4208 N 400.297 -1.51814 4.82479 0
M  V30 4209 C 398.595 -2.37606 3.77438 0
M  V30 4210 C 399.296 -1.42136 5.64068 0
M  V30 4211 N 398.272 -1.89891 5.09355 0
M  V30 4212 H 402.074 -0.594962 2.87815 0
M  V30 4213 H 399.588 -0.229586 1.60769 0
M  V30 4214 H 401.585 -3.05906 2.83244 0
M  V30 4215 H 400.245 -2.77162 1.69149 0
M  V30 4216 H 401.256 -1.20008 5.03804 0
M  V30 4217 H 397.933 -2.84842 3.05239 0
M  V30 4218 H 399.323 -0.996405 6.64471 0
M  V30 4219 N 402.043 -1.548 -0.295768 0
M  V30 4220 C 403.271 -1.78327 -1.04914 0
M  V30 4221 C 403.686 -0.545316 -1.80753 0
M  V30 4222 O 403.043 0.485013 -1.75937 0
M  V30 4223 C 403.094 -2.99418 -2.02561 0
M  V30 4224 O 402.815 -4.18431 -1.29798 0
M  V30 4225 C 404.316 -3.35375 -2.89895 0
M  V30 4226 H 401.536 -0.594618 -0.310918 0
M  V30 4227 H 404.08 -2.01763 -0.333454 0
M  V30 4228 H 402.235 -2.78175 -2.69624 0
M  V30 4229 H 402.649 -4.86736 -1.95419 0
M  V30 4230 H 404.123 -4.23332 -3.54251 0
M  V30 4231 H 404.6 -2.53761 -3.58472 0
M  V30 4232 H 405.206 -3.58796 -2.28355 0
M  V30 4233 N 403.521 0.559213 -1.47345 0
M  V30 4234 C 404.431 1.69388 -1.62311 0
M  V30 4235 C 405.447 1.6648 -0.505993 0
M  V30 4236 O 406.623 1.85964 -0.773262 0
M  V30 4237 C 403.688 3.05894 -1.63185 0
M  V30 4238 C 402.749 3.19885 -2.86307 0
M  V30 4239 C 401.982 4.49879 -2.87131 0
M  V30 4240 O 402.205 5.35217 -1.97229 0
M  V30 4241 O 401.139 4.67618 -3.78968 0
M  V30 4242 H 404.965 1.59706 -2.58317 0
M  V30 4243 H 402.55 0.728989 -1.30407 0
M  V30 4244 H 404.432 3.87133 -1.66451 0
M  V30 4245 H 403.107 3.15964 -0.70345 0
M  V30 4246 H 402.014 2.38052 -2.88587 0
M  V30 4247 H 403.347 3.14718 -3.78435 0
M  V30 4248 N 404.999 1.35443 0.805782 0
M  V30 4249 C 405.909 1.30546 1.94923 0
M  V30 4250 C 406.925 0.210233 1.72725 0
M  V30 4251 O 408.101 0.43975 1.9654 0
M  V30 4252 C 405.166 1.07782 3.29521 0
M  V30 4253 C 404.227 2.26625 3.64609 0
M  V30 4254 C 403.46 2.04938 4.92784 0
M  V30 4255 O 403.683 1.01624 5.61274 0
M  V30 4256 O 402.617 2.9232 5.26149 0
M  V30 4257 H 406.443 2.26779 2.02002 0
M  V30 4258 H 404.028 1.15823 0.943682 0
M  V30 4259 H 405.91 0.969392 4.10098 0
M  V30 4260 H 404.585 0.146003 3.23371 0
M  V30 4261 H 403.492 2.43033 2.84404 0
M  V30 4262 H 404.825 3.18257 3.75464 0
M  V30 4263 N 406.477 -1.02803 1.19454 0
M  V30 4264 C 407.717 -1.77769 1.00883 0
M  V30 4265 C 408.081 -1.86596 -0.45233 0
M  V30 4266 O 409.282 -2.57895 -0.757877 0
M  V30 4267 C 407.553 -3.16486 1.66046 0
M  V30 4268 S 409.112 -4.07632 1.62424 0
M  V30 4269 H 405.93 -0.611949 0.361993 0
M  V30 4270 H 408.532 -1.23175 1.51816 0
M  V30 4271 H 407.236 -3.0768 2.7159 0
M  V30 4272 H 406.767 -3.76156 1.15196 0
M  V30 4273 H 408.782 -4.91937 0.64903 0
M  V30 4274 N 407.956 -0.998596 -1.21925 0
M  V30 4275 C 409.184 -0.696286 -1.94832 0
M  V30 4276 C 409.599 0.740032 -1.73692 0
M  V30 4277 O 408.956 1.5 -1.03953 0
M  V30 4278 C 409.007 -0.999833 -3.47398 0
M  V30 4279 O 408.728 -2.37972 -3.67833 0
M  V30 4280 C 410.229 -0.716025 -4.37479 0
M  V30 4281 H 407.449 -0.257111 -0.619786 0
M  V30 4282 H 409.993 -1.33491 -1.54921 0
M  V30 4283 H 408.148 -0.406918 -3.85257 0
M  V30 4284 H 408.562 -2.48338 -4.61983 0
M  V30 4285 H 410.036 -0.978642 -5.43256 0
M  V30 4286 H 410.513 0.349968 -4.37803 0
M  V30 4287 H 411.119 -1.29025 -4.05256 0
M  V30 4288 N 409.434 1.37368 -0.772513 0
M  V30 4289 C 410.674 2.01512 -0.342361 0
M  V30 4290 C 411.038 1.59997 1.06136 0
M  V30 4291 O 412.239 2.16609 1.59167 0
M  V30 4292 C 410.51 3.54134 -0.482048 0
M  V30 4293 S 412.069 4.38585 -0.137272 0
M  V30 4294 H 408.887 0.698699 -0.131686 0
M  V30 4295 H 411.489 1.67552 -1.0073 0
M  V30 4296 H 410.193 3.81837 -1.50428 0
M  V30 4297 H 409.724 3.92894 0.199413 0
M  V30 4298 H 411.739 4.84594 1.06692 0
M  V30 4299 N 410.912 0.523116 1.48665 0
M  V30 4300 C 412.16 -0.0134497 2.02096 0
M  V30 4301 C 412.481 -1.35418 1.40311 0
M  V30 4302 O 411.751 -1.87543 0.566074 0
M  V30 4303 H 410.331 -0.00795915 0.746958 0
M  V30 4304 H 412.993 0.685388 1.82451 0
M  V30 4305 H 412.089 -0.126849 3.11842 0
M  V30 4306 N 412.39 -1.55475 0.257931 0
M  V30 4307 C 413.637 -1.99207 -0.363728 0
M  V30 4308 C 413.965 -1.1462 -1.57139 0
M  V30 4309 O 413.22 -0.199653 -1.94679 0
M  V30 4310 C 413.519 -3.48183 -0.806433 0
M  V30 4311 C 413.185 -4.49936 0.294684 0
M  V30 4312 C 411.847 -4.77481 0.597076 0
M  V30 4313 C 414.199 -5.10769 1.03751 0
M  V30 4314 C 411.527 -5.63132 1.64618 0
M  V30 4315 C 413.879 -5.97558 2.07622 0
M  V30 4316 C 412.543 -6.23432 2.38514 0
M  V30 4317 H 411.813 -0.728949 -0.133097 0
M  V30 4318 H 414.46 -1.8793 0.368059 0
M  V30 4319 H 412.765 -3.56848 -1.61761 0
M  V30 4320 H 414.462 -3.79415 -1.29789 0
M  V30 4321 H 411.052 -4.28572 0.0488649 0
M  V30 4322 H 415.236 -4.89527 0.817149 0
M  V30 4323 H 410.492 -5.8143 1.89074 0
M  V30 4324 H 414.666 -6.43735 2.65666 0
M  V30 4325 H 412.293 -6.89594 3.19943 0
M  V30 4326 N 413.868 0.0150385 -1.57593 0
M  V30 4327 C 414.831 0.995996 -2.06428 0
M  V30 4328 C 415.831 1.2818 -0.970903 0
M  V30 4329 O 417.021 1.22949 -1.23406 0
M  V30 4330 C 414.153 2.32506 -2.49307 0
M  V30 4331 H 415.346 0.573873 -2.94358 0
M  V30 4332 H 412.899 0.262186 -1.54085 0
M  V30 4333 H 413.634 2.79438 -1.64575 0
M  V30 4334 H 413.419 2.13087 -3.29145 0
M  V30 4335 H 414.909 3.02906 -2.87468 0
M  V30 4336 N 415.346 1.54954 0.287554 0
M  V30 4337 C 416.571 1.79209 1.04397 0
M  V30 4338 C 416.996 0.556431 1.79682 0
M  V30 4339 O 416.354 -0.493518 1.74454 0
M  V30 4340 C 416.402 3.00739 1.98969 0
M  V30 4341 O 415.506 2.74805 3.075 0
M  V30 4342 H 414.847 0.592755 0.299227 0
M  V30 4343 H 417.377 2.02068 0.320886 0
M  V30 4344 H 417.387 3.29077 2.4119 0
M  V30 4345 H 416.062 3.90329 1.43582 0
M  V30 4346 H 414.639 2.57523 2.69697 0
M  V30 4347 N 416.824 -0.551391 1.4764 0
M  V30 4348 C 417.772 -1.67896 1.60978 0
M  V30 4349 C 418.766 -1.62549 0.476877 0
M  V30 4350 O 419.972 -1.67664 0.654878 0
M  V30 4351 H 416.347 -0.555649 0.506713 0
M  V30 4352 H 418.318 -1.53784 2.55721 0
M  V30 4353 C 417.067 -3.06234 1.64669 0
M  V30 4354 H 416.39 -3.11033 2.51194 0
M  V30 4355 H 417.83 -3.84804 1.7805 0
M  V30 4356 C 416.289 -3.34737 0.381115 0
M  V30 4357 O 416.819 -3.98381 -0.515297 0
M  V30 4358 N 415.025 -2.8944 0.259354 0
M  V30 4359 H 414.572 -2.37827 0.98976 0
M  V30 4360 H 414.53 -3.08882 -0.586464 0
M  V30 4361 N 418.302 -1.35869 -0.798587 0
M  V30 4362 C 419.249 -1.29446 -1.91082 0
M  V30 4363 C 420.219 -0.16487 -1.6528 0
M  V30 4364 O 421.404 -0.349888 -1.87564 0
M  V30 4365 C 418.544 -1.0804 -3.27752 0
M  V30 4366 C 417.657 -2.29993 -3.65687 0
M  V30 4367 C 416.792 -2.01673 -4.91428 0
M  V30 4368 C 415.831 -3.19636 -5.22015 0
M  V30 4369 N 414.968 -2.91039 -6.38937 0
M  V30 4370 H 419.808 -2.24553 -1.95907 0
M  V30 4371 H 417.345 -1.11615 -0.958148 0
M  V30 4372 H 419.303 -0.936586 -4.06551 0
M  V30 4373 H 417.933 -0.16592 -3.22373 0
M  V30 4374 H 416.985 -2.55211 -2.82085 0
M  V30 4375 H 418.297 -3.18052 -3.84245 0
M  V30 4376 H 417.451 -1.84168 -5.78072 0
M  V30 4377 H 416.19 -1.10911 -4.74921 0
M  V30 4378 H 415.195 -3.37709 -4.33858 0
M  V30 4379 H 416.42 -4.11211 -5.40447 0
M  V30 4380 H 414.366 -2.0288 -6.2384 0
M  V30 4381 H 414.283 -3.72635 -6.57784 0
M  V30 4382 H 415.551 -2.77093 -7.28587 0
M  V30 4383 N 419.78 1.02168 -1.19998 0
M  V30 4384 C 421.008 1.79296 -1.03249 0
M  V30 4385 C 421.423 1.84103 0.418502 0
M  V30 4386 O 420.78 1.29031 1.29063 0
M  V30 4387 C 420.831 3.24007 -1.60319 0
M  V30 4388 O 420.552 3.19512 -2.99739 0
M  V30 4389 C 422.053 4.17704 -1.48453 0
M  V30 4390 H 419.273 0.564016 -0.363493 0
M  V30 4391 H 421.817 1.28639 -1.58973 0
M  V30 4392 H 419.972 3.7183 -1.08727 0
M  V30 4393 H 420.386 4.10306 -3.26725 0
M  V30 4394 H 421.86 5.17104 -1.93153 0
M  V30 4395 H 422.337 4.37029 -0.436193 0
M  V30 4396 H 422.943 3.7576 -1.99211 0
M  V30 4397 N 421.258 1.00505 1.21394 0
M  V30 4398 C 422.507 0.683159 1.89778 0
M  V30 4399 C 422.82 -0.789471 1.7896 0
M  V30 4400 O 424.026 -1.22344 2.42372 0
M  V30 4401 C 422.482 1.17146 3.40301 0
M  V30 4402 C 422.09 2.67017 3.5973 0
M  V30 4403 C 423.834 0.924461 4.14311 0
M  V30 4404 C 421.741 3.09387 5.04017 0
M  V30 4405 H 420.671 0.25183 0.710702 0
M  V30 4406 H 423.322 1.21622 1.37406 0
M  V30 4407 H 421.704 0.566451 3.91928 0
M  V30 4408 H 422.878 3.32968 3.18542 0
M  V30 4409 H 421.193 2.89732 2.99073 0
M  V30 4410 H 423.79 1.21658 5.20676 0
M  V30 4411 H 424.133 -0.139286 4.16067 0
M  V30 4412 H 424.666 1.49226 3.6875 0
M  V30 4413 H 421.405 4.14989 5.07409 0
M  V30 4414 H 420.925 2.48149 5.46061 0
M  V30 4415 H 422.604 3.01371 5.72525 0
M  V30 4416 N 422.737 -1.36956 0.779787 0
M  V30 4417 C 423.647 -2.33965 0.172491 0
M  V30 4418 C 424.663 -1.60574 -0.670222 0
M  V30 4419 O 425.839 -1.92617 -0.588263 0
M  V30 4420 C 422.904 -3.39761 -0.690173 0
M  V30 4421 C 421.965 -4.28964 0.169924 0
M  V30 4422 C 421.198 -5.29707 -0.651662 0
M  V30 4423 O 421.421 -5.38238 -1.88827 0
M  V30 4424 O 420.355 -6.01873 -0.0566264 0
M  V30 4425 H 424.181 -2.87647 0.974321 0
M  V30 4426 H 421.766 -1.39258 0.541078 0
M  V30 4427 H 423.648 -4.04471 -1.1824 0
M  V30 4428 H 422.323 -2.88394 -1.47006 0
M  V30 4429 H 421.23 -3.67326 0.708696 0
M  V30 4430 H 422.563 -4.83656 0.913085 0
M  V30 4431 N 424.215 -0.530993 -1.48385 0
M  V30 4432 C 425.455 0.000718982 -2.044 0
M  V30 4433 C 425.819 1.31485 -1.39913 0
M  V30 4434 O 427.02 1.93265 -1.86821 0
M  V30 4435 C 425.291 0.119177 -3.57201 0
M  V30 4436 S 426.85 0.600806 -4.34667 0
M  V30 4437 H 423.668 -0.0125473 -0.710889 0
M  V30 4438 H 426.27 -0.711783 -1.82082 0
M  V30 4439 H 424.974 -0.842061 -4.01668 0
M  V30 4440 H 424.505 0.856026 -3.83974 0
M  V30 4441 H 426.52 1.86514 -4.59812 0
M  V30 4442 N 425.693 1.55336 -0.266172 0
M  V30 4443 C 426.656 2.20878 0.612001 0
M  V30 4444 C 427.656 1.18388 1.08816 0
M  V30 4445 O 428.846 1.4335 0.989774 0
M  V30 4446 C 425.978 2.86765 1.84332 0
M  V30 4447 H 427.171 2.99873 0.0398718 0
M  V30 4448 H 424.724 1.56291 -0.0167309 0
M  V30 4449 H 425.459 2.11759 2.45619 0
M  V30 4450 H 425.244 3.61862 1.5099 0
M  V30 4451 H 426.734 3.36867 2.46801 0
M  V30 4452 N 427.171 -0.0066808 1.57599 0
M  V30 4453 C 428.411 -0.697501 1.92131 0
M  V30 4454 C 428.775 -1.71306 0.867071 0
M  V30 4455 O 429.976 -2.45377 1.09743 0
M  V30 4456 C 428.247 -1.32978 3.3174 0
M  V30 4457 S 429.806 -2.04665 3.88146 0
M  V30 4458 H 426.624 -0.230555 0.672581 0
M  V30 4459 H 429.226 0.0484026 1.9544 0
M  V30 4460 H 427.93 -0.57772 4.06313 0
M  V30 4461 H 427.461 -2.11376 3.31789 0
M  V30 4462 H 429.476 -3.32097 3.68682 0
M  V30 4463 N 428.649 -1.55105 -0.279332 0
M  V30 4464 C 430.065 -1.46803 -0.626187 0
M  V30 4465 C 430.265 -0.676939 -1.89789 0
M  V30 4466 O 429.321 -0.19326 -2.51759 0
M  V30 4467 C 430.634 -2.90962 -0.759034 0
M  V30 4468 C 432.182 -3.01138 -0.853504 0
M  V30 4469 C 432.657 -4.46539 -1.01818 0
M  V30 4470 N 434.148 -4.50341 -1.08386 0
M  V30 4471 C 434.883 -5.60053 -1.22996 0
M  V30 4472 N 434.379 -6.79645 -1.34366 0
M  V30 4473 N 436.172 -5.47783 -1.26056 0
M  V30 4474 H 428.323 -2.04996 0.555921 0
M  V30 4475 H 430.586 -0.929325 0.187239 0
M  V30 4476 H 430.292 -3.51544 0.104852 0
M  V30 4477 H 430.166 -3.39619 -1.64131 0
M  V30 4478 H 432.553 -2.40658 -1.70786 0
M  V30 4479 H 432.634 -2.55745 0.0532466 0
M  V30 4480 H 432.278 -5.0762 -0.168504 0
M  V30 4481 H 432.208 -4.89583 -1.93948 0
M  V30 4482 H 434.699 -3.64191 -1.00864 0
M  V30 4483 H 435.012 -7.59012 -1.4533 0
M  V30 4484 H 433.357 -6.82469 -1.31382 0
M  V30 4485 H 436.548 -4.53294 -1.168 0
M  V30 4486 H 436.721 -6.33331 -1.37098 0
M  V30 4487 N 430.127 0.543554 -1.4793 0
M  V30 4488 C 431.404 1.30458 -1.4574 0
M  V30 4489 C 431.784 2.1048 -0.161692 0
M  V30 4490 O 431.132 2.11831 0.856734 0
M  V30 4491 C 431.342 2.19754 -2.71126 0
M  V30 4492 C 432.69 2.80334 -3.18901 0
M  V30 4493 O 433.714 2.30049 -2.71948 0
M  V30 4494 O 432.573 3.71766 -4.00565 0
M  V30 4495 H 429.667 0.588117 -0.581418 0
M  V30 4496 H 432.213 0.561328 -1.60147 0
M  V30 4497 H 430.985 1.60316 -3.56952 0
M  V30 4498 H 430.608 3.01351 -2.59371 0
M  V30 4499 N 431.605 1.3629 0.791371 0
M  V30 4500 C 432.553 1.30514 1.92533 0
M  V30 4501 C 433.547 0.197285 1.68247 0
M  V30 4502 O 434.753 0.364176 1.76278 0
M  V30 4503 H 431.128 0.406263 0.632815 0
M  V30 4504 H 433.099 2.26282 1.94523 0
M  V30 4505 C 431.848 1.10933 3.29529 0
M  V30 4506 H 431.171 1.95427 3.48781 0
M  V30 4507 H 432.611 1.10937 4.0923 0
M  V30 4508 C 431.07 -0.186123 3.36385 0
M  V30 4509 O 431.6 -1.17664 3.84081 0
M  V30 4510 N 429.806 -0.230128 2.89687 0
M  V30 4511 H 429.353 0.576545 2.51065 0
M  V30 4512 H 429.311 -1.09658 2.94657 0
M  V30 4513 N 433.083 -1.0153 1.20538 0
M  V30 4514 C 434.308 -1.79283 1.04271 0
M  V30 4515 C 434.733 -1.8372 -0.403544 0
M  V30 4516 O 434.091 -1.27321 -1.2907 0
M  V30 4517 C 434.139 -3.21535 1.63241 0
M  V30 4518 O 433.243 -4.03099 0.870908 0
M  V30 4519 H 432.584 -0.55293 0.367647 0
M  V30 4520 H 435.114 -1.27696 1.59859 0
M  V30 4521 H 435.124 -3.72243 1.6703 0
M  V30 4522 H 433.799 -3.1762 2.68497 0
M  V30 4523 H 432.376 -3.61693 0.907323 0
M  V30 4524 N 434.561 -1.01147 -1.20859 0
M  V30 4525 C 435.791 -0.715872 -1.93801 0
M  V30 4526 C 436.199 0.726592 -1.74692 0
M  V30 4527 O 435.542 1.50397 -1.05482 0
M  V30 4528 C 435.604 -0.965269 -3.46299 0
M  V30 4529 C 435.268 -2.39584 -3.89164 0
M  V30 4530 C 436.265 -3.3764 -3.95342 0
M  V30 4531 C 433.95 -2.73522 -4.21297 0
M  V30 4532 C 435.944 -4.67698 -4.33056 0
M  V30 4533 C 433.631 -4.03794 -4.58687 0
M  V30 4534 C 434.629 -5.00693 -4.64538 0
M  V30 4535 O 434.317 -6.28635 -5.01072 0
M  V30 4536 H 434.049 -0.262524 -0.622942 0
M  V30 4537 H 436.603 -1.35413 -1.54443 0
M  V30 4538 H 434.833 -0.269847 -3.85757 0
M  V30 4539 H 436.522 -0.662051 -4.00464 0
M  V30 4540 H 437.288 -3.12757 -3.70686 0
M  V30 4541 H 433.167 -1.9879 -4.15937 0
M  V30 4542 H 436.711 -5.4333 -4.37537 0
M  V30 4543 H 432.608 -4.28459 -4.82797 0
M  V30 4544 H 433.376 -6.32847 -5.19083 0
M  V30 4545 N 436.039 1.36541 -0.78704 0
M  V30 4546 C 437.267 2.03561 -0.370199 0
M  V30 4547 C 437.682 1.59347 1.01263 0
M  V30 4548 O 437.039 0.781781 1.64907 0
M  V30 4549 C 437.09 3.59033 -0.421614 0
M  V30 4550 O 436.811 4.01634 -1.7499 0
M  V30 4551 C 438.312 4.433 0.00489763 0
M  V30 4552 H 435.532 0.653346 -0.152904 0
M  V30 4553 H 438.076 1.74566 -1.06522 0
M  V30 4554 H 436.231 3.86746 0.224971 0
M  V30 4555 H 436.645 4.96217 -1.69909 0
M  V30 4556 H 438.119 5.51939 -0.0822184 0
M  V30 4557 H 438.596 4.26285 1.05723 0
M  V30 4558 H 439.202 4.20843 -0.614085 0
M  V30 4559 N 437.518 0.538854 1.48102 0
M  V30 4560 C 438.481 -0.208395 2.28251 0
M  V30 4561 C 439.481 -0.859656 1.35892 0
M  V30 4562 O 440.671 -0.71834 1.58699 0
M  V30 4563 C 437.803 -1.30252 3.15035 0
M  V30 4564 H 438.996 0.495407 2.9578 0
M  V30 4565 H 436.549 0.295112 1.53489 0
M  V30 4566 H 437.284 -2.0393 2.52157 0
M  V30 4567 H 437.069 -0.840551 3.82985 0
M  V30 4568 H 438.559 -1.82787 3.75471 0
M  V30 4569 N 438.996 -1.55193 0.274407 0
M  V30 4570 C 439.943 -2.225 -0.613374 0
M  V30 4571 C 440.913 -1.19823 -1.15029 0
M  V30 4572 O 442.098 -1.48362 -1.19973 0
M  V30 4573 C 439.238 -2.94927 -1.79199 0
M  V30 4574 C 438.351 -4.12322 -1.28899 0
M  V30 4575 C 437.486 -4.72394 -2.42934 0
M  V30 4576 C 436.525 -5.81984 -1.89634 0
M  V30 4577 N 435.662 -6.36123 -2.9714 0
M  V30 4578 H 440.502 -2.97982 -0.032756 0
M  V30 4579 H 438.039 -1.47099 -0.00440146 0
M  V30 4580 H 439.997 -3.35134 -2.48478 0
M  V30 4581 H 438.627 -2.2187 -2.34465 0
M  V30 4582 H 437.679 -3.7724 -0.489327 0
M  V30 4583 H 438.991 -4.91355 -0.858587 0
M  V30 4584 H 438.145 -5.15317 -3.20208 0
M  V30 4585 H 436.884 -3.92636 -2.8929 0
M  V30 4586 H 435.889 -5.38511 -1.1084 0
M  V30 4587 H 437.114 -6.6361 -1.44215 0
M  V30 4588 H 435.06 -5.59259 -3.42878 0
M  V30 4589 H 434.977 -7.10427 -2.58515 0
M  V30 4590 H 436.245 -6.83704 -3.74391 0
M  V30 4591 N 440.474 -0.00167713 -1.576 0
M  V30 4592 C 441.89 0.354422 -1.55615 0
M  V30 4593 C 442.09 1.74679 -1.00447 0
M  V30 4594 O 441.146 2.4428 -0.639022 0
M  V30 4595 C 442.459 0.22812 -2.99833 0
M  V30 4596 C 444.007 0.302934 -3.11531 0
M  V30 4597 C 444.482 0.205737 -4.57538 0
M  V30 4598 N 445.973 0.263584 -4.62449 0
M  V30 4599 C 446.708 0.211742 -5.73009 0
M  V30 4600 N 446.204 0.110399 -6.92712 0
M  V30 4601 N 447.997 0.263729 -5.61481 0
M  V30 4602 H 440.148 -0.912498 -1.918 0
M  V30 4603 H 442.411 -0.349928 -0.881053 0
M  V30 4604 H 442.117 -0.729934 -3.44042 0
M  V30 4605 H 441.991 1.00951 -3.6344 0
M  V30 4606 H 444.378 1.25143 -2.67251 0
M  V30 4607 H 444.459 -0.508357 -2.50698 0
M  V30 4608 H 444.103 -0.739225 -5.02492 0
M  V30 4609 H 444.033 1.03554 -5.16318 0
M  V30 4610 H 446.524 0.343173 -3.76339 0
M  V30 4611 H 446.837 0.0767828 -7.72762 0
M  V30 4612 H 445.182 0.0760025 -6.94958 0
M  V30 4613 H 448.373 0.34111 -4.66855 0
M  V30 4614 H 448.546 0.219862 -6.47627 0
M  V30 4615 N 441.952 1.55251 0.271103 0
M  V30 4616 C 443.363 1.66635 0.842007 0
M  V30 4617 C 443.714 0.594631 1.86972 0
M  V30 4618 O 442.839 -0.263532 2.14789 0
M  V30 4619 C 443.434 3.02082 1.53401 0
M  V30 4620 C 441.993 3.15487 2.05293 0
M  V30 4621 C 441.14 2.62438 0.895631 0
M  V30 4622 H 444.091 1.58629 0.0474117 0
M  V30 4623 H 444.112 2.95176 2.40107 0
M  V30 4624 H 443.624 3.80062 0.785786 0
M  V30 4625 H 441.725 2.42284 2.83071 0
M  V30 4626 H 441.838 4.22075 2.26693 0
M  V30 4627 H 440.202 2.19644 1.28953 0
M  V30 4628 H 440.985 3.42923 0.160878 0
M  V30 4629 N 443.43 -0.535701 1.48216 0
M  V30 4630 C 444.677 -1.29183 1.55942 0
M  V30 4631 C 445.005 -1.93125 0.230857 0
M  V30 4632 O 444.26 -1.79556 -0.778331 0
M  V30 4633 C 444.559 -2.4068 2.64212 0
M  V30 4634 C 444.225 -1.94428 4.06827 0
M  V30 4635 C 442.887 -1.81532 4.45645 0
M  V30 4636 C 445.239 -1.59405 4.96225 0
M  V30 4637 C 442.567 -1.31939 5.71672 0
M  V30 4638 C 444.919 -1.11276 6.22736 0
M  V30 4639 C 443.583 -0.969924 6.60416 0
M  V30 4640 H 442.853 -0.472715 0.570632 0
M  V30 4641 H 445.5 -0.598437 1.81909 0
M  V30 4642 H 443.805 -3.15666 2.32083 0
M  V30 4643 H 445.502 -2.98822 2.67407 0
M  V30 4644 H 442.092 -2.05415 3.76168 0
M  V30 4645 H 446.276 -1.68231 4.66917 0
M  V30 4646 H 441.532 -1.19562 5.99596 0
M  V30 4647 H 445.706 -0.832453 6.91407 0
M  V30 4648 H 443.333 -0.583436 7.57958 0
M  V30 4649 N 444.908 -1.36708 -0.784132 0
M  V30 4650 C 446.154 -1.31426 -1.54451 0
M  V30 4651 C 446.487 0.10476 -1.93917 0
M  V30 4652 O 445.762 1.05934 -1.6312 0
M  V30 4653 C 446.045 -2.24189 -2.818 0
M  V30 4654 C 445.898 -3.74813 -2.48667 0
M  V30 4655 C 447.217 -2.15626 -3.83658 0
M  V30 4656 H 444.336 -0.478739 -0.560337 0
M  V30 4657 H 446.978 -1.67305 -0.900498 0
M  V30 4658 H 445.128 -1.93722 -3.36755 0
M  V30 4659 H 446.8 -4.15823 -1.99722 0
M  V30 4660 H 445.043 -3.93989 -1.81535 0
M  V30 4661 H 445.714 -4.35138 -3.39646 0
M  V30 4662 H 448.19 -2.42456 -3.38163 0
M  V30 4663 H 447.066 -2.82694 -4.70506 0
M  V30 4664 H 447.327 -1.14522 -4.27009 0
M  V30 4665 N 446.386 1.0089 -1.21074 0
M  V30 4666 C 447.333 2.09588 -0.966512 0
M  V30 4667 C 448.303 1.65761 0.106089 0
M  V30 4668 O 449.488 1.90758 -0.0402287 0
M  V30 4669 C 446.628 3.40958 -0.533058 0
M  V30 4670 C 445.741 3.9822 -1.67467 0
M  V30 4671 C 444.876 5.17682 -1.19076 0
M  V30 4672 C 443.915 5.67043 -2.30496 0
M  V30 4673 N 443.052 6.77759 -1.83267 0
M  V30 4674 H 447.892 2.29815 -1.89708 0
M  V30 4675 H 445.429 1.12689 -0.945489 0
M  V30 4676 H 447.387 4.1637 -0.263019 0
M  V30 4677 H 446.017 3.20781 0.360505 0
M  V30 4678 H 445.069 3.1983 -2.05944 0
M  V30 4679 H 446.381 4.3085 -2.51336 0
M  V30 4680 H 445.535 6.00326 -0.877151 0
M  V30 4681 H 444.274 4.86635 -0.322066 0
M  V30 4682 H 443.279 4.82999 -2.62664 0
M  V30 4683 H 444.504 6.00121 -3.17855 0
M  V30 4684 H 442.45 6.48527 -0.987356 0
M  V30 4685 H 442.367 7.09624 -2.60711 0
M  V30 4686 H 443.635 7.63949 -1.54928 0
M  V30 4687 N 447.864 1.01787 1.20321 0
M  V30 4688 C 448.794 0.609625 2.25401 0
M  V30 4689 C 449.775 -0.375951 1.65893 0
M  V30 4690 O 450.96 -0.261101 1.92437 0
M  V30 4691 C 448.09 -0.0515995 3.47262 0
M  V30 4692 C 447.044 0.855095 4.19371 0
M  V30 4693 C 446.37 0.0595757 5.34667 0
M  V30 4694 C 447.67 2.16374 4.75373 0
M  V30 4695 H 449.364 1.48803 2.59804 0
M  V30 4696 H 446.91 0.716934 1.24884 0
M  V30 4697 H 448.863 -0.348764 4.19954 0
M  V30 4698 H 447.587 -0.964726 3.12027 0
M  V30 4699 H 446.246 1.13628 3.48546 0
M  V30 4700 H 445.894 -0.85524 4.95676 0
M  V30 4701 H 445.594 0.663406 5.83843 0
M  V30 4702 H 447.118 -0.231105 6.10162 0
M  V30 4703 H 448.532 1.92885 5.39878 0
M  V30 4704 H 446.929 2.71853 5.34991 0
M  V30 4705 H 447.999 2.82589 3.94045 0
M  V30 4706 N 449.342 -1.36122 0.79427 0
M  V30 4707 C 450.29 -2.31871 0.184023 0
M  V30 4708 C 451.284 -1.56041 -0.659365 0
M  V30 4709 O 452.49 -1.71266 -0.553906 0
M  V30 4710 H 448.865 -0.750896 0.0407373 0
M  V30 4711 H 450.836 -2.80898 1.00693 0
M  V30 4712 C 449.585 -3.41324 -0.662813 0
M  V30 4713 H 448.908 -3.99793 -0.0231944 0
M  V30 4714 H 450.348 -4.10629 -1.05639 0
M  V30 4715 C 448.807 -2.83308 -1.82313 0
M  V30 4716 O 449.337 -2.75863 -2.91997 0
M  V30 4717 N 447.543 -2.40529 -1.63077 0
M  V30 4718 H 447.09 -2.46785 -0.738591 0
M  V30 4719 H 447.048 -2.02059 -2.40872 0
M  V30 4720 N 450.82 -0.546701 -1.47814 0
M  V30 4721 C 452.066 -0.0187684 -2.02791 0
M  V30 4722 C 452.399 1.32338 -1.42128 0
M  V30 4723 O 451.674 1.85867 -0.573023 0
M  V30 4724 C 451.957 0.0854985 -3.59998 0
M  V30 4725 C 451.81 -1.283 -4.31114 0
M  V30 4726 C 453.129 0.80412 -4.32691 0
M  V30 4727 H 450.248 -0.0082946 -0.736953 0
M  V30 4728 H 452.89 -0.706962 -1.76358 0
M  V30 4729 H 451.04 0.671609 -3.82651 0
M  V30 4730 H 452.712 -1.91151 -4.19832 0
M  V30 4731 H 450.955 -1.86049 -3.91878 0
M  V30 4732 H 451.626 -1.16287 -5.39612 0
M  V30 4733 H 454.102 0.306576 -4.14969 0
M  V30 4734 H 452.978 0.846011 -5.42341 0
M  V30 4735 H 453.239 1.85802 -4.01161 0
M  V30 4736 N 452.299 1.55045 -0.282633 0
M  V30 4737 C 453.209 2.26491 0.61147 0
M  V30 4738 C 454.225 1.29348 1.16384 0
M  V30 4739 O 455.401 1.62298 1.19253 0
M  V30 4740 C 452.466 2.97779 1.77563 0
M  V30 4741 C 451.527 4.10418 1.25919 0
M  V30 4742 C 450.76 4.78297 2.36786 0
M  V30 4743 O 450.983 4.45426 3.56303 0
M  V30 4744 O 449.917 5.66089 2.04517 0
M  V30 4745 H 453.743 3.03683 0.0324615 0
M  V30 4746 H 451.328 1.49317 -0.0497576 0
M  V30 4747 H 453.21 3.42554 2.45427 0
M  V30 4748 H 451.885 2.23498 2.34159 0
M  V30 4749 H 450.792 3.70082 0.546797 0
M  V30 4750 H 452.125 4.86622 0.738887 0
M  V30 4751 N 453.777 0.010035 1.57597 0
M  V30 4752 C 455.005 -0.683413 1.95287 0
M  V30 4753 C 455.42 -1.66747 0.885481 0
M  V30 4754 O 454.777 -1.82003 -0.134629 0
M  V30 4755 C 454.828 -1.40652 3.33015 0
M  V30 4756 O 454.549 -0.461916 4.35658 0
M  V30 4757 C 456.05 -2.19356 3.85225 0
M  V30 4758 H 453.27 -0.189708 0.643624 0
M  V30 4759 H 455.814 0.0641359 2.04399 0
M  V30 4760 H 453.969 -2.10562 3.2518 0
M  V30 4761 H 454.383 -0.973215 5.15392 0
M  V30 4762 H 455.857 -2.65433 4.83993 0
M  V30 4763 H 456.334 -3.02457 3.18459 0
M  V30 4764 H 456.94 -1.54442 3.96267 0
M  V30 4765 N 455.255 -1.55392 -0.262866 0
M  V30 4766 C 456.532 -1.67204 -1.01499 0
M  V30 4767 C 456.912 -0.545186 -2.03939 0
M  V30 4768 O 456.26 0.453467 -2.23955 0
M  V30 4769 C 456.47 -3.06847 -1.6627 0
M  V30 4770 C 457.818 -3.64928 -2.17054 0
M  V30 4771 O 458.842 -3.09545 -1.76239 0
M  V30 4772 O 457.701 -4.61984 -2.91947 0
M  V30 4773 H 454.795 -0.679467 -0.471438 0
M  V30 4774 H 457.341 -1.67729 -0.257918 0
M  V30 4775 H 456.113 -3.80309 -0.920915 0
M  V30 4776 H 455.736 -3.10266 -2.48638 0
M  V30 4777 N 456.733 0.527833 -1.48498 0
M  V30 4778 C 457.961 1.30823 -1.6029 0
M  V30 4779 C 458.376 1.86945 -0.263974 0
M  V30 4780 O 457.733 1.6651 0.747034 0
M  V30 4781 C 457.784 2.45756 -2.65116 0
M  V30 4782 O 457.505 1.91946 -3.93813 0
M  V30 4783 C 459.006 3.37543 -2.87367 0
M  V30 4784 H 456.226 0.397763 -0.540394 0
M  V30 4785 H 458.77 0.636529 -1.94341 0
M  V30 4786 H 456.925 3.08806 -2.33917 0
M  V30 4787 H 457.339 2.67195 -4.51339 0
M  V30 4788 H 458.813 4.14532 -3.6451 0
M  V30 4789 H 459.29 3.92905 -1.9627 0
M  V30 4790 H 459.896 2.80283 -3.19878 0
M  V30 4791 N 458.211 1.37122 0.776871 0
M  V30 4792 C 459.174 1.32301 1.8716 0
M  V30 4793 C 460.174 0.228099 1.59174 0
M  V30 4794 O 461.364 0.483642 1.67352 0
M  V30 4795 C 458.496 1.054 3.24197 0
M  V30 4796 H 459.689 2.29673 1.92848 0
M  V30 4797 H 457.242 1.22077 0.97606 0
M  V30 4798 H 457.977 0.0853872 3.24188 0
M  V30 4799 H 457.762 1.84648 3.45901 0
M  V30 4800 H 459.252 1.04664 4.04271 0
M  V30 4801 N 459.689 -1.00246 1.21608 0
M  V30 4802 C 460.599 -2.12515 0.993709 0
M  V30 4803 C 461.615 -1.73913 -0.0549939 0
M  V30 4804 O 462.791 -2.00943 0.135619 0
M  V30 4805 C 459.856 -3.42083 0.563953 0
M  V30 4806 C 458.917 -3.94843 1.68516 0
M  V30 4807 C 458.15 -5.18226 1.27582 0
M  V30 4808 O 458.373 -5.70201 0.150506 0
M  V30 4809 O 457.307 -5.64497 2.0887 0
M  V30 4810 H 461.133 -2.34152 1.93407 0
M  V30 4811 H 458.718 -1.10891 1.00118 0
M  V30 4812 H 460.6 -4.20073 0.334194 0
M  V30 4813 H 459.275 -3.21828 -0.347665 0
M  V30 4814 H 458.182 -3.18068 1.96935 0
M  V30 4815 H 459.515 -4.19512 2.5743 0
M  V30 4816 N 461.167 -1.02423 -1.1978 0
M  V30 4817 C 462.416 -0.713265 -1.88667 0
M  V30 4818 C 462.729 0.7609 -1.80193 0
M  V30 4819 O 463.935 1.18473 -2.44288 0
M  V30 4820 C 462.391 -1.22545 -3.38394 0
M  V30 4821 C 461.999 -2.72706 -3.55437 0
M  V30 4822 C 463.743 -0.990257 -4.12788 0
M  V30 4823 C 461.65 -3.17367 -4.99031 0
M  V30 4824 H 460.58 -0.263105 -0.706606 0
M  V30 4825 H 463.231 -1.23792 -1.35454 0
M  V30 4826 H 461.613 -0.628732 -3.90977 0
M  V30 4827 H 462.787 -3.37993 -3.13205 0
M  V30 4828 H 461.102 -2.94453 -2.94425 0
M  V30 4829 H 463.699 -1.29926 -5.18675 0
M  V30 4830 H 464.042 0.0730761 -4.16236 0
M  V30 4831 H 464.575 -1.55074 -3.66329 0
M  V30 4832 H 461.314 -4.23009 -5.00743 0
M  V30 4833 H 460.834 -2.56805 -5.42044 0
M  V30 4834 H 462.513 -3.10441 -5.67658 0
M  V30 4835 N 462.645 1.35699 -0.801477 0
M  V30 4836 C 464.061 1.52065 -0.484596 0
M  V30 4837 C 464.261 1.75215 0.995084 0
M  V30 4838 O 463.317 1.79061 1.78026 0
M  V30 4839 C 464.63 2.69908 -1.32552 0
M  V30 4840 C 466.178 2.83784 -1.32044 0
M  V30 4841 C 466.653 4.04646 -2.14536 0
M  V30 4842 N 468.144 4.11814 -2.12046 0
M  V30 4843 C 468.879 5.04437 -2.72636 0
M  V30 4844 N 468.375 6.02426 -3.42133 0
M  V30 4845 N 470.168 4.97144 -2.62305 0
M  V30 4846 H 462.319 1.18928 -1.75983 0
M  V30 4847 H 464.582 0.581455 -0.748741 0
M  V30 4848 H 464.288 2.59363 -2.37537 0
M  V30 4849 H 464.162 3.64376 -0.975181 0
M  V30 4850 H 466.549 2.93783 -0.27846 0
M  V30 4851 H 466.63 1.90188 -1.71062 0
M  V30 4852 H 466.274 3.95407 -3.18772 0
M  V30 4853 H 466.204 4.97413 -1.72882 0
M  V30 4854 H 468.695 3.41664 -1.61476 0
M  V30 4855 H 469.008 6.69688 -3.85666 0
M  V30 4856 H 467.353 6.02615 -3.46237 0
M  V30 4857 H 470.544 4.19546 -2.07603 0
M  V30 4858 H 470.717 5.69138 -3.09815 0
M  V30 4859 N 464.123 0.554532 1.47522 0
M  V30 4860 C 465.053 -0.182974 2.32782 0
M  V30 4861 C 466.034 -0.911377 1.43624 0
M  V30 4862 O 467.219 -0.892366 1.72483 0
M  V30 4863 C 464.349 -1.21513 3.25349 0
M  V30 4864 C 463.303 -0.603355 4.23726 0
M  V30 4865 C 462.629 -1.73995 5.05598 0
M  V30 4866 C 463.929 0.441121 5.20434 0
M  V30 4867 H 465.623 0.52882 2.94693 0
M  V30 4868 H 463.169 0.255759 1.41711 0
M  V30 4869 H 465.122 -1.73922 3.83835 0
M  V30 4870 H 463.846 -1.95683 2.61487 0
M  V30 4871 H 462.505 -0.10059 3.66462 0
M  V30 4872 H 462.153 -2.47063 4.38143 0
M  V30 4873 H 461.853 -1.3364 5.72201 0
M  V30 4874 H 463.377 -2.26735 5.66942 0
M  V30 4875 H 464.791 0.00319931 5.733 0
M  V30 4876 H 463.188 0.763402 5.95224 0
M  V30 4877 H 464.258 1.33799 4.66075 0
M  V30 4878 N 465.601 -1.54893 0.290851 0
M  V30 4879 C 466.534 -2.19289 -0.631489 0
M  V30 4880 C 467.512 -1.15893 -1.14051 0
M  V30 4881 O 468.696 -1.4449 -1.21058 0
M  V30 4882 C 465.823 -2.82866 -1.86291 0
M  V30 4883 C 464.869 -3.997 -1.48801 0
M  V30 4884 S 465.702 -5.32641 -0.552644 0
M  V30 4885 C 466.858 -5.99696 -1.79209 0
M  V30 4886 H 467.091 -2.9718 -0.0843791 0
M  V30 4887 H 464.624 -1.54218 0.075031 0
M  V30 4888 H 466.582 -3.20124 -2.56964 0
M  V30 4889 H 465.243 -2.04839 -2.38117 0
M  V30 4890 H 464.436 -4.42932 -2.40473 0
M  V30 4891 H 464.038 -3.63947 -0.861321 0
M  V30 4892 H 466.33 -6.19886 -2.734 0
M  V30 4893 H 467.273 -6.94071 -1.40251 0
M  V30 4894 H 467.681 -5.29226 -1.96419 0
M  V30 4895 N 467.08 -0.0183926 -1.57589 0
M  V30 4896 C 468.32 0.666846 -1.93216 0
M  V30 4897 C 468.684 1.69905 -0.894215 0
M  V30 4898 O 469.885 2.436 -1.13633 0
M  V30 4899 C 468.156 1.27684 -3.33814 0
M  V30 4900 S 469.715 1.98464 -3.91353 0
M  V30 4901 H 466.533 0.219826 -0.676164 0
M  V30 4902 H 469.135 -0.0794893 -1.95338 0
M  V30 4903 H 467.839 0.513006 -4.07181 0
M  V30 4904 H 467.37 2.06071 -3.3511 0
M  V30 4905 H 469.385 3.26189 -3.73918 0
M  V30 4906 N 468.558 1.5553 0.254621 0
M  V30 4907 C 469.786 1.81046 1.00149 0
M  V30 4908 C 470.201 0.593047 1.79244 0
M  V30 4909 O 469.558 -0.438196 1.77161 0
M  V30 4910 C 469.609 3.04684 1.94551 0
M  V30 4911 O 469.33 4.21725 1.18658 0
M  V30 4912 C 470.831 3.42943 2.80901 0
M  V30 4913 H 468.051 0.602653 0.295044 0
M  V30 4914 H 470.595 2.02576 0.279842 0
M  V30 4915 H 468.75 2.85226 2.62154 0
M  V30 4916 H 469.164 4.91746 1.82445 0
M  V30 4917 H 470.638 4.32576 3.42902 0
M  V30 4918 H 471.115 2.63176 3.51617 0
M  V30 4919 H 471.721 3.64724 2.18762 0
M  V30 4920 N 470.036 -0.519951 1.48776 0
M  V30 4921 C 470.946 -1.65025 1.66745 0
M  V30 4922 C 471.962 -1.6508 0.549954 0
M  V30 4923 O 473.138 -1.83848 0.822295 0
M  V30 4924 C 470.203 -3.0146 1.71238 0
M  V30 4925 C 469.264 -3.12182 2.94688 0
M  V30 4926 C 468.497 -4.42109 2.98958 0
M  V30 4927 O 468.72 -5.29799 2.1135 0
M  V30 4928 O 467.654 -4.57406 3.91233 0
M  V30 4929 H 471.48 -1.52801 2.62461 0
M  V30 4930 H 469.065 -0.694157 1.32294 0
M  V30 4931 H 470.947 -3.82584 1.76657 0
M  V30 4932 H 469.622 -3.13988 0.786975 0
M  V30 4933 H 468.529 -2.30316 2.94797 0
M  V30 4934 H 469.862 -3.04574 3.86646 0
M  V30 4935 N 471.514 -1.37532 -0.769588 0
M  V30 4936 C 472.742 -1.36059 -1.55871 0
M  V30 4937 C 473.157 0.053544 -1.88724 0
M  V30 4938 O 472.514 1.01591 -1.5161 0
M  V30 4939 C 472.565 -2.20107 -2.86767 0
M  V30 4940 O 472.286 -3.56009 -2.55321 0
M  V30 4941 C 473.787 -2.26636 -3.80987 0
M  V30 4942 H 471.007 -0.465967 -0.482821 0
M  V30 4943 H 473.551 -1.80901 -0.953686 0
M  V30 4944 H 471.706 -1.78768 -3.43687 0
M  V30 4945 H 472.12 -4.0009 -3.39158 0
M  V30 4946 H 473.594 -2.89763 -4.69831 0
M  V30 4947 H 474.071 -1.2754 -4.20274 0
M  V30 4948 H 474.677 -2.68296 -3.29996 0
M  V30 4949 N 472.992 0.995999 -1.22138 0
M  V30 4950 C 474.222 1.76809 -1.06874 0
M  V30 4951 C 474.63 1.85265 0.383866 0
M  V30 4952 O 473.973 1.31969 1.27789 0
M  V30 4953 C 474.035 3.2186 -1.60144 0
M  V30 4954 C 473.699 3.36958 -3.0872 0
M  V30 4955 C 474.696 3.2452 -4.0618 0
M  V30 4956 C 472.381 3.62109 -3.48112 0
M  V30 4957 C 474.375 3.37013 -5.41019 0
M  V30 4958 C 472.062 3.74243 -4.831 0
M  V30 4959 C 473.06 3.61702 -5.79362 0
M  V30 4960 O 472.748 3.73436 -7.119 0
M  V30 4961 H 472.48 0.562207 -0.375365 0
M  V30 4962 H 475.034 1.26113 -1.62125 0
M  V30 4963 H 473.264 3.73734 -0.992981 0
M  V30 4964 H 474.953 3.80775 -1.40589 0
M  V30 4965 H 475.719 3.05004 -3.77091 0
M  V30 4966 H 471.598 3.70949 -2.73712 0
M  V30 4967 H 475.142 3.27141 -6.16137 0
M  V30 4968 H 471.039 3.93266 -5.11872 0
M  V30 4969 H 471.807 3.90328 -7.19435 0
M  V30 4970 N 474.47 1.03057 1.19235 0
M  V30 4971 C 475.4 0.633497 2.24742 0
M  V30 4972 C 476.381 -0.358335 1.66283 0
M  V30 4973 O 477.566 -0.240676 1.92703 0
M  V30 4974 C 474.696 -0.0147648 3.47297 0
M  V30 4975 C 473.65 0.899527 4.18441 0
M  V30 4976 C 472.976 0.116281 5.34574 0
M  V30 4977 C 474.276 2.21404 4.73051 0
M  V30 4978 H 475.97 1.5155 2.58211 0
M  V30 4979 H 473.516 0.73014 1.24117 0
M  V30 4980 H 475.469 -0.304202 4.20301 0
M  V30 4981 H 474.193 -0.931577 3.13032 0
M  V30 4982 H 472.852 1.17319 3.47321 0
M  V30 4983 H 472.5 -0.802619 4.96555 0
M  V30 4984 H 472.2 0.725293 5.83107 0
M  V30 4985 H 473.724 -0.166376 6.10373 0
M  V30 4986 H 475.138 1.98601 5.37802 0
M  V30 4987 H 473.535 2.77512 5.32078 0
M  V30 4988 H 474.605 2.86752 3.91026 0
M  V30 4989 N 475.948 -1.35272 0.808662 0
M  V30 4990 C 477.225 -1.93077 0.313181 0
M  V30 4991 C 477.605 -1.73847 -1.19752 0
M  V30 4992 O 476.953 -1.1087 -1.998 0
M  V30 4993 C 477.163 -3.41347 0.726859 0
M  V30 4994 C 478.511 -4.18493 0.717532 0
M  V30 4995 O 479.535 -3.4987 0.668535 0
M  V30 4996 O 478.394 -5.40937 0.777779 0
M  V30 4997 H 475.488 -0.822885 0.0824018 0
M  V30 4998 H 478.034 -1.44335 0.892499 0
M  V30 4999 H 476.806 -3.49082 1.76797 0
M  V30 5000 H 476.429 -3.97411 0.122461 0
M  V30 5001 N 477.426 -0.562348 -1.47226 0
M  V30 5002 C 478.654 -0.0452275 -2.06851 0
M  V30 5003 C 479.069 1.25078 -1.41424 0
M  V30 5004 O 478.426 1.75156 -0.512513 0
M  V30 5005 C 478.477 0.148674 -3.61194 0
M  V30 5006 O 478.198 -1.09602 -4.24169 0
M  V30 5007 C 479.699 0.702488 -4.37699 0
M  V30 5008 H 476.919 -0.0481775 -0.669268 0
M  V30 5009 H 479.463 -0.777223 -1.89155 0
M  V30 5010 H 477.618 0.830817 -3.78386 0
M  V30 5011 H 478.032 -0.896982 -5.16773 0
M  V30 5012 H 479.506 0.78743 -5.46355 0
M  V30 5013 H 479.983 1.71493 -4.04335 0
M  V30 5014 H 480.589 0.0558772 -4.25263 0
M  V30 5015 N 478.904 1.54736 -0.299062 0
M  V30 5016 C 480.315 1.8569 0.193971 0
M  V30 5017 C 480.666 1.22101 1.53577 0
M  V30 5018 O 479.791 0.51799 2.10109 0
M  V30 5019 C 480.386 3.36895 0.358733 0
M  V30 5020 C 478.945 3.67887 0.795986 0
M  V30 5021 C 478.092 2.77131 -0.096807 0
M  V30 5022 H 481.043 1.49934 -0.520134 0
M  V30 5023 H 481.064 3.61294 1.19361 0
M  V30 5024 H 480.576 3.83148 -0.617998 0
M  V30 5025 H 478.677 3.27151 1.78334 0
M  V30 5026 H 478.79 4.75114 0.616718 0
M  V30 5027 H 477.154 2.51153 0.423581 0
M  V30 5028 H 477.937 3.26204 -1.06986 0
M  V30 5029 N 480.382 0.0267497 1.57577 0
M  V30 5030 C 481.798 -0.32962 1.56159 0
M  V30 5031 C 481.998 -1.73059 1.03213 0
M  V30 5032 O 481.054 -2.43233 0.677804 0
M  V30 5033 C 482.367 -0.18039 3.00158 0
M  V30 5034 C 483.915 -0.253334 3.11973 0
M  V30 5035 C 484.39 -0.132921 4.57807 0
M  V30 5036 N 485.881 -0.189979 4.6281 0
M  V30 5037 C 486.616 -0.120554 5.73273 0
M  V30 5038 N 486.112 -0.000180315 6.928 0
M  V30 5039 N 487.905 -0.174369 5.61829 0
M  V30 5040 H 480.056 0.942896 1.90324 0
M  V30 5041 H 482.319 0.3639 0.875375 0
M  V30 5042 H 482.025 0.784576 3.42837 0
M  V30 5043 H 481.899 -0.951565 3.65 0
M  V30 5044 H 484.286 -1.20876 2.69208 0
M  V30 5045 H 484.367 0.548177 2.49857 0
M  V30 5046 H 484.011 0.819073 5.01252 0
M  V30 5047 H 483.941 -0.953264 5.179 0
M  V30 5048 H 486.432 -0.283257 3.76837 0
M  V30 5049 H 486.745 0.0461666 7.72786 0
M  V30 5050 H 485.09 0.034569 6.94991 0
M  V30 5051 H 488.281 -0.266794 4.67339 0
M  V30 5052 H 488.454 -0.116802 6.47895 0
M  V30 5053 N 481.861 -1.55662 -0.24637 0
M  V30 5054 C 483.272 -1.67953 -0.81539 0
M  V30 5055 C 483.623 -0.624302 -1.86002 0
M  V30 5056 O 482.748 0.229328 -2.15181 0
M  V30 5057 C 483.343 -3.04484 -1.48576 0
M  V30 5058 C 481.902 -3.18713 -2.00248 0
M  V30 5059 C 481.049 -2.6383 -0.853766 0
M  V30 5060 H 484 -1.58685 -0.0221692 0
M  V30 5061 H 484.021 -2.98959 -2.3538 0
M  V30 5062 H 483.533 -3.81264 -0.725222 0
M  V30 5063 H 481.634 -2.46757 -2.79181 0
M  V30 5064 H 481.747 -4.25628 -2.1995 0
M  V30 5065 H 480.111 -2.21667 -1.25442 0
M  V30 5066 H 480.894 -3.43135 -0.106302 0
M  V30 5067 N 483.339 0.512053 -1.4905 0
M  V30 5068 C 484.616 1.27337 -1.48474 0
M  V30 5069 C 484.996 2.1009 -0.206301 0
M  V30 5070 O 484.344 2.136 0.811609 0
M  V30 5071 C 484.554 2.13954 -2.75726 0
M  V30 5072 C 485.902 2.73507 -3.24776 0
M  V30 5073 O 486.926 2.24229 -2.76767 0
M  V30 5074 O 485.785 3.63186 -4.08361 0
M  V30 5075 H 482.879 0.575652 -0.593762 0
M  V30 5076 H 485.425 0.527232 -1.61302 0
M  V30 5077 H 484.197 1.52709 -3.60272 0
M  V30 5078 H 483.82 2.95782 -2.65705 0
M  V30 5079 N 484.817 1.37938 0.762283 0
M  V30 5080 C 486.094 1.24196 1.51112 0
M  V30 5081 C 486.474 -0.160409 2.1049 0
M  V30 5082 O 485.822 -1.16904 1.96331 0
M  V30 5083 C 486.032 2.34537 2.58445 0
M  V30 5084 C 487.38 2.7254 3.25588 0
M  V30 5085 O 488.404 2.33783 2.68745 0
M  V30 5086 O 487.263 3.39343 4.28379 0
M  V30 5087 H 484.357 0.485175 0.669727 0
M  V30 5088 H 486.903 1.49743 0.798438 0
M  V30 5089 H 485.675 3.28406 2.12756 0
M  V30 5090 H 485.298 2.10505 3.37303 0
M  V30 5091 N 486.295 -0.989507 1.22664 0
M  V30 5092 C 487.543 -1.72612 1.05117 0
M  V30 5093 C 487.864 -1.90552 -0.414131 0
M  V30 5094 O 487.134 -1.4676 -1.29762 0
M  V30 5095 H 485.714 -0.639555 0.385977 0
M  V30 5096 H 488.376 -1.19158 1.54232 0
M  V30 5097 H 487.472 -2.71926 1.53175 0
M  V30 5098 N 487.773 -1.03688 -1.18687 0
M  V30 5099 C 488.998 -0.757819 -1.93059 0
M  V30 5100 C 489.423 0.678353 -1.75442 0
M  V30 5101 O 488.781 1.46938 -1.06203 0
M  V30 5102 C 488.829 -1.12423 -3.42627 0
M  V30 5103 O 487.933 -0.247505 -4.11657 0
M  V30 5104 H 487.274 -0.279245 -0.602427 0
M  V30 5105 H 489.804 -1.3857 -1.5053 0
M  V30 5106 H 489.814 -1.08454 -3.93322 0
M  V30 5107 H 488.489 -2.17049 -3.54771 0
M  V30 5108 H 487.066 -0.34649 -3.71287 0
M  V30 5109 N 489.251 1.34841 -0.815825 0
M  V30 5110 C 490.5 1.97755 -0.396976 0
M  V30 5111 C 490.813 1.65422 1.04379 0
M  V30 5112 O 492.019 2.21771 1.5662 0
M  V30 5113 C 490.475 3.53818 -0.658869 0
M  V30 5114 C 490.083 3.95051 -2.11278 0
M  V30 5115 C 491.827 4.23397 -0.305834 0
M  V30 5116 C 489.734 5.43997 -2.31994 0
M  V30 5117 H 488.664 0.739985 -0.1447 0
M  V30 5118 H 491.315 1.53781 -1.00118 0
M  V30 5119 H 489.697 3.95997 0.0154112 0
M  V30 5120 H 490.871 3.63998 -2.82564 0
M  V30 5121 H 489.186 3.38388 -2.42657 0
M  V30 5122 H 491.783 5.32899 -0.43854 0
M  V30 5123 H 492.126 4.09508 0.748952 0
M  V30 5124 H 492.659 3.8667 -0.934403 0
M  V30 5125 H 489.398 5.62865 -3.35952 0
M  V30 5126 H 488.918 5.76589 -1.65244 0
M  V30 5127 H 490.597 6.10584 -2.14001 0
M  V30 5128 N 490.729 0.570148 1.46925 0
M  V30 5129 C 491.957 0.0561966 2.06824 0
M  V30 5130 C 492.372 -1.24326 1.42086 0
M  V30 5131 O 491.729 -1.74882 0.521794 0
M  V30 5132 C 491.78 -0.129517 3.61268 0
M  V30 5133 O 491.501 1.1185 4.23581 0
M  V30 5134 C 493.002 -0.679266 4.38065 0
M  V30 5135 H 490.222 0.0517261 0.669003 0
M  V30 5136 H 492.766 0.787243 1.8874 0
M  V30 5137 H 490.921 -0.810739 3.78822 0
M  V30 5138 H 491.335 0.924375 5.1629 0
M  V30 5139 H 492.809 -0.758445 5.46765 0
M  V30 5140 H 493.286 -1.69346 4.05239 0
M  V30 5141 H 493.892 -0.0333237 4.25287 0
M  V30 5142 N 492.207 -1.54576 0.307264 0
M  V30 5143 C 493.455 -1.99867 -0.299574 0
M  V30 5144 C 493.776 -1.19714 -1.53927 0
M  V30 5145 O 493.046 -0.29472 -1.9367 0
M  V30 5146 H 491.626 -0.738299 -0.113683 0
M  V30 5147 H 494.288 -1.9032 0.420042 0
M  V30 5148 H 493.384 -3.06901 -0.567283 0
M  V30 5149 N 493.685 -0.035106 -1.57561 0
M  V30 5150 C 495.096 0.502885 -1.798 0
M  V30 5151 C 495.447 1.71892 -0.945921 0
M  V30 5152 O 494.572 2.15822 -0.157991 0
M  V30 5153 C 495.167 0.919097 -3.26095 0
M  V30 5154 C 493.726 1.40216 -3.49308 0
M  V30 5155 C 492.873 0.369709 -2.74824 0
M  V30 5156 H 495.824 -0.261102 -1.56537 0
M  V30 5157 H 495.845 1.78308 -3.36135 0
M  V30 5158 H 495.357 0.0338526 -3.88085 0
M  V30 5159 H 493.458 2.30714 -2.92578 0
M  V30 5160 H 493.571 1.40541 -4.58023 0
M  V30 5161 H 491.935 0.839113 -2.40481 0
M  V30 5162 H 492.718 -0.507173 -3.39533 0
M  V30 5163 N 495.163 1.55791 0.238111 0
M  V30 5164 C 496.403 1.79801 0.972163 0
M  V30 5165 C 496.767 0.606027 1.82185 0
M  V30 5166 O 497.968 0.725079 2.58836 0
M  V30 5167 C 496.239 3.08608 1.80266 0
M  V30 5168 S 497.798 3.53872 2.59461 0
M  V30 5169 H 494.616 0.631418 0.326852 0
M  V30 5170 H 497.218 1.94031 0.239212 0
M  V30 5171 H 495.922 3.93419 1.1683 0
M  V30 5172 H 495.453 2.9714 2.57821 0
M  V30 5173 H 497.468 3.15899 3.82651 0
M  V30 5174 N 496.642 -0.504142 1.49319 0
M  V30 5175 C 497.552 -1.63248 1.68486 0
M  V30 5176 C 498.568 -1.64488 0.567432 0
M  V30 5177 O 499.744 -1.82966 0.841749 0
M  V30 5178 C 496.809 -2.99627 1.74426 0
M  V30 5179 C 495.87 -3.09039 2.97982 0
M  V30 5180 C 495.103 -4.38913 3.0363 0
M  V30 5181 O 495.326 -5.27528 2.16958 0
M  V30 5182 O 494.26 -4.53231 3.96062 0
M  V30 5183 H 498.086 -1.50008 2.64067 0
M  V30 5184 H 495.671 -0.680086 1.33023 0
M  V30 5185 H 497.553 -3.80689 1.80705 0
M  V30 5186 H 496.228 -3.13136 0.820233 0
M  V30 5187 H 495.135 -2.27177 2.97223 0
M  V30 5188 H 496.468 -3.00456 3.89855 0
M  V30 5189 N 498.12 -1.38341 -0.754957 0
M  V30 5190 C 499.345 -1.37882 -1.5493 0
M  V30 5191 C 499.77 0.0296385 -1.88077 0
M  V30 5192 O 499.128 1.01133 -1.50472 0
M  V30 5193 C 499.176 -2.23996 -2.82592 0
M  V30 5194 O 498.28 -1.65612 -3.77686 0
M  V30 5195 H 497.621 -0.470384 -0.468652 0
M  V30 5196 H 500.151 -1.82084 -0.933082 0
M  V30 5197 H 500.161 -2.37806 -3.3153 0
M  V30 5198 H 498.836 -3.26365 -2.57796 0
M  V30 5199 H 497.413 -1.60936 -3.36384 0
M  V30 5200 N 499.598 0.982988 -1.23187 0
M  V30 5201 C 500.546 2.09616 -1.00817 0
M  V30 5202 C 501.54 1.6932 0.0519995 0
M  V30 5203 O 502.746 1.79715 -0.101284 0
M  V30 5204 H 499.121 0.685628 -0.308899 0
M  V30 5205 H 501.092 2.25652 -1.95253 0
M  V30 5206 C 499.841 3.42249 -0.613243 0
M  V30 5207 H 499.164 3.73705 -1.42073 0
M  V30 5208 H 500.604 4.21086 -0.496208 0
M  V30 5209 C 499.063 3.30002 0.678233 0
M  V30 5210 O 499.593 3.6263 1.72807 0
M  V30 5211 N 497.799 2.83164 0.653165 0
M  V30 5212 H 497.346 2.56811 -0.201492 0
M  V30 5213 H 497.304 2.75352 1.51752 0
M  V30 5214 N 501.076 1.04316 1.18135 0
M  V30 5215 C 502.324 0.746542 1.87806 0
M  V30 5216 C 502.645 -0.728082 1.80898 0
M  V30 5217 O 501.915 -1.52554 1.22899 0
M  V30 5218 H 500.495 0.273157 0.695265 0
M  V30 5219 H 503.157 1.32044 1.43354 0
M  V30 5220 H 502.253 1.05362 2.93778 0
M  V30 5221 N 502.554 -1.34406 0.822964 0
M  V30 5222 C 503.831 -1.92733 0.333641 0
M  V30 5223 C 504.211 -1.75107 -1.17901 0
M  V30 5224 O 503.559 -1.12983 -1.98613 0
M  V30 5225 C 503.769 -3.40557 0.763023 0
M  V30 5226 C 505.117 -4.17709 0.761879 0
M  V30 5227 O 506.141 -3.49141 0.705606 0
M  V30 5228 O 505 -5.40082 0.835109 0
M  V30 5229 H 502.094 -0.821964 0.0911249 0
M  V30 5230 H 504.64 -1.4338 0.907757 0
M  V30 5231 H 503.412 -3.47187 1.8049 0
M  V30 5232 H 503.035 -3.97259 0.164605 0
M  V30 5233 N 504.032 -0.577932 -1.46621 0
M  V30 5234 C 504.979 0.158048 -2.30258 0
M  V30 5235 C 505.949 0.888669 -1.40328 0
M  V30 5236 O 507.134 0.880283 -1.6928 0
M  V30 5237 C 504.274 1.16884 -3.24703 0
M  V30 5238 C 503.387 0.442163 -4.29731 0
M  V30 5239 C 502.522 1.44007 -5.11308 0
M  V30 5240 C 501.561 0.69952 -6.0809 0
M  V30 5241 N 500.698 1.64525 -6.82551 0
M  V30 5242 H 505.538 -0.561242 -2.92667 0
M  V30 5243 H 503.075 -0.288591 -1.44241 0
M  V30 5244 H 505.033 1.7677 -3.779 0
M  V30 5245 H 503.663 1.85591 -2.64113 0
M  V30 5246 H 502.715 -0.271632 -3.79429 0
M  V30 5247 H 504.027 -0.136992 -4.98612 0
M  V30 5248 H 503.181 2.11186 -5.68758 0
M  V30 5249 H 501.92 2.05315 -4.42377 0
M  V30 5250 H 500.925 0.0139217 -5.49798 0
M  V30 5251 H 502.15 0.091894 -6.79038 0
M  V30 5252 H 500.096 2.24653 -6.16334 0
M  V30 5253 H 500.013 1.11878 -7.47676 0
M  V30 5254 H 501.281 2.30754 -7.44562 0
M  V30 5255 N 505.51 1.54411 -0.315457 0
M  V30 5256 C 506.758 2.00023 0.288971 0
M  V30 5257 C 507.079 1.20529 1.5329 0
M  V30 5258 O 506.349 0.304986 1.93511 0
M  V30 5259 H 504.929 0.738891 0.109766 0
M  V30 5260 H 507.591 1.90094 -0.430129 0
M  V30 5261 H 506.687 3.07198 0.550999 0
M  V30 5262 N 506.988 0.0434614 1.5754 0
M  V30 5263 C 508.404 -0.313039 1.565 0
M  V30 5264 C 508.604 -1.71954 1.05043 0
M  V30 5265 O 507.66 -2.425 0.703564 0
M  V30 5266 C 508.973 -0.148544 3.00333 0
M  V30 5267 C 510.521 -0.220231 3.12224 0
M  V30 5268 C 510.996 -0.0843565 4.57922 0
M  V30 5269 N 512.487 -0.140881 4.62986 0
M  V30 5270 C 513.222 -0.0597443 5.73369 0
M  V30 5271 N 512.718 0.0733004 6.92761 0
M  V30 5272 N 514.511 -0.11477 5.61983 0
M  V30 5273 H 506.662 0.96303 1.89313 0
M  V30 5274 H 508.925 0.373164 0.871466 0
M  V30 5275 H 508.631 0.820894 3.41986 0
M  V30 5276 H 508.505 -0.912798 3.65989 0
M  V30 5277 H 510.892 -1.18014 2.70475 0
M  V30 5278 H 510.973 0.574646 2.49262 0
M  V30 5279 H 510.617 0.872192 5.00355 0
M  V30 5280 H 510.547 -0.898281 5.18882 0
M  V30 5281 H 513.038 -0.243273 3.77116 0
M  V30 5282 H 513.351 0.128128 7.72694 0
M  V30 5283 H 511.696 0.10828 6.94916 0
M  V30 5284 H 514.887 -0.217212 4.67596 0
M  V30 5285 H 515.06 -0.0480779 6.47982 0
M  V30 5286 N 508.466 -1.55915 -0.229846 0
M  V30 5287 C 509.714 -1.7819 -0.953565 0
M  V30 5288 C 510.035 -0.610504 -1.85197 0
M  V30 5289 O 509.305 0.372988 -1.92316 0
M  V30 5290 H 507.885 -0.657208 -0.355087 0
M  V30 5291 H 510.547 -1.9337 -0.243693 0
M  V30 5292 H 509.643 -2.70011 -1.56527 0
M  V30 5293 N 509.944 0.496216 -1.49584 0
M  V30 5294 C 511.192 1.24756 -1.58998 0
M  V30 5295 C 511.513 1.92968 -0.280775 0
M  V30 5296 O 510.783 1.82959 0.700198 0
M  V30 5297 H 509.363 0.463471 -0.585836 0
M  V30 5298 H 512.025 0.574678 -1.86235 0
M  V30 5299 H 511.121 2.00895 -2.38847 0
M  V30 5300 N 511.423 1.38739 0.74761 0
M  V30 5301 C 512.672 1.3459 1.50228 0
M  V30 5302 C 512.985 -0.0595592 1.95509 0
M  V30 5303 O 514.191 -0.22361 2.70578 0
M  V30 5304 C 512.647 2.36377 2.71393 0
M  V30 5305 C 512.255 3.82573 2.33113 0
M  V30 5306 C 513.999 2.41281 3.49262 0
M  V30 5307 C 511.906 4.76032 3.50924 0
M  V30 5308 H 510.836 0.500312 0.564096 0
M  V30 5309 H 513.487 1.64324 0.8167 0
M  V30 5310 H 511.869 1.99694 3.41962 0
M  V30 5311 H 513.043 4.28227 1.70171 0
M  V30 5312 H 511.358 3.80844 1.68365 0
M  V30 5313 H 513.955 3.08301 4.36869 0
M  V30 5314 H 514.298 1.43353 3.9084 0
M  V30 5315 H 514.831 2.76793 2.85711 0
M  V30 5316 H 511.57 5.75177 3.14408 0
M  V30 5317 H 511.09 4.35066 4.12889 0
M  V30 5318 H 512.769 4.94331 4.17427 0
M  V30 5319 N 512.901 -0.976442 1.23707 0
M  V30 5320 C 513.848 -2.06952 1.02174 0
M  V30 5321 C 514.818 -1.65984 -0.0621034 0
M  V30 5322 O 516.003 -1.90584 0.0907906 0
M  V30 5323 C 513.143 -3.39425 0.62327 0
M  V30 5324 C 512.256 -3.9364 1.77966 0
M  V30 5325 C 511.391 -5.14343 1.3276 0
M  V30 5326 C 510.43 -5.60733 2.45449 0
M  V30 5327 N 509.567 -6.72662 2.01172 0
M  V30 5328 H 514.407 -2.24704 1.95734 0
M  V30 5329 H 511.944 -1.10143 0.975034 0
M  V30 5330 H 513.902 -4.15526 0.37332 0
M  V30 5331 H 512.532 -3.21624 -0.275329 0
M  V30 5332 H 511.584 -3.14258 2.14351 0
M  V30 5333 H 512.896 -4.24035 2.62671 0
M  V30 5334 H 512.05 -5.97789 1.03601 0
M  V30 5335 H 510.789 -4.8561 0.450975 0
M  V30 5336 H 509.794 -4.75865 2.75378 0
M  V30 5337 H 511.019 -5.91483 3.33654 0
M  V30 5338 H 508.965 -6.45681 1.15895 0
M  V30 5339 H 508.882 -7.02462 2.79434 0
M  V30 5340 H 510.15 -7.59572 1.75129 0
M  V30 5341 N 514.379 -1.04941 -1.1758 0
M  V30 5342 C 515.627 -0.756492 -1.87408 0
M  V30 5343 C 515.948 0.718478 -1.81281 0
M  V30 5344 O 515.218 1.519 -1.23706 0
M  V30 5345 H 513.798 -0.276841 -0.693807 0
M  V30 5346 H 516.46 -1.32803 -1.42652 0
M  V30 5347 H 515.556 -1.06918 -2.93215 0
M  V30 5348 N 515.857 1.33968 -0.830081 0
M  V30 5349 C 517.105 1.97672 -0.420734 0
M  V30 5350 C 517.426 1.66111 1.02138 0
M  V30 5351 O 516.696 0.955503 1.71017 0
M  V30 5352 H 515.276 0.73125 -0.152587 0
M  V30 5353 H 517.938 1.63483 -1.0611 0
M  V30 5354 H 517.034 3.07294 -0.545588 0
M  V30 5355 N 517.335 0.585699 1.46312 0
M  V30 5356 C 518.582 0.0724211 2.0237 0
M  V30 5357 C 518.91 -1.28868 1.45683 0
M  V30 5358 O 518.165 -1.85853 0.612945 0
M  V30 5359 C 518.464 -0.0401312 3.57377 0
M  V30 5360 C 518.13 1.25376 4.33119 0
M  V30 5361 C 516.792 1.60824 4.5353 0
M  V30 5362 C 519.144 2.10987 4.76586 0
M  V30 5363 C 516.472 2.81676 5.14661 0
M  V30 5364 C 518.824 3.31068 5.39052 0
M  V30 5365 C 517.488 3.66794 5.5769 0
M  V30 5366 H 516.758 0.0265007 0.740526 0
M  V30 5367 H 519.405 0.762935 1.75646 0
M  V30 5368 H 517.71 -0.813791 3.83255 0
M  V30 5369 H 519.407 -0.453078 3.98432 0
M  V30 5370 H 515.997 0.967808 4.1753 0
M  V30 5371 H 520.181 1.84904 4.60569 0
M  V30 5372 H 515.437 3.0949 5.27282 0
M  V30 5373 H 519.611 3.97672 5.71691 0
M  V30 5374 H 517.238 4.60529 6.04828 0
M  V30 5375 N 518.813 -1.54241 0.323641 0
M  V30 5376 C 520.059 -2.00867 -0.279323 0
M  V30 5377 C 520.392 -1.21146 -1.5178 0
M  V30 5378 O 519.667 -0.29378 -1.92269 0
M  V30 5379 C 519.95 -3.54837 -0.613387 0
M  V30 5380 C 519.803 -4.45284 0.635803 0
M  V30 5381 C 521.122 -4.16186 -1.43099 0
M  V30 5382 H 518.241 -0.730177 -0.100049 0
M  V30 5383 H 520.883 -1.84829 0.440235 0
M  V30 5384 H 519.033 -3.68634 -1.22641 0
M  V30 5385 H 520.705 -4.43357 1.27406 0
M  V30 5386 H 518.948 -4.14956 1.26466 0
M  V30 5387 H 519.619 -5.5084 0.357597 0
M  V30 5388 H 522.095 -4.05964 -0.912814 0
M  V30 5389 H 520.971 -5.24031 -1.6335 0
M  V30 5390 H 521.232 -3.69516 -2.42715 0
M  V30 5391 N 520.291 -0.0518155 -1.57515 0
M  V30 5392 C 521.241 0.932017 -2.0808 0
M  V30 5393 C 522.225 1.27141 -0.986098 0
M  V30 5394 O 523.417 1.25373 -1.24943 0
M  V30 5395 C 520.546 2.20665 -2.62986 0
M  V30 5396 C 519.632 1.89462 -3.79427 0
M  V30 5397 N 520.023 1.28621 -4.89173 0
M  V30 5398 C 518.321 2.19327 -3.88345 0
M  V30 5399 C 519.022 1.15062 -5.70207 0
M  V30 5400 N 517.998 1.65372 -5.17835 0
M  V30 5401 H 521.8 0.456964 -2.90326 0
M  V30 5402 H 519.314 0.152619 -1.61681 0
M  V30 5403 H 521.311 2.92044 -2.97516 0
M  V30 5404 H 519.971 2.68776 -1.8218 0
M  V30 5405 H 520.982 0.958341 -5.08956 0
M  V30 5406 H 517.659 2.69955 -3.18482 0
M  V30 5407 H 519.049 0.678243 -6.68468 0
M  V30 5408 N 521.769 1.56035 0.221574 0
M  V30 5409 C 522.701 1.889 1.29805 0
M  V30 5410 C 523.714 0.777269 1.43047 0
M  V30 5411 O 524.903 1.05557 1.43945 0
M  V30 5412 C 522.003 2.0825 2.67367 0
M  V30 5413 C 521.176 3.39267 2.76073 0
M  V30 5414 C 520.235 3.48049 3.94649 0
M  V30 5415 O 519.261 4.2108 3.82988 0
M  V30 5416 N 520.463 2.79191 5.08953 0
M  V30 5417 H 523.228 2.81831 1.01938 0
M  V30 5418 H 520.789 1.5658 0.411612 0
M  V30 5419 H 522.781 2.11441 3.45072 0
M  V30 5420 H 521.351 1.21944 2.87834 0
M  V30 5421 H 520.571 3.48175 1.84846 0
M  V30 5422 H 521.859 4.25575 2.7886 0
M  V30 5423 H 521.257 2.19635 5.21322 0
M  V30 5424 H 519.814 2.88043 5.84701 0
M  V30 5425 N 523.247 -0.488276 1.49845 0
M  V30 5426 C 524.663 -0.820566 1.3689 0
M  V30 5427 C 524.863 -1.97248 0.411752 0
M  V30 5428 O 523.919 -2.52042 -0.151931 0
M  V30 5429 C 525.232 -1.1488 2.77891 0
M  V30 5430 C 526.78 -1.25626 2.86683 0
M  V30 5431 C 527.255 -1.61772 4.28479 0
M  V30 5432 N 528.746 -1.68797 4.31349 0
M  V30 5433 C 529.481 -1.98235 5.38043 0
M  V30 5434 N 528.977 -2.2581 6.54967 0
M  V30 5435 N 530.77 -1.99593 5.2547 0
M  V30 5436 H 522.921 0.271123 2.10662 0
M  V30 5437 H 525.184 0.058735 0.946179 0
M  V30 5438 H 524.89 -0.375614 3.49688 0
M  V30 5439 H 524.764 -2.08919 3.14058 0
M  V30 5440 H 527.151 -2.02014 2.15114 0
M  V30 5441 H 527.232 -0.296072 2.54081 0
M  V30 5442 H 526.876 -0.859295 5.00578 0
M  V30 5443 H 526.806 -2.58912 4.58554 0
M  V30 5444 H 529.297 -1.49595 3.4703 0
M  V30 5445 H 529.61 -2.47497 7.32096 0
M  V30 5446 H 527.955 -2.23239 6.58171 0
M  V30 5447 H 531.146 -1.77535 4.33127 0
M  V30 5448 H 531.319 -2.222 6.08713 0
M  V30 5449 N 524.725 -1.39134 -0.740242 0
M  V30 5450 C 525.658 -1.3182 -1.86276 0
M  V30 5451 C 526.636 -0.192794 -1.61453 0
M  V30 5452 O 527.82 -0.372365 -1.84786 0
M  V30 5453 C 524.947 -1.04564 -3.22155 0
M  V30 5454 C 523.993 -2.19224 -3.65846 0
M  V30 5455 S 524.826 -3.81466 -3.75824 0
M  V30 5456 C 525.982 -3.56425 -5.14502 0
M  V30 5457 H 526.215 -2.26822 -1.92195 0
M  V30 5458 H 523.748 -1.25127 -0.904576 0
M  V30 5459 H 525.706 -0.895228 -4.00619 0
M  V30 5460 H 524.367 -0.112578 -3.13898 0
M  V30 5461 H 523.56 -1.95732 -4.6444 0
M  V30 5462 H 523.162 -2.30441 -2.94572 0
M  V30 5463 H 525.454 -3.13366 -6.00673 0
M  V30 5464 H 526.397 -4.54462 -5.43019 0
M  V30 5465 H 526.805 -2.90641 -4.8393 0
M  V30 5466 N 526.204 0.969867 -1.24223 0
M  V30 5467 C 527.167 2.04564 -1.03373 0
M  V30 5468 C 528.167 1.60798 0.00819206 0
M  V30 5469 O 529.357 1.72641 -0.232567 0
M  V30 5470 C 526.489 3.36163 -0.566343 0
M  V30 5471 H 527.682 2.24494 -1.98853 0
M  V30 5472 H 525.235 1.1448 -1.06415 0
M  V30 5473 H 525.97 3.21925 0.391751 0
M  V30 5474 H 525.755 3.69273 -1.31834 0
M  V30 5475 H 527.245 4.1526 -0.441435 0
M  V30 5476 N 527.682 1.05563 1.17022 0
M  V30 5477 C 528.907 0.788437 1.91829 0
M  V30 5478 C 529.332 -0.650356 1.76499 0
M  V30 5479 O 528.69 -1.45229 1.08527 0
M  V30 5480 C 528.738 1.1786 3.40795 0
M  V30 5481 O 527.842 0.312965 4.11211 0
M  V30 5482 H 527.183 0.288794 0.597908 0
M  V30 5483 H 529.713 1.40948 1.48307 0
M  V30 5484 H 529.723 1.14697 3.91546 0
M  V30 5485 H 528.398 2.22666 3.51273 0
M  V30 5486 H 526.975 0.405515 3.70689 0
M  V30 5487 N 529.16 -1.33526 0.837174 0
M  V30 5488 C 530.107 -2.29248 0.267169 0
M  V30 5489 C 531.077 -1.54252 -0.616071 0
M  V30 5490 O 532.262 -1.82559 -0.554699 0
M  V30 5491 C 529.402 -3.40638 -0.553152 0
M  V30 5492 C 528.515 -4.30548 0.353921 0
M  V30 5493 C 527.65 -5.29051 -0.477339 0
M  V30 5494 C 526.689 -6.106 0.42823 0
M  V30 5495 N 525.826 -7.01152 -0.364801 0
M  V30 5496 H 530.666 -2.77398 1.08877 0
M  V30 5497 H 528.203 -1.36496 0.54838 0
M  V30 5498 H 530.161 -4.03921 -1.04422 0
M  V30 5499 H 528.791 -2.93685 -1.33973 0
M  V30 5500 H 527.843 -3.68001 0.963289 0
M  V30 5501 H 529.155 -4.87631 1.04964 0
M  V30 5502 H 528.309 -5.97853 -1.0323 0
M  V30 5503 H 527.048 -4.72541 -1.2065 0
M  V30 5504 H 526.053 -5.40718 0.995219 0
M  V30 5505 H 527.278 -6.69193 1.15573 0
M  V30 5506 H 525.224 -6.47092 -1.07738 0
M  V30 5507 H 525.141 -7.5551 0.272238 0
M  V30 5508 H 526.409 -7.74263 -0.902054 0
M  V30 5509 N 530.638 -0.59345 -1.46 0
M  V30 5510 C 531.887 -0.0808084 -2.01538 0
M  V30 5511 C 532.2 1.29112 -1.46934 0
M  V30 5512 O 533.406 1.8957 -1.94359 0
M  V30 5513 C 531.862 -0.0938311 -3.59778 0
M  V30 5514 C 531.47 -1.46474 -4.23379 0
M  V30 5515 C 533.214 0.364306 -4.22934 0
M  V30 5516 C 531.121 -1.4349 -5.73729 0
M  V30 5517 H 530.051 -0.0264407 -0.753536 0
M  V30 5518 H 532.702 -0.746689 -1.67621 0
M  V30 5519 H 531.084 0.638427 -3.9082 0
M  V30 5520 H 532.258 -2.21758 -4.03931 0
M  V30 5521 H 530.573 -1.86379 -3.7236 0
M  V30 5522 H 533.17 0.405584 -5.3316 0
M  V30 5523 H 533.513 1.38409 -3.92618 0
M  V30 5524 H 534.046 -0.31423 -3.96557 0
M  V30 5525 H 530.785 -2.43184 -6.08722 0
M  V30 5526 H 530.305 -0.724431 -5.95409 0
M  V30 5527 H 531.984 -1.15243 -6.36654 0
M  V30 5528 N 532.116 1.54067 -0.331816 0
M  V30 5529 C 533.364 2.00319 0.267739 0
M  V30 5530 C 533.685 1.22148 1.52003 0
M  V30 5531 O 532.955 0.325494 1.93177 0
M  V30 5532 H 531.535 0.740014 0.101922 0
M  V30 5533 H 534.197 1.89628 -0.450267 0
M  V30 5534 H 533.293 3.07765 0.518385 0
M  V30 5535 N 533.594 0.0601682 1.57485 0
M  V30 5536 C 535.01 -0.296422 1.56823 0
M  V30 5537 C 535.21 -1.70831 1.0686 0
M  V30 5538 O 534.266 -2.4174 0.729245 0
M  V30 5539 C 535.579 -0.116681 3.00474 0
M  V30 5540 C 537.127 -0.187103 3.1244 0
M  V30 5541 C 537.602 -0.035783 4.57986 0
M  V30 5542 N 539.093 -0.0917676 4.63109 0
M  V30 5543 C 539.828 0.00107251 5.734 0
M  V30 5544 N 539.324 0.146773 6.92645 0
M  V30 5545 N 541.117 -0.0551577 5.62073 0
M  V30 5546 H 533.268 0.983055 1.88281 0
M  V30 5547 H 535.531 0.382386 0.867459 0
M  V30 5548 H 535.237 0.85712 3.41096 0
M  V30 5549 H 535.111 -0.873929 3.66936 0
M  V30 5550 H 537.498 -1.15138 2.71712 0
M  V30 5551 H 537.579 0.601052 2.48638 0
M  V30 5552 H 537.223 0.925212 4.99402 0
M  V30 5553 H 537.153 -0.843196 5.19806 0
M  V30 5554 H 539.644 -0.203261 3.77353 0
M  V30 5555 H 539.957 0.210076 7.72514 0
M  V30 5556 H 538.302 0.181979 6.94762 0
M  V30 5557 H 541.493 -0.167605 4.678 0
M  V30 5558 H 541.666 0.020652 6.47997 0
M  V30 5559 N 535.072 -1.5615 -0.213296 0
M  V30 5560 C 536.318 -1.80718 -0.933402 0
M  V30 5561 C 536.673 -0.634441 -1.81639 0
M  V30 5562 O 535.966 0.371182 -1.8797 0
M  V30 5563 C 536.16 -3.08772 -1.79985 0
M  V30 5564 C 535.989 -4.38389 -1.00224 0
M  V30 5565 C 534.759 -5.00513 -0.693885 0
M  V30 5566 C 536.957 -5.13013 -0.363598 0
M  V30 5567 N 534.939 -6.13774 0.124266 0
M  V30 5568 C 536.31 -6.19186 0.31757 0
M  V30 5569 C 538.365 -4.97126 -0.277468 0
M  V30 5570 C 537.068 -7.11197 1.07664 0
M  V30 5571 C 539.094 -5.89544 0.468155 0
M  V30 5572 C 538.456 -6.95149 1.13784 0
M  V30 5573 H 534.555 -0.712833 -0.321549 0
M  V30 5574 H 537.139 -1.93633 -0.203588 0
M  V30 5575 H 535.31 -2.97126 -2.50142 0
M  V30 5576 H 537.042 -3.21499 -2.45806 0
M  V30 5577 H 533.797 -4.62619 -1.01391 0
M  V30 5578 H 534.221 -6.74981 0.522418 0
M  V30 5579 H 538.863 -4.15526 -0.78087 0
M  V30 5580 H 536.581 -7.92273 1.59153 0
M  V30 5581 H 540.167 -5.79327 0.535911 0
M  V30 5582 H 539.047 -7.65428 1.70557 0
M  V30 5583 N 536.55 0.480323 -1.50102 0
M  V30 5584 C 537.78 1.25475 -1.64133 0
M  V30 5585 C 538.188 1.8647 -0.320272 0
M  V30 5586 O 537.531 1.69561 0.70673 0
M  V30 5587 C 537.593 2.40996 -2.6676 0
M  V30 5588 C 537.257 2.00711 -4.10565 0
M  V30 5589 C 538.254 1.53492 -4.96725 0
M  V30 5590 C 535.939 2.09714 -4.56427 0
M  V30 5591 C 537.933 1.15806 -6.26792 0
M  V30 5592 C 535.62 1.7164 -5.86501 0
M  V30 5593 C 536.618 1.24763 -6.71508 0
M  V30 5594 O 536.306 0.872122 -7.99155 0
M  V30 5595 H 536.038 0.385983 -0.554971 0
M  V30 5596 H 538.592 0.580848 -1.97016 0
M  V30 5597 H 536.822 3.11528 -2.291 0
M  V30 5598 H 538.511 3.02981 -2.70106 0
M  V30 5599 H 539.277 1.45966 -4.62514 0
M  V30 5600 H 535.156 2.4515 -3.90413 0
M  V30 5601 H 538.7 0.791465 -6.93096 0
M  V30 5602 H 534.597 1.78822 -6.20236 0
M  V30 5603 H 535.365 1.00178 -8.12346 0
M  V30 5604 N 538.028 1.39524 0.732853 0
M  V30 5605 C 539.253 1.40329 1.52717 0
M  V30 5606 C 539.678 0.000286574 1.881 0
M  V30 5607 O 539.036 -0.987262 1.52062 0
M  V30 5608 C 539.084 2.28464 2.78992 0
M  V30 5609 O 538.188 1.716 3.75003 0
M  V30 5610 H 537.529 0.47778 0.461109 0
M  V30 5611 H 540.059 1.83546 0.903996 0
M  V30 5612 H 540.069 2.43051 3.27705 0
M  V30 5613 H 538.744 3.30425 2.52572 0
M  V30 5614 H 537.321 1.66267 3.33781 0
M  V30 5615 N 539.506 -0.963266 1.24736 0
M  V30 5616 C 540.922 -1.23273 1.01371 0
M  V30 5617 C 541.122 -1.99618 -0.274776 0
M  V30 5618 O 540.178 -2.32293 -0.989769 0
M  V30 5619 C 541.491 -2.01554 2.23152 0
M  V30 5620 C 543.039 -2.14629 2.27823 0
M  V30 5621 C 543.514 -2.96307 3.49237 0
M  V30 5622 N 545.005 -3.03887 3.49581 0
M  V30 5623 C 545.74 -3.67456 4.40186 0
M  V30 5624 N 545.236 -4.32706 5.41052 0
M  V30 5625 N 547.029 -3.64511 4.27888 0
M  V30 5626 H 539.18 -0.452294 2.07528 0
M  V30 5627 H 541.443 -0.262521 0.910926 0
M  V30 5628 H 541.149 -1.52847 3.1675 0
M  V30 5629 H 541.023 -3.02278 2.25628 0
M  V30 5630 H 543.41 -2.62537 1.34753 0
M  V30 5631 H 543.491 -1.13238 2.2937 0
M  V30 5632 H 543.135 -2.49091 4.42624 0
M  V30 5633 H 543.065 -3.97905 3.44933 0
M  V30 5634 H 545.556 -2.57477 2.76611 0
M  V30 5635 H 545.869 -4.79042 6.06415 0
M  V30 5636 H 544.214 -4.31361 5.44934 0
M  V30 5637 H 547.405 -3.12715 3.4832 0
M  V30 5638 H 547.578 -4.13768 4.98698 0
M  V30 5639 N 540.985 -1.06182 -1.16461 0
M  V30 5640 C 542.213 -0.798583 -1.90867 0
M  V30 5641 C 542.628 0.646921 -1.77371 0
M  V30 5642 O 541.985 1.44279 -1.11758 0
M  V30 5643 C 542.036 -1.18258 -3.4161 0
M  V30 5644 O 541.757 -2.57135 -3.54701 0
M  V30 5645 C 543.258 -0.946917 -4.33069 0
M  V30 5646 H 540.478 -0.289603 -0.605286 0
M  V30 5647 H 543.022 -1.41515 -1.47627 0
M  V30 5648 H 541.177 -0.610562 -3.82558 0
M  V30 5649 H 541.591 -2.72477 -4.4817 0
M  V30 5650 H 543.065 -1.26523 -5.37304 0
M  V30 5651 H 543.542 0.117406 -4.39043 0
M  V30 5652 H 544.148 -1.50326 -3.97847 0
M  V30 5653 N 542.463 1.3308 -0.844243 0
M  V30 5654 C 543.396 2.27075 -0.226279 0
M  V30 5655 C 544.374 1.49911 0.629716 0
M  V30 5656 O 545.558 1.79068 0.588803 0
M  V30 5657 C 542.685 3.31767 0.681782 0
M  V30 5658 C 541.731 4.26384 -0.0994565 0
M  V30 5659 S 542.564 5.15186 -1.46094 0
M  V30 5660 C 543.72 6.23405 -0.558319 0
M  V30 5661 H 543.953 2.79141 -1.02312 0
M  V30 5662 H 541.486 1.40452 -0.641292 0
M  V30 5663 H 543.444 3.92566 1.20008 0
M  V30 5664 H 542.105 2.78507 1.45234 0
M  V30 5665 H 541.298 5.00514 0.591733 0
M  V30 5666 H 540.9 3.69949 -0.548991 0
M  V30 5667 H 543.192 6.77069 0.241672 0
M  V30 5668 H 544.135 6.96619 -1.26995 0
M  V30 5669 H 544.543 5.64333 -0.13728 0
M  V30 5670 N 543.941 0.601185 1.45683 0
M  V30 5671 C 545.166 0.0982245 2.07167 0
M  V30 5672 C 545.591 -1.20546 1.44396 0
M  V30 5673 O 544.949 -1.73247 0.534347 0
M  V30 5674 C 544.997 -0.0346976 3.60583 0
M  V30 5675 O 544.101 -1.08657 3.97828 0
M  V30 5676 H 543.442 0.0711618 0.660176 0
M  V30 5677 H 545.972 0.829376 1.87036 0
M  V30 5678 H 545.982 -0.234969 4.07323 0
M  V30 5679 H 544.657 0.917265 4.05659 0
M  V30 5680 H 543.234 -0.863275 3.6277 0
M  V30 5681 N 545.419 -1.53889 0.339982 0
M  V30 5682 C 546.366 -2.24902 -0.518452 0
M  V30 5683 C 547.336 -1.24593 -1.09844 0
M  V30 5684 O 548.521 -1.53317 -1.13572 0
M  V30 5685 C 545.661 -3.02262 -1.66529 0
M  V30 5686 C 544.774 -4.17418 -1.11295 0
M  V30 5687 C 543.909 -4.82273 -2.2268 0
M  V30 5688 C 542.948 -5.89503 -1.6478 0
M  V30 5689 N 542.085 -6.48153 -2.69893 0
M  V30 5690 H 546.925 -2.97853 0.0936579 0
M  V30 5691 H 544.462 -1.46986 0.0579924 0
M  V30 5692 H 546.42 -3.45371 -2.3404 0
M  V30 5693 H 545.05 -2.31614 -2.24844 0
M  V30 5694 H 544.102 -3.78976 -0.328886 0
M  V30 5695 H 545.414 -4.94554 -0.649414 0
M  V30 5696 H 544.568 -5.28435 -2.98063 0
M  V30 5697 H 543.307 -4.04552 -2.72376 0
M  V30 5698 H 542.312 -5.42728 -0.879004 0
M  V30 5699 H 543.537 -6.6913 -1.1594 0
M  V30 5700 H 541.483 -5.73298 -3.1885 0
M  V30 5701 H 541.4 -7.20752 -2.28151 0
M  V30 5702 H 542.668 -6.98968 -3.45056 0
M  V30 5703 N 546.897 -0.0685191 -1.57451 0
M  V30 5704 C 548.125 0.610462 -1.97689 0
M  V30 5705 C 548.54 1.63346 -0.946758 0
M  V30 5706 O 547.897 1.82377 0.0669868 0
M  V30 5707 C 547.948 1.28196 -3.38006 0
M  V30 5708 O 547.669 0.299906 -4.37072 0
M  V30 5709 C 549.17 2.04907 -3.931 0
M  V30 5710 H 546.39 0.165689 -0.650222 0
M  V30 5711 H 548.934 -0.139953 -2.04021 0
M  V30 5712 H 547.089 1.98348 -3.32771 0
M  V30 5713 H 547.503 0.78126 -5.18649 0
M  V30 5714 H 548.977 2.47287 -4.93511 0
M  V30 5715 H 549.454 2.9043 -3.29465 0
M  V30 5716 H 550.06 1.39629 -4.01726 0
M  V30 5717 N 548.375 1.56261 0.205012 0
M  V30 5718 C 549.285 1.96944 1.27476 0
M  V30 5719 C 550.301 0.875636 1.50362 0
M  V30 5720 O 551.477 1.18058 1.6317 0
M  V30 5721 C 548.542 2.29219 2.60115 0
M  V30 5722 C 547.603 3.52255 2.45387 0
M  V30 5723 C 546.836 3.8298 3.71701 0
M  V30 5724 O 547.059 3.15138 4.75441 0
M  V30 5725 O 545.993 4.76435 3.67823 0
M  V30 5726 H 549.819 2.88144 0.959527 0
M  V30 5727 H 547.404 1.43686 0.409217 0
M  V30 5728 H 549.286 2.51098 3.3842 0
M  V30 5729 H 547.961 1.4119 2.91285 0
M  V30 5730 H 546.868 3.35635 1.65227 0
M  V30 5731 H 548.201 4.40719 2.19152 0
M  V30 5732 N 549.853 -0.472356 1.50355 0
M  V30 5733 C 551.269 -0.806001 1.37753 0
M  V30 5734 C 551.469 -1.968 0.432649 0
M  V30 5735 O 550.525 -2.52189 -0.12519 0
M  V30 5736 C 551.838 -1.11926 2.79093 0
M  V30 5737 C 553.386 -1.22579 2.87999 0
M  V30 5738 C 553.861 -1.57218 4.3017 0
M  V30 5739 N 555.352 -1.64212 4.33115 0
M  V30 5740 C 556.087 -1.92517 5.40116 0
M  V30 5741 N 555.583 -2.1885 6.57325 0
M  V30 5742 N 557.376 -1.94008 5.27558 0
M  V30 5743 H 549.527 0.293451 2.10363 0
M  V30 5744 H 551.79 0.0687672 0.945503 0
M  V30 5745 H 551.496 -0.338504 3.50067 0
M  V30 5746 H 551.37 -2.05577 3.16256 0
M  V30 5747 H 553.757 -1.99722 2.17245 0
M  V30 5748 H 553.838 -0.269107 2.54381 0
M  V30 5749 H 553.482 -0.806154 5.01461 0
M  V30 5750 H 553.412 -2.54034 4.61275 0
M  V30 5751 H 555.903 -1.45906 3.48597 0
M  V30 5752 H 556.216 -2.39718 7.3468 0
M  V30 5753 H 554.561 -2.16245 6.60502 0
M  V30 5754 H 557.752 -1.72931 4.34986 0
M  V30 5755 H 557.925 -2.15731 6.11035 0
M  V30 5756 N 551.331 -1.39911 -0.725443 0
M  V30 5757 C 552.264 -1.33788 -1.84867 0
M  V30 5758 C 553.242 -0.209907 -1.61239 0
M  V30 5759 O 554.426 -0.391943 -1.8438 0
M  V30 5760 C 551.553 -1.07975 -3.21028 0
M  V30 5761 C 550.599 -2.23092 -3.635 0
M  V30 5762 S 551.432 -3.85431 -3.71757 0
M  V30 5763 C 552.588 -3.61862 -5.10692 0
M  V30 5764 H 552.821 -2.28848 -1.89779 0
M  V30 5765 H 550.354 -1.26079 -0.891254 0
M  V30 5766 H 552.312 -0.937669 -3.99647 0
M  V30 5767 H 550.973 -0.145865 -3.13761 0
M  V30 5768 H 550.166 -2.00647 -4.62338 0
M  V30 5769 H 549.768 -2.33553 -2.92112 0
M  V30 5770 H 552.06 -3.19719 -5.97316 0
M  V30 5771 H 553.003 -4.60196 -5.38169 0
M  V30 5772 H 553.411 -2.95757 -4.8082 0
M  V30 5773 N 552.809 0.956637 -1.25245 0
M  V30 5774 C 554.057 1.69764 -1.09657 0
M  V30 5775 C 554.378 1.91583 0.363464 0
M  V30 5776 O 553.648 1.50149 1.25825 0
M  V30 5777 H 552.228 0.629097 -0.402798 0
M  V30 5778 H 554.89 1.15026 -1.57337 0
M  V30 5779 H 553.986 2.67769 -1.60331 0
M  V30 5780 N 554.287 1.06798 1.15896 0
M  V30 5781 C 555.22 0.627503 2.19403 0
M  V30 5782 C 556.198 -0.352352 1.58736 0
M  V30 5783 O 557.382 -0.260111 1.86697 0
M  V30 5784 C 554.509 -0.079356 3.38607 0
M  V30 5785 C 553.555 0.858057 4.17779 0
M  V30 5786 S 554.388 2.35605 4.80885 0
M  V30 5787 C 555.544 1.66083 6.03463 0
M  V30 5788 H 555.777 1.50441 2.56427 0
M  V30 5789 H 553.31 0.881427 1.26768 0
M  V30 5790 H 555.268 -0.48095 4.07673 0
M  V30 5791 H 553.929 -0.932524 2.99938 0
M  V30 5792 H 553.122 0.310108 5.03045 0
M  V30 5793 H 552.724 1.19977 3.54234 0
M  V30 5794 H 555.016 0.969337 6.7053 0
M  V30 5795 H 555.959 2.49159 6.62816 0
M  V30 5796 H 556.367 1.14122 5.52844 0
M  V30 5797 N 555.766 -1.3263 0.851289 0
M  V30 5798 C 556.676 -2.32722 0.296268 0
M  V30 5799 C 557.692 -1.63901 -0.584162 0
M  V30 5800 O 558.868 -1.95465 -0.485334 0
M  V30 5801 C 555.933 -3.42942 -0.509103 0
M  V30 5802 C 554.994 -4.2746 0.397069 0
M  V30 5803 C 554.227 -5.32416 -0.36996 0
M  V30 5804 O 554.45 -5.47491 -1.6003 0
M  V30 5805 O 553.384 -6.01327 0.262493 0
M  V30 5806 H 557.21 -2.82078 1.12543 0
M  V30 5807 H 554.795 -1.36194 0.614135 0
M  V30 5808 H 556.677 -4.1017 -0.96634 0
M  V30 5809 H 555.352 -2.95781 -1.31512 0
M  V30 5810 H 554.259 -3.63053 0.902411 0
M  V30 5811 H 555.592 -4.78136 1.16818 0
M  V30 5812 N 557.244 -0.608902 -1.45362 0
M  V30 5813 C 558.174 0.0964526 -2.33301 0
M  V30 5814 C 559.155 0.857444 -1.46908 0
M  V30 5815 O 560.34 0.827735 -1.75676 0
M  V30 5816 C 557.47 1.09354 -3.29635 0
M  V30 5817 C 556.424 0.445676 -4.25673 0
M  V30 5818 C 555.75 1.5511 -5.11708 0
M  V30 5819 C 557.05 -0.633972 -5.18438 0
M  V30 5820 H 558.744 -0.637829 -2.92527 0
M  V30 5821 H 556.29 -0.308178 -1.40664 0
M  V30 5822 H 558.243 1.59556 -3.90025 0
M  V30 5823 H 556.967 1.85843 -2.6857 0
M  V30 5824 H 555.626 -0.0354897 -3.66583 0
M  V30 5825 H 555.274 2.30631 -4.4701 0
M  V30 5826 H 554.974 1.12311 -5.76767 0
M  V30 5827 H 556.498 2.05537 -5.74967 0
M  V30 5828 H 557.912 -0.215974 -5.72893 0
M  V30 5829 H 556.309 -0.983789 -5.91981 0
M  V30 5830 H 557.379 -1.51005 -4.60788 0
M  V30 5831 N 558.722 1.53707 -0.348139 0
M  V30 5832 C 559.952 2.05108 0.247864 0
M  V30 5833 C 560.36 1.22252 1.44399 0
M  V30 5834 O 559.703 0.251853 1.81965 0
M  V30 5835 C 559.765 3.52171 0.722187 0
M  V30 5836 C 559.429 4.5562 -0.354902 0
M  V30 5837 C 560.426 5.05883 -1.19911 0
M  V30 5838 C 558.111 4.99703 -0.510145 0
M  V30 5839 C 560.105 5.98814 -2.18406 0
M  V30 5840 C 557.792 5.92443 -1.49848 0
M  V30 5841 C 558.79 6.41887 -2.33389 0
M  V30 5842 O 558.478 7.32802 -3.3054 0
M  V30 5843 H 558.21 0.674086 0.0508296 0
M  V30 5844 H 560.764 1.99229 -0.49968 0
M  V30 5845 H 558.994 3.55529 1.52105 0
M  V30 5846 H 560.683 3.8652 1.23925 0
M  V30 5847 H 561.449 4.72586 -1.09028 0
M  V30 5848 H 557.328 4.60816 0.130274 0
M  V30 5849 H 560.872 6.3733 -2.83649 0
M  V30 5850 H 556.769 6.25155 -1.60786 0
M  V30 5851 H 557.537 7.50749 -3.26064 0
M  V30 5852 N 560.2 0.0768682 1.57412 0
M  V30 5853 C 561.446 -0.591961 1.93968 0
M  V30 5854 C 561.779 -1.68954 0.9575 0
M  V30 5855 O 561.054 -1.94496 -0.0124675 0
M  V30 5856 C 561.337 -1.16418 3.40762 0
M  V30 5857 C 561.19 -0.0728933 4.49741 0
M  V30 5858 C 562.509 -2.06814 3.88479 0
M  V30 5859 H 559.628 -0.213716 0.705333 0
M  V30 5860 H 562.27 0.14387 1.89455 0
M  V30 5861 H 560.42 -1.79128 3.4474 0
M  V30 5862 H 562.092 0.560446 4.57883 0
M  V30 5863 H 560.335 0.595859 4.29688 0
M  V30 5864 H 561.006 -0.513755 5.49604 0
M  V30 5865 H 563.482 -1.54033 3.8654 0
M  V30 5866 H 562.358 -2.43785 4.91793 0
M  V30 5867 H 562.619 -2.97844 3.26713 0
M  V30 5868 N 561.678 -1.56367 -0.196722 0
M  V30 5869 C 563.094 -1.49916 -0.54749 0
M  V30 5870 C 563.294 -0.77659 -1.85934 0
M  V30 5871 O 562.35 -0.32644 -2.50381 0
M  V30 5872 C 563.663 -2.94577 -0.603734 0
M  V30 5873 C 565.211 -3.05239 -0.692677 0
M  V30 5874 C 565.686 -4.51308 -0.780046 0
M  V30 5875 N 567.177 -4.55453 -0.843616 0
M  V30 5876 C 567.912 -5.65786 -0.931358 0
M  V30 5877 N 567.408 -6.85812 -0.981503 0
M  V30 5878 N 569.201 -5.53695 -0.968421 0
M  V30 5879 H 561.352 -2.01761 0.663803 0
M  V30 5880 H 563.615 -0.918094 0.236238 0
M  V30 5881 H 563.321 -3.50494 0.29105 0
M  V30 5882 H 563.195 -3.47841 -1.45898 0
M  V30 5883 H 565.582 -2.49372 -1.57789 0
M  V30 5884 H 565.663 -2.55103 0.188736 0
M  V30 5885 H 565.307 -5.078 0.100811 0
M  V30 5886 H 565.237 -4.99176 -1.67724 0
M  V30 5887 H 567.728 -3.69025 -0.814176 0
M  V30 5888 H 568.041 -7.65648 -1.04892 0
M  V30 5889 H 566.386 -6.88474 -0.950208 0
M  V30 5890 H 569.577 -4.58848 -0.926072 0
M  V30 5891 H 569.75 -6.39708 -1.03334 0
M  V30 5892 N 563.156 0.464375 -1.50603 0
M  V30 5893 C 564.386 1.23727 -1.65454 0
M  V30 5894 C 564.794 1.86119 -0.340032 0
M  V30 5895 O 564.137 1.70301 0.688706 0
M  V30 5896 C 564.199 2.38153 -2.69301 0
M  V30 5897 C 563.863 1.96345 -4.12671 0
M  V30 5898 C 564.86 1.48215 -4.98326 0
M  V30 5899 C 562.545 2.04861 -4.58625 0
M  V30 5900 C 564.539 1.09152 -6.27985 0
M  V30 5901 C 562.226 1.65409 -5.88288 0
M  V30 5902 C 563.224 1.17634 -6.72794 0
M  V30 5903 O 562.912 0.787312 -8.00035 0
M  V30 5904 H 562.644 0.380075 -0.559034 0
M  V30 5905 H 565.198 0.559919 -1.97621 0
M  V30 5906 H 563.428 3.09081 -2.32392 0
M  V30 5907 H 565.117 3.00099 -2.73304 0
M  V30 5908 H 565.883 1.41052 -4.64036 0
M  V30 5909 H 561.762 2.40996 -3.92991 0
M  V30 5910 H 565.306 0.717909 -6.93896 0
M  V30 5911 H 561.203 1.72233 -6.22098 0
M  V30 5912 H 561.971 0.915567 -8.13363 0
M  V30 5913 N 564.634 1.40294 0.718013 0
M  V30 5914 C 565.911 1.2894 1.47084 0
M  V30 5915 C 566.291 -0.0933625 2.10893 0
M  V30 5916 O 565.639 -1.10598 1.99951 0
M  V30 5917 C 565.849 2.4264 2.50852 0
M  V30 5918 C 567.197 2.8276 3.16752 0
M  V30 5919 O 568.221 2.42215 2.61171 0
M  V30 5920 O 567.08 3.528 4.17366 0
M  V30 5921 H 564.174 0.506236 0.653952 0
M  V30 5922 H 566.72 1.52208 0.750394 0
M  V30 5923 H 565.492 3.35009 2.022 0
M  V30 5924 H 565.115 2.21129 3.30435 0
M  V30 5925 N 566.112 -0.949982 1.2575 0
M  V30 5926 C 567.36 -1.6918 1.10555 0
M  V30 5927 C 567.681 -1.91773 -0.353298 0
M  V30 5928 O 566.951 -1.50814 -1.25027 0
M  V30 5929 H 565.531 -0.626952 0.406129 0
M  V30 5930 H 568.193 -1.1419 1.57945 0
M  V30 5931 H 567.289 -2.66915 1.61749 0
M  V30 5932 N 567.59 -1.07411 -1.15328 0
M  V30 5933 C 568.867 -0.710732 -1.82231 0
M  V30 5934 C 569.247 0.806732 -1.95077 0
M  V30 5935 O 568.595 1.72139 -1.50268 0
M  V30 5936 C 568.805 -1.42586 -3.18544 0
M  V30 5937 C 570.153 -1.57836 -3.94174 0
M  V30 5938 O 571.177 -1.38669 -3.281 0
M  V30 5939 O 570.036 -1.8938 -5.12638 0
M  V30 5940 H 567.13 -0.25297 -0.78736 0
M  V30 5941 H 569.676 -1.17508 -1.22434 0
M  V30 5942 H 568.448 -2.46008 -3.04296 0
M  V30 5943 H 568.071 -0.952332 -3.86026 0
M  V30 5944 N 569.068 1.32177 -0.85831 0
M  V30 5945 C 570.479 1.79381 -0.517621 0
M  V30 5946 C 570.83 1.70841 0.964769 0
M  V30 5947 O 569.955 1.26917 1.75274 0
M  V30 5948 C 570.55 3.25706 -0.932801 0
M  V30 5949 C 569.109 3.70851 -0.643953 0
M  V30 5950 C 568.256 2.53208 -1.13054 0
M  V30 5951 H 571.207 1.19424 -1.04516 0
M  V30 5952 H 571.228 3.79673 -0.250674 0
M  V30 5953 H 570.74 3.31889 -2.01174 0
M  V30 5954 H 568.841 3.70178 0.424112 0
M  V30 5955 H 568.954 4.63495 -1.21281 0
M  V30 5956 H 567.318 2.48676 -0.550679 0
M  V30 5957 H 568.101 2.62143 -2.21666 0
M  V30 5958 N 570.547 0.616602 1.45037 0
M  V30 5959 C 571.793 0.123965 2.03022 0
M  V30 5960 C 572.148 -1.23508 1.47525 0
M  V30 5961 O 571.441 -1.80453 0.643981 0
M  V30 5962 C 571.635 0.0356829 3.57382 0
M  V30 5963 C 571.464 1.38462 4.27853 0
M  V30 5964 C 570.234 1.96766 4.65415 0
M  V30 5965 C 572.432 2.31536 4.59234 0
M  V30 5966 N 570.414 3.25046 5.20786 0
M  V30 5967 C 571.785 3.4442 5.15533 0
M  V30 5968 C 573.84 2.30796 4.41178 0
M  V30 5969 C 572.543 4.56742 5.55679 0
M  V30 5970 C 574.569 3.42171 4.82362 0
M  V30 5971 C 573.931 4.53778 5.38762 0
M  V30 5972 H 570.03 0.0889428 0.776925 0
M  V30 5973 H 572.614 0.816925 1.76733 0
M  V30 5974 H 570.785 -0.62652 3.83314 0
M  V30 5975 H 572.517 -0.464443 4.02026 0
M  V30 5976 H 569.272 1.4987 4.49261 0
M  V30 5977 H 569.696 3.90592 5.52962 0
M  V30 5978 H 574.338 1.45765 3.96878 0
M  V30 5979 H 572.056 5.42491 5.9894 0
M  V30 5980 H 575.642 3.42757 4.70116 0
M  V30 5981 H 574.522 5.38536 5.70043 0
M  V30 5982 N 572.025 -1.5352 0.356285 0
M  V30 5983 C 573.253 -2.05534 -0.237328 0
M  V30 5984 C 573.668 -1.23043 -1.43199 0
M  V30 5985 O 573.025 -0.268821 -1.80509 0
M  V30 5986 C 573.076 -3.55791 -0.639933 0
M  V30 5987 O 572.797 -4.35154 0.507233 0
M  V30 5988 C 574.298 -4.24027 -1.29292 0
M  V30 5989 H 571.518 -0.669585 -0.0435572 0
M  V30 5990 H 574.062 -1.97988 0.511963 0
M  V30 5991 H 572.217 -3.63518 -1.33915 0
M  V30 5992 H 572.631 -5.24178 0.18375 0
M  V30 5993 H 574.105 -5.30509 -1.52527 0
M  V30 5994 H 574.582 -3.77166 -2.25039 0
M  V30 5995 H 575.188 -4.20527 -0.63539 0
M  V30 5996 N 573.503 -0.0852151 -1.57369 0
M  V30 5997 C 574.78 0.622534 -1.85429 0
M  V30 5998 C 575.16 1.86962 -0.980229 0
M  V30 5999 O 574.508 2.28445 -0.0500219 0
M  V30 6000 C 574.718 0.947374 -3.35896 0
M  V30 6001 C 576.066 1.31509 -4.03721 0
M  V30 6002 O 577.09 1.03869 -3.40719 0
M  V30 6003 O 575.949 1.83231 -5.14868 0
M  V30 6004 H 573.043 0.310513 -0.766492 0
M  V30 6005 H 575.589 -0.117164 -1.69295 0
M  V30 6006 H 574.361 0.0622264 -3.91251 0
M  V30 6007 H 573.984 1.74338 -3.5734 0
M  V30 6008 N 574.981 1.5647 0.188427 0
M  V30 6009 C 576.206 1.85486 0.927891 0
M  V30 6010 C 576.631 0.669575 1.75779 0
M  V30 6011 O 575.989 -0.381573 1.77239 0
M  V30 6012 C 576.037 3.12784 1.7944 0
M  V30 6013 O 575.141 2.93805 2.894 0
M  V30 6014 H 574.482 0.610585 0.260925 0
M  V30 6015 H 577.012 2.037 0.191729 0
M  V30 6016 H 577.022 3.43749 2.19774 0
M  V30 6017 H 575.697 3.98671 1.18468 0
M  V30 6018 H 574.274 2.74153 2.52774 0
M  V30 6019 N 576.459 -0.456382 1.50847 0
M  V30 6020 C 577.736 -1.21739 1.53098 0
M  V30 6021 C 578.116 -2.09179 0.284132 0
M  V30 6022 O 577.464 -2.16466 -0.731773 0
M  V30 6023 C 577.674 -2.03573 2.83477 0
M  V30 6024 C 579.022 -2.61264 3.34703 0
M  V30 6025 O 580.046 -2.13802 2.84898 0
M  V30 6026 O 578.905 -3.47779 4.21559 0
M  V30 6027 H 575.999 -0.553219 0.614718 0
M  V30 6028 H 578.545 -0.467003 1.63148 0
M  V30 6029 H 577.317 -1.39232 3.65691 0
M  V30 6030 H 576.94 -2.85716 2.76499 0
M  V30 6031 N 577.937 -1.40673 -0.710563 0
M  V30 6032 C 578.9 -1.4108 -1.80635 0
M  V30 6033 C 579.9 -0.303783 -1.57904 0
M  V30 6034 O 581.09 -0.562937 -1.64853 0
M  V30 6035 C 578.222 -1.20748 -3.18799 0
M  V30 6036 H 579.415 -2.38612 -1.81671 0
M  V30 6037 H 576.968 -1.26595 -0.916704 0
M  V30 6038 H 577.703 -0.239964 -3.23411 0
M  V30 6039 H 577.488 -2.00941 -3.36698 0
M  V30 6040 H 578.978 -1.23833 -3.98817 0
M  V30 6041 N 579.415 0.9433 -1.26252 0
M  V30 6042 C 580.345 2.05902 -1.10122 0
M  V30 6043 C 581.326 1.70099 -0.00700552 0
M  V30 6044 O 582.511 1.93377 -0.178641 0
M  V30 6045 C 579.641 3.39516 -0.731175 0
M  V30 6046 C 578.595 3.89372 -1.77688 0
M  V30 6047 C 577.921 5.19613 -1.26122 0
M  V30 6048 C 579.221 4.14489 -3.17799 0
M  V30 6049 H 580.915 2.19655 -2.03451 0
M  V30 6050 H 578.461 1.05548 -0.979576 0
M  V30 6051 H 580.414 4.17031 -0.605215 0
M  V30 6052 H 579.138 3.25733 0.23782 0
M  V30 6053 H 577.797 3.14036 -1.89148 0
M  V30 6054 H 577.445 5.02208 -0.282128 0
M  V30 6055 H 577.145 5.53939 -1.96023 0
M  V30 6056 H 578.669 5.99713 -1.14789 0
M  V30 6057 H 580.083 4.82625 -3.09428 0
M  V30 6058 H 578.48 4.60094 -3.85271 0
M  V30 6059 H 579.55 3.20347 -3.64014 0
M  V30 6060 N 580.893 1.08022 1.14757 0
M  V30 6061 C 581.856 0.71048 2.1791 0
M  V30 6062 C 582.856 -0.252731 1.58801 0
M  V30 6063 O 584.046 -0.0327915 1.74169 0
M  V30 6064 C 581.178 0.0483203 3.40866 0
M  V30 6065 H 582.371 1.62384 2.52134 0
M  V30 6066 H 579.924 0.877595 1.29337 0
M  V30 6067 H 580.659 -0.876959 3.12218 0
M  V30 6068 H 580.444 0.741189 3.85031 0
M  V30 6069 H 581.934 -0.195471 4.17142 0
M  V30 6070 N 582.371 -1.3172 0.865308 0
M  V30 6071 C 583.321 -2.26157 0.289305 0
M  V30 6072 C 584.305 -1.50428 -0.570977 0
M  V30 6073 O 585.497 -1.71978 -0.418617 0
M  V30 6074 C 582.626 -3.39457 -0.512237 0
M  V30 6075 C 581.712 -4.22561 0.361028 0
M  V30 6076 N 582.103 -4.84501 1.45231 0
M  V30 6077 C 580.401 -4.45739 0.152641 0
M  V30 6078 C 581.102 -5.46586 1.99043 0
M  V30 6079 N 580.078 -5.28119 1.28809 0
M  V30 6080 H 583.88 -2.71581 1.12344 0
M  V30 6081 H 581.394 -1.45932 0.712565 0
M  V30 6082 H 583.391 -4.06133 -0.941379 0
M  V30 6083 H 582.051 -2.95577 -1.34404 0
M  V30 6084 H 583.062 -4.84293 1.83524 0
M  V30 6085 H 579.739 -4.1251 -0.643583 0
M  V30 6086 H 581.129 -6.05817 2.90577 0
M  V30 6087 N 583.85 -0.624285 -1.44708 0
M  V30 6088 C 585.075 -0.131171 -2.06985 0
M  V30 6089 C 585.5 1.18234 -1.46295 0
M  V30 6090 O 584.858 1.72375 -0.561842 0
M  V30 6091 C 584.906 -0.0226724 -3.60593 0
M  V30 6092 O 584.01 1.02314 -3.99507 0
M  V30 6093 H 583.351 -0.0816556 -0.65896 0
M  V30 6094 H 585.88 -0.859027 -1.85693 0
M  V30 6095 H 585.891 0.170138 -4.07645 0
M  V30 6096 H 584.566 -0.981685 -4.04148 0
M  V30 6097 H 583.143 0.805452 -3.64097 0
M  V30 6098 N 585.328 1.53329 -0.364422 0
M  V30 6099 C 586.576 2.00842 0.225189 0
M  V30 6100 C 586.897 1.25345 1.49378 0
M  V30 6101 O 586.167 0.366396 1.92443 0
M  V30 6102 H 584.747 0.742009 0.0862027 0
M  V30 6103 H 587.409 1.8863 -0.490389 0
M  V30 6104 H 586.505 3.08795 0.452987 0
M  V30 6105 N 586.806 0.0935595 1.57322 0
M  V30 6106 C 588.052 -0.571355 1.94585 0
M  V30 6107 C 588.385 -1.67929 0.975366 0
M  V30 6108 O 587.66 -1.94498 0.00816206 0
M  V30 6109 C 587.943 -1.12797 3.41978 0
M  V30 6110 C 587.796 -0.0251881 4.49793 0
M  V30 6111 C 589.115 -2.02682 3.90651 0
M  V30 6112 H 586.234 -0.206223 0.70756 0
M  V30 6113 H 588.876 0.163956 1.89291 0
M  V30 6114 H 587.026 -1.75461 3.4662 0
M  V30 6115 H 588.698 0.608979 4.57263 0
M  V30 6116 H 586.941 0.641399 4.29032 0
M  V30 6117 H 587.612 -0.455433 5.50118 0
M  V30 6118 H 590.088 -1.49925 3.88152 0
M  V30 6119 H 588.964 -2.38555 4.94351 0
M  V30 6120 H 589.225 -2.94362 3.29854 0
M  V30 6121 N 588.284 -1.56567 -0.180126 0
M  V30 6122 C 589.217 -1.90813 -1.25163 0
M  V30 6123 C 590.195 -0.7699 -1.43218 0
M  V30 6124 O 591.379 -1.02236 -1.58367 0
M  V30 6125 C 588.506 -2.15138 -2.61597 0
M  V30 6126 C 587.552 -3.37834 -2.60328 0
M  V30 6127 S 588.385 -4.92486 -2.1028 0
M  V30 6128 C 589.541 -5.19896 -3.48509 0
M  V30 6129 H 589.774 -2.81398 -0.959283 0
M  V30 6130 H 587.307 -1.49541 -0.3843 0
M  V30 6131 H 589.265 -2.29835 -3.40127 0
M  V30 6132 H 587.926 -1.25276 -2.88036 0
M  V30 6133 H 587.119 -3.52027 -3.60684 0
M  V30 6134 H 586.721 -3.22208 -1.8989 0
M  V30 6135 H 589.013 -5.11334 -4.44459 0
M  V30 6136 H 589.956 -6.21571 -3.39198 0
M  V30 6137 H 590.364 -4.47489 -3.44114 0
M  V30 6138 N 589.762 0.448376 -1.51087 0
M  V30 6139 C 591.008 1.20049 -1.6345 0
M  V30 6140 C 591.341 1.91121 -0.344444 0
M  V30 6141 O 590.616 1.83125 0.655396 0
M  V30 6142 C 590.899 2.22624 -2.83038 0
M  V30 6143 C 590.752 1.55708 -4.21989 0
M  V30 6144 C 592.071 3.23718 -2.98152 0
M  V30 6145 H 589.19 0.435085 -0.59487 0
M  V30 6146 H 591.832 0.491183 -1.83541 0
M  V30 6147 H 589.982 2.83117 -2.66039 0
M  V30 6148 H 591.654 0.986367 -4.50631 0
M  V30 6149 H 589.897 0.859647 -4.25197 0
M  V30 6150 H 590.568 2.30357 -5.01637 0
M  V30 6151 H 593.044 2.73269 -3.13788 0
M  V30 6152 H 591.92 3.92795 -3.83411 0
M  V30 6153 H 592.181 3.89179 -2.09743 0
M  V30 6154 N 591.24 1.41047 0.703093 0
M  V30 6155 C 592.465 1.43537 1.49706 0
M  V30 6156 C 592.89 0.0401853 1.88057 0
M  V30 6157 O 592.248 -0.954785 1.54122 0
M  V30 6158 C 592.296 2.3433 2.74084 0
M  V30 6159 O 591.4 1.79515 3.71279 0
M  V30 6160 H 590.741 0.487454 0.450871 0
M  V30 6161 H 593.271 1.85422 0.86486 0
M  V30 6162 H 593.281 2.49947 3.22476 0
M  V30 6163 H 591.956 3.35708 2.45506 0
M  V30 6164 H 590.533 1.7331 3.30179 0
M  V30 6165 N 592.718 -0.936591 1.26751 0
M  V30 6166 C 593.651 -2.03619 1.03027 0
M  V30 6167 C 594.629 -1.62534 -0.0464619 0
M  V30 6168 O 595.813 -1.88251 0.0968873 0
M  V30 6169 C 592.94 -3.3402 0.561072 0
M  V30 6170 C 591.986 -3.9408 1.63105 0
M  V30 6171 S 592.819 -4.27782 3.22122 0
M  V30 6172 C 593.975 -5.61277 2.76982 0
M  V30 6173 H 594.208 -2.23429 1.96129 0
M  V30 6174 H 591.741 -1.07857 1.10482 0
M  V30 6175 H 593.699 -4.09424 0.297031 0
M  V30 6176 H 592.36 -3.12147 -0.349741 0
M  V30 6177 H 591.553 -4.88154 1.25386 0
M  V30 6178 H 591.155 -3.25227 1.84671 0
M  V30 6179 H 593.447 -6.40189 2.21731 0
M  V30 6180 H 594.39 -6.03887 3.69766 0
M  V30 6181 H 594.798 -5.21374 2.16402 0
M  V30 6182 N 594.196 -1.08629 -1.14182 0
M  V30 6183 C 595.143 -0.718299 -2.19338 0
M  V30 6184 C 596.113 0.296587 -1.63431 0
M  V30 6185 O 597.298 0.180079 -1.89948 0
M  V30 6186 C 594.438 -0.136203 -3.44831 0
M  V30 6187 C 593.551 -1.20414 -4.14879 0
M  V30 6188 C 592.686 -0.585666 -5.27962 0
M  V30 6189 C 591.725 -1.63548 -5.89846 0
M  V30 6190 N 590.862 -1.03864 -6.94375 0
M  V30 6191 H 595.702 -1.61932 -2.50164 0
M  V30 6192 H 593.239 -0.80919 -1.22844 0
M  V30 6193 H 595.197 0.219021 -4.16625 0
M  V30 6194 H 593.827 0.728121 -3.14481 0
M  V30 6195 H 592.879 -1.67676 -3.41451 0
M  V30 6196 H 594.191 -1.99959 -4.56966 0
M  V30 6197 H 593.345 -0.178818 -6.06436 0
M  V30 6198 H 592.084 0.24142 -4.87102 0
M  V30 6199 H 591.089 -2.05197 -5.10073 0
M  V30 6200 H 592.314 -2.46509 -6.3278 0
M  V30 6201 H 590.26 -0.232687 -6.55587 0
M  V30 6202 H 590.177 -1.77116 -7.3496 0
M  V30 6203 H 591.445 -0.657724 -7.7672 0
M  V30 6204 N 595.674 1.31259 -0.872281 0
M  V30 6205 C 596.584 2.32221 -0.333255 0
M  V30 6206 C 597.6 1.6481 0.558013 0
M  V30 6207 O 598.776 1.96212 0.454175 0
M  V30 6208 C 595.841 3.43708 0.454479 0
M  V30 6209 C 594.902 4.26774 -0.465024 0
M  V30 6210 C 594.135 5.32937 0.28521 0
M  V30 6211 O 594.358 5.49968 1.513 0
M  V30 6212 O 593.292 6.00834 -0.358126 0
M  V30 6213 H 597.118 2.80252 -1.17016 0
M  V30 6214 H 594.703 1.352 -0.635724 0
M  V30 6215 H 596.585 4.11656 0.900963 0
M  V30 6216 H 595.26 2.97836 1.26789 0
M  V30 6217 H 594.167 3.61571 -0.960055 0
M  V30 6218 H 595.5 4.76217 -1.2441 0
M  V30 6219 N 597.152 0.631951 1.44375 0
M  V30 6220 C 598.563 0.219036 1.85411 0
M  V30 6221 C 598.914 -1.22974 1.52879 0
M  V30 6222 O 598.039 -1.93579 0.967266 0
M  V30 6223 C 598.634 0.39075 3.36539 0
M  V30 6224 C 597.193 0.0323351 3.76386 0
M  V30 6225 C 596.34 0.703744 2.68221 0
M  V30 6226 H 599.291 0.837056 1.3483 0
M  V30 6227 H 599.312 -0.370056 3.78696 0
M  V30 6228 H 598.824 1.44527 3.60185 0
M  V30 6229 H 596.925 -1.02042 3.58355 0
M  V30 6230 H 597.038 0.442969 4.77048 0
M  V30 6231 H 595.402 0.138974 2.54321 0
M  V30 6232 H 596.185 1.76088 2.947 0
M  V30 6233 N 598.631 -1.53133 0.372548 0
M  V30 6234 C 599.879 -2.00958 -0.214534 0
M  V30 6235 C 600.2 -1.26135 -1.48711 0
M  V30 6236 O 599.47 -0.376597 -1.92246 0
M  V30 6237 H 598.05 -0.742456 -0.0822664 0
M  V30 6238 H 600.712 -1.88367 0.500385 0
M  V30 6239 H 599.808 -3.09031 -0.436605 0
M  V30 6240 N 600.109 -0.101901 -1.5727 0
M  V30 6241 C 601.355 0.554864 -1.95686 0
M  V30 6242 C 601.71 1.65368 -0.983415 0
M  V30 6243 O 601.003 1.91597 -0.0105374 0
M  V30 6244 C 601.197 1.14898 -3.38427 0
M  V30 6245 C 601.026 0.109251 -4.49567 0
M  V30 6246 C 599.796 -0.316633 -5.04307 0
M  V30 6247 C 601.994 -0.665196 -5.0998 0
M  V30 6248 N 599.976 -1.34393 -5.99009 0
M  V30 6249 C 601.347 -1.54413 -6.00464 0
M  V30 6250 C 603.402 -0.717966 -4.92696 0
M  V30 6251 C 602.105 -2.47122 -6.75517 0
M  V30 6252 C 604.131 -1.63268 -5.68417 0
M  V30 6253 C 603.493 -2.49923 -6.58572 0
M  V30 6254 H 599.592 0.17317 -0.762585 0
M  V30 6255 H 602.176 -0.18605 -1.93809 0
M  V30 6256 H 600.347 1.85969 -3.40984 0
M  V30 6257 H 602.079 1.76867 -3.64006 0
M  V30 6258 H 598.834 0.0724419 -4.73545 0
M  V30 6259 H 599.258 -1.85598 -6.51062 0
M  V30 6260 H 603.9 -0.0621637 -4.22754 0
M  V30 6261 H 601.618 -3.13724 -7.44717 0
M  V30 6262 H 605.204 -1.67874 -5.57054 0
M  V30 6263 H 604.084 -3.19553 -7.16139 0
M  V30 6264 N 601.587 1.56661 0.17182 0
M  V30 6265 C 602.817 1.85831 0.902804 0
M  V30 6266 C 603.225 0.685157 1.76358 0
M  V30 6267 O 602.568 -0.354947 1.80238 0
M  V30 6268 C 602.63 3.09406 1.83053 0
M  V30 6269 C 602.294 4.4231 1.1494 0
M  V30 6270 C 603.291 5.17342 0.515104 0
M  V30 6271 C 600.976 4.89045 1.14631 0
M  V30 6272 C 602.97 6.37299 -0.113194 0
M  V30 6273 C 600.657 6.08933 0.514184 0
M  V30 6274 C 601.655 6.82904 -0.114463 0
M  V30 6275 O 601.343 8.00518 -0.736622 0
M  V30 6276 H 601.075 0.620715 0.267748 0
M  V30 6277 H 603.629 2.04637 0.176918 0
M  V30 6278 H 601.859 2.86544 2.59672 0
M  V30 6279 H 603.548 3.25027 2.4313 0
M  V30 6280 H 604.314 4.82317 0.509474 0
M  V30 6281 H 600.193 4.31409 1.62502 0
M  V30 6282 H 603.737 6.94976 -0.604477 0
M  V30 6283 H 599.634 6.43423 0.517395 0
M  V30 6284 H 600.402 8.16027 -0.635822 0
M  V30 6285 N 603.065 -0.440357 1.51323 0
M  V30 6286 C 604.29 -1.21716 1.67928 0
M  V30 6287 C 604.715 -1.84328 0.374826 0
M  V30 6288 O 604.073 -1.68675 -0.664706 0
M  V30 6289 C 604.121 -2.27914 2.79442 0
M  V30 6290 O 603.225 -3.33325 2.42834 0
M  V30 6291 H 602.566 -0.35674 0.560029 0
M  V30 6292 H 605.096 -0.520417 1.97871 0
M  V30 6293 H 605.106 -2.72746 3.03436 0
M  V30 6294 H 603.781 -1.8172 3.741 0
M  V30 6295 H 602.358 -2.9399 2.294 0
M  V30 6296 N 604.543 -1.41418 -0.695603 0
M  V30 6297 C 605.79 -1.40774 -1.45564 0
M  V30 6298 C 606.118 -0.0168604 -1.94493 0
M  V30 6299 O 605.373 0.971259 -1.69897 0
M  V30 6300 C 605.672 -2.36112 -2.68302 0
M  V30 6301 C 605.338 -3.82952 -2.38031 0
M  V30 6302 C 604 -4.22954 -2.29486 0
M  V30 6303 C 606.352 -4.75662 -2.13061 0
M  V30 6304 C 603.68 -5.53674 -1.94067 0
M  V30 6305 C 606.032 -6.06702 -1.79151 0
M  V30 6306 C 604.696 -6.45725 -1.69102 0
M  V30 6307 H 603.966 -0.515128 -0.532658 0
M  V30 6308 H 606.613 -1.74216 -0.795047 0
M  V30 6309 H 604.918 -1.95924 -3.39295 0
M  V30 6310 H 606.615 -2.32887 -3.26442 0
M  V30 6311 H 603.205 -3.5127 -2.45576 0
M  V30 6312 H 607.389 -4.45561 -2.18608 0
M  V30 6313 H 602.645 -5.8279 -1.8484 0
M  V30 6314 H 606.819 -6.78041 -1.5885 0
M  V30 6315 H 604.446 -7.46929 -1.41426 0
M  V30 6316 N 606.021 0.929856 -1.27246 0
M  V30 6317 C 607.269 1.674 -1.13233 0
M  V30 6318 C 607.59 1.92311 0.322744 0
M  V30 6319 O 606.86 1.52784 1.22612 0
M  V30 6320 H 605.44 0.620411 -0.416052 0
M  V30 6321 H 608.102 1.11663 -1.59741 0
M  V30 6322 H 607.198 2.64308 -1.65975 0
M  V30 6323 N 607.499 1.09233 1.13605 0
M  V30 6324 C 608.746 0.827159 1.84836 0
M  V30 6325 C 609.074 -0.647199 1.83416 0
M  V30 6326 O 608.329 -1.49228 1.26608 0
M  V30 6327 C 608.628 1.305 3.32723 0
M  V30 6328 C 608.294 2.78864 3.54325 0
M  V30 6329 C 606.956 3.19382 3.59928 0
M  V30 6330 C 609.308 3.74532 3.62457 0
M  V30 6331 C 606.636 4.54346 3.71196 0
M  V30 6332 C 608.988 5.09283 3.75252 0
M  V30 6333 C 607.652 5.49394 3.79108 0
M  V30 6334 H 606.922 0.302679 0.676363 0
M  V30 6335 H 609.569 1.36676 1.34134 0
M  V30 6336 H 607.874 0.68517 3.85762 0
M  V30 6337 H 609.571 1.07648 3.86281 0
M  V30 6338 H 606.161 2.46507 3.50617 0
M  V30 6339 H 610.345 3.44343 3.57409 0
M  V30 6340 H 605.601 4.84864 3.72447 0
M  V30 6341 H 609.775 5.83269 3.80487 0
M  V30 6342 H 607.402 6.5397 3.87591 0
M  V30 6343 N 608.977 -1.30795 0.87923 0
M  V30 6344 C 609.887 -2.32041 0.345565 0
M  V30 6345 C 610.903 -1.65103 -0.549265 0
M  V30 6346 O 612.079 -1.9645 -0.443763 0
M  V30 6347 C 609.144 -3.43944 -0.436245 0
M  V30 6348 C 608.205 -4.26521 0.48765 0
M  V30 6349 C 607.438 -5.33081 -0.256943 0
M  V30 6350 O 607.661 -5.50762 -1.48381 0
M  V30 6351 O 606.595 -6.00635 0.389985 0
M  V30 6352 H 610.421 -2.79627 1.18501 0
M  V30 6353 H 608.006 -1.3486 0.642885 0
M  V30 6354 H 609.888 -4.12128 -0.879119 0
M  V30 6355 H 608.563 -2.98504 -1.25208 0
M  V30 6356 H 607.47 -3.61057 0.979216 0
M  V30 6357 H 608.803 -4.75551 1.26933 0
M  V30 6358 N 610.455 -0.639598 -1.44038 0
M  V30 6359 C 611.704 -0.144885 -2.01179 0
M  V30 6360 C 612.017 1.24372 -1.50967 0
M  V30 6361 O 613.223 1.83291 -2.00292 0
M  V30 6362 C 611.679 -0.208244 -3.59297 0
M  V30 6363 C 611.287 -1.59869 -4.18504 0
M  V30 6364 C 613.031 0.229568 -4.23879 0
M  V30 6365 C 610.938 -1.61671 -5.68873 0
M  V30 6366 H 609.868 -0.0504005 -0.752314 0
M  V30 6367 H 612.519 -0.799639 -1.65161 0
M  V30 6368 H 610.901 0.513767 -3.92653 0
M  V30 6369 H 612.075 -2.34496 -3.96671 0
M  V30 6370 H 610.39 -1.98131 -3.66242 0
M  V30 6371 H 612.987 0.235758 -5.3418 0
M  V30 6372 H 613.33 1.25848 -3.96822 0
M  V30 6373 H 613.863 -0.440233 -3.95357 0
M  V30 6374 H 610.602 -2.62427 -6.00677 0
M  V30 6375 H 610.122 -0.913489 -5.92803 0
M  V30 6376 H 611.801 -1.35439 -6.32665 0
M  V30 6377 N 611.933 1.52934 -0.380664 0
M  V30 6378 C 612.88 2.26197 0.458641 0
M  V30 6379 C 613.85 1.27462 1.06502 0
M  V30 6380 O 615.035 1.56274 1.09467 0
M  V30 6381 C 612.175 3.06571 1.58456 0
M  V30 6382 C 611.288 4.20222 1.00189 0
M  V30 6383 C 610.423 4.88007 2.09815 0
M  V30 6384 C 609.462 5.93665 1.49092 0
M  V30 6385 N 608.599 6.55081 2.52613 0
M  V30 6386 H 613.439 2.975 -0.172595 0
M  V30 6387 H 610.976 1.4678 -0.0969426 0
M  V30 6388 H 612.934 3.51455 2.24801 0
M  V30 6389 H 611.564 2.37494 2.18624 0
M  V30 6390 H 610.616 3.79714 0.228292 0
M  V30 6391 H 611.928 4.96102 0.518064 0
M  V30 6392 H 611.082 5.36151 2.83948 0
M  V30 6393 H 609.821 4.11632 2.61555 0
M  V30 6394 H 608.826 5.44868 0.7348 0
M  V30 6395 H 610.051 6.71969 0.981582 0
M  V30 6396 H 607.997 5.8155 3.03538 0
M  V30 6397 H 607.914 7.26548 2.08961 0
M  V30 6398 H 609.182 7.07871 3.26402 0
M  V30 6399 N 613.412 0.11024 1.57214 0
M  V30 6400 C 614.689 -0.592956 1.86396 0
M  V30 6401 C 615.069 -1.85379 1.00985 0
M  V30 6402 O 614.417 -2.28337 0.0863592 0
M  V30 6403 C 614.627 -0.893816 3.3736 0
M  V30 6404 C 615.975 -1.25069 4.05762 0
M  V30 6405 O 616.999 -0.984356 3.42329 0
M  V30 6406 O 615.858 -1.75017 5.17718 0
M  V30 6407 H 612.952 -0.29828 0.771335 0
M  V30 6408 H 615.498 0.144083 1.69087 0
M  V30 6409 H 614.27 2.6031e-05 3.913 0
M  V30 6410 H 613.893 -1.68631 3.60068 0
M  V30 6411 N 614.89 -1.56749 -0.16351 0
M  V30 6412 C 615.837 -1.97011 -1.2023 0
M  V30 6413 C 616.807 -0.835186 -1.43575 0
M  V30 6414 O 617.992 -1.09594 -1.56185 0
M  V30 6415 C 615.132 -2.34186 -2.53478 0
M  V30 6416 C 614.245 -3.60893 -2.37446 0
M  V30 6417 C 613.38 -3.87245 -3.63614 0
M  V30 6418 C 612.419 -5.07274 -3.42548 0
M  V30 6419 N 611.556 -5.29719 -4.60806 0
M  V30 6420 H 616.396 -2.85562 -0.851958 0
M  V30 6421 H 613.933 -1.41292 -0.409257 0
M  V30 6422 H 615.891 -2.53764 -3.31149 0
M  V30 6423 H 614.521 -1.48736 -2.86492 0
M  V30 6424 H 613.573 -3.49185 -1.50911 0
M  V30 6425 H 614.885 -4.48722 -2.1783 0
M  V30 6426 H 614.039 -4.07232 -4.49719 0
M  V30 6427 H 612.778 -2.97806 -3.86216 0
M  V30 6428 H 611.783 -4.87177 -2.5483 0
M  V30 6429 H 613.008 -5.98251 -3.2136 0
M  V30 6430 H 610.954 -4.43233 -4.83612 0
M  V30 6431 H 610.871 -6.11786 -4.44132 0
M  V30 6432 H 612.139 -5.54192 -5.48171 0
M  V30 6433 N 616.368 0.432326 -1.51554 0
M  V30 6434 C 617.315 1.52512 -1.7323 0
M  V30 6435 C 618.285 1.55863 -0.5741 0
M  V30 6436 O 619.47 1.72796 -0.809093 0
M  V30 6437 C 616.61 2.90183 -1.86783 0
M  V30 6438 C 615.723 2.96322 -3.14352 0
M  V30 6439 C 614.858 4.25147 -3.18471 0
M  V30 6440 C 613.897 4.25172 -4.40335 0
M  V30 6441 N 613.034 5.45529 -4.41975 0
M  V30 6442 H 617.874 1.33332 -2.66508 0
M  V30 6443 H 615.411 0.647613 -1.32077 0
M  V30 6444 H 617.369 3.70071 -1.92623 0
M  V30 6445 H 615.999 3.0791 -0.969087 0
M  V30 6446 H 615.051 2.09066 -3.17798 0
M  V30 6447 H 616.363 2.92203 -4.04251 0
M  V30 6448 H 615.517 5.13411 -3.23255 0
M  V30 6449 H 614.256 4.31929 -2.2647 0
M  V30 6450 H 613.261 3.353 -4.35723 0
M  V30 6451 H 614.486 4.20049 -5.33606 0
M  V30 6452 H 612.432 5.53024 -3.52847 0
M  V30 6453 H 612.349 5.43311 -5.25689 0
M  V30 6454 H 613.617 6.35812 -4.50958 0
M  V30 6455 N 617.846 1.41785 0.688094 0
M  V30 6456 C 619.086 1.43018 1.46032 0
M  V30 6457 C 619.45 0.0402632 1.91958 0
M  V30 6458 O 620.651 -0.0726425 2.68702 0
M  V30 6459 C 618.922 2.4151 2.63453 0
M  V30 6460 S 620.481 2.61335 3.5249 0
M  V30 6461 H 617.299 0.506546 0.498931 0
M  V30 6462 H 619.901 1.78283 0.80221 0
M  V30 6463 H 618.605 3.41286 2.27929 0
M  V30 6464 H 618.136 2.07624 3.34149 0
M  V30 6465 H 620.151 1.88637 4.58945 0
M  V30 6466 N 619.324 -0.923095 1.27737 0
M  V30 6467 C 620.601 -1.64989 1.05062 0
M  V30 6468 C 620.981 -2.07018 -0.413124 0
M  V30 6469 O 620.329 -1.80797 -1.39731 0
M  V30 6470 C 620.539 -2.84847 2.01652 0
M  V30 6471 C 621.887 -3.56083 2.31279 0
M  V30 6472 O 622.911 -2.94981 1.99662 0
M  V30 6473 O 621.77 -4.66182 2.85196 0
M  V30 6474 H 618.864 -0.723357 0.400853 0
M  V30 6475 H 621.41 -0.973224 1.3902 0
M  V30 6476 H 620.182 -2.50814 3.00347 0
M  V30 6477 H 619.805 -3.60231 1.68284 0
M  V30 6478 N 620.802 -1.09834 -1.13024 0
M  V30 6479 C 622.048 -0.83819 -1.84668 0
M  V30 6480 C 622.381 0.634645 -1.83537 0
M  V30 6481 O 621.656 1.46753 -1.27647 0
M  V30 6482 C 621.939 -1.37933 -3.32636 0
M  V30 6483 C 621.792 -2.91857 -3.42257 0
M  V30 6484 C 623.111 -1.01654 -4.28199 0
M  V30 6485 H 620.23 -0.30595 -0.670495 0
M  V30 6486 H 622.872 -1.36044 -1.32635 0
M  V30 6487 H 621.022 -0.935111 -3.77078 0
M  V30 6488 H 622.694 -3.44759 -3.06495 0
M  V30 6489 H 620.937 -3.28776 -2.83 0
M  V30 6490 H 621.608 -3.24799 -4.46329 0
M  V30 6491 H 624.084 -1.39973 -3.9185 0
M  V30 6492 H 622.96 -1.42217 -5.30156 0
M  V30 6493 H 623.221 0.0747794 -4.42037 0
M  V30 6494 N 622.28 1.30327 -0.886154 0
M  V30 6495 C 623.691 1.78243 -0.555554 0
M  V30 6496 C 624.042 1.72849 0.928314 0
M  V30 6497 O 623.167 1.30607 1.72542 0
M  V30 6498 C 623.762 3.23654 -1.00168 0
M  V30 6499 C 622.321 3.69401 -0.722471 0
M  V30 6500 C 621.468 2.50753 -1.18399 0
M  V30 6501 H 624.419 1.1718 -1.07026 0
M  V30 6502 H 624.44 3.79056 -0.331152 0
M  V30 6503 H 623.952 3.27548 -2.08169 0
M  V30 6504 H 622.053 3.70995 0.345496 0
M  V30 6505 H 622.166 4.60818 -1.31085 0
M  V30 6506 H 620.53 2.47452 -0.603303 0
M  V30 6507 H 621.313 2.57383 -2.27176 0
M  V30 6508 N 623.758 0.647228 1.43697 0
M  V30 6509 C 624.998 0.16171 2.03759 0
M  V30 6510 C 625.362 -1.19951 1.49919 0
M  V30 6511 O 626.563 -1.77808 2.01588 0
M  V30 6512 C 624.834 0.16505 3.57019 0
M  V30 6513 S 626.393 -0.253497 4.38067 0
M  V30 6514 H 623.211 0.0689985 0.707644 0
M  V30 6515 H 625.813 0.854224 1.7585 0
M  V30 6516 H 624.517 1.15858 3.93707 0
M  V30 6517 H 624.048 -0.548194 3.89562 0
M  V30 6518 H 626.063 -1.49385 4.73179 0
M  V30 6519 N 625.236 -1.5273 0.388769 0
M  V30 6520 C 626.485 -2.00757 -0.194833 0
M  V30 6521 C 626.798 -1.27951 -1.47946 0
M  V30 6522 O 628.004 -1.66686 -2.14308 0
M  V30 6523 C 626.46 -3.57695 -0.397762 0
M  V30 6524 C 626.068 -4.394 0.873583 0
M  V30 6525 C 627.812 -4.14012 -0.937759 0
M  V30 6526 C 625.719 -5.87938 0.638962 0
M  V30 6527 H 624.649 -0.750101 -0.0765845 0
M  V30 6528 H 627.3 -1.76239 0.511086 0
M  V30 6529 H 625.682 -3.7846 -1.16552 0
M  V30 6530 H 626.856 -4.30403 1.64591 0
M  V30 6531 H 625.171 -3.94301 1.33849 0
M  V30 6532 H 627.768 -5.22645 -1.12899 0
M  V30 6533 H 628.111 -3.7007 -1.90666 0
M  V30 6534 H 628.644 -3.97137 -0.229588 0
M  V30 6535 H 625.383 -6.36202 1.57885 0
M  V30 6536 H 624.903 -5.99726 -0.094443 0
M  V30 6537 H 626.582 -6.46423 0.273299 0
M  V30 6538 N 626.714 -0.118576 -1.57153 0
M  V30 6539 C 627.962 0.538461 -1.94795 0
M  V30 6540 C 628.283 1.67243 -1.00274 0
M  V30 6541 O 627.553 1.95811 -0.0589692 0
M  V30 6542 H 626.133 0.201904 -0.719197 0
M  V30 6543 H 628.795 -0.187418 -1.93997 0
M  V30 6544 H 627.891 0.933315 -2.97818 0
M  V30 6545 N 628.193 1.56834 0.155195 0
M  V30 6546 C 629.442 1.82088 0.867567 0
M  V30 6547 C 629.755 0.69849 1.82703 0
M  V30 6548 O 630.961 0.836407 2.58295 0
M  V30 6549 C 629.417 3.22707 1.59336 0
M  V30 6550 C 629.025 4.42859 0.676719 0
M  V30 6551 C 630.769 3.57242 2.293 0
M  V30 6552 C 628.676 5.74501 1.40367 0
M  V30 6553 H 627.606 0.679057 0.327715 0
M  V30 6554 H 630.257 1.83105 0.120351 0
M  V30 6555 H 628.639 3.16054 2.38591 0
M  V30 6556 H 629.813 4.60731 -0.0800196 0
M  V30 6557 H 628.128 4.16311 0.0859129 0
M  V30 6558 H 630.725 4.52847 2.84312 0
M  V30 6559 H 631.068 2.82901 3.05406 0
M  V30 6560 H 631.601 3.6552 1.56972 0
M  V30 6561 H 628.34 6.51915 0.684623 0
M  V30 6562 H 627.86 5.60579 2.13332 0
M  V30 6563 H 629.539 6.17016 1.94681 0
M  V30 6564 N 629.671 -0.424282 1.51781 0
M  V30 6565 C 630.581 -1.54087 1.76902 0
M  V30 6566 C 631.597 -1.61249 0.653826 0
M  V30 6567 O 632.773 -1.78247 0.937552 0
M  V30 6568 C 629.838 -2.8996 1.90063 0
M  V30 6569 C 628.899 -2.92809 3.13945 0
M  V30 6570 C 628.132 -4.22201 3.26469 0
M  V30 6571 O 628.355 -5.15286 2.44616 0
M  V30 6572 O 627.289 -4.31599 4.1953 0
M  V30 6573 H 631.115 -1.358 2.71647 0
M  V30 6574 H 628.7 -0.608618 1.36441 0
M  V30 6575 H 630.582 -3.70575 2.0063 0
M  V30 6576 H 629.257 -3.08347 0.985067 0
M  V30 6577 H 628.164 -2.11102 3.08847 0
M  V30 6578 H 629.497 -2.79369 4.05233 0
M  V30 6579 N 631.149 -1.42148 -0.680565 0
M  V30 6580 C 632.082 -1.39602 -1.80517 0
M  V30 6581 C 633.06 -0.261098 -1.6049 0
M  V30 6582 O 634.244 -0.450404 -1.8304 0
M  V30 6583 C 631.371 -1.18134 -3.1743 0
M  V30 6584 C 630.417 -2.34543 -3.56219 0
M  V30 6585 S 631.25 -3.97063 -3.59306 0
M  V30 6586 C 632.406 -3.77926 -4.98921 0
M  V30 6587 H 632.639 -2.3477 -1.82402 0
M  V30 6588 H 630.172 -1.28851 -0.850691 0
M  V30 6589 H 632.13 -1.06434 -3.96462 0
M  V30 6590 H 630.791 -0.245611 -3.13138 0
M  V30 6591 H 629.984 -2.15255 -4.55721 0
M  V30 6592 H 629.586 -2.42728 -2.84533 0
M  V30 6593 H 631.878 -3.3856 -5.86842 0
M  V30 6594 H 632.821 -4.77084 -5.23256 0
M  V30 6595 H 633.229 -3.10904 -4.71167 0
M  V30 6596 N 632.627 0.916307 -1.28225 0
M  V30 6597 C 633.873 1.66765 -1.154 0
M  V30 6598 C 634.206 1.91912 0.297251 0
M  V30 6599 O 633.481 1.51766 1.21644 0
M  V30 6600 C 633.764 3.02715 -1.95028 0
M  V30 6601 C 633.617 2.84738 -3.48201 0
M  V30 6602 C 634.936 4.03215 -1.76369 0
M  V30 6603 H 632.055 0.605205 -0.42059 0
M  V30 6604 H 634.697 1.06255 -1.57512 0
M  V30 6605 H 632.847 3.54365 -1.59242 0
M  V30 6606 H 634.519 2.40118 -3.9388 0
M  V30 6607 H 632.762 2.19848 -3.73964 0
M  V30 6608 H 633.433 3.8127 -3.99171 0
M  V30 6609 H 635.909 3.60617 -2.07593 0
M  V30 6610 H 634.785 4.96306 -2.34459 0
M  V30 6611 H 635.046 4.36288 -0.71452 0
M  V30 6612 N 634.105 1.10431 1.1244 0
M  V30 6613 C 635.055 0.722378 2.16254 0
M  V30 6614 C 636.039 -0.268427 1.58645 0
M  V30 6615 O 637.231 -0.077169 1.76832 0
M  V30 6616 C 634.36 0.155763 3.42946 0
M  V30 6617 C 633.446 1.17361 4.07538 0
M  V30 6618 N 633.837 2.36429 4.47141 0
M  V30 6619 C 632.135 1.01412 4.34317 0
M  V30 6620 C 632.836 3.01259 4.97612 0
M  V30 6621 N 631.812 2.28777 4.93115 0
M  V30 6622 H 635.614 1.62876 2.4464 0
M  V30 6623 H 633.128 0.982031 1.29344 0
M  V30 6624 H 635.125 -0.135936 4.16678 0
M  V30 6625 H 633.785 -0.745339 3.1603 0
M  V30 6626 H 634.796 2.73954 4.39511 0
M  V30 6627 H 631.473 0.168574 4.1716 0
M  V30 6628 H 632.863 4.02541 5.37968 0
M  V30 6629 N 635.583 -1.29855 0.893053 0
M  V30 6630 C 636.86 -1.90694 0.435336 0
M  V30 6631 C 637.24 -1.8111 -1.08454 0
M  V30 6632 O 636.588 -1.23352 -1.92345 0
M  V30 6633 C 636.798 -3.36033 0.942472 0
M  V30 6634 C 638.146 -4.13083 0.982226 0
M  V30 6635 O 639.17 -3.4491 0.889686 0
M  V30 6636 O 638.029 -5.34896 1.12022 0
M  V30 6637 H 635.123 -0.815978 0.134567 0
M  V30 6638 H 637.669 -1.38367 0.982484 0
M  V30 6639 H 636.441 -3.37132 1.9864 0
M  V30 6640 H 636.064 -3.95828 0.374952 0
M  V30 6641 N 637.061 -0.65484 -1.43351 0
M  V30 6642 C 638.309 -0.168559 -2.01396 0
M  V30 6643 C 638.63 1.22235 -1.51933 0
M  V30 6644 O 637.9 1.81685 -0.732627 0
M  V30 6645 H 636.48 -0.0593244 -0.744641 0
M  V30 6646 H 639.142 -0.846871 -1.75539 0
M  V30 6647 H 638.238 -0.154428 -3.11718 0
M  V30 6648 N 638.539 1.52521 -0.396863 0
M  V30 6649 C 639.787 2.01274 0.182536 0
M  V30 6650 C 640.108 1.28485 1.46685 0
M  V30 6651 O 639.378 0.407134 1.91623 0
M  V30 6652 H 637.958 0.743671 0.0704442 0
M  V30 6653 H 640.62 1.87547 -0.530289 0
M  V30 6654 H 639.716 3.09687 0.387385 0
M  V30 6655 N 640.017 0.126909 1.57088 0
M  V30 6656 C 640.964 -0.82036 2.15728 0
M  V30 6657 C 641.934 -1.25811 1.08447 0
M  V30 6658 O 643.119 -1.33422 1.36393 0
M  V30 6659 C 640.259 -2.06199 2.76724 0
M  V30 6660 C 639.372 -1.67188 3.98337 0
M  V30 6661 C 638.507 -2.86378 4.47393 0
M  V30 6662 C 637.546 -2.43644 5.61519 0
M  V30 6663 N 636.683 -3.55775 6.05284 0
M  V30 6664 H 641.523 -0.313472 2.96347 0
M  V30 6665 H 639.06 -0.14303 1.46403 0
M  V30 6666 H 641.018 -2.78959 3.10222 0
M  V30 6667 H 639.648 -2.54333 1.98782 0
M  V30 6668 H 638.7 -0.842714 3.70948 0
M  V30 6669 H 640.012 -1.31789 4.81075 0
M  V30 6670 H 639.166 -3.67353 4.82842 0
M  V30 6671 H 637.905 -3.25009 3.63621 0
M  V30 6672 H 636.91 -1.61104 5.25667 0
M  V30 6673 H 638.135 -2.06122 6.47063 0
M  V30 6674 H 636.081 -3.94065 5.24451 0
M  V30 6675 H 635.998 -3.24325 6.82898 0
M  V30 6676 H 637.266 -4.37166 6.45373 0
M  V30 6677 N 641.495 -1.56914 -0.146875 0
M  V30 6678 C 642.442 -1.98275 -1.18134 0
M  V30 6679 C 643.412 -0.850367 -1.42681 0
M  V30 6680 O 644.597 -1.11244 -1.55014 0
M  V30 6681 C 641.737 -2.36861 -2.5098 0
M  V30 6682 C 640.85 -3.63391 -2.33605 0
M  V30 6683 C 639.985 -3.91079 -3.59486 0
M  V30 6684 C 639.024 -5.10879 -3.37149 0
M  V30 6685 N 638.161 -5.34577 -4.55161 0
M  V30 6686 H 643.001 -2.8645 -0.821622 0
M  V30 6687 H 640.538 -1.41718 -0.394248 0
M  V30 6688 H 642.496 -2.57262 -3.28439 0
M  V30 6689 H 641.126 -1.51766 -2.84898 0
M  V30 6690 H 640.178 -3.50766 -1.47199 0
M  V30 6691 H 641.49 -4.51007 -2.13059 0
M  V30 6692 H 640.644 -4.11979 -4.45374 0
M  V30 6693 H 639.383 -3.01885 -3.83036 0
M  V30 6694 H 638.388 -4.89853 -2.49649 0
M  V30 6695 H 639.613 -6.01626 -3.14997 0
M  V30 6696 H 637.559 -4.48337 -4.78884 0
M  V30 6697 H 637.476 -6.16463 -4.37618 0
M  V30 6698 H 638.744 -5.59975 -5.42263 0
M  V30 6699 N 642.974 0.416227 -1.52004 0
M  V30 6700 C 644.202 1.18573 -1.69553 0
M  V30 6701 C 644.617 1.84472 -0.401919 0
M  V30 6702 O 643.974 1.71593 0.621463 0
M  V30 6703 C 644.025 2.25413 -2.82615 0
M  V30 6704 O 643.746 1.62205 -4.06966 0
M  V30 6705 C 645.247 3.15297 -3.11613 0
M  V30 6706 H 642.467 0.356582 -0.56841 0
M  V30 6707 H 645.011 0.490618 -1.98528 0
M  V30 6708 H 643.166 2.90604 -2.56179 0
M  V30 6709 H 643.58 2.3298 -4.69916 0
M  V30 6710 H 645.054 3.86351 -3.94255 0
M  V30 6711 H 645.531 3.77264 -2.24874 0
M  V30 6712 H 646.137 2.55783 -3.39787 0
M  V30 6713 N 644.452 1.42507 0.673017 0
M  V30 6714 C 645.698 1.44282 1.43367 0
M  V30 6715 C 646.053 0.0588239 1.9231 0
M  V30 6716 O 645.346 -0.919288 1.68106 0
M  V30 6717 C 645.54 2.40351 2.64511 0
M  V30 6718 C 645.369 3.87955 2.27423 0
M  V30 6719 C 644.139 4.56476 2.16697 0
M  V30 6720 C 646.337 4.7833 1.88957 0
M  V30 6721 N 644.319 5.89099 1.72731 0
M  V30 6722 C 645.69 6.00073 1.55923 0
M  V30 6723 C 647.745 4.65769 1.75965 0
M  V30 6724 C 646.448 7.10652 1.112 0
M  V30 6725 C 648.474 5.76332 1.32647 0
M  V30 6726 C 647.836 6.97188 1.00538 0
M  V30 6727 H 643.935 0.583134 0.521036 0
M  V30 6728 H 646.519 1.78547 0.776481 0
M  V30 6729 H 644.69 2.08145 3.27918 0
M  V30 6730 H 646.422 2.32694 3.31113 0
M  V30 6731 H 643.177 4.10712 2.35823 0
M  V30 6732 H 643.601 6.59446 1.53166 0
M  V30 6733 H 648.243 3.72808 1.99435 0
M  V30 6734 H 645.961 8.0346 0.864768 0
M  V30 6735 H 649.547 5.68625 1.23112 0
M  V30 6736 H 648.427 7.81287 0.675283 0
M  V30 6737 N 645.93 -0.909495 1.28709 0
M  V30 6738 C 646.88 -1.9991 1.09636 0
M  V30 6739 C 647.864 -1.60889 0.01872 0
M  V30 6740 O 649.056 -1.75374 0.239338 0
M  V30 6741 C 646.185 -3.34675 0.764702 0
M  V30 6742 C 645.271 -3.80085 1.8814 0
M  V30 6743 N 645.662 -3.97824 3.12361 0
M  V30 6744 C 643.96 -4.09278 1.77221 0
M  V30 6745 C 644.661 -4.35928 3.85151 0
M  V30 6746 N 643.637 -4.44426 3.13028 0
M  V30 6747 H 647.439 -2.11681 2.03883 0
M  V30 6748 H 644.953 -1.09763 1.1969 0
M  V30 6749 H 646.95 -4.12426 0.609132 0
M  V30 6750 H 645.61 -3.24255 -0.169952 0
M  V30 6751 H 646.621 -3.83626 3.47925 0
M  V30 6752 H 643.298 -4.0747 0.909621 0
M  V30 6753 H 644.688 -4.57581 4.92006 0
M  V30 6754 N 647.408 -1.11026 -1.11852 0
M  V30 6755 C 648.633 -0.879064 -1.87849 0
M  V30 6756 C 649.058 0.565406 -1.79401 0
M  V30 6757 O 648.416 1.39886 -1.15333 0
M  V30 6758 C 648.464 -1.33985 -3.34784 0
M  V30 6759 O 647.568 -0.508803 -4.09249 0
M  V30 6760 H 646.909 -0.316992 -0.583448 0
M  V30 6761 H 649.439 -1.47863 -1.41413 0
M  V30 6762 H 649.449 -1.33248 -3.85628 0
M  V30 6763 H 648.124 -2.39172 -3.40249 0
M  V30 6764 H 646.701 -0.581913 -3.68332 0
M  V30 6765 N 648.886 1.2938 -0.899927 0
M  V30 6766 C 649.849 2.25983 -0.382677 0
M  V30 6767 C 650.849 1.53366 0.483259 0
M  V30 6768 O 652.039 1.71798 0.28828 0
M  V30 6769 C 649.171 3.37878 0.452915 0
M  V30 6770 H 650.364 2.73252 -1.23586 0
M  V30 6771 H 647.917 1.40825 -0.678088 0
M  V30 6772 H 648.652 2.95949 1.32608 0
M  V30 6773 H 648.437 3.91742 -0.167562 0
M  V30 6774 H 649.927 4.09746 0.806107 0
M  V30 6775 N 650.364 0.662433 1.43002 0
M  V30 6776 C 651.327 -0.0142016 2.29196 0
M  V30 6777 C 652.327 -0.741394 1.42688 0
M  V30 6778 O 653.517 -0.581257 1.64216 0
M  V30 6779 C 650.649 -1.03084 3.24941 0
M  V30 6780 H 651.842 0.7443 2.90517 0
M  V30 6781 H 649.395 0.424133 1.50435 0
M  V30 6782 H 650.13 -1.81826 2.68533 0
M  V30 6783 H 649.915 -0.512946 3.8873 0
M  V30 6784 H 651.405 -1.50308 3.89612 0
M  V30 6785 N 651.842 -1.52309 0.404946 0
M  V30 6786 C 653.07 -2.06185 -0.171818 0
M  V30 6787 C 653.485 -1.27536 -1.39212 0
M  V30 6788 O 652.842 -0.326112 -1.79563 0
M  V30 6789 C 652.893 -3.57647 -0.526417 0
M  V30 6790 O 652.614 -4.3332 0.645417 0
M  V30 6791 C 654.115 -4.27925 -1.15736 0
M  V30 6792 H 651.335 -0.670632 -0.0222328 0
M  V30 6793 H 653.879 -1.96259 0.574692 0
M  V30 6794 H 652.034 -3.67595 -1.22282 0
M  V30 6795 H 652.448 -5.23328 0.35042 0
M  V30 6796 H 653.922 -5.35093 -1.35572 0
M  V30 6797 H 654.399 -3.84134 -2.12926 0
M  V30 6798 H 655.005 -4.22335 -0.501281 0
M  V30 6799 N 653.32 -0.135238 -1.57019 0
M  V30 6800 C 654.283 0.794707 -2.14981 0
M  V30 6801 C 655.283 1.18342 -1.08866 0
M  V30 6802 O 656.473 1.10627 -1.34563 0
M  V30 6803 C 653.605 2.07685 -2.70333 0
M  V30 6804 H 654.798 0.290696 -2.98488 0
M  V30 6805 H 652.351 0.114128 -1.55883 0
M  V30 6806 H 653.086 2.6248 -1.9046 0
M  V30 6807 H 652.871 1.80745 -3.47957 0
M  V30 6808 H 654.361 2.74127 -3.1503 0
M  V30 6809 N 654.798 1.5699 0.138552 0
M  V30 6810 C 656.047 1.82998 0.848205 0
M  V30 6811 C 656.36 0.717829 1.81952 0
M  V30 6812 O 657.566 0.863756 2.57394 0
M  V30 6813 C 656.022 3.24379 1.55904 0
M  V30 6814 C 655.63 4.43552 0.62971 0
M  V30 6815 C 657.374 3.59654 2.25498 0
M  V30 6816 C 655.281 5.75957 1.34266 0
M  V30 6817 H 654.211 0.682495 0.320495 0
M  V30 6818 H 656.862 1.83222 0.100924 0
M  V30 6819 H 655.244 3.18567 2.35226 0
M  V30 6820 H 656.418 4.6062 -0.128882 0
M  V30 6821 H 654.733 4.16379 0.0417526 0
M  V30 6822 H 657.33 4.55837 2.79493 0
M  V30 6823 H 657.673 2.86124 3.02388 0
M  V30 6824 H 658.206 3.67164 1.53087 0
M  V30 6825 H 654.945 6.52604 0.615441 0
M  V30 6826 H 654.465 5.62811 2.07375 0
M  V30 6827 H 656.144 6.19046 1.88126 0
M  V30 6828 N 656.276 -0.40816 1.52223 0
M  V30 6829 C 657.506 -1.17501 1.69932 0
M  V30 6830 C 657.914 -1.84729 0.408874 0
M  V30 6831 O 657.257 -1.7274 -0.625025 0
M  V30 6832 C 657.319 -2.27994 2.77955 0
M  V30 6833 C 656.983 -1.80894 4.19674 0
M  V30 6834 C 657.98 -1.29618 5.03483 0
M  V30 6835 C 655.665 -1.87698 4.65913 0
M  V30 6836 C 657.659 -0.857695 6.31603 0
M  V30 6837 C 655.346 -1.43461 5.94022 0
M  V30 6838 C 656.344 -0.925822 6.76696 0
M  V30 6839 O 656.032 -0.489841 8.02406 0
M  V30 6840 H 655.764 -0.359065 0.572755 0
M  V30 6841 H 658.318 -0.486188 1.99563 0
M  V30 6842 H 656.548 -3.00243 2.43703 0
M  V30 6843 H 658.237 -2.89749 2.84254 0
M  V30 6844 H 659.003 -1.23733 4.68951 0
M  V30 6845 H 654.882 -2.26244 4.01665 0
M  V30 6846 H 658.426 -0.459879 6.96083 0
M  V30 6847 H 654.323 -1.49026 6.28062 0
M  V30 6848 H 655.091 -0.613062 8.16201 0
M  V30 6849 N 657.755 -1.42862 -0.66545 0
M  V30 6850 C 658.995 -1.45323 -1.43738 0
M  V30 6851 C 659.359 -0.0707969 -1.91869 0
M  V30 6852 O 660.56 0.0298852 -2.68783 0
M  V30 6853 C 658.831 -2.45671 -2.59577 0
M  V30 6854 S 660.39 -2.6691 -3.48288 0
M  V30 6855 H 657.208 -0.51442 -0.490809 0
M  V30 6856 H 659.81 -1.79537 -0.773745 0
M  V30 6857 H 658.514 -3.44869 -2.22471 0
M  V30 6858 H 658.045 -2.12914 -3.30804 0
M  V30 6859 H 660.06 -1.95914 -4.55886 0
M  V30 6860 N 659.233 0.902656 -1.29189 0
M  V30 6861 C 660.163 2.02294 -1.16616 0
M  V30 6862 C 661.144 1.6999 -0.0611175 0
M  V30 6863 O 662.329 1.9271 -0.240072 0
M  V30 6864 C 659.459 3.37018 -0.83882 0
M  V30 6865 C 658.413 3.83522 -1.89986 0
M  V30 6866 C 657.739 5.15337 -1.42589 0
M  V30 6867 C 659.039 4.04169 -3.30824 0
M  V30 6868 H 660.733 2.13071 -2.10336 0
M  V30 6869 H 658.279 1.02378 -1.01266 0
M  V30 6870 H 660.232 4.14895 -0.737584 0
M  V30 6871 H 658.956 3.26325 0.134071 0
M  V30 6872 H 657.615 3.07859 -1.99043 0
M  V30 6873 H 657.263 5.01056 -0.441759 0
M  V30 6874 H 656.963 5.47423 -2.13547 0
M  V30 6875 H 658.487 5.95758 -1.3381 0
M  V30 6876 H 659.901 4.72537 -3.24626 0
M  V30 6877 H 658.298 4.47604 -3.99713 0
M  V30 6878 H 659.368 3.08604 -3.74021 0
M  V30 6879 N 660.711 1.11618 1.11262 0
M  V30 6880 C 661.644 0.719995 2.16544 0
M  V30 6881 C 662.622 -0.28471 1.60088 0
M  V30 6882 O 663.806 -0.180693 1.87632 0
M  V30 6883 C 660.933 0.0643302 3.38639 0
M  V30 6884 C 659.979 1.03448 4.13764 0
M  V30 6885 S 660.812 2.55789 4.70459 0
M  V30 6886 C 661.968 1.91529 5.95875 0
M  V30 6887 H 662.201 1.61181 2.49816 0
M  V30 6888 H 659.734 0.934401 1.22916 0
M  V30 6889 H 661.692 -0.307609 4.09346 0
M  V30 6890 H 660.353 -0.804471 3.03623 0
M  V30 6891 H 659.546 0.523188 5.01277 0
M  V30 6892 H 659.148 1.34893 3.48826 0
M  V30 6893 H 661.44 1.25286 6.65815 0
M  V30 6894 H 662.383 2.77047 6.51652 0
M  V30 6895 H 662.791 1.37468 5.47506 0
M  V30 6896 N 662.189 -1.289 0.906776 0
M  V30 6897 C 663.437 -1.94883 0.535266 0
M  V30 6898 C 663.758 -1.71784 -0.922791 0
M  V30 6899 O 663.028 -1.05359 -1.65156 0
M  V30 6900 H 661.608 -0.721109 0.194962 0
M  V30 6901 H 664.27 -1.57018 1.15461 0
M  V30 6902 H 663.366 -3.03591 0.723821 0
M  V30 6903 N 663.667 -0.670007 -1.42649 0
M  V30 6904 C 664.892 -0.196955 -2.06463 0
M  V30 6905 C 665.317 1.1352 -1.49983 0
M  V30 6906 O 664.675 1.705 -0.616397 0
M  V30 6907 C 664.723 -0.137381 -3.60338 0
M  V30 6908 O 663.827 0.895523 -4.02559 0
M  V30 6909 H 663.168 -0.102579 -0.656029 0
M  V30 6910 H 665.698 -0.917669 -1.82866 0
M  V30 6911 H 665.708 0.0403625 -4.0798 0
M  V30 6912 H 664.383 -1.10977 -4.0082 0
M  V30 6913 H 662.96 0.689209 -3.66476 0
M  V30 6914 N 665.145 1.52092 -0.413018 0
M  V30 6915 C 666.393 2.01456 0.161178 0
M  V30 6916 C 666.714 1.30034 1.45314 0
M  V30 6917 O 665.984 0.427435 1.9118 0
M  V30 6918 H 664.564 0.744376 0.0625526 0
M  V30 6919 H 667.226 1.86974 -0.550151 0
M  V30 6920 H 666.322 3.1008 0.354517 0
M  V30 6921 N 666.623 0.143563 1.56945 0
M  V30 6922 C 667.555 -0.828353 2.13708 0
M  V30 6923 C 668.568 -1.21313 1.08568 0
M  V30 6924 O 669.757 -1.1578 1.35857 0
M  V30 6925 C 666.857 -2.12248 2.64204 0
M  V30 6926 C 666.03 -1.90561 3.93707 0
M  V30 6927 C 665.089 -3.03931 4.29549 0
M  V30 6928 O 664.115 -2.75772 4.97934 0
M  V30 6929 N 665.317 -4.31016 3.88852 0
M  V30 6930 H 668.082 -0.343242 2.97728 0
M  V30 6931 H 665.643 -0.0401152 1.6185 0
M  V30 6932 H 667.635 -2.87132 2.85197 0
M  V30 6933 H 666.205 -2.52033 1.84928 0
M  V30 6934 H 665.425 -0.997327 3.81375 0
M  V30 6935 H 666.713 -1.73405 4.78339 0
M  V30 6936 H 666.111 -4.56762 3.33743 0
M  V30 6937 H 664.668 -5.02691 4.14903 0
M  V30 6938 N 668.101 -1.57061 -0.130224 0
M  V30 6939 C 669.031 -2.02552 -1.16168 0
M  V30 6940 C 670.012 -0.907971 -1.4384 0
M  V30 6941 O 671.197 -1.17693 -1.54473 0
M  V30 6942 C 668.327 -2.42035 -2.49071 0
M  V30 6943 C 667.281 -3.5713 -2.35886 0
M  V30 6944 C 666.607 -3.82478 -3.7365 0
M  V30 6945 C 667.907 -4.89236 -1.8288 0
M  V30 6946 H 669.601 -2.8897 -0.783359 0
M  V30 6947 H 667.147 -1.39021 -0.375376 0
M  V30 6948 H 669.1 -2.72462 -3.21469 0
M  V30 6949 H 667.824 -1.52573 -2.88771 0
M  V30 6950 H 666.483 -3.26895 -1.65938 0
M  V30 6951 H 666.131 -2.9024 -4.10816 0
M  V30 6952 H 665.831 -4.59944 -3.65685 0
M  V30 6953 H 667.355 -4.15347 -4.47571 0
M  V30 6954 H 668.769 -5.18272 -2.45085 0
M  V30 6955 H 667.166 -5.70624 -1.85763 0
M  V30 6956 H 668.236 -4.78494 -0.785571 0
M  V30 6957 N 669.579 0.400081 -1.52437 0
M  V30 6958 C 670.509 1.4947 -1.7939 0
M  V30 6959 C 671.49 1.57383 -0.645329 0
M  V30 6960 O 672.675 1.72511 -0.891826 0
M  V30 6961 C 669.805 2.87201 -1.95276 0
M  V30 6962 C 668.759 2.94134 -3.10917 0
M  V30 6963 C 668.085 4.34207 -3.1204 0
M  V30 6964 C 669.385 2.64791 -4.50203 0
M  V30 6965 H 671.079 1.27165 -2.71052 0
M  V30 6966 H 668.625 0.610312 -1.30427 0
M  V30 6967 H 670.578 3.63772 -2.12715 0
M  V30 6968 H 669.302 3.10819 -1.00294 0
M  V30 6969 H 667.961 2.20009 -2.93243 0
M  V30 6970 H 667.609 4.54848 -2.14761 0
M  V30 6971 H 667.309 4.39768 -3.89715 0
M  V30 6972 H 668.833 5.127 -3.31619 0
M  V30 6973 H 670.247 3.31083 -4.68035 0
M  V30 6974 H 668.644 2.81717 -5.29864 0
M  V30 6975 H 669.714 1.60184 -4.57678 0
M  V30 6976 N 671.057 1.43213 0.657864 0
M  V30 6977 C 672.303 1.45795 1.41829 0
M  V30 6978 C 672.658 0.0792176 1.92237 0
M  V30 6979 O 671.951 -0.901406 1.69072 0
M  V30 6980 C 672.145 2.43143 2.61947 0
M  V30 6981 C 671.974 3.90345 2.23295 0
M  V30 6982 C 670.744 4.58749 2.11843 0
M  V30 6983 C 672.942 4.80308 1.83873 0
M  V30 6984 N 670.924 5.90898 1.66473 0
M  V30 6985 C 672.295 6.01693 1.49549 0
M  V30 6986 C 674.35 4.67609 1.71015 0
M  V30 6987 C 673.053 7.11792 1.03657 0
M  V30 6988 C 675.079 5.77707 1.26527 0
M  V30 6989 C 674.441 6.98215 0.931379 0
M  V30 6990 H 670.54 0.588628 0.514822 0
M  V30 6991 H 673.124 1.7936 0.7575 0
M  V30 6992 H 671.295 2.11612 3.25692 0
M  V30 6993 H 673.027 2.36193 3.28626 0
M  V30 6994 H 669.782 4.1319 2.31453 0
M  V30 6995 H 670.206 6.61034 1.46163 0
M  V30 6996 H 674.848 3.74902 1.95469 0
M  V30 6997 H 672.566 8.04332 0.779502 0
M  V30 6998 H 676.152 5.69899 1.17074 0
M  V30 6999 H 675.032 7.81959 0.592379 0
M  V30 7000 N 672.536 -0.895792 1.29666 0
M  V30 7001 C 673.813 -1.62723 1.08538 0
M  V30 7002 C 674.193 -2.07848 -0.369119 0
M  V30 7003 O 673.541 -1.8372 -1.35864 0
M  V30 7004 C 673.751 -2.80505 2.07648 0
M  V30 7005 C 675.099 -3.51098 2.3878 0
M  V30 7006 O 676.123 -2.90679 2.05874 0
M  V30 7007 O 674.982 -4.60028 2.9502 0
M  V30 7008 H 672.076 -0.714692 0.416106 0
M  V30 7009 H 674.622 -0.943517 1.41053 0
M  V30 7010 H 673.394 -2.44386 3.05599 0
M  V30 7011 H 673.017 -3.5658 1.75887 0
M  V30 7012 N 674.014 -1.12206 -1.10668 0
M  V30 7013 C 675.242 -0.898635 -1.86366 0
M  V30 7014 C 675.657 0.551991 -1.80551 0
M  V30 7015 O 675.014 1.38152 -1.19249 0
M  V30 7016 C 675.065 -1.36199 -3.34861 0
M  V30 7017 O 674.786 -2.75576 -3.40573 0
M  V30 7018 C 676.287 -1.17515 -4.2744 0
M  V30 7019 H 673.507 -0.321281 -0.589084 0
M  V30 7020 H 676.051 -1.49142 -1.39918 0
M  V30 7021 H 674.206 -0.81249 -3.78784 0
M  V30 7022 H 674.62 -2.95851 -4.33096 0
M  V30 7023 H 676.094 -1.54827 -5.29842 0
M  V30 7024 H 676.571 -0.115486 -4.39048 0
M  V30 7025 H 677.177 -1.71203 -3.89319 0
M  V30 7026 N 675.492 1.28418 -0.913599 0
M  V30 7027 C 676.738 1.9527 -0.547484 0
M  V30 7028 C 677.071 1.71745 0.906486 0
M  V30 7029 O 676.346 1.03834 1.64465 0
M  V30 7030 C 676.629 3.49748 -0.857205 0
M  V30 7031 C 676.482 3.82675 -2.3639 0
M  V30 7032 C 677.801 4.3868 -0.353258 0
M  V30 7033 H 674.92 0.709236 -0.200381 0
M  V30 7034 H 677.562 1.51789 -1.14281 0
M  V30 7035 H 675.712 3.86915 -0.350548 0
M  V30 7036 H 677.384 3.55378 -2.94116 0
M  V30 7037 H 675.627 3.29724 -2.81894 0
M  V30 7038 H 676.298 4.90547 -2.53115 0
M  V30 7039 H 678.774 4.08584 -0.787288 0
M  V30 7040 H 677.65 5.45621 -0.599049 0
M  V30 7041 H 677.911 4.35753 0.746413 0
M  V30 7042 N 676.97 0.677563 1.42291 0
M  V30 7043 C 678.198 0.209459 2.05837 0
M  V30 7044 C 678.613 -1.13444 1.50917 0
M  V30 7045 O 677.97 -1.70529 0.65008 0
M  V30 7046 C 678.021 0.138819 3.61233 0
M  V30 7047 O 677.742 1.42962 4.14118 0
M  V30 7048 C 679.243 -0.352449 4.41897 0
M  V30 7049 H 676.463 0.101209 0.663323 0
M  V30 7050 H 679.007 0.925077 1.8238 0
M  V30 7051 H 677.162 -0.527505 3.83792 0
M  V30 7052 H 677.576 1.3048 5.08011 0
M  V30 7053 H 679.05 -0.350778 5.50884 0
M  V30 7054 H 679.527 -1.3882 4.16684 0
M  V30 7055 H 680.133 0.282236 4.24362 0
M  V30 7056 N 678.448 -1.51871 0.421078 0
M  V30 7057 C 679.696 -2.01539 -0.150492 0
M  V30 7058 C 680.017 -1.30803 -1.44623 0
M  V30 7059 O 679.287 -0.437568 -1.90951 0
M  V30 7060 H 677.867 -0.744698 -0.0586041 0
M  V30 7061 H 680.529 -1.8668 0.560059 0
M  V30 7062 H 679.625 -3.10264 -0.338068 0
M  V30 7063 N 679.926 -0.151884 -1.56866 0
M  V30 7064 C 681.172 0.498742 -1.96572 0
M  V30 7065 C 681.505 1.64194 -1.03702 0
M  V30 7066 O 680.78 1.94334 -0.0803432 0
M  V30 7067 C 681.063 1.00027 -3.45929 0
M  V30 7068 C 680.916 -0.141767 -4.49577 0
M  V30 7069 C 682.235 1.88044 -3.97904 0
M  V30 7070 H 679.354 0.17982 -0.714726 0
M  V30 7071 H 681.996 -0.234097 -1.88552 0
M  V30 7072 H 680.146 1.62476 -3.52894 0
M  V30 7073 H 681.818 -0.778269 -4.54687 0
M  V30 7074 H 680.061 -0.80019 -4.26356 0
M  V30 7075 H 680.732 0.250947 -5.51429 0
M  V30 7076 H 683.208 1.35416 -3.93449 0
M  V30 7077 H 682.084 2.20043 -5.02864 0
M  V30 7078 H 682.345 2.81916 -3.40552 0
M  V30 7079 N 681.404 1.57128 0.121893 0
M  V30 7080 C 682.681 1.75664 0.860327 0
M  V30 7081 C 683.061 0.726585 1.98202 0
M  V30 7082 O 682.409 -0.24999 2.27128 0
M  V30 7083 C 682.619 3.20571 1.37968 0
M  V30 7084 C 683.967 3.82988 1.83317 0
M  V30 7085 O 684.991 3.24156 1.47654 0
M  V30 7086 O 683.85 4.86393 2.49168 0
M  V30 7087 H 680.944 0.719153 0.408348 0
M  V30 7088 H 683.49 1.6937 0.105859 0
M  V30 7089 H 682.262 3.87056 0.57477 0
M  V30 7090 H 681.885 3.31392 2.19694 0
M  V30 7091 N 682.882 -0.391992 1.52647 0
M  V30 7092 C 683.815 -1.50019 1.71958 0
M  V30 7093 C 684.793 -1.5238 0.567365 0
M  V30 7094 O 685.977 -1.70831 0.796806 0
M  V30 7095 C 683.104 -2.88496 1.77447 0
M  V30 7096 C 682.15 -3.03974 2.99169 0
M  V30 7097 S 682.983 -2.75487 4.59203 0
M  V30 7098 C 684.139 -4.16163 4.67503 0
M  V30 7099 H 684.372 -1.33413 2.65685 0
M  V30 7100 H 681.905 -0.584674 1.42902 0
M  V30 7101 H 683.863 -3.68296 1.81296 0
M  V30 7102 H 682.524 -3.02431 0.848188 0
M  V30 7103 H 681.717 -4.05328 2.99542 0
M  V30 7104 H 681.319 -2.32062 2.93297 0
M  V30 7105 H 683.611 -5.10048 4.45934 0
M  V30 7106 H 684.554 -4.20806 5.69498 0
M  V30 7107 H 684.962 -4.01933 3.96371 0
M  V30 7108 N 684.36 -1.4356 -0.65026 0
M  V30 7109 C 685.323 -1.48615 -1.74489 0
M  V30 7110 C 686.323 -0.370483 -1.56474 0
M  V30 7111 O 687.513 -0.632351 -1.62317 0
M  V30 7112 C 684.645 -1.34161 -3.13391 0
M  V30 7113 H 685.838 -2.46103 -1.71387 0
M  V30 7114 H 683.391 -1.30369 -0.862186 0
M  V30 7115 H 684.126 -0.376918 -3.22102 0
M  V30 7116 H 683.911 -2.1504 -3.27872 0
M  V30 7117 H 685.401 -1.40637 -3.93206 0
M  V30 7118 N 685.838 0.888903 -1.30139 0
M  V30 7119 C 686.768 2.01046 -1.18755 0
M  V30 7120 C 687.749 1.69916 -0.0791438 0
M  V30 7121 O 688.934 1.92445 -0.260498 0
M  V30 7122 C 686.064 3.36109 -0.874518 0
M  V30 7123 C 685.018 3.81486 -1.94043 0
M  V30 7124 C 684.344 5.13796 -1.48047 0
M  V30 7125 C 685.644 4.00637 -3.35093 0
M  V30 7126 H 687.338 2.10828 -2.12584 0
M  V30 7127 H 684.884 1.01298 -1.02346 0
M  V30 7128 H 686.837 4.14089 -0.781548 0
M  V30 7129 H 685.561 3.26449 0.0994519 0
M  V30 7130 H 684.22 3.05731 -2.02297 0
M  V30 7131 H 683.868 5.0056 -0.494878 0
M  V30 7132 H 683.568 5.45127 -2.19341 0
M  V30 7133 H 685.092 5.94305 -1.40121 0
M  V30 7134 H 686.506 4.69067 -3.2962 0
M  V30 7135 H 684.903 4.43339 -4.04438 0
M  V30 7136 H 685.973 3.0462 -3.77273 0
M  V30 7137 O 687.355 1.24817 1.02483 0
M  V30 7138 H 688.046 1.02783 1.64181 0
M  V30 END ATOM
M  V30 BEGIN BOND
M  V30 END BOND
M  V30 END CTAB
M  END
$$$$
