drugbank_target|P28072 Proteasome subunit beta type-6 (DB08515)
 OpenBabel12092120433D

  0  0  0     0  0            999 V3000
M  V30 BEGIN CTAB
M  V30 COUNTS 3512 3549 0 0 0
M  V30 BEGIN ATOM
M  V30 1 H -0.908 1.98254 -0.117106 0
M  V30 2 N 0 1.576 0 0
M  V30 3 C 0.933 2.03868 1.02534 0
M  V30 4 C 1.911 0.928543 1.3348 0
M  V30 5 O 3.095 1.19667 1.45644 0
M  V30 6 C 0.222 2.43627 2.35294 0
M  V30 7 C -0.732 3.65373 2.2001 0
M  V30 8 S 0.101 5.13292 1.52614 0
M  V30 9 C 1.257 5.56322 2.86805 0
M  V30 10 H 1.49 2.90518 0.631377 0
M  V30 11 H -0.977 1.52953 0.210867 0
M  V30 12 H 0.981 2.67203 3.11629 0
M  V30 13 H -0.358 1.57376 2.7183 0
M  V30 14 H -1.165 3.90944 3.18086 0
M  V30 15 H -1.563 3.418 1.51819 0
M  V30 16 H 0.729 5.58782 3.83104 0
M  V30 17 H 1.672 6.56266 2.65933 0
M  V30 18 H 2.08 4.83886 2.90714 0
M  V30 19 N 1.4781 -0.272755 1.55222 0
M  V30 20 C 2.4411 -1.32041 1.87344 0
M  V30 21 C 3.4411 -1.42342 0.74803 0
M  V30 22 O 4.6311 -1.41488 1.0162 0
M  V30 23 C 1.7631 -2.70173 2.07893 0
M  V30 24 H 2.9561 -1.04789 2.80997 0
M  V30 25 H 0.5091 -0.51083 1.47717 0
M  V30 26 H 1.2441 -3.02605 1.16622 0
M  V30 27 H 1.0291 -2.64082 2.89833 0
M  V30 28 H 2.5191 -3.45869 2.34017 0
M  V30 29 N 2.9562 -1.48159 -0.537278 0
M  V30 30 C 3.9192 -1.61665 -1.62472 0
M  V30 31 C 4.9192 -0.490395 -1.5314 0
M  V30 32 O 6.1092 -0.755998 -1.5694 0
M  V30 33 C 3.2412 -1.57997 -3.02076 0
M  V30 34 H 4.4342 -2.58621 -1.51839 0
M  V30 35 H 1.9872 -1.36647 -0.758771 0
M  V30 36 H 2.7222 -0.624913 -3.18222 0
M  V30 37 H 2.5072 -2.39755 -3.10258 0
M  V30 38 H 3.9972 -1.70627 -3.81151 0
M  V30 39 N 4.4343 0.785586 -1.36625 0
M  V30 40 C 5.6623 1.57448 -1.3423 0
M  V30 41 C 6.0773 1.88649 0.0755653 0
M  V30 42 O 5.4343 1.50414 1.03354 0
M  V30 43 C 5.4853 2.89316 -2.16745 0
M  V30 44 O 5.2063 2.59459 -3.53005 0
M  V30 45 C 6.7073 3.83606 -2.22174 0
M  V30 46 H 3.9273 0.488226 -0.4603 0
M  V30 47 H 6.4713 0.974733 -1.79775 0
M  V30 48 H 4.6263 3.4575 -1.74745 0
M  V30 49 H 5.0403 3.43804 -3.96105 0
M  V30 50 H 6.5143 4.73181 -2.8426 0
M  V30 51 H 6.9913 4.21734 -1.22627 0
M  V30 52 H 7.5973 3.33104 -2.64427 0
M  V30 53 N 5.9124 1.20967 1.01018 0
M  V30 54 C 6.8424 0.988272 2.11555 0
M  V30 55 C 7.8234 -0.0849778 1.69888 0
M  V30 56 O 9.0084 0.0738202 1.9406 0
M  V30 57 C 6.1384 0.546528 3.42973 0
M  V30 58 C 5.0924 1.56375 3.9841 0
M  V30 59 C 4.4184 0.97842 5.25672 0
M  V30 60 C 5.7184 2.94922 4.31066 0
M  V30 61 H 7.4124 1.91276 2.30334 0
M  V30 62 H 4.9584 0.921073 1.1069 0
M  V30 63 H 6.9114 0.378839 4.19694 0
M  V30 64 H 5.6354 -0.413598 3.23971 0
M  V30 65 H 4.2944 1.71891 3.23804 0
M  V30 66 H 3.9424 0.0101688 5.02999 0
M  V30 67 H 3.6424 1.65784 5.63728 0
M  V30 68 H 5.1664 0.821939 6.05043 0
M  V30 69 H 6.5804 2.8288 4.9865 0
M  V30 70 H 4.9774 3.5983 4.80253 0
M  V30 71 H 6.0474 3.4616 3.39561 0
M  V30 72 N 7.3905 -1.2043 1.01659 0
M  V30 73 C 8.3205 -2.25466 0.607226 0
M  V30 74 C 9.3015 -1.65853 -0.377716 0
M  V30 75 O 10.4865 -1.92409 -0.263149 0
M  V30 76 C 7.6165 -3.47256 -0.0552949 0
M  V30 77 C 6.5705 -4.19462 0.850632 0
M  V30 78 C 5.8965 -5.34673 0.0538859 0
M  V30 79 C 7.1965 -4.75603 2.15868 0
M  V30 80 H 8.8905 -2.59962 1.48526 0
M  V30 81 H 6.4365 -1.2496 0.715605 0
M  V30 82 H 8.3895 -4.19917 -0.353233 0
M  V30 83 H 7.1135 -3.11924 -0.968045 0
M  V30 84 H 5.7725 -3.48667 1.13257 0
M  V30 85 H 5.4205 -4.95585 -0.860514 0
M  V30 86 H 5.1205 -5.83913 0.657192 0
M  V30 87 H 6.6445 -6.10138 -0.237598 0
M  V30 88 H 8.0585 -5.40083 1.92311 0
M  V30 89 H 6.4555 -5.3528 2.71284 0
M  V30 90 H 7.5255 -3.94346 2.82169 0
M  V30 91 N 8.8686 -0.792821 -1.36206 0
M  V30 92 C 9.8316 -0.199459 -2.2833 0
M  V30 93 C 10.8316 0.605189 -1.48977 0
M  V30 94 O 12.0216 0.425685 -1.68919 0
M  V30 95 C 9.1536 0.723523 -3.33134 0
M  V30 96 H 10.3466 -1.01181 -2.82316 0
M  V30 97 H 7.8996 -0.562485 -1.45828 0
M  V30 98 H 8.6346 1.56008 -2.84309 0
M  V30 99 H 8.4196 0.148436 -3.91819 0
M  V30 100 H 9.9096 1.13344 -4.01924 0
M  V30 101 N 10.3467 1.47872 -0.545128 0
M  V30 102 C 11.3097 2.28337 0.198717 0
M  V30 103 C 12.3097 1.36255 0.853888 0
M  V30 104 O 13.4997 1.59003 0.711606 0
M  V30 105 C 10.6317 3.15585 1.28915 0
M  V30 106 H 11.8247 2.95567 -0.507941 0
M  V30 107 H 9.3777 1.53362 -0.301616 0
M  V30 108 H 10.1127 2.53019 2.02859 0
M  V30 109 H 9.8977 3.83337 0.824309 0
M  V30 110 H 11.3877 3.76243 1.81194 0
M  V30 111 N 11.8248 0.280983 1.55075 0
M  V30 112 C 13.2408 -0.0729964 1.59433 0
M  V30 113 C 13.4408 -1.5411 1.29817 0
M  V30 114 O 12.4968 -2.29086 1.06187 0
M  V30 115 C 13.8098 0.306921 2.9913 0
M  V30 116 C 15.3578 0.254023 3.11968 0
M  V30 117 C 15.8328 0.608467 4.5394 0
M  V30 118 N 17.3238 0.560241 4.59799 0
M  V30 119 C 18.0588 0.80722 5.6769 0
M  V30 120 N 17.5548 1.11912 6.83701 0
M  V30 121 N 19.3478 0.735623 5.57266 0
M  V30 122 H 11.4988 1.238 1.7259 0
M  V30 123 H 13.7618 0.500547 0.805082 0
M  V30 124 H 13.4678 1.32816 3.25657 0
M  V30 125 H 13.3418 -0.349363 3.75579 0
M  V30 126 H 15.7288 -0.75794 2.852 0
M  V30 127 H 15.8098 0.944649 2.37718 0
M  V30 128 H 15.4538 1.61814 4.81434 0
M  V30 129 H 15.3838 -0.104013 5.26497 0
M  V30 130 H 17.8748 0.329288 3.76463 0
M  V30 131 H 18.1878 1.29409 7.61888 0
M  V30 132 H 16.5328 1.15695 6.85303 0
M  V30 133 H 19.7238 0.491752 4.6551 0
M  V30 134 H 19.8968 0.931482 6.4127 0
M  V30 135 N 13.3029 -1.57598 0.00835791 0
M  V30 136 C 14.5509 -1.90551 -0.6734 0
M  V30 137 C 14.8719 -0.883301 -1.73847 0
M  V30 138 O 14.1419 0.0781442 -1.95744 0
M  V30 139 H 12.7219 -0.703312 -0.251717 0
M  V30 140 H 15.3839 -1.94833 0.0512592 0
M  V30 141 H 14.4799 -2.9056 -1.13935 0
M  V30 142 N 14.781 0.264519 -1.55364 0
M  V30 143 C 15.744 1.31046 -1.88042 0
M  V30 144 C 16.744 1.41943 -0.755569 0
M  V30 145 O 17.934 1.40947 -1.02369 0
M  V30 146 C 15.066 2.69067 -2.09323 0
M  V30 147 H 16.259 1.03297 -2.81549 0
M  V30 148 H 13.812 0.502989 -1.47986 0
M  V30 149 H 14.547 3.01982 -1.18226 0
M  V30 150 H 14.332 2.62542 -2.91229 0
M  V30 151 H 15.822 3.44623 -2.35848 0
M  V30 152 N 16.2591 1.48442 0.529413 0
M  V30 153 C 17.5071 1.56179 1.28267 0
M  V30 154 C 17.8281 0.237721 1.93546 0
M  V30 155 O 17.0981 -0.740779 1.81354 0
M  V30 156 H 15.6781 0.575367 0.476405 0
M  V30 157 H 18.3401 1.84909 0.61602 0
M  V30 158 H 17.4361 2.34312 2.06165 0
M  V30 159 N 17.7372 -0.778329 1.37039 0
M  V30 160 C 19.1482 -1.35421 1.28523 0
M  V30 161 C 19.4992 -1.96075 -0.0700901 0
M  V30 162 O 18.6242 -1.93352 -0.971801 0
M  V30 163 C 19.2192 -2.46211 2.32735 0
M  V30 164 C 17.7782 -2.99585 2.27873 0
M  V30 165 C 16.9252 -1.72748 2.16918 0
M  V30 166 H 19.8762 -0.5791 1.47757 0
M  V30 167 H 19.8972 -3.2552 1.9702 0
M  V30 168 H 19.4092 -2.02036 3.31365 0
M  V30 169 H 17.5102 -3.48152 1.32745 0
M  V30 170 H 17.6232 -3.55646 3.21018 0
M  V30 171 H 15.9872 -1.95416 1.63354 0
M  V30 172 H 16.7702 -1.30686 3.17452 0
M  V30 173 N 19.2153 -1.21501 -1.00376 0
M  V30 174 C 20.1783 -0.976927 -2.07337 0
M  V30 175 C 21.1783 0.0525322 -1.60714 0
M  V30 176 O 22.3683 -0.184869 -1.73216 0
M  V30 177 C 19.5003 -0.473423 -3.37597 0
M  V30 178 H 20.6933 -1.92587 -2.29892 0
M  V30 179 H 18.2463 -1.03217 -1.17371 0
M  V30 180 H 18.9813 0.480379 -3.20722 0
M  V30 181 H 18.7663 -1.216 -3.72768 0
M  V30 182 H 20.2563 -0.32675 -4.1632 0
M  V30 183 N 20.6934 1.19889 -1.02296 0
M  V30 184 C 22.1044 1.71124 -0.746568 0
M  V30 185 C 22.4554 1.81939 0.734335 0
M  V30 186 O 21.5804 1.48639 1.57275 0
M  V30 187 C 22.1754 3.10804 -1.34857 0
M  V30 188 C 20.7344 3.59323 -1.1209 0
M  V30 189 C 19.8814 2.3635 -1.45031 0
M  V30 190 H 22.8324 1.04813 -1.19163 0
M  V30 191 H 22.8534 3.73186 -0.742437 0
M  V30 192 H 22.3654 3.029 -2.42638 0
M  V30 193 H 20.4664 3.7255 -0.0610337 0
M  V30 194 H 20.5794 4.4378 -1.80544 0
M  V30 195 H 18.9434 2.39399 -0.869487 0
M  V30 196 H 19.7264 2.31081 -2.53883 0
M  V30 197 N 22.1715 0.800033 1.35784 0
M  V30 198 C 23.1345 0.211565 2.28221 0
M  V30 199 C 24.1345 -0.59728 1.49296 0
M  V30 200 O 25.3245 -0.416721 1.69142 0
M  V30 201 C 22.4565 -0.705846 3.33513 0
M  V30 202 H 23.6495 1.02677 2.81776 0
M  V30 203 H 21.2025 0.570211 1.45528 0
M  V30 204 H 21.9375 -1.54498 2.85133 0
M  V30 205 H 21.7225 -0.127655 3.91892 0
M  V30 206 H 23.2125 -1.11211 4.02519 0
M  V30 207 N 23.6496 -1.47581 0.552962 0
M  V30 208 C 24.8956 -2.03369 0.0355807 0
M  V30 209 C 25.2506 -1.42016 -1.29805 0
M  V30 210 O 24.5436 -0.564917 -1.83083 0
M  V30 211 C 24.7376 -3.57199 -0.119728 0
M  V30 212 C 24.5666 -4.33468 1.1973 0
M  V30 213 C 23.3366 -4.7353 1.76345 0
M  V30 214 C 25.5346 -4.68866 2.11351 0
M  V30 215 N 23.5166 -5.34426 3.02097 0
M  V30 216 C 24.8876 -5.3002 3.21681 0
M  V30 217 C 26.9426 -4.50795 2.11397 0
M  V30 218 C 25.6456 -5.75011 4.32151 0
M  V30 219 C 27.6716 -4.96782 3.20876 0
M  V30 220 C 27.0336 -5.57981 4.29926 0
M  V30 221 H 23.1326 -0.780058 0.0550806 0
M  V30 222 H 25.7166 -1.80117 0.739315 0
M  V30 223 H 23.8876 -3.80227 -0.792579 0
M  V30 224 H 25.6196 -3.99627 -0.638792 0
M  V30 225 H 22.3746 -4.55352 1.30196 0
M  V30 226 H 22.7986 -5.69421 3.66182 0
M  V30 227 H 27.4406 -4.0284 1.28372 0
M  V30 228 H 25.1586 -6.21959 5.15938 0
M  V30 229 H 28.7446 -4.84573 3.21994 0
M  V30 230 H 27.6246 -5.92918 5.13243 0
M  V30 231 N 25.1277 -0.289203 -1.54924 0
M  V30 232 C 26.3757 0.322879 -1.99504 0
M  V30 233 C 26.6967 1.55313 -1.1791 0
M  V30 234 O 25.9667 1.94001 -0.272097 0
M  V30 235 H 24.5467 0.122291 -0.736922 0
M  V30 236 H 27.2087 -0.397802 -1.90797 0
M  V30 237 H 26.3047 0.603061 -3.06218 0
M  V30 238 N 26.6058 1.57591 -0.0167156 0
M  V30 239 C 28.0168 1.79201 0.523834 0
M  V30 240 C 28.3678 0.925796 1.72984 0
M  V30 241 O 27.4928 0.132792 2.15992 0
M  V30 242 C 28.0878 3.25 0.957091 0
M  V30 243 C 26.6468 3.47648 1.44283 0
M  V30 244 C 25.7938 2.74374 0.401757 0
M  V30 245 H 28.7448 1.56831 -0.242816 0
M  V30 246 H 28.7658 3.34031 1.82219 0
M  V30 247 H 28.2778 3.88019 0.0791415 0
M  V30 248 H 26.3788 2.89866 2.34113 0
M  V30 249 H 26.4918 4.56352 1.45877 0
M  V30 250 H 24.8558 2.39485 0.867121 0
M  V30 251 H 25.6388 3.40102 -0.467513 0
M  V30 252 N 28.0839 -0.256276 1.55502 0
M  V30 253 C 28.9939 -1.33882 1.92647 0
M  V30 254 C 30.0099 -1.53159 0.825727 0
M  V30 255 O 31.1859 -1.66963 1.12629 0
M  V30 256 C 28.2509 -2.6751 2.20543 0
M  V30 257 C 27.3119 -2.56836 3.43997 0
M  V30 258 C 26.5449 -3.84092 3.70553 0
M  V30 259 O 26.7679 -4.85545 2.99336 0
M  V30 260 O 25.7019 -3.83288 4.64084 0
M  V30 261 H 29.5279 -1.05374 2.84833 0
M  V30 262 H 27.1129 -0.456237 1.42263 0
M  V30 263 H 28.9949 -3.46492 2.39835 0
M  V30 264 H 27.6699 -2.9577 1.31536 0
M  V30 265 H 26.5769 -1.76172 3.30021 0
M  V30 266 H 27.9099 -2.33523 4.33275 0
M  V30 267 N 29.562 -1.4872 -0.521534 0
M  V30 268 C 30.525 -1.63379 -1.60748 0
M  V30 269 C 31.525 -0.50661 -1.52611 0
M  V30 270 O 32.715 -0.772601 -1.5613 0
M  V30 271 C 29.847 -1.61192 -3.00383 0
M  V30 272 H 31.04 -2.60217 -1.49087 0
M  V30 273 H 28.593 -1.37444 -0.744235 0
M  V30 274 H 29.328 -0.65863 -3.17541 0
M  V30 275 H 29.113 -2.43032 -3.07698 0
M  V30 276 H 30.603 -1.7466 -3.7932 0
M  V30 277 N 31.0401 0.771051 -1.3745 0
M  V30 278 C 32.2871 1.52963 -1.32697 0
M  V30 279 C 32.6151 1.94299 0.0883274 0
M  V30 280 O 31.8701 1.64397 1.0617 0
M  V30 281 C 32.1691 2.80676 -2.2126 0
M  V30 282 C 31.8351 2.58389 -3.69521 0
M  V30 283 C 30.4971 2.52019 -4.09927 0
M  V30 284 C 32.8491 2.38469 -4.63446 0
M  V30 285 C 30.1771 2.23721 -5.42371 0
M  V30 286 C 32.5291 2.11694 -5.96128 0
M  V30 287 C 31.1931 2.03769 -6.35637 0
M  V30 288 H 30.4631 0.559732 -0.485573 0
M  V30 289 H 33.1101 0.888083 -1.69662 0
M  V30 290 H 31.4151 3.49392 -1.77291 0
M  V30 291 H 33.1121 3.38557 -2.14895 0
M  V30 292 H 29.7021 2.6421 -3.37478 0
M  V30 293 H 33.8861 2.4238 -4.33089 0
M  V30 294 H 29.1421 2.16081 -5.71943 0
M  V30 295 H 33.3161 1.9528 -6.6846 0
M  V30 296 H 30.9431 1.81606 -7.38189 0
M  V30 297 N 32.5182 1.22032 0.997298 0
M  V30 298 C 33.7462 1.06841 1.7718 0
M  V30 299 C 34.1612 -0.381325 1.84909 0
M  V30 300 O 33.5182 -1.26437 1.31605 0
M  V30 301 C 33.5692 1.66814 3.20711 0
M  V30 302 O 33.2902 3.06116 3.13408 0
M  V30 303 C 34.7912 1.56838 4.14628 0
M  V30 304 H 32.0112 0.374782 0.556578 0
M  V30 305 H 34.5552 1.61532 1.2541 0
M  V30 306 H 32.7102 1.16196 3.69564 0
M  V30 307 H 33.1242 3.34926 4.0364 0
M  V30 308 H 34.5982 2.03532 5.13107 0
M  V30 309 H 35.0752 0.524155 4.36061 0
M  V30 310 H 35.6812 2.06741 3.7167 0
M  V30 311 N 33.9963 -1.19345 1.0293 0
M  V30 312 C 35.4073 -1.70725 0.755633 0
M  V30 313 C 35.7583 -1.82326 -0.724676 0
M  V30 314 O 34.8833 -1.49471 -1.56484 0
M  V30 315 C 35.4783 -3.10084 1.36503 0
M  V30 316 C 34.0373 -3.58723 1.13994 0
M  V30 317 C 33.1843 -2.35577 1.46283 0
M  V30 318 H 36.1353 -1.0418 1.19718 0
M  V30 319 H 36.1563 -3.72787 0.762217 0
M  V30 320 H 35.6683 -3.01609 2.44241 0
M  V30 321 H 33.7693 -3.72512 0.0807901 0
M  V30 322 H 33.8823 -4.42816 1.82894 0
M  V30 323 H 32.2463 -2.38935 0.88217 0
M  V30 324 H 33.0293 -2.29731 2.55105 0
M  V30 325 N 35.4744 -0.807222 -1.35358 0
M  V30 326 C 36.7514 -0.311126 -1.9311 0
M  V30 327 C 37.1314 1.19937 -1.73719 0
M  V30 328 O 36.4794 1.99918 -1.10657 0
M  V30 329 C 36.6894 -0.723226 -3.41424 0
M  V30 330 C 38.0374 -0.713078 -4.18569 0
M  V30 331 O 39.0614 -0.664811 -3.49941 0
M  V30 332 O 37.9204 -0.772022 -5.41019 0
M  V30 333 H 35.0144 -0.081526 -0.822972 0
M  V30 334 H 37.5604 -0.890962 -1.4443 0
M  V30 335 H 36.3324 -1.76426 -3.4927 0
M  V30 336 H 35.9554 -0.118232 -3.97424 0
M  V30 337 N 36.9525 1.47285 -0.560781 0
M  V30 338 C 38.1985 2.03347 -0.0463654 0
M  V30 339 C 38.5535 1.42702 1.2905 0
M  V30 340 O 37.8465 0.574619 1.8278 0
M  V30 341 C 38.0405 3.57258 0.100784 0
M  V30 342 C 37.8695 4.32827 -1.22027 0
M  V30 343 C 36.6395 4.72588 -1.78854 0
M  V30 344 C 38.8375 4.67739 -2.13834 0
M  V30 345 N 36.8195 5.32816 -3.04927 0
M  V30 346 C 38.1905 5.28307 -3.24487 0
M  V30 347 C 40.2455 4.49667 -2.13784 0
M  V30 348 C 38.9485 5.72711 -4.35194 0
M  V30 349 C 40.9745 4.95073 -3.23506 0
M  V30 350 C 40.3365 5.55693 -4.32879 0
M  V30 351 H 36.4355 0.779755 -0.0592166 0
M  V30 352 H 39.0195 1.79723 -0.748857 0
M  V30 353 H 37.1905 3.80642 0.772404 0
M  V30 354 H 38.9225 3.9996 0.617589 0
M  V30 355 H 35.6775 4.54656 -1.32609 0
M  V30 356 H 36.1015 5.67471 -3.69197 0
M  V30 357 H 40.7435 4.02154 -1.30507 0
M  V30 358 H 38.4615 6.19214 -5.1923 0
M  V30 359 H 42.0475 4.82859 -3.24559 0
M  V30 360 H 40.9275 5.90188 -5.1638 0
M  V30 361 N 38.4306 0.297415 1.54768 0
M  V30 362 C 39.3406 -0.58983 2.27064 0
M  V30 363 C 40.3566 -1.15144 1.30453 0
M  V30 364 O 41.5326 -1.17699 1.63428 0
M  V30 365 C 38.5976 -1.74714 2.9946 0
M  V30 366 C 37.6586 -1.21997 4.11601 0
M  V30 367 C 36.8916 -2.32212 4.80535 0
M  V30 368 O 37.1146 -3.52036 4.48806 0
M  V30 369 O 36.0486 -1.99106 5.68014 0
M  V30 370 H 39.8746 -0.00348199 3.037 0
M  V30 371 H 37.4596 0.0640035 1.49263 0
M  V30 372 H 39.3416 -2.42147 3.44881 0
M  V30 373 H 38.0166 -2.32016 2.25722 0
M  V30 374 H 36.9236 -0.511458 3.70587 0
M  V30 375 H 38.2566 -0.692419 4.87305 0
M  V30 376 N 39.9087 -1.5758 0.0250728 0
M  V30 377 C 41.1337 -1.96337 -0.668317 0
M  V30 378 C 41.5587 -0.901314 -1.651 0
M  V30 379 O 40.9167 0.138187 -1.80773 0
M  V30 380 C 40.9647 -3.34191 -1.35457 0
M  V30 381 O 40.0687 -3.30269 -2.46974 0
M  V30 382 H 39.4097 -0.640281 -0.175887 0
M  V30 383 H 41.9397 -2.0442 0.0857224 0
M  V30 384 H 41.9497 -3.70331 -1.71228 0
M  V30 385 H 40.6247 -4.11036 -0.634218 0
M  V30 386 H 39.2017 -3.05841 -2.13344 0
M  V30 387 N 41.3868 0.248026 -1.55636 0
M  V30 388 C 42.8028 0.596483 -1.48035 0
M  V30 389 C 43.0028 1.88386 -0.715039 0
M  V30 390 O 42.0588 2.51319 -0.243944 0
M  V30 391 C 43.3718 0.700258 -2.92433 0
M  V30 392 C 44.9198 0.792659 -3.02797 0
M  V30 393 C 45.3948 0.928005 -4.485 0
M  V30 394 N 46.8858 0.992903 -4.52433 0
M  V30 395 C 47.6208 1.11687 -5.62418 0
M  V30 396 N 47.1168 1.20645 -6.82214 0
M  V30 397 N 48.9098 1.14994 -5.50212 0
M  V30 398 H 41.0608 -0.597109 -2.03834 0
M  V30 399 H 43.3238 -0.205925 -0.925364 0
M  V30 400 H 43.0298 -0.175658 -3.51261 0
M  V30 401 H 42.9038 1.57255 -3.42857 0
M  V30 402 H 45.2908 1.65903 -2.4405 0
M  V30 403 H 45.3718 -0.104762 -2.55585 0
M  V30 404 H 45.0158 0.0661971 -5.07857 0
M  V30 405 H 44.9458 1.84045 -4.93391 0
M  V30 406 H 47.4368 0.935064 -3.66149 0
M  V30 407 H 47.7498 1.30008 -7.61786 0
M  V30 408 H 46.0948 1.17605 -6.84977 0
M  V30 409 H 49.2858 1.07643 -4.55555 0
M  V30 410 H 49.4588 1.24311 -6.35965 0
M  V30 411 N 42.8649 1.48995 0.513639 0
M  V30 412 C 43.7749 1.67443 1.64317 0
M  V30 413 C 44.7909 0.556947 1.64846 0
M  V30 414 O 45.9669 0.830082 1.83498 0
M  V30 415 C 43.0319 1.72515 3.00732 0
M  V30 416 C 42.0929 2.96009 3.1093 0
M  V30 417 C 41.3259 3.00829 4.40837 0
M  V30 418 O 41.5489 2.13594 5.28898 0
M  V30 419 O 40.4829 3.93168 4.55744 0
M  V30 420 H 44.3089 2.63106 1.51687 0
M  V30 421 H 41.8939 1.32588 0.688543 0
M  V30 422 H 43.7759 1.78277 3.81831 0
M  V30 423 H 42.4509 0.800278 3.13651 0
M  V30 424 H 41.3579 2.9577 2.29065 0
M  V30 425 H 42.6909 3.87934 3.02933 0
M  V30 426 N 44.343 -0.763751 1.37857 0
M  V30 427 C 45.589 -1.52483 1.33704 0
M  V30 428 C 45.922 -1.94051 -0.0759612 0
M  V30 429 O 45.197 -1.64675 -1.03501 0
M  V30 430 C 45.48 -2.78441 2.28348 0
M  V30 431 C 45.333 -2.43075 3.78463 0
M  V30 432 C 46.652 -3.80415 2.21298 0
M  V30 433 H 43.771 -0.553169 0.487005 0
M  V30 434 H 46.413 -0.875562 1.68624 0
M  V30 435 H 44.563 -3.33842 1.987 0
M  V30 436 H 46.235 -1.93527 4.18742 0
M  V30 437 H 44.478 -1.75666 3.96641 0
M  V30 438 H 45.149 -3.33149 4.40132 0
M  V30 439 H 47.625 -3.34527 2.47449 0
M  V30 440 H 46.501 -4.66257 2.89647 0
M  V30 441 H 46.762 -4.25262 1.20849 0
M  V30 442 N 45.8211 -1.22559 -0.990812 0
M  V30 443 C 47.0461 -1.07862 -1.77145 0
M  V30 444 C 47.4711 0.366447 -1.84496 0
M  V30 445 O 46.8291 1.26478 -1.29896 0
M  V30 446 C 46.8771 -1.69686 -3.18181 0
M  V30 447 O 45.9811 -0.951946 -4.01263 0
M  V30 448 H 45.3221 -0.378712 -0.545411 0
M  V30 449 H 47.8521 -1.62399 -1.2445 0
M  V30 450 H 47.8621 -1.74496 -3.68802 0
M  V30 451 H 46.5371 -2.74841 -3.12146 0
M  V30 452 H 45.1141 -0.980011 -3.59792 0
M  V30 453 N 47.2992 1.18797 -1.03562 0
M  V30 454 C 48.5272 1.92599 -0.755869 0
M  V30 455 C 48.9422 1.75886 0.686271 0
M  V30 456 O 48.2992 1.08517 1.46732 0
M  V30 457 C 48.3502 3.44159 -1.10619 0
M  V30 458 O 48.0712 3.60341 -2.4917 0
M  V30 459 C 49.5722 4.3507 -0.850214 0
M  V30 460 H 46.7922 0.611587 -0.276048 0
M  V30 461 H 49.3362 1.50742 -1.38192 0
M  V30 462 H 47.4912 3.83823 -0.525194 0
M  V30 463 H 47.9052 4.54128 -2.62427 0
M  V30 464 H 49.3792 5.39989 -1.14523 0
M  V30 465 H 49.8562 4.38673 0.215176 0
M  V30 466 H 50.4622 4.01097 -1.41426 0
M  V30 467 N 48.7773 0.814389 1.34928 0
M  V30 468 C 50.0253 0.397636 1.9815 0
M  V30 469 C 50.3463 -1.04069 1.64908 0
M  V30 470 O 49.6163 -1.72121 0.93548 0
M  V30 471 H 48.1963 0.144043 0.732981 0
M  V30 472 H 50.8583 1.04195 1.6471 0
M  V30 473 H 49.9543 0.509688 3.0791 0
M  V30 474 N 50.2554 -1.46986 0.568584 0
M  V30 475 C 51.4834 -2.0683 0.0539956 0
M  V30 476 C 51.8984 -1.41953 -1.24478 0
M  V30 477 O 51.2554 -0.519933 -1.74937 0
M  V30 478 C 51.3064 -3.61254 -0.133362 0
M  V30 479 O 51.0274 -4.237 1.11399 0
M  V30 480 C 52.5284 -4.37992 -0.683927 0
M  V30 481 H 49.7484 -0.669058 0.0510141 0
M  V30 482 H 52.2924 -1.88824 0.785234 0
M  V30 483 H 50.4474 -3.78735 -0.81477 0
M  V30 484 H 50.8614 -5.16388 0.91888 0
M  V30 485 H 52.3354 -5.46684 -0.764263 0
M  V30 486 H 52.8124 -4.05058 -1.69778 0
M  V30 487 H 53.4184 -4.25283 -0.0378494 0
M  V30 488 N 51.7335 -0.305618 -1.54608 0
M  V30 489 C 52.9615 0.304775 -2.04643 0
M  V30 490 C 53.3765 1.47167 -1.18268 0
M  V30 491 O 52.7335 1.81296 -0.209328 0
M  V30 492 C 52.7845 0.756564 -3.53495 0
M  V30 493 O 52.5055 -0.36389 -4.36586 0
M  V30 494 C 54.0065 1.43163 -4.19546 0
M  V30 495 H 51.2265 0.0655481 -0.667791 0
M  V30 496 H 53.7705 -0.446592 -1.99564 0
M  V30 497 H 51.9255 1.45794 -3.58919 0
M  V30 498 H 52.3395 -0.0113121 -5.24499 0
M  V30 499 H 53.8135 1.69886 -5.25207 0
M  V30 500 H 54.2905 2.37318 -3.69563 0
M  V30 501 H 54.8965 0.773307 -4.18211 0
M  V30 502 N 53.2116 1.57565 -0.0334293 0
M  V30 503 C 54.4606 1.91155 0.643639 0
M  V30 504 C 54.7736 0.91192 1.73042 0
M  V30 505 O 55.9796 1.13923 2.46442 0
M  V30 506 C 54.4356 3.39443 1.1961 0
M  V30 507 C 54.0436 4.47774 0.142381 0
M  V30 508 C 55.7876 3.82094 1.84944 0
M  V30 509 C 53.6946 5.87162 0.706727 0
M  V30 510 H 52.6246 0.713368 0.244176 0
M  V30 511 H 55.2756 1.8323 -0.0994323 0
M  V30 512 H 53.6576 3.42313 1.99092 0
M  V30 513 H 54.8316 4.56469 -0.630296 0
M  V30 514 H 53.1466 4.14352 -0.412446 0
M  V30 515 H 55.7436 4.83591 2.2813 0
M  V30 516 H 56.0866 3.17386 2.69392 0
M  V30 517 H 56.6196 3.81665 1.12145 0
M  V30 518 H 53.3586 6.55424 -0.0997178 0
M  V30 519 H 52.8786 5.82064 1.44779 0
M  V30 520 H 54.5576 6.35866 1.19514 0
M  V30 521 N 54.6897 -0.239769 1.55765 0
M  V30 522 C 55.6227 -1.32356 1.85895 0
M  V30 523 C 56.6007 -1.46053 0.714662 0
M  V30 524 O 57.7847 -1.62154 0.961157 0
M  V30 525 C 54.9117 -2.6962 2.04994 0
M  V30 526 C 53.9577 -2.73036 3.27648 0
M  V30 527 S 54.7907 -2.28929 4.84099 0
M  V30 528 C 55.9467 -3.68103 5.06212 0
M  V30 529 H 56.1797 -1.06601 2.77531 0
M  V30 530 H 53.7127 -0.441112 1.47965 0
M  V30 531 H 55.6707 -3.48653 2.16682 0
M  V30 532 H 54.3317 -2.92609 1.14188 0
M  V30 533 H 53.5247 -3.7386 3.38 0
M  V30 534 H 53.1267 -2.02052 3.14723 0
M  V30 535 H 55.4187 -4.63656 4.93993 0
M  V30 536 H 56.3617 -3.6268 6.08168 0
M  V30 537 H 56.7697 -3.60947 4.34025 0
M  V30 538 N 56.1678 -1.49265 -0.50573 0
M  V30 539 C 57.1308 -1.65075 -1.59006 0
M  V30 540 C 58.1308 -0.522768 -1.52065 0
M  V30 541 O 59.3208 -0.789117 -1.55302 0
M  V30 542 C 56.4528 -1.64369 -2.98656 0
M  V30 543 H 57.6458 -2.61784 -1.46319 0
M  V30 544 H 55.1988 -1.38226 -0.729616 0
M  V30 545 H 55.9338 -0.692272 -3.16825 0
M  V30 546 H 55.7188 -2.46282 -3.05103 0
M  V30 547 H 57.2088 -1.78674 -3.77446 0
M  V30 548 N 57.6459 0.756429 -1.3826 0
M  V30 549 C 58.8919 1.51772 -1.34511 0
M  V30 550 C 59.2249 1.94089 0.0656691 0
M  V30 551 O 58.4999 1.65221 1.02626 0
M  V30 552 C 58.7829 2.77226 -2.29821 0
M  V30 553 C 58.6359 2.41065 -3.79747 0
M  V30 554 C 59.9549 3.79236 -2.23312 0
M  V30 555 H 57.0739 0.550578 -0.489931 0
M  V30 556 H 59.7159 0.866607 -1.69086 0
M  V30 557 H 57.8659 3.32784 -2.00467 0
M  V30 558 H 59.5379 1.91303 -4.19763 0
M  V30 559 H 57.7809 1.7356 -3.97567 0
M  V30 560 H 58.4519 3.3081 -4.41892 0
M  V30 561 H 60.9279 3.3321 -2.49219 0
M  V30 562 H 59.8039 4.64714 -2.92116 0
M  V30 563 H 60.0649 4.24615 -1.23102 0
M  V30 564 N 59.124 1.23083 0.984299 0
M  V30 565 C 60.056 0.96636 2.07832 0
M  V30 566 C 61.069 -0.0582135 1.62696 0
M  V30 567 O 62.258 0.176843 1.77622 0
M  V30 568 C 59.358 0.433397 3.36117 0
M  V30 569 C 58.531 1.51722 4.10243 0
M  V30 570 C 57.59 0.989821 5.16807 0
M  V30 571 O 56.616 1.67794 5.43906 0
M  V30 572 N 57.818 -0.184367 5.80207 0
M  V30 573 H 60.583 1.90824 2.31098 0
M  V30 574 H 58.144 1.13888 1.1507 0
M  V30 575 H 60.136 0.065699 4.04647 0
M  V30 576 H 58.706 -0.413806 3.09849 0
M  V30 577 H 57.926 2.05786 3.36223 0
M  V30 578 H 59.214 2.24619 4.56534 0
M  V30 579 H 58.612 -0.760062 5.60571 0
M  V30 580 H 57.169 -0.493366 6.4993 0
M  V30 581 N 60.6021 -1.18246 1.0419 0
M  V30 582 C 61.8491 -1.88257 0.746017 0
M  V30 583 C 62.1771 -1.80429 -0.726331 0
M  V30 584 O 61.4321 -1.2 -1.54591 0
M  V30 585 C 61.7311 -3.38082 1.15911 0
M  V30 586 C 61.3971 -3.66114 2.63195 0
M  V30 587 C 60.0591 -3.73474 3.03432 0
M  V30 588 C 62.4111 -3.78398 3.5842 0
M  V30 589 C 59.7391 -3.90599 4.37778 0
M  V30 590 C 62.0911 -3.97039 4.92487 0
M  V30 591 C 60.7551 -4.02635 5.32392 0
M  V30 592 H 60.0251 -0.688883 0.272987 0
M  V30 593 H 62.6721 -1.3995 1.30715 0
M  V30 594 H 60.9771 -3.88377 0.516806 0
M  V30 595 H 62.6741 -3.90596 0.907516 0
M  V30 596 H 59.2641 -3.61003 2.3103 0
M  V30 597 H 63.4481 -3.72042 3.28479 0
M  V30 598 H 58.7041 -3.93175 4.68213 0
M  V30 599 H 62.8781 -4.05486 5.66175 0
M  V30 600 H 60.5051 -4.15657 6.36501 0
M  V30 601 N 62.0802 -0.821533 -1.34494 0
M  V30 602 C 63.3572 -0.33159 -1.92769 0
M  V30 603 C 63.7372 1.18088 -1.74981 0
M  V30 604 O 63.0852 1.98733 -1.12772 0
M  V30 605 C 63.2952 -0.759398 -3.40638 0
M  V30 606 C 64.6432 -0.757433 -4.1779 0
M  V30 607 O 65.6672 -0.70189 -3.49216 0
M  V30 608 O 64.5262 -0.829361 -5.4017 0
M  V30 609 H 61.6202 -0.0902502 -0.822061 0
M  V30 610 H 64.1662 -0.906231 -1.43477 0
M  V30 611 H 62.9382 -1.8012 -3.47379 0
M  V30 612 H 62.5612 -0.160378 -3.97276 0
M  V30 613 N 63.5583 1.46682 -0.576371 0
M  V30 614 C 64.8063 2.02013 -0.0594163 0
M  V30 615 C 65.1273 1.45101 1.30271 0
M  V30 616 O 64.3973 0.633317 1.8538 0
M  V30 617 H 62.9773 0.746759 -0.0189745 0
M  V30 618 H 65.6393 1.79862 -0.750717 0
M  V30 619 H 64.7353 3.12097 0.014345 0
M  V30 620 N 65.0364 0.313813 1.54444 0
M  V30 621 C 66.2844 -0.291099 1.99993 0
M  V30 622 C 66.6054 -1.53418 1.20366 0
M  V30 623 O 65.8754 -1.93544 0.302927 0
M  V30 624 H 64.4554 -0.110552 0.738774 0
M  V30 625 H 67.1174 0.428106 1.9014 0
M  V30 626 H 66.2134 -0.554268 3.07139 0
M  V30 627 N 66.5145 -1.57545 0.0417849 0
M  V30 628 C 67.7605 -1.92601 -0.635021 0
M  V30 629 C 68.0935 -0.919627 -1.71045 0
M  V30 630 O 67.3685 0.0557892 -1.9442 0
M  V30 631 C 67.6515 -3.38085 -1.23979 0
M  V30 632 C 67.5045 -4.49467 -0.173057 0
M  V30 633 C 68.8235 -3.83776 -2.15416 0
M  V30 634 H 65.9425 -0.700397 -0.229374 0
M  V30 635 H 68.5845 -1.89728 0.101633 0
M  V30 636 H 66.7345 -3.40664 -1.86762 0
M  V30 637 H 68.4065 -4.59018 0.458312 0
M  V30 638 H 66.6495 -4.30909 0.499996 0
M  V30 639 H 67.3205 -5.48323 -0.636054 0
M  V30 640 H 69.7965 -3.83013 -1.62605 0
M  V30 641 H 68.6725 -4.8624 -2.54679 0
M  V30 642 H 68.9335 -3.19998 -3.05047 0
M  V30 643 N 67.9926 0.231505 -1.5589 0
M  V30 644 C 69.2386 0.95877 -1.78705 0
M  V30 645 C 69.5716 1.8438 -0.609725 0
M  V30 646 O 68.8466 1.90521 0.391426 0
M  V30 647 C 69.1296 1.8062 -3.11526 0
M  V30 648 C 68.9826 0.948328 -4.39689 0
M  V30 649 C 70.3016 2.78585 -3.40703 0
M  V30 650 H 67.4206 0.347129 -0.650131 0
M  V30 651 H 70.0626 0.228259 -1.88624 0
M  V30 652 H 68.2126 2.42902 -3.03201 0
M  V30 653 H 69.8846 0.343016 -4.60023 0
M  V30 654 H 68.1276 0.253314 -4.3306 0
M  V30 655 H 68.7986 1.57543 -5.29041 0
M  V30 656 H 71.2746 2.26439 -3.49091 0
M  V30 657 H 70.1506 3.34988 -4.34826 0
M  V30 658 H 70.4116 3.55825 -2.62375 0
M  V30 659 N 69.4707 1.49531 0.497807 0
M  V30 660 C 70.4007 1.6935 1.60757 0
M  V30 661 C 71.3817 0.542218 1.61227 0
M  V30 662 O 72.5667 0.778417 1.77917 0
M  V30 663 C 69.6967 1.76298 2.99226 0
M  V30 664 C 68.6507 2.91248 3.13622 0
M  V30 665 C 67.9767 2.83312 4.53474 0
M  V30 666 C 69.2767 4.3214 2.93346 0
M  V30 667 H 70.9707 2.62263 1.44425 0
M  V30 668 H 68.5167 1.26208 0.693367 0
M  V30 669 H 70.4697 1.88749 3.76765 0
M  V30 670 H 69.1937 0.799871 3.16654 0
M  V30 671 H 67.8527 2.78404 2.38509 0
M  V30 672 H 67.5007 1.84902 4.67782 0
M  V30 673 H 67.2007 3.60465 4.64046 0
M  V30 674 H 68.7247 2.97775 5.33069 0
M  V30 675 H 70.1387 4.45649 3.60652 0
M  V30 676 H 68.5357 5.1054 3.15387 0
M  V30 677 H 69.6057 4.46363 1.89441 0
M  V30 678 N 70.9488 -0.749086 1.3866 0
M  V30 679 C 72.1968 -1.50535 1.34847 0
M  V30 680 C 72.5178 -1.94909 -0.0595016 0
M  V30 681 O 71.7878 -1.67973 -1.00806 0
M  V30 682 H 70.3678 -0.558395 0.49619 0
M  V30 683 H 73.0298 -0.890165 1.73384 0
M  V30 684 H 72.1258 -2.39413 2.00219 0
M  V30 685 N 72.4269 -1.23603 -0.977757 0
M  V30 686 C 73.3899 -1.02069 -2.05218 0
M  V30 687 C 74.3899 0.0184305 -1.60789 0
M  V30 688 O 75.5799 -0.221569 -1.72785 0
M  V30 689 C 72.7119 -0.544926 -3.36517 0
M  V30 690 H 73.9049 -1.9742 -2.25755 0
M  V30 691 H 71.4579 -1.05684 -1.15155 0
M  V30 692 H 72.1929 0.412241 -3.21669 0
M  V30 693 H 71.9779 -1.2948 -3.70105 0
M  V30 694 H 73.4679 -0.414985 -4.15533 0
M  V30 695 N 73.905 1.17692 -1.04816 0
M  V30 696 C 75.182 1.83768 -0.669963 0
M  V30 697 C 75.562 1.93232 0.849986 0
M  V30 698 O 74.91 1.46397 1.75443 0
M  V30 699 C 75.12 3.21641 -1.35455 0
M  V30 700 C 76.468 3.97592 -1.49017 0
M  V30 701 O 77.492 3.31107 -1.31326 0
M  V30 702 O 76.351 5.16729 -1.77914 0
M  V30 703 H 73.445 0.792799 -0.235368 0
M  V30 704 H 75.991 1.25021 -1.14751 0
M  V30 705 H 74.763 3.097 -2.39168 0
M  V30 706 H 74.386 3.88052 -0.866107 0
M  V30 707 N 75.3831 0.828654 1.34056 0
M  V30 708 C 76.6081 0.431637 2.02859 0
M  V30 709 C 77.0331 -0.956339 1.61975 0
M  V30 710 O 76.3911 -1.62338 0.807228 0
M  V30 711 C 76.4391 0.548323 3.56407 0
M  V30 712 O 75.5431 -0.429556 4.10157 0
M  V30 713 H 74.8841 0.176886 0.640006 0
M  V30 714 H 77.4141 1.12066 1.71179 0
M  V30 715 H 77.4241 0.426196 4.05768 0
M  V30 716 H 76.0991 1.5606 3.8551 0
M  V30 717 H 74.6761 -0.265836 3.71951 0
M  V30 718 N 76.8612 -1.46375 0.584142 0
M  V30 719 C 78.2772 -1.57694 0.245929 0
M  V30 720 C 78.4772 -1.57903 -1.25175 0
M  V30 721 O 77.5332 -1.49676 -2.03355 0
M  V30 722 C 78.8462 -2.87028 0.896402 0
M  V30 723 C 80.3942 -3.00662 0.870127 0
M  V30 724 C 80.8692 -4.32734 1.50017 0
M  V30 725 N 82.3602 -4.39436 1.46458 0
M  V30 726 C 83.0952 -5.40248 1.92144 0
M  V30 727 N 82.5912 -6.47726 2.4581 0
M  V30 728 N 84.3842 -5.31459 1.83052 0
M  V30 729 H 76.5352 -1.44483 1.55687 0
M  V30 730 H 78.7982 -0.689291 0.650831 0
M  V30 731 H 78.5042 -2.9269 1.95002 0
M  V30 732 H 78.3782 -3.75014 0.405486 0
M  V30 733 H 80.7652 -2.94581 -0.174871 0
M  V30 734 H 80.8462 -2.14148 1.39908 0
M  V30 735 H 80.4902 -4.39573 2.54437 0
M  V30 736 H 80.4202 -5.18025 0.946432 0
M  V30 737 H 82.9112 -3.62367 1.07231 0
M  V30 738 H 83.2242 -7.20863 2.78525 0
M  V30 739 H 81.5692 -6.48542 2.49836 0
M  V30 740 H 84.7602 -4.46396 1.40883 0
M  V30 741 H 84.9332 -6.09881 2.18973 0
M  V30 742 N 78.3393 -0.321999 -1.54275 0
M  V30 743 C 79.5673 0.283052 -2.04955 0
M  V30 744 C 79.9823 1.45904 -1.19823 0
M  V30 745 O 79.3393 1.81063 -0.228545 0
M  V30 746 C 79.3903 0.719028 -3.54277 0
M  V30 747 O 79.1113 -0.410175 -4.36176 0
M  V30 748 C 80.6123 1.38705 -4.21041 0
M  V30 749 H 77.8323 0.0584616 -0.668448 0
M  V30 750 H 80.3763 -0.467734 -1.99079 0
M  V30 751 H 78.5313 1.41979 -3.60445 0
M  V30 752 H 78.9453 -0.0669416 -5.24457 0
M  V30 753 H 80.4193 1.64306 -5.2698 0
M  V30 754 H 80.8963 2.33385 -3.72059 0
M  V30 755 H 81.5023 0.728906 -4.19007 0
M  V30 756 N 79.8174 1.5752 -0.0501392 0
M  V30 757 C 81.0454 1.96963 0.633492 0
M  V30 758 C 81.4604 0.927631 1.6444 0
M  V30 759 O 80.8174 -0.0882665 1.82286 0
M  V30 760 C 80.8684 3.36487 1.32132 0
M  V30 761 O 80.5894 4.36693 0.350894 0
M  V30 762 C 82.0904 3.90682 2.09481 0
M  V30 763 H 79.3104 0.648244 0.173266 0
M  V30 764 H 81.8544 2.0417 -0.116134 0
M  V30 765 H 80.0094 3.30434 2.02218 0
M  V30 766 H 80.4234 5.17702 0.841735 0
M  V30 767 H 81.8974 4.90591 2.5303 0
M  V30 768 H 82.3744 3.26053 2.94255 0
M  V30 769 H 82.9804 4.00069 1.44307 0
M  V30 770 N 81.2955 -0.223234 1.56011 0
M  V30 771 C 82.5235 -0.964812 1.83027 0
M  V30 772 C 82.9385 -1.78013 0.62904 0
M  V30 773 O 82.2955 -1.78008 -0.402414 0
M  V30 774 C 82.3465 -1.88373 3.08542 0
M  V30 775 O 82.0675 -1.10137 4.2403 0
M  V30 776 C 83.5685 -2.73934 3.48533 0
M  V30 777 H 80.7885 -0.282842 0.608475 0
M  V30 778 H 83.3325 -0.238971 2.03099 0
M  V30 779 H 81.4875 -2.56354 2.9045 0
M  V30 780 H 81.9015 -1.72501 4.95322 0
M  V30 781 H 83.3755 -3.34117 4.39397 0
M  V30 782 H 83.8525 -3.46244 2.70207 0
M  V30 783 H 84.4585 -2.11369 3.69057 0
M  V30 784 N 82.7736 -1.49793 -0.48987 0
M  V30 785 C 84.0216 -1.59525 -1.24081 0
M  V30 786 C 84.3426 -0.288953 -1.92847 0
M  V30 787 O 83.6126 0.692436 -1.83254 0
M  V30 788 H 82.1926 -0.587796 -0.460983 0
M  V30 789 H 84.8546 -1.86477 -0.566778 0
M  V30 790 H 83.9506 -2.39696 -1.99881 0
M  V30 791 N 84.2517 0.741722 -1.39055 0
M  V30 792 C 85.4767 1.53607 -1.39354 0
M  V30 793 C 85.9017 1.88096 0.0116905 0
M  V30 794 O 85.2597 1.5143 0.996924 0
M  V30 795 C 85.3077 2.80441 -2.26682 0
M  V30 796 O 84.4117 3.76088 -1.69208 0
M  V30 797 H 83.7527 0.464142 -0.474835 0
M  V30 798 H 86.2827 0.915665 -1.82967 0
M  V30 799 H 86.2927 3.29246 -2.40959 0
M  V30 800 H 84.9677 2.5467 -3.2881 0
M  V30 801 H 83.5447 3.34833 -1.64138 0
M  V30 802 N 85.7298 1.2412 0.971189 0
M  V30 803 C 86.9598 1.10415 1.7462 0
M  V30 804 C 87.3678 -0.346462 1.86001 0
M  V30 805 O 86.7108 -1.25104 1.34517 0
M  V30 806 C 86.7728 1.66596 3.18568 0
M  V30 807 C 86.4368 3.15446 3.3067 0
M  V30 808 C 87.4338 4.12636 3.16271 0
M  V30 809 C 85.1188 3.55337 3.55022 0
M  V30 810 C 87.1128 5.47699 3.26044 0
M  V30 811 C 84.7998 4.90542 3.64434 0
M  V30 812 C 85.7978 5.86532 3.49956 0
M  V30 813 O 85.4858 7.19279 3.59017 0
M  V30 814 H 85.2178 0.386616 0.55453 0
M  V30 815 H 87.7718 1.64633 1.22821 0
M  V30 816 H 86.0018 1.06808 3.71657 0
M  V30 817 H 87.6908 1.48232 3.77865 0
M  V30 818 H 88.4568 3.8316 2.97344 0
M  V30 819 H 84.3358 2.8113 3.65359 0
M  V30 820 H 87.8798 6.22603 3.14661 0
M  V30 821 H 83.7768 5.19691 3.82873 0
M  V30 822 H 84.5448 7.27153 3.75754 0
M  V30 823 N 87.2079 -1.17134 1.05439 0
M  V30 824 C 88.4569 -1.86791 0.761049 0
M  V30 825 C 88.7699 -1.82072 -0.714795 0
M  V30 826 O 89.9759 -2.47223 -1.12218 0
M  V30 827 C 88.4319 -3.35166 1.31117 0
M  V30 828 C 88.0399 -3.48381 2.81664 0
M  V30 829 C 89.7839 -4.10134 1.09499 0
M  V30 830 C 87.6909 -4.90793 3.29964 0
M  V30 831 H 86.6209 -0.699681 0.281002 0
M  V30 832 H 89.2719 -1.3226 1.27199 0
M  V30 833 H 87.6539 -3.8925 0.72803 0
M  V30 834 H 88.8279 -3.04502 3.45855 0
M  V30 835 H 87.1429 -2.86836 3.01851 0
M  V30 836 H 89.7399 -5.152 1.43084 0
M  V30 837 H 90.0829 -4.16287 0.0328772 0
M  V30 838 H 90.6159 -3.62264 1.64346 0
M  V30 839 H 87.3549 -4.89816 4.35616 0
M  V30 840 H 86.8749 -5.35333 2.70516 0
M  V30 841 H 88.5539 -5.59573 3.24787 0
M  V30 842 N 88.686 -0.835752 -1.33615 0
M  V30 843 C 89.649 -0.272 -2.2758 0
M  V30 844 C 90.649 0.557487 -1.50827 0
M  V30 845 O 91.839 0.37173 -1.70188 0
M  V30 846 C 88.971 0.617173 -3.35267 0
M  V30 847 H 90.164 -1.10111 -2.78954 0
M  V30 848 H 87.717 -0.608594 -1.43965 0
M  V30 849 H 88.452 1.46884 -2.89129 0
M  V30 850 H 88.237 0.0237066 -3.92093 0
M  V30 851 H 89.727 1.005 -4.05326 0
M  V30 852 N 90.1641 1.46063 -0.591896 0
M  V30 853 C 91.1121 2.32124 0.148739 0
M  V30 854 C 92.1061 1.45035 0.875286 0
M  V30 855 O 93.3121 1.61609 0.792632 0
M  V30 856 H 89.6871 0.749024 0.066832 0
M  V30 857 H 91.6581 2.92392 -0.595783 0
M  V30 858 C 90.4071 3.28373 1.1431 0
M  V30 859 H 89.7301 3.95371 0.59346 0
M  V30 860 H 91.1701 3.91352 1.63155 0
M  V30 861 C 89.6291 2.54393 2.20875 0
M  V30 862 O 90.1591 2.31373 3.28374 0
M  V30 863 N 88.3651 2.14797 1.95731 0
M  V30 864 H 87.9121 2.33719 1.08319 0
M  V30 865 H 87.8701 1.65619 2.67241 0
M  V30 866 N 91.6422 0.330177 1.54103 0
M  V30 867 C 93.0582 -0.0222371 1.59585 0
M  V30 868 C 93.2582 -1.49902 1.34654 0
M  V30 869 O 92.3142 -2.25592 1.13421 0
M  V30 870 C 93.6272 0.401932 2.98002 0
M  V30 871 C 95.1752 0.353145 3.11001 0
M  V30 872 C 95.6502 0.752576 4.51775 0
M  V30 873 N 97.1412 0.706239 4.57784 0
M  V30 874 C 97.8762 0.987417 5.64834 0
M  V30 875 N 97.3722 1.33607 6.79795 0
M  V30 876 N 99.1652 0.91254 5.54643 0
M  V30 877 H 91.3162 1.29228 1.68564 0
M  V30 878 H 93.5792 0.525906 0.78875 0
M  V30 879 H 93.2852 1.4311 3.21267 0
M  V30 880 H 93.1592 -0.229699 3.765 0
M  V30 881 H 95.5462 -0.666822 2.87467 0
M  V30 882 H 95.6272 1.0198 2.34593 0
M  V30 883 H 95.2712 1.77049 4.76042 0
M  V30 884 H 95.2012 0.0635409 5.26562 0
M  V30 885 H 97.6922 0.44889 3.75224 0
M  V30 886 H 98.0052 1.53582 7.57385 0
M  V30 887 H 96.3502 1.37439 6.81275 0
M  V30 888 H 99.5412 0.639601 4.6371 0
M  V30 889 H 99.7142 1.13503 6.37982 0
M  V30 890 N 93.1203 -1.57491 0.0584922 0
M  V30 891 C 94.3663 -1.93264 -0.614558 0
M  V30 892 C 94.6993 -0.937717 -1.7006 0
M  V30 893 O 93.9743 0.0351652 -1.94468 0
M  V30 894 C 94.2573 -3.3938 -1.20386 0
M  V30 895 C 94.1103 -4.49625 -0.125375 0
M  V30 896 C 95.4293 -3.86039 -2.11334 0
M  V30 897 H 92.5483 -0.702791 -0.221933 0
M  V30 898 H 95.1903 -1.8961 0.12175 0
M  V30 899 H 93.3403 -3.42626 -1.83139 0
M  V30 900 H 95.0123 -4.58506 0.506971 0
M  V30 901 H 93.2553 -4.30354 0.545672 0
M  V30 902 H 93.9263 -5.48967 -0.577861 0
M  V30 903 H 96.4023 -3.84716 -1.58534 0
M  V30 904 H 95.2783 -4.88914 -2.49507 0
M  V30 905 H 95.5393 -3.23215 -3.01636 0
M  V30 906 N 94.5984 0.214957 -1.56127 0
M  V30 907 C 95.8264 0.955092 -1.83536 0
M  V30 908 C 96.2414 1.77677 -0.638472 0
M  V30 909 O 95.5984 1.78219 0.392968 0
M  V30 910 C 95.6494 1.86734 -3.09536 0
M  V30 911 O 95.3704 1.07887 -4.24608 0
M  V30 912 C 96.8714 2.72082 -3.4998 0
M  V30 913 H 94.0914 0.279611 -0.609966 0
M  V30 914 H 96.6354 0.228197 -2.03223 0
M  V30 915 H 94.7904 2.5481 -2.91806 0
M  V30 916 H 95.2044 1.69872 -4.9623 0
M  V30 917 H 96.6784 3.31782 -4.41163 0
M  V30 918 H 97.1554 3.44806 -2.7204 0
M  V30 919 H 97.7614 2.09409 -3.70173 0
M  V30 920 N 96.0765 1.50051 0.48192 0
M  V30 921 C 97.3535 1.51009 1.2432 0
M  V30 922 C 97.7335 0.248587 2.09631 0
M  V30 923 O 97.0815 -0.768409 2.15192 0
M  V30 924 C 97.2915 2.79981 2.08355 0
M  V30 925 C 98.6395 3.3022 2.66908 0
M  V30 926 O 99.6635 2.81228 2.18607 0
M  V30 927 O 98.5225 4.15595 3.54884 0
M  V30 928 H 95.6165 0.605239 0.563573 0
M  V30 929 H 98.1625 1.62332 0.494627 0
M  V30 930 H 96.9345 3.63275 1.45419 0
M  V30 931 H 96.5575 2.7161 2.90368 0
M  V30 932 N 97.5546 -0.734337 1.39446 0
M  V30 933 C 98.5016 -1.84835 1.38219 0
M  V30 934 C 99.4716 -1.64331 0.24179 0
M  V30 935 O 100.657 -1.85728 0.437002 0
M  V30 936 C 97.7966 -3.22355 1.23212 0
M  V30 937 C 96.9096 -3.5456 2.46801 0
M  V30 938 C 96.0446 -4.81485 2.24377 0
M  V30 939 C 95.0836 -5.06536 3.43639 0
M  V30 940 N 94.2206 -6.24665 3.20528 0
M  V30 941 H 99.0606 -1.85219 2.33448 0
M  V30 942 H 96.5976 -0.905039 1.15963 0
M  V30 943 H 98.5556 -4.0174 1.12522 0
M  V30 944 H 97.1856 -3.21248 0.316121 0
M  V30 945 H 96.2376 -2.69872 2.68092 0
M  V30 946 H 97.5496 -3.6899 3.3563 0
M  V30 947 H 96.7036 -5.68852 2.10933 0
M  V30 948 H 95.4426 -4.6923 1.32944 0
M  V30 949 H 94.4476 -4.17632 3.5758 0
M  V30 950 H 95.6726 -5.20676 4.35974 0
M  V30 951 H 93.6186 -6.13696 2.3176 0
M  V30 952 H 93.5356 -6.39685 4.02913 0
M  V30 953 H 94.8036 -7.14868 3.10779 0
M  V30 954 N 99.0327 -1.24633 -0.964593 0
M  V30 955 C 99.9627 -1.06611 -2.07741 0
M  V30 956 C 100.944 0.0218666 -1.70086 0
M  V30 957 O 102.129 -0.145793 -1.93652 0
M  V30 958 C 99.2587 -0.673444 -3.40708 0
M  V30 959 C 98.2127 -1.71054 -3.92332 0
M  V30 960 C 97.5387 -1.17285 -5.21678 0
M  V30 961 C 98.8387 -3.10718 -4.19824 0
M  V30 962 H 100.533 -1.99693 -2.23076 0
M  V30 963 H 98.0787 -0.96152 -1.07195 0
M  V30 964 H 100.032 -0.534345 -4.17998 0
M  V30 965 H 98.7557 0.293073 -3.25282 0
M  V30 966 H 97.4147 -1.83791 -3.17201 0
M  V30 967 H 97.0627 -0.196847 -5.02615 0
M  V30 968 H 96.7627 -1.86592 -5.57187 0
M  V30 969 H 98.2867 -1.04593 -6.01575 0
M  V30 970 H 99.7007 -3.01192 -4.87808 0
M  V30 971 H 98.0977 -3.77406 -4.66567 0
M  V30 972 H 99.1677 -3.58524 -3.26479 0
M  V30 973 N 100.511 1.16574 -1.06058 0
M  V30 974 C 101.739 1.90952 -0.796552 0
M  V30 975 C 102.154 1.77302 0.648808 0
M  V30 976 O 101.511 1.11605 1.44397 0
M  V30 977 C 101.562 3.41736 -1.17894 0
M  V30 978 O 101.283 3.54975 -2.56758 0
M  V30 979 C 102.784 4.33169 -0.942308 0
M  V30 980 H 100.004 0.605594 -0.288959 0
M  V30 981 H 102.548 1.47777 -1.41358 0
M  V30 982 H 100.703 3.82623 -0.606491 0
M  V30 983 H 101.117 4.4846 -2.72 0
M  V30 984 H 102.591 5.37439 -1.25952 0
M  V30 985 H 103.068 4.3903 0.122078 0
M  V30 986 H 103.674 3.98007 -1.49902 0
M  V30 987 N 101.989 0.842826 1.3317 0
M  V30 988 C 103.4 0.496651 1.79973 0
M  V30 989 C 103.751 -0.984641 1.69703 0
M  V30 990 O 102.876 -1.76743 1.24863 0
M  V30 991 C 103.471 0.894727 3.26772 0
M  V30 992 C 102.03 0.600629 3.71577 0
M  V30 993 C 101.177 1.10091 2.5451 0
M  V30 994 H 104.128 1.03116 1.20635 0
M  V30 995 H 104.149 0.206347 3.7994 0
M  V30 996 H 103.661 1.97287 3.34215 0
M  V30 997 H 101.762 -0.467284 3.69658 0
M  V30 998 H 101.875 1.15863 4.64879 0
M  V30 999 H 100.239 0.52162 2.49301 0
M  V30 1000 H 101.022 2.18591 2.64713 0
M  V30 1001 N 103.467 -1.45747 0.599634 0
M  V30 1002 C 104.716 -2.01502 0.0893511 0
M  V30 1003 C 105.029 -1.4748 -1.28488 0
M  V30 1004 O 106.235 -1.95161 -1.88745 0
M  V30 1005 C 104.691 -3.59735 0.109082 0
M  V30 1006 C 104.299 -4.22754 1.48267 0
M  V30 1007 C 106.043 -4.23085 -0.346374 0
M  V30 1008 C 103.95 -5.73115 1.45921 0
M  V30 1009 H 102.88 -0.753417 0.0296347 0
M  V30 1010 H 105.531 -1.67303 0.753788 0
M  V30 1011 H 103.913 -3.91087 -0.621854 0
M  V30 1012 H 105.087 -4.02987 2.23468 0
M  V30 1013 H 103.402 -3.71567 1.87955 0
M  V30 1014 H 105.999 -5.33327 -0.38298 0
M  V30 1015 H 106.342 -3.93201 -1.36743 0
M  V30 1016 H 106.875 -3.9642 0.331038 0
M  V30 1017 H 103.614 -6.07685 2.45762 0
M  V30 1018 H 103.134 -5.95097 0.749665 0
M  V30 1019 H 104.813 -6.3616 1.17941 0
M  V30 1020 N 104.945 -0.338344 -1.53925 0
M  V30 1021 C 105.895 0.536712 -2.21593 0
M  V30 1022 C 106.879 1.07015 -1.20153 0
M  V30 1023 O 108.071 1.00471 -1.45721 0
M  V30 1024 C 105.2 1.68977 -2.98834 0
M  V30 1025 C 104.286 1.17052 -4.07627 0
M  V30 1026 N 104.677 0.372085 -5.0443 0
M  V30 1027 C 102.975 1.44789 -4.21844 0
M  V30 1028 C 103.676 0.0909171 -5.81629 0
M  V30 1029 N 102.652 0.681131 -5.39316 0
M  V30 1030 H 106.454 -0.0804298 -2.9379 0
M  V30 1031 H 103.968 -0.144943 -1.61752 0
M  V30 1032 H 105.965 2.32857 -3.45808 0
M  V30 1033 H 104.625 2.31024 -2.28162 0
M  V30 1034 H 105.636 0.0136217 -5.17898 0
M  V30 1035 H 102.313 2.07313 -3.62391 0
M  V30 1036 H 103.703 -0.552817 -6.69622 0
M  V30 1037 N 106.423 1.57458 -0.0668435 0
M  V30 1038 C 107.7 1.8469 0.644132 0
M  V30 1039 C 108.08 0.958343 1.88093 0
M  V30 1040 O 107.428 0.0233579 2.28488 0
M  V30 1041 C 107.638 3.34767 0.986509 0
M  V30 1042 C 108.986 4.02159 1.36212 0
M  V30 1043 O 110.01 3.39484 1.07839 0
M  V30 1044 O 108.869 5.12694 1.89227 0
M  V30 1045 H 105.963 0.762816 0.319437 0
M  V30 1046 H 108.509 1.6942 -0.0973986 0
M  V30 1047 H 107.281 3.91151 0.107883 0
M  V30 1048 H 106.904 3.55281 1.78497 0
M  V30 1049 N 107.901 -0.206675 1.56239 0
M  V30 1050 C 109.317 -0.557025 1.49564 0
M  V30 1051 C 109.517 -1.86424 0.764735 0
M  V30 1052 O 108.573 -2.50584 0.310491 0
M  V30 1053 C 109.886 -0.622478 2.94186 0
M  V30 1054 C 111.434 -0.712099 3.04792 0
M  V30 1055 C 111.909 -0.808767 4.50803 0
M  V30 1056 N 113.4 -0.8726 4.54907 0
M  V30 1057 C 114.135 -0.967365 5.65181 0
M  V30 1058 N 113.631 -1.02515 6.85173 0
M  V30 1059 N 115.424 -1.00366 5.53067 0
M  V30 1060 H 107.575 0.650943 2.02179 0
M  V30 1061 H 109.838 0.230387 0.919579 0
M  V30 1062 H 109.544 0.268727 3.50672 0
M  V30 1063 H 109.418 -1.4811 3.46905 0
M  V30 1064 H 111.805 -1.59374 2.48363 0
M  V30 1065 H 111.886 0.172489 2.55218 0
M  V30 1066 H 111.53 0.0684754 5.07854 0
M  V30 1067 H 111.46 -1.70899 4.98098 0
M  V30 1068 H 113.951 -0.837657 3.68499 0
M  V30 1069 H 114.264 -1.09765 7.64965 0
M  V30 1070 H 112.609 -0.994026 6.87855 0
M  V30 1071 H 115.8 -0.95527 4.58249 0
M  V30 1072 H 115.973 -1.07405 6.39037 0
M  V30 1073 N 109.379 -1.50304 -0.473955 0
M  V30 1074 C 110.628 -1.60392 -1.22301 0
M  V30 1075 C 110.941 -0.308411 -1.93153 0
M  V30 1076 O 112.147 -0.288156 -2.69966 0
M  V30 1077 C 110.603 -2.83109 -2.2221 0
M  V30 1078 C 110.211 -4.19524 -1.57173 0
M  V30 1079 C 111.955 -3.0254 -2.97775 0
M  V30 1080 C 109.862 -5.33431 -2.55353 0
M  V30 1081 H 108.792 -0.597286 -0.460179 0
M  V30 1082 H 111.443 -1.76731 -0.493803 0
M  V30 1083 H 109.825 -2.60322 -2.9841 0
M  V30 1084 H 110.999 -4.52554 -0.867824 0
M  V30 1085 H 109.314 -4.05674 -0.939002 0
M  V30 1086 H 111.911 -3.84811 -3.71248 0
M  V30 1087 H 112.254 -2.14154 -3.56992 0
M  V30 1088 H 112.787 -3.25494 -2.28688 0
M  V30 1089 H 109.526 -6.23962 -2.00878 0
M  V30 1090 H 109.046 -5.04823 -3.23904 0
M  V30 1091 H 110.725 -5.63887 -3.17239 0
M  V30 1092 N 110.857 0.726932 -1.39834 0
M  V30 1093 C 112.104 1.48664 -1.37496 0
M  V30 1094 C 112.432 1.94482 0.0264678 0
M  V30 1095 O 111.687 1.67692 1.00886 0
M  V30 1096 C 111.986 2.73495 -2.30077 0
M  V30 1097 C 111.652 2.46502 -3.77555 0
M  V30 1098 C 110.314 2.3885 -4.17737 0
M  V30 1099 C 112.666 2.23604 -4.70798 0
M  V30 1100 C 109.994 2.06352 -5.49214 0
M  V30 1101 C 112.346 1.92622 -6.02561 0
M  V30 1102 C 111.01 1.83444 -6.41798 0
M  V30 1103 H 110.28 0.544001 -0.503135 0
M  V30 1104 H 112.927 0.833657 -1.72402 0
M  V30 1105 H 111.232 3.43575 -1.88317 0
M  V30 1106 H 112.929 3.31549 -2.25558 0
M  V30 1107 H 109.519 2.5334 -3.45712 0
M  V30 1108 H 113.703 2.28479 -4.40581 0
M  V30 1109 H 108.959 1.97776 -5.78528 0
M  V30 1110 H 113.133 1.73914 -6.74334 0
M  V30 1111 H 110.76 1.58029 -7.43593 0
M  V30 1112 N 112.336 1.25143 0.95797 0
M  V30 1113 C 113.576 1.10893 1.71703 0
M  V30 1114 C 113.94 -0.34478 1.88879 0
M  V30 1115 O 115.141 -0.609014 2.6181 0
M  V30 1116 C 113.412 1.83889 3.06463 0
M  V30 1117 S 114.971 1.85491 3.97666 0
M  V30 1118 H 111.789 0.396428 0.590226 0
M  V30 1119 H 114.391 1.58618 1.14283 0
M  V30 1120 H 113.095 2.88756 2.9163 0
M  V30 1121 H 112.626 1.36538 3.68946 0
M  V30 1122 H 114.641 0.929553 4.87415 0
M  V30 1123 N 113.814 -1.1601 1.06675 0
M  V30 1124 C 115.054 -1.88304 0.795037 0
M  V30 1125 C 115.418 -1.80062 -0.666466 0
M  V30 1126 O 116.619 -2.47319 -1.05293 0
M  V30 1127 C 114.89 -3.33664 1.28076 0
M  V30 1128 S 116.449 -4.23768 1.13868 0
M  V30 1129 H 113.267 -0.649928 0.288296 0
M  V30 1130 H 115.869 -1.4001 1.36445 0
M  V30 1131 H 114.573 -3.37203 2.33927 0
M  V30 1132 H 114.104 -3.87009 0.706253 0
M  V30 1133 H 116.119 -4.96148 0.0719668 0
M  V30 1134 N 115.292 -0.849877 -1.32721 0
M  V30 1135 C 116.708 -0.539102 -1.50219 0
M  V30 1136 C 116.908 0.931271 -1.78689 0
M  V30 1137 O 115.964 1.71455 -1.85363 0
M  V30 1138 C 117.277 -1.42196 -2.64954 0
M  V30 1139 C 118.825 -1.42189 -2.78839 0
M  V30 1140 C 119.3 -2.28985 -3.96648 0
M  V30 1141 N 120.791 -2.26754 -4.03902 0
M  V30 1142 C 121.526 -2.90644 -4.94281 0
M  V30 1143 N 121.022 -3.63629 -5.897 0
M  V30 1144 N 122.815 -2.80057 -4.87365 0
M  V30 1145 H 114.966 -1.80156 -1.12506 0
M  V30 1146 H 117.229 -0.769217 -0.554085 0
M  V30 1147 H 116.935 -2.46733 -2.50631 0
M  V30 1148 H 116.809 -1.10591 -3.60624 0
M  V30 1149 H 119.196 -0.38419 -2.92588 0
M  V30 1150 H 119.277 -1.77807 -1.83898 0
M  V30 1151 H 118.921 -3.32819 -3.83658 0
M  V30 1152 H 118.851 -1.90702 -4.90857 0
M  V30 1153 H 121.342 -1.73688 -3.3562 0
M  V30 1154 H 121.655 -4.09558 -6.55349 0
M  V30 1155 H 120 -3.67737 -5.89741 0
M  V30 1156 H 123.191 -2.22593 -4.11789 0
M  V30 1157 H 123.364 -3.30132 -5.57599 0
M  V30 1158 N 116.77 1.45427 -0.607355 0
M  V30 1159 C 117.995 2.07124 -0.107006 0
M  V30 1160 C 118.42 1.44906 1.19933 0
M  V30 1161 O 117.778 0.541687 1.73019 0
M  V30 1162 C 117.826 3.60595 0.0194119 0
M  V30 1163 O 116.93 3.98285 1.0697 0
M  V30 1164 H 116.271 0.659868 -0.0739597 0
M  V30 1165 H 118.801 1.86683 -0.837297 0
M  V30 1166 H 118.811 4.07419 0.2177 0
M  V30 1167 H 117.486 4.05266 -0.934453 0
M  V30 1168 H 116.063 3.63133 0.847889 0
M  V30 1169 N 118.248 0.346503 1.53744 0
M  V30 1170 C 119.496 -0.248612 2.00565 0
M  V30 1171 C 119.817 -1.5083 1.23593 0
M  V30 1172 O 119.087 -1.92858 0.343912 0
M  V30 1173 H 117.667 -0.0948564 0.740953 0
M  V30 1174 H 120.329 0.468341 1.89189 0
M  V30 1175 H 119.425 -0.488994 3.08245 0
M  V30 1176 N 119.726 -1.57421 0.075193 0
M  V30 1177 C 120.951 -1.98364 -0.605515 0
M  V30 1178 C 121.376 -0.953383 -1.62149 0
M  V30 1179 O 120.734 0.0806053 -1.81121 0
M  V30 1180 C 120.782 -3.38332 -1.24756 0
M  V30 1181 O 119.886 -3.37959 -2.36342 0
M  V30 1182 H 119.227 -0.645553 -0.155428 0
M  V30 1183 H 121.757 -2.04044 0.150714 0
M  V30 1184 H 121.767 -3.75591 -1.5936 0
M  V30 1185 H 120.442 -4.12846 -0.503129 0
M  V30 1186 H 119.019 -3.12474 -2.03506 0
M  V30 1187 N 121.204 0.198386 -1.56346 0
M  V30 1188 C 122.167 1.22952 -1.93431 0
M  V30 1189 C 123.167 1.38611 -0.815092 0
M  V30 1190 O 124.357 1.36479 -1.08255 0
M  V30 1191 C 121.489 2.59946 -2.20546 0
M  V30 1192 H 122.682 0.912626 -2.85677 0
M  V30 1193 H 120.235 0.43977 -1.49986 0
M  V30 1194 H 120.97 2.96696 -1.30927 0
M  V30 1195 H 120.755 2.49953 -3.02102 0
M  V30 1196 H 122.245 3.3431 -2.50253 0
M  V30 1197 N 122.682 1.50554 0.465978 0
M  V30 1198 C 123.645 1.69233 1.54574 0
M  V30 1199 C 124.645 0.562901 1.50626 0
M  V30 1200 O 125.835 0.830016 1.53155 0
M  V30 1201 C 122.967 1.7223 2.94193 0
M  V30 1202 H 124.16 2.65571 1.39327 0
M  V30 1203 H 121.713 1.40111 0.692711 0
M  V30 1204 H 122.448 0.77603 3.14878 0
M  V30 1205 H 122.233 2.54285 2.98466 0
M  V30 1206 H 123.723 1.88618 3.72576 0
M  V30 1207 N 124.16 -0.719506 1.40217 0
M  V30 1208 C 125.437 -1.47221 1.28784 0
M  V30 1209 C 125.817 -2.10883 -0.0956067 0
M  V30 1210 O 125.165 -1.99833 -1.10811 0
M  V30 1211 C 125.375 -2.5111 2.42373 0
M  V30 1212 C 126.723 -3.17053 2.82423 0
M  V30 1213 O 127.747 -2.61429 2.41937 0
M  V30 1214 O 126.606 -4.17742 3.52355 0
M  V30 1215 H 123.7 -0.654491 0.50554 0
M  V30 1216 H 126.246 -0.752014 1.52128 0
M  V30 1217 H 125.018 -2.02556 3.34793 0
M  V30 1218 H 124.641 -3.3067 2.20778 0
M  V30 1219 N 125.638 -1.25649 -0.95132 0
M  V30 1220 C 126.866 -1.13343 -1.73092 0
M  V30 1221 C 127.281 0.312434 -1.86197 0
M  V30 1222 O 126.638 1.21465 -1.36207 0
M  V30 1223 C 126.689 -1.78602 -3.14299 0
M  V30 1224 O 126.41 -3.17537 -3.01831 0
M  V30 1225 C 127.911 -1.72119 -4.08522 0
M  V30 1226 H 125.131 -0.395181 -0.542285 0
M  V30 1227 H 127.675 -1.66076 -1.19328 0
M  V30 1228 H 125.83 -1.29832 -3.64996 0
M  V30 1229 H 126.244 -3.49676 -3.90931 0
M  V30 1230 H 127.718 -2.22435 -5.052 0
M  V30 1231 H 128.195 -0.685635 -4.33815 0
M  V30 1232 H 128.801 -2.20393 -3.63741 0
M  V30 1233 N 127.117 1.15442 -1.07289 0
M  V30 1234 C 128.049 2.19773 -0.650585 0
M  V30 1235 C 129.062 1.60076 0.296572 0
M  V30 1236 O 130.251 1.78293 0.0859905 0
M  V30 1237 C 127.351 3.38838 0.0650398 0
M  V30 1238 C 126.524 4.2808 -0.898141 0
M  V30 1239 C 125.583 5.2574 -0.219926 0
M  V30 1240 O 124.609 5.62654 -0.860773 0
M  V30 1241 N 125.811 5.71205 1.03466 0
M  V30 1242 H 128.576 2.56622 -1.54808 0
M  V30 1243 H 126.137 1.30551 -0.957494 0
M  V30 1244 H 128.129 4.01222 0.529415 0
M  V30 1245 H 126.699 3.00409 0.864466 0
M  V30 1246 H 125.919 3.62804 -1.54165 0
M  V30 1247 H 127.207 4.84577 -1.5512 0
M  V30 1248 H 126.605 5.43325 1.57526 0
M  V30 1249 H 125.162 6.35633 1.44272 0
M  V30 1250 N 128.595 0.856903 1.32268 0
M  V30 1251 C 129.558 0.308171 2.27119 0
M  V30 1252 C 130.558 -0.533421 1.51695 0
M  V30 1253 O 131.748 -0.344607 1.70757 0
M  V30 1254 C 128.88 -0.563757 3.36206 0
M  V30 1255 H 130.073 1.14535 2.77167 0
M  V30 1256 H 127.626 0.631421 1.42978 0
M  V30 1257 H 128.361 -1.42266 2.91429 0
M  V30 1258 H 128.146 0.0386749 3.92081 0
M  V30 1259 H 129.636 -0.940386 4.06874 0
M  V30 1260 N 130.073 -1.45103 0.615059 0
M  V30 1261 C 131.319 -2.02483 0.113347 0
M  V30 1262 C 131.652 -1.48146 -1.25564 0
M  V30 1263 O 130.927 -0.659104 -1.82992 0
M  V30 1264 C 131.21 -3.60005 0.0825278 0
M  V30 1265 C 131.063 -4.2466 1.48271 0
M  V30 1266 C 132.382 -4.35972 -0.601401 0
M  V30 1267 H 129.501 -0.735764 0.0426632 0
M  V30 1268 H 132.143 -1.72868 0.788461 0
M  V30 1269 H 130.293 -3.85367 -0.492378 0
M  V30 1270 H 131.965 -4.10458 2.10527 0
M  V30 1271 H 130.208 -3.82772 2.04127 0
M  V30 1272 H 130.879 -5.336 1.41332 0
M  V30 1273 H 133.355 -4.15947 -0.112666 0
M  V30 1274 H 132.231 -5.45697 -0.592097 0
M  V30 1275 H 132.492 -4.09391 -1.66887 0
M  V30 1276 N 131.551 -0.354651 -1.53558 0
M  V30 1277 C 132.514 0.484566 -2.24019 0
M  V30 1278 C 133.514 1.01861 -1.24422 0
M  V30 1279 O 134.704 0.906097 -1.4878 0
M  V30 1280 C 131.836 1.67615 -2.96847 0
M  V30 1281 H 133.029 -0.131843 -2.9961 0
M  V30 1282 H 130.582 -0.106165 -1.55939 0
M  V30 1283 H 131.317 2.33095 -2.25471 0
M  V30 1284 H 131.102 1.30029 -3.69912 0
M  V30 1285 H 132.592 2.27114 -3.50441 0
M  V30 1286 N 133.029 1.57378 -0.0835403 0
M  V30 1287 C 134.306 1.85363 0.624507 0
M  V30 1288 C 134.686 0.978239 1.87066 0
M  V30 1289 O 134.034 0.0475908 2.2845 0
M  V30 1290 C 134.244 3.35795 0.950947 0
M  V30 1291 C 135.592 4.03581 1.31939 0
M  V30 1292 O 136.616 3.40609 1.04232 0
M  V30 1293 O 135.475 5.14672 1.83779 0
M  V30 1294 H 132.569 0.766162 0.311329 0
M  V30 1295 H 135.115 1.69307 -0.115362 0
M  V30 1296 H 133.887 3.91244 0.0663899 0
M  V30 1297 H 133.51 3.57154 1.74719 0
M  V30 1298 N 134.507 -0.190092 1.56449 0
M  V30 1299 C 135.47 -1.21925 1.9408 0
M  V30 1300 C 136.47 -1.38176 0.822431 0
M  V30 1301 O 137.66 -1.35903 1.08977 0
M  V30 1302 C 134.792 -2.58773 2.21922 0
M  V30 1303 H 135.985 -0.897464 2.86157 0
M  V30 1304 H 133.538 -0.43181 1.50217 0
M  V30 1305 H 134.273 -2.95998 1.32499 0
M  V30 1306 H 134.058 -2.48348 3.03424 0
M  V30 1307 H 135.548 -3.32978 2.52022 0
M  V30 1308 N 135.985 -1.50799 -0.457987 0
M  V30 1309 C 137.231 -1.62683 -1.21088 0
M  V30 1310 C 137.564 -0.332268 -1.91336 0
M  V30 1311 O 136.839 0.667043 -1.82704 0
M  V30 1312 C 137.122 -2.81615 -2.24422 0
M  V30 1313 C 136.975 -4.20989 -1.58392 0
M  V30 1314 C 138.294 -2.96085 -3.2561 0
M  V30 1315 H 135.413 -0.592087 -0.438864 0
M  V30 1316 H 138.055 -1.83225 -0.50286 0
M  V30 1317 H 136.205 -2.64231 -2.84806 0
M  V30 1318 H 137.877 -4.49994 -1.01504 0
M  V30 1319 H 136.12 -4.24641 -0.886704 0
M  V30 1320 H 136.791 -5.0016 -2.33547 0
M  V30 1321 H 139.267 -3.12042 -2.75262 0
M  V30 1322 H 138.143 -3.80902 -3.95228 0
M  V30 1323 H 138.404 -2.0726 -3.90507 0
M  V30 1324 N 137.463 0.71206 -1.40597 0
M  V30 1325 C 138.691 1.50111 -1.42388 0
M  V30 1326 C 139.106 1.88784 -0.0245395 0
M  V30 1327 O 138.463 1.55681 0.952351 0
M  V30 1328 C 138.514 2.7742 -2.31776 0
M  V30 1329 O 138.235 2.40382 -3.66262 0
M  V30 1330 C 139.736 3.7129 -2.42196 0
M  V30 1331 H 136.956 0.46314 -0.485533 0
M  V30 1332 H 139.5 0.878068 -1.8469 0
M  V30 1333 H 137.655 3.36001 -1.92827 0
M  V30 1334 H 138.069 3.22324 -4.13772 0
M  V30 1335 H 139.543 4.57448 -3.08943 0
M  V30 1336 H 140.02 4.14641 -1.44809 0
M  V30 1337 H 140.626 3.18619 -2.81712 0
M  V30 1338 N 138.941 1.26152 0.944643 0
M  V30 1339 C 140.171 1.14094 1.72239 0
M  V30 1340 C 140.579 -0.306931 1.86694 0
M  V30 1341 O 139.922 -1.22222 1.3714 0
M  V30 1342 C 139.984 1.73316 3.14963 0
M  V30 1343 C 139.648 3.2239 3.23904 0
M  V30 1344 C 140.645 4.19252 3.07447 0
M  V30 1345 C 138.33 3.62788 3.47405 0
M  V30 1346 C 140.324 5.54491 3.14353 0
M  V30 1347 C 138.011 4.98162 3.53947 0
M  V30 1348 C 139.009 5.93823 3.37436 0
M  V30 1349 O 138.697 7.26732 3.43679 0
M  V30 1350 H 138.429 0.398292 0.546205 0
M  V30 1351 H 140.983 1.67201 1.19301 0
M  V30 1352 H 139.213 1.14667 3.69308 0
M  V30 1353 H 140.902 1.56214 3.74636 0
M  V30 1354 H 141.668 3.8938 2.8915 0
M  V30 1355 H 137.547 2.88816 3.59313 0
M  V30 1356 H 141.091 6.29137 3.01384 0
M  V30 1357 H 136.988 5.27695 3.71763 0
M  V30 1358 H 137.756 7.3496 3.60245 0
M  V30 1359 N 140.419 -1.14872 1.07899 0
M  V30 1360 C 141.351 -2.19425 0.662231 0
M  V30 1361 C 142.364 -1.60231 -0.288079 0
M  V30 1362 O 143.553 -1.78336 -0.076534 0
M  V30 1363 C 140.653 -3.38867 -0.0470695 0
M  V30 1364 C 139.826 -4.27597 0.920831 0
M  V30 1365 C 138.885 -5.25616 0.247805 0
M  V30 1366 O 137.911 -5.62189 0.890599 0
M  V30 1367 N 139.113 -5.71746 -1.00435 0
M  V30 1368 H 141.878 -2.55797 1.56166 0
M  V30 1369 H 139.439 -1.30042 0.964404 0
M  V30 1370 H 141.431 -4.01497 -0.50813 0
M  V30 1371 H 140.001 -3.00864 -0.848523 0
M  V30 1372 H 139.221 -3.61982 1.56087 0
M  V30 1373 H 140.509 -4.83748 1.57688 0
M  V30 1374 H 139.907 -5.44153 -1.54642 0
M  V30 1375 H 138.464 -6.36389 -1.40899 0
M  V30 1376 N 141.898 -0.863906 -1.31812 0
M  V30 1377 C 142.828 -0.330843 -2.31144 0
M  V30 1378 C 143.809 0.575005 -1.60087 0
M  V30 1379 O 144.994 0.493304 -1.8783 0
M  V30 1380 C 142.124 0.47374 -3.44054 0
M  V30 1381 C 141.078 -0.338481 -4.26659 0
M  V30 1382 C 140.404 0.591412 -5.31419 0
M  V30 1383 C 141.704 -1.56926 -4.98168 0
M  V30 1384 H 143.398 -1.16086 -2.75979 0
M  V30 1385 H 140.944 -0.559657 -1.32679 0
M  V30 1386 H 142.897 0.857143 -4.12591 0
M  V30 1387 H 141.621 1.33721 -2.9797 0
M  V30 1388 H 140.28 -0.703754 -3.59782 0
M  V30 1389 H 139.928 1.45199 -4.81587 0
M  V30 1390 H 139.628 0.0519022 -5.87577 0
M  V30 1391 H 141.152 0.97179 -6.02817 0
M  V30 1392 H 142.566 -1.25764 -5.59336 0
M  V30 1393 H 140.963 -2.04739 -5.64094 0
M  V30 1394 H 142.033 -2.32544 -4.25501 0
M  V30 1395 N 143.376 1.44774 -0.622745 0
M  V30 1396 C 144.624 2.01721 -0.123655 0
M  V30 1397 C 144.945 1.49172 1.25589 0
M  V30 1398 O 144.215 0.691974 1.83272 0
M  V30 1399 H 142.795 0.745777 -0.0427225 0
M  V30 1400 H 145.457 1.77382 -0.807559 0
M  V30 1401 H 144.553 3.11984 -0.0849534 0
M  V30 1402 N 144.854 0.36279 1.53368 0
M  V30 1403 C 146.101 -0.227776 2.01215 0
M  V30 1404 C 146.429 -1.49003 1.25014 0
M  V30 1405 O 145.684 -1.92876 0.331236 0
M  V30 1406 C 145.983 -0.568417 3.52851 0
M  V30 1407 C 145.649 0.59918 4.46901 0
M  V30 1408 C 144.311 0.919559 4.72332 0
M  V30 1409 C 146.663 1.38156 5.02556 0
M  V30 1410 C 143.991 2.02434 5.5067 0
M  V30 1411 C 146.343 2.47674 5.821 0
M  V30 1412 C 145.007 2.8025 6.05819 0
M  V30 1413 H 144.277 -0.083349 0.736297 0
M  V30 1414 H 146.924 0.494677 1.85001 0
M  V30 1415 H 145.229 -1.37185 3.66998 0
M  V30 1416 H 146.926 -1.03756 3.87344 0
M  V30 1417 H 143.516 0.339437 4.27254 0
M  V30 1418 H 147.7 1.14729 4.82857 0
M  V30 1419 H 142.956 2.28075 5.67267 0
M  V30 1420 H 147.13 3.08716 6.24234 0
M  V30 1421 H 144.757 3.65979 6.66306 0
M  V30 1422 N 146.332 -1.57332 0.0918853 0
M  V30 1423 C 147.282 -2.10385 -0.87876 0
M  V30 1424 C 148.266 -1.01814 -1.24591 0
M  V30 1425 O 149.458 -1.28093 -1.22152 0
M  V30 1426 C 146.587 -2.68517 -2.13901 0
M  V30 1427 C 145.673 -3.84126 -1.79744 0
M  V30 1428 N 146.064 -4.92288 -1.1613 0
M  V30 1429 C 144.362 -3.93801 -2.09373 0
M  V30 1430 C 145.063 -5.7295 -1.00513 0
M  V30 1431 N 144.039 -5.21876 -1.5214 0
M  V30 1432 H 147.841 -2.91395 -0.38293 0
M  V30 1433 H 145.355 -1.62017 -0.111423 0
M  V30 1434 H 147.352 -3.04852 -2.84378 0
M  V30 1435 H 146.012 -1.88961 -2.64053 0
M  V30 1436 H 147.023 -5.1123 -0.828504 0
M  V30 1437 H 143.7 -3.25249 -2.61762 0
M  V30 1438 H 145.09 -6.69978 -0.507902 0
M  V30 1439 N 147.81 0.181792 -1.56548 0
M  V30 1440 C 149.035 0.920019 -1.85877 0
M  V30 1441 C 149.46 1.75494 -0.677021 0
M  V30 1442 O 148.818 1.77399 0.374056 0
M  V30 1443 C 148.866 1.78112 -3.13542 0
M  V30 1444 O 147.97 2.88152 -2.95029 0
M  V30 1445 H 147.311 0.258334 -0.611686 0
M  V30 1446 H 149.841 0.183092 -2.03779 0
M  V30 1447 H 149.851 2.18314 -3.44678 0
M  V30 1448 H 148.526 1.16777 -3.99169 0
M  V30 1449 H 147.103 2.51609 -2.75222 0
M  V30 1450 N 149.288 1.51039 0.449983 0
M  V30 1451 C 150.537 1.62317 1.19733 0
M  V30 1452 C 150.85 0.339101 1.92638 0
M  V30 1453 O 152.056 0.331069 2.69474 0
M  V30 1454 C 150.512 2.86608 2.17678 0
M  V30 1455 C 150.12 4.21972 1.50479 0
M  V30 1456 C 151.864 3.07239 2.92924 0
M  V30 1457 C 149.771 5.37426 2.46834 0
M  V30 1458 H 148.701 0.604532 0.450619 0
M  V30 1459 H 151.352 1.77494 0.465625 0
M  V30 1460 H 149.734 2.65037 2.94231 0
M  V30 1461 H 150.908 4.53878 0.795716 0
M  V30 1462 H 149.223 4.07117 0.874344 0
M  V30 1463 H 151.82 3.90668 3.65079 0
M  V30 1464 H 152.163 2.19807 3.5354 0
M  V30 1465 H 152.696 3.29091 2.23481 0
M  V30 1466 H 149.435 6.27079 1.90926 0
M  V30 1467 H 148.955 5.09912 3.15832 0
M  V30 1468 H 150.634 5.68862 3.08228 0
M  V30 1469 N 150.766 -0.704594 1.40972 0
M  V30 1470 C 151.676 -1.84856 1.44448 0
M  V30 1471 C 152.692 -1.70726 0.335961 0
M  V30 1472 O 153.868 -1.92799 0.582276 0
M  V30 1473 C 150.933 -3.20758 1.31587 0
M  V30 1474 C 149.994 -3.47063 2.52677 0
M  V30 1475 C 149.227 -4.76481 2.4042 0
M  V30 1476 O 149.45 -5.52341 1.42391 0
M  V30 1477 O 148.384 -5.03367 3.30007 0
M  V30 1478 H 152.21 -1.8488 2.40942 0
M  V30 1479 H 149.795 -0.85647 1.22413 0
M  V30 1480 H 151.677 -4.01913 1.26665 0
M  V30 1481 H 150.352 -3.21438 0.382049 0
M  V30 1482 H 149.259 -2.65873 2.63177 0
M  V30 1483 H 150.592 -3.5119 3.44858 0
M  V30 1484 N 152.244 -1.26651 -0.937939 0
M  V30 1485 C 153.174 -1.10993 -2.05433 0
M  V30 1486 C 154.155 -0.0142161 -1.70094 0
M  V30 1487 O 155.34 -0.186837 -1.93299 0
M  V30 1488 C 152.47 -0.745561 -3.39203 0
M  V30 1489 C 151.424 -1.79337 -3.88616 0
M  V30 1490 C 150.75 -1.28324 -5.19073 0
M  V30 1491 C 152.05 -3.19553 -4.13138 0
M  V30 1492 H 153.744 -2.0438 -2.1879 0
M  V30 1493 H 151.29 -0.984041 -1.05131 0
M  V30 1494 H 153.243 -0.622888 -4.16771 0
M  V30 1495 H 151.967 0.22401 -3.25831 0
M  V30 1496 H 150.626 -1.90477 -3.13231 0
M  V30 1497 H 150.274 -0.303414 -5.02084 0
M  V30 1498 H 149.974 -1.98369 -5.53103 0
M  V30 1499 H 151.498 -1.1733 -5.99221 0
M  V30 1500 H 152.912 -3.11471 -4.81309 0
M  V30 1501 H 151.309 -3.87218 -4.58457 0
M  V30 1502 H 152.379 -3.65368 -3.18801 0
M  V30 1503 N 153.722 1.14298 -1.08507 0
M  V30 1504 C 154.67 2.21483 -0.710483 0
M  V30 1505 C 155.664 1.66998 0.284234 0
M  V30 1506 O 156.87 1.79401 0.146692 0
M  V30 1507 H 153.245 0.721578 -0.211729 0
M  V30 1508 H 155.216 2.50348 -1.62384 0
M  V30 1509 C 153.965 3.4743 -0.137007 0
M  V30 1510 H 153.288 3.89686 -0.893592 0
M  V30 1511 H 154.728 4.2391 0.0872789 0
M  V30 1512 C 153.187 3.17548 1.12538 0
M  V30 1513 O 153.717 3.35437 2.21009 0
M  V30 1514 N 151.923 2.71499 1.03617 0
M  V30 1515 H 151.47 2.57143 0.153403 0
M  V30 1516 H 151.428 2.51881 1.88158 0
M  V30 1517 N 155.201 0.870884 1.31352 0
M  V30 1518 C 156.111 0.330783 2.32256 0
M  V30 1519 C 157.127 -0.559767 1.6475 0
M  V30 1520 O 158.303 -0.456263 1.96164 0
M  V30 1521 C 155.368 -0.458137 3.4366 0
M  V30 1522 C 154.429 0.460482 4.26823 0
M  V30 1523 C 153.662 -0.290881 5.32907 0
M  V30 1524 O 153.885 -1.51885 5.49806 0
M  V30 1525 O 152.819 0.351732 6.00871 0
M  V30 1526 H 156.645 1.16718 2.80376 0
M  V30 1527 H 154.23 0.634285 1.35267 0
M  V30 1528 H 156.112 -0.905343 4.1156 0
M  V30 1529 H 154.787 -1.27106 2.97701 0
M  V30 1530 H 153.694 0.956207 3.61673 0
M  V30 1531 H 155.027 1.23903 4.7635 0
M  V30 1532 N 156.679 -1.44442 0.630414 0
M  V30 1533 C 158.09 -1.85434 0.217063 0
M  V30 1534 C 158.441 -1.52748 -1.23136 0
M  V30 1535 O 157.566 -0.965205 -1.93682 0
M  V30 1536 C 158.161 -3.36581 0.387168 0
M  V30 1537 C 156.72 -3.76389 0.0283297 0
M  V30 1538 C 155.867 -2.68296 0.700889 0
M  V30 1539 H 158.818 -1.34919 0.83562 0
M  V30 1540 H 158.839 -3.78657 -0.374086 0
M  V30 1541 H 158.351 -3.60339 1.44144 0
M  V30 1542 H 156.452 -3.58246 -1.02423 0
M  V30 1543 H 156.565 -4.77095 0.437892 0
M  V30 1544 H 154.929 -2.54335 0.136267 0
M  V30 1545 H 155.712 -2.94887 1.75774 0
M  V30 1546 N 158.157 -0.370918 -1.53173 0
M  V30 1547 C 159.568 0.107139 -1.86392 0
M  V30 1548 C 159.919 1.47714 -1.29132 0
M  V30 1549 O 159.044 2.07464 -0.615439 0
M  V30 1550 C 159.639 0.201187 -3.38202 0
M  V30 1551 C 158.198 0.623507 -3.712 0
M  V30 1552 C 157.345 -0.225978 -2.76378 0
M  V30 1553 H 160.296 -0.58951 -1.47345 0
M  V30 1554 H 160.317 1.02377 -3.66468 0
M  V30 1555 H 159.829 -0.796058 -3.79848 0
M  V30 1556 H 157.93 1.62879 -3.35114 0
M  V30 1557 H 158.043 0.394414 -4.77474 0
M  V30 1558 H 156.407 0.305962 -2.52856 0
M  V30 1559 H 157.19 -1.22086 -3.20858 0
M  V30 1560 N 159.635 1.57281 -0.100228 0
M  V30 1561 C 160.565 2.17328 0.853857 0
M  V30 1562 C 161.546 1.10804 1.2906 0
M  V30 1563 O 162.731 1.38963 1.35657 0
M  V30 1564 C 159.861 2.75772 2.11109 0
M  V30 1565 C 158.815 3.87713 1.81279 0
M  V30 1566 C 158.141 4.32882 3.13874 0
M  V30 1567 C 159.441 5.10677 1.09574 0
M  V30 1568 H 161.135 2.97305 0.353545 0
M  V30 1569 H 158.681 1.43009 0.168612 0
M  V30 1570 H 160.634 3.16433 2.78296 0
M  V30 1571 H 159.358 1.93057 2.63432 0
M  V30 1572 H 158.017 3.476 1.16489 0
M  V30 1573 H 157.665 3.47051 3.64095 0
M  V30 1574 H 157.365 5.08358 2.94696 0
M  V30 1575 H 158.889 4.7618 3.82211 0
M  V30 1576 H 160.303 5.48474 1.66879 0
M  V30 1577 H 158.7 5.91615 1.00557 0
M  V30 1578 H 159.77 4.84835 0.0793299 0
M  V30 1579 N 161.113 -0.173488 1.56642 0
M  V30 1580 C 162.359 -0.891784 1.8214 0
M  V30 1581 C 162.692 -1.8199 0.677736 0
M  V30 1582 O 161.967 -1.91842 -0.320446 0
M  V30 1583 C 162.25 -1.68933 3.18015 0
M  V30 1584 C 162.103 -0.784487 4.42906 0
M  V30 1585 C 163.422 -2.65748 3.50808 0
M  V30 1586 H 160.541 -0.322761 0.662567 0
M  V30 1587 H 163.183 -0.158095 1.89341 0
M  V30 1588 H 161.333 -2.31482 3.12007 0
M  V30 1589 H 163.005 -0.172046 4.60979 0
M  V30 1590 H 161.248 -0.0924117 4.33702 0
M  V30 1591 H 161.919 -1.37799 5.34524 0
M  V30 1592 H 164.395 -2.13327 3.57255 0
M  V30 1593 H 163.271 -3.18619 4.4696 0
M  V30 1594 H 163.532 -3.45842 2.75401 0
M  V30 1595 N 162.591 -1.51276 -0.441967 0
M  V30 1596 C 163.541 -1.6864 -1.53442 0
M  V30 1597 C 164.525 -0.540444 -1.51552 0
M  V30 1598 O 165.717 -0.796157 -1.58083 0
M  V30 1599 C 162.846 -1.8106 -2.91672 0
M  V30 1600 C 161.932 -3.01424 -2.98336 0
M  V30 1601 N 162.323 -4.2467 -2.74752 0
M  V30 1602 C 160.621 -3.00584 -3.29493 0
M  V30 1603 C 161.322 -5.05891 -2.87139 0
M  V30 1604 N 160.298 -4.40442 -3.18609 0
M  V30 1605 H 164.1 -2.61598 -1.33954 0
M  V30 1606 H 161.614 -1.4886 -0.6492 0
M  V30 1607 H 163.611 -1.91609 -3.70259 0
M  V30 1608 H 162.271 -0.892795 -3.12185 0
M  V30 1609 H 163.282 -4.53691 -2.49769 0
M  V30 1610 H 159.959 -2.18417 -3.55809 0
M  V30 1611 H 161.349 -6.13983 -2.72899 0
M  V30 1612 N 164.069 0.697108 -1.41344 0
M  V30 1613 C 165.297 1.48593 -1.43972 0
M  V30 1614 C 165.712 1.88747 -0.0445612 0
M  V30 1615 O 165.069 1.56682 0.935785 0
M  V30 1616 C 165.12 2.74946 -2.34706 0
M  V30 1617 O 164.841 2.36484 -3.68791 0
M  V30 1618 C 166.342 3.687 -2.46121 0
M  V30 1619 H 163.562 0.457964 -0.490418 0
M  V30 1620 H 166.106 0.858429 -1.8561 0
M  V30 1621 H 164.261 3.33937 -1.9638 0
M  V30 1622 H 164.675 3.17918 -4.17167 0
M  V30 1623 H 166.149 4.54145 -3.13777 0
M  V30 1624 H 166.626 4.13081 -1.49199 0
M  V30 1625 H 167.232 3.15613 -2.85076 0
M  V30 1626 N 165.547 1.27147 0.931209 0
M  V30 1627 C 166.51 1.09615 2.01289 0
M  V30 1628 C 167.51 0.0412581 1.60747 0
M  V30 1629 O 168.7 0.285545 1.71844 0
M  V30 1630 C 165.832 0.669447 3.34262 0
M  V30 1631 H 167.025 2.05662 2.18273 0
M  V30 1632 H 164.578 1.09885 1.11153 0
M  V30 1633 H 165.313 -0.292572 3.22978 0
M  V30 1634 H 165.098 1.43127 3.65044 0
M  V30 1635 H 166.588 0.568921 4.13706 0
M  V30 1636 N 167.025 -1.13721 1.09112 0
M  V30 1637 C 167.988 -2.17222 0.731241 0
M  V30 1638 C 168.988 -1.59035 -0.237566 0
M  V30 1639 O 170.178 -1.74192 -0.0161704 0
M  V30 1640 C 167.31 -3.40804 0.0808443 0
M  V30 1641 H 168.503 -2.50573 1.64783 0
M  V30 1642 H 166.056 -1.28493 0.889897 0
M  V30 1643 H 166.791 -3.1304 -0.847127 0
M  V30 1644 H 166.576 -3.84306 0.777896 0
M  V30 1645 H 168.066 -4.1731 -0.155657 0
M  V30 1646 N 168.503 -0.877838 -1.30888 0
M  V30 1647 C 169.728 -0.506629 -2.01117 0
M  V30 1648 C 170.153 0.895564 -1.65412 0
M  V30 1649 O 169.511 1.5923 -0.866922 0
M  V30 1650 C 169.559 -0.680223 -3.54126 0
M  V30 1651 O 168.663 0.277033 -4.11468 0
M  V30 1652 H 168.004 -0.200518 -0.633 0
M  V30 1653 H 170.534 -1.18342 -1.66902 0
M  V30 1654 H 170.544 -0.5765 -4.03907 0
M  V30 1655 H 169.219 -1.70261 -3.79452 0
M  V30 1656 H 167.796 0.127606 -3.72682 0
M  V30 1657 N 169.982 1.44106 -0.638065 0
M  V30 1658 C 170.912 2.33448 0.0494287 0
M  V30 1659 C 171.893 1.48606 0.827672 0
M  V30 1660 O 173.078 1.77308 0.792173 0
M  V30 1661 C 170.208 3.31771 1.02691 0
M  V30 1662 C 169.162 4.26485 0.359823 0
M  V30 1663 C 168.488 5.14729 1.44769 0
M  V30 1664 C 169.788 5.17056 -0.738296 0
M  V30 1665 H 171.482 2.91183 -0.696636 0
M  V30 1666 H 169.028 1.40014 -0.336456 0
M  V30 1667 H 170.981 3.93161 1.51666 0
M  V30 1668 H 169.705 2.7226 1.80395 0
M  V30 1669 H 168.364 3.66437 -0.10934 0
M  V30 1670 H 168.012 4.51566 2.21578 0
M  V30 1671 H 167.712 5.78913 1.00668 0
M  V30 1672 H 169.236 5.78991 1.93911 0
M  V30 1673 H 170.65 5.72342 -0.331354 0
M  V30 1674 H 169.047 5.89879 -1.10286 0
M  V30 1675 H 170.117 4.57652 -1.60258 0
M  V30 1676 N 171.46 0.379036 1.52974 0
M  V30 1677 C 172.707 -0.206421 2.01445 0
M  V30 1678 C 173.035 -1.47668 1.26587 0
M  V30 1679 O 172.29 -1.92514 0.351675 0
M  V30 1680 C 172.589 -0.53096 3.53434 0
M  V30 1681 C 172.255 0.646546 4.46241 0
M  V30 1682 C 170.917 0.969604 4.7133 0
M  V30 1683 C 173.269 1.43479 5.01062 0
M  V30 1684 C 170.597 2.08263 5.48492 0
M  V30 1685 C 172.949 2.53834 5.7944 0
M  V30 1686 C 171.613 2.86659 6.02812 0
M  V30 1687 H 170.883 -0.0755349 0.73714 0
M  V30 1688 H 173.53 0.514271 1.84465 0
M  V30 1689 H 171.835 -1.33285 3.68432 0
M  V30 1690 H 173.532 -0.996417 3.88423 0
M  V30 1691 H 170.122 0.384734 4.2687 0
M  V30 1692 H 174.306 1.19844 4.81613 0
M  V30 1693 H 169.562 2.34078 5.64816 0
M  V30 1694 H 173.736 3.15319 6.20924 0
M  V30 1695 H 171.363 3.73026 6.62387 0
M  V30 1696 N 172.938 -1.57226 0.108567 0
M  V30 1697 C 173.885 -2.14756 -0.845481 0
M  V30 1698 C 174.855 -1.06971 -1.27068 0
M  V30 1699 O 176.04 -1.34827 -1.35005 0
M  V30 1700 C 173.18 -2.74298 -2.09415 0
M  V30 1701 C 172.293 -3.96358 -1.71826 0
M  V30 1702 C 171.428 -4.44021 -2.9158 0
M  V30 1703 C 170.467 -5.58637 -2.50181 0
M  V30 1704 N 169.604 -6.01091 -3.62814 0
M  V30 1705 H 174.444 -2.95961 -0.348035 0
M  V30 1706 H 171.981 -1.46226 -0.160106 0
M  V30 1707 H 173.939 -3.06945 -2.82561 0
M  V30 1708 H 172.569 -1.95801 -2.56636 0
M  V30 1709 H 171.621 -3.69939 -0.885947 0
M  V30 1710 H 172.933 -4.79504 -1.37394 0
M  V30 1711 H 172.087 -4.78522 -3.72963 0
M  V30 1712 H 170.826 -3.59803 -3.29231 0
M  V30 1713 H 169.831 -5.23751 -1.67228 0
M  V30 1714 H 171.056 -6.44613 -2.13659 0
M  V30 1715 H 169.002 -5.19817 -4.00158 0
M  V30 1716 H 168.919 -6.79066 -3.32273 0
M  V30 1717 H 170.187 -6.40227 -4.44668 0
M  V30 1718 N 174.416 0.165178 -1.56732 0
M  V30 1719 C 175.326 1.22423 -2.00125 0
M  V30 1720 C 176.342 1.48084 -0.913619 0
M  V30 1721 O 177.518 1.60112 -1.22172 0
M  V30 1722 C 174.583 2.54197 -2.35764 0
M  V30 1723 C 173.644 2.36343 -3.58386 0
M  V30 1724 C 172.877 3.61834 -3.92316 0
M  V30 1725 O 173.1 4.67267 -3.27135 0
M  V30 1726 O 172.034 3.55579 -4.85641 0
M  V30 1727 H 175.86 0.885886 -2.90492 0
M  V30 1728 H 173.445 0.372518 -1.44681 0
M  V30 1729 H 175.327 3.3192 -2.59629 0
M  V30 1730 H 174.002 2.87598 -1.48557 0
M  V30 1731 H 172.909 1.56632 -3.39731 0
M  V30 1732 H 174.242 2.07865 -4.46154 0
M  V30 1733 N 175.894 1.51508 0.433938 0
M  V30 1734 C 176.827 1.67756 1.54704 0
M  V30 1735 C 177.805 0.525127 1.53887 0
M  V30 1736 O 178.989 0.749393 1.72963 0
M  V30 1737 C 176.116 1.69424 2.9328 0
M  V30 1738 C 175.162 2.90673 3.12108 0
M  V30 1739 S 175.995 4.51431 2.88046 0
M  V30 1740 C 177.151 4.55849 4.28897 0
M  V30 1741 H 177.384 2.61904 1.40689 0
M  V30 1742 H 174.917 1.41235 0.62386 0
M  V30 1743 H 176.875 1.7107 3.73156 0
M  V30 1744 H 175.536 0.764464 3.04655 0
M  V30 1745 H 174.729 2.88251 4.13434 0
M  V30 1746 H 174.331 2.86786 2.40062 0
M  V30 1747 H 176.623 4.31699 5.22152 0
M  V30 1748 H 177.566 5.57676 4.36351 0
M  V30 1749 H 177.974 3.85137 4.12711 0
M  V30 1750 N 177.372 -0.689602 1.41712 0
M  V30 1751 C 178.612 -1.46184 1.42862 0
M  V30 1752 C 178.976 -1.91962 0.0382204 0
M  V30 1753 O 180.177 -2.68694 -0.0755019 0
M  V30 1754 C 178.448 -2.6371 2.4123 0
M  V30 1755 S 180.007 -3.52768 2.6096 0
M  V30 1756 H 176.825 -0.49947 0.506015 0
M  V30 1757 H 179.427 -0.804107 1.78198 0
M  V30 1758 H 178.131 -2.28293 3.41044 0
M  V30 1759 H 177.662 -3.3437 2.07269 0
M  V30 1760 H 179.677 -4.59146 1.88148 0
M  V30 1761 N 178.85 -1.27639 -0.924453 0
M  V30 1762 C 180.08 -1.16819 -1.70402 0
M  V30 1763 C 180.488 0.277191 -1.87158 0
M  V30 1764 O 179.831 1.20025 -1.39067 0
M  V30 1765 C 179.893 -1.78305 -3.12166 0
M  V30 1766 C 179.557 -3.27502 -3.18734 0
M  V30 1767 C 180.554 -4.2409 -3.00738 0
M  V30 1768 C 178.239 -3.68269 -3.4159 0
M  V30 1769 C 180.233 -5.59422 -3.05492 0
M  V30 1770 C 177.92 -5.0373 -3.45977 0
M  V30 1771 C 178.918 -5.99116 -3.27946 0
M  V30 1772 O 178.606 -7.32108 -3.32074 0
M  V30 1773 H 178.338 -0.406931 -0.539799 0
M  V30 1774 H 180.892 -1.69078 -1.16626 0
M  V30 1775 H 179.122 -1.20528 -3.67437 0
M  V30 1776 H 180.811 -1.62154 -3.72103 0
M  V30 1777 H 181.577 -3.93931 -2.82919 0
M  V30 1778 H 177.456 -2.94496 -3.54673 0
M  V30 1779 H 181 -6.33852 -2.91337 0
M  V30 1780 H 176.897 -5.33543 -3.63321 0
M  V30 1781 H 177.665 -7.40598 -3.48507 0
M  V30 1782 N 180.328 1.1314 -1.09713 0
M  V30 1783 C 181.744 1.36477 -0.827423 0
M  V30 1784 C 181.944 1.93654 0.556817 0
M  V30 1785 O 181 2.15791 1.31112 0
M  V30 1786 C 182.313 2.31334 -1.92106 0
M  V30 1787 C 183.861 2.44943 -1.94864 0
M  V30 1788 C 184.336 3.4311 -3.0338 0
M  V30 1789 N 185.827 3.50662 -3.02639 0
M  V30 1790 C 186.562 4.2651 -3.83246 0
M  V30 1791 N 186.058 5.05485 -4.73768 0
M  V30 1792 N 187.851 4.2184 -3.71493 0
M  V30 1793 H 180.002 0.743807 -1.9895 0
M  V30 1794 H 182.265 0.389823 -0.864143 0
M  V30 1795 H 181.971 1.96483 -2.91698 0
M  V30 1796 H 181.845 3.31381 -1.80184 0
M  V30 1797 H 184.232 2.79079 -0.959099 0
M  V30 1798 H 184.313 1.4481 -2.10864 0
M  V30 1799 H 183.957 3.09704 -4.02549 0
M  V30 1800 H 183.887 4.43055 -2.84622 0
M  V30 1801 H 186.378 2.94315 -2.37039 0
M  V30 1802 H 186.691 5.60675 -5.3185 0
M  V30 1803 H 185.036 5.04708 -4.77802 0
M  V30 1804 H 188.227 3.5922 -3.00131 0
M  V30 1805 H 188.4 4.80697 -4.3455 0
M  V30 1806 N 181.806 0.884767 1.30421 0
M  V30 1807 C 183.036 0.517293 2.00019 0
M  V30 1808 C 183.444 -0.898632 1.66497 0
M  V30 1809 O 182.787 -1.60245 0.898181 0
M  V30 1810 C 182.849 0.612025 3.54252 0
M  V30 1811 C 182.513 1.99222 4.1129 0
M  V30 1812 C 183.51 2.9616 4.273 0
M  V30 1813 C 181.195 2.29755 4.46674 0
M  V30 1814 C 183.189 4.21764 4.77906 0
M  V30 1815 C 180.876 3.55606 4.96979 0
M  V30 1816 C 181.874 4.51425 5.12547 0
M  V30 1817 O 181.562 5.75043 5.61766 0
M  V30 1818 H 181.294 0.198529 0.64619 0
M  V30 1819 H 183.848 1.1919 1.67281 0
M  V30 1820 H 182.078 -0.119561 3.86515 0
M  V30 1821 H 183.767 0.255859 4.05093 0
M  V30 1822 H 184.533 2.73882 4.00267 0
M  V30 1823 H 180.412 1.55942 4.33824 0
M  V30 1824 H 183.956 4.96561 4.89972 0
M  V30 1825 H 179.853 3.7772 5.23448 0
M  V30 1826 H 180.621 5.77422 5.80109 0
M  V30 1827 N 183.284 -1.43765 0.645699 0
M  V30 1828 C 184.7 -1.56509 0.312591 0
M  V30 1829 C 184.9 -1.6307 -1.18365 0
M  V30 1830 O 183.956 -1.58167 -1.96824 0
M  V30 1831 C 185.269 -2.82968 1.01733 0
M  V30 1832 C 186.817 -2.96701 0.996865 0
M  V30 1833 C 187.292 -4.25982 1.68236 0
M  V30 1834 N 188.783 -4.32829 1.64964 0
M  V30 1835 C 189.518 -5.31613 2.14885 0
M  V30 1836 N 189.014 -6.36718 2.73061 0
M  V30 1837 N 190.807 -5.23217 2.05428 0
M  V30 1838 H 182.958 -1.3775 1.61675 0
M  V30 1839 H 185.221 -0.661067 0.679481 0
M  V30 1840 H 184.927 -2.84156 2.0724 0
M  V30 1841 H 184.801 -3.72957 0.564177 0
M  V30 1842 H 187.188 -2.95058 -0.0497719 0
M  V30 1843 H 187.269 -2.08022 1.48865 0
M  V30 1844 H 186.913 -4.28386 2.72852 0
M  V30 1845 H 186.843 -5.13545 1.16529 0
M  V30 1846 H 189.334 -3.57493 1.22503 0
M  V30 1847 H 189.647 -7.08401 3.08848 0
M  V30 1848 H 187.992 -6.37362 2.77118 0
M  V30 1849 H 191.183 -4.40019 1.59689 0
M  V30 1850 H 191.356 -6.00045 2.44643 0
M  V30 1851 N 184.763 -0.387143 -1.52771 0
M  V30 1852 C 185.673 0.456442 -2.30117 0
M  V30 1853 C 186.689 1.07342 -1.36944 0
M  V30 1854 O 187.865 1.07971 -1.70013 0
M  V30 1855 C 184.93 1.56957 -3.09136 0
M  V30 1856 C 183.991 0.977916 -4.18014 0
M  V30 1857 C 183.224 2.038 -4.93256 0
M  V30 1858 O 183.447 3.25271 -4.68567 0
M  V30 1859 O 182.381 1.6565 -5.78657 0
M  V30 1860 H 186.207 -0.17359 -3.03203 0
M  V30 1861 H 183.792 -0.150919 -1.48636 0
M  V30 1862 H 185.674 2.21628 -3.58412 0
M  V30 1863 H 184.349 2.18461 -2.38865 0
M  V30 1864 H 183.256 0.294525 -3.72939 0
M  V30 1865 H 184.589 0.407128 -4.90513 0
M  V30 1866 N 186.241 1.57166 -0.116904 0
M  V30 1867 C 187.518 1.86645 0.585049 0
M  V30 1868 C 187.898 1.0177 1.84949 0
M  V30 1869 O 187.246 0.0960379 2.28298 0
M  V30 1870 C 187.456 3.37736 0.879507 0
M  V30 1871 C 188.804 4.06289 1.23348 0
M  V30 1872 O 189.828 3.42743 0.969836 0
M  V30 1873 O 188.687 5.18455 1.7282 0
M  V30 1874 H 185.781 0.772593 0.295007 0
M  V30 1875 H 188.327 1.69025 -0.151249 0
M  V30 1876 H 187.099 3.91296 -0.0166136 0
M  V30 1877 H 186.722 3.6078 1.67103 0
M  V30 1878 N 187.719 -0.156864 1.56817 0
M  V30 1879 C 188.649 -1.19589 2.00551 0
M  V30 1880 C 189.63 -1.4536 0.883426 0
M  V30 1881 O 190.815 -1.56449 1.15054 0
M  V30 1882 C 187.945 -2.53143 2.37773 0
M  V30 1883 C 186.899 -2.41913 3.53075 0
M  V30 1884 C 186.225 -3.80088 3.76081 0
M  V30 1885 C 187.525 -1.91157 4.86062 0
M  V30 1886 H 189.219 -0.832293 2.87599 0
M  V30 1887 H 186.765 -0.398918 1.38364 0
M  V30 1888 H 188.718 -3.26047 2.66967 0
M  V30 1889 H 187.442 -2.91319 1.4765 0
M  V30 1890 H 186.101 -1.71462 3.24031 0
M  V30 1891 H 185.749 -4.15683 2.83225 0
M  V30 1892 H 185.449 -3.73439 4.53671 0
M  V30 1893 H 186.973 -4.54556 4.0769 0
M  V30 1894 H 188.387 -2.53846 5.14038 0
M  V30 1895 H 186.784 -1.95422 5.67389 0
M  V30 1896 H 187.854 -0.866673 4.77092 0
M  V30 1897 N 189.197 -1.51736 -0.425897 0
M  V30 1898 C 190.13 -1.68574 -1.53812 0
M  V30 1899 C 191.108 -0.53328 -1.53606 0
M  V30 1900 O 192.292 -0.758555 -1.72564 0
M  V30 1901 C 189.419 -1.70977 -2.92377 0
M  V30 1902 C 188.465 -2.92324 -3.10563 0
M  V30 1903 S 189.298 -4.52952 -2.85648 0
M  V30 1904 C 190.454 -4.58117 -4.26474 0
M  V30 1905 H 190.687 -2.62647 -1.39298 0
M  V30 1906 H 188.22 -1.41564 -0.616361 0
M  V30 1907 H 190.178 -1.73047 -3.72243 0
M  V30 1908 H 188.839 -0.78061 -3.04245 0
M  V30 1909 H 188.032 -2.90439 -4.11899 0
M  V30 1910 H 187.634 -2.88055 -2.38538 0
M  V30 1911 H 189.926 -4.34462 -5.19855 0
M  V30 1912 H 190.869 -5.59983 -4.33388 0
M  V30 1913 H 191.277 -3.8732 -4.10662 0
M  V30 1914 N 190.675 0.682077 -1.42076 0
M  V30 1915 C 191.638 1.77756 -1.44691 0
M  V30 1916 C 192.638 1.5726 -0.335535 0
M  V30 1917 O 193.828 1.63686 -0.596037 0
M  V30 1918 C 190.96 3.16301 -1.27146 0
M  V30 1919 H 192.153 1.76826 -2.42224 0
M  V30 1920 H 189.706 0.891012 -1.28416 0
M  V30 1921 H 190.441 3.22862 -0.305075 0
M  V30 1922 H 190.226 3.32581 -2.07683 0
M  V30 1923 H 191.716 3.96241 -1.31843 0
M  V30 1924 N 192.153 1.28127 0.917671 0
M  V30 1925 C 193.401 1.14825 1.66312 0
M  V30 1926 C 193.722 -0.304379 1.9261 0
M  V30 1927 O 192.992 -1.21149 1.53947 0
M  V30 1928 H 191.572 0.421953 0.616413 0
M  V30 1929 H 194.234 1.608 1.10134 0
M  V30 1930 H 193.33 1.68489 2.62712 0
M  V30 1931 N 193.631 -1.12557 1.10312 0
M  V30 1932 C 194.88 -1.83395 0.839588 0
M  V30 1933 C 195.193 -1.84939 -0.636929 0
M  V30 1934 O 196.399 -2.51761 -1.01631 0
M  V30 1935 C 194.855 -3.29303 1.45215 0
M  V30 1936 C 194.463 -3.36122 2.96186 0
M  V30 1937 C 196.207 -4.05121 1.26796 0
M  V30 1938 C 194.114 -4.76357 3.50483 0
M  V30 1939 H 193.044 -0.687133 0.310425 0
M  V30 1940 H 195.695 -1.26746 1.32694 0
M  V30 1941 H 194.077 -3.85812 0.892469 0
M  V30 1942 H 195.251 -2.89559 3.58458 0
M  V30 1943 H 193.566 -2.73776 3.13745 0
M  V30 1944 H 196.163 -5.08668 1.64806 0
M  V30 1945 H 196.506 -4.15773 0.209409 0
M  V30 1946 H 197.039 -3.54967 1.79563 0
M  V30 1947 H 193.778 -4.70899 4.55998 0
M  V30 1948 H 193.298 -5.23377 2.92978 0
M  V30 1949 H 194.977 -5.45294 3.48228 0
M  V30 1950 N 195.109 -0.891671 -1.2995 0
M  V30 1951 C 196.358 -0.509521 -1.95158 0
M  V30 1952 C 196.671 0.947388 -1.71125 0
M  V30 1953 O 197.877 1.43669 -2.30372 0
M  V30 1954 C 196.333 -0.860315 -3.49466 0
M  V30 1955 C 195.941 -2.33545 -3.8231 0
M  V30 1956 C 197.685 -0.547687 -4.20952 0
M  V30 1957 C 195.592 -2.62752 -5.29826 0
M  V30 1958 H 194.522 -0.18682 -0.730489 0
M  V30 1959 H 197.173 -1.08756 -1.47798 0
M  V30 1960 H 195.555 -0.211285 -3.95436 0
M  V30 1961 H 196.729 -3.02936 -3.47227 0
M  V30 1962 H 195.044 -2.61629 -3.23944 0
M  V30 1963 H 197.641 -0.742854 -5.29515 0
M  V30 1964 H 197.984 0.51332 -4.13123 0
M  V30 1965 H 198.517 -1.1542 -3.80688 0
M  V30 1966 H 195.256 -3.6762 -5.42712 0
M  V30 1967 H 194.776 -1.97977 -5.66185 0
M  V30 1968 H 196.455 -2.48601 -5.97333 0
M  V30 1969 N 196.587 1.43421 -0.653314 0
M  V30 1970 C 197.836 2.01032 -0.164076 0
M  V30 1971 C 198.149 1.52147 1.22926 0
M  V30 1972 O 199.355 2.02031 1.81371 0
M  V30 1973 C 197.811 3.59082 -0.24252 0
M  V30 1974 C 197.419 4.1696 -1.63855 0
M  V30 1975 C 199.163 4.24079 0.18911 0
M  V30 1976 C 197.07 5.67304 -1.67092 0
M  V30 1977 H 196 0.751798 -0.0575769 0
M  V30 1978 H 198.651 1.6439 -0.815362 0
M  V30 1979 H 197.033 3.93125 0.476276 0
M  V30 1980 H 198.207 3.94416 -2.38271 0
M  V30 1981 H 196.522 3.64335 -2.01616 0
M  V30 1982 H 199.119 5.34381 0.184775 0
M  V30 1983 H 199.462 3.98005 1.22056 0
M  V30 1984 H 199.995 3.94918 -0.477938 0
M  V30 1985 H 196.734 5.98145 -2.68146 0
M  V30 1986 H 196.254 5.91904 -0.970014 0
M  V30 1987 H 197.933 6.31344 -1.4147 0
M  V30 1988 N 198.065 0.39524 1.52563 0
M  V30 1989 C 199.028 -0.425001 2.25225 0
M  V30 1990 C 200.028 -0.985266 1.27079 0
M  V30 1991 O 201.218 -0.866332 1.5113 0
M  V30 1992 C 198.35 -1.59686 3.01186 0
M  V30 1993 H 199.543 0.211233 2.99155 0
M  V30 1994 H 197.096 0.147472 1.55603 0
M  V30 1995 H 197.831 -2.27035 2.31572 0
M  V30 1996 H 197.616 -1.20176 3.73229 0
M  V30 1997 H 199.106 -2.17743 3.5634 0
M  V30 1998 N 199.544 -1.57102 0.125237 0
M  V30 1999 C 200.792 -1.95021 -0.530198 0
M  V30 2000 C 201.113 -1.00982 -1.66816 0
M  V30 2001 O 200.383 -0.0672693 -1.95784 0
M  V30 2002 H 198.963 -0.720046 -0.198853 0
M  V30 2003 H 201.625 -1.93916 0.19564 0
M  V30 2004 H 200.721 -2.98211 -0.920681 0
M  V30 2005 N 201.022 0.148545 -1.56898 0
M  V30 2006 C 202.268 0.857877 -1.84424 0
M  V30 2007 C 202.623 1.7886 -0.709006 0
M  V30 2008 O 201.916 1.89344 0.293139 0
M  V30 2009 C 202.11 1.67064 -3.1595 0
M  V30 2010 C 201.939 0.82011 -4.42159 0
M  V30 2011 C 200.709 0.486328 -5.02954 0
M  V30 2012 C 202.907 0.151155 -5.14078 0
M  V30 2013 N 200.889 -0.377956 -6.12735 0
M  V30 2014 C 202.26 -0.573333 -6.17343 0
M  V30 2015 C 204.315 0.0716685 -4.97848 0
M  V30 2016 C 203.018 -1.3698 -7.06137 0
M  V30 2017 C 205.044 -0.711532 -5.87104 0
M  V30 2018 C 204.406 -1.42431 -6.8985 0
M  V30 2019 H 200.505 0.291798 -0.725519 0
M  V30 2020 H 203.089 0.123347 -1.94309 0
M  V30 2021 H 201.26 2.37642 -3.07215 0
M  V30 2022 H 202.992 2.32302 -3.31388 0
M  V30 2023 H 199.747 0.821753 -4.66416 0
M  V30 2024 H 200.171 -0.801077 -6.72244 0
M  V30 2025 H 204.813 0.608381 -4.184 0
M  V30 2026 H 202.531 -1.91778 -7.85014 0
M  V30 2027 H 206.117 -0.775005 -5.76615 0
M  V30 2028 H 204.997 -2.02061 -7.57721 0
M  V30 2029 N 202.5 1.5196 0.417844 0
M  V30 2030 C 203.777 1.56146 1.17803 0
M  V30 2031 C 204.157 0.337275 2.08388 0
M  V30 2032 O 203.505 -0.676447 2.18258 0
M  V30 2033 C 203.715 2.88566 1.96293 0
M  V30 2034 C 205.063 3.41244 2.52662 0
M  V30 2035 O 206.087 2.90247 2.06483 0
M  V30 2036 O 204.946 4.30273 3.36938 0
M  V30 2037 H 202.04 0.628598 0.537395 0
M  V30 2038 H 204.586 1.64283 0.425331 0
M  V30 2039 H 203.358 3.69116 1.2988 0
M  V30 2040 H 202.981 2.83681 2.78587 0
M  V30 2041 N 203.978 -0.674533 1.42435 0
M  V30 2042 C 205.389 -1.25514 1.38214 0
M  V30 2043 C 205.74 -1.96055 0.0755464 0
M  V30 2044 O 204.865 -2.00028 -0.8257 0
M  V30 2045 C 205.46 -2.28269 2.50357 0
M  V30 2046 C 204.019 -2.81856 2.49467 0
M  V30 2047 C 203.166 -1.56182 2.29134 0
M  V30 2048 H 206.117 -0.467902 1.51646 0
M  V30 2049 H 206.138 -3.10009 2.20624 0
M  V30 2050 H 205.65 -1.769 3.45439 0
M  V30 2051 H 203.751 -3.37346 1.58204 0
M  V30 2052 H 203.864 -3.30854 3.46515 0
M  V30 2053 H 202.228 -1.82761 1.774 0
M  V30 2054 H 203.011 -1.06778 3.26272 0
M  V30 2055 N 205.456 -1.28612 -0.910864 0
M  V30 2056 C 206.388 -1.08589 -2.01844 0
M  V30 2057 C 207.401 -0.0367419 -1.62759 0
M  V30 2058 O 208.59 -0.280101 -1.76289 0
M  V30 2059 C 205.69 -0.628626 -3.33019 0
M  V30 2060 C 204.863 -1.75382 -4.00699 0
M  V30 2061 C 203.922 -1.28945 -5.10156 0
M  V30 2062 O 202.948 -1.9922 -5.33198 0
M  V30 2063 N 204.15 -0.154224 -5.80295 0
M  V30 2064 H 206.915 -2.03973 -2.19579 0
M  V30 2065 H 204.476 -1.20403 -1.08234 0
M  V30 2066 H 206.468 -0.301508 -4.03575 0
M  V30 2067 H 205.038 0.232451 -3.11735 0
M  V30 2068 H 204.258 -2.25039 -3.23653 0
M  V30 2069 H 205.546 -2.50854 -4.42662 0
M  V30 2070 H 204.944 0.43194 -5.64049 0
M  V30 2071 H 203.501 0.113599 -6.51701 0
M  V30 2072 N 206.934 1.1197 -1.10907 0
M  V30 2073 C 207.844 2.21433 -0.774896 0
M  V30 2074 C 208.86 1.72478 0.229657 0
M  V30 2075 O 210.036 2.01288 0.0672008 0
M  V30 2076 C 207.101 3.4602 -0.216986 0
M  V30 2077 C 206.162 4.09791 -1.27944 0
M  V30 2078 C 205.395 5.28431 -0.748055 0
M  V30 2079 O 205.618 5.68823 0.423833 0
M  V30 2080 O 204.552 5.82644 -1.51027 0
M  V30 2081 H 208.378 2.5242 -1.68873 0
M  V30 2082 H 205.963 1.20399 -0.884555 0
M  V30 2083 H 207.845 4.21304 0.090059 0
M  V30 2084 H 206.52 3.16698 0.669633 0
M  V30 2085 H 205.427 3.36265 -1.63941 0
M  V30 2086 H 206.76 4.4328 -2.13925 0
M  V30 2087 N 208.412 0.89855 1.29475 0
M  V30 2088 C 209.66 0.522847 1.9522 0
M  V30 2089 C 209.981 -0.93371 1.71192 0
M  V30 2090 O 209.251 -1.65823 1.04305 0
M  V30 2091 H 207.831 0.190366 0.722336 0
M  V30 2092 H 210.493 1.14459 1.5775 0
M  V30 2093 H 209.589 0.704476 3.04045 0
M  V30 2094 N 209.89 -1.43072 0.660911 0
M  V30 2095 C 211.138 -2.01323 0.177094 0
M  V30 2096 C 211.459 -1.5245 -1.2159 0
M  V30 2097 O 210.729 -0.740322 -1.81373 0
M  V30 2098 H 209.309 -0.744382 0.0624804 0
M  V30 2099 H 211.971 -1.75179 0.854305 0
M  V30 2100 H 211.067 -3.11649 0.167641 0
M  V30 2101 N 211.368 -0.403325 -1.52352 0
M  V30 2102 C 212.3 0.4603 -2.2453 0
M  V30 2103 C 213.313 1.01505 -1.27282 0
M  V30 2104 O 214.502 0.914982 -1.53266 0
M  V30 2105 C 211.602 1.65208 -2.95905 0
M  V30 2106 C 210.775 1.22224 -4.19976 0
M  V30 2107 C 209.834 2.28028 -4.74226 0
M  V30 2108 O 208.86 1.88857 -5.36956 0
M  V30 2109 N 210.062 3.6012 -4.55295 0
M  V30 2110 H 212.827 -0.158156 -2.99282 0
M  V30 2111 H 210.388 -0.230402 -1.60252 0
M  V30 2112 H 212.38 2.35541 -3.29093 0
M  V30 2113 H 210.95 2.17658 -2.24374 0
M  V30 2114 H 210.17 0.34725 -3.92668 0
M  V30 2115 H 211.458 0.911924 -5.00561 0
M  V30 2116 H 210.856 3.94698 -4.05253 0
M  V30 2117 H 209.413 4.26447 -4.92936 0
M  V30 2118 N 212.846 1.57033 -0.133567 0
M  V30 2119 C 214.092 1.95976 0.521649 0
M  V30 2120 C 214.425 1.01779 1.65393 0
M  V30 2121 O 213.7 0.0576581 1.94415 0
M  V30 2122 C 213.983 3.44738 1.04057 0
M  V30 2123 C 213.836 4.49711 -0.0892897 0
M  V30 2124 C 215.155 3.95682 1.92675 0
M  V30 2125 H 212.274 0.712579 0.188149 0
M  V30 2126 H 214.916 1.88813 -0.212076 0
M  V30 2127 H 213.066 3.50973 1.66583 0
M  V30 2128 H 214.738 4.55565 -0.725152 0
M  V30 2129 H 212.981 4.27261 -0.750378 0
M  V30 2130 H 213.652 5.51099 0.315284 0
M  V30 2131 H 216.128 3.91841 1.39998 0
M  V30 2132 H 215.004 5.00262 2.25897 0
M  V30 2133 H 215.265 3.37239 2.85872 0
M  V30 2134 N 214.325 -0.140222 1.56975 0
M  V30 2135 C 215.555 -0.865181 1.87612 0
M  V30 2136 C 215.963 -1.74942 0.72055 0
M  V30 2137 O 215.306 -1.80917 -0.318561 0
M  V30 2138 C 215.368 -1.76782 3.13031 0
M  V30 2139 C 215.032 -1.06005 4.44536 0
M  V30 2140 C 216.029 -0.410768 5.18275 0
M  V30 2141 C 213.714 -1.04754 4.91255 0
M  V30 2142 C 215.708 0.241572 6.36942 0
M  V30 2143 C 213.395 -0.391394 6.09845 0
M  V30 2144 C 214.393 0.252029 6.82535 0
M  V30 2145 O 214.081 0.897757 7.98871 0
M  V30 2146 H 213.813 -0.255188 0.625983 0
M  V30 2147 H 216.367 -0.135653 2.04952 0
M  V30 2148 H 214.597 -2.53846 2.91718 0
M  V30 2149 H 216.286 -2.36533 3.29859 0
M  V30 2150 H 217.052 -0.412195 4.83245 0
M  V30 2151 H 212.931 -1.53777 4.34596 0
M  V30 2152 H 216.475 0.744375 6.93617 0
M  V30 2153 H 212.372 -0.387656 6.44335 0
M  V30 2154 H 213.14 0.800102 8.1458 0
M  V30 2155 N 215.803 -1.52179 -0.40978 0
M  V30 2156 C 217.028 -1.70347 -1.18308 0
M  V30 2157 C 217.453 -0.411887 -1.83535 0
M  V30 2158 O 216.811 0.630587 -1.6998 0
M  V30 2159 C 216.859 -2.83977 -2.22238 0
M  V30 2160 O 215.963 -2.495 -3.28365 0
M  V30 2161 H 215.304 -0.567103 -0.345384 0
M  V30 2162 H 217.834 -1.98879 -0.480445 0
M  V30 2163 H 217.844 -3.0887 -2.66577 0
M  V30 2164 H 216.519 -3.77685 -1.74146 0
M  V30 2165 H 215.096 -2.35277 -2.89308 0
M  V30 2166 N 217.281 0.66697 -1.42791 0
M  V30 2167 C 218.527 1.4291 -1.43891 0
M  V30 2168 C 218.86 1.94114 -0.0578972 0
M  V30 2169 O 218.135 1.71414 0.91911 0
M  V30 2170 C 218.418 2.62049 -2.46987 0
M  V30 2171 C 218.271 2.16426 -3.94309 0
M  V30 2172 C 219.59 3.64266 -2.46978 0
M  V30 2173 H 216.709 0.518306 -0.523954 0
M  V30 2174 H 219.351 0.757321 -1.74255 0
M  V30 2175 H 217.501 3.19361 -2.21225 0
M  V30 2176 H 219.173 1.64221 -4.31079 0
M  V30 2177 H 217.416 1.47925 -4.078 0
M  V30 2178 H 218.087 3.02038 -4.62036 0
M  V30 2179 H 220.563 3.16686 -2.69906 0
M  V30 2180 H 219.439 4.45196 -3.21079 0
M  V30 2181 H 219.7 4.15927 -1.49857 0
M  V30 2182 N 218.759 1.29093 0.90403 0
M  V30 2183 C 220.17 1.15186 1.46932 0
M  V30 2184 C 220.521 -0.254587 1.94541 0
M  V30 2185 O 219.646 -1.14972 1.83332 0
M  V30 2186 C 220.241 2.08492 2.67051 0
M  V30 2187 C 218.8 1.98621 3.19729 0
M  V30 2188 C 217.947 1.9967 1.92425 0
M  V30 2189 H 220.898 1.41641 0.715789 0
M  V30 2190 H 220.919 1.65461 3.42641 0
M  V30 2191 H 220.431 3.10847 2.3237 0
M  V30 2192 H 218.532 0.993389 3.59114 0
M  V30 2193 H 218.645 2.86068 3.8432 0
M  V30 2194 H 217.009 1.44208 2.09943 0
M  V30 2195 H 217.792 3.03721 1.60026 0
M  V30 2196 N 220.237 -1.11381 1.11499 0
M  V30 2197 C 221.17 -2.16621 0.71769 0
M  V30 2198 C 222.148 -1.60058 -0.286413 0
M  V30 2199 O 223.332 -1.87613 -0.182689 0
M  V30 2200 C 220.459 -3.38646 0.0607265 0
M  V30 2201 C 219.505 -4.13874 1.03008 0
M  V30 2202 S 220.338 -4.70731 2.55289 0
M  V30 2203 C 221.494 -5.96079 1.90895 0
M  V30 2204 H 221.727 -2.49987 1.60915 0
M  V30 2205 H 219.26 -1.23015 0.933092 0
M  V30 2206 H 221.218 -4.09313 -0.311965 0
M  V30 2207 H 219.879 -3.03537 -0.807702 0
M  V30 2208 H 219.072 -5.01333 0.517853 0
M  V30 2209 H 218.674 -3.4897 1.34522 0
M  V30 2210 H 220.966 -6.65948 1.24577 0
M  V30 2211 H 221.909 -6.51946 2.76354 0
M  V30 2212 H 222.317 -5.47652 1.36885 0
M  V30 2213 N 221.715 -0.905404 -1.28997 0
M  V30 2214 C 222.963 -0.533192 -1.9494 0
M  V30 2215 C 223.284 0.924618 -1.71685 0
M  V30 2216 O 222.554 1.65268 -1.05183 0
M  V30 2217 H 221.134 -0.194194 -0.721317 0
M  V30 2218 H 223.796 -1.15294 -1.57141 0
M  V30 2219 H 222.892 -0.72059 -3.03667 0
M  V30 2220 N 223.193 1.4272 -0.668489 0
M  V30 2221 C 224.441 2.01226 -0.187769 0
M  V30 2222 C 224.762 1.53092 1.2078 0
M  V30 2223 O 224.032 0.74993 1.80977 0
M  V30 2224 H 222.612 0.744041 -0.0664272 0
M  V30 2225 H 225.274 1.74723 -0.863583 0
M  V30 2226 H 224.37 3.11556 -0.184166 0
M  V30 2227 N 224.671 0.411399 1.52136 0
M  V30 2228 C 225.604 -0.457614 2.23565 0
M  V30 2229 C 226.582 -1.04613 1.24478 0
M  V30 2230 O 227.766 -1.09356 1.53536 0
M  V30 2231 C 224.893 -1.6354 2.96602 0
M  V30 2232 C 223.939 -1.17005 4.10137 0
M  V30 2233 S 224.772 -0.13333 5.35334 0
M  V30 2234 C 225.928 -1.31638 6.119 0
M  V30 2235 H 226.161 0.148883 2.96927 0
M  V30 2236 H 223.694 0.195713 1.53155 0
M  V30 2237 H 225.652 -2.31074 3.39286 0
M  V30 2238 H 224.313 -2.21324 2.22878 0
M  V30 2239 H 223.506 -2.05005 4.60422 0
M  V30 2240 H 223.108 -0.573319 3.6958 0
M  V30 2241 H 225.4 -2.23957 6.39413 0
M  V30 2242 H 226.343 -0.854014 7.02931 0
M  V30 2243 H 226.751 -1.54321 5.42997 0
M  V30 2244 N 226.149 -1.5696 0.141893 0
M  V30 2245 C 227.082 -2.12271 -0.837627 0
M  V30 2246 C 228.06 -1.04495 -1.24578 0
M  V30 2247 O 229.244 -1.32293 -1.34278 0
M  V30 2248 C 226.371 -2.63822 -2.12404 0
M  V30 2249 C 225.417 -3.83698 -1.86221 0
M  V30 2250 S 226.25 -5.24948 -1.05781 0
M  V30 2251 C 227.406 -5.79884 -2.35552 0
M  V30 2252 H 227.639 -2.95023 -0.367249 0
M  V30 2253 H 225.172 -1.54231 -0.0723014 0
M  V30 2254 H 227.13 -2.94175 -2.86307 0
M  V30 2255 H 225.791 -1.8121 -2.56557 0
M  V30 2256 H 224.984 -4.17995 -2.81596 0
M  V30 2257 H 224.586 -3.5408 -1.20429 0
M  V30 2258 H 226.878 -5.91005 -3.31239 0
M  V30 2259 H 227.821 -6.77544 -2.05767 0
M  V30 2260 H 228.229 -5.08095 -2.45967 0
M  V30 2261 N 227.627 0.131896 -1.57047 0
M  V30 2262 C 228.873 0.843179 -1.84441 0
M  V30 2263 C 229.206 1.80129 -0.725749 0
M  V30 2264 O 228.481 1.92624 0.269469 0
M  V30 2265 C 228.764 1.60442 -3.22382 0
M  V30 2266 C 228.617 0.666782 -4.4483 0
M  V30 2267 C 229.936 2.56354 -3.5773 0
M  V30 2268 H 227.055 0.305081 -0.670891 0
M  V30 2269 H 229.697 0.107839 -1.89694 0
M  V30 2270 H 227.847 2.23128 -3.18035 0
M  V30 2271 H 229.519 0.0497646 -4.61273 0
M  V30 2272 H 227.762 -0.022609 -4.33794 0
M  V30 2273 H 228.433 1.23579 -5.37989 0
M  V30 2274 H 230.909 2.0378 -3.62785 0
M  V30 2275 H 229.785 3.06657 -4.5525 0
M  V30 2276 H 230.046 3.38419 -2.84473 0
M  V30 2277 N 229.106 1.52395 0.401703 0
M  V30 2278 C 230.522 1.41363 0.740864 0
M  V30 2279 C 230.722 0.523982 1.94568 0
M  V30 2280 O 229.778 -0.00741204 2.52499 0
M  V30 2281 C 231.091 2.84011 0.987847 0
M  V30 2282 C 232.639 2.93404 1.09011 0
M  V30 2283 C 233.114 4.37036 1.3698 0
M  V30 2284 N 234.605 4.40304 1.43829 0
M  V30 2285 C 235.34 5.48508 1.67112 0
M  V30 2286 N 234.836 6.66819 1.87949 0
M  V30 2287 N 236.629 5.36034 1.69187 0
M  V30 2288 H 228.78 2.08765 -0.391262 0
M  V30 2289 H 231.043 0.941265 -0.112798 0
M  V30 2290 H 230.749 3.51265 0.174835 0
M  V30 2291 H 230.623 3.25502 1.906 0
M  V30 2292 H 233.01 2.26325 1.8937 0
M  V30 2293 H 233.091 2.55359 0.15015 0
M  V30 2294 H 232.735 5.04676 0.571353 0
M  V30 2295 H 232.665 4.72623 2.3224 0
M  V30 2296 H 235.156 3.55024 1.29486 0
M  V30 2297 H 235.469 7.45063 2.05185 0
M  V30 2298 H 233.814 6.6987 1.85199 0
M  V30 2299 H 237.005 4.42579 1.52451 0
M  V30 2300 H 237.178 6.20434 1.86993 0
M  V30 2301 N 230.584 -0.659388 1.43143 0
M  V30 2302 C 231.516 -1.7849 1.43784 0
M  V30 2303 C 232.529 -1.5932 0.334787 0
M  V30 2304 O 233.718 -1.68155 0.598842 0
M  V30 2305 C 230.818 -3.15828 1.22906 0
M  V30 2306 C 229.991 -3.61711 2.45934 0
M  V30 2307 C 229.05 -4.77831 2.20371 0
M  V30 2308 O 228.076 -4.87586 2.93681 0
M  V30 2309 N 229.278 -5.67611 1.21647 0
M  V30 2310 H 232.043 -1.7842 2.40803 0
M  V30 2311 H 229.604 -0.84302 1.3822 0
M  V30 2312 H 231.596 -3.91189 1.03697 0
M  V30 2313 H 230.166 -3.10707 0.343542 0
M  V30 2314 H 229.386 -2.76861 2.80609 0
M  V30 2315 H 230.674 -3.89112 3.27825 0
M  V30 2316 H 230.072 -5.62397 0.610449 0
M  V30 2317 H 228.629 -6.42719 1.08423 0
M  V30 2318 N 232.062 -1.29571 -0.897171 0
M  V30 2319 C 233.287 -1.20705 -1.68656 0
M  V30 2320 C 233.712 0.228582 -1.86706 0
M  V30 2321 O 233.07 1.16494 -1.3892 0
M  V30 2322 C 233.118 -1.9282 -3.04717 0
M  V30 2323 O 232.222 -1.24697 -3.93096 0
M  V30 2324 H 231.563 -0.418126 -0.515816 0
M  V30 2325 H 234.093 -1.71183 -1.12061 0
M  V30 2326 H 234.103 -2.01372 -3.54843 0
M  V30 2327 H 232.778 -2.97239 -2.90899 0
M  V30 2328 H 231.355 -1.2442 -3.51531 0
M  V30 2329 N 233.54 1.10788 -1.12088 0
M  V30 2330 C 234.787 1.82671 -0.873931 0
M  V30 2331 C 235.115 1.85004 0.600311 0
M  V30 2332 O 234.37 1.30365 1.45957 0
M  V30 2333 C 234.669 3.29294 -1.38926 0
M  V30 2334 C 234.335 3.47113 -2.87791 0
M  V30 2335 C 232.997 3.51684 -3.28439 0
M  V30 2336 C 235.349 3.52808 -3.83635 0
M  V30 2337 C 232.677 3.59513 -4.63646 0
M  V30 2338 C 235.029 3.62169 -5.18668 0
M  V30 2339 C 233.693 3.65003 -5.58864 0
M  V30 2340 H 232.963 0.668441 -0.319794 0
M  V30 2341 H 235.61 1.30613 -1.40045 0
M  V30 2342 H 233.915 3.83894 -0.783122 0
M  V30 2343 H 235.612 3.83416 -1.17443 0
M  V30 2344 H 232.202 3.4423 -2.5535 0
M  V30 2345 H 236.386 3.4853 -3.53328 0
M  V30 2346 H 231.642 3.59987 -4.94185 0
M  V30 2347 H 235.816 3.6552 -5.92763 0
M  V30 2348 H 233.443 3.70822 -6.63623 0
M  V30 2349 N 235.018 0.912232 1.28515 0
M  V30 2350 C 235.981 0.404223 2.25607 0
M  V30 2351 C 236.981 -0.468602 1.53821 0
M  V30 2352 O 238.171 -0.271873 1.72065 0
M  V30 2353 C 235.303 -0.420653 3.38295 0
M  V30 2354 H 236.496 1.26188 2.7206 0
M  V30 2355 H 234.049 0.691495 1.40171 0
M  V30 2356 H 234.784 -1.29777 2.97201 0
M  V30 2357 H 234.569 0.204935 3.91564 0
M  V30 2358 H 236.059 -0.766971 4.10496 0
M  V30 2359 N 236.496 -1.42363 0.676048 0
M  V30 2360 C 237.745 -2.00745 0.196037 0
M  V30 2361 C 238.058 -1.54083 -1.20489 0
M  V30 2362 O 239.264 -2.04891 -1.78134 0
M  V30 2363 C 237.72 -3.58651 0.299616 0
M  V30 2364 C 237.328 -4.143 1.70468 0
M  V30 2365 C 239.072 -4.24326 -0.121619 0
M  V30 2366 C 236.979 -5.64574 1.76096 0
M  V30 2367 H 235.909 -0.750787 0.0695301 0
M  V30 2368 H 238.56 -1.63072 0.841412 0
M  V30 2369 H 236.942 -3.93833 -0.413673 0
M  V30 2370 H 238.116 -3.90575 2.44515 0
M  V30 2371 H 236.431 -3.61081 2.07387 0
M  V30 2372 H 239.028 -5.34607 -0.0997362 0
M  V30 2373 H 239.371 -3.99897 -1.15708 0
M  V30 2374 H 239.904 -3.94108 0.540706 0
M  V30 2375 H 236.643 -5.93804 2.77628 0
M  V30 2376 H 236.163 -5.90286 1.06406 0
M  V30 2377 H 237.842 -6.29013 1.51496 0
M  V30 2378 N 237.974 -0.419461 -1.51915 0
M  V30 2379 C 239.222 0.152637 -2.01523 0
M  V30 2380 C 239.543 1.44762 -1.30649 0
M  V30 2381 O 238.813 1.90997 -0.435535 0
M  V30 2382 H 237.393 0.0593966 -0.744635 0
M  V30 2383 H 240.055 -0.558073 -1.86739 0
M  V30 2384 H 239.151 0.341369 -3.10227 0
M  V30 2385 N 239.452 1.56882 -0.150215 0
M  V30 2386 C 240.7 1.9584 0.499105 0
M  V30 2387 C 241.021 1.03623 1.65188 0
M  V30 2388 O 240.291 0.0984084 1.95653 0
M  V30 2389 H 238.871 0.723119 0.187373 0
M  V30 2390 H 241.533 1.9358 -0.226466 0
M  V30 2391 H 240.629 2.99638 0.873122 0
M  V30 2392 N 240.93 -0.123565 1.57115 0
M  V30 2393 C 242.155 -0.850398 1.89164 0
M  V30 2394 C 242.58 -1.7286 0.741688 0
M  V30 2395 O 241.938 -1.78665 -0.307958 0
M  V30 2396 C 241.986 -1.66353 3.19936 0
M  V30 2397 O 241.09 -2.77004 3.0552 0
M  V30 2398 H 240.431 -0.235454 0.620852 0
M  V30 2399 H 242.961 -0.107335 2.04318 0
M  V30 2400 H 242.971 -2.05372 3.52543 0
M  V30 2401 H 241.646 -1.01881 4.03228 0
M  V30 2402 H 240.223 -2.41221 2.84371 0
M  V30 2403 N 242.408 -1.52605 -0.393616 0
M  V30 2404 C 243.656 -1.67093 -1.13685 0
M  V30 2405 C 243.977 -0.411011 -1.90619 0
M  V30 2406 O 243.247 0.574491 -1.87287 0
M  V30 2407 H 241.827 -0.615923 -0.422668 0
M  V30 2408 H 244.489 -1.89704 -0.447039 0
M  V30 2409 H 243.585 -2.51922 -1.84232 0
M  V30 2410 N 243.887 0.651787 -1.4349 0
M  V30 2411 C 245.112 1.44434 -1.48841 0
M  V30 2412 C 245.537 1.8779 -0.107955 0
M  V30 2413 O 244.895 1.57464 0.898602 0
M  V30 2414 C 244.943 2.65458 -2.44059 0
M  V30 2415 O 244.047 3.64566 -1.92784 0
M  V30 2416 H 243.388 0.433005 -0.503391 0
M  V30 2417 H 245.918 0.797451 -1.88419 0
M  V30 2418 H 245.928 3.13255 -2.6141 0
M  V30 2419 H 244.603 2.33244 -3.4434 0
M  V30 2420 H 243.18 3.23716 -1.851 0
M  V30 2421 N 245.365 1.30045 0.890287 0
M  V30 2422 C 246.59 1.21598 1.68014 0
M  V30 2423 C 247.015 -0.218678 1.86825 0
M  V30 2424 O 246.373 -1.15756 1.39536 0
M  V30 2425 C 246.421 1.94434 3.03691 0
M  V30 2426 O 245.525 1.2678 3.92429 0
M  V30 2427 H 244.866 0.420856 0.513592 0
M  V30 2428 H 247.396 1.71775 1.11151 0
M  V30 2429 H 247.406 2.03251 3.5377 0
M  V30 2430 H 246.081 2.98777 2.89318 0
M  V30 2431 H 244.658 1.26282 3.50866 0
M  V30 2432 N 246.843 -1.10192 1.12674 0
M  V30 2433 C 248.073 -1.85713 0.905213 0
M  V30 2434 C 248.481 -1.81056 -0.549108 0
M  V30 2435 O 247.824 -1.19927 -1.39151 0
M  V30 2436 C 247.886 -3.34972 1.30516 0
M  V30 2437 C 247.55 -3.63385 2.77129 0
M  V30 2438 C 248.547 -3.59772 3.75313 0
M  V30 2439 C 246.232 -3.91981 3.14096 0
M  V30 2440 C 248.226 -3.84354 5.08479 0
M  V30 2441 C 245.913 -4.16218 4.47443 0
M  V30 2442 C 246.911 -4.12395 5.44444 0
M  V30 2443 O 246.599 -4.36014 6.75387 0
M  V30 2444 H 246.331 -0.593719 0.323223 0
M  V30 2445 H 248.885 -1.40198 1.50112 0
M  V30 2446 H 247.115 -3.81156 0.652463 0
M  V30 2447 H 248.804 -3.91886 1.05736 0
M  V30 2448 H 249.57 -3.37716 3.48099 0
M  V30 2449 H 245.449 -3.94085 2.39202 0
M  V30 2450 H 248.993 -3.81285 5.84181 0
M  V30 2451 H 244.89 -4.37754 4.74386 0
M  V30 2452 H 245.658 -4.53516 6.8137 0
M  V30 2453 N 248.321 -0.919034 -1.28029 0
M  V30 2454 C 249.57 -0.550802 -1.94034 0
M  V30 2455 C 249.883 0.910877 -1.73096 0
M  V30 2456 O 251.089 1.3875 -2.33368 0
M  V30 2457 C 249.545 -0.934249 -3.47563 0
M  V30 2458 C 249.153 -2.41602 -3.7727 0
M  V30 2459 C 250.897 -0.636854 -4.19696 0
M  V30 2460 C 248.804 -2.73932 -5.24133 0
M  V30 2461 H 247.734 -0.202273 -0.726362 0
M  V30 2462 H 250.385 -1.11867 -1.45458 0
M  V30 2463 H 248.767 -0.295115 -3.94899 0
M  V30 2464 H 249.941 -3.10233 -3.40723 0
M  V30 2465 H 248.256 -2.68441 -3.18321 0
M  V30 2466 H 250.853 -0.855005 -5.2782 0
M  V30 2467 H 251.196 0.425575 -4.14119 0
M  V30 2468 H 251.729 -1.23469 -3.78154 0
M  V30 2469 H 248.468 -3.79049 -5.34792 0
M  V30 2470 H 247.988 -2.09942 -5.61858 0
M  V30 2471 H 249.667 -2.61215 -5.91925 0
M  V30 2472 N 249.799 1.42003 -0.683588 0
M  V30 2473 C 251.029 2.05448 -0.217866 0
M  V30 2474 C 251.437 1.51491 1.13346 0
M  V30 2475 O 250.78 0.653048 1.717 0
M  V30 2476 C 250.842 3.59399 -0.0850118 0
M  V30 2477 C 250.506 4.36093 -1.36645 0
M  V30 2478 C 251.503 4.66169 -2.30179 0
M  V30 2479 C 249.188 4.75578 -1.61649 0
M  V30 2480 C 251.182 5.34676 -3.46988 0
M  V30 2481 C 248.869 5.43824 -2.78745 0
M  V30 2482 C 249.867 5.73299 -3.71238 0
M  V30 2483 O 249.555 6.40142 -4.86285 0
M  V30 2484 H 249.287 0.668344 -0.101454 0
M  V30 2485 H 251.841 1.82974 -0.933248 0
M  V30 2486 H 250.071 3.80566 0.686031 0
M  V30 2487 H 251.76 4.04457 0.341973 0
M  V30 2488 H 252.526 4.36156 -2.12115 0
M  V30 2489 H 248.405 4.52025 -0.905243 0
M  V30 2490 H 251.949 5.57599 -4.19201 0
M  V30 2491 H 247.846 5.73254 -2.96732 0
M  V30 2492 H 248.614 6.58636 -4.85944 0
M  V30 2493 N 251.277 0.427512 1.51691 0
M  V30 2494 C 252.525 -0.141948 2.01601 0
M  V30 2495 C 252.846 -1.44067 1.31414 0
M  V30 2496 O 252.116 -1.90763 0.445658 0
M  V30 2497 H 250.696 -0.0554468 0.744939 0
M  V30 2498 H 253.358 0.567968 1.86441 0
M  V30 2499 H 252.454 -0.324913 3.10404 0
M  V30 2500 N 252.755 -1.56801 0.158532 0
M  V30 2501 C 253.985 -2.00568 -0.495583 0
M  V30 2502 C 254.393 -1.03774 -1.58201 0
M  V30 2503 O 253.736 -0.0285797 -1.83678 0
M  V30 2504 C 253.798 -3.40768 -1.14532 0
M  V30 2505 C 253.462 -4.56553 -0.202101 0
M  V30 2506 C 254.459 -5.16714 0.574675 0
M  V30 2507 C 252.144 -5.02197 -0.101648 0
M  V30 2508 C 254.138 -6.20939 1.43924 0
M  V30 2509 C 251.825 -6.06274 0.766508 0
M  V30 2510 C 252.823 -6.65515 1.53555 0
M  V30 2511 O 252.511 -7.67575 2.38922 0
M  V30 2512 H 252.243 -0.662893 -0.13247 0
M  V30 2513 H 254.797 -2.03829 0.253559 0
M  V30 2514 H 253.027 -3.34381 -1.94233 0
M  V30 2515 H 254.716 -3.6857 -1.70033 0
M  V30 2516 H 255.482 -4.82341 0.507167 0
M  V30 2517 H 251.361 -4.55807 -0.689994 0
M  V30 2518 H 254.905 -6.67107 2.03996 0
M  V30 2519 H 250.802 -6.40073 0.835266 0
M  V30 2520 H 251.57 -7.84844 2.32296 0
M  V30 2521 N 254.233 0.115231 -1.57178 0
M  V30 2522 C 255.479 0.82357 -1.85325 0
M  V30 2523 C 255.812 1.79349 -0.744814 0
M  V30 2524 O 255.087 1.92899 0.249024 0
M  V30 2525 C 255.37 1.57014 -3.24066 0
M  V30 2526 C 255.223 0.619565 -4.45513 0
M  V30 2527 C 256.542 2.52545 -3.60429 0
M  V30 2528 H 253.661 0.297948 -0.674089 0
M  V30 2529 H 256.303 0.0877138 -1.89797 0
M  V30 2530 H 254.453 2.19742 -3.20383 0
M  V30 2531 H 256.125 0.000837639 -4.613 0
M  V30 2532 H 254.368 -0.0686174 -4.33746 0
M  V30 2533 H 255.039 1.17866 -5.3927 0
M  V30 2534 H 257.515 1.9992 -3.64926 0
M  V30 2535 H 256.391 3.01811 -4.58477 0
M  V30 2536 H 256.652 3.35383 -2.88047 0
M  V30 2537 N 255.711 1.52812 0.385517 0
M  V30 2538 C 256.988 1.5861 1.14465 0
M  V30 2539 C 257.368 0.381402 2.07626 0
M  V30 2540 O 256.716 -0.629999 2.19643 0
M  V30 2541 C 256.926 2.92664 1.90128 0
M  V30 2542 C 258.274 3.46526 2.45367 0
M  V30 2543 O 259.298 2.94562 2.0028 0
M  V30 2544 O 258.157 4.37323 3.27736 0
M  V30 2545 H 255.251 0.639855 0.523941 0
M  V30 2546 H 257.797 1.65149 0.390389 0
M  V30 2547 H 256.569 3.71788 1.22022 0
M  V30 2548 H 256.192 2.89527 2.72507 0
M  V30 2549 N 257.189 -0.644168 1.43834 0
M  V30 2550 C 258.152 -1.73857 1.49353 0
M  V30 2551 C 259.152 -1.56315 0.377112 0
M  V30 2552 O 260.342 -1.62048 0.639226 0
M  V30 2553 C 257.474 -3.12819 1.35488 0
M  V30 2554 H 258.667 -1.70342 2.46827 0
M  V30 2555 H 256.22 -0.856652 1.30733 0
M  V30 2556 H 256.955 -3.2194 0.390569 0
M  V30 2557 H 256.74 -3.26958 2.16428 0
M  V30 2558 H 258.23 -3.92606 1.42302 0
M  V30 2559 N 258.668 -1.30515 -0.883378 0
M  V30 2560 C 259.896 -1.22359 -1.66841 0
M  V30 2561 C 260.311 0.213296 -1.87591 0
M  V30 2562 O 259.668 1.14075 -1.42454 0
M  V30 2563 C 259.719 -1.95011 -3.04389 0
M  V30 2564 O 259.44 -3.3309 -2.84575 0
M  V30 2565 C 260.941 -1.93532 -3.98824 0
M  V30 2566 H 258.161 -0.423371 -0.520575 0
M  V30 2567 H 260.705 -1.72167 -1.10357 0
M  V30 2568 H 258.86 -1.48997 -3.57601 0
M  V30 2569 H 259.274 -3.69907 -3.71846 0
M  V30 2570 H 260.748 -2.48902 -4.92699 0
M  V30 2571 H 261.225 -0.914627 -4.29571 0
M  V30 2572 H 261.831 -2.39364 -3.51547 0
M  V30 2573 N 260.146 1.09593 -1.13257 0
M  V30 2574 C 261.376 1.85231 -0.915049 0
M  V30 2575 C 261.784 1.81345 0.539498 0
M  V30 2576 O 261.127 1.20664 1.38513 0
M  V30 2577 C 261.189 3.34275 -1.3229 0
M  V30 2578 C 260.853 3.6191 -2.79052 0
M  V30 2579 C 261.85 3.57777 -3.77216 0
M  V30 2580 C 259.535 3.90309 -3.16171 0
M  V30 2581 C 261.529 3.81652 -5.1051 0
M  V30 2582 C 259.216 4.13839 -4.49644 0
M  V30 2583 C 260.214 4.09502 -5.46623 0
M  V30 2584 O 259.902 4.32426 -6.77689 0
M  V30 2585 H 259.634 0.591997 -0.326367 0
M  V30 2586 H 262.188 1.394 -1.50854 0
M  V30 2587 H 260.418 3.80805 -0.672667 0
M  V30 2588 H 262.107 3.9132 -1.07812 0
M  V30 2589 H 262.873 3.35865 -3.49885 0
M  V30 2590 H 258.752 3.92811 -2.41289 0
M  V30 2591 H 262.296 3.78182 -5.86195 0
M  V30 2592 H 258.193 4.35232 -4.767 0
M  V30 2593 H 258.961 4.49896 -6.83766 0
M  V30 2594 N 261.624 0.925811 1.2754 0
M  V30 2595 C 263.04 0.625767 1.46821 0
M  V30 2596 C 263.24 -0.825506 1.83814 0
M  V30 2597 O 262.296 -1.60356 1.95044 0
M  V30 2598 C 263.609 1.57402 2.56213 0
M  V30 2599 C 265.157 1.58204 2.70075 0
M  V30 2600 C 265.632 2.51721 3.82623 0
M  V30 2601 N 267.123 2.49917 3.89994 0
M  V30 2602 C 267.858 3.18968 4.76494 0
M  V30 2603 N 267.354 3.97391 5.67496 0
M  V30 2604 N 269.147 3.07996 4.70208 0
M  V30 2605 H 261.298 1.86409 1.01811 0
M  V30 2606 H 263.561 0.800213 0.508295 0
M  V30 2607 H 263.267 2.60925 2.35819 0
M  V30 2608 H 263.141 1.31428 3.53563 0
M  V30 2609 H 265.528 0.554124 2.89851 0
M  V30 2610 H 265.609 1.88226 1.73218 0
M  V30 2611 H 265.253 3.54622 3.63601 0
M  V30 2612 H 265.183 2.18996 4.78903 0
M  V30 2613 H 267.674 1.9296 3.24923 0
M  V30 2614 H 267.987 4.4707 6.30356 0
M  V30 2615 H 266.332 4.01495 5.67298 0
M  V30 2616 H 269.523 2.46223 3.9811 0
M  V30 2617 H 269.696 3.6208 5.37403 0
M  V30 2618 N 263.102 -1.41638 0.69111 0
M  V30 2619 C 264.012 -2.34588 0.0233487 0
M  V30 2620 C 265.028 -1.55987 -0.770984 0
M  V30 2621 O 266.204 -1.88486 -0.709569 0
M  V30 2622 C 263.269 -3.34684 -0.904851 0
M  V30 2623 C 262.33 -4.29176 -0.103225 0
M  V30 2624 C 261.563 -5.2449 -0.987216 0
M  V30 2625 O 261.786 -5.2514 -2.22674 0
M  V30 2626 O 260.72 -6.00295 -0.439281 0
M  V30 2627 H 264.546 -2.93261 0.789416 0
M  V30 2628 H 262.131 -1.42417 0.45142 0
M  V30 2629 H 264.013 -3.96133 -1.43724 0
M  V30 2630 H 262.688 -2.78461 -1.65049 0
M  V30 2631 H 261.595 -3.71089 0.473655 0
M  V30 2632 H 262.928 -4.88484 0.60365 0
M  V30 2633 N 264.58 -0.43555 -1.51462 0
M  V30 2634 C 265.828 0.131254 -2.01673 0
M  V30 2635 C 266.149 1.43368 -1.32177 0
M  V30 2636 O 265.419 1.90524 -0.455769 0
M  V30 2637 H 263.999 0.0514954 -0.745223 0
M  V30 2638 H 266.661 -0.577847 -1.86137 0
M  V30 2639 H 265.757 0.308446 -3.10572 0
M  V30 2640 N 266.058 1.56714 -0.166846 0
M  V30 2641 C 266.991 2.13577 0.80375 0
M  V30 2642 C 267.969 1.06464 1.22899 0
M  V30 2643 O 269.153 1.34413 1.32157 0
M  V30 2644 C 266.28 2.67168 2.0818 0
M  V30 2645 C 265.326 3.86612 1.80093 0
M  V30 2646 S 266.159 5.26565 0.97416 0
M  V30 2647 C 267.315 5.83558 2.26297 0
M  V30 2648 H 267.548 2.9557 0.320267 0
M  V30 2649 H 265.081 1.54326 0.0477555 0
M  V30 2650 H 267.039 2.98692 2.8159 0
M  V30 2651 H 265.7 1.85269 2.53642 0
M  V30 2652 H 264.893 4.22422 2.7491 0
M  V30 2653 H 264.495 3.55951 1.14781 0
M  V30 2654 H 266.787 5.962 3.21795 0
M  V30 2655 H 267.73 6.80731 1.94962 0
M  V30 2656 H 268.138 5.11944 2.37853 0
M  V30 2657 N 267.536 -0.106894 1.57237 0
M  V30 2658 C 268.764 -0.826389 1.8968 0
M  V30 2659 C 269.179 -1.72856 0.759353 0
M  V30 2660 O 268.536 -1.80503 -0.269263 0
M  V30 2661 C 268.587 -1.64967 3.21665 0
M  V30 2662 O 268.308 -0.783804 4.31031 0
M  V30 2663 C 269.809 -2.47326 3.67892 0
M  V30 2664 H 267.029 -0.236927 0.627779 0
M  V30 2665 H 269.573 -0.0876593 2.04312 0
M  V30 2666 H 267.728 -2.34103 3.08666 0
M  V30 2667 H 268.142 -1.35284 5.06753 0
M  V30 2668 H 269.616 -3.00604 4.6297 0
M  V30 2669 H 270.093 -3.25247 2.95146 0
M  V30 2670 H 270.699 -1.83411 3.83719 0
M  V30 2671 N 269.014 -1.53014 -0.377408 0
M  V30 2672 C 269.961 -1.78616 -1.46168 0
M  V30 2673 C 270.931 -0.629917 -1.53692 0
M  V30 2674 O 272.116 -0.870861 -1.69766 0
M  V30 2675 C 269.256 -1.97123 -2.8326 0
M  V30 2676 C 268.369 -3.24831 -2.84796 0
M  V30 2677 C 267.504 -3.33591 -4.13389 0
M  V30 2678 C 266.543 -4.55377 -4.09021 0
M  V30 2679 N 265.68 -4.61355 -5.29241 0
M  V30 2680 H 270.52 -2.71142 -1.23637 0
M  V30 2681 H 268.057 -1.34326 -0.599577 0
M  V30 2682 H 270.015 -2.05839 -3.62886 0
M  V30 2683 H 268.645 -1.07946 -3.04216 0
M  V30 2684 H 267.697 -3.25128 -1.97474 0
M  V30 2685 H 269.009 -4.14523 -2.77439 0
M  V30 2686 H 268.163 -3.41554 -5.01424 0
M  V30 2687 H 266.902 -2.41894 -4.23484 0
M  V30 2688 H 265.907 -4.47527 -3.19373 0
M  V30 2689 H 267.132 -5.48402 -4.00539 0
M  V30 2690 H 265.078 -3.72554 -5.39944 0
M  V30 2691 H 264.995 -5.44935 -5.24006 0
M  V30 2692 H 266.263 -4.73586 -6.19141 0
M  V30 2693 N 270.492 0.636531 -1.44174 0
M  V30 2694 C 271.402 1.77754 -1.53103 0
M  V30 2695 C 272.418 1.68928 -0.417034 0
M  V30 2696 O 273.594 1.89801 -0.6736 0
M  V30 2697 C 270.659 3.14115 -1.46741 0
M  V30 2698 C 269.72 3.34612 -2.68948 0
M  V30 2699 C 268.953 4.64467 -2.6288 0
M  V30 2700 O 269.176 5.44919 -1.68581 0
M  V30 2701 O 268.11 4.87049 -3.53648 0
M  V30 2702 H 271.936 1.73174 -2.49489 0
M  V30 2703 H 269.521 0.79709 -1.2636 0
M  V30 2704 H 271.403 3.95412 -1.45696 0
M  V30 2705 H 270.078 3.19249 -0.534975 0
M  V30 2706 H 268.985 2.53014 -2.75562 0
M  V30 2707 H 270.318 3.34336 -3.61221 0
M  V30 2708 N 271.97 1.30982 0.876444 0
M  V30 2709 C 272.88 1.2003 2.01569 0
M  V30 2710 C 273.896 0.11838 1.73597 0
M  V30 2711 O 275.072 0.33495 1.98595 0
M  V30 2712 C 272.137 0.901637 3.34771 0
M  V30 2713 C 271.198 2.06979 3.76109 0
M  V30 2714 C 270.431 1.78529 5.02954 0
M  V30 2715 O 270.654 0.717296 5.65872 0
M  V30 2716 O 269.588 2.64019 5.40905 0
M  V30 2717 H 273.414 2.15753 2.13739 0
M  V30 2718 H 270.999 1.10658 1.00375 0
M  V30 2719 H 272.881 0.750645 4.1466 0
M  V30 2720 H 271.556 -0.0256141 3.2369 0
M  V30 2721 H 270.463 2.27616 2.96887 0
M  V30 2722 H 271.796 2.97907 3.91807 0
M  V30 2723 N 273.449 -1.08991 1.13837 0
M  V30 2724 C 274.689 -1.82867 0.913183 0
M  V30 2725 C 275.053 -1.83936 -0.550604 0
M  V30 2726 O 276.254 -2.53515 -0.893515 0
M  V30 2727 C 274.525 -3.24843 1.49036 0
M  V30 2728 S 276.084 -4.15669 1.40588 0
M  V30 2729 H 272.902 -0.630278 0.329046 0
M  V30 2730 H 275.504 -1.31049 1.45073 0
M  V30 2731 H 274.208 -3.21644 2.54899 0
M  V30 2732 H 273.739 -3.81734 0.950947 0
M  V30 2733 H 275.754 -4.94686 0.387353 0
M  V30 2734 N 274.927 -0.932562 -1.27047 0
M  V30 2735 C 275.857 -0.452902 -2.29066 0
M  V30 2736 C 276.838 0.489338 -1.62909 0
M  V30 2737 O 278.023 0.393046 -1.90181 0
M  V30 2738 C 275.153 0.290698 -3.46081 0
M  V30 2739 C 274.107 -0.564168 -4.24265 0
M  V30 2740 C 273.433 0.308886 -5.33807 0
M  V30 2741 C 274.733 -1.83112 -4.89149 0
M  V30 2742 H 276.427 -1.30552 -2.69437 0
M  V30 2743 H 273.973 -0.629201 -1.29526 0
M  V30 2744 H 275.926 0.637233 -4.16554 0
M  V30 2745 H 274.65 1.17738 -3.0464 0
M  V30 2746 H 273.309 -0.893477 -3.55545 0
M  V30 2747 H 272.957 1.19467 -4.88607 0
M  V30 2748 H 272.657 -0.259633 -5.87026 0
M  V30 2749 H 274.181 0.650884 -6.07121 0
M  V30 2750 H 275.595 -1.55236 -5.51883 0
M  V30 2751 H 273.992 -2.34353 -5.52448 0
M  V30 2752 H 275.062 -2.54772 -4.12576 0
M  V30 2753 N 276.405 1.4127 -0.698611 0
M  V30 2754 C 277.337 2.292 0.00399731 0
M  V30 2755 C 278.35 1.44944 0.741279 0
M  V30 2756 O 279.539 1.68416 0.591477 0
M  V30 2757 C 276.639 3.22875 1.02979 0
M  V30 2758 C 275.812 4.35904 0.36151 0
M  V30 2759 C 274.871 5.10134 1.29033 0
M  V30 2760 O 273.897 5.63809 0.781562 0
M  V30 2761 N 275.099 5.17885 2.6225 0
M  V30 2762 H 277.864 2.9014 -0.750921 0
M  V30 2763 H 275.425 1.52455 -0.544882 0
M  V30 2764 H 277.417 3.69404 1.65296 0
M  V30 2765 H 275.987 2.63221 1.68622 0
M  V30 2766 H 275.207 3.91719 -0.441584 0
M  V30 2767 H 276.495 5.08696 -0.103055 0
M  V30 2768 H 275.893 4.7573 3.061 0
M  V30 2769 H 274.45 5.6798 3.19754 0
M  V30 2770 N 277.883 0.443576 1.51229 0
M  V30 2771 C 279.13 -0.120796 2.02139 0
M  V30 2772 C 279.458 -1.42166 1.32736 0
M  V30 2773 O 278.713 -1.90849 0.43301 0
M  V30 2774 C 279.012 -0.380579 3.55368 0
M  V30 2775 C 278.678 0.83523 4.43097 0
M  V30 2776 C 277.34 1.16864 4.66794 0
M  V30 2777 C 279.692 1.64601 4.94526 0
M  V30 2778 C 277.02 2.31339 5.39165 0
M  V30 2779 C 279.372 2.78181 5.68153 0
M  V30 2780 C 278.036 3.11969 5.90112 0
M  V30 2781 H 277.306 -0.0442023 0.73968 0
M  V30 2782 H 279.953 0.592046 1.82118 0
M  V30 2783 H 278.258 -1.17538 3.73754 0
M  V30 2784 H 279.955 -0.830777 3.923 0
M  V30 2785 H 276.545 0.565437 4.24854 0
M  V30 2786 H 280.729 1.40163 4.76097 0
M  V30 2787 H 275.985 2.57823 5.5438 0
M  V30 2788 H 280.159 3.41371 6.06992 0
M  V30 2789 H 277.786 4.00784 6.45969 0
M  V30 2790 N 279.361 -1.56624 0.175154 0
M  V30 2791 C 280.589 -2.01374 -0.474971 0
M  V30 2792 C 281.004 -1.05537 -1.56548 0
M  V30 2793 O 280.361 -0.0568668 -1.82411 0
M  V30 2794 C 280.412 -3.45923 -1.04975 0
M  V30 2795 O 280.133 -4.381 -0.00276605 0
M  V30 2796 C 281.634 -4.06093 -1.77773 0
M  V30 2797 H 278.854 -0.659962 -0.121206 0
M  V30 2798 H 281.398 -2.02601 0.27801 0
M  V30 2799 H 279.553 -3.45458 -1.75321 0
M  V30 2800 H 279.967 -5.22753 -0.427681 0
M  V30 2801 H 281.441 -5.09147 -2.13245 0
M  V30 2802 H 281.918 -3.48405 -2.67414 0
M  V30 2803 H 282.524 -4.10272 -1.12059 0
M  V30 2804 N 280.839 0.0985539 -1.57292 0
M  V30 2805 C 281.802 1.10402 -2.00858 0
M  V30 2806 C 282.802 1.33146 -0.901593 0
M  V30 2807 O 283.992 1.29318 -1.16716 0
M  V30 2808 C 281.124 2.45394 -2.36632 0
M  V30 2809 H 282.317 0.729099 -2.90902 0
M  V30 2810 H 279.87 0.343495 -1.52479 0
M  V30 2811 H 280.605 2.87769 -1.49531 0
M  V30 2812 H 280.39 2.30235 -3.17387 0
M  V30 2813 H 281.88 3.17718 -2.71007 0
M  V30 2814 N 282.317 1.53212 0.369288 0
M  V30 2815 C 283.265 1.80054 1.47253 0
M  V30 2816 C 284.259 0.669456 1.55611 0
M  V30 2817 O 285.465 0.852328 1.58541 0
M  V30 2818 H 281.84 0.570034 0.490475 0
M  V30 2819 H 283.811 2.72403 1.21817 0
M  V30 2820 C 282.56 2.00403 2.84137 0
M  V30 2821 H 281.883 2.86876 2.78464 0
M  V30 2822 H 283.323 2.23164 3.60519 0
M  V30 2823 C 281.782 0.782081 3.27697 0
M  V30 2824 O 282.312 -0.0310205 4.01688 0
M  V30 2825 N 280.518 0.606573 2.84199 0
M  V30 2826 H 280.065 1.26939 2.24152 0
M  V30 2827 H 280.023 -0.20962 3.137 0
M  V30 2828 N 283.795 -0.628877 1.44509 0
M  V30 2829 C 284.758 -1.72263 1.51188 0
M  V30 2830 C 285.758 -1.55907 0.39367 0
M  V30 2831 O 286.948 -1.61361 0.656377 0
M  V30 2832 C 284.08 -3.11365 1.38798 0
M  V30 2833 H 285.273 -1.67714 2.4862 0
M  V30 2834 H 282.826 -0.842737 1.31634 0
M  V30 2835 H 283.561 -3.21507 0.424693 0
M  V30 2836 H 283.346 -3.24644 2.19884 0
M  V30 2837 H 284.836 -3.91075 1.46458 0
M  V30 2838 N 285.273 -1.31445 -0.869486 0
M  V30 2839 C 286.203 -1.21727 -1.99261 0
M  V30 2840 C 287.184 -0.104359 -1.6978 0
M  V30 2841 O 288.369 -0.289038 -1.92037 0
M  V30 2842 C 285.499 -0.924317 -3.34774 0
M  V30 2843 C 284.453 -1.99685 -3.78563 0
M  V30 2844 C 283.779 -1.55658 -5.11541 0
M  V30 2845 C 285.079 -3.41003 -3.95619 0
M  V30 2846 H 286.773 -2.1569 -2.07649 0
M  V30 2847 H 284.319 -1.03839 -0.997675 0
M  V30 2848 H 286.272 -0.842934 -4.12883 0
M  V30 2849 H 284.996 0.0509793 -3.2656 0
M  V30 2850 H 283.655 -2.06813 -3.02694 0
M  V30 2851 H 283.303 -0.569132 -4.9977 0
M  V30 2852 H 283.003 -2.27409 -5.41811 0
M  V30 2853 H 284.527 -1.48928 -5.92159 0
M  V30 2854 H 285.941 -3.36547 -4.64122 0
M  V30 2855 H 284.338 -4.10975 -4.37286 0
M  V30 2856 H 285.408 -3.81754 -2.98985 0
M  V30 2857 N 286.751 1.08385 -1.14413 0
M  V30 2858 C 287.714 2.13486 -0.834048 0
M  V30 2859 C 288.714 1.59988 0.161418 0
M  V30 2860 O 289.904 1.74071 -0.0669575 0
M  V30 2861 C 287.036 3.4003 -0.243354 0
M  V30 2862 H 288.229 2.42425 -1.7655 0
M  V30 2863 H 285.782 1.24101 -0.950189 0
M  V30 2864 H 286.517 3.16726 0.696807 0
M  V30 2865 H 286.302 3.80157 -0.960367 0
M  V30 2866 H 287.792 4.17577 -0.0436242 0
M  V30 2867 N 288.23 0.939286 1.26551 0
M  V30 2868 C 289.16 0.465044 2.28822 0
M  V30 2869 C 290.141 -0.480692 1.63167 0
M  V30 2870 O 291.326 -0.382955 1.90387 0
M  V30 2871 C 288.456 -0.27234 3.46231 0
M  V30 2872 C 287.41 0.58666 4.2396 0
M  V30 2873 C 286.736 -0.280573 5.33963 0
M  V30 2874 C 288.036 1.85704 4.88171 0
M  V30 2875 H 289.73 1.31979 2.68741 0
M  V30 2876 H 287.276 0.636061 1.29191 0
M  V30 2877 H 289.229 -0.615133 4.16886 0
M  V30 2878 H 287.953 -1.16121 3.0526 0
M  V30 2879 H 286.612 0.91232 3.55067 0
M  V30 2880 H 286.26 -1.16874 4.89234 0
M  V30 2881 H 285.96 0.29076 5.8688 0
M  V30 2882 H 287.484 -0.618678 6.07458 0
M  V30 2883 H 288.898 1.58161 5.51052 0
M  V30 2884 H 287.295 2.37279 5.51197 0
M  V30 2885 H 288.365 2.56957 4.11219 0
M  V30 2886 N 289.708 -1.40897 0.706093 0
M  V30 2887 C 290.671 -2.29131 0.0562841 0
M  V30 2888 C 291.671 -1.44901 -0.697166 0
M  V30 2889 O 292.861 -1.65926 -0.530484 0
M  V30 2890 C 289.993 -3.27957 -0.93043 0
M  V30 2891 H 291.186 -2.88091 0.833284 0
M  V30 2892 H 288.739 -1.4906 0.470192 0
M  V30 2893 H 289.474 -2.73997 -1.73482 0
M  V30 2894 H 289.259 -3.90124 -0.393166 0
M  V30 2895 H 290.749 -3.94049 -1.38256 0
M  V30 2896 N 291.186 -0.45159 -1.50991 0
M  V30 2897 C 292.119 0.398179 -2.24699 0
M  V30 2898 C 293.097 1.01276 -1.27208 0
M  V30 2899 O 294.281 1.05247 -1.56382 0
M  V30 2900 C 291.408 1.55618 -3.00833 0
M  V30 2901 C 290.454 1.0609 -4.13095 0
M  V30 2902 S 291.287 -0.00865136 -5.35499 0
M  V30 2903 C 292.443 1.15369 -6.15175 0
M  V30 2904 H 292.676 -0.227555 -2.96428 0
M  V30 2905 H 290.209 -0.236251 -1.52582 0
M  V30 2906 H 292.167 2.21997 -3.45293 0
M  V30 2907 H 290.828 2.15337 -2.28667 0
M  V30 2908 H 290.021 1.92726 -4.65696 0
M  V30 2909 H 289.623 0.47513 -3.7097 0
M  V30 2910 H 291.915 2.06925 -6.45126 0
M  V30 2911 H 292.858 0.667344 -7.04948 0
M  V30 2912 H 293.266 1.3987 -5.46897 0
M  V30 2913 N 292.664 1.56529 -0.183458 0
M  V30 2914 C 293.574 2.22144 0.754272 0
M  V30 2915 C 294.59 1.21684 1.24374 0
M  V30 2916 O 295.766 1.54385 1.29333 0
M  V30 2917 C 292.831 2.85884 1.96141 0
M  V30 2918 C 291.892 4.01579 1.51765 0
M  V30 2919 C 291.125 4.6227 2.66725 0
M  V30 2920 O 291.348 4.21865 3.83909 0
M  V30 2921 O 290.282 5.51936 2.40104 0
M  V30 2922 H 294.108 3.02861 0.225527 0
M  V30 2923 H 291.693 1.49331 0.0453032 0
M  V30 2924 H 293.575 3.26253 2.66715 0
M  V30 2925 H 292.25 2.08154 2.47899 0
M  V30 2926 H 291.157 3.65856 0.781049 0
M  V30 2927 H 292.49 4.80938 1.04686 0
M  V30 2928 N 294.142 -0.090211 1.57342 0
M  V30 2929 C 295.558 -0.444547 1.53284 0
M  V30 2930 C 295.758 -1.80238 0.900914 0
M  V30 2931 O 294.814 -2.4759 0.495513 0
M  V30 2932 C 296.127 -0.402543 2.97993 0
M  V30 2933 C 297.675 -0.48405 3.09234 0
M  V30 2934 C 298.15 -0.472144 4.5556 0
M  V30 2935 N 299.641 -0.532757 4.60126 0
M  V30 2936 C 300.376 -0.545462 5.708 0
M  V30 2937 N 299.872 -0.514082 6.9089 0
M  V30 2938 N 301.665 -0.59064 5.58988 0
M  V30 2939 H 293.816 0.799121 1.96794 0
M  V30 2940 H 296.079 0.297965 0.899956 0
M  V30 2941 H 295.785 0.528106 3.47712 0
M  V30 2942 H 295.659 -1.21969 3.56936 0
M  V30 2943 H 298.046 -1.40512 2.595 0
M  V30 2944 H 298.127 0.361328 2.53235 0
M  V30 2945 H 297.771 0.445 5.05947 0
M  V30 2946 H 297.701 -1.3348 5.09402 0
M  V30 2947 H 300.192 -0.562006 3.73698 0
M  V30 2948 H 300.505 -0.527195 7.71 0
M  V30 2949 H 298.85 -0.481054 6.93333 0
M  V30 2950 H 302.041 -0.61272 4.64073 0
M  V30 2951 H 302.214 -0.597073 6.45243 0
M  V30 2952 N 295.62 -1.53406 -0.361157 0
M  V30 2953 C 296.897 -1.60411 -1.11927 0
M  V30 2954 C 297.277 -0.414385 -2.06993 0
M  V30 2955 O 296.625 0.594976 -2.20618 0
M  V30 2956 C 296.835 -2.95652 -1.85448 0
M  V30 2957 C 298.183 -3.50386 -2.39823 0
M  V30 2958 O 299.207 -2.97711 -1.95568 0
M  V30 2959 O 298.066 -4.42482 -3.20737 0
M  V30 2960 H 295.16 -0.64811 -0.513695 0
M  V30 2961 H 297.706 -1.65749 -0.364065 0
M  V30 2962 H 296.478 -3.73682 -1.16091 0
M  V30 2963 H 296.101 -2.93825 -2.67866 0
M  V30 2964 N 297.098 0.621204 -1.44841 0
M  V30 2965 C 298.346 1.37783 -1.47852 0
M  V30 2966 C 298.667 1.94653 -0.116224 0
M  V30 2967 O 297.937 1.76367 0.852737 0
M  V30 2968 H 296.517 0.511453 -0.544449 0
M  V30 2969 H 299.179 0.730446 -1.80694 0
M  V30 2970 H 298.275 2.20414 -2.20961 0
M  V30 2971 N 298.576 1.31904 0.862503 0
M  V30 2972 C 299.801 1.25135 1.65397 0
M  V30 2973 C 300.226 -0.179 1.87246 0
M  V30 2974 O 299.584 -1.1277 1.4196 0
M  V30 2975 C 299.632 2.00832 2.99498 0
M  V30 2976 O 298.736 1.35075 3.89652 0
M  V30 2977 H 298.077 0.431655 0.504549 0
M  V30 2978 H 300.607 1.74094 1.07483 0
M  V30 2979 H 300.617 2.10709 3.49379 0
M  V30 2980 H 299.292 3.04847 2.82916 0
M  V30 2981 H 297.869 1.33696 3.48109 0
M  V30 2982 N 300.054 -1.07777 1.14986 0
M  V30 2983 C 301.279 -1.84558 0.946213 0
M  V30 2984 C 301.704 -1.81323 -0.500362 0
M  V30 2985 O 301.062 -1.20301 -1.35637 0
M  V30 2986 C 301.11 -3.29736 1.45968 0
M  V30 2987 O 300.214 -4.07149 0.65601 0
M  V30 2988 H 299.555 -0.571641 0.33782 0
M  V30 2989 H 302.085 -1.35991 1.52865 0
M  V30 2990 H 302.095 -3.80574 1.47063 0
M  V30 2991 H 300.77 -3.31406 2.51283 0
M  V30 2992 H 299.347 -3.65994 0.714322 0
M  V30 2993 N 301.532 -0.945985 -1.26051 0
M  V30 2994 C 302.78 -0.594941 -1.93145 0
M  V30 2995 C 303.101 0.86953 -1.7454 0
M  V30 2996 O 302.371 1.61838 -1.10387 0
M  V30 2997 H 300.951 -0.217044 -0.714773 0
M  V30 2998 H 303.613 -1.20235 -1.53393 0
M  V30 2999 H 302.709 -0.816835 -3.01221 0
M  V30 3000 N 303.011 1.40521 -0.713556 0
M  V30 3001 C 304.259 2.00527 -0.251692 0
M  V30 3002 C 304.58 1.56857 1.15848 0
M  V30 3003 O 303.85 0.807127 1.785 0
M  V30 3004 H 302.43 0.741551 -0.0900646 0
M  V30 3005 H 305.092 1.71887 -0.918733 0
M  V30 3006 H 304.188 3.10813 -0.283192 0
M  V30 3007 N 304.489 0.459591 1.5075 0
M  V30 3008 C 305.735 -0.0994966 2.02556 0
M  V30 3009 C 306.068 -1.40399 1.3417 0
M  V30 3010 O 305.343 -1.88892 0.463683 0
M  V30 3011 C 305.626 -0.295242 3.58888 0
M  V30 3012 C 305.479 1.02947 4.37861 0
M  V30 3013 C 306.798 -1.05502 4.27267 0
M  V30 3014 H 303.917 -0.034686 0.736183 0
M  V30 3015 H 306.559 0.602938 1.8018 0
M  V30 3016 H 304.709 -0.893563 3.78084 0
M  V30 3017 H 306.381 1.66348 4.30263 0
M  V30 3018 H 304.624 1.62885 4.02058 0
M  V30 3019 H 305.295 0.846281 5.45474 0
M  V30 3020 H 307.771 -0.547993 4.12476 0
M  V30 3021 H 306.647 -1.16077 5.36486 0
M  V30 3022 H 306.908 -2.08875 3.89645 0
M  V30 3023 N 305.967 -1.56429 0.191757 0
M  V30 3024 C 307.216 -1.9666 -0.448088 0
M  V30 3025 C 307.529 -1.08136 -1.62991 0
M  V30 3026 O 308.735 -1.38135 -2.33733 0
M  V30 3027 C 307.191 -3.49753 -0.848585 0
M  V30 3028 C 306.799 -4.46935 0.308764 0
M  V30 3029 C 308.543 -3.9876 -1.4557 0
M  V30 3030 C 306.45 -5.91293 -0.112506 0
M  V30 3031 H 305.38 -0.734312 -0.171179 0
M  V30 3032 H 308.031 -1.81301 0.283242 0
M  V30 3033 H 306.413 -3.60604 -1.63649 0
M  V30 3034 H 307.587 -4.47813 1.08627 0
M  V30 3035 H 305.902 -4.08102 0.827158 0
M  V30 3036 H 308.499 -5.04086 -1.78328 0
M  V30 3037 H 308.842 -3.42875 -2.36099 0
M  V30 3038 H 309.375 -3.9101 -0.731836 0
M  V30 3039 H 306.114 -6.51097 0.758514 0
M  V30 3040 H 305.634 -5.93676 -0.854941 0
M  V30 3041 H 307.313 -6.44663 -0.549448 0
M  V30 3042 N 307.445 0.0818655 -1.57387 0
M  V30 3043 C 308.861 0.436412 -1.53517 0
M  V30 3044 C 309.061 1.79758 -0.910459 0
M  V30 3045 O 308.117 2.47324 -0.508636 0
M  V30 3046 C 309.43 0.386734 -2.98203 0
M  V30 3047 C 310.978 0.467644 -3.09487 0
M  V30 3048 C 311.453 0.447978 -4.55804 0
M  V30 3049 N 312.944 0.508348 -4.60402 0
M  V30 3050 C 313.679 0.515184 -5.71081 0
M  V30 3051 N 313.175 0.477435 -6.91153 0
M  V30 3052 N 314.968 0.560988 -5.59294 0
M  V30 3053 H 307.119 -0.809546 -1.96367 0
M  V30 3054 H 309.382 -0.302733 -0.898363 0
M  V30 3055 H 309.088 -0.546539 -3.47427 0
M  V30 3056 H 308.962 1.20075 -3.57578 0
M  V30 3057 H 311.349 1.39134 -2.60242 0
M  V30 3058 H 311.43 -0.374753 -2.5304 0
M  V30 3059 H 311.074 -0.471826 -5.05704 0
M  V30 3060 H 311.004 1.30777 -5.10103 0
M  V30 3061 H 313.495 0.54218 -3.7399 0
M  V30 3062 H 313.808 0.486299 -7.71268 0
M  V30 3063 H 312.153 0.444278 -6.93579 0
M  V30 3064 H 315.344 0.5881 -4.64391 0
M  V30 3065 H 315.517 0.562846 -6.45551 0
M  V30 3066 N 308.923 1.53595 0.353017 0
M  V30 3067 C 309.853 1.83902 1.43883 0
M  V30 3068 C 310.834 0.693421 1.55324 0
M  V30 3069 O 312.019 0.944452 1.69687 0
M  V30 3070 C 309.149 2.04016 2.8106 0
M  V30 3071 C 308.103 3.19814 2.84434 0
M  V30 3072 C 307.429 3.25244 4.24406 0
M  V30 3073 C 308.729 4.58133 2.50822 0
M  V30 3074 H 310.423 2.74835 1.1877 0
M  V30 3075 H 307.969 1.32242 0.569917 0
M  V30 3076 H 309.922 2.238 3.57059 0
M  V30 3077 H 308.646 1.09804 3.07588 0
M  V30 3078 H 307.305 2.9987 2.10887 0
M  V30 3079 H 306.953 2.28646 4.48029 0
M  V30 3080 H 306.653 4.03054 4.27576 0
M  V30 3081 H 308.177 3.47228 5.0226 0
M  V30 3082 H 309.591 4.77995 3.16534 0
M  V30 3083 H 307.988 5.38276 2.6529 0
M  V30 3084 H 309.058 4.62387 1.46034 0
M  V30 3085 N 310.401 -0.613514 1.45168 0
M  V30 3086 C 311.364 -1.7065 1.53007 0
M  V30 3087 C 312.364 -1.5548 0.410184 0
M  V30 3088 O 313.554 -1.60656 0.673455 0
M  V30 3089 C 310.686 -3.09875 1.42093 0
M  V30 3090 H 311.879 -1.65068 2.50385 0
M  V30 3091 H 309.432 -0.828728 1.32521 0
M  V30 3092 H 310.167 -3.21039 0.458769 0
M  V30 3093 H 309.952 -3.22293 2.23315 0
M  V30 3094 H 311.442 -3.895 1.50598 0
M  V30 3095 N 311.879 -1.3236 -0.855495 0
M  V30 3096 C 312.842 -1.21164 -1.94556 0
M  V30 3097 C 313.842 -0.134908 -1.60233 0
M  V30 3098 O 315.032 -0.385249 -1.69887 0
M  V30 3099 C 312.164 -0.863192 -3.29791 0
M  V30 3100 H 313.357 -2.18038 -2.05911 0
M  V30 3101 H 310.91 -1.16179 -1.04557 0
M  V30 3102 H 311.645 0.103769 -3.24134 0
M  V30 3103 H 311.43 -1.64166 -3.56078 0
M  V30 3104 H 312.92 -0.809156 -4.09686 0
M  V30 3105 N 313.357 1.07166 -1.15556 0
M  V30 3106 C 314.606 1.79181 -0.926132 0
M  V30 3107 C 314.919 1.87768 0.547967 0
M  V30 3108 O 316.125 2.56323 0.895036 0
M  V30 3109 C 314.581 3.22 -1.60761 0
M  V30 3110 C 314.189 3.21607 -3.11886 0
M  V30 3111 C 315.933 3.9861 -1.4598 0
M  V30 3112 C 313.84 4.59092 -3.72812 0
M  V30 3113 H 312.77 0.67154 -0.342856 0
M  V30 3114 H 315.421 1.2027 -1.3859 0
M  V30 3115 H 313.803 3.81115 -1.07553 0
M  V30 3116 H 314.977 2.72127 -3.71865 0
M  V30 3117 H 313.292 2.58495 -3.2645 0
M  V30 3118 H 315.889 5.00225 -1.88888 0
M  V30 3119 H 316.232 4.143 -0.407541 0
M  V30 3120 H 316.765 3.45996 -1.96295 0
M  V30 3121 H 313.504 4.48606 -4.77946 0
M  V30 3122 H 313.024 5.08803 -3.17616 0
M  V30 3123 H 314.703 5.28059 -3.73848 0
M  V30 3124 N 314.835 0.952656 1.25548 0
M  V30 3125 C 315.798 0.475794 2.24207 0
M  V30 3126 C 316.798 -0.419428 1.55234 0
M  V30 3127 O 317.988 -0.216994 1.72843 0
M  V30 3128 C 315.12 -0.312814 3.39462 0
M  V30 3129 H 316.313 1.34779 2.67908 0
M  V30 3130 H 313.866 0.735739 1.37901 0
M  V30 3131 H 314.601 -1.20257 3.01179 0
M  V30 3132 H 314.386 0.329404 3.90714 0
M  V30 3133 H 315.876 -0.635986 4.12729 0
M  V30 3134 N 316.313 -1.40141 0.720998 0
M  V30 3135 C 317.223 -2.34486 0.0731031 0
M  V30 3136 C 318.239 -1.57587 -0.737723 0
M  V30 3137 O 319.415 -1.89949 -0.669429 0
M  V30 3138 C 316.48 -3.36528 -0.833656 0
M  V30 3139 C 315.541 -4.29298 -0.0121673 0
M  V30 3140 C 314.774 -5.26466 -0.875742 0
M  V30 3141 O 314.997 -5.29745 -2.11485 0
M  V30 3142 O 313.931 -6.01092 -0.31185 0
M  V30 3143 H 317.757 -2.9152 0.851444 0
M  V30 3144 H 315.342 -1.41427 0.481527 0
M  V30 3145 H 317.224 -3.99093 -1.35289 0
M  V30 3146 H 315.899 -2.81899 -1.59105 0
M  V30 3147 H 314.806 -3.70001 0.552262 0
M  V30 3148 H 316.139 -4.87094 0.707129 0
M  V30 3149 N 317.792 -0.46758 -1.50504 0
M  V30 3150 C 319.017 0.0886943 -2.0721 0
M  V30 3151 C 319.442 1.33057 -1.32956 0
M  V30 3152 O 318.8 1.77354 -0.376197 0
M  V30 3153 C 318.848 0.359202 -3.58806 0
M  V30 3154 O 317.952 1.44034 -3.8643 0
M  V30 3155 H 317.293 -0.0114349 -0.663902 0
M  V30 3156 H 319.823 -0.657613 -1.93744 0
M  V30 3157 H 319.833 0.600742 -4.03553 0
M  V30 3158 H 318.508 -0.548311 -4.1227 0
M  V30 3159 H 317.085 1.18638 -3.53524 0
M  V30 3160 N 319.27 1.56325 -0.20005 0
M  V30 3161 C 320.518 1.97329 0.436547 0
M  V30 3162 C 320.839 1.08826 1.61808 0
M  V30 3163 O 320.109 0.160604 1.95241 0
M  V30 3164 H 318.689 0.728714 0.164272 0
M  V30 3165 H 321.351 1.92761 -0.287937 0
M  V30 3166 H 320.447 3.02264 0.777353 0
M  V30 3167 N 320.748 -0.0735177 1.57428 0
M  V30 3168 C 321.994 -0.774145 1.87443 0
M  V30 3169 C 322.327 -1.77311 0.792103 0
M  V30 3170 O 321.602 -1.93492 -0.197793 0
M  V30 3171 C 321.885 -1.48367 3.28115 0
M  V30 3172 C 321.738 -0.501227 4.46999 0
M  V30 3173 C 323.057 -2.429 3.66998 0
M  V30 3174 H 320.176 -0.279971 0.681752 0
M  V30 3175 H 322.818 -0.0373616 1.89963 0
M  V30 3176 H 320.968 -2.11171 3.26097 0
M  V30 3177 H 322.64 0.121468 4.6114 0
M  V30 3178 H 320.883 0.183593 4.33411 0
M  V30 3179 H 321.554 -1.03526 5.42205 0
M  V30 3180 H 324.03 -1.90175 3.70098 0
M  V30 3181 H 322.906 -2.89549 4.66318 0
M  V30 3182 H 323.167 -3.27628 2.96837 0
M  V30 3183 N 322.226 -1.5378 -0.344866 0
M  V30 3184 C 323.136 -1.84667 -1.4469 0
M  V30 3185 C 324.152 -0.736704 -1.57635 0
M  V30 3186 O 325.328 -1.02888 -1.73136 0
M  V30 3187 C 322.393 -2.04869 -2.79696 0
M  V30 3188 C 321.454 -3.28731 -2.76106 0
M  V30 3189 C 320.687 -3.4796 -4.04673 0
M  V30 3190 O 320.91 -2.71052 -5.01883 0
M  V30 3191 O 319.844 -4.41383 -4.09224 0
M  V30 3192 H 323.67 -2.78334 -1.21506 0
M  V30 3193 H 321.255 -1.39418 -0.536921 0
M  V30 3194 H 323.137 -2.19609 -3.59652 0
M  V30 3195 H 321.812 -1.14391 -3.02814 0
M  V30 3196 H 320.719 -3.19396 -1.94774 0
M  V30 3197 H 322.052 -4.19198 -2.57941 0
M  V30 3198 N 323.704 0.605807 -1.45491 0
M  V30 3199 C 325.12 0.926751 -1.29936 0
M  V30 3200 C 325.32 1.99896 -0.253706 0
M  V30 3201 O 324.376 2.50038 0.351737 0
M  V30 3202 C 325.689 1.36599 -2.67883 0
M  V30 3203 C 327.237 1.4801 -2.75793 0
M  V30 3204 C 327.712 1.95309 -4.14268 0
M  V30 3205 N 329.203 2.0254 -4.16571 0
M  V30 3206 C 329.938 2.40363 -5.20589 0
M  V30 3207 N 329.434 2.77143 -6.34952 0
M  V30 3208 N 331.227 2.40718 -5.07948 0
M  V30 3209 H 323.378 -0.102862 -2.12151 0
M  V30 3210 H 325.641 0.016639 -0.947854 0
M  V30 3211 H 325.347 0.652306 -3.45598 0
M  V30 3212 H 325.221 2.33215 -2.96463 0
M  V30 3213 H 327.608 2.1847 -1.98381 0
M  V30 3214 H 327.689 0.497041 -2.50925 0
M  V30 3215 H 327.333 1.25436 -4.92167 0
M  V30 3216 H 327.263 2.94532 -4.3653 0
M  V30 3217 H 329.754 1.76699 -3.34045 0
M  V30 3218 H 330.067 3.0489 -7.10114 0
M  V30 3219 H 328.412 2.74834 -6.3835 0
M  V30 3220 H 331.603 2.11392 -4.1765 0
M  V30 3221 H 331.776 2.69869 -5.89131 0
M  V30 3222 N 325.182 1.32811 0.848464 0
M  V30 3223 C 326.114 1.18095 1.96433 0
M  V30 3224 C 327.127 0.114354 1.62398 0
M  V30 3225 O 328.316 0.363892 1.74751 0
M  V30 3226 C 325.416 0.786798 3.2964 0
M  V30 3227 C 324.589 1.943 3.91875 0
M  V30 3228 C 323.648 1.53138 5.03423 0
M  V30 3229 O 322.674 2.24432 5.23086 0
M  V30 3230 N 323.876 0.430915 5.78898 0
M  V30 3231 H 326.641 2.14218 2.09597 0
M  V30 3232 H 324.202 1.2543 1.02367 0
M  V30 3233 H 326.194 0.493715 4.01677 0
M  V30 3234 H 324.764 -0.0834541 3.12489 0
M  V30 3235 H 323.984 2.40224 3.12547 0
M  V30 3236 H 325.272 2.71689 4.30189 0
M  V30 3237 H 324.67 -0.162333 5.65467 0
M  V30 3238 H 323.227 0.197466 6.51501 0
M  V30 3239 N 326.66 -1.06551 1.16123 0
M  V30 3240 C 327.906 -1.79567 0.94252 0
M  V30 3241 C 328.239 -1.86869 -0.528547 0
M  V30 3242 O 327.514 -1.35838 -1.39206 0
M  V30 3243 C 327.797 -3.24195 1.56747 0
M  V30 3244 C 327.65 -3.24989 3.10969 0
M  V30 3245 C 328.969 -4.21678 1.25998 0
M  V30 3246 H 326.088 -0.651883 0.343828 0
M  V30 3247 H 328.73 -1.2463 1.43413 0
M  V30 3248 H 326.88 -3.71107 1.14942 0
M  V30 3249 H 328.552 -2.86258 3.61737 0
M  V30 3250 H 326.795 -2.63716 3.44436 0
M  V30 3251 H 327.466 -4.27005 3.49815 0
M  V30 3252 H 329.942 -3.83196 1.62174 0
M  V30 3253 H 328.818 -5.21146 1.7233 0
M  V30 3254 H 329.079 -4.4174 0.178367 0
M  V30 3255 N 328.138 -0.959301 -1.25041 0
M  V30 3256 C 329.068 -0.501388 -2.28053 0
M  V30 3257 C 330.049 0.454673 -1.63911 0
M  V30 3258 O 331.234 0.352618 -1.90972 0
M  V30 3259 C 328.364 0.217224 -3.4662 0
M  V30 3260 C 327.318 -0.654034 -4.22973 0
M  V30 3261 C 326.644 0.195589 -5.34342 0
M  V30 3262 C 327.944 -1.93447 -4.85155 0
M  V30 3263 H 329.638 -1.36238 -2.66608 0
M  V30 3264 H 327.184 -0.656534 -1.28163 0
M  V30 3265 H 329.137 0.548732 -4.17812 0
M  V30 3266 H 327.861 1.1125 -3.07068 0
M  V30 3267 H 326.52 -0.968693 -3.5357 0
M  V30 3268 H 326.168 1.09076 -4.91031 0
M  V30 3269 H 325.868 -0.384091 -5.86343 0
M  V30 3270 H 327.392 0.521958 -6.08365 0
M  V30 3271 H 328.806 -1.66908 -5.48466 0
M  V30 3272 H 327.203 -2.46018 -5.47353 0
M  V30 3273 H 328.273 -2.63466 -4.07079 0
M  V30 3274 N 329.616 1.39756 -0.72842 0
M  V30 3275 C 330.546 2.33289 -0.0991354 0
M  V30 3276 C 331.527 1.53568 0.731489 0
M  V30 3277 O 332.712 1.81987 0.677807 0
M  V30 3278 C 329.842 3.3763 0.813834 0
M  V30 3279 C 328.796 4.2791 0.0878663 0
M  V30 3280 C 328.122 5.22894 1.11741 0
M  V30 3281 C 329.422 5.11314 -1.06563 0
M  V30 3282 H 331.116 2.86163 -0.880408 0
M  V30 3283 H 328.662 1.37591 -0.424819 0
M  V30 3284 H 330.615 4.0201 1.26355 0
M  V30 3285 H 329.339 2.83181 1.62715 0
M  V30 3286 H 327.998 3.65 -0.342159 0
M  V30 3287 H 327.646 4.64744 1.92412 0
M  V30 3288 H 327.346 5.84143 0.636477 0
M  V30 3289 H 328.87 5.90151 1.56697 0
M  V30 3290 H 330.284 5.69076 -0.694671 0
M  V30 3291 H 328.681 5.81671 -1.47577 0
M  V30 3292 H 329.751 4.46534 -1.89038 0
M  V30 3293 N 331.094 0.475555 1.50254 0
M  V30 3294 C 332.342 -0.077738 2.0195 0
M  V30 3295 C 332.663 -1.39813 1.35931 0
M  V30 3296 O 331.933 -1.89249 0.506123 0
M  V30 3297 H 330.513 -0.031719 0.746326 0
M  V30 3298 H 333.175 0.626995 1.84539 0
M  V30 3299 H 332.271 -0.225995 3.11281 0
M  V30 3300 N 332.573 -1.56217 0.208337 0
M  V30 3301 C 333.85 -1.89739 -0.475234 0
M  V30 3302 C 334.23 -1.1238 -1.78701 0
M  V30 3303 O 333.578 -0.228979 -2.2735 0
M  V30 3304 C 333.788 -3.42289 -0.681101 0
M  V30 3305 C 335.136 -4.12789 -0.994507 0
M  V30 3306 O 336.16 -3.47814 -0.768357 0
M  V30 3307 O 335.019 -5.27649 -1.42299 0
M  V30 3308 H 332.113 -0.788478 -0.249461 0
M  V30 3309 H 334.659 -1.67855 0.249538 0
M  V30 3310 H 333.431 -3.90534 0.244722 0
M  V30 3311 H 333.054 -3.69909 -1.45785 0
M  V30 3312 N 334.051 0.0651679 -1.57465 0
M  V30 3313 C 334.983 1.10359 -2.00882 0
M  V30 3314 C 335.996 1.346 -0.915788 0
M  V30 3315 O 337.185 1.32723 -1.1936 0
M  V30 3316 C 334.285 2.45312 -2.33828 0
M  V30 3317 C 333.458 2.40934 -3.65061 0
M  V30 3318 C 332.517 3.58047 -3.85602 0
M  V30 3319 O 331.543 3.39175 -4.57109 0
M  V30 3320 N 332.745 4.78637 -3.28462 0
M  V30 3321 H 335.51 0.733807 -2.90578 0
M  V30 3322 H 333.071 0.253719 -1.599 0
M  V30 3323 H 335.063 3.22314 -2.44737 0
M  V30 3324 H 333.633 2.74267 -1.49988 0
M  V30 3325 H 332.853 1.49273 -3.64844 0
M  V30 3326 H 334.141 2.35117 -4.51218 0
M  V30 3327 H 333.539 4.96872 -2.70433 0
M  V30 3328 H 332.096 5.53127 -3.44809 0
M  V30 3329 N 335.529 1.53961 0.336706 0
M  V30 3330 C 336.778 1.70751 1.07363 0
M  V30 3331 C 337.091 0.481061 1.89592 0
M  V30 3332 O 338.297 0.530046 2.66276 0
M  V30 3333 C 336.753 3.01965 1.95818 0
M  V30 3334 C 336.361 4.31971 1.18764 0
M  V30 3335 C 338.105 3.28121 2.69327 0
M  V30 3336 C 336.012 5.54255 2.06289 0
M  V30 3337 H 334.942 0.636292 0.404535 0
M  V30 3338 H 337.593 1.80459 0.332681 0
M  V30 3339 H 335.975 2.86132 2.7376 0
M  V30 3340 H 337.149 4.5853 0.456849 0
M  V30 3341 H 335.464 4.12481 0.569946 0
M  V30 3342 H 338.061 4.16673 3.35094 0
M  V30 3343 H 338.404 2.45426 3.36261 0
M  V30 3344 H 338.937 3.44762 1.98454 0
M  V30 3345 H 335.676 6.39513 1.43885 0
M  V30 3346 H 335.196 5.31935 2.77138 0
M  V30 3347 H 336.875 5.90159 2.65182 0
M  V30 3348 N 337.007 -0.598083 1.45811 0
M  V30 3349 C 338.418 -1.18011 1.44673 0
M  V30 3350 C 338.769 -1.95378 0.179364 0
M  V30 3351 O 337.894 -2.04124 -0.718509 0
M  V30 3352 C 338.489 -2.14677 2.62105 0
M  V30 3353 C 337.048 -2.68236 2.64057 0
M  V30 3354 C 336.195 -1.43816 2.37091 0
M  V30 3355 H 339.146 -0.38686 1.53913 0
M  V30 3356 H 339.167 -2.97878 2.36746 0
M  V30 3357 H 338.679 -1.5834 3.5433 0
M  V30 3358 H 336.78 -3.28486 1.75864 0
M  V30 3359 H 336.893 -3.12021 3.63566 0
M  V30 3360 H 335.257 -1.731 1.86838 0
M  V30 3361 H 336.04 -0.893333 3.31473 0
M  V30 3362 N 338.485 -1.33259 -0.841409 0
M  V30 3363 C 339.432 -1.23302 -1.95103 0
M  V30 3364 C 340.402 -0.112204 -1.65721 0
M  V30 3365 O 341.587 -0.290038 -1.88583 0
M  V30 3366 C 338.727 -0.975583 -3.31023 0
M  V30 3367 C 337.84 -2.18243 -3.72819 0
M  V30 3368 C 336.975 -1.85936 -4.97595 0
M  V30 3369 C 336.014 -3.02866 -5.3192 0
M  V30 3370 N 335.151 -2.70565 -6.47873 0
M  V30 3371 H 339.991 -2.18207 -2.02952 0
M  V30 3372 H 337.528 -1.0851 -0.993173 0
M  V30 3373 H 339.486 -0.80677 -4.09325 0
M  V30 3374 H 338.116 -0.0632755 -3.22738 0
M  V30 3375 H 337.168 -2.46107 -2.90061 0
M  V30 3376 H 338.48 -3.05666 -3.94169 0
M  V30 3377 H 337.634 -1.65684 -5.83638 0
M  V30 3378 H 336.373 -0.957452 -4.78209 0
M  V30 3379 H 335.378 -3.23736 -4.44382 0
M  V30 3380 H 336.603 -3.93809 -5.53255 0
M  V30 3381 H 334.549 -1.8293 -6.29978 0
M  V30 3382 H 334.466 -3.51519 -6.69306 0
M  V30 3383 H 335.734 -2.53774 -7.37034 0
M  V30 3384 N 339.963 1.05934 -1.16686 0
M  V30 3385 C 341.21 1.788 -0.950622 0
M  V30 3386 C 341.538 1.87384 0.521305 0
M  V30 3387 O 340.793 1.36438 1.40297 0
M  V30 3388 C 341.092 3.23105 -1.52767 0
M  V30 3389 C 340.758 3.34594 -3.02254 0
M  V30 3390 C 339.42 3.37437 -3.43059 0
M  V30 3391 C 341.772 3.36219 -3.98254 0
M  V30 3392 C 339.1 3.39525 -4.78477 0
M  V30 3393 C 341.452 3.39845 -5.33562 0
M  V30 3394 C 340.116 3.40971 -5.73842 0
M  V30 3395 H 339.386 0.654275 -0.347857 0
M  V30 3396 H 342.033 1.24555 -1.45459 0
M  V30 3397 H 340.338 3.80227 -0.94524 0
M  V30 3398 H 342.035 3.7809 -1.336 0
M  V30 3399 H 338.625 3.3309 -2.6972 0
M  V30 3400 H 342.809 3.33231 -3.67792 0
M  V30 3401 H 338.065 3.38703 -5.09009 0
M  V30 3402 H 342.239 3.4005 -6.07733 0
M  V30 3403 H 339.866 3.42342 -6.78753 0
M  V30 3404 N 341.441 0.965919 1.2453 0
M  V30 3405 C 342.404 0.499547 2.2369 0
M  V30 3406 C 343.404 -0.40294 1.5567 0
M  V30 3407 O 344.594 -0.19865 1.73064 0
M  V30 3408 C 341.726 -0.276792 3.39774 0
M  V30 3409 H 342.919 1.37613 2.66463 0
M  V30 3410 H 340.472 0.750324 1.37112 0
M  V30 3411 H 341.207 -1.17055 3.02438 0
M  V30 3412 H 340.992 0.370826 3.90343 0
M  V30 3413 H 342.482 -0.592175 4.1338 0
M  V30 3414 N 342.919 -1.39368 0.735821 0
M  V30 3415 C 344.165 -2.00794 0.284544 0
M  V30 3416 C 344.498 -1.58255 -1.12557 0
M  V30 3417 O 343.773 -0.811819 -1.76748 0
M  V30 3418 C 344.056 -3.58011 0.387337 0
M  V30 3419 C 343.909 -4.10566 1.83728 0
M  V30 3420 C 345.228 -4.395 -0.22975 0
M  V30 3421 H 342.347 -0.729501 0.104866 0
M  V30 3422 H 344.989 -1.65564 0.93213 0
M  V30 3423 H 343.139 -3.88154 -0.164006 0
M  V30 3424 H 344.811 -3.91139 2.44556 0
M  V30 3425 H 343.054 -3.64095 2.35833 0
M  V30 3426 H 343.725 -5.19702 1.86047 0
M  V30 3427 H 346.201 -4.15406 0.240257 0
M  V30 3428 H 345.077 -5.48752 -0.127485 0
M  V30 3429 H 345.338 -4.22062 -1.3159 0
M  V30 3430 N 344.397 -0.483516 -1.5 0
M  V30 3431 C 345.36 0.292965 -2.2732 0
M  V30 3432 C 346.36 0.909499 -1.32608 0
M  V30 3433 O 347.55 0.776745 -1.55924 0
M  V30 3434 C 344.682 1.41854 -3.09984 0
M  V30 3435 H 345.875 -0.385289 -2.97415 0
M  V30 3436 H 343.428 -0.237942 -1.54478 0
M  V30 3437 H 344.163 2.13148 -2.44414 0
M  V30 3438 H 343.948 0.982114 -3.79601 0
M  V30 3439 H 345.438 1.96597 -3.68429 0
M  V30 3440 N 345.875 1.56104 -0.216619 0
M  V30 3441 C 347.103 2.02563 0.421413 0
M  V30 3442 C 347.518 1.0965 1.53695 0
M  V30 3443 O 346.875 0.10521 1.82196 0
M  V30 3444 C 346.926 3.48584 0.957665 0
M  V30 3445 O 346.647 4.37953 -0.113389 0
M  V30 3446 C 348.148 4.10664 1.66943 0
M  V30 3447 H 345.368 0.662944 0.103665 0
M  V30 3448 H 347.912 2.01793 -0.331629 0
M  V30 3449 H 346.067 3.49985 1.661 0
M  V30 3450 H 346.481 5.23704 0.288932 0
M  V30 3451 H 347.955 5.14622 1.99671 0
M  V30 3452 H 348.432 3.55373 2.58083 0
M  V30 3453 H 349.038 4.13098 1.01142 0
M  V30 3454 N 347.353 -0.0568162 1.57498 0
M  V30 3455 C 348.283 -1.06593 2.0775 0
M  V30 3456 C 349.264 -1.39448 0.974082 0
M  V30 3457 O 350.449 -1.48815 1.24771 0
M  V30 3458 C 347.579 -2.37509 2.5339 0
M  V30 3459 C 346.533 -2.1897 3.67745 0
M  V30 3460 C 345.859 -3.55402 3.99492 0
M  V30 3461 C 347.159 -1.59859 4.97235 0
M  V30 3462 H 348.853 -0.647706 2.9231 0
M  V30 3463 H 346.399 -0.310116 1.40621 0
M  V30 3464 H 348.352 -3.08409 2.87162 0
M  V30 3465 H 347.076 -2.8134 1.65878 0
M  V30 3466 H 345.735 -1.50508 3.3428 0
M  V30 3467 H 345.383 -3.9683 3.09088 0
M  V30 3468 H 345.083 -3.43831 4.76502 0
M  V30 3469 H 346.607 -4.27708 4.35773 0
M  V30 3470 H 348.021 -2.20642 5.29141 0
M  V30 3471 H 346.418 -1.58942 5.78669 0
M  V30 3472 H 347.488 -0.561506 4.81638 0
M  V30 3473 N 348.832 -1.54138 -0.328536 0
M  V30 3474 C 350.243 -1.63395 -0.903272 0
M  V30 3475 C 350.594 -0.524828 -1.8905 0
M  V30 3476 O 349.719 0.343068 -2.13663 0
M  V30 3477 C 350.314 -2.9618 -1.64507 0
M  V30 3478 C 348.873 -3.0765 -2.1686 0
M  V30 3479 C 348.02 -2.58933 -0.992416 0
M  V30 3480 H 350.971 -1.58344 -0.106253 0
M  V30 3481 H 350.992 -2.86061 -2.50897 0
M  V30 3482 H 350.504 -3.76884 -0.926302 0
M  V30 3483 H 348.605 -2.31611 -2.91868 0
M  V30 3484 H 348.718 -4.1337 -2.42202 0
M  V30 3485 H 347.082 -2.14706 -1.37016 0
M  V30 3486 H 347.865 -3.42089 -0.288041 0
M  V30 3487 N 350.31 0.590341 -1.46126 0
M  V30 3488 C 351.721 1.17243 -1.45296 0
M  V30 3489 C 352.072 1.95281 -0.189723 0
M  V30 3490 O 351.197 2.04502 0.707674 0
M  V30 3491 C 351.792 2.13284 -2.6324 0
M  V30 3492 C 350.351 2.66832 -2.65476 0
M  V30 3493 C 349.498 1.42557 -2.3785 0
M  V30 3494 H 352.449 0.378692 -1.54116 0
M  V30 3495 H 352.47 2.96619 -2.38323 0
M  V30 3496 H 351.982 1.56459 -3.55165 0
M  V30 3497 H 350.083 3.27548 -1.77603 0
M  V30 3498 H 350.196 3.10088 -3.65215 0
M  V30 3499 H 348.56 1.72107 -1.87753 0
M  V30 3500 H 349.343 0.875741 -3.31942 0
M  V30 3501 N 351.788 1.33704 0.83433 0
M  V30 3502 C 352.751 1.24244 1.92603 0
M  V30 3503 C 353.751 0.160383 1.59998 0
M  V30 3504 O 354.941 0.412228 1.69252 0
M  V30 3505 C 352.073 0.91555 3.28376 0
M  V30 3506 H 353.266 2.21287 2.02416 0
M  V30 3507 H 350.819 1.17827 1.02696 0
M  V30 3508 H 351.554 -0.0521886 3.24258 0
M  V30 3509 H 351.339 1.69811 3.53422 0
M  V30 3510 H 352.829 0.874231 4.08347 0
M  V30 3511 O 353.305 -0.972346 1.28948 0
M  V30 3512 H 353.996 -1.59791 1.09484 0
M  V30 END ATOM
M  V30 BEGIN BOND
M  V30 END BOND
M  V30 END CTAB
M  END
$$$$
