drugbank_target|P28074 Proteasome subunit beta type-5 (DB00188; DB08515; DB08889)
 OpenBabel12092120093D

  0  0  0     0  0            999 V3000
M  V30 BEGIN CTAB
M  V30 COUNTS 3967 4010 0 0 0
M  V30 BEGIN ATOM
M  V30 1 H -0.908 1.98254 -0.117106 0
M  V30 2 N 0 1.576 0 0
M  V30 3 C 0.933 2.03868 1.02534 0
M  V30 4 C 1.911 0.928543 1.3348 0
M  V30 5 O 3.095 1.19667 1.45644 0
M  V30 6 C 0.222 2.43627 2.35294 0
M  V30 7 C -0.732 3.65373 2.2001 0
M  V30 8 S 0.101 5.13292 1.52614 0
M  V30 9 C 1.257 5.56322 2.86805 0
M  V30 10 H 1.49 2.90518 0.631377 0
M  V30 11 H -0.977 1.52953 0.210867 0
M  V30 12 H 0.981 2.67203 3.11629 0
M  V30 13 H -0.358 1.57376 2.7183 0
M  V30 14 H -1.165 3.90944 3.18086 0
M  V30 15 H -1.563 3.418 1.51819 0
M  V30 16 H 0.729 5.58782 3.83104 0
M  V30 17 H 1.672 6.56266 2.65933 0
M  V30 18 H 2.08 4.83886 2.90714 0
M  V30 19 N 1.4781 -0.272755 1.55222 0
M  V30 20 C 2.4411 -1.32041 1.87344 0
M  V30 21 C 3.4411 -1.42342 0.74803 0
M  V30 22 O 4.6311 -1.41488 1.0162 0
M  V30 23 C 1.7631 -2.70173 2.07893 0
M  V30 24 H 2.9561 -1.04789 2.80997 0
M  V30 25 H 0.5091 -0.51083 1.47717 0
M  V30 26 H 1.2441 -3.02605 1.16622 0
M  V30 27 H 1.0291 -2.64082 2.89833 0
M  V30 28 H 2.5191 -3.45869 2.34017 0
M  V30 29 N 2.9562 -1.48159 -0.537278 0
M  V30 30 C 3.8862 -1.65029 -1.6519 0
M  V30 31 C 4.8672 -0.499281 -1.62607 0
M  V30 32 O 6.0522 -0.730972 -1.79918 0
M  V30 33 C 3.1822 -1.68303 -3.03795 0
M  V30 34 C 2.1362 -2.8283 -3.21234 0
M  V30 35 C 1.4622 -2.71189 -4.60826 0
M  V30 36 C 2.7622 -4.24211 -3.04701 0
M  V30 37 H 4.4562 -2.58341 -1.51328 0
M  V30 38 H 2.0022 -1.24325 -0.726585 0
M  V30 39 H 3.9552 -1.78693 -3.81637 0
M  V30 40 H 2.6792 -0.715635 -3.18663 0
M  V30 41 H 1.3382 -2.71983 -2.45807 0
M  V30 42 H 0.9862 -1.72435 -4.7252 0
M  V30 43 H 0.6862 -3.48035 -4.7344 0
M  V30 44 H 2.2102 -2.83537 -5.40777 0
M  V30 45 H 3.6242 -4.3593 -3.72341 0
M  V30 46 H 2.0212 -5.01998 -3.28813 0
M  V30 47 H 3.0912 -4.41184 -2.01209 0
M  V30 48 N 4.4343 0.785586 -1.36625 0
M  V30 49 C 5.3973 1.87999 -1.31107 0
M  V30 50 C 6.3973 1.59316 -0.217959 0
M  V30 51 O 7.5873 1.67656 -0.472977 0
M  V30 52 C 4.7193 3.24861 -1.03334 0
M  V30 53 H 5.9123 1.94307 -2.2844 0
M  V30 54 H 3.4653 0.983813 -1.21453 0
M  V30 55 H 4.2003 3.24235 -0.0647432 0
M  V30 56 H 3.9853 3.4707 -1.82441 0
M  V30 57 H 5.4753 4.04929 -1.02088 0
M  V30 58 N 5.9124 1.20967 1.01018 0
M  V30 59 C 7.1374 1.0503 1.78839 0
M  V30 60 C 7.5624 -0.395752 1.8389 0
M  V30 61 O 6.9204 -1.28529 1.27867 0
M  V30 62 C 6.9684 1.64602 3.2084 0
M  V30 63 O 6.0724 0.887988 4.02726 0
M  V30 64 H 5.4134 0.369987 0.551367 0
M  V30 65 H 7.9434 1.60399 1.27018 0
M  V30 66 H 7.9534 1.68607 3.71532 0
M  V30 67 H 6.6284 2.69841 3.16479 0
M  V30 68 H 5.2054 0.922648 3.61305 0
M  V30 69 N 7.3905 -1.2043 1.01659 0
M  V30 70 C 8.6365 -1.90079 0.706963 0
M  V30 71 C 8.9695 -1.78648 -0.761474 0
M  V30 72 O 8.2445 -1.17069 -1.55323 0
M  V30 73 C 8.5275 -3.41469 1.14327 0
M  V30 74 C 8.3805 -3.61833 2.67201 0
M  V30 75 C 9.6995 -4.34261 0.714529 0
M  V30 76 H 6.8185 -0.690254 0.2583 0
M  V30 77 H 9.4605 -1.41826 1.26433 0
M  V30 78 H 7.6105 -3.82696 0.669056 0
M  V30 79 H 9.2825 -3.2986 3.22475 0
M  V30 80 H 7.5255 -3.05304 3.08175 0
M  V30 81 H 8.1965 -4.67955 2.92783 0
M  V30 82 H 10.6725 -4.00682 1.12221 0
M  V30 83 H 9.5485 -5.38806 1.04784 0
M  V30 84 H 9.8095 -4.40431 -0.383799 0
M  V30 85 N 8.8686 -0.792821 -1.36206 0
M  V30 86 C 9.7986 -0.207853 -2.32573 0
M  V30 87 C 10.7796 0.659055 -1.56813 0
M  V30 88 O 11.9646 0.592176 -1.84951 0
M  V30 89 C 9.0946 0.655449 -3.41059 0
M  V30 90 C 8.0486 -0.111842 -4.27854 0
M  V30 91 C 7.3746 0.872274 -5.27537 0
M  V30 92 C 8.6746 -1.30299 -5.05786 0
M  V30 93 H 10.3686 -1.01294 -2.81744 0
M  V30 94 H 7.9146 -0.48854 -1.3546 0
M  V30 95 H 9.8676 1.07464 -4.07467 0
M  V30 96 H 8.5916 1.49328 -2.90463 0
M  V30 97 H 7.2506 -0.512053 -3.63006 0
M  V30 98 H 6.8986 1.70523 -4.73214 0
M  V30 99 H 6.5986 0.363291 -5.86476 0
M  V30 100 H 8.1226 1.28996 -5.96818 0
M  V30 101 H 9.5366 -0.959379 -5.65216 0
M  V30 102 H 7.9336 -1.7455 -5.74154 0
M  V30 103 H 9.0036 -2.09663 -4.37229 0
M  V30 104 N 10.3467 1.47872 -0.545128 0
M  V30 105 C 11.2567 2.33633 0.212746 0
M  V30 106 C 12.2727 1.4744 0.923983 0
M  V30 107 O 13.4487 1.80393 0.895572 0
M  V30 108 C 10.5137 3.23884 1.23693 0
M  V30 109 C 9.5747 4.25961 0.534417 0
M  V30 110 C 8.8077 5.11899 1.5098 0
M  V30 111 O 9.0307 5.00077 2.7437 0
M  V30 112 O 7.9647 5.92831 1.0409 0
M  V30 113 H 11.7907 2.99714 -0.490416 0
M  V30 114 H 9.3757 1.46235 -0.305871 0
M  V30 115 H 11.2577 3.79666 1.82843 0
M  V30 116 H 9.9327 2.60446 1.92222 0
M  V30 117 H 8.8397 3.73972 -0.0979679 0
M  V30 118 H 10.1727 4.92079 -0.109213 0
M  V30 119 N 11.8248 0.280983 1.55075 0
M  V30 120 C 13.2408 -0.0729964 1.59433 0
M  V30 121 C 13.4408 -1.5411 1.29817 0
M  V30 122 O 12.4968 -2.29086 1.06187 0
M  V30 123 C 13.8098 0.306921 2.9913 0
M  V30 124 C 15.3578 0.254023 3.11968 0
M  V30 125 C 15.8328 0.608467 4.5394 0
M  V30 126 N 17.3238 0.560241 4.59799 0
M  V30 127 C 18.0588 0.80722 5.6769 0
M  V30 128 N 17.5548 1.11912 6.83701 0
M  V30 129 N 19.3478 0.735623 5.57266 0
M  V30 130 H 11.4988 1.238 1.7259 0
M  V30 131 H 13.7618 0.500547 0.805082 0
M  V30 132 H 13.4678 1.32816 3.25657 0
M  V30 133 H 13.3418 -0.349363 3.75579 0
M  V30 134 H 15.7288 -0.75794 2.852 0
M  V30 135 H 15.8098 0.944649 2.37718 0
M  V30 136 H 15.4538 1.61814 4.81434 0
M  V30 137 H 15.3838 -0.104013 5.26497 0
M  V30 138 H 17.8748 0.329288 3.76463 0
M  V30 139 H 18.1878 1.29409 7.61888 0
M  V30 140 H 16.5328 1.15695 6.85303 0
M  V30 141 H 19.7238 0.491752 4.6551 0
M  V30 142 H 19.8968 0.931482 6.4127 0
M  V30 143 N 13.3029 -1.57598 0.00835791 0
M  V30 144 C 14.7139 -1.7892 -0.53333 0
M  V30 145 C 15.0649 -0.916609 -1.73473 0
M  V30 146 O 14.1899 -0.121336 -2.1606 0
M  V30 147 C 14.7849 -3.24488 -0.974313 0
M  V30 148 C 13.3439 -3.46878 -1.46125 0
M  V30 149 C 12.4909 -2.74157 -0.416302 0
M  V30 150 H 15.4419 -1.56958 0.234495 0
M  V30 151 H 15.4629 -3.3306 -1.83988 0
M  V30 152 H 14.9749 -3.87972 -0.099718 0
M  V30 153 H 13.0759 -2.8862 -2.35646 0
M  V30 154 H 13.1889 -4.55572 -1.48295 0
M  V30 155 H 11.5529 -2.39022 -0.87981 0
M  V30 156 H 12.3359 -3.40345 0.44947 0
M  V30 157 N 14.781 0.264519 -1.55364 0
M  V30 158 C 15.711 1.33121 -1.91836 0
M  V30 159 C 16.692 1.51101 -0.781192 0
M  V30 160 O 17.877 1.64003 -1.04003 0
M  V30 161 C 15.007 2.68921 -2.19769 0
M  V30 162 C 13.961 2.65661 -3.35571 0
M  V30 163 C 13.287 4.05093 -3.49004 0
M  V30 164 C 14.587 2.24187 -4.71739 0
M  V30 165 H 16.281 1.02844 -2.81182 0
M  V30 166 H 13.827 0.493286 -1.35287 0
M  V30 167 H 15.78 3.43663 -2.43872 0
M  V30 168 H 14.504 3.00799 -1.27231 0
M  V30 169 H 13.163 1.93377 -3.1145 0
M  V30 170 H 12.811 4.34206 -2.53917 0
M  V30 171 H 12.511 4.03804 -4.26868 0
M  V30 172 H 14.035 4.81561 -3.75408 0
M  V30 173 H 15.449 2.88654 -4.9533 0
M  V30 174 H 13.846 2.34044 -5.52579 0
M  V30 175 H 14.916 1.19327 -4.69988 0
M  V30 176 N 16.2591 1.48442 0.529413 0
M  V30 177 C 17.6701 1.5002 1.11134 0
M  V30 178 C 18.0211 0.27031 1.94329 0
M  V30 179 O 17.1461 -0.622507 2.07253 0
M  V30 180 C 17.7411 2.71834 2.02217 0
M  V30 181 C 16.3001 2.76283 2.55627 0
M  V30 182 C 15.4471 2.43542 1.326 0
M  V30 183 H 18.3981 1.5555 0.314641 0
M  V30 184 H 18.4191 2.50384 2.8651 0
M  V30 185 H 17.9311 3.61331 1.41639 0
M  V30 186 H 16.0321 1.90995 3.19924 0
M  V30 187 H 16.1451 3.77725 2.94721 0
M  V30 188 H 14.5091 1.94709 1.64196 0
M  V30 189 H 15.2921 3.3528 0.737734 0
M  V30 190 N 17.7372 -0.778329 1.37039 0
M  V30 191 C 18.9832 -1.53892 1.32079 0
M  V30 192 C 19.3162 -1.9396 -0.0965386 0
M  V30 193 O 18.5912 -1.63568 -1.05242 0
M  V30 194 C 18.8742 -2.80847 2.25382 0
M  V30 195 C 18.7272 -2.47076 3.75864 0
M  V30 196 C 20.0462 -3.82741 2.1725 0
M  V30 197 H 17.1652 -0.558303 0.48111 0
M  V30 198 H 19.8072 -0.893397 1.67685 0
M  V30 199 H 17.9572 -3.35931 1.95148 0
M  V30 200 H 19.6292 -1.97957 4.16666 0
M  V30 201 H 17.8722 -1.79863 3.94755 0
M  V30 202 H 18.5432 -3.37798 4.36574 0
M  V30 203 H 21.0192 -3.37133 2.43887 0
M  V30 204 H 19.8952 -4.69303 2.84686 0
M  V30 205 H 20.1562 -4.2652 1.16331 0
M  V30 206 N 19.2153 -1.21501 -1.00376 0
M  V30 207 C 20.1633 -0.972442 -2.11297 0
M  V30 208 C 21.1573 0.080731 -1.69208 0
M  V30 209 O 22.3633 -0.0707666 -1.79861 0
M  V30 210 H 18.7383 -0.297218 -0.690772 0
M  V30 211 H 20.7093 -1.91394 -2.28934 0
M  V30 212 C 19.4583 -0.555065 -3.43241 0
M  V30 213 H 18.7813 -1.35709 -3.76062 0
M  V30 214 H 20.2213 -0.424664 -4.21868 0
M  V30 215 C 18.6803 0.734147 -3.28804 0
M  V30 216 O 19.2103 1.78937 -3.59645 0
M  V30 217 N 17.4163 0.701133 -2.82015 0
M  V30 218 H 16.9633 -0.157874 -2.57116 0
M  V30 219 H 16.9213 1.56403 -2.72737 0
M  V30 220 N 20.6934 1.19889 -1.02296 0
M  V30 221 C 21.6254 2.22334 -0.556787 0
M  V30 222 C 22.6384 1.58674 0.364199 0
M  V30 223 O 23.8274 1.77768 0.161533 0
M  V30 224 C 20.9274 3.38257 0.208694 0
M  V30 225 C 20.1004 4.31504 -0.71577 0
M  V30 226 C 19.1594 5.262 0.00325597 0
M  V30 227 O 18.1854 5.65798 -0.621357 0
M  V30 228 N 19.3874 5.66303 1.27599 0
M  V30 229 H 22.1524 2.62957 -1.43784 0
M  V30 230 H 19.7134 1.34495 -0.901261 0
M  V30 231 H 21.7054 3.98616 0.699111 0
M  V30 232 H 20.2754 2.96472 0.991102 0
M  V30 233 H 19.4954 3.69016 -1.38638 0
M  V30 234 H 20.7834 4.9072 -1.34428 0
M  V30 235 H 20.1814 5.36155 1.80429 0
M  V30 236 H 18.7384 6.28942 1.71102 0
M  V30 237 N 22.1715 0.800033 1.35784 0
M  V30 238 C 23.5875 0.482977 1.52117 0
M  V30 239 C 23.7875 -0.996948 1.75109 0
M  V30 240 O 22.8435 -1.78216 1.78872 0
M  V30 241 C 24.1565 1.32264 2.70049 0
M  V30 242 C 25.7045 1.31742 2.83924 0
M  V30 243 C 26.1795 2.14106 4.04874 0
M  V30 244 N 27.6705 2.11607 4.12039 0
M  V30 245 C 28.4055 2.72099 5.04727 0
M  V30 246 N 27.9015 3.41492 6.02789 0
M  V30 247 N 29.6945 2.61776 4.97423 0
M  V30 248 H 21.8455 1.75856 1.19115 0
M  V30 249 H 24.1085 0.748122 0.582252 0
M  V30 250 H 23.8145 2.37261 2.59616 0
M  V30 251 H 23.6885 0.971303 3.6448 0
M  V30 252 H 26.0755 0.275333 2.93813 0
M  V30 253 H 26.1565 1.70859 1.9037 0
M  V30 254 H 25.8005 3.18351 3.95746 0
M  V30 255 H 25.7305 1.72353 4.97596 0
M  V30 256 H 28.2215 1.61112 3.41835 0
M  V30 257 H 28.5345 3.84953 6.70098 0
M  V30 258 H 26.8795 3.45596 6.02983 0
M  V30 259 H 30.0705 2.07157 4.19766 0
M  V30 260 H 30.2435 3.0921 5.69468 0
M  V30 261 N 23.6496 -1.47581 0.552962 0
M  V30 262 C 24.8976 -2.02082 0.0272703 0
M  V30 263 C 25.2186 -1.4301 -1.32563 0
M  V30 264 O 24.4886 -0.603745 -1.86365 0
M  V30 265 H 23.0686 -0.746966 0.00709182 0
M  V30 266 H 25.7306 -1.81033 0.722008 0
M  V30 267 H 24.8266 -3.12034 -0.0639951 0
M  V30 268 N 25.1277 -0.289203 -1.54924 0
M  V30 269 C 26.3747 0.323519 -1.99899 0
M  V30 270 C 26.7027 1.54797 -1.17762 0
M  V30 271 O 25.9577 1.94237 -0.238835 0
M  V30 272 C 26.2567 0.736119 -3.49737 0
M  V30 273 C 25.9227 -0.385276 -4.49251 0
M  V30 274 C 24.5847 -0.693156 -4.76181 0
M  V30 275 C 26.9367 -1.14021 -5.08575 0
M  V30 276 C 24.2647 -1.7593 -5.59701 0
M  V30 277 C 26.6167 -2.19619 -5.93254 0
M  V30 278 C 25.2807 -2.51026 -6.185 0
M  V30 279 H 24.5507 0.118384 -0.731482 0
M  V30 280 H 27.1977 -0.405847 -1.8715 0
M  V30 281 H 25.5027 1.54539 -3.60035 0
M  V30 282 H 27.1997 1.22118 -3.81953 0
M  V30 283 H 23.7897 -0.135202 -4.28387 0
M  V30 284 H 27.9737 -0.915611 -4.87781 0
M  V30 285 H 23.2297 -2.0075 -5.77503 0
M  V30 286 H 27.4037 -2.78581 -6.38252 0
M  V30 287 H 25.0307 -3.33772 -6.83008 0
M  V30 288 N 26.6058 1.57591 -0.0167156 0
M  V30 289 C 27.8528 1.91283 0.664597 0
M  V30 290 C 28.1808 0.891949 1.72842 0
M  V30 291 O 27.4358 -0.100931 1.9544 0
M  V30 292 C 27.7348 3.3172 1.33029 0
M  V30 293 C 27.4008 4.4914 0.398047 0
M  V30 294 C 26.0628 4.80992 0.141421 0
M  V30 295 C 28.4148 5.20634 -0.242825 0
M  V30 296 C 25.7428 5.81703 -0.764092 0
M  V30 297 C 28.0948 6.22311 -1.13632 0
M  V30 298 C 26.7588 6.52611 -1.40196 0
M  V30 299 H 26.0288 0.699956 0.243193 0
M  V30 300 H 28.6758 1.9135 -0.0758267 0
M  V30 301 H 26.9808 3.27856 2.14517 0
M  V30 302 H 28.6778 3.55055 1.86379 0
M  V30 303 H 25.2678 4.24262 0.608238 0
M  V30 304 H 29.4518 4.96267 -0.0576019 0
M  V30 305 H 24.7078 6.03532 -0.977732 0
M  V30 306 H 28.8818 6.76834 -1.63917 0
M  V30 307 H 26.5088 7.30467 -2.10529 0
M  V30 308 N 28.0839 -0.256276 1.55502 0
M  V30 309 C 29.3319 -0.983672 1.76545 0
M  V30 310 C 29.6529 -1.86206 0.578982 0
M  V30 311 O 28.9229 -1.91656 -0.405577 0
M  V30 312 H 27.5029 -0.366191 0.651086 0
M  V30 313 H 30.1649 -0.276479 1.92929 0
M  V30 314 H 29.2609 -1.61087 2.67315 0
M  V30 315 N 29.562 -1.4872 -0.521534 0
M  V30 316 C 30.492 -1.66771 -1.63431 0
M  V30 317 C 31.473 -0.516499 -1.62069 0
M  V30 318 O 32.658 -0.750013 -1.79132 0
M  V30 319 C 29.788 -1.71515 -3.01993 0
M  V30 320 C 28.742 -2.86222 -3.18216 0
M  V30 321 C 28.068 -2.76061 -4.57924 0
M  V30 322 C 29.368 -4.27419 -3.00184 0
M  V30 323 H 31.062 -2.59932 -1.48579 0
M  V30 324 H 28.608 -1.25089 -0.713358 0
M  V30 325 H 30.561 -1.82731 -3.7972 0
M  V30 326 H 29.285 -0.749393 -3.17886 0
M  V30 327 H 27.944 -2.74575 -2.42908 0
M  V30 328 H 27.592 -1.77437 -4.70665 0
M  V30 329 H 27.292 -3.53037 -4.69722 0
M  V30 330 H 28.816 -2.89256 -5.37739 0
M  V30 331 H 30.23 -4.39855 -3.67697 0
M  V30 332 H 28.627 -5.05458 -3.2347 0
M  V30 333 H 29.697 -4.43293 -1.96518 0
M  V30 334 N 31.0401 0.771051 -1.3745 0
M  V30 335 C 32.2881 1.52661 -1.32435 0
M  V30 336 C 32.6091 1.9479 0.0905024 0
M  V30 337 O 31.8791 1.66348 1.03466 0
M  V30 338 H 30.4591 0.566218 -0.487244 0
M  V30 339 H 33.1211 0.917636 -1.71946 0
M  V30 340 H 32.2171 2.42568 -1.96385 0
M  V30 341 N 32.5182 1.22032 0.997298 0
M  V30 342 C 33.7662 1.04016 1.73278 0
M  V30 343 C 34.0872 -0.426255 1.90284 0
M  V30 344 O 33.3572 -1.30694 1.45931 0
M  V30 345 H 31.9372 0.381897 0.642 0
M  V30 346 H 34.5992 1.5347 1.20137 0
M  V30 347 H 33.6952 1.51441 2.72896 0
M  V30 348 N 33.9963 -1.19345 1.0293 0
M  V30 349 C 35.4123 -1.41069 0.746446 0
M  V30 350 C 35.6123 -1.90078 -0.668776 0
M  V30 351 O 34.6683 -2.0778 -1.4347 0
M  V30 352 C 35.9813 -2.42141 1.78292 0
M  V30 353 C 37.5293 -2.55887 1.80252 0
M  V30 354 C 38.0043 -3.60214 2.8286 0
M  V30 355 N 39.4953 -3.67711 2.81679 0
M  V30 356 C 40.2303 -4.48128 3.57727 0
M  V30 357 N 39.7263 -5.32248 4.43491 0
M  V30 358 N 41.5193 -4.42782 3.46267 0
M  V30 359 H 33.6703 -0.858536 1.94275 0
M  V30 360 H 35.9333 -0.439541 0.839945 0
M  V30 361 H 35.6393 -2.13155 2.79746 0
M  V30 362 H 35.5133 -3.41323 1.60557 0
M  V30 363 H 37.9003 -2.84196 0.794757 0
M  V30 364 H 37.9813 -1.56858 2.02062 0
M  V30 365 H 37.6253 -3.32647 3.83807 0
M  V30 366 H 37.5553 -4.58895 2.58307 0
M  V30 367 H 40.0463 -3.07634 2.19476 0
M  V30 368 H 40.3593 -5.90729 4.98256 0
M  V30 369 H 38.7043 -5.31707 4.47564 0
M  V30 370 H 41.8953 -3.76107 2.78677 0
M  V30 371 H 42.0683 -5.05215 4.05785 0
M  V30 372 N 35.4744 -0.807222 -1.35358 0
M  V30 373 C 36.4374 -0.223665 -2.28106 0
M  V30 374 C 37.4374 0.589354 -1.4961 0
M  V30 375 O 38.6274 0.407745 -1.69361 0
M  V30 376 C 35.7594 0.688149 -3.33882 0
M  V30 377 H 36.9524 -1.04169 -2.81227 0
M  V30 378 H 34.5054 -0.577921 -1.45223 0
M  V30 379 H 35.2404 1.52984 -2.85948 0
M  V30 380 H 35.0254 0.10687 -3.91954 0
M  V30 381 H 36.5154 1.09075 -4.03104 0
M  V30 382 N 36.9525 1.47285 -0.560781 0
M  V30 383 C 38.2295 1.9558 0.0277798 0
M  V30 384 C 38.6095 1.5034 1.48192 0
M  V30 385 O 37.9575 0.743882 2.16052 0
M  V30 386 C 38.1675 3.48789 -0.121418 0
M  V30 387 C 39.5155 4.24594 0.0220912 0
M  V30 388 O 40.5395 3.56166 -0.0491439 0
M  V30 389 O 39.3985 5.46217 0.175958 0
M  V30 390 H 36.4925 0.824663 0.0621342 0
M  V30 391 H 39.0385 1.5767 -0.627556 0
M  V30 392 H 37.8105 3.74533 -1.13316 0
M  V30 393 H 37.4335 3.93473 0.571366 0
M  V30 394 N 38.4306 0.297415 1.54768 0
M  V30 395 C 39.3606 -0.573494 2.26348 0
M  V30 396 C 40.3416 -1.14085 1.26169 0
M  V30 397 O 41.5266 -1.17086 1.54934 0
M  V30 398 C 38.6566 -1.74716 3.00153 0
M  V30 399 C 37.6106 -1.31032 4.07449 0
M  V30 400 C 36.9366 -2.56887 4.68949 0
M  V30 401 C 38.2366 -0.444183 5.20408 0
M  V30 402 H 39.9306 0.0235131 2.99391 0
M  V30 403 H 37.4766 0.0127488 1.43994 0
M  V30 404 H 39.4296 -2.3625 3.48947 0
M  V30 405 H 38.1536 -2.37035 2.24682 0
M  V30 406 H 36.8126 -0.718066 3.59499 0
M  V30 407 H 36.4606 -3.17512 3.90122 0
M  V30 408 H 36.1606 -2.2836 5.41411 0
M  V30 409 H 37.6846 -3.19229 5.20505 0
M  V30 410 H 39.0986 -0.9651 5.65118 0
M  V30 411 H 37.4956 -0.252846 5.99567 0
M  V30 412 H 38.5656 0.531609 4.81977 0
M  V30 413 N 39.9087 -1.5758 0.0250728 0
M  V30 414 C 40.8387 -2.13007 -0.956575 0
M  V30 415 C 41.8197 -1.0452 -1.342 0
M  V30 416 O 43.0047 -1.32332 -1.42133 0
M  V30 417 C 40.1347 -2.65386 -2.24026 0
M  V30 418 C 39.0887 -3.78623 -1.99571 0
M  V30 419 C 38.4147 -4.17414 -3.3417 0
M  V30 420 C 39.7147 -5.04867 -1.33814 0
M  V30 421 H 41.4087 -2.9528 -0.494991 0
M  V30 422 H 38.9547 -1.42042 -0.236651 0
M  V30 423 H 40.9077 -3.02794 -2.93076 0
M  V30 424 H 39.6317 -1.80268 -2.72343 0
M  V30 425 H 38.2907 -3.41646 -1.32941 0
M  V30 426 H 37.9387 -3.29284 -3.80238 0
M  V30 427 H 37.6387 -4.93719 -3.18615 0
M  V30 428 H 39.1627 -4.57402 -4.04495 0
M  V30 429 H 40.5767 -5.39888 -1.92857 0
M  V30 430 H 38.9737 -5.86144 -1.28669 0
M  V30 431 H 40.0437 -4.83904 -0.310561 0
M  V30 432 N 41.3868 0.248026 -1.55636 0
M  V30 433 C 42.6638 0.998988 -1.68165 0
M  V30 434 C 43.0438 2.03409 -0.564621 0
M  V30 435 O 42.3918 2.24378 0.432076 0
M  V30 436 C 42.6018 1.63334 -3.0842 0
M  V30 437 C 43.9498 2.13562 -3.66983 0
M  V30 438 O 44.9738 1.73277 -3.11213 0
M  V30 439 O 43.8328 2.87526 -4.64749 0
M  V30 440 H 40.9268 0.464933 -0.683935 0
M  V30 441 H 43.4728 0.241902 -1.67967 0
M  V30 442 H 42.2448 0.884583 -3.8117 0
M  V30 443 H 41.8678 2.45666 -3.12624 0
M  V30 444 N 42.8649 1.48995 0.513639 0
M  V30 445 C 43.7949 1.67636 1.62544 0
M  V30 446 C 44.7759 0.525087 1.61793 0
M  V30 447 O 45.9609 0.759502 1.78732 0
M  V30 448 C 43.0909 1.73114 3.01079 0
M  V30 449 C 42.0449 2.87905 3.16693 0
M  V30 450 C 41.3709 2.78486 4.56453 0
M  V30 451 C 42.6709 4.29005 2.97913 0
M  V30 452 H 44.3649 2.60716 1.47198 0
M  V30 453 H 41.9109 1.25465 0.706714 0
M  V30 454 H 43.8639 1.84742 3.78746 0
M  V30 455 H 42.5879 0.766241 3.17484 0
M  V30 456 H 41.2469 2.75859 2.41448 0
M  V30 457 H 40.8949 1.7993 4.69717 0
M  V30 458 H 40.5949 3.55523 4.67843 0
M  V30 459 H 42.1189 2.92104 5.36197 0
M  V30 460 H 43.5329 4.41798 3.65359 0
M  V30 461 H 41.9299 5.07166 3.20785 0
M  V30 462 H 42.9999 4.44329 1.94165 0
M  V30 463 N 44.343 -0.763751 1.37857 0
M  V30 464 C 45.591 -1.51957 1.33243 0
M  V30 465 C 45.912 -1.94835 -0.0801709 0
M  V30 466 O 45.182 -1.66894 -1.02582 0
M  V30 467 H 43.762 -0.563626 0.49024 0
M  V30 468 H 46.424 -0.908504 1.7243 0
M  V30 469 H 45.52 -2.41523 1.97669 0
M  V30 470 N 45.8211 -1.22559 -0.990812 0
M  V30 471 C 47.2321 -1.04791 -1.54518 0
M  V30 472 C 47.5831 0.387998 -1.92325 0
M  V30 473 O 46.7081 1.27328 -1.74976 0
M  V30 474 C 47.3031 -1.896 -2.80779 0
M  V30 475 C 45.8621 -1.76124 -3.32652 0
M  V30 476 C 45.0091 -1.8594 -2.05722 0
M  V30 477 H 47.9601 -1.36374 -0.811662 0
M  V30 478 H 47.9811 -1.41464 -3.53225 0
M  V30 479 H 47.4931 -2.94101 -2.53231 0
M  V30 480 H 45.5941 -0.743643 -3.65104 0
M  V30 481 H 45.7071 -2.58913 -4.03114 0
M  V30 482 H 44.0711 -1.29403 -2.19379 0
M  V30 483 H 44.8541 -2.91976 -1.80568 0
M  V30 484 N 47.2992 1.18797 -1.03562 0
M  V30 485 C 48.5472 1.88278 -0.734569 0
M  V30 486 C 48.8682 1.8043 0.739586 0
M  V30 487 O 48.1382 1.21925 1.53333 0
M  V30 488 H 46.7182 0.696991 -0.268725 0
M  V30 489 H 49.3802 1.44192 -1.31129 0
M  V30 490 H 48.4762 2.94443 -1.03489 0
M  V30 491 N 48.7773 0.814389 1.34928 0
M  V30 492 C 50.0023 0.410097 2.03305 0
M  V30 493 C 50.4273 -0.973464 1.60951 0
M  V30 494 O 49.7853 -1.63185 0.789964 0
M  V30 495 C 49.8333 0.51049 3.56968 0
M  V30 496 O 48.9373 -0.473035 4.09678 0
M  V30 497 H 48.2783 0.170088 0.641846 0
M  V30 498 H 50.8083 1.10244 1.72358 0
M  V30 499 H 50.8183 0.383135 4.06197 0
M  V30 500 H 49.4933 1.51963 3.87144 0
M  V30 501 H 48.0703 -0.305272 3.71648 0
M  V30 502 N 50.2554 -1.46986 0.568584 0
M  V30 503 C 51.1854 -2.32946 -0.160753 0
M  V30 504 C 52.1664 -1.44487 -0.897631 0
M  V30 505 O 53.3514 -1.73327 -0.875867 0
M  V30 506 C 50.4814 -3.26494 -1.18403 0
M  V30 507 C 49.4354 -4.24282 -0.562895 0
M  V30 508 C 48.7614 -5.07236 -1.69163 0
M  V30 509 C 50.0614 -5.19989 0.490761 0
M  V30 510 H 51.7554 -2.94175 0.556916 0
M  V30 511 H 49.3014 -1.4146 0.26927 0
M  V30 512 H 51.2544 -3.85477 -1.70251 0
M  V30 513 H 49.9784 -2.63343 -1.93179 0
M  V30 514 H 48.6374 -3.66541 -0.0656164 0
M  V30 515 H 48.2854 -4.4048 -2.42871 0
M  V30 516 H 47.9854 -5.7345 -1.28174 0
M  V30 517 H 49.5094 -5.6908 -2.21314 0
M  V30 518 H 50.9234 -5.73271 0.0579047 0
M  V30 519 H 49.3204 -5.94469 0.820165 0
M  V30 520 H 50.3904 -4.64777 1.3824 0
M  V30 521 N 51.7335 -0.305618 -1.54608 0
M  V30 522 C 52.9585 0.307562 -2.05107 0
M  V30 523 C 53.3835 1.46385 -1.18123 0
M  V30 524 O 52.7415 1.8034 -0.186324 0
M  V30 525 C 52.7895 0.73704 -3.52987 0
M  V30 526 O 51.8935 1.84134 -3.6901 0
M  V30 527 H 51.2345 0.0589143 -0.661381 0
M  V30 528 H 53.7645 -0.448807 -1.99617 0
M  V30 529 H 53.7745 1.02459 -3.94925 0
M  V30 530 H 52.4495 -0.108773 -4.15758 0
M  V30 531 H 51.0265 1.55398 -3.38978 0
M  V30 532 N 53.2116 1.57565 -0.0334293 0
M  V30 533 C 54.4886 1.83282 0.683163 0
M  V30 534 C 54.8686 0.91823 1.90084 0
M  V30 535 O 54.2166 -0.025113 2.28486 0
M  V30 536 C 54.4266 3.32599 1.0573 0
M  V30 537 C 55.7746 3.99179 1.44711 0
M  V30 538 O 56.7986 3.3712 1.15015 0
M  V30 539 O 55.6576 5.08565 2.0006 0
M  V30 540 H 52.7516 0.755869 0.335546 0
M  V30 541 H 55.2976 1.69589 -0.0614402 0
M  V30 542 H 54.0696 3.90834 0.190828 0
M  V30 543 H 53.6926 3.51415 1.85993 0
M  V30 544 N 54.6897 -0.239769 1.55765 0
M  V30 545 C 55.9377 -0.964892 1.77579 0
M  V30 546 C 56.2587 -1.85582 0.598699 0
M  V30 547 O 55.5287 -1.92075 -0.385226 0
M  V30 548 H 54.1087 -0.359265 0.654933 0
M  V30 549 H 56.7707 -0.256001 1.93211 0
M  V30 550 H 55.8667 -1.58243 2.69009 0
M  V30 551 N 56.1678 -1.49265 -0.50573 0
M  V30 552 C 57.0978 -1.68495 -1.61653 0
M  V30 553 C 58.0788 -0.53366 -1.61512 0
M  V30 554 O 59.2638 -0.76897 -1.78327 0
M  V30 555 C 56.3938 -1.74709 -3.00157 0
M  V30 556 C 55.3478 -2.89581 -3.15162 0
M  V30 557 C 54.6738 -2.80903 -4.5497 0
M  V30 558 C 55.9738 -4.30578 -2.95634 0
M  V30 559 H 57.6678 -2.61493 -1.45814 0
M  V30 560 H 55.2138 -1.25838 -0.70005 0
M  V30 561 H 57.1668 -1.86748 -3.77761 0
M  V30 562 H 55.8908 -0.783067 -3.17074 0
M  V30 563 H 54.5498 -2.77136 -2.39982 0
M  V30 564 H 54.1978 -1.82419 -4.68756 0
M  V30 565 H 53.8978 -3.57999 -4.65951 0
M  V30 566 H 55.4218 -2.94944 -5.34641 0
M  V30 567 H 56.8358 -4.4373 -3.63011 0
M  V30 568 H 55.2328 -5.0886 -3.18091 0
M  V30 569 H 56.3028 -4.45352 -1.91806 0
M  V30 570 N 57.6459 0.756429 -1.3826 0
M  V30 571 C 58.8709 1.55077 -1.37717 0
M  V30 572 C 59.2959 1.88073 0.03164 0
M  V30 573 O 58.6539 1.50364 1.01293 0
M  V30 574 C 58.7019 2.8283 -2.23695 0
M  V30 575 O 57.8059 3.77862 -1.6521 0
M  V30 576 H 57.1469 0.469152 -0.469885 0
M  V30 577 H 59.6769 0.935019 -1.81985 0
M  V30 578 H 59.6869 3.31783 -2.37453 0
M  V30 579 H 58.3619 2.58144 -3.2609 0
M  V30 580 H 56.9389 3.36555 -1.60578 0
M  V30 581 N 59.124 1.23083 0.984299 0
M  V30 582 C 60.054 1.03292 2.09411 0
M  V30 583 C 61.035 -0.048923 1.7003 0
M  V30 584 O 62.22 0.114967 1.93859 0
M  V30 585 C 59.35 0.619155 3.41736 0
M  V30 586 C 58.304 1.64791 3.95004 0
M  V30 587 C 57.63 1.0897 5.23478 0
M  V30 588 C 58.93 3.03999 4.24714 0
M  V30 589 H 60.624 1.96119 2.26225 0
M  V30 590 H 58.17 0.944344 1.08711 0
M  V30 591 H 60.123 0.467777 4.18796 0
M  V30 592 H 58.847 -0.344786 3.24775 0
M  V30 593 H 57.506 1.78721 3.20085 0
M  V30 594 H 57.154 0.11686 5.02864 0
M  V30 595 H 56.854 1.77704 5.60085 0
M  V30 596 H 58.378 0.950093 6.03163 0
M  V30 597 H 59.792 2.93393 4.92538 0
M  V30 598 H 58.189 3.69936 4.72512 0
M  V30 599 H 59.259 3.53285 3.32142 0
M  V30 600 N 60.6021 -1.18246 1.0419 0
M  V30 601 C 61.5651 -2.20128 0.638452 0
M  V30 602 C 62.5651 -1.57885 -0.304805 0
M  V30 603 O 63.7551 -1.73967 -0.0900369 0
M  V30 604 C 60.8871 -3.4084 -0.0637751 0
M  V30 605 H 62.0801 -2.57336 1.54007 0
M  V30 606 H 59.6331 -1.32152 0.834598 0
M  V30 607 H 60.3681 -3.09166 -0.979136 0
M  V30 608 H 60.1531 -3.8726 0.614198 0
M  V30 609 H 61.6431 -4.16274 -0.332512 0
M  V30 610 N 62.0802 -0.821533 -1.34494 0
M  V30 611 C 63.0432 -0.247847 -2.27856 0
M  V30 612 C 64.0432 0.573453 -1.50227 0
M  V30 613 O 65.2332 0.389759 -1.69784 0
M  V30 614 C 62.3652 0.652698 -3.34593 0
M  V30 615 H 63.5582 -1.07146 -2.80107 0
M  V30 616 H 61.1112 -0.593291 -1.44602 0
M  V30 617 H 61.8462 1.49943 -2.87555 0
M  V30 618 H 61.6312 0.065292 -3.92046 0
M  V30 619 H 63.1212 1.04793 -4.04238 0
M  V30 620 N 63.5583 1.46682 -0.576371 0
M  V30 621 C 64.9693 1.86112 -0.148091 0
M  V30 622 C 65.3203 1.48073 1.2872 0
M  V30 623 O 64.4453 0.892656 1.97131 0
M  V30 624 C 65.0403 3.37786 -0.261982 0
M  V30 625 C 63.5993 3.76235 0.111384 0
M  V30 626 C 62.7463 2.70713 -0.60083 0
M  V30 627 H 65.6973 1.37927 -0.78497 0
M  V30 628 H 65.7183 3.77007 0.514364 0
M  V30 629 H 65.2303 3.6544 -1.30671 0
M  V30 630 H 63.3313 3.54198 1.15649 0
M  V30 631 H 63.4443 4.78391 -0.26052 0
M  V30 632 H 61.8083 2.54666 -0.0417783 0
M  V30 633 H 62.5913 3.01208 -1.64708 0
M  V30 634 N 65.0364 0.313813 1.54444 0
M  V30 635 C 66.2844 -0.291099 1.99993 0
M  V30 636 C 66.6054 -1.53418 1.20366 0
M  V30 637 O 65.8754 -1.93544 0.302927 0
M  V30 638 H 64.4554 -0.110552 0.738774 0
M  V30 639 H 67.1174 0.428106 1.9014 0
M  V30 640 H 66.2134 -0.554268 3.07139 0
M  V30 641 N 66.5145 -1.57545 0.0417849 0
M  V30 642 C 67.7605 -1.93424 -0.629168 0
M  V30 643 C 68.1155 -0.919564 -1.69002 0
M  V30 644 O 67.4085 0.0626178 -1.91498 0
M  V30 645 C 67.6025 -3.33794 -1.27735 0
M  V30 646 C 67.4315 -4.48822 -0.280806 0
M  V30 647 C 66.2015 -5.05148 0.123869 0
M  V30 648 C 68.3995 -5.12148 0.470012 0
M  V30 649 N 66.3815 -6.03703 1.11426 0
M  V30 650 C 67.7525 -6.05921 1.31377 0
M  V30 651 C 69.8075 -4.95078 0.529343 0
M  V30 652 C 68.5105 -6.84459 2.21152 0
M  V30 653 C 70.5365 -5.74235 1.41448 0
M  V30 654 C 69.8985 -6.67634 2.24598 0
M  V30 655 H 65.9975 -0.755418 -0.202158 0
M  V30 656 H 68.5815 -1.94378 0.111923 0
M  V30 657 H 66.7525 -3.33635 -1.98852 0
M  V30 658 H 68.4845 -3.56988 -1.90635 0
M  V30 659 H 65.2395 -4.72923 -0.253178 0
M  V30 660 H 65.6635 -6.57674 1.60607 0
M  V30 661 H 70.3055 -4.22683 -0.0992798 0
M  V30 662 H 68.0235 -7.56151 2.85063 0
M  V30 663 H 71.6095 -5.63057 1.46484 0
M  V30 664 H 70.4895 -7.27817 2.9198 0
M  V30 665 N 67.9926 0.231505 -1.5589 0
M  V30 666 C 69.2406 0.955461 -1.78088 0
M  V30 667 C 69.5616 1.85262 -0.608533 0
M  V30 668 O 68.8316 1.92277 0.375035 0
M  V30 669 H 67.4116 0.355787 -0.656829 0
M  V30 670 H 70.0736 0.245751 -1.93344 0
M  V30 671 H 69.1696 1.56814 -2.69844 0
M  V30 672 N 69.4707 1.49531 0.497807 0
M  V30 673 C 70.7167 1.59415 1.25358 0
M  V30 674 C 71.0497 0.281422 1.9215 0
M  V30 675 O 70.3247 -0.715249 1.80871 0
M  V30 676 C 70.6077 2.75566 2.3181 0
M  V30 677 C 70.4607 4.16642 1.69498 0
M  V30 678 C 71.7797 2.87347 3.33346 0
M  V30 679 H 68.8987 0.580244 0.454408 0
M  V30 680 H 71.5407 1.81827 0.551262 0
M  V30 681 H 69.6907 2.56587 2.91711 0
M  V30 682 H 71.3627 4.47145 1.13399 0
M  V30 683 H 69.6057 4.22141 0.998978 0
M  V30 684 H 70.2767 4.93792 2.46725 0
M  V30 685 H 72.7527 3.04634 2.83438 0
M  V30 686 H 71.6287 3.70289 4.05188 0
M  V30 687 H 71.8897 1.96834 3.95865 0
M  V30 688 N 70.9488 -0.749086 1.3866 0
M  V30 689 C 72.3598 -1.32664 1.31366 0
M  V30 690 C 72.7108 -1.96179 -0.028484 0
M  V30 691 O 71.8358 -1.9537 -0.93057 0
M  V30 692 C 72.4308 -2.41219 2.37905 0
M  V30 693 C 70.9898 -2.94684 2.34176 0
M  V30 694 C 70.1368 -1.68108 2.20533 0
M  V30 695 H 73.0878 -0.547628 1.48952 0
M  V30 696 H 73.1088 -3.21268 2.0388 0
M  V30 697 H 72.6208 -1.94962 3.35576 0
M  V30 698 H 70.7218 -3.45258 1.401 0
M  V30 699 H 70.8348 -3.48757 3.2849 0
M  V30 700 H 69.1988 -1.91907 1.67463 0
M  V30 701 H 69.9818 -1.23923 3.20153 0
M  V30 702 N 72.4269 -1.23603 -0.977757 0
M  V30 703 C 73.3369 -1.03632 -2.1047 0
M  V30 704 C 74.3529 0.0199435 -1.73989 0
M  V30 705 O 75.5289 -0.176076 -2.00629 0
M  V30 706 C 72.5939 -0.63276 -3.40877 0
M  V30 707 C 71.6549 -1.76437 -3.91367 0
M  V30 708 C 70.8879 -1.37997 -5.15551 0
M  V30 709 O 71.1109 -0.265357 -5.69782 0
M  V30 710 O 70.0449 -2.20201 -5.60174 0
M  V30 711 H 73.8709 -1.98086 -2.30208 0
M  V30 712 H 71.4559 -1.02332 -1.08851 0
M  V30 713 H 73.3379 -0.418761 -4.19314 0
M  V30 714 H 72.0129 0.282754 -3.22463 0
M  V30 715 H 70.9199 -2.03304 -3.14036 0
M  V30 716 H 72.2529 -2.6583 -4.14241 0
M  V30 717 N 73.905 1.17692 -1.04816 0
M  V30 718 C 74.815 2.25229 -0.65643 0
M  V30 719 C 75.831 1.71018 0.320761 0
M  V30 720 O 77.007 2.00649 0.173805 0
M  V30 721 C 74.072 3.46684 -0.0332629 0
M  V30 722 C 73.133 4.15997 -1.06042 0
M  V30 723 C 72.366 5.31654 -0.466893 0
M  V30 724 O 72.589 5.65777 0.724758 0
M  V30 725 O 71.523 5.89831 -1.1993 0
M  V30 726 H 75.349 2.61016 -1.55255 0
M  V30 727 H 72.934 1.24919 -0.81949 0
M  V30 728 H 74.816 4.20234 0.313256 0
M  V30 729 H 73.491 3.12703 0.836566 0
M  V30 730 H 72.398 3.44482 -1.45886 0
M  V30 731 H 73.731 4.53996 -1.90127 0
M  V30 732 N 75.3831 0.828654 1.34056 0
M  V30 733 C 76.7941 0.477534 1.8049 0
M  V30 734 C 77.1451 -1.00258 1.6865 0
M  V30 735 O 76.2701 -1.78057 1.22982 0
M  V30 736 C 76.8651 0.860018 3.27703 0
M  V30 737 C 75.4241 0.561185 3.72193 0
M  V30 738 C 74.5711 1.07385 2.55663 0
M  V30 739 H 77.5221 1.0183 1.21722 0
M  V30 740 H 77.5431 0.166038 3.80138 0
M  V30 741 H 77.0551 1.93731 3.36288 0
M  V30 742 H 75.1561 -0.506465 3.69142 0
M  V30 743 H 75.2691 1.10926 4.66082 0
M  V30 744 H 73.6331 0.495149 2.49841 0
M  V30 745 H 74.4161 2.15771 2.67016 0
M  V30 746 N 76.8612 -1.46375 0.584142 0
M  V30 747 C 78.1092 -2.01978 0.0701287 0
M  V30 748 C 78.4302 -1.4579 -1.295 0
M  V30 749 O 77.7002 -0.64314 -1.85042 0
M  V30 750 H 76.2802 -0.746648 0.0229345 0
M  V30 751 H 78.9422 -1.79461 0.760245 0
M  V30 752 H 78.0382 -3.121 0.0022064 0
M  V30 753 N 78.3393 -0.321999 -1.54275 0
M  V30 754 C 79.5883 0.281931 -1.9972 0
M  V30 755 C 79.9013 1.53369 -1.21397 0
M  V30 756 O 81.1073 2.21352 -1.57211 0
M  V30 757 C 79.5633 0.5529 -3.55628 0
M  V30 758 C 79.1713 -0.681721 -4.42783 0
M  V30 759 C 80.9153 1.11687 -4.09544 0
M  V30 760 C 78.8223 -0.382742 -5.9016 0
M  V30 761 H 77.7523 0.109124 -0.746062 0
M  V30 762 H 80.4033 -0.43398 -1.78294 0
M  V30 763 H 78.7853 1.32896 -3.73035 0
M  V30 764 H 79.9593 -1.45723 -4.37151 0
M  V30 765 H 78.2743 -1.1658 -3.99748 0
M  V30 766 H 80.8713 1.35515 -5.17242 0
M  V30 767 H 81.2143 2.06575 -3.61431 0
M  V30 768 H 81.7473 0.402032 -3.95763 0
M  V30 769 H 78.4863 -1.30076 -6.42464 0
M  V30 770 H 78.0063 0.355094 -5.98748 0
M  V30 771 H 79.6853 0.00800157 -6.47 0
M  V30 772 N 79.8174 1.5752 -0.0501392 0
M  V30 773 C 80.7274 2.14952 0.939827 0
M  V30 774 C 81.7434 1.10706 1.34239 0
M  V30 775 O 82.9194 1.42869 1.41952 0
M  V30 776 C 79.9844 2.68232 2.19665 0
M  V30 777 C 79.0454 3.87272 1.85253 0
M  V30 778 C 78.2784 4.38002 3.04943 0
M  V30 779 O 78.5014 3.87811 4.18281 0
M  V30 780 O 77.4354 5.29602 2.86017 0
M  V30 781 H 81.2614 2.9986 0.481392 0
M  V30 782 H 78.8464 1.4841 0.171699 0
M  V30 783 H 80.7284 3.02475 2.93406 0
M  V30 784 H 79.4034 1.86395 2.64648 0
M  V30 785 H 78.3104 3.5792 1.0883 0
M  V30 786 H 79.6434 4.70336 1.4507 0
M  V30 787 N 81.2955 -0.223234 1.56011 0
M  V30 788 C 82.2285 -1.30377 1.87289 0
M  V30 789 C 83.2065 -1.45286 0.730112 0
M  V30 790 O 84.3905 -1.61126 0.978302 0
M  V30 791 C 81.5175 -2.67431 2.07843 0
M  V30 792 C 80.5635 -2.69546 3.30526 0
M  V30 793 S 81.3965 -2.23781 4.865 0
M  V30 794 C 82.5525 -3.62714 5.10088 0
M  V30 795 H 82.7855 -1.03652 2.78646 0
M  V30 796 H 80.3185 -0.425393 1.48424 0
M  V30 797 H 82.2765 -3.46336 2.20368 0
M  V30 798 H 80.9375 -2.91381 1.17285 0
M  V30 799 H 80.1305 -3.70255 3.41947 0
M  V30 800 H 79.7325 -1.98703 3.16849 0
M  V30 801 H 82.0245 -4.58391 4.98883 0
M  V30 802 H 82.9675 -3.5621 6.11981 0
M  V30 803 H 83.3755 -3.56323 4.37829 0
M  V30 804 N 82.7736 -1.49793 -0.48987 0
M  V30 805 C 83.7036 -1.70201 -1.59856 0
M  V30 806 C 84.6846 -0.55076 -1.60937 0
M  V30 807 O 85.8696 -0.787841 -1.77501 0
M  V30 808 C 82.9996 -1.77882 -2.98287 0
M  V30 809 C 81.9536 -2.92907 -3.12073 0
M  V30 810 C 81.2796 -2.85712 -4.51965 0
M  V30 811 C 82.5796 -4.3369 -2.91051 0
M  V30 812 H 84.2736 -2.63025 -1.43032 0
M  V30 813 H 81.8196 -1.26574 -0.686664 0
M  V30 814 H 83.7726 -1.90744 -3.75759 0
M  V30 815 H 82.4966 -0.816653 -3.16225 0
M  V30 816 H 81.1556 -2.79665 -2.37029 0
M  V30 817 H 80.8036 -1.8738 -4.66795 0
M  V30 818 H 80.5036 -3.62921 -4.62128 0
M  V30 819 H 82.0276 -3.00598 -5.31482 0
M  V30 820 H 83.4416 -4.47555 -3.58284 0
M  V30 821 H 81.8386 -5.12205 -3.12675 0
M  V30 822 H 82.9086 -4.47362 -1.87071 0
M  V30 823 N 84.2517 0.741722 -1.39055 0
M  V30 824 C 85.2017 1.84661 -1.33732 0
M  V30 825 C 86.1857 1.59397 -0.219401 0
M  V30 826 O 87.3777 1.71015 -0.456375 0
M  V30 827 C 84.5067 3.22512 -1.17647 0
M  V30 828 C 83.5927 3.53628 -2.34112 0
M  V30 829 N 83.9837 3.55723 -3.59576 0
M  V30 830 C 82.2817 3.83956 -2.26923 0
M  V30 831 C 82.9827 3.84443 -4.36553 0
M  V30 832 N 81.9587 4.01877 -3.66055 0
M  V30 833 H 85.7607 1.84576 -2.28711 0
M  V30 834 H 83.2747 0.939647 -1.32455 0
M  V30 835 H 85.2717 4.01597 -1.11917 0
M  V30 836 H 83.9317 3.2384 -0.236124 0
M  V30 837 H 84.9427 3.37196 -3.93089 0
M  V30 838 H 81.6197 3.92929 -1.41113 0
M  V30 839 H 83.0097 3.92588 -5.45274 0
M  V30 840 N 85.7298 1.2412 0.971189 0
M  V30 841 C 86.9778 1.07668 1.71032 0
M  V30 842 C 87.2988 -0.385797 1.91146 0
M  V30 843 O 86.5688 -1.27569 1.4867 0
M  V30 844 H 85.1488 0.395429 0.633755 0
M  V30 845 H 87.8108 1.55984 1.16855 0
M  V30 846 H 86.9068 1.57195 2.69622 0
M  V30 847 N 87.2079 -1.17134 1.05439 0
M  V30 848 C 88.4359 -1.91372 0.786414 0
M  V30 849 C 88.8509 -1.76955 -0.658202 0
M  V30 850 O 88.2079 -1.10838 -1.44987 0
M  V30 851 C 88.2589 -3.42356 1.1608 0
M  V30 852 O 87.9799 -3.56332 2.54871 0
M  V30 853 C 89.4809 -4.33663 0.919322 0
M  V30 854 H 86.7009 -0.607118 0.285743 0
M  V30 855 H 89.2449 -1.48525 1.40572 0
M  V30 856 H 87.3999 -3.82939 0.586191 0
M  V30 857 H 87.8139 -4.49896 2.69618 0
M  V30 858 H 89.2879 -5.38099 1.231 0
M  V30 859 H 89.7649 -4.38959 -0.145359 0
M  V30 860 H 90.3709 -3.98796 1.47789 0
M  V30 861 N 88.686 -0.835752 -1.33615 0
M  V30 862 C 89.914 -0.443344 -2.02094 0
M  V30 863 C 90.329 0.954522 -1.62894 0
M  V30 864 O 89.686 1.61982 -0.840723 0
M  V30 865 C 89.737 -0.550775 -3.5728 0
M  V30 866 O 89.458 -1.89356 -3.95065 0
M  V30 867 C 90.959 -0.154919 -4.43029 0
M  V30 868 H 88.179 -0.176359 -0.647409 0
M  V30 869 H 90.723 -1.12746 -1.70612 0
M  V30 870 H 88.878 0.0853997 -3.87306 0
M  V30 871 H 89.292 -1.87687 -4.89769 0
M  V30 872 H 90.766 -0.281144 -5.51284 0
M  V30 873 H 91.243 0.902863 -4.2982 0
M  V30 874 H 91.849 -0.765404 -4.18356 0
M  V30 875 N 90.1641 1.46063 -0.591896 0
M  V30 876 C 91.3921 2.06717 -0.0868936 0
M  V30 877 C 91.8071 1.43916 1.22203 0
M  V30 878 O 91.1641 0.547698 1.74088 0
M  V30 879 C 91.2151 3.6142 0.0758725 0
M  V30 880 O 90.9361 4.21874 -1.18126 0
M  V30 881 C 92.4371 4.39025 0.61416 0
M  V30 882 H 89.6571 0.668162 -0.0616518 0
M  V30 883 H 92.2011 1.8755 -0.815175 0
M  V30 884 H 90.3561 3.79983 0.754413 0
M  V30 885 H 90.7701 5.14861 -1.00092 0
M  V30 886 H 92.2441 5.4783 0.677193 0
M  V30 887 H 92.7211 4.07708 1.63312 0
M  V30 888 H 93.3271 4.2529 -0.0298142 0
M  V30 889 N 91.6422 0.330177 1.54103 0
M  V30 890 C 92.5722 -0.525353 2.27513 0
M  V30 891 C 93.5532 -1.11383 1.2856 0
M  V30 892 O 94.7382 -1.13773 1.57383 0
M  V30 893 C 91.8682 -1.6831 3.03791 0
M  V30 894 C 90.8222 -1.2236 4.10137 0
M  V30 895 C 90.1482 -2.46882 4.74293 0
M  V30 896 C 91.4482 -0.333697 5.21233 0
M  V30 897 H 93.1422 0.087013 2.99274 0
M  V30 898 H 90.6882 0.0432893 1.43935 0
M  V30 899 H 92.6412 -2.28795 3.5388 0
M  V30 900 H 91.3652 -2.32216 2.29659 0
M  V30 901 H 90.0242 -0.64165 3.60941 0
M  V30 902 H 89.6722 -3.09165 3.96769 0
M  V30 903 H 89.3722 -2.16825 5.46133 0
M  V30 904 H 90.8962 -3.08117 5.27159 0
M  V30 905 H 92.3102 -0.845013 5.67038 0
M  V30 906 H 90.7072 -0.125612 5.99969 0
M  V30 907 H 91.7772 0.633724 4.80741 0
M  V30 908 N 93.1203 -1.57491 0.0584922 0
M  V30 909 C 94.0833 -2.1085 -0.898617 0
M  V30 910 C 95.0833 -1.02964 -1.23511 0
M  V30 911 O 96.2733 -1.29007 -1.17059 0
M  V30 912 C 93.4053 -2.59881 -2.20623 0
M  V30 913 H 94.5983 -2.96715 -0.435936 0
M  V30 914 H 92.1513 -1.55141 -0.190023 0
M  V30 915 H 92.8863 -1.77431 -2.71457 0
M  V30 916 H 92.6713 -3.38727 -1.97501 0
M  V30 917 H 94.1613 -3.01285 -2.89166 0
M  V30 918 N 94.5984 0.214957 -1.56127 0
M  V30 919 C 95.8454 0.938372 -1.79446 0
M  V30 920 C 96.1734 1.8407 -0.628378 0
M  V30 921 O 95.4284 1.91837 0.386925 0
M  V30 922 C 95.7274 1.80314 -3.0858 0
M  V30 923 C 95.3934 1.05349 -4.3842 0
M  V30 924 C 94.0554 0.846435 -4.73697 0
M  V30 925 C 96.4074 0.524588 -5.18553 0
M  V30 926 C 93.7354 0.098683 -5.86617 0
M  V30 927 C 96.0874 -0.209853 -6.32252 0
M  V30 928 C 94.7514 -0.428102 -6.66126 0
M  V30 929 H 94.0214 0.343375 -0.656639 0
M  V30 930 H 96.6684 0.206077 -1.90388 0
M  V30 931 H 94.9734 2.6035 -2.92789 0
M  V30 932 H 96.6704 2.36513 -3.23825 0
M  V30 933 H 93.2604 1.22486 -4.10725 0
M  V30 934 H 97.4444 0.672008 -4.91729 0
M  V30 935 H 92.7004 -0.0805753 -6.11347 0
M  V30 936 H 96.8744 -0.627157 -6.9357 0
M  V30 937 H 94.5014 -1.00944 -7.53468 0
M  V30 938 N 96.0765 1.50051 0.48192 0
M  V30 939 C 97.0235 1.68122 1.58125 0
M  V30 940 C 97.9935 0.522545 1.57666 0
M  V30 941 O 99.1785 0.751844 1.75362 0
M  V30 942 C 96.3185 1.77142 2.96167 0
M  V30 943 C 95.4315 3.0444 3.06497 0
M  V30 944 C 94.5665 3.04321 4.35387 0
M  V30 945 C 93.6055 4.26118 4.3942 0
M  V30 946 N 92.7425 4.238 5.59766 0
M  V30 947 H 97.5825 2.6198 1.42022 0
M  V30 948 H 95.1195 1.29877 0.690687 0
M  V30 949 H 97.0775 1.80352 3.76203 0
M  V30 950 H 95.7075 0.867329 3.1093 0
M  V30 951 H 94.7595 3.10752 2.19402 0
M  V30 952 H 96.0715 3.94426 3.05336 0
M  V30 953 H 95.2255 3.062 5.23762 0
M  V30 954 H 93.9645 2.12147 4.39141 0
M  V30 955 H 92.9695 4.24463 3.49444 0
M  V30 956 H 94.1945 5.19507 4.37366 0
M  V30 957 H 92.1405 3.34474 5.64326 0
M  V30 958 H 92.0575 5.07542 5.60301 0
M  V30 959 H 93.3255 4.2981 6.50295 0
M  V30 960 N 97.5546 -0.734337 1.39446 0
M  V30 961 C 98.8016 -1.49391 1.36706 0
M  V30 962 C 99.1296 -1.94465 -0.0367813 0
M  V30 963 O 98.3846 -1.67154 -1.01774 0
M  V30 964 C 98.6836 -2.74711 2.28623 0
M  V30 965 C 98.3496 -2.48501 3.76242 0
M  V30 966 C 97.0116 -2.41062 4.16464 0
M  V30 967 C 99.3636 -2.26098 4.69606 0
M  V30 968 C 96.6916 -2.09262 5.48112 0
M  V30 969 C 99.0436 -1.95814 6.01531 0
M  V30 970 C 97.7076 -1.86845 6.40816 0
M  V30 971 H 96.9776 -0.546661 0.500243 0
M  V30 972 H 99.6246 -0.842788 1.71957 0
M  V30 973 H 97.9296 -3.44569 1.86492 0
M  V30 974 H 99.6266 -3.32741 2.23796 0
M  V30 975 H 96.2166 -2.55169 3.44364 0
M  V30 976 H 100.401 -2.30812 4.39363 0
M  V30 977 H 95.6566 -2.00841 5.77471 0
M  V30 978 H 99.8306 -1.77488 6.73403 0
M  V30 979 H 97.4576 -1.6197 7.42745 0
M  V30 980 N 99.0327 -1.24633 -0.964593 0
M  V30 981 C 100.449 -1.01239 -1.2338 0
M  V30 982 C 100.649 0.2769 -1.99588 0
M  V30 983 O 99.7047 0.992241 -2.32187 0
M  V30 984 C 101.018 -2.22937 -2.01791 0
M  V30 985 C 102.566 -2.27594 -2.14872 0
M  V30 986 C 103.041 -3.48921 -2.96678 0
M  V30 987 N 104.532 -3.49257 -3.04259 0
M  V30 988 C 105.267 -4.39795 -3.67924 0
M  V30 989 N 104.763 -5.40591 -4.33281 0
M  V30 990 N 106.556 -4.275 -3.64966 0
M  V30 991 H 98.7067 -2.0748 -0.454502 0
M  V30 992 H 100.97 -0.910647 -0.26349 0
M  V30 993 H 100.676 -3.16587 -1.53184 0
M  V30 994 H 100.55 -2.25306 -3.02518 0
M  V30 995 H 102.937 -1.34473 -2.6268 0
M  V30 996 H 103.018 -2.2925 -1.13482 0
M  V30 997 H 102.662 -4.42359 -2.49562 0
M  V30 998 H 102.592 -3.4451 -3.98272 0
M  V30 999 H 105.083 -2.76337 -2.57771 0
M  V30 1000 H 105.396 -6.05904 -4.79687 0
M  V30 1001 H 103.741 -5.44475 -4.3194 0
M  V30 1002 H 106.932 -3.47987 -3.13086 0
M  V30 1003 H 107.105 -4.98258 -4.14298 0
M  V30 1004 N 100.511 1.16574 -1.06058 0
M  V30 1005 C 101.461 2.18854 -0.63929 0
M  V30 1006 C 102.445 1.57505 0.328798 0
M  V30 1007 O 103.637 1.76408 0.144623 0
M  V30 1008 C 100.766 3.43291 -0.0247203 0
M  V30 1009 C 99.8518 4.11722 -1.01716 0
M  V30 1010 N 100.243 4.55841 -2.19186 0
M  V30 1011 C 98.5408 4.37872 -0.847569 0
M  V30 1012 C 99.2418 5.08751 -2.82042 0
M  V30 1013 N 98.2178 5.01489 -2.09784 0
M  V30 1014 H 102.02 2.5068 -1.53417 0
M  V30 1015 H 99.5338 1.32999 -0.931935 0
M  V30 1016 H 101.531 4.15856 0.294915 0
M  V30 1017 H 100.191 3.12954 0.865448 0
M  V30 1018 H 101.202 4.49649 -2.56975 0
M  V30 1019 H 97.8788 4.17499 -0.00918848 0
M  V30 1020 H 99.2688 5.52944 -3.81709 0
M  V30 1021 N 101.989 0.842826 1.3317 0
M  V30 1022 C 103.237 0.439577 1.97262 0
M  V30 1023 C 103.558 -1.00548 1.67078 0
M  V30 1024 O 102.828 -1.70098 0.971779 0
M  V30 1025 H 101.408 0.159558 0.72976 0
M  V30 1026 H 104.07 1.07665 1.62463 0
M  V30 1027 H 103.166 0.574886 3.0676 0
M  V30 1028 N 103.467 -1.45747 0.599634 0
M  V30 1029 C 104.713 -2.02592 0.0918643 0
M  V30 1030 C 105.046 -1.46806 -1.27128 0
M  V30 1031 O 104.321 -0.639658 -1.83681 0
M  V30 1032 C 104.604 -3.60073 0.0443398 0
M  V30 1033 C 104.457 -4.26208 1.43759 0
M  V30 1034 C 105.776 -4.35309 -0.647608 0
M  V30 1035 H 102.895 -0.736175 0.034857 0
M  V30 1036 H 105.537 -1.73694 0.770081 0
M  V30 1037 H 103.687 -3.84823 -0.533224 0
M  V30 1038 H 105.359 -4.12668 2.06162 0
M  V30 1039 H 103.602 -3.84916 2.00056 0
M  V30 1040 H 104.273 -5.35069 1.35665 0
M  V30 1041 H 106.749 -4.15805 -0.156776 0
M  V30 1042 H 105.625 -5.45038 -0.649942 0
M  V30 1043 H 105.886 -4.07598 -1.71219 0
M  V30 1044 N 104.945 -0.338344 -1.53925 0
M  V30 1045 C 106.194 0.260732 -2.00008 0
M  V30 1046 C 106.507 1.52073 -1.23017 0
M  V30 1047 O 107.713 2.19672 -1.5955 0
M  V30 1048 C 106.169 0.51515 -3.56194 0
M  V30 1049 C 105.777 -0.728645 -4.42035 0
M  V30 1050 C 107.521 1.07337 -4.10706 0
M  V30 1051 C 105.428 -0.445315 -5.89721 0
M  V30 1052 H 104.358 0.101205 -0.747177 0
M  V30 1053 H 107.009 -0.452866 -1.77824 0
M  V30 1054 H 105.391 1.28932 -3.74423 0
M  V30 1055 H 106.565 -1.50352 -4.35581 0
M  V30 1056 H 104.88 -1.20813 -3.98489 0
M  V30 1057 H 107.477 1.30022 -5.18651 0
M  V30 1058 H 107.82 2.0273 -3.63602 0
M  V30 1059 H 108.353 0.360034 -3.96167 0
M  V30 1060 H 105.092 -1.36883 -6.41049 0
M  V30 1061 H 104.612 0.291569 -5.99091 0
M  V30 1062 H 106.291 -0.0606218 -6.46972 0
M  V30 1063 N 106.423 1.57458 -0.0668435 0
M  V30 1064 C 107.669 1.93587 0.6043 0
M  V30 1065 C 108.002 0.946722 1.69561 0
M  V30 1066 O 107.277 -0.0248516 1.94484 0
M  V30 1067 C 107.56 3.40014 1.18585 0
M  V30 1068 C 107.413 4.49685 0.101529 0
M  V30 1069 C 108.732 3.87154 2.09284 0
M  V30 1070 H 105.851 0.703958 0.218202 0
M  V30 1071 H 108.493 1.89542 -0.131804 0
M  V30 1072 H 106.643 3.43592 1.81319 0
M  V30 1073 H 108.315 4.5823 -0.531279 0
M  V30 1074 H 106.558 4.30059 -0.568487 0
M  V30 1075 H 107.229 5.49266 0.54874 0
M  V30 1076 H 109.705 3.85551 1.56491 0
M  V30 1077 H 108.581 4.90231 2.46911 0
M  V30 1078 H 108.842 3.2481 2.99918 0
M  V30 1079 N 107.901 -0.206675 1.56239 0
M  V30 1080 C 108.864 -1.23976 1.92776 0
M  V30 1081 C 109.864 -1.39041 0.807729 0
M  V30 1082 O 111.054 -1.37051 1.0753 0
M  V30 1083 C 108.186 -2.61112 2.19165 0
M  V30 1084 H 109.379 -0.927764 2.85189 0
M  V30 1085 H 106.932 -0.447718 1.4975 0
M  V30 1086 H 107.667 -2.97386 1.29352 0
M  V30 1087 H 107.452 -2.51552 3.00772 0
M  V30 1088 H 108.942 -3.35633 2.48476 0
M  V30 1089 N 109.379 -1.50304 -0.473955 0
M  V30 1090 C 110.342 -1.6841 -1.55469 0
M  V30 1091 C 111.342 -0.554905 -1.50922 0
M  V30 1092 O 112.532 -0.821882 -1.53593 0
M  V30 1093 C 109.664 -1.70667 -2.95102 0
M  V30 1094 H 110.857 -2.64828 -1.40733 0
M  V30 1095 H 108.41 -1.39742 -0.700132 0
M  V30 1096 H 109.145 -0.75932 -3.15285 0
M  V30 1097 H 108.93 -2.52698 -2.9981 0
M  V30 1098 H 110.42 -1.8664 -3.73571 0
M  V30 1099 N 110.857 0.726932 -1.39834 0
M  V30 1100 C 112.134 1.47902 -1.28001 0
M  V30 1101 C 112.514 2.1083 0.106789 0
M  V30 1102 O 111.862 1.99242 1.11869 0
M  V30 1103 C 112.072 2.52392 -2.41038 0
M  V30 1104 C 113.42 3.18546 -2.80737 0
M  V30 1105 O 114.444 2.62708 -2.40547 0
M  V30 1106 O 113.303 4.19604 -3.50135 0
M  V30 1107 H 110.397 0.657163 -0.502062 0
M  V30 1108 H 112.943 0.760071 -1.51727 0
M  V30 1109 H 111.715 2.04329 -3.33715 0
M  V30 1110 H 111.338 3.31837 -2.19021 0
M  V30 1111 N 112.336 1.25143 0.95797 0
M  V30 1112 C 113.561 1.12521 1.74223 0
M  V30 1113 C 113.986 -0.317402 1.85403 0
M  V30 1114 O 113.344 -1.2299 1.33204 0
M  V30 1115 C 113.392 1.78062 3.1357 0
M  V30 1116 O 112.496 1.058 3.98598 0
M  V30 1117 H 111.837 0.39304 0.535178 0
M  V30 1118 H 114.367 1.65641 1.201 0
M  V30 1119 H 114.377 1.84213 3.64046 0
M  V30 1120 H 113.052 2.83021 3.04749 0
M  V30 1121 H 111.629 1.07506 3.57067 0
M  V30 1122 N 113.814 -1.1601 1.06675 0
M  V30 1123 C 115.23 -1.38622 0.790948 0
M  V30 1124 C 115.43 -1.92109 -0.607965 0
M  V30 1125 O 114.486 -2.12239 -1.36787 0
M  V30 1126 C 115.799 -2.36347 1.85905 0
M  V30 1127 C 117.347 -2.50023 1.88301 0
M  V30 1128 C 117.822 -3.51033 2.94176 0
M  V30 1129 N 119.313 -3.58563 2.93235 0
M  V30 1130 C 120.048 -4.36521 3.71803 0
M  V30 1131 N 119.544 -5.17869 4.602 0
M  V30 1132 N 121.337 -4.31541 3.60178 0
M  V30 1133 H 113.488 -0.796294 1.96908 0
M  V30 1134 H 115.751 -0.412597 0.853503 0
M  V30 1135 H 115.457 -2.04147 2.86386 0
M  V30 1136 H 115.331 -3.36042 1.71334 0
M  V30 1137 H 117.718 -2.81524 0.884769 0
M  V30 1138 H 117.799 -1.5035 2.06951 0
M  V30 1139 H 117.443 -3.20268 3.94196 0
M  V30 1140 H 117.373 -4.50445 2.72776 0
M  V30 1141 H 119.864 -3.00496 2.29152 0
M  V30 1142 H 120.177 -5.74578 5.16797 0
M  V30 1143 H 118.522 -5.17199 4.64253 0
M  V30 1144 H 121.713 -3.67051 2.90502 0
M  V30 1145 H 121.886 -4.9205 4.21653 0
M  V30 1146 N 115.292 -0.849877 -1.32721 0
M  V30 1147 C 116.255 -0.296122 -2.27279 0
M  V30 1148 C 117.255 0.541458 -1.5141 0
M  V30 1149 O 118.445 0.353658 -1.70572 0
M  V30 1150 C 115.577 0.581579 -3.35902 0
M  V30 1151 H 116.77 -1.13064 -2.77771 0
M  V30 1152 H 114.323 -0.62383 -1.43311 0
M  V30 1153 H 115.058 1.43809 -2.9067 0
M  V30 1154 H 114.843 -0.0178814 -3.92096 0
M  V30 1155 H 116.333 0.961951 -4.0637 0
M  V30 1156 N 116.77 1.45427 -0.607355 0
M  V30 1157 C 117.998 2.06614 -0.108814 0
M  V30 1158 C 118.413 1.45204 1.2067 0
M  V30 1159 O 117.77 0.566132 1.73497 0
M  V30 1160 C 117.821 3.61481 0.0375347 0
M  V30 1161 O 117.542 4.20598 -1.22593 0
M  V30 1162 C 119.043 4.39652 0.567561 0
M  V30 1163 H 116.263 0.66747 -0.0687351 0
M  V30 1164 H 118.807 1.86675 -0.835022 0
M  V30 1165 H 116.962 3.80762 0.714068 0
M  V30 1166 H 117.376 5.1377 -1.05547 0
M  V30 1167 H 118.85 5.48518 0.61905 0
M  V30 1168 H 119.327 4.09417 1.58978 0
M  V30 1169 H 119.933 4.25234 -0.0749202 0
M  V30 1170 N 118.248 0.346503 1.53744 0
M  V30 1171 C 119.211 -0.496439 2.23759 0
M  V30 1172 C 120.211 -1.0252 1.2388 0
M  V30 1173 O 121.401 -0.913974 1.48297 0
M  V30 1174 C 118.533 -1.69187 2.95954 0
M  V30 1175 H 119.726 0.115952 2.99676 0
M  V30 1176 H 117.279 0.0978939 1.55993 0
M  V30 1177 H 118.014 -2.34288 2.24231 0
M  V30 1178 H 117.799 -1.31989 3.69217 0
M  V30 1179 H 119.289 -2.28969 3.49232 0
M  V30 1180 N 119.726 -1.57421 0.075193 0
M  V30 1181 C 120.974 -1.93236 -0.591974 0
M  V30 1182 C 121.295 -0.956241 -1.69944 0
M  V30 1183 O 120.565 -0.00494792 -1.95899 0
M  V30 1184 H 119.145 -0.713355 -0.22166 0
M  V30 1185 H 121.807 -1.9444 0.133848 0
M  V30 1186 H 120.903 -2.95131 -1.01509 0
M  V30 1187 N 121.204 0.198386 -1.56346 0
M  V30 1188 C 122.167 1.22952 -1.93431 0
M  V30 1189 C 123.167 1.38611 -0.815092 0
M  V30 1190 O 124.357 1.36479 -1.08255 0
M  V30 1191 C 121.489 2.59946 -2.20546 0
M  V30 1192 H 122.682 0.912626 -2.85677 0
M  V30 1193 H 120.235 0.43977 -1.49986 0
M  V30 1194 H 120.97 2.96696 -1.30927 0
M  V30 1195 H 120.755 2.49953 -3.02102 0
M  V30 1196 H 122.245 3.3431 -2.50253 0
M  V30 1197 N 122.682 1.50554 0.465978 0
M  V30 1198 C 123.912 1.65323 1.23903 0
M  V30 1199 C 124.32 0.338051 1.86155 0
M  V30 1200 O 123.663 -0.690518 1.70228 0
M  V30 1201 C 123.725 2.69048 2.3844 0
M  V30 1202 C 123.389 4.12462 1.96784 0
M  V30 1203 C 124.386 4.98168 1.48745 0
M  V30 1204 C 122.071 4.58407 2.05349 0
M  V30 1205 C 124.065 6.27868 1.0982 0
M  V30 1206 C 121.752 5.88112 1.66035 0
M  V30 1207 C 122.75 6.72668 1.18349 0
M  V30 1208 O 122.438 7.99951 0.795825 0
M  V30 1209 H 122.17 0.558629 0.38067 0
M  V30 1210 H 124.724 1.97561 0.562022 0
M  V30 1211 H 122.954 2.32062 3.09328 0
M  V30 1212 H 124.643 2.72985 3.0039 0
M  V30 1213 H 125.409 4.63885 1.41546 0
M  V30 1214 H 121.288 3.92735 2.41414 0
M  V30 1215 H 124.832 6.93819 0.725293 0
M  V30 1216 H 120.729 6.21914 1.72895 0
M  V30 1217 H 121.497 8.13265 0.924222 0
M  V30 1218 N 124.16 -0.719506 1.40217 0
M  V30 1219 C 125.409 -1.47486 1.37589 0
M  V30 1220 C 125.722 -1.9559 -0.0201568 0
M  V30 1221 O 126.928 -2.70973 -0.169049 0
M  V30 1222 C 125.384 -2.66575 2.41796 0
M  V30 1223 C 124.992 -2.25358 3.87192 0
M  V30 1224 C 126.736 -3.4433 2.48269 0
M  V30 1225 C 124.643 -3.41262 4.83005 0
M  V30 1226 H 123.573 -0.553901 0.511576 0
M  V30 1227 H 126.224 -0.783427 1.65936 0
M  V30 1228 H 124.606 -3.3787 2.06543 0
M  V30 1229 H 125.78 -1.61509 4.31569 0
M  V30 1230 H 124.095 -1.60657 3.84159 0
M  V30 1231 H 126.692 -4.30569 3.17041 0
M  V30 1232 H 127.035 -3.87872 1.51198 0
M  V30 1233 H 127.568 -2.80076 2.82493 0
M  V30 1234 H 124.307 -3.02755 5.81394 0
M  V30 1235 H 123.827 -4.0404 4.43297 0
M  V30 1236 H 125.506 -4.07383 5.02641 0
M  V30 1237 N 125.638 -1.25649 -0.95132 0
M  V30 1238 C 126.601 -1.06399 -2.03007 0
M  V30 1239 C 127.601 -0.0156794 -1.60792 0
M  V30 1240 O 128.791 -0.25817 -1.72276 0
M  V30 1241 C 125.923 -0.616184 -3.35285 0
M  V30 1242 H 127.116 -2.02164 -2.21517 0
M  V30 1243 H 124.669 -1.08103 -1.12887 0
M  V30 1244 H 125.404 0.343917 -3.22471 0
M  V30 1245 H 125.189 -1.37301 -3.67275 0
M  V30 1246 H 126.679 -0.503032 -4.14559 0
M  V30 1247 N 127.117 1.15442 -1.07289 0
M  V30 1248 C 128.342 1.90638 -0.816828 0
M  V30 1249 C 128.767 1.77445 0.624083 0
M  V30 1250 O 128.125 1.10671 1.43602 0
M  V30 1251 C 128.173 3.39008 -1.22906 0
M  V30 1252 O 127.277 4.10701 -0.373975 0
M  V30 1253 H 126.618 0.593555 -0.297638 0
M  V30 1254 H 129.148 1.46198 -1.43134 0
M  V30 1255 H 129.158 3.89801 -1.20497 0
M  V30 1256 H 127.833 3.47929 -2.27856 0
M  V30 1257 H 126.41 3.70046 -0.460499 0
M  V30 1258 N 128.595 0.856903 1.32268 0
M  V30 1259 C 129.527 0.260412 2.27716 0
M  V30 1260 C 130.54 -0.569137 1.52528 0
M  V30 1261 O 131.729 -0.39326 1.74114 0
M  V30 1262 C 128.829 -0.650477 3.32599 0
M  V30 1263 C 128.002 0.14372 4.37164 0
M  V30 1264 C 127.061 -0.69328 5.21613 0
M  V30 1265 O 126.087 -0.12599 5.69061 0
M  V30 1266 N 127.289 -2.00761 5.44679 0
M  V30 1267 H 130.054 1.08059 2.79541 0
M  V30 1268 H 127.615 0.717103 1.45152 0
M  V30 1269 H 129.607 -1.21581 3.86005 0
M  V30 1270 H 128.177 -1.37133 2.80915 0
M  V30 1271 H 127.397 0.890486 3.8401 0
M  V30 1272 H 128.685 0.68915 5.04111 0
M  V30 1273 H 128.083 -2.49181 5.07863 0
M  V30 1274 H 126.64 -2.52103 6.01072 0
M  V30 1275 N 130.073 -1.45103 0.615059 0
M  V30 1276 C 131.301 -2.06553 0.11977 0
M  V30 1277 C 131.716 -1.45842 -1.19898 0
M  V30 1278 O 131.073 -0.575325 -1.73194 0
M  V30 1279 C 131.124 -3.61495 -0.018364 0
M  V30 1280 O 130.845 -4.19942 1.24822 0
M  V30 1281 C 132.346 -4.39947 -0.544237 0
M  V30 1282 H 129.566 -0.667096 0.0722739 0
M  V30 1283 H 132.11 -1.8623 0.84491 0
M  V30 1284 H 130.265 -3.81135 -0.693865 0
M  V30 1285 H 130.679 -5.13204 1.0827 0
M  V30 1286 H 132.153 -5.48838 -0.589953 0
M  V30 1287 H 132.63 -4.10255 -1.56805 0
M  V30 1288 H 133.236 -4.25188 0.0974703 0
M  V30 1289 N 131.551 -0.354651 -1.53558 0
M  V30 1290 C 132.797 0.238797 -2.01389 0
M  V30 1291 C 133.13 1.49309 -1.2418 0
M  V30 1292 O 132.405 1.91638 -0.332457 0
M  V30 1293 C 132.688 0.541771 -3.56001 0
M  V30 1294 C 132.541 -0.725388 -4.43912 0
M  V30 1295 C 133.86 1.34685 -4.18984 0
M  V30 1296 H 130.979 0.0853177 -0.732045 0
M  V30 1297 H 133.621 -0.477384 -1.83905 0
M  V30 1298 H 131.771 1.15189 -3.71031 0
M  V30 1299 H 133.443 -1.36313 -4.407 0
M  V30 1300 H 131.686 -1.34801 -4.12324 0
M  V30 1301 H 132.357 -0.468505 -5.50008 0
M  V30 1302 H 134.833 0.830837 -4.07721 0
M  V30 1303 H 133.709 1.52759 -5.27215 0
M  V30 1304 H 133.97 2.35221 -3.74331 0
M  V30 1305 N 133.029 1.57378 -0.0835403 0
M  V30 1306 C 133.976 2.13384 0.879539 0
M  V30 1307 C 134.946 1.04936 1.28754 0
M  V30 1308 O 136.131 1.32662 1.37133 0
M  V30 1309 C 133.271 2.70932 2.13752 0
M  V30 1310 C 132.384 3.93575 1.7811 0
M  V30 1311 C 131.519 4.39326 2.98607 0
M  V30 1312 C 130.558 5.54587 2.59037 0
M  V30 1313 N 129.695 5.95243 3.72331 0
M  V30 1314 H 134.535 2.9537 0.395076 0
M  V30 1315 H 132.072 1.45953 0.183349 0
M  V30 1316 H 134.03 3.02411 2.87408 0
M  V30 1317 H 132.66 1.91693 2.59718 0
M  V30 1318 H 131.712 3.68483 0.94469 0
M  V30 1319 H 133.024 4.77258 1.45005 0
M  V30 1320 H 132.178 4.72528 3.80529 0
M  V30 1321 H 130.917 3.5452 3.34913 0
M  V30 1322 H 129.922 5.21024 1.75539 0
M  V30 1323 H 131.147 6.41133 2.23887 0
M  V30 1324 H 129.093 5.13385 4.08378 0
M  V30 1325 H 129.01 6.73694 3.43034 0
M  V30 1326 H 130.278 6.33072 4.54797 0
M  V30 1327 N 134.507 -0.190092 1.56449 0
M  V30 1328 C 135.454 -1.23557 1.94942 0
M  V30 1329 C 136.424 -1.44972 0.810696 0
M  V30 1330 O 137.609 -1.58023 1.06927 0
M  V30 1331 C 134.749 -2.57416 2.2985 0
M  V30 1332 C 133.862 -2.43537 3.5681 0
M  V30 1333 C 132.997 -3.70134 3.81017 0
M  V30 1334 C 132.036 -3.51109 5.01387 0
M  V30 1335 N 131.173 -4.6973 5.21822 0
M  V30 1336 H 136.013 -0.900304 2.84075 0
M  V30 1337 H 133.55 -0.43318 1.40577 0
M  V30 1338 H 135.508 -3.35409 2.48106 0
M  V30 1339 H 134.138 -2.88975 1.43852 0
M  V30 1340 H 133.19 -1.56816 3.46573 0
M  V30 1341 H 134.502 -2.25415 4.4496 0
M  V30 1342 H 133.656 -4.56566 3.9954 0
M  V30 1343 H 132.395 -3.91215 2.91207 0
M  V30 1344 H 131.4 -2.63063 4.82782 0
M  V30 1345 H 132.625 -3.31468 5.9271 0
M  V30 1346 H 130.571 -4.91065 4.34961 0
M  V30 1347 H 130.488 -4.54452 6.0416 0
M  V30 1348 H 131.756 -5.57499 5.44808 0
M  V30 1349 N 135.985 -1.50799 -0.457987 0
M  V30 1350 C 137.231 -1.62683 -1.21088 0
M  V30 1351 C 137.564 -0.332268 -1.91336 0
M  V30 1352 O 136.839 0.667043 -1.82704 0
M  V30 1353 C 137.122 -2.81615 -2.24422 0
M  V30 1354 C 136.975 -4.20989 -1.58392 0
M  V30 1355 C 138.294 -2.96085 -3.2561 0
M  V30 1356 H 135.413 -0.592087 -0.438864 0
M  V30 1357 H 138.055 -1.83225 -0.50286 0
M  V30 1358 H 136.205 -2.64231 -2.84806 0
M  V30 1359 H 137.877 -4.49994 -1.01504 0
M  V30 1360 H 136.12 -4.24641 -0.886704 0
M  V30 1361 H 136.791 -5.0016 -2.33547 0
M  V30 1362 H 139.267 -3.12042 -2.75262 0
M  V30 1363 H 138.143 -3.80902 -3.95228 0
M  V30 1364 H 138.404 -2.0726 -3.90507 0
M  V30 1365 N 137.463 0.71206 -1.40597 0
M  V30 1366 C 138.712 1.46754 -1.38369 0
M  V30 1367 C 139.025 1.95598 0.0097839 0
M  V30 1368 O 140.231 2.71059 0.154677 0
M  V30 1369 C 138.687 2.65289 -2.43207 0
M  V30 1370 C 138.295 2.23301 -3.88382 0
M  V30 1371 C 140.039 3.43008 -2.50091 0
M  V30 1372 C 137.946 3.38696 -4.84808 0
M  V30 1373 H 136.876 0.55118 -0.514506 0
M  V30 1374 H 139.527 0.774616 -1.66349 0
M  V30 1375 H 137.909 3.36769 -2.08332 0
M  V30 1376 H 139.083 1.59218 -4.32419 0
M  V30 1377 H 137.398 1.58618 -3.85006 0
M  V30 1378 H 139.995 4.28881 -3.1932 0
M  V30 1379 H 140.338 3.87065 -1.53253 0
M  V30 1380 H 140.871 2.78574 -2.83974 0
M  V30 1381 H 137.61 2.99668 -5.82992 0
M  V30 1382 H 137.13 4.01683 -4.45433 0
M  V30 1383 H 138.809 4.04712 -5.04794 0
M  V30 1384 N 138.941 1.26152 0.944643 0
M  V30 1385 C 139.851 1.09176 2.07648 0
M  V30 1386 C 140.867 0.0261935 1.7398 0
M  V30 1387 O 142.043 0.229208 2.00091 0
M  V30 1388 C 139.108 0.722915 3.39079 0
M  V30 1389 C 138.169 1.86752 3.86552 0
M  V30 1390 C 137.402 1.51617 5.11711 0
M  V30 1391 O 137.625 0.416331 5.68879 0
M  V30 1392 O 136.559 2.34975 5.54139 0
M  V30 1393 H 140.385 2.0412 2.24875 0
M  V30 1394 H 137.97 1.05182 1.061 0
M  V30 1395 H 139.852 0.529787 4.18056 0
M  V30 1396 H 138.527 -0.197159 3.23099 0
M  V30 1397 H 137.434 2.11558 3.08535 0
M  V30 1398 H 138.767 2.76719 4.07047 0
M  V30 1399 N 140.419 -1.14872 1.07899 0
M  V30 1400 C 141.668 -1.85135 0.800499 0
M  V30 1401 C 141.981 -1.83547 -0.676014 0
M  V30 1402 O 143.187 -2.49548 -1.06948 0
M  V30 1403 C 141.643 -3.3231 1.38197 0
M  V30 1404 C 141.251 -3.42329 2.8899 0
M  V30 1405 C 142.995 -4.0772 1.18174 0
M  V30 1406 C 140.902 -4.83684 3.403 0
M  V30 1407 H 139.832 -0.693563 0.29578 0
M  V30 1408 H 142.483 -1.29532 1.29976 0
M  V30 1409 H 140.865 -3.87618 0.810431 0
M  V30 1410 H 142.039 -2.97097 3.52236 0
M  V30 1411 H 140.354 -2.80369 3.07867 0
M  V30 1412 H 142.951 -5.12049 1.5398 0
M  V30 1413 H 143.294 -4.16124 0.12117 0
M  V30 1414 H 143.827 -3.58696 1.71994 0
M  V30 1415 H 140.566 -4.80465 4.45907 0
M  V30 1416 H 140.086 -5.29474 2.81811 0
M  V30 1417 H 141.765 -5.52558 3.36584 0
M  V30 1418 N 141.898 -0.863906 -1.31812 0
M  V30 1419 C 142.846 -0.30422 -2.30602 0
M  V30 1420 C 143.84 0.577419 -1.59255 0
M  V30 1421 O 145.046 0.464194 -1.73912 0
M  V30 1422 H 141.421 -0.0796877 -0.747766 0
M  V30 1423 H 143.392 -1.15148 -2.75288 0
M  V30 1424 C 142.141 0.484617 -3.44306 0
M  V30 1425 H 141.464 -0.18451 -3.99374 0
M  V30 1426 H 142.904 0.841664 -4.15562 0
M  V30 1427 C 141.363 1.6735 -2.92396 0
M  V30 1428 O 141.893 2.77273 -2.90659 0
M  V30 1429 N 140.099 1.50362 -2.48676 0
M  V30 1430 H 139.646 0.609402 -2.50288 0
M  V30 1431 H 139.604 2.30051 -2.14299 0
M  V30 1432 N 143.376 1.44774 -0.622745 0
M  V30 1433 C 144.787 1.85546 -0.207226 0
M  V30 1434 C 145.138 1.52093 1.23944 0
M  V30 1435 O 144.263 0.95492 1.94191 0
M  V30 1436 C 144.858 3.36781 -0.369313 0
M  V30 1437 C 143.417 3.76399 -0.00836847 0
M  V30 1438 C 142.564 2.68664 -0.686651 0
M  V30 1439 H 145.515 1.3536 -0.828454 0
M  V30 1440 H 145.536 3.78453 0.394162 0
M  V30 1441 H 145.048 3.61098 -1.42231 0
M  V30 1442 H 143.149 3.57698 1.04322 0
M  V30 1443 H 143.262 4.7732 -0.412584 0
M  V30 1444 H 141.626 2.54404 -0.122777 0
M  V30 1445 H 142.409 2.95815 -1.74208 0
M  V30 1446 N 144.854 0.36279 1.53368 0
M  V30 1447 C 146.084 -0.228281 2.05335 0
M  V30 1448 C 146.492 -1.43226 1.23625 0
M  V30 1449 O 145.835 -1.81717 0.269206 0
M  V30 1450 C 145.897 -0.688549 3.52845 0
M  V30 1451 C 145.561 0.398362 4.5526 0
M  V30 1452 C 146.558 1.24732 5.04716 0
M  V30 1453 C 144.243 0.557805 4.99193 0
M  V30 1454 C 146.237 2.2411 5.96702 0
M  V30 1455 C 143.924 1.55495 5.90986 0
M  V30 1456 C 144.922 2.39503 6.39631 0
M  V30 1457 O 144.61 3.37517 7.29615 0
M  V30 1458 H 144.342 -0.044395 0.674541 0
M  V30 1459 H 146.896 0.518668 1.98744 0
M  V30 1460 H 145.126 -1.48706 3.56964 0
M  V30 1461 H 146.815 -1.20231 3.87685 0
M  V30 1462 H 147.581 1.13532 4.71525 0
M  V30 1463 H 143.46 -0.0862959 4.60919 0
M  V30 1464 H 147.004 2.89718 6.34594 0
M  V30 1465 H 142.901 1.66744 6.23592 0
M  V30 1466 H 143.669 3.33213 7.47604 0
M  V30 1467 N 146.332 -1.57332 0.0918853 0
M  V30 1468 C 147.262 -2.16872 -0.865371 0
M  V30 1469 C 148.243 -1.10118 -1.29646 0
M  V30 1470 O 149.428 -1.38242 -1.36392 0
M  V30 1471 C 146.558 -2.74649 -2.12569 0
M  V30 1472 C 145.512 -3.86747 -1.83333 0
M  V30 1473 C 144.838 -4.31212 -3.16166 0
M  V30 1474 C 146.138 -5.10089 -1.1228 0
M  V30 1475 H 147.832 -2.97114 -0.369307 0
M  V30 1476 H 145.378 -1.42918 -0.176194 0
M  V30 1477 H 147.331 -3.14952 -2.7997 0
M  V30 1478 H 146.055 -1.91657 -2.64452 0
M  V30 1479 H 144.714 -3.46978 -1.18331 0
M  V30 1480 H 144.362 -3.45115 -3.6593 0
M  V30 1481 H 144.062 -5.06788 -2.97388 0
M  V30 1482 H 145.586 -4.74146 -3.84731 0
M  V30 1483 H 147 -5.47582 -1.69785 0
M  V30 1484 H 145.397 -5.91073 -1.03693 0
M  V30 1485 H 146.467 -4.84786 -0.105041 0
M  V30 1486 N 147.81 0.181792 -1.56548 0
M  V30 1487 C 148.74 1.22765 -1.98623 0
M  V30 1488 C 149.721 1.46747 -0.860189 0
M  V30 1489 O 150.906 1.58259 -1.12551 0
M  V30 1490 C 148.036 2.56894 -2.33715 0
M  V30 1491 C 146.99 2.475 -3.49182 0
M  V30 1492 C 146.316 3.86023 -3.69986 0
M  V30 1493 C 147.616 1.98866 -4.82959 0
M  V30 1494 H 149.31 0.877942 -2.86239 0
M  V30 1495 H 146.856 0.42088 -1.37712 0
M  V30 1496 H 148.809 3.30253 -2.61746 0
M  V30 1497 H 147.533 2.93632 -1.42997 0
M  V30 1498 H 146.192 1.76596 -3.21262 0
M  V30 1499 H 145.84 4.20136 -2.76576 0
M  V30 1500 H 145.54 3.80609 -4.47672 0
M  V30 1501 H 147.064 4.60984 -4.00407 0
M  V30 1502 H 148.478 2.61992 -5.09934 0
M  V30 1503 H 146.875 2.04424 -5.64208 0
M  V30 1504 H 147.945 0.942465 -4.75653 0
M  V30 1505 N 149.288 1.51039 0.449983 0
M  V30 1506 C 150.536 1.62759 1.19808 0
M  V30 1507 C 150.857 0.339981 1.92013 0
M  V30 1508 O 150.127 -0.643606 1.85026 0
M  V30 1509 H 148.707 0.599811 0.445237 0
M  V30 1510 H 151.369 1.87914 0.517138 0
M  V30 1511 H 150.465 2.44911 1.93455 0
M  V30 1512 N 150.766 -0.704594 1.40972 0
M  V30 1513 C 151.994 -1.49354 1.43182 0
M  V30 1514 C 152.409 -1.88768 0.0345508 0
M  V30 1515 O 151.766 -1.56184 -0.944081 0
M  V30 1516 C 151.817 -2.76187 2.33244 0
M  V30 1517 O 151.538 -2.38436 3.67532 0
M  V30 1518 C 153.039 -3.7 2.44162 0
M  V30 1519 H 150.259 -0.460559 0.487982 0
M  V30 1520 H 152.803 -0.868261 1.85153 0
M  V30 1521 H 150.958 -3.34974 1.94606 0
M  V30 1522 H 151.372 -3.20126 4.15475 0
M  V30 1523 H 152.846 -4.55803 3.11364 0
M  V30 1524 H 153.323 -4.13867 1.47006 0
M  V30 1525 H 153.929 -3.17121 2.83398 0
M  V30 1526 N 152.244 -1.26651 -0.937939 0
M  V30 1527 C 153.177 -1.02811 -2.03728 0
M  V30 1528 C 154.155 0.0481915 -1.62529 0
M  V30 1529 O 155.339 -0.0948839 -1.88261 0
M  V30 1530 C 152.466 -0.557517 -3.3408 0
M  V30 1531 C 151.512 -1.62686 -3.94253 0
M  V30 1532 S 152.345 -3.21667 -4.28125 0
M  V30 1533 C 153.501 -2.76384 -5.61572 0
M  V30 1534 H 153.734 -1.95891 -2.23638 0
M  V30 1535 H 151.267 -1.10367 -1.07974 0
M  V30 1536 H 153.225 -0.292674 -4.09455 0
M  V30 1537 H 151.886 0.353062 -3.12109 0
M  V30 1538 H 151.079 -1.24866 -4.88287 0
M  V30 1539 H 150.681 -1.84324 -3.25424 0
M  V30 1540 H 152.973 -2.2105 -6.40424 0
M  V30 1541 H 153.916 -3.69123 -6.0428 0
M  V30 1542 H 154.324 -2.15847 -5.21604 0
M  V30 1543 N 153.722 1.14298 -1.08507 0
M  V30 1544 C 154.685 2.17607 -0.719711 0
M  V30 1545 C 155.685 1.58907 0.245997 0
M  V30 1546 O 156.875 1.74181 0.0254081 0
M  V30 1547 C 154.007 3.40842 -0.0627695 0
M  V30 1548 H 155.2 2.51443 -1.63452 0
M  V30 1549 H 152.753 1.28963 -0.88307 0
M  V30 1550 H 153.488 3.12587 0.863716 0
M  V30 1551 H 153.273 3.84713 -0.757504 0
M  V30 1552 H 154.763 4.17221 0.177786 0
M  V30 1553 N 155.201 0.870884 1.31352 0
M  V30 1554 C 156.449 0.48132 1.96285 0
M  V30 1555 C 156.77 -0.969813 1.69173 0
M  V30 1556 O 156.04 -1.67998 1.00764 0
M  V30 1557 H 154.62 0.175002 0.726212 0
M  V30 1558 H 157.282 1.11087 1.60143 0
M  V30 1559 H 156.378 0.639825 3.05471 0
M  V30 1560 N 156.679 -1.44442 0.630414 0
M  V30 1561 C 157.927 -2.01653 0.134351 0
M  V30 1562 C 158.248 -1.49836 -1.24796 0
M  V30 1563 O 157.518 -0.701684 -1.82902 0
M  V30 1564 H 156.098 -0.74554 0.0466769 0
M  V30 1565 H 158.76 -1.76952 0.816955 0
M  V30 1566 H 157.856 -3.11935 0.101498 0
M  V30 1567 N 158.157 -0.370918 -1.53173 0
M  V30 1568 C 159.12 0.460778 -2.24521 0
M  V30 1569 C 160.12 1.00536 -1.25496 0
M  V30 1570 O 161.31 0.890266 -1.49733 0
M  V30 1571 C 158.442 1.64457 -2.98608 0
M  V30 1572 H 159.635 -0.163613 -2.99453 0
M  V30 1573 H 157.188 -0.122699 -1.55818 0
M  V30 1574 H 157.923 2.30691 -2.2793 0
M  V30 1575 H 157.708 1.26099 -3.7127 0
M  V30 1576 H 159.198 2.23384 -3.5283 0
M  V30 1577 N 159.635 1.57281 -0.100228 0
M  V30 1578 C 160.598 2.13158 0.842398 0
M  V30 1579 C 161.598 1.06202 1.20738 0
M  V30 1580 O 162.788 1.32066 1.13597 0
M  V30 1581 C 159.92 2.65639 2.13655 0
M  V30 1582 H 161.113 2.97766 0.357114 0
M  V30 1583 H 158.666 1.5559 0.148823 0
M  V30 1584 H 159.401 1.84566 2.66657 0
M  V30 1585 H 159.186 3.43844 1.88451 0
M  V30 1586 H 160.676 3.08846 2.81077 0
M  V30 1587 N 161.113 -0.173488 1.56642 0
M  V30 1588 C 162.39 -0.917617 1.7274 0
M  V30 1589 C 162.77 -2.00484 0.661027 0
M  V30 1590 O 162.118 -2.26184 -0.32453 0
M  V30 1591 C 162.328 -1.48433 3.15862 0
M  V30 1592 C 163.676 -1.95809 3.76754 0
M  V30 1593 O 164.7 -1.58231 3.19126 0
M  V30 1594 O 163.559 -2.65024 4.77938 0
M  V30 1595 H 160.653 -0.431772 0.705338 0
M  V30 1596 H 163.199 -0.161487 1.6893 0
M  V30 1597 H 161.971 -0.701715 3.84957 0
M  V30 1598 H 161.594 -2.30471 3.23989 0
M  V30 1599 N 162.591 -1.51276 -0.441967 0
M  V30 1600 C 163.831 -1.65372 -1.20132 0
M  V30 1601 C 164.195 -0.359871 -1.88597 0
M  V30 1602 O 165.396 -0.376551 -2.66149 0
M  V30 1603 C 163.667 -2.8207 -2.1948 0
M  V30 1604 S 165.226 -3.16467 -3.03964 0
M  V30 1605 H 162.044 -0.582669 -0.407453 0
M  V30 1606 H 164.646 -1.89166 -0.493609 0
M  V30 1607 H 163.35 -3.74523 -1.67812 0
M  V30 1608 H 162.881 -2.6045 -2.94838 0
M  V30 1609 H 164.896 -2.62543 -4.21053 0
M  V30 1610 N 164.069 0.697108 -1.41344 0
M  V30 1611 C 165.294 1.49096 -1.44171 0
M  V30 1612 C 165.719 1.88038 -0.0481568 0
M  V30 1613 O 165.077 1.54525 0.948243 0
M  V30 1614 C 165.125 2.73088 -2.3549 0
M  V30 1615 O 164.229 3.70514 -1.81088 0
M  V30 1616 H 163.57 0.448801 -0.489361 0
M  V30 1617 H 166.1 0.856992 -1.85787 0
M  V30 1618 H 166.11 3.21413 -2.51312 0
M  V30 1619 H 164.785 2.44081 -3.36745 0
M  V30 1620 H 163.362 3.29441 -1.74708 0
M  V30 1621 N 165.547 1.27147 0.931209 0
M  V30 1622 C 166.794 1.13278 1.67852 0
M  V30 1623 C 167.122 -0.32204 1.91815 0
M  V30 1624 O 166.377 -1.25224 1.50391 0
M  V30 1625 C 166.676 1.8579 3.05314 0
M  V30 1626 C 166.342 3.35657 3.01073 0
M  V30 1627 C 165.004 3.76536 2.99623 0
M  V30 1628 C 167.356 4.31299 2.92627 0
M  V30 1629 C 164.684 5.11426 2.87506 0
M  V30 1630 C 167.036 5.66242 2.82051 0
M  V30 1631 C 165.7 6.06418 2.7895 0
M  V30 1632 H 164.97 0.414515 0.614214 0
M  V30 1633 H 167.617 1.57712 1.08624 0
M  V30 1634 H 165.922 1.33854 3.68226 0
M  V30 1635 H 167.619 1.72491 3.62005 0
M  V30 1636 H 164.209 3.03146 3.02986 0
M  V30 1637 H 168.393 4.00692 2.92848 0
M  V30 1638 H 163.649 5.41705 2.83489 0
M  V30 1639 H 167.823 6.40026 2.74481 0
M  V30 1640 H 165.45 7.10895 2.69318 0
M  V30 1641 N 167.025 -1.13721 1.09112 0
M  V30 1642 C 168.271 -1.85413 0.836283 0
M  V30 1643 C 168.626 -1.8175 -0.631249 0
M  V30 1644 O 167.919 -1.24238 -1.45861 0
M  V30 1645 C 168.113 -3.32861 1.30146 0
M  V30 1646 C 167.942 -3.50882 2.81268 0
M  V30 1647 C 166.712 -3.65312 3.49106 0
M  V30 1648 C 168.91 -3.47196 3.7942 0
M  V30 1649 N 166.892 -3.71563 4.88686 0
M  V30 1650 C 168.263 -3.59777 5.04936 0
M  V30 1651 C 170.318 -3.30577 3.72321 0
M  V30 1652 C 169.021 -3.57455 6.24194 0
M  V30 1653 C 171.047 -3.29562 4.91063 0
M  V30 1654 C 170.409 -3.42691 6.15421 0
M  V30 1655 H 166.508 -0.694812 0.358832 0
M  V30 1656 H 169.092 -1.36246 1.39087 0
M  V30 1657 H 167.263 -3.80602 0.774361 0
M  V30 1658 H 168.995 -3.92346 0.99229 0
M  V30 1659 H 165.75 -3.6685 2.9953 0
M  V30 1660 H 166.174 -3.78387 5.61384 0
M  V30 1661 H 170.816 -3.19332 2.77105 0
M  V30 1662 H 168.534 -3.67475 7.19714 0
M  V30 1663 H 172.12 -3.17905 4.87266 0
M  V30 1664 H 171 -3.41862 7.05762 0
M  V30 1665 N 168.503 -0.877838 -1.30888 0
M  V30 1666 C 169.413 -0.343096 -2.32078 0
M  V30 1667 C 170.429 0.551022 -1.65045 0
M  V30 1668 O 171.605 0.445854 -1.96403 0
M  V30 1669 C 168.67 0.439905 -3.43898 0
M  V30 1670 C 167.731 -0.483111 -4.26573 0
M  V30 1671 C 166.964 0.262616 -5.33053 0
M  V30 1672 O 167.187 1.48967 -5.50604 0
M  V30 1673 O 166.121 -0.383593 -6.00676 0
M  V30 1674 H 169.947 -1.18203 -2.79753 0
M  V30 1675 H 167.532 -0.64145 -1.34929 0
M  V30 1676 H 169.414 0.883504 -4.12034 0
M  V30 1677 H 168.089 1.25526 -2.98371 0
M  V30 1678 H 166.996 -0.975374 -3.61161 0
M  V30 1679 H 168.329 -1.26427 -4.75686 0
M  V30 1680 N 169.982 1.44106 -0.638065 0
M  V30 1681 C 171.398 1.56672 -0.304286 0
M  V30 1682 C 171.598 1.6244 1.19228 0
M  V30 1683 O 170.654 1.57121 1.9766 0
M  V30 1684 C 171.967 2.83503 -1.00231 0
M  V30 1685 C 173.515 2.97226 -0.981116 0
M  V30 1686 C 173.99 4.26868 -1.65974 0
M  V30 1687 N 175.481 4.33698 -1.62666 0
M  V30 1688 C 176.216 5.32745 -2.12063 0
M  V30 1689 N 175.712 6.38157 -2.6968 0
M  V30 1690 N 177.505 5.24299 -2.02651 0
M  V30 1691 H 169.656 1.38605 -1.60942 0
M  V30 1692 H 171.919 0.664661 -0.675965 0
M  V30 1693 H 171.625 2.85251 -2.0573 0
M  V30 1694 H 171.499 3.73251 -0.54439 0
M  V30 1695 H 173.886 2.95027 0.0654188 0
M  V30 1696 H 173.967 2.08808 -1.47759 0
M  V30 1697 H 173.611 4.29826 -2.70576 0
M  V30 1698 H 173.541 5.14156 -1.13804 0
M  V30 1699 H 176.032 3.58138 -1.20606 0
M  V30 1700 H 176.345 7.10029 -3.05087 0
M  V30 1701 H 174.69 6.38823 -2.73734 0
M  V30 1702 H 177.881 4.4086 -1.57353 0
M  V30 1703 H 178.054 6.01334 -2.41457 0
M  V30 1704 N 171.46 0.379036 1.52974 0
M  V30 1705 C 172.39 -0.452706 2.29069 0
M  V30 1706 C 173.371 -1.07237 1.32039 0
M  V30 1707 O 174.556 -1.08708 1.60923 0
M  V30 1708 C 171.686 -1.5856 3.08992 0
M  V30 1709 C 170.64 -1.0925 4.13822 0
M  V30 1710 C 169.966 -2.31668 4.81907 0
M  V30 1711 C 171.266 -0.167702 5.22031 0
M  V30 1712 H 172.96 0.182181 2.98845 0
M  V30 1713 H 170.506 0.0890592 1.43724 0
M  V30 1714 H 172.459 -2.1742 3.6098 0
M  V30 1715 H 171.183 -2.24792 2.36931 0
M  V30 1716 H 169.842 -0.526494 3.628 0
M  V30 1717 H 169.49 -2.96386 4.06404 0
M  V30 1718 H 169.19 -1.9934 5.52754 0
M  V30 1719 H 170.714 -2.91189 5.36695 0
M  V30 1720 H 172.128 -0.664186 5.6944 0
M  V30 1721 H 170.525 0.0653265 6.00064 0
M  V30 1722 H 171.595 0.786347 4.78482 0
M  V30 1723 N 172.938 -1.57226 0.108567 0
M  V30 1724 C 173.868 -2.17778 -0.84232 0
M  V30 1725 C 174.849 -1.11487 -1.2847 0
M  V30 1726 O 176.034 -1.39681 -1.34918 0
M  V30 1727 C 173.164 -2.76888 -2.09644 0
M  V30 1728 C 172.118 -3.88669 -1.79221 0
M  V30 1729 C 171.444 -4.34541 -3.11574 0
M  V30 1730 C 172.744 -5.11251 -1.06864 0
M  V30 1731 H 174.438 -2.97489 -0.337774 0
M  V30 1732 H 171.984 -1.43097 -0.161025 0
M  V30 1733 H 173.937 -3.17904 -2.76614 0
M  V30 1734 H 172.661 -1.94451 -2.62405 0
M  V30 1735 H 171.32 -3.48213 -1.14644 0
M  V30 1736 H 170.968 -3.48977 -3.62249 0
M  V30 1737 H 170.668 -5.09914 -2.91996 0
M  V30 1738 H 172.192 -4.782 -3.7968 0
M  V30 1739 H 173.606 -5.49352 -1.63968 0
M  V30 1740 H 172.003 -5.9214 -0.974178 0
M  V30 1741 H 173.073 -4.8487 -0.0536168 0
M  V30 1742 N 174.416 0.165178 -1.56732 0
M  V30 1743 C 175.379 1.18822 -1.95995 0
M  V30 1744 C 176.379 1.3685 -0.84431 0
M  V30 1745 O 177.569 1.34152 -1.11126 0
M  V30 1746 C 174.701 2.5521 -2.26011 0
M  V30 1747 H 175.894 0.851825 -2.87548 0
M  V30 1748 H 173.447 0.407857 -1.50885 0
M  V30 1749 H 174.182 2.93852 -1.37191 0
M  V30 1750 H 173.967 2.43489 -3.07336 0
M  V30 1751 H 175.457 3.28927 -2.57288 0
M  V30 1752 N 175.894 1.51508 0.433938 0
M  V30 1753 C 177.31 1.39759 0.770682 0
M  V30 1754 C 177.51 0.482594 1.95636 0
M  V30 1755 O 176.566 -0.0609691 2.52426 0
M  V30 1756 C 177.879 2.81851 1.04787 0
M  V30 1757 C 179.427 2.91025 1.1521 0
M  V30 1758 C 179.902 4.34032 1.46219 0
M  V30 1759 N 181.393 4.37154 1.53136 0
M  V30 1760 C 182.128 5.4484 1.78709 0
M  V30 1761 N 181.624 6.62682 2.02051 0
M  V30 1762 N 183.417 5.32324 1.80519 0
M  V30 1763 H 175.568 2.09548 -0.346892 0
M  V30 1764 H 177.831 0.943446 -0.0928074 0
M  V30 1765 H 177.537 3.50815 0.249304 0
M  V30 1766 H 177.411 3.21386 1.97461 0
M  V30 1767 H 179.798 2.22257 1.94128 0
M  V30 1768 H 179.879 2.54983 0.204281 0
M  V30 1769 H 179.523 5.03351 0.678274 0
M  V30 1770 H 179.453 4.6759 2.42212 0
M  V30 1771 H 181.944 3.52197 1.36987 0
M  V30 1772 H 182.257 7.40543 2.20943 0
M  V30 1773 H 180.602 6.65791 1.99366 0
M  V30 1774 H 183.793 4.39246 1.61805 0
M  V30 1775 H 183.966 6.16328 2.00111 0
M  V30 1776 N 177.372 -0.689602 1.41712 0
M  V30 1777 C 178.304 -1.815 1.39966 0
M  V30 1778 C 179.317 -1.59995 0.300917 0
M  V30 1779 O 180.506 -1.69387 0.563039 0
M  V30 1780 C 177.606 -3.18364 1.16179 0
M  V30 1781 C 176.779 -3.66847 2.38206 0
M  V30 1782 C 175.838 -4.82398 2.10186 0
M  V30 1783 O 174.864 -4.93706 2.83272 0
M  V30 1784 N 176.066 -5.70064 1.0958 0
M  V30 1785 H 178.831 -1.83488 2.36965 0
M  V30 1786 H 176.392 -0.872149 1.36401 0
M  V30 1787 H 178.384 -3.93301 0.953756 0
M  V30 1788 H 176.954 -3.11365 0.27756 0
M  V30 1789 H 176.174 -2.82751 2.74673 0
M  V30 1790 H 177.462 -3.95978 3.19498 0
M  V30 1791 H 176.86 -5.63565 0.491019 0
M  V30 1792 H 175.417 -6.44874 0.947656 0
M  V30 1793 N 178.85 -1.27639 -0.924453 0
M  V30 1794 C 180.09 -1.15407 -1.68703 0
M  V30 1795 C 180.454 0.294581 -1.89727 0
M  V30 1796 O 181.655 0.539385 -2.63333 0
M  V30 1797 C 179.926 -1.9195 -3.0148 0
M  V30 1798 S 181.485 -1.95969 -3.92609 0
M  V30 1799 H 178.303 -0.411937 -0.579507 0
M  V30 1800 H 180.905 -1.61592 -1.10038 0
M  V30 1801 H 179.609 -2.96387 -2.83871 0
M  V30 1802 H 179.14 -1.46272 -3.65196 0
M  V30 1803 H 181.155 -1.05846 -4.84779 0
M  V30 1804 N 180.328 1.1314 -1.09713 0
M  V30 1805 C 181.744 1.36477 -0.827423 0
M  V30 1806 C 181.944 1.93654 0.556817 0
M  V30 1807 O 181 2.15791 1.31112 0
M  V30 1808 C 182.313 2.31334 -1.92106 0
M  V30 1809 C 183.861 2.44943 -1.94864 0
M  V30 1810 C 184.336 3.4311 -3.0338 0
M  V30 1811 N 185.827 3.50662 -3.02639 0
M  V30 1812 C 186.562 4.2651 -3.83246 0
M  V30 1813 N 186.058 5.05485 -4.73768 0
M  V30 1814 N 187.851 4.2184 -3.71493 0
M  V30 1815 H 180.002 0.743807 -1.9895 0
M  V30 1816 H 182.265 0.389823 -0.864143 0
M  V30 1817 H 181.971 1.96483 -2.91698 0
M  V30 1818 H 181.845 3.31381 -1.80184 0
M  V30 1819 H 184.232 2.79079 -0.959099 0
M  V30 1820 H 184.313 1.4481 -2.10864 0
M  V30 1821 H 183.957 3.09704 -4.02549 0
M  V30 1822 H 183.887 4.43055 -2.84622 0
M  V30 1823 H 186.378 2.94315 -2.37039 0
M  V30 1824 H 186.691 5.60675 -5.3185 0
M  V30 1825 H 185.036 5.04708 -4.77802 0
M  V30 1826 H 188.227 3.5922 -3.00131 0
M  V30 1827 H 188.4 4.80697 -4.3455 0
M  V30 1828 N 181.806 0.884767 1.30421 0
M  V30 1829 C 183.055 0.499164 1.95426 0
M  V30 1830 C 183.368 -0.95645 1.70621 0
M  V30 1831 O 184.574 -1.44889 2.29607 0
M  V30 1832 C 183.03 0.84177 3.49917 0
M  V30 1833 C 182.638 2.31514 3.83543 0
M  V30 1834 C 184.382 0.525355 4.21237 0
M  V30 1835 C 182.289 2.59939 5.31212 0
M  V30 1836 H 181.219 0.182944 0.73147 0
M  V30 1837 H 183.87 1.07971 1.48373 0
M  V30 1838 H 182.252 0.190311 3.95542 0
M  V30 1839 H 183.426 3.0109 3.48829 0
M  V30 1840 H 181.741 2.59907 3.25326 0
M  V30 1841 H 184.338 0.714762 5.29901 0
M  V30 1842 H 184.681 -0.535222 4.12845 0
M  V30 1843 H 185.214 1.134 3.81294 0
M  V30 1844 H 181.953 3.64736 5.44654 0
M  V30 1845 H 181.473 1.94972 5.67227 0
M  V30 1846 H 183.152 2.45429 5.98643 0
M  V30 1847 N 183.284 -1.43765 0.645699 0
M  V30 1848 C 184.514 -2.05953 0.163318 0
M  V30 1849 C 184.922 -1.48432 -1.17322 0
M  V30 1850 O 184.265 -0.607295 -1.73371 0
M  V30 1851 C 184.327 -3.59499 -0.0103065 0
M  V30 1852 C 183.991 -4.39563 1.25035 0
M  V30 1853 C 184.988 -4.72108 2.17739 0
M  V30 1854 C 182.673 -4.79697 1.48983 0
M  V30 1855 C 184.667 -5.43688 3.3269 0
M  V30 1856 C 182.354 -5.51023 2.64229 0
M  V30 1857 C 183.352 -5.8294 3.55908 0
M  V30 1858 O 183.04 -6.5281 4.69142 0
M  V30 1859 H 182.772 -0.670798 0.0836986 0
M  V30 1860 H 185.326 -1.85384 0.884407 0
M  V30 1861 H 183.556 -3.78613 -0.78669 0
M  V30 1862 H 185.245 -4.03408 -0.449087 0
M  V30 1863 H 186.011 -4.41627 2.00476 0
M  V30 1864 H 181.89 -4.54266 0.785078 0
M  V30 1865 H 185.434 -5.68517 4.04269 0
M  V30 1866 H 181.331 -5.8092 2.81429 0
M  V30 1867 H 182.099 -6.71288 4.6831 0
M  V30 1868 N 184.763 -0.387143 -1.52771 0
M  V30 1869 C 185.673 0.456442 -2.30117 0
M  V30 1870 C 186.689 1.07342 -1.36944 0
M  V30 1871 O 187.865 1.07971 -1.70013 0
M  V30 1872 C 184.93 1.56957 -3.09136 0
M  V30 1873 C 183.991 0.977916 -4.18014 0
M  V30 1874 C 183.224 2.038 -4.93256 0
M  V30 1875 O 183.447 3.25271 -4.68567 0
M  V30 1876 O 182.381 1.6565 -5.78657 0
M  V30 1877 H 186.207 -0.17359 -3.03203 0
M  V30 1878 H 183.792 -0.150919 -1.48636 0
M  V30 1879 H 185.674 2.21628 -3.58412 0
M  V30 1880 H 184.349 2.18461 -2.38865 0
M  V30 1881 H 183.256 0.294525 -3.72939 0
M  V30 1882 H 184.589 0.407128 -4.90513 0
M  V30 1883 N 186.241 1.57166 -0.116904 0
M  V30 1884 C 187.171 2.18222 0.830759 0
M  V30 1885 C 188.152 1.12167 1.27877 0
M  V30 1886 O 189.337 1.40394 1.34176 0
M  V30 1887 C 186.467 2.77996 2.08172 0
M  V30 1888 C 185.421 3.89614 1.77157 0
M  V30 1889 C 184.747 4.36187 3.09265 0
M  V30 1890 C 186.047 5.1181 1.04151 0
M  V30 1891 H 187.741 2.97664 0.321992 0
M  V30 1892 H 185.287 1.4318 0.153434 0
M  V30 1893 H 187.24 3.19366 2.74924 0
M  V30 1894 H 185.964 1.9584 2.6137 0
M  V30 1895 H 184.623 3.48816 1.12796 0
M  V30 1896 H 184.271 3.50893 3.60393 0
M  V30 1897 H 183.971 5.11455 2.89288 0
M  V30 1898 H 185.495 4.80207 3.77139 0
M  V30 1899 H 186.909 5.50214 1.61052 0
M  V30 1900 H 185.306 5.92648 0.942762 0
M  V30 1901 H 186.376 4.84892 0.0279022 0
M  V30 1902 N 187.719 -0.156864 1.56817 0
M  V30 1903 C 189.135 -0.50916 1.5126 0
M  V30 1904 C 189.335 -1.83897 0.823658 0
M  V30 1905 O 188.391 -2.49469 0.390055 0
M  V30 1906 C 189.704 -0.52857 2.96018 0
M  V30 1907 C 191.252 -0.614771 3.06903 0
M  V30 1908 C 191.727 -0.664938 4.53147 0
M  V30 1909 N 193.218 -0.727433 4.57452 0
M  V30 1910 C 193.953 -0.787067 5.67973 0
M  V30 1911 N 193.449 -0.806649 6.88088 0
M  V30 1912 N 195.242 -0.827195 5.5598 0
M  V30 1913 H 187.393 0.714935 2.00006 0
M  V30 1914 H 189.656 0.259526 0.911784 0
M  V30 1915 H 189.362 0.380154 3.49639 0
M  V30 1916 H 189.236 -1.36998 3.51442 0
M  V30 1917 H 191.623 -1.51392 2.53307 0
M  V30 1918 H 191.704 0.253597 2.5454 0
M  V30 1919 H 191.348 0.230011 5.07379 0
M  V30 1920 H 191.278 -1.54966 5.03282 0
M  V30 1921 H 193.769 -0.719998 3.70978 0
M  V30 1922 H 194.082 -0.853727 7.6807 0
M  V30 1923 H 192.427 -0.774687 6.90669 0
M  V30 1924 H 195.618 -0.808998 4.61056 0
M  V30 1925 H 195.791 -0.870206 6.4213 0
M  V30 1926 N 189.197 -1.51736 -0.425897 0
M  V30 1927 C 190.145 -1.74464 -1.53834 0
M  V30 1928 C 191.139 -0.611241 -1.57988 0
M  V30 1929 O 192.345 -0.792899 -1.61596 0
M  V30 1930 H 188.72 -0.551437 -0.511293 0
M  V30 1931 H 190.691 -2.67694 -1.31843 0
M  V30 1932 C 189.44 -1.8972 -2.91379 0
M  V30 1933 H 188.763 -2.76344 -2.88919 0
M  V30 1934 H 190.203 -2.09629 -3.68553 0
M  V30 1935 C 188.662 -0.65992 -3.30374 0
M  V30 1936 O 189.192 0.180083 -4.01296 0
M  V30 1937 N 187.398 -0.500677 -2.86254 0
M  V30 1938 H 186.945 -1.18532 -2.28709 0
M  V30 1939 H 186.903 0.325903 -3.12706 0
M  V30 1940 N 190.675 0.682077 -1.42076 0
M  V30 1941 C 191.622 1.79578 -1.44984 0
M  V30 1942 C 192.592 1.6332 -0.302614 0
M  V30 1943 O 193.777 1.83978 -0.505633 0
M  V30 1944 C 190.917 3.1756 -1.35091 0
M  V30 1945 C 190.03 3.45156 -2.59791 0
M  V30 1946 C 189.165 4.72826 -2.42093 0
M  V30 1947 C 188.204 4.93433 -3.62202 0
M  V30 1948 N 187.341 6.12338 -3.43491 0
M  V30 1949 H 192.181 1.76427 -2.40161 0
M  V30 1950 H 189.718 0.861376 -1.19242 0
M  V30 1951 H 191.676 3.97287 -1.27354 0
M  V30 1952 H 190.306 3.19854 -0.435133 0
M  V30 1953 H 189.358 2.59736 -2.77923 0
M  V30 1954 H 190.67 3.5628 -3.49094 0
M  V30 1955 H 189.824 5.60631 -2.319 0
M  V30 1956 H 188.563 4.63973 -1.50268 0
M  V30 1957 H 187.568 4.04073 -3.72834 0
M  V30 1958 H 188.793 5.04136 -4.54998 0
M  V30 1959 H 186.739 6.04672 -2.54377 0
M  V30 1960 H 186.656 6.2429 -4.26377 0
M  V30 1961 H 187.924 7.02841 -3.37097 0
M  V30 1962 N 192.153 1.28127 0.917671 0
M  V30 1963 C 193.063 1.13556 2.05286 0
M  V30 1964 C 194.079 0.0630914 1.73886 0
M  V30 1965 O 195.255 0.271598 1.9956 0
M  V30 1966 C 192.32 0.794676 3.3747 0
M  V30 1967 C 191.381 1.94909 3.82504 0
M  V30 1968 C 190.614 1.62437 5.0838 0
M  V30 1969 O 190.837 0.536905 5.67867 0
M  V30 1970 O 189.771 2.46677 5.4903 0
M  V30 1971 H 193.597 2.08844 2.20495 0
M  V30 1972 H 191.182 1.07409 1.03845 0
M  V30 1973 H 193.064 0.618344 4.16839 0
M  V30 1974 H 191.739 -0.128581 3.23445 0
M  V30 1975 H 190.646 2.18055 3.03978 0
M  V30 1976 H 191.979 2.85291 4.01086 0
M  V30 1977 N 193.631 -1.12557 1.10312 0
M  V30 1978 C 195.047 -1.36036 0.834649 0
M  V30 1979 C 195.247 -1.93946 -0.546539 0
M  V30 1980 O 194.303 -2.16484 -1.29966 0
M  V30 1981 C 195.616 -2.30312 1.9333 0
M  V30 1982 C 197.164 -2.43906 1.9616 0
M  V30 1983 C 197.639 -3.41496 3.05195 0
M  V30 1984 N 199.13 -3.49053 3.04494 0
M  V30 1985 C 199.865 -4.24471 3.85502 0
M  V30 1986 N 199.361 -5.02966 4.76442 0
M  V30 1987 N 201.154 -4.19864 3.73725 0
M  V30 1988 H 193.305 -0.733246 1.99342 0
M  V30 1989 H 195.568 -0.385234 0.866198 0
M  V30 1990 H 195.274 -1.94933 2.92735 0
M  V30 1991 H 195.148 -3.30421 1.81939 0
M  V30 1992 H 197.535 -2.78567 0.973886 0
M  V30 1993 H 197.616 -1.4369 2.11629 0
M  V30 1994 H 197.26 -3.07565 4.04186 0
M  V30 1995 H 197.19 -4.41539 2.86968 0
M  V30 1996 H 199.681 -2.93053 2.38596 0
M  V30 1997 H 199.994 -5.57846 5.34815 0
M  V30 1998 H 198.339 -5.02167 4.80472 0
M  V30 1999 H 201.53 -3.57623 3.02032 0
M  V30 2000 H 201.703 -4.78386 4.37093 0
M  V30 2001 N 195.109 -0.891671 -1.2995 0
M  V30 2002 C 196.358 -0.509521 -1.95158 0
M  V30 2003 C 196.671 0.947388 -1.71125 0
M  V30 2004 O 197.877 1.43669 -2.30372 0
M  V30 2005 C 196.333 -0.860315 -3.49466 0
M  V30 2006 C 195.941 -2.33545 -3.8231 0
M  V30 2007 C 197.685 -0.547687 -4.20952 0
M  V30 2008 C 195.592 -2.62752 -5.29826 0
M  V30 2009 H 194.522 -0.18682 -0.730489 0
M  V30 2010 H 197.173 -1.08756 -1.47798 0
M  V30 2011 H 195.555 -0.211285 -3.95436 0
M  V30 2012 H 196.729 -3.02936 -3.47227 0
M  V30 2013 H 195.044 -2.61629 -3.23944 0
M  V30 2014 H 197.641 -0.742854 -5.29515 0
M  V30 2015 H 197.984 0.51332 -4.13123 0
M  V30 2016 H 198.517 -1.1542 -3.80688 0
M  V30 2017 H 195.256 -3.6762 -5.42712 0
M  V30 2018 H 194.776 -1.97977 -5.66185 0
M  V30 2019 H 196.455 -2.48601 -5.97333 0
M  V30 2020 N 196.587 1.43421 -0.653314 0
M  V30 2021 C 197.812 2.06678 -0.172846 0
M  V30 2022 C 198.237 1.48648 1.15262 0
M  V30 2023 O 197.595 0.596457 1.71208 0
M  V30 2024 C 197.643 3.60474 -0.0953184 0
M  V30 2025 O 196.747 4.01487 0.942442 0
M  V30 2026 H 196.088 0.657181 -0.0949155 0
M  V30 2027 H 198.618 1.83925 -0.896265 0
M  V30 2028 H 198.628 4.07905 0.0879728 0
M  V30 2029 H 197.303 4.02088 -1.06291 0
M  V30 2030 H 195.88 3.65646 0.731932 0
M  V30 2031 N 198.065 0.39524 1.52563 0
M  V30 2032 C 199.311 -0.185318 2.01952 0
M  V30 2033 C 199.644 -1.45964 1.28095 0
M  V30 2034 O 198.919 -1.90689 0.38315 0
M  V30 2035 C 199.202 -0.447193 3.57312 0
M  V30 2036 C 199.055 0.842828 4.41833 0
M  V30 2037 C 200.374 -1.23529 4.22408 0
M  V30 2038 H 197.493 -0.0658788 0.73405 0
M  V30 2039 H 200.135 0.525975 1.82575 0
M  V30 2040 H 198.285 -1.05312 3.73954 0
M  V30 2041 H 199.957 1.4795 4.36931 0
M  V30 2042 H 198.2 1.45686 4.08605 0
M  V30 2043 H 198.871 0.614165 5.48573 0
M  V30 2044 H 201.347 -0.722445 4.0978 0
M  V30 2045 H 200.223 -1.38727 5.3108 0
M  V30 2046 H 200.484 -2.25213 3.80436 0
M  V30 2047 N 199.544 -1.57102 0.125237 0
M  V30 2048 C 200.507 -2.14471 -0.80838 0
M  V30 2049 C 201.507 -1.0811 -1.19033 0
M  V30 2050 O 202.697 -1.33856 -1.11482 0
M  V30 2051 C 199.829 -2.69005 -2.09402 0
M  V30 2052 H 201.022 -2.98297 -0.309696 0
M  V30 2053 H 198.575 -1.55807 -0.124051 0
M  V30 2054 H 199.31 -1.88785 -2.63687 0
M  V30 2055 H 199.095 -3.46799 -1.82957 0
M  V30 2056 H 200.585 -3.13278 -2.76128 0
M  V30 2057 N 201.022 0.148545 -1.56898 0
M  V30 2058 C 201.985 1.16736 -1.97244 0
M  V30 2059 C 202.985 1.35947 -0.858777 0
M  V30 2060 O 204.175 1.32966 -1.12542 0
M  V30 2061 C 201.307 2.52798 -2.28705 0
M  V30 2062 H 202.5 0.821279 -2.88435 0
M  V30 2063 H 200.053 0.391831 -1.51309 0
M  V30 2064 H 200.788 2.92381 -1.403 0
M  V30 2065 H 200.573 2.40216 -3.09901 0
M  V30 2066 H 202.063 3.26179 -2.60762 0
M  V30 2067 N 202.5 1.5196 0.417844 0
M  V30 2068 C 203.463 1.74065 1.49111 0
M  V30 2069 C 204.463 0.610537 1.48758 0
M  V30 2070 O 205.653 0.87832 1.50437 0
M  V30 2071 C 202.785 1.81502 2.88565 0
M  V30 2072 H 203.978 2.69869 1.30807 0
M  V30 2073 H 201.531 1.42244 0.647785 0
M  V30 2074 H 202.266 0.875813 3.1225 0
M  V30 2075 H 202.051 2.63651 2.90225 0
M  V30 2076 H 203.541 2.00376 3.66387 0
M  V30 2077 N 203.978 -0.674533 1.42435 0
M  V30 2078 C 205.203 -1.46784 1.46524 0
M  V30 2079 C 205.628 -1.87938 0.078066 0
M  V30 2080 O 204.986 -1.56014 -0.92354 0
M  V30 2081 C 205.034 -2.69307 2.39805 0
M  V30 2082 O 204.138 -3.67587 1.86959 0
M  V30 2083 H 203.479 -0.440959 0.496439 0
M  V30 2084 H 206.009 -0.827326 1.87127 0
M  V30 2085 H 206.019 -3.17374 2.56393 0
M  V30 2086 H 204.694 -2.38692 3.40586 0
M  V30 2087 H 203.271 -3.2662 1.79927 0
M  V30 2088 N 205.456 -1.28612 -0.910864 0
M  V30 2089 C 206.403 -1.12786 -2.01365 0
M  V30 2090 C 207.373 -0.024201 -1.66082 0
M  V30 2091 O 208.558 -0.189667 -1.89855 0
M  V30 2092 C 205.698 -0.798743 -3.35729 0
M  V30 2093 C 204.811 -1.98173 -3.83864 0
M  V30 2094 C 203.946 -1.59298 -5.06752 0
M  V30 2095 C 202.985 -2.74245 -5.47226 0
M  V30 2096 N 202.122 -2.35842 -6.61304 0
M  V30 2097 H 206.962 -2.07142 -2.14234 0
M  V30 2098 H 204.499 -1.03093 -1.0493 0
M  V30 2099 H 206.457 -0.588662 -4.13026 0
M  V30 2100 H 205.087 0.10789 -3.2262 0
M  V30 2101 H 204.139 -2.30386 -3.02699 0
M  V30 2102 H 205.451 -2.84343 -4.09818 0
M  V30 2103 H 204.605 -1.34513 -5.916 0
M  V30 2104 H 203.344 -0.702618 -4.82612 0
M  V30 2105 H 202.349 -2.99725 -4.60918 0
M  V30 2106 H 203.574 -3.63928 -5.73353 0
M  V30 2107 H 201.52 -1.49279 -6.38789 0
M  V30 2108 H 201.437 -3.15546 -6.86998 0
M  V30 2109 H 202.705 -2.14348 -7.4945 0
M  V30 2110 N 206.934 1.1197 -1.10907 0
M  V30 2111 C 207.864 2.19928 -0.784473 0
M  V30 2112 C 208.845 1.6833 0.244726 0
M  V30 2113 O 210.03 1.93892 0.109418 0
M  V30 2114 C 207.16 3.46597 -0.220827 0
M  V30 2115 C 206.114 4.11376 -1.18127 0
M  V30 2116 C 205.44 5.32554 -0.478594 0
M  V30 2117 C 206.74 4.56945 -2.52979 0
M  V30 2118 H 208.434 2.47337 -1.68715 0
M  V30 2119 H 205.98 1.18879 -0.812642 0
M  V30 2120 H 207.933 4.21396 0.0184278 0
M  V30 2121 H 206.657 3.1863 0.717113 0
M  V30 2122 H 205.316 3.38564 -1.40606 0
M  V30 2123 H 204.964 5.00856 0.463976 0
M  V30 2124 H 204.664 5.76844 -1.11912 0
M  V30 2125 H 206.188 6.10096 -0.248 0
M  V30 2126 H 207.602 5.23093 -2.3462 0
M  V30 2127 H 205.999 5.1203 -3.12962 0
M  V30 2128 H 207.069 3.70676 -3.12614 0
M  V30 2129 N 208.412 0.89855 1.29475 0
M  V30 2130 C 209.342 0.39201 2.30186 0
M  V30 2131 C 210.323 -0.532359 1.61555 0
M  V30 2132 O 211.508 -0.443331 1.89072 0
M  V30 2133 C 208.638 -0.382353 3.45189 0
M  V30 2134 C 207.592 0.451483 4.25612 0
M  V30 2135 C 206.918 -0.450307 5.328 0
M  V30 2136 C 208.218 1.70079 4.93832 0
M  V30 2137 H 209.912 1.23362 2.72804 0
M  V30 2138 H 207.458 0.594638 1.31149 0
M  V30 2139 H 209.411 -0.747451 4.14718 0
M  V30 2140 H 208.135 -1.25774 3.01411 0
M  V30 2141 H 206.794 0.798897 3.57789 0
M  V30 2142 H 206.442 -1.32379 4.85268 0
M  V30 2143 H 206.142 0.103902 5.87508 0
M  V30 2144 H 207.666 -0.811623 6.05182 0
M  V30 2145 H 209.08 1.40549 5.55805 0
M  V30 2146 H 207.477 2.19623 5.58467 0
M  V30 2147 H 208.547 2.43744 4.19186 0
M  V30 2148 N 209.89 -1.43072 0.660911 0
M  V30 2149 C 210.853 -2.29194 -0.0166406 0
M  V30 2150 C 211.853 -1.42609 -0.742912 0
M  V30 2151 O 213.043 -1.64155 -0.583004 0
M  V30 2152 C 210.175 -3.24831 -1.0343 0
M  V30 2153 H 211.368 -2.90596 0.741208 0
M  V30 2154 H 208.921 -1.5048 0.422532 0
M  V30 2155 H 209.656 -2.68339 -1.82111 0
M  V30 2156 H 209.441 -3.88676 -0.517082 0
M  V30 2157 H 210.931 -3.89451 -1.50723 0
M  V30 2158 N 211.368 -0.403325 -1.52352 0
M  V30 2159 C 212.316 0.439752 -2.28405 0
M  V30 2160 C 213.31 1.05089 -1.32863 0
M  V30 2161 O 214.516 0.989759 -1.50345 0
M  V30 2162 H 210.891 0.160587 -0.734653 0
M  V30 2163 H 212.862 -0.222983 -2.97566 0
M  V30 2164 C 211.611 1.54736 -3.11371 0
M  V30 2165 H 210.934 1.08643 -3.84755 0
M  V30 2166 H 212.374 2.1112 -3.67701 0
M  V30 2167 C 210.833 2.51141 -2.24566 0
M  V30 2168 O 211.363 3.54887 -1.88196 0
M  V30 2169 N 209.569 2.21213 -1.8845 0
M  V30 2170 H 209.116 1.36878 -2.18225 0
M  V30 2171 H 209.074 2.85963 -1.30662 0
M  V30 2172 N 212.846 1.57033 -0.133567 0
M  V30 2173 C 213.779 2.11824 0.848872 0
M  V30 2174 C 214.757 1.03833 1.2513 0
M  V30 2175 O 215.941 1.31579 1.34978 0
M  V30 2176 C 213.068 2.62692 2.138 0
M  V30 2177 C 212.114 3.82705 1.88253 0
M  V30 2178 S 212.947 5.2438 1.08563 0
M  V30 2179 C 214.103 5.78627 2.38624 0
M  V30 2180 H 214.336 2.94824 0.38289 0
M  V30 2181 H 211.869 1.5419 0.0804796 0
M  V30 2182 H 213.827 2.92652 2.87863 0
M  V30 2183 H 212.488 1.79847 2.57515 0
M  V30 2184 H 211.681 4.16496 2.83809 0
M  V30 2185 H 211.283 3.53437 1.22305 0
M  V30 2186 H 213.575 5.8924 3.34369 0
M  V30 2187 H 214.518 6.76443 2.09358 0
M  V30 2188 H 214.926 5.06783 2.48658 0
M  V30 2189 N 214.325 -0.140222 1.56975 0
M  V30 2190 C 215.571 -0.852949 1.83991 0
M  V30 2191 C 215.904 -1.80512 0.716187 0
M  V30 2192 O 215.179 -1.92479 -0.279681 0
M  V30 2193 C 215.462 -1.6215 3.21527 0
M  V30 2194 C 215.315 -0.690363 4.4447 0
M  V30 2195 C 216.634 -2.58247 3.56366 0
M  V30 2196 H 213.753 -0.308634 0.669264 0
M  V30 2197 H 216.395 -0.117898 1.89634 0
M  V30 2198 H 214.545 -2.24812 3.16847 0
M  V30 2199 H 216.217 -0.0742264 4.6124 0
M  V30 2200 H 214.46 -0.000396433 4.338 0
M  V30 2201 H 215.131 -1.2643 5.37326 0
M  V30 2202 H 217.607 -2.05701 3.61699 0
M  V30 2203 H 216.483 -3.09067 4.53617 0
M  V30 2204 H 216.744 -3.39923 2.82674 0
M  V30 2205 N 215.803 -1.52179 -0.40978 0
M  V30 2206 C 217.033 -1.69807 -1.17682 0
M  V30 2207 C 217.441 -0.406908 -1.84773 0
M  V30 2208 O 216.784 0.626863 -1.72673 0
M  V30 2209 C 216.846 -2.77712 -2.2829 0
M  V30 2210 C 216.51 -4.19481 -1.81341 0
M  V30 2211 C 217.507 -5.03345 -1.30154 0
M  V30 2212 C 215.192 -4.65713 -1.88194 0
M  V30 2213 C 217.186 -6.31511 -0.864416 0
M  V30 2214 C 214.873 -5.93869 -1.44093 0
M  V30 2215 C 215.871 -6.76597 -0.933023 0
M  V30 2216 O 215.559 -8.02354 -0.49838 0
M  V30 2217 H 215.291 -0.572372 -0.359675 0
M  V30 2218 H 217.845 -1.99511 -0.488311 0
M  V30 2219 H 216.075 -2.43383 -3.00502 0
M  V30 2220 H 217.764 -2.83946 -2.90051 0
M  V30 2221 H 218.53 -4.68819 -1.24232 0
M  V30 2222 H 214.409 -4.01424 -2.26671 0
M  V30 2223 H 217.953 -6.96033 -0.467286 0
M  V30 2224 H 213.85 -6.27903 -1.49694 0
M  V30 2225 H 214.618 -8.16135 -0.621747 0
M  V30 2226 N 217.281 0.66697 -1.42791 0
M  V30 2227 C 218.213 1.7925 -1.42836 0
M  V30 2228 C 219.226 1.59496 -0.326333 0
M  V30 2229 O 220.415 1.6847 -0.589916 0
M  V30 2230 C 217.515 3.16476 -1.21229 0
M  V30 2231 C 216.688 3.63011 -2.44013 0
M  V30 2232 C 215.747 4.78993 -2.17834 0
M  V30 2233 O 214.773 4.89137 -2.91091 0
M  V30 2234 N 215.975 5.68248 -1.18635 0
M  V30 2235 H 218.74 1.79695 -2.39854 0
M  V30 2236 H 216.301 0.850338 -1.37771 0
M  V30 2237 H 218.293 3.91734 -1.01621 0
M  V30 2238 H 216.863 3.10884 -0.32706 0
M  V30 2239 H 216.083 2.78346 -2.79137 0
M  V30 2240 H 217.371 3.90845 -3.25757 0
M  V30 2241 H 216.769 5.62712 -0.580615 0
M  V30 2242 H 215.326 6.43285 -1.05013 0
M  V30 2243 N 218.759 1.29093 0.90403 0
M  V30 2244 C 219.989 1.19516 1.68522 0
M  V30 2245 C 220.397 -0.24738 1.87576 0
M  V30 2246 O 219.74 -1.17798 1.40959 0
M  V30 2247 C 219.802 1.83249 3.0929 0
M  V30 2248 C 219.466 3.32531 3.13484 0
M  V30 2249 C 220.463 4.28821 2.93953 0
M  V30 2250 C 218.148 3.73656 3.35688 0
M  V30 2251 C 220.142 5.64212 2.96553 0
M  V30 2252 C 217.829 5.0917 3.37919 0
M  V30 2253 C 218.827 6.04258 3.18373 0
M  V30 2254 O 218.515 7.37298 3.20385 0
M  V30 2255 H 218.247 0.415467 0.533257 0
M  V30 2256 H 220.801 1.70912 1.13922 0
M  V30 2257 H 219.031 1.26358 3.65473 0
M  V30 2258 H 220.72 1.68054 3.69476 0
M  V30 2259 H 221.486 3.98382 2.76616 0
M  V30 2260 H 217.365 3.00101 3.49943 0
M  V30 2261 H 220.909 6.38407 2.81216 0
M  V30 2262 H 216.806 5.39256 3.54787 0
M  V30 2263 H 217.574 7.46048 3.36681 0
M  V30 2264 N 220.237 -1.11381 1.11499 0
M  V30 2265 C 221.184 -2.17439 0.773887 0
M  V30 2266 C 222.154 -1.64132 -0.254899 0
M  V30 2267 O 223.339 -1.90345 -0.13168 0
M  V30 2268 C 220.479 -3.44373 0.223917 0
M  V30 2269 C 219.592 -4.1168 1.30934 0
M  V30 2270 C 218.727 -5.263 0.71984 0
M  V30 2271 C 217.766 -5.85493 1.78507 0
M  V30 2272 N 216.903 -6.91507 1.21502 0
M  V30 2273 H 221.743 -2.45962 1.68246 0
M  V30 2274 H 219.28 -1.20744 0.840191 0
M  V30 2275 H 221.238 -4.17047 -0.112921 0
M  V30 2276 H 219.868 -3.16232 -0.647851 0
M  V30 2277 H 218.92 -3.37073 1.76312 0
M  V30 2278 H 220.232 -4.51729 2.11524 0
M  V30 2279 H 219.386 -6.05785 0.333094 0
M  V30 2280 H 218.125 -4.87559 -0.117377 0
M  V30 2281 H 217.13 -5.04686 2.18111 0
M  V30 2282 H 218.355 -6.26301 2.62533 0
M  V30 2283 H 216.301 -6.54783 0.399455 0
M  V30 2284 H 216.218 -7.30214 1.95763 0
M  V30 2285 H 217.486 -7.74795 0.855181 0
M  V30 2286 N 221.715 -0.905404 -1.28997 0
M  V30 2287 C 222.963 -0.533192 -1.9494 0
M  V30 2288 C 223.284 0.924618 -1.71685 0
M  V30 2289 O 222.554 1.65268 -1.05183 0
M  V30 2290 H 221.134 -0.194194 -0.721317 0
M  V30 2291 H 223.796 -1.15294 -1.57141 0
M  V30 2292 H 222.892 -0.72059 -3.03667 0
M  V30 2293 N 223.193 1.4272 -0.668489 0
M  V30 2294 C 224.126 2.28111 0.0637898 0
M  V30 2295 C 225.104 1.40705 0.814912 0
M  V30 2296 O 226.288 1.70146 0.81134 0
M  V30 2297 C 223.415 3.20429 1.0974 0
M  V30 2298 C 222.461 4.24197 0.442579 0
M  V30 2299 S 223.294 5.29563 -0.795173 0
M  V30 2300 C 224.45 6.25449 0.237516 0
M  V30 2301 H 224.683 2.8987 -0.660521 0
M  V30 2302 H 222.216 1.47456 -0.457821 0
M  V30 2303 H 224.174 3.74158 1.68868 0
M  V30 2304 H 222.835 2.57818 1.79411 0
M  V30 2305 H 222.028 4.88954 1.22227 0
M  V30 2306 H 221.63 3.73925 -0.0749554 0
M  V30 2307 H 223.922 6.68524 1.09915 0
M  V30 2308 H 224.865 7.07104 -0.375421 0
M  V30 2309 H 225.273 5.61511 0.580167 0
M  V30 2310 N 224.671 0.411399 1.52136 0
M  V30 2311 C 225.919 -0.163322 2.01439 0
M  V30 2312 C 226.24 -1.45453 1.29879 0
M  V30 2313 O 225.51 -1.91225 0.4254 0
M  V30 2314 H 224.09 -0.0633447 0.744309 0
M  V30 2315 H 226.752 0.548161 1.87033 0
M  V30 2316 H 225.848 -0.357817 3.10042 0
M  V30 2317 N 226.149 -1.5696 0.141893 0
M  V30 2318 C 227.079 -2.19516 -0.795936 0
M  V30 2319 C 228.06 -1.14187 -1.26077 0
M  V30 2320 O 229.245 -1.42511 -1.31925 0
M  V30 2321 C 226.375 -2.81272 -2.03723 0
M  V30 2322 C 225.329 -3.92384 -1.70936 0
M  V30 2323 C 224.655 -4.41052 -3.02287 0
M  V30 2324 C 225.955 -5.13403 -0.959954 0
M  V30 2325 H 227.649 -2.98138 -0.274596 0
M  V30 2326 H 225.195 -1.43406 -0.130636 0
M  V30 2327 H 227.148 -3.237 -2.69808 0
M  V30 2328 H 225.872 -1.99973 -2.58221 0
M  V30 2329 H 224.531 -3.50566 -1.07232 0
M  V30 2330 H 224.179 -3.56582 -3.54765 0
M  V30 2331 H 223.879 -5.15993 -2.81114 0
M  V30 2332 H 225.403 -4.86146 -3.69451 0
M  V30 2333 H 226.817 -5.52706 -1.52279 0
M  V30 2334 H 225.214 -5.94073 -0.848357 0
M  V30 2335 H 226.284 -4.84875 0.0492434 0
M  V30 2336 N 227.627 0.131896 -1.57047 0
M  V30 2337 C 228.852 0.860418 -1.8871 0
M  V30 2338 C 229.277 1.73251 -0.73251 0
M  V30 2339 O 228.635 1.785 0.317429 0
M  V30 2340 C 228.683 1.68047 -3.19049 0
M  V30 2341 O 227.787 2.7862 -3.04047 0
M  V30 2342 H 227.128 0.238743 -0.619595 0
M  V30 2343 H 229.658 0.118169 -2.04258 0
M  V30 2344 H 229.668 2.07238 -3.51449 0
M  V30 2345 H 228.343 1.04018 -4.02682 0
M  V30 2346 H 226.92 2.42726 -2.83088 0
M  V30 2347 N 229.106 1.52395 0.401703 0
M  V30 2348 C 230.039 1.70999 1.51111 0
M  V30 2349 C 231.017 0.55765 1.52738 0
M  V30 2350 O 232.201 0.785912 1.71335 0
M  V30 2351 C 229.328 1.75607 2.8962 0
M  V30 2352 C 228.374 2.97227 3.05873 0
M  V30 2353 S 229.207 4.57439 2.78405 0
M  V30 2354 C 230.363 4.64844 4.19131 0
M  V30 2355 H 230.596 2.6483 1.35102 0
M  V30 2356 H 228.129 1.42527 0.593762 0
M  V30 2357 H 230.087 1.78947 3.69443 0
M  V30 2358 H 228.748 0.828914 3.02965 0
M  V30 2359 H 227.941 2.96955 4.07227 0
M  V30 2360 H 227.543 2.91813 2.33925 0
M  V30 2361 H 229.835 4.42677 5.12877 0
M  V30 2362 H 230.778 5.66807 4.24424 0
M  V30 2363 H 231.186 3.93804 4.04448 0
M  V30 2364 N 230.584 -0.659388 1.43143 0
M  V30 2365 C 231.832 -1.41654 1.44147 0
M  V30 2366 C 232.153 -1.94893 0.0645739 0
M  V30 2367 O 231.423 -1.74044 -0.899198 0
M  V30 2368 H 230.003 -0.525708 0.530697 0
M  V30 2369 H 232.665 -0.778097 1.78694 0
M  V30 2370 H 231.761 -2.26195 2.1504 0
M  V30 2371 N 232.062 -1.29571 -0.897171 0
M  V30 2372 C 233.29 -1.20583 -1.68129 0
M  V30 2373 C 233.705 0.233181 -1.87354 0
M  V30 2374 O 233.062 1.15579 -1.41236 0
M  V30 2375 C 233.113 -1.91772 -3.06441 0
M  V30 2376 O 232.834 -3.30053 -2.88091 0
M  V30 2377 C 234.335 -1.89291 -4.00854 0
M  V30 2378 H 231.555 -0.417826 -0.525036 0
M  V30 2379 H 234.099 -1.70987 -1.12177 0
M  V30 2380 H 232.254 -1.45196 -3.59161 0
M  V30 2381 H 232.668 -3.65942 -3.75748 0
M  V30 2382 H 234.142 -2.43662 -4.95311 0
M  V30 2383 H 234.619 -0.869014 -4.30517 0
M  V30 2384 H 235.225 -2.35622 -3.54066 0
M  V30 2385 N 233.54 1.10788 -1.12088 0
M  V30 2386 C 234.473 2.16237 -0.729168 0
M  V30 2387 C 235.451 1.60207 0.277921 0
M  V30 2388 O 236.635 1.87707 0.172737 0
M  V30 2389 C 233.762 3.38609 -0.0786848 0
M  V30 2390 C 232.808 4.13322 -1.05201 0
M  V30 2391 S 233.641 4.69371 -2.57781 0
M  V30 2392 C 234.797 5.95058 -1.94053 0
M  V30 2393 H 235.03 2.4913 -1.62239 0
M  V30 2394 H 232.563 1.22519 -0.939603 0
M  V30 2395 H 234.521 4.09473 0.290254 0
M  V30 2396 H 233.182 3.03962 0.791593 0
M  V30 2397 H 232.375 5.01051 -0.544433 0
M  V30 2398 H 231.977 3.48251 -1.36371 0
M  V30 2399 H 234.269 6.65278 -1.28107 0
M  V30 2400 H 235.212 6.50472 -2.79807 0
M  V30 2401 H 235.62 5.46918 -1.39787 0
M  V30 2402 N 235.018 0.912232 1.28515 0
M  V30 2403 C 236.267 0.540504 1.94323 0
M  V30 2404 C 236.58 -0.920044 1.72611 0
M  V30 2405 O 237.786 -1.39986 2.32629 0
M  V30 2406 C 236.242 0.915803 3.48053 0
M  V30 2407 C 235.85 2.39598 3.78546 0
M  V30 2408 C 237.594 0.614588 4.20027 0
M  V30 2409 C 235.501 2.71148 5.25578 0
M  V30 2410 H 234.431 0.198418 0.727424 0
M  V30 2411 H 237.082 1.11094 1.46049 0
M  V30 2412 H 235.464 0.274168 3.9505 0
M  V30 2413 H 236.638 3.08422 3.42364 0
M  V30 2414 H 234.953 2.66749 3.1974 0
M  V30 2415 H 237.55 0.827002 5.28266 0
M  V30 2416 H 237.893 -0.447531 4.13887 0
M  V30 2417 H 238.426 1.21462 3.78803 0
M  V30 2418 H 235.165 3.76207 5.36794 0
M  V30 2419 H 234.685 2.0696 5.62963 0
M  V30 2420 H 236.364 2.58072 5.93302 0
M  V30 2421 N 236.496 -1.42363 0.676048 0
M  V30 2422 C 237.736 -2.03392 0.20273 0
M  V30 2423 C 238.1 -1.52306 -1.16906 0
M  V30 2424 O 239.301 -2.05129 -1.73711 0
M  V30 2425 C 237.572 -3.56614 0.236947 0
M  V30 2426 S 239.131 -4.38489 -0.165186 0
M  V30 2427 H 235.949 -0.70611 0.0832418 0
M  V30 2428 H 238.551 -1.74093 0.88948 0
M  V30 2429 H 237.255 -3.91293 1.23767 0
M  V30 2430 H 236.786 -3.90587 -0.469596 0
M  V30 2431 H 238.801 -4.76093 -1.39822 0
M  V30 2432 N 237.974 -0.419461 -1.51915 0
M  V30 2433 C 239.222 0.152637 -2.01523 0
M  V30 2434 C 239.543 1.44762 -1.30649 0
M  V30 2435 O 238.813 1.90997 -0.435535 0
M  V30 2436 H 237.393 0.0593966 -0.744635 0
M  V30 2437 H 240.055 -0.558073 -1.86739 0
M  V30 2438 H 239.151 0.341369 -3.10227 0
M  V30 2439 N 239.452 1.56882 -0.150215 0
M  V30 2440 C 240.698 1.97299 0.494427 0
M  V30 2441 C 241.053 1.0338 1.62266 0
M  V30 2442 O 240.346 0.0694497 1.91474 0
M  V30 2443 C 240.54 3.41801 1.04437 0
M  V30 2444 C 240.369 4.49691 -0.0290451 0
M  V30 2445 C 239.139 5.03095 -0.47156 0
M  V30 2446 C 241.337 5.07693 -0.821703 0
M  V30 2447 N 239.319 5.94593 -1.52749 0
M  V30 2448 C 240.69 5.95431 -1.72805 0
M  V30 2449 C 242.745 4.90256 -0.869134 0
M  V30 2450 C 241.448 6.67599 -2.67777 0
M  V30 2451 C 243.474 5.63127 -1.8067 0
M  V30 2452 C 242.836 6.50576 -2.70057 0
M  V30 2453 H 238.935 0.76755 0.149639 0
M  V30 2454 H 241.519 1.93145 -0.24556 0
M  V30 2455 H 239.69 3.46541 1.75396 0
M  V30 2456 H 241.422 3.69272 1.6559 0
M  V30 2457 H 238.177 4.73543 -0.0732101 0
M  V30 2458 H 238.601 6.45047 -2.05531 0
M  V30 2459 H 243.243 4.22363 -0.192134 0
M  V30 2460 H 240.961 7.34717 -3.36476 0
M  V30 2461 H 244.547 5.51629 -1.84924 0
M  V30 2462 H 243.427 7.05974 -3.41424 0
M  V30 2463 N 240.93 -0.123565 1.57115 0
M  V30 2464 C 242.207 -0.862196 1.75572 0
M  V30 2465 C 242.587 -1.98279 0.724475 0
M  V30 2466 O 241.935 -2.27102 -0.252407 0
M  V30 2467 C 242.145 -1.38309 3.20424 0
M  V30 2468 C 243.493 -1.83724 3.82793 0
M  V30 2469 O 244.517 -1.47999 3.23998 0
M  V30 2470 O 243.376 -2.49685 4.86127 0
M  V30 2471 H 240.47 -0.409113 0.718718 0
M  V30 2472 H 243.016 -0.107661 1.69358 0
M  V30 2473 H 241.788 -0.578889 3.86994 0
M  V30 2474 H 241.411 -2.20046 3.31158 0
M  V30 2475 N 242.408 -1.52605 -0.393616 0
M  V30 2476 C 243.355 -1.77055 -1.48054 0
M  V30 2477 C 244.325 -0.61358 -1.54352 0
M  V30 2478 O 245.51 -0.852806 -1.70681 0
M  V30 2479 C 242.65 -1.94108 -2.85335 0
M  V30 2480 C 241.763 -3.21792 -2.88226 0
M  V30 2481 C 240.898 -3.29188 -4.16904 0
M  V30 2482 C 239.937 -4.51013 -4.13828 0
M  V30 2483 N 239.074 -4.55716 -5.34105 0
M  V30 2484 H 243.914 -2.69815 -1.26506 0
M  V30 2485 H 241.451 -1.33683 -0.61379 0
M  V30 2486 H 243.409 -2.01979 -3.65049 0
M  V30 2487 H 242.039 -1.04713 -3.05344 0
M  V30 2488 H 241.091 -3.23015 -2.00911 0
M  V30 2489 H 242.403 -4.11557 -2.8182 0
M  V30 2490 H 241.557 -3.36216 -5.05018 0
M  V30 2491 H 240.296 -2.37389 -4.26026 0
M  V30 2492 H 239.301 -4.44115 -3.24102 0
M  V30 2493 H 240.526 -5.44123 -4.06333 0
M  V30 2494 H 238.472 -3.66807 -5.43865 0
M  V30 2495 H 238.389 -5.39346 -5.29756 0
M  V30 2496 H 239.657 -4.66993 -6.2413 0
M  V30 2497 N 243.887 0.651787 -1.4349 0
M  V30 2498 C 245.303 0.96762 -1.26922 0
M  V30 2499 C 245.503 2.00602 -0.189982 0
M  V30 2500 O 244.559 2.48793 0.431107 0
M  V30 2501 C 245.872 1.45052 -2.63401 0
M  V30 2502 C 247.42 1.5671 -2.70945 0
M  V30 2503 C 247.895 2.0839 -4.07845 0
M  V30 2504 N 249.386 2.1569 -4.09917 0
M  V30 2505 C 250.121 2.56804 -5.12679 0
M  V30 2506 N 249.617 2.97203 -6.25813 0
M  V30 2507 N 251.41 2.56756 -5.00033 0
M  V30 2508 H 243.561 -0.0353158 -2.12371 0
M  V30 2509 H 245.824 0.0467858 -0.946845 0
M  V30 2510 H 245.53 0.761926 -3.43348 0
M  V30 2511 H 245.404 2.42529 -2.88894 0
M  V30 2512 H 247.791 2.2467 -1.9133 0
M  V30 2513 H 247.872 0.57662 -2.49216 0
M  V30 2514 H 247.516 1.41031 -4.87927 0
M  V30 2515 H 247.446 3.08271 -4.26938 0
M  V30 2516 H 249.937 1.87237 -3.28254 0
M  V30 2517 H 250.25 3.27328 -7.00055 0
M  V30 2518 H 248.595 2.95004 -6.29283 0
M  V30 2519 H 251.786 2.24572 -4.10713 0
M  V30 2520 H 251.959 2.88475 -5.80247 0
M  V30 2521 N 245.365 1.30045 0.890287 0
M  V30 2522 C 246.613 1.18327 1.63839 0
M  V30 2523 C 246.934 -0.263455 1.93212 0
M  V30 2524 O 246.204 -1.17856 1.56482 0
M  V30 2525 H 244.784 0.434933 0.607324 0
M  V30 2526 H 247.446 1.631 1.06698 0
M  V30 2527 H 246.542 1.74024 2.59079 0
M  V30 2528 N 246.843 -1.10192 1.12674 0
M  V30 2529 C 248.254 -1.63707 0.897604 0
M  V30 2530 C 248.605 -1.87812 -0.567546 0
M  V30 2531 O 247.73 -1.62196 -1.43253 0
M  V30 2532 C 248.325 -2.974 1.62292 0
M  V30 2533 C 246.884 -3.47772 1.43986 0
M  V30 2534 C 246.031 -2.22332 1.65722 0
M  V30 2535 H 248.982 -0.936587 1.28116 0
M  V30 2536 H 249.003 -3.64986 1.07541 0
M  V30 2537 H 248.515 -2.79824 2.68924 0
M  V30 2538 H 246.616 -3.70487 0.396206 0
M  V30 2539 H 246.729 -4.25723 2.19765 0
M  V30 2540 H 245.093 -2.30599 1.08149 0
M  V30 2541 H 245.876 -2.07285 2.73657 0
M  V30 2542 N 248.321 -0.919034 -1.28029 0
M  V30 2543 C 249.569 -0.553838 -1.94363 0
M  V30 2544 C 249.89 0.906357 -1.72656 0
M  V30 2545 O 249.16 1.64143 -1.0693 0
M  V30 2546 H 247.74 -0.201834 -0.719216 0
M  V30 2547 H 250.402 -1.16954 -1.55909 0
M  V30 2548 H 249.498 -0.752758 -3.02886 0
M  V30 2549 N 249.799 1.42003 -0.683588 0
M  V30 2550 C 250.729 2.33487 -0.024866 0
M  V30 2551 C 251.71 1.51163 0.779975 0
M  V30 2552 O 252.895 1.79739 0.735362 0
M  V30 2553 C 250.025 3.3487 0.920836 0
M  V30 2554 C 248.979 4.27414 0.223958 0
M  V30 2555 C 248.305 5.19074 1.2832 0
M  V30 2556 C 249.605 5.14445 -0.90242 0
M  V30 2557 H 251.299 2.88819 -0.788921 0
M  V30 2558 H 248.845 1.38873 -0.38083 0
M  V30 2559 H 250.798 3.97787 1.39081 0
M  V30 2560 H 249.522 2.77861 1.71642 0
M  V30 2561 H 248.181 3.65904 -0.225864 0
M  V30 2562 H 247.829 4.58387 2.071 0
M  V30 2563 H 247.529 5.81822 0.821995 0
M  V30 2564 H 249.053 5.84867 1.75392 0
M  V30 2565 H 250.467 5.70998 -0.513272 0
M  V30 2566 H 248.864 5.86072 -1.28997 0
M  V30 2567 H 249.934 4.52322 -1.74737 0
M  V30 2568 N 251.277 0.427512 1.51691 0
M  V30 2569 C 252.507 -0.140986 2.06118 0
M  V30 2570 C 252.915 -1.37854 1.29588 0
M  V30 2571 O 252.258 -1.80411 0.346036 0
M  V30 2572 C 252.32 -0.538276 3.55447 0
M  V30 2573 C 251.984 0.591095 4.53161 0
M  V30 2574 C 252.981 1.46027 4.98971 0
M  V30 2575 C 250.666 0.769028 4.96378 0
M  V30 2576 C 252.66 2.49216 5.8666 0
M  V30 2577 C 250.347 1.80421 5.83859 0
M  V30 2578 C 251.345 2.66417 6.28897 0
M  V30 2579 O 251.033 3.68159 7.14643 0
M  V30 2580 H 250.765 -0.0157455 0.675817 0
M  V30 2581 H 253.319 0.602495 1.96365 0
M  V30 2582 H 251.549 -1.33432 3.6295 0
M  V30 2583 H 253.238 -1.0368 3.92435 0
M  V30 2584 H 254.004 1.33429 4.66285 0
M  V30 2585 H 249.883 0.109273 4.6087 0
M  V30 2586 H 253.427 3.16372 6.21735 0
M  V30 2587 H 249.324 1.93042 6.15959 0
M  V30 2588 H 250.092 3.64622 7.32798 0
M  V30 2589 N 252.755 -1.56801 0.158532 0
M  V30 2590 C 253.985 -2.00568 -0.495583 0
M  V30 2591 C 254.393 -1.03774 -1.58201 0
M  V30 2592 O 253.736 -0.0285797 -1.83678 0
M  V30 2593 C 253.798 -3.40768 -1.14532 0
M  V30 2594 C 253.462 -4.56553 -0.202101 0
M  V30 2595 C 254.459 -5.16714 0.574675 0
M  V30 2596 C 252.144 -5.02197 -0.101648 0
M  V30 2597 C 254.138 -6.20939 1.43924 0
M  V30 2598 C 251.825 -6.06274 0.766508 0
M  V30 2599 C 252.823 -6.65515 1.53555 0
M  V30 2600 O 252.511 -7.67575 2.38922 0
M  V30 2601 H 252.243 -0.662893 -0.13247 0
M  V30 2602 H 254.797 -2.03829 0.253559 0
M  V30 2603 H 253.027 -3.34381 -1.94233 0
M  V30 2604 H 254.716 -3.6857 -1.70033 0
M  V30 2605 H 255.482 -4.82341 0.507167 0
M  V30 2606 H 251.361 -4.55807 -0.689994 0
M  V30 2607 H 254.905 -6.67107 2.03996 0
M  V30 2608 H 250.802 -6.40073 0.835266 0
M  V30 2609 H 251.57 -7.84844 2.32296 0
M  V30 2610 N 254.233 0.115231 -1.57178 0
M  V30 2611 C 255.479 0.82357 -1.85325 0
M  V30 2612 C 255.812 1.79349 -0.744814 0
M  V30 2613 O 255.087 1.92899 0.249024 0
M  V30 2614 C 255.37 1.57014 -3.24066 0
M  V30 2615 C 255.223 0.619565 -4.45513 0
M  V30 2616 C 256.542 2.52545 -3.60429 0
M  V30 2617 H 253.661 0.297948 -0.674089 0
M  V30 2618 H 256.303 0.0877138 -1.89797 0
M  V30 2619 H 254.453 2.19742 -3.20383 0
M  V30 2620 H 256.125 0.000837639 -4.613 0
M  V30 2621 H 254.368 -0.0686174 -4.33746 0
M  V30 2622 H 255.039 1.17866 -5.3927 0
M  V30 2623 H 257.515 1.9992 -3.64926 0
M  V30 2624 H 256.391 3.01811 -4.58477 0
M  V30 2625 H 256.652 3.35383 -2.88047 0
M  V30 2626 N 255.711 1.52812 0.385517 0
M  V30 2627 C 256.988 1.5861 1.14465 0
M  V30 2628 C 257.368 0.381402 2.07626 0
M  V30 2629 O 256.716 -0.629999 2.19643 0
M  V30 2630 C 256.926 2.92664 1.90128 0
M  V30 2631 C 258.274 3.46526 2.45367 0
M  V30 2632 O 259.298 2.94562 2.0028 0
M  V30 2633 O 258.157 4.37323 3.27736 0
M  V30 2634 H 255.251 0.639855 0.523941 0
M  V30 2635 H 257.797 1.65149 0.390389 0
M  V30 2636 H 256.569 3.71788 1.22022 0
M  V30 2637 H 256.192 2.89527 2.72507 0
M  V30 2638 N 257.189 -0.644168 1.43834 0
M  V30 2639 C 258.414 -1.43642 1.49605 0
M  V30 2640 C 258.839 -1.8773 0.117913 0
M  V30 2641 O 258.197 -1.57938 -0.890239 0
M  V30 2642 C 258.245 -2.6416 2.45463 0
M  V30 2643 O 257.349 -3.63538 1.94714 0
M  V30 2644 H 256.69 -0.430329 0.50568 0
M  V30 2645 H 259.22 -0.787448 1.8884 0
M  V30 2646 H 259.23 -3.11864 2.63068 0
M  V30 2647 H 257.905 -2.31414 3.45572 0
M  V30 2648 H 256.482 -3.2273 1.86814 0
M  V30 2649 N 258.668 -1.30515 -0.883378 0
M  V30 2650 C 259.578 -1.18959 -2.02203 0
M  V30 2651 C 260.594 -0.109172 -1.73657 0
M  V30 2652 O 261.77 -0.324413 -1.9877 0
M  V30 2653 C 258.835 -0.883871 -3.35244 0
M  V30 2654 C 257.896 -2.04982 -3.77201 0
M  V30 2655 C 257.129 -1.75859 -5.03894 0
M  V30 2656 O 257.352 -0.687276 -5.66244 0
M  V30 2657 O 256.286 -2.61146 -5.42297 0
M  V30 2658 H 260.112 -2.14616 -2.1488 0
M  V30 2659 H 257.697 -1.10124 -1.0096 0
M  V30 2660 H 259.579 -0.728644 -4.15053 0
M  V30 2661 H 258.254 0.0427798 -3.23672 0
M  V30 2662 H 257.161 -2.26038 -2.9809 0
M  V30 2663 H 258.494 -2.95825 -3.93381 0
M  V30 2664 N 260.146 1.09593 -1.13257 0
M  V30 2665 C 261.394 1.81375 -0.891492 0
M  V30 2666 C 261.715 1.86049 0.584009 0
M  V30 2667 O 260.985 1.34481 1.42449 0
M  V30 2668 H 259.565 0.671708 -0.326828 0
M  V30 2669 H 262.227 1.3256 -1.42877 0
M  V30 2670 H 261.323 2.84612 -1.28071 0
M  V30 2671 N 261.624 0.925811 1.2754 0
M  V30 2672 C 262.572 0.413897 2.28888 0
M  V30 2673 C 263.566 -0.500779 1.61829 0
M  V30 2674 O 264.772 -0.38069 1.75928 0
M  V30 2675 H 261.147 0.115274 0.743112 0
M  V30 2676 H 263.118 1.28151 2.69481 0
M  V30 2677 C 261.867 -0.319792 3.46226 0
M  V30 2678 H 261.19 0.374846 3.98039 0
M  V30 2679 H 262.63 -0.642435 4.19105 0
M  V30 2680 C 261.089 -1.53209 3.00048 0
M  V30 2681 O 261.619 -2.6309 3.03557 0
M  V30 2682 N 259.825 -1.38326 2.55566 0
M  V30 2683 H 259.372 -0.489292 2.5291 0
M  V30 2684 H 259.33 -2.19564 2.25031 0
M  V30 2685 N 263.102 -1.41638 0.69111 0
M  V30 2686 C 264.518 -1.55435 0.362224 0
M  V30 2687 C 264.718 -1.66754 -1.13117 0
M  V30 2688 O 263.774 -1.64348 -1.91692 0
M  V30 2689 C 265.087 -2.79588 1.10684 0
M  V30 2690 C 266.635 -2.9338 1.09075 0
M  V30 2691 C 267.11 -4.20414 1.81703 0
M  V30 2692 N 268.601 -4.27362 1.7865 0
M  V30 2693 C 269.336 -5.24507 2.31689 0
M  V30 2694 N 268.832 -6.27708 2.93179 0
M  V30 2695 N 270.625 -5.16416 2.2197 0
M  V30 2696 H 262.776 -1.32536 1.65976 0
M  V30 2697 H 265.039 -0.639115 0.700168 0
M  V30 2698 H 264.745 -2.77419 2.16175 0
M  V30 2699 H 264.619 -3.70973 0.682545 0
M  V30 2700 H 267.006 -2.95067 0.0441238 0
M  V30 2701 H 267.087 -2.0318 1.55407 0
M  V30 2702 H 266.731 -4.19488 2.86343 0
M  V30 2703 H 266.661 -5.09578 1.32808 0
M  V30 2704 H 269.152 -3.53415 1.33815 0
M  V30 2705 H 269.465 -6.98217 3.31229 0
M  V30 2706 H 267.81 -6.28223 2.97255 0
M  V30 2707 H 271.001 -4.34716 1.73607 0
M  V30 2708 H 271.174 -5.91958 2.63609 0
M  V30 2709 N 264.58 -0.43555 -1.51462 0
M  V30 2710 C 265.829 0.133007 -2.01261 0
M  V30 2711 C 266.142 1.43942 -1.32439 0
M  V30 2712 O 267.348 2.09081 -1.73198 0
M  V30 2713 C 265.804 0.287581 -3.58749 0
M  V30 2714 C 265.412 -1.00829 -4.36506 0
M  V30 2715 C 267.156 0.810004 -4.167 0
M  V30 2716 C 265.063 -0.819454 -5.85695 0
M  V30 2717 H 263.993 0.0534822 -0.752101 0
M  V30 2718 H 266.644 -0.565038 -1.74584 0
M  V30 2719 H 265.026 1.04859 -3.81865 0
M  V30 2720 H 266.2 -1.77749 -4.25138 0
M  V30 2721 H 264.515 -1.45911 -3.89999 0
M  V30 2722 H 267.112 0.967743 -5.2587 0
M  V30 2723 H 267.455 1.79196 -3.75758 0
M  V30 2724 H 267.988 0.107357 -3.97655 0
M  V30 2725 H 264.727 -1.77374 -6.31046 0
M  V30 2726 H 264.247 -0.0900208 -5.99732 0
M  V30 2727 H 265.926 -0.471949 -6.45276 0
M  V30 2728 N 266.058 1.56714 -0.166846 0
M  V30 2729 C 267.283 2.01557 0.488833 0
M  V30 2730 C 267.708 1.0463 1.56314 0
M  V30 2731 O 267.066 0.0251304 1.81283 0
M  V30 2732 C 267.114 3.4503 1.04818 0
M  V30 2733 O 266.218 3.51163 2.16236 0
M  V30 2734 H 265.559 0.653516 0.117526 0
M  V30 2735 H 268.089 2.02818 -0.269421 0
M  V30 2736 H 268.099 3.84243 1.37191 0
M  V30 2737 H 266.774 4.15077 0.261572 0
M  V30 2738 H 265.351 3.23807 1.84942 0
M  V30 2739 N 267.536 -0.106894 1.57237 0
M  V30 2740 C 268.784 -0.810921 1.85117 0
M  V30 2741 C 269.105 -1.7984 0.753827 0
M  V30 2742 O 268.375 -1.94649 -0.221056 0
M  V30 2743 H 266.955 -0.302466 0.683025 0
M  V30 2744 H 269.617 -0.0913324 1.94686 0
M  V30 2745 H 268.713 -1.34875 2.81452 0
M  V30 2746 N 269.014 -1.53014 -0.377408 0
M  V30 2747 C 269.977 -1.77957 -1.44444 0
M  V30 2748 C 270.977 -0.649763 -1.47087 0
M  V30 2749 O 272.167 -0.917897 -1.48055 0
M  V30 2750 C 269.299 -1.89089 -2.83651 0
M  V30 2751 H 270.492 -2.73243 -1.23606 0
M  V30 2752 H 268.045 -1.43912 -0.609844 0
M  V30 2753 H 268.78 -0.958293 -3.09818 0
M  V30 2754 H 268.565 -2.71254 -2.83132 0
M  V30 2755 H 270.055 -2.1002 -3.60945 0
M  V30 2756 N 270.492 0.636531 -1.44174 0
M  V30 2757 C 271.72 1.42353 -1.50144 0
M  V30 2758 C 272.135 1.88389 -0.124575 0
M  V30 2759 O 271.492 1.6051 0.868489 0
M  V30 2760 C 271.543 2.64744 -2.46156 0
M  V30 2761 O 271.264 2.20629 -3.7849 0
M  V30 2762 C 272.765 3.57929 -2.61537 0
M  V30 2763 H 269.985 0.436752 -0.5094 0
M  V30 2764 H 272.529 0.778933 -1.89084 0
M  V30 2765 H 270.684 3.25307 -2.10366 0
M  V30 2766 H 271.098 2.99938 -4.30276 0
M  V30 2767 H 272.572 4.40428 -3.32757 0
M  V30 2768 H 273.049 4.06382 -1.66585 0
M  V30 2769 H 273.655 3.03238 -2.98206 0
M  V30 2770 N 271.97 1.30982 0.876444 0
M  V30 2771 C 273.217 1.20296 1.62896 0
M  V30 2772 C 273.545 -0.240395 1.93009 0
M  V30 2773 O 272.8 -1.18733 1.55567 0
M  V30 2774 C 273.099 1.98572 2.9716 0
M  V30 2775 C 272.765 3.48125 2.86566 0
M  V30 2776 C 271.427 3.88905 2.83383 0
M  V30 2777 C 273.779 4.43322 2.74071 0
M  V30 2778 C 271.107 5.2316 2.65556 0
M  V30 2779 C 273.459 5.77695 2.57781 0
M  V30 2780 C 272.123 6.17704 2.52979 0
M  V30 2781 H 271.393 0.440193 0.59608 0
M  V30 2782 H 274.04 1.62177 1.01837 0
M  V30 2783 H 272.345 1.49352 3.62217 0
M  V30 2784 H 274.042 1.8769 3.54364 0
M  V30 2785 H 270.632 3.15723 2.89856 0
M  V30 2786 H 274.816 4.12752 2.75589 0
M  V30 2787 H 270.072 5.53241 2.60259 0
M  V30 2788 H 274.246 6.51091 2.47089 0
M  V30 2789 H 271.873 7.21678 2.38924 0
M  V30 2790 N 273.449 -1.08991 1.13837 0
M  V30 2791 C 274.674 -1.85551 0.926585 0
M  V30 2792 C 275.099 -1.80782 -0.519566 0
M  V30 2793 O 274.457 -1.18855 -1.36906 0
M  V30 2794 C 274.505 -3.31266 1.42462 0
M  V30 2795 O 273.609 -4.07822 0.612789 0
M  V30 2796 H 272.95 -0.575192 0.331738 0
M  V30 2797 H 275.48 -1.37604 1.51414 0
M  V30 2798 H 275.49 -3.82112 1.43019 0
M  V30 2799 H 274.165 -3.34052 2.47754 0
M  V30 2800 H 272.742 -3.66731 0.675463 0
M  V30 2801 N 274.927 -0.932562 -1.27047 0
M  V30 2802 C 276.173 -0.576412 -1.94436 0
M  V30 2803 C 276.506 0.880891 -1.73072 0
M  V30 2804 O 275.781 1.62905 -1.06264 0
M  V30 2805 C 276.064 -0.909031 -3.48437 0
M  V30 2806 C 275.917 -2.42044 -3.79123 0
M  V30 2807 C 277.236 -0.418341 -4.38107 0
M  V30 2808 H 274.355 -0.210888 -0.706184 0
M  V30 2809 H 276.997 -1.16522 -1.50075 0
M  V30 2810 H 275.147 -0.407947 -3.86352 0
M  V30 2811 H 276.819 -2.99359 -3.50973 0
M  V30 2812 H 275.062 -2.86758 -3.25503 0
M  V30 2813 H 275.733 -2.6037 -4.86736 0
M  V30 2814 H 278.209 -0.847856 -4.0737 0
M  V30 2815 H 277.085 -0.679981 -5.44672 0
M  V30 2816 H 277.346 0.681642 -4.36814 0
M  V30 2817 N 276.405 1.4127 -0.698611 0
M  V30 2818 C 277.653 2.00782 -0.230409 0
M  V30 2819 C 277.974 1.5562 1.17505 0
M  V30 2820 O 277.244 0.78815 1.79346 0
M  V30 2821 H 275.824 0.742464 -0.0821944 0
M  V30 2822 H 278.486 1.72852 -0.90045 0
M  V30 2823 H 277.582 3.11095 -0.25021 0
M  V30 2824 N 277.883 0.443576 1.51229 0
M  V30 2825 C 279.108 -0.121648 2.07043 0
M  V30 2826 C 279.533 -1.35156 1.30823 0
M  V30 2827 O 278.891 -1.7793 0.347934 0
M  V30 2828 C 278.939 -0.41624 3.5819 0
M  V30 2829 O 278.043 -1.50163 3.8409 0
M  V30 2830 H 277.384 0.000871367 0.663999 0
M  V30 2831 H 279.914 0.626706 1.94765 0
M  V30 2832 H 279.924 -0.664867 4.02546 0
M  V30 2833 H 278.599 0.482653 4.1309 0
M  V30 2834 H 277.176 -1.24248 3.51592 0
M  V30 2835 N 279.361 -1.56624 0.175154 0
M  V30 2836 C 280.609 -1.96609 -0.467885 0
M  V30 2837 C 280.93 -1.06238 -1.63519 0
M  V30 2838 O 280.2 -0.129523 -1.95471 0
M  V30 2839 H 278.78 -0.726008 -0.175845 0
M  V30 2840 H 281.442 -1.93195 0.257234 0
M  V30 2841 H 280.538 -3.00989 -0.825342 0
M  V30 2842 N 280.839 0.0985539 -1.57292 0
M  V30 2843 C 282.064 0.820196 -1.90493 0
M  V30 2844 C 282.489 1.71658 -0.769094 0
M  V30 2845 O 281.847 1.79133 0.279495 0
M  V30 2846 C 281.895 1.61242 -3.22542 0
M  V30 2847 O 280.999 2.72108 -3.09888 0
M  V30 2848 H 280.34 0.225547 -0.62452 0
M  V30 2849 H 282.87 0.0748159 -2.04463 0
M  V30 2850 H 282.88 1.99737 -3.55766 0
M  V30 2851 H 281.555 0.954535 -4.04798 0
M  V30 2852 H 280.132 2.36667 -2.88172 0
M  V30 2853 N 282.317 1.53212 0.369288 0
M  V30 2854 C 283.563 1.69466 1.11397 0
M  V30 2855 C 283.896 0.443257 1.89074 0
M  V30 2856 O 283.171 -0.559386 1.86282 0
M  V30 2857 C 283.454 2.9422 2.07621 0
M  V30 2858 C 283.307 4.29508 1.33577 0
M  V30 2859 C 284.626 3.14565 3.07794 0
M  V30 2860 H 281.745 0.616667 0.403597 0
M  V30 2861 H 284.387 1.85845 0.395179 0
M  V30 2862 H 282.537 2.80387 2.68916 0
M  V30 2863 H 284.209 4.55147 0.750955 0
M  V30 2864 H 282.452 4.29088 0.637618 0
M  V30 2865 H 283.123 5.12926 2.03989 0
M  V30 2866 H 285.599 3.2756 2.56601 0
M  V30 2867 H 284.475 4.03297 3.72348 0
M  V30 2868 H 284.736 2.29675 3.77759 0
M  V30 2869 N 283.795 -0.628877 1.44509 0
M  V30 2870 C 285.025 -1.41349 1.50678 0
M  V30 2871 C 285.433 -1.88745 0.131075 0
M  V30 2872 O 284.776 -1.61592 -0.87371 0
M  V30 2873 C 284.838 -2.66608 2.41165 0
M  V30 2874 C 284.502 -2.40993 3.88293 0
M  V30 2875 C 285.499 -2.0268 4.78766 0
M  V30 2876 C 283.184 -2.54563 4.33016 0
M  V30 2877 C 285.178 -1.78269 6.11963 0
M  V30 2878 C 282.865 -2.29766 5.6626 0
M  V30 2879 C 283.863 -1.91678 6.55552 0
M  V30 2880 O 283.551 -1.67158 7.86329 0
M  V30 2881 H 283.283 -0.439851 0.51333 0
M  V30 2882 H 285.837 -0.776084 1.90174 0
M  V30 2883 H 284.067 -3.32994 1.96601 0
M  V30 2884 H 285.756 -3.28615 2.38259 0
M  V30 2885 H 286.522 -1.91751 4.45485 0
M  V30 2886 H 282.401 -2.83179 3.63773 0
M  V30 2887 H 285.945 -1.48465 6.81619 0
M  V30 2888 H 281.842 -2.40306 5.99102 0
M  V30 2889 H 282.61 -1.81386 7.98149 0
M  V30 2890 N 285.273 -1.31445 -0.869486 0
M  V30 2891 C 286.236 -1.19094 -1.9583 0
M  V30 2892 C 287.236 -0.117906 -1.60367 0
M  V30 2893 O 288.426 -0.367208 -1.70286 0
M  V30 2894 C 285.558 -0.828165 -3.30688 0
M  V30 2895 H 286.751 -2.15842 -2.08212 0
M  V30 2896 H 284.304 -1.15063 -1.05784 0
M  V30 2897 H 285.039 0.138142 -3.24006 0
M  V30 2898 H 284.824 -1.6038 -3.578 0
M  V30 2899 H 286.314 -0.765658 -4.10521 0
M  V30 2900 N 286.751 1.08385 -1.14413 0
M  V30 2901 C 287.981 1.8425 -0.934644 0
M  V30 2902 C 288.389 1.81907 0.520234 0
M  V30 2903 O 287.732 1.22126 1.37226 0
M  V30 2904 C 287.794 3.32853 -1.35828 0
M  V30 2905 C 287.458 3.5893 -2.82875 0
M  V30 2906 C 288.455 3.53756 -3.80989 0
M  V30 2907 C 286.14 3.86934 -3.20293 0
M  V30 2908 C 288.134 3.76216 -5.14529 0
M  V30 2909 C 285.821 4.09047 -4.54008 0
M  V30 2910 C 286.819 4.03682 -5.50936 0
M  V30 2911 O 286.507 4.25214 -6.82238 0
M  V30 2912 H 286.239 0.588502 -0.332628 0
M  V30 2913 H 288.793 1.37792 -1.52324 0
M  V30 2914 H 287.023 3.8007 -0.713019 0
M  V30 2915 H 288.712 3.90154 -1.11957 0
M  V30 2916 H 289.478 3.32135 -3.53428 0
M  V30 2917 H 285.357 3.9023 -2.45442 0
M  V30 2918 H 288.901 3.71943 -5.90173 0
M  V30 2919 H 284.798 4.30151 -4.8129 0
M  V30 2920 H 285.566 4.42619 -6.88499 0
M  V30 2921 N 288.23 0.939286 1.26551 0
M  V30 2922 C 289.478 0.58469 1.93457 0
M  V30 2923 C 289.799 -0.878774 1.74076 0
M  V30 2924 O 289.069 -1.62421 1.09528 0
M  V30 2925 H 287.649 0.21325 0.715914 0
M  V30 2926 H 290.311 1.1942 1.54029 0
M  V30 2927 H 289.407 0.800849 3.0165 0
M  V30 2928 N 289.708 -1.40897 0.706093 0
M  V30 2929 C 290.954 -2.01352 0.241889 0
M  V30 2930 C 291.287 -1.55832 -1.15888 0
M  V30 2931 O 290.562 -0.774145 -1.7843 0
M  V30 2932 C 290.845 -3.58752 0.311311 0
M  V30 2933 C 290.698 -4.1437 1.74978 0
M  V30 2934 C 292.017 -4.38914 -0.322922 0
M  V30 2935 H 289.136 -0.731562 0.0893687 0
M  V30 2936 H 291.778 -1.67504 0.896802 0
M  V30 2937 H 289.928 -3.87718 -0.246302 0
M  V30 2938 H 291.6 -3.96239 2.36205 0
M  V30 2939 H 289.843 -3.69016 2.28057 0
M  V30 2940 H 290.514 -5.23532 1.74981 0
M  V30 2941 H 292.99 -4.15822 0.152089 0
M  V30 2942 H 291.866 -5.48358 -0.243855 0
M  V30 2943 H 292.127 -4.19176 -1.40513 0
M  V30 2944 N 291.186 -0.45159 -1.50991 0
M  V30 2945 C 292.119 0.398179 -2.24699 0
M  V30 2946 C 293.097 1.01276 -1.27208 0
M  V30 2947 O 294.281 1.05247 -1.56382 0
M  V30 2948 C 291.408 1.55618 -3.00833 0
M  V30 2949 C 290.454 1.0609 -4.13095 0
M  V30 2950 S 291.287 -0.00865136 -5.35499 0
M  V30 2951 C 292.443 1.15369 -6.15175 0
M  V30 2952 H 292.676 -0.227555 -2.96428 0
M  V30 2953 H 290.209 -0.236251 -1.52582 0
M  V30 2954 H 292.167 2.21997 -3.45293 0
M  V30 2955 H 290.828 2.15337 -2.28667 0
M  V30 2956 H 290.021 1.92726 -4.65696 0
M  V30 2957 H 289.623 0.47513 -3.7097 0
M  V30 2958 H 291.915 2.06925 -6.45126 0
M  V30 2959 H 292.858 0.667344 -7.04948 0
M  V30 2960 H 293.266 1.3987 -5.46897 0
M  V30 2961 N 292.664 1.56529 -0.183458 0
M  V30 2962 C 293.941 1.88959 0.50536 0
M  V30 2963 C 294.321 1.09523 1.80466 0
M  V30 2964 O 293.669 0.19278 2.27685 0
M  V30 2965 C 293.879 3.41162 0.73547 0
M  V30 2966 C 295.227 4.11155 1.06005 0
M  V30 2967 O 296.251 3.46548 0.823594 0
M  V30 2968 O 295.11 5.25318 1.50675 0
M  V30 2969 H 292.204 0.78441 0.261973 0
M  V30 2970 H 294.75 1.68231 -0.222802 0
M  V30 2971 H 293.522 3.90874 -0.182561 0
M  V30 2972 H 293.145 3.67543 1.51651 0
M  V30 2973 N 294.142 -0.090211 1.57342 0
M  V30 2974 C 295.558 -0.444547 1.53284 0
M  V30 2975 C 295.758 -1.80238 0.900914 0
M  V30 2976 O 294.814 -2.4759 0.495513 0
M  V30 2977 C 296.127 -0.402543 2.97993 0
M  V30 2978 C 297.675 -0.48405 3.09234 0
M  V30 2979 C 298.15 -0.472144 4.5556 0
M  V30 2980 N 299.641 -0.532757 4.60126 0
M  V30 2981 C 300.376 -0.545462 5.708 0
M  V30 2982 N 299.872 -0.514082 6.9089 0
M  V30 2983 N 301.665 -0.59064 5.58988 0
M  V30 2984 H 293.816 0.799121 1.96794 0
M  V30 2985 H 296.079 0.297965 0.899956 0
M  V30 2986 H 295.785 0.528106 3.47712 0
M  V30 2987 H 295.659 -1.21969 3.56936 0
M  V30 2988 H 298.046 -1.40512 2.595 0
M  V30 2989 H 298.127 0.361328 2.53235 0
M  V30 2990 H 297.771 0.445 5.05947 0
M  V30 2991 H 297.701 -1.3348 5.09402 0
M  V30 2992 H 300.192 -0.562006 3.73698 0
M  V30 2993 H 300.505 -0.527195 7.71 0
M  V30 2994 H 298.85 -0.481054 6.93333 0
M  V30 2995 H 302.041 -0.61272 4.64073 0
M  V30 2996 H 302.214 -0.597073 6.45243 0
M  V30 2997 N 295.62 -1.53406 -0.361157 0
M  V30 2998 C 296.868 -1.69467 -1.10115 0
M  V30 2999 C 297.189 -0.451352 -1.89705 0
M  V30 3000 O 296.459 0.534636 -1.88463 0
M  V30 3001 H 295.039 -0.624749 -0.409508 0
M  V30 3002 H 297.701 -1.90609 -0.406699 0
M  V30 3003 H 296.797 -2.55774 -1.78847 0
M  V30 3004 N 297.098 0.621204 -1.44841 0
M  V30 3005 C 298.328 1.40548 -1.51426 0
M  V30 3006 C 298.736 1.88673 -0.141083 0
M  V30 3007 O 298.079 1.62053 0.865128 0
M  V30 3008 C 298.141 2.65325 -2.42576 0
M  V30 3009 C 297.805 2.3893 -3.89566 0
M  V30 3010 C 298.802 2.00138 -4.79834 0
M  V30 3011 C 296.487 2.52263 -4.3436 0
M  V30 3012 C 298.481 1.75021 -6.129 0
M  V30 3013 C 296.168 2.2676 -5.67471 0
M  V30 3014 C 297.166 1.88199 -6.56559 0
M  V30 3015 O 296.854 1.62986 -7.87204 0
M  V30 3016 H 296.586 0.437122 -0.515655 0
M  V30 3017 H 299.14 0.765987 -1.90583 0
M  V30 3018 H 297.37 3.31947 -1.98364 0
M  V30 3019 H 299.059 3.27347 -2.39998 0
M  V30 3020 H 299.825 1.89386 -4.46495 0
M  V30 3021 H 295.704 2.81246 -3.65269 0
M  V30 3022 H 299.248 1.44848 -6.82396 0
M  V30 3023 H 295.145 2.37125 -6.00368 0
M  V30 3024 H 295.913 1.7715 -7.991 0
M  V30 3025 N 298.576 1.31904 0.862503 0
M  V30 3026 C 299.801 1.25135 1.65397 0
M  V30 3027 C 300.226 -0.179 1.87246 0
M  V30 3028 O 299.584 -1.1277 1.4196 0
M  V30 3029 C 299.632 2.00832 2.99498 0
M  V30 3030 O 298.736 1.35075 3.89652 0
M  V30 3031 H 298.077 0.431655 0.504549 0
M  V30 3032 H 300.607 1.74094 1.07483 0
M  V30 3033 H 300.617 2.10709 3.49379 0
M  V30 3034 H 299.292 3.04847 2.82916 0
M  V30 3035 H 297.869 1.33696 3.48109 0
M  V30 3036 N 300.054 -1.07777 1.14986 0
M  V30 3037 C 301.284 -1.83752 0.944402 0
M  V30 3038 C 301.692 -1.8218 -0.51058 0
M  V30 3039 O 301.035 -1.22852 -1.36576 0
M  V30 3040 C 301.097 -3.32128 1.37592 0
M  V30 3041 C 300.761 -3.57425 2.84775 0
M  V30 3042 C 301.758 -3.5173 3.8286 0
M  V30 3043 C 299.443 -3.8523 3.2234 0
M  V30 3044 C 301.437 -3.73482 5.16517 0
M  V30 3045 C 299.124 -4.06634 4.56171 0
M  V30 3046 C 300.122 -4.00754 5.53069 0
M  V30 3047 O 299.81 -4.2159 6.84483 0
M  V30 3048 H 299.542 -0.58673 0.335744 0
M  V30 3049 H 302.096 -1.36982 1.53052 0
M  V30 3050 H 300.326 -3.79686 0.733165 0
M  V30 3051 H 302.015 -3.89555 1.14024 0
M  V30 3052 H 302.781 -3.30256 3.55184 0
M  V30 3053 H 298.66 -3.88923 2.47508 0
M  V30 3054 H 302.204 -3.68808 5.92137 0
M  V30 3055 H 298.101 -4.27593 4.83564 0
M  V30 3056 H 298.869 -4.38961 6.90837 0
M  V30 3057 N 301.532 -0.945985 -1.26051 0
M  V30 3058 C 302.809 -0.513816 -1.88731 0
M  V30 3059 C 303.189 1.00872 -1.8544 0
M  V30 3060 O 302.537 1.8708 -1.312 0
M  V30 3061 C 302.747 -1.08062 -3.31849 0
M  V30 3062 C 304.095 -1.1522 -4.08668 0
M  V30 3063 O 305.119 -1.03155 -3.40936 0
M  V30 3064 O 303.978 -1.34044 -5.29806 0
M  V30 3065 H 301.072 -0.168193 -0.809716 0
M  V30 3066 H 303.618 -1.03886 -1.34186 0
M  V30 3067 H 302.39 -2.1241 -3.2863 0
M  V30 3068 H 302.013 -0.538307 -3.93939 0
M  V30 3069 N 303.011 1.40521 -0.713556 0
M  V30 3070 C 303.941 2.33381 -0.0743864 0
M  V30 3071 C 304.922 1.52784 0.747735 0
M  V30 3072 O 306.107 1.81258 0.697071 0
M  V30 3073 C 303.237 3.36748 0.849598 0
M  V30 3074 C 302.191 4.27793 0.133247 0
M  V30 3075 C 301.517 5.21679 1.17281 0
M  V30 3076 C 302.817 5.12415 -1.01134 0
M  V30 3077 H 304.511 2.87081 -0.850007 0
M  V30 3078 H 302.057 1.38034 -0.410201 0
M  V30 3079 H 304.01 4.00648 1.30612 0
M  V30 3080 H 302.734 2.81439 1.65709 0
M  V30 3081 H 301.393 3.65342 -0.303426 0
M  V30 3082 H 301.041 4.62677 1.9733 0
M  V30 3083 H 300.741 5.83435 0.698397 0
M  V30 3084 H 302.265 5.88456 1.62947 0
M  V30 3085 H 303.679 5.69781 -0.634274 0
M  V30 3086 H 302.076 5.83203 -1.41399 0
M  V30 3087 H 303.146 4.48514 -1.84292 0
M  V30 3088 N 304.489 0.459591 1.5075 0
M  V30 3089 C 305.399 -0.34613 2.32033 0
M  V30 3090 C 306.415 -1.00686 1.41909 0
M  V30 3091 O 307.591 -0.997361 1.7497 0
M  V30 3092 C 304.656 -1.42029 3.16273 0
M  V30 3093 C 303.717 -0.777362 4.22203 0
M  V30 3094 C 302.95 -1.80034 5.02418 0
M  V30 3095 O 303.173 -3.02544 4.83553 0
M  V30 3096 O 302.107 -1.37853 5.85901 0
M  V30 3097 H 305.933 0.318054 3.0203 0
M  V30 3098 H 303.518 0.221663 1.47746 0
M  V30 3099 H 305.4 -2.04275 3.68578 0
M  V30 3100 H 304.075 -2.06815 2.49016 0
M  V30 3101 H 302.982 -0.116256 3.73919 0
M  V30 3102 H 304.315 -0.172634 4.91897 0
M  V30 3103 N 305.967 -1.56429 0.191757 0
M  V30 3104 C 307.213 -1.97777 -0.448554 0
M  V30 3105 C 307.546 -1.07847 -1.61501 0
M  V30 3106 O 306.821 -0.129774 -1.94067 0
M  V30 3107 C 307.104 -3.48362 -0.911906 0
M  V30 3108 C 306.957 -4.4907 0.256136 0
M  V30 3109 C 308.276 -4.02561 -1.77857 0
M  V30 3110 H 305.395 -0.719071 -0.161572 0
M  V30 3111 H 308.037 -1.87896 0.282007 0
M  V30 3112 H 306.187 -3.56914 -1.53442 0
M  V30 3113 H 307.859 -4.5256 0.893733 0
M  V30 3114 H 306.102 -4.24181 0.908436 0
M  V30 3115 H 306.773 -5.51889 -0.11053 0
M  V30 3116 H 309.249 -3.96767 -1.25359 0
M  V30 3117 H 308.125 -5.08301 -2.07174 0
M  V30 3118 H 308.386 -3.47616 -2.73158 0
M  V30 3119 N 307.445 0.0818655 -1.57387 0
M  V30 3120 C 308.355 1.11642 -2.06333 0
M  V30 3121 C 309.371 1.43033 -0.99083 0
M  V30 3122 O 310.547 1.53411 -1.30488 0
M  V30 3123 C 307.612 2.41342 -2.48907 0
M  V30 3124 C 306.673 2.17014 -3.7041 0
M  V30 3125 C 305.906 3.4053 -4.10944 0
M  V30 3126 O 306.129 4.4927 -3.51444 0
M  V30 3127 O 305.063 3.29336 -5.03807 0
M  V30 3128 H 308.889 0.730657 -2.9478 0
M  V30 3129 H 306.474 0.295301 -1.46452 0
M  V30 3130 H 308.356 3.17691 -2.76858 0
M  V30 3131 H 307.031 2.79319 -1.63593 0
M  V30 3132 H 305.938 1.38403 -3.47556 0
M  V30 3133 H 307.271 1.83923 -4.56545 0
M  V30 3134 N 308.923 1.53595 0.353017 0
M  V30 3135 C 309.855 1.77219 1.45348 0
M  V30 3136 C 310.868 0.65324 1.49119 0
M  V30 3137 O 312.057 0.929775 1.52373 0
M  V30 3138 C 309.157 1.84841 2.84055 0
M  V30 3139 C 308.33 3.14649 3.03833 0
M  V30 3140 C 307.389 3.13351 4.22727 0
M  V30 3141 O 306.415 3.87107 4.17297 0
M  V30 3142 N 307.617 2.35052 5.30783 0
M  V30 3143 H 310.382 2.72178 1.25457 0
M  V30 3144 H 307.943 1.52528 0.542833 0
M  V30 3145 H 309.935 1.81435 3.61751 0
M  V30 3146 H 308.505 0.971114 2.97133 0
M  V30 3147 H 307.725 3.31256 2.13689 0
M  V30 3148 H 309.013 4.00411 3.13925 0
M  V30 3149 H 308.411 1.74663 5.38061 0
M  V30 3150 H 306.968 2.37453 6.07009 0
M  V30 3151 N 310.401 -0.613514 1.45168 0
M  V30 3152 C 311.364 -1.7065 1.53007 0
M  V30 3153 C 312.364 -1.5548 0.410184 0
M  V30 3154 O 313.554 -1.60656 0.673455 0
M  V30 3155 C 310.686 -3.09875 1.42093 0
M  V30 3156 H 311.879 -1.65068 2.50385 0
M  V30 3157 H 309.432 -0.828728 1.32521 0
M  V30 3158 H 310.167 -3.21039 0.458769 0
M  V30 3159 H 309.952 -3.22293 2.23315 0
M  V30 3160 H 311.442 -3.895 1.50598 0
M  V30 3161 N 311.879 -1.3236 -0.855495 0
M  V30 3162 C 313.109 -1.25688 -1.6397 0
M  V30 3163 C 313.517 0.177592 -1.88365 0
M  V30 3164 O 312.86 1.12485 -1.45234 0
M  V30 3165 C 312.922 -1.94602 -3.02275 0
M  V30 3166 C 312.586 -3.43937 -3.00926 0
M  V30 3167 C 313.583 -4.39435 -2.77835 0
M  V30 3168 C 311.268 -3.85858 -3.21588 0
M  V30 3169 C 313.262 -5.74829 -2.75409 0
M  V30 3170 C 310.949 -5.21361 -3.18789 0
M  V30 3171 C 311.947 -6.15658 -2.95727 0
M  V30 3172 O 311.635 -7.48681 -2.928 0
M  V30 3173 H 311.367 -0.434972 -0.51747 0
M  V30 3174 H 313.921 -1.75023 -1.075 0
M  V30 3175 H 312.151 -1.39836 -3.60531 0
M  V30 3176 H 313.84 -1.81651 -3.62985 0
M  V30 3177 H 314.606 -4.08374 -2.6164 0
M  V30 3178 H 310.485 -3.12883 -3.38564 0
M  V30 3179 H 314.029 -6.48404 -2.57328 0
M  V30 3180 H 309.926 -5.52052 -3.34528 0
M  V30 3181 H 310.694 -7.5803 -3.0876 0
M  V30 3182 N 313.357 1.07166 -1.15556 0
M  V30 3183 C 314.634 1.76546 -0.842069 0
M  V30 3184 C 315.014 2.00453 0.661939 0
M  V30 3185 O 314.362 1.62452 1.60691 0
M  V30 3186 C 314.572 3.07266 -1.65495 0
M  V30 3187 C 315.92 3.81578 -1.86234 0
M  V30 3188 O 316.944 3.17083 -1.62287 0
M  V30 3189 O 315.803 4.97419 -2.26355 0
M  V30 3190 H 312.897 0.766756 -0.309862 0
M  V30 3191 H 315.443 1.13514 -1.26145 0
M  V30 3192 H 314.215 2.85494 -2.67598 0
M  V30 3193 H 313.838 3.7803 -1.23203 0
M  V30 3194 N 314.835 0.952656 1.25548 0
M  V30 3195 C 315.765 0.489287 2.28316 0
M  V30 3196 C 316.746 -0.463359 1.63667 0
M  V30 3197 O 317.931 -0.36274 1.90782 0
M  V30 3198 C 315.061 -0.235603 3.465 0
M  V30 3199 C 314.015 0.631593 4.23314 0
M  V30 3200 C 313.341 -0.223923 5.34231 0
M  V30 3201 C 314.641 1.90871 4.86174 0
M  V30 3202 H 316.335 1.34822 2.67326 0
M  V30 3203 H 313.881 0.649728 1.28509 0
M  V30 3204 H 315.834 -0.570882 4.17515 0
M  V30 3205 H 314.558 -1.12877 3.06474 0
M  V30 3206 H 313.217 0.949929 3.54079 0
M  V30 3207 H 312.865 -1.11678 4.90446 0
M  V30 3208 H 312.565 0.35299 5.86539 0
M  V30 3209 H 314.089 -0.554214 6.0808 0
M  V30 3210 H 315.503 1.63997 5.49343 0
M  V30 3211 H 313.9 2.43112 5.4865 0
M  V30 3212 H 314.97 2.61304 4.08471 0
M  V30 3213 N 316.313 -1.40141 0.720998 0
M  V30 3214 C 317.276 -2.29058 0.0805834 0
M  V30 3215 C 318.276 -1.45632 -0.681758 0
M  V30 3216 O 319.466 -1.6648 -0.512856 0
M  V30 3217 C 316.598 -3.28925 -0.895593 0
M  V30 3218 H 317.791 -2.87191 0.863793 0
M  V30 3219 H 315.344 -1.48553 0.485975 0
M  V30 3220 H 316.079 -2.75822 -1.70566 0
M  V30 3221 H 315.864 -3.90519 -0.351766 0
M  V30 3222 H 317.354 -3.95494 -1.34069 0
M  V30 3223 N 317.792 -0.46758 -1.50504 0
M  V30 3224 C 319.208 -0.121533 -1.59137 0
M  V30 3225 C 319.408 1.3717 -1.47603 0
M  V30 3226 O 318.464 2.14464 -1.33272 0
M  V30 3227 C 319.777 -0.6686 -2.93173 0
M  V30 3228 C 321.325 -0.631716 -3.06559 0
M  V30 3229 C 321.8 -1.15627 -4.43164 0
M  V30 3230 N 323.291 -1.11553 -4.49567 0
M  V30 3231 C 324.026 -1.49195 -5.5365 0
M  V30 3232 N 323.522 -1.94269 -6.65005 0
M  V30 3233 N 325.315 -1.4082 -5.44175 0
M  V30 3234 H 317.466 -1.4388 -1.56245 0
M  V30 3235 H 319.729 -0.594784 -0.738198 0
M  V30 3236 H 319.435 -1.71453 -3.07078 0
M  V30 3237 H 319.309 -0.11021 -3.77039 0
M  V30 3238 H 321.696 0.405297 -2.92304 0
M  V30 3239 H 321.777 -1.22687 -2.24458 0
M  V30 3240 H 321.421 -2.1919 -4.58168 0
M  V30 3241 H 321.351 -0.537365 -5.23851 0
M  V30 3242 H 323.842 -0.784895 -3.69659 0
M  V30 3243 H 324.155 -2.21148 -7.40482 0
M  V30 3244 H 322.5 -1.98219 -6.66134 0
M  V30 3245 H 325.691 -1.0545 -4.56068 0
M  V30 3246 H 325.864 -1.70481 -6.25172 0
M  V30 3247 N 319.27 1.56325 -0.20005 0
M  V30 3248 C 320.686 1.58839 0.155716 0
M  V30 3249 C 320.886 1.21636 1.60645 0
M  V30 3250 O 319.942 0.941437 2.34293 0
M  V30 3251 C 321.255 3.0032 -0.151124 0
M  V30 3252 C 322.803 3.12866 -0.0916284 0
M  V30 3253 C 323.278 4.56488 -0.371845 0
M  V30 3254 N 324.769 4.62089 -0.320641 0
M  V30 3255 C 325.504 5.71116 -0.511243 0
M  V30 3256 N 325 6.88592 -0.762461 0
M  V30 3257 N 326.793 5.60335 -0.445157 0
M  V30 3258 H 318.944 1.78788 -1.14668 0
M  V30 3259 H 321.207 0.829996 -0.458051 0
M  V30 3260 H 320.913 3.32117 -1.15721 0
M  V30 3261 H 320.787 3.73257 0.543986 0
M  V30 3262 H 323.174 2.80878 0.905065 0
M  V30 3263 H 323.255 2.42304 -0.81989 0
M  V30 3264 H 322.899 4.89189 -1.36588 0
M  V30 3265 H 322.829 5.25246 0.377362 0
M  V30 3266 H 325.32 3.77665 -0.13329 0
M  V30 3267 H 325.633 7.67581 -0.896576 0
M  V30 3268 H 323.978 6.90387 -0.799412 0
M  V30 3269 H 327.169 4.67436 -0.249278 0
M  V30 3270 H 327.342 6.45243 -0.597116 0
M  V30 3271 N 320.748 -0.0735177 1.57428 0
M  V30 3272 C 321.711 -1.07192 2.02589 0
M  V30 3273 C 322.711 -1.31695 0.922661 0
M  V30 3274 O 323.901 -1.27445 1.18758 0
M  V30 3275 C 321.033 -2.41599 2.40506 0
M  V30 3276 H 322.226 -0.682727 2.92025 0
M  V30 3277 H 319.779 -0.319193 1.53006 0
M  V30 3278 H 320.514 -2.85354 1.5409 0
M  V30 3279 H 320.299 -2.25156 3.21009 0
M  V30 3280 H 321.789 -3.13367 2.76027 0
M  V30 3281 N 322.226 -1.5378 -0.344866 0
M  V30 3282 C 323.475 -1.7018 -1.08267 0
M  V30 3283 C 323.788 -0.471 -1.89845 0
M  V30 3284 O 324.994 -0.515917 -2.66553 0
M  V30 3285 C 323.45 -3.00923 -1.97417 0
M  V30 3286 C 323.058 -4.31335 -1.21053 0
M  V30 3287 C 324.802 -3.26688 -2.71063 0
M  V30 3288 C 322.709 -5.53153 -2.09225 0
M  V30 3289 H 321.639 -0.634138 -0.407903 0
M  V30 3290 H 324.29 -1.8028 -0.342246 0
M  V30 3291 H 322.672 -2.84676 -2.75274 0
M  V30 3292 H 323.846 -4.58281 -0.481159 0
M  V30 3293 H 322.161 -4.12173 -0.591813 0
M  V30 3294 H 324.758 -4.1489 -3.37299 0
M  V30 3295 H 325.101 -2.43639 -3.37558 0
M  V30 3296 H 325.634 -3.43705 -2.0028 0
M  V30 3297 H 322.373 -6.38741 -1.47274 0
M  V30 3298 H 321.893 -5.30458 -2.79955 0
M  V30 3299 H 323.572 -5.88744 -2.68308 0
M  V30 3300 N 323.704 0.605807 -1.45491 0
M  V30 3301 C 324.934 1.38934 -1.52908 0
M  V30 3302 C 325.342 1.88513 -0.161086 0
M  V30 3303 O 324.685 1.62962 0.847891 0
M  V30 3304 C 324.747 2.62737 -2.45376 0
M  V30 3305 C 324.411 2.34785 -3.92078 0
M  V30 3306 C 325.408 1.95038 -4.8193 0
M  V30 3307 C 323.093 2.47642 -4.37011 0
M  V30 3308 C 325.087 1.68511 -6.14722 0
M  V30 3309 C 322.774 2.20728 -5.69844 0
M  V30 3310 C 323.772 1.81225 -6.58519 0
M  V30 3311 O 323.46 1.54627 -7.88889 0
M  V30 3312 H 323.192 0.431629 -0.520262 0
M  V30 3313 H 325.746 0.74573 -1.91384 0
M  V30 3314 H 323.976 3.29824 -2.01874 0
M  V30 3315 H 325.665 3.24783 -2.43456 0
M  V30 3316 H 326.431 1.84639 -4.48479 0
M  V30 3317 H 322.31 2.77356 -3.68232 0
M  V30 3318 H 325.854 1.37602 -6.83894 0
M  V30 3319 H 321.751 2.30744 -6.02849 0
M  V30 3320 H 322.519 1.68665 -8.00933 0
M  V30 3321 N 325.182 1.32811 0.848464 0
M  V30 3322 C 326.114 1.18095 1.96433 0
M  V30 3323 C 327.127 0.114354 1.62398 0
M  V30 3324 O 328.316 0.363892 1.74751 0
M  V30 3325 C 325.416 0.786798 3.2964 0
M  V30 3326 C 324.589 1.943 3.91875 0
M  V30 3327 C 323.648 1.53138 5.03423 0
M  V30 3328 O 322.674 2.24432 5.23086 0
M  V30 3329 N 323.876 0.430915 5.78898 0
M  V30 3330 H 326.641 2.14218 2.09597 0
M  V30 3331 H 324.202 1.2543 1.02367 0
M  V30 3332 H 326.194 0.493715 4.01677 0
M  V30 3333 H 324.764 -0.0834541 3.12489 0
M  V30 3334 H 323.984 2.40224 3.12547 0
M  V30 3335 H 325.272 2.71689 4.30189 0
M  V30 3336 H 324.67 -0.162333 5.65467 0
M  V30 3337 H 323.227 0.197466 6.51501 0
M  V30 3338 N 326.66 -1.06551 1.16123 0
M  V30 3339 C 327.623 -2.12132 0.867906 0
M  V30 3340 C 328.623 -1.60224 -0.135944 0
M  V30 3341 O 329.813 -1.73943 0.0946422 0
M  V30 3342 C 326.945 -3.396 0.297419 0
M  V30 3343 H 328.138 -2.39586 1.80385 0
M  V30 3344 H 325.691 -1.22574 0.969812 0
M  V30 3345 H 326.426 -3.17794 -0.64633 0
M  V30 3346 H 326.211 -3.78581 1.02073 0
M  V30 3347 H 327.701 -4.17455 0.110052 0
M  V30 3348 N 328.138 -0.959301 -1.25041 0
M  V30 3349 C 329.366 -0.633949 -1.96948 0
M  V30 3350 C 329.781 0.794916 -1.7125 0
M  V30 3351 O 329.138 1.53231 -0.991287 0
M  V30 3352 C 329.189 -0.888805 -3.50403 0
M  V30 3353 O 328.91 -2.26149 -3.75218 0
M  V30 3354 C 330.411 -0.576482 -4.39536 0
M  V30 3355 H 327.631 -0.237263 -0.627652 0
M  V30 3356 H 330.175 -1.28495 -1.59089 0
M  V30 3357 H 328.33 -0.284145 -3.86357 0
M  V30 3358 H 328.744 -2.33514 -4.6965 0
M  V30 3359 H 330.218 -0.805314 -5.46094 0
M  V30 3360 H 330.695 0.489075 -4.36468 0
M  V30 3361 H 331.301 -1.16067 -4.09156 0
M  V30 3362 N 329.616 1.39756 -0.72842 0
M  V30 3363 C 330.846 2.04651 -0.283117 0
M  V30 3364 C 331.254 1.5502 1.08469 0
M  V30 3365 O 330.597 0.707343 1.69536 0
M  V30 3366 C 330.659 3.58947 -0.199309 0
M  V30 3367 C 330.323 4.31525 -1.5045 0
M  V30 3368 C 331.32 4.5861 -2.44894 0
M  V30 3369 C 329.005 4.70195 -1.76698 0
M  V30 3370 C 330.999 5.23366 -3.63822 0
M  V30 3371 C 328.686 5.3468 -2.95906 0
M  V30 3372 C 329.684 5.61198 -3.89289 0
M  V30 3373 O 329.372 6.24347 -5.06404 0
M  V30 3374 H 329.104 0.664777 -0.122666 0
M  V30 3375 H 331.658 1.79913 -0.990987 0
M  V30 3376 H 329.888 3.82556 0.56461 0
M  V30 3377 H 331.577 4.0534 0.213125 0
M  V30 3378 H 332.343 4.29187 -2.25883 0
M  V30 3379 H 328.222 4.48916 -1.04859 0
M  V30 3380 H 331.766 5.4398 -4.36728 0
M  V30 3381 H 327.663 5.63524 -3.14819 0
M  V30 3382 H 328.431 6.42842 -5.06652 0
M  V30 3383 N 331.094 0.475555 1.50254 0
M  V30 3384 C 332.51 0.12997 1.5907 0
M  V30 3385 C 332.71 -1.36385 1.48328 0
M  V30 3386 O 331.766 -2.13754 1.34407 0
M  V30 3387 C 333.079 0.684139 2.92814 0
M  V30 3388 C 334.627 0.647965 3.0622 0
M  V30 3389 C 335.102 1.17975 4.42545 0
M  V30 3390 N 336.593 1.13936 4.48969 0
M  V30 3391 C 337.328 1.52129 5.52851 0
M  V30 3392 N 336.824 1.97793 6.63965 0
M  V30 3393 N 338.617 1.43704 5.4342 0
M  V30 3394 H 330.768 1.44706 1.55479 0
M  V30 3395 H 333.031 0.598691 0.735033 0
M  V30 3396 H 332.737 1.73079 3.06164 0
M  V30 3397 H 332.611 0.130204 3.76975 0
M  V30 3398 H 334.998 -0.38979 2.92514 0
M  V30 3399 H 335.079 1.23876 2.23805 0
M  V30 3400 H 334.723 2.21616 4.57 0
M  V30 3401 H 334.653 0.565138 5.23559 0
M  V30 3402 H 337.144 0.804488 3.69238 0
M  V30 3403 H 337.457 2.25072 7.39299 0
M  V30 3404 H 335.802 2.01749 6.65073 0
M  V30 3405 H 338.993 1.07867 4.55502 0
M  V30 3406 H 339.166 1.73794 6.24259 0
M  V30 3407 N 332.573 -1.56217 0.208337 0
M  V30 3408 C 333.85 -1.89739 -0.475234 0
M  V30 3409 C 334.23 -1.1238 -1.78701 0
M  V30 3410 O 333.578 -0.228979 -2.2735 0
M  V30 3411 C 333.788 -3.42289 -0.681101 0
M  V30 3412 C 335.136 -4.12789 -0.994507 0
M  V30 3413 O 336.16 -3.47814 -0.768357 0
M  V30 3414 O 335.019 -5.27649 -1.42299 0
M  V30 3415 H 332.113 -0.788478 -0.249461 0
M  V30 3416 H 334.659 -1.67855 0.249538 0
M  V30 3417 H 333.431 -3.90534 0.244722 0
M  V30 3418 H 333.054 -3.69909 -1.45785 0
M  V30 3419 N 334.051 0.0651679 -1.57465 0
M  V30 3420 C 335.014 1.06117 -2.03155 0
M  V30 3421 C 336.014 1.31204 -0.929632 0
M  V30 3422 O 337.204 1.26813 -1.19432 0
M  V30 3423 C 334.336 2.4032 -2.41783 0
M  V30 3424 H 335.529 0.667231 -2.92383 0
M  V30 3425 H 333.082 0.311075 -1.53173 0
M  V30 3426 H 333.817 2.84532 -1.55601 0
M  V30 3427 H 333.602 2.23451 -3.22199 0
M  V30 3428 H 335.092 3.11898 -2.77685 0
M  V30 3429 N 335.529 1.53961 0.336706 0
M  V30 3430 C 336.759 1.75229 1.09446 0
M  V30 3431 C 337.167 0.494602 1.82621 0
M  V30 3432 O 336.51 -0.543764 1.75468 0
M  V30 3433 C 336.572 2.88288 2.1478 0
M  V30 3434 C 336.236 4.27656 1.6112 0
M  V30 3435 C 337.233 5.08981 1.0599 0
M  V30 3436 C 334.918 4.74161 1.6576 0
M  V30 3437 C 336.912 6.34916 0.562129 0
M  V30 3438 C 334.599 6.00067 1.15595 0
M  V30 3439 C 335.597 6.80278 0.609147 0
M  V30 3440 O 335.285 8.03818 0.114999 0
M  V30 3441 H 335.017 0.588881 0.331956 0
M  V30 3442 H 337.571 2.01614 0.392566 0
M  V30 3443 H 335.801 2.57443 2.88548 0
M  V30 3444 H 337.49 2.97461 2.76174 0
M  V30 3445 H 338.256 4.74213 1.01722 0
M  V30 3446 H 334.135 4.11781 2.07261 0
M  V30 3447 H 337.679 6.9747 0.134668 0
M  V30 3448 H 333.576 6.3433 1.19566 0
M  V30 3449 H 334.344 8.18172 0.231651 0
M  V30 3450 N 337.007 -0.598083 1.45811 0
M  V30 3451 C 338.232 -1.3881 1.54099 0
M  V30 3452 C 338.657 -1.8726 0.177578 0
M  V30 3453 O 338.015 -1.6069 -0.839541 0
M  V30 3454 C 338.063 -2.56217 2.53743 0
M  V30 3455 O 337.167 -3.5716 2.06182 0
M  V30 3456 H 336.508 -0.414024 0.519115 0
M  V30 3457 H 339.038 -0.726971 1.91249 0
M  V30 3458 H 339.048 -3.03337 2.72856 0
M  V30 3459 H 337.723 -2.20303 3.5276 0
M  V30 3460 H 336.3 -3.16624 1.96987 0
M  V30 3461 N 338.485 -1.33259 -0.841409 0
M  V30 3462 C 339.733 -1.24326 -1.59334 0
M  V30 3463 C 340.054 0.191564 -1.94057 0
M  V30 3464 O 339.324 1.11967 -1.60749 0
M  V30 3465 H 337.904 -0.457174 -0.590763 0
M  V30 3466 H 340.566 -1.66947 -1.00571 0
M  V30 3467 H 339.662 -1.8352 -2.52442 0
M  V30 3468 N 339.963 1.05934 -1.16686 0
M  V30 3469 C 341.211 1.78447 -0.948744 0
M  V30 3470 C 341.532 1.87813 0.524523 0
M  V30 3471 O 340.802 1.38945 1.38098 0
M  V30 3472 H 339.382 0.660971 -0.348033 0
M  V30 3473 H 342.044 1.27947 -1.47022 0
M  V30 3474 H 341.14 2.80394 -1.37061 0
M  V30 3475 N 341.441 0.965919 1.2453 0
M  V30 3476 C 342.404 0.499547 2.2369 0
M  V30 3477 C 343.404 -0.40294 1.5567 0
M  V30 3478 O 344.594 -0.19865 1.73064 0
M  V30 3479 C 341.726 -0.276792 3.39774 0
M  V30 3480 H 342.919 1.37613 2.66463 0
M  V30 3481 H 340.472 0.750324 1.37112 0
M  V30 3482 H 341.207 -1.17055 3.02438 0
M  V30 3483 H 340.992 0.370826 3.90343 0
M  V30 3484 H 342.482 -0.592175 4.1338 0
M  V30 3485 N 342.919 -1.39368 0.735821 0
M  V30 3486 C 344.165 -2.00794 0.284544 0
M  V30 3487 C 344.498 -1.58255 -1.12557 0
M  V30 3488 O 343.773 -0.811819 -1.76748 0
M  V30 3489 C 344.056 -3.58011 0.387337 0
M  V30 3490 C 343.909 -4.10566 1.83728 0
M  V30 3491 C 345.228 -4.395 -0.22975 0
M  V30 3492 H 342.347 -0.729501 0.104866 0
M  V30 3493 H 344.989 -1.65564 0.93213 0
M  V30 3494 H 343.139 -3.88154 -0.164006 0
M  V30 3495 H 344.811 -3.91139 2.44556 0
M  V30 3496 H 343.054 -3.64095 2.35833 0
M  V30 3497 H 343.725 -5.19702 1.86047 0
M  V30 3498 H 346.201 -4.15406 0.240257 0
M  V30 3499 H 345.077 -5.48752 -0.127485 0
M  V30 3500 H 345.338 -4.22062 -1.3159 0
M  V30 3501 N 344.397 -0.483516 -1.5 0
M  V30 3502 C 345.345 0.318061 -2.30415 0
M  V30 3503 C 346.339 0.978988 -1.38247 0
M  V30 3504 O 347.545 0.908673 -1.55381 0
M  V30 3505 H 343.92 0.121419 -0.742133 0
M  V30 3506 H 345.891 -0.380403 -2.95965 0
M  V30 3507 C 344.64 1.38013 -3.19136 0
M  V30 3508 H 343.963 0.880952 -3.89973 0
M  V30 3509 H 345.403 1.91332 -3.78375 0
M  V30 3510 C 343.862 2.38884 -2.37563 0
M  V30 3511 O 344.392 3.44412 -2.06744 0
M  V30 3512 N 342.598 2.10912 -1.99911 0
M  V30 3513 H 342.145 1.25118 -2.25174 0
M  V30 3514 H 342.103 2.78635 -1.45636 0
M  V30 3515 N 345.875 1.56104 -0.216619 0
M  V30 3516 C 346.805 2.23063 0.690296 0
M  V30 3517 C 347.786 1.20072 1.20485 0
M  V30 3518 O 348.971 1.48643 1.24976 0
M  V30 3519 C 346.101 2.90672 1.90072 0
M  V30 3520 C 345.055 4.00092 1.5202 0
M  V30 3521 C 344.381 4.54972 2.80899 0
M  V30 3522 C 345.681 5.17398 0.71391 0
M  V30 3523 H 347.375 2.99109 0.132038 0
M  V30 3524 H 344.921 1.43866 0.0620664 0
M  V30 3525 H 346.874 3.36204 2.54057 0
M  V30 3526 H 345.598 2.12066 2.48386 0
M  V30 3527 H 344.257 3.55283 0.903839 0
M  V30 3528 H 343.905 3.73102 3.37348 0
M  V30 3529 H 343.605 5.28817 2.56176 0
M  V30 3530 H 345.129 5.0322 3.45836 0
M  V30 3531 H 346.543 5.59342 1.25735 0
M  V30 3532 H 344.94 5.97444 0.563951 0
M  V30 3533 H 346.01 4.84088 -0.280527 0
M  V30 3534 N 347.353 -0.0568162 1.57498 0
M  V30 3535 C 348.583 -0.764515 1.91934 0
M  V30 3536 C 348.991 -1.70877 0.81227 0
M  V30 3537 O 348.334 -1.82351 -0.222213 0
M  V30 3538 C 348.396 -1.5994 3.21962 0
M  V30 3539 C 348.06 -0.822925 4.4953 0
M  V30 3540 C 349.057 -0.135464 5.19723 0
M  V30 3541 C 346.742 -0.785666 4.96117 0
M  V30 3542 C 348.736 0.578861 6.34766 0
M  V30 3543 C 346.423 -0.0675784 6.11063 0
M  V30 3544 C 347.421 0.613471 6.80239 0
M  V30 3545 O 347.109 1.31996 7.92989 0
M  V30 3546 H 346.841 -0.221647 0.63863 0
M  V30 3547 H 349.395 -0.0268218 2.05382 0
M  V30 3548 H 347.625 -2.38026 3.04763 0
M  V30 3549 H 349.314 -2.18715 3.41934 0
M  V30 3550 H 350.08 -0.155458 4.84751 0
M  V30 3551 H 345.959 -1.30524 4.42136 0
M  V30 3552 H 349.503 1.111 6.88696 0
M  V30 3553 H 345.4 -0.0455636 6.45484 0
M  V30 3554 H 346.168 1.23077 8.09194 0
M  V30 3555 N 348.832 -1.54138 -0.328536 0
M  V30 3556 C 349.782 -1.79557 -1.4051 0
M  V30 3557 C 350.766 -0.651373 -1.47126 0
M  V30 3558 O 351.958 -0.911226 -1.51742 0
M  V30 3559 C 349.087 -2.02196 -2.77438 0
M  V30 3560 C 348.173 -3.22724 -2.75155 0
M  V30 3561 N 348.564 -4.43881 -2.42494 0
M  V30 3562 C 346.862 -3.24196 -3.06289 0
M  V30 3563 C 347.563 -5.25797 -2.48822 0
M  V30 3564 N 346.539 -4.62862 -2.8506 0
M  V30 3565 H 350.341 -2.70814 -1.1418 0
M  V30 3566 H 347.855 -1.53265 -0.536991 0
M  V30 3567 H 349.852 -2.18546 -3.55026 0
M  V30 3568 H 348.512 -1.12191 -3.04702 0
M  V30 3569 H 349.523 -4.70969 -2.15428 0
M  V30 3570 H 346.2 -2.44208 -3.38627 0
M  V30 3571 H 347.59 -6.32535 -2.26603 0
M  V30 3572 N 350.31 0.590341 -1.46126 0
M  V30 3573 C 351.556 1.35082 -1.51264 0
M  V30 3574 C 351.889 1.93534 -0.160711 0
M  V30 3575 O 351.164 1.76045 0.826956 0
M  V30 3576 C 351.447 2.48588 -2.6053 0
M  V30 3577 C 351.3 1.95221 -4.05227 0
M  V30 3578 C 352.619 3.50662 -2.6594 0
M  V30 3579 H 349.738 0.489803 -0.550692 0
M  V30 3580 H 352.38 0.663887 -1.78024 0
M  V30 3581 H 350.53 3.07186 -2.37843 0
M  V30 3582 H 352.202 1.41139 -4.39178 0
M  V30 3583 H 350.445 1.26101 -4.15068 0
M  V30 3584 H 351.116 2.77121 -4.77397 0
M  V30 3585 H 353.592 3.01934 -2.86313 0
M  V30 3586 H 352.468 4.27551 -3.44226 0
M  V30 3587 H 352.729 4.07399 -1.71694 0
M  V30 3588 N 351.788 1.33704 0.83433 0
M  V30 3589 C 353.204 1.13137 1.12571 0
M  V30 3590 C 353.404 -0.0747261 2.01361 0
M  V30 3591 O 352.46 -0.753647 2.4099 0
M  V30 3592 C 353.773 2.42105 1.78342 0
M  V30 3593 C 355.321 2.48054 1.90888 0
M  V30 3594 C 355.796 3.76995 2.60075 0
M  V30 3595 N 357.287 3.78092 2.67584 0
M  V30 3596 C 358.022 4.74574 3.21818 0
M  V30 3597 N 357.518 5.81434 3.76705 0
M  V30 3598 N 359.311 4.62044 3.20112 0
M  V30 3599 H 351.462 2.11 0.243489 0
M  V30 3600 H 353.725 0.932532 0.17055 0
M  V30 3601 H 353.431 3.30391 1.20561 0
M  V30 3602 H 353.305 2.54594 2.7832 0
M  V30 3603 H 355.692 1.60215 2.47821 0
M  V30 3604 H 355.773 2.39502 0.898459 0
M  V30 3605 H 355.417 4.65219 2.03799 0
M  V30 3606 H 355.347 3.82825 3.61597 0
M  V30 3607 H 357.838 3.00865 2.28667 0
M  V30 3608 H 358.151 6.51084 4.16305 0
M  V30 3609 H 356.496 5.85163 3.7498 0
M  V30 3610 H 359.687 3.77716 2.76493 0
M  V30 3611 H 359.86 5.37406 3.62076 0
M  V30 3612 N 353.266 -1.05314 1.17247 0
M  V30 3613 C 354.176 -2.16538 0.90268 0
M  V30 3614 C 355.192 -1.73523 -0.128707 0
M  V30 3615 O 356.368 -2.01337 0.0502701 0
M  V30 3616 C 353.433 -3.44167 0.418356 0
M  V30 3617 C 352.494 -4.01635 1.51618 0
M  V30 3618 C 351.727 -5.23171 1.05487 0
M  V30 3619 O 351.95 -5.70327 -0.0914715 0
M  V30 3620 O 350.884 -5.72848 1.8474 0
M  V30 3621 H 354.71 -2.42145 1.83302 0
M  V30 3622 H 352.295 -1.15037 0.953246 0
M  V30 3623 H 354.177 -4.21112 0.155726 0
M  V30 3624 H 352.852 -3.20063 -0.48385 0
M  V30 3625 H 351.759 -3.26135 1.83268 0
M  V30 3626 H 353.092 -4.30053 2.39405 0
M  V30 3627 N 354.744 -0.972509 -1.24016 0
M  V30 3628 C 356.021 -0.553733 -1.87598 0
M  V30 3629 C 356.401 0.969158 -1.87538 0
M  V30 3630 O 355.749 1.84255 -1.35139 0
M  V30 3631 C 355.959 -1.15076 -3.29482 0
M  V30 3632 C 357.307 -1.23862 -4.06132 0
M  V30 3633 O 358.331 -1.10363 -3.38672 0
M  V30 3634 O 357.19 -1.45252 -5.26844 0
M  V30 3635 H 354.284 -0.185331 -0.805966 0
M  V30 3636 H 356.83 -1.06709 -1.31952 0
M  V30 3637 H 355.602 -2.19333 -3.2405 0
M  V30 3638 H 355.225 -0.621746 -3.92709 0
M  V30 3639 N 356.222 1.38976 -0.743202 0
M  V30 3640 C 357.47 1.99948 -0.29417 0
M  V30 3641 C 357.791 1.59279 1.12495 0
M  V30 3642 O 357.061 0.844808 1.76748 0
M  V30 3643 H 355.641 0.739473 -0.105774 0
M  V30 3644 H 358.303 1.699 -0.954986 0
M  V30 3645 H 357.399 3.10142 -0.349056 0
M  V30 3646 N 357.7 0.491464 1.49741 0
M  V30 3647 C 358.946 -0.0485431 2.03342 0
M  V30 3648 C 359.301 -1.35566 1.36527 0
M  V30 3649 O 358.594 -1.85262 0.488729 0
M  V30 3650 C 358.788 -0.267329 3.56399 0
M  V30 3651 C 358.617 1.01703 4.38049 0
M  V30 3652 C 357.387 1.56614 4.80417 0
M  V30 3653 C 359.585 1.91782 4.77204 0
M  V30 3654 N 357.567 2.7974 5.4646 0
M  V30 3655 C 358.938 2.99489 5.42868 0
M  V30 3656 C 360.993 1.92575 4.5915 0
M  V30 3657 C 359.696 4.08005 5.92389 0
M  V30 3658 C 361.722 3.0006 5.09626 0
M  V30 3659 C 361.084 4.06485 5.75282 0
M  V30 3660 H 357.183 0.0227779 0.781668 0
M  V30 3661 H 359.767 0.664204 1.8302 0
M  V30 3662 H 357.938 -0.949126 3.76625 0
M  V30 3663 H 359.67 -0.803492 3.96644 0
M  V30 3664 H 356.425 1.11256 4.60347 0
M  V30 3665 H 356.849 3.42323 5.84075 0
M  V30 3666 H 361.491 1.11605 4.07804 0
M  V30 3667 H 359.209 4.89779 6.42761 0
M  V30 3668 H 362.795 3.01681 4.97473 0
M  V30 3669 H 361.675 4.88287 6.13633 0
M  V30 3670 N 359.178 -1.55987 0.224894 0
M  V30 3671 C 360.427 -1.97566 -0.406273 0
M  V30 3672 C 360.74 -1.11569 -1.6066 0
M  V30 3673 O 361.946 -1.43062 -2.3075 0
M  V30 3674 C 360.402 -3.51474 -0.774207 0
M  V30 3675 C 360.01 -4.46179 0.403496 0
M  V30 3676 C 361.754 -4.01758 -1.37079 0
M  V30 3677 C 359.661 -5.91399 0.0129412 0
M  V30 3678 H 358.591 -0.737777 -0.155565 0
M  V30 3679 H 361.242 -1.80659 0.321635 0
M  V30 3680 H 359.624 -3.63994 -1.55963 0
M  V30 3681 H 360.798 -4.45409 1.18101 0
M  V30 3682 H 359.113 -4.06255 0.913536 0
M  V30 3683 H 361.71 -5.07756 -1.67596 0
M  V30 3684 H 362.053 -3.47805 -2.28773 0
M  V30 3685 H 362.586 -3.92475 -0.648733 0
M  V30 3686 H 359.325 -6.49341 0.896451 0
M  V30 3687 H 358.845 -5.95356 -0.728821 0
M  V30 3688 H 360.524 -6.45683 -0.412582 0
M  V30 3689 N 360.656 0.0484629 -1.57525 0
M  V30 3690 C 362.072 0.40375 -1.54409 0
M  V30 3691 C 362.272 1.77786 -0.948384 0
M  V30 3692 O 361.328 2.46189 -0.560983 0
M  V30 3693 C 362.641 0.323394 -2.98956 0
M  V30 3694 C 364.189 0.401892 -3.10409 0
M  V30 3695 C 364.664 0.351195 -4.56652 0
M  V30 3696 N 366.155 0.410576 -4.61377 0
M  V30 3697 C 366.89 0.393933 -5.72045 0
M  V30 3698 N 366.386 0.330724 -6.9201 0
M  V30 3699 N 368.179 0.442227 -5.60358 0
M  V30 3700 H 360.33 -0.851016 -1.94606 0
M  V30 3701 H 362.593 -0.321721 -0.89174 0
M  V30 3702 H 362.299 -0.62011 -3.4619 0
M  V30 3703 H 362.173 1.12463 -3.60044 0
M  V30 3704 H 364.56 1.33582 -2.63134 0
M  V30 3705 H 364.641 -0.428342 -2.52188 0
M  V30 3706 H 364.285 -0.578987 -5.04589 0
M  V30 3707 H 364.215 1.19928 -5.12762 0
M  V30 3708 H 366.706 0.462729 -3.75056 0
M  V30 3709 H 367.019 0.322592 -7.72126 0
M  V30 3710 H 365.364 0.29706 -6.94365 0
M  V30 3711 H 368.555 0.489464 -4.65534 0
M  V30 3712 H 368.728 0.425788 -6.466 0
M  V30 3713 N 362.134 1.5431 0.320358 0
M  V30 3714 C 363.38 1.72924 1.05949 0
M  V30 3715 C 363.713 0.503185 1.87568 0
M  V30 3716 O 362.988 -0.499839 1.87968 0
M  V30 3717 C 363.271 3.00676 1.98156 0
M  V30 3718 C 363.124 4.3354 1.19845 0
M  V30 3719 C 364.443 3.24198 2.9763 0
M  V30 3720 H 361.562 0.629195 0.383774 0
M  V30 3721 H 364.204 1.87008 0.335854 0
M  V30 3722 H 362.354 2.888 2.59859 0
M  V30 3723 H 364.026 4.57305 0.605773 0
M  V30 3724 H 362.269 4.309 0.500784 0
M  V30 3725 H 362.94 5.19156 1.87567 0
M  V30 3726 H 365.416 3.35557 2.4605 0
M  V30 3727 H 364.292 4.14938 3.59329 0
M  V30 3728 H 364.553 2.41577 3.7026 0
M  V30 3729 N 363.613 -0.582584 1.46437 0
M  V30 3730 C 364.838 -1.37168 1.55563 0
M  V30 3731 C 365.263 -1.87061 0.19743 0
M  V30 3732 O 364.621 -1.61572 -0.822451 0
M  V30 3733 C 364.669 -2.53511 2.56446 0
M  V30 3734 O 363.773 -3.54953 2.09958 0
M  V30 3735 H 363.114 -0.408494 0.523477 0
M  V30 3736 H 365.644 -0.706646 1.9201 0
M  V30 3737 H 365.654 -3.00426 2.76058 0
M  V30 3738 H 364.329 -2.16549 3.55076 0
M  V30 3739 H 362.906 -3.14516 2.00334 0
M  V30 3740 N 365.091 -1.34144 -0.827227 0
M  V30 3741 C 366.316 -1.29476 -1.62021 0
M  V30 3742 C 366.741 0.129292 -1.87655 0
M  V30 3743 O 366.099 1.08967 -1.449 0
M  V30 3744 C 366.147 -2.08702 -2.94068 0
M  V30 3745 O 365.251 -1.45359 -3.85933 0
M  V30 3746 H 364.592 -0.444881 -0.492927 0
M  V30 3747 H 367.122 -1.76882 -1.02829 0
M  V30 3748 H 367.132 -2.19898 -3.43669 0
M  V30 3749 H 365.807 -3.12241 -2.74734 0
M  V30 3750 H 364.384 -1.42879 -3.44442 0
M  V30 3751 N 366.569 1.04691 -1.17803 0
M  V30 3752 C 367.846 1.7472 -0.879328 0
M  V30 3753 C 368.226 2.01812 0.619271 0
M  V30 3754 O 367.574 1.65824 1.57209 0
M  V30 3755 C 367.784 3.03686 -1.71976 0
M  V30 3756 C 369.132 3.77542 -1.94286 0
M  V30 3757 O 370.156 3.13569 -1.68976 0
M  V30 3758 O 369.015 4.92506 -2.36855 0
M  V30 3759 H 366.109 0.760011 -0.326056 0
M  V30 3760 H 368.655 1.10813 -1.28525 0
M  V30 3761 H 367.427 2.79754 -2.73594 0
M  V30 3762 H 367.05 3.75332 -1.31194 0
M  V30 3763 N 368.047 0.979072 1.23499 0
M  V30 3764 C 368.995 0.510604 2.26926 0
M  V30 3765 C 369.989 -0.431691 1.63807 0
M  V30 3766 O 371.195 -0.30573 1.77385 0
M  V30 3767 H 367.57 0.146688 0.737554 0
M  V30 3768 H 369.541 1.39466 2.63803 0
M  V30 3769 C 368.29 -0.172658 3.47271 0
M  V30 3770 H 367.613 0.543331 3.96091 0
M  V30 3771 H 369.053 -0.464101 4.21452 0
M  V30 3772 C 367.512 -1.40345 3.06276 0
M  V30 3773 O 368.042 -2.49978 3.14442 0
M  V30 3774 N 366.248 -1.27362 2.61203 0
M  V30 3775 H 365.795 -0.381584 2.54758 0
M  V30 3776 H 365.753 -2.09822 2.34141 0
M  V30 3777 N 369.525 -1.3858 0.750561 0
M  V30 3778 C 370.771 -2.00481 0.305825 0
M  V30 3779 C 371.104 -1.5944 -1.10872 0
M  V30 3780 O 370.379 -0.83052 -1.75877 0
M  V30 3781 C 370.662 -3.5758 0.425287 0
M  V30 3782 C 370.515 -4.08594 1.88072 0
M  V30 3783 C 371.834 -4.39719 -0.183122 0
M  V30 3784 H 368.953 -0.728348 0.112598 0
M  V30 3785 H 371.595 -1.64566 0.949638 0
M  V30 3786 H 369.745 -3.88306 -0.122828 0
M  V30 3787 H 371.417 -3.88523 2.48691 0
M  V30 3788 H 369.66 -3.61574 2.39681 0
M  V30 3789 H 370.331 -5.177 1.91548 0
M  V30 3790 H 372.807 -4.15128 0.284303 0
M  V30 3791 H 371.683 -5.48856 -0.0692757 0
M  V30 3792 H 371.944 -4.23434 -1.27106 0
M  V30 3793 N 371.003 -0.499398 -1.49478 0
M  V30 3794 C 371.966 0.268838 -2.27618 0
M  V30 3795 C 372.966 0.895383 -1.33565 0
M  V30 3796 O 374.156 0.760164 -1.56739 0
M  V30 3797 C 371.288 1.38559 -3.11471 0
M  V30 3798 H 372.481 -0.416812 -2.96989 0
M  V30 3799 H 370.034 -0.254313 -1.54217 0
M  V30 3800 H 370.769 2.10544 -2.46661 0
M  V30 3801 H 370.554 0.941797 -3.80621 0
M  V30 3802 H 372.044 1.92678 -3.70493 0
M  V30 3803 N 372.481 1.55866 -0.233164 0
M  V30 3804 C 373.758 1.90471 0.444988 0
M  V30 3805 C 374.138 1.15209 1.7689 0
M  V30 3806 O 373.486 0.265119 2.26957 0
M  V30 3807 C 373.696 3.4333 0.626559 0
M  V30 3808 C 375.044 4.14319 0.92871 0
M  V30 3809 O 376.068 3.48993 0.712926 0
M  V30 3810 O 374.927 5.29846 1.33887 0
M  V30 3811 H 372.021 0.792347 0.236885 0
M  V30 3812 H 374.567 1.67437 -0.276211 0
M  V30 3813 H 373.339 3.90095 -0.306822 0
M  V30 3814 H 372.962 3.72181 1.39881 0
M  V30 3815 N 373.959 -0.0401083 1.57549 0
M  V30 3816 C 374.889 -1.04384 2.08869 0
M  V30 3817 C 375.87 -1.38407 0.988817 0
M  V30 3818 O 377.055 -1.47483 1.26342 0
M  V30 3819 C 374.185 -2.34808 2.55895 0
M  V30 3820 C 373.139 -2.15057 3.70047 0
M  V30 3821 C 372.465 -3.51145 4.03239 0
M  V30 3822 C 373.765 -1.54576 4.98902 0
M  V30 3823 H 375.459 -0.616666 2.92981 0
M  V30 3824 H 373.005 -0.295184 1.40942 0
M  V30 3825 H 374.958 -3.05346 2.90417 0
M  V30 3826 H 373.682 -2.79565 1.68853 0
M  V30 3827 H 372.341 -1.46954 3.35857 0
M  V30 3828 H 371.989 -3.93529 3.13279 0
M  V30 3829 H 371.689 -3.38758 4.80122 0
M  V30 3830 H 373.213 -4.23062 4.40285 0
M  V30 3831 H 374.627 -2.15017 5.31451 0
M  V30 3832 H 373.024 -1.52796 5.80322 0
M  V30 3833 H 374.094 -0.51039 4.82206 0
M  V30 3834 N 375.437 -1.54477 -0.31217 0
M  V30 3835 C 376.387 -1.81037 -1.38598 0
M  V30 3836 C 377.371 -0.666941 -1.46426 0
M  V30 3837 O 378.563 -0.927269 -1.50767 0
M  V30 3838 C 375.692 -2.05127 -2.75277 0
M  V30 3839 C 374.778 -3.25624 -2.71716 0
M  V30 3840 N 375.169 -4.46428 -2.37773 0
M  V30 3841 C 373.467 -3.27427 -3.02833 0
M  V30 3842 C 374.168 -5.28406 -2.43232 0
M  V30 3843 N 373.144 -4.6586 -2.80135 0
M  V30 3844 H 376.946 -2.7201 -1.11301 0
M  V30 3845 H 374.46 -1.53826 -0.520705 0
M  V30 3846 H 376.457 -2.22299 -3.52688 0
M  V30 3847 H 375.117 -1.15416 -3.03495 0
M  V30 3848 H 376.128 -4.73227 -2.1042 0
M  V30 3849 H 372.805 -2.47786 -3.36018 0
M  V30 3850 H 374.195 -6.34903 -2.19882 0
M  V30 3851 N 376.915 0.57481 -1.46744 0
M  V30 3852 C 377.825 1.711 -1.60505 0
M  V30 3853 C 378.841 1.67008 -0.488307 0
M  V30 3854 O 380.017 1.86774 -0.753495 0
M  V30 3855 C 377.082 3.07608 -1.59932 0
M  V30 3856 C 376.143 3.22904 -2.82898 0
M  V30 3857 C 375.376 4.529 -2.82343 0
M  V30 3858 O 375.599 5.37278 -1.91542 0
M  V30 3859 O 374.533 4.71611 -3.73987 0
M  V30 3860 H 378.359 1.62436 -2.56609 0
M  V30 3861 H 375.944 0.742779 -1.29627 0
M  V30 3862 H 377.826 3.88877 -1.62336 0
M  V30 3863 H 376.501 3.16692 -0.669898 0
M  V30 3864 H 375.408 2.41099 -2.86046 0
M  V30 3865 H 376.741 3.18715 -3.75076 0
M  V30 3866 N 378.394 1.34581 0.820102 0
M  V30 3867 C 379.341 1.2639 1.93117 0
M  V30 3868 C 380.311 0.138554 1.65521 0
M  V30 3869 O 381.496 0.320004 1.88097 0
M  V30 3870 C 378.636 1.02812 3.29429 0
M  V30 3871 C 377.749 2.24146 3.693 0
M  V30 3872 C 376.884 1.93829 4.94574 0
M  V30 3873 C 375.923 3.1129 5.27034 0
M  V30 3874 N 375.06 2.80838 6.43486 0
M  V30 3875 H 379.9 2.21408 1.99455 0
M  V30 3876 H 377.437 1.10077 0.975784 0
M  V30 3877 H 379.395 0.871788 4.0799 0
M  V30 3878 H 378.025 0.114612 3.22596 0
M  V30 3879 H 377.077 2.50691 2.86109 0
M  V30 3880 H 378.389 3.11899 3.89257 0
M  V30 3881 H 377.543 1.74948 5.80929 0
M  V30 3882 H 376.282 1.03341 4.76626 0
M  V30 3883 H 375.287 3.30764 4.39175 0
M  V30 3884 H 376.512 4.02561 5.4692 0
M  V30 3885 H 374.458 1.92929 6.26988 0
M  V30 3886 H 374.375 3.62123 6.63629 0
M  V30 3887 H 375.643 2.65467 7.32903 0
M  V30 3888 N 379.872 -1.04064 1.18357 0
M  V30 3889 C 381.102 -1.80654 1.00238 0
M  V30 3890 C 381.51 -1.83713 -0.452362 0
M  V30 3891 O 380.853 -1.27135 -1.32599 0
M  V30 3892 C 380.915 -3.27582 1.48088 0
M  V30 3893 C 380.579 -3.48184 2.96002 0
M  V30 3894 C 381.576 -3.39372 3.93856 0
M  V30 3895 C 379.261 -3.7478 3.34433 0
M  V30 3896 C 381.255 -3.5686 5.28138 0
M  V30 3897 C 378.942 -3.91915 4.68877 0
M  V30 3898 C 379.94 -3.82956 5.65539 0
M  V30 3899 O 379.628 -3.996 6.97549 0
M  V30 3900 H 379.36 -0.575751 0.354241 0
M  V30 3901 H 381.914 -1.32044 1.57333 0
M  V30 3902 H 380.144 -3.77161 0.853588 0
M  V30 3903 H 381.833 -3.8573 1.2636 0
M  V30 3904 H 382.599 -3.18789 3.65511 0
M  V30 3905 H 378.478 -3.80852 2.59756 0
M  V30 3906 H 382.022 -3.49783 6.03571 0
M  V30 3907 H 377.919 -4.11992 4.96923 0
M  V30 3908 H 378.687 -4.1676 7.04452 0
M  V30 3909 N 381.35 -0.985608 -1.22978 0
M  V30 3910 C 382.575 -0.675254 -1.961 0
M  V30 3911 C 383 0.752154 -1.72407 0
M  V30 3912 O 382.358 1.5131 -0.998751 0
M  V30 3913 C 382.406 -0.977899 -3.47087 0
M  V30 3914 O 381.51 -0.072685 -4.12336 0
M  V30 3915 H 380.851 -0.253443 -0.613728 0
M  V30 3916 H 383.381 -1.32061 -1.56272 0
M  V30 3917 H 383.391 -0.916739 -3.97567 0
M  V30 3918 H 382.066 -2.01807 -3.63657 0
M  V30 3919 H 380.643 -0.188703 -3.72422 0
M  V30 3920 N 382.828 1.3818 -0.7579 0
M  V30 3921 C 384.076 1.99624 -0.315361 0
M  V30 3922 C 384.397 1.60464 1.10799 0
M  V30 3923 O 383.667 0.863507 1.75842 0
M  V30 3924 H 382.247 0.73831 -0.113611 0
M  V30 3925 H 384.909 1.68878 -0.972952 0
M  V30 3926 H 384.005 3.09754 -0.381931 0
M  V30 3927 N 384.306 0.507319 1.49211 0
M  V30 3928 C 385.531 -0.033725 2.07373 0
M  V30 3929 C 385.956 -1.29485 1.36437 0
M  V30 3930 O 385.314 -1.76294 0.423087 0
M  V30 3931 C 385.362 -0.263945 3.59633 0
M  V30 3932 O 384.466 -1.33737 3.90113 0
M  V30 3933 H 383.807 0.0290331 0.663365 0
M  V30 3934 H 386.337 0.708749 1.91932 0
M  V30 3935 H 386.347 -0.493536 4.05004 0
M  V30 3936 H 385.022 0.657424 4.10671 0
M  V30 3937 H 383.599 -1.09224 3.56545 0
M  V30 3938 N 385.784 -1.5574 0.241426 0
M  V30 3939 C 387.012 -2.03208 -0.389134 0
M  V30 3940 C 387.427 -1.12082 -1.51931 0
M  V30 3941 O 386.784 -0.134183 -1.82006 0
M  V30 3942 C 386.835 -3.50064 -0.902087 0
M  V30 3943 O 386.556 -4.37717 0.18305 0
M  V30 3944 C 388.057 -4.13268 -1.60389 0
M  V30 3945 H 385.277 -0.664509 -0.0931053 0
M  V30 3946 H 387.821 -2.0124 0.36369 0
M  V30 3947 H 385.976 -3.52583 -1.60511 0
M  V30 3948 H 386.39 -5.24097 -0.205579 0
M  V30 3949 H 387.864 -5.17733 -1.91458 0
M  V30 3950 H 388.341 -3.59434 -2.52397 0
M  V30 3951 H 388.947 -4.14655 -0.945576 0
M  V30 3952 N 387.262 0.0317525 -1.57568 0
M  V30 3953 C 388.673 0.578692 -1.77505 0
M  V30 3954 C 389.024 1.75749 -0.872164 0
M  V30 3955 O 388.149 2.16298 -0.0663106 0
M  V30 3956 C 388.744 1.05658 -3.21904 0
M  V30 3957 C 387.303 1.54906 -3.43047 0
M  V30 3958 C 386.45 0.485939 -2.73009 0
M  V30 3959 H 389.401 -0.194475 -1.57504 0
M  V30 3960 H 389.422 1.92404 -3.28269 0
M  V30 3961 H 388.934 0.198422 -3.87592 0
M  V30 3962 H 387.035 2.42915 -2.82529 0
M  V30 3963 H 387.148 1.59841 -4.5165 0
M  V30 3964 H 385.512 0.940354 -2.36705 0
M  V30 3965 H 386.295 -0.362709 -3.41379 0
M  V30 3966 O 388.779 1.60553 0.174647 0
M  V30 3967 H 389.47 1.75876 0.811619 0
M  V30 END ATOM
M  V30 BEGIN BOND
M  V30 END BOND
M  V30 END CTAB
M  END
$$$$
