drugbank_target|P28066 Proteasome subunit alpha type-5 (DB08515)
 OpenBabel12092120433D

  0  0  0     0  0            999 V3000
M  V30 BEGIN CTAB
M  V30 COUNTS 3686 3715 0 0 0
M  V30 BEGIN ATOM
M  V30 1 H -0.908 1.98254 -0.117106 0
M  V30 2 N 0 1.576 0 0
M  V30 3 C 0.933 2.03868 1.02534 0
M  V30 4 C 1.911 0.928543 1.3348 0
M  V30 5 O 3.095 1.19667 1.45644 0
M  V30 6 C 0.222 2.43627 2.35294 0
M  V30 7 C -0.732 3.65373 2.2001 0
M  V30 8 S 0.101 5.13292 1.52614 0
M  V30 9 C 1.257 5.56322 2.86805 0
M  V30 10 H 1.49 2.90518 0.631377 0
M  V30 11 H -0.977 1.52953 0.210867 0
M  V30 12 H 0.981 2.67203 3.11629 0
M  V30 13 H -0.358 1.57376 2.7183 0
M  V30 14 H -1.165 3.90944 3.18086 0
M  V30 15 H -1.563 3.418 1.51819 0
M  V30 16 H 0.729 5.58782 3.83104 0
M  V30 17 H 1.672 6.56266 2.65933 0
M  V30 18 H 2.08 4.83886 2.90714 0
M  V30 19 N 1.4781 -0.272755 1.55222 0
M  V30 20 C 2.7251 -1.00433 1.7584 0
M  V30 21 C 3.0531 -1.86275 0.559629 0
M  V30 22 O 2.3081 -1.90269 -0.457857 0
M  V30 23 C 2.6071 -1.91642 3.01675 0
M  V30 24 C 2.2731 -1.21548 4.34208 0
M  V30 25 C 0.9351 -1.02166 4.70229 0
M  V30 26 C 3.2871 -0.716684 5.16249 0
M  V30 27 C 0.6151 -0.316334 5.85847 0
M  V30 28 C 2.9671 -0.0249476 6.32595 0
M  V30 29 C 1.6311 0.180579 6.67256 0
M  V30 30 H 0.9011 -0.367509 0.643443 0
M  V30 31 H 3.5481 -0.276596 1.89492 0
M  V30 32 H 1.8531 -2.71037 2.82924 0
M  V30 33 H 3.5501 -2.48369 3.14824 0
M  V30 34 H 0.1401 -1.37645 4.05896 0
M  V30 35 H 4.3241 -0.854047 4.88896 0
M  V30 36 H -0.4199 -0.146378 6.11225 0
M  V30 37 H 3.7541 0.369311 6.9542 0
M  V30 38 H 1.3811 0.729098 7.56696 0
M  V30 39 N 2.9562 -1.48159 -0.537278 0
M  V30 40 C 3.8862 -1.65029 -1.6519 0
M  V30 41 C 4.8672 -0.499281 -1.62607 0
M  V30 42 O 6.0522 -0.730972 -1.79918 0
M  V30 43 C 3.1822 -1.68303 -3.03795 0
M  V30 44 C 2.1362 -2.8283 -3.21234 0
M  V30 45 C 1.4622 -2.71189 -4.60826 0
M  V30 46 C 2.7622 -4.24211 -3.04701 0
M  V30 47 H 4.4562 -2.58341 -1.51328 0
M  V30 48 H 2.0022 -1.24325 -0.726585 0
M  V30 49 H 3.9552 -1.78693 -3.81637 0
M  V30 50 H 2.6792 -0.715635 -3.18663 0
M  V30 51 H 1.3382 -2.71983 -2.45807 0
M  V30 52 H 0.9862 -1.72435 -4.7252 0
M  V30 53 H 0.6862 -3.48035 -4.7344 0
M  V30 54 H 2.2102 -2.83537 -5.40777 0
M  V30 55 H 3.6242 -4.3593 -3.72341 0
M  V30 56 H 2.0212 -5.01998 -3.28813 0
M  V30 57 H 3.0912 -4.41184 -2.01209 0
M  V30 58 N 4.4343 0.785586 -1.36625 0
M  V30 59 C 5.6623 1.57448 -1.3423 0
M  V30 60 C 6.0773 1.88649 0.0755653 0
M  V30 61 O 5.4343 1.50414 1.03354 0
M  V30 62 C 5.4853 2.89316 -2.16745 0
M  V30 63 O 5.2063 2.59459 -3.53005 0
M  V30 64 C 6.7073 3.83606 -2.22174 0
M  V30 65 H 3.9273 0.488226 -0.4603 0
M  V30 66 H 6.4713 0.974733 -1.79775 0
M  V30 67 H 4.6263 3.4575 -1.74745 0
M  V30 68 H 5.0403 3.43804 -3.96105 0
M  V30 69 H 6.5143 4.73181 -2.8426 0
M  V30 70 H 6.9913 4.21734 -1.22627 0
M  V30 71 H 7.5973 3.33104 -2.64427 0
M  V30 72 N 5.9124 1.20967 1.01018 0
M  V30 73 C 7.3284 0.965905 1.27053 0
M  V30 74 C 7.5284 -0.350785 1.98423 0
M  V30 75 O 6.5844 -1.07773 2.28344 0
M  V30 76 C 7.8974 2.15294 2.09926 0
M  V30 77 C 9.4454 2.19463 2.23171 0
M  V30 78 C 9.9204 3.3767 3.09424 0
M  V30 79 N 11.4114 3.37724 3.17012 0
M  V30 80 C 12.1464 4.25837 3.83993 0
M  V30 81 N 11.6424 5.24138 4.53047 0
M  V30 82 N 13.4354 4.1366 3.80581 0
M  V30 83 H 5.5864 2.0565 0.531194 0
M  V30 84 H 7.8494 0.90024 0.297106 0
M  V30 85 H 7.5554 3.10684 1.64828 0
M  V30 86 H 7.4294 2.13923 3.10672 0
M  V30 87 H 9.8164 1.24632 2.6749 0
M  V30 88 H 9.8974 2.2488 1.21912 0
M  V30 89 H 9.5414 4.32791 2.65808 0
M  V30 90 H 9.4714 3.29491 4.10784 0
M  V30 91 H 11.9624 2.6658 2.6785 0
M  V30 92 H 12.2754 5.87684 5.01844 0
M  V30 93 H 10.6204 5.28068 4.5185 0
M  V30 94 H 13.8114 3.36127 3.25785 0
M  V30 95 H 13.9844 4.82538 4.32505 0
M  V30 96 N 7.3905 -1.2043 1.01659 0
M  V30 97 C 8.6155 -1.94318 0.724942 0
M  V30 98 C 9.0405 -1.74266 -0.708034 0
M  V30 99 O 8.3985 -1.03694 -1.48719 0
M  V30 100 C 8.4465 -3.44486 1.06591 0
M  V30 101 O 7.5505 -4.12017 0.177599 0
M  V30 102 H 6.8915 -0.60708 0.26898 0
M  V30 103 H 9.4215 -1.52861 1.35995 0
M  V30 104 H 9.4315 -3.95106 1.01762 0
M  V30 105 H 8.1065 -3.58404 2.10997 0
M  V30 106 H 6.6835 -3.71821 0.283421 0
M  V30 107 N 8.8686 -0.792821 -1.36206 0
M  V30 108 C 9.7786 -0.194808 -2.3379 0
M  V30 109 C 10.7946 0.654869 -1.61206 0
M  V30 110 O 11.9706 0.569856 -1.9317 0
M  V30 111 C 9.0356 0.657721 -3.40404 0
M  V30 112 C 8.0966 -0.210849 -4.28782 0
M  V30 113 C 7.3296 0.601086 -5.30304 0
M  V30 114 O 7.5526 1.83682 -5.40016 0
M  V30 115 O 6.4866 -0.000808277 -6.019 0
M  V30 116 H 10.3126 -1.00172 -2.86704 0
M  V30 117 H 7.8976 -0.554341 -1.38735 0
M  V30 118 H 9.7796 1.14375 -4.05581 0
M  V30 119 H 8.4546 1.44247 -2.89784 0
M  V30 120 H 7.3616 -0.743714 -3.66633 0
M  V30 121 H 8.6946 -0.959195 -4.82763 0
M  V30 122 N 10.3467 1.47872 -0.545128 0
M  V30 123 C 11.5767 2.06589 -0.0210534 0
M  V30 124 C 11.9847 1.39997 1.27269 0
M  V30 125 O 11.3277 0.486421 1.77143 0
M  V30 126 C 11.3897 3.58574 0.257933 0
M  V30 127 C 11.0537 4.47132 -0.944573 0
M  V30 128 C 12.0507 4.85986 -1.84699 0
M  V30 129 C 9.7357 4.88821 -1.15584 0
M  V30 130 C 11.7297 5.65314 -2.94446 0
M  V30 131 C 9.4167 5.67916 -2.25642 0
M  V30 132 C 10.4147 6.06073 -3.14905 0
M  V30 133 O 10.1027 6.83578 -4.23057 0
M  V30 134 H 9.8347 0.674971 -0.0372899 0
M  V30 135 H 12.3887 1.91037 -0.754599 0
M  V30 136 H 10.6187 3.72295 1.04564 0
M  V30 137 H 12.3077 3.99356 0.72592 0
M  V30 138 H 13.0737 4.54388 -1.69577 0
M  V30 139 H 8.9527 4.58595 -0.470279 0
M  V30 140 H 12.4967 5.95016 -3.64145 0
M  V30 141 H 8.3937 5.98927 -2.40742 0
M  V30 142 H 9.1617 7.01954 -4.20954 0
M  V30 143 N 11.8248 0.280983 1.55075 0
M  V30 144 C 13.1018 -0.386207 1.91749 0
M  V30 145 C 13.4818 -1.73264 1.20594 0
M  V30 146 O 12.8298 -2.26034 0.334784 0
M  V30 147 C 13.0398 -0.520687 3.45094 0
M  V30 148 C 14.3878 -0.800865 4.16979 0
M  V30 149 O 15.4118 -0.605271 3.5102 0
M  V30 150 O 14.2708 -1.1753 5.33712 0
M  V30 151 H 11.3648 -0.212408 0.799257 0
M  V30 152 H 13.9108 0.327568 1.66509 0
M  V30 153 H 12.6828 0.426633 3.88967 0
M  V30 154 H 12.3058 -1.2837 3.76307 0
M  V30 155 N 13.3029 -1.57598 0.00835791 0
M  V30 156 C 14.7189 -1.55764 -0.347822 0
M  V30 157 C 14.9189 -1.01186 -1.74252 0
M  V30 158 O 13.9749 -0.649371 -2.44007 0
M  V30 159 C 15.2879 -2.99927 -0.215407 0
M  V30 160 C 16.8359 -3.11656 -0.289725 0
M  V30 161 C 17.3109 -4.57621 -0.18634 0
M  V30 162 N 18.8019 -4.62557 -0.243978 0
M  V30 163 C 19.5369 -5.73094 -0.18745 0
M  V30 164 N 19.0329 -6.92753 -0.0810331 0
M  V30 165 N 20.8259 -5.61588 -0.239925 0
M  V30 166 H 12.9769 -1.91411 0.92062 0
M  V30 167 H 15.2399 -0.879562 0.353659 0
M  V30 168 H 14.9459 -3.43729 0.744512 0
M  V30 169 H 14.8199 -3.63865 -0.994097 0
M  V30 170 H 17.2069 -2.67779 -1.24009 0
M  V30 171 H 17.2879 -2.5048 0.51898 0
M  V30 172 H 16.9319 -5.02174 0.760519 0
M  V30 173 H 16.8619 -5.16752 -1.01364 0
M  V30 174 H 19.3529 -3.76481 -0.327217 0
M  V30 175 H 19.6659 -7.72787 -0.0440241 0
M  V30 176 H 18.0109 -6.94984 -0.0465419 0
M  V30 177 H 21.2019 -4.66996 -0.321317 0
M  V30 178 H 21.3749 -6.47714 -0.192407 0
M  V30 179 N 14.781 0.264519 -1.55364 0
M  V30 180 C 16.029 0.993021 -1.76021 0
M  V30 181 C 16.35 1.86511 -0.569099 0
M  V30 182 O 15.62 1.91438 0.415735 0
M  V30 183 H 14.2 0.369639 -0.649135 0
M  V30 184 H 16.862 0.286707 -1.9278 0
M  V30 185 H 15.958 1.62502 -2.66457 0
M  V30 186 N 16.2591 1.48442 0.529413 0
M  V30 187 C 17.5051 1.5672 1.28711 0
M  V30 188 C 17.8381 0.2406 1.92704 0
M  V30 189 O 17.1131 -0.753454 1.79313 0
M  V30 190 C 17.3961 2.70587 2.37603 0
M  V30 191 C 17.2491 4.12953 1.78297 0
M  V30 192 C 18.5681 2.80212 3.39366 0
M  V30 193 H 15.6871 0.570474 0.466613 0
M  V30 194 H 18.3291 1.80617 0.589706 0
M  V30 195 H 16.4791 2.50342 2.97088 0
M  V30 196 H 18.1511 4.44639 1.22858 0
M  V30 197 H 16.3941 4.19927 1.0883 0
M  V30 198 H 17.0651 4.88448 2.57144 0
M  V30 199 H 19.5411 2.98553 2.89836 0
M  V30 200 H 18.4171 3.61611 4.12951 0
M  V30 201 H 18.6781 1.88393 3.99951 0
M  V30 202 N 17.7372 -0.778329 1.37039 0
M  V30 203 C 18.6852 -1.91278 1.32345 0
M  V30 204 C 19.6792 -1.68051 0.213331 0
M  V30 205 O 20.8852 -1.75922 0.38098 0
M  V30 206 H 17.2602 -0.628909 0.412283 0
M  V30 207 H 19.2312 -1.92355 2.28127 0
M  V30 208 C 17.9802 -3.28455 1.14073 0
M  V30 209 H 17.3032 -3.46901 1.98746 0
M  V30 210 H 18.7432 -4.08152 1.14837 0
M  V30 211 C 17.2022 -3.36548 -0.154015 0
M  V30 212 O 17.7322 -3.85186 -1.13993 0
M  V30 213 N 15.9382 -2.89894 -0.202475 0
M  V30 214 H 15.4852 -2.50504 0.600476 0
M  V30 215 H 15.4432 -2.9569 -1.06841 0
M  V30 216 N 19.2153 -1.21501 -1.00376 0
M  V30 217 C 20.4433 -1.059 -1.77744 0
M  V30 218 C 20.8583 0.391125 -1.84704 0
M  V30 219 O 20.2153 1.27133 -1.30933 0
M  V30 220 C 20.2663 -1.65111 -3.21591 0
M  V30 221 O 19.9873 -3.0445 -3.15027 0
M  V30 222 C 21.4883 -1.54637 -4.15454 0
M  V30 223 H 18.7083 -0.371825 -0.558558 0
M  V30 224 H 21.2523 -1.60865 -1.26264 0
M  V30 225 H 19.4073 -1.14235 -3.70175 0
M  V30 226 H 19.8213 -3.3278 -4.0541 0
M  V30 227 H 21.2953 -2.00808 -5.14179 0
M  V30 228 H 21.7723 -0.501022 -4.36333 0
M  V30 229 H 22.3783 -2.04767 -3.72761 0
M  V30 230 N 20.6934 1.19889 -1.02296 0
M  V30 231 C 21.9404 1.8942 -0.715972 0
M  V30 232 C 22.2684 1.79251 0.754944 0
M  V30 233 O 21.5234 1.17526 1.56481 0
M  V30 234 C 21.8224 3.39883 -1.10518 0
M  V30 235 C 21.4884 3.70254 -2.57337 0
M  V30 236 C 20.1504 3.78254 -2.97452 0
M  V30 237 C 22.5024 3.84052 -3.52354 0
M  V30 238 C 19.8304 3.97514 -4.31509 0
M  V30 239 C 22.1824 4.04824 -4.86108 0
M  V30 240 C 20.8464 4.11054 -5.25919 0
M  V30 241 H 20.1164 0.693138 -0.261993 0
M  V30 242 H 22.7634 1.42012 -1.28472 0
M  V30 243 H 21.0684 3.8915 -0.454953 0
M  V30 244 H 22.7654 3.9199 -0.845261 0
M  V30 245 H 19.3554 3.64632 -2.25258 0
M  V30 246 H 23.5394 3.77221 -3.22518 0
M  V30 247 H 18.7954 4.00574 -4.61898 0
M  V30 248 H 22.9694 4.14442 -5.59653 0
M  V30 249 H 20.5964 4.2573 -6.29808 0
M  V30 250 N 22.1715 0.800033 1.35784 0
M  V30 251 C 23.3965 0.388511 2.03729 0
M  V30 252 C 23.8215 -0.990481 1.5991 0
M  V30 253 O 23.1795 -1.64013 0.772612 0
M  V30 254 C 23.2275 0.4726 3.5749 0
M  V30 255 O 22.3315 -0.51646 4.09153 0
M  V30 256 H 21.6725 0.163271 0.643614 0
M  V30 257 H 24.2025 1.0841 1.73518 0
M  V30 258 H 24.2125 0.34003 4.06581 0
M  V30 259 H 22.8875 1.47848 3.88734 0
M  V30 260 H 21.4645 -0.344673 3.71304 0
M  V30 261 N 23.6496 -1.47581 0.552962 0
M  V30 262 C 25.0606 -1.86324 0.118463 0
M  V30 263 C 25.4116 -1.46006 -1.3106 0
M  V30 264 O 24.5366 -0.861182 -1.98526 0
M  V30 265 C 25.1316 -3.3816 0.20821 0
M  V30 266 C 23.6906 -3.7601 -0.171226 0
M  V30 267 C 22.8376 -2.71634 0.557686 0
M  V30 268 H 25.7886 -1.39159 0.762928 0
M  V30 269 H 25.8096 -3.76141 -0.574278 0
M  V30 270 H 25.3216 -3.67473 1.24841 0
M  V30 271 H 23.4226 -3.52313 -1.21269 0
M  V30 272 H 23.5356 -4.78745 0.184379 0
M  V30 273 H 21.8996 -2.547 0.00125792 0
M  V30 274 H 22.6826 -3.0379 1.59896 0
M  V30 275 N 25.1277 -0.289203 -1.54924 0
M  V30 276 C 26.0377 0.601863 -2.26748 0
M  V30 277 C 27.0537 1.15834 -1.2984 0
M  V30 278 O 28.2297 1.18564 -1.62802 0
M  V30 279 C 25.2947 1.76299 -2.98529 0
M  V30 280 C 24.3557 1.24178 -4.10948 0
M  V30 281 C 23.5887 2.34757 -4.79296 0
M  V30 282 O 23.8117 3.54411 -4.46933 0
M  V30 283 O 22.7457 2.02115 -5.66951 0
M  V30 284 H 26.5717 0.0195879 -3.03694 0
M  V30 285 H 24.1567 -0.0560868 -1.49295 0
M  V30 286 H 26.0387 2.43973 -3.43592 0
M  V30 287 H 24.7137 2.33209 -2.24488 0
M  V30 288 H 23.6207 0.531104 -3.70311 0
M  V30 289 H 24.9537 0.718252 -4.86931 0
M  V30 290 N 26.6058 1.57591 -0.0167156 0
M  V30 291 C 27.8538 1.90906 0.663285 0
M  V30 292 C 28.1748 0.892509 1.73376 0
M  V30 293 O 27.4448 -0.0677623 1.95783 0
M  V30 294 H 26.0248 0.704637 0.247983 0
M  V30 295 H 28.6868 1.94803 -0.0615909 0
M  V30 296 H 27.7828 2.9116 1.12393 0
M  V30 297 N 28.0839 -0.256276 1.55502 0
M  V30 298 C 29.4999 -0.604325 1.47716 0
M  V30 299 C 29.6999 -1.88763 0.705039 0
M  V30 300 O 28.7559 -2.51445 0.230613 0
M  V30 301 C 30.0689 -0.715756 2.92057 0
M  V30 302 C 31.6169 -0.808706 3.02372 0
M  V30 303 C 32.0919 -0.951777 4.48001 0
M  V30 304 N 33.5829 -1.01688 4.519 0
M  V30 305 C 34.3179 -1.14668 5.61817 0
M  V30 306 N 33.8139 -1.24261 6.81565 0
M  V30 307 N 35.6069 -1.1791 5.49594 0
M  V30 308 H 27.7579 0.586291 2.04148 0
M  V30 309 H 30.0209 0.201015 0.926443 0
M  V30 310 H 29.7269 0.157027 3.51349 0
M  V30 311 H 29.6009 -1.59071 3.42018 0
M  V30 312 H 31.9879 -1.67195 2.43166 0
M  V30 313 H 32.0689 0.0912063 2.55637 0
M  V30 314 H 31.7129 -0.0931291 5.07815 0
M  V30 315 H 31.6429 -1.86659 4.92408 0
M  V30 316 H 34.1339 -0.954468 3.65648 0
M  V30 317 H 34.4469 -1.34046 7.61086 0
M  V30 318 H 32.7919 -1.21236 6.84344 0
M  V30 319 H 35.9829 -1.10057 4.54978 0
M  V30 320 H 36.1559 -1.27681 6.35296 0
M  V30 321 N 29.562 -1.4872 -0.521534 0
M  V30 322 C 30.492 -1.66771 -1.63431 0
M  V30 323 C 31.473 -0.516499 -1.62069 0
M  V30 324 O 32.658 -0.750013 -1.79132 0
M  V30 325 C 29.788 -1.71515 -3.01993 0
M  V30 326 C 28.742 -2.86222 -3.18216 0
M  V30 327 C 28.068 -2.76061 -4.57924 0
M  V30 328 C 29.368 -4.27419 -3.00184 0
M  V30 329 H 31.062 -2.59932 -1.48579 0
M  V30 330 H 28.608 -1.25089 -0.713358 0
M  V30 331 H 30.561 -1.82731 -3.7972 0
M  V30 332 H 29.285 -0.749393 -3.17886 0
M  V30 333 H 27.944 -2.74575 -2.42908 0
M  V30 334 H 27.592 -1.77437 -4.70665 0
M  V30 335 H 27.292 -3.53037 -4.69722 0
M  V30 336 H 28.816 -2.89256 -5.37739 0
M  V30 337 H 30.23 -4.39855 -3.67697 0
M  V30 338 H 28.627 -5.05458 -3.2347 0
M  V30 339 H 29.697 -4.43293 -1.96518 0
M  V30 340 N 31.0401 0.771051 -1.3745 0
M  V30 341 C 32.2871 1.52963 -1.32697 0
M  V30 342 C 32.6151 1.94299 0.0883274 0
M  V30 343 O 31.8701 1.64397 1.0617 0
M  V30 344 C 32.1691 2.80676 -2.2126 0
M  V30 345 C 31.8351 2.58389 -3.69521 0
M  V30 346 C 30.4971 2.52019 -4.09927 0
M  V30 347 C 32.8491 2.38469 -4.63446 0
M  V30 348 C 30.1771 2.23721 -5.42371 0
M  V30 349 C 32.5291 2.11694 -5.96128 0
M  V30 350 C 31.1931 2.03769 -6.35637 0
M  V30 351 H 30.4631 0.559732 -0.485573 0
M  V30 352 H 33.1101 0.888083 -1.69662 0
M  V30 353 H 31.4151 3.49392 -1.77291 0
M  V30 354 H 33.1121 3.38557 -2.14895 0
M  V30 355 H 29.7021 2.6421 -3.37478 0
M  V30 356 H 33.8861 2.4238 -4.33089 0
M  V30 357 H 29.1421 2.16081 -5.71943 0
M  V30 358 H 33.3161 1.9528 -6.6846 0
M  V30 359 H 30.9431 1.81606 -7.38189 0
M  V30 360 N 32.5182 1.22032 0.997298 0
M  V30 361 C 33.4502 0.944263 2.08845 0
M  V30 362 C 34.4632 -0.0754663 1.62625 0
M  V30 363 O 35.6522 0.157994 1.77799 0
M  V30 364 C 32.7522 0.397723 3.36558 0
M  V30 365 C 31.9252 1.47362 4.11829 0
M  V30 366 C 30.9842 0.934951 5.17827 0
M  V30 367 O 30.0102 1.62016 5.45655 0
M  V30 368 N 31.2122 -0.245895 5.79979 0
M  V30 369 H 33.9772 1.88363 2.33109 0
M  V30 370 H 31.5382 1.12661 1.16272 0
M  V30 371 H 33.5302 0.0227771 4.04694 0
M  V30 372 H 32.1002 -0.446646 3.09393 0
M  V30 373 H 31.3202 2.02208 3.38386 0
M  V30 374 H 32.6082 2.19764 4.58891 0
M  V30 375 H 32.0062 -0.819475 5.59733 0
M  V30 376 H 30.5632 -0.562272 6.4937 0
M  V30 377 N 33.9963 -1.19345 1.0293 0
M  V30 378 C 35.2423 -1.89318 0.727083 0
M  V30 379 C 35.5753 -1.79446 -0.742483 0
M  V30 380 O 34.8503 -1.1871 -1.54072 0
M  V30 381 C 35.1333 -3.40238 1.17942 0
M  V30 382 C 34.9863 -3.58979 2.71024 0
M  V30 383 C 36.3053 -4.33479 0.760548 0
M  V30 384 H 33.4243 -0.687475 0.265606 0
M  V30 385 H 36.0663 -1.40477 1.2793 0
M  V30 386 H 34.2163 -3.81964 0.709608 0
M  V30 387 H 35.8883 -3.26421 3.25955 0
M  V30 388 H 34.1313 -3.02018 3.11396 0
M  V30 389 H 34.8023 -4.64823 2.9773 0
M  V30 390 H 37.2783 -3.99469 1.16464 0
M  V30 391 H 36.1543 -5.37664 1.10493 0
M  V30 392 H 36.4153 -4.40813 -0.337063 0
M  V30 393 N 35.4744 -0.807222 -1.35358 0
M  V30 394 C 36.3844 -0.219594 -2.3357 0
M  V30 395 C 37.4004 0.637734 -1.61892 0
M  V30 396 O 38.5764 0.549336 -1.93763 0
M  V30 397 C 35.6414 0.62158 -3.41083 0
M  V30 398 C 34.7024 -0.256315 -4.28534 0
M  V30 399 C 33.9354 0.544807 -5.30912 0
M  V30 400 O 34.1584 1.77944 -5.41934 0
M  V30 401 O 33.0924 -0.0646478 -6.01865 0
M  V30 402 H 36.9184 -1.03208 -2.85625 0
M  V30 403 H 34.5034 -0.569025 -1.38139 0
M  V30 404 H 36.3854 1.10067 -4.06772 0
M  V30 405 H 35.0604 1.41165 -2.91297 0
M  V30 406 H 33.9674 -0.782559 -3.65823 0
M  V30 407 H 35.3004 -1.01034 -4.81719 0
M  V30 408 N 36.9525 1.47285 -0.560781 0
M  V30 409 C 38.1825 2.06555 -0.0429638 0
M  V30 410 C 38.5905 1.41339 1.25777 0
M  V30 411 O 37.9335 0.505182 1.76617 0
M  V30 412 C 37.9955 3.58827 0.219887 0
M  V30 413 C 37.6595 4.46105 -0.991944 0
M  V30 414 C 38.6565 4.84 -1.89843 0
M  V30 415 C 36.3415 4.87567 -1.20762 0
M  V30 416 C 38.3355 5.6216 -3.00425 0
M  V30 417 C 36.0225 5.65491 -2.31653 0
M  V30 418 C 37.0205 6.02699 -3.21315 0
M  V30 419 O 36.7085 6.79052 -4.30283 0
M  V30 420 H 36.4405 0.674537 -0.0444468 0
M  V30 421 H 38.9945 1.90225 -0.774818 0
M  V30 422 H 37.2245 3.73383 1.00609 0
M  V30 423 H 38.9135 4.00103 0.683522 0
M  V30 424 H 39.6795 4.52564 -1.74387 0
M  V30 425 H 35.5585 4.5807 -0.518893 0
M  V30 426 H 39.1025 5.9112 -3.70436 0
M  V30 427 H 34.9995 5.9634 -2.47081 0
M  V30 428 H 35.7675 6.9745 -4.28376 0
M  V30 429 N 38.4306 0.297415 1.54768 0
M  V30 430 C 39.3936 -0.567375 2.22066 0
M  V30 431 C 40.3936 -1.06409 1.20556 0
M  V30 432 O 41.5836 -0.960691 1.45315 0
M  V30 433 C 38.7156 -1.78517 2.90421 0
M  V30 434 H 39.9086 0.0205534 2.99893 0
M  V30 435 H 37.4616 0.0482163 1.56226 0
M  V30 436 H 38.1966 -2.41303 2.16664 0
M  V30 437 H 37.9816 -1.43669 3.64831 0
M  V30 438 H 39.4716 -2.39964 3.41771 0
M  V30 439 N 39.9087 -1.5758 0.0250728 0
M  V30 440 C 41.1577 -1.90811 -0.653767 0
M  V30 441 C 41.4707 -0.90273 -1.73523 0
M  V30 442 O 42.6767 -1.12614 -2.47043 0
M  V30 443 C 41.1327 -3.38804 -1.21409 0
M  V30 444 C 40.7407 -4.47692 -0.166126 0
M  V30 445 C 42.4847 -3.81108 -1.86967 0
M  V30 446 C 40.3917 -5.86779 -0.737856 0
M  V30 447 H 39.3217 -0.712063 -0.247956 0
M  V30 448 H 41.9727 -1.83281 0.0897137 0
M  V30 449 H 40.3547 -3.41252 -2.00905 0
M  V30 450 H 41.5287 -4.56797 0.606079 0
M  V30 451 H 39.8437 -4.14565 0.390466 0
M  V30 452 H 42.4407 -4.82375 -2.30692 0
M  V30 453 H 42.7837 -3.15953 -2.71071 0
M  V30 454 H 43.3167 -3.81065 -1.14167 0
M  V30 455 H 40.0557 -6.55468 0.0649577 0
M  V30 456 H 39.5757 -5.81288 -1.47864 0
M  V30 457 H 41.2547 -6.35223 -1.22884 0
M  V30 458 N 41.3868 0.248026 -1.55636 0
M  V30 459 C 42.2968 1.32859 -1.93354 0
M  V30 460 C 43.3128 1.52719 -0.833838 0
M  V30 461 O 44.4888 1.66363 -1.13513 0
M  V30 462 C 41.5538 2.66337 -2.21958 0
M  V30 463 C 40.6148 2.55008 -3.45354 0
M  V30 464 C 39.8478 3.82121 -3.72584 0
M  V30 465 O 40.0708 4.83951 -3.01907 0
M  V30 466 O 39.0048 3.80822 -4.6611 0
M  V30 467 H 42.8308 1.03862 -2.85388 0
M  V30 468 H 40.4158 0.448686 -1.42503 0
M  V30 469 H 42.2978 3.45216 -2.4167 0
M  V30 470 H 40.9728 2.95068 -1.33103 0
M  V30 471 H 39.8798 1.7442 -3.30951 0
M  V30 472 H 41.2128 2.31222 -4.34508 0
M  V30 473 N 42.8649 1.48995 0.513639 0
M  V30 474 C 43.8279 1.64229 1.59879 0
M  V30 475 C 44.8279 0.514696 1.5234 0
M  V30 476 O 46.0179 0.78087 1.55718 0
M  V30 477 C 43.1499 1.62783 2.99524 0
M  V30 478 H 44.3429 2.61004 1.47705 0
M  V30 479 H 41.8959 1.37837 0.736936 0
M  V30 480 H 42.6309 0.675461 3.17188 0
M  V30 481 H 42.4159 2.4466 3.06404 0
M  V30 482 H 43.9059 1.76669 3.78388 0
M  V30 483 N 44.343 -0.763751 1.37857 0
M  V30 484 C 45.592 -1.51789 1.32827 0
M  V30 485 C 45.905 -1.95426 -0.0823719 0
M  V30 486 O 47.111 -2.70298 -0.255172 0
M  V30 487 C 45.567 -2.74133 2.33193 0
M  V30 488 C 45.175 -2.37562 3.79827 0
M  V30 489 C 46.919 -3.52054 2.37188 0
M  V30 490 C 44.826 -3.56456 4.71904 0
M  V30 491 H 43.756 -0.569896 0.493695 0
M  V30 492 H 46.407 -0.835822 1.63359 0
M  V30 493 H 44.789 -3.4427 1.9569 0
M  V30 494 H 45.963 -1.75157 4.26212 0
M  V30 495 H 44.278 -1.72798 3.78853 0
M  V30 496 H 46.875 -4.40437 3.03182 0
M  V30 497 H 47.218 -3.92486 1.38782 0
M  V30 498 H 47.751 -2.88921 2.7344 0
M  V30 499 H 44.49 -3.21099 5.71468 0
M  V30 500 H 44.01 -4.17938 4.30218 0
M  V30 501 H 45.689 -4.23168 4.89426 0
M  V30 502 N 45.8211 -1.22559 -0.990812 0
M  V30 503 C 46.7681 -0.997519 -2.0813 0
M  V30 504 C 47.7381 0.0814702 -1.659 0
M  V30 505 O 48.9231 -0.0685424 -1.90677 0
M  V30 506 C 46.0631 -0.583615 -3.40129 0
M  V30 507 C 45.1761 -1.7336 -3.9569 0
M  V30 508 C 44.3111 -1.26748 -5.15857 0
M  V30 509 C 43.3501 -2.38888 -5.63559 0
M  V30 510 N 42.4871 -1.93308 -6.74964 0
M  V30 511 H 47.3271 -1.93099 -2.26973 0
M  V30 512 H 44.8641 -0.962114 -1.11273 0
M  V30 513 H 46.8221 -0.324801 -4.15934 0
M  V30 514 H 45.4521 0.312845 -3.2128 0
M  V30 515 H 44.5041 -2.10669 -3.16738 0
M  V30 516 H 45.8161 -2.57704 -4.27071 0
M  V30 517 H 44.9701 -0.966173 -5.98957 0
M  V30 518 H 43.7091 -0.394272 -4.86104 0
M  V30 519 H 42.7141 -2.69805 -4.79046 0
M  V30 520 H 43.9391 -3.26728 -5.95336 0
M  V30 521 H 41.8851 -1.08352 -6.4699 0
M  V30 522 H 41.8021 -2.71217 -7.05675 0
M  V30 523 H 43.0701 -1.66252 -7.61564 0
M  V30 524 N 47.2992 1.18797 -1.03562 0
M  V30 525 C 48.2292 2.24472 -0.643019 0
M  V30 526 C 49.2102 1.66433 0.351283 0
M  V30 527 O 50.3952 1.92803 0.232505 0
M  V30 528 C 47.5252 3.473 4.24935e-05 0
M  V30 529 C 46.4792 4.18055 -0.917257 0
M  V30 530 C 45.8052 5.34519 -0.138941 0
M  V30 531 C 47.1052 4.72109 -2.23407 0
M  V30 532 H 48.7992 2.57566 -1.52643 0
M  V30 533 H 46.3452 1.23806 -0.735394 0
M  V30 534 H 48.2982 4.20426 0.286383 0
M  V30 535 H 47.0222 3.13424 0.918299 0
M  V30 536 H 45.6812 3.46821 -1.1879 0
M  V30 537 H 45.3292 4.96891 0.781562 0
M  V30 538 H 45.0292 5.82794 -0.750005 0
M  V30 539 H 46.5532 6.10438 0.1405 0
M  V30 540 H 47.9672 5.36955 -2.00879 0
M  V30 541 H 46.3642 5.30897 -2.79765 0
M  V30 542 H 47.4342 3.89807 -2.88407 0
M  V30 543 N 48.7773 0.814389 1.34928 0
M  V30 544 C 50.0253 0.397636 1.9815 0
M  V30 545 C 50.3463 -1.04069 1.64908 0
M  V30 546 O 49.6163 -1.72121 0.93548 0
M  V30 547 H 48.1963 0.144043 0.732981 0
M  V30 548 H 50.8583 1.04195 1.6471 0
M  V30 549 H 49.9543 0.509688 3.0791 0
M  V30 550 N 50.2554 -1.46986 0.568584 0
M  V30 551 C 51.4804 -2.07335 0.0520528 0
M  V30 552 C 51.9054 -1.41675 -1.23733 0
M  V30 553 O 51.2634 -0.495623 -1.74394 0
M  V30 554 C 51.3114 -3.60417 -0.11501 0
M  V30 555 O 50.4154 -3.95309 -1.17492 0
M  V30 556 H 49.7564 -0.661597 0.0564385 0
M  V30 557 H 52.2864 -1.88837 0.787507 0
M  V30 558 H 52.2964 -4.06698 -0.325644 0
M  V30 559 H 50.9714 -4.07601 0.826675 0
M  V30 560 H 49.5484 -3.60757 -0.943869 0
M  V30 561 N 51.7335 -0.305618 -1.54608 0
M  V30 562 C 52.9615 0.304775 -2.04643 0
M  V30 563 C 53.3765 1.47167 -1.18268 0
M  V30 564 O 52.7335 1.81296 -0.209328 0
M  V30 565 C 52.7845 0.756564 -3.53495 0
M  V30 566 O 52.5055 -0.36389 -4.36586 0
M  V30 567 C 54.0065 1.43163 -4.19546 0
M  V30 568 H 51.2265 0.0655481 -0.667791 0
M  V30 569 H 53.7705 -0.446592 -1.99564 0
M  V30 570 H 51.9255 1.45794 -3.58919 0
M  V30 571 H 52.3395 -0.0113121 -5.24499 0
M  V30 572 H 53.8135 1.69886 -5.25207 0
M  V30 573 H 54.2905 2.37318 -3.69563 0
M  V30 574 H 54.8965 0.773307 -4.18211 0
M  V30 575 N 53.2116 1.57565 -0.0334293 0
M  V30 576 C 54.1746 2.09393 0.932048 0
M  V30 577 C 55.1746 1.00986 1.25134 0
M  V30 578 O 56.3646 1.27129 1.19096 0
M  V30 579 C 53.4966 2.56338 2.2473 0
M  V30 580 H 54.6896 2.95984 0.483085 0
M  V30 581 H 52.2426 1.54819 0.21468 0
M  V30 582 H 52.9776 1.7309 2.74245 0
M  V30 583 H 52.7626 3.35542 2.02865 0
M  V30 584 H 54.2526 2.96646 2.93923 0
M  V30 585 N 54.6897 -0.239769 1.55765 0
M  V30 586 C 55.9387 -0.964754 1.77131 0
M  V30 587 C 56.2517 -1.86213 0.59868 0
M  V30 588 O 57.4577 -2.6244 0.695522 0
M  V30 589 C 55.9137 -1.76552 3.1362 0
M  V30 590 C 55.5217 -0.915185 4.38553 0
M  V30 591 C 57.2657 -2.48281 3.44321 0
M  V30 592 C 55.1727 -1.71225 5.66071 0
M  V30 593 H 54.1027 -0.363953 0.660344 0
M  V30 594 H 56.7537 -0.219181 1.82186 0
M  V30 595 H 55.1357 -2.55331 3.02691 0
M  V30 596 H 56.3097 -0.169217 4.60489 0
M  V30 597 H 54.6247 -0.310889 4.15238 0
M  V30 598 H 57.2217 -3.08382 4.36812 0
M  V30 599 H 57.5647 -3.20256 2.65973 0
M  V30 600 H 58.0977 -1.76507 3.56497 0
M  V30 601 H 54.8367 -1.03612 6.4726 0
M  V30 602 H 54.3567 -2.43331 5.48224 0
M  V30 603 H 56.0357 -2.27758 6.05587 0
M  V30 604 N 56.1678 -1.49265 -0.50573 0
M  V30 605 C 57.4158 -1.582 -1.25766 0
M  V30 606 C 57.7368 -0.268482 -1.93143 0
M  V30 607 O 57.0068 0.711833 -1.8251 0
M  V30 608 H 55.5868 -0.582873 -0.467191 0
M  V30 609 H 58.2488 -1.85865 -0.586525 0
M  V30 610 H 57.3448 -2.37563 -2.02412 0
M  V30 611 N 57.6459 0.756429 -1.3826 0
M  V30 612 C 58.8949 1.51082 -1.3363 0
M  V30 613 C 59.2079 1.95467 0.0720068 0
M  V30 614 O 60.4139 2.7043 0.240834 0
M  V30 615 C 58.8699 2.72893 -2.34644 0
M  V30 616 C 58.4779 2.35544 -3.81081 0
M  V30 617 C 60.2219 3.50791 -2.39052 0
M  V30 618 C 58.1289 3.53948 -4.73787 0
M  V30 619 H 57.0589 0.56727 -0.49671 0
M  V30 620 H 59.7099 0.827147 -1.638 0
M  V30 621 H 58.0919 3.43227 -1.97513 0
M  V30 622 H 59.2659 1.72894 -4.27135 0
M  V30 623 H 57.5809 1.70786 -3.79764 0
M  V30 624 H 60.1779 4.38823 -3.05513 0
M  V30 625 H 60.5209 3.91745 -1.40861 0
M  V30 626 H 61.0539 2.87467 -2.74968 0
M  V30 627 H 57.7929 3.18064 -5.73163 0
M  V30 628 H 57.3129 4.15651 -4.32428 0
M  V30 629 H 58.9919 4.20566 -4.91663 0
M  V30 630 N 59.124 1.23083 0.984299 0
M  V30 631 C 60.056 0.96636 2.07832 0
M  V30 632 C 61.069 -0.0582135 1.62696 0
M  V30 633 O 62.258 0.176843 1.77622 0
M  V30 634 C 59.358 0.433397 3.36117 0
M  V30 635 C 58.531 1.51722 4.10243 0
M  V30 636 C 57.59 0.989821 5.16807 0
M  V30 637 O 56.616 1.67794 5.43906 0
M  V30 638 N 57.818 -0.184367 5.80207 0
M  V30 639 H 60.583 1.90824 2.31098 0
M  V30 640 H 58.144 1.13888 1.1507 0
M  V30 641 H 60.136 0.065699 4.04647 0
M  V30 642 H 58.706 -0.413806 3.09849 0
M  V30 643 H 57.926 2.05786 3.36223 0
M  V30 644 H 59.214 2.24619 4.56534 0
M  V30 645 H 58.612 -0.760062 5.60571 0
M  V30 646 H 57.169 -0.493366 6.4993 0
M  V30 647 N 60.6021 -1.18246 1.0419 0
M  V30 648 C 61.8301 -1.92195 0.766072 0
M  V30 649 C 62.2451 -1.76247 -0.676933 0
M  V30 650 O 61.6021 -1.09293 -1.46155 0
M  V30 651 C 61.6531 -3.43568 1.12442 0
M  V30 652 O 61.3741 -3.59015 2.51078 0
M  V30 653 C 62.8751 -4.34613 0.873275 0
M  V30 654 H 60.0951 -0.610114 0.279288 0
M  V30 655 H 62.6391 -1.50007 1.38989 0
M  V30 656 H 60.7941 -3.8354 0.545542 0
M  V30 657 H 61.2081 -4.5273 2.64831 0
M  V30 658 H 62.6821 -5.39374 1.17385 0
M  V30 659 H 63.1591 -4.38781 -0.191909 0
M  V30 660 H 63.7651 -4.00341 1.43551 0
M  V30 661 N 62.0802 -0.821533 -1.34494 0
M  V30 662 C 63.3052 -0.420873 -2.03085 0
M  V30 663 C 63.7302 0.964915 -1.61465 0
M  V30 664 O 63.0882 1.62763 -0.798607 0
M  V30 665 C 63.1362 -0.529414 -3.56693 0
M  V30 666 O 62.2402 0.451302 -4.09923 0
M  V30 667 H 61.5812 -0.173489 -0.640935 0
M  V30 668 H 64.1112 -1.11157 -1.71771 0
M  V30 669 H 64.1212 -0.404671 -4.05988 0
M  V30 670 H 62.7962 -1.54014 -3.86332 0
M  V30 671 H 61.3732 0.285558 -3.71805 0
M  V30 672 N 63.5583 1.46682 -0.576371 0
M  V30 673 C 64.4683 2.34032 0.163141 0
M  V30 674 C 65.4843 1.49367 0.892501 0
M  V30 675 O 66.6603 1.82252 0.857106 0
M  V30 676 C 63.7253 3.26435 1.16795 0
M  V30 677 C 62.7863 4.26998 0.443944 0
M  V30 678 C 62.0193 5.14986 1.40088 0
M  V30 679 O 62.2423 5.05785 2.637 0
M  V30 680 O 61.1763 5.94906 0.914917 0
M  V30 681 H 65.0023 2.98607 -0.55388 0
M  V30 682 H 62.5873 1.45554 -0.336821 0
M  V30 683 H 64.4693 3.83459 1.74748 0
M  V30 684 H 63.1443 2.64465 1.86655 0
M  V30 685 H 62.0513 3.7368 -0.177271 0
M  V30 686 H 63.3843 4.91736 -0.213566 0
M  V30 687 N 65.0364 0.313813 1.54444 0
M  V30 688 C 66.2844 -0.291099 1.99993 0
M  V30 689 C 66.6054 -1.53418 1.20366 0
M  V30 690 O 65.8754 -1.93544 0.302927 0
M  V30 691 H 64.4554 -0.110552 0.738774 0
M  V30 692 H 67.1174 0.428106 1.9014 0
M  V30 693 H 66.2134 -0.554268 3.07139 0
M  V30 694 N 66.5145 -1.57545 0.0417849 0
M  V30 695 C 67.7605 -1.92601 -0.635021 0
M  V30 696 C 68.0935 -0.919627 -1.71045 0
M  V30 697 O 67.3685 0.0557892 -1.9442 0
M  V30 698 C 67.6515 -3.38085 -1.23979 0
M  V30 699 C 67.5045 -4.49467 -0.173057 0
M  V30 700 C 68.8235 -3.83776 -2.15416 0
M  V30 701 H 65.9425 -0.700397 -0.229374 0
M  V30 702 H 68.5845 -1.89728 0.101633 0
M  V30 703 H 66.7345 -3.40664 -1.86762 0
M  V30 704 H 68.4065 -4.59018 0.458312 0
M  V30 705 H 66.6495 -4.30909 0.499996 0
M  V30 706 H 67.3205 -5.48323 -0.636054 0
M  V30 707 H 69.7965 -3.83013 -1.62605 0
M  V30 708 H 68.6725 -4.8624 -2.54679 0
M  V30 709 H 68.9335 -3.19998 -3.05047 0
M  V30 710 N 67.9926 0.231505 -1.5589 0
M  V30 711 C 69.2326 0.964533 -1.80211 0
M  V30 712 C 69.5966 1.81926 -0.613744 0
M  V30 713 O 70.7976 2.58526 -0.736045 0
M  V30 714 C 69.0686 1.78956 -3.09369 0
M  V30 715 S 70.6276 2.57959 -3.54969 0
M  V30 716 H 67.4456 0.324173 -0.632798 0
M  V30 717 H 70.0476 0.230985 -1.94131 0
M  V30 718 H 68.7516 1.15161 -3.93911 0
M  V30 719 H 68.2826 2.56559 -2.9823 0
M  V30 720 H 70.2976 3.81309 -3.17519 0
M  V30 721 N 69.4707 1.49531 0.497807 0
M  V30 722 C 70.4007 1.6935 1.60757 0
M  V30 723 C 71.3817 0.542218 1.61227 0
M  V30 724 O 72.5667 0.778417 1.77917 0
M  V30 725 C 69.6967 1.76298 2.99226 0
M  V30 726 C 68.6507 2.91248 3.13622 0
M  V30 727 C 67.9767 2.83312 4.53474 0
M  V30 728 C 69.2767 4.3214 2.93346 0
M  V30 729 H 70.9707 2.62263 1.44425 0
M  V30 730 H 68.5167 1.26208 0.693367 0
M  V30 731 H 70.4697 1.88749 3.76765 0
M  V30 732 H 69.1937 0.799871 3.16654 0
M  V30 733 H 67.8527 2.78404 2.38509 0
M  V30 734 H 67.5007 1.84902 4.67782 0
M  V30 735 H 67.2007 3.60465 4.64046 0
M  V30 736 H 68.7247 2.97775 5.33069 0
M  V30 737 H 70.1387 4.45649 3.60652 0
M  V30 738 H 68.5357 5.1054 3.15387 0
M  V30 739 H 69.6057 4.46363 1.89441 0
M  V30 740 N 70.9488 -0.749086 1.3866 0
M  V30 741 C 71.9118 -1.84457 1.36045 0
M  V30 742 C 72.9118 -1.58682 0.260122 0
M  V30 743 O 74.1018 -1.66343 0.517261 0
M  V30 744 C 71.2338 -3.22008 1.11911 0
M  V30 745 H 72.4268 -1.88182 2.33512 0
M  V30 746 H 69.9798 -0.951266 1.24019 0
M  V30 747 H 70.7148 -3.2395 0.150686 0
M  V30 748 H 70.4998 -3.42111 1.91579 0
M  V30 749 H 71.9898 -4.0208 1.12788 0
M  V30 750 N 72.4269 -1.23603 -0.977757 0
M  V30 751 C 73.6729 -1.07129 -1.72195 0
M  V30 752 C 74.0059 0.390501 -1.90233 0
M  V30 753 O 73.2809 1.28902 -1.45653 0
M  V30 754 C 73.5639 -1.80031 -3.11867 0
M  V30 755 C 73.4169 -3.33899 -3.01383 0
M  V30 756 C 74.7359 -1.56492 -4.11337 0
M  V30 757 H 71.8549 -0.390571 -0.624999 0
M  V30 758 H 74.4969 -1.52142 -1.13811 0
M  V30 759 H 72.6469 -1.41768 -3.6171 0
M  V30 760 H 74.3189 -3.81699 -2.59043 0
M  V30 761 H 72.5619 -3.62796 -2.37827 0
M  V30 762 H 73.2329 -3.801 -4.00285 0
M  V30 763 H 75.7089 -1.89757 -3.70313 0
M  V30 764 H 74.5849 -2.09973 -5.07151 0
M  V30 765 H 74.8459 -0.500874 -4.39254 0
M  V30 766 N 73.905 1.17692 -1.04816 0
M  V30 767 C 74.815 2.25229 -0.65643 0
M  V30 768 C 75.831 1.71018 0.320761 0
M  V30 769 O 77.007 2.00649 0.173805 0
M  V30 770 C 74.072 3.46684 -0.0332629 0
M  V30 771 C 73.133 4.15997 -1.06042 0
M  V30 772 C 72.366 5.31654 -0.466893 0
M  V30 773 O 72.589 5.65777 0.724758 0
M  V30 774 O 71.523 5.89831 -1.1993 0
M  V30 775 H 75.349 2.61016 -1.55255 0
M  V30 776 H 72.934 1.24919 -0.81949 0
M  V30 777 H 74.816 4.20234 0.313256 0
M  V30 778 H 73.491 3.12703 0.836566 0
M  V30 779 H 72.398 3.44482 -1.45886 0
M  V30 780 H 73.731 4.53996 -1.90127 0
M  V30 781 N 75.3831 0.828654 1.34056 0
M  V30 782 C 76.3301 0.252567 2.29414 0
M  V30 783 C 77.3001 -0.62588 1.53857 0
M  V30 784 O 78.4851 -0.566312 1.82202 0
M  V30 785 C 75.6251 -0.574831 3.40279 0
M  V30 786 C 74.7381 0.326499 4.30764 0
M  V30 787 C 73.8731 -0.511016 5.28736 0
M  V30 788 C 72.9121 0.389342 6.1086 0
M  V30 789 N 72.0491 -0.409439 7.00905 0
M  V30 790 H 76.8891 1.07108 2.78086 0
M  V30 791 H 74.4261 0.539677 1.36843 0
M  V30 792 H 76.3841 -1.06992 4.03248 0
M  V30 793 H 75.0141 -1.35841 2.92826 0
M  V30 794 H 74.0661 0.939837 3.68607 0
M  V30 795 H 75.3781 1.01857 4.88289 0
M  V30 796 H 74.5321 -1.07035 5.97184 0
M  V30 797 H 73.2711 -1.23657 4.71763 0
M  V30 798 H 72.2761 0.960769 5.4134 0
M  V30 799 H 73.5011 1.1131 6.69916 0
M  V30 800 H 71.4471 -1.11856 6.46393 0
M  V30 801 H 71.3641 0.224126 7.55668 0
M  V30 802 H 72.6321 -0.951336 7.73673 0
M  V30 803 N 76.8612 -1.46375 0.584142 0
M  V30 804 C 78.2772 -1.57694 0.245929 0
M  V30 805 C 78.4772 -1.57903 -1.25175 0
M  V30 806 O 77.5332 -1.49676 -2.03355 0
M  V30 807 C 78.8462 -2.87028 0.896402 0
M  V30 808 C 80.3942 -3.00662 0.870127 0
M  V30 809 C 80.8692 -4.32734 1.50017 0
M  V30 810 N 82.3602 -4.39436 1.46458 0
M  V30 811 C 83.0952 -5.40248 1.92144 0
M  V30 812 N 82.5912 -6.47726 2.4581 0
M  V30 813 N 84.3842 -5.31459 1.83052 0
M  V30 814 H 76.5352 -1.44483 1.55687 0
M  V30 815 H 78.7982 -0.689291 0.650831 0
M  V30 816 H 78.5042 -2.9269 1.95002 0
M  V30 817 H 78.3782 -3.75014 0.405486 0
M  V30 818 H 80.7652 -2.94581 -0.174871 0
M  V30 819 H 80.8462 -2.14148 1.39908 0
M  V30 820 H 80.4902 -4.39573 2.54437 0
M  V30 821 H 80.4202 -5.18025 0.946432 0
M  V30 822 H 82.9112 -3.62367 1.07231 0
M  V30 823 H 83.2242 -7.20863 2.78525 0
M  V30 824 H 81.5692 -6.48542 2.49836 0
M  V30 825 H 84.7602 -4.46396 1.40883 0
M  V30 826 H 84.9332 -6.09881 2.18973 0
M  V30 827 N 78.3393 -0.321999 -1.54275 0
M  V30 828 C 79.5883 0.281931 -1.9972 0
M  V30 829 C 79.9013 1.53369 -1.21397 0
M  V30 830 O 81.1073 2.21352 -1.57211 0
M  V30 831 C 79.5633 0.5529 -3.55628 0
M  V30 832 C 79.1713 -0.681721 -4.42783 0
M  V30 833 C 80.9153 1.11687 -4.09544 0
M  V30 834 C 78.8223 -0.382742 -5.9016 0
M  V30 835 H 77.7523 0.109124 -0.746062 0
M  V30 836 H 80.4033 -0.43398 -1.78294 0
M  V30 837 H 78.7853 1.32896 -3.73035 0
M  V30 838 H 79.9593 -1.45723 -4.37151 0
M  V30 839 H 78.2743 -1.1658 -3.99748 0
M  V30 840 H 80.8713 1.35515 -5.17242 0
M  V30 841 H 81.2143 2.06575 -3.61431 0
M  V30 842 H 81.7473 0.402032 -3.95763 0
M  V30 843 H 78.4863 -1.30076 -6.42464 0
M  V30 844 H 78.0063 0.355094 -5.98748 0
M  V30 845 H 79.6853 0.00800157 -6.47 0
M  V30 846 N 79.8174 1.5752 -0.0501392 0
M  V30 847 C 81.0454 1.96963 0.633492 0
M  V30 848 C 81.4604 0.927631 1.6444 0
M  V30 849 O 80.8174 -0.0882665 1.82286 0
M  V30 850 C 80.8684 3.36487 1.32132 0
M  V30 851 O 80.5894 4.36693 0.350894 0
M  V30 852 C 82.0904 3.90682 2.09481 0
M  V30 853 H 79.3104 0.648244 0.173266 0
M  V30 854 H 81.8544 2.0417 -0.116134 0
M  V30 855 H 80.0094 3.30434 2.02218 0
M  V30 856 H 80.4234 5.17702 0.841735 0
M  V30 857 H 81.8974 4.90591 2.5303 0
M  V30 858 H 82.3744 3.26053 2.94255 0
M  V30 859 H 82.9804 4.00069 1.44307 0
M  V30 860 N 81.2955 -0.223234 1.56011 0
M  V30 861 C 82.5205 -0.968978 1.83373 0
M  V30 862 C 82.9455 -1.77227 0.630254 0
M  V30 863 O 82.3035 -1.76345 -0.420959 0
M  V30 864 C 82.3515 -1.86363 3.08709 0
M  V30 865 O 81.4555 -2.95873 2.87285 0
M  V30 866 H 80.7965 -0.274461 0.604622 0
M  V30 867 H 83.3265 -0.237056 2.03222 0
M  V30 868 H 83.3365 -2.27376 3.38768 0
M  V30 869 H 82.0115 -1.27319 3.95933 0
M  V30 870 H 80.5885 -2.58818 2.68454 0
M  V30 871 N 82.7736 -1.49793 -0.48987 0
M  V30 872 C 84.1846 -1.52914 -1.07118 0
M  V30 873 C 84.5356 -0.321738 -1.93544 0
M  V30 874 O 83.6606 0.567338 -2.08831 0
M  V30 875 C 84.2556 -2.771 -1.94938 0
M  V30 876 C 82.8146 -2.82963 -2.48212 0
M  V30 877 C 81.9616 -2.46972 -1.26096 0
M  V30 878 H 84.9126 -1.56329 -0.273289 0
M  V30 879 H 84.9336 -2.57892 -2.79771 0
M  V30 880 H 84.4456 -3.64959 -1.32009 0
M  V30 881 H 82.5466 -1.99411 -3.14748 0
M  V30 882 H 82.6596 -3.85406 -2.84603 0
M  V30 883 H 81.0236 -1.98994 -1.58976 0
M  V30 884 H 81.8066 -3.37118 -0.648581 0
M  V30 885 N 84.2517 0.741722 -1.39055 0
M  V30 886 C 85.1817 1.869 -1.39966 0
M  V30 887 C 86.1627 1.6804 -0.26392 0
M  V30 888 O 87.3477 1.88458 -0.468755 0
M  V30 889 C 84.4777 3.24572 -1.23574 0
M  V30 890 C 83.4317 3.58056 -2.34477 0
M  V30 891 C 82.7577 4.94593 -2.0318 0
M  V30 892 C 84.0577 3.61716 -3.76774 0
M  V30 893 H 85.7517 1.86395 -2.34302 0
M  V30 894 H 83.2977 0.895361 -1.1278 0
M  V30 895 H 85.2507 4.031 -1.22834 0
M  V30 896 H 83.9747 3.25587 -0.257045 0
M  V30 897 H 82.6337 2.81854 -2.34423 0
M  V30 898 H 82.2817 4.92181 -1.03765 0
M  V30 899 H 81.9817 5.17964 -2.77465 0
M  V30 900 H 83.5057 5.75486 -2.04079 0
M  V30 901 H 84.9197 4.30335 -3.78794 0
M  V30 902 H 83.3167 3.96603 -4.50362 0
M  V30 903 H 84.3867 2.61672 -4.08235 0
M  V30 904 N 85.7298 1.2412 0.971189 0
M  V30 905 C 86.6628 0.97373 2.06382 0
M  V30 906 C 87.6408 -0.0912662 1.62344 0
M  V30 907 O 88.8248 0.0449365 1.88446 0
M  V30 908 C 85.9518 0.468746 3.35441 0
M  V30 909 C 84.9978 1.52176 3.98428 0
M  V30 910 S 85.8308 3.10203 4.36503 0
M  V30 911 C 86.9868 2.61398 5.68702 0
M  V30 912 H 87.2198 1.89893 2.28753 0
M  V30 913 H 84.7528 1.07466 1.10862 0
M  V30 914 H 86.7108 0.184012 4.10087 0
M  V30 915 H 85.3718 -0.435688 3.11064 0
M  V30 916 H 84.5648 1.11876 4.91426 0
M  V30 917 H 84.1668 1.75632 3.30196 0
M  V30 918 H 86.4588 2.03992 6.4606 0
M  V30 919 H 87.4018 3.52972 6.13854 0
M  V30 920 H 87.8098 2.01941 5.27143 0
M  V30 921 N 87.2079 -1.17134 1.05439 0
M  V30 922 C 88.1179 -2.24878 0.668365 0
M  V30 923 C 89.1339 -1.71186 -0.311687 0
M  V30 924 O 90.3099 -2.00738 -0.163161 0
M  V30 925 C 87.3749 -3.46662 0.051648 0
M  V30 926 C 86.4359 -4.15429 1.08246 0
M  V30 927 C 85.6689 -5.31399 0.495082 0
M  V30 928 O 85.8919 -5.66153 -0.694743 0
M  V30 929 O 84.8259 -5.89187 1.23056 0
M  V30 930 H 88.6519 -2.60189 1.56637 0
M  V30 931 H 86.2369 -1.24482 0.826104 0
M  V30 932 H 88.1189 -4.20394 -0.290966 0
M  V30 933 H 86.7939 -3.13142 -0.819971 0
M  V30 934 H 85.7009 -3.43704 1.47711 0
M  V30 935 H 87.0339 -4.52982 1.92532 0
M  V30 936 N 88.686 -0.835752 -1.33615 0
M  V30 937 C 90.097 -0.487099 -1.80234 0
M  V30 938 C 90.448 0.993627 -1.69179 0
M  V30 939 O 89.573 1.77403 -1.23924 0
M  V30 940 C 90.168 -0.877385 -3.27242 0
M  V30 941 C 88.727 -0.580915 -3.7189 0
M  V30 942 C 87.874 -1.0874 -2.5509 0
M  V30 943 H 90.825 -1.02474 -1.2118 0
M  V30 944 H 90.846 -0.186195 -3.80044 0
M  V30 945 H 90.358 -1.95512 -3.35256 0
M  V30 946 H 88.459 0.486881 -3.69405 0
M  V30 947 H 88.572 -1.13396 -4.65487 0
M  V30 948 H 86.936 -0.508392 -2.49575 0
M  V30 949 H 87.719 -2.17184 -2.65868 0
M  V30 950 N 90.1641 1.46063 -0.591896 0
M  V30 951 C 91.3891 2.07226 -0.0850314 0
M  V30 952 C 91.8141 1.43625 1.21463 0
M  V30 953 O 91.1721 0.523305 1.73583 0
M  V30 954 C 91.2201 3.60554 0.0576567 0
M  V30 955 O 90.3241 3.97128 1.11188 0
M  V30 956 H 89.6651 0.660615 -0.0669568 0
M  V30 957 H 92.1951 1.8756 -0.81745 0
M  V30 958 H 92.2051 4.07165 0.2609 0
M  V30 959 H 90.8801 4.06235 -0.891416 0
M  V30 960 H 89.4571 3.62213 0.886356 0
M  V30 961 N 91.6422 0.330177 1.54103 0
M  V30 962 C 92.8672 -0.274893 2.0557 0
M  V30 963 C 93.2922 -1.44487 1.20437 0
M  V30 964 O 92.6502 -1.80021 0.214991 0
M  V30 965 C 92.6982 -0.68079 3.54115 0
M  V30 966 O 91.8022 -1.7824 3.71893 0
M  V30 967 H 91.1432 -0.0483849 0.662235 0
M  V30 968 H 93.6732 0.480508 1.98878 0
M  V30 969 H 93.6832 -0.961635 3.96505 0
M  V30 970 H 92.3582 0.174903 4.15532 0
M  V30 971 H 90.9352 -1.49985 3.41407 0
M  V30 972 N 93.1203 -1.57491 0.0584922 0
M  V30 973 C 94.3693 -1.92155 -0.613146 0
M  V30 974 C 94.6823 -0.939334 -1.71569 0
M  V30 975 O 95.8883 -1.17829 -2.44599 0
M  V30 976 C 94.3443 -3.41303 -1.14195 0
M  V30 977 C 93.9523 -4.47944 -0.0711265 0
M  V30 978 C 95.6963 -3.84988 -1.78841 0
M  V30 979 C 93.6033 -5.88212 -0.613225 0
M  V30 980 H 92.5333 -0.717162 -0.232796 0
M  V30 981 H 95.1843 -1.83049 0.12857 0
M  V30 982 H 93.5663 -3.45437 -1.93621 0
M  V30 983 H 94.7403 -4.55408 0.702836 0
M  V30 984 H 93.0553 -4.13644 0.478313 0
M  V30 985 H 95.6523 -4.87159 -2.20408 0
M  V30 986 H 95.9953 -3.21632 -2.64308 0
M  V30 987 H 96.5283 -3.83401 -1.06059 0
M  V30 988 H 93.2673 -6.55183 0.203978 0
M  V30 989 H 92.7873 -5.84294 -1.35501 0
M  V30 990 H 94.4663 -6.37687 -1.09383 0
M  V30 991 N 94.5984 0.214957 -1.56127 0
M  V30 992 C 95.5084 1.28727 -1.96129 0
M  V30 993 C 96.5244 1.50916 -0.866044 0
M  V30 994 O 97.7004 1.63918 -1.17016 0
M  V30 995 C 94.7654 2.61569 -2.27558 0
M  V30 996 C 93.8264 2.47625 -3.50685 0
M  V30 997 C 93.0594 3.74132 -3.80606 0
M  V30 998 O 93.2824 4.77438 -3.12104 0
M  V30 999 O 92.2164 3.70849 -4.74083 0
M  V30 1000 H 96.0424 0.977855 -2.87527 0
M  V30 1001 H 93.6274 0.418358 -1.43423 0
M  V30 1002 H 95.5094 3.40012 -2.48938 0
M  V30 1003 H 94.1844 2.92178 -1.39332 0
M  V30 1004 H 93.0914 1.67361 -3.34576 0
M  V30 1005 H 94.4244 2.21954 -4.39315 0
M  V30 1006 N 96.0765 1.50051 0.48192 0
M  V30 1007 C 97.0235 1.68122 1.58125 0
M  V30 1008 C 97.9935 0.522545 1.57666 0
M  V30 1009 O 99.1785 0.751844 1.75362 0
M  V30 1010 C 96.3185 1.77142 2.96167 0
M  V30 1011 C 95.4315 3.0444 3.06497 0
M  V30 1012 C 94.5665 3.04321 4.35387 0
M  V30 1013 C 93.6055 4.26118 4.3942 0
M  V30 1014 N 92.7425 4.238 5.59766 0
M  V30 1015 H 97.5825 2.6198 1.42022 0
M  V30 1016 H 95.1195 1.29877 0.690687 0
M  V30 1017 H 97.0775 1.80352 3.76203 0
M  V30 1018 H 95.7075 0.867329 3.1093 0
M  V30 1019 H 94.7595 3.10752 2.19402 0
M  V30 1020 H 96.0715 3.94426 3.05336 0
M  V30 1021 H 95.2255 3.062 5.23762 0
M  V30 1022 H 93.9645 2.12147 4.39141 0
M  V30 1023 H 92.9695 4.24463 3.49444 0
M  V30 1024 H 94.1945 5.19507 4.37366 0
M  V30 1025 H 92.1405 3.34474 5.64326 0
M  V30 1026 H 92.0575 5.07542 5.60301 0
M  V30 1027 H 93.3255 4.2981 6.50295 0
M  V30 1028 N 97.5546 -0.734337 1.39446 0
M  V30 1029 C 98.8036 -1.48937 1.36017 0
M  V30 1030 C 99.1166 -1.95557 -0.0409005 0
M  V30 1031 O 100.323 -2.70779 -0.19778 0
M  V30 1032 C 98.7786 -2.69125 2.38955 0
M  V30 1033 C 98.3866 -2.29452 3.8478 0
M  V30 1034 C 100.131 -3.46944 2.44603 0
M  V30 1035 C 98.0376 -3.46366 4.79358 0
M  V30 1036 H 96.9676 -0.559296 0.505672 0
M  V30 1037 H 99.6186 -0.800983 1.65095 0
M  V30 1038 H 98.0006 -3.40041 2.02948 0
M  V30 1039 H 99.1746 -1.66077 4.29831 0
M  V30 1040 H 97.4896 -1.64723 3.82433 0
M  V30 1041 H 100.087 -4.33907 3.12456 0
M  V30 1042 H 100.43 -3.89454 1.47076 0
M  V30 1043 H 100.963 -2.83056 2.79507 0
M  V30 1044 H 97.7016 -3.08905 5.78151 0
M  V30 1045 H 97.2216 -4.08719 4.38986 0
M  V30 1046 H 98.9006 -4.12691 4.98292 0
M  V30 1047 N 99.0327 -1.24633 -0.964593 0
M  V30 1048 C 100.279 -1.08949 -1.71049 0
M  V30 1049 C 100.612 0.370302 -1.90637 0
M  V30 1050 O 99.8867 1.27349 -1.47011 0
M  V30 1051 C 100.17 -1.83329 -3.0994 0
M  V30 1052 C 100.023 -3.37077 -2.97824 0
M  V30 1053 C 101.342 -1.60846 -4.09654 0
M  V30 1054 H 98.4607 -0.397178 -0.620821 0
M  V30 1055 H 101.103 -1.5334 -1.12191 0
M  V30 1056 H 99.2527 -1.45597 -3.60186 0
M  V30 1057 H 100.925 -3.84425 -2.5498 0
M  V30 1058 H 99.1677 -3.65298 -2.33965 0
M  V30 1059 H 99.8387 -3.84324 -3.96231 0
M  V30 1060 H 102.315 -1.93674 -3.68279 0
M  V30 1061 H 101.191 -2.1534 -5.04896 0
M  V30 1062 H 101.452 -0.547434 -4.38698 0
M  V30 1063 N 100.511 1.16574 -1.06058 0
M  V30 1064 C 101.421 2.2452 -0.680282 0
M  V30 1065 C 102.437 1.71348 0.302604 0
M  V30 1066 O 103.613 2.00822 0.152513 0
M  V30 1067 C 100.678 3.46629 -0.0700315 0
M  V30 1068 C 99.7388 4.14849 -1.10448 0
M  V30 1069 C 98.9718 5.31129 -0.523256 0
M  V30 1070 O 99.1948 5.66514 0.664709 0
M  V30 1071 O 98.1288 5.88526 -1.26179 0
M  V30 1072 H 101.955 2.59355 -1.58015 0
M  V30 1073 H 99.5398 1.24043 -0.832694 0
M  V30 1074 H 101.422 4.20543 0.268667 0
M  V30 1075 H 100.097 3.13573 0.803353 0
M  V30 1076 H 99.0038 3.42916 -1.49532 0
M  V30 1077 H 100.337 4.51954 -1.94931 0
M  V30 1078 N 101.989 0.842826 1.3317 0
M  V30 1079 C 103.238 0.436738 1.96915 0
M  V30 1080 C 103.551 -1.01025 1.67491 0
M  V30 1081 O 104.757 -1.5212 2.24881 0
M  V30 1082 C 103.213 0.730021 3.52418 0
M  V30 1083 C 102.821 2.19195 3.90714 0
M  V30 1084 C 104.565 0.391076 4.22695 0
M  V30 1085 C 102.472 2.42907 5.39212 0
M  V30 1086 H 101.402 0.15958 0.736919 0
M  V30 1087 H 104.053 1.03196 1.51733 0
M  V30 1088 H 102.435 0.0643755 3.95948 0
M  V30 1089 H 103.609 2.8984 3.58231 0
M  V30 1090 H 101.924 2.49425 3.33431 0
M  V30 1091 H 104.521 0.545817 5.31907 0
M  V30 1092 H 104.864 -0.666294 4.10933 0
M  V30 1093 H 105.397 1.01212 3.84709 0
M  V30 1094 H 102.136 3.47224 5.55982 0
M  V30 1095 H 101.656 1.76827 5.73142 0
M  V30 1096 H 103.335 2.2626 6.06148 0
M  V30 1097 N 103.467 -1.45747 0.599634 0
M  V30 1098 C 104.744 -1.95585 0.0240846 0
M  V30 1099 C 105.124 -1.54217 -1.44154 0
M  V30 1100 O 104.472 -0.800903 -2.14004 0
M  V30 1101 C 104.682 -3.48344 0.21385 0
M  V30 1102 C 106.03 -4.24504 0.0904902 0
M  V30 1103 O 107.054 -3.55911 0.143558 0
M  V30 1104 O 105.913 -5.46491 -0.0310766 0
M  V30 1105 H 103.007 -0.82602 -0.0402478 0
M  V30 1106 H 105.553 -1.55951 0.669139 0
M  V30 1107 H 104.325 -3.71397 1.23206 0
M  V30 1108 H 103.948 -3.9485 -0.466842 0
M  V30 1109 N 104.945 -0.338344 -1.53925 0
M  V30 1110 C 105.908 0.508299 -2.23493 0
M  V30 1111 C 106.908 1.03175 -1.23335 0
M  V30 1112 O 108.098 0.921826 -1.47811 0
M  V30 1113 C 105.23 1.70754 -2.95052 0
M  V30 1114 H 106.423 -0.100058 -2.99733 0
M  V30 1115 H 103.976 -0.0896198 -1.56043 0
M  V30 1116 H 104.711 2.35474 -2.22986 0
M  V30 1117 H 104.496 1.33946 -3.68512 0
M  V30 1118 H 105.986 2.30818 -3.48013 0
M  V30 1119 N 106.423 1.57458 -0.0668435 0
M  V30 1120 C 107.373 2.0896 0.912119 0
M  V30 1121 C 108.357 0.998186 1.26195 0
M  V30 1122 O 109.549 1.26133 1.24175 0
M  V30 1123 C 106.678 2.6508 2.18145 0
M  V30 1124 C 105.764 3.81218 1.85832 0
M  V30 1125 N 106.155 4.90378 1.23948 0
M  V30 1126 C 104.453 3.9042 2.15612 0
M  V30 1127 C 105.154 5.71279 1.09616 0
M  V30 1128 N 104.13 5.19389 1.60423 0
M  V30 1129 H 107.932 2.90749 0.42924 0
M  V30 1130 H 105.446 1.6182 0.137184 0
M  V30 1131 H 107.443 3.0029 2.89192 0
M  V30 1132 H 106.103 1.84736 2.67025 0
M  V30 1133 H 107.114 5.09847 0.909731 0
M  V30 1134 H 103.791 3.21043 2.66903 0
M  V30 1135 H 105.181 6.69085 0.614425 0
M  V30 1136 N 107.901 -0.206675 1.56239 0
M  V30 1137 C 109.15 -0.926964 1.79138 0
M  V30 1138 C 109.463 -1.84901 0.638043 0
M  V30 1139 O 110.669 -2.60906 0.751033 0
M  V30 1140 C 109.125 -1.6986 3.17294 0
M  V30 1141 C 108.733 -0.821956 4.40395 0
M  V30 1142 C 110.477 -2.40922 3.4951 0
M  V30 1143 C 108.384 -1.59179 5.69575 0
M  V30 1144 H 107.314 -0.349864 0.667915 0
M  V30 1145 H 109.965 -0.180487 1.8261 0
M  V30 1146 H 108.347 -2.48853 3.08039 0
M  V30 1147 H 109.521 -0.0715019 4.60745 0
M  V30 1148 H 107.836 -0.222741 4.15804 0
M  V30 1149 H 110.433 -2.99047 4.43255 0
M  V30 1150 H 110.776 -3.14542 2.72707 0
M  V30 1151 H 111.309 -1.68905 3.60161 0
M  V30 1152 H 108.048 -0.898589 6.49312 0
M  V30 1153 H 107.568 -2.31648 5.53262 0
M  V30 1154 H 109.247 -2.14862 6.10281 0
M  V30 1155 N 109.379 -1.50304 -0.473955 0
M  V30 1156 C 110.627 -1.60832 -1.22382 0
M  V30 1157 C 110.948 -0.30939 -1.9253 0
M  V30 1158 O 110.218 0.67296 -1.83978 0
M  V30 1159 H 108.798 -0.592652 -0.454723 0
M  V30 1160 H 111.46 -1.87068 -0.546968 0
M  V30 1161 H 110.556 -2.41803 -1.97327 0
M  V30 1162 N 110.857 0.726932 -1.39834 0
M  V30 1163 C 112.097 1.4992 -1.38936 0
M  V30 1164 C 112.461 1.91996 0.0126883 0
M  V30 1165 O 113.662 2.68399 0.146715 0
M  V30 1166 C 111.933 2.70013 -2.34153 0
M  V30 1167 S 113.492 3.59563 -2.51515 0
M  V30 1168 H 110.31 0.51271 -0.492595 0
M  V30 1169 H 112.912 0.85107 -1.76003 0
M  V30 1170 H 111.616 2.37254 -3.34871 0
M  V30 1171 H 111.147 3.39748 -1.98331 0
M  V30 1172 H 113.162 4.63973 -1.75909 0
M  V30 1173 N 112.336 1.25143 0.95797 0
M  V30 1174 C 113.299 1.05321 2.03569 0
M  V30 1175 C 114.299 0.007152 1.60798 0
M  V30 1176 O 115.489 0.24903 1.72411 0
M  V30 1177 C 112.621 0.598394 3.35607 0
M  V30 1178 H 113.814 2.00986 2.22586 0
M  V30 1179 H 111.367 1.07502 1.13459 0
M  V30 1180 H 112.102 -0.361014 3.22284 0
M  V30 1181 H 111.887 1.35351 3.67998 0
M  V30 1182 H 113.377 0.48104 4.1482 0
M  V30 1183 N 113.814 -1.1601 1.06675 0
M  V30 1184 C 114.747 -2.1947 0.625168 0
M  V30 1185 C 115.725 -1.58699 -0.354041 0
M  V30 1186 O 116.909 -1.86669 -0.262098 0
M  V30 1187 C 114.036 -3.38598 -0.0829593 0
M  V30 1188 C 113.082 -4.1787 0.853611 0
M  V30 1189 S 113.915 -4.81135 2.35094 0
M  V30 1190 C 115.071 -6.03639 1.65441 0
M  V30 1191 H 115.304 -2.56587 1.50168 0
M  V30 1192 H 112.837 -1.26862 0.880078 0
M  V30 1193 H 114.795 -4.07621 -0.485288 0
M  V30 1194 H 113.456 -2.99839 -0.935716 0
M  V30 1195 H 112.649 -5.03078 0.304755 0
M  V30 1196 H 112.251 -3.54361 1.196 0
M  V30 1197 H 114.543 -6.70632 0.962201 0
M  V30 1198 H 115.486 -6.63081 2.48454 0
M  V30 1199 H 115.894 -5.52965 1.13534 0
M  V30 1200 N 115.292 -0.849877 -1.32721 0
M  V30 1201 C 116.517 -0.463856 -2.02146 0
M  V30 1202 C 116.942 0.930449 -1.63476 0
M  V30 1203 O 116.3 1.61033 -0.832952 0
M  V30 1204 C 116.348 -0.604955 -3.55489 0
M  V30 1205 O 115.452 0.36425 -4.10788 0
M  V30 1206 H 114.793 -0.187046 -0.637111 0
M  V30 1207 H 117.323 -1.14775 -1.69375 0
M  V30 1208 H 117.333 -0.490696 -4.05038 0
M  V30 1209 H 116.008 -1.62174 -3.82978 0
M  V30 1210 H 114.585 0.206628 -3.72327 0
M  V30 1211 N 116.77 1.45427 -0.607355 0
M  V30 1212 C 118.018 2.01841 -0.102253 0
M  V30 1213 C 118.339 1.47832 1.27164 0
M  V30 1214 O 117.609 0.672497 1.83995 0
M  V30 1215 H 116.189 0.746188 -0.0348101 0
M  V30 1216 H 118.851 1.78229 -0.7887 0
M  V30 1217 H 117.947 3.12057 -0.0518585 0
M  V30 1218 N 118.248 0.346503 1.53744 0
M  V30 1219 C 119.178 -0.501193 2.28058 0
M  V30 1220 C 120.159 -1.10014 1.29734 0
M  V30 1221 O 121.344 -1.12097 1.58581 0
M  V30 1222 C 118.474 -1.65078 3.05559 0
M  V30 1223 C 117.428 -1.18003 4.11411 0
M  V30 1224 C 116.754 -2.41837 4.76884 0
M  V30 1225 C 118.054 -0.278394 5.21558 0
M  V30 1226 H 119.748 0.11875 2.99164 0
M  V30 1227 H 117.294 0.0585531 1.43881 0
M  V30 1228 H 119.247 -2.25028 3.56287 0
M  V30 1229 H 117.971 -2.29767 2.32109 0
M  V30 1230 H 116.63 -0.603331 3.61601 0
M  V30 1231 H 116.278 -3.0494 4.00026 0
M  V30 1232 H 115.978 -2.1102 5.48402 0
M  V30 1233 H 117.502 -3.02508 5.30397 0
M  V30 1234 H 118.916 -0.784823 5.67903 0
M  V30 1235 H 117.313 -0.0619707 6.00068 0
M  V30 1236 H 118.383 0.684677 4.80042 0
M  V30 1237 N 119.726 -1.57421 0.075193 0
M  V30 1238 C 120.975 -1.92794 -0.592731 0
M  V30 1239 C 121.288 -0.957478 -1.70563 0
M  V30 1240 O 122.494 -1.20417 -2.43335 0
M  V30 1241 C 120.95 -3.42495 -1.10569 0
M  V30 1242 C 120.558 -4.47994 -0.0236121 0
M  V30 1243 C 122.302 -3.86864 -1.74748 0
M  V30 1244 C 120.209 -5.88829 -0.550803 0
M  V30 1245 H 119.139 -0.719591 -0.225177 0
M  V30 1246 H 121.79 -1.82902 0.147978 0
M  V30 1247 H 120.172 -3.47471 -1.89947 0
M  V30 1248 H 121.346 -4.54637 0.751099 0
M  V30 1249 H 119.661 -4.13113 0.522159 0
M  V30 1250 H 122.258 -4.8947 -2.15229 0
M  V30 1251 H 122.601 -3.24417 -2.60882 0
M  V30 1252 H 123.134 -3.84504 -1.01986 0
M  V30 1253 H 119.873 -6.54929 0.273457 0
M  V30 1254 H 119.393 -5.85698 -1.29296 0
M  V30 1255 H 121.072 -6.38811 -1.02613 0
M  V30 1256 N 121.204 0.198386 -1.56346 0
M  V30 1257 C 122.167 1.22952 -1.93431 0
M  V30 1258 C 123.167 1.38611 -0.815092 0
M  V30 1259 O 124.357 1.36479 -1.08255 0
M  V30 1260 C 121.489 2.59946 -2.20546 0
M  V30 1261 H 122.682 0.912626 -2.85677 0
M  V30 1262 H 120.235 0.43977 -1.49986 0
M  V30 1263 H 120.97 2.96696 -1.30927 0
M  V30 1264 H 120.755 2.49953 -3.02102 0
M  V30 1265 H 122.245 3.3431 -2.50253 0
M  V30 1266 N 122.682 1.50554 0.465978 0
M  V30 1267 C 123.959 1.5232 1.22712 0
M  V30 1268 C 124.339 0.270807 2.09356 0
M  V30 1269 O 123.687 -0.745541 2.15995 0
M  V30 1270 C 123.897 2.82175 2.05374 0
M  V30 1271 C 125.245 3.33033 2.6339 0
M  V30 1272 O 126.269 2.83531 2.15612 0
M  V30 1273 O 125.128 4.19336 3.50456 0
M  V30 1274 H 122.222 0.611183 0.557122 0
M  V30 1275 H 124.768 1.62847 0.477381 0
M  V30 1276 H 123.54 3.64797 1.41558 0
M  V30 1277 H 123.163 2.74675 2.87471 0
M  V30 1278 N 124.16 -0.719506 1.40217 0
M  V30 1279 C 125.123 -1.8153 1.39927 0
M  V30 1280 C 126.123 -1.58095 0.293723 0
M  V30 1281 O 127.313 -1.65209 0.552429 0
M  V30 1282 C 124.445 -3.19561 1.18716 0
M  V30 1283 H 125.638 -1.83186 2.37451 0
M  V30 1284 H 123.191 -0.924746 1.26008 0
M  V30 1285 H 123.926 -3.23557 0.219366 0
M  V30 1286 H 123.711 -3.3797 1.98793 0
M  V30 1287 H 125.201 -3.99598 1.21291 0
M  V30 1288 N 125.638 -1.25649 -0.95132 0
M  V30 1289 C 126.585 -1.06323 -2.04851 0
M  V30 1290 C 127.555 0.0286491 -1.66075 0
M  V30 1291 O 128.74 -0.12917 -1.90362 0
M  V30 1292 C 125.88 -0.691529 -3.381 0
M  V30 1293 C 124.993 -1.85861 -3.89974 0
M  V30 1294 C 124.128 -1.43096 -5.11563 0
M  V30 1295 C 123.167 -2.56696 -5.55674 0
M  V30 1296 N 122.304 -2.14684 -6.68472 0
M  V30 1297 H 127.144 -2.00222 -2.20715 0
M  V30 1298 H 124.681 -0.997027 -1.08156 0
M  V30 1299 H 126.639 -0.456963 -4.1469 0
M  V30 1300 H 125.269 0.210474 -3.22113 0
M  V30 1301 H 124.321 -2.20639 -3.09875 0
M  V30 1302 H 125.633 -2.71161 -4.18657 0
M  V30 1303 H 124.787 -1.15624 -5.9558 0
M  V30 1304 H 123.526 -0.548722 -4.84603 0
M  V30 1305 H 122.531 -2.84909 -4.7022 0
M  V30 1306 H 123.756 -3.45503 -5.8464 0
M  V30 1307 H 121.702 -1.28881 -6.43215 0
M  V30 1308 H 121.619 -2.9353 -6.96689 0
M  V30 1309 H 122.887 -1.90397 -7.5589 0
M  V30 1310 N 127.117 1.15442 -1.07289 0
M  V30 1311 C 128.345 1.90096 -0.81676 0
M  V30 1312 C 128.76 1.7798 0.629966 0
M  V30 1313 O 128.117 1.1313 1.43206 0
M  V30 1314 C 128.168 3.40466 -1.21512 0
M  V30 1315 O 127.889 3.52232 -2.60508 0
M  V30 1316 C 129.39 4.32145 -0.988198 0
M  V30 1317 H 126.61 0.602495 -0.295366 0
M  V30 1318 H 129.154 1.4627 -1.42918 0
M  V30 1319 H 127.309 3.81958 -0.647039 0
M  V30 1320 H 127.723 4.45549 -2.76742 0
M  V30 1321 H 129.197 5.36072 -1.31645 0
M  V30 1322 H 129.674 4.39135 0.0755063 0
M  V30 1323 H 130.28 3.96395 -1.54115 0
M  V30 1324 N 128.595 0.856903 1.32268 0
M  V30 1325 C 129.525 0.31858 2.31316 0
M  V30 1326 C 130.506 -0.583487 1.59779 0
M  V30 1327 O 131.691 -0.503259 1.87566 0
M  V30 1328 C 128.821 -0.491979 3.43798 0
M  V30 1329 C 127.775 0.315849 4.26833 0
M  V30 1330 C 127.101 -0.619586 5.31098 0
M  V30 1331 C 128.401 1.54282 4.98993 0
M  V30 1332 H 130.095 1.14621 2.76591 0
M  V30 1333 H 127.641 0.552613 1.32974 0
M  V30 1334 H 129.594 -0.879012 4.1213 0
M  V30 1335 H 128.318 -1.35299 2.97257 0
M  V30 1336 H 126.977 0.684664 3.6015 0
M  V30 1337 H 126.625 -1.47751 4.8081 0
M  V30 1338 H 126.325 -0.0830621 5.87541 0
M  V30 1339 H 127.849 -1.00375 6.02293 0
M  V30 1340 H 129.263 1.22796 5.59995 0
M  V30 1341 H 127.66 2.01745 5.65172 0
M  V30 1342 H 128.73 2.30285 4.26728 0
M  V30 1343 N 130.073 -1.45103 0.615059 0
M  V30 1344 C 131.322 -2.01396 0.110718 0
M  V30 1345 C 131.635 -1.48834 -1.26916 0
M  V30 1346 O 132.841 -1.97152 -1.86664 0
M  V30 1347 C 131.297 -3.59599 0.14723 0
M  V30 1348 C 130.905 -4.21158 1.52743 0
M  V30 1349 C 132.649 -4.23428 -0.30148 0
M  V30 1350 C 130.556 -5.71535 1.51992 0
M  V30 1351 H 129.486 -0.753061 0.0376241 0
M  V30 1352 H 132.137 -1.66494 0.77149 0
M  V30 1353 H 130.519 -3.91724 -0.580339 0
M  V30 1354 H 131.693 -4.00594 2.2773 0
M  V30 1355 H 130.008 -3.69552 1.91886 0
M  V30 1356 H 132.605 -5.33703 -0.326392 0
M  V30 1357 H 132.948 -3.94629 -1.32565 0
M  V30 1358 H 133.481 -3.96047 0.373065 0
M  V30 1359 H 130.22 -6.05044 2.52193 0
M  V30 1360 H 129.74 -5.94268 0.81274 0
M  V30 1361 H 131.419 -6.34873 1.24681 0
M  V30 1362 N 131.551 -0.354651 -1.53558 0
M  V30 1363 C 132.828 0.294281 -1.93374 0
M  V30 1364 C 133.208 1.67313 -1.28723 0
M  V30 1365 O 132.556 2.24179 -0.442247 0
M  V30 1366 C 132.766 0.355445 -3.47185 0
M  V30 1367 C 134.114 0.601007 -4.20325 0
M  V30 1368 O 135.138 0.437106 -3.53508 0
M  V30 1369 O 133.997 0.919322 -5.38712 0
M  V30 1370 H 131.091 0.174033 -0.808481 0
M  V30 1371 H 133.637 -0.406638 -1.64756 0
M  V30 1372 H 132.409 -0.611729 -3.86489 0
M  V30 1373 H 132.032 1.1027 -3.82003 0
M  V30 1374 N 133.029 1.57378 -0.0835403 0
M  V30 1375 C 133.976 2.13384 0.879539 0
M  V30 1376 C 134.946 1.04936 1.28754 0
M  V30 1377 O 136.131 1.32662 1.37133 0
M  V30 1378 C 133.271 2.70932 2.13752 0
M  V30 1379 C 132.384 3.93575 1.7811 0
M  V30 1380 C 131.519 4.39326 2.98607 0
M  V30 1381 C 130.558 5.54587 2.59037 0
M  V30 1382 N 129.695 5.95243 3.72331 0
M  V30 1383 H 134.535 2.9537 0.395076 0
M  V30 1384 H 132.072 1.45953 0.183349 0
M  V30 1385 H 134.03 3.02411 2.87408 0
M  V30 1386 H 132.66 1.91693 2.59718 0
M  V30 1387 H 131.712 3.68483 0.94469 0
M  V30 1388 H 133.024 4.77258 1.45005 0
M  V30 1389 H 132.178 4.72528 3.80529 0
M  V30 1390 H 130.917 3.5452 3.34913 0
M  V30 1391 H 129.922 5.21024 1.75539 0
M  V30 1392 H 131.147 6.41133 2.23887 0
M  V30 1393 H 129.093 5.13385 4.08378 0
M  V30 1394 H 129.01 6.73694 3.43034 0
M  V30 1395 H 130.278 6.33072 4.54797 0
M  V30 1396 N 134.507 -0.190092 1.56449 0
M  V30 1397 C 135.47 -1.21925 1.9408 0
M  V30 1398 C 136.47 -1.38176 0.822431 0
M  V30 1399 O 137.66 -1.35903 1.08977 0
M  V30 1400 C 134.792 -2.58773 2.21922 0
M  V30 1401 H 135.985 -0.897464 2.86157 0
M  V30 1402 H 133.538 -0.43181 1.50217 0
M  V30 1403 H 134.273 -2.95998 1.32499 0
M  V30 1404 H 134.058 -2.48348 3.03424 0
M  V30 1405 H 135.548 -3.32978 2.52022 0
M  V30 1406 N 135.985 -1.50799 -0.457987 0
M  V30 1407 C 137.401 -1.38515 -0.792819 0
M  V30 1408 C 137.601 -0.451409 -1.96379 0
M  V30 1409 O 136.657 0.10112 -2.52297 0
M  V30 1410 C 137.97 -2.80149 -1.09258 0
M  V30 1411 C 139.518 -2.89156 -1.19825 0
M  V30 1412 C 139.993 -4.31651 -1.53106 0
M  V30 1413 N 141.484 -4.34662 -1.60072 0
M  V30 1414 C 142.219 -5.41928 -1.87354 0
M  V30 1415 N 141.715 -6.59384 -2.12568 0
M  V30 1416 N 143.508 -5.29385 -1.88965 0
M  V30 1417 H 135.659 -2.10073 0.313511 0
M  V30 1418 H 137.922 -0.944803 0.0777862 0
M  V30 1419 H 137.628 -3.50374 -0.305084 0
M  V30 1420 H 137.502 -3.18204 -2.02549 0
M  V30 1421 H 139.889 -2.19141 -1.97639 0
M  V30 1422 H 139.97 -2.54626 -0.244821 0
M  V30 1423 H 139.614 -5.02208 -0.758266 0
M  V30 1424 H 139.544 -4.63678 -2.49621 0
M  V30 1425 H 142.035 -3.49973 -1.42573 0
M  V30 1426 H 142.348 -7.36934 -2.32696 0
M  V30 1427 H 140.693 -6.62535 -2.09933 0
M  V30 1428 H 143.884 -4.36616 -1.68772 0
M  V30 1429 H 144.057 -6.13066 -2.09891 0
M  V30 1430 N 137.463 0.71206 -1.40597 0
M  V30 1431 C 138.709 1.47416 -1.39271 0
M  V30 1432 C 139.042 1.942 0.00388791 0
M  V30 1433 O 138.317 1.68403 0.973179 0
M  V30 1434 C 138.6 2.69774 -2.38525 0
M  V30 1435 C 138.453 2.28861 -3.87224 0
M  V30 1436 C 139.772 3.71939 -2.35264 0
M  V30 1437 H 136.891 0.534713 -0.5072 0
M  V30 1438 H 139.533 0.812375 -1.71757 0
M  V30 1439 H 137.683 3.26238 -2.10953 0
M  V30 1440 H 139.355 1.77852 -4.25636 0
M  V30 1441 H 137.598 1.60824 -4.02887 0
M  V30 1442 H 138.269 3.16584 -4.52193 0
M  V30 1443 H 140.745 3.25113 -2.59694 0
M  V30 1444 H 139.621 4.55186 -3.06753 0
M  V30 1445 H 139.882 4.20484 -1.36549 0
M  V30 1446 N 138.941 1.26152 0.944643 0
M  V30 1447 C 139.851 1.09176 2.07648 0
M  V30 1448 C 140.867 0.0261935 1.7398 0
M  V30 1449 O 142.043 0.229208 2.00091 0
M  V30 1450 C 139.108 0.722915 3.39079 0
M  V30 1451 C 138.169 1.86752 3.86552 0
M  V30 1452 C 137.402 1.51617 5.11711 0
M  V30 1453 O 137.625 0.416331 5.68879 0
M  V30 1454 O 136.559 2.34975 5.54139 0
M  V30 1455 H 140.385 2.0412 2.24875 0
M  V30 1456 H 137.97 1.05182 1.061 0
M  V30 1457 H 139.852 0.529787 4.18056 0
M  V30 1458 H 138.527 -0.197159 3.23099 0
M  V30 1459 H 137.434 2.11558 3.08535 0
M  V30 1460 H 138.767 2.76719 4.07047 0
M  V30 1461 N 140.419 -1.14872 1.07899 0
M  V30 1462 C 141.647 -1.89661 0.82683 0
M  V30 1463 C 142.062 -1.78312 -0.620519 0
M  V30 1464 O 141.419 -1.13888 -1.42604 0
M  V30 1465 C 141.47 -3.39817 1.23316 0
M  V30 1466 O 141.191 -3.50845 2.62372 0
M  V30 1467 C 142.692 -4.31615 1.0111 0
M  V30 1468 H 139.912 -0.60092 0.298557 0
M  V30 1469 H 142.456 -1.4551 1.43691 0
M  V30 1470 H 140.611 -3.8161 0.667286 0
M  V30 1471 H 141.025 -4.44076 2.79101 0
M  V30 1472 H 142.499 -5.35367 1.34486 0
M  V30 1473 H 142.976 -4.39169 -0.0522168 0
M  V30 1474 H 143.582 -3.95572 1.56215 0
M  V30 1475 N 141.898 -0.863906 -1.31812 0
M  V30 1476 C 142.83 -0.272485 -2.27575 0
M  V30 1477 C 143.843 0.56104 -1.52827 0
M  V30 1478 O 145.032 0.384021 -1.7432 0
M  V30 1479 C 142.132 0.63283 -3.32939 0
M  V30 1480 C 141.305 -0.166902 -4.37081 0
M  V30 1481 C 140.364 0.665608 -5.21973 0
M  V30 1482 O 139.39 0.0958091 -5.69119 0
M  V30 1483 N 140.592 1.9787 -5.45736 0
M  V30 1484 H 143.357 -1.0954 -2.78964 0
M  V30 1485 H 140.918 -0.724791 -1.4477 0
M  V30 1486 H 142.91 1.19532 -3.86645 0
M  V30 1487 H 141.48 1.35642 -2.81638 0
M  V30 1488 H 140.7 -0.910838 -3.83533 0
M  V30 1489 H 141.988 -0.715874 -5.03739 0
M  V30 1490 H 141.386 2.46484 -5.09178 0
M  V30 1491 H 139.943 2.48911 -6.024 0
M  V30 1492 N 143.376 1.44774 -0.622745 0
M  V30 1493 C 144.324 2.32387 0.0994683 0
M  V30 1494 C 145.318 1.46859 0.844326 0
M  V30 1495 O 146.524 1.63254 0.758174 0
M  V30 1496 H 142.899 0.750273 0.0509291 0
M  V30 1497 H 144.87 2.91062 -0.65767 0
M  V30 1498 C 143.619 3.30723 1.07319 0
M  V30 1499 H 142.942 3.96541 0.509462 0
M  V30 1500 H 144.382 3.94725 1.54817 0
M  V30 1501 C 142.841 2.59021 2.15429 0
M  V30 1502 O 143.371 2.38286 3.23393 0
M  V30 1503 N 141.577 2.189 1.91131 0
M  V30 1504 H 141.124 2.35964 1.03337 0
M  V30 1505 H 141.082 1.71251 2.63668 0
M  V30 1506 N 144.854 0.36279 1.53368 0
M  V30 1507 C 145.804 -0.501391 2.22419 0
M  V30 1508 C 146.788 -1.0509 1.2184 0
M  V30 1509 O 147.98 -0.981404 1.47301 0
M  V30 1510 C 145.109 -1.64201 3.01484 0
M  V30 1511 C 144.195 -1.10552 4.09438 0
M  V30 1512 N 144.586 -0.291788 5.04958 0
M  V30 1513 C 142.884 -1.3806 4.24094 0
M  V30 1514 C 143.585 0.00162655 5.817 0
M  V30 1515 N 142.561 -0.595244 5.40331 0
M  V30 1516 H 146.363 0.127159 2.93625 0
M  V30 1517 H 143.877 0.170658 1.61501 0
M  V30 1518 H 145.874 -2.27326 3.49469 0
M  V30 1519 H 144.534 -2.27365 2.31809 0
M  V30 1520 H 145.545 0.0687731 5.17854 0
M  V30 1521 H 142.222 -2.01522 3.65644 0
M  V30 1522 H 143.612 0.659278 6.68658 0
M  V30 1523 N 146.332 -1.57332 0.0918853 0
M  V30 1524 C 147.578 -1.95328 -0.567313 0
M  V30 1525 C 147.933 -0.972866 -1.65991 0
M  V30 1526 O 147.226 0.00166256 -1.916 0
M  V30 1527 C 147.42 -3.37689 -1.17051 0
M  V30 1528 C 147.249 -4.49489 -0.137875 0
M  V30 1529 C 146.019 -5.04498 0.284515 0
M  V30 1530 C 148.217 -5.10393 0.63271 0
M  V30 1531 N 146.199 -5.99853 1.30576 0
M  V30 1532 C 147.57 -6.01435 1.50587 0
M  V30 1533 C 149.625 -4.93143 0.68658 0
M  V30 1534 C 148.328 -6.77077 2.42815 0
M  V30 1535 C 150.354 -5.69445 1.59645 0
M  V30 1536 C 149.716 -6.60151 2.45725 0
M  V30 1537 H 145.815 -0.761467 -0.178023 0
M  V30 1538 H 148.399 -1.93924 0.173706 0
M  V30 1539 H 146.57 -3.39793 -1.88136 0
M  V30 1540 H 148.302 -3.62872 -1.79181 0
M  V30 1541 H 145.057 -4.73489 -0.102593 0
M  V30 1542 H 145.481 -6.52231 1.81449 0
M  V30 1543 H 150.123 -4.22785 0.035244 0
M  V30 1544 H 147.841 -7.46699 3.08975 0
M  V30 1545 H 151.427 -5.58112 1.64323 0
M  V30 1546 H 150.307 -7.18159 3.14987 0
M  V30 1547 N 147.81 0.181792 -1.56548 0
M  V30 1548 C 149.057 0.900097 -1.81396 0
M  V30 1549 C 149.385 1.82695 -0.667281 0
M  V30 1550 O 148.64 1.92614 0.346146 0
M  V30 1551 C 148.939 1.73728 -3.12335 0
M  V30 1552 C 148.605 0.960255 -4.40556 0
M  V30 1553 C 147.267 0.745766 -4.75386 0
M  V30 1554 C 149.619 0.414477 -5.19549 0
M  V30 1555 C 146.947 -0.0257694 -5.86694 0
M  V30 1556 C 149.299 -0.343916 -6.31664 0
M  V30 1557 C 147.963 -0.569301 -6.65068 0
M  V30 1558 H 147.233 0.329369 -0.663775 0
M  V30 1559 H 149.88 0.165647 -1.90782 0
M  V30 1560 H 148.185 2.54081 -2.98245 0
M  V30 1561 H 149.882 2.29591 -3.28769 0
M  V30 1562 H 146.472 1.13746 -4.13231 0
M  V30 1563 H 150.656 0.567554 -4.93044 0
M  V30 1564 H 145.912 -0.210233 -6.11038 0
M  V30 1565 H 150.086 -0.774133 -6.92084 0
M  V30 1566 H 147.713 -1.16903 -7.51158 0
M  V30 1567 N 149.288 1.51039 0.449983 0
M  V30 1568 C 150.516 1.66869 1.2232 0
M  V30 1569 C 150.931 0.360727 1.85322 0
M  V30 1570 O 150.288 -0.659531 1.70166 0
M  V30 1571 C 150.339 2.77524 2.31652 0
M  V30 1572 O 150.06 4.03252 1.7123 0
M  V30 1573 C 151.561 3.04512 3.2216 0
M  V30 1574 H 148.781 0.560326 0.369155 0
M  V30 1575 H 151.325 1.97385 0.534719 0
M  V30 1576 H 149.48 2.49642 2.96239 0
M  V30 1577 H 149.894 4.64609 2.43389 0
M  V30 1578 H 151.368 3.85551 3.95038 0
M  V30 1579 H 151.845 2.16415 3.8218 0
M  V30 1580 H 152.451 3.34005 2.63288 0
M  V30 1581 N 150.766 -0.704594 1.40972 0
M  V30 1582 C 151.996 -1.49138 1.42974 0
M  V30 1583 C 152.404 -1.89175 0.0308406 0
M  V30 1584 O 151.747 -1.56734 -0.958138 0
M  V30 1585 C 151.809 -2.79016 2.26694 0
M  V30 1586 C 151.473 -2.61236 3.74973 0
M  V30 1587 C 152.47 -2.27773 4.67349 0
M  V30 1588 C 150.155 -2.77158 4.18914 0
M  V30 1589 C 152.149 -2.10457 6.01653 0
M  V30 1590 C 149.836 -2.59459 5.53285 0
M  V30 1591 C 150.834 -2.26158 6.4447 0
M  V30 1592 O 150.522 -2.08605 7.76363 0
M  V30 1593 H 150.254 -0.466443 0.489292 0
M  V30 1594 H 152.808 -0.8758 1.85793 0
M  V30 1595 H 151.038 -3.42947 1.78673 0
M  V30 1596 H 152.727 -3.40782 2.20504 0
M  V30 1597 H 153.493 -2.15095 4.34694 0
M  V30 1598 H 149.372 -3.02064 3.48251 0
M  V30 1599 H 152.916 -1.84387 6.72791 0
M  V30 1600 H 148.813 -2.71725 5.85522 0
M  V30 1601 H 149.581 -2.23439 7.87412 0
M  V30 1602 N 152.244 -1.26651 -0.937939 0
M  V30 1603 C 153.192 -1.08308 -2.05845 0
M  V30 1604 C 154.186 -0.0090757 -1.69398 0
M  V30 1605 O 155.392 -0.166007 -1.79233 0
M  V30 1606 H 151.767 -0.333416 -0.674046 0
M  V30 1607 H 153.738 -2.03261 -2.18467 0
M  V30 1608 C 152.487 -0.736229 -3.39816 0
M  V30 1609 H 151.81 -1.55453 -3.6834 0
M  V30 1610 H 153.25 -0.64769 -4.19024 0
M  V30 1611 C 151.709 0.558824 -3.32233 0
M  V30 1612 O 152.239 1.59621 -3.68624 0
M  V30 1613 N 150.445 0.550657 -2.85335 0
M  V30 1614 H 149.992 -0.293943 -2.55917 0
M  V30 1615 H 149.95 1.41726 -2.80644 0
M  V30 1616 N 153.722 1.14298 -1.08507 0
M  V30 1617 C 154.632 2.23027 -0.727753 0
M  V30 1618 C 155.648 1.71952 0.26619 0
M  V30 1619 O 156.824 2.011 0.109882 0
M  V30 1620 C 153.889 3.46403 -0.143541 0
M  V30 1621 C 152.95 4.12413 -1.19223 0
M  V30 1622 C 152.183 5.29899 -0.635798 0
M  V30 1623 O 152.406 5.67796 0.544393 0
M  V30 1624 O 151.34 5.85717 -1.38634 0
M  V30 1625 H 155.166 2.55945 -1.63481 0
M  V30 1626 H 152.751 1.22248 -0.858817 0
M  V30 1627 H 154.633 4.21018 0.179404 0
M  V30 1628 H 153.308 3.15206 0.736659 0
M  V30 1629 H 152.215 3.39667 -1.56772 0
M  V30 1630 H 153.548 4.47718 -2.04474 0
M  V30 1631 N 155.201 0.870884 1.31352 0
M  V30 1632 C 156.429 0.49677 2.00848 0
M  V30 1633 C 156.844 -0.910998 1.65367 0
M  V30 1634 O 156.201 -1.59696 0.883374 0
M  V30 1635 C 156.252 0.645308 3.55694 0
M  V30 1636 O 155.973 1.99764 3.89905 0
M  V30 1637 C 157.474 0.272326 4.42463 0
M  V30 1638 H 154.694 0.193462 0.642506 0
M  V30 1639 H 157.238 1.1723 1.67563 0
M  V30 1640 H 155.393 0.0173176 3.87396 0
M  V30 1641 H 155.807 2.00607 4.84621 0
M  V30 1642 H 157.281 0.427208 5.50344 0
M  V30 1643 H 157.758 -0.788587 4.32062 0
M  V30 1644 H 158.364 0.876054 4.1618 0
M  V30 1645 N 156.679 -1.44442 0.630414 0
M  V30 1646 C 157.612 -2.27862 -0.124247 0
M  V30 1647 C 158.59 -1.38495 -0.851931 0
M  V30 1648 O 159.774 -1.67935 -0.856166 0
M  V30 1649 C 156.901 -3.17407 -1.18197 0
M  V30 1650 C 155.947 -4.22875 -0.554892 0
M  V30 1651 S 156.78 -5.31485 0.654489 0
M  V30 1652 C 157.936 -6.246 -0.40326 0
M  V30 1653 H 158.169 -2.91519 0.583435 0
M  V30 1654 H 155.702 -1.48618 0.418565 0
M  V30 1655 H 157.66 -3.69549 -1.78728 0
M  V30 1656 H 156.321 -2.52971 -1.86184 0
M  V30 1657 H 155.514 -4.85542 -1.35148 0
M  V30 1658 H 155.116 -3.73992 -0.0242105 0
M  V30 1659 H 157.408 -6.65375 -1.27602 0
M  V30 1660 H 158.351 -7.07851 0.187813 0
M  V30 1661 H 158.759 -5.59775 -0.728837 0
M  V30 1662 N 158.157 -0.370918 -1.53173 0
M  V30 1663 C 159.385 0.217704 -2.05751 0
M  V30 1664 C 159.8 1.42018 -1.24404 0
M  V30 1665 O 159.157 1.80245 -0.286033 0
M  V30 1666 C 159.208 0.605954 -3.56385 0
M  V30 1667 O 158.929 -0.548734 -4.3465 0
M  V30 1668 C 160.43 1.2524 -4.25241 0
M  V30 1669 H 157.65 0.0371659 -0.66997 0
M  V30 1670 H 160.194 -0.530832 -1.9749 0
M  V30 1671 H 158.349 1.3044 -3.6478 0
M  V30 1672 H 158.763 -0.23376 -5.23979 0
M  V30 1673 H 160.237 1.47458 -5.3194 0
M  V30 1674 H 160.714 2.2143 -3.79296 0
M  V30 1675 H 161.32 0.595233 -4.21114 0
M  V30 1676 N 159.635 1.57281 -0.100228 0
M  V30 1677 C 160.881 1.94826 0.563101 0
M  V30 1678 C 161.214 0.982475 1.67514 0
M  V30 1679 O 160.489 0.0164069 1.94493 0
M  V30 1680 C 160.772 3.42453 1.11346 0
M  V30 1681 C 160.625 4.498 0.00612081 0
M  V30 1682 C 161.944 3.91506 2.01024 0
M  V30 1683 H 159.063 0.708428 0.203221 0
M  V30 1684 H 161.705 1.8922 -0.171979 0
M  V30 1685 H 159.855 3.47361 1.7399 0
M  V30 1686 H 161.527 4.57 -0.628357 0
M  V30 1687 H 159.77 4.28756 -0.659581 0
M  V30 1688 H 160.441 5.50306 0.432109 0
M  V30 1689 H 162.917 3.88784 1.48278 0
M  V30 1690 H 161.793 4.95358 2.36457 0
M  V30 1691 H 162.054 3.31099 2.92961 0
M  V30 1692 N 161.113 -0.173488 1.56642 0
M  V30 1693 C 162.023 -1.23482 1.99473 0
M  V30 1694 C 163.039 -1.48567 0.905752 0
M  V30 1695 O 164.215 -1.60758 1.21321 0
M  V30 1696 C 161.28 -2.55444 2.34413 0
M  V30 1697 C 160.341 -2.38241 3.57127 0
M  V30 1698 C 159.574 -3.63909 3.90392 0
M  V30 1699 O 159.797 -4.68996 3.24653 0
M  V30 1700 O 158.731 -3.58149 4.83749 0
M  V30 1701 H 162.557 -0.901279 2.90018 0
M  V30 1702 H 160.142 -0.380185 1.44482 0
M  V30 1703 H 162.024 -3.33292 2.57865 0
M  V30 1704 H 160.699 -2.88382 1.4703 0
M  V30 1705 H 159.606 -1.58431 3.38896 0
M  V30 1706 H 160.939 -2.10228 4.45045 0
M  V30 1707 N 162.591 -1.51276 -0.441967 0
M  V30 1708 C 163.816 -1.67799 -1.21895 0
M  V30 1709 C 164.241 -0.372864 -1.84367 0
M  V30 1710 O 163.599 0.666501 -1.68604 0
M  V30 1711 C 163.647 -2.79199 -2.28211 0
M  V30 1712 O 162.751 -2.42479 -3.33583 0
M  V30 1713 H 162.092 -0.559649 -0.357336 0
M  V30 1714 H 164.622 -1.97815 -0.522522 0
M  V30 1715 H 164.632 -3.03146 -2.73069 0
M  V30 1716 H 163.307 -3.73906 -1.82118 0
M  V30 1717 H 161.884 -2.29087 -2.94234 0
M  V30 1718 N 164.069 0.697108 -1.41344 0
M  V30 1719 C 165.315 1.4593 -1.40827 0
M  V30 1720 C 165.648 1.94193 -0.0167098 0
M  V30 1721 O 164.923 1.69425 0.955263 0
M  V30 1722 C 165.206 2.67229 -2.41373 0
M  V30 1723 C 165.059 2.24741 -3.8963 0
M  V30 1724 C 166.378 3.69423 -2.39196 0
M  V30 1725 H 163.497 0.529303 -0.512842 0
M  V30 1726 H 166.139 0.794112 -1.72609 0
M  V30 1727 H 164.289 3.23982 -2.14401 0
M  V30 1728 H 165.961 1.73327 -4.27499 0
M  V30 1729 H 164.204 1.56542 -4.0457 0
M  V30 1730 H 164.875 3.1177 -4.55525 0
M  V30 1731 H 167.351 3.2234 -2.63128 0
M  V30 1732 H 166.227 4.51907 -3.11563 0
M  V30 1733 H 166.488 4.19012 -1.41001 0
M  V30 1734 N 165.547 1.27147 0.931209 0
M  V30 1735 C 166.775 1.16082 1.71267 0
M  V30 1736 C 167.19 -0.282772 1.8667 0
M  V30 1737 O 166.547 -1.19283 1.38122 0
M  V30 1738 C 166.598 1.8358 3.11417 0
M  V30 1739 O 166.319 3.22299 2.96741 0
M  V30 1740 C 167.82 1.78597 4.05732 0
M  V30 1741 H 165.04 0.403758 0.535929 0
M  V30 1742 H 167.584 1.67953 1.16671 0
M  V30 1743 H 165.739 1.35623 3.62885 0
M  V30 1744 H 166.153 3.55851 3.85319 0
M  V30 1745 H 167.627 2.30444 5.01597 0
M  V30 1746 H 168.104 0.754564 4.3267 0
M  V30 1747 H 168.71 2.26152 3.60188 0
M  V30 1748 N 167.025 -1.13721 1.09112 0
M  V30 1749 C 167.957 -2.1871 0.685467 0
M  V30 1750 C 168.97 -1.60527 -0.271068 0
M  V30 1751 O 170.159 -1.78407 -0.0576148 0
M  V30 1752 C 167.259 -3.38898 -0.0111255 0
M  V30 1753 C 166.432 -4.26597 0.966131 0
M  V30 1754 C 165.491 -5.25324 0.303539 0
M  V30 1755 O 164.517 -5.61213 0.950177 0
M  V30 1756 N 165.719 -5.72779 -0.943651 0
M  V30 1757 H 168.484 -2.54126 1.58871 0
M  V30 1758 H 166.045 -1.29012 0.978143 0
M  V30 1759 H 168.037 -4.02014 -0.465517 0
M  V30 1760 H 166.607 -3.01747 -0.816565 0
M  V30 1761 H 165.827 -3.60306 1.59917 0
M  V30 1762 H 167.115 -4.82048 1.6281 0
M  V30 1763 H 166.513 -5.45762 -1.48862 0
M  V30 1764 H 165.07 -6.37847 -1.34142 0
M  V30 1765 N 168.503 -0.877838 -1.30888 0
M  V30 1766 C 169.466 -0.344265 -2.266 0
M  V30 1767 C 170.466 0.50922 -1.52524 0
M  V30 1768 O 171.656 0.317398 -1.71284 0
M  V30 1769 C 168.788 0.510198 -3.37061 0
M  V30 1770 H 169.981 -1.1893 -2.7531 0
M  V30 1771 H 167.534 -0.654088 -1.41956 0
M  V30 1772 H 168.269 1.37612 -2.93655 0
M  V30 1773 H 168.054 -0.101047 -3.9197 0
M  V30 1774 H 169.544 0.875537 -4.08319 0
M  V30 1775 N 169.982 1.44106 -0.638065 0
M  V30 1776 C 171.228 2.02277 -0.145546 0
M  V30 1777 C 171.561 1.50125 1.23191 0
M  V30 1778 O 170.836 0.688133 1.8192 0
M  V30 1779 C 171.119 3.59829 -0.139791 0
M  V30 1780 C 170.972 4.22247 -1.55008 0
M  V30 1781 C 172.291 4.36873 0.531966 0
M  V30 1782 H 169.41 0.734992 -0.0543632 0
M  V30 1783 H 172.052 1.71592 -0.815863 0
M  V30 1784 H 170.202 3.86102 0.431007 0
M  V30 1785 H 171.874 4.07057 -2.1703 0
M  V30 1786 H 170.117 3.79476 -2.10191 0
M  V30 1787 H 170.788 5.31284 -1.49804 0
M  V30 1788 H 173.264 4.16074 0.0464781 0
M  V30 1789 H 172.14 5.4657 0.505206 0
M  V30 1790 H 172.401 4.11995 1.60352 0
M  V30 1791 N 171.46 0.379036 1.52974 0
M  V30 1792 C 172.685 -0.209353 2.06341 0
M  V30 1793 C 173.11 -1.40583 1.24972 0
M  V30 1794 O 172.468 -1.79246 0.272155 0
M  V30 1795 C 172.516 -0.567786 3.56102 0
M  V30 1796 O 171.62 -1.66318 3.77375 0
M  V30 1797 H 170.961 -0.0272919 0.663439 0
M  V30 1798 H 173.491 0.543536 1.97248 0
M  V30 1799 H 173.501 -0.835003 3.99364 0
M  V30 1800 H 172.176 0.307013 4.14765 0
M  V30 1801 H 170.753 -1.39048 3.46006 0
M  V30 1802 N 172.938 -1.57226 0.108567 0
M  V30 1803 C 173.886 -2.16002 -0.862885 0
M  V30 1804 C 174.88 -1.10644 -1.28274 0
M  V30 1805 O 176.086 -1.28966 -1.2557 0
M  V30 1806 H 172.461 -0.691148 -0.296342 0
M  V30 1807 H 174.432 -2.96427 -0.342575 0
M  V30 1808 C 173.181 -2.76576 -2.10716 0
M  V30 1809 H 172.504 -3.5734 -1.793 0
M  V30 1810 H 173.944 -3.21253 -2.76717 0
M  V30 1811 C 172.403 -1.73137 -2.89007 0
M  V30 1812 O 172.933 -1.17842 -3.84026 0
M  V30 1813 N 171.139 -1.43317 -2.52801 0
M  V30 1814 H 170.686 -1.88473 -1.75601 0
M  V30 1815 H 170.644 -0.743485 -3.05483 0
M  V30 1816 N 174.416 0.165178 -1.56732 0
M  V30 1817 C 175.346 1.20651 -1.99914 0
M  V30 1818 C 176.327 1.45827 -0.875705 0
M  V30 1819 O 177.512 1.57057 -1.14223 0
M  V30 1820 C 174.642 2.54401 -2.36427 0
M  V30 1821 C 173.596 2.43782 -3.51787 0
M  V30 1822 C 172.922 3.82078 -3.7406 0
M  V30 1823 C 174.222 1.93732 -4.85041 0
M  V30 1824 H 175.916 0.847534 -2.87154 0
M  V30 1825 H 173.462 0.40625 -1.38151 0
M  V30 1826 H 175.415 3.27458 -2.65234 0
M  V30 1827 H 174.139 2.92098 -1.46103 0
M  V30 1828 H 172.798 1.73178 -3.23117 0
M  V30 1829 H 172.446 4.17179 -2.81017 0
M  V30 1830 H 172.146 3.7584 -4.51684 0
M  V30 1831 H 173.67 4.56712 -4.05274 0
M  V30 1832 H 175.084 2.56569 -5.12684 0
M  V30 1833 H 173.481 1.98428 -5.66345 0
M  V30 1834 H 174.551 0.891962 -4.76626 0
M  V30 1835 N 175.894 1.51508 0.433938 0
M  V30 1836 C 176.857 1.72473 1.50949 0
M  V30 1837 C 177.857 0.594725 1.49398 0
M  V30 1838 O 179.047 0.862315 1.5136 0
M  V30 1839 C 176.179 1.78431 2.90474 0
M  V30 1840 H 177.372 2.68467 1.33662 0
M  V30 1841 H 174.925 1.41549 0.662836 0
M  V30 1842 H 175.66 0.842645 3.13161 0
M  V30 1843 H 175.445 2.60558 2.93005 0
M  V30 1844 H 176.935 1.96479 3.68491 0
M  V30 1845 N 177.372 -0.689602 1.41712 0
M  V30 1846 C 178.302 -1.81577 1.46806 0
M  V30 1847 C 179.283 -1.66945 0.326105 0
M  V30 1848 O 180.468 -1.86588 0.538377 0
M  V30 1849 C 177.598 -3.19762 1.35535 0
M  V30 1850 C 176.552 -3.49107 2.47605 0
M  V30 1851 C 175.878 -4.86711 2.21397 0
M  V30 1852 C 177.178 -3.47483 3.89939 0
M  V30 1853 H 178.872 -1.7757 2.41058 0
M  V30 1854 H 176.418 -0.852887 1.16025 0
M  V30 1855 H 178.371 -3.98263 1.3771 0
M  V30 1856 H 177.095 -3.24409 0.377708 0
M  V30 1857 H 175.754 -2.72959 2.44722 0
M  V30 1858 H 175.402 -4.8799 1.21961 0
M  V30 1859 H 175.102 -5.0731 2.96497 0
M  V30 1860 H 176.626 -5.67515 2.25297 0
M  V30 1861 H 178.04 -4.1598 3.94505 0
M  V30 1862 H 176.437 -3.79615 4.64771 0
M  V30 1863 H 177.507 -2.46341 4.17665 0
M  V30 1864 N 178.85 -1.27639 -0.924453 0
M  V30 1865 C 179.782 -1.06442 -2.02985 0
M  V30 1866 C 180.795 -0.0194771 -1.62788 0
M  V30 1867 O 181.984 -0.261388 -1.76576 0
M  V30 1868 C 179.084 -0.59327 -3.33667 0
M  V30 1869 C 178.257 -1.71123 -4.02537 0
M  V30 1870 C 177.316 -1.23527 -5.11495 0
M  V30 1871 O 176.342 -1.93553 -5.35281 0
M  V30 1872 N 177.544 -0.0926678 -5.80426 0
M  V30 1873 H 180.309 -2.01633 -2.2173 0
M  V30 1874 H 177.87 -1.19248 -1.09505 0
M  V30 1875 H 179.862 -0.258686 -4.03872 0
M  V30 1876 H 178.432 0.265502 -3.1147 0
M  V30 1877 H 177.652 -2.21593 -3.26022 0
M  V30 1878 H 178.94 -2.46145 -4.45298 0
M  V30 1879 H 178.338 0.491741 -5.63559 0
M  V30 1880 H 176.895 0.182714 -6.51544 0
M  V30 1881 N 180.328 1.1314 -1.09713 0
M  V30 1882 C 181.575 1.84484 -0.834987 0
M  V30 1883 C 181.903 1.83689 0.639418 0
M  V30 1884 O 181.158 1.2724 1.4869 0
M  V30 1885 C 181.457 3.32167 -1.3191 0
M  V30 1886 C 181.123 3.53139 -2.80363 0
M  V30 1887 C 179.785 3.58571 -3.20905 0
M  V30 1888 C 182.137 3.60866 -3.76065 0
M  V30 1889 C 179.465 3.69267 -4.55916 0
M  V30 1890 C 181.817 3.73089 -5.10869 0
M  V30 1891 C 180.481 3.76775 -5.50996 0
M  V30 1892 H 179.751 0.675073 -0.305544 0
M  V30 1893 H 182.398 1.33554 -1.37243 0
M  V30 1894 H 180.703 3.85469 -0.701517 0
M  V30 1895 H 182.4 3.85821 -1.09284 0
M  V30 1896 H 178.99 3.49569 -2.47991 0
M  V30 1897 H 183.174 3.55946 -3.45855 0
M  V30 1898 H 178.43 3.70388 -4.86438 0
M  V30 1899 H 182.604 3.78011 -5.84877 0
M  V30 1900 H 180.231 3.84815 -6.55608 0
M  V30 1901 N 181.806 0.884767 1.30421 0
M  V30 1902 C 183.054 0.502112 1.95763 0
M  V30 1903 C 183.375 -0.951815 1.70192 0
M  V30 1904 O 182.645 -1.6692 1.0254 0
M  V30 1905 H 181.225 0.182694 0.724315 0
M  V30 1906 H 183.887 1.1278 1.58955 0
M  V30 1907 H 182.983 0.672188 3.04775 0
M  V30 1908 N 183.284 -1.43765 0.645699 0
M  V30 1909 C 184.194 -2.34544 -0.0512957 0
M  V30 1910 C 185.21 -1.53455 -0.82022 0
M  V30 1911 O 186.386 -1.86133 -0.769176 0
M  V30 1912 C 183.451 -3.31636 -1.01087 0
M  V30 1913 C 182.512 -4.2863 -0.239712 0
M  V30 1914 C 181.745 -5.21084 -1.15358 0
M  V30 1915 O 181.968 -5.1779 -2.39269 0
M  V30 1916 O 180.902 -5.98593 -0.630038 0
M  V30 1917 H 184.728 -2.95624 0.695718 0
M  V30 1918 H 182.313 -1.43781 0.405882 0
M  V30 1919 H 184.195 -3.9136 -1.56254 0
M  V30 1920 H 182.87 -2.73069 -1.73824 0
M  V30 1921 H 181.777 -3.72408 0.355356 0
M  V30 1922 H 183.11 -4.90157 0.447936 0
M  V30 1923 N 184.763 -0.387143 -1.52771 0
M  V30 1924 C 185.673 0.456442 -2.30117 0
M  V30 1925 C 186.689 1.07342 -1.36944 0
M  V30 1926 O 187.865 1.07971 -1.70013 0
M  V30 1927 C 184.93 1.56957 -3.09136 0
M  V30 1928 C 183.991 0.977916 -4.18014 0
M  V30 1929 C 183.224 2.038 -4.93256 0
M  V30 1930 O 183.447 3.25271 -4.68567 0
M  V30 1931 O 182.381 1.6565 -5.78657 0
M  V30 1932 H 186.207 -0.17359 -3.03203 0
M  V30 1933 H 183.792 -0.150919 -1.48636 0
M  V30 1934 H 185.674 2.21628 -3.58412 0
M  V30 1935 H 184.349 2.18461 -2.38865 0
M  V30 1936 H 183.256 0.294525 -3.72939 0
M  V30 1937 H 184.589 0.407128 -4.90513 0
M  V30 1938 N 186.241 1.57166 -0.116904 0
M  V30 1939 C 187.518 1.86645 0.585049 0
M  V30 1940 C 187.898 1.0177 1.84949 0
M  V30 1941 O 187.246 0.0960379 2.28298 0
M  V30 1942 C 187.456 3.37736 0.879507 0
M  V30 1943 C 188.804 4.06289 1.23348 0
M  V30 1944 O 189.828 3.42743 0.969836 0
M  V30 1945 O 188.687 5.18455 1.7282 0
M  V30 1946 H 185.781 0.772593 0.295007 0
M  V30 1947 H 188.327 1.69025 -0.151249 0
M  V30 1948 H 187.099 3.91296 -0.0166136 0
M  V30 1949 H 186.722 3.6078 1.67103 0
M  V30 1950 N 187.719 -0.156864 1.56817 0
M  V30 1951 C 188.682 -1.17781 1.96622 0
M  V30 1952 C 189.682 -1.36401 0.851555 0
M  V30 1953 O 190.872 -1.33561 1.11836 0
M  V30 1954 C 188.004 -2.54008 2.27361 0
M  V30 1955 H 189.197 -0.836564 2.87996 0
M  V30 1956 H 186.75 -0.39985 1.51099 0
M  V30 1957 H 187.485 -2.9312 1.38748 0
M  V30 1958 H 187.27 -2.41856 3.08623 0
M  V30 1959 H 188.76 -3.27558 2.59029 0
M  V30 1960 N 189.197 -1.51736 -0.425897 0
M  V30 1961 C 190.474 -1.55519 -1.1863 0
M  V30 1962 C 190.854 -0.326219 -2.08564 0
M  V30 1963 O 190.202 0.688012 -2.17896 0
M  V30 1964 C 190.412 -2.87521 -1.9782 0
M  V30 1965 C 191.76 -3.39899 -2.54468 0
M  V30 1966 O 192.784 -2.89148 -2.08019 0
M  V30 1967 O 191.643 -4.2848 -3.39215 0
M  V30 1968 H 188.737 -0.625739 -0.540721 0
M  V30 1969 H 191.283 -1.64055 -0.434038 0
M  V30 1970 H 190.055 -3.68422 -1.31836 0
M  V30 1971 H 189.678 -2.822 -2.80088 0
M  V30 1972 N 190.675 0.682077 -1.42076 0
M  V30 1973 C 192.086 1.26246 -1.37546 0
M  V30 1974 C 192.437 1.96092 -0.0651481 0
M  V30 1975 O 191.562 1.99587 0.836297 0
M  V30 1976 C 192.157 2.29594 -2.49143 0
M  V30 1977 C 190.716 2.83175 -2.47969 0
M  V30 1978 C 189.863 1.57395 -2.28303 0
M  V30 1979 H 192.814 0.475937 -1.51395 0
M  V30 1980 H 192.835 3.11175 -2.18976 0
M  V30 1981 H 192.347 1.78729 -3.44496 0
M  V30 1982 H 190.448 3.3818 -1.56413 0
M  V30 1983 H 190.561 3.32687 -3.44755 0
M  V30 1984 H 188.925 1.83699 -1.76428 0
M  V30 1985 H 189.708 1.08507 -3.25701 0
M  V30 1986 N 192.153 1.28127 0.917671 0
M  V30 1987 C 193.401 1.14825 1.66312 0
M  V30 1988 C 193.722 -0.304379 1.9261 0
M  V30 1989 O 192.992 -1.21149 1.53947 0
M  V30 1990 H 191.572 0.421953 0.616413 0
M  V30 1991 H 194.234 1.608 1.10134 0
M  V30 1992 H 193.33 1.68489 2.62712 0
M  V30 1993 N 193.631 -1.12557 1.10312 0
M  V30 1994 C 194.594 -2.16434 0.75424 0
M  V30 1995 C 195.594 -1.59278 -0.220685 0
M  V30 1996 O 196.784 -1.742 0.00230591 0
M  V30 1997 C 193.916 -3.40699 0.116987 0
M  V30 1998 H 195.109 -2.48811 1.67431 0
M  V30 1999 H 192.662 -1.27542 0.903475 0
M  V30 2000 H 193.397 -3.13921 -0.813877 0
M  V30 2001 H 193.182 -3.83459 0.818613 0
M  V30 2002 H 194.672 -4.17451 -0.111387 0
M  V30 2003 N 195.109 -0.891671 -1.2995 0
M  V30 2004 C 196.042 -0.307994 -2.26112 0
M  V30 2005 C 197.02 0.575262 -1.52084 0
M  V30 2006 O 198.204 0.523864 -1.81074 0
M  V30 2007 C 195.331 0.561734 -3.34009 0
M  V30 2008 C 194.377 -0.253107 -4.25748 0
M  V30 2009 S 195.21 -1.64572 -5.09584 0
M  V30 2010 C 196.366 -0.782699 -6.20987 0
M  V30 2011 H 196.599 -1.12309 -2.75271 0
M  V30 2012 H 194.132 -0.691509 -1.38049 0
M  V30 2013 H 196.09 1.05777 -3.96638 0
M  V30 2014 H 194.751 1.35099 -2.83561 0
M  V30 2015 H 193.944 0.410908 -5.02322 0
M  V30 2016 H 193.546 -0.682004 -3.67729 0
M  V30 2017 H 195.838 -0.00257476 -6.775 0
M  V30 2018 H 196.781 -1.52026 -6.91588 0
M  V30 2019 H 197.189 -0.340638 -5.63471 0
M  V30 2020 N 196.587 1.43421 -0.653314 0
M  V30 2021 C 197.812 2.06678 -0.172846 0
M  V30 2022 C 198.237 1.48648 1.15262 0
M  V30 2023 O 197.595 0.596457 1.71208 0
M  V30 2024 C 197.643 3.60474 -0.0953184 0
M  V30 2025 O 196.747 4.01487 0.942442 0
M  V30 2026 H 196.088 0.657181 -0.0949155 0
M  V30 2027 H 198.618 1.83925 -0.896265 0
M  V30 2028 H 198.628 4.07905 0.0879728 0
M  V30 2029 H 197.303 4.02088 -1.06291 0
M  V30 2030 H 195.88 3.65646 0.731932 0
M  V30 2031 N 198.065 0.39524 1.52563 0
M  V30 2032 C 199.481 0.0454682 1.59535 0
M  V30 2033 C 199.681 -1.44056 1.4089 0
M  V30 2034 O 198.737 -2.20579 1.22888 0
M  V30 2035 C 200.05 0.527963 2.96029 0
M  V30 2036 C 201.598 0.484733 3.09224 0
M  V30 2037 C 202.073 0.943512 4.48176 0
M  V30 2038 N 203.564 0.899765 4.54377 0
M  V30 2039 C 204.299 1.22609 5.60138 0
M  V30 2040 N 203.795 1.62319 6.73516 0
M  V30 2041 N 205.588 1.14696 5.50274 0
M  V30 2042 H 197.739 1.36261 1.62931 0
M  V30 2043 H 200.002 0.558887 0.765735 0
M  V30 2044 H 199.708 1.56607 3.14908 0
M  V30 2045 H 199.582 -0.0698056 3.77135 0
M  V30 2046 H 201.969 -0.544298 2.90037 0
M  V30 2047 H 202.05 1.11838 2.30056 0
M  V30 2048 H 201.694 1.9708 4.68104 0
M  V30 2049 H 201.624 0.286817 5.25818 0
M  V30 2050 H 204.115 0.607632 3.72983 0
M  V30 2051 H 204.428 1.85567 7.5019 0
M  V30 2052 H 202.773 1.66211 6.74833 0
M  V30 2053 H 205.964 0.835701 4.6058 0
M  V30 2054 H 206.137 1.40459 6.32594 0
M  V30 2055 N 199.544 -1.57102 0.125237 0
M  V30 2056 C 200.955 -1.82384 -0.399142 0
M  V30 2057 C 201.306 -1.04276 -1.66195 0
M  V30 2058 O 200.431 -0.281269 -2.14564 0
M  V30 2059 C 201.026 -3.30821 -0.730932 0
M  V30 2060 C 199.585 -3.56762 -1.19992 0
M  V30 2061 C 198.732 -2.7649 -0.211792 0
M  V30 2062 H 201.683 -1.54786 0.350277 0
M  V30 2063 H 201.704 -3.4579 -1.58775 0
M  V30 2064 H 201.216 -3.87643 0.188345 0
M  V30 2065 H 199.317 -3.05305 -2.13588 0
M  V30 2066 H 199.43 -4.65317 -1.14093 0
M  V30 2067 H 197.794 -2.4489 -0.700085 0
M  V30 2068 H 198.577 -3.36073 0.700691 0
M  V30 2069 N 201.022 0.148545 -1.56898 0
M  V30 2070 C 202.269 0.861418 -1.83264 0
M  V30 2071 C 202.597 1.81239 -0.705883 0
M  V30 2072 O 201.852 1.93305 0.305212 0
M  V30 2073 C 202.151 1.67064 -3.1595 0
M  V30 2074 C 201.817 0.866591 -4.42494 0
M  V30 2075 C 200.479 0.644762 -4.76861 0
M  V30 2076 C 202.831 0.30418 -5.20312 0
M  V30 2077 C 200.159 -0.15021 -5.86508 0
M  V30 2078 C 202.511 -0.477824 -6.30793 0
M  V30 2079 C 201.175 -0.710244 -6.63711 0
M  V30 2080 H 200.445 0.315215 -0.670612 0
M  V30 2081 H 203.092 0.125142 -1.91091 0
M  V30 2082 H 201.397 2.47698 -3.03567 0
M  V30 2083 H 203.094 2.22566 -3.33565 0
M  V30 2084 H 199.684 1.04955 -4.15551 0
M  V30 2085 H 203.868 0.462844 -4.94137 0
M  V30 2086 H 199.124 -0.339796 -6.10455 0
M  V30 2087 H 203.298 -0.92076 -6.90286 0
M  V30 2088 H 200.925 -1.3281 -7.48509 0
M  V30 2089 N 202.5 1.5196 0.417844 0
M  V30 2090 C 203.748 1.65263 1.16329 0
M  V30 2091 C 204.069 0.380634 1.91249 0
M  V30 2092 O 203.339 -0.604214 1.86349 0
M  V30 2093 H 201.919 0.60912 0.432414 0
M  V30 2094 H 204.581 1.88969 0.477162 0
M  V30 2095 H 203.677 2.4896 1.88217 0
M  V30 2096 N 203.978 -0.674533 1.42435 0
M  V30 2097 C 205.224 -1.43671 1.43131 0
M  V30 2098 C 205.557 -1.94142 0.0476021 0
M  V30 2099 O 204.832 -1.70924 -0.928188 0
M  V30 2100 C 205.115 -2.63355 2.45594 0
M  V30 2101 C 204.968 -2.18514 3.93156 0
M  V30 2102 C 206.287 -3.65571 2.45043 0
M  V30 2103 H 203.406 -0.521077 0.521198 0
M  V30 2104 H 206.048 -0.766551 1.7385 0
M  V30 2105 H 204.198 -3.2053 2.19528 0
M  V30 2106 H 205.87 -1.66504 4.30202 0
M  V30 2107 H 204.113 -1.50086 4.07009 0
M  V30 2108 H 204.784 -3.04484 4.60428 0
M  V30 2109 H 207.26 -3.18113 2.68223 0
M  V30 2110 H 206.136 -4.46893 3.18713 0
M  V30 2111 H 206.397 -4.16716 1.47649 0
M  V30 2112 N 205.456 -1.28612 -0.910864 0
M  V30 2113 C 206.419 -1.12803 -1.9952 0
M  V30 2114 C 207.419 -0.0668264 -1.60661 0
M  V30 2115 O 208.609 -0.312847 -1.71368 0
M  V30 2116 C 205.741 -0.72254 -3.33155 0
M  V30 2117 H 206.934 -2.09109 -2.14973 0
M  V30 2118 H 204.487 -1.11639 -1.09391 0
M  V30 2119 H 205.222 0.241152 -3.23402 0
M  V30 2120 H 205.007 -1.48916 -3.62721 0
M  V30 2121 H 206.497 -0.634666 -4.12749 0
M  V30 2122 N 206.934 1.1197 -1.10907 0
M  V30 2123 C 207.864 2.19928 -0.784473 0
M  V30 2124 C 208.845 1.6833 0.244726 0
M  V30 2125 O 210.03 1.93892 0.109418 0
M  V30 2126 C 207.16 3.46597 -0.220827 0
M  V30 2127 C 206.114 4.11376 -1.18127 0
M  V30 2128 C 205.44 5.32554 -0.478594 0
M  V30 2129 C 206.74 4.56945 -2.52979 0
M  V30 2130 H 208.434 2.47337 -1.68715 0
M  V30 2131 H 205.98 1.18879 -0.812642 0
M  V30 2132 H 207.933 4.21396 0.0184278 0
M  V30 2133 H 206.657 3.1863 0.717113 0
M  V30 2134 H 205.316 3.38564 -1.40606 0
M  V30 2135 H 204.964 5.00856 0.463976 0
M  V30 2136 H 204.664 5.76844 -1.11912 0
M  V30 2137 H 206.188 6.10096 -0.248 0
M  V30 2138 H 207.602 5.23093 -2.3462 0
M  V30 2139 H 205.999 5.1203 -3.12962 0
M  V30 2140 H 207.069 3.70676 -3.12614 0
M  V30 2141 N 208.412 0.89855 1.29475 0
M  V30 2142 C 209.342 0.39201 2.30186 0
M  V30 2143 C 210.323 -0.532359 1.61555 0
M  V30 2144 O 211.508 -0.443331 1.89072 0
M  V30 2145 C 208.638 -0.382353 3.45189 0
M  V30 2146 C 207.592 0.451483 4.25612 0
M  V30 2147 C 206.918 -0.450307 5.328 0
M  V30 2148 C 208.218 1.70079 4.93832 0
M  V30 2149 H 209.912 1.23362 2.72804 0
M  V30 2150 H 207.458 0.594638 1.31149 0
M  V30 2151 H 209.411 -0.747451 4.14718 0
M  V30 2152 H 208.135 -1.25774 3.01411 0
M  V30 2153 H 206.794 0.798897 3.57789 0
M  V30 2154 H 206.442 -1.32379 4.85268 0
M  V30 2155 H 206.142 0.103902 5.87508 0
M  V30 2156 H 207.666 -0.811623 6.05182 0
M  V30 2157 H 209.08 1.40549 5.55805 0
M  V30 2158 H 207.477 2.19623 5.58467 0
M  V30 2159 H 208.547 2.43744 4.19186 0
M  V30 2160 N 209.89 -1.43072 0.660911 0
M  V30 2161 C 211.137 -2.01721 0.177445 0
M  V30 2162 C 211.465 -1.5218 -1.21126 0
M  V30 2163 O 210.72 -0.708659 -1.82419 0
M  V30 2164 C 211.019 -3.57103 0.145563 0
M  V30 2165 C 210.685 -4.26021 1.47705 0
M  V30 2166 C 209.347 -4.44563 1.84165 0
M  V30 2167 C 211.699 -4.64983 2.35458 0
M  V30 2168 C 209.027 -4.99334 3.0803 0
M  V30 2169 C 211.379 -5.21127 3.58622 0
M  V30 2170 C 210.043 -5.37884 3.95268 0
M  V30 2171 H 209.313 -0.73815 0.0649317 0
M  V30 2172 H 211.96 -1.71446 0.853144 0
M  V30 2173 H 210.265 -3.86965 -0.61361 0
M  V30 2174 H 211.962 -4.00248 -0.2455 0
M  V30 2175 H 208.552 -4.11939 1.18339 0
M  V30 2176 H 212.736 -4.50343 2.08579 0
M  V30 2177 H 207.992 -5.10493 3.36462 0
M  V30 2178 H 212.166 -5.50262 4.26831 0
M  V30 2179 H 209.793 -5.80089 4.91325 0
M  V30 2180 N 211.368 -0.403325 -1.52352 0
M  V30 2181 C 212.616 0.174003 -2.0135 0
M  V30 2182 C 212.937 1.46139 -1.29106 0
M  V30 2183 O 212.207 1.91448 -0.415253 0
M  V30 2184 H 210.787 0.0672911 -0.743963 0
M  V30 2185 H 213.449 -0.538235 -1.87321 0
M  V30 2186 H 212.545 0.374254 -3.09848 0
M  V30 2187 N 212.846 1.57033 -0.133567 0
M  V30 2188 C 214.094 1.953 0.519848 0
M  V30 2189 C 214.415 1.01866 1.66278 0
M  V30 2190 O 213.685 0.0776513 1.95746 0
M  V30 2191 H 212.265 0.721091 0.195032 0
M  V30 2192 H 214.927 1.93809 -0.205921 0
M  V30 2193 H 214.023 2.98695 0.904854 0
M  V30 2194 N 214.325 -0.140222 1.56975 0
M  V30 2195 C 215.571 -0.852949 1.83991 0
M  V30 2196 C 215.904 -1.80512 0.716187 0
M  V30 2197 O 215.179 -1.92479 -0.279681 0
M  V30 2198 C 215.462 -1.6215 3.21527 0
M  V30 2199 C 215.315 -0.690363 4.4447 0
M  V30 2200 C 216.634 -2.58247 3.56366 0
M  V30 2201 H 213.753 -0.308634 0.669264 0
M  V30 2202 H 216.395 -0.117898 1.89634 0
M  V30 2203 H 214.545 -2.24812 3.16847 0
M  V30 2204 H 216.217 -0.0742264 4.6124 0
M  V30 2205 H 214.46 -0.000396433 4.338 0
M  V30 2206 H 215.131 -1.2643 5.37326 0
M  V30 2207 H 217.607 -2.05701 3.61699 0
M  V30 2208 H 216.483 -3.09067 4.53617 0
M  V30 2209 H 216.744 -3.39923 2.82674 0
M  V30 2210 N 215.803 -1.52179 -0.40978 0
M  V30 2211 C 217.08 -1.56769 -1.16974 0
M  V30 2212 C 217.46 -0.348322 -2.08206 0
M  V30 2213 O 216.808 0.664862 -2.18613 0
M  V30 2214 C 217.018 -2.89603 -1.9476 0
M  V30 2215 C 218.366 -3.42579 -2.50849 0
M  V30 2216 O 219.39 -2.91338 -2.04941 0
M  V30 2217 O 218.249 -4.32054 -3.34652 0
M  V30 2218 H 215.343 -0.631439 -0.534054 0
M  V30 2219 H 217.889 -1.64507 -0.416613 0
M  V30 2220 H 216.661 -3.698 -1.27921 0
M  V30 2221 H 216.284 -2.85155 -2.77079 0
M  V30 2222 N 217.281 0.66697 -1.42791 0
M  V30 2223 C 218.191 1.80962 -1.49299 0
M  V30 2224 C 219.207 1.69775 -0.381108 0
M  V30 2225 O 220.383 1.91188 -0.633188 0
M  V30 2226 C 217.448 3.17156 -1.40045 0
M  V30 2227 C 216.509 3.40242 -2.6179 0
M  V30 2228 C 215.742 4.69939 -2.52969 0
M  V30 2229 O 215.965 5.48372 -1.56985 0
M  V30 2230 O 214.899 4.94441 -3.43237 0
M  V30 2231 H 218.725 1.78427 -2.45759 0
M  V30 2232 H 216.31 0.823713 -1.24641 0
M  V30 2233 H 218.192 3.98413 -1.37276 0
M  V30 2234 H 216.867 3.20312 -0.467138 0
M  V30 2235 H 215.774 2.58802 -2.70134 0
M  V30 2236 H 217.107 3.41923 -3.54047 0
M  V30 2237 N 218.759 1.29093 0.90403 0
M  V30 2238 C 219.706 1.13853 2.00764 0
M  V30 2239 C 220.676 0.0330084 1.66067 0
M  V30 2240 O 221.861 0.199733 1.89752 0
M  V30 2241 C 219.001 0.816537 3.35301 0
M  V30 2242 C 218.114 2.00206 3.82807 0
M  V30 2243 C 217.249 1.61983 5.059 0
M  V30 2244 C 216.288 2.77143 5.45764 0
M  V30 2245 N 215.425 2.39346 6.60044 0
M  V30 2246 H 220.265 2.08276 2.13132 0
M  V30 2247 H 217.802 1.03648 1.04381 0
M  V30 2248 H 219.76 0.610557 4.12708 0
M  V30 2249 H 218.39 -0.090779 3.22672 0
M  V30 2250 H 217.442 2.31988 3.01473 0
M  V30 2251 H 218.754 2.86512 4.08304 0
M  V30 2252 H 217.908 1.37649 5.90879 0
M  V30 2253 H 216.647 0.728202 4.82233 0
M  V30 2254 H 215.652 3.02165 4.59322 0
M  V30 2255 H 216.877 3.66964 5.71414 0
M  V30 2256 H 214.823 1.52665 6.37989 0
M  V30 2257 H 214.74 3.19185 6.85315 0
M  V30 2258 H 216.008 2.1832 7.48303 0
M  V30 2259 N 220.237 -1.11381 1.11499 0
M  V30 2260 C 221.485 -1.8277 0.862524 0
M  V30 2261 C 221.806 -1.85097 -0.613534 0
M  V30 2262 O 221.076 -1.32198 -1.4457 0
M  V30 2263 H 219.656 -0.676823 0.316101 0
M  V30 2264 H 222.318 -1.34816 1.4075 0
M  V30 2265 H 221.414 -2.86614 1.23527 0
M  V30 2266 N 221.715 -0.905404 -1.28997 0
M  V30 2267 C 223.126 -0.581953 -1.77398 0
M  V30 2268 C 223.477 0.902552 -1.74208 0
M  V30 2269 O 222.602 1.70584 -1.33154 0
M  V30 2270 C 223.197 -1.04961 -3.22131 0
M  V30 2271 C 221.756 -0.777229 -3.68288 0
M  V30 2272 C 220.903 -1.22109 -2.48967 0
M  V30 2273 H 223.854 -1.08754 -1.15578 0
M  V30 2274 H 223.875 -0.387387 -3.78523 0
M  V30 2275 H 223.387 -2.13008 -3.24421 0
M  V30 2276 H 221.488 0.290383 -3.71467 0
M  V30 2277 H 221.601 -1.37911 -4.58822 0
M  V30 2278 H 219.965 -0.639971 -2.46529 0
M  V30 2279 H 220.748 -2.30972 -2.53982 0
M  V30 2280 N 223.193 1.4272 -0.668489 0
M  V30 2281 C 224.125 2.2914 0.052613 0
M  V30 2282 C 225.138 1.43339 0.771857 0
M  V30 2283 O 226.327 1.67123 0.627067 0
M  V30 2284 C 223.427 3.20618 1.09804 0
M  V30 2285 C 222.6 4.35039 0.45389 0
M  V30 2286 C 221.659 5.07282 1.39825 0
M  V30 2287 O 220.685 5.62024 0.900978 0
M  V30 2288 N 221.887 5.12206 2.73176 0
M  V30 2289 H 224.652 2.91668 -0.689209 0
M  V30 2290 H 222.213 1.53577 -0.512422 0
M  V30 2291 H 224.205 3.65815 1.73094 0
M  V30 2292 H 222.775 2.59585 1.74167 0
M  V30 2293 H 221.995 3.92567 -0.358396 0
M  V30 2294 H 223.283 5.088 0.00486972 0
M  V30 2295 H 222.681 4.6913 3.16122 0
M  V30 2296 H 221.238 5.61069 3.31729 0
M  V30 2297 N 224.671 0.411399 1.52136 0
M  V30 2298 C 225.601 -0.404015 2.29978 0
M  V30 2299 C 226.582 -1.04412 1.34284 0
M  V30 2300 O 227.767 -1.0527 1.63192 0
M  V30 2301 C 224.897 -1.5197 3.12286 0
M  V30 2302 C 223.851 -1.00448 4.16046 0
M  V30 2303 C 223.177 -2.21393 4.86712 0
M  V30 2304 C 224.477 -0.0569336 5.22269 0
M  V30 2305 H 226.171 0.245529 2.98392 0
M  V30 2306 H 223.717 0.119525 1.43503 0
M  V30 2307 H 225.67 -2.09715 3.6551 0
M  V30 2308 H 224.394 -2.19716 2.41646 0
M  V30 2309 H 223.053 -0.449421 3.63835 0
M  V30 2310 H 222.701 -2.87699 4.12599 0
M  V30 2311 H 222.401 -1.87571 5.56858 0
M  V30 2312 H 223.925 -2.7974 5.4275 0
M  V30 2313 H 225.339 -0.54325 5.7072 0
M  V30 2314 H 223.736 0.192594 5.99791 0
M  V30 2315 H 224.806 0.887663 4.76706 0
M  V30 2316 N 226.149 -1.5696 0.141893 0
M  V30 2317 C 227.396 -1.9596 -0.510492 0
M  V30 2318 C 227.724 -1.02648 -1.65208 0
M  V30 2319 O 226.979 -0.0546947 -1.95624 0
M  V30 2320 C 227.278 -3.41242 -1.06249 0
M  V30 2321 C 226.944 -4.50882 -0.0398791 0
M  V30 2322 C 225.606 -4.80595 0.241247 0
M  V30 2323 C 227.958 -5.17058 0.65578 0
M  V30 2324 C 225.286 -5.73792 1.22393 0
M  V30 2325 C 227.638 -6.11313 1.62724 0
M  V30 2326 C 226.302 -6.39407 1.91612 0
M  V30 2327 H 225.572 -0.717068 -0.186802 0
M  V30 2328 H 228.219 -1.90142 0.227643 0
M  V30 2329 H 226.524 -3.43866 -1.87785 0
M  V30 2330 H 228.221 -3.68742 -1.57576 0
M  V30 2331 H 224.811 -4.27754 -0.269174 0
M  V30 2332 H 228.995 -4.94239 0.451779 0
M  V30 2333 H 224.251 -5.93853 1.45424 0
M  V30 2334 H 228.425 -6.61668 2.17183 0
M  V30 2335 H 226.052 -7.11427 2.6791 0
M  V30 2336 N 227.627 0.131896 -1.57047 0
M  V30 2337 C 228.577 1.1679 -1.95816 0
M  V30 2338 C 229.561 1.37756 -0.831393 0
M  V30 2339 O 230.753 1.39065 -1.09499 0
M  V30 2340 C 227.882 2.49778 -2.35512 0
M  V30 2341 C 226.968 2.32342 -3.54793 0
M  V30 2342 N 227.359 1.8469 -4.70875 0
M  V30 2343 C 225.657 2.63043 -3.60173 0
M  V30 2344 C 226.358 1.80656 -5.52936 0
M  V30 2345 N 225.334 2.24528 -4.95064 0
M  V30 2346 H 229.136 0.791818 -2.83033 0
M  V30 2347 H 226.65 0.339791 -1.58805 0
M  V30 2348 H 228.647 3.24692 -2.61498 0
M  V30 2349 H 227.307 2.88156 -1.49654 0
M  V30 2350 H 228.318 1.54429 -4.9434 0
M  V30 2351 H 224.995 3.05193 -2.84892 0
M  V30 2352 H 226.385 1.45178 -6.56028 0
M  V30 2353 N 229.106 1.52395 0.401703 0
M  V30 2354 C 230.039 1.70999 1.51111 0
M  V30 2355 C 231.017 0.55765 1.52738 0
M  V30 2356 O 232.201 0.785912 1.71335 0
M  V30 2357 C 229.328 1.75607 2.8962 0
M  V30 2358 C 228.374 2.97227 3.05873 0
M  V30 2359 S 229.207 4.57439 2.78405 0
M  V30 2360 C 230.363 4.64844 4.19131 0
M  V30 2361 H 230.596 2.6483 1.35102 0
M  V30 2362 H 228.129 1.42527 0.593762 0
M  V30 2363 H 230.087 1.78947 3.69443 0
M  V30 2364 H 228.748 0.828914 3.02965 0
M  V30 2365 H 227.941 2.96955 4.07227 0
M  V30 2366 H 227.543 2.91813 2.33925 0
M  V30 2367 H 229.835 4.42677 5.12877 0
M  V30 2368 H 230.778 5.66807 4.24424 0
M  V30 2369 H 231.186 3.93804 4.04448 0
M  V30 2370 N 230.584 -0.659388 1.43143 0
M  V30 2371 C 231.861 -1.41627 1.34912 0
M  V30 2372 C 232.241 -2.11099 -0.00607785 0
M  V30 2373 O 231.589 -2.04353 -1.02236 0
M  V30 2374 C 231.799 -2.40604 2.52805 0
M  V30 2375 C 233.147 -3.04789 2.95616 0
M  V30 2376 O 234.171 -2.50932 2.52807 0
M  V30 2377 O 233.03 -4.02421 3.69756 0
M  V30 2378 H 230.124 -0.63246 0.532844 0
M  V30 2379 H 232.67 -0.686814 1.5518 0
M  V30 2380 H 231.442 -1.88174 3.43083 0
M  V30 2381 H 231.065 -3.21009 2.34604 0
M  V30 2382 N 232.062 -1.29571 -0.897171 0
M  V30 2383 C 233.473 -1.15964 -1.46319 0
M  V30 2384 C 233.824 0.244267 -1.94674 0
M  V30 2385 O 232.949 1.13998 -1.83939 0
M  V30 2386 C 233.544 -2.09906 -2.65942 0
M  V30 2387 C 232.103 -2.00314 -3.18671 0
M  V30 2388 C 231.25 -2.00687 -1.91363 0
M  V30 2389 H 234.201 -1.42019 -0.708268 0
M  V30 2390 H 234.222 -1.67276 -3.41759 0
M  V30 2391 H 233.734 -3.12075 -2.30718 0
M  V30 2392 H 231.835 -1.01242 -3.58582 0
M  V30 2393 H 231.948 -2.88102 -3.82798 0
M  V30 2394 H 230.312 -1.45319 -2.09175 0
M  V30 2395 H 231.095 -3.04566 -1.58413 0
M  V30 2396 N 233.54 1.10788 -1.12088 0
M  V30 2397 C 234.765 1.87002 -0.896949 0
M  V30 2398 C 235.19 1.79933 0.548261 0
M  V30 2399 O 234.548 1.16662 1.38779 0
M  V30 2400 C 234.596 3.3349 -1.37174 0
M  V30 2401 O 233.7 4.08745 -0.547831 0
M  V30 2402 H 233.041 0.580397 -0.322545 0
M  V30 2403 H 235.571 1.39996 -1.49206 0
M  V30 2404 H 235.581 3.84339 -1.36922 0
M  V30 2405 H 234.256 3.37951 -2.42408 0
M  V30 2406 H 232.833 3.6776 -0.617034 0
M  V30 2407 N 235.018 0.912232 1.28515 0
M  V30 2408 C 236.266 0.543523 1.94654 0
M  V30 2409 C 236.587 -0.9155 1.72173 0
M  V30 2410 O 235.857 -1.64708 1.06058 0
M  V30 2411 H 234.437 0.198017 0.720277 0
M  V30 2412 H 237.099 1.16126 1.56527 0
M  V30 2413 H 236.195 0.736684 3.03281 0
M  V30 2414 N 236.496 -1.42363 0.676048 0
M  V30 2415 C 237.724 -2.05859 0.207268 0
M  V30 2416 C 238.139 -1.50796 -1.13605 0
M  V30 2417 O 237.496 -0.648265 -1.70598 0
M  V30 2418 C 237.547 -3.61248 0.134975 0
M  V30 2419 O 237.268 -4.1427 1.42521 0
M  V30 2420 C 238.769 -4.41859 -0.357151 0
M  V30 2421 H 235.989 -0.663431 0.100503 0
M  V30 2422 H 238.533 -1.82479 0.923136 0
M  V30 2423 H 236.688 -3.83735 -0.531588 0
M  V30 2424 H 237.102 -5.0815 1.29939 0
M  V30 2425 H 238.576 -5.50847 -0.356641 0
M  V30 2426 H 239.053 -4.16536 -1.39264 0
M  V30 2427 H 239.659 -4.24392 0.27772 0
M  V30 2428 N 237.974 -0.419461 -1.51915 0
M  V30 2429 C 239.221 0.152939 -2.01922 0
M  V30 2430 C 239.549 1.4426 -1.30458 0
M  V30 2431 O 238.804 1.91514 -0.402593 0
M  V30 2432 C 239.103 0.437067 -3.54717 0
M  V30 2433 C 238.769 -0.764632 -4.44369 0
M  V30 2434 C 237.431 -1.09423 -4.68594 0
M  V30 2435 C 239.783 -1.56713 -4.97082 0
M  V30 2436 C 237.111 -2.22732 -5.42777 0
M  V30 2437 C 239.463 -2.69107 -5.72507 0
M  V30 2438 C 238.127 -3.02541 -5.95 0
M  V30 2439 H 237.397 0.0559644 -0.738884 0
M  V30 2440 H 240.044 -0.562998 -1.83037 0
M  V30 2441 H 238.349 1.23469 -3.71837 0
M  V30 2442 H 240.046 0.893083 -3.90928 0
M  V30 2443 H 236.636 -0.497775 -4.257 0
M  V30 2444 H 240.82 -1.32571 -4.78266 0
M  V30 2445 H 236.076 -2.48971 -5.58411 0
M  V30 2446 H 240.25 -3.31671 -6.12346 0
M  V30 2447 H 237.877 -3.90457 -6.52264 0
M  V30 2448 N 239.452 1.56882 -0.150215 0
M  V30 2449 C 240.698 1.96518 0.500834 0
M  V30 2450 C 241.031 1.03527 1.64304 0
M  V30 2451 O 240.306 0.0782751 1.94342 0
M  V30 2452 C 240.589 3.45822 1.00395 0
M  V30 2453 C 240.442 4.49591 -0.136983 0
M  V30 2454 C 241.761 3.97704 1.88467 0
M  V30 2455 H 238.88 0.714535 0.18058 0
M  V30 2456 H 241.522 1.88577 -0.232091 0
M  V30 2457 H 239.672 3.5272 1.62851 0
M  V30 2458 H 241.344 4.5477 -0.77343 0
M  V30 2459 H 239.587 4.26441 -0.795652 0
M  V30 2460 H 240.258 5.51402 0.256815 0
M  V30 2461 H 242.734 3.93304 1.35834 0
M  V30 2462 H 241.61 5.0263 2.20578 0
M  V30 2463 H 241.871 3.40252 2.82279 0
M  V30 2464 N 240.93 -0.123565 1.57115 0
M  V30 2465 C 241.862 -1.17739 1.96648 0
M  V30 2466 C 242.875 -1.37906 0.865201 0
M  V30 2467 O 244.064 -1.37062 1.14351 0
M  V30 2468 C 241.164 -2.53821 2.24562 0
M  V30 2469 C 240.337 -2.54317 3.55867 0
M  V30 2470 C 239.396 -3.72112 3.72047 0
M  V30 2471 O 238.422 -3.55907 4.44206 0
M  V30 2472 N 239.624 -4.90498 3.10471 0
M  V30 2473 H 242.389 -0.841147 2.87654 0
M  V30 2474 H 239.95 -0.31289 1.58848 0
M  V30 2475 H 241.942 -3.31175 2.32606 0
M  V30 2476 H 240.512 -2.79645 1.39705 0
M  V30 2477 H 239.732 -1.62711 3.59053 0
M  V30 2478 H 241.02 -2.51701 4.42181 0
M  V30 2479 H 240.418 -5.06567 2.51806 0
M  V30 2480 H 238.975 -5.65544 3.24043 0
M  V30 2481 N 242.408 -1.52605 -0.393616 0
M  V30 2482 C 243.648 -1.6911 -1.1481 0
M  V30 2483 C 244.012 -0.41969 -1.87357 0
M  V30 2484 O 245.213 -0.461034 -2.64817 0
M  V30 2485 C 243.484 -2.88909 -2.10395 0
M  V30 2486 S 245.043 -3.25977 -2.93742 0
M  V30 2487 H 241.861 -0.595337 -0.38871 0
M  V30 2488 H 244.463 -1.90641 -0.433178 0
M  V30 2489 H 243.167 -3.79672 -1.55812 0
M  V30 2490 H 242.698 -2.69698 -2.86403 0
M  V30 2491 H 244.713 -2.75806 -4.12487 0
M  V30 2492 N 243.887 0.651787 -1.4349 0
M  V30 2493 C 245.164 1.40909 -1.35661 0
M  V30 2494 C 245.544 2.11099 -0.00511733 0
M  V30 2495 O 244.892 2.04892 1.0115 0
M  V30 2496 C 245.102 2.3926 -2.54078 0
M  V30 2497 C 246.45 3.03217 -2.97228 0
M  V30 2498 O 247.474 2.49588 -2.54135 0
M  V30 2499 O 246.333 4.00455 -3.71885 0
M  V30 2500 H 243.427 0.629625 -0.536191 0
M  V30 2501 H 245.973 0.678575 -1.55542 0
M  V30 2502 H 244.745 1.86352 -3.44076 0
M  V30 2503 H 244.368 3.1976 -2.36303 0
M  V30 2504 N 245.365 1.30045 0.890287 0
M  V30 2505 C 246.328 1.15963 1.977 0
M  V30 2506 C 247.328 0.0923777 1.60534 0
M  V30 2507 O 248.518 0.340071 1.70848 0
M  V30 2508 C 245.65 0.775451 3.31963 0
M  V30 2509 H 246.843 2.12502 2.11619 0
M  V30 2510 H 244.396 1.13366 1.07601 0
M  V30 2511 H 245.131 -0.189671 3.23745 0
M  V30 2512 H 244.916 1.54668 3.60306 0
M  V30 2513 H 246.406 0.700251 4.11687 0
M  V30 2514 N 246.843 -1.10192 1.12674 0
M  V30 2515 C 248.259 -1.34235 0.863317 0
M  V30 2516 C 248.459 -1.95062 -0.505277 0
M  V30 2517 O 247.515 -2.19192 -1.25345 0
M  V30 2518 C 248.828 -2.2616 1.98172 0
M  V30 2519 C 250.376 -2.3969 2.0129 0
M  V30 2520 C 250.851 -3.34946 3.1237 0
M  V30 2521 N 252.342 -3.42515 3.11829 0
M  V30 2522 C 253.077 -4.16199 3.94419 0
M  V30 2523 N 252.573 -4.92747 4.87004 0
M  V30 2524 N 254.366 -4.11843 3.82547 0
M  V30 2525 H 246.517 -0.690798 2.00853 0
M  V30 2526 H 248.78 -0.366774 0.874174 0
M  V30 2527 H 248.486 -1.8868 2.96804 0
M  V30 2528 H 248.36 -3.26488 1.88906 0
M  V30 2529 H 250.747 -2.76438 1.03276 0
M  V30 2530 H 250.828 -1.39169 2.14629 0
M  V30 2531 H 250.472 -2.98923 4.10619 0
M  V30 2532 H 250.402 -4.35353 2.96269 0
M  V30 2533 H 252.893 -2.87926 2.44759 0
M  V30 2534 H 253.206 -5.46376 5.46528 0
M  V30 2535 H 251.551 -4.91862 4.91016 0
M  V30 2536 H 254.742 -3.51136 3.0955 0
M  V30 2537 H 254.915 -4.69007 4.47142 0
M  V30 2538 N 248.321 -0.919034 -1.28029 0
M  V30 2539 C 249.284 -0.416182 -2.2539 0
M  V30 2540 C 250.284 0.460438 -1.54067 0
M  V30 2541 O 251.474 0.262744 -1.72207 0
M  V30 2542 C 248.606 0.402707 -3.38513 0
M  V30 2543 H 249.799 -1.27629 -2.71387 0
M  V30 2544 H 247.352 -0.698919 -1.39803 0
M  V30 2545 H 248.087 1.282 -2.97885 0
M  V30 2546 H 247.872 -0.225698 -3.9145 0
M  V30 2547 H 249.362 0.745191 -4.10897 0
M  V30 2548 N 249.799 1.42003 -0.683588 0
M  V30 2549 C 251.048 2.00638 -0.206681 0
M  V30 2550 C 251.361 1.5472 1.19671 0
M  V30 2551 O 252.567 2.05833 1.77045 0
M  V30 2552 C 251.023 3.58487 -0.318632 0
M  V30 2553 C 250.631 4.1339 -1.72663 0
M  V30 2554 C 252.375 4.24384 0.0991141 0
M  V30 2555 C 250.282 5.63633 -1.79087 0
M  V30 2556 H 249.212 0.750408 -0.0735107 0
M  V30 2557 H 251.863 1.62624 -0.850048 0
M  V30 2558 H 250.245 3.94047 0.392781 0
M  V30 2559 H 251.419 3.89273 -2.46583 0
M  V30 2560 H 249.734 3.59976 -2.09299 0
M  V30 2561 H 252.331 5.34652 0.0713833 0
M  V30 2562 H 252.674 4.00505 1.13586 0
M  V30 2563 H 253.207 3.93816 -0.561599 0
M  V30 2564 H 249.946 5.92323 -2.80774 0
M  V30 2565 H 249.466 5.89714 -1.09535 0
M  V30 2566 H 251.145 6.28201 -1.5483 0
M  V30 2567 N 251.277 0.427512 1.51691 0
M  V30 2568 C 252.525 -0.141948 2.01601 0
M  V30 2569 C 252.846 -1.44067 1.31414 0
M  V30 2570 O 252.116 -1.90763 0.445658 0
M  V30 2571 H 250.696 -0.0554468 0.744939 0
M  V30 2572 H 253.358 0.567968 1.86441 0
M  V30 2573 H 252.454 -0.324913 3.10404 0
M  V30 2574 N 252.755 -1.56801 0.158532 0
M  V30 2575 C 253.98 -2.01295 -0.499516 0
M  V30 2576 C 254.405 -1.03799 -1.56867 0
M  V30 2577 O 253.763 -0.0155162 -1.81293 0
M  V30 2578 C 253.811 -3.44469 -1.06647 0
M  V30 2579 O 252.915 -3.50012 -2.18095 0
M  V30 2580 H 252.256 -0.652884 -0.12099 0
M  V30 2581 H 254.786 -2.02958 0.258661 0
M  V30 2582 H 254.796 -3.8351 -1.39227 0
M  V30 2583 H 253.471 -4.14932 -0.283581 0
M  V30 2584 H 252.048 -3.22822 -1.86656 0
M  V30 2585 N 254.233 0.115231 -1.57178 0
M  V30 2586 C 255.196 1.12526 -1.99676 0
M  V30 2587 C 256.196 1.34095 -0.88742 0
M  V30 2588 O 257.386 1.30548 -1.15337 0
M  V30 2589 C 254.518 2.4789 -2.34015 0
M  V30 2590 H 255.711 0.759912 -2.90113 0
M  V30 2591 H 253.264 0.359648 -1.52106 0
M  V30 2592 H 253.999 2.89339 -1.4647 0
M  V30 2593 H 253.784 2.33588 -3.14927 0
M  V30 2594 H 255.274 3.20575 -2.67622 0
M  V30 2595 N 255.711 1.52812 0.385517 0
M  V30 2596 C 256.936 1.72207 1.15583 0
M  V30 2597 C 257.361 0.441034 1.82857 0
M  V30 2598 O 256.719 -0.603465 1.70962 0
M  V30 2599 C 256.767 2.87476 2.17692 0
M  V30 2600 O 255.871 2.54693 3.24354 0
M  V30 2601 H 255.212 0.572526 0.336319 0
M  V30 2602 H 257.742 1.99618 0.448744 0
M  V30 2603 H 257.752 3.13072 2.6163 0
M  V30 2604 H 256.427 3.80408 1.68115 0
M  V30 2605 H 255.004 2.3985 2.85529 0
M  V30 2606 N 257.189 -0.644168 1.43834 0
M  V30 2607 C 258.099 -1.78563 1.52159 0
M  V30 2608 C 259.115 -1.69147 0.408069 0
M  V30 2609 O 260.291 -1.90156 0.663524 0
M  V30 2610 C 257.356 -3.14888 1.45073 0
M  V30 2611 C 256.417 -3.36034 2.6717 0
M  V30 2612 C 255.65 -4.65855 2.60413 0
M  V30 2613 O 255.873 -5.45805 1.65689 0
M  V30 2614 O 254.807 -4.88918 3.5106 0
M  V30 2615 H 258.633 -1.74494 2.48567 0
M  V30 2616 H 256.218 -0.80378 1.25935 0
M  V30 2617 H 258.1 -3.96179 1.43597 0
M  V30 2618 H 256.775 -3.19528 0.518037 0
M  V30 2619 H 255.682 -2.54472 2.74217 0
M  V30 2620 H 257.015 -3.36247 3.59442 0
M  V30 2621 N 258.668 -1.30515 -0.883378 0
M  V30 2622 C 259.916 -1.19194 -1.63209 0
M  V30 2623 C 260.237 0.253205 -1.93349 0
M  V30 2624 O 259.507 1.17025 -1.57105 0
M  V30 2625 H 258.087 -0.438148 -0.605009 0
M  V30 2626 H 260.749 -1.63663 -1.05832 0
M  V30 2627 H 259.845 -1.75396 -2.58153 0
M  V30 2628 N 260.146 1.09593 -1.13257 0
M  V30 2629 C 261.109 2.14359 -0.811358 0
M  V30 2630 C 262.109 1.59808 0.178377 0
M  V30 2631 O 263.299 1.74132 -0.0484911 0
M  V30 2632 C 260.431 3.40269 -0.207276 0
M  V30 2633 H 261.624 2.44284 -1.73969 0
M  V30 2634 H 259.177 1.25102 -0.936973 0
M  V30 2635 H 259.912 3.15969 0.73036 0
M  V30 2636 H 259.697 3.81154 -0.919992 0
M  V30 2637 H 261.187 4.176 0.000667944 0
M  V30 2638 N 261.624 0.925811 1.2754 0
M  V30 2639 C 262.556 0.380753 2.26015 0
M  V30 2640 C 263.569 -0.487485 1.5533 0
M  V30 2641 O 264.758 -0.300413 1.75954 0
M  V30 2642 C 261.858 -0.473259 3.35579 0
M  V30 2643 C 261.031 0.375249 4.35787 0
M  V30 2644 C 260.09 -0.415809 5.24555 0
M  V30 2645 O 259.116 0.175834 5.68928 0
M  V30 2646 N 260.318 -1.71607 5.54555 0
M  V30 2647 H 263.083 1.22725 2.73421 0
M  V30 2648 H 260.644 0.793037 1.41147 0
M  V30 2649 H 262.636 -1.00949 3.91907 0
M  V30 2650 H 261.206 -1.2205 2.87789 0
M  V30 2651 H 260.426 1.09279 3.7875 0
M  V30 2652 H 261.714 0.955399 4.99749 0
M  V30 2653 H 261.112 -2.2191 5.20358 0
M  V30 2654 H 259.669 -2.19887 6.1359 0
M  V30 2655 N 263.102 -1.41638 0.69111 0
M  V30 2656 C 264.327 -2.06148 0.227583 0
M  V30 2657 C 264.752 -1.51652 -1.11281 0
M  V30 2658 O 264.11 -0.64164 -1.69566 0
M  V30 2659 C 264.158 -3.60095 0.190858 0
M  V30 2660 O 263.262 -4.03845 -0.835664 0
M  V30 2661 H 262.603 -0.654434 0.112306 0
M  V30 2662 H 265.133 -1.81484 0.944714 0
M  V30 2663 H 265.143 -4.07995 0.020207 0
M  V30 2664 H 263.818 -3.99129 1.16915 0
M  V30 2665 H 262.395 -3.67458 -0.63473 0
M  V30 2666 N 264.58 -0.43555 -1.51462 0
M  V30 2667 C 265.805 0.132627 -2.06976 0
M  V30 2668 C 266.23 1.35848 -1.30104 0
M  V30 2669 O 265.588 1.78112 -0.338493 0
M  V30 2670 C 265.636 0.43523 -3.57964 0
M  V30 2671 O 264.74 1.52198 -3.83288 0
M  V30 2672 H 264.081 0.00265 -0.663995 0
M  V30 2673 H 266.611 -0.616369 -1.95095 0
M  V30 2674 H 266.621 0.686206 -4.02188 0
M  V30 2675 H 265.296 -0.460739 -4.1334 0
M  V30 2676 H 263.873 1.2611 -3.50928 0
M  V30 2677 N 266.058 1.56714 -0.166846 0
M  V30 2678 C 266.988 2.20754 0.760913 0
M  V30 2679 C 267.969 1.16178 1.24244 0
M  V30 2680 O 269.154 1.44592 1.29641 0
M  V30 2681 C 266.284 2.84478 1.99223 0
M  V30 2682 C 265.238 3.95053 1.64672 0
M  V30 2683 C 264.564 4.45805 2.95232 0
M  V30 2684 C 265.864 5.14865 0.878155 0
M  V30 2685 H 267.558 2.98537 0.22713 0
M  V30 2686 H 265.104 1.43596 0.107805 0
M  V30 2687 H 267.057 3.27951 2.64624 0
M  V30 2688 H 265.781 2.04056 2.55007 0
M  V30 2689 H 264.44 3.52228 1.01641 0
M  V30 2690 H 264.088 3.62181 3.49047 0
M  V30 2691 H 263.788 5.204 2.7287 0
M  V30 2692 H 265.312 4.91962 3.6167 0
M  V30 2693 H 266.726 5.55059 1.43466 0
M  V30 2694 H 265.123 5.95348 0.753738 0
M  V30 2695 H 266.193 4.84735 -0.126377 0
M  V30 2696 N 267.536 -0.106894 1.57237 0
M  V30 2697 C 268.468 -1.15646 1.97885 0
M  V30 2698 C 269.481 -1.36981 0.879779 0
M  V30 2699 O 270.67 -1.35841 1.15799 0
M  V30 2700 C 267.77 -2.51425 2.27241 0
M  V30 2701 C 266.943 -2.50529 3.58545 0
M  V30 2702 C 266.002 -3.68145 3.75973 0
M  V30 2703 O 265.028 -3.51176 4.47956 0
M  V30 2704 N 266.23 -4.87177 3.15656 0
M  V30 2705 H 268.995 -0.81059 2.8853 0
M  V30 2706 H 266.556 -0.296024 1.59171 0
M  V30 2707 H 268.548 -3.28689 2.36105 0
M  V30 2708 H 267.118 -2.78147 1.42663 0
M  V30 2709 H 266.338 -1.58894 3.60758 0
M  V30 2710 H 267.626 -2.46997 4.44826 0
M  V30 2711 H 267.024 -5.03868 2.57165 0
M  V30 2712 H 265.581 -5.62075 3.30023 0
M  V30 2713 N 269.014 -1.53014 -0.377408 0
M  V30 2714 C 269.924 -1.81557 -1.48574 0
M  V30 2715 C 270.94 -0.703102 -1.59162 0
M  V30 2716 O 272.116 -0.99192 -1.75279 0
M  V30 2717 C 269.181 -1.9889 -2.83978 0
M  V30 2718 C 268.242 -3.22801 -2.83016 0
M  V30 2719 C 267.475 -3.39298 -4.11962 0
M  V30 2720 O 267.698 -2.60345 -5.0752 0
M  V30 2721 O 266.632 -4.32604 -4.18494 0
M  V30 2722 H 270.458 -2.75695 -1.27382 0
M  V30 2723 H 268.043 -1.38248 -0.566373 0
M  V30 2724 H 269.925 -2.11931 -3.6423 0
M  V30 2725 H 268.6 -1.07942 -3.05172 0
M  V30 2726 H 267.507 -3.15193 -2.01505 0
M  V30 2727 H 268.84 -4.13632 -2.66775 0
M  V30 2728 N 270.492 0.636531 -1.44174 0
M  V30 2729 C 271.738 1.39826 -1.4689 0
M  V30 2730 C 272.071 1.93947 -0.0990585 0
M  V30 2731 O 271.346 1.73325 0.882544 0
M  V30 2732 C 271.629 2.56751 -2.5249 0
M  V30 2733 C 271.482 2.08014 -3.98811 0
M  V30 2734 C 272.801 3.58946 -2.54649 0
M  V30 2735 H 269.92 0.507075 -0.53483 0
M  V30 2736 H 272.562 0.720188 -1.75822 0
M  V30 2737 H 270.712 3.14597 -2.2795 0
M  V30 2738 H 272.384 1.5504 -4.34466 0
M  V30 2739 H 270.627 1.39242 -4.10846 0
M  V30 2740 H 271.298 2.92169 -4.68339 0
M  V30 2741 H 273.774 3.1089 -2.76563 0
M  V30 2742 H 272.65 4.38286 -3.3045 0
M  V30 2743 H 272.911 4.12655 -1.58646 0
M  V30 2744 N 271.97 1.30982 0.876444 0
M  V30 2745 C 273.2 1.23063 1.65949 0
M  V30 2746 C 273.608 -0.207537 1.88058 0
M  V30 2747 O 272.951 -1.14781 1.43426 0
M  V30 2748 C 273.013 1.89768 3.05333 0
M  V30 2749 C 272.677 3.39106 3.0636 0
M  V30 2750 C 273.674 4.3496 2.84791 0
M  V30 2751 C 271.359 3.80693 3.27686 0
M  V30 2752 C 273.353 5.70375 2.84519 0
M  V30 2753 C 271.04 5.16223 3.27043 0
M  V30 2754 C 272.038 6.10875 3.05485 0
M  V30 2755 O 271.726 7.43928 3.04674 0
M  V30 2756 H 271.458 0.426685 0.524324 0
M  V30 2757 H 274.012 1.7329 1.10271 0
M  V30 2758 H 272.242 1.34082 3.6271 0
M  V30 2759 H 273.931 1.75853 3.65829 0
M  V30 2760 H 274.697 4.0416 2.68103 0
M  V30 2761 H 270.576 3.07457 3.43499 0
M  V30 2762 H 274.12 6.44228 2.67611 0
M  V30 2763 H 270.017 5.4666 3.43269 0
M  V30 2764 H 270.785 7.53022 3.2078 0
M  V30 2765 N 273.449 -1.08991 1.13837 0
M  V30 2766 C 274.399 -2.1393 0.788535 0
M  V30 2767 C 275.383 -1.59396 -0.219516 0
M  V30 2768 O 276.575 -1.76985 -0.0227557 0
M  V30 2769 C 273.704 -3.42305 0.261147 0
M  V30 2770 C 272.79 -4.03736 1.29837 0
M  V30 2771 N 273.181 -4.39659 2.50067 0
M  V30 2772 C 271.479 -4.30993 1.1472 0
M  V30 2773 C 272.18 -4.88113 3.16419 0
M  V30 2774 N 271.156 -4.85846 2.43832 0
M  V30 2775 H 274.958 -2.39516 1.70322 0
M  V30 2776 H 272.472 -1.26263 1.02134 0
M  V30 2777 H 274.469 -4.16899 -0.0077405 0
M  V30 2778 H 273.129 -3.18172 -0.647805 0
M  V30 2779 H 274.14 -4.30878 2.8734 0
M  V30 2780 H 270.817 -4.16444 0.296773 0
M  V30 2781 H 272.207 -5.25336 4.18894 0
M  V30 2782 N 274.927 -0.932562 -1.27047 0
M  V30 2783 C 275.874 -0.434072 -2.26681 0
M  V30 2784 C 276.844 0.501639 -1.58344 0
M  V30 2785 O 278.029 0.419734 -1.86126 0
M  V30 2786 C 275.169 0.30261 -3.43771 0
M  V30 2787 C 274.282 -0.667774 -4.26808 0
M  V30 2788 C 273.417 0.0892393 -5.31125 0
M  V30 2789 C 272.456 -0.873532 -6.05835 0
M  V30 2790 N 271.593 -0.148832 -7.01942 0
M  V30 2791 H 276.433 -1.28868 -2.68695 0
M  V30 2792 H 273.97 -0.646713 -1.32121 0
M  V30 2793 H 275.928 0.746092 -4.10474 0
M  V30 2794 H 274.558 1.12142 -3.02695 0
M  V30 2795 H 273.61 -1.22978 -3.59973 0
M  V30 2796 H 274.922 -1.40337 -4.78651 0
M  V30 2797 H 274.076 0.592409 -6.03801 0
M  V30 2798 H 272.815 0.85777 -4.80097 0
M  V30 2799 H 271.82 -1.38791 -5.31994 0
M  V30 2800 H 273.045 -1.64193 -6.58952 0
M  V30 2801 H 270.991 0.601365 -6.53238 0
M  V30 2802 H 270.908 -0.82391 -7.51497 0
M  V30 2803 H 272.176 0.333527 -7.78786 0
M  V30 2804 N 276.405 1.4127 -0.698611 0
M  V30 2805 C 277.63 2.06024 -0.238512 0
M  V30 2806 C 278.055 1.5224 1.10475 0
M  V30 2807 O 277.413 0.650623 1.69223 0
M  V30 2808 C 277.461 3.59988 -0.209952 0
M  V30 2809 O 276.565 4.04282 0.814235 0
M  V30 2810 H 275.906 0.653829 -0.115775 0
M  V30 2811 H 278.436 1.8098 -0.954326 0
M  V30 2812 H 278.446 4.07979 -0.0418436 0
M  V30 2813 H 277.121 3.98503 -1.1903 0
M  V30 2814 H 275.698 3.6779 0.615234 0
M  V30 2815 N 277.883 0.443576 1.51229 0
M  V30 2816 C 278.816 -0.410089 2.24485 0
M  V30 2817 C 279.794 -1.01949 1.26669 0
M  V30 2818 O 280.978 -1.06075 1.55821 0
M  V30 2819 C 278.105 -1.57211 3.00004 0
M  V30 2820 C 277.151 -1.08279 4.12526 0
M  V30 2821 S 277.984 -0.0197476 5.35496 0
M  V30 2822 C 279.14 -1.18629 6.14555 0
M  V30 2823 H 279.373 0.211832 2.96544 0
M  V30 2824 H 276.906 0.228156 1.52705 0
M  V30 2825 H 278.864 -2.23825 3.44111 0
M  V30 2826 H 277.525 -2.16547 2.27522 0
M  V30 2827 H 276.718 -1.95193 4.64667 0
M  V30 2828 H 276.32 -0.494797 3.70713 0
M  V30 2829 H 278.612 -2.10344 6.4402 0
M  V30 2830 H 279.555 -0.70472 7.04584 0
M  V30 2831 H 279.963 -1.42768 5.46148 0
M  V30 2832 N 279.361 -1.56624 0.175154 0
M  V30 2833 C 280.589 -2.01374 -0.474971 0
M  V30 2834 C 281.004 -1.05537 -1.56548 0
M  V30 2835 O 280.361 -0.0568668 -1.82411 0
M  V30 2836 C 280.412 -3.45923 -1.04975 0
M  V30 2837 O 280.133 -4.381 -0.00276605 0
M  V30 2838 C 281.634 -4.06093 -1.77773 0
M  V30 2839 H 278.854 -0.659962 -0.121206 0
M  V30 2840 H 281.398 -2.02601 0.27801 0
M  V30 2841 H 279.553 -3.45458 -1.75321 0
M  V30 2842 H 279.967 -5.22753 -0.427681 0
M  V30 2843 H 281.441 -5.09147 -2.13245 0
M  V30 2844 H 281.918 -3.48405 -2.67414 0
M  V30 2845 H 282.524 -4.10272 -1.12059 0
M  V30 2846 N 280.839 0.0985539 -1.57292 0
M  V30 2847 C 281.769 1.12064 -2.04851 0
M  V30 2848 C 282.75 1.41981 -0.936767 0
M  V30 2849 O 283.935 1.52071 -1.20781 0
M  V30 2850 C 281.065 2.44144 -2.47004 0
M  V30 2851 C 280.019 2.28643 -3.6181 0
M  V30 2852 C 279.345 3.65869 -3.89929 0
M  V30 2853 C 280.645 1.72986 -4.92822 0
M  V30 2854 H 282.339 0.724979 -2.9049 0
M  V30 2855 H 279.885 0.34729 -1.39749 0
M  V30 2856 H 281.838 3.15914 -2.78884 0
M  V30 2857 H 280.562 2.85639 -1.5836 0
M  V30 2858 H 279.221 1.59318 -3.30172 0
M  V30 2859 H 278.869 4.04885 -2.98458 0
M  V30 2860 H 278.569 3.56344 -4.67218 0
M  V30 2861 H 280.093 4.39112 -4.2428 0
M  V30 2862 H 281.507 2.34593 -5.23105 0
M  V30 2863 H 279.904 1.74229 -5.74251 0
M  V30 2864 H 280.974 0.689007 -4.7998 0
M  V30 2865 N 282.317 1.53212 0.369288 0
M  V30 2866 C 283.264 1.79388 1.45219 0
M  V30 2867 C 284.234 0.638059 1.53356 0
M  V30 2868 O 285.419 0.879852 1.69302 0
M  V30 2869 C 282.559 1.98623 2.82211 0
M  V30 2870 C 281.672 3.26337 2.8307 0
M  V30 2871 C 280.807 3.35779 4.11614 0
M  V30 2872 C 279.846 4.5754 4.06601 0
M  V30 2873 N 278.983 4.64155 5.26787 0
M  V30 2874 H 283.823 2.71794 1.22198 0
M  V30 2875 H 281.36 1.34642 0.592444 0
M  V30 2876 H 283.318 2.07761 3.61789 0
M  V30 2877 H 281.948 1.09558 3.03639 0
M  V30 2878 H 281 3.26171 1.95747 0
M  V30 2879 H 282.312 4.15988 2.75237 0
M  V30 2880 H 281.466 3.44208 4.99606 0
M  V30 2881 H 280.205 2.44137 4.22195 0
M  V30 2882 H 279.21 4.49215 3.16996 0
M  V30 2883 H 280.435 5.50519 3.97625 0
M  V30 2884 H 278.381 3.75413 5.3796 0
M  V30 2885 H 278.298 5.47706 5.21109 0
M  V30 2886 H 279.566 4.76863 6.16621 0
M  V30 2887 N 283.795 -0.628877 1.44509 0
M  V30 2888 C 284.705 -1.7694 1.54044 0
M  V30 2889 C 285.721 -1.68705 0.425987 0
M  V30 2890 O 286.897 -1.89442 0.683656 0
M  V30 2891 C 283.962 -3.13332 1.48405 0
M  V30 2892 C 283.023 -3.33181 2.70719 0
M  V30 2893 C 282.256 -4.63067 2.6534 0
M  V30 2894 O 282.479 -5.44017 1.71469 0
M  V30 2895 O 281.413 -4.85167 3.56226 0
M  V30 2896 H 285.239 -1.71848 2.50403 0
M  V30 2897 H 282.824 -0.790378 1.26781 0
M  V30 2898 H 284.706 -3.94634 1.47791 0
M  V30 2899 H 283.381 -3.1896 0.551898 0
M  V30 2900 H 282.288 -2.51549 2.769 0
M  V30 2901 H 283.621 -3.32416 3.62988 0
M  V30 2902 N 285.273 -1.31445 -0.869486 0
M  V30 2903 C 286.236 -1.19094 -1.9583 0
M  V30 2904 C 287.236 -0.117906 -1.60367 0
M  V30 2905 O 288.426 -0.367208 -1.70286 0
M  V30 2906 C 285.558 -0.828165 -3.30688 0
M  V30 2907 H 286.751 -2.15842 -2.08212 0
M  V30 2908 H 284.304 -1.15063 -1.05784 0
M  V30 2909 H 285.039 0.138142 -3.24006 0
M  V30 2910 H 284.824 -1.6038 -3.578 0
M  V30 2911 H 286.314 -0.765658 -4.10521 0
M  V30 2912 N 286.751 1.08385 -1.14413 0
M  V30 2913 C 288 1.80153 -0.907076 0
M  V30 2914 C 288.313 1.87176 0.567851 0
M  V30 2915 O 289.519 2.55359 0.922172 0
M  V30 2916 C 287.975 3.23687 -1.57336 0
M  V30 2917 C 287.583 3.24897 -3.08457 0
M  V30 2918 C 289.327 4.00136 -1.41744 0
M  V30 2919 C 287.234 4.6302 -3.67921 0
M  V30 2920 H 286.164 0.675139 -0.335714 0
M  V30 2921 H 288.815 1.21733 -1.37307 0
M  V30 2922 H 287.197 3.82234 -1.03505 0
M  V30 2923 H 288.371 2.76055 -3.68958 0
M  V30 2924 H 286.686 2.61943 -3.2369 0
M  V30 2925 H 289.283 5.02201 -1.83572 0
M  V30 2926 H 289.626 4.14709 -0.363576 0
M  V30 2927 H 290.159 3.48058 -1.92614 0
M  V30 2928 H 286.898 4.5365 -4.73161 0
M  V30 2929 H 286.418 5.12143 -3.12201 0
M  V30 2930 H 288.097 5.31994 -3.68227 0
M  V30 2931 N 288.23 0.939286 1.26551 0
M  V30 2932 C 289.177 0.446088 2.26448 0
M  V30 2933 C 290.147 -0.493234 1.58608 0
M  V30 2934 O 291.332 -0.409857 1.86346 0
M  V30 2935 C 288.472 -0.284375 3.43926 0
M  V30 2936 C 287.585 0.690399 4.26448 0
M  V30 2937 C 286.72 -0.0610712 5.31165 0
M  V30 2938 C 285.759 0.905649 6.05363 0
M  V30 2939 N 284.896 0.186055 7.01853 0
M  V30 2940 H 289.736 1.30291 2.68008 0
M  V30 2941 H 287.273 0.65371 1.31776 0
M  V30 2942 H 289.231 -0.724313 4.10864 0
M  V30 2943 H 287.861 -1.10535 3.03285 0
M  V30 2944 H 286.913 1.24885 3.59316 0
M  V30 2945 H 288.225 1.42873 4.779 0
M  V30 2946 H 287.379 -0.56038 6.04106 0
M  V30 2947 H 286.118 -0.832297 4.80546 0
M  V30 2948 H 285.123 1.4161 5.3125 0
M  V30 2949 H 286.348 1.67685 6.58072 0
M  V30 2950 H 284.294 -0.566714 6.53548 0
M  V30 2951 H 284.211 0.863752 7.51049 0
M  V30 2952 H 285.479 -0.292221 7.78952 0
M  V30 2953 N 289.708 -1.40897 0.706093 0
M  V30 2954 C 290.933 -2.05895 0.249435 0
M  V30 2955 C 291.358 -1.52823 -1.09666 0
M  V30 2956 O 290.716 -0.659589 -1.68876 0
M  V30 2957 C 290.764 -3.59872 0.22904 0
M  V30 2958 O 289.868 -4.04708 -0.792784 0
M  V30 2959 H 289.209 -0.653206 0.119241 0
M  V30 2960 H 291.739 -1.80471 0.96391 0
M  V30 2961 H 291.749 -4.07951 0.0634791 0
M  V30 2962 H 290.424 -3.97866 1.21141 0
M  V30 2963 H 289.001 -3.68111 -0.59572 0
M  V30 2964 N 291.186 -0.45159 -1.50991 0
M  V30 2965 C 292.411 0.110667 -2.07105 0
M  V30 2966 C 292.836 1.3446 -1.31538 0
M  V30 2967 O 292.194 1.77743 -0.357365 0
M  V30 2968 C 292.242 0.397238 -3.58405 0
M  V30 2969 O 291.346 1.48124 -3.84881 0
M  V30 2970 H 290.687 -0.00439271 -0.663985 0
M  V30 2971 H 293.217 -0.637026 -1.9443 0
M  V30 2972 H 293.227 0.64351 -4.02893 0
M  V30 2973 H 291.902 -0.504553 -4.12828 0
M  V30 2974 H 290.479 1.22381 -3.52246 0
M  V30 2975 N 292.664 1.56529 -0.183458 0
M  V30 2976 C 293.594 2.21549 0.737456 0
M  V30 2977 C 294.575 1.17489 1.23005 0
M  V30 2978 O 295.76 1.45959 1.281 0
M  V30 2979 C 292.89 2.86575 1.96194 0
M  V30 2980 C 291.844 3.96778 1.60473 0
M  V30 2981 C 291.17 4.48911 2.90487 0
M  V30 2982 C 292.47 5.15767 0.823497 0
M  V30 2983 H 294.164 2.98761 0.195453 0
M  V30 2984 H 291.71 1.43702 0.0925686 0
M  V30 2985 H 293.663 3.30739 2.61131 0
M  V30 2986 H 292.387 2.06749 2.52828 0
M  V30 2987 H 291.046 3.53286 0.978997 0
M  V30 2988 H 290.694 3.65862 3.45186 0
M  V30 2989 H 290.394 5.23265 2.67335 0
M  V30 2990 H 291.918 4.95771 3.56432 0
M  V30 2991 H 293.332 5.56549 1.37571 0
M  V30 2992 H 291.729 5.96114 0.690551 0
M  V30 2993 H 292.799 4.84574 -0.177782 0
M  V30 2994 N 294.142 -0.090211 1.57342 0
M  V30 2995 C 295.391 -0.791531 1.8552 0
M  V30 2996 C 295.704 -1.79659 0.773441 0
M  V30 2997 O 296.91 -2.54616 0.942497 0
M  V30 2998 C 295.366 -1.45856 3.2902 0
M  V30 2999 C 294.974 -0.493017 4.45279 0
M  V30 3000 C 296.718 -2.14332 3.66418 0
M  V30 3001 C 294.625 -1.16491 5.79814 0
M  V30 3002 H 293.555 -0.299356 0.692027 0
M  V30 3003 H 296.206 -0.0445343 1.83446 0
M  V30 3004 H 294.588 -2.25318 3.2565 0
M  V30 3005 H 295.762 0.270464 4.60006 0
M  V30 3006 H 294.077 0.0863061 4.16311 0
M  V30 3007 H 296.674 -2.65344 4.64216 0
M  V30 3008 H 297.017 -2.93447 2.95287 0
M  V30 3009 H 297.55 -1.41724 3.71698 0
M  V30 3010 H 294.289 -0.41447 6.54188 0
M  V30 3011 H 293.809 -1.8997 5.68921 0
M  V30 3012 H 295.488 -1.69001 6.24538 0
M  V30 3013 N 295.62 -1.53406 -0.361157 0
M  V30 3014 C 296.869 -1.69022 -1.10066 0
M  V30 3015 C 297.182 -0.450838 -1.90333 0
M  V30 3016 O 298.388 -0.487617 -2.67085 0
M  V30 3017 C 296.844 -2.98812 -2.00598 0
M  V30 3018 C 296.452 -4.30027 -1.25621 0
M  V30 3019 C 298.196 -3.23795 -2.74513 0
M  V30 3020 C 296.103 -5.50903 -2.1508 0
M  V30 3021 H 295.033 -0.629776 -0.414606 0
M  V30 3022 H 297.684 -1.79907 -0.361348 0
M  V30 3023 H 296.066 -2.8174 -2.78278 0
M  V30 3024 H 297.24 -4.57745 -0.529739 0
M  V30 3025 H 295.555 -4.11522 -0.635496 0
M  V30 3026 H 298.152 -4.11289 -3.41681 0
M  V30 3027 H 298.495 -2.40045 -3.40123 0
M  V30 3028 H 299.028 -3.41561 -2.03914 0
M  V30 3029 H 295.767 -6.37143 -1.54041 0
M  V30 3030 H 295.287 -5.27459 -2.85565 0
M  V30 3031 H 296.966 -5.85865 -2.74538 0
M  V30 3032 N 297.098 0.621204 -1.44841 0
M  V30 3033 C 298.028 1.74366 -1.55303 0
M  V30 3034 C 299.009 1.65199 -0.405385 0
M  V30 3035 O 300.194 1.83807 -0.626787 0
M  V30 3036 C 297.324 3.12931 -1.50637 0
M  V30 3037 C 296.278 3.36896 -2.63979 0
M  V30 3038 C 295.604 4.75594 -2.44366 0
M  V30 3039 C 296.904 3.28483 -4.06074 0
M  V30 3040 H 298.598 1.65867 -2.49256 0
M  V30 3041 H 296.144 0.796558 -1.19962 0
M  V30 3042 H 298.097 3.9124 -1.56555 0
M  V30 3043 H 296.821 3.22237 -0.532057 0
M  V30 3044 H 295.48 2.60972 -2.57467 0
M  V30 3045 H 295.128 4.81616 -1.45105 0
M  V30 3046 H 294.828 4.92586 -3.20364 0
M  V30 3047 H 296.352 5.5612 -2.52117 0
M  V30 3048 H 297.766 3.96684 -4.13902 0
M  V30 3049 H 296.163 3.57008 -4.82354 0
M  V30 3050 H 297.233 2.26133 -4.28943 0
M  V30 3051 N 298.576 1.31904 0.862503 0
M  V30 3052 C 299.523 1.20182 1.9704 0
M  V30 3053 C 300.493 0.0858247 1.65878 0
M  V30 3054 O 301.678 0.26 1.8902 0
M  V30 3055 C 298.818 0.922797 3.32533 0
M  V30 3056 C 297.931 2.12284 3.76244 0
M  V30 3057 C 297.066 1.77996 5.00491 0
M  V30 3058 C 296.105 2.94366 5.36671 0
M  V30 3059 N 295.242 2.60223 6.52095 0
M  V30 3060 H 300.082 2.14951 2.06398 0
M  V30 3061 H 297.619 1.06917 1.01031 0
M  V30 3062 H 299.577 0.741548 4.10557 0
M  V30 3063 H 298.207 0.0119227 3.22798 0
M  V30 3064 H 297.259 2.41461 2.9394 0
M  V30 3065 H 298.571 2.99357 3.98982 0
M  V30 3066 H 297.725 1.56377 5.862 0
M  V30 3067 H 296.464 0.881252 4.79672 0
M  V30 3068 H 295.469 3.16625 4.49476 0
M  V30 3069 H 296.694 3.84957 5.59451 0
M  V30 3070 H 294.64 1.72884 6.32809 0
M  V30 3071 H 294.557 3.40827 6.74814 0
M  V30 3072 H 295.825 2.42016 7.40978 0
M  V30 3073 N 300.054 -1.07777 1.14986 0
M  V30 3074 C 300.986 -2.14769 0.800436 0
M  V30 3075 C 301.999 -1.61739 -0.185595 0
M  V30 3076 O 303.188 -1.78462 0.0370358 0
M  V30 3077 C 300.288 -3.38481 0.168533 0
M  V30 3078 C 299.461 -4.20876 1.1909 0
M  V30 3079 C 298.52 -5.22976 0.581575 0
M  V30 3080 O 297.546 -5.55388 1.24633 0
M  V30 3081 N 298.748 -5.76976 -0.638706 0
M  V30 3082 H 301.513 -2.45348 1.72118 0
M  V30 3083 H 299.074 -1.23645 1.04515 0
M  V30 3084 H 301.066 -4.03916 -0.251764 0
M  V30 3085 H 299.636 -3.05651 -0.655467 0
M  V30 3086 H 298.856 -3.51322 1.78791 0
M  V30 3087 H 300.144 -4.7274 1.88133 0
M  V30 3088 H 299.542 -5.52886 -1.19723 0
M  V30 3089 H 298.099 -6.44061 -1.00142 0
M  V30 3090 N 301.532 -0.945985 -1.26051 0
M  V30 3091 C 302.778 -0.597002 -1.93814 0
M  V30 3092 C 303.111 0.862484 -1.73997 0
M  V30 3093 O 302.386 1.61769 -1.07986 0
M  V30 3094 C 302.669 -0.945937 -3.47454 0
M  V30 3095 C 302.522 -2.46052 -3.76535 0
M  V30 3096 C 303.841 -0.464785 -4.37639 0
M  V30 3097 H 300.96 -0.218366 -0.703907 0
M  V30 3098 H 303.602 -1.18107 -1.48831 0
M  V30 3099 H 301.752 -0.448902 -3.85898 0
M  V30 3100 H 303.424 -3.03065 -3.47778 0
M  V30 3101 H 301.667 -2.90194 -3.22444 0
M  V30 3102 H 302.338 -2.65517 -4.83947 0
M  V30 3103 H 304.814 -0.891016 -4.06448 0
M  V30 3104 H 303.69 -0.737712 -5.4392 0
M  V30 3105 H 303.951 0.635274 -4.37512 0
M  V30 3106 N 303.011 1.40521 -0.713556 0
M  V30 3107 C 303.944 2.28198 -0.00881422 0
M  V30 3108 C 304.922 1.43227 0.769735 0
M  V30 3109 O 306.106 1.72641 0.756799 0
M  V30 3110 C 303.233 3.23758 0.994899 0
M  V30 3111 C 302.279 4.25391 0.3074 0
M  V30 3112 S 303.112 5.26765 -0.963247 0
M  V30 3113 C 304.268 6.25888 0.0384143 0
M  V30 3114 H 304.501 2.87622 -0.752407 0
M  V30 3115 H 302.034 1.45925 -0.504502 0
M  V30 3116 H 303.992 3.79341 1.56879 0
M  V30 3117 H 302.653 2.63396 1.71118 0
M  V30 3118 H 301.846 4.92596 1.0661 0
M  V30 3119 H 301.448 3.73497 -0.193879 0
M  V30 3120 H 303.74 6.71683 0.885912 0
M  V30 3121 H 304.683 7.05552 -0.60019 0
M  V30 3122 H 305.091 5.63072 0.401233 0
M  V30 3123 N 304.489 0.459591 1.5075 0
M  V30 3124 C 305.399 -0.34613 2.32033 0
M  V30 3125 C 306.415 -1.00686 1.41909 0
M  V30 3126 O 307.591 -0.997361 1.7497 0
M  V30 3127 C 304.656 -1.42029 3.16273 0
M  V30 3128 C 303.717 -0.777362 4.22203 0
M  V30 3129 C 302.95 -1.80034 5.02418 0
M  V30 3130 O 303.173 -3.02544 4.83553 0
M  V30 3131 O 302.107 -1.37853 5.85901 0
M  V30 3132 H 305.933 0.318054 3.0203 0
M  V30 3133 H 303.518 0.221663 1.47746 0
M  V30 3134 H 305.4 -2.04275 3.68578 0
M  V30 3135 H 304.075 -2.06815 2.49016 0
M  V30 3136 H 302.982 -0.116256 3.73919 0
M  V30 3137 H 304.315 -0.172634 4.91897 0
M  V30 3138 N 305.967 -1.56429 0.191757 0
M  V30 3139 C 306.877 -2.22541 -0.742481 0
M  V30 3140 C 307.893 -1.22342 -1.23727 0
M  V30 3141 O 309.069 -1.55069 -1.28513 0
M  V30 3142 C 306.134 -2.8692 -1.94623 0
M  V30 3143 C 305.195 -4.02378 -1.49633 0
M  V30 3144 C 304.428 -4.63678 -2.6427 0
M  V30 3145 O 304.651 -4.23895 -3.81666 0
M  V30 3146 O 303.585 -5.53202 -2.37174 0
M  V30 3147 H 307.411 -3.02977 -0.209462 0
M  V30 3148 H 304.996 -1.49353 -0.0373832 0
M  V30 3149 H 306.878 -3.27663 -2.64982 0
M  V30 3150 H 305.553 -2.09466 -2.46791 0
M  V30 3151 H 304.46 -3.66265 -0.761636 0
M  V30 3152 H 305.793 -4.81487 -1.02134 0
M  V30 3153 N 307.445 0.0818655 -1.57387 0
M  V30 3154 C 308.392 1.09834 -2.0299 0
M  V30 3155 C 309.362 1.39043 -0.908639 0
M  V30 3156 O 310.547 1.50282 -1.17559 0
M  V30 3157 C 307.687 2.40971 -2.47037 0
M  V30 3158 C 306.8 2.18379 -3.7274 0
M  V30 3159 C 305.935 3.43008 -4.0561 0
M  V30 3160 C 304.974 3.15736 -5.24383 0
M  V30 3161 N 304.111 4.32667 -5.52941 0
M  V30 3162 H 308.951 0.702472 -2.89602 0
M  V30 3163 H 306.488 0.33531 -1.43227 0
M  V30 3164 H 308.446 3.1752 -2.70623 0
M  V30 3165 H 307.076 2.78379 -1.63417 0
M  V30 3166 H 306.128 1.32569 -3.56552 0
M  V30 3167 H 307.44 1.94227 -4.59431 0
M  V30 3168 H 306.594 4.27958 -4.30043 0
M  V30 3169 H 305.333 3.70225 -3.17466 0
M  V30 3170 H 304.338 2.2918 -4.99757 0
M  V30 3171 H 305.563 2.8985 -6.14136 0
M  V30 3172 H 303.509 4.59935 -4.67756 0
M  V30 3173 H 303.426 4.11753 -6.34031 0
M  V30 3174 H 304.694 5.18644 -5.81918 0
M  V30 3175 N 308.923 1.53595 0.353017 0
M  V30 3176 C 309.853 1.83902 1.43883 0
M  V30 3177 C 310.834 0.693421 1.55324 0
M  V30 3178 O 312.019 0.944452 1.69687 0
M  V30 3179 C 309.149 2.04016 2.8106 0
M  V30 3180 C 308.103 3.19814 2.84434 0
M  V30 3181 C 307.429 3.25244 4.24406 0
M  V30 3182 C 308.729 4.58133 2.50822 0
M  V30 3183 H 310.423 2.74835 1.1877 0
M  V30 3184 H 307.969 1.32242 0.569917 0
M  V30 3185 H 309.922 2.238 3.57059 0
M  V30 3186 H 308.646 1.09804 3.07588 0
M  V30 3187 H 307.305 2.9987 2.10887 0
M  V30 3188 H 306.953 2.28646 4.48029 0
M  V30 3189 H 306.653 4.03054 4.27576 0
M  V30 3190 H 308.177 3.47228 5.0226 0
M  V30 3191 H 309.591 4.77995 3.16534 0
M  V30 3192 H 307.988 5.38276 2.6529 0
M  V30 3193 H 309.058 4.62387 1.46034 0
M  V30 3194 N 310.401 -0.613514 1.45168 0
M  V30 3195 C 311.349 -1.74572 1.53712 0
M  V30 3196 C 312.343 -1.64426 0.407505 0
M  V30 3197 O 313.549 -1.70291 0.583176 0
M  V30 3198 H 309.924 -0.576641 0.48269 0
M  V30 3199 H 311.895 -1.64492 2.48968 0
M  V30 3200 C 310.644 -3.12943 1.51532 0
M  V30 3201 H 309.967 -3.21407 2.37776 0
M  V30 3202 H 311.407 -3.9201 1.61569 0
M  V30 3203 C 309.866 -3.36053 0.238798 0
M  V30 3204 O 310.396 -3.95837 -0.6838 0
M  V30 3205 N 308.602 -2.9028 0.136359 0
M  V30 3206 H 308.149 -2.41811 0.887999 0
M  V30 3207 H 308.107 -3.06116 -0.716944 0
M  V30 3208 N 311.879 -1.3236 -0.855495 0
M  V30 3209 C 312.842 -1.21164 -1.94556 0
M  V30 3210 C 313.842 -0.134908 -1.60233 0
M  V30 3211 O 315.032 -0.385249 -1.69887 0
M  V30 3212 C 312.164 -0.863192 -3.29791 0
M  V30 3213 H 313.357 -2.18038 -2.05911 0
M  V30 3214 H 310.91 -1.16179 -1.04557 0
M  V30 3215 H 311.645 0.103769 -3.24134 0
M  V30 3216 H 311.43 -1.64166 -3.56078 0
M  V30 3217 H 312.92 -0.809156 -4.09686 0
M  V30 3218 N 313.357 1.07166 -1.15556 0
M  V30 3219 C 314.585 1.83514 -0.955519 0
M  V30 3220 C 315 1.82163 0.49621 0
M  V30 3221 O 314.357 1.23441 1.34419 0
M  V30 3222 C 314.408 3.30515 -1.46432 0
M  V30 3223 O 314.129 3.31937 -2.85918 0
M  V30 3224 C 315.63 4.23625 -1.30603 0
M  V30 3225 H 312.85 0.578926 -0.339244 0
M  V30 3226 H 315.394 1.35265 -1.53374 0
M  V30 3227 H 313.549 3.76106 -0.928584 0
M  V30 3228 H 313.963 4.23794 -3.09029 0
M  V30 3229 H 315.437 5.24831 -1.71047 0
M  V30 3230 H 315.914 4.38485 -0.250441 0
M  V30 3231 H 316.52 3.83871 -1.83094 0
M  V30 3232 N 314.835 0.952656 1.25548 0
M  V30 3233 C 315.783 0.462354 2.27958 0
M  V30 3234 C 316.777 -0.46634 1.62855 0
M  V30 3235 O 317.983 -0.343287 1.76696 0
M  V30 3236 H 314.358 0.13101 0.7405 0
M  V30 3237 H 316.329 1.33839 2.66702 0
M  V30 3238 C 315.078 -0.24628 3.46827 0
M  V30 3239 H 314.401 0.459192 3.97154 0
M  V30 3240 H 315.841 -0.553393 4.20373 0
M  V30 3241 C 314.3 -1.4681 3.0323 0
M  V30 3242 O 314.83 -2.56591 3.09069 0
M  V30 3243 N 313.036 -1.32874 2.58443 0
M  V30 3244 H 312.583 -0.435536 2.53891 0
M  V30 3245 H 312.541 -2.14742 2.29637 0
M  V30 3246 N 316.313 -1.40141 0.720998 0
M  V30 3247 C 317.562 -2.0002 0.259804 0
M  V30 3248 C 317.875 -1.57839 -1.15526 0
M  V30 3249 O 319.081 -2.10455 -1.71525 0
M  V30 3250 C 317.537 -3.57516 0.413566 0
M  V30 3251 C 317.145 -4.08667 1.83562 0
M  V30 3252 C 318.889 -4.24498 0.0134387 0
M  V30 3253 C 316.796 -5.58686 1.93968 0
M  V30 3254 H 315.726 -0.748195 0.0933806 0
M  V30 3255 H 318.377 -1.60313 0.892866 0
M  V30 3256 H 316.759 -3.9495 -0.288169 0
M  V30 3257 H 317.933 -3.82598 2.56817 0
M  V30 3258 H 316.248 -3.543 2.1877 0
M  V30 3259 H 318.845 -5.34654 0.0703954 0
M  V30 3260 H 319.188 -4.03375 -1.02927 0
M  V30 3261 H 319.721 -3.92188 0.665815 0
M  V30 3262 H 316.46 -5.8467 2.96379 0
M  V30 3263 H 315.98 -5.86602 1.25131 0
M  V30 3264 H 317.659 -6.23875 1.71431 0
M  V30 3265 N 317.792 -0.46758 -1.50504 0
M  V30 3266 C 318.702 0.33382 -2.32213 0
M  V30 3267 C 319.718 0.999323 -1.42441 0
M  V30 3268 O 320.894 0.988068 -1.75497 0
M  V30 3269 C 317.959 1.4035 -3.17022 0
M  V30 3270 C 317.02 0.754961 -4.2261 0
M  V30 3271 C 316.253 1.77367 -5.03365 0
M  V30 3272 O 316.476 2.99976 -4.8515 0
M  V30 3273 O 315.41 1.34744 -5.86624 0
M  V30 3274 H 319.236 -0.334067 -3.01857 0
M  V30 3275 H 316.821 -0.229496 -1.47627 0
M  V30 3276 H 318.703 2.02318 -3.69656 0
M  V30 3277 H 317.378 2.05492 -2.5011 0
M  V30 3278 H 316.285 0.0964244 -3.73976 0
M  V30 3279 H 317.618 0.146545 -4.91982 0
M  V30 3280 N 319.27 1.56325 -0.20005 0
M  V30 3281 C 320.2 2.22318 0.713916 0
M  V30 3282 C 321.181 1.18788 1.21752 0
M  V30 3283 O 322.366 1.47309 1.26545 0
M  V30 3284 C 319.496 2.88639 1.93144 0
M  V30 3285 C 318.45 3.98457 1.56255 0
M  V30 3286 C 317.776 4.51967 2.85709 0
M  V30 3287 C 319.076 5.16612 0.768747 0
M  V30 3288 H 320.77 2.98952 0.163755 0
M  V30 3289 H 318.316 1.43792 0.0773219 0
M  V30 3290 H 320.269 3.33491 2.57608 0
M  V30 3291 H 318.993 2.09419 2.50621 0
M  V30 3292 H 317.652 3.54305 0.941471 0
M  V30 3293 H 317.3 3.69503 3.41287 0
M  V30 3294 H 317 5.26071 2.6177 0
M  V30 3295 H 318.524 4.99523 3.51154 0
M  V30 3296 H 319.938 5.57977 1.3166 0
M  V30 3297 H 318.335 5.96812 0.627286 0
M  V30 3298 H 319.405 4.84358 -0.229168 0
M  V30 3299 N 320.748 -0.0735177 1.57428 0
M  V30 3300 C 321.711 -1.07192 2.02589 0
M  V30 3301 C 322.711 -1.31695 0.922661 0
M  V30 3302 O 323.901 -1.27445 1.18758 0
M  V30 3303 C 321.033 -2.41599 2.40506 0
M  V30 3304 H 322.226 -0.682727 2.92025 0
M  V30 3305 H 319.779 -0.319193 1.53006 0
M  V30 3306 H 320.514 -2.85354 1.5409 0
M  V30 3307 H 320.299 -2.25156 3.21009 0
M  V30 3308 H 321.789 -3.13367 2.76027 0
M  V30 3309 N 322.226 -1.5378 -0.344866 0
M  V30 3310 C 323.454 -1.74899 -1.10534 0
M  V30 3311 C 323.869 -0.487534 -1.82397 0
M  V30 3312 O 323.226 0.540741 -1.74305 0
M  V30 3313 C 323.277 -2.92822 -2.11984 0
M  V30 3314 O 322.998 -4.14089 -1.43044 0
M  V30 3315 C 324.499 -3.25982 -3.00417 0
M  V30 3316 H 321.719 -0.584426 -0.329678 0
M  V30 3317 H 324.263 -2.006 -0.397474 0
M  V30 3318 H 322.418 -2.69457 -2.78338 0
M  V30 3319 H 322.832 -4.80272 -2.10805 0
M  V30 3320 H 324.306 -4.11848 -3.67539 0
M  V30 3321 H 324.783 -2.42228 -3.66363 0
M  V30 3322 H 325.389 -3.51349 -2.39654 0
M  V30 3323 N 323.704 0.605807 -1.45491 0
M  V30 3324 C 324.95 1.36679 -1.49823 0
M  V30 3325 C 325.283 1.93693 -0.140175 0
M  V30 3326 O 324.558 1.75158 0.845581 0
M  V30 3327 C 324.841 2.51337 -2.57879 0
M  V30 3328 C 324.694 1.99508 -4.03134 0
M  V30 3329 C 326.013 3.53463 -2.62205 0
M  V30 3330 H 323.132 0.495617 -0.545466 0
M  V30 3331 H 325.774 0.682732 -1.7731 0
M  V30 3332 H 323.924 3.09691 -2.34571 0
M  V30 3333 H 325.596 1.45789 -4.37656 0
M  V30 3334 H 323.839 1.30496 -4.13707 0
M  V30 3335 H 324.51 2.82169 -4.74431 0
M  V30 3336 H 326.986 3.04953 -2.83095 0
M  V30 3337 H 325.862 4.31178 -3.39672 0
M  V30 3338 H 326.123 4.09197 -1.67363 0
M  V30 3339 N 325.182 1.32811 0.848464 0
M  V30 3340 C 326.114 1.18095 1.96433 0
M  V30 3341 C 327.127 0.114354 1.62398 0
M  V30 3342 O 328.316 0.363892 1.74751 0
M  V30 3343 C 325.416 0.786798 3.2964 0
M  V30 3344 C 324.589 1.943 3.91875 0
M  V30 3345 C 323.648 1.53138 5.03423 0
M  V30 3346 O 322.674 2.24432 5.23086 0
M  V30 3347 N 323.876 0.430915 5.78898 0
M  V30 3348 H 326.641 2.14218 2.09597 0
M  V30 3349 H 324.202 1.2543 1.02367 0
M  V30 3350 H 326.194 0.493715 4.01677 0
M  V30 3351 H 324.764 -0.0834541 3.12489 0
M  V30 3352 H 323.984 2.40224 3.12547 0
M  V30 3353 H 325.272 2.71689 4.30189 0
M  V30 3354 H 324.67 -0.162333 5.65467 0
M  V30 3355 H 323.227 0.197466 6.51501 0
M  V30 3356 N 326.66 -1.06551 1.16123 0
M  V30 3357 C 328.071 -1.60768 0.949232 0
M  V30 3358 C 328.422 -1.89523 -0.507508 0
M  V30 3359 O 327.547 -1.66671 -1.38021 0
M  V30 3360 C 328.142 -2.92086 1.71671 0
M  V30 3361 C 326.701 -3.43015 1.54977 0
M  V30 3362 C 325.848 -2.16947 1.72711 0
M  V30 3363 H 328.799 -0.895354 1.31031 0
M  V30 3364 H 328.82 -3.6138 1.19099 0
M  V30 3365 H 328.332 -2.71127 2.7769 0
M  V30 3366 H 326.433 -3.69039 0.513873 0
M  V30 3367 H 326.546 -4.18516 2.33198 0
M  V30 3368 H 324.91 -2.27041 1.15431 0
M  V30 3369 H 325.693 -1.98473 2.80113 0
M  V30 3370 N 328.138 -0.959301 -1.25041 0
M  V30 3371 C 329.386 -0.615393 -1.92503 0
M  V30 3372 C 329.707 0.850969 -1.75452 0
M  V30 3373 O 328.977 1.60658 -1.12098 0
M  V30 3374 H 327.557 -0.224613 -0.712431 0
M  V30 3375 H 330.219 -1.21855 -1.5211 0
M  V30 3376 H 329.315 -0.848738 -3.00338 0
M  V30 3377 N 329.616 1.39756 -0.72842 0
M  V30 3378 C 330.548 2.29157 -0.0446202 0
M  V30 3379 C 331.561 1.46484 0.710367 0
M  V30 3380 O 332.75 1.69632 0.55562 0
M  V30 3381 C 329.85 3.24987 0.961071 0
M  V30 3382 C 329.023 4.36572 0.268967 0
M  V30 3383 C 328.082 5.12756 1.18184 0
M  V30 3384 O 327.108 5.6534 0.661794 0
M  V30 3385 N 328.31 5.23331 2.51206 0
M  V30 3386 H 331.075 2.88482 -0.812295 0
M  V30 3387 H 328.636 1.51265 -0.577098 0
M  V30 3388 H 330.628 3.72827 1.57423 0
M  V30 3389 H 329.198 2.66739 1.63 0
M  V30 3390 H 328.418 3.90694 -0.524574 0
M  V30 3391 H 329.706 5.08363 -0.210934 0
M  V30 3392 H 329.104 4.82116 2.9594 0
M  V30 3393 H 327.661 5.74634 3.07634 0
M  V30 3394 N 331.094 0.475555 1.50254 0
M  V30 3395 C 332.042 -0.330276 2.30243 0
M  V30 3396 C 333.036 -0.986306 1.37726 0
M  V30 3397 O 334.242 -0.9169 1.54897 0
M  V30 3398 H 330.617 -0.125353 0.741479 0
M  V30 3399 H 332.588 0.364702 2.96163 0
M  V30 3400 C 331.337 -1.39704 3.18399 0
M  V30 3401 H 330.66 -0.901621 3.89501 0
M  V30 3402 H 332.1 -1.93336 3.77355 0
M  V30 3403 C 330.559 -2.4014 2.36293 0
M  V30 3404 O 331.089 -3.45504 2.04914 0
M  V30 3405 N 329.295 -2.1197 1.98789 0
M  V30 3406 H 328.842 -1.2631 2.24507 0
M  V30 3407 H 328.8 -2.79403 1.44157 0
M  V30 3408 N 332.573 -1.56217 0.208337 0
M  V30 3409 C 333.82 -1.97949 -0.42692 0
M  V30 3410 C 334.148 -1.09562 -1.60706 0
M  V30 3411 O 333.403 -0.137616 -1.95216 0
M  V30 3412 C 333.702 -3.45441 -0.916797 0
M  V30 3413 C 333.368 -4.50646 0.151391 0
M  V30 3414 C 332.03 -4.79139 0.444867 0
M  V30 3415 C 334.382 -5.13811 0.874492 0
M  V30 3416 C 331.71 -5.68084 1.46619 0
M  V30 3417 C 334.062 -6.03861 1.88506 0
M  V30 3418 C 332.726 -6.30704 2.18559 0
M  V30 3419 H 331.996 -0.724345 -0.156221 0
M  V30 3420 H 334.643 -1.89006 0.308084 0
M  V30 3421 H 332.948 -3.51521 -1.73032 0
M  V30 3422 H 334.645 -3.75094 -1.41794 0
M  V30 3423 H 331.235 -4.28511 -0.0875068 0
M  V30 3424 H 335.419 -4.91879 0.660996 0
M  V30 3425 H 330.675 -5.87151 1.7048 0
M  V30 3426 H 334.849 -6.51861 2.45051 0
M  V30 3427 H 332.476 -6.99424 2.97843 0
M  V30 3428 N 334.051 0.0651679 -1.57465 0
M  V30 3429 C 335.001 1.0838 -2.00594 0
M  V30 3430 C 335.985 1.34106 -0.889071 0
M  V30 3431 O 337.177 1.34295 -1.15299 0
M  V30 3432 C 334.306 2.39565 -2.45894 0
M  V30 3433 C 333.392 2.17085 -3.64328 0
M  V30 3434 N 333.783 1.64553 -4.78285 0
M  V30 3435 C 332.081 2.4753 -3.71006 0
M  V30 3436 C 332.782 1.57042 -5.60101 0
M  V30 3437 N 331.758 2.03328 -5.04141 0
M  V30 3438 H 335.56 0.671062 -2.86136 0
M  V30 3439 H 333.074 0.27213 -1.60104 0
M  V30 3440 H 335.071 3.13308 -2.75034 0
M  V30 3441 H 333.731 2.81549 -1.61741 0
M  V30 3442 H 334.742 1.33323 -5.00445 0
M  V30 3443 H 331.419 2.92835 -2.9758 0
M  V30 3444 H 332.809 1.17223 -6.61595 0
M  V30 3445 N 335.529 1.53961 0.336706 0
M  V30 3446 C 336.462 1.77255 1.43722 0
M  V30 3447 C 337.44 0.62193 1.50236 0
M  V30 3448 O 338.624 0.857874 1.67847 0
M  V30 3449 C 335.751 1.87733 2.81912 0
M  V30 3450 C 334.797 3.09933 2.92991 0
M  V30 3451 S 335.63 4.68836 2.58753 0
M  V30 3452 C 336.786 4.82202 3.99039 0
M  V30 3453 H 337.019 2.70322 1.23748 0
M  V30 3454 H 334.552 1.44917 0.532777 0
M  V30 3455 H 336.51 1.94455 3.61521 0
M  V30 3456 H 335.171 0.956666 2.99177 0
M  V30 3457 H 334.364 3.1396 3.94265 0
M  V30 3458 H 333.966 3.01472 2.21338 0
M  V30 3459 H 336.258 4.64032 4.9364 0
M  V30 3460 H 337.201 5.84298 4.00002 0
M  V30 3461 H 337.609 4.10604 3.87382 0
M  V30 3462 N 337.007 -0.598083 1.45811 0
M  V30 3463 C 338.254 -1.35681 1.50323 0
M  V30 3464 C 338.582 -1.9393 0.148739 0
M  V30 3465 O 337.837 -1.76094 -0.853787 0
M  V30 3466 C 338.136 -2.51669 2.53766 0
M  V30 3467 C 337.802 -2.11508 3.98215 0
M  V30 3468 C 336.464 -2.0027 4.37545 0
M  V30 3469 C 338.816 -1.80308 4.89018 0
M  V30 3470 C 336.144 -1.56067 5.65562 0
M  V30 3471 C 338.496 -1.37589 6.17456 0
M  V30 3472 C 337.16 -1.24916 6.55708 0
M  V30 3473 H 336.43 -0.496492 0.550069 0
M  V30 3474 H 339.077 -0.675052 1.79207 0
M  V30 3475 H 337.382 -3.25225 2.18486 0
M  V30 3476 H 339.079 -3.09895 2.54492 0
M  V30 3477 H 335.669 -2.21185 3.67117 0
M  V30 3478 H 339.853 -1.87884 4.59362 0
M  V30 3479 H 335.109 -1.44886 5.93985 0
M  V30 3480 H 339.283 -1.12495 6.87254 0
M  V30 3481 H 336.91 -0.904386 7.54801 0
M  V30 3482 N 338.485 -1.33259 -0.841409 0
M  V30 3483 C 339.713 -1.27605 -1.62864 0
M  V30 3484 C 340.128 0.153507 -1.88175 0
M  V30 3485 O 339.485 1.09485 -1.46011 0
M  V30 3486 C 339.536 -2.04596 -2.98031 0
M  V30 3487 O 339.257 -3.41975 -2.73834 0
M  V30 3488 C 340.758 -2.06122 -3.92465 0
M  V30 3489 H 337.978 -0.439718 -0.506842 0
M  V30 3490 H 340.522 -1.75591 -1.04824 0
M  V30 3491 H 338.677 -1.60299 -3.5268 0
M  V30 3492 H 339.091 -3.81549 -3.59889 0
M  V30 3493 H 340.565 -2.64451 -4.84531 0
M  V30 3494 H 341.042 -1.05083 -4.26444 0
M  V30 3495 H 341.648 -2.50427 -3.43753 0
M  V30 3496 N 339.963 1.05934 -1.16686 0
M  V30 3497 C 340.91 2.13499 -0.876748 0
M  V30 3498 C 341.88 1.65162 0.176299 0
M  V30 3499 O 343.065 1.90757 0.0407143 0
M  V30 3500 C 340.205 3.42912 -0.387967 0
M  V30 3501 C 339.318 4.04964 -1.50426 0
M  V30 3502 C 338.453 5.22266 -0.970125 0
M  V30 3503 C 337.492 5.76309 -2.06238 0
M  V30 3504 N 336.629 6.84922 -1.54356 0
M  V30 3505 H 341.469 2.37654 -1.7979 0
M  V30 3506 H 339.006 1.16598 -0.896843 0
M  V30 3507 H 340.964 4.17111 -0.086186 0
M  V30 3508 H 339.594 3.18963 0.496235 0
M  V30 3509 H 338.646 3.28277 -1.92193 0
M  V30 3510 H 339.958 4.41122 -2.32836 0
M  V30 3511 H 339.112 6.03506 -0.621743 0
M  V30 3512 H 337.851 4.87564 -0.115377 0
M  V30 3513 H 336.856 4.93704 -2.41942 0
M  V30 3514 H 338.081 6.13062 -2.92115 0
M  V30 3515 H 336.027 6.52131 -0.711406 0
M  V30 3516 H 335.944 7.20043 -2.30379 0
M  V30 3517 H 337.212 7.69832 -1.22387 0
M  V30 3518 N 341.441 0.965919 1.2453 0
M  V30 3519 C 342.351 0.502154 2.29163 0
M  V30 3520 C 343.367 -0.436017 1.68448 0
M  V30 3521 O 344.543 -0.309497 1.99008 0
M  V30 3522 C 341.608 -0.201956 3.46111 0
M  V30 3523 C 340.669 0.775821 4.22232 0
M  V30 3524 C 339.902 0.105217 5.33596 0
M  V30 3525 O 340.125 -1.10683 5.59558 0
M  V30 3526 O 339.059 0.796475 5.96607 0
M  V30 3527 H 342.885 1.37194 2.70946 0
M  V30 3528 H 340.47 0.732875 1.30189 0
M  V30 3529 H 342.352 -0.597564 4.17142 0
M  V30 3530 H 341.027 -1.04673 3.06309 0
M  V30 3531 H 339.934 1.22185 3.53584 0
M  V30 3532 H 341.267 1.58896 4.65846 0
M  V30 3533 N 342.919 -1.39368 0.735821 0
M  V30 3534 C 343.829 -2.34395 0.0979693 0
M  V30 3535 C 344.845 -1.58361 -0.720968 0
M  V30 3536 O 346.021 -1.90648 -0.649245 0
M  V30 3537 C 343.086 -3.37393 -0.797916 0
M  V30 3538 C 342.147 -4.29287 0.0333662 0
M  V30 3539 C 341.38 -5.27365 -0.819854 0
M  V30 3540 O 341.603 -5.31959 -2.05855 0
M  V30 3541 O 340.537 -6.01389 -0.248079 0
M  V30 3542 H 344.363 -2.90601 0.882315 0
M  V30 3543 H 341.948 -1.40909 0.4965 0
M  V30 3544 H 343.83 -4.00505 -1.31048 0
M  V30 3545 H 342.505 -2.83571 -1.56106 0
M  V30 3546 H 341.412 -3.69395 0.591475 0
M  V30 3547 H 342.745 -4.86317 0.758752 0
M  V30 3548 N 344.397 -0.483516 -1.5 0
M  V30 3549 C 345.327 0.293829 -2.31644 0
M  V30 3550 C 346.308 0.978864 -1.39112 0
M  V30 3551 O 347.493 0.973644 -1.68029 0
M  V30 3552 C 344.623 1.36897 -3.19181 0
M  V30 3553 C 343.577 0.804833 -4.20365 0
M  V30 3554 C 342.903 1.9792 -4.96721 0
M  V30 3555 C 344.203 -0.192313 -5.21946 0
M  V30 3556 H 345.897 -0.387616 -2.9688 0
M  V30 3557 H 343.443 -0.187856 -1.42769 0
M  V30 3558 H 345.396 1.92037 -3.751 0
M  V30 3559 H 344.12 2.07936 -2.51853 0
M  V30 3560 H 342.779 0.275319 -3.65565 0
M  V30 3561 H 342.427 2.67686 -4.25856 0
M  V30 3562 H 342.127 1.60789 -5.65173 0
M  V30 3563 H 343.651 2.53526 -5.55479 0
M  V30 3564 H 345.065 0.270333 -5.72662 0
M  V30 3565 H 343.462 -0.478543 -5.98189 0
M  V30 3566 H 344.532 -1.11409 -4.71928 0
M  V30 3567 N 345.875 1.56104 -0.216619 0
M  V30 3568 C 346.785 2.23694 0.706982 0
M  V30 3569 C 347.801 1.24295 1.21765 0
M  V30 3570 O 348.977 1.57094 1.2603 0
M  V30 3571 C 346.042 2.8998 1.90033 0
M  V30 3572 C 345.103 4.04708 1.43213 0
M  V30 3573 C 344.336 4.67824 2.56859 0
M  V30 3574 O 344.559 4.29913 3.74874 0
M  V30 3575 O 343.493 5.56905 2.28343 0
M  V30 3576 H 347.319 3.03272 0.161235 0
M  V30 3577 H 344.904 1.49394 0.0136177 0
M  V30 3578 H 346.786 3.31837 2.59735 0
M  V30 3579 H 345.461 2.13365 2.43428 0
M  V30 3580 H 344.368 3.6743 0.70327 0
M  V30 3581 H 345.701 4.83051 0.944615 0
M  V30 3582 N 347.353 -0.0568162 1.57498 0
M  V30 3583 C 348.263 -1.08346 2.08083 0
M  V30 3584 C 349.279 -1.41439 1.01346 0
M  V30 3585 O 350.455 -1.51316 1.32912 0
M  V30 3586 C 347.52 -2.37352 2.52715 0
M  V30 3587 C 346.581 -2.11093 3.73816 0
M  V30 3588 C 345.814 -3.33949 4.1631 0
M  V30 3589 O 346.037 -4.43622 3.58547 0
M  V30 3590 O 344.971 -3.21279 5.08983 0
M  V30 3591 H 348.797 -0.683667 2.95905 0
M  V30 3592 H 346.382 -0.271965 1.46904 0
M  V30 3593 H 348.264 -3.13246 2.81877 0
M  V30 3594 H 346.939 -2.76681 1.68016 0
M  V30 3595 H 345.846 -1.32856 3.49714 0
M  V30 3596 H 347.179 -1.76637 4.59413 0
M  V30 3597 N 348.832 -1.54138 -0.328536 0
M  V30 3598 C 350.078 -1.7236 -1.06865 0
M  V30 3599 C 350.411 -0.493231 -1.87832 0
M  V30 3600 O 349.686 0.5098 -1.877 0
M  V30 3601 C 349.969 -2.99621 -1.99747 0
M  V30 3602 C 349.822 -4.32899 -1.22143 0
M  V30 3603 C 351.141 -3.22615 -2.99345 0
M  V30 3604 H 348.26 -0.627151 -0.387105 0
M  V30 3605 H 350.902 -1.86827 -0.345767 0
M  V30 3606 H 349.052 -2.87418 -2.61387 0
M  V30 3607 H 350.724 -4.56978 -0.630017 0
M  V30 3608 H 348.967 -4.30628 -0.523628 0
M  V30 3609 H 349.638 -5.18154 -1.90318 0
M  V30 3610 H 352.114 -3.34248 -2.47826 0
M  V30 3611 H 350.99 -4.13027 -3.61524 0
M  V30 3612 H 351.251 -2.3961 -3.71536 0
M  V30 3613 N 350.31 0.590341 -1.46126 0
M  V30 3614 C 351.559 1.34499 -1.50309 0
M  V30 3615 C 351.872 1.94977 -0.156021 0
M  V30 3616 O 353.078 2.71395 -0.0756037 0
M  V30 3617 C 351.534 2.43723 -2.64815 0
M  V30 3618 C 351.142 1.89582 -4.0591 0
M  V30 3619 C 352.886 3.20579 -2.78262 0
M  V30 3620 C 350.793 2.9639 -5.11769 0
M  V30 3621 H 349.723 0.505593 -0.559368 0
M  V30 3622 H 352.374 0.630848 -1.72315 0
M  V30 3623 H 350.756 3.17902 -2.36124 0
M  V30 3624 H 351.93 1.21997 -4.44357 0
M  V30 3625 H 350.245 1.25418 -3.97063 0
M  V30 3626 H 352.842 4.00276 -3.54519 0
M  V30 3627 H 353.185 3.72684 -1.85505 0
M  V30 3628 H 353.718 2.53505 -3.06562 0
M  V30 3629 H 350.457 2.49181 -6.06291 0
M  V30 3630 H 349.977 3.62487 -4.77873 0
M  V30 3631 H 351.656 3.60474 -5.37278 0
M  V30 3632 N 351.788 1.33704 0.83433 0
M  V30 3633 C 352.735 1.24335 1.94447 0
M  V30 3634 C 353.705 0.120991 1.65659 0
M  V30 3635 O 354.89 0.300035 1.88426 0
M  V30 3636 C 352.03 0.993124 3.30501 0
M  V30 3637 C 351.143 2.20217 3.71657 0
M  V30 3638 C 350.278 1.88572 4.96602 0
M  V30 3639 C 349.317 3.05683 5.30306 0
M  V30 3640 N 348.454 2.73997 6.46429 0
M  V30 3641 H 353.294 2.1928 2.01792 0
M  V30 3642 H 350.831 1.09035 0.987404 0
M  V30 3643 H 352.789 0.828467 4.08892 0
M  V30 3644 H 351.419 0.0803902 3.227 0
M  V30 3645 H 350.471 2.47642 2.88752 0
M  V30 3646 H 351.783 3.07752 3.92543 0
M  V30 3647 H 350.937 1.68776 5.82752 0
M  V30 3648 H 349.676 0.982799 4.77695 0
M  V30 3649 H 348.681 3.26088 4.42659 0
M  V30 3650 H 349.906 3.96737 5.51159 0
M  V30 3651 H 347.852 1.86268 6.28999 0
M  V30 3652 H 347.769 3.55064 6.67432 0
M  V30 3653 H 349.037 2.57679 7.35678 0
M  V30 3654 N 353.266 -1.05314 1.17247 0
M  V30 3655 C 354.543 -1.75184 0.87005 0
M  V30 3656 C 354.923 -2.01481 -0.629965 0
M  V30 3657 O 354.271 -1.64988 -1.58086 0
M  V30 3658 C 354.481 -3.04594 1.70363 0
M  V30 3659 C 355.829 -3.78567 1.92281 0
M  V30 3660 O 356.853 -3.14461 1.67311 0
M  V30 3661 O 355.712 -4.93755 2.3424 0
M  V30 3662 H 352.806 -0.761729 0.322021 0
M  V30 3663 H 355.352 -1.11493 1.27935 0
M  V30 3664 H 354.124 -2.81201 2.72106 0
M  V30 3665 H 353.747 -3.76022 1.29202 0
M  V30 3666 N 354.744 -0.972509 -1.24016 0
M  V30 3667 C 355.993 -0.632603 -1.91523 0
M  V30 3668 C 356.306 0.836641 -1.76804 0
M  V30 3669 O 357.512 1.28728 -2.39043 0
M  V30 3670 C 355.968 -1.08082 -3.43287 0
M  V30 3671 C 355.576 -2.57386 -3.66683 0
M  V30 3672 C 357.32 -0.814288 -4.16617 0
M  V30 3673 C 355.227 -2.95915 -5.12043 0
M  V30 3674 H 354.157 -0.232898 -0.717129 0
M  V30 3675 H 356.808 -1.17936 -1.40582 0
M  V30 3676 H 355.19 -0.462339 -3.93292 0
M  V30 3677 H 356.364 -3.24405 -3.27258 0
M  V30 3678 H 354.679 -2.81701 -3.06649 0
M  V30 3679 H 357.276 -1.0781 -5.23718 0
M  V30 3680 H 357.619 0.24955 -4.15551 0
M  V30 3681 H 358.152 -1.39397 -3.72577 0
M  V30 3682 H 354.891 -4.0139 -5.18234 0
M  V30 3683 H 354.411 -2.33584 -5.52448 0
M  V30 3684 H 356.09 -2.86086 -5.80314 0
M  V30 3685 O 356.261 1.3537 -0.880752 0
M  V30 3686 H 356.952 1.87543 -0.484504 0
M  V30 END ATOM
M  V30 BEGIN BOND
M  V30 END BOND
M  V30 END CTAB
M  END
$$$$
