drugbank_target|P28062 Proteasome subunit beta type-8 (DB08889)
 OpenBabel12092120583D

  0  0  0     0  0            999 V3000
M  V30 BEGIN CTAB
M  V30 COUNTS 4172 4218 0 0 0
M  V30 BEGIN ATOM
M  V30 1 H -0.908 1.98254 -0.117106 0
M  V30 2 N 0 1.576 0 0
M  V30 3 C 0.933 2.03868 1.02534 0
M  V30 4 C 1.911 0.928543 1.3348 0
M  V30 5 O 3.095 1.19667 1.45644 0
M  V30 6 C 0.222 2.43627 2.35294 0
M  V30 7 C -0.732 3.65373 2.2001 0
M  V30 8 S 0.101 5.13292 1.52614 0
M  V30 9 C 1.257 5.56322 2.86805 0
M  V30 10 H 1.49 2.90518 0.631377 0
M  V30 11 H -0.977 1.52953 0.210867 0
M  V30 12 H 0.981 2.67203 3.11629 0
M  V30 13 H -0.358 1.57376 2.7183 0
M  V30 14 H -1.165 3.90944 3.18086 0
M  V30 15 H -1.563 3.418 1.51819 0
M  V30 16 H 0.729 5.58782 3.83104 0
M  V30 17 H 1.672 6.56266 2.65933 0
M  V30 18 H 2.08 4.83886 2.90714 0
M  V30 19 N 1.4781 -0.272755 1.55222 0
M  V30 20 C 2.4411 -1.32041 1.87344 0
M  V30 21 C 3.4411 -1.42342 0.74803 0
M  V30 22 O 4.6311 -1.41488 1.0162 0
M  V30 23 C 1.7631 -2.70173 2.07893 0
M  V30 24 H 2.9561 -1.04789 2.80997 0
M  V30 25 H 0.5091 -0.51083 1.47717 0
M  V30 26 H 1.2441 -3.02605 1.16622 0
M  V30 27 H 1.0291 -2.64082 2.89833 0
M  V30 28 H 2.5191 -3.45869 2.34017 0
M  V30 29 N 2.9562 -1.48159 -0.537278 0
M  V30 30 C 3.8862 -1.65029 -1.6519 0
M  V30 31 C 4.8672 -0.499281 -1.62607 0
M  V30 32 O 6.0522 -0.730972 -1.79918 0
M  V30 33 C 3.1822 -1.68303 -3.03795 0
M  V30 34 C 2.1362 -2.8283 -3.21234 0
M  V30 35 C 1.4622 -2.71189 -4.60826 0
M  V30 36 C 2.7622 -4.24211 -3.04701 0
M  V30 37 H 4.4562 -2.58341 -1.51328 0
M  V30 38 H 2.0022 -1.24325 -0.726585 0
M  V30 39 H 3.9552 -1.78693 -3.81637 0
M  V30 40 H 2.6792 -0.715635 -3.18663 0
M  V30 41 H 1.3382 -2.71983 -2.45807 0
M  V30 42 H 0.9862 -1.72435 -4.7252 0
M  V30 43 H 0.6862 -3.48035 -4.7344 0
M  V30 44 H 2.2102 -2.83537 -5.40777 0
M  V30 45 H 3.6242 -4.3593 -3.72341 0
M  V30 46 H 2.0212 -5.01998 -3.28813 0
M  V30 47 H 3.0912 -4.41184 -2.01209 0
M  V30 48 N 4.4343 0.785586 -1.36625 0
M  V30 49 C 5.3643 1.91259 -1.33949 0
M  V30 50 C 6.3453 1.68795 -0.210325 0
M  V30 51 O 7.5303 1.89854 -0.408561 0
M  V30 52 C 4.6603 3.28339 -1.13186 0
M  V30 53 C 3.6143 3.65335 -2.22967 0
M  V30 54 C 2.9403 5.00806 -1.87342 0
M  V30 55 C 4.2403 3.7352 -3.65075 0
M  V30 56 H 5.9343 1.93755 -2.28253 0
M  V30 57 H 3.4803 0.930788 -1.09874 0
M  V30 58 H 5.4333 4.06804 -1.09948 0
M  V30 59 H 4.1573 3.2624 -0.153332 0
M  V30 60 H 2.8163 2.89169 -2.25337 0
M  V30 61 H 2.4643 4.95233 -0.880545 0
M  V30 62 H 2.1643 5.26529 -2.60846 0
M  V30 63 H 3.6883 5.81687 -1.85667 0
M  V30 64 H 5.1023 4.42168 -3.64911 0
M  V30 65 H 3.4993 4.10731 -4.37516 0
M  V30 66 H 4.5693 2.74527 -3.99703 0
M  V30 67 N 5.9124 1.20967 1.01018 0
M  V30 68 C 7.1894 0.93264 1.71934 0
M  V30 69 C 7.5694 -0.55692 2.03621 0
M  V30 70 O 6.9174 -1.52035 1.7058 0
M  V30 71 C 7.1274 1.81233 2.98254 0
M  V30 72 C 8.4754 2.05804 3.71389 0
M  V30 73 O 9.4994 1.78539 3.08225 0
M  V30 74 O 8.3584 2.51888 4.84989 0
M  V30 75 H 5.4524 0.349272 0.749625 0
M  V30 76 H 7.9984 1.31871 1.06808 0
M  V30 77 H 6.7704 2.82067 2.71208 0
M  V30 78 H 6.3934 1.42674 3.7112 0
M  V30 79 N 7.3905 -1.2043 1.01659 0
M  V30 80 C 8.6365 -1.90079 0.706963 0
M  V30 81 C 8.9695 -1.78648 -0.761474 0
M  V30 82 O 8.2445 -1.17069 -1.55323 0
M  V30 83 C 8.5275 -3.41469 1.14327 0
M  V30 84 C 8.3805 -3.61833 2.67201 0
M  V30 85 C 9.6995 -4.34261 0.714529 0
M  V30 86 H 6.8185 -0.690254 0.2583 0
M  V30 87 H 9.4605 -1.41826 1.26433 0
M  V30 88 H 7.6105 -3.82696 0.669056 0
M  V30 89 H 9.2825 -3.2986 3.22475 0
M  V30 90 H 7.5255 -3.05304 3.08175 0
M  V30 91 H 8.1965 -4.67955 2.92783 0
M  V30 92 H 10.6725 -4.00682 1.12221 0
M  V30 93 H 9.5485 -5.38806 1.04784 0
M  V30 94 H 9.8095 -4.40431 -0.383799 0
M  V30 95 N 8.8686 -0.792821 -1.36206 0
M  V30 96 C 10.1086 -0.372238 -2.00982 0
M  V30 97 C 10.4726 1.03749 -1.61555 0
M  V30 98 O 11.6736 1.55934 -2.18948 0
M  V30 99 C 9.9446 -0.534566 -3.5338 0
M  V30 100 S 11.5036 -0.202365 -4.38333 0
M  V30 101 H 8.3216 -0.142044 -0.696667 0
M  V30 102 H 10.9236 -1.03206 -1.66039 0
M  V30 103 H 9.6276 -1.5608 -3.79562 0
M  V30 104 H 9.1586 0.141065 -3.93147 0
M  V30 105 H 11.1736 0.994869 -4.86124 0
M  V30 106 N 10.3467 1.47872 -0.545128 0
M  V30 107 C 11.5947 2.02093 -0.016553 0
M  V30 108 C 11.9157 1.42305 1.3332 0
M  V30 109 O 11.1857 0.593853 1.86682 0
M  V30 110 H 9.7657 0.746993 -0.00313038 0
M  V30 111 H 12.4277 1.81414 -0.712397 0
M  V30 112 H 11.5237 3.11996 0.0805422 0
M  V30 113 N 11.8248 0.280983 1.55075 0
M  V30 114 C 12.7878 -0.590896 2.21452 0
M  V30 115 C 13.7878 -1.07682 1.19421 0
M  V30 116 O 14.9778 -0.97605 1.44288 0
M  V30 117 C 12.1098 -1.81587 2.88511 0
M  V30 118 H 13.3028 -0.0112554 2.99898 0
M  V30 119 H 10.8558 0.0316438 1.56268 0
M  V30 120 H 11.5908 -2.43587 2.14093 0
M  V30 121 H 11.3758 -1.4753 3.63287 0
M  V30 122 H 12.8658 -2.43575 3.39206 0
M  V30 123 N 13.3029 -1.57598 0.00835791 0
M  V30 124 C 14.7139 -1.7892 -0.53333 0
M  V30 125 C 15.0649 -0.916609 -1.73473 0
M  V30 126 O 14.1899 -0.121336 -2.1606 0
M  V30 127 C 14.7849 -3.24488 -0.974313 0
M  V30 128 C 13.3439 -3.46878 -1.46125 0
M  V30 129 C 12.4909 -2.74157 -0.416302 0
M  V30 130 H 15.4419 -1.56958 0.234495 0
M  V30 131 H 15.4629 -3.3306 -1.83988 0
M  V30 132 H 14.9749 -3.87972 -0.099718 0
M  V30 133 H 13.0759 -2.8862 -2.35646 0
M  V30 134 H 13.1889 -4.55572 -1.48295 0
M  V30 135 H 11.5529 -2.39022 -0.87981 0
M  V30 136 H 12.3359 -3.40345 0.44947 0
M  V30 137 N 14.781 0.264519 -1.55364 0
M  V30 138 C 16.197 0.61215 -1.47394 0
M  V30 139 C 16.397 1.89134 -0.695018 0
M  V30 140 O 15.453 2.51563 -0.217275 0
M  V30 141 C 16.766 0.731235 -2.91674 0
M  V30 142 C 18.314 0.82473 -3.01939 0
M  V30 143 C 18.789 0.975522 -4.4749 0
M  V30 144 N 20.28 1.04083 -4.51354 0
M  V30 145 C 21.015 1.17646 -5.61201 0
M  V30 146 N 20.511 1.27874 -6.80896 0
M  V30 147 N 22.304 1.20823 -5.48961 0
M  V30 148 H 14.455 -0.575456 -2.04456 0
M  V30 149 H 16.718 -0.196099 -0.927496 0
M  V30 150 H 16.424 -0.138392 -3.51428 0
M  V30 151 H 16.298 1.60883 -3.41169 0
M  V30 152 H 18.685 1.68482 -2.42276 0
M  V30 153 H 18.766 -0.0776479 -2.55682 0
M  V30 154 H 18.41 0.120058 -5.07758 0
M  V30 155 H 18.34 1.89268 -4.91412 0
M  V30 156 H 20.831 0.973846 -3.65136 0
M  V30 157 H 21.144 1.38081 -7.60364 0
M  V30 158 H 19.489 1.24863 -6.83692 0
M  V30 159 H 22.68 1.12469 -4.54388 0
M  V30 160 H 22.853 1.31049 -6.3461 0
M  V30 161 N 16.2591 1.48442 0.529413 0
M  V30 162 C 17.5071 1.56179 1.28267 0
M  V30 163 C 17.8281 0.237721 1.93546 0
M  V30 164 O 17.0981 -0.740779 1.81354 0
M  V30 165 H 15.6781 0.575367 0.476405 0
M  V30 166 H 18.3401 1.84909 0.61602 0
M  V30 167 H 17.4361 2.34312 2.06165 0
M  V30 168 N 17.7372 -0.778329 1.37039 0
M  V30 169 C 18.6692 -1.90034 1.2814 0
M  V30 170 C 19.6822 -1.61585 0.198558 0
M  V30 171 O 20.8712 -1.72625 0.454175 0
M  V30 172 C 17.9712 -3.25108 0.956968 0
M  V30 173 C 17.1442 -3.81253 2.14394 0
M  V30 174 C 16.2032 -4.94789 1.79082 0
M  V30 175 O 15.2292 -5.10721 2.51301 0
M  V30 176 N 16.4312 -5.75878 0.731043 0
M  V30 177 H 19.1962 -1.98186 2.24816 0
M  V30 178 H 16.7572 -0.957129 1.30578 0
M  V30 179 H 18.7492 -3.9857 0.701701 0
M  V30 180 H 17.3192 -3.125 0.0789812 0
M  V30 181 H 16.5392 -2.99647 2.56135 0
M  V30 182 H 17.8272 -4.15495 2.93668 0
M  V30 183 H 17.2252 -5.65547 0.131618 0
M  V30 184 H 15.7822 -6.49596 0.535622 0
M  V30 185 N 19.2153 -1.21501 -1.00376 0
M  V30 186 C 20.6313 -0.972629 -1.26539 0
M  V30 187 C 20.8313 0.340257 -1.98606 0
M  V30 188 O 19.8873 1.06561 -2.28913 0
M  V30 189 C 21.2003 -2.16404 -2.08781 0
M  V30 190 C 22.7483 -2.20643 -2.22004 0
M  V30 191 C 23.2233 -3.39306 -3.07629 0
M  V30 192 N 24.7143 -3.39401 -3.15217 0
M  V30 193 C 25.4493 -4.27867 -3.81729 0
M  V30 194 N 24.9453 -5.26533 -4.5026 0
M  V30 195 N 26.7383 -4.15672 -3.78382 0
M  V30 196 H 18.8893 -2.05929 -0.520281 0
M  V30 197 H 21.1523 -0.901803 -0.292328 0
M  V30 198 H 20.8583 -3.11554 -1.63178 0
M  V30 199 H 20.7323 -2.15567 -3.09533 0
M  V30 200 H 23.1193 -1.26048 -2.66825 0
M  V30 201 H 23.2003 -2.25523 -1.20718 0
M  V30 202 H 22.8443 -4.34195 -2.63509 0
M  V30 203 H 22.7743 -3.31665 -4.09031 0
M  V30 204 H 25.2653 -2.67997 -2.66432 0
M  V30 205 H 25.5783 -5.90337 -4.98721 0
M  V30 206 H 23.9233 -5.30457 -4.49044 0
M  V30 207 H 27.1143 -3.3785 -3.23998 0
M  V30 208 H 27.2873 -4.84825 -4.2994 0
M  V30 209 N 20.6934 1.19889 -1.02296 0
M  V30 210 C 22.1044 1.71124 -0.746568 0
M  V30 211 C 22.4554 1.81939 0.734335 0
M  V30 212 O 21.5804 1.48639 1.57275 0
M  V30 213 C 22.1754 3.10804 -1.34857 0
M  V30 214 C 20.7344 3.59323 -1.1209 0
M  V30 215 C 19.8814 2.3635 -1.45031 0
M  V30 216 H 22.8324 1.04813 -1.19163 0
M  V30 217 H 22.8534 3.73186 -0.742437 0
M  V30 218 H 22.3654 3.029 -2.42638 0
M  V30 219 H 20.4664 3.7255 -0.0610337 0
M  V30 220 H 20.5794 4.4378 -1.80544 0
M  V30 221 H 18.9434 2.39399 -0.869487 0
M  V30 222 H 19.7264 2.31081 -2.53883 0
M  V30 223 N 22.1715 0.800033 1.35784 0
M  V30 224 C 23.0815 0.207204 2.33683 0
M  V30 225 C 24.0975 -0.64631 1.61551 0
M  V30 226 O 25.2735 -0.559604 1.93469 0
M  V30 227 C 22.3385 -0.639659 3.40748 0
M  V30 228 C 21.3995 0.233585 4.28664 0
M  V30 229 C 20.6325 -0.572954 5.30616 0
M  V30 230 O 20.8555 -1.80816 5.40982 0
M  V30 231 O 19.7895 0.0327285 6.01891 0
M  V30 232 H 23.6155 1.01692 2.86169 0
M  V30 233 H 21.2005 0.561691 1.38439 0
M  V30 234 H 23.0825 -1.12223 4.06182 0
M  V30 235 H 21.7575 -1.42708 2.90544 0
M  V30 236 H 20.6645 0.763147 3.66233 0
M  V30 237 H 21.9975 0.984784 4.82248 0
M  V30 238 N 23.6496 -1.47581 0.552962 0
M  V30 239 C 24.8746 -2.07378 0.0300593 0
M  V30 240 C 25.2996 -1.40355 -1.25229 0
M  V30 241 O 24.6576 -0.477099 -1.7491 0
M  V30 242 C 24.7056 -3.60274 -0.153231 0
M  V30 243 O 23.8096 -3.94041 -1.21678 0
M  V30 244 H 23.1506 -0.662158 0.0494182 0
M  V30 245 H 25.6806 -1.89662 0.767434 0
M  V30 246 H 25.6906 -4.0633 -0.368761 0
M  V30 247 H 24.3656 -4.08455 0.783397 0
M  V30 248 H 22.9426 -3.59735 -0.982079 0
M  V30 249 N 25.1277 -0.289203 -1.54924 0
M  V30 250 C 26.0907 0.579144 -2.21762 0
M  V30 251 C 27.0907 1.07047 -1.1999 0
M  V30 252 O 28.2807 0.968384 -1.44803 0
M  V30 253 C 25.4127 1.80055 -2.8947 0
M  V30 254 H 26.6057 -0.00464908 -2.999 0
M  V30 255 H 24.1587 -0.0399306 -1.56249 0
M  V30 256 H 24.8937 2.42449 -2.15381 0
M  V30 257 H 24.6787 1.45602 -3.64064 0
M  V30 258 H 26.1687 2.41773 -3.40493 0
M  V30 259 N 26.6058 1.57591 -0.0167156 0
M  V30 260 C 27.5358 2.12496 0.967858 0
M  V30 261 C 28.5168 1.03807 1.34752 0
M  V30 262 O 29.7018 1.31577 1.42833 0
M  V30 263 C 26.8318 2.64194 2.25431 0
M  V30 264 C 25.7858 3.77559 2.01576 0
M  V30 265 C 25.1118 4.15636 3.36379 0
M  V30 266 C 26.4118 5.04151 1.36489 0
M  V30 267 H 28.1058 2.95013 0.510643 0
M  V30 268 H 25.6518 1.41915 0.244181 0
M  V30 269 H 27.6048 3.01236 2.94678 0
M  V30 270 H 26.3288 1.78821 2.73296 0
M  V30 271 H 24.9878 3.40937 1.34751 0
M  V30 272 H 24.6358 3.27263 3.81979 0
M  V30 273 H 24.3358 4.92022 3.21229 0
M  V30 274 H 25.8598 4.5525 4.06915 0
M  V30 275 H 27.2738 5.38857 1.95718 0
M  V30 276 H 25.6708 5.85453 1.31776 0
M  V30 277 H 26.7408 4.83733 0.336219 0
M  V30 278 N 28.0839 -0.256276 1.55502 0
M  V30 279 C 29.4949 -0.826068 1.67431 0
M  V30 280 C 29.8459 -1.86396 0.612446 0
M  V30 281 O 28.9709 -2.15031 -0.243025 0
M  V30 282 C 29.5659 -1.50512 3.03532 0
M  V30 283 C 28.1249 -2.02273 3.17431 0
M  V30 284 C 27.2719 -0.870548 2.63281 0
M  V30 285 H 30.2229 -0.0322728 1.58667 0
M  V30 286 H 30.2439 -2.37279 2.97454 0
M  V30 287 H 29.7559 -0.749484 3.80794 0
M  V30 288 H 27.8569 -2.80746 2.44974 0
M  V30 289 H 27.9699 -2.22655 4.24219 0
M  V30 290 H 26.3339 -1.26851 2.20864 0
M  V30 291 H 27.1169 -0.128149 3.43061 0
M  V30 292 N 29.562 -1.4872 -0.521534 0
M  V30 293 C 30.808 -1.574 -1.27879 0
M  V30 294 C 31.141 -0.250817 -1.92573 0
M  V30 295 O 30.416 0.743934 -1.79711 0
M  V30 296 C 30.699 -2.71843 -2.36164 0
M  V30 297 C 30.552 -4.13893 -1.76105 0
M  V30 298 C 31.871 -2.82008 -3.37875 0
M  V30 299 H 28.99 -0.572941 -0.463581 0
M  V30 300 H 31.632 -1.80927 -0.580119 0
M  V30 301 H 29.782 -2.51914 -2.95756 0
M  V30 302 H 31.454 -4.45284 -1.20499 0
M  V30 303 H 29.697 -4.20498 -1.06601 0
M  V30 304 H 30.368 -4.89804 -2.5455 0
M  V30 305 H 32.844 -3.00086 -2.88249 0
M  V30 306 H 31.72 -3.63796 -4.11028 0
M  V30 307 H 31.981 -1.90511 -3.98946 0
M  V30 308 N 31.0401 0.771051 -1.3745 0
M  V30 309 C 32.0031 1.86598 -1.33093 0
M  V30 310 C 33.0031 1.59076 -0.234845 0
M  V30 311 O 34.1931 1.67145 -0.490732 0
M  V30 312 C 31.3251 3.23747 -1.06773 0
M  V30 313 H 32.5181 1.91873 -2.30488 0
M  V30 314 H 30.0711 0.970876 -1.2249 0
M  V30 315 H 30.8061 3.24148 -0.099129 0
M  V30 316 H 30.5911 3.45115 -1.86112 0
M  V30 317 H 32.0811 4.03824 -1.06377 0
M  V30 318 N 32.5182 1.22032 0.997298 0
M  V30 319 C 33.7662 1.04016 1.73278 0
M  V30 320 C 34.0872 -0.426255 1.90284 0
M  V30 321 O 33.3572 -1.30694 1.45931 0
M  V30 322 H 31.9372 0.381897 0.642 0
M  V30 323 H 34.5992 1.5347 1.20137 0
M  V30 324 H 33.6952 1.51441 2.72896 0
M  V30 325 N 33.9963 -1.19345 1.0293 0
M  V30 326 C 35.2213 -1.93538 0.745511 0
M  V30 327 C 35.6463 -1.75007 -0.689511 0
M  V30 328 O 35.0043 -1.05265 -1.47611 0
M  V30 329 C 35.0523 -3.43336 1.10239 0
M  V30 330 O 34.1563 -4.11806 0.221289 0
M  V30 331 H 33.4973 -0.604193 0.275404 0
M  V30 332 H 36.0273 -1.5141 1.37609 0
M  V30 333 H 36.0373 -3.94004 1.05947 0
M  V30 334 H 34.7123 -3.56146 2.14786 0
M  V30 335 H 33.2893 -3.715 0.322842 0
M  V30 336 N 35.4744 -0.807222 -1.35358 0
M  V30 337 C 36.7224 -0.387122 -1.98358 0
M  V30 338 C 37.0434 1.04942 -1.64354 0
M  V30 339 O 36.3134 1.72615 -0.926339 0
M  V30 340 H 34.8934 -0.140154 -0.733734 0
M  V30 341 H 37.5554 -1.0332 -1.6526 0
M  V30 342 H 36.6514 -0.493352 -3.08176 0
M  V30 343 N 36.9525 1.47285 -0.560781 0
M  V30 344 C 38.3685 1.58065 -0.22081 0
M  V30 345 C 38.5685 1.55892 1.27671 0
M  V30 346 O 37.6245 1.46422 2.0571 0
M  V30 347 C 38.9375 2.88418 -0.850625 0
M  V30 348 C 40.4855 3.02009 -0.822184 0
M  V30 349 C 40.9605 4.35066 -1.43113 0
M  V30 350 N 42.4515 4.41711 -1.39448 0
M  V30 351 C 43.1865 5.43237 -1.83525 0
M  V30 352 N 42.6825 6.51555 -2.35474 0
M  V30 353 N 44.4755 5.34304 -1.74574 0
M  V30 354 H 36.6265 1.46941 -1.53369 0
M  V30 355 H 38.8895 0.699558 -0.639783 0
M  V30 356 H 38.5955 2.95755 -1.9032 0
M  V30 357 H 38.4695 3.75612 -0.345773 0
M  V30 358 H 40.8565 2.94266 0.221714 0
M  V30 359 H 40.9375 2.16347 -1.36483 0
M  V30 360 H 40.5815 4.43565 -2.47412 0
M  V30 361 H 40.5115 5.19465 -0.863899 0
M  V30 362 H 43.0025 3.64027 -1.01452 0
M  V30 363 H 43.3155 7.25203 -2.67021 0
M  V30 364 H 41.6605 6.52435 -2.39487 0
M  V30 365 H 44.8515 4.48581 -1.33763 0
M  V30 366 H 45.0245 6.13288 -2.09242 0
M  V30 367 N 38.4306 0.297415 1.54768 0
M  V30 368 C 39.8466 -0.0560823 1.59501 0
M  V30 369 C 40.0466 -1.52725 1.31444 0
M  V30 370 O 39.1026 -2.27947 1.08611 0
M  V30 371 C 40.4156 0.338631 2.98787 0
M  V30 372 C 41.9636 0.287097 3.11681 0
M  V30 373 C 42.4386 0.656579 4.53269 0
M  V30 374 N 43.9296 0.608977 4.59179 0
M  V30 375 C 44.6646 0.867385 5.66802 0
M  V30 376 N 44.1606 1.19157 6.82476 0
M  V30 377 N 45.9536 0.794687 5.56454 0
M  V30 378 H 38.1046 1.25624 1.71267 0
M  V30 379 H 40.3676 0.509057 0.799728 0
M  V30 380 H 40.0736 1.36263 3.2423 0
M  V30 381 H 39.9476 -0.309508 3.75928 0
M  V30 382 H 42.3346 -0.727649 2.85988 0
M  V30 383 H 42.4156 0.969809 2.36703 0
M  V30 384 H 42.0596 1.66912 4.7969 0
M  V30 385 H 41.9896 -0.0481649 5.26578 0
M  V30 386 H 44.4806 0.369198 3.76092 0
M  V30 387 H 44.7936 1.37482 7.60473 0
M  V30 388 H 43.1386 1.22958 6.84037 0
M  V30 389 H 46.3296 0.541098 4.64962 0
M  V30 390 H 46.5026 0.999445 6.40246 0
M  V30 391 N 39.9087 -1.5758 0.0250728 0
M  V30 392 C 41.1337 -1.96337 -0.668317 0
M  V30 393 C 41.5587 -0.901314 -1.651 0
M  V30 394 O 40.9167 0.138187 -1.80773 0
M  V30 395 C 40.9647 -3.34191 -1.35457 0
M  V30 396 O 40.0687 -3.30269 -2.46974 0
M  V30 397 H 39.4097 -0.640281 -0.175887 0
M  V30 398 H 41.9397 -2.0442 0.0857224 0
M  V30 399 H 41.9497 -3.70331 -1.71228 0
M  V30 400 H 40.6247 -4.11036 -0.634218 0
M  V30 401 H 39.2017 -3.05841 -2.13344 0
M  V30 402 N 41.3868 0.248026 -1.55636 0
M  V30 403 C 42.6638 0.998988 -1.68165 0
M  V30 404 C 43.0438 2.03409 -0.564621 0
M  V30 405 O 42.3918 2.24378 0.432076 0
M  V30 406 C 42.6018 1.63334 -3.0842 0
M  V30 407 C 43.9498 2.13562 -3.66983 0
M  V30 408 O 44.9738 1.73277 -3.11213 0
M  V30 409 O 43.8328 2.87526 -4.64749 0
M  V30 410 H 40.9268 0.464933 -0.683935 0
M  V30 411 H 43.4728 0.241902 -1.67967 0
M  V30 412 H 42.2448 0.884583 -3.8117 0
M  V30 413 H 41.8678 2.45666 -3.12624 0
M  V30 414 N 42.8649 1.48995 0.513639 0
M  V30 415 C 44.2759 1.5119 1.09537 0
M  V30 416 C 44.6269 0.290906 1.94031 0
M  V30 417 O 43.7519 -0.60049 2.07902 0
M  V30 418 C 44.3469 2.73964 1.99322 0
M  V30 419 C 42.9059 2.78978 2.52682 0
M  V30 420 C 42.0529 2.44934 1.30009 0
M  V30 421 H 45.0039 1.55875 0.298125 0
M  V30 422 H 45.0249 2.53409 2.83838 0
M  V30 423 H 44.5369 3.62813 1.37799 0
M  V30 424 H 42.6379 1.94378 3.1788 0
M  V30 425 H 42.7509 3.8083 2.90698 0
M  V30 426 H 41.1149 1.9644 1.62122 0
M  V30 427 H 41.8979 3.36043 0.702131 0
M  V30 428 N 44.343 -0.763751 1.37857 0
M  V30 429 C 45.591 -1.51957 1.33243 0
M  V30 430 C 45.912 -1.94835 -0.0801709 0
M  V30 431 O 45.182 -1.66894 -1.02582 0
M  V30 432 H 43.762 -0.563626 0.49024 0
M  V30 433 H 46.424 -0.908504 1.7243 0
M  V30 434 H 45.52 -2.41523 1.97669 0
M  V30 435 N 45.8211 -1.22559 -0.990812 0
M  V30 436 C 46.7711 -0.964807 -2.0658 0
M  V30 437 C 47.7551 0.0853472 -1.60673 0
M  V30 438 O 48.9471 -0.125443 -1.76555 0
M  V30 439 C 46.0761 -0.546707 -3.38919 0
M  V30 440 C 45.1621 -1.6317 -3.91454 0
M  V30 441 N 45.5531 -2.85985 -4.17189 0
M  V30 442 C 43.8511 -1.50387 -4.19881 0
M  V30 443 C 44.5521 -3.56159 -4.59919 0
M  V30 444 N 43.5281 -2.83637 -4.63736 0
M  V30 445 H 47.3301 -1.89769 -2.24421 0
M  V30 446 H 44.8441 -1.12343 -1.17273 0
M  V30 447 H 46.8411 -0.34119 -4.15502 0
M  V30 448 H 45.5011 0.379254 -3.22478 0
M  V30 449 H 46.5121 -3.22392 -4.05319 0
M  V30 450 H 43.1891 -0.644254 -4.12499 0
M  V30 451 H 44.5791 -4.6139 -4.88435 0
M  V30 452 N 47.2992 1.18797 -1.03562 0
M  V30 453 C 48.5292 1.92319 -0.754773 0
M  V30 454 C 48.9372 1.7612 0.691248 0
M  V30 455 O 48.2802 1.08491 1.48241 0
M  V30 456 C 48.3422 3.44284 -1.03484 0
M  V30 457 C 48.0062 3.84258 -2.47376 0
M  V30 458 C 49.0032 3.88459 -3.45537 0
M  V30 459 C 46.6882 4.15701 -2.81954 0
M  V30 460 C 48.6822 4.23545 -4.76328 0
M  V30 461 C 46.3692 4.50458 -4.12954 0
M  V30 462 C 47.3672 4.54356 -5.09951 0
M  V30 463 O 47.0552 4.88305 -6.38603 0
M  V30 464 H 46.7872 0.617527 -0.275021 0
M  V30 465 H 49.3412 1.51683 -1.38497 0
M  V30 466 H 47.5712 3.85135 -0.347513 0
M  V30 467 H 49.2602 3.99049 -0.7426 0
M  V30 468 H 50.0262 3.6431 -3.20162 0
M  V30 469 H 45.9052 4.11847 -2.0713 0
M  V30 470 H 49.4492 4.26502 -5.52035 0
M  V30 471 H 45.3462 4.74067 -4.38099 0
M  V30 472 H 46.1142 5.06227 -6.43177 0
M  V30 473 N 48.7773 0.814389 1.34928 0
M  V30 474 C 50.0023 0.410097 2.03305 0
M  V30 475 C 50.4273 -0.973464 1.60951 0
M  V30 476 O 49.7853 -1.63185 0.789964 0
M  V30 477 C 49.8333 0.51049 3.56968 0
M  V30 478 O 48.9373 -0.473035 4.09678 0
M  V30 479 H 48.2783 0.170088 0.641846 0
M  V30 480 H 50.8083 1.10244 1.72358 0
M  V30 481 H 50.8183 0.383135 4.06197 0
M  V30 482 H 49.4933 1.51963 3.87144 0
M  V30 483 H 48.0703 -0.305272 3.71648 0
M  V30 484 N 50.2554 -1.46986 0.568584 0
M  V30 485 C 51.5024 -2.02441 0.0487986 0
M  V30 486 C 51.8304 -1.44169 -1.30559 0
M  V30 487 O 51.0854 -0.591213 -1.86556 0
M  V30 488 C 51.3844 -3.57306 -0.081836 0
M  V30 489 C 51.0504 -4.34552 1.20313 0
M  V30 490 C 49.7124 -4.55376 1.5552 0
M  V30 491 C 52.0644 -4.79016 2.05411 0
M  V30 492 C 49.3924 -5.17913 2.7565 0
M  V30 493 C 51.7444 -5.42879 3.24754 0
M  V30 494 C 50.4084 -5.61933 3.60261 0
M  V30 495 H 49.6784 -0.740785 0.0178567 0
M  V30 496 H 52.3254 -1.76525 0.742384 0
M  V30 497 H 50.6304 -3.8228 -0.858463 0
M  V30 498 H 52.3274 -3.97876 -0.499546 0
M  V30 499 H 48.9174 -4.18631 0.919014 0
M  V30 500 H 53.1014 -4.62696 1.79516 0
M  V30 501 H 48.3574 -5.30858 3.03315 0
M  V30 502 H 52.5314 -5.76293 3.90973 0
M  V30 503 H 50.1584 -6.10161 4.53439 0
M  V30 504 N 51.7335 -0.305618 -1.54608 0
M  V30 505 C 52.9585 0.307562 -2.05107 0
M  V30 506 C 53.3835 1.46385 -1.18123 0
M  V30 507 O 52.7415 1.8034 -0.186324 0
M  V30 508 C 52.7895 0.73704 -3.52987 0
M  V30 509 O 51.8935 1.84134 -3.6901 0
M  V30 510 H 51.2345 0.0589143 -0.661381 0
M  V30 511 H 53.7645 -0.448807 -1.99617 0
M  V30 512 H 53.7745 1.02459 -3.94925 0
M  V30 513 H 52.4495 -0.108773 -4.15758 0
M  V30 514 H 51.0265 1.55398 -3.38978 0
M  V30 515 N 53.2116 1.57565 -0.0334293 0
M  V30 516 C 54.1446 2.05997 0.981866 0
M  V30 517 C 55.1226 0.956647 1.3148 0
M  V30 518 O 56.3066 1.22729 1.43073 0
M  V30 519 C 53.4336 2.48564 2.30074 0
M  V30 520 C 52.4796 3.69958 2.12211 0
M  V30 521 S 53.3126 5.16414 1.41692 0
M  V30 522 C 54.4686 5.6228 2.7494 0
M  V30 523 H 54.7016 2.91792 0.569612 0
M  V30 524 H 52.2346 1.53366 0.178376 0
M  V30 525 H 54.1926 2.73753 3.05892 0
M  V30 526 H 52.8536 1.63106 2.68431 0
M  V30 527 H 52.0466 3.97603 3.09722 0
M  V30 528 H 51.6486 3.44943 1.44535 0
M  V30 529 H 53.9406 5.66783 3.71165 0
M  V30 530 H 54.8836 6.61759 2.51953 0
M  V30 531 H 55.2916 4.89944 2.80384 0
M  V30 532 N 54.6897 -0.239769 1.55765 0
M  V30 533 C 56.1057 -0.588624 1.48349 0
M  V30 534 C 56.3057 -1.88005 0.72502 0
M  V30 535 O 55.3617 -2.51186 0.257269 0
M  V30 536 C 56.6747 -0.68474 2.928 0
M  V30 537 C 58.2227 -0.77659 3.03213 0
M  V30 538 C 58.6977 -0.904207 4.48986 0
M  V30 539 N 60.1887 -0.968896 4.52953 0
M  V30 540 C 60.9237 -1.08703 5.63002 0
M  V30 541 N 60.4197 -1.17026 6.82845 0
M  V30 542 N 62.2127 -1.12074 5.50814 0
M  V30 543 H 54.3637 0.607911 2.03515 0
M  V30 544 H 56.6267 0.21083 0.924259 0
M  V30 545 H 56.3327 0.194284 3.51163 0
M  V30 546 H 56.2067 -1.55435 3.43686 0
M  V30 547 H 58.5937 -1.64606 2.44926 0
M  V30 548 H 58.6747 0.118315 2.55526 0
M  V30 549 H 58.3187 -0.0392633 5.07885 0
M  V30 550 H 58.2487 -1.81426 4.9436 0
M  V30 551 H 60.7397 -0.915633 3.6664 0
M  V30 552 H 61.0527 -1.25966 7.62465 0
M  V30 553 H 59.3977 -1.13971 6.85591 0
M  V30 554 H 62.5887 -1.05226 4.5612 0
M  V30 555 H 62.7617 -1.20936 6.36615 0
M  V30 556 N 56.1678 -1.49265 -0.50573 0
M  V30 557 C 57.3928 -1.62478 -1.28902 0
M  V30 558 C 57.8178 -0.294332 -1.85783 0
M  V30 559 O 57.1758 0.737412 -1.65626 0
M  V30 560 C 57.2238 -2.69268 -2.39848 0
M  V30 561 O 56.3278 -2.28113 -3.43567 0
M  V30 562 H 55.6688 -0.54399 -0.380751 0
M  V30 563 H 58.1988 -1.95421 -0.605952 0
M  V30 564 H 58.2088 -2.91291 -2.85681 0
M  V30 565 H 56.8838 -3.65846 -1.97812 0
M  V30 566 H 55.4608 -2.16401 -3.03685 0
M  V30 567 N 57.6459 0.756429 -1.3826 0
M  V30 568 C 59.0569 1.33359 -1.30661 0
M  V30 569 C 59.4079 1.96161 0.0388875 0
M  V30 570 O 58.5329 1.94874 0.940918 0
M  V30 571 C 59.1279 2.42477 -2.36622 0
M  V30 572 C 57.6869 2.95922 -2.3261 0
M  V30 573 C 56.8339 1.69275 -2.19639 0
M  V30 574 H 59.7849 0.55552 -1.4866 0
M  V30 575 H 59.8059 3.22345 -2.02174 0
M  V30 576 H 59.3179 1.96739 -3.34538 0
M  V30 577 H 57.4189 3.45996 -1.38267 0
M  V30 578 H 57.5319 3.50494 -3.26636 0
M  V30 579 H 55.8959 1.92793 -1.66442 0
M  V30 580 H 56.6789 1.25619 -3.19491 0
M  V30 581 N 59.124 1.23083 0.984299 0
M  V30 582 C 60.034 1.02515 2.11016 0
M  V30 583 C 61.05 -0.0291702 1.73976 0
M  V30 584 O 62.226 0.165434 2.00719 0
M  V30 585 C 59.291 0.614673 3.41208 0
M  V30 586 C 58.352 1.74359 3.92297 0
M  V30 587 C 57.585 1.35261 5.16275 0
M  V30 588 O 57.808 0.235136 5.69915 0
M  V30 589 O 56.742 2.17227 5.61334 0
M  V30 590 H 60.568 1.96862 2.31255 0
M  V30 591 H 58.153 1.01753 1.09392 0
M  V30 592 H 60.035 0.396518 4.1953 0
M  V30 593 H 58.71 -0.299851 3.22308 0
M  V30 594 H 57.617 2.01635 3.1511 0
M  V30 595 H 58.95 2.63629 4.15645 0
M  V30 596 N 60.6021 -1.18246 1.0419 0
M  V30 597 C 61.5321 -2.24127 0.654914 0
M  V30 598 C 62.5131 -1.66617 -0.342451 0
M  V30 599 O 63.6981 -1.92924 -0.222277 0
M  V30 600 C 60.8281 -3.47295 0.0183757 0
M  V30 601 C 59.7821 -4.17563 0.939414 0
M  V30 602 C 59.1081 -5.34438 0.167286 0
M  V30 603 C 60.4081 -4.70917 2.25908 0
M  V30 604 H 62.1021 -2.56753 1.54007 0
M  V30 605 H 59.6481 -1.23414 0.74195 0
M  V30 606 H 61.6011 -4.20572 -0.264082 0
M  V30 607 H 60.3251 -3.13907 -0.901664 0
M  V30 608 H 58.9841 -3.46186 1.20628 0
M  V30 609 H 58.6321 -4.97298 -0.7552 0
M  V30 610 H 58.3321 -5.82388 0.780901 0
M  V30 611 H 59.8561 -6.10504 -0.108125 0
M  V30 612 H 61.2701 -5.35882 2.03724 0
M  V30 613 H 59.6671 -5.29406 2.82577 0
M  V30 614 H 60.7371 -3.88272 2.9047 0
M  V30 615 N 62.0802 -0.821533 -1.34494 0
M  V30 616 C 63.0432 -0.247847 -2.27856 0
M  V30 617 C 64.0432 0.573453 -1.50227 0
M  V30 618 O 65.2332 0.389759 -1.69784 0
M  V30 619 C 62.3652 0.652698 -3.34593 0
M  V30 620 H 63.5582 -1.07146 -2.80107 0
M  V30 621 H 61.1112 -0.593291 -1.44602 0
M  V30 622 H 61.8462 1.49943 -2.87555 0
M  V30 623 H 61.6312 0.065292 -3.92046 0
M  V30 624 H 63.1212 1.04793 -4.04238 0
M  V30 625 N 63.5583 1.46682 -0.576371 0
M  V30 626 C 64.4883 2.33028 0.148397 0
M  V30 627 C 65.4693 1.44961 0.889956 0
M  V30 628 O 66.6543 1.73789 0.866662 0
M  V30 629 C 63.7843 3.27117 1.1667 0
M  V30 630 C 62.7383 4.24575 0.540386 0
M  V30 631 C 62.0643 5.08126 1.6647 0
M  V30 632 C 63.3643 5.19722 -0.518331 0
M  V30 633 H 65.0583 2.93875 -0.572509 0
M  V30 634 H 62.6043 1.41315 -0.276768 0
M  V30 635 H 64.5573 3.86374 1.68204 0
M  V30 636 H 63.2813 2.64364 1.9178 0
M  V30 637 H 61.9403 3.66571 0.0461769 0
M  V30 638 H 61.5883 4.41762 2.40531 0
M  V30 639 H 61.2883 5.74122 1.25131 0
M  V30 640 H 62.8123 5.70246 2.18293 0
M  V30 641 H 64.2263 5.73232 -0.0883058 0
M  V30 642 H 62.6233 5.94026 -0.851679 0
M  V30 643 H 63.6933 4.64037 -1.40703 0
M  V30 644 N 65.0364 0.313813 1.54444 0
M  V30 645 C 66.4474 -0.176243 1.85866 0
M  V30 646 C 66.7984 -1.52405 1.23561 0
M  V30 647 O 65.9234 -2.09605 0.538016 0
M  V30 648 C 66.5184 -0.32657 3.37222 0
M  V30 649 C 65.0774 -0.760846 3.6863 0
M  V30 650 C 64.2244 0.123247 2.77026 0
M  V30 651 H 67.1754 0.534418 1.49431 0
M  V30 652 H 67.1964 -1.15908 3.62416 0
M  V30 653 H 66.7084 0.654531 3.82541 0
M  V30 654 H 64.8094 -1.75204 3.28838 0
M  V30 655 H 64.9224 -0.571353 4.75681 0
M  V30 656 H 63.2864 -0.399597 2.51546 0
M  V30 657 H 64.0694 1.10094 3.25168 0
M  V30 658 N 66.5145 -1.57545 0.0417849 0
M  V30 659 C 67.9305 -1.56467 -0.314704 0
M  V30 660 C 68.1305 -1.04859 -1.72066 0
M  V30 661 O 67.1865 -0.700983 -2.42575 0
M  V30 662 C 68.4995 -3.00317 -0.15174 0
M  V30 663 C 70.0475 -3.12201 -0.223553 0
M  V30 664 C 70.5225 -4.57913 -0.0892295 0
M  V30 665 N 72.0135 -4.6297 -0.145808 0
M  V30 666 C 72.7485 -5.73362 -0.0658459 0
M  V30 667 N 72.2445 -6.92769 0.0659282 0
M  V30 668 N 74.0375 -5.6197 -0.12075 0
M  V30 669 H 66.1885 -1.89416 0.961014 0
M  V30 670 H 68.4515 -0.871862 0.372237 0
M  V30 671 H 68.1575 -3.42073 0.817254 0
M  V30 672 H 68.0315 -3.65892 -0.916692 0
M  V30 673 H 70.4185 -2.70349 -1.18301 0
M  V30 674 H 70.4995 -2.49323 0.571994 0
M  V30 675 H 70.1435 -5.00448 0.866867 0
M  V30 676 H 70.0735 -5.18786 -0.903802 0
M  V30 677 H 72.5645 -3.7709 -0.247286 0
M  V30 678 H 72.8775 -7.72707 0.119905 0
M  V30 679 H 71.2225 -6.94927 0.100885 0
M  V30 680 H 74.4135 -4.67572 -0.222187 0
M  V30 681 H 74.5865 -6.47977 -0.0549735 0
M  V30 682 N 67.9926 0.231505 -1.5589 0
M  V30 683 C 69.2406 0.955461 -1.78088 0
M  V30 684 C 69.5616 1.85262 -0.608533 0
M  V30 685 O 68.8316 1.92277 0.375035 0
M  V30 686 H 67.4116 0.355787 -0.656829 0
M  V30 687 H 70.0736 0.245751 -1.93344 0
M  V30 688 H 69.1696 1.56814 -2.69844 0
M  V30 689 N 69.4707 1.49531 0.497807 0
M  V30 690 C 70.4037 1.61043 1.6168 0
M  V30 691 C 71.3817 0.459386 1.55976 0
M  V30 692 O 72.5657 0.675358 1.75986 0
M  V30 693 C 69.6927 1.56833 3.00202 0
M  V30 694 C 68.7387 2.77173 3.24156 0
M  V30 695 S 69.5717 4.38808 3.06933 0
M  V30 696 C 70.7277 4.37248 4.47845 0
M  V30 697 H 70.9607 2.55702 1.51671 0
M  V30 698 H 68.4937 1.38462 0.683201 0
M  V30 699 H 70.4517 1.55089 3.80076 0
M  V30 700 H 69.1127 0.634561 3.07623 0
M  V30 701 H 68.3057 2.70456 4.25288 0
M  V30 702 H 67.9077 2.76346 2.5201 0
M  V30 703 H 70.1997 4.09164 5.39992 0
M  V30 704 H 71.1427 5.38668 4.59612 0
M  V30 705 H 71.5507 3.67286 4.28674 0
M  V30 706 N 70.9488 -0.749086 1.3866 0
M  V30 707 C 71.8808 -1.87273 1.32142 0
M  V30 708 C 72.8938 -1.61127 0.232787 0
M  V30 709 O 74.0828 -1.71623 0.49069 0
M  V30 710 C 71.1828 -3.23005 1.02571 0
M  V30 711 C 70.3558 -3.7662 2.22433 0
M  V30 712 C 69.4148 -4.90879 1.89537 0
M  V30 713 O 68.4408 -5.05276 2.62078 0
M  V30 714 N 69.6428 -5.74198 0.853031 0
M  V30 715 H 72.4078 -1.93373 2.28969 0
M  V30 716 H 69.9688 -0.929216 1.32579 0
M  V30 717 H 71.9608 -3.96992 0.786085 0
M  V30 718 H 70.5308 -3.12262 0.145249 0
M  V30 719 H 69.7508 -2.94147 2.62434 0
M  V30 720 H 71.0388 -4.09173 3.02415 0
M  V30 721 H 70.4368 -5.6514 0.25155 0
M  V30 722 H 68.9938 -6.48313 0.67329 0
M  V30 723 N 72.4269 -1.23603 -0.977757 0
M  V30 724 C 73.8379 -1.06424 -1.53398 0
M  V30 725 C 74.1889 0.367578 -1.92726 0
M  V30 726 O 73.3139 1.25465 -1.76316 0
M  V30 727 C 73.9089 -1.92568 -2.78753 0
M  V30 728 C 72.4679 -1.79642 -3.30765 0
M  V30 729 C 71.6149 -1.88111 -2.03739 0
M  V30 730 H 74.5659 -1.37227 -0.797152 0
M  V30 731 H 74.5869 -1.45203 -3.51705 0
M  V30 732 H 74.0989 -2.96771 -2.50098 0
M  V30 733 H 72.1999 -0.782325 -3.64294 0
M  V30 734 H 72.3129 -2.63174 -4.00345 0
M  V30 735 H 70.6769 -1.31723 -2.17994 0
M  V30 736 H 71.4599 -2.93875 -1.77461 0
M  V30 737 N 73.905 1.17692 -1.04816 0
M  V30 738 C 75.133 1.91786 -0.776254 0
M  V30 739 C 75.548 1.76604 0.667577 0
M  V30 740 O 74.905 1.10067 1.45573 0
M  V30 741 C 74.956 3.42967 -1.14263 0
M  V30 742 O 74.677 3.57678 -2.52978 0
M  V30 743 C 76.178 4.34144 -0.896311 0
M  V30 744 H 73.398 0.608624 -0.282519 0
M  V30 745 H 75.942 1.49268 -1.39783 0
M  V30 746 H 74.097 3.83245 -0.565874 0
M  V30 747 H 74.511 4.51319 -2.67229 0
M  V30 748 H 75.985 5.38744 -1.20244 0
M  V30 749 H 76.462 4.38876 0.168636 0
M  V30 750 H 77.068 3.99574 -1.45672 0
M  V30 751 N 75.3831 0.828654 1.34056 0
M  V30 752 C 76.2931 0.256725 2.33191 0
M  V30 753 C 77.3091 -0.611898 1.62886 0
M  V30 754 O 78.4851 -0.51844 1.94613 0
M  V30 755 C 75.5501 -0.567238 3.42028 0
M  V30 756 C 74.6111 0.324458 4.28072 0
M  V30 757 C 73.8441 -0.460274 5.31712 0
M  V30 758 O 74.0671 -1.693 5.44696 0
M  V30 759 O 73.0011 0.160391 6.01686 0
M  V30 760 H 76.8271 1.07739 2.83947 0
M  V30 761 H 74.4121 0.59093 1.37217 0
M  V30 762 H 76.2941 -1.03582 4.08471 0
M  V30 763 H 74.9691 -1.36513 2.93506 0
M  V30 764 H 73.8761 0.840659 3.64532 0
M  V30 765 H 75.2091 1.08685 4.8005 0
M  V30 766 N 76.8612 -1.46375 0.584142 0
M  V30 767 C 78.1082 -2.02378 0.0702675 0
M  V30 768 C 78.4362 -1.45545 -1.29023 0
M  V30 769 O 77.6912 -0.610967 -1.85918 0
M  V30 770 C 77.9902 -3.57373 -0.0439342 0
M  V30 771 C 77.6562 -4.33252 1.24915 0
M  V30 772 C 76.3182 -4.53701 1.60341 0
M  V30 773 C 78.6702 -4.7681 2.1048 0
M  V30 774 C 75.9982 -5.1496 2.81128 0
M  V30 775 C 78.3502 -5.39404 3.30494 0
M  V30 776 C 77.0142 -5.5808 3.66201 0
M  V30 777 H 76.2842 -0.740554 0.0257127 0
M  V30 778 H 78.9312 -1.75727 0.761065 0
M  V30 779 H 77.2362 -3.83169 -0.817869 0
M  V30 780 H 78.9332 -3.98384 -0.457318 0
M  V30 781 H 75.5232 -4.17633 0.963364 0
M  V30 782 H 79.7072 -4.60766 1.84414 0
M  V30 783 H 74.9632 -5.27611 3.08928 0
M  V30 784 H 79.1372 -5.72114 3.97063 0
M  V30 785 H 76.7642 -6.05318 4.59885 0
M  V30 786 N 78.3393 -0.321999 -1.54275 0
M  V30 787 C 79.5863 0.281044 -2.0054 0
M  V30 788 C 79.9143 1.52265 -1.21019 0
M  V30 789 O 79.1693 1.93687 -0.279982 0
M  V30 790 C 79.4683 0.661769 -3.5122 0
M  V30 791 C 79.1343 -0.480482 -4.48333 0
M  V30 792 C 77.7963 -0.794005 -4.74604 0
M  V30 793 C 80.1483 -1.24783 -5.06042 0
M  V30 794 C 77.4763 -1.87763 -5.55844 0
M  V30 795 C 79.8283 -2.32153 -5.88462 0
M  V30 796 C 78.4923 -2.64089 -6.13036 0
M  V30 797 H 77.7623 0.102841 -0.733829 0
M  V30 798 H 80.4093 -0.445453 -1.86247 0
M  V30 799 H 78.7143 1.46867 -3.63232 0
M  V30 800 H 80.4113 1.13989 -3.84457 0
M  V30 801 H 77.0013 -0.226039 -4.28004 0
M  V30 802 H 81.1853 -1.01887 -4.85729 0
M  V30 803 H 76.4413 -2.12954 -5.73115 0
M  V30 804 H 80.6153 -2.92057 -6.32199 0
M  V30 805 H 78.2423 -3.48185 -6.75775 0
M  V30 806 N 79.8174 1.5752 -0.0501392 0
M  V30 807 C 80.7494 2.08413 0.95376 0
M  V30 808 C 81.7624 1.01175 1.27544 0
M  V30 809 O 82.9514 1.28744 1.23641 0
M  V30 810 C 80.0514 2.51138 2.27559 0
M  V30 811 C 79.2244 3.817 2.13598 0
M  V30 812 C 78.2834 4.10749 3.28895 0
M  V30 813 O 77.3094 4.80685 3.04845 0
M  V30 814 N 78.5114 3.62579 4.5334 0
M  V30 815 H 81.2764 2.95165 0.519383 0
M  V30 816 H 78.8374 1.61327 0.136127 0
M  V30 817 H 80.8294 2.67648 3.03557 0
M  V30 818 H 79.3994 1.6964 2.62567 0
M  V30 819 H 78.6194 3.74782 1.22197 0
M  V30 820 H 79.9074 4.67201 2.01496 0
M  V30 821 H 79.3054 3.06039 4.75769 0
M  V30 822 H 77.8624 3.84329 5.26436 0
M  V30 823 N 81.2955 -0.223234 1.56011 0
M  V30 824 C 82.5205 -0.968978 1.83373 0
M  V30 825 C 82.9455 -1.77227 0.630254 0
M  V30 826 O 82.3035 -1.76345 -0.420959 0
M  V30 827 C 82.3515 -1.86363 3.08709 0
M  V30 828 O 81.4555 -2.95873 2.87285 0
M  V30 829 H 80.7965 -0.274461 0.604622 0
M  V30 830 H 83.3265 -0.237056 2.03222 0
M  V30 831 H 83.3365 -2.27376 3.38768 0
M  V30 832 H 82.0115 -1.27319 3.95933 0
M  V30 833 H 80.5885 -2.58818 2.68454 0
M  V30 834 N 82.7736 -1.49793 -0.48987 0
M  V30 835 C 83.7036 -1.70201 -1.59856 0
M  V30 836 C 84.6846 -0.55076 -1.60937 0
M  V30 837 O 85.8696 -0.787841 -1.77501 0
M  V30 838 C 82.9996 -1.77882 -2.98287 0
M  V30 839 C 81.9536 -2.92907 -3.12073 0
M  V30 840 C 81.2796 -2.85712 -4.51965 0
M  V30 841 C 82.5796 -4.3369 -2.91051 0
M  V30 842 H 84.2736 -2.63025 -1.43032 0
M  V30 843 H 81.8196 -1.26574 -0.686664 0
M  V30 844 H 83.7726 -1.90744 -3.75759 0
M  V30 845 H 82.4966 -0.816653 -3.16225 0
M  V30 846 H 81.1556 -2.79665 -2.37029 0
M  V30 847 H 80.8036 -1.8738 -4.66795 0
M  V30 848 H 80.5036 -3.62921 -4.62128 0
M  V30 849 H 82.0276 -3.00598 -5.31482 0
M  V30 850 H 83.4416 -4.47555 -3.58284 0
M  V30 851 H 81.8386 -5.12205 -3.12675 0
M  V30 852 H 82.9086 -4.47362 -1.87071 0
M  V30 853 N 84.2517 0.741722 -1.39055 0
M  V30 854 C 85.4997 1.49818 -1.35643 0
M  V30 855 C 85.8207 1.94938 0.0491642 0
M  V30 856 O 85.0907 1.68505 0.999141 0
M  V30 857 H 83.6707 0.555755 -0.499144 0
M  V30 858 H 86.3327 0.880957 -1.73854 0
M  V30 859 H 85.4287 2.38348 -2.01486 0
M  V30 860 N 85.7298 1.2412 0.971189 0
M  V30 861 C 86.9778 1.07668 1.71032 0
M  V30 862 C 87.2988 -0.385797 1.91146 0
M  V30 863 O 86.5688 -1.27569 1.4867 0
M  V30 864 H 85.1488 0.395429 0.633755 0
M  V30 865 H 87.8108 1.55984 1.16855 0
M  V30 866 H 86.9068 1.57195 2.69622 0
M  V30 867 N 87.2079 -1.17134 1.05439 0
M  V30 868 C 88.4849 -1.83411 0.679699 0
M  V30 869 C 88.8649 -1.9368 -0.839726 0
M  V30 870 O 88.2129 -1.47325 -1.74664 0
M  V30 871 C 88.4229 -3.20918 1.37159 0
M  V30 872 C 89.7709 -3.96796 1.51123 0
M  V30 873 O 90.7949 -3.30406 1.3308 0
M  V30 874 O 89.6539 -5.15778 1.80651 0
M  V30 875 H 86.7479 -0.79154 0.239569 0
M  V30 876 H 89.2939 -1.24411 1.15413 0
M  V30 877 H 88.0659 -3.08428 2.40807 0
M  V30 878 H 87.6889 -3.87587 0.886674 0
M  V30 879 N 88.686 -0.835752 -1.33615 0
M  V30 880 C 89.934 -0.429109 -1.97492 0
M  V30 881 C 90.255 1.01433 -1.66543 0
M  V30 882 O 89.525 1.70611 -0.962744 0
M  V30 883 H 88.105 -0.155686 -0.730596 0
M  V30 884 H 90.767 -1.06802 -1.63031 0
M  V30 885 H 89.863 -0.55861 -3.0706 0
M  V30 886 N 90.1641 1.46063 -0.591896 0
M  V30 887 C 91.0741 2.34192 0.13831 0
M  V30 888 C 92.0901 1.50305 0.876608 0
M  V30 889 O 93.2661 1.8315 0.837728 0
M  V30 890 C 90.3311 3.27656 1.13326 0
M  V30 891 C 89.3921 4.27445 0.39863 0
M  V30 892 C 88.6251 5.16443 1.34618 0
M  V30 893 O 88.8481 5.08553 2.58321 0
M  V30 894 O 87.7821 5.95843 0.851768 0
M  V30 895 H 91.6081 2.98002 -0.58552 0
M  V30 896 H 89.1931 1.45188 -0.352239 0
M  V30 897 H 91.0751 3.85291 1.70671 0
M  V30 898 H 89.7501 2.6643 1.83839 0
M  V30 899 H 88.6571 3.73471 -0.216895 0
M  V30 900 H 89.9901 4.91482 -0.265709 0
M  V30 901 N 91.6422 0.330177 1.54103 0
M  V30 902 C 93.0582 -0.0222371 1.59585 0
M  V30 903 C 93.2582 -1.49902 1.34654 0
M  V30 904 O 92.3142 -2.25592 1.13421 0
M  V30 905 C 93.6272 0.401932 2.98002 0
M  V30 906 C 95.1752 0.353145 3.11001 0
M  V30 907 C 95.6502 0.752576 4.51775 0
M  V30 908 N 97.1412 0.706239 4.57784 0
M  V30 909 C 97.8762 0.987417 5.64834 0
M  V30 910 N 97.3722 1.33607 6.79795 0
M  V30 911 N 99.1652 0.91254 5.54643 0
M  V30 912 H 91.3162 1.29228 1.68564 0
M  V30 913 H 93.5792 0.525906 0.78875 0
M  V30 914 H 93.2852 1.4311 3.21267 0
M  V30 915 H 93.1592 -0.229699 3.765 0
M  V30 916 H 95.5462 -0.666822 2.87467 0
M  V30 917 H 95.6272 1.0198 2.34593 0
M  V30 918 H 95.2712 1.77049 4.76042 0
M  V30 919 H 95.2012 0.0635409 5.26562 0
M  V30 920 H 97.6922 0.44889 3.75224 0
M  V30 921 H 98.0052 1.53582 7.57385 0
M  V30 922 H 96.3502 1.37439 6.81275 0
M  V30 923 H 99.5412 0.639601 4.6371 0
M  V30 924 H 99.7142 1.13503 6.37982 0
M  V30 925 N 93.1203 -1.57491 0.0584922 0
M  V30 926 C 94.0683 -2.13148 -0.931168 0
M  V30 927 C 95.0623 -1.06507 -1.31729 0
M  V30 928 O 96.2683 -1.24906 -1.29609 0
M  V30 929 H 92.6433 -0.68137 -0.31818 0
M  V30 930 H 94.6143 -2.95187 -0.436707 0
M  V30 931 C 93.3633 -2.69732 -2.19408 0
M  V30 932 H 92.6863 -3.51454 -1.90578 0
M  V30 933 H 94.1263 -3.12287 -2.86798 0
M  V30 934 C 92.5853 -1.63855 -2.94369 0
M  V30 935 O 93.1153 -1.05565 -3.87581 0
M  V30 936 N 91.3213 -1.35202 -2.57233 0
M  V30 937 H 90.8683 -1.82791 -1.81508 0
M  V30 938 H 90.8263 -0.645922 -3.07693 0
M  V30 939 N 94.5984 0.214957 -1.56127 0
M  V30 940 C 95.8444 0.939762 -1.79712 0
M  V30 941 C 96.1774 1.83723 -0.629247 0
M  V30 942 O 95.4524 1.90925 0.371197 0
M  V30 943 C 95.7354 1.77306 -3.13424 0
M  V30 944 C 95.5884 0.90164 -4.40671 0
M  V30 945 C 96.9074 2.74956 -3.43638 0
M  V30 946 H 94.0264 0.340214 -0.653776 0
M  V30 947 H 96.6684 0.20824 -1.88855 0
M  V30 948 H 94.8184 2.39673 -3.0576 0
M  V30 949 H 96.4904 0.294206 -4.60361 0
M  V30 950 H 94.7334 0.207368 -4.33304 0
M  V30 951 H 95.4044 1.51923 -5.30682 0
M  V30 952 H 97.8804 2.22724 -3.51473 0
M  V30 953 H 96.7564 3.30358 -4.38355 0
M  V30 954 H 97.0174 3.53023 -2.66134 0
M  V30 955 N 96.0765 1.50051 0.48192 0
M  V30 956 C 97.0085 1.64263 1.59844 0
M  V30 957 C 98.0215 0.52451 1.54119 0
M  V30 958 O 99.2105 0.797293 1.59704 0
M  V30 959 C 96.3105 1.60102 2.98698 0
M  V30 960 C 95.4835 2.87767 3.29407 0
M  V30 961 C 94.5425 2.76397 4.47762 0
M  V30 962 O 93.5685 3.50348 4.48603 0
M  V30 963 N 94.7705 1.89222 5.48794 0
M  V30 964 H 97.5355 2.60566 1.48073 0
M  V30 965 H 95.0965 1.47379 0.670149 0
M  V30 966 H 97.0885 1.50123 3.75826 0
M  V30 967 H 95.6585 0.715798 3.04294 0
M  V30 968 H 94.8785 3.11954 2.40994 0
M  V30 969 H 96.1665 3.72365 3.4673 0
M  V30 970 H 95.5645 1.28434 5.50928 0
M  V30 971 H 94.1215 1.85154 6.24949 0
M  V30 972 N 97.5546 -0.734337 1.39446 0
M  V30 973 C 98.8036 -1.48937 1.36017 0
M  V30 974 C 99.1166 -1.95557 -0.0409005 0
M  V30 975 O 100.323 -2.70779 -0.19778 0
M  V30 976 C 98.7786 -2.69125 2.38955 0
M  V30 977 C 98.3866 -2.29452 3.8478 0
M  V30 978 C 100.131 -3.46944 2.44603 0
M  V30 979 C 98.0376 -3.46366 4.79358 0
M  V30 980 H 96.9676 -0.559296 0.505672 0
M  V30 981 H 99.6186 -0.800983 1.65095 0
M  V30 982 H 98.0006 -3.40041 2.02948 0
M  V30 983 H 99.1746 -1.66077 4.29831 0
M  V30 984 H 97.4896 -1.64723 3.82433 0
M  V30 985 H 100.087 -4.33907 3.12456 0
M  V30 986 H 100.43 -3.89454 1.47076 0
M  V30 987 H 100.963 -2.83056 2.79507 0
M  V30 988 H 97.7016 -3.08905 5.78151 0
M  V30 989 H 97.2216 -4.08719 4.38986 0
M  V30 990 H 98.9006 -4.12691 4.98292 0
M  V30 991 N 99.0327 -1.24633 -0.964593 0
M  V30 992 C 99.9427 -1.05859 -2.09359 0
M  V30 993 C 100.959 0.00148855 -1.74 0
M  V30 994 O 102.135 -0.197346 -2.00431 0
M  V30 995 C 99.1997 -0.668879 -3.40187 0
M  V30 996 C 98.2607 -1.80578 -3.89474 0
M  V30 997 C 97.4937 -1.43457 -5.14058 0
M  V30 998 O 97.7167 -0.325775 -5.69469 0
M  V30 999 O 96.6507 -2.2613 -5.57807 0
M  V30 1000 H 100.477 -2.00516 -2.28094 0
M  V30 1001 H 98.0617 -1.03481 -1.0776 0
M  V30 1002 H 99.9437 -0.463211 -4.18846 0
M  V30 1003 H 98.6187 0.248536 -3.22744 0
M  V30 1004 H 97.5257 -2.06623 -3.11862 0
M  V30 1005 H 98.8587 -2.70208 -4.11398 0
M  V30 1006 N 100.511 1.16574 -1.06058 0
M  V30 1007 C 101.444 2.19798 -0.61352 0
M  V30 1008 C 102.422 1.58509 0.362453 0
M  V30 1009 O 103.606 1.86527 0.271994 0
M  V30 1010 C 100.733 3.3855 0.100915 0
M  V30 1011 C 99.7788 4.18317 -0.831438 0
M  V30 1012 S 100.612 4.82375 -2.32539 0
M  V30 1013 C 101.768 6.04508 -1.62238 0
M  V30 1014 H 102.001 2.5738 -1.48805 0
M  V30 1015 H 99.5338 1.27327 -0.873338 0
M  V30 1016 H 101.492 4.07358 0.506898 0
M  V30 1017 H 100.153 2.99338 0.951604 0
M  V30 1018 H 99.3458 5.03232 -0.278071 0
M  V30 1019 H 98.9478 3.5499 -1.17719 0
M  V30 1020 H 101.24 6.71133 -0.926622 0
M  V30 1021 H 102.183 6.64389 -2.44934 0
M  V30 1022 H 102.591 5.53559 -1.106 0
M  V30 1023 N 101.989 0.842826 1.3317 0
M  V30 1024 C 102.952 0.284065 2.27433 0
M  V30 1025 C 103.952 -0.54948 1.5112 0
M  V30 1026 O 105.142 -0.362699 1.70382 0
M  V30 1027 C 102.274 -0.599384 3.35589 0
M  V30 1028 H 103.467 1.11589 2.78366 0
M  V30 1029 H 101.02 0.616221 1.4364 0
M  V30 1030 H 101.755 -1.45349 2.89904 0
M  V30 1031 H 101.54 -0.00291266 3.921 0
M  V30 1032 H 103.03 -0.983488 4.05854 0
M  V30 1033 N 103.467 -1.45747 0.599634 0
M  V30 1034 C 104.417 -2.27538 -0.145107 0
M  V30 1035 C 105.401 -1.3686 -0.846055 0
M  V30 1036 O 106.593 -1.6091 -0.737357 0
M  V30 1037 C 103.722 -3.23569 -1.14708 0
M  V30 1038 C 102.808 -4.21734 -0.447383 0
M  V30 1039 N 103.199 -5.03257 0.506535 0
M  V30 1040 C 101.497 -4.40536 -0.695966 0
M  V30 1041 C 102.198 -5.74426 0.917068 0
M  V30 1042 N 101.174 -5.42966 0.26253 0
M  V30 1043 H 104.976 -2.87965 0.587672 0
M  V30 1044 H 102.49 -1.56803 0.422697 0
M  V30 1045 H 104.487 -3.8089 -1.69495 0
M  V30 1046 H 103.147 -2.64702 -1.8805 0
M  V30 1047 H 104.158 -5.10319 0.882899 0
M  V30 1048 H 100.835 -3.92802 -1.41467 0
M  V30 1049 H 102.225 -6.4995 1.70338 0
M  V30 1050 N 104.945 -0.338344 -1.53925 0
M  V30 1051 C 106.193 0.259245 -2.0043 0
M  V30 1052 C 106.514 1.51484 -1.22791 0
M  V30 1053 O 105.784 1.93037 -0.33368 0
M  V30 1054 H 104.364 0.0987845 -0.740439 0
M  V30 1055 H 107.026 -0.458302 -1.89435 0
M  V30 1056 H 106.122 0.505334 -3.07982 0
M  V30 1057 N 106.423 1.57458 -0.0668435 0
M  V30 1058 C 107.651 1.97624 0.612565 0
M  V30 1059 C 108.066 0.94502 1.63447 0
M  V30 1060 O 107.423 -0.0689276 1.8237 0
M  V30 1061 C 107.474 3.37869 1.28555 0
M  V30 1062 O 107.195 4.3704 0.304557 0
M  V30 1063 C 108.696 3.92882 2.05325 0
M  V30 1064 H 105.916 0.650045 0.166381 0
M  V30 1065 H 108.46 2.04035 -0.137782 0
M  V30 1066 H 106.615 3.3256 1.98702 0
M  V30 1067 H 107.029 5.18565 0.786779 0
M  V30 1068 H 108.503 4.93247 2.47812 0
M  V30 1069 H 108.98 3.29156 2.9078 0
M  V30 1070 H 109.586 4.01577 1.40056 0
M  V30 1071 N 107.901 -0.206675 1.56239 0
M  V30 1072 C 109.129 -0.945345 1.8404 0
M  V30 1073 C 109.544 -1.77336 0.647885 0
M  V30 1074 O 108.901 -1.78425 -0.383511 0
M  V30 1075 C 108.952 -1.8509 3.10522 0
M  V30 1076 O 108.673 -1.05634 4.25174 0
M  V30 1077 C 110.174 -2.70222 3.51418 0
M  V30 1078 H 107.394 -0.276372 0.61144 0
M  V30 1079 H 109.938 -0.217417 2.03341 0
M  V30 1080 H 108.093 -2.53259 2.93153 0
M  V30 1081 H 108.507 -1.67238 4.97124 0
M  V30 1082 H 109.981 -3.29438 4.42916 0
M  V30 1083 H 110.458 -3.43358 2.73864 0
M  V30 1084 H 111.064 -2.07443 3.71278 0
M  V30 1085 N 109.379 -1.50304 -0.473955 0
M  V30 1086 C 110.607 -1.64902 -1.24959 0
M  V30 1087 C 111.022 -0.331198 -1.85872 0
M  V30 1088 O 110.379 0.68652 -1.69095 0
M  V30 1089 C 110.43 -2.73803 -2.36038 0
M  V30 1090 O 110.151 -4.00477 -1.77624 0
M  V30 1091 C 111.652 -2.99349 -3.26964 0
M  V30 1092 H 108.872 -0.554383 -0.378022 0
M  V30 1093 H 111.416 -1.9651 -0.566054 0
M  V30 1094 H 109.571 -2.44898 -3.00173 0
M  V30 1095 H 109.985 -4.60678 -2.5075 0
M  V30 1096 H 111.459 -3.79217 -4.01121 0
M  V30 1097 H 111.936 -2.10307 -3.85574 0
M  V30 1098 H 112.542 -3.29774 -2.68569 0
M  V30 1099 N 110.857 0.726932 -1.39834 0
M  V30 1100 C 111.787 1.85405 -1.41941 0
M  V30 1101 C 112.768 1.67751 -0.281728 0
M  V30 1102 O 113.953 1.8795 -0.488717 0
M  V30 1103 C 111.083 3.23243 -1.2701 0
M  V30 1104 C 110.037 3.55549 -2.38262 0
M  V30 1105 C 109.363 4.9241 -2.08415 0
M  V30 1106 C 110.663 3.577 -3.80589 0
M  V30 1107 H 112.357 1.83899 -2.36266 0
M  V30 1108 H 109.903 0.883349 -1.13723 0
M  V30 1109 H 111.856 4.01775 -1.27103 0
M  V30 1110 H 110.58 3.25296 -0.291564 0
M  V30 1111 H 109.239 2.79351 -2.37399 0
M  V30 1112 H 108.887 4.91052 -1.0898 0
M  V30 1113 H 108.587 5.14992 -2.82943 0
M  V30 1114 H 110.111 5.73289 -2.10171 0
M  V30 1115 H 111.525 4.26293 -3.83337 0
M  V30 1116 H 109.922 3.91804 -4.54543 0
M  V30 1117 H 110.992 2.57328 -4.10987 0
M  V30 1118 N 112.336 1.25143 0.95797 0
M  V30 1119 C 113.299 1.05321 2.03569 0
M  V30 1120 C 114.299 0.007152 1.60798 0
M  V30 1121 O 115.489 0.24903 1.72411 0
M  V30 1122 C 112.621 0.598394 3.35607 0
M  V30 1123 H 113.814 2.00986 2.22586 0
M  V30 1124 H 111.367 1.07502 1.13459 0
M  V30 1125 H 112.102 -0.361014 3.22284 0
M  V30 1126 H 111.887 1.35351 3.67998 0
M  V30 1127 H 113.377 0.48104 4.1482 0
M  V30 1128 N 113.814 -1.1601 1.06675 0
M  V30 1129 C 115.061 -1.86633 0.785781 0
M  V30 1130 C 115.389 -1.81929 -0.687896 0
M  V30 1131 O 114.644 -1.23253 -1.52011 0
M  V30 1132 C 114.943 -3.35547 1.23057 0
M  V30 1133 C 114.609 -3.60448 2.70902 0
M  V30 1134 C 113.271 -3.66954 3.11285 0
M  V30 1135 C 115.623 -3.7071 3.66365 0
M  V30 1136 C 112.951 -3.81225 4.45965 0
M  V30 1137 C 115.303 -3.86503 5.00797 0
M  V30 1138 C 113.967 -3.91252 5.40813 0
M  V30 1139 H 113.237 -0.682937 0.287538 0
M  V30 1140 H 115.884 -1.37146 1.33654 0
M  V30 1141 H 114.189 -3.87193 0.59907 0
M  V30 1142 H 115.886 -3.88583 0.990163 0
M  V30 1143 H 112.476 -3.56021 2.38636 0
M  V30 1144 H 116.66 -3.64991 3.36296 0
M  V30 1145 H 111.916 -3.83155 4.76447 0
M  V30 1146 H 116.09 -3.93385 5.74649 0
M  V30 1147 H 113.717 -4.02062 6.45174 0
M  V30 1148 N 115.292 -0.849877 -1.32721 0
M  V30 1149 C 116.239 -0.289033 -2.28983 0
M  V30 1150 C 117.209 0.601324 -1.54833 0
M  V30 1151 O 118.394 0.537253 -1.8308 0
M  V30 1152 C 115.534 0.520623 -3.4115 0
M  V30 1153 C 114.647 -0.394989 -4.3019 0
M  V30 1154 C 113.782 0.426834 -5.29482 0
M  V30 1155 C 112.821 -0.486476 -6.10164 0
M  V30 1156 N 111.958 0.297879 -7.01468 0
M  V30 1157 H 116.798 -1.11519 -2.76347 0
M  V30 1158 H 114.335 -0.56138 -1.35967 0
M  V30 1159 H 116.293 1.00563 -4.04899 0
M  V30 1160 H 114.923 1.31165 -2.9495 0
M  V30 1161 H 113.975 -0.99836 -3.67065 0
M  V30 1162 H 115.287 -1.09612 -4.86607 0
M  V30 1163 H 114.441 0.975205 -5.98811 0
M  V30 1164 H 113.18 1.16136 -4.73671 0
M  V30 1165 H 112.185 -1.04677 -5.39743 0
M  V30 1166 H 113.41 -1.21953 -6.6806 0
M  V30 1167 H 111.356 1.01558 -6.48091 0
M  V30 1168 H 111.273 -0.344318 -7.55216 0
M  V30 1169 H 112.541 0.828131 -7.75089 0
M  V30 1170 N 116.77 1.45427 -0.607355 0
M  V30 1171 C 118.017 2.02241 -0.102455 0
M  V30 1172 C 118.345 1.4758 1.26691 0
M  V30 1173 O 117.6 0.640468 1.84923 0
M  V30 1174 C 117.899 3.57398 -0.0129263 0
M  V30 1175 C 117.565 4.3121 -1.31792 0
M  V30 1176 C 116.227 4.51092 -1.67539 0
M  V30 1177 C 118.579 4.73401 -2.18039 0
M  V30 1178 C 115.907 5.10422 -2.89285 0
M  V30 1179 C 118.259 5.34078 -3.39034 0
M  V30 1180 C 116.923 5.52184 -3.75033 0
M  V30 1181 H 116.193 0.740051 -0.037491 0
M  V30 1182 H 118.84 1.74494 -0.788926 0
M  V30 1183 H 117.145 3.84421 0.756806 0
M  V30 1184 H 118.842 3.99061 0.393881 0
M  V30 1185 H 115.432 4.16047 -1.02968 0
M  V30 1186 H 119.616 4.57774 -1.91721 0
M  V30 1187 H 114.872 5.22629 -3.17283 0
M  V30 1188 H 119.046 5.65724 -4.06115 0
M  V30 1189 H 116.673 5.97925 -4.69457 0
M  V30 1190 N 118.248 0.346503 1.53744 0
M  V30 1191 C 119.18 -0.543316 2.22667 0
M  V30 1192 C 120.193 -1.06159 1.23427 0
M  V30 1193 O 121.382 -0.971235 1.49764 0
M  V30 1194 C 118.482 -1.76076 2.89569 0
M  V30 1195 C 117.655 -1.37727 4.15151 0
M  V30 1196 C 116.714 -2.45471 4.65436 0
M  V30 1197 O 115.74 -2.08655 5.29577 0
M  V30 1198 N 116.942 -3.7677 4.41616 0
M  V30 1199 H 119.707 0.0469703 2.99663 0
M  V30 1200 H 117.268 0.170766 1.60997 0
M  V30 1201 H 119.26 -2.47593 3.20125 0
M  V30 1202 H 117.83 -2.25835 2.16142 0
M  V30 1203 H 117.05 -0.492746 3.91108 0
M  V30 1204 H 118.338 -1.09708 4.96832 0
M  V30 1205 H 117.736 -4.09467 3.90325 0
M  V30 1206 H 116.293 -4.44448 4.7677 0
M  V30 1207 N 119.726 -1.57421 0.075193 0
M  V30 1208 C 120.676 -2.09441 -0.901025 0
M  V30 1209 C 121.66 -1.00486 -1.25663 0
M  V30 1210 O 122.852 -1.2679 -1.23504 0
M  V30 1211 C 119.981 -2.66233 -2.16737 0
M  V30 1212 C 119.067 -3.82198 -1.83808 0
M  V30 1213 N 119.458 -4.91028 -1.21345 0
M  V30 1214 C 117.756 -3.91558 -2.13538 0
M  V30 1215 C 118.457 -5.71852 -1.06585 0
M  V30 1216 N 117.433 -5.20233 -1.57667 0
M  V30 1217 H 121.235 -2.90972 -0.413815 0
M  V30 1218 H 118.749 -1.6189 -0.128601 0
M  V30 1219 H 120.746 -3.01819 -2.87595 0
M  V30 1220 H 119.406 -1.8615 -2.66042 0
M  V30 1221 H 120.417 -5.10323 -0.88268 0
M  V30 1222 H 117.094 -3.22454 -2.65197 0
M  V30 1223 H 118.484 -6.69401 -0.578933 0
M  V30 1224 N 121.204 0.198386 -1.56346 0
M  V30 1225 C 122.452 0.91747 -1.80075 0
M  V30 1226 C 122.773 1.83929 -0.647692 0
M  V30 1227 O 122.043 1.93029 0.334166 0
M  V30 1228 H 120.623 0.341774 -0.664228 0
M  V30 1229 H 123.285 0.204684 -1.93822 0
M  V30 1230 H 122.381 1.51055 -2.7311 0
M  V30 1231 N 122.682 1.50554 0.465978 0
M  V30 1232 C 123.928 1.62038 1.21949 0
M  V30 1233 C 124.261 0.322116 1.9151 0
M  V30 1234 O 123.536 -0.676723 1.82348 0
M  V30 1235 C 123.819 2.80421 2.25912 0
M  V30 1236 C 123.672 4.20144 1.60622 0
M  V30 1237 C 124.991 2.94354 3.27176 0
M  V30 1238 H 122.11 0.589752 0.441998 0
M  V30 1239 H 124.752 1.82956 0.51257 0
M  V30 1240 H 122.902 2.62717 2.86203 0
M  V30 1241 H 124.574 4.49449 1.03889 0
M  V30 1242 H 122.817 4.24165 0.909211 0
M  V30 1243 H 123.488 4.98914 2.36196 0
M  V30 1244 H 125.964 3.10578 2.76913 0
M  V30 1245 H 124.84 3.788 3.97242 0
M  V30 1246 H 125.101 2.05186 3.916 0
M  V30 1247 N 124.16 -0.719506 1.40217 0
M  V30 1248 C 125.409 -1.47486 1.37589 0
M  V30 1249 C 125.722 -1.9559 -0.0201568 0
M  V30 1250 O 126.928 -2.70973 -0.169049 0
M  V30 1251 C 125.384 -2.66575 2.41796 0
M  V30 1252 C 124.992 -2.25358 3.87192 0
M  V30 1253 C 126.736 -3.4433 2.48269 0
M  V30 1254 C 124.643 -3.41262 4.83005 0
M  V30 1255 H 123.573 -0.553901 0.511576 0
M  V30 1256 H 126.224 -0.783427 1.65936 0
M  V30 1257 H 124.606 -3.3787 2.06543 0
M  V30 1258 H 125.78 -1.61509 4.31569 0
M  V30 1259 H 124.095 -1.60657 3.84159 0
M  V30 1260 H 126.692 -4.30569 3.17041 0
M  V30 1261 H 127.035 -3.87872 1.51198 0
M  V30 1262 H 127.568 -2.80076 2.82493 0
M  V30 1263 H 124.307 -3.02755 5.81394 0
M  V30 1264 H 123.827 -4.0404 4.43297 0
M  V30 1265 H 125.506 -4.07383 5.02641 0
M  V30 1266 N 125.638 -1.25649 -0.95132 0
M  V30 1267 C 126.601 -1.06399 -2.03007 0
M  V30 1268 C 127.601 -0.0156794 -1.60792 0
M  V30 1269 O 128.791 -0.25817 -1.72276 0
M  V30 1270 C 125.923 -0.616184 -3.35285 0
M  V30 1271 H 127.116 -2.02164 -2.21517 0
M  V30 1272 H 124.669 -1.08103 -1.12887 0
M  V30 1273 H 125.404 0.343917 -3.22471 0
M  V30 1274 H 125.189 -1.37301 -3.67275 0
M  V30 1275 H 126.679 -0.503032 -4.14559 0
M  V30 1276 N 127.117 1.15442 -1.07289 0
M  V30 1277 C 128.08 2.18358 -0.696591 0
M  V30 1278 C 129.08 1.58637 0.262837 0
M  V30 1279 O 130.27 1.74145 0.0438809 0
M  V30 1280 C 127.402 3.4089 -0.0266151 0
M  V30 1281 H 128.595 2.53162 -1.60776 0
M  V30 1282 H 126.148 1.29893 -0.869342 0
M  V30 1283 H 126.883 3.11653 0.896822 0
M  V30 1284 H 126.668 3.85495 -0.716657 0
M  V30 1285 H 128.158 4.17009 0.222028 0
M  V30 1286 N 128.595 0.856903 1.32268 0
M  V30 1287 C 129.841 0.462069 1.97466 0
M  V30 1288 C 130.174 -0.980298 1.67642 0
M  V30 1289 O 129.449 -1.68824 0.965858 0
M  V30 1290 C 129.732 0.704336 3.53145 0
M  V30 1291 C 129.585 2.19529 3.9259 0
M  V30 1292 C 130.904 0.1622 4.39801 0
M  V30 1293 H 128.023 0.169357 0.717278 0
M  V30 1294 H 130.665 1.07574 1.56614 0
M  V30 1295 H 128.815 0.181999 3.88073 0
M  V30 1296 H 130.487 2.78387 3.67829 0
M  V30 1297 H 128.73 2.67292 3.41668 0
M  V30 1298 H 129.401 2.31549 5.01088 0
M  V30 1299 H 131.877 0.608905 4.11621 0
M  V30 1300 H 130.753 0.361265 5.4771 0
M  V30 1301 H 131.014 -0.935158 4.32096 0
M  V30 1302 N 130.073 -1.45103 0.615059 0
M  V30 1303 C 131.35 -1.95549 0.0448276 0
M  V30 1304 C 131.73 -1.55737 -1.4251 0
M  V30 1305 O 131.078 -0.823556 -2.13143 0
M  V30 1306 C 131.288 -3.48098 0.250785 0
M  V30 1307 C 132.636 -4.24384 0.135509 0
M  V30 1308 O 133.66 -3.55738 0.181299 0
M  V30 1309 O 132.519 -5.46493 0.0268878 0
M  V30 1310 H 129.613 -0.8264 -0.0314845 0
M  V30 1311 H 132.159 -1.55232 0.685642 0
M  V30 1312 H 130.931 -3.7007 1.27139 0
M  V30 1313 H 130.554 -3.95323 -0.424937 0
M  V30 1314 N 131.551 -0.354651 -1.53558 0
M  V30 1315 C 132.776 0.242153 -2.05981 0
M  V30 1316 C 133.201 1.42553 -1.2272 0
M  V30 1317 O 132.559 1.79656 -0.243604 0
M  V30 1318 C 132.607 0.624367 -3.55154 0
M  V30 1319 O 131.711 1.72301 -3.74681 0
M  V30 1320 H 131.052 0.0378432 -0.662921 0
M  V30 1321 H 133.582 -0.512087 -1.98088 0
M  V30 1322 H 133.592 0.898433 -3.97985 0
M  V30 1323 H 132.267 -0.240989 -4.15201 0
M  V30 1324 H 130.844 1.44535 -3.4375 0
M  V30 1325 N 133.029 1.57378 -0.0835403 0
M  V30 1326 C 134.445 1.57246 0.273109 0
M  V30 1327 C 134.645 1.09385 1.69225 0
M  V30 1328 O 133.701 0.765051 2.40631 0
M  V30 1329 C 135.014 3.00614 0.0720628 0
M  V30 1330 C 136.562 3.12684 0.1407 0
M  V30 1331 C 137.037 4.57989 -0.0322094 0
M  V30 1332 N 138.528 4.63194 0.0230085 0
M  V30 1333 C 139.263 5.73335 -0.0861941 0
M  V30 1334 N 138.759 6.9235 -0.24958 0
M  V30 1335 N 140.552 5.62093 -0.0282886 0
M  V30 1336 H 132.703 1.86801 -1.0109 0
M  V30 1337 H 134.966 0.861687 -0.395222 0
M  V30 1338 H 134.672 3.39786 -0.907662 0
M  V30 1339 H 134.546 3.68193 0.81936 0
M  V30 1340 H 136.933 2.73391 1.11092 0
M  V30 1341 H 137.014 2.47719 -0.637896 0
M  V30 1342 H 136.658 4.97973 -0.999247 0
M  V30 1343 H 136.588 5.21 0.765937 0
M  V30 1344 H 139.079 3.77613 0.14722 0
M  V30 1345 H 139.392 7.72117 -0.324733 0
M  V30 1346 H 137.737 6.94415 -0.285097 0
M  V30 1347 H 140.928 4.67997 0.0981408 0
M  V30 1348 H 141.101 6.47895 -0.116845 0
M  V30 1349 N 134.507 -0.190092 1.56449 0
M  V30 1350 C 135.47 -1.21925 1.9408 0
M  V30 1351 C 136.47 -1.38176 0.822431 0
M  V30 1352 O 137.66 -1.35903 1.08977 0
M  V30 1353 C 134.792 -2.58773 2.21922 0
M  V30 1354 H 135.985 -0.897464 2.86157 0
M  V30 1355 H 133.538 -0.43181 1.50217 0
M  V30 1356 H 134.273 -2.95998 1.32499 0
M  V30 1357 H 134.058 -2.48348 3.03424 0
M  V30 1358 H 135.548 -3.32978 2.52022 0
M  V30 1359 N 135.985 -1.50799 -0.457987 0
M  V30 1360 C 137.21 -1.66496 -1.23668 0
M  V30 1361 C 137.635 -0.353288 -1.84752 0
M  V30 1362 O 136.993 0.684346 -1.67888 0
M  V30 1363 C 137.041 -2.76763 -2.3116 0
M  V30 1364 O 136.145 -2.38928 -3.36136 0
M  V30 1365 H 135.486 -0.555828 -0.363252 0
M  V30 1366 H 138.016 -1.9725 -0.543474 0
M  V30 1367 H 138.026 -3.00232 -2.76269 0
M  V30 1368 H 136.701 -3.71954 -1.86073 0
M  V30 1369 H 135.278 -2.25953 -2.96647 0
M  V30 1370 N 137.463 0.71206 -1.40597 0
M  V30 1371 C 138.426 1.80785 -1.40888 0
M  V30 1372 C 139.426 1.57937 -0.302103 0
M  V30 1373 O 140.616 1.64913 -0.561182 0
M  V30 1374 C 137.748 3.18927 -1.20409 0
M  V30 1375 H 138.941 1.81924 -2.38419 0
M  V30 1376 H 136.494 0.91805 -1.26497 0
M  V30 1377 H 137.229 3.23436 -0.236522 0
M  V30 1378 H 137.014 3.36911 -2.00582 0
M  V30 1379 H 138.504 3.98949 -1.23408 0
M  V30 1380 N 138.941 1.26152 0.944643 0
M  V30 1381 C 140.189 1.11271 1.6871 0
M  V30 1382 C 140.51 -0.345166 1.91921 0
M  V30 1383 O 139.78 -1.24387 1.51343 0
M  V30 1384 H 138.36 0.408783 0.625224 0
M  V30 1385 H 141.022 1.58427 1.1352 0
M  V30 1386 H 140.118 1.62879 2.66227 0
M  V30 1387 N 140.419 -1.14872 1.07899 0
M  V30 1388 C 141.644 -1.90202 0.826926 0
M  V30 1389 C 142.069 -1.77774 -0.614664 0
M  V30 1390 O 141.427 -1.11431 -1.43013 0
M  V30 1391 C 141.475 -3.38352 1.24702 0
M  V30 1392 O 140.579 -4.10497 0.39575 0
M  V30 1393 H 139.92 -0.591968 0.300782 0
M  V30 1394 H 142.45 -1.45437 1.43907 0
M  V30 1395 H 142.46 -3.89156 1.22563 0
M  V30 1396 H 141.135 -3.46715 2.29698 0
M  V30 1397 H 139.712 -3.69796 0.480117 0
M  V30 1398 N 141.898 -0.863906 -1.31812 0
M  V30 1399 C 143.128 -0.485406 -2.00817 0
M  V30 1400 C 143.536 0.925007 -1.65046 0
M  V30 1401 O 142.879 1.61653 -0.872574 0
M  V30 1402 C 142.941 -0.555589 -3.55181 0
M  V30 1403 C 142.605 -1.92654 -4.14407 0
M  V30 1404 C 143.602 -2.89324 -4.31958 0
M  V30 1405 C 141.287 -2.2262 -4.50273 0
M  V30 1406 C 143.281 -4.14108 -4.84555 0
M  V30 1407 C 140.968 -3.47654 -5.02573 0
M  V30 1408 C 141.966 -4.43214 -5.19664 0
M  V30 1409 O 141.654 -5.66033 -5.70843 0
M  V30 1410 H 141.386 -0.188224 -0.649267 0
M  V30 1411 H 143.94 -1.16514 -1.69156 0
M  V30 1412 H 142.17 0.181037 -3.86276 0
M  V30 1413 H 143.859 -0.19138 -4.05449 0
M  V30 1414 H 144.625 -2.6748 -4.04573 0
M  V30 1415 H 140.504 -1.4902 -4.3625 0
M  V30 1416 H 144.048 -4.88703 -4.9781 0
M  V30 1417 H 139.945 -3.69345 -5.29391 0
M  V30 1418 H 140.713 -5.6812 -5.89222 0
M  V30 1419 N 143.376 1.44774 -0.622745 0
M  V30 1420 C 144.625 2.01334 -0.121397 0
M  V30 1421 C 144.938 1.49505 1.26125 0
M  V30 1422 O 146.144 1.98139 1.85616 0
M  V30 1423 C 144.6 3.59516 -0.166298 0
M  V30 1424 C 144.208 4.20342 -1.54974 0
M  V30 1425 C 145.952 4.23582 0.279021 0
M  V30 1426 C 143.859 5.70721 -1.55021 0
M  V30 1427 H 142.789 0.752851 -0.0416172 0
M  V30 1428 H 145.44 1.66083 -0.780309 0
M  V30 1429 H 143.822 3.92027 0.559557 0
M  V30 1430 H 144.996 3.99381 -2.29851 0
M  V30 1431 H 143.311 3.68529 -1.93843 0
M  V30 1432 H 145.908 5.33868 0.298083 0
M  V30 1433 H 146.251 3.95327 1.30471 0
M  V30 1434 H 146.784 3.95843 -0.394063 0
M  V30 1435 H 143.523 6.03698 -2.55399 0
M  V30 1436 H 143.043 5.93829 -0.844245 0
M  V30 1437 H 144.722 6.34203 -1.28047 0
M  V30 1438 N 144.854 0.36279 1.53368 0
M  V30 1439 C 146.079 -0.231226 2.06107 0
M  V30 1440 C 146.504 -1.419 1.23474 0
M  V30 1441 O 145.862 -1.79524 0.253128 0
M  V30 1442 C 145.91 -0.605523 3.5548 0
M  V30 1443 O 145.014 -1.70312 3.7559 0
M  V30 1444 H 144.355 -0.034327 0.663112 0
M  V30 1445 H 146.885 0.522584 1.97814 0
M  V30 1446 H 146.895 -0.877314 3.98456 0
M  V30 1447 H 145.57 0.263004 4.15068 0
M  V30 1448 H 144.147 -1.4271 3.44512 0
M  V30 1449 N 146.332 -1.57332 0.0918853 0
M  V30 1450 C 147.295 -2.12708 -0.85369 0
M  V30 1451 C 148.295 -1.05561 -1.213 0
M  V30 1452 O 149.485 -1.31461 -1.14296 0
M  V30 1453 C 146.617 -2.64503 -2.15061 0
M  V30 1454 H 147.81 -2.97573 -0.3729 0
M  V30 1455 H 145.363 -1.55509 -0.157072 0
M  V30 1456 H 146.098 -1.83149 -2.67632 0
M  V30 1457 H 145.883 -3.4284 -1.90272 0
M  V30 1458 H 147.373 -3.07351 -2.82711 0
M  V30 1459 N 147.81 0.181792 -1.56548 0
M  V30 1460 C 148.74 1.22765 -1.98623 0
M  V30 1461 C 149.721 1.46747 -0.860189 0
M  V30 1462 O 150.906 1.58259 -1.12551 0
M  V30 1463 C 148.036 2.56894 -2.33715 0
M  V30 1464 C 146.99 2.475 -3.49182 0
M  V30 1465 C 146.316 3.86023 -3.69986 0
M  V30 1466 C 147.616 1.98866 -4.82959 0
M  V30 1467 H 149.31 0.877942 -2.86239 0
M  V30 1468 H 146.856 0.42088 -1.37712 0
M  V30 1469 H 148.809 3.30253 -2.61746 0
M  V30 1470 H 147.533 2.93632 -1.42997 0
M  V30 1471 H 146.192 1.76596 -3.21262 0
M  V30 1472 H 145.84 4.20136 -2.76576 0
M  V30 1473 H 145.54 3.80609 -4.47672 0
M  V30 1474 H 147.064 4.60984 -4.00407 0
M  V30 1475 H 148.478 2.61992 -5.09934 0
M  V30 1476 H 146.875 2.04424 -5.64208 0
M  V30 1477 H 147.945 0.942465 -4.75653 0
M  V30 1478 N 149.288 1.51039 0.449983 0
M  V30 1479 C 150.704 1.38934 0.785462 0
M  V30 1480 C 150.904 0.461817 1.96136 0
M  V30 1481 O 149.96 -0.0877389 2.52348 0
M  V30 1482 C 151.273 2.80724 1.0777 0
M  V30 1483 C 152.821 2.89787 1.1829 0
M  V30 1484 C 153.296 4.32457 1.50815 0
M  V30 1485 N 154.787 4.35505 1.57764 0
M  V30 1486 C 155.522 5.42914 1.84477 0
M  V30 1487 N 155.018 6.60502 2.09068 0
M  V30 1488 N 156.811 5.3038 1.86155 0
M  V30 1489 H 148.962 2.09904 -0.324647 0
M  V30 1490 H 151.225 0.944378 -0.0827957 0
M  V30 1491 H 150.931 3.50531 0.286498 0
M  V30 1492 H 150.805 3.19273 2.00859 0
M  V30 1493 H 153.192 2.20186 1.96474 0
M  V30 1494 H 153.273 2.54752 0.231314 0
M  V30 1495 H 152.917 5.02603 0.731622 0
M  V30 1496 H 152.847 4.64995 2.47158 0
M  V30 1497 H 155.338 3.50724 1.40715 0
M  V30 1498 H 155.651 7.38158 2.28785 0
M  V30 1499 H 153.996 6.63639 2.06416 0
M  V30 1500 H 157.187 4.37505 1.66454 0
M  V30 1501 H 157.36 6.1417 2.06637 0
M  V30 1502 N 150.766 -0.704594 1.40972 0
M  V30 1503 C 152.012 -1.46675 1.40051 0
M  V30 1504 C 152.345 -1.94199 0.00641102 0
M  V30 1505 O 151.62 -1.68916 -0.964235 0
M  V30 1506 C 151.903 -2.68505 2.39952 0
M  V30 1507 C 151.756 -2.26805 3.88432 0
M  V30 1508 C 153.075 -3.70686 2.37233 0
M  V30 1509 H 150.194 -0.532015 0.510028 0
M  V30 1510 H 152.836 -0.803255 1.72185 0
M  V30 1511 H 150.986 -3.25114 2.1268 0
M  V30 1512 H 152.658 -1.75592 4.26574 0
M  V30 1513 H 150.901 -1.58685 4.03734 0
M  V30 1514 H 151.572 -3.14181 4.53866 0
M  V30 1515 H 154.048 -3.23731 2.61415 0
M  V30 1516 H 152.924 -4.53553 3.09162 0
M  V30 1517 H 153.185 -4.19754 1.38777 0
M  V30 1518 N 152.244 -1.26651 -0.937939 0
M  V30 1519 C 153.192 -1.08308 -2.05845 0
M  V30 1520 C 154.186 -0.0090757 -1.69398 0
M  V30 1521 O 155.392 -0.166007 -1.79233 0
M  V30 1522 H 151.767 -0.333416 -0.674046 0
M  V30 1523 H 153.738 -2.03261 -2.18467 0
M  V30 1524 C 152.487 -0.736229 -3.39816 0
M  V30 1525 H 151.81 -1.55453 -3.6834 0
M  V30 1526 H 153.25 -0.64769 -4.19024 0
M  V30 1527 C 151.709 0.558824 -3.32233 0
M  V30 1528 O 152.239 1.59621 -3.68624 0
M  V30 1529 N 150.445 0.550657 -2.85335 0
M  V30 1530 H 149.992 -0.293943 -2.55917 0
M  V30 1531 H 149.95 1.41726 -2.80644 0
M  V30 1532 N 153.722 1.14298 -1.08507 0
M  V30 1533 C 154.669 2.19414 -0.715965 0
M  V30 1534 C 155.639 1.63399 0.298326 0
M  V30 1535 O 156.824 1.89929 0.182101 0
M  V30 1536 C 153.964 3.44845 -0.132534 0
M  V30 1537 C 153.077 4.15007 -1.19973 0
M  V30 1538 C 152.212 5.28024 -0.580048 0
M  V30 1539 C 151.251 5.9002 -1.62921 0
M  V30 1540 N 150.388 6.94485 -1.03125 0
M  V30 1541 H 155.228 2.50336 -1.61666 0
M  V30 1542 H 152.765 1.2293 -0.807882 0
M  V30 1543 H 154.723 4.16601 0.223454 0
M  V30 1544 H 153.353 3.14403 0.731467 0
M  V30 1545 H 152.405 3.41629 -1.67313 0
M  V30 1546 H 153.717 4.57178 -1.99473 0
M  V30 1547 H 152.871 6.06455 -0.172364 0
M  V30 1548 H 151.61 4.87076 0.246603 0
M  V30 1549 H 150.615 5.10291 -2.04654 0
M  V30 1550 H 151.84 6.33042 -2.45835 0
M  V30 1551 H 149.786 6.55612 -0.225711 0
M  V30 1552 H 149.703 7.35148 -1.76334 0
M  V30 1553 H 150.971 7.7679 -0.649458 0
M  V30 1554 N 155.201 0.870884 1.31352 0
M  V30 1555 C 156.447 0.482987 1.96965 0
M  V30 1556 C 156.78 -0.962462 1.68672 0
M  V30 1557 O 156.055 -1.6779 0.98371 0
M  V30 1558 C 156.338 0.741752 3.52378 0
M  V30 1559 C 156.191 2.2368 3.9024 0
M  V30 1560 C 157.51 0.208838 4.39604 0
M  V30 1561 H 154.629 0.176955 0.715441 0
M  V30 1562 H 157.271 1.09229 1.55464 0
M  V30 1563 H 155.421 0.223149 3.87859 0
M  V30 1564 H 157.093 2.82273 3.64856 0
M  V30 1565 H 155.336 2.70901 3.38814 0
M  V30 1566 H 156.007 2.3685 4.98604 0
M  V30 1567 H 158.483 0.652529 4.10952 0
M  V30 1568 H 157.359 0.419336 5.47296 0
M  V30 1569 H 157.62 -0.889275 4.33064 0
M  V30 1570 N 156.679 -1.44442 0.630414 0
M  V30 1571 C 157.928 -2.01267 0.132073 0
M  V30 1572 C 158.241 -1.50172 -1.25331 0
M  V30 1573 O 159.447 -1.9912 -1.84562 0
M  V30 1574 C 157.903 -3.59422 0.185362 0
M  V30 1575 C 157.511 -4.19514 1.57201 0
M  V30 1576 C 159.255 -4.23724 -0.256553 0
M  V30 1577 C 157.162 -5.69891 1.58045 0
M  V30 1578 H 156.092 -0.752619 0.0456092 0
M  V30 1579 H 158.743 -1.65666 0.789106 0
M  V30 1580 H 157.125 -3.92318 -0.538759 0
M  V30 1581 H 158.299 -3.98156 2.31966 0
M  V30 1582 H 156.614 -3.67496 1.95795 0
M  V30 1583 H 159.211 -5.34019 -0.269767 0
M  V30 1584 H 159.554 -3.96013 -1.28372 0
M  V30 1585 H 160.087 -3.95629 0.41505 0
M  V30 1586 H 156.826 -6.02336 2.58597 0
M  V30 1587 H 156.346 -5.93373 0.875725 0
M  V30 1588 H 158.025 -6.33515 1.31408 0
M  V30 1589 N 158.157 -0.370918 -1.53173 0
M  V30 1590 C 159.067 0.480823 -2.2962 0
M  V30 1591 C 160.083 1.08789 -1.35798 0
M  V30 1592 O 161.259 1.09768 -1.68858 0
M  V30 1593 C 158.324 1.60227 -3.07454 0
M  V30 1594 C 157.385 1.0222 -4.16953 0
M  V30 1595 C 156.618 2.0902 -4.91066 0
M  V30 1596 O 156.841 3.30222 -4.65091 0
M  V30 1597 O 155.775 1.71778 -5.76867 0
M  V30 1598 H 159.601 -0.141421 -3.03371 0
M  V30 1599 H 157.186 -0.135146 -1.48787 0
M  V30 1600 H 159.068 2.25417 -3.56041 0
M  V30 1601 H 157.743 2.20982 -2.36535 0
M  V30 1602 H 156.65 0.334064 -3.72605 0
M  V30 1603 H 157.983 0.459131 -4.90054 0
M  V30 1604 N 159.635 1.57281 -0.100228 0
M  V30 1605 C 160.884 1.93713 0.561984 0
M  V30 1606 C 161.197 0.984492 1.69018 0
M  V30 1607 O 162.403 1.24273 2.41389 0
M  V30 1608 C 160.859 3.4421 1.05106 0
M  V30 1609 C 160.467 4.47975 -0.0476628 0
M  V30 1610 C 162.211 3.89595 1.68571 0
M  V30 1611 C 160.118 5.89631 0.457055 0
M  V30 1612 H 159.048 0.723082 0.2137 0
M  V30 1613 H 161.699 1.82644 -0.177057 0
M  V30 1614 H 160.081 3.50449 1.84395 0
M  V30 1615 H 161.255 4.53385 -0.823333 0
M  V30 1616 H 159.57 4.1223 -0.587816 0
M  V30 1617 H 162.167 4.92832 2.07414 0
M  V30 1618 H 162.51 3.28526 2.55688 0
M  V30 1619 H 163.043 3.86078 0.958562 0
M  V30 1620 H 159.782 6.54411 -0.377616 0
M  V30 1621 H 159.302 5.87681 1.19962 0
M  V30 1622 H 160.981 6.40363 0.92437 0
M  V30 1623 N 161.113 -0.173488 1.56642 0
M  V30 1624 C 162.061 -1.23417 1.97157 0
M  V30 1625 C 163.055 -1.45946 0.860013 0
M  V30 1626 O 164.261 -1.46551 1.04512 0
M  V30 1627 H 160.636 -0.414818 0.62724 0
M  V30 1628 H 162.607 -0.865582 2.8557 0
M  V30 1629 C 161.356 -2.5665 2.34576 0
M  V30 1630 H 160.679 -2.40137 3.19647 0
M  V30 1631 H 162.119 -3.2956 2.6677 0
M  V30 1632 C 160.578 -3.15245 1.18836 0
M  V30 1633 O 161.108 -3.98883 0.474869 0
M  V30 1634 N 159.314 -2.74303 0.959497 0
M  V30 1635 H 158.861 -2.0639 1.54146 0
M  V30 1636 H 158.819 -3.13844 0.186932 0
M  V30 1637 N 162.591 -1.51276 -0.441967 0
M  V30 1638 C 164.002 -1.56244 -1.02199 0
M  V30 1639 C 164.353 -0.383149 -1.92422 0
M  V30 1640 O 163.478 0.500613 -2.1053 0
M  V30 1641 C 164.073 -2.83162 -1.86024 0
M  V30 1642 C 162.632 -2.90716 -2.39084 0
M  V30 1643 C 161.779 -2.50858 -1.18175 0
M  V30 1644 H 164.73 -1.5712 -0.223416 0
M  V30 1645 H 164.751 -2.66663 -2.71425 0
M  V30 1646 H 164.263 -3.68974 -1.20331 0
M  V30 1647 H 162.364 -2.09323 -3.08244 0
M  V30 1648 H 162.477 -3.94266 -2.72198 0
M  V30 1649 H 160.841 -2.03951 -1.52565 0
M  V30 1650 H 161.624 -3.3901 -0.541001 0
M  V30 1651 N 164.069 0.697108 -1.41344 0
M  V30 1652 C 165.299 1.48377 -1.43763 0
M  V30 1653 C 165.707 1.89156 -0.0408726 0
M  V30 1654 O 165.05 1.57239 0.949812 0
M  V30 1655 C 165.112 2.7781 -2.2817 0
M  V30 1656 C 164.776 2.59244 -3.76353 0
M  V30 1657 C 165.773 2.25292 -4.68551 0
M  V30 1658 C 163.458 2.74933 -4.20378 0
M  V30 1659 C 165.452 2.07264 -6.02761 0
M  V30 1660 C 163.139 2.56521 -5.54653 0
M  V30 1661 C 164.137 2.22737 -6.4566 0
M  V30 1662 O 163.825 2.04485 -7.77458 0
M  V30 1663 H 163.557 0.463842 -0.491759 0
M  V30 1664 H 166.111 0.865934 -1.86255 0
M  V30 1665 H 164.341 3.41995 -1.8049 0
M  V30 1666 H 166.03 3.39608 -2.22309 0
M  V30 1667 H 166.796 2.12787 -4.35829 0
M  V30 1668 H 162.675 3.00213 -3.49848 0
M  V30 1669 H 166.219 1.80817 -6.73759 0
M  V30 1670 H 162.116 2.68616 -5.86955 0
M  V30 1671 H 162.884 2.1926 -7.88586 0
M  V30 1672 N 165.547 1.27147 0.931209 0
M  V30 1673 C 166.477 1.12081 2.04842 0
M  V30 1674 C 167.458 0.0232364 1.70084 0
M  V30 1675 O 168.643 0.197085 1.93197 0
M  V30 1676 C 165.773 0.76354 3.38803 0
M  V30 1677 C 164.727 1.81396 3.87659 0
M  V30 1678 C 164.053 1.31075 5.18385 0
M  V30 1679 C 165.353 3.21739 4.11438 0
M  V30 1680 H 167.047 2.05537 2.17703 0
M  V30 1681 H 164.593 0.989603 1.04608 0
M  V30 1682 H 166.546 0.644982 4.16435 0
M  V30 1683 H 165.27 -0.206727 3.25945 0
M  V30 1684 H 163.929 1.92136 3.12217 0
M  V30 1685 H 163.577 0.330037 5.01916 0
M  V30 1686 H 163.277 2.013 5.52044 0
M  V30 1687 H 164.801 1.20506 5.98591 0
M  V30 1688 H 166.215 3.14019 4.79651 0
M  V30 1689 H 164.612 3.89644 4.56397 0
M  V30 1690 H 165.682 3.67054 3.16859 0
M  V30 1691 N 167.025 -1.13721 1.09112 0
M  V30 1692 C 167.955 -2.21148 0.749385 0
M  V30 1693 C 168.936 -1.6792 -0.271475 0
M  V30 1694 O 170.121 -1.93693 -0.140251 0
M  V30 1695 C 167.251 -3.46905 0.165659 0
M  V30 1696 C 166.205 -4.13203 1.11567 0
M  V30 1697 C 165.531 -5.33248 0.393809 0
M  V30 1698 C 166.831 -4.60912 2.45678 0
M  V30 1699 H 168.525 -2.4999 1.64758 0
M  V30 1700 H 166.071 -1.20156 0.793626 0
M  V30 1701 H 168.024 -4.21313 -0.085466 0
M  V30 1702 H 166.748 -3.17449 -0.767714 0
M  V30 1703 H 165.407 -3.40758 1.35202 0
M  V30 1704 H 165.055 -5.00054 -0.543599 0
M  V30 1705 H 164.755 -5.78552 1.02721 0
M  V30 1706 H 166.279 -6.10413 0.150908 0
M  V30 1707 H 167.693 -5.26759 2.26269 0
M  V30 1708 H 166.09 -5.16944 3.04776 0
M  V30 1709 H 167.16 -3.75603 3.06677 0
M  V30 1710 N 168.503 -0.877838 -1.30888 0
M  V30 1711 C 169.751 -0.491723 -1.96027 0
M  V30 1712 C 170.072 0.960827 -1.69685 0
M  V30 1713 O 169.342 1.67462 -1.01654 0
M  V30 1714 H 167.922 -0.17885 -0.725273 0
M  V30 1715 H 170.584 -1.11935 -1.59551 0
M  V30 1716 H 169.68 -0.656016 -3.05128 0
M  V30 1717 N 169.982 1.44106 -0.638065 0
M  V30 1718 C 171.21 2.06336 -0.152615 0
M  V30 1719 C 171.625 1.47731 1.17563 0
M  V30 1720 O 170.982 0.602806 1.72257 0
M  V30 1721 C 171.033 3.61479 -0.0391491 0
M  V30 1722 O 170.754 4.17903 -1.31487 0
M  V30 1723 C 172.255 4.40757 0.474176 0
M  V30 1724 H 169.475 0.665862 -0.0828776 0
M  V30 1725 H 172.019 1.84862 -0.87443 0
M  V30 1726 H 170.174 3.82191 0.633142 0
M  V30 1727 H 170.588 5.11416 -1.16421 0
M  V30 1728 H 172.062 5.49707 0.502562 0
M  V30 1729 H 172.539 4.12697 1.50258 0
M  V30 1730 H 173.145 4.24979 -0.165102 0
M  V30 1731 N 171.46 0.379036 1.52974 0
M  V30 1732 C 172.393 -0.504932 2.22544 0
M  V30 1733 C 173.371 -1.0723 1.22231 0
M  V30 1734 O 174.555 -1.12589 1.51182 0
M  V30 1735 C 171.682 -1.69794 2.93066 0
M  V30 1736 C 170.728 -1.25678 4.07563 0
M  V30 1737 S 171.561 -0.246852 5.34931 0
M  V30 1738 C 172.717 -1.44588 6.08971 0
M  V30 1739 H 172.95 0.0858666 2.97176 0
M  V30 1740 H 170.483 0.163183 1.53535 0
M  V30 1741 H 172.441 -2.38219 3.34308 0
M  V30 1742 H 171.102 -2.26002 2.18133 0
M  V30 1743 H 170.295 -2.14725 4.5597 0
M  V30 1744 H 169.897 -0.651584 3.6828 0
M  V30 1745 H 172.189 -2.37469 6.34519 0
M  V30 1746 H 173.132 -1.00292 7.00962 0
M  V30 1747 H 173.54 -1.65804 5.39601 0
M  V30 1748 N 172.938 -1.57226 0.108567 0
M  V30 1749 C 174.163 -1.99604 -0.563303 0
M  V30 1750 C 174.588 -0.987563 -1.6009 0
M  V30 1751 O 173.946 0.0421687 -1.81251 0
M  V30 1752 C 173.994 -3.40902 -1.17552 0
M  V30 1753 O 173.098 -3.42896 -2.2912 0
M  V30 1754 H 172.439 -0.648704 -0.1417 0
M  V30 1755 H 174.969 -2.03679 0.193961 0
M  V30 1756 H 174.979 -3.78886 -1.51357 0
M  V30 1757 H 173.654 -4.1382 -0.415445 0
M  V30 1758 H 172.231 -3.1672 -1.96832 0
M  V30 1759 N 174.416 0.165178 -1.56732 0
M  V30 1760 C 175.664 0.879068 -1.8198 0
M  V30 1761 C 175.985 1.82514 -0.686561 0
M  V30 1762 O 175.255 1.93694 0.293146 0
M  V30 1763 H 173.835 0.327608 -0.671329 0
M  V30 1764 H 176.497 0.163526 -1.94213 0
M  V30 1765 H 175.593 1.45228 -2.76252 0
M  V30 1766 N 175.894 1.51508 0.433938 0
M  V30 1767 C 177.134 1.66006 1.19253 0
M  V30 1768 C 177.498 0.369868 1.88404 0
M  V30 1769 O 178.699 0.39066 2.65946 0
M  V30 1770 C 176.97 2.83229 2.17981 0
M  V30 1771 S 178.529 3.18075 3.02281 0
M  V30 1772 H 175.347 0.584821 0.404358 0
M  V30 1773 H 177.949 1.89425 0.48357 0
M  V30 1774 H 176.653 3.75407 1.65824 0
M  V30 1775 H 176.184 2.6201 2.93453 0
M  V30 1776 H 178.199 2.64772 4.19655 0
M  V30 1777 N 177.372 -0.689602 1.41712 0
M  V30 1778 C 178.335 -1.78521 1.43746 0
M  V30 1779 C 179.335 -1.57436 0.327191 0
M  V30 1780 O 180.525 -1.64 0.587348 0
M  V30 1781 C 177.657 -3.16971 1.25467 0
M  V30 1782 H 178.85 -1.78108 2.41283 0
M  V30 1783 H 176.403 -0.89781 1.27942 0
M  V30 1784 H 177.138 -3.23019 0.287948 0
M  V30 1785 H 176.923 -3.33678 2.05917 0
M  V30 1786 H 178.413 -3.96935 1.2974 0
M  V30 1787 N 178.85 -1.27639 -0.924453 0
M  V30 1788 C 179.813 -1.10681 -2.00705 0
M  V30 1789 C 180.813 -0.0497823 -1.60723 0
M  V30 1790 O 182.003 -0.294654 -1.7169 0
M  V30 1791 C 179.135 -0.687164 -3.33902 0
M  V30 1792 H 180.328 -2.06817 -2.17179 0
M  V30 1793 H 177.881 -1.10473 -1.10569 0
M  V30 1794 H 178.616 0.275439 -3.23128 0
M  V30 1795 H 178.401 -1.45061 -3.6428 0
M  V30 1796 H 179.891 -0.590853 -4.13399 0
M  V30 1797 N 180.328 1.1314 -1.09713 0
M  V30 1798 C 181.605 1.80762 -0.747302 0
M  V30 1799 C 181.985 1.96663 0.767265 0
M  V30 1800 O 181.333 1.53706 1.69076 0
M  V30 1801 C 181.543 3.15606 -1.48975 0
M  V30 1802 C 182.891 3.90914 -1.65746 0
M  V30 1803 O 183.915 3.25239 -1.45251 0
M  V30 1804 O 182.774 5.08718 -1.9967 0
M  V30 1805 H 179.868 0.782103 -0.268782 0
M  V30 1806 H 182.414 1.20041 -1.19951 0
M  V30 1807 H 181.186 2.99278 -2.52088 0
M  V30 1808 H 180.809 3.84029 -1.02991 0
M  V30 1809 N 181.806 0.884767 1.30421 0
M  V30 1810 C 183.046 0.509806 1.9794 0
M  V30 1811 C 183.41 -0.923736 1.68319 0
M  V30 1812 O 184.611 -1.40481 2.29169 0
M  V30 1813 C 182.882 0.776732 3.48858 0
M  V30 1814 S 184.441 0.503843 4.35898 0
M  V30 1815 H 181.259 0.189699 0.685227 0
M  V30 1816 H 183.861 1.14399 1.58535 0
M  V30 1817 H 182.565 1.81857 3.67908 0
M  V30 1818 H 182.096 0.1301 3.93185 0
M  V30 1819 H 184.111 -0.657625 4.91823 0
M  V30 1820 N 183.284 -1.43765 0.645699 0
M  V30 1821 C 184.216 -2.29027 -0.0890605 0
M  V30 1822 C 185.229 -1.42093 -0.794563 0
M  V30 1823 O 186.418 -1.66104 -0.653575 0
M  V30 1824 C 183.518 -3.18831 -1.14891 0
M  V30 1825 C 182.691 -4.34261 -0.523043 0
M  V30 1826 C 181.75 -5.04994 -1.47878 0
M  V30 1827 O 180.776 -5.6052 -0.990277 0
M  V30 1828 N 181.978 -5.07795 -2.81291 0
M  V30 1829 H 184.743 -2.92727 0.64272 0
M  V30 1830 H 182.304 -1.54373 0.487924 0
M  V30 1831 H 184.296 -3.63015 -1.78892 0
M  V30 1832 H 182.866 -2.56782 -1.78275 0
M  V30 1833 H 182.086 -3.93088 0.295896 0
M  V30 1834 H 183.374 -5.08728 -0.0858147 0
M  V30 1835 H 182.772 -4.64042 -3.23546 0
M  V30 1836 H 181.329 -5.55721 -3.40614 0
M  V30 1837 N 184.763 -0.387143 -1.52771 0
M  V30 1838 C 185.993 0.195585 -2.05672 0
M  V30 1839 C 186.401 1.41241 -1.25887 0
M  V30 1840 O 185.744 1.81265 -0.298081 0
M  V30 1841 C 185.806 0.632327 -3.53895 0
M  V30 1842 C 185.47 -0.470739 -4.54569 0
M  V30 1843 C 186.467 -1.32746 -5.02667 0
M  V30 1844 C 184.152 -0.637151 -4.98243 0
M  V30 1845 C 186.146 -2.33574 -5.93061 0
M  V30 1846 C 183.833 -1.64877 -5.88438 0
M  V30 1847 C 184.831 -2.49649 -6.35739 0
M  V30 1848 O 184.519 -3.49082 -7.24153 0
M  V30 1849 H 184.251 0.033658 -0.675162 0
M  V30 1850 H 186.805 -0.550221 -1.97893 0
M  V30 1851 H 185.035 1.43008 -3.59285 0
M  V30 1852 H 186.724 1.14048 -3.89548 0
M  V30 1853 H 187.49 -1.21019 -4.69659 0
M  V30 1854 H 183.369 0.0129567 -4.60998 0
M  V30 1855 H 186.913 -2.99777 -6.29904 0
M  V30 1856 H 182.81 -1.76643 -6.2086 0
M  V30 1857 H 183.578 -3.45065 -7.42208 0
M  V30 1858 N 186.241 1.57166 -0.116904 0
M  V30 1859 C 187.487 1.96206 0.536166 0
M  V30 1860 C 187.842 0.99915 1.64422 0
M  V30 1861 O 187.135 0.0288195 1.91578 0
M  V30 1862 C 187.329 3.39508 1.11664 0
M  V30 1863 C 187.158 4.49651 0.0663474 0
M  V30 1864 C 185.928 5.03982 -0.36474 0
M  V30 1865 C 188.126 5.09322 -0.713829 0
M  V30 1866 N 186.108 5.97699 -1.40102 0
M  V30 1867 C 187.479 5.98963 -1.60136 0
M  V30 1868 C 189.534 4.91989 -0.764948 0
M  V30 1869 C 188.237 6.73128 -2.53556 0
M  V30 1870 C 190.263 5.66833 -1.68685 0
M  V30 1871 C 189.625 6.56158 -2.56196 0
M  V30 1872 H 185.724 0.764203 0.165886 0
M  V30 1873 H 188.308 1.93623 -0.204535 0
M  V30 1874 H 186.479 3.42743 1.82707 0
M  V30 1875 H 188.211 3.65677 1.73386 0
M  V30 1876 H 184.966 4.73592 0.027252 0
M  V30 1877 H 185.39 6.49262 -1.91802 0
M  V30 1878 H 190.032 4.22676 -0.102501 0
M  V30 1879 H 187.75 7.41689 -3.20816 0
M  V30 1880 H 191.336 5.55427 -1.73181 0
M  V30 1881 H 190.216 7.13057 -3.26372 0
M  V30 1882 N 187.719 -0.156864 1.56817 0
M  V30 1883 C 188.629 -1.2136 2.00771 0
M  V30 1884 C 189.645 -1.47598 0.921459 0
M  V30 1885 O 190.821 -1.59462 1.2302 0
M  V30 1886 C 187.886 -2.52943 2.37109 0
M  V30 1887 C 186.947 -2.34439 3.59634 0
M  V30 1888 C 186.18 -3.59748 3.94229 0
M  V30 1889 O 186.403 -4.65526 3.29609 0
M  V30 1890 O 185.337 -3.52998 4.8752 0
M  V30 1891 H 189.163 -0.870468 2.90958 0
M  V30 1892 H 186.748 -0.36484 1.44877 0
M  V30 1893 H 188.63 -3.30538 2.61386 0
M  V30 1894 H 187.305 -2.86806 1.5008 0
M  V30 1895 H 186.212 -1.54828 3.40557 0
M  V30 1896 H 187.545 -2.05496 4.4725 0
M  V30 1897 N 189.197 -1.51736 -0.425897 0
M  V30 1898 C 190.613 -1.40166 -0.76326 0
M  V30 1899 C 190.813 -0.492962 -1.95377 0
M  V30 1900 O 189.869 0.0475815 -2.52455 0
M  V30 1901 C 191.182 -2.82403 -1.03291 0
M  V30 1902 C 192.73 -2.91632 -1.13665 0
M  V30 1903 C 193.205 -4.34801 -1.43916 0
M  V30 1904 N 194.696 -4.3796 -1.50816 0
M  V30 1905 C 195.431 -5.4578 -1.75817 0
M  V30 1906 N 194.927 -6.63744 -1.98534 0
M  V30 1907 N 196.72 -5.33274 -1.77694 0
M  V30 1908 H 188.871 -2.09361 0.358 0
M  V30 1909 H 191.134 -0.942941 0.0978094 0
M  V30 1910 H 190.84 -3.50943 -0.230696 0
M  V30 1911 H 190.714 -3.22428 -1.95754 0
M  V30 1912 H 193.101 -2.23284 -1.92947 0
M  V30 1913 H 193.182 -2.55088 -0.190756 0
M  V30 1914 H 192.826 -5.03703 -0.65157 0
M  V30 1915 H 192.756 -4.68868 -2.39729 0
M  V30 1916 H 195.247 -3.52919 -1.35118 0
M  V30 1917 H 195.56 -7.41704 -2.17013 0
M  V30 1918 H 193.905 -6.66839 -1.95832 0
M  V30 1919 H 197.096 -4.40098 -1.59473 0
M  V30 1920 H 197.269 -6.1738 -1.9684 0
M  V30 1921 N 190.675 0.682077 -1.42076 0
M  V30 1922 C 191.605 1.80796 -1.47767 0
M  V30 1923 C 192.586 1.6677 -0.334954 0
M  V30 1924 O 193.771 1.863 -0.548264 0
M  V30 1925 C 190.901 3.19038 -1.37229 0
M  V30 1926 C 189.855 3.47789 -2.49453 0
M  V30 1927 C 189.181 4.8553 -2.23975 0
M  V30 1928 C 190.481 3.45411 -3.91776 0
M  V30 1929 H 192.175 1.7629 -2.41997 0
M  V30 1930 H 189.721 0.846721 -1.16476 0
M  V30 1931 H 191.674 3.97528 -1.39821 0
M  V30 1932 H 190.398 3.24204 -0.394907 0
M  V30 1933 H 189.057 2.71657 -2.46166 0
M  V30 1934 H 188.705 4.87337 -1.24547 0
M  V30 1935 H 188.405 5.0573 -2.99184 0
M  V30 1936 H 189.929 5.66312 -2.28304 0
M  V30 1937 H 191.343 4.13882 -3.96705 0
M  V30 1938 H 189.74 3.77145 -4.66778 0
M  V30 1939 H 190.81 2.44122 -4.18966 0
M  V30 1940 N 192.153 1.28127 0.917671 0
M  V30 1941 C 193.083 1.14248 2.03641 0
M  V30 1942 C 194.064 0.0412748 1.7005 0
M  V30 1943 O 195.249 0.217566 1.92977 0
M  V30 1944 C 192.379 0.799431 3.37974 0
M  V30 1945 C 191.333 1.85497 3.85713 0
M  V30 1946 C 190.659 1.36565 5.16966 0
M  V30 1947 C 191.959 3.26085 4.08002 0
M  V30 1948 H 193.653 2.07835 2.15511 0
M  V30 1949 H 191.199 1.00064 1.03553 0
M  V30 1950 H 193.152 0.689114 4.15727 0
M  V30 1951 H 191.876 -0.172145 3.26146 0
M  V30 1952 H 190.535 1.95437 3.10161 0
M  V30 1953 H 190.183 0.383253 5.01538 0
M  V30 1954 H 189.883 2.07143 5.49878 0
M  V30 1955 H 191.407 1.26848 5.97279 0
M  V30 1956 H 192.821 3.19089 4.76293 0
M  V30 1957 H 191.218 3.94462 4.52238 0
M  V30 1958 H 192.288 3.70394 3.12948 0
M  V30 1959 N 193.631 -1.12557 1.10312 0
M  V30 1960 C 194.594 -2.16434 0.75424 0
M  V30 1961 C 195.594 -1.59278 -0.220685 0
M  V30 1962 O 196.784 -1.742 0.00230591 0
M  V30 1963 C 193.916 -3.40699 0.116987 0
M  V30 1964 H 195.109 -2.48811 1.67431 0
M  V30 1965 H 192.662 -1.27542 0.903475 0
M  V30 1966 H 193.397 -3.13921 -0.813877 0
M  V30 1967 H 193.182 -3.83459 0.818613 0
M  V30 1968 H 194.672 -4.17451 -0.111387 0
M  V30 1969 N 195.109 -0.891671 -1.2995 0
M  V30 1970 C 196.056 -0.361736 -2.27948 0
M  V30 1971 C 197.026 0.551761 -1.56668 0
M  V30 1972 O 198.211 0.478736 -1.84696 0
M  V30 1973 C 195.351 0.411825 -3.42634 0
M  V30 1974 C 194.464 -0.531651 -4.28716 0
M  V30 1975 C 193.599 0.258167 -5.30572 0
M  V30 1976 C 192.638 -0.680349 -6.08307 0
M  V30 1977 N 191.775 0.0745613 -7.0206 0
M  V30 1978 H 196.615 -1.20254 -2.72659 0
M  V30 1979 H 194.152 -0.604352 -1.34112 0
M  V30 1980 H 196.11 0.876304 -4.07893 0
M  V30 1981 H 194.74 1.21715 -2.98974 0
M  V30 1982 H 193.792 -1.11463 -3.63703 0
M  V30 1983 H 195.104 -1.25038 -4.82874 0
M  V30 1984 H 194.258 0.784204 -6.0161 0
M  V30 1985 H 192.997 1.01008 -4.77126 0
M  V30 1986 H 192.002 -1.21796 -5.3614 0
M  V30 1987 H 193.227 -1.43145 -6.63842 0
M  V30 1988 H 191.173 0.808883 -6.50994 0
M  V30 1989 H 191.09 -0.584409 -7.53738 0
M  V30 1990 H 192.358 0.581123 -7.77331 0
M  V30 1991 N 196.587 1.43421 -0.653314 0
M  V30 1992 C 197.497 2.34568 0.0388565 0
M  V30 1993 C 198.513 1.53888 0.81207 0
M  V30 1994 O 199.689 1.86539 0.759294 0
M  V30 1995 C 196.754 3.32167 0.993269 0
M  V30 1996 C 195.815 4.28751 0.216977 0
M  V30 1997 C 195.048 5.21688 1.12593 0
M  V30 1998 O 195.271 5.19052 2.36519 0
M  V30 1999 O 194.205 5.98919 0.598284 0
M  V30 2000 H 198.031 2.95251 -0.711386 0
M  V30 2001 H 195.616 1.43564 -0.413502 0
M  V30 2002 H 197.498 3.92183 1.54176 0
M  V30 2003 H 196.173 2.73987 1.72374 0
M  V30 2004 H 195.08 3.72215 -0.375101 0
M  V30 2005 H 196.413 4.89913 -0.473924 0
M  V30 2006 N 198.065 0.39524 1.52563 0
M  V30 2007 C 199.305 -0.184744 2.03563 0
M  V30 2008 C 199.669 -1.43548 1.27507 0
M  V30 2009 O 200.87 -2.093 1.68662 0
M  V30 2010 C 199.141 -0.440294 3.54678 0
M  V30 2011 S 200.7 -0.989712 4.27493 0
M  V30 2012 H 197.518 -0.0515075 0.709132 0
M  V30 2013 H 200.12 0.544957 1.87751 0
M  V30 2014 H 198.824 0.477005 4.07618 0
M  V30 2015 H 198.355 -1.19825 3.74707 0
M  V30 2016 H 200.37 -2.27155 4.41152 0
M  V30 2017 N 199.544 -1.57102 0.125237 0
M  V30 2018 C 200.96 -1.57915 -0.231322 0
M  V30 2019 C 201.16 -1.13833 -1.66266 0
M  V30 2020 O 200.216 -0.828581 -2.38518 0
M  V30 2021 C 201.529 -3.00699 0.00766489 0
M  V30 2022 C 203.077 -3.12947 -0.0577483 0
M  V30 2023 C 203.552 -4.57742 0.153626 0
M  V30 2024 N 205.043 -4.63092 0.0998073 0
M  V30 2025 C 205.778 -5.72905 0.238174 0
M  V30 2026 N 205.274 -6.91445 0.433057 0
M  V30 2027 N 207.067 -5.6182 0.177308 0
M  V30 2028 H 199.218 -1.84055 1.06007 0
M  V30 2029 H 201.481 -0.850905 0.417929 0
M  V30 2030 H 201.187 -3.3726 0.997431 0
M  V30 2031 H 201.061 -3.70236 -0.721452 0
M  V30 2032 H 203.448 -2.7624 -1.03804 0
M  V30 2033 H 203.529 -2.4594 0.70335 0
M  V30 2034 H 203.173 -4.95149 1.13092 0
M  V30 2035 H 203.103 -5.22848 -0.627534 0
M  V30 2036 H 205.594 -3.77871 -0.047051 0
M  V30 2037 H 205.907 -7.70985 0.529332 0
M  V30 2038 H 204.252 -6.93415 0.469109 0
M  V30 2039 H 207.443 -4.68093 0.0259748 0
M  V30 2040 H 207.616 -6.47357 0.288582 0
M  V30 2041 N 201.022 0.148545 -1.56898 0
M  V30 2042 C 201.952 1.18524 -2.01182 0
M  V30 2043 C 202.933 1.4489 -0.891123 0
M  V30 2044 O 204.118 1.55836 -1.15882 0
M  V30 2045 C 201.248 2.51879 -2.39112 0
M  V30 2046 C 200.202 2.40038 -3.54353 0
M  V30 2047 C 199.528 3.78089 -3.78091 0
M  V30 2048 C 200.828 1.88577 -4.87069 0
M  V30 2049 H 202.522 0.817029 -2.88036 0
M  V30 2050 H 200.068 0.391575 -1.38574 0
M  V30 2051 H 202.021 3.24627 -2.68692 0
M  V30 2052 H 200.745 2.90532 -1.49193 0
M  V30 2053 H 199.404 1.69742 -3.24936 0
M  V30 2054 H 199.052 4.14175 -2.85426 0
M  V30 2055 H 198.752 3.71028 -4.55645 0
M  V30 2056 H 200.276 4.52387 -4.10095 0
M  V30 2057 H 201.69 2.51117 -5.15377 0
M  V30 2058 H 200.087 1.9241 -5.68417 0
M  V30 2059 H 201.157 0.84136 -4.77545 0
M  V30 2060 N 202.5 1.5196 0.417844 0
M  V30 2061 C 203.73 1.69181 1.18581 0
M  V30 2062 C 204.138 0.397104 1.84986 0
M  V30 2063 O 203.481 -0.636011 1.72339 0
M  V30 2064 C 203.543 2.76497 2.29759 0
M  V30 2065 C 203.207 4.18514 1.83563 0
M  V30 2066 C 204.204 5.02648 1.32821 0
M  V30 2067 C 201.889 4.64708 1.90661 0
M  V30 2068 C 203.883 6.31044 0.897894 0
M  V30 2069 C 201.57 5.93096 1.47241 0
M  V30 2070 C 202.568 6.76093 0.968891 0
M  V30 2071 O 202.256 8.02078 0.540924 0
M  V30 2072 H 201.988 0.570457 0.362705 0
M  V30 2073 H 204.542 1.99249 0.498885 0
M  V30 2074 H 202.772 2.41786 3.01789 0
M  V30 2075 H 204.461 2.82403 2.91553 0
M  V30 2076 H 205.227 4.68154 1.26716 0
M  V30 2077 H 201.106 4.00216 2.28797 0
M  V30 2078 H 204.65 6.95776 0.504192 0
M  V30 2079 H 200.547 6.271 1.53022 0
M  V30 2080 H 201.315 8.15794 0.66502 0
M  V30 2081 N 203.978 -0.674533 1.42435 0
M  V30 2082 C 205.208 -1.46071 1.46105 0
M  V30 2083 C 205.616 -1.89067 0.0709605 0
M  V30 2084 O 204.959 -1.58731 -0.924677 0
M  V30 2085 C 205.021 -2.74145 2.32561 0
M  V30 2086 C 204.685 -2.53224 3.8043 0
M  V30 2087 C 205.682 -2.17809 4.72075 0
M  V30 2088 C 203.367 -2.6821 4.24698 0
M  V30 2089 C 205.361 -1.97648 6.05982 0
M  V30 2090 C 203.048 -2.47665 5.58664 0
M  V30 2091 C 204.046 -2.12437 6.49122 0
M  V30 2092 O 203.734 -1.9209 7.80613 0
M  V30 2093 H 203.466 -0.455959 0.499076 0
M  V30 2094 H 206.02 -0.836193 1.87609 0
M  V30 2095 H 204.25 -3.3908 1.85908 0
M  V30 2096 H 205.939 -3.36028 2.27683 0
M  V30 2097 H 206.705 -2.05826 4.39159 0
M  V30 2098 H 202.584 -2.94609 3.54579 0
M  V30 2099 H 206.128 -1.70075 6.7655 0
M  V30 2100 H 202.025 -2.59244 5.91154 0
M  V30 2101 H 202.793 -2.06686 7.91974 0
M  V30 2102 N 205.456 -1.28612 -0.910864 0
M  V30 2103 C 206.386 -1.15326 -2.03032 0
M  V30 2104 C 207.367 -0.0502924 -1.70026 0
M  V30 2105 O 208.552 -0.227797 -1.92859 0
M  V30 2106 C 205.682 -0.817343 -3.37545 0
M  V30 2107 C 204.636 -1.8754 -3.84724 0
M  V30 2108 C 203.962 -1.39305 -5.16235 0
M  V30 2109 C 205.262 -3.28244 -4.06267 0
M  V30 2110 H 206.956 -2.08975 -2.14406 0
M  V30 2111 H 204.502 -1.00612 -1.03021 0
M  V30 2112 H 206.455 -0.711151 -4.15356 0
M  V30 2113 H 205.179 0.154846 -3.26233 0
M  V30 2114 H 203.838 -1.97079 -3.09121 0
M  V30 2115 H 203.486 -0.409846 -5.01328 0
M  V30 2116 H 203.186 -2.10057 -5.48771 0
M  V30 2117 H 204.71 -1.30014 -5.96598 0
M  V30 2118 H 206.124 -3.21611 -4.74594 0
M  V30 2119 H 204.521 -3.96855 -4.5014 0
M  V30 2120 H 205.591 -3.72048 -3.10979 0
M  V30 2121 N 206.934 1.1197 -1.10907 0
M  V30 2122 C 208.35 1.35591 -0.841852 0
M  V30 2123 C 208.55 1.94233 0.536246 0
M  V30 2124 O 207.606 2.1717 1.28816 0
M  V30 2125 C 208.919 2.29284 -1.94549 0
M  V30 2126 C 210.467 2.42862 -1.97451 0
M  V30 2127 C 210.942 3.39873 -3.07002 0
M  V30 2128 N 212.433 3.47433 -3.06341 0
M  V30 2129 C 213.168 4.22421 -3.87748 0
M  V30 2130 N 212.664 5.00432 -4.79103 0
M  V30 2131 N 214.457 4.17876 -3.75946 0
M  V30 2132 H 206.608 0.722664 -1.99728 0
M  V30 2133 H 208.871 0.380635 -0.868229 0
M  V30 2134 H 208.577 1.93378 -2.93765 0
M  V30 2135 H 208.451 3.29452 -1.83688 0
M  V30 2136 H 210.838 2.78046 -0.988645 0
M  V30 2137 H 210.919 1.42566 -2.12388 0
M  V30 2138 H 210.563 3.05417 -4.05811 0
M  V30 2139 H 210.493 4.40011 -2.89306 0
M  V30 2140 H 212.984 2.91784 -2.40147 0
M  V30 2141 H 213.297 5.55002 -5.37766 0
M  V30 2142 H 211.642 4.99612 -4.83128 0
M  V30 2143 H 214.833 3.56016 -3.03924 0
M  V30 2144 H 215.006 4.76061 -4.39624 0
M  V30 2145 N 208.412 0.89855 1.29475 0
M  V30 2146 C 209.36 0.365253 2.29714 0
M  V30 2147 C 210.354 -0.534993 1.6073 0
M  V30 2148 O 211.56 -0.417921 1.75081 0
M  V30 2149 H 207.935 0.0994853 0.74539 0
M  V30 2150 H 209.906 1.22406 2.72138 0
M  V30 2151 C 208.655 -0.393159 3.4547 0
M  V30 2152 H 207.978 0.290332 3.98744 0
M  V30 2153 H 209.418 -0.731189 4.17648 0
M  V30 2154 C 207.877 -1.59539 2.9673 0
M  V30 2155 O 208.407 -2.69469 2.97908 0
M  V30 2156 N 206.613 -1.43716 2.52575 0
M  V30 2157 H 206.16 -0.542828 2.51816 0
M  V30 2158 H 206.118 -2.24288 2.20323 0
M  V30 2159 N 209.89 -1.43072 0.660911 0
M  V30 2160 C 211.138 -2.01323 0.177094 0
M  V30 2161 C 211.459 -1.5245 -1.2159 0
M  V30 2162 O 210.729 -0.740322 -1.81373 0
M  V30 2163 H 209.309 -0.744382 0.0624804 0
M  V30 2164 H 211.971 -1.75179 0.854305 0
M  V30 2165 H 211.067 -3.11649 0.167641 0
M  V30 2166 N 211.368 -0.403325 -1.52352 0
M  V30 2167 C 212.278 0.432009 -2.30588 0
M  V30 2168 C 213.294 1.05884 -1.38075 0
M  V30 2169 O 214.47 1.06161 -1.71148 0
M  V30 2170 C 211.535 1.53669 -3.10784 0
M  V30 2171 C 210.596 0.933525 -4.19027 0
M  V30 2172 C 209.829 1.98557 -4.9539 0
M  V30 2173 O 210.052 3.20283 -4.71991 0
M  V30 2174 O 208.986 1.59504 -5.80381 0
M  V30 2175 H 212.812 -0.205739 -3.03002 0
M  V30 2176 H 210.397 -0.166675 -1.48467 0
M  V30 2177 H 212.279 2.17814 -3.60742 0
M  V30 2178 H 210.954 2.15915 -2.41169 0
M  V30 2179 H 209.861 0.254954 -3.7323 0
M  V30 2180 H 211.194 0.35508 -4.90918 0
M  V30 2181 N 212.846 1.57033 -0.133567 0
M  V30 2182 C 214.262 1.58035 0.222944 0
M  V30 2183 C 214.462 1.14713 1.6566 0
M  V30 2184 O 213.518 0.841218 2.38075 0
M  V30 2185 C 214.831 3.00691 -0.0236116 0
M  V30 2186 C 216.379 3.12973 0.0411512 0
M  V30 2187 C 216.854 4.57654 -0.177899 0
M  V30 2188 N 218.345 4.63033 -0.124365 0
M  V30 2189 C 219.08 5.72771 -0.268553 0
M  V30 2190 N 218.576 6.91206 -0.46972 0
M  V30 2191 N 220.369 5.61718 -0.2071 0
M  V30 2192 H 212.52 1.8349 -1.06981 0
M  V30 2193 H 214.783 0.848677 -0.422436 0
M  V30 2194 H 214.489 3.36726 -1.0153 0
M  V30 2195 H 214.363 3.70614 0.701808 0
M  V30 2196 H 216.75 2.76787 1.02338 0
M  V30 2197 H 216.831 2.45564 -0.716383 0
M  V30 2198 H 216.475 4.94542 -1.15717 0
M  V30 2199 H 216.405 5.23173 0.599797 0
M  V30 2200 H 218.896 3.7789 0.027011 0
M  V30 2201 H 219.209 7.70693 -0.570212 0
M  V30 2202 H 217.554 6.93156 -0.505876 0
M  V30 2203 H 220.745 4.68072 -0.0507986 0
M  V30 2204 H 220.918 6.47195 -0.322909 0
M  V30 2205 N 214.325 -0.140222 1.56975 0
M  V30 2206 C 215.574 -0.850152 1.82908 0
M  V30 2207 C 215.887 -1.82028 0.715892 0
M  V30 2208 O 217.093 -2.57485 0.861016 0
M  V30 2209 C 215.549 -1.5625 3.24213 0
M  V30 2210 C 215.157 -0.63443 4.43485 0
M  V30 2211 C 216.901 -2.25881 3.59413 0
M  V30 2212 C 214.808 -1.34879 5.75814 0
M  V30 2213 H 213.738 -0.321221 0.682153 0
M  V30 2214 H 216.389 -0.102874 1.83211 0
M  V30 2215 H 214.771 -2.35565 3.18316 0
M  V30 2216 H 215.945 0.12398 4.60633 0
M  V30 2217 H 214.26 -0.0461836 4.16374 0
M  V30 2218 H 216.857 -2.79978 4.5554 0
M  V30 2219 H 217.2 -3.02693 2.85802 0
M  V30 2220 H 217.733 -1.53477 3.67001 0
M  V30 2221 H 214.472 -0.622385 6.52539 0
M  V30 2222 H 213.992 -2.07974 5.6259 0
M  V30 2223 H 215.671 -1.88784 6.18845 0
M  V30 2224 N 215.803 -1.52179 -0.40978 0
M  V30 2225 C 217.028 -1.70347 -1.18308 0
M  V30 2226 C 217.453 -0.411887 -1.83535 0
M  V30 2227 O 216.811 0.630587 -1.6998 0
M  V30 2228 C 216.859 -2.83977 -2.22238 0
M  V30 2229 O 215.963 -2.495 -3.28365 0
M  V30 2230 H 215.304 -0.567103 -0.345384 0
M  V30 2231 H 217.834 -1.98879 -0.480445 0
M  V30 2232 H 217.844 -3.0887 -2.66577 0
M  V30 2233 H 216.519 -3.77685 -1.74146 0
M  V30 2234 H 215.096 -2.35277 -2.89308 0
M  V30 2235 N 217.281 0.66697 -1.42791 0
M  V30 2236 C 218.527 1.4291 -1.43891 0
M  V30 2237 C 218.86 1.94114 -0.0578972 0
M  V30 2238 O 218.135 1.71414 0.91911 0
M  V30 2239 C 218.418 2.62049 -2.46987 0
M  V30 2240 C 218.271 2.16426 -3.94309 0
M  V30 2241 C 219.59 3.64266 -2.46978 0
M  V30 2242 H 216.709 0.518306 -0.523954 0
M  V30 2243 H 219.351 0.757321 -1.74255 0
M  V30 2244 H 217.501 3.19361 -2.21225 0
M  V30 2245 H 219.173 1.64221 -4.31079 0
M  V30 2246 H 217.416 1.47925 -4.078 0
M  V30 2247 H 218.087 3.02038 -4.62036 0
M  V30 2248 H 220.563 3.16686 -2.69906 0
M  V30 2249 H 219.439 4.45196 -3.21079 0
M  V30 2250 H 219.7 4.15927 -1.49857 0
M  V30 2251 N 218.759 1.29093 0.90403 0
M  V30 2252 C 219.984 1.19809 1.69294 0
M  V30 2253 C 220.409 -0.238481 1.86582 0
M  V30 2254 O 219.767 -1.1723 1.383 0
M  V30 2255 C 219.815 1.91202 3.05736 0
M  V30 2256 O 218.919 1.22611 3.93752 0
M  V30 2257 H 218.26 0.415385 0.518027 0
M  V30 2258 H 220.79 1.70586 1.12967 0
M  V30 2259 H 220.8 1.99487 3.55906 0
M  V30 2260 H 219.475 2.95692 2.92471 0
M  V30 2261 H 218.052 1.22554 3.52186 0
M  V30 2262 N 220.237 -1.11381 1.11499 0
M  V30 2263 C 221.2 -2.15622 0.777153 0
M  V30 2264 C 222.2 -1.59504 -0.203779 0
M  V30 2265 O 223.39 -1.74188 0.020782 0
M  V30 2266 C 220.522 -3.40556 0.153116 0
M  V30 2267 H 221.715 -2.47021 1.70061 0
M  V30 2268 H 219.268 -1.26577 0.916952 0
M  V30 2269 H 220.003 -3.14767 -0.780536 0
M  V30 2270 H 219.788 -3.8257 0.859238 0
M  V30 2271 H 221.278 -4.17546 -0.0671044 0
M  V30 2272 N 221.715 -0.905404 -1.28997 0
M  V30 2273 C 222.678 -0.392253 -2.25819 0
M  V30 2274 C 223.678 0.476753 -1.5357 0
M  V30 2275 O 224.868 0.280994 -1.71919 0
M  V30 2276 C 222 0.438588 -3.38067 0
M  V30 2277 H 223.193 -1.24743 -2.72725 0
M  V30 2278 H 220.746 -0.684051 -1.40536 0
M  V30 2279 H 221.481 1.31352 -2.96508 0
M  V30 2280 H 221.266 -0.184167 -3.91667 0
M  V30 2281 H 222.756 0.78873 -4.10084 0
M  V30 2282 N 223.193 1.4272 -0.668489 0
M  V30 2283 C 224.418 2.06484 -0.194758 0
M  V30 2284 C 224.843 1.49862 1.13679 0
M  V30 2285 O 224.201 0.614582 1.70565 0
M  V30 2286 C 224.249 3.60353 -0.133546 0
M  V30 2287 O 223.353 4.02464 0.899806 0
M  V30 2288 H 222.694 0.656137 -0.10188 0
M  V30 2289 H 225.224 1.82964 -0.915722 0
M  V30 2290 H 225.234 4.07976 0.0447041 0
M  V30 2291 H 223.909 4.00938 -1.1055 0
M  V30 2292 H 222.486 3.66402 0.693109 0
M  V30 2293 N 224.671 0.411399 1.52136 0
M  V30 2294 C 225.618 -0.412975 2.27075 0
M  V30 2295 C 226.588 -1.03912 1.29582 0
M  V30 2296 O 227.773 -1.06296 1.58448 0
M  V30 2297 C 224.913 -1.52247 3.09701 0
M  V30 2298 C 224.026 -0.917021 4.22155 0
M  V30 2299 C 223.161 -1.9994 4.92135 0
M  V30 2300 C 222.2 -1.37101 5.96548 0
M  V30 2301 N 221.337 -2.39364 6.60038 0
M  V30 2302 H 226.177 0.232499 2.97092 0
M  V30 2303 H 223.714 0.126496 1.46555 0
M  V30 2304 H 225.672 -2.17674 3.55913 0
M  V30 2305 H 224.302 -2.13794 2.41851 0
M  V30 2306 H 223.354 -0.151742 3.80097 0
M  V30 2307 H 224.666 -0.418006 4.97045 0
M  V30 2308 H 223.82 -2.73088 5.41763 0
M  V30 2309 H 222.559 -2.53208 4.16818 0
M  V30 2310 H 221.564 -0.624873 5.46237 0
M  V30 2311 H 222.789 -0.845998 6.7381 0
M  V30 2312 H 220.735 -2.91759 5.87548 0
M  V30 2313 H 220.652 -1.9428 7.3061 0
M  V30 2314 H 221.92 -3.12074 7.14304 0
M  V30 2315 N 226.149 -1.5696 0.141893 0
M  V30 2316 C 227.079 -2.19516 -0.795936 0
M  V30 2317 C 228.06 -1.14187 -1.26077 0
M  V30 2318 O 229.245 -1.42511 -1.31925 0
M  V30 2319 C 226.375 -2.81272 -2.03723 0
M  V30 2320 C 225.329 -3.92384 -1.70936 0
M  V30 2321 C 224.655 -4.41052 -3.02287 0
M  V30 2322 C 225.955 -5.13403 -0.959954 0
M  V30 2323 H 227.649 -2.98138 -0.274596 0
M  V30 2324 H 225.195 -1.43406 -0.130636 0
M  V30 2325 H 227.148 -3.237 -2.69808 0
M  V30 2326 H 225.872 -1.99973 -2.58221 0
M  V30 2327 H 224.531 -3.50566 -1.07232 0
M  V30 2328 H 224.179 -3.56582 -3.54765 0
M  V30 2329 H 223.879 -5.15993 -2.81114 0
M  V30 2330 H 225.403 -4.86146 -3.69451 0
M  V30 2331 H 226.817 -5.52706 -1.52279 0
M  V30 2332 H 225.214 -5.94073 -0.848357 0
M  V30 2333 H 226.284 -4.84875 0.0492434 0
M  V30 2334 N 227.627 0.131896 -1.57047 0
M  V30 2335 C 228.557 1.16384 -2.02428 0
M  V30 2336 C 229.538 1.43936 -0.90644 0
M  V30 2337 O 230.723 1.54599 -1.17528 0
M  V30 2338 C 227.853 2.49328 -2.4177 0
M  V30 2339 C 226.807 2.36266 -3.56879 0
M  V30 2340 C 226.133 3.74057 -3.8208 0
M  V30 2341 C 227.433 1.834 -4.89042 0
M  V30 2342 H 229.127 0.786433 -2.88887 0
M  V30 2343 H 226.673 0.376855 -1.38981 0
M  V30 2344 H 228.626 3.21759 -2.7212 0
M  V30 2345 H 227.35 2.88934 -1.52266 0
M  V30 2346 H 226.009 1.66286 -3.26718 0
M  V30 2347 H 225.657 4.11125 -2.89803 0
M  V30 2348 H 225.357 3.66174 -4.59554 0
M  V30 2349 H 226.881 4.48012 -4.1487 0
M  V30 2350 H 228.295 2.45636 -5.18011 0
M  V30 2351 H 226.692 1.8637 -5.70426 0
M  V30 2352 H 227.762 0.790662 -4.7841 0
M  V30 2353 N 229.106 1.52395 0.401703 0
M  V30 2354 C 230.331 1.70972 1.17403 0
M  V30 2355 C 230.756 0.421615 1.83314 0
M  V30 2356 O 230.114 -0.621564 1.70312 0
M  V30 2357 C 230.162 2.85151 2.20728 0
M  V30 2358 O 229.266 2.51238 3.27037 0
M  V30 2359 H 228.607 0.568927 0.342372 0
M  V30 2360 H 231.137 1.99131 0.469891 0
M  V30 2361 H 231.147 3.10279 2.64936 0
M  V30 2362 H 229.822 3.78603 1.7214 0
M  V30 2363 H 228.399 2.36808 2.88057 0
M  V30 2364 N 230.584 -0.659388 1.43143 0
M  V30 2365 C 231.532 -1.79374 1.4808 0
M  V30 2366 C 232.526 -1.65639 0.354988 0
M  V30 2367 O 233.732 -1.7206 0.528704 0
M  V30 2368 H 230.107 -0.591705 0.4641 0
M  V30 2369 H 232.078 -1.72329 2.43609 0
M  V30 2370 C 230.827 -3.17606 1.41499 0
M  V30 2371 H 230.15 -3.28809 2.27431 0
M  V30 2372 H 231.59 -3.96951 1.49015 0
M  V30 2373 C 230.049 -3.36642 0.131765 0
M  V30 2374 O 230.579 -3.93461 -0.809386 0
M  V30 2375 N 228.785 -2.90567 0.0439396 0
M  V30 2376 H 228.332 -2.44513 0.810619 0
M  V30 2377 H 228.29 -3.03681 -0.813969 0
M  V30 2378 N 232.062 -1.29571 -0.897171 0
M  V30 2379 C 232.995 -1.0924 -2.00354 0
M  V30 2380 C 233.973 -0.00354011 -1.626 0
M  V30 2381 O 235.157 -0.15473 -1.87864 0
M  V30 2382 C 232.284 -0.66352 -3.32137 0
M  V30 2383 C 231.33 -1.75146 -3.88878 0
M  V30 2384 S 232.163 -3.35124 -4.17674 0
M  V30 2385 C 233.319 -2.9411 -5.52494 0
M  V30 2386 H 233.552 -2.02907 -2.17292 0
M  V30 2387 H 231.085 -1.13746 -1.04408 0
M  V30 2388 H 233.043 -0.422791 -4.08317 0
M  V30 2389 H 231.704 0.253588 -3.13075 0
M  V30 2390 H 230.897 -1.40337 -4.84068 0
M  V30 2391 H 230.499 -1.94584 -3.19395 0
M  V30 2392 H 232.791 -2.41312 -6.33068 0
M  V30 2393 H 233.734 -3.88161 -5.9223 0
M  V30 2394 H 234.142 -2.32332 -5.14473 0
M  V30 2395 N 233.54 1.10788 -1.12088 0
M  V30 2396 C 234.473 2.16237 -0.729168 0
M  V30 2397 C 235.451 1.60207 0.277921 0
M  V30 2398 O 236.635 1.87707 0.172737 0
M  V30 2399 C 233.762 3.38609 -0.0786848 0
M  V30 2400 C 232.808 4.13322 -1.05201 0
M  V30 2401 S 233.641 4.69371 -2.57781 0
M  V30 2402 C 234.797 5.95058 -1.94053 0
M  V30 2403 H 235.03 2.4913 -1.62239 0
M  V30 2404 H 232.563 1.22519 -0.939603 0
M  V30 2405 H 234.521 4.09473 0.290254 0
M  V30 2406 H 233.182 3.03962 0.791593 0
M  V30 2407 H 232.375 5.01051 -0.544433 0
M  V30 2408 H 231.977 3.48251 -1.36371 0
M  V30 2409 H 234.269 6.65278 -1.28107 0
M  V30 2410 H 235.212 6.50472 -2.79807 0
M  V30 2411 H 235.62 5.46918 -1.39787 0
M  V30 2412 N 235.018 0.912232 1.28515 0
M  V30 2413 C 236.258 0.551677 1.96814 0
M  V30 2414 C 236.622 -0.887825 1.7024 0
M  V30 2415 O 237.823 -1.35588 2.32098 0
M  V30 2416 C 236.094 0.850555 3.47132 0
M  V30 2417 S 237.653 0.59619 4.34731 0
M  V30 2418 H 234.471 0.204191 0.681049 0
M  V30 2419 H 237.073 1.17736 1.56072 0
M  V30 2420 H 235.777 1.8962 3.63968 0
M  V30 2421 H 235.308 0.213471 3.9282 0
M  V30 2422 H 237.323 -0.553154 4.93107 0
M  V30 2423 N 236.496 -1.42363 0.676048 0
M  V30 2424 C 237.428 -2.29164 -0.0404605 0
M  V30 2425 C 238.441 -1.43747 -0.764245 0
M  V30 2426 O 239.63 -1.67453 -0.618195 0
M  V30 2427 C 236.73 -3.21196 -1.08103 0
M  V30 2428 C 235.903 -4.35273 -0.430812 0
M  V30 2429 C 234.962 -5.08017 -1.37133 0
M  V30 2430 O 233.988 -5.62494 -0.87116 0
M  V30 2431 N 235.19 -5.13647 -2.70456 0
M  V30 2432 H 237.955 -2.91298 0.704667 0
M  V30 2433 H 235.516 -1.53303 0.520559 0
M  V30 2434 H 237.508 -3.66728 -1.71152 0
M  V30 2435 H 236.078 -2.60505 -1.72788 0
M  V30 2436 H 235.298 -3.92372 0.379209 0
M  V30 2437 H 236.586 -5.08795 0.0221132 0
M  V30 2438 H 235.984 -4.708 -3.1363 0
M  V30 2439 H 234.541 -5.62821 -3.28749 0
M  V30 2440 N 237.974 -0.419461 -1.51915 0
M  V30 2441 C 239.204 0.151915 -2.06041 0
M  V30 2442 C 239.612 1.38539 -1.28855 0
M  V30 2443 O 238.955 1.80592 -0.336463 0
M  V30 2444 C 239.017 0.557119 -3.55157 0
M  V30 2445 C 238.681 -0.567054 -4.53468 0
M  V30 2446 C 239.678 -1.43379 -4.99738 0
M  V30 2447 C 237.363 -0.742693 -4.96779 0
M  V30 2448 C 239.357 -2.46102 -5.87973 0
M  V30 2449 C 237.044 -1.77322 -5.84808 0
M  V30 2450 C 238.042 -2.63078 -6.30301 0
M  V30 2451 O 237.73 -3.64364 -7.16585 0
M  V30 2452 H 237.462 0.0193293 -0.675724 0
M  V30 2453 H 240.016 -0.592073 -1.96682 0
M  V30 2454 H 238.246 1.35355 -3.62238 0
M  V30 2455 H 239.935 1.05759 -3.9188 0
M  V30 2456 H 240.701 -1.30954 -4.66986 0
M  V30 2457 H 236.58 -0.0848307 -4.60922 0
M  V30 2458 H 240.124 -3.13071 -6.23404 0
M  V30 2459 H 236.021 -1.89773 -6.16974 0
M  V30 2460 H 236.789 -3.60731 -7.34721 0
M  V30 2461 N 239.452 1.56882 -0.150215 0
M  V30 2462 C 240.868 1.58263 0.20617 0
M  V30 2463 C 241.068 1.16464 1.64434 0
M  V30 2464 O 240.124 0.866422 2.3717 0
M  V30 2465 C 241.437 3.00649 -0.0555025 0
M  V30 2466 C 242.985 3.12999 0.00795388 0
M  V30 2467 C 243.46 4.5744 -0.226429 0
M  V30 2468 N 244.951 4.62875 -0.173469 0
M  V30 2469 C 245.686 5.72454 -0.329288 0
M  V30 2470 N 245.182 6.90669 -0.543005 0
M  V30 2471 N 246.975 5.61467 -0.266666 0
M  V30 2472 H 239.126 1.82345 -1.08922 0
M  V30 2473 H 241.389 0.844149 -0.431413 0
M  V30 2474 H 241.095 3.3563 -1.05096 0
M  V30 2475 H 240.969 3.71337 0.66246 0
M  V30 2476 H 243.356 2.77857 0.993966 0
M  V30 2477 H 243.437 2.4479 -0.742388 0
M  V30 2478 H 243.081 4.93287 -1.20956 0
M  V30 2479 H 243.011 5.2378 0.544274 0
M  V30 2480 H 245.502 3.77898 -0.0130709 0
M  V30 2481 H 245.815 7.70045 -0.651922 0
M  V30 2482 H 244.16 6.92581 -0.579366 0
M  V30 2483 H 247.351 4.67992 -0.100441 0
M  V30 2484 H 247.524 6.46816 -0.391535 0
M  V30 2485 N 240.93 -0.123565 1.57115 0
M  V30 2486 C 242.178 -0.83051 1.84247 0
M  V30 2487 C 242.499 -1.80629 0.73471 0
M  V30 2488 O 241.769 -1.94403 -0.241688 0
M  V30 2489 H 240.349 -0.309694 0.679778 0
M  V30 2490 H 243.011 -0.111976 1.94578 0
M  V30 2491 H 242.107 -1.37852 2.80006 0
M  V30 2492 N 242.408 -1.52605 -0.393616 0
M  V30 2493 C 243.341 -1.71798 -1.50202 0
M  V30 2494 C 244.319 -0.565743 -1.52441 0
M  V30 2495 O 245.503 -0.794987 -1.70916 0
M  V30 2496 C 242.63 -1.7714 -2.88685 0
M  V30 2497 C 241.676 -2.98845 -3.04292 0
M  V30 2498 S 242.509 -4.58909 -2.75976 0
M  V30 2499 C 243.665 -4.6706 -4.1666 0
M  V30 2500 H 243.898 -2.65542 -1.33696 0
M  V30 2501 H 241.431 -1.42839 -0.586195 0
M  V30 2502 H 243.389 -1.80903 -3.68489 0
M  V30 2503 H 242.05 -0.844969 -3.02521 0
M  V30 2504 H 241.243 -2.99111 -4.05646 0
M  V30 2505 H 240.845 -2.9305 -2.32374 0
M  V30 2506 H 243.137 -4.45391 -5.10523 0
M  V30 2507 H 244.08 -5.6905 -4.21412 0
M  V30 2508 H 244.488 -3.95944 -4.02354 0
M  V30 2509 N 243.887 0.651787 -1.4349 0
M  V30 2510 C 245.135 1.40888 -1.44897 0
M  V30 2511 C 245.456 1.94856 -0.0749086 0
M  V30 2512 O 244.726 1.74518 0.889956 0
M  V30 2513 H 243.306 0.522887 -0.533478 0
M  V30 2514 H 245.968 0.768609 -1.79104 0
M  V30 2515 H 245.064 2.25052 -2.16236 0
M  V30 2516 N 245.365 1.30045 0.890287 0
M  V30 2517 C 246.295 1.18541 2.01172 0
M  V30 2518 C 247.276 0.0773356 1.69924 0
M  V30 2519 O 248.461 0.25845 1.92473 0
M  V30 2520 C 245.591 0.870941 3.36202 0
M  V30 2521 C 244.545 1.93637 3.81692 0
M  V30 2522 C 243.871 1.475 5.13953 0
M  V30 2523 C 245.171 3.34666 4.00994 0
M  V30 2524 H 246.865 2.12359 2.11054 0
M  V30 2525 H 244.411 1.02238 1.01407 0
M  V30 2526 H 246.364 0.777141 4.14172 0
M  V30 2527 H 245.088 -0.102926 3.26438 0
M  V30 2528 H 243.747 2.01972 3.05946 0
M  V30 2529 H 243.395 0.489551 5.00612 0
M  V30 2530 H 243.095 2.1876 5.4536 0
M  V30 2531 H 244.619 1.39489 5.94454 0
M  V30 2532 H 246.033 3.2912 4.69417 0
M  V30 2533 H 244.43 4.03966 4.43769 0
M  V30 2534 H 245.5 3.76949 3.05021 0
M  V30 2535 N 246.843 -1.10192 1.12674 0
M  V30 2536 C 248.068 -1.86523 0.906853 0
M  V30 2537 C 248.493 -1.80221 -0.538711 0
M  V30 2538 O 247.851 -1.17396 -1.38158 0
M  V30 2539 C 247.899 -3.32758 1.3894 0
M  V30 2540 O 247.003 -4.08449 0.5695 0
M  V30 2541 H 246.344 -0.578678 0.325619 0
M  V30 2542 H 248.874 -1.39203 1.49946 0
M  V30 2543 H 248.884 -3.83608 1.38958 0
M  V30 2544 H 247.559 -3.36661 2.44197 0
M  V30 2545 H 246.136 -3.67427 0.636528 0
M  V30 2546 N 248.321 -0.919034 -1.28029 0
M  V30 2547 C 249.254 -0.355887 -2.25408 0
M  V30 2548 C 250.232 0.542874 -1.5327 0
M  V30 2549 O 251.416 0.485338 -1.82145 0
M  V30 2550 C 248.543 0.490759 -3.35126 0
M  V30 2551 C 247.589 -0.343358 -4.25116 0
M  V30 2552 S 248.422 -1.75344 -5.05979 0
M  V30 2553 C 249.578 -0.914244 -6.19187 0
M  V30 2554 H 249.811 -1.18123 -2.72826 0
M  V30 2555 H 247.344 -0.720636 -1.36551 0
M  V30 2556 H 249.302 0.973404 -3.98792 0
M  V30 2557 H 247.963 1.29054 -2.86363 0
M  V30 2558 H 247.156 0.304266 -5.03081 0
M  V30 2559 H 246.758 -0.759851 -3.662 0
M  V30 2560 H 249.05 -0.146282 -6.77342 0
M  V30 2561 H 249.993 -1.66661 -6.88208 0
M  V30 2562 H 250.401 -0.460082 -5.62622 0
M  V30 2563 N 249.799 1.42003 -0.683588 0
M  V30 2564 C 251.047 2.01015 -0.209101 0
M  V30 2565 C 251.368 1.54365 1.19149 0
M  V30 2566 O 250.638 0.769083 1.80172 0
M  V30 2567 H 249.218 0.743294 -0.074315 0
M  V30 2568 H 251.88 1.73798 -0.882066 0
M  V30 2569 H 250.976 3.11343 -0.2172 0
M  V30 2570 N 251.277 0.427512 1.51691 0
M  V30 2571 C 252.502 -0.143601 2.06902 0
M  V30 2572 C 252.927 -1.36536 1.29382 0
M  V30 2573 O 252.285 -1.78289 0.329043 0
M  V30 2574 C 252.333 -0.454207 3.57728 0
M  V30 2575 O 251.437 -1.54228 3.82475 0
M  V30 2576 H 250.778 -0.00617128 0.663971 0
M  V30 2577 H 253.308 0.606014 1.95419 0
M  V30 2578 H 253.318 -0.707525 4.01818 0
M  V30 2579 H 251.993 0.438812 4.13579 0
M  V30 2580 H 250.57 -1.2797 3.50254 0
M  V30 2581 N 252.755 -1.56801 0.158532 0
M  V30 2582 C 253.688 -2.13148 -0.815065 0
M  V30 2583 C 254.666 -1.0581 -1.23462 0
M  V30 2584 O 255.85 -1.3371 -1.32868 0
M  V30 2585 C 252.977 -2.6606 -2.09594 0
M  V30 2586 C 252.023 -3.85651 -1.82141 0
M  V30 2587 S 252.856 -5.26041 -1.00207 0
M  V30 2588 C 254.012 -5.8235 -2.29389 0
M  V30 2589 H 254.245 -2.95396 -0.335937 0
M  V30 2590 H 251.778 -1.54299 -0.0559391 0
M  V30 2591 H 253.736 -2.97195 -2.8317 0
M  V30 2592 H 252.397 -1.83921 -2.54621 0
M  V30 2593 H 251.59 -4.20958 -2.77147 0
M  V30 2594 H 251.192 -3.55338 -1.16667 0
M  V30 2595 H 253.484 -5.94485 -3.24952 0
M  V30 2596 H 254.427 -6.79688 -1.9857 0
M  V30 2597 H 254.835 -5.10675 -2.40564 0
M  V30 2598 N 254.233 0.115231 -1.57178 0
M  V30 2599 C 255.482 0.820945 -1.84237 0
M  V30 2600 C 255.795 1.80866 -0.744761 0
M  V30 2601 O 257.001 2.56083 -0.901871 0
M  V30 2602 C 255.457 1.51072 -3.26658 0
M  V30 2603 C 255.065 0.563795 -4.44438 0
M  V30 2604 C 256.809 2.20134 -3.62962 0
M  V30 2605 C 254.716 1.25701 -5.77887 0
M  V30 2606 H 253.646 0.310328 -0.687177 0
M  V30 2607 H 256.297 0.0737134 -1.83352 0
M  V30 2608 H 254.679 2.30471 -3.22024 0
M  V30 2609 H 255.853 -0.197247 -4.60378 0
M  V30 2610 H 254.168 -0.0200638 -4.16395 0
M  V30 2611 H 256.765 2.72696 -4.59936 0
M  V30 2612 H 257.108 2.98107 -2.90582 0
M  V30 2613 H 257.641 1.47619 -3.69396 0
M  V30 2614 H 254.38 0.518493 -6.53446 0
M  V30 2615 H 253.9 1.98997 -5.65827 0
M  V30 2616 H 255.579 1.78915 -6.2177 0
M  V30 2617 N 255.711 1.52812 0.385517 0
M  V30 2618 C 256.951 1.69716 1.13911 0
M  V30 2619 C 257.315 0.42962 1.87132 0
M  V30 2620 O 258.516 0.475071 2.64569 0
M  V30 2621 C 256.787 2.90021 2.0886 0
M  V30 2622 S 258.346 3.27531 2.92009 0
M  V30 2623 H 255.164 0.59739 0.385547 0
M  V30 2624 H 257.766 1.90868 0.423061 0
M  V30 2625 H 256.47 3.80493 1.53797 0
M  V30 2626 H 256.001 2.71213 2.84969 0
M  V30 2627 H 258.016 2.77989 4.11019 0
M  V30 2628 N 257.189 -0.644168 1.43834 0
M  V30 2629 C 258.437 -1.40117 1.45642 0
M  V30 2630 C 258.758 -1.94814 0.0852413 0
M  V30 2631 O 258.028 -1.74988 -0.880688 0
M  V30 2632 H 256.608 -0.52005 0.536243 0
M  V30 2633 H 259.27 -0.7591 1.7951 0
M  V30 2634 H 258.366 -2.23902 2.17427 0
M  V30 2635 N 258.668 -1.30515 -0.883378 0
M  V30 2636 C 259.914 -1.20617 -1.63778 0
M  V30 2637 C 260.269 0.236469 -1.90941 0
M  V30 2638 O 259.562 1.16596 -1.52039 0
M  V30 2639 C 259.756 -1.96994 -2.98209 0
M  V30 2640 C 259.585 -3.48537 -2.84169 0
M  V30 2641 C 258.355 -4.17893 -2.84067 0
M  V30 2642 C 260.553 -4.43738 -2.60001 0
M  V30 2643 N 258.535 -5.55685 -2.60936 0
M  V30 2644 C 259.906 -5.69105 -2.46007 0
M  V30 2645 C 261.961 -4.33316 -2.45239 0
M  V30 2646 C 260.664 -6.8523 -2.18752 0
M  V30 2647 C 262.69 -5.4921 -2.19369 0
M  V30 2648 C 262.052 -6.73558 -2.06153 0
M  V30 2649 H 258.151 -0.496434 -0.604216 0
M  V30 2650 H 260.735 -1.64544 -1.04083 0
M  V30 2651 H 258.906 -1.55455 -3.55933 0
M  V30 2652 H 260.638 -1.79225 -3.62851 0
M  V30 2653 H 257.393 -3.69739 -2.95956 0
M  V30 2654 H 257.817 -6.28199 -2.52378 0
M  V30 2655 H 262.459 -3.37856 -2.54191 0
M  V30 2656 H 260.177 -7.80729 -2.08537 0
M  V30 2657 H 263.763 -5.43054 -2.08766 0
M  V30 2658 H 262.643 -7.61721 -1.86416 0
M  V30 2659 N 260.146 1.09593 -1.13257 0
M  V30 2660 C 261.423 1.78293 -0.804432 0
M  V30 2661 C 261.803 1.99004 0.70431 0
M  V30 2662 O 261.151 1.59007 1.641 0
M  V30 2663 C 261.361 3.10707 -1.5894 0
M  V30 2664 C 262.709 3.85443 -1.78099 0
M  V30 2665 O 263.733 3.20454 -1.55525 0
M  V30 2666 O 262.592 5.02108 -2.15753 0
M  V30 2667 H 259.686 0.773156 -0.293528 0
M  V30 2668 H 262.232 1.16164 -1.23709 0
M  V30 2669 H 261.004 2.91106 -2.61482 0
M  V30 2670 H 260.627 3.80558 -1.15157 0
M  V30 2671 N 261.624 0.925811 1.2754 0
M  V30 2672 C 262.571 0.422045 2.26908 0
M  V30 2673 C 263.541 -0.510029 1.58076 0
M  V30 2674 O 264.726 -0.429599 1.85901 0
M  V30 2675 C 261.866 -0.320837 3.43605 0
M  V30 2676 C 260.979 0.64513 4.27156 0
M  V30 2677 C 260.114 -0.117405 5.3107 0
M  V30 2678 C 259.153 0.841391 6.0629 0
M  V30 2679 N 258.29 0.111604 7.02011 0
M  V30 2680 H 263.13 1.27441 2.69375 0
M  V30 2681 H 260.667 0.639697 1.32462 0
M  V30 2682 H 262.625 -0.76785 4.10073 0
M  V30 2683 H 261.255 -1.13745 3.02096 0
M  V30 2684 H 260.307 1.21067 3.6062 0
M  V30 2685 H 261.619 1.37797 4.79389 0
M  V30 2686 H 260.773 -0.624422 6.03478 0
M  V30 2687 H 259.512 -0.883219 4.79636 0
M  V30 2688 H 258.517 1.35967 5.32722 0
M  V30 2689 H 259.742 1.60696 6.59813 0
M  V30 2690 H 257.688 -0.635999 6.5291 0
M  V30 2691 H 257.605 0.784044 7.51923 0
M  V30 2692 H 258.873 -0.374823 7.78598 0
M  V30 2693 N 263.102 -1.41638 0.69111 0
M  V30 2694 C 264.049 -2.30789 0.0229705 0
M  V30 2695 C 265.019 -1.46863 -0.775911 0
M  V30 2696 O 266.204 -1.75661 -0.74485 0
M  V30 2697 C 263.344 -3.32868 -0.910666 0
M  V30 2698 C 262.457 -4.31875 -0.103874 0
M  V30 2699 C 261.592 -5.21024 -1.03475 0
M  V30 2700 C 260.631 -6.11702 -0.220598 0
M  V30 2701 N 259.768 -6.93349 -1.10504 0
M  V30 2702 H 264.608 -2.87366 0.788978 0
M  V30 2703 H 262.145 -1.41535 0.400794 0
M  V30 2704 H 264.103 -3.90596 -1.46597 0
M  V30 2705 H 262.733 -2.77851 -1.64312 0
M  V30 2706 H 261.785 -3.76131 0.568285 0
M  V30 2707 H 263.097 -4.96003 0.527504 0
M  V30 2708 H 262.251 -5.83565 -1.65943 0
M  V30 2709 H 260.99 -4.57112 -1.69999 0
M  V30 2710 H 259.995 -5.48215 0.417187 0
M  V30 2711 H 261.22 -6.77668 0.440784 0
M  V30 2712 H 259.166 -6.3205 -1.75638 0
M  V30 2713 H 259.083 -7.54146 -0.529125 0
M  V30 2714 H 260.351 -7.60362 -1.71667 0
M  V30 2715 N 264.58 -0.43555 -1.51462 0
M  V30 2716 C 265.828 0.131254 -2.01673 0
M  V30 2717 C 266.149 1.43368 -1.32177 0
M  V30 2718 O 265.419 1.90524 -0.455769 0
M  V30 2719 H 263.999 0.0514954 -0.745223 0
M  V30 2720 H 266.661 -0.577847 -1.86137 0
M  V30 2721 H 265.757 0.308446 -3.10572 0
M  V30 2722 N 266.058 1.56714 -0.166846 0
M  V30 2723 C 267.469 1.83378 0.350646 0
M  V30 2724 C 267.82 1.08646 1.63372 0
M  V30 2725 O 266.945 0.338058 2.13743 0
M  V30 2726 C 267.54 3.32643 0.642963 0
M  V30 2727 C 266.099 3.59818 1.10491 0
M  V30 2728 C 265.246 2.76954 0.138411 0
M  V30 2729 H 268.197 1.53803 -0.391193 0
M  V30 2730 H 268.218 3.49878 1.49551 0
M  V30 2731 H 267.73 3.87007 -0.291055 0
M  V30 2732 H 265.831 3.1086 2.05418 0
M  V30 2733 H 265.944 4.68178 1.01716 0
M  V30 2734 H 264.308 2.4666 0.634911 0
M  V30 2735 H 265.091 3.34097 -0.789549 0
M  V30 2736 N 267.536 -0.106894 1.57237 0
M  V30 2737 C 268.784 -0.810921 1.85117 0
M  V30 2738 C 269.105 -1.7984 0.753827 0
M  V30 2739 O 268.375 -1.94649 -0.221056 0
M  V30 2740 H 266.955 -0.302466 0.683025 0
M  V30 2741 H 269.617 -0.0913324 1.94686 0
M  V30 2742 H 268.713 -1.34875 2.81452 0
M  V30 2743 N 269.014 -1.53014 -0.377408 0
M  V30 2744 C 269.944 -1.81589 -1.46791 0
M  V30 2745 C 270.925 -0.668622 -1.56408 0
M  V30 2746 O 272.11 -0.917337 -1.71168 0
M  V30 2747 C 269.24 -1.99519 -2.8427 0
M  V30 2748 C 268.194 -3.15249 -2.89486 0
M  V30 2749 C 267.52 -3.18451 -4.29527 0
M  V30 2750 C 268.82 -4.54084 -2.58079 0
M  V30 2751 H 270.514 -2.7291 -1.23127 0
M  V30 2752 H 268.06 -1.31319 -0.590883 0
M  V30 2753 H 270.013 -2.18092 -3.60575 0
M  V30 2754 H 268.737 -1.04897 -3.09296 0
M  V30 2755 H 267.396 -2.96477 -2.15631 0
M  V30 2756 H 267.044 -2.2149 -4.5161 0
M  V30 2757 H 266.744 -3.962 -4.33934 0
M  V30 2758 H 268.268 -3.39193 -5.07721 0
M  V30 2759 H 269.682 -4.72899 -3.24098 0
M  V30 2760 H 268.079 -5.33987 -2.7382 0
M  V30 2761 H 269.149 -4.60006 -1.53372 0
M  V30 2762 N 270.492 0.636531 -1.44174 0
M  V30 2763 C 271.722 1.42146 -1.49927 0
M  V30 2764 C 272.13 1.88812 -0.121063 0
M  V30 2765 O 271.473 1.61126 0.882267 0
M  V30 2766 C 271.535 2.67883 -2.39748 0
M  V30 2767 C 271.199 2.43048 -3.8701 0
M  V30 2768 C 272.196 2.05216 -4.77684 0
M  V30 2769 C 269.881 2.56856 -4.3166 0
M  V30 2770 C 271.875 1.81512 -6.11009 0
M  V30 2771 C 269.562 2.32766 -5.65034 0
M  V30 2772 C 270.56 1.95152 -6.54526 0
M  V30 2773 O 270.248 1.71326 -7.85431 0
M  V30 2774 H 269.98 0.442567 -0.51099 0
M  V30 2775 H 272.534 0.786158 -1.8976 0
M  V30 2776 H 270.764 3.34032 -1.94832 0
M  V30 2777 H 272.453 3.29874 -2.36513 0
M  V30 2778 H 273.219 1.94111 -4.44462 0
M  V30 2779 H 269.098 2.85104 -3.62266 0
M  V30 2780 H 272.642 1.52077 -6.80822 0
M  V30 2781 H 268.539 2.43479 -5.97819 0
M  V30 2782 H 269.307 1.85616 -7.97176 0
M  V30 2783 N 271.97 1.30982 0.876444 0
M  V30 2784 C 273.2 1.23063 1.65949 0
M  V30 2785 C 273.608 -0.207537 1.88058 0
M  V30 2786 O 272.951 -1.14781 1.43426 0
M  V30 2787 C 273.013 1.89768 3.05333 0
M  V30 2788 C 272.677 3.39106 3.0636 0
M  V30 2789 C 273.674 4.3496 2.84791 0
M  V30 2790 C 271.359 3.80693 3.27686 0
M  V30 2791 C 273.353 5.70375 2.84519 0
M  V30 2792 C 271.04 5.16223 3.27043 0
M  V30 2793 C 272.038 6.10875 3.05485 0
M  V30 2794 O 271.726 7.43928 3.04674 0
M  V30 2795 H 271.458 0.426685 0.524324 0
M  V30 2796 H 274.012 1.7329 1.10271 0
M  V30 2797 H 272.242 1.34082 3.6271 0
M  V30 2798 H 273.931 1.75853 3.65829 0
M  V30 2799 H 274.697 4.0416 2.68103 0
M  V30 2800 H 270.576 3.07457 3.43499 0
M  V30 2801 H 274.12 6.44228 2.67611 0
M  V30 2802 H 270.017 5.4666 3.43269 0
M  V30 2803 H 270.785 7.53022 3.2078 0
M  V30 2804 N 273.449 -1.08991 1.13837 0
M  V30 2805 C 274.695 -1.81526 0.90422 0
M  V30 2806 C 275.028 -1.85706 -0.568066 0
M  V30 2807 O 274.303 -1.32855 -1.42056 0
M  V30 2808 C 274.586 -3.27447 1.49835 0
M  V30 2809 C 274.439 -3.31512 3.04006 0
M  V30 2810 C 275.758 -4.24256 1.17025 0
M  V30 2811 H 272.877 -0.659029 0.329923 0
M  V30 2812 H 275.519 -1.27644 1.40737 0
M  V30 2813 H 273.669 -3.73462 1.07044 0
M  V30 2814 H 275.341 -2.93867 3.55584 0
M  V30 2815 H 273.584 -2.70963 3.38765 0
M  V30 2816 H 274.255 -4.34329 3.40679 0
M  V30 2817 H 276.731 -3.86549 1.54009 0
M  V30 2818 H 275.607 -5.24684 1.61237 0
M  V30 2819 H 275.868 -4.42019 0.0846274 0
M  V30 2820 N 274.927 -0.932562 -1.27047 0
M  V30 2821 C 276.204 -0.49377 -1.89265 0
M  V30 2822 C 276.584 1.02833 -1.8436 0
M  V30 2823 O 275.932 1.88461 -1.29209 0
M  V30 2824 C 276.142 -1.04536 -3.32976 0
M  V30 2825 C 277.49 -1.10879 -4.09867 0
M  V30 2826 O 278.514 -0.995327 -3.42011 0
M  V30 2827 O 277.373 -1.28417 -5.31198 0
M  V30 2828 H 274.467 -0.159596 -0.811454 0
M  V30 2829 H 277.013 -1.02457 -1.3528 0
M  V30 2830 H 275.785 -2.08913 -3.30864 0
M  V30 2831 H 275.408 -0.496494 -3.94488 0
M  V30 2832 N 276.405 1.4127 -0.698611 0
M  V30 2833 C 277.315 2.34573 -0.0357891 0
M  V30 2834 C 278.331 1.56393 0.762701 0
M  V30 2835 O 279.507 1.8886 0.699564 0
M  V30 2836 C 276.572 3.35159 0.887089 0
M  V30 2837 C 275.633 4.29225 0.0804634 0
M  V30 2838 C 274.866 5.25006 0.959387 0
M  V30 2839 O 275.089 5.26314 2.19886 0
M  V30 2840 O 274.023 6.00519 0.407439 0
M  V30 2841 H 277.849 2.92838 -0.804957 0
M  V30 2842 H 275.434 1.42175 -0.458966 0
M  V30 2843 H 277.316 3.9689 1.41621 0
M  V30 2844 H 275.991 2.79333 1.6357 0
M  V30 2845 H 274.898 3.70833 -0.493328 0
M  V30 2846 H 276.231 4.88157 -0.629547 0
M  V30 2847 N 277.883 0.443576 1.51229 0
M  V30 2848 C 278.833 -0.382787 2.24764 0
M  V30 2849 C 279.817 -0.984836 1.27239 0
M  V30 2850 O 281.009 -0.901943 1.52296 0
M  V30 2851 C 278.138 -1.47989 3.09765 0
M  V30 2852 C 277.224 -0.886931 4.14722 0
M  V30 2853 N 277.615 -0.0237103 5.05794 0
M  V30 2854 C 275.913 -1.15385 4.30816 0
M  V30 2855 C 276.614 0.309971 5.80874 0
M  V30 2856 N 275.59 -0.307989 5.42727 0
M  V30 2857 H 279.392 0.282624 2.92538 0
M  V30 2858 H 276.906 0.256027 1.60369 0
M  V30 2859 H 278.903 -2.08482 3.61027 0
M  V30 2860 H 277.563 -2.14758 2.43535 0
M  V30 2861 H 278.574 0.34318 5.16762 0
M  V30 2862 H 275.251 -1.81857 3.75812 0
M  V30 2863 H 276.641 1.01279 6.64223 0
M  V30 2864 N 279.361 -1.56624 0.175154 0
M  V30 2865 C 280.609 -1.96609 -0.467885 0
M  V30 2866 C 280.93 -1.06238 -1.63519 0
M  V30 2867 O 280.2 -0.129523 -1.95471 0
M  V30 2868 H 278.78 -0.726008 -0.175845 0
M  V30 2869 H 281.442 -1.93195 0.257234 0
M  V30 2870 H 280.538 -3.00989 -0.825342 0
M  V30 2871 N 280.839 0.0985539 -1.57292 0
M  V30 2872 C 282.067 0.816318 -1.90115 0
M  V30 2873 C 282.482 1.72451 -0.768509 0
M  V30 2874 O 281.839 1.80643 0.259687 0
M  V30 2875 C 281.89 1.63259 -3.22535 0
M  V30 2876 O 281.611 0.760934 -4.31441 0
M  V30 2877 C 283.112 2.45372 -3.69199 0
M  V30 2878 H 280.332 0.233595 -0.629027 0
M  V30 2879 H 282.876 0.0768229 -2.04356 0
M  V30 2880 H 281.031 2.32463 -3.09903 0
M  V30 2881 H 281.445 1.32595 -5.07463 0
M  V30 2882 H 282.919 2.98144 -4.64558 0
M  V30 2883 H 283.396 3.23677 -2.96867 0
M  V30 2884 H 284.002 1.81373 -3.84687 0
M  V30 2885 N 282.317 1.53212 0.369288 0
M  V30 2886 C 283.733 1.42902 0.710712 0
M  V30 2887 C 283.933 0.565135 1.93413 0
M  V30 2888 O 282.989 0.0461484 2.52458 0
M  V30 2889 C 284.302 2.86042 0.927382 0
M  V30 2890 C 285.85 2.9565 1.02762 0
M  V30 2891 C 286.325 4.39843 1.27679 0
M  V30 2892 N 287.816 4.43256 1.34457 0
M  V30 2893 C 288.551 5.51929 1.55439 0
M  V30 2894 N 288.047 6.70655 1.73762 0
M  V30 2895 N 289.84 5.39502 1.57779 0
M  V30 2896 H 281.991 2.07888 -0.435457 0
M  V30 2897 H 284.254 0.938661 -0.132739 0
M  V30 2898 H 283.96 3.51557 0.100287 0
M  V30 2899 H 283.834 3.29472 1.83653 0
M  V30 2900 H 286.221 2.30291 1.84527 0
M  V30 2901 H 286.302 2.5562 0.0959504 0
M  V30 2902 H 285.946 5.05774 0.464175 0
M  V30 2903 H 285.876 4.77443 2.22162 0
M  V30 2904 H 288.367 3.5769 1.21926 0
M  V30 2905 H 288.68 7.49248 1.89335 0
M  V30 2906 H 287.025 6.73648 1.70948 0
M  V30 2907 H 290.216 4.45713 1.43029 0
M  V30 2908 H 290.389 6.2426 1.7379 0
M  V30 2909 N 283.795 -0.628877 1.44509 0
M  V30 2910 C 284.725 -1.75187 1.54376 0
M  V30 2911 C 285.706 -1.65411 0.396618 0
M  V30 2912 O 286.891 -1.84137 0.617031 0
M  V30 2913 C 284.021 -3.13725 1.48976 0
M  V30 2914 C 282.975 -3.38291 2.62189 0
M  V30 2915 C 282.301 -4.76883 2.41841 0
M  V30 2916 C 283.601 -3.30632 4.04326 0
M  V30 2917 H 285.295 -1.67187 2.48373 0
M  V30 2918 H 282.841 -0.802909 1.19538 0
M  V30 2919 H 284.794 -3.92064 1.54478 0
M  V30 2920 H 283.518 -3.22515 0.514961 0
M  V30 2921 H 282.177 -2.62334 2.56079 0
M  V30 2922 H 281.825 -4.82378 1.42548 0
M  V30 2923 H 281.525 -4.94278 3.17747 0
M  V30 2924 H 283.049 -5.57449 2.49165 0
M  V30 2925 H 284.463 -3.98873 4.11793 0
M  V30 2926 H 282.86 -3.59561 4.80454 0
M  V30 2927 H 283.93 -2.28404 4.27738 0
M  V30 2928 N 285.273 -1.31445 -0.869486 0
M  V30 2929 C 286.498 -1.24256 -1.66058 0
M  V30 2930 C 286.923 0.188928 -1.87149 0
M  V30 2931 O 286.281 1.13522 -1.4136 0
M  V30 2932 C 286.329 -1.9924 -3.00559 0
M  V30 2933 O 285.433 -1.33007 -3.90362 0
M  V30 2934 H 284.774 -0.428973 -0.506831 0
M  V30 2935 H 287.304 -1.73521 -1.08404 0
M  V30 2936 H 287.314 -2.08854 -3.50491 0
M  V30 2937 H 285.989 -3.03342 -2.84528 0
M  V30 2938 H 284.566 -1.31848 -3.48813 0
M  V30 2939 N 286.751 1.08385 -1.14413 0
M  V30 2940 C 287.999 1.80419 -0.910679 0
M  V30 2941 C 288.32 1.86658 0.564243 0
M  V30 2942 O 287.59 1.35985 1.41014 0
M  V30 2943 H 286.17 0.668204 -0.333934 0
M  V30 2944 H 288.832 1.31037 -1.44275 0
M  V30 2945 H 287.928 2.83238 -1.31082 0
M  V30 2946 N 288.23 0.939286 1.26551 0
M  V30 2947 C 289.178 0.43815 2.28436 0
M  V30 2948 C 290.172 -0.483587 1.62351 0
M  V30 2949 O 291.378 -0.362009 1.76322 0
M  V30 2950 H 287.753 0.123149 0.741848 0
M  V30 2951 H 289.724 1.31002 2.68106 0
M  V30 2952 C 288.473 -0.283052 3.46546 0
M  V30 2953 H 287.796 0.417043 3.97619 0
M  V30 2954 H 289.236 -0.597948 4.19763 0
M  V30 2955 C 287.695 -1.50018 3.01656 0
M  V30 2956 O 288.225 -2.59855 3.0633 0
M  V30 2957 N 286.431 -1.35608 2.57019 0
M  V30 2958 H 285.978 -0.46244 2.53415 0
M  V30 2959 H 285.936 -2.17165 2.27347 0
M  V30 2960 N 289.708 -1.40897 0.706093 0
M  V30 2961 C 290.641 -2.282 -0.00328781 0
M  V30 2962 C 291.619 -1.42816 -0.77732 0
M  V30 2963 O 292.803 -1.72237 -0.765944 0
M  V30 2964 C 289.93 -3.23226 -1.01205 0
M  V30 2965 C 288.976 -4.25222 -0.329955 0
M  V30 2966 S 289.809 -5.27269 0.935298 0
M  V30 2967 C 290.965 -6.25859 -0.0716061 0
M  V30 2968 H 291.198 -2.88016 0.737143 0
M  V30 2969 H 288.731 -1.46191 0.496756 0
M  V30 2970 H 290.689 -3.78503 -1.58888 0
M  V30 2971 H 289.35 -2.62485 -1.72513 0
M  V30 2972 H 288.543 -4.92023 -1.09221 0
M  V30 2973 H 288.145 -3.73595 0.174069 0
M  V30 2974 H 290.437 -6.71204 -0.921521 0
M  V30 2975 H 291.38 -7.0586 0.562765 0
M  V30 2976 H 291.788 -5.62852 -0.431088 0
M  V30 2977 N 291.186 -0.45159 -1.50991 0
M  V30 2978 C 292.433 0.110074 -2.02201 0
M  V30 2979 C 292.761 1.4146 -1.33489 0
M  V30 2980 O 292.016 1.90617 -0.443125 0
M  V30 2981 C 292.315 0.361728 -3.55565 0
M  V30 2982 C 291.981 -0.858717 -4.42648 0
M  V30 2983 C 290.643 -1.19338 -4.66167 0
M  V30 2984 C 292.995 -1.67221 -4.93646 0
M  V30 2985 C 290.323 -2.34195 -5.37931 0
M  V30 2986 C 292.675 -2.8119 -5.6667 0
M  V30 2987 C 291.339 -3.15094 -5.88449 0
M  V30 2988 H 290.609 0.040279 -0.739904 0
M  V30 2989 H 293.256 -0.601696 -1.81802 0
M  V30 2990 H 291.561 1.15554 -3.74372 0
M  V30 2991 H 293.258 0.80996 -3.92735 0
M  V30 2992 H 289.848 -0.58796 -4.24548 0
M  V30 2993 H 294.032 -1.42686 -4.75347 0
M  V30 2994 H 289.288 -2.6076 -5.53005 0
M  V30 2995 H 293.462 -3.44585 -6.05173 0
M  V30 2996 H 291.089 -4.04204 -6.43835 0
M  V30 2997 N 292.664 1.56529 -0.183458 0
M  V30 2998 C 293.889 2.02064 0.467428 0
M  V30 2999 C 294.314 1.06282 1.55196 0
M  V30 3000 O 293.672 0.0443565 1.81246 0
M  V30 3001 C 293.72 3.46122 1.01153 0
M  V30 3002 O 292.824 3.53437 2.12499 0
M  V30 3003 H 292.165 0.654726 0.110588 0
M  V30 3004 H 294.695 2.02521 -0.290917 0
M  V30 3005 H 294.705 3.85676 1.33108 0
M  V30 3006 H 293.38 4.15331 0.217533 0
M  V30 3007 H 291.957 3.2575 1.81497 0
M  V30 3008 N 294.142 -0.090211 1.57342 0
M  V30 3009 C 295.37 -0.806224 1.90546 0
M  V30 3010 C 295.785 -1.72041 0.777644 0
M  V30 3011 O 295.142 -1.80778 -0.250103 0
M  V30 3012 C 295.193 -1.61546 3.23396 0
M  V30 3013 O 294.914 -0.738043 4.31839 0
M  V30 3014 C 296.415 -2.4341 3.70495 0
M  V30 3015 H 293.635 -0.230256 0.630257 0
M  V30 3016 H 296.179 -0.0659843 2.04394 0
M  V30 3017 H 294.334 -2.30816 3.11131 0
M  V30 3018 H 294.748 -1.29901 5.08159 0
M  V30 3019 H 296.222 -2.95676 4.66133 0
M  V30 3020 H 296.699 -3.22098 2.98579 0
M  V30 3021 H 297.305 -1.79331 3.85643 0
M  V30 3022 N 295.62 -1.53406 -0.361157 0
M  V30 3023 C 296.868 -1.69467 -1.10115 0
M  V30 3024 C 297.189 -0.451352 -1.89705 0
M  V30 3025 O 296.459 0.534636 -1.88463 0
M  V30 3026 H 295.039 -0.624749 -0.409508 0
M  V30 3027 H 297.701 -1.90609 -0.406699 0
M  V30 3028 H 296.797 -2.55774 -1.78847 0
M  V30 3029 N 297.098 0.621204 -1.44841 0
M  V30 3030 C 298.323 1.41244 -1.51871 0
M  V30 3031 C 298.748 1.87519 -0.147764 0
M  V30 3032 O 298.106 1.59334 0.865 0
M  V30 3033 C 298.154 2.60221 -2.49634 0
M  V30 3034 O 297.258 3.60395 -2.00473 0
M  V30 3035 H 296.599 0.42223 -0.512463 0
M  V30 3036 H 299.129 0.757305 -1.90069 0
M  V30 3037 H 299.139 3.0764 -2.67996 0
M  V30 3038 H 297.814 2.25887 -3.4921 0
M  V30 3039 H 296.391 3.19717 -1.91925 0
M  V30 3040 N 298.576 1.31904 0.862503 0
M  V30 3041 C 299.824 1.21776 1.61292 0
M  V30 3042 C 300.145 -0.222413 1.93727 0
M  V30 3043 O 299.415 -1.1451 1.58947 0
M  V30 3044 H 297.995 0.447717 0.597962 0
M  V30 3045 H 300.657 1.65326 1.03215 0
M  V30 3046 H 299.753 1.7948 2.5533 0
M  V30 3047 N 300.054 -1.07777 1.14986 0
M  V30 3048 C 301.002 -2.16964 0.838406 0
M  V30 3049 C 301.996 -1.68372 -0.186386 0
M  V30 3050 O 303.202 -1.79951 -0.0418465 0
M  V30 3051 H 299.577 -0.708006 0.253439 0
M  V30 3052 H 301.548 -2.40454 1.76704 0
M  V30 3053 C 300.297 -3.4604 0.339335 0
M  V30 3054 H 299.62 -3.83813 1.11927 0
M  V30 3055 H 301.06 -4.23698 0.160021 0
M  V30 3056 C 299.519 -3.23569 -0.938325 0
M  V30 3057 O 300.049 -3.47752 -2.01077 0
M  V30 3058 N 298.255 -2.77079 -0.876117 0
M  V30 3059 H 297.802 -2.576 -0.00322037 0
M  V30 3060 H 297.76 -2.62422 -1.73153 0
M  V30 3061 N 301.532 -0.945985 -1.26051 0
M  V30 3062 C 302.76 -0.613025 -1.9761 0
M  V30 3063 C 303.175 0.813035 -1.70397 0
M  V30 3064 O 302.532 1.54274 -0.974979 0
M  V30 3065 C 302.583 -0.85159 -3.51326 0
M  V30 3066 O 302.304 -2.22157 -3.77595 0
M  V30 3067 C 303.805 -0.529831 -4.40122 0
M  V30 3068 H 301.025 -0.230593 -0.630133 0
M  V30 3069 H 303.569 -1.268 -1.60443 0
M  V30 3070 H 301.724 -0.243151 -3.86636 0
M  V30 3071 H 302.138 -2.2852 -4.721 0
M  V30 3072 H 303.612 -0.747348 -5.46917 0
M  V30 3073 H 304.089 0.535341 -4.35925 0
M  V30 3074 H 304.695 -1.11721 -4.10364 0
M  V30 3075 N 303.011 1.40521 -0.713556 0
M  V30 3076 C 304.241 2.0494 -0.261395 0
M  V30 3077 C 304.649 1.53861 1.10107 0
M  V30 3078 O 303.992 0.689321 1.70276 0
M  V30 3079 C 304.054 3.59138 -0.161227 0
M  V30 3080 C 303.718 4.33096 -1.45865 0
M  V30 3081 C 304.715 4.61182 -2.40016 0
M  V30 3082 C 302.4 4.72043 -1.71701 0
M  V30 3083 C 304.394 5.27196 -3.58251 0
M  V30 3084 C 302.081 5.37789 -2.90218 0
M  V30 3085 C 303.079 5.65295 -3.83315 0
M  V30 3086 O 302.767 6.29683 -4.99754 0
M  V30 3087 H 302.499 0.666041 -0.115608 0
M  V30 3088 H 305.053 1.80954 -0.971849 0
M  V30 3089 H 303.283 3.81936 0.605153 0
M  V30 3090 H 304.972 4.05091 0.256105 0
M  V30 3091 H 305.738 4.31559 -2.21318 0
M  V30 3092 H 301.617 4.50003 -1.00092 0
M  V30 3093 H 305.161 5.48582 -4.30934 0
M  V30 3094 H 301.058 5.66831 -3.08825 0
M  V30 3095 H 301.826 6.4818 -4.99805 0
M  V30 3096 N 304.489 0.459591 1.5075 0
M  V30 3097 C 305.452 -0.329093 2.26825 0
M  V30 3098 C 306.452 -0.930481 1.31144 0
M  V30 3099 O 307.642 -0.801453 1.54669 0
M  V30 3100 C 304.774 -1.46768 3.07688 0
M  V30 3101 H 305.967 0.337924 2.9799 0
M  V30 3102 H 303.52 0.213336 1.54837 0
M  V30 3103 H 304.255 -2.17009 2.40993 0
M  V30 3104 H 304.04 -1.04238 3.77991 0
M  V30 3105 H 305.53 -2.02433 3.65254 0
M  V30 3106 N 305.967 -1.56429 0.191757 0
M  V30 3107 C 307.197 -2.01574 -0.452928 0
M  V30 3108 C 307.605 -1.07107 -1.55964 0
M  V30 3109 O 306.948 -0.067534 -1.83576 0
M  V30 3110 C 307.01 -3.43121 -1.07278 0
M  V30 3111 C 306.674 -4.56879 -0.105214 0
M  V30 3112 C 307.671 -5.15379 0.684149 0
M  V30 3113 C 305.356 -5.023 0.00489824 0
M  V30 3114 C 307.35 -6.17746 1.57062 0
M  V30 3115 C 305.037 -6.04511 0.894935 0
M  V30 3116 C 306.035 -6.62108 1.67637 0
M  V30 3117 O 305.723 -7.62335 2.55149 0
M  V30 3118 H 305.455 -0.665554 -0.118379 0
M  V30 3119 H 308.009 -2.03245 0.296737 0
M  V30 3120 H 306.239 -3.38425 -1.87097 0
M  V30 3121 H 307.928 -3.72093 -1.62177 0
M  V30 3122 H 308.694 -4.81157 0.609365 0
M  V30 3123 H 304.573 -4.57168 -0.593156 0
M  V30 3124 H 308.117 -6.6263 2.181 0
M  V30 3125 H 304.014 -6.38157 0.970847 0
M  V30 3126 H 304.782 -7.79741 2.48892 0
M  V30 3127 N 307.445 0.0818655 -1.57387 0
M  V30 3128 C 308.693 0.781368 -1.86384 0
M  V30 3129 C 309.014 1.78618 -0.782342 0
M  V30 3130 O 308.284 1.94976 0.190061 0
M  V30 3131 H 306.864 0.291562 -0.687751 0
M  V30 3132 H 309.526 0.060348 -1.94807 0
M  V30 3133 H 308.622 1.3038 -2.83562 0
M  V30 3134 N 308.923 1.53595 0.353017 0
M  V30 3135 C 310.169 1.70638 1.09593 0
M  V30 3136 C 310.502 0.463286 1.88593 0
M  V30 3137 O 309.777 -0.539597 1.86865 0
M  V30 3138 C 310.06 2.96406 2.04489 0
M  V30 3139 C 309.913 4.30901 1.29014 0
M  V30 3140 C 311.232 3.17812 3.0444 0
M  V30 3141 H 308.351 0.620913 0.397034 0
M  V30 3142 H 310.993 1.86254 0.375446 0
M  V30 3143 H 309.143 2.83223 2.65927 0
M  V30 3144 H 310.815 4.55917 0.702638 0
M  V30 3145 H 309.058 4.29741 0.592071 0
M  V30 3146 H 309.729 5.1506 1.98537 0
M  V30 3147 H 312.205 3.30263 2.53112 0
M  V30 3148 H 311.081 4.07223 3.6805 0
M  V30 3149 H 311.342 2.33669 3.75301 0
M  V30 3150 N 310.401 -0.613514 1.45168 0
M  V30 3151 C 311.334 -1.73809 1.47871 0
M  V30 3152 C 312.312 -1.59097 0.33568 0
M  V30 3153 O 313.496 -1.8074 0.535299 0
M  V30 3154 C 310.623 -3.11574 1.32813 0
M  V30 3155 C 309.669 -3.4489 2.50905 0
M  V30 3156 S 310.502 -3.40393 4.13392 0
M  V30 3157 C 311.658 -4.80749 4.00789 0
M  V30 3158 H 311.891 -1.71252 2.43023 0
M  V30 3159 H 309.424 -0.789658 1.32679 0
M  V30 3160 H 311.382 -3.91065 1.24812 0
M  V30 3161 H 310.043 -3.11652 0.391418 0
M  V30 3162 H 309.236 -4.45183 2.36279 0
M  V30 3163 H 308.838 -2.72901 2.55736 0
M  V30 3164 H 311.13 -5.7041 3.65567 0
M  V30 3165 H 312.073 -5.00431 5.00974 0
M  V30 3166 H 312.481 -4.56151 3.32545 0
M  V30 3167 N 311.879 -1.3236 -0.855495 0
M  V30 3168 C 313.156 -1.13491 -1.59309 0
M  V30 3169 C 313.536 0.30503 -2.08885 0
M  V30 3170 O 312.884 1.30151 -1.87811 0
M  V30 3171 C 313.094 -2.16176 -2.73987 0
M  V30 3172 C 314.442 -2.49463 -3.43589 0
M  V30 3173 O 315.466 -2.14715 -2.84211 0
M  V30 3174 O 314.325 -3.09027 -4.50738 0
M  V30 3175 H 311.419 -0.437887 -0.701559 0
M  V30 3176 H 313.965 -1.43887 -0.899696 0
M  V30 3177 H 312.737 -3.1297 -2.34873 0
M  V30 3178 H 312.36 -1.86769 -3.51003 0
M  V30 3179 N 313.357 1.07166 -1.15556 0
M  V30 3180 C 314.582 1.84053 -0.955988 0
M  V30 3181 C 315.007 1.81586 0.490739 0
M  V30 3182 O 314.365 1.21018 1.34997 0
M  V30 3183 C 314.413 3.28957 -1.47714 0
M  V30 3184 O 313.517 4.06795 -0.677593 0
M  V30 3185 H 312.858 0.569842 -0.340847 0
M  V30 3186 H 315.388 1.35178 -1.53584 0
M  V30 3187 H 315.398 3.79788 -1.4908 0
M  V30 3188 H 314.073 3.30068 -2.53037 0
M  V30 3189 H 312.65 3.6561 -0.733721 0
M  V30 3190 N 314.835 0.952656 1.25548 0
M  V30 3191 C 316.083 0.605176 1.92826 0
M  V30 3192 C 316.404 -0.860261 1.74999 0
M  V30 3193 O 315.674 -1.6125 1.11244 0
M  V30 3194 H 314.254 0.220832 0.713612 0
M  V30 3195 H 316.916 1.21047 1.52754 0
M  V30 3196 H 316.012 0.832798 3.00784 0
M  V30 3197 N 316.313 -1.40141 0.720998 0
M  V30 3198 C 317.543 -2.04798 0.27226 0
M  V30 3199 C 317.951 -1.54442 -1.09289 0
M  V30 3200 O 317.294 -0.698342 -1.69908 0
M  V30 3201 C 317.356 -3.59048 0.18027 0
M  V30 3202 C 317.02 -4.32317 1.48159 0
M  V30 3203 C 318.017 -4.59902 2.42458 0
M  V30 3204 C 315.702 -4.71125 1.74202 0
M  V30 3205 C 317.696 -5.25288 3.61042 0
M  V30 3206 C 315.383 -5.36242 2.93066 0
M  V30 3207 C 316.381 -5.63254 3.86308 0
M  V30 3208 O 316.069 -6.27024 5.03086 0
M  V30 3209 H 315.801 -0.665419 0.119139 0
M  V30 3210 H 318.355 -1.80436 0.981432 0
M  V30 3211 H 316.585 -3.82251 -0.58489 0
M  V30 3212 H 318.274 -4.05221 -0.234618 0
M  V30 3213 H 319.04 -4.30379 2.23604 0
M  V30 3214 H 314.919 -4.49466 1.02477 0
M  V30 3215 H 318.463 -5.46289 4.33837 0
M  V30 3216 H 314.36 -5.65185 3.11826 0
M  V30 3217 H 315.128 -6.4552 5.03235 0
M  V30 3218 N 317.792 -0.46758 -1.50504 0
M  V30 3219 C 319.208 -0.121533 -1.59137 0
M  V30 3220 C 319.408 1.3717 -1.47603 0
M  V30 3221 O 318.464 2.14464 -1.33272 0
M  V30 3222 C 319.777 -0.6686 -2.93173 0
M  V30 3223 C 321.325 -0.631716 -3.06559 0
M  V30 3224 C 321.8 -1.15627 -4.43164 0
M  V30 3225 N 323.291 -1.11553 -4.49567 0
M  V30 3226 C 324.026 -1.49195 -5.5365 0
M  V30 3227 N 323.522 -1.94269 -6.65005 0
M  V30 3228 N 325.315 -1.4082 -5.44175 0
M  V30 3229 H 317.466 -1.4388 -1.56245 0
M  V30 3230 H 319.729 -0.594784 -0.738198 0
M  V30 3231 H 319.435 -1.71453 -3.07078 0
M  V30 3232 H 319.309 -0.11021 -3.77039 0
M  V30 3233 H 321.696 0.405297 -2.92304 0
M  V30 3234 H 321.777 -1.22687 -2.24458 0
M  V30 3235 H 321.421 -2.1919 -4.58168 0
M  V30 3236 H 321.351 -0.537365 -5.23851 0
M  V30 3237 H 323.842 -0.784895 -3.69659 0
M  V30 3238 H 324.155 -2.21148 -7.40482 0
M  V30 3239 H 322.5 -1.98219 -6.66134 0
M  V30 3240 H 325.691 -1.0545 -4.56068 0
M  V30 3241 H 325.864 -1.70481 -6.25172 0
M  V30 3242 N 319.27 1.56325 -0.20005 0
M  V30 3243 C 320.681 1.8408 0.31167 0
M  V30 3244 C 321.032 1.12087 1.61031 0
M  V30 3245 O 320.157 0.38332 2.12978 0
M  V30 3246 C 320.752 3.33932 0.57226 0
M  V30 3247 C 319.311 3.6208 1.02834 0
M  V30 3248 C 318.458 2.77186 0.079634 0
M  V30 3249 H 321.409 1.52939 -0.423729 0
M  V30 3250 H 321.43 3.52971 1.42096 0
M  V30 3251 H 320.942 3.86303 -0.37308 0
M  V30 3252 H 319.043 3.15147 1.98778 0
M  V30 3253 H 319.156 4.7023 0.917624 0
M  V30 3254 H 317.52 2.47951 0.582448 0
M  V30 3255 H 318.303 3.32347 -0.860238 0
M  V30 3256 N 320.748 -0.0735177 1.57428 0
M  V30 3257 C 321.696 -1.10628 2.04607 0
M  V30 3258 C 322.69 -1.40181 0.951088 0
M  V30 3259 O 323.896 -1.39608 1.1362 0
M  V30 3260 H 320.271 -0.374088 0.652351 0
M  V30 3261 H 322.242 -0.682218 2.90497 0
M  V30 3262 C 320.991 -2.41212 2.50423 0
M  V30 3263 H 320.314 -2.19322 3.34272 0
M  V30 3264 H 321.754 -3.11927 2.87189 0
M  V30 3265 C 320.213 -3.0705 1.38644 0
M  V30 3266 O 320.743 -3.95056 0.727582 0
M  V30 3267 N 318.949 -2.67645 1.132 0
M  V30 3268 H 318.496 -1.96169 1.66959 0
M  V30 3269 H 318.454 -3.1202 0.386147 0
M  V30 3270 N 322.226 -1.5378 -0.344866 0
M  V30 3271 C 323.156 -1.84662 -1.42906 0
M  V30 3272 C 324.137 -0.701648 -1.54955 0
M  V30 3273 O 325.322 -0.953438 -1.69184 0
M  V30 3274 C 322.452 -2.05503 -2.79974 0
M  V30 3275 C 321.406 -3.21318 -2.82734 0
M  V30 3276 C 320.732 -3.2749 -4.22675 0
M  V30 3277 C 322.032 -4.59456 -2.48389 0
M  V30 3278 H 323.726 -2.75461 -1.17311 0
M  V30 3279 H 321.272 -1.32542 -0.562896 0
M  V30 3280 H 323.225 -2.25691 -3.55867 0
M  V30 3281 H 321.949 -1.11434 -3.07002 0
M  V30 3282 H 320.608 -3.00984 -2.09294 0
M  V30 3283 H 320.256 -2.31019 -4.4681 0
M  V30 3284 H 319.956 -4.05316 -4.25433 0
M  V30 3285 H 321.48 -3.49887 -5.00412 0
M  V30 3286 H 322.894 -4.79667 -3.13995 0
M  V30 3287 H 321.291 -5.39675 -2.62432 0
M  V30 3288 H 322.361 -4.63155 -1.4358 0
M  V30 3289 N 323.704 0.605807 -1.45491 0
M  V30 3290 C 324.929 1.39625 -1.53361 0
M  V30 3291 C 325.354 1.87351 -0.167645 0
M  V30 3292 O 324.712 1.60243 0.848051 0
M  V30 3293 C 324.76 2.57559 -2.5238 0
M  V30 3294 O 323.864 3.58248 -2.04285 0
M  V30 3295 H 323.205 0.416771 -0.516912 0
M  V30 3296 H 325.735 0.737103 -1.90861 0
M  V30 3297 H 325.745 3.0478 -2.71244 0
M  V30 3298 H 324.42 2.22171 -3.51586 0
M  V30 3299 H 322.997 3.17664 -1.95305 0
M  V30 3300 N 325.182 1.32811 0.848464 0
M  V30 3301 C 326.593 1.21315 1.41914 0
M  V30 3302 C 326.944 -0.171847 1.95446 0
M  V30 3303 O 326.069 -1.07093 1.88043 0
M  V30 3304 C 326.664 2.19631 2.57968 0
M  V30 3305 C 325.223 2.12003 3.11017 0
M  V30 3306 C 324.37 2.07651 1.83783 0
M  V30 3307 H 327.321 1.44549 0.655071 0
M  V30 3308 H 327.342 1.79845 3.35315 0
M  V30 3309 H 326.854 3.20423 2.18976 0
M  V30 3310 H 324.955 1.14481 3.54577 0
M  V30 3311 H 325.068 3.02111 3.71841 0
M  V30 3312 H 323.432 1.52983 2.03638 0
M  V30 3313 H 324.215 3.10235 1.47 0
M  V30 3314 N 326.66 -1.06551 1.16123 0
M  V30 3315 C 327.57 -2.17484 0.879662 0
M  V30 3316 C 328.586 -1.73377 -0.147104 0
M  V30 3317 O 329.762 -2.01379 0.0289128 0
M  V30 3318 C 326.827 -3.44591 0.381829 0
M  V30 3319 C 325.888 -4.0322 1.4735 0
M  V30 3320 C 325.121 -5.24261 0.999324 0
M  V30 3321 O 325.344 -5.70198 -0.151957 0
M  V30 3322 O 324.278 -5.74775 1.78653 0
M  V30 3323 H 328.104 -2.44075 1.80724 0
M  V30 3324 H 325.689 -1.16042 0.940992 0
M  V30 3325 H 327.571 -4.21254 0.111053 0
M  V30 3326 H 326.246 -3.19532 -0.51777 0
M  V30 3327 H 325.153 -3.2806 1.79798 0
M  V30 3328 H 326.486 -4.32568 2.34831 0
M  V30 3329 N 328.138 -0.959301 -1.25041 0
M  V30 3330 C 329.048 -0.489994 -2.29426 0
M  V30 3331 C 330.064 0.444944 -1.68215 0
M  V30 3332 O 331.24 0.320046 -1.98841 0
M  V30 3333 C 328.305 0.220309 -3.45999 0
M  V30 3334 C 327.366 -0.753418 -4.22637 0
M  V30 3335 C 326.599 -0.076918 -5.33645 0
M  V30 3336 O 326.822 1.13649 -5.58963 0
M  V30 3337 O 325.756 -0.764824 -5.97021 0
M  V30 3338 H 329.582 -1.35755 -2.71669 0
M  V30 3339 H 327.167 -0.725961 -1.30576 0
M  V30 3340 H 329.049 0.619677 -4.16819 0
M  V30 3341 H 327.724 1.06296 -3.0575 0
M  V30 3342 H 326.631 -1.20308 -3.54227 0
M  V30 3343 H 327.964 -1.56423 -4.66683 0
M  V30 3344 N 329.616 1.39756 -0.72842 0
M  V30 3345 C 330.579 2.29012 -0.0927297 0
M  V30 3346 C 331.579 1.45992 0.674025 0
M  V30 3347 O 332.769 1.66749 0.50402 0
M  V30 3348 C 329.901 3.29396 0.878137 0
M  V30 3349 H 331.094 2.86729 -0.879011 0
M  V30 3350 H 328.647 1.48293 -0.493847 0
M  V30 3351 H 329.382 2.76722 1.69101 0
M  V30 3352 H 329.167 3.907 0.331051 0
M  V30 3353 H 330.657 3.96199 1.3197 0
M  V30 3354 N 331.094 0.475555 1.50254 0
M  V30 3355 C 332.324 -0.0753399 2.06463 0
M  V30 3356 C 332.732 -1.33661 1.33908 0
M  V30 3357 O 332.075 -1.79219 0.403257 0
M  V30 3358 C 332.137 -0.424921 3.5698 0
M  V30 3359 C 331.801 0.734965 4.51051 0
M  V30 3360 C 332.798 1.61827 4.94073 0
M  V30 3361 C 330.483 0.926557 4.9368 0
M  V30 3362 C 332.477 2.67754 5.78434 0
M  V30 3363 C 330.164 1.98904 5.77824 0
M  V30 3364 C 331.162 2.8629 6.20103 0
M  V30 3365 O 330.85 3.90708 7.02568 0
M  V30 3366 H 330.582 0.00576308 0.675975 0
M  V30 3367 H 333.136 0.664662 1.94349 0
M  V30 3368 H 331.366 -1.21817 3.67012 0
M  V30 3369 H 333.055 -0.911422 3.95535 0
M  V30 3370 H 333.821 1.48196 4.61804 0
M  V30 3371 H 329.7 0.25584 4.6029 0
M  V30 3372 H 333.244 3.35992 6.11355 0
M  V30 3373 H 329.141 2.12541 6.09505 0
M  V30 3374 H 329.909 3.87751 7.20827 0
M  V30 3375 N 332.573 -1.56217 0.208337 0
M  V30 3376 C 333.85 -1.89739 -0.475234 0
M  V30 3377 C 334.23 -1.1238 -1.78701 0
M  V30 3378 O 333.578 -0.228979 -2.2735 0
M  V30 3379 C 333.788 -3.42289 -0.681101 0
M  V30 3380 C 335.136 -4.12789 -0.994507 0
M  V30 3381 O 336.16 -3.47814 -0.768357 0
M  V30 3382 O 335.019 -5.27649 -1.42299 0
M  V30 3383 H 332.113 -0.788478 -0.249461 0
M  V30 3384 H 334.659 -1.67855 0.249538 0
M  V30 3385 H 333.431 -3.90534 0.244722 0
M  V30 3386 H 333.054 -3.69909 -1.45785 0
M  V30 3387 N 334.051 0.0651679 -1.57465 0
M  V30 3388 C 334.981 1.07693 -2.07182 0
M  V30 3389 C 335.962 1.39962 -0.966673 0
M  V30 3390 O 337.147 1.49475 -1.2398 0
M  V30 3391 C 334.277 2.3885 -2.52127 0
M  V30 3392 C 333.231 2.20917 -3.66579 0
M  V30 3393 C 332.557 3.57515 -3.97601 0
M  V30 3394 C 333.857 1.62493 -4.9638 0
M  V30 3395 H 335.551 0.663199 -2.91962 0
M  V30 3396 H 333.097 0.317569 -1.40455 0
M  V30 3397 H 335.05 3.09928 -2.85522 0
M  V30 3398 H 333.774 2.82215 -1.64384 0
M  V30 3399 H 332.433 1.52279 -3.33477 0
M  V30 3400 H 332.081 3.98463 -3.06979 0
M  V30 3401 H 331.781 3.46353 -4.74672 0
M  V30 3402 H 333.305 4.30013 -4.33499 0
M  V30 3403 H 334.719 2.23445 -5.27963 0
M  V30 3404 H 333.116 1.62009 -5.77818 0
M  V30 3405 H 334.186 0.587041 -4.81333 0
M  V30 3406 N 335.529 1.53961 0.336706 0
M  V30 3407 C 336.777 1.71197 1.07405 0
M  V30 3408 C 337.098 0.481475 1.88962 0
M  V30 3409 O 336.368 -0.504585 1.8929 0
M  V30 3410 H 334.948 0.631185 0.399517 0
M  V30 3411 H 337.61 1.91232 0.376323 0
M  V30 3412 H 336.706 2.58587 1.74755 0
M  V30 3413 N 337.007 -0.598083 1.45811 0
M  V30 3414 C 338.423 -0.919847 1.30426 0
M  V30 3415 C 338.623 -1.99759 0.264303 0
M  V30 3416 O 337.679 -2.50221 -0.338472 0
M  V30 3417 C 338.992 -1.35176 2.68603 0
M  V30 3418 C 340.54 -1.46546 2.76574 0
M  V30 3419 C 341.015 -1.9311 4.15298 0
M  V30 3420 N 342.506 -2.00328 4.1764 0
M  V30 3421 C 343.241 -2.37599 5.21856 0
M  V30 3422 N 342.737 -2.73771 6.36413 0
M  V30 3423 N 344.53 -2.38021 5.09218 0
M  V30 3424 H 336.681 0.114111 2.12093 0
M  V30 3425 H 338.944 -0.0116121 0.947929 0
M  V30 3426 H 338.65 -0.633969 3.45939 0
M  V30 3427 H 338.524 -2.3164 2.97696 0
M  V30 3428 H 340.911 -2.17415 1.99537 0
M  V30 3429 H 340.992 -0.483727 2.51185 0
M  V30 3430 H 340.636 -1.22824 4.92825 0
M  V30 3431 H 340.566 -2.92213 4.38086 0
M  V30 3432 H 343.057 -1.74925 3.34977 0
M  V30 3433 H 343.37 -3.0112 7.11721 0
M  V30 3434 H 341.715 -2.71445 6.39799 0
M  V30 3435 H 344.906 -2.09174 4.18765 0
M  V30 3436 H 345.079 -2.66741 5.90554 0
M  V30 3437 N 338.485 -1.33259 -0.841409 0
M  V30 3438 C 339.901 -1.12538 -1.13169 0
M  V30 3439 C 340.101 0.0854037 -2.01319 0
M  V30 3440 O 339.157 0.766417 -2.40587 0
M  V30 3441 C 340.47 -2.41156 -1.79623 0
M  V30 3442 C 342.018 -2.47038 -1.922 0
M  V30 3443 C 342.493 -3.7561 -2.6207 0
M  V30 3444 N 343.984 -3.76667 -2.69585 0
M  V30 3445 C 344.719 -4.72861 -3.2433 0
M  V30 3446 N 344.215 -5.79428 -3.79783 0
M  V30 3447 N 346.008 -4.6034 -3.22558 0
M  V30 3448 H 338.159 -2.10868 -0.254676 0
M  V30 3449 H 340.422 -0.931615 -0.175493 0
M  V30 3450 H 340.128 -3.29747 -1.22311 0
M  V30 3451 H 340.002 -2.53114 -2.79666 0
M  V30 3452 H 342.389 -1.58898 -2.48667 0
M  V30 3453 H 342.47 -2.39022 -0.911148 0
M  V30 3454 H 342.114 -4.64131 -2.06263 0
M  V30 3455 H 342.044 -3.80902 -3.63622 0
M  V30 3456 H 344.535 -2.99648 -2.30259 0
M  V30 3457 H 344.848 -6.48867 -4.19752 0
M  V30 3458 H 343.193 -5.83166 -3.78078 0
M  V30 3459 H 346.384 -3.76244 -2.78492 0
M  V30 3460 H 346.557 -5.35478 -3.64921 0
M  V30 3461 N 339.963 1.05934 -1.16686 0
M  V30 3462 C 340.926 2.11669 -0.879144 0
M  V30 3463 C 341.926 1.60294 0.127445 0
M  V30 3464 O 343.116 1.7389 -0.103865 0
M  V30 3465 C 340.248 3.39438 -0.315425 0
M  V30 3466 H 341.441 2.38626 -1.81653 0
M  V30 3467 H 338.994 1.22058 -0.976299 0
M  V30 3468 H 339.729 3.18132 0.629468 0
M  V30 3469 H 339.514 3.78034 -1.04079 0
M  V30 3470 H 341.004 4.17391 -0.132189 0
M  V30 3471 N 341.441 0.965919 1.2453 0
M  V30 3472 C 342.69 0.622437 1.91856 0
M  V30 3473 C 343.003 -0.846006 1.76358 0
M  V30 3474 O 344.209 -1.29993 2.38357 0
M  V30 3475 C 342.665 1.0626 3.43856 0
M  V30 3476 C 342.273 2.55437 3.68043 0
M  V30 3477 C 344.017 0.792183 4.17043 0
M  V30 3478 C 341.924 2.93196 5.13605 0
M  V30 3479 H 340.854 0.229092 0.718354 0
M  V30 3480 H 343.505 1.17189 1.41206 0
M  V30 3481 H 341.887 0.441476 3.93531 0
M  V30 3482 H 343.061 3.22665 3.28974 0
M  V30 3483 H 341.376 2.8007 3.08139 0
M  V30 3484 H 343.973 1.05031 5.24283 0
M  V30 3485 H 344.316 -0.271584 4.15413 0
M  V30 3486 H 344.849 1.37419 3.73311 0
M  V30 3487 H 341.588 3.98636 5.20355 0
M  V30 3488 H 341.108 2.30651 5.53679 0
M  V30 3489 H 342.787 2.83004 5.81823 0
M  V30 3490 N 342.919 -1.39368 0.735821 0
M  V30 3491 C 343.882 -2.2896 0.104874 0
M  V30 3492 C 344.882 -1.46347 -0.666274 0
M  V30 3493 O 346.072 -1.67014 -0.49517 0
M  V30 3494 C 343.204 -3.29857 -0.860656 0
M  V30 3495 H 344.397 -2.86259 0.894205 0
M  V30 3496 H 341.95 -1.48029 0.501704 0
M  V30 3497 H 342.685 -2.77615 -1.67631 0
M  V30 3498 H 342.47 -3.9087 -0.310327 0
M  V30 3499 H 343.96 -3.96893 -1.29867 0
M  V30 3500 N 344.397 -0.483516 -1.5 0
M  V30 3501 C 345.627 0.0643896 -2.065 0
M  V30 3502 C 346.035 1.32949 -1.34615 0
M  V30 3503 O 345.378 1.79003 -0.412756 0
M  V30 3504 C 345.44 0.405983 -3.572 0
M  V30 3505 C 345.104 -0.758875 -4.50655 0
M  V30 3506 C 346.101 -1.64445 -4.93208 0
M  V30 3507 C 343.786 -0.952725 -4.93182 0
M  V30 3508 C 345.78 -2.70818 -5.77006 0
M  V30 3509 C 343.467 -2.01966 -5.76761 0
M  V30 3510 C 344.465 -2.89574 -6.18576 0
M  V30 3511 O 344.153 -3.94429 -7.00486 0
M  V30 3512 H 343.885 -0.00934786 -0.675935 0
M  V30 3513 H 346.439 -0.674959 -1.93993 0
M  V30 3514 H 344.669 1.19869 -3.67652 0
M  V30 3515 H 346.358 0.890433 -3.96013 0
M  V30 3516 H 347.124 -1.50643 -4.61012 0
M  V30 3517 H 343.003 -0.280247 -4.60147 0
M  V30 3518 H 346.547 -3.3923 -6.09565 0
M  V30 3519 H 342.444 -2.1577 -6.0837 0
M  V30 3520 H 343.212 -3.91568 -7.1876 0
M  V30 3521 N 345.875 1.56104 -0.216619 0
M  V30 3522 C 346.838 2.18819 0.681962 0
M  V30 3523 C 347.838 1.14866 1.12528 0
M  V30 3524 O 349.028 1.40128 1.03488 0
M  V30 3525 C 346.16 2.80756 1.93362 0
M  V30 3526 H 347.353 2.99595 0.135254 0
M  V30 3527 H 344.906 1.56265 0.0330003 0
M  V30 3528 H 345.641 2.03837 2.52232 0
M  V30 3529 H 345.426 3.56876 1.62426 0
M  V30 3530 H 346.916 3.28844 2.57393 0
M  V30 3531 N 347.353 -0.0568162 1.57498 0
M  V30 3532 C 348.581 -0.765626 1.92213 0
M  V30 3533 C 348.996 -1.70353 0.813961 0
M  V30 3534 O 348.353 -1.81268 -0.211701 0
M  V30 3535 C 348.404 -1.5465 3.2675 0
M  V30 3536 O 348.125 -0.646278 4.33307 0
M  V30 3537 C 349.626 -2.35497 3.75574 0
M  V30 3538 H 346.846 -0.216835 0.634999 0
M  V30 3539 H 349.39 -0.0226146 2.04487 0
M  V30 3540 H 347.545 -2.24165 3.15957 0
M  V30 3541 H 347.959 -1.19093 5.108 0
M  V30 3542 H 349.433 -2.85722 4.72299 0
M  V30 3543 H 349.91 -3.15692 3.05344 0
M  V30 3544 H 350.516 -1.7111 3.8936 0
M  V30 3545 N 348.832 -1.54138 -0.328536 0
M  V30 3546 C 349.782 -1.79557 -1.4051 0
M  V30 3547 C 350.766 -0.651373 -1.47126 0
M  V30 3548 O 351.958 -0.911226 -1.51742 0
M  V30 3549 C 349.087 -2.02196 -2.77438 0
M  V30 3550 C 348.173 -3.22724 -2.75155 0
M  V30 3551 N 348.564 -4.43881 -2.42494 0
M  V30 3552 C 346.862 -3.24196 -3.06289 0
M  V30 3553 C 347.563 -5.25797 -2.48822 0
M  V30 3554 N 346.539 -4.62862 -2.8506 0
M  V30 3555 H 350.341 -2.70814 -1.1418 0
M  V30 3556 H 347.855 -1.53265 -0.536991 0
M  V30 3557 H 349.852 -2.18546 -3.55026 0
M  V30 3558 H 348.512 -1.12191 -3.04702 0
M  V30 3559 H 349.523 -4.70969 -2.15428 0
M  V30 3560 H 346.2 -2.44208 -3.38627 0
M  V30 3561 H 347.59 -6.32535 -2.26603 0
M  V30 3562 N 350.31 0.590341 -1.46126 0
M  V30 3563 C 351.726 0.912917 -1.30912 0
M  V30 3564 C 351.926 1.99616 -0.274893 0
M  V30 3565 O 350.982 2.50397 0.325197 0
M  V30 3566 C 352.295 1.3375 -2.69317 0
M  V30 3567 C 353.843 1.45077 -2.77348 0
M  V30 3568 C 354.318 1.90904 -4.16317 0
M  V30 3569 N 355.809 1.9811 -4.18696 0
M  V30 3570 C 356.544 2.34828 -5.23109 0
M  V30 3571 N 356.04 2.70393 -6.37856 0
M  V30 3572 N 357.833 2.35317 -5.10473 0
M  V30 3573 H 349.984 -0.125358 -2.1203 0
M  V30 3574 H 352.247 0.00658481 -0.947977 0
M  V30 3575 H 351.953 0.615614 -3.4627 0
M  V30 3576 H 351.827 2.30058 -2.9892 0
M  V30 3577 H 354.214 2.16353 -2.00687 0
M  V30 3578 H 354.295 0.4704 -2.51438 0
M  V30 3579 H 353.939 1.20209 -4.9347 0
M  V30 3580 H 353.869 2.89886 -4.39629 0
M  V30 3581 H 356.36 1.73146 -3.359 0
M  V30 3582 H 356.673 2.97341 -7.13308 0
M  V30 3583 H 355.018 2.68048 -6.41229 0
M  V30 3584 H 358.209 2.0695 -4.19868 0
M  V30 3585 H 358.382 2.63605 -5.9196 0
M  V30 3586 N 351.788 1.33704 0.83433 0
M  V30 3587 C 353.065 1.16011 1.57483 0
M  V30 3588 C 353.445 -0.27176 2.09343 0
M  V30 3589 O 352.793 -1.27146 1.89858 0
M  V30 3590 C 353.003 2.20507 2.70514 0
M  V30 3591 C 354.351 2.54898 3.39577 0
M  V30 3592 O 355.375 2.19209 2.80759 0
M  V30 3593 O 354.234 3.16158 4.45765 0
M  V30 3594 H 351.328 0.448992 0.694503 0
M  V30 3595 H 353.874 1.453 0.876691 0
M  V30 3596 H 352.646 3.16667 2.29865 0
M  V30 3597 H 352.269 1.92329 3.47987 0
M  V30 3598 N 353.266 -1.05314 1.17247 0
M  V30 3599 C 354.491 -1.82509 0.985148 0
M  V30 3600 C 354.916 -1.82343 -0.461788 0
M  V30 3601 O 354.274 -1.23151 -1.33055 0
M  V30 3602 C 354.322 -3.26566 1.52929 0
M  V30 3603 O 353.426 -4.05666 0.742225 0
M  V30 3604 H 352.767 -0.564347 0.349869 0
M  V30 3605 H 355.297 -1.32718 1.55715 0
M  V30 3606 H 355.307 -3.77369 1.55103 0
M  V30 3607 H 353.982 -3.26001 2.58256 0
M  V30 3608 H 352.559 -3.64397 0.791794 0
M  V30 3609 N 354.744 -0.972509 -1.24016 0
M  V30 3610 C 355.974 -0.653853 -1.9598 0
M  V30 3611 C 356.382 0.781801 -1.72292 0
M  V30 3612 O 355.725 1.53677 -1.00644 0
M  V30 3613 C 355.787 -0.854608 -3.49194 0
M  V30 3614 C 355.451 -2.27082 -3.96589 0
M  V30 3615 C 356.448 -3.24892 -4.05883 0
M  V30 3616 C 354.133 -2.5998 -4.29786 0
M  V30 3617 C 356.127 -4.53684 -4.47716 0
M  V30 3618 C 353.814 -3.88997 -4.71301 0
M  V30 3619 C 354.812 -4.85661 -4.80232 0
M  V30 3620 O 354.5 -6.12376 -5.20818 0
M  V30 3621 H 354.232 -0.242572 -0.630979 0
M  V30 3622 H 356.786 -1.30431 -1.58673 0
M  V30 3623 H 355.016 -0.146985 -3.86421 0
M  V30 3624 H 356.705 -0.534311 -4.02368 0
M  V30 3625 H 357.471 -3.00805 -3.80449 0
M  V30 3626 H 353.35 -1.85457 -4.22051 0
M  V30 3627 H 356.894 -5.29135 -4.54601 0
M  V30 3628 H 352.791 -4.12882 -4.96184 0
M  V30 3629 H 353.559 -6.16013 -5.38953 0
M  V30 3630 N 356.222 1.38976 -0.743202 0
M  V30 3631 C 357.447 2.05161 -0.303936 0
M  V30 3632 C 357.872 1.55677 1.05576 0
M  V30 3633 O 357.23 0.704131 1.67068 0
M  V30 3634 C 357.278 3.59138 -0.324373 0
M  V30 3635 O 356.382 4.06668 0.685204 0
M  V30 3636 H 355.723 0.649815 -0.136518 0
M  V30 3637 H 358.253 1.77852 -1.01142 0
M  V30 3638 H 358.263 4.07639 -0.171618 0
M  V30 3639 H 356.938 3.94515 -1.31647 0
M  V30 3640 H 355.515 3.69561 0.497913 0
M  V30 3641 N 357.7 0.491464 1.49741 0
M  V30 3642 C 358.948 -0.0563141 2.02022 0
M  V30 3643 C 359.269 -1.38363 1.37407 0
M  V30 3644 O 358.539 -1.88702 0.526166 0
M  V30 3645 H 357.119 -0.0238014 0.746621 0
M  V30 3646 H 359.781 0.646533 1.83864 0
M  V30 3647 H 358.877 -0.192967 3.11503 0
M  V30 3648 N 359.178 -1.55987 0.224894 0
M  V30 3649 C 360.426 -1.97998 -0.405099 0
M  V30 3650 C 360.747 -1.11387 -1.60056 0
M  V30 3651 O 360.017 -0.191645 -1.9496 0
M  V30 3652 H 358.597 -0.731235 -0.152658 0
M  V30 3653 H 361.259 -1.92279 0.318567 0
M  V30 3654 H 360.355 -3.03463 -0.729167 0
M  V30 3655 N 360.656 0.0484629 -1.57525 0
M  V30 3656 C 361.902 0.744226 -1.88651 0
M  V30 3657 C 362.235 1.76029 -0.820212 0
M  V30 3658 O 361.51 1.93782 0.166985 0
M  V30 3659 C 361.793 1.43128 -3.30434 0
M  V30 3660 C 361.646 0.43005 -4.47739 0
M  V30 3661 C 362.965 2.37031 -3.70816 0
M  V30 3662 H 360.084 0.269089 -0.68612 0
M  V30 3663 H 362.726 0.00713532 -1.89999 0
M  V30 3664 H 360.876 2.05956 -3.29415 0
M  V30 3665 H 362.548 -0.194816 -4.60888 0
M  V30 3666 H 360.791 -0.252522 -4.33064 0
M  V30 3667 H 361.462 0.948874 -5.43783 0
M  V30 3668 H 363.938 1.84263 -3.73077 0
M  V30 3669 H 362.814 2.82094 -4.70865 0
M  V30 3670 H 363.075 3.22864 -3.02012 0
M  V30 3671 N 362.134 1.5431 0.320358 0
M  V30 3672 C 363.38 1.72924 1.05949 0
M  V30 3673 C 363.713 0.503185 1.87568 0
M  V30 3674 O 362.988 -0.499839 1.87968 0
M  V30 3675 C 363.271 3.00676 1.98156 0
M  V30 3676 C 363.124 4.3354 1.19845 0
M  V30 3677 C 364.443 3.24198 2.9763 0
M  V30 3678 H 361.562 0.629195 0.383774 0
M  V30 3679 H 364.204 1.87008 0.335854 0
M  V30 3680 H 362.354 2.888 2.59859 0
M  V30 3681 H 364.026 4.57305 0.605773 0
M  V30 3682 H 362.269 4.309 0.500784 0
M  V30 3683 H 362.94 5.19156 1.87567 0
M  V30 3684 H 365.416 3.35557 2.4605 0
M  V30 3685 H 364.292 4.14938 3.59329 0
M  V30 3686 H 364.553 2.41577 3.7026 0
M  V30 3687 N 363.613 -0.582584 1.46437 0
M  V30 3688 C 364.561 -1.71272 1.5738 0
M  V30 3689 C 365.555 -1.63524 0.44229 0
M  V30 3690 O 366.761 -1.69016 0.619166 0
M  V30 3691 H 363.136 -0.566273 0.494813 0
M  V30 3692 H 365.107 -1.59174 2.52401 0
M  V30 3693 C 363.856 -3.09658 1.58136 0
M  V30 3694 H 363.179 -3.16291 2.44541 0
M  V30 3695 H 364.619 -3.88494 1.69847 0
M  V30 3696 C 363.078 -3.3547 0.310026 0
M  V30 3697 O 363.608 -3.97199 -0.599683 0
M  V30 3698 N 361.814 -2.89925 0.197901 0
M  V30 3699 H 361.361 -2.39873 0.93909 0
M  V30 3700 H 361.319 -3.07568 -0.65185 0
M  V30 3701 N 365.091 -1.34144 -0.827227 0
M  V30 3702 C 366.024 -1.19707 -1.94282 0
M  V30 3703 C 367.002 -0.0897256 -1.62352 0
M  V30 3704 O 368.186 -0.254095 -1.8678 0
M  V30 3705 C 365.313 -0.838646 -3.28153 0
M  V30 3706 C 364.359 -1.95514 -3.79047 0
M  V30 3707 S 365.192 -3.56793 -3.99323 0
M  V30 3708 C 366.348 -3.22983 -5.36127 0
M  V30 3709 H 366.581 -2.1414 -2.06231 0
M  V30 3710 H 364.114 -1.19121 -0.982321 0
M  V30 3711 H 366.072 -0.638637 -4.05502 0
M  V30 3712 H 364.733 0.0872776 -3.13979 0
M  V30 3713 H 363.926 -1.658 -4.75948 0
M  V30 3714 H 363.528 -2.11241 -3.08631 0
M  V30 3715 H 365.82 -2.74531 -6.19386 0
M  V30 3716 H 366.763 -4.19008 -5.70822 0
M  V30 3717 H 367.171 -2.59276 -5.01434 0
M  V30 3718 N 366.569 1.04691 -1.17803 0
M  V30 3719 C 367.799 1.81183 -0.992788 0
M  V30 3720 C 368.207 1.8347 0.462098 0
M  V30 3721 O 367.55 1.2643 1.33271 0
M  V30 3722 C 367.612 3.28363 -1.46349 0
M  V30 3723 C 367.276 3.49749 -2.94151 0
M  V30 3724 C 368.273 3.41456 -3.92051 0
M  V30 3725 C 365.958 3.76548 -3.32441 0
M  V30 3726 C 367.952 3.59656 -5.26238 0
M  V30 3727 C 365.639 3.94396 -4.66792 0
M  V30 3728 C 366.637 3.8595 -5.635 0
M  V30 3729 O 366.325 4.03294 -6.9542 0
M  V30 3730 H 366.057 0.577622 -0.351182 0
M  V30 3731 H 368.611 1.32876 -1.5663 0
M  V30 3732 H 366.841 3.77609 -0.833574 0
M  V30 3733 H 368.53 3.86395 -1.24313 0
M  V30 3734 H 369.296 3.20723 -3.63815 0
M  V30 3735 H 365.175 3.82224 -2.57732 0
M  V30 3736 H 368.719 3.52979 -6.01707 0
M  V30 3737 H 364.616 4.14622 -4.94731 0
M  V30 3738 H 365.384 4.2049 -7.02232 0
M  V30 3739 N 368.047 0.979072 1.23499 0
M  V30 3740 C 368.997 0.489378 2.22686 0
M  V30 3741 C 369.981 -0.434871 1.54912 0
M  V30 3742 O 371.173 -0.263941 1.75021 0
M  V30 3743 C 368.302 -0.208178 3.42668 0
M  V30 3744 C 367.388 0.735563 4.17672 0
M  V30 3745 N 367.779 1.87763 4.69658 0
M  V30 3746 C 366.077 0.548625 4.42613 0
M  V30 3747 C 366.778 2.46886 5.26709 0
M  V30 3748 N 365.754 1.75287 5.14563 0
M  V30 3749 H 369.556 1.36062 2.60508 0
M  V30 3750 H 367.07 0.83958 1.39014 0
M  V30 3751 H 369.067 -0.576295 4.12898 0
M  V30 3752 H 367.727 -1.07572 3.06363 0
M  V30 3753 H 368.738 2.25885 4.66043 0
M  V30 3754 H 365.415 -0.274006 4.166 0
M  V30 3755 H 366.805 3.43326 5.77561 0
M  V30 3756 N 369.525 -1.3858 0.750561 0
M  V30 3757 C 370.458 -2.28095 0.0693139 0
M  V30 3758 C 371.436 -1.45217 -0.731491 0
M  V30 3759 O 372.62 -1.74587 -0.71076 0
M  V30 3760 C 369.747 -3.26282 -0.90871 0
M  V30 3761 C 368.793 -4.26056 -0.194507 0
M  V30 3762 S 369.626 -5.24026 1.10257 0
M  V30 3763 C 370.782 -6.2577 0.127542 0
M  V30 3764 H 371.015 -2.85526 0.8284 0
M  V30 3765 H 368.548 -1.44536 0.543014 0
M  V30 3766 H 370.506 -3.83367 -1.46766 0
M  V30 3767 H 369.167 -2.6784 -1.64075 0
M  V30 3768 H 368.36 -4.95249 -0.93512 0
M  V30 3769 H 367.962 -3.72852 0.292837 0
M  V30 3770 H 370.254 -6.73796 -0.707516 0
M  V30 3771 H 371.197 -7.03712 0.787044 0
M  V30 3772 H 371.605 -5.63938 -0.251803 0
M  V30 3773 N 371.003 -0.499398 -1.49478 0
M  V30 3774 C 371.95 0.279881 -2.29097 0
M  V30 3775 C 372.92 0.961805 -1.3542 0
M  V30 3776 O 374.105 0.968777 -1.64376 0
M  V30 3777 C 371.245 1.33932 -3.18051 0
M  V30 3778 C 370.358 0.669333 -4.26783 0
M  V30 3779 C 369.493 1.70907 -5.02955 0
M  V30 3780 C 368.532 1.02087 -6.03527 0
M  V30 3781 N 367.669 2.00474 -6.7287 0
M  V30 3782 H 372.509 -0.405317 -2.95231 0
M  V30 3783 H 370.046 -0.211726 -1.45568 0
M  V30 3784 H 372.004 1.96553 -3.67998 0
M  V30 3785 H 370.634 1.9933 -2.53904 0
M  V30 3786 H 369.686 -0.0701234 -3.80335 0
M  V30 3787 H 370.998 0.127503 -4.98637 0
M  V30 3788 H 370.152 2.41037 -5.56764 0
M  V30 3789 H 368.891 2.28476 -4.30871 0
M  V30 3790 H 367.896 0.305338 -5.48951 0
M  V30 3791 H 369.121 0.451708 -6.77596 0
M  V30 3792 H 367.067 2.57007 -6.03559 0
M  V30 3793 H 366.984 1.51353 -7.40694 0
M  V30 3794 H 368.252 2.69897 -7.31284 0
M  V30 3795 N 372.481 1.55866 -0.233164 0
M  V30 3796 C 373.391 2.24431 0.683217 0
M  V30 3797 C 374.407 1.2558 1.2044 0
M  V30 3798 O 375.583 1.58422 1.24356 0
M  V30 3799 C 372.648 2.91979 1.86947 0
M  V30 3800 C 371.709 4.06204 1.38912 0
M  V30 3801 C 370.942 4.70522 2.51883 0
M  V30 3802 O 371.165 4.33865 3.70293 0
M  V30 3803 O 370.099 5.59296 2.22423 0
M  V30 3804 H 373.925 3.03426 0.129059 0
M  V30 3805 H 371.51 1.494 -0.0022283 0
M  V30 3806 H 373.392 3.34573 2.56201 0
M  V30 3807 H 372.067 2.15935 2.41151 0
M  V30 3808 H 370.974 3.68155 0.664259 0
M  V30 3809 H 372.307 4.84025 0.893328 0
M  V30 3810 N 373.959 -0.0401083 1.57549 0
M  V30 3811 C 375.236 -0.767917 1.79896 0
M  V30 3812 C 375.616 -1.9416 0.82856 0
M  V30 3813 O 374.964 -2.2812 -0.131671 0
M  V30 3814 C 375.174 -1.2113 3.27305 0
M  V30 3815 C 376.522 -1.63175 3.91994 0
M  V30 3816 O 377.546 -1.30616 3.31388 0
M  V30 3817 O 376.405 -2.23565 4.98679 0
M  V30 3818 H 373.499 -0.370441 0.739393 0
M  V30 3819 H 376.045 -0.017737 1.69691 0
M  V30 3820 H 374.817 -0.372937 3.89519 0
M  V30 3821 H 374.44 -2.02183 3.42356 0
M  V30 3822 N 375.437 -1.54477 -0.31217 0
M  V30 3823 C 376.685 -1.72884 -1.04668 0
M  V30 3824 C 377.006 -0.511477 -1.88173 0
M  V30 3825 O 376.276 0.474407 -1.90069 0
M  V30 3826 H 374.856 -0.637461 -0.389425 0
M  V30 3827 H 377.518 -1.91807 -0.345852 0
M  V30 3828 H 376.614 -2.61334 -1.70619 0
M  V30 3829 N 376.915 0.57481 -1.46744 0
M  V30 3830 C 378.161 1.33251 -1.53674 0
M  V30 3831 C 378.516 1.91468 -0.189125 0
M  V30 3832 O 377.809 1.73954 0.803151 0
M  V30 3833 C 378.003 2.476 -2.57738 0
M  V30 3834 C 377.832 2.00586 -4.02487 0
M  V30 3835 C 376.602 1.85237 -4.70123 0
M  V30 3836 C 378.8 1.56078 -4.90045 0
M  V30 3837 N 376.782 1.32377 -5.99458 0
M  V30 3838 C 378.153 1.14863 -6.09267 0
M  V30 3839 C 380.208 1.43968 -4.76632 0
M  V30 3840 C 378.911 0.627435 -7.16558 0
M  V30 3841 C 380.937 0.932512 -5.84002 0
M  V30 3842 C 380.299 0.53019 -7.02402 0
M  V30 3843 H 376.398 0.480284 -0.617131 0
M  V30 3844 H 378.982 0.653592 -1.83402 0
M  V30 3845 H 377.153 3.13045 -2.29907 0
M  V30 3846 H 378.885 3.14567 -2.54616 0
M  V30 3847 H 375.64 2.07423 -4.25761 0
M  V30 3848 H 376.064 1.08085 -6.68316 0
M  V30 3849 H 380.706 1.73689 -3.85476 0
M  V30 3850 H 378.424 0.317821 -8.07475 0
M  V30 3851 H 382.01 0.842611 -5.75666 0
M  V30 3852 H 380.89 0.14381 -7.84068 0
M  V30 3853 N 378.394 1.34581 0.820102 0
M  V30 3854 C 379.64 1.27285 1.57881 0
M  V30 3855 C 379.973 -0.156137 1.93571 0
M  V30 3856 O 379.248 -1.10222 1.60254 0
M  V30 3857 C 379.531 2.16639 2.87645 0
M  V30 3858 C 379.384 3.68088 2.58517 0
M  V30 3859 C 380.703 2.05378 3.8924 0
M  V30 3860 H 377.822 0.463714 0.572833 0
M  V30 3861 H 380.464 1.64859 0.944539 0
M  V30 3862 H 378.614 1.84725 3.41773 0
M  V30 3863 H 380.286 4.10382 2.10676 0
M  V30 3864 H 378.529 3.89038 1.91917 0
M  V30 3865 H 379.2 4.2598 3.51063 0
M  V30 3866 H 381.676 2.33404 3.44473 0
M  V30 3867 H 380.552 2.7012 4.77835 0
M  V30 3868 H 380.813 1.0316 4.29896 0
M  V30 3869 N 379.872 -1.04064 1.18357 0
M  V30 3870 C 380.819 -2.12077 0.910603 0
M  V30 3871 C 381.789 -1.65421 -0.15 0
M  V30 3872 O 382.974 -1.90797 -0.0103614 0
M  V30 3873 C 380.114 -3.42252 0.442472 0
M  V30 3874 C 379.227 -4.0252 1.5685 0
M  V30 3875 C 378.362 -5.20657 1.05309 0
M  V30 3876 C 377.401 -5.72955 2.1538 0
M  V30 3877 N 376.538 -6.8238 1.65233 0
M  V30 3878 H 381.378 -2.34764 1.83548 0
M  V30 3879 H 378.915 -1.15157 0.915279 0
M  V30 3880 H 380.873 -4.16921 0.152534 0
M  V30 3881 H 379.503 -3.19712 -0.445428 0
M  V30 3882 H 378.555 -3.25178 1.97391 0
M  V30 3883 H 379.867 -4.37362 2.39824 0
M  V30 3884 H 379.021 -6.0244 0.717677 0
M  V30 3885 H 377.76 -4.87318 0.19293 0
M  V30 3886 H 376.765 -4.89793 2.49766 0
M  V30 3887 H 377.99 -6.08337 3.01832 0
M  V30 3888 H 375.936 -6.50917 0.815064 0
M  V30 3889 H 375.853 -7.16286 2.41805 0
M  V30 3890 H 377.121 -7.67788 1.34619 0
M  V30 3891 N 381.35 -0.985608 -1.22978 0
M  V30 3892 C 382.596 -0.65836 -1.91816 0
M  V30 3893 C 382.929 0.806692 -1.76653 0
M  V30 3894 O 382.204 1.58252 -1.13078 0
M  V30 3895 C 382.487 -1.056 -3.44268 0
M  V30 3896 C 382.34 -2.57906 -3.68516 0
M  V30 3897 C 383.659 -0.603781 -4.35939 0
M  V30 3898 H 380.778 -0.24065 -0.696604 0
M  V30 3899 H 383.42 -1.22783 -1.44998 0
M  V30 3900 H 381.57 -0.571445 -3.84274 0
M  V30 3901 H 383.242 -3.13976 -3.3796 0
M  V30 3902 H 381.485 -3.00305 -3.13048 0
M  V30 3903 H 382.156 -2.80779 -4.75255 0
M  V30 3904 H 384.632 -1.01987 -4.03408 0
M  V30 3905 H 383.508 -0.910383 -5.41298 0
M  V30 3906 H 383.769 0.495761 -4.39312 0
M  V30 3907 N 382.828 1.3818 -0.7579 0
M  V30 3908 C 383.738 2.3421 -0.135247 0
M  V30 3909 C 384.754 1.59487 0.695683 0
M  V30 3910 O 385.93 1.91657 0.618832 0
M  V30 3911 C 382.995 3.3862 0.744139 0
M  V30 3912 C 382.056 4.2918 -0.101658 0
M  V30 3913 C 381.289 5.28603 0.735851 0
M  V30 3914 O 381.512 5.35166 1.97366 0
M  V30 3915 O 380.446 6.01707 0.152372 0
M  V30 3916 H 384.272 2.8916 -0.928436 0
M  V30 3917 H 381.857 1.40101 -0.518855 0
M  V30 3918 H 383.739 4.02539 1.2466 0
M  V30 3919 H 382.414 2.86019 1.51575 0
M  V30 3920 H 381.321 3.68407 -0.650167 0
M  V30 3921 H 382.654 4.85048 -0.836024 0
M  V30 3922 N 384.306 0.507319 1.49211 0
M  V30 3923 C 385.531 -0.033725 2.07373 0
M  V30 3924 C 385.956 -1.29485 1.36437 0
M  V30 3925 O 385.314 -1.76294 0.423087 0
M  V30 3926 C 385.362 -0.263945 3.59633 0
M  V30 3927 O 384.466 -1.33737 3.90113 0
M  V30 3928 H 383.807 0.0290331 0.663365 0
M  V30 3929 H 386.337 0.708749 1.91932 0
M  V30 3930 H 386.347 -0.493536 4.05004 0
M  V30 3931 H 385.022 0.657424 4.10671 0
M  V30 3932 H 383.599 -1.09224 3.56545 0
M  V30 3933 N 385.784 -1.5574 0.241426 0
M  V30 3934 C 387.012 -2.03208 -0.389134 0
M  V30 3935 C 387.427 -1.12082 -1.51931 0
M  V30 3936 O 386.784 -0.134183 -1.82006 0
M  V30 3937 C 386.835 -3.50064 -0.902087 0
M  V30 3938 O 386.556 -4.37717 0.18305 0
M  V30 3939 C 388.057 -4.13268 -1.60389 0
M  V30 3940 H 385.277 -0.664509 -0.0931053 0
M  V30 3941 H 387.821 -2.0124 0.36369 0
M  V30 3942 H 385.976 -3.52583 -1.60511 0
M  V30 3943 H 386.39 -5.24097 -0.205579 0
M  V30 3944 H 387.864 -5.17733 -1.91458 0
M  V30 3945 H 388.341 -3.59434 -2.52397 0
M  V30 3946 H 388.947 -4.14655 -0.945576 0
M  V30 3947 N 387.262 0.0317525 -1.57568 0
M  V30 3948 C 388.539 0.758366 -1.803 0
M  V30 3949 C 388.919 1.93718 -0.838845 0
M  V30 3950 O 388.267 2.28187 0.119571 0
M  V30 3951 C 388.477 1.19392 -3.27943 0
M  V30 3952 C 389.825 1.61094 -3.92854 0
M  V30 3953 O 390.849 1.28857 -3.32076 0
M  V30 3954 O 389.708 2.20918 -4.99858 0
M  V30 3955 H 386.802 0.366514 -0.741348 0
M  V30 3956 H 389.348 0.00873765 -1.69698 0
M  V30 3957 H 388.12 0.352275 -3.89711 0
M  V30 3958 H 387.743 2.00365 -3.43424 0
M  V30 3959 N 388.74 1.54641 0.303973 0
M  V30 3960 C 389.986 1.74038 1.04109 0
M  V30 3961 C 390.319 0.523051 1.87024 0
M  V30 3962 O 389.594 -0.479874 1.88487 0
M  V30 3963 C 389.877 3.02761 1.94955 0
M  V30 3964 C 389.73 4.34787 1.1524 0
M  V30 3965 C 391.049 3.27336 2.94175 0
M  V30 3966 H 388.168 0.63323 0.377079 0
M  V30 3967 H 390.81 1.87354 0.316001 0
M  V30 3968 H 388.96 2.9154 2.56782 0
M  V30 3969 H 390.632 4.57922 0.557236 0
M  V30 3970 H 388.875 4.31407 0.455053 0
M  V30 3971 H 389.546 5.21116 1.8205 0
M  V30 3972 H 392.022 3.38148 2.42477 0
M  V30 3973 H 390.898 4.18726 3.54908 0
M  V30 3974 H 391.159 2.45491 3.67677 0
M  V30 3975 N 390.218 -0.567019 1.47046 0
M  V30 3976 C 391.443 -1.3551 1.57009 0
M  V30 3977 C 391.868 -1.86841 0.217259 0
M  V30 3978 O 391.226 -1.62435 -0.805268 0
M  V30 3979 C 391.274 -2.50777 2.5912 0
M  V30 3980 O 390.378 -3.52706 2.13711 0
M  V30 3981 H 389.719 -0.402919 0.52778 0
M  V30 3982 H 392.249 -0.686241 1.92748 0
M  V30 3983 H 392.259 -2.97481 2.79229 0
M  V30 3984 H 390.934 -2.12771 3.57353 0
M  V30 3985 H 389.511 -3.12374 2.03659 0
M  V30 3986 N 391.696 -1.35014 -0.812953 0
M  V30 3987 C 392.973 -1.18502 -1.55617 0
M  V30 3988 C 393.353 0.238421 -2.09749 0
M  V30 3989 O 392.701 1.2411 -1.91857 0
M  V30 3990 C 392.911 -2.24783 -2.66971 0
M  V30 3991 C 394.259 -2.60268 -3.35478 0
M  V30 3992 O 395.283 -2.23648 -2.77236 0
M  V30 3993 O 394.142 -3.2321 -4.40678 0
M  V30 3994 H 391.236 -0.459984 -0.687272 0
M  V30 3995 H 393.782 -1.46677 -0.853464 0
M  V30 3996 H 392.554 -3.20284 -2.24798 0
M  V30 3997 H 392.177 -1.97841 -3.44884 0
M  V30 3998 N 393.175 1.03435 -1.18907 0
M  V30 3999 C 394.105 2.13503 -0.945448 0
M  V30 4000 C 395.086 1.69682 0.119189 0
M  V30 4001 O 396.271 1.94169 -0.034707 0
M  V30 4002 C 393.401 3.44004 -0.477316 0
M  V30 4003 C 392.355 4.0148 -1.48316 0
M  V30 4004 C 391.681 5.27537 -0.872311 0
M  V30 4005 C 392.981 4.36921 -2.86177 0
M  V30 4006 H 394.675 2.34141 -1.86597 0
M  V30 4007 H 392.221 1.12523 -0.898584 0
M  V30 4008 H 394.174 4.20372 -0.294204 0
M  V30 4009 H 392.898 3.23072 0.478786 0
M  V30 4010 H 391.557 3.27201 -1.65332 0
M  V30 4011 H 391.205 5.02917 0.0911752 0
M  V30 4012 H 390.905 5.66954 -1.54393 0
M  V30 4013 H 392.429 6.06576 -0.699871 0
M  V30 4014 H 393.843 5.04248 -2.72776 0
M  V30 4015 H 392.24 4.87405 -3.50081 0
M  V30 4016 H 393.31 3.46466 -3.39248 0
M  V30 4017 N 394.653 0.992116 1.22453 0
M  V30 4018 C 395.583 0.561677 2.26644 0
M  V30 4019 C 396.564 -0.411055 1.65059 0
M  V30 4020 O 397.749 -0.301861 1.9184 0
M  V30 4021 C 394.879 -0.125247 3.47074 0
M  V30 4022 C 393.833 0.765948 4.21091 0
M  V30 4023 C 393.159 -0.0538484 5.34673 0
M  V30 4024 C 394.459 2.06242 4.79856 0
M  V30 4025 H 396.153 1.43259 2.62902 0
M  V30 4026 H 393.699 0.690283 1.26377 0
M  V30 4027 H 395.652 -0.437764 4.1912 0
M  V30 4028 H 394.376 -1.03069 3.0991 0
M  V30 4029 H 393.035 1.0621 3.50878 0
M  V30 4030 H 392.683 -0.960188 4.9375 0
M  V30 4031 H 392.383 0.539415 5.85119 0
M  V30 4032 H 393.907 -0.360477 6.09535 0
M  V30 4033 H 395.321 1.8139 5.43848 0
M  V30 4034 H 393.718 2.60444 5.40638 0
M  V30 4035 H 394.788 2.74167 3.99951 0
M  V30 4036 N 396.131 -1.37776 0.765217 0
M  V30 4037 C 397.081 -2.2768 0.12075 0
M  V30 4038 C 398.065 -1.45778 -0.680988 0
M  V30 4039 O 399.257 -1.684 -0.545033 0
M  V30 4040 C 396.386 -3.34722 -0.762626 0
M  V30 4041 C 395.472 -4.24074 0.0465881 0
M  V30 4042 N 395.863 -4.93939 1.08892 0
M  V30 4043 C 394.161 -4.45643 -0.178418 0
M  V30 4044 C 394.862 -5.59845 1.57951 0
M  V30 4045 N 393.838 -5.36218 0.892797 0
M  V30 4046 H 397.64 -2.79166 0.918889 0
M  V30 4047 H 395.154 -1.50816 0.602353 0
M  V30 4048 H 397.151 -3.98031 -1.24005 0
M  V30 4049 H 395.811 -2.84793 -1.55959 0
M  V30 4050 H 396.822 -4.96572 1.47095 0
M  V30 4051 H 393.499 -4.06599 -0.9478 0
M  V30 4052 H 394.889 -6.25703 2.44838 0
M  V30 4053 N 397.609 -0.515225 -1.4894 0
M  V30 4054 C 398.541 0.292481 -2.27326 0
M  V30 4055 C 399.554 0.917838 -1.3446 0
M  V30 4056 O 400.743 0.798772 -1.5963 0
M  V30 4057 C 397.843 1.42803 -3.07344 0
M  V30 4058 C 397.016 0.907347 -4.27885 0
M  V30 4059 C 396.075 1.92222 -4.89834 0
M  V30 4060 O 395.101 1.48506 -5.49486 0
M  V30 4061 N 396.303 3.25355 -4.80754 0
M  V30 4062 H 399.068 -0.379721 -2.97285 0
M  V30 4063 H 396.629 -0.348638 -1.58102 0
M  V30 4064 H 398.621 2.10481 -3.45658 0
M  V30 4065 H 397.191 2.00414 -2.39902 0
M  V30 4066 H 396.411 0.0550218 -3.94162 0
M  V30 4067 H 397.699 0.538108 -5.05946 0
M  V30 4068 H 397.097 3.6355 -4.33414 0
M  V30 4069 H 395.654 3.88707 -5.23211 0
M  V30 4070 N 399.087 1.5561 -0.249682 0
M  V30 4071 C 400.317 2.03116 0.377803 0
M  V30 4072 C 400.725 1.12822 1.51881 0
M  V30 4073 O 400.068 0.13562 1.83199 0
M  V30 4074 C 400.13 3.46866 0.944693 0
M  V30 4075 C 399.794 4.56955 -0.0644259 0
M  V30 4076 C 400.791 5.12485 -0.874957 0
M  V30 4077 C 398.476 5.01936 -0.19132 0
M  V30 4078 C 400.47 6.11491 -1.79881 0
M  V30 4079 C 398.157 6.00773 -1.11868 0
M  V30 4080 C 399.155 6.5543 -1.92095 0
M  V30 4081 O 398.843 7.5234 -2.83267 0
M  V30 4082 H 398.575 0.669489 0.0935961 0
M  V30 4083 H 401.129 2.02004 -0.371966 0
M  V30 4084 H 399.359 3.45136 1.74407 0
M  V30 4085 H 401.048 3.77856 1.48255 0
M  V30 4086 H 401.814 4.78564 -0.787523 0
M  V30 4087 H 397.693 4.59055 0.423072 0
M  V30 4088 H 401.237 6.54078 -2.42543 0
M  V30 4089 H 397.134 6.34114 -1.20703 0
M  V30 4090 H 397.902 7.69966 -2.7766 0
M  V30 4091 N 400.565 -0.0233959 1.57583 0
M  V30 4092 C 401.981 -0.379134 1.55031 0
M  V30 4093 C 402.181 -1.76255 0.976548 0
M  V30 4094 O 401.237 -2.45266 0.600078 0
M  V30 4095 C 402.55 -0.275792 2.99433 0
M  V30 4096 C 404.098 -0.352458 3.11009 0
M  V30 4097 C 404.573 -0.278501 4.57152 0
M  V30 4098 N 406.064 -0.337123 4.61972 0
M  V30 4099 C 406.799 -0.302876 5.726 0
M  V30 4100 N 406.295 -0.220589 6.92449 0
M  V30 4101 N 408.088 -0.353023 5.6099 0
M  V30 4102 H 400.239 0.881869 1.93227 0
M  V30 4103 H 402.502 0.335867 0.886509 0
M  V30 4104 H 402.208 0.675108 3.4516 0
M  V30 4105 H 402.082 -1.06721 3.61788 0
M  V30 4106 H 404.469 -1.29379 2.65226 0
M  V30 4107 H 404.55 0.468409 2.51475 0
M  V30 4108 H 404.194 0.659189 5.03604 0
M  V30 4109 H 404.124 -1.11755 5.14605 0
M  V30 4110 H 406.615 -0.403002 3.75745 0
M  V30 4111 H 406.928 -0.199713 7.72542 0
M  V30 4112 H 405.273 -0.186555 6.9475 0
M  V30 4113 H 408.464 -0.415339 4.66254 0
M  V30 4114 H 408.637 -0.322866 6.47195 0
M  V30 4115 N 402.043 -1.548 -0.295768 0
M  V30 4116 C 402.953 -1.89177 -1.38742 0
M  V30 4117 C 403.969 -0.786481 -1.55211 0
M  V30 4118 O 405.145 -1.08344 -1.69775 0
M  V30 4119 C 402.21 -2.13663 -2.73036 0
M  V30 4120 C 401.271 -3.37349 -2.65508 0
M  V30 4121 C 400.504 -3.60658 -3.93398 0
M  V30 4122 O 400.727 -2.86882 -4.93006 0
M  V30 4123 O 399.661 -4.54179 -3.94975 0
M  V30 4124 H 403.487 -2.82059 -1.12589 0
M  V30 4125 H 401.072 -1.41056 -0.492295 0
M  V30 4126 H 402.954 -2.3094 -3.52484 0
M  V30 4127 H 401.629 -1.23967 -2.99022 0
M  V30 4128 H 400.536 -3.25431 -1.84514 0
M  V30 4129 H 401.869 -4.27192 -2.44474 0
M  V30 4130 N 403.521 0.559213 -1.47345 0
M  V30 4131 C 404.484 1.64854 -1.59235 0
M  V30 4132 C 405.484 1.53851 -0.467607 0
M  V30 4133 O 406.674 1.58045 -0.732617 0
M  V30 4134 C 403.806 3.04388 -1.53496 0
M  V30 4135 H 404.999 1.55662 -2.56339 0
M  V30 4136 H 402.552 0.778973 -1.35505 0
M  V30 4137 H 403.287 3.19115 -0.577604 0
M  V30 4138 H 403.072 3.13783 -2.35123 0
M  V30 4139 H 404.562 3.83642 -1.6495 0
M  V30 4140 N 404.999 1.35443 0.805782 0
M  V30 4141 C 405.947 1.28465 1.93906 0
M  V30 4142 C 406.941 0.17943 1.68447 0
M  V30 4143 O 408.147 0.345459 1.76654 0
M  V30 4144 H 404.522 0.399528 0.637088 0
M  V30 4145 H 406.493 2.24206 1.96912 0
M  V30 4146 C 405.242 1.07432 3.30687 0
M  V30 4147 H 404.565 1.91716 3.50835 0
M  V30 4148 H 406.005 1.06591 4.10383 0
M  V30 4149 C 404.464 -0.22179 3.36169 0
M  V30 4150 O 404.994 -1.21731 3.82811 0
M  V30 4151 N 403.2 -0.260841 2.89427 0
M  V30 4152 H 402.747 0.549884 2.51663 0
M  V30 4153 H 402.705 -1.12777 2.93477 0
M  V30 4154 N 406.477 -1.02803 1.19454 0
M  V30 4155 C 407.409 -2.11181 0.890807 0
M  V30 4156 C 408.422 -1.6238 -0.116829 0
M  V30 4157 O 409.611 -1.78144 0.112694 0
M  V30 4158 C 406.711 -3.37461 0.311942 0
M  V30 4159 C 405.884 -4.15446 1.36834 0
M  V30 4160 C 404.943 -5.20039 0.802864 0
M  V30 4161 O 403.969 -5.49602 1.48077 0
M  V30 4162 N 405.171 -5.79165 -0.393417 0
M  V30 4163 H 407.936 -2.37827 1.82369 0
M  V30 4164 H 405.497 -1.19101 1.09666 0
M  V30 4165 H 407.489 -4.0462 -0.0802225 0
M  V30 4166 H 406.059 -3.08156 -0.52524 0
M  V30 4167 H 405.279 -3.43423 1.93531 0
M  V30 4168 H 406.567 -4.64335 2.08015 0
M  V30 4169 H 405.965 -5.57466 -0.961658 0
M  V30 4170 H 404.522 -6.47729 -0.727351 0
M  V30 4171 O 407.994 -1.12654 -1.15721 0
M  V30 4172 H 408.685 -0.83899 -1.74587 0
M  V30 END ATOM
M  V30 BEGIN BOND
M  V30 END BOND
M  V30 END CTAB
M  END
$$$$
