drugbank_target|P28065 Proteasome subunit beta type-9 (DB08889)
 OpenBabel12092120583D

  0  0  0     0  0            999 V3000
M  V30 BEGIN CTAB
M  V30 COUNTS 3229 3260 0 0 0
M  V30 BEGIN ATOM
M  V30 1 H -0.908 1.98254 -0.117106 0
M  V30 2 N 0 1.576 0 0
M  V30 3 C 0.933 2.03868 1.02534 0
M  V30 4 C 1.911 0.928543 1.3348 0
M  V30 5 O 3.095 1.19667 1.45644 0
M  V30 6 C 0.222 2.43627 2.35294 0
M  V30 7 C -0.732 3.65373 2.2001 0
M  V30 8 S 0.101 5.13292 1.52614 0
M  V30 9 C 1.257 5.56322 2.86805 0
M  V30 10 H 1.49 2.90518 0.631377 0
M  V30 11 H -0.977 1.52953 0.210867 0
M  V30 12 H 0.981 2.67203 3.11629 0
M  V30 13 H -0.358 1.57376 2.7183 0
M  V30 14 H -1.165 3.90944 3.18086 0
M  V30 15 H -1.563 3.418 1.51819 0
M  V30 16 H 0.729 5.58782 3.83104 0
M  V30 17 H 1.672 6.56266 2.65933 0
M  V30 18 H 2.08 4.83886 2.90714 0
M  V30 19 N 1.4781 -0.272755 1.55222 0
M  V30 20 C 2.4081 -1.34136 1.91127 0
M  V30 21 C 3.3891 -1.51513 0.773168 0
M  V30 22 O 4.5741 -1.64552 1.03132 0
M  V30 23 C 1.7041 -2.70083 2.1834 0
M  V30 24 C 0.6581 -2.67437 3.34158 0
M  V30 25 C -0.0159 -4.06938 3.46851 0
M  V30 26 C 1.2841 -2.26686 4.70543 0
M  V30 27 H 2.9781 -1.04333 2.80633 0
M  V30 28 H 0.5241 -0.500454 1.35024 0
M  V30 29 H 2.4771 -3.44952 2.42046 0
M  V30 30 H 1.2011 -3.01469 1.25634 0
M  V30 31 H -0.1399 -1.95026 3.1042 0
M  V30 32 H -0.4919 -4.35547 2.51611 0
M  V30 33 H -0.7919 -4.06062 4.2472 0
M  V30 34 H 0.7321 -4.83545 3.72849 0
M  V30 35 H 2.1461 -2.91277 4.93792 0
M  V30 36 H 0.5431 -2.36971 5.5133 0
M  V30 37 H 1.6131 -1.21818 4.69349 0
M  V30 38 N 2.9562 -1.48159 -0.537278 0
M  V30 39 C 4.3722 -1.34118 -0.865129 0
M  V30 40 C 4.5722 -0.346678 -1.98495 0
M  V30 41 O 3.6282 0.234715 -2.51407 0
M  V30 42 C 4.9412 -2.73963 -1.23954 0
M  V30 43 C 6.4892 -2.82397 -1.34984 0
M  V30 44 C 6.9642 -4.22928 -1.75772 0
M  V30 45 N 8.4552 -4.25566 -1.82887 0
M  V30 46 C 9.1902 -5.31235 -2.15817 0
M  V30 47 N 8.6862 -6.47189 -2.47222 0
M  V30 48 N 10.4792 -5.18624 -2.16761 0
M  V30 49 H 2.6302 -2.1144 0.201715 0
M  V30 50 H 4.8932 -0.947598 0.0275949 0
M  V30 51 H 4.5992 -3.48264 -0.490381 0
M  V30 52 H 4.4732 -3.0702 -2.19132 0
M  V30 53 H 6.8602 -2.08356 -2.08978 0
M  V30 54 H 6.9412 -2.5297 -0.379448 0
M  V30 55 H 6.5852 -4.97482 -1.02341 0
M  V30 56 H 6.5152 -4.49794 -2.73848 0
M  V30 57 H 9.0062 -3.41924 -1.60924 0
M  V30 58 H 9.3192 -7.23564 -2.71433 0
M  V30 59 H 7.6642 -6.50476 -2.44757 0
M  V30 60 H 10.8552 -4.27056 -1.91679 0
M  V30 61 H 11.0282 -6.01078 -2.42093 0
M  V30 62 N 4.4343 0.785586 -1.36625 0
M  V30 63 C 5.3973 1.87999 -1.31107 0
M  V30 64 C 6.3973 1.59316 -0.217959 0
M  V30 65 O 7.5873 1.67656 -0.472977 0
M  V30 66 C 4.7193 3.24861 -1.03334 0
M  V30 67 H 5.9123 1.94307 -2.2844 0
M  V30 68 H 3.4653 0.983813 -1.21453 0
M  V30 69 H 4.2003 3.24235 -0.0647432 0
M  V30 70 H 3.9853 3.4707 -1.82441 0
M  V30 71 H 5.4753 4.04929 -1.02088 0
M  V30 72 N 5.9124 1.20967 1.01018 0
M  V30 73 C 7.1604 1.02172 1.74371 0
M  V30 74 C 7.4814 -0.446414 1.89821 0
M  V30 75 O 6.7514 -1.32234 1.44537 0
M  V30 76 H 5.3314 0.375066 0.646014 0
M  V30 77 H 7.9934 1.52187 1.21758 0
M  V30 78 H 7.0894 1.48538 2.74487 0
M  V30 79 N 7.3905 -1.2043 1.01659 0
M  V30 80 C 8.3535 -2.21433 0.591616 0
M  V30 81 C 9.3535 -1.57203 -0.338226 0
M  V30 82 O 10.5435 -1.73737 -0.126918 0
M  V30 83 C 7.6755 -3.40628 -0.136058 0
M  V30 84 H 8.8685 -2.60545 1.48514 0
M  V30 85 H 6.4215 -1.33893 0.806379 0
M  V30 86 H 7.1565 -3.07019 -1.04449 0
M  V30 87 H 6.9415 -3.88475 0.531917 0
M  V30 88 H 8.4315 -4.15475 -0.420735 0
M  V30 89 N 8.8686 -0.792821 -1.36206 0
M  V30 90 C 10.2796 -0.429513 -1.81692 0
M  V30 91 C 10.6306 1.04695 -1.65932 0
M  V30 92 O 9.7556 1.81256 -1.18218 0
M  V30 93 C 10.3506 -0.772831 -3.29868 0
M  V30 94 C 8.9096 -0.462307 -3.7355 0
M  V30 95 C 8.0566 -1.00569 -2.5842 0
M  V30 96 H 11.0076 -0.985672 -1.24379 0
M  V30 97 H 11.0286 -0.0651928 -3.80444 0
M  V30 98 H 10.5406 -1.84747 -3.41307 0
M  V30 99 H 8.6416 0.604158 -3.67669 0
M  V30 100 H 8.7546 -0.985299 -4.68859 0
M  V30 101 H 7.1186 -0.428734 -2.51066 0
M  V30 102 H 7.9016 -2.08616 -2.72643 0
M  V30 103 N 10.3467 1.47872 -0.545128 0
M  V30 104 C 11.5747 2.06889 -0.021084 0
M  V30 105 C 11.9897 1.39955 1.2672 0
M  V30 106 O 11.3467 0.492036 1.75742 0
M  V30 107 C 11.3977 3.60996 0.190817 0
M  V30 108 O 11.1187 4.25419 -1.04644 0
M  V30 109 C 12.6197 4.36849 0.753521 0
M  V30 110 H 9.8397 0.669785 -0.0403635 0
M  V30 111 H 12.3837 1.90049 -0.755095 0
M  V30 112 H 10.5387 3.77391 0.87492 0
M  V30 113 H 10.9527 5.17785 -0.836611 0
M  V30 114 H 12.4267 5.45399 0.851139 0
M  V30 115 H 12.9037 4.02306 1.762 0
M  V30 116 H 13.5097 4.25169 0.105503 0
M  V30 117 N 11.8248 0.280983 1.55075 0
M  V30 118 C 13.0728 -0.333455 1.9933 0
M  V30 119 C 13.3938 -1.55937 1.17085 0
M  V30 120 O 12.6638 -1.94143 0.261805 0
M  V30 121 H 11.2438 -0.126197 0.736263 0
M  V30 122 H 13.9058 0.387678 1.91005 0
M  V30 123 H 13.0018 -0.619292 3.05894 0
M  V30 124 N 13.3029 -1.57598 0.00835791 0
M  V30 125 C 14.5799 -1.82172 -0.712235 0
M  V30 126 C 14.9599 -0.887873 -1.9152 0
M  V30 127 O 14.3079 0.06146 -2.28417 0
M  V30 128 C 14.5179 -3.30875 -1.11008 0
M  V30 129 C 15.8659 -3.96826 -1.51044 0
M  V30 130 O 16.8899 -3.35248 -1.20364 0
M  V30 131 O 15.7489 -5.05318 -2.08125 0
M  V30 132 H 12.8429 -0.750435 -0.347529 0
M  V30 133 H 15.3889 -1.69665 0.0344523 0
M  V30 134 H 14.1609 -3.90481 -0.252982 0
M  V30 135 H 13.7839 -3.48412 -1.9156 0
M  V30 136 N 14.781 0.264519 -1.55364 0
M  V30 137 C 15.711 1.33121 -1.91836 0
M  V30 138 C 16.692 1.51101 -0.781192 0
M  V30 139 O 17.877 1.64003 -1.04003 0
M  V30 140 C 15.007 2.68921 -2.19769 0
M  V30 141 C 13.961 2.65661 -3.35571 0
M  V30 142 C 13.287 4.05093 -3.49004 0
M  V30 143 C 14.587 2.24187 -4.71739 0
M  V30 144 H 16.281 1.02844 -2.81182 0
M  V30 145 H 13.827 0.493286 -1.35287 0
M  V30 146 H 15.78 3.43663 -2.43872 0
M  V30 147 H 14.504 3.00799 -1.27231 0
M  V30 148 H 13.163 1.93377 -3.1145 0
M  V30 149 H 12.811 4.34206 -2.53917 0
M  V30 150 H 12.511 4.03804 -4.26868 0
M  V30 151 H 14.035 4.81561 -3.75408 0
M  V30 152 H 15.449 2.88654 -4.9533 0
M  V30 153 H 13.846 2.34044 -5.52579 0
M  V30 154 H 14.916 1.19327 -4.69988 0
M  V30 155 N 16.2591 1.48442 0.529413 0
M  V30 156 C 17.6701 1.5002 1.11134 0
M  V30 157 C 18.0211 0.27031 1.94329 0
M  V30 158 O 17.1461 -0.622507 2.07253 0
M  V30 159 C 17.7411 2.71834 2.02217 0
M  V30 160 C 16.3001 2.76283 2.55627 0
M  V30 161 C 15.4471 2.43542 1.326 0
M  V30 162 H 18.3981 1.5555 0.314641 0
M  V30 163 H 18.4191 2.50384 2.8651 0
M  V30 164 H 17.9311 3.61331 1.41639 0
M  V30 165 H 16.0321 1.90995 3.19924 0
M  V30 166 H 16.1451 3.77725 2.94721 0
M  V30 167 H 14.5091 1.94709 1.64196 0
M  V30 168 H 15.2921 3.3528 0.737734 0
M  V30 169 N 17.7372 -0.778329 1.37039 0
M  V30 170 C 19.1532 -1.07796 1.17695 0
M  V30 171 C 19.3532 -2.01498 0.00860115 0
M  V30 172 O 18.4092 -2.43901 -0.653352 0
M  V30 173 C 19.7222 -1.68178 2.49272 0
M  V30 174 C 21.2702 -1.80467 2.55735 0
M  V30 175 C 21.7452 -2.44263 3.87427 0
M  V30 176 N 23.2362 -2.51721 3.88833 0
M  V30 177 C 23.9712 -3.01919 4.87476 0
M  V30 178 N 23.4672 -3.5234 5.96513 0
M  V30 179 N 25.2602 -3.00733 4.74885 0
M  V30 180 H 17.4112 -0.156032 2.11826 0
M  V30 181 H 19.6742 -0.131844 0.938787 0
M  V30 182 H 19.3802 -1.06796 3.35093 0
M  V30 183 H 19.2542 -2.67554 2.65885 0
M  V30 184 H 21.6412 -2.40984 1.70325 0
M  V30 185 H 21.7222 -0.798656 2.43013 0
M  V30 186 H 21.3662 -1.84388 4.73248 0
M  V30 187 H 21.2962 -3.45458 3.9745 0
M  V30 188 H 23.7872 -2.1603 3.10063 0
M  V30 189 H 24.1002 -3.89027 6.67741 0
M  V30 190 H 22.4452 -3.50462 6.00168 0
M  V30 191 H 25.6362 -2.60638 3.88826 0
M  V30 192 H 25.8092 -3.39545 5.51918 0
M  V30 193 N 19.2153 -1.21501 -1.00376 0
M  V30 194 C 20.1783 -0.976927 -2.07337 0
M  V30 195 C 21.1783 0.0525322 -1.60714 0
M  V30 196 O 22.3683 -0.184869 -1.73216 0
M  V30 197 C 19.5003 -0.473423 -3.37597 0
M  V30 198 H 20.6933 -1.92587 -2.29892 0
M  V30 199 H 18.2463 -1.03217 -1.17371 0
M  V30 200 H 18.9813 0.480379 -3.20722 0
M  V30 201 H 18.7663 -1.216 -3.72768 0
M  V30 202 H 20.2563 -0.32675 -4.1632 0
M  V30 203 N 20.6934 1.19889 -1.02296 0
M  V30 204 C 21.9414 1.89046 -0.714558 0
M  V30 205 C 22.2624 1.79636 0.758681 0
M  V30 206 O 21.5324 1.20292 1.54618 0
M  V30 207 H 20.1124 0.699802 -0.261317 0
M  V30 208 H 22.7744 1.45574 -1.29592 0
M  V30 209 H 21.8704 2.95524 -1.0036 0
M  V30 210 N 22.1715 0.800033 1.35784 0
M  V30 211 C 23.0815 0.207204 2.33683 0
M  V30 212 C 24.0975 -0.64631 1.61551 0
M  V30 213 O 25.2735 -0.559604 1.93469 0
M  V30 214 C 22.3385 -0.639659 3.40748 0
M  V30 215 C 21.3995 0.233585 4.28664 0
M  V30 216 C 20.6325 -0.572954 5.30616 0
M  V30 217 O 20.8555 -1.80816 5.40982 0
M  V30 218 O 19.7895 0.0327285 6.01891 0
M  V30 219 H 23.6155 1.01692 2.86169 0
M  V30 220 H 21.2005 0.561691 1.38439 0
M  V30 221 H 23.0825 -1.12223 4.06182 0
M  V30 222 H 21.7575 -1.42708 2.90544 0
M  V30 223 H 20.6645 0.763147 3.66233 0
M  V30 224 H 21.9975 0.984784 4.82248 0
M  V30 225 N 23.6496 -1.47581 0.552962 0
M  V30 226 C 24.8956 -2.02782 0.0273648 0
M  V30 227 C 25.2286 -1.42687 -1.31734 0
M  V30 228 O 24.5036 -0.580897 -1.85623 0
M  V30 229 C 24.7866 -3.60031 -0.0702371 0
M  V30 230 C 24.6396 -4.30566 1.30126 0
M  V30 231 C 25.9586 -4.33028 -0.785771 0
M  V30 232 H 23.0776 -0.736912 0.0114185 0
M  V30 233 H 25.7196 -1.76056 0.714432 0
M  V30 234 H 23.8696 -3.82932 -0.655382 0
M  V30 235 H 25.5416 -4.19018 1.92929 0
M  V30 236 H 23.7846 -3.91086 1.87709 0
M  V30 237 H 24.4556 -5.39114 1.18573 0
M  V30 238 H 26.9316 -4.15095 -0.288982 0
M  V30 239 H 25.8076 -5.42695 -0.823013 0
M  V30 240 H 26.0686 -4.01945 -1.841 0
M  V30 241 N 25.1277 -0.289203 -1.54924 0
M  V30 242 C 26.0777 0.606939 -2.19773 0
M  V30 243 C 27.0617 1.10783 -1.16687 0
M  V30 244 O 28.2537 1.05057 -1.4245 0
M  V30 245 C 25.3827 1.78398 -2.93307 0
M  V30 246 C 24.4687 1.29961 -4.03697 0
M  V30 247 N 24.8597 0.532377 -5.0299 0
M  V30 248 C 23.1577 1.58136 -4.17024 0
M  V30 249 C 23.8587 0.275912 -5.81045 0
M  V30 250 N 22.8347 0.852365 -5.36876 0
M  V30 251 H 26.6367 0.0130779 -2.93897 0
M  V30 252 H 24.1507 -0.09341 -1.62131 0
M  V30 253 H 26.1477 2.43741 -3.38225 0
M  V30 254 H 24.8077 2.38166 -2.20697 0
M  V30 255 H 25.8187 0.17838 -5.17593 0
M  V30 256 H 22.4957 2.18738 -3.55612 0
M  V30 257 H 23.8857 -0.339502 -6.71042 0
M  V30 258 N 26.6058 1.57591 -0.0167156 0
M  V30 259 C 27.8338 1.95575 0.675128 0
M  V30 260 C 28.2488 0.892542 1.6637 0
M  V30 261 O 27.6058 -0.126912 1.82058 0
M  V30 262 C 27.6568 3.33608 1.39239 0
M  V30 263 O 27.3778 4.3585 0.443444 0
M  V30 264 C 28.8788 3.86151 2.17721 0
M  V30 265 H 26.0988 0.644423 0.186978 0
M  V30 266 H 28.6428 2.0437 -0.0728 0
M  V30 267 H 26.7978 3.2607 2.09182 0
M  V30 268 H 27.2118 5.158 0.951358 0
M  V30 269 H 28.6858 4.85114 2.63379 0
M  V30 270 H 29.1628 3.19738 3.01105 0
M  V30 271 H 29.7688 3.96918 1.52761 0
M  V30 272 N 28.0839 -0.256276 1.55502 0
M  V30 273 C 29.3319 -0.983672 1.76545 0
M  V30 274 C 29.6529 -1.86206 0.578982 0
M  V30 275 O 28.9229 -1.91656 -0.405577 0
M  V30 276 H 27.5029 -0.366191 0.651086 0
M  V30 277 H 30.1649 -0.276479 1.92929 0
M  V30 278 H 29.2609 -1.61087 2.67315 0
M  V30 279 N 29.562 -1.4872 -0.521534 0
M  V30 280 C 30.79 -1.60843 -1.30142 0
M  V30 281 C 31.205 -0.271897 -1.86832 0
M  V30 282 O 30.562 0.739969 -1.66825 0
M  V30 283 C 30.613 -2.66155 -2.4463 0
M  V30 284 O 30.334 -3.94623 -1.90275 0
M  V30 285 C 31.835 -2.88795 -3.36322 0
M  V30 286 H 29.055 -0.542075 -0.395468 0
M  V30 287 H 31.599 -1.94609 -0.628285 0
M  V30 288 H 29.754 -2.35224 -3.07812 0
M  V30 289 H 30.168 -4.52468 -2.65279 0
M  V30 290 H 31.642 -3.66264 -4.12983 0
M  V30 291 H 32.119 -1.97934 -3.9207 0
M  V30 292 H 32.725 -3.21063 -2.78924 0
M  V30 293 N 31.0401 0.771051 -1.3745 0
M  V30 294 C 32.2681 1.56015 -1.35893 0
M  V30 295 C 32.6831 1.88718 0.0555523 0
M  V30 296 O 32.0401 1.51502 1.01752 0
M  V30 297 C 32.0911 2.87001 -2.19801 0
M  V30 298 O 31.8121 2.557 -3.55738 0
M  V30 299 C 33.3131 3.81228 -2.26231 0
M  V30 300 H 30.5331 0.483317 -0.465453 0
M  V30 301 H 33.0771 0.955611 -1.80799 0
M  V30 302 H 31.2321 3.43877 -1.78402 0
M  V30 303 H 31.6461 3.39584 -3.99729 0
M  V30 304 H 33.1201 4.70139 -2.89263 0
M  V30 305 H 33.5971 4.20409 -1.27093 0
M  V30 306 H 34.2031 3.30281 -2.67945 0
M  V30 307 N 32.5182 1.22032 0.997298 0
M  V30 308 C 33.7672 1.03637 1.73038 0
M  V30 309 C 34.0802 -0.429475 1.90827 0
M  V30 310 O 35.2862 -0.732995 2.61418 0
M  V30 311 C 33.7422 1.80582 3.11317 0
M  V30 312 C 33.3502 3.31387 3.01474 0
M  V30 313 C 35.0942 1.70621 3.88701 0
M  V30 314 C 33.0012 4.00791 4.3488 0
M  V30 315 H 31.9312 0.384179 0.648785 0
M  V30 316 H 34.5822 1.4584 1.11368 0
M  V30 317 H 32.9642 1.31175 3.73643 0
M  V30 318 H 34.1382 3.88155 2.4834 0
M  V30 319 H 32.4532 3.41976 2.37575 0
M  V30 320 H 35.0502 2.19799 4.87434 0
M  V30 321 H 35.3932 0.665823 4.10941 0
M  V30 322 H 35.9262 2.17547 3.33044 0
M  V30 323 H 32.6652 5.05064 4.1784 0
M  V30 324 H 32.1852 3.48811 4.87945 0
M  V30 325 H 33.8642 4.06139 5.03647 0
M  V30 326 N 33.9963 -1.19345 1.0293 0
M  V30 327 C 34.9293 -2.21347 0.555029 0
M  V30 328 C 35.9073 -1.57492 -0.404351 0
M  V30 329 O 37.0913 -1.85741 -0.321352 0
M  V30 330 C 34.2183 -3.38163 -0.19064 0
M  V30 331 C 33.2643 -4.20375 0.720236 0
M  V30 332 S 34.0973 -4.88371 2.19668 0
M  V30 333 C 35.2533 -6.08597 1.46153 0
M  V30 334 H 35.4863 -2.61235 1.41929 0
M  V30 335 H 33.0193 -1.29598 0.839272 0
M  V30 336 H 34.9773 -4.05871 -0.614724 0
M  V30 337 H 33.6383 -2.9671 -1.03063 0
M  V30 338 H 32.8313 -5.03793 0.14455 0
M  V30 339 H 32.4333 -3.57987 1.08266 0
M  V30 340 H 34.7253 -6.73354 0.748357 0
M  V30 341 H 35.6683 -6.7065 2.27233 0
M  V30 342 H 36.0763 -5.56297 0.958842 0
M  V30 343 N 35.4744 -0.807222 -1.35358 0
M  V30 344 C 36.4374 -0.223665 -2.28106 0
M  V30 345 C 37.4374 0.589354 -1.4961 0
M  V30 346 O 38.6274 0.407745 -1.69361 0
M  V30 347 C 35.7594 0.688149 -3.33882 0
M  V30 348 H 36.9524 -1.04169 -2.81227 0
M  V30 349 H 34.5054 -0.577921 -1.45223 0
M  V30 350 H 35.2404 1.52984 -2.85948 0
M  V30 351 H 35.0254 0.10687 -3.91954 0
M  V30 352 H 36.5154 1.09075 -4.03104 0
M  V30 353 N 36.9525 1.47285 -0.560781 0
M  V30 354 C 38.1985 2.02764 -0.0381184 0
M  V30 355 C 38.5315 1.43384 1.30976 0
M  V30 356 O 37.8065 0.590733 1.85312 0
M  V30 357 C 38.0895 3.60064 0.0511427 0
M  V30 358 C 37.9425 4.2987 -1.32408 0
M  V30 359 C 39.2615 4.33439 0.762795 0
M  V30 360 H 36.3805 0.736841 -0.0153264 0
M  V30 361 H 39.0225 1.75675 -0.723759 0
M  V30 362 H 37.1725 3.83274 0.635065 0
M  V30 363 H 38.8445 4.17989 -1.95148 0
M  V30 364 H 37.0875 3.90085 -1.8978 0
M  V30 365 H 37.7585 5.38478 -1.21431 0
M  V30 366 H 40.2345 4.15243 0.266965 0
M  V30 367 H 39.1105 5.43124 0.794221 0
M  V30 368 H 39.3715 4.02915 1.81966 0
M  V30 369 N 38.4306 0.297415 1.54768 0
M  V30 370 C 39.3406 -0.58983 2.27064 0
M  V30 371 C 40.3566 -1.15144 1.30453 0
M  V30 372 O 41.5326 -1.17699 1.63428 0
M  V30 373 C 38.5976 -1.74714 2.9946 0
M  V30 374 C 37.6586 -1.21997 4.11601 0
M  V30 375 C 36.8916 -2.32212 4.80535 0
M  V30 376 O 37.1146 -3.52036 4.48806 0
M  V30 377 O 36.0486 -1.99106 5.68014 0
M  V30 378 H 39.8746 -0.00348199 3.037 0
M  V30 379 H 37.4596 0.0640035 1.49263 0
M  V30 380 H 39.3416 -2.42147 3.44881 0
M  V30 381 H 38.0166 -2.32016 2.25722 0
M  V30 382 H 36.9236 -0.511458 3.70587 0
M  V30 383 H 38.2566 -0.692419 4.87305 0
M  V30 384 N 39.9087 -1.5758 0.0250728 0
M  V30 385 C 41.1557 -1.91633 -0.654444 0
M  V30 386 C 41.4837 -0.901103 -1.72367 0
M  V30 387 O 40.7387 0.0905647 -1.9549 0
M  V30 388 C 41.0377 -3.32421 -1.31268 0
M  V30 389 C 40.7037 -4.49344 -0.374223 0
M  V30 390 C 39.3657 -4.8106 -0.115911 0
M  V30 391 C 41.7177 -5.20498 0.270432 0
M  V30 392 C 39.0457 -5.8129 0.79493 0
M  V30 393 C 41.3977 -6.21699 1.1693 0
M  V30 394 C 40.0617 -6.51859 1.43655 0
M  V30 395 H 39.3317 -0.701236 -0.239478 0
M  V30 396 H 41.9787 -1.91307 0.0859734 0
M  V30 397 H 40.2837 -3.28989 -2.12775 0
M  V30 398 H 41.9807 -3.56038 -1.84494 0
M  V30 399 H 38.5707 -4.24579 -0.58573 0
M  V30 400 H 42.7547 -4.96229 0.0839194 0
M  V30 401 H 38.0107 -6.03005 1.00973 0
M  V30 402 H 42.1847 -6.75955 1.67504 0
M  V30 403 H 39.8117 -7.2934 2.144 0
M  V30 404 N 41.3868 0.248026 -1.55636 0
M  V30 405 C 42.6638 0.998988 -1.68165 0
M  V30 406 C 43.0438 2.03409 -0.564621 0
M  V30 407 O 42.3918 2.24378 0.432076 0
M  V30 408 C 42.6018 1.63334 -3.0842 0
M  V30 409 C 43.9498 2.13562 -3.66983 0
M  V30 410 O 44.9738 1.73277 -3.11213 0
M  V30 411 O 43.8328 2.87526 -4.64749 0
M  V30 412 H 40.9268 0.464933 -0.683935 0
M  V30 413 H 43.4728 0.241902 -1.67967 0
M  V30 414 H 42.2448 0.884583 -3.8117 0
M  V30 415 H 41.8678 2.45666 -3.12624 0
M  V30 416 N 42.8649 1.48995 0.513639 0
M  V30 417 C 44.1129 1.57531 1.26604 0
M  V30 418 C 44.4339 0.258236 1.93283 0
M  V30 419 O 43.7039 -0.721502 1.8213 0
M  V30 420 H 42.2839 0.580387 0.470276 0
M  V30 421 H 44.9459 1.85552 0.596373 0
M  V30 422 H 44.0419 2.36486 2.03669 0
M  V30 423 N 44.343 -0.763751 1.37857 0
M  V30 424 C 45.591 -1.51957 1.33243 0
M  V30 425 C 45.912 -1.94835 -0.0801709 0
M  V30 426 O 45.182 -1.66894 -1.02582 0
M  V30 427 H 43.762 -0.563626 0.49024 0
M  V30 428 H 46.424 -0.908504 1.7243 0
M  V30 429 H 45.52 -2.41523 1.97669 0
M  V30 430 N 45.8211 -1.22559 -0.990812 0
M  V30 431 C 47.0671 -1.05297 -1.73322 0
M  V30 432 C 47.4001 0.410655 -1.89808 0
M  V30 433 O 46.6751 1.30439 -1.44277 0
M  V30 434 C 46.9581 -1.76713 -3.13759 0
M  V30 435 C 46.8111 -3.30684 -3.04907 0
M  V30 436 C 48.1301 -1.52121 -4.12974 0
M  V30 437 H 45.2491 -0.38392 -0.629106 0
M  V30 438 H 47.8911 -1.50926 -1.15418 0
M  V30 439 H 46.0411 -1.37924 -3.63193 0
M  V30 440 H 47.7131 -3.7893 -2.63077 0
M  V30 441 H 45.9561 -3.60253 -2.41661 0
M  V30 442 H 46.6271 -3.75833 -4.04294 0
M  V30 443 H 49.1031 -1.85819 -3.72304 0
M  V30 444 H 47.9791 -2.04582 -5.0935 0
M  V30 445 H 48.2401 -0.454257 -4.3976 0
M  V30 446 N 47.2992 1.18797 -1.03562 0
M  V30 447 C 48.5452 1.8893 -0.737113 0
M  V30 448 C 48.8782 1.79837 0.732956 0
M  V30 449 O 48.1532 1.19525 1.5344 0
M  V30 450 C 48.4362 3.39607 -1.19745 0
M  V30 451 C 48.2892 3.57537 -2.72924 0
M  V30 452 C 49.6082 4.33069 -0.783526 0
M  V30 453 H 46.7272 0.686057 -0.269249 0
M  V30 454 H 49.3692 1.39797 -1.28673 0
M  V30 455 H 47.5192 3.81583 -0.729855 0
M  V30 456 H 49.1912 3.24688 -3.27682 0
M  V30 457 H 47.4342 3.00363 -3.12993 0
M  V30 458 H 48.1052 4.63238 -3.00191 0
M  V30 459 H 50.5812 3.98846 -1.18581 0
M  V30 460 H 49.4572 5.3707 -1.13343 0
M  V30 461 H 49.7182 4.40986 0.313681 0
M  V30 462 N 48.7773 0.814389 1.34928 0
M  V30 463 C 49.7103 0.175641 2.27523 0
M  V30 464 C 50.6883 -0.662953 1.48471 0
M  V30 465 O 51.8723 -0.628545 1.77712 0
M  V30 466 C 48.9993 -0.755516 3.30166 0
M  V30 467 C 48.0453 0.00445305 4.265 0
M  V30 468 S 48.8783 1.34582 5.18313 0
M  V30 469 C 50.0343 0.419315 6.24494 0
M  V30 470 H 50.2673 0.960691 2.8135 0
M  V30 471 H 47.8003 0.609846 1.41846 0
M  V30 472 H 49.7583 -1.28723 3.89796 0
M  V30 473 H 48.4193 -1.51402 2.75202 0
M  V30 474 H 47.6123 -0.703077 4.99072 0
M  V30 475 H 47.2143 0.466447 3.7108 0
M  V30 476 H 49.5063 -0.392432 6.76362 0
M  V30 477 H 50.4493 1.11446 6.99275 0
M  V30 478 H 50.8573 0.0115389 5.64499 0
M  V30 479 N 50.2554 -1.46986 0.568584 0
M  V30 480 C 51.5034 -2.02041 0.0487022 0
M  V30 481 C 51.8244 -1.44408 -1.31039 0
M  V30 482 O 51.0944 -0.623477 -1.85714 0
M  V30 483 H 49.6744 -0.746849 0.015014 0
M  V30 484 H 52.3364 -1.80257 0.741168 0
M  V30 485 H 51.4324 -3.12085 -0.0308961 0
M  V30 486 N 51.7335 -0.305618 -1.54608 0
M  V30 487 C 52.9585 0.307562 -2.05107 0
M  V30 488 C 53.3835 1.46385 -1.18123 0
M  V30 489 O 52.7415 1.8034 -0.186324 0
M  V30 490 C 52.7895 0.73704 -3.52987 0
M  V30 491 O 51.8935 1.84134 -3.6901 0
M  V30 492 H 51.2345 0.0589143 -0.661381 0
M  V30 493 H 53.7645 -0.448807 -1.99617 0
M  V30 494 H 53.7745 1.02459 -3.94925 0
M  V30 495 H 52.4495 -0.108773 -4.15758 0
M  V30 496 H 51.0265 1.55398 -3.38978 0
M  V30 497 N 53.2116 1.57565 -0.0334293 0
M  V30 498 C 54.4886 1.83282 0.683163 0
M  V30 499 C 54.8686 0.91823 1.90084 0
M  V30 500 O 54.2166 -0.025113 2.28486 0
M  V30 501 C 54.4266 3.32599 1.0573 0
M  V30 502 C 55.7746 3.99179 1.44711 0
M  V30 503 O 56.7986 3.3712 1.15015 0
M  V30 504 O 55.6576 5.08565 2.0006 0
M  V30 505 H 52.7516 0.755869 0.335546 0
M  V30 506 H 55.2976 1.69589 -0.0614402 0
M  V30 507 H 54.0696 3.90834 0.190828 0
M  V30 508 H 53.6926 3.51415 1.85993 0
M  V30 509 N 54.6897 -0.239769 1.55765 0
M  V30 510 C 55.9147 -0.988373 1.82335 0
M  V30 511 C 56.3397 -1.77886 0.611421 0
M  V30 512 O 55.6977 -1.75889 -0.439639 0
M  V30 513 C 55.7457 -1.89627 3.06715 0
M  V30 514 O 54.8497 -2.98904 2.84131 0
M  V30 515 H 54.1907 -0.280858 0.601677 0
M  V30 516 H 56.7207 -0.258597 2.02959 0
M  V30 517 H 56.7307 -2.30957 3.36338 0
M  V30 518 H 55.4057 -1.31511 3.9456 0
M  V30 519 H 53.9827 -2.61651 2.65694 0
M  V30 520 N 56.1678 -1.49265 -0.50573 0
M  V30 521 C 57.5838 -1.35923 -0.836486 0
M  V30 522 C 57.7838 -0.388704 -1.97715 0
M  V30 523 O 56.8398 0.181336 -2.51848 0
M  V30 524 C 58.1528 -2.76531 -1.18115 0
M  V30 525 C 59.7008 -2.85197 -1.28964 0
M  V30 526 C 60.1758 -4.26561 -1.66761 0
M  V30 527 N 61.6668 -4.2935 -1.73819 0
M  V30 528 C 62.4018 -5.35693 -2.045 0
M  V30 529 N 61.8978 -6.52287 -2.33438 0
M  V30 530 N 63.6908 -5.23105 -2.05711 0
M  V30 531 H 55.8418 -2.10965 0.246519 0
M  V30 532 H 58.1048 -0.9468 0.0476887 0
M  V30 533 H 57.8108 -3.49226 -0.416398 0
M  V30 534 H 57.6848 -3.11599 -2.1257 0
M  V30 535 H 60.0718 -2.12742 -2.04511 0
M  V30 536 H 60.1528 -2.53718 -0.325704 0
M  V30 537 H 59.7968 -4.99541 -0.917656 0
M  V30 538 H 59.7268 -4.55502 -2.64246 0
M  V30 539 H 62.2178 -3.4526 -1.53635 0
M  V30 540 H 62.5308 -7.29158 -2.56024 0
M  V30 541 H 60.8758 -6.55521 -2.30905 0
M  V30 542 H 64.0668 -4.31026 -1.82577 0
M  V30 543 H 64.2398 -6.06078 -2.29289 0
M  V30 544 N 57.6459 0.756429 -1.3826 0
M  V30 545 C 58.8919 1.51772 -1.34511 0
M  V30 546 C 59.2249 1.94089 0.0656691 0
M  V30 547 O 58.4999 1.65221 1.02626 0
M  V30 548 C 58.7829 2.77226 -2.29821 0
M  V30 549 C 58.6359 2.41065 -3.79747 0
M  V30 550 C 59.9549 3.79236 -2.23312 0
M  V30 551 H 57.0739 0.550578 -0.489931 0
M  V30 552 H 59.7159 0.866607 -1.69086 0
M  V30 553 H 57.8659 3.32784 -2.00467 0
M  V30 554 H 59.5379 1.91303 -4.19763 0
M  V30 555 H 57.7809 1.7356 -3.97567 0
M  V30 556 H 58.4519 3.3081 -4.41892 0
M  V30 557 H 60.9279 3.3321 -2.49219 0
M  V30 558 H 59.8039 4.64714 -2.92116 0
M  V30 559 H 60.0649 4.24615 -1.23102 0
M  V30 560 N 59.124 1.23083 0.984299 0
M  V30 561 C 60.349 1.088 1.76571 0
M  V30 562 C 60.774 -0.356657 1.84688 0
M  V30 563 O 60.132 -1.25788 1.30565 0
M  V30 564 C 60.18 1.71371 3.17277 0
M  V30 565 O 59.284 0.973213 4.00752 0
M  V30 566 H 58.625 0.381599 0.543395 0
M  V30 567 H 61.155 1.63057 1.23587 0
M  V30 568 H 61.165 1.76449 3.67872 0
M  V30 569 H 59.84 2.76493 3.10684 0
M  V30 570 H 58.417 0.999078 3.59267 0
M  V30 571 N 60.6021 -1.18246 1.0419 0
M  V30 572 C 61.5651 -2.20128 0.638452 0
M  V30 573 C 62.5651 -1.57885 -0.304805 0
M  V30 574 O 63.7551 -1.73967 -0.0900369 0
M  V30 575 C 60.8871 -3.4084 -0.0637751 0
M  V30 576 H 62.0801 -2.57336 1.54007 0
M  V30 577 H 59.6331 -1.32152 0.834598 0
M  V30 578 H 60.3681 -3.09166 -0.979136 0
M  V30 579 H 60.1531 -3.8726 0.614198 0
M  V30 580 H 61.6431 -4.16274 -0.332512 0
M  V30 581 N 62.0802 -0.821533 -1.34494 0
M  V30 582 C 63.3282 -0.408139 -1.97936 0
M  V30 583 C 63.6492 1.03193 -1.65457 0
M  V30 584 O 62.9192 1.71622 -0.944595 0
M  V30 585 H 61.4992 -0.147928 -0.732206 0
M  V30 586 H 64.1612 -1.05067 -1.64155 0
M  V30 587 H 63.2572 -0.52601 -3.07635 0
M  V30 588 N 63.5583 1.46682 -0.576371 0
M  V30 589 C 64.4683 2.34032 0.163141 0
M  V30 590 C 65.4843 1.49367 0.892501 0
M  V30 591 O 66.6603 1.82252 0.857106 0
M  V30 592 C 63.7253 3.26435 1.16795 0
M  V30 593 C 62.7863 4.26998 0.443944 0
M  V30 594 C 62.0193 5.14986 1.40088 0
M  V30 595 O 62.2423 5.05785 2.637 0
M  V30 596 O 61.1763 5.94906 0.914917 0
M  V30 597 H 65.0023 2.98607 -0.55388 0
M  V30 598 H 62.5873 1.45554 -0.336821 0
M  V30 599 H 64.4693 3.83459 1.74748 0
M  V30 600 H 63.1443 2.64465 1.86655 0
M  V30 601 H 62.0513 3.7368 -0.177271 0
M  V30 602 H 63.3843 4.91736 -0.213566 0
M  V30 603 N 65.0364 0.313813 1.54444 0
M  V30 604 C 65.9994 -0.54379 2.22656 0
M  V30 605 C 66.9994 -1.05124 1.21678 0
M  V30 606 O 68.1894 -0.945225 1.46325 0
M  V30 607 C 65.3214 -1.75427 2.92298 0
M  V30 608 H 66.5144 0.0523599 2.99854 0
M  V30 609 H 64.0674 0.0647834 1.56166 0
M  V30 610 H 64.8024 -2.38991 2.19211 0
M  V30 611 H 64.5874 -1.39791 3.66334 0
M  V30 612 H 66.0774 -2.36325 3.44297 0
M  V30 613 N 66.5145 -1.57545 0.0417849 0
M  V30 614 C 67.7605 -1.92601 -0.635021 0
M  V30 615 C 68.0935 -0.919627 -1.71045 0
M  V30 616 O 67.3685 0.0557892 -1.9442 0
M  V30 617 C 67.6515 -3.38085 -1.23979 0
M  V30 618 C 67.5045 -4.49467 -0.173057 0
M  V30 619 C 68.8235 -3.83776 -2.15416 0
M  V30 620 H 65.9425 -0.700397 -0.229374 0
M  V30 621 H 68.5845 -1.89728 0.101633 0
M  V30 622 H 66.7345 -3.40664 -1.86762 0
M  V30 623 H 68.4065 -4.59018 0.458312 0
M  V30 624 H 66.6495 -4.30909 0.499996 0
M  V30 625 H 67.3205 -5.48323 -0.636054 0
M  V30 626 H 69.7965 -3.83013 -1.62605 0
M  V30 627 H 68.6725 -4.8624 -2.54679 0
M  V30 628 H 68.9335 -3.19998 -3.05047 0
M  V30 629 N 67.9926 0.231505 -1.5589 0
M  V30 630 C 69.2386 0.95877 -1.78705 0
M  V30 631 C 69.5716 1.8438 -0.609725 0
M  V30 632 O 68.8466 1.90521 0.391426 0
M  V30 633 C 69.1296 1.8062 -3.11526 0
M  V30 634 C 68.9826 0.948328 -4.39689 0
M  V30 635 C 70.3016 2.78585 -3.40703 0
M  V30 636 H 67.4206 0.347129 -0.650131 0
M  V30 637 H 70.0626 0.228259 -1.88624 0
M  V30 638 H 68.2126 2.42902 -3.03201 0
M  V30 639 H 69.8846 0.343016 -4.60023 0
M  V30 640 H 68.1276 0.253314 -4.3306 0
M  V30 641 H 68.7986 1.57543 -5.29041 0
M  V30 642 H 71.2746 2.26439 -3.49091 0
M  V30 643 H 70.1506 3.34988 -4.34826 0
M  V30 644 H 70.4116 3.55825 -2.62375 0
M  V30 645 N 69.4707 1.49531 0.497807 0
M  V30 646 C 70.4187 1.66926 1.61983 0
M  V30 647 C 71.4127 0.535167 1.60724 0
M  V30 648 O 72.6187 0.714896 1.65195 0
M  V30 649 H 68.9937 0.526415 0.537021 0
M  V30 650 H 70.9647 2.61098 1.44465 0
M  V30 651 C 69.7137 1.75602 3.00099 0
M  V30 652 H 69.0367 2.62244 3.01775 0
M  V30 653 H 70.4767 1.91807 3.78135 0
M  V30 654 C 68.9357 0.501543 3.33146 0
M  V30 655 O 69.4657 -0.371342 3.9998 0
M  V30 656 N 67.6717 0.363531 2.88317 0
M  V30 657 H 67.2187 1.07485 2.34104 0
M  V30 658 H 67.1767 -0.474728 3.10795 0
M  V30 659 N 70.9488 -0.749086 1.3866 0
M  V30 660 C 72.3648 -1.05276 1.19955 0
M  V30 661 C 72.5648 -2.01435 0.05134 0
M  V30 662 O 71.6208 -2.45232 -0.60147 0
M  V30 663 C 72.9338 -1.62853 2.52783 0
M  V30 664 C 74.4818 -1.75002 2.59506 0
M  V30 665 C 74.9568 -2.35991 3.92521 0
M  V30 666 N 76.4478 -2.43416 3.94085 0
M  V30 667 C 77.1828 -2.91511 4.9377 0
M  V30 668 N 76.6788 -3.39608 6.03853 0
M  V30 669 N 78.4718 -2.90592 4.81157 0
M  V30 670 H 70.6228 -0.111066 2.12109 0
M  V30 671 H 72.8858 -0.111901 0.941373 0
M  V30 672 H 72.5918 -0.99664 3.37283 0
M  V30 673 H 72.4658 -2.61854 2.715 0
M  V30 674 H 74.8528 -2.37317 1.75398 0
M  V30 675 H 74.9338 -0.74693 2.44652 0
M  V30 676 H 74.5778 -1.74308 4.77053 0
M  V30 677 H 74.5078 -3.3695 4.04688 0
M  V30 678 H 76.9988 -2.09405 3.14576 0
M  V30 679 H 77.3118 -3.74775 6.75843 0
M  V30 680 H 75.6568 -3.37653 6.07466 0
M  V30 681 H 78.8478 -2.52332 3.94267 0
M  V30 682 H 79.0208 -3.27762 5.58996 0
M  V30 683 N 72.4269 -1.23603 -0.977757 0
M  V30 684 C 73.6729 -1.07129 -1.72195 0
M  V30 685 C 74.0059 0.390501 -1.90233 0
M  V30 686 O 73.2809 1.28902 -1.45653 0
M  V30 687 C 73.5639 -1.80031 -3.11867 0
M  V30 688 C 73.4169 -3.33899 -3.01383 0
M  V30 689 C 74.7359 -1.56492 -4.11337 0
M  V30 690 H 71.8549 -0.390571 -0.624999 0
M  V30 691 H 74.4969 -1.52142 -1.13811 0
M  V30 692 H 72.6469 -1.41768 -3.6171 0
M  V30 693 H 74.3189 -3.81699 -2.59043 0
M  V30 694 H 72.5619 -3.62796 -2.37827 0
M  V30 695 H 73.2329 -3.801 -4.00285 0
M  V30 696 H 75.7089 -1.89757 -3.70313 0
M  V30 697 H 74.5849 -2.09973 -5.07151 0
M  V30 698 H 74.8459 -0.500874 -4.39254 0
M  V30 699 N 73.905 1.17692 -1.04816 0
M  V30 700 C 75.152 1.87859 -0.75599 0
M  V30 701 C 75.48 1.80812 0.716752 0
M  V30 702 O 74.735 1.20819 1.53952 0
M  V30 703 C 75.034 3.37462 -1.17703 0
M  V30 704 C 74.7 3.64713 -2.65133 0
M  V30 705 C 73.362 3.71859 -3.05408 0
M  V30 706 C 75.714 3.76492 -3.60421 0
M  V30 707 C 73.042 3.88271 -4.39843 0
M  V30 708 C 75.394 3.94421 -4.94585 0
M  V30 709 C 74.058 3.99806 -5.3452 0
M  V30 710 H 73.328 0.687425 -0.276636 0
M  V30 711 H 75.975 1.39255 -1.31455 0
M  V30 712 H 74.28 3.88097 -0.537395 0
M  V30 713 H 75.977 3.90109 -0.928218 0
M  V30 714 H 72.567 3.59772 -2.32942 0
M  V30 715 H 76.751 3.70295 -3.30447 0
M  V30 716 H 72.007 3.90687 -4.70291 0
M  V30 717 H 76.181 4.02477 -5.68318 0
M  V30 718 H 73.808 4.12276 -6.38696 0
M  V30 719 N 75.3831 0.828654 1.34056 0
M  V30 720 C 76.6601 0.341809 1.9259 0
M  V30 721 C 77.0401 -1.17158 1.75605 0
M  V30 722 O 76.3881 -1.98132 1.13824 0
M  V30 723 C 76.5981 0.777453 3.4023 0
M  V30 724 C 77.9461 0.779579 4.17382 0
M  V30 725 O 78.9701 0.7204 3.48839 0
M  V30 726 O 77.8291 0.857996 5.39723 0
M  V30 727 H 74.9231 0.0946085 0.821571 0
M  V30 728 H 77.4691 0.913827 1.42994 0
M  V30 729 H 76.2411 1.8196 3.46419 0
M  V30 730 H 75.8641 0.181444 3.97186 0
M  V30 731 N 76.8612 -1.46375 0.584142 0
M  V30 732 C 77.8082 -2.30323 -0.148286 0
M  V30 733 C 78.7782 -1.40703 -0.882713 0
M  V30 734 O 79.9632 -1.69651 -0.873099 0
M  V30 735 C 77.1032 -3.25196 -1.15507 0
M  V30 736 C 76.2162 -4.29915 -0.423943 0
M  V30 737 C 75.3512 -5.11914 -1.41838 0
M  V30 738 C 74.3902 -6.08381 -0.673736 0
M  V30 739 N 73.5272 -6.83242 -1.6163 0
M  V30 740 H 78.3672 -2.92427 0.573644 0
M  V30 741 H 75.9042 -1.44118 0.294703 0
M  V30 742 H 77.8622 -3.78646 -1.75166 0
M  V30 743 H 76.4922 -2.64898 -1.8447 0
M  V30 744 H 75.5442 -3.7931 0.287714 0
M  V30 745 H 76.8562 -4.98549 0.158128 0
M  V30 746 H 76.0102 -5.69648 -2.08773 0
M  V30 747 H 74.7492 -4.43243 -2.03438 0
M  V30 748 H 73.7542 -5.49799 0.00938483 0
M  V30 749 H 74.9792 -6.79071 -0.0631082 0
M  V30 750 H 72.9252 -6.1728 -2.22038 0
M  V30 751 H 72.8422 -7.48144 -1.08707 0
M  V30 752 H 74.1102 -7.45534 -2.27596 0
M  V30 753 N 78.3393 -0.321999 -1.54275 0
M  V30 754 C 79.2693 0.537411 -2.27231 0
M  V30 755 C 80.2503 1.12064 -1.27968 0
M  V30 756 O 81.4353 1.14606 -1.56777 0
M  V30 757 C 78.5653 1.69919 -3.02894 0
M  V30 758 C 77.5193 1.24534 -4.09482 0
M  V30 759 C 76.8453 2.49394 -4.72977 0
M  V30 760 C 78.1453 0.361335 -5.21049 0
M  V30 761 H 79.8393 -0.0711406 -2.99315 0
M  V30 762 H 77.3853 -0.0356555 -1.43956 0
M  V30 763 H 79.3383 2.30668 -3.52662 0
M  V30 764 H 78.0623 2.33431 -2.28424 0
M  V30 765 H 76.7213 0.660782 -3.60596 0
M  V30 766 H 76.3693 3.11265 -3.95124 0
M  V30 767 H 76.0693 2.19718 -5.44975 0
M  V30 768 H 77.5933 3.10908 -5.25517 0
M  V30 769 H 79.0073 0.875072 -5.66582 0
M  V30 770 H 77.4043 0.157428 -5.99893 0
M  V30 771 H 78.4743 -0.60822 -4.8107 0
M  V30 772 N 79.8174 1.5752 -0.0501392 0
M  V30 773 C 81.0424 1.97376 0.636997 0
M  V30 774 C 81.4674 0.927466 1.63645 0
M  V30 775 O 80.8254 -0.10941 1.8097 0
M  V30 776 C 80.8734 3.36304 1.30123 0
M  V30 777 O 79.9774 3.34156 2.41689 0
M  V30 778 H 79.3184 0.642998 0.165679 0
M  V30 779 H 81.8484 2.04258 -0.118233 0
M  V30 780 H 81.8584 3.73008 1.65315 0
M  V30 781 H 80.5334 4.11993 0.568746 0
M  V30 782 H 79.1104 3.09196 2.08451 0
M  V30 783 N 81.2955 -0.223234 1.56011 0
M  V30 784 C 82.7065 -0.790368 1.69145 0
M  V30 785 C 83.0575 -1.85055 0.651845 0
M  V30 786 O 82.1825 -2.15498 -0.197359 0
M  V30 787 C 82.7775 -1.4404 3.06656 0
M  V30 788 C 81.3365 -1.95494 3.2165 0
M  V30 789 C 80.4835 -0.814506 2.65068 0
M  V30 790 H 83.4345 0.00139011 1.587 0
M  V30 791 H 83.4555 -2.30916 3.0242 0
M  V30 792 H 82.9675 -0.668543 3.82298 0
M  V30 793 H 81.0685 -2.75487 2.50874 0
M  V30 794 H 81.1815 -2.13607 4.28846 0
M  V30 795 H 79.5455 -1.22137 2.23505 0
M  V30 796 H 80.3285 -0.0553515 3.43255 0
M  V30 797 N 82.7736 -1.49793 -0.48987 0
M  V30 798 C 83.7036 -1.70201 -1.59856 0
M  V30 799 C 84.6846 -0.55076 -1.60937 0
M  V30 800 O 85.8696 -0.787841 -1.77501 0
M  V30 801 C 82.9996 -1.77882 -2.98287 0
M  V30 802 C 81.9536 -2.92907 -3.12073 0
M  V30 803 C 81.2796 -2.85712 -4.51965 0
M  V30 804 C 82.5796 -4.3369 -2.91051 0
M  V30 805 H 84.2736 -2.63025 -1.43032 0
M  V30 806 H 81.8196 -1.26574 -0.686664 0
M  V30 807 H 83.7726 -1.90744 -3.75759 0
M  V30 808 H 82.4966 -0.816653 -3.16225 0
M  V30 809 H 81.1556 -2.79665 -2.37029 0
M  V30 810 H 80.8036 -1.8738 -4.66795 0
M  V30 811 H 80.5036 -3.62921 -4.62128 0
M  V30 812 H 82.0276 -3.00598 -5.31482 0
M  V30 813 H 83.4416 -4.47555 -3.58284 0
M  V30 814 H 81.8386 -5.12205 -3.12675 0
M  V30 815 H 82.9086 -4.47362 -1.87071 0
M  V30 816 N 84.2517 0.741722 -1.39055 0
M  V30 817 C 85.2017 1.84661 -1.33732 0
M  V30 818 C 86.1857 1.59397 -0.219401 0
M  V30 819 O 87.3777 1.71015 -0.456375 0
M  V30 820 C 84.5067 3.22512 -1.17647 0
M  V30 821 C 83.5927 3.53628 -2.34112 0
M  V30 822 N 83.9837 3.55723 -3.59576 0
M  V30 823 C 82.2817 3.83956 -2.26923 0
M  V30 824 C 82.9827 3.84443 -4.36553 0
M  V30 825 N 81.9587 4.01877 -3.66055 0
M  V30 826 H 85.7607 1.84576 -2.28711 0
M  V30 827 H 83.2747 0.939647 -1.32455 0
M  V30 828 H 85.2717 4.01597 -1.11917 0
M  V30 829 H 83.9317 3.2384 -0.236124 0
M  V30 830 H 84.9427 3.37196 -3.93089 0
M  V30 831 H 81.6197 3.92929 -1.41113 0
M  V30 832 H 83.0097 3.92588 -5.45274 0
M  V30 833 N 85.7298 1.2412 0.971189 0
M  V30 834 C 86.6398 1.04747 2.09917 0
M  V30 835 C 87.6558 -0.0107162 1.73997 0
M  V30 836 O 88.8318 0.186714 2.00533 0
M  V30 837 C 85.8968 0.650828 3.40537 0
M  V30 838 C 84.9578 1.7851 3.90426 0
M  V30 839 C 84.1908 1.40729 5.14812 0
M  V30 840 O 84.4138 0.29557 5.69634 0
M  V30 841 O 83.3478 2.23168 5.58999 0
M  V30 842 H 87.1738 1.99304 2.29154 0
M  V30 843 H 84.7588 1.02908 1.08307 0
M  V30 844 H 86.6408 0.440992 4.19086 0
M  V30 845 H 85.3158 -0.265649 3.22608 0
M  V30 846 H 84.2228 2.04966 3.12953 0
M  V30 847 H 85.5558 2.68023 4.12825 0
M  V30 848 N 87.2079 -1.17134 1.05439 0
M  V30 849 C 88.6239 -1.39454 0.776201 0
M  V30 850 C 88.8239 -1.91454 -0.628307 0
M  V30 851 O 87.8799 -2.10777 -1.39031 0
M  V30 852 C 89.1929 -2.38305 1.83388 0
M  V30 853 C 90.7409 -2.52006 1.85639 0
M  V30 854 C 91.2159 -3.54133 2.90437 0
M  V30 855 N 92.7069 -3.61653 2.89415 0
M  V30 856 C 93.4419 -4.4044 3.67152 0
M  V30 857 N 92.9379 -5.22721 4.54681 0
M  V30 858 N 94.7309 -4.35337 3.55581 0
M  V30 859 H 86.8819 -0.817134 1.96053 0
M  V30 860 H 89.1449 -0.421626 0.849079 0
M  V30 861 H 88.8509 -2.07173 2.84204 0
M  V30 862 H 88.7249 -3.37841 1.67761 0
M  V30 863 H 91.1119 -2.82447 0.85486 0
M  V30 864 H 91.1929 -1.52537 2.05344 0
M  V30 865 H 90.8369 -3.24431 3.90777 0
M  V30 866 H 90.7669 -4.53313 2.67983 0
M  V30 867 H 93.2579 -3.02909 2.25952 0
M  V30 868 H 93.5709 -5.80027 5.10674 0
M  V30 869 H 91.9159 -5.22093 4.58741 0
M  V30 870 H 95.1069 -3.70112 2.86592 0
M  V30 871 H 95.2799 -4.96494 4.1641 0
M  V30 872 N 88.686 -0.835752 -1.33615 0
M  V30 873 C 89.935 -0.426289 -1.97144 0
M  V30 874 C 90.248 1.01912 -1.66953 0
M  V30 875 O 91.454 1.53311 -2.24072 0
M  V30 876 C 89.91 -0.711321 -3.52801 0
M  V30 877 C 89.518 -2.1712 -3.91871 0
M  V30 878 C 91.262 -0.368654 -4.22896 0
M  V30 879 C 89.169 -2.40044 -5.40493 0
M  V30 880 H 88.099 -0.15567 -0.737755 0
M  V30 881 H 90.75 -1.0239 -1.52278 0
M  V30 882 H 89.132 -0.0433766 -3.95976 0
M  V30 883 H 90.306 -2.87936 -3.59763 0
M  V30 884 H 88.621 -2.47654 -3.34749 0
M  V30 885 H 91.218 -0.517601 -5.32189 0
M  V30 886 H 91.561 0.688078 -4.10574 0
M  V30 887 H 92.094 -0.991702 -3.8524 0
M  V30 888 H 88.833 -3.44271 -5.57815 0
M  V30 889 H 88.353 -1.73785 -5.74072 0
M  V30 890 H 90.032 -2.23042 -6.0734 0
M  V30 891 N 90.1641 1.46063 -0.591896 0
M  V30 892 C 91.3941 2.06418 -0.0867676 0
M  V30 893 C 91.8021 1.43975 1.22751 0
M  V30 894 O 91.1451 0.542531 1.75506 0
M  V30 895 C 91.2071 3.59213 0.143725 0
M  V30 896 C 90.8711 4.439 -1.08635 0
M  V30 897 C 91.8681 4.79864 -2.00067 0
M  V30 898 C 89.5531 4.84896 -1.31077 0
M  V30 899 C 91.5471 5.55661 -3.12282 0
M  V30 900 C 89.2341 5.6045 -2.43596 0
M  V30 901 C 90.2321 5.95747 -3.34027 0
M  V30 902 O 89.9201 6.69772 -4.4459 0
M  V30 903 H 89.6521 0.673443 -0.0587447 0
M  V30 904 H 92.2061 1.88539 -0.814994 0
M  V30 905 H 90.4361 3.75433 0.926668 0
M  V30 906 H 92.1251 4.01463 0.5985 0
M  V30 907 H 92.8911 4.48763 -1.83947 0
M  V30 908 H 88.7701 4.56867 -0.61594 0
M  V30 909 H 92.3141 5.8313 -3.82891 0
M  V30 910 H 88.2111 5.90965 -2.59674 0
M  V30 911 H 88.9791 6.88207 -4.43073 0
M  V30 912 N 91.6422 0.330177 1.54103 0
M  V30 913 C 92.8822 -0.270916 2.02597 0
M  V30 914 C 93.2462 -1.48826 1.21304 0
M  V30 915 O 94.4472 -2.16266 1.59633 0
M  V30 916 C 92.7182 -0.590328 3.52491 0
M  V30 917 S 94.2772 -1.17014 4.2291 0
M  V30 918 H 91.0952 -0.0815379 0.706309 0
M  V30 919 H 93.6972 0.464835 1.89893 0
M  V30 920 H 92.4012 0.303691 4.09275 0
M  V30 921 H 91.9322 -1.3561 3.69288 0
M  V30 922 H 93.9472 -2.45662 4.3112 0
M  V30 923 N 93.1203 -1.57491 0.0584922 0
M  V30 924 C 94.0833 -2.1085 -0.898617 0
M  V30 925 C 95.0833 -1.02964 -1.23511 0
M  V30 926 O 96.2733 -1.29007 -1.17059 0
M  V30 927 C 93.4053 -2.59881 -2.20623 0
M  V30 928 H 94.5983 -2.96715 -0.435936 0
M  V30 929 H 92.1513 -1.55141 -0.190023 0
M  V30 930 H 92.8863 -1.77431 -2.71457 0
M  V30 931 H 92.6713 -3.38727 -1.97501 0
M  V30 932 H 94.1613 -3.01285 -2.89166 0
M  V30 933 N 94.5984 0.214957 -1.56127 0
M  V30 934 C 95.5284 1.2695 -1.95974 0
M  V30 935 C 96.5094 1.48539 -0.828868 0
M  V30 936 O 97.6944 1.60611 -1.09168 0
M  V30 937 C 94.8244 2.61794 -2.28214 0
M  V30 938 C 93.7784 2.54851 -3.43853 0
M  V30 939 C 93.1044 3.93785 -3.61715 0
M  V30 940 C 94.4044 2.09065 -4.78632 0
M  V30 941 H 96.0984 0.93846 -2.84312 0
M  V30 942 H 93.6444 0.449996 -1.36788 0
M  V30 943 H 95.5974 3.35731 -2.54682 0
M  V30 944 H 94.3214 2.96599 -1.36736 0
M  V30 945 H 92.9804 1.8337 -3.17444 0
M  V30 946 H 92.6284 4.25908 -2.67602 0
M  V30 947 H 92.3284 3.90019 -4.39498 0
M  V30 948 H 93.8524 4.69374 -3.90539 0
M  V30 949 H 95.2664 2.7275 -5.04262 0
M  V30 950 H 93.6634 2.16346 -5.59745 0
M  V30 951 H 94.7334 1.04315 -4.73547 0
M  V30 952 N 96.0765 1.50051 0.48192 0
M  V30 953 C 97.3015 1.64508 1.26301 0
M  V30 954 C 97.7265 0.323851 1.85291 0
M  V30 955 O 97.0845 -0.710969 1.66778 0
M  V30 956 C 97.1325 2.7305 2.35533 0
M  V30 957 O 96.2365 2.3355 3.39895 0
M  V30 958 H 95.5775 0.549978 0.372048 0
M  V30 959 H 98.1075 1.9636 0.574786 0
M  V30 960 H 98.1175 2.95799 2.8101 0
M  V30 961 H 96.7925 3.68946 1.91967 0
M  V30 962 H 95.3695 2.21205 3.00204 0
M  V30 963 N 97.5546 -0.734337 1.39446 0
M  V30 964 C 98.8026 -1.49096 1.36436 0
M  V30 965 C 99.1236 -1.94961 -0.0388255 0
M  V30 966 O 98.3936 -1.69033 -0.990191 0
M  V30 967 H 96.9736 -0.5531 0.502085 0
M  V30 968 H 99.6356 -0.871725 1.74319 0
M  V30 969 H 98.7316 -2.37276 2.02747 0
M  V30 970 N 99.0327 -1.24633 -0.964593 0
M  V30 971 C 100.258 -1.11596 -1.74818 0
M  V30 972 C 100.683 0.32723 -1.85232 0
M  V30 973 O 100.041 1.23695 -1.32549 0
M  V30 974 C 100.089 -1.76397 -3.1451 0
M  V30 975 O 99.1927 -1.03685 -3.99153 0
M  V30 976 H 98.5337 -0.390196 -0.537255 0
M  V30 977 H 101.064 -1.65002 -1.20977 0
M  V30 978 H 101.074 -1.8228 -3.65018 0
M  V30 979 H 99.7487 -2.81401 -3.06246 0
M  V30 980 H 98.3257 -1.05611 -3.57632 0
M  V30 981 N 100.511 1.16574 -1.06058 0
M  V30 982 C 101.474 2.19085 -0.673392 0
M  V30 983 C 102.474 1.5835 0.279648 0
M  V30 984 O 103.664 1.74088 0.0623488 0
M  V30 985 C 100.796 3.40899 0.00954234 0
M  V30 986 H 101.989 2.54853 -1.58081 0
M  V30 987 H 99.5418 1.30808 -0.855516 0
M  V30 988 H 100.277 3.10684 0.929826 0
M  V30 989 H 100.062 3.86233 -0.67573 0
M  V30 990 H 101.552 4.1675 0.266245 0
M  V30 991 N 101.989 0.842826 1.3317 0
M  V30 992 C 102.952 0.284065 2.27433 0
M  V30 993 C 103.952 -0.54948 1.5112 0
M  V30 994 O 105.142 -0.362699 1.70382 0
M  V30 995 C 102.274 -0.599384 3.35589 0
M  V30 996 H 103.467 1.11589 2.78366 0
M  V30 997 H 101.02 0.616221 1.4364 0
M  V30 998 H 101.755 -1.45349 2.89904 0
M  V30 999 H 101.54 -0.00291266 3.921 0
M  V30 1000 H 103.03 -0.983488 4.05854 0
M  V30 1001 N 103.467 -1.45747 0.599634 0
M  V30 1002 C 104.744 -1.95585 0.0240846 0
M  V30 1003 C 105.124 -1.54217 -1.44154 0
M  V30 1004 O 104.472 -0.800903 -2.14004 0
M  V30 1005 C 104.682 -3.48344 0.21385 0
M  V30 1006 C 106.03 -4.24504 0.0904902 0
M  V30 1007 O 107.054 -3.55911 0.143558 0
M  V30 1008 O 105.913 -5.46491 -0.0310766 0
M  V30 1009 H 103.007 -0.82602 -0.0402478 0
M  V30 1010 H 105.553 -1.55951 0.669139 0
M  V30 1011 H 104.325 -3.71397 1.23206 0
M  V30 1012 H 103.948 -3.9485 -0.466842 0
M  V30 1013 N 104.945 -0.338344 -1.53925 0
M  V30 1014 C 105.908 0.508299 -2.23493 0
M  V30 1015 C 106.908 1.03175 -1.23335 0
M  V30 1016 O 108.098 0.921826 -1.47811 0
M  V30 1017 C 105.23 1.70754 -2.95052 0
M  V30 1018 H 106.423 -0.100058 -2.99733 0
M  V30 1019 H 103.976 -0.0896198 -1.56043 0
M  V30 1020 H 104.711 2.35474 -2.22986 0
M  V30 1021 H 104.496 1.33946 -3.68512 0
M  V30 1022 H 105.986 2.30818 -3.48013 0
M  V30 1023 N 106.423 1.57458 -0.0668435 0
M  V30 1024 C 107.355 2.09413 0.931601 0
M  V30 1025 C 108.368 1.02522 1.26464 0
M  V30 1026 O 109.557 1.30049 1.22269 0
M  V30 1027 C 106.657 2.53537 2.24882 0
M  V30 1028 C 105.83 3.83944 2.09537 0
M  V30 1029 C 104.889 4.14214 3.2452 0
M  V30 1030 O 103.915 4.83891 2.9973 0
M  V30 1031 N 105.117 3.67367 4.49469 0
M  V30 1032 H 107.882 2.95699 0.488048 0
M  V30 1033 H 105.443 1.61462 0.119009 0
M  V30 1034 H 107.435 2.70853 3.00701 0
M  V30 1035 H 106.005 1.72415 2.60753 0
M  V30 1036 H 105.225 3.76057 1.18215 0
M  V30 1037 H 106.513 4.69312 1.96529 0
M  V30 1038 H 105.911 3.11068 4.72497 0
M  V30 1039 H 104.468 3.89891 5.2233 0
M  V30 1040 N 107.901 -0.206675 1.56239 0
M  V30 1041 C 108.864 -1.23976 1.92776 0
M  V30 1042 C 109.864 -1.39041 0.807729 0
M  V30 1043 O 111.054 -1.37051 1.0753 0
M  V30 1044 C 108.186 -2.61112 2.19165 0
M  V30 1045 H 109.379 -0.927764 2.85189 0
M  V30 1046 H 106.932 -0.447718 1.4975 0
M  V30 1047 H 107.667 -2.97386 1.29352 0
M  V30 1048 H 107.452 -2.51552 3.00772 0
M  V30 1049 H 108.942 -3.35633 2.48476 0
M  V30 1050 N 109.379 -1.50304 -0.473955 0
M  V30 1051 C 110.625 -1.61389 -1.22806 0
M  V30 1052 C 110.958 -0.311955 -1.91678 0
M  V30 1053 O 110.233 0.686384 -1.81986 0
M  V30 1054 C 110.516 -2.79219 -2.27396 0
M  V30 1055 C 110.369 -4.19286 -1.62848 0
M  V30 1056 C 111.688 -2.92614 -3.28732 0
M  V30 1057 H 108.807 -0.587399 -0.445119 0
M  V30 1058 H 111.449 -1.82681 -0.522265 0
M  V30 1059 H 109.599 -2.61195 -2.87592 0
M  V30 1060 H 111.271 -4.48892 -1.06271 0
M  V30 1061 H 109.514 -4.23677 -0.931693 0
M  V30 1062 H 110.185 -4.97655 -2.38838 0
M  V30 1063 H 112.661 -3.09105 -2.78556 0
M  V30 1064 H 111.537 -3.76688 -3.99246 0
M  V30 1065 H 111.798 -2.03107 -3.92683 0
M  V30 1066 N 110.857 0.726932 -1.39834 0
M  V30 1067 C 111.82 1.82269 -1.38962 0
M  V30 1068 C 112.82 1.58248 -0.285334 0
M  V30 1069 O 114.01 1.65499 -0.54366 0
M  V30 1070 C 111.142 3.20186 -1.17019 0
M  V30 1071 H 112.335 1.84443 -2.36476 0
M  V30 1072 H 109.888 0.931416 -1.25516 0
M  V30 1073 H 110.623 3.23669 -0.202204 0
M  V30 1074 H 110.408 3.3902 -1.96998 0
M  V30 1075 H 111.898 4.00235 -1.1917 0
M  V30 1076 N 112.336 1.25143 0.95797 0
M  V30 1077 C 113.613 1.00472 1.67823 0
M  V30 1078 C 113.993 -0.470056 2.058 0
M  V30 1079 O 113.341 -1.44663 1.76875 0
M  V30 1080 C 113.551 1.9372 2.90299 0
M  V30 1081 C 114.899 2.21371 3.62326 0
M  V30 1082 O 115.923 1.91451 3.00375 0
M  V30 1083 O 114.782 2.72231 4.7387 0
M  V30 1084 H 111.876 0.380752 0.734137 0
M  V30 1085 H 114.422 1.36283 1.01119 0
M  V30 1086 H 113.194 2.93316 2.59001 0
M  V30 1087 H 112.817 1.58286 3.64735 0
M  V30 1088 N 113.814 -1.1601 1.06675 0
M  V30 1089 C 114.747 -2.1947 0.625168 0
M  V30 1090 C 115.725 -1.58699 -0.354041 0
M  V30 1091 O 116.909 -1.86669 -0.262098 0
M  V30 1092 C 114.036 -3.38598 -0.0829593 0
M  V30 1093 C 113.082 -4.1787 0.853611 0
M  V30 1094 S 113.915 -4.81135 2.35094 0
M  V30 1095 C 115.071 -6.03639 1.65441 0
M  V30 1096 H 115.304 -2.56587 1.50168 0
M  V30 1097 H 112.837 -1.26862 0.880078 0
M  V30 1098 H 114.795 -4.07621 -0.485288 0
M  V30 1099 H 113.456 -2.99839 -0.935716 0
M  V30 1100 H 112.649 -5.03078 0.304755 0
M  V30 1101 H 112.251 -3.54361 1.196 0
M  V30 1102 H 114.543 -6.70632 0.962201 0
M  V30 1103 H 115.486 -6.63081 2.48454 0
M  V30 1104 H 115.894 -5.52965 1.13534 0
M  V30 1105 N 115.292 -0.849877 -1.32721 0
M  V30 1106 C 116.255 -0.296122 -2.27279 0
M  V30 1107 C 117.255 0.541458 -1.5141 0
M  V30 1108 O 118.445 0.353658 -1.70572 0
M  V30 1109 C 115.577 0.581579 -3.35902 0
M  V30 1110 H 116.77 -1.13064 -2.77771 0
M  V30 1111 H 114.323 -0.62383 -1.43311 0
M  V30 1112 H 115.058 1.43809 -2.9067 0
M  V30 1113 H 114.843 -0.0178814 -3.92096 0
M  V30 1114 H 116.333 0.961951 -4.0637 0
M  V30 1115 N 116.77 1.45427 -0.607355 0
M  V30 1116 C 117.733 2.28974 0.101693 0
M  V30 1117 C 118.733 1.39754 0.795329 0
M  V30 1118 O 119.923 1.61878 0.643527 0
M  V30 1119 C 117.055 3.20768 1.15414 0
M  V30 1120 H 118.248 2.93147 -0.632844 0
M  V30 1121 H 115.801 1.51945 -0.366391 0
M  V30 1122 H 116.536 2.61395 1.91945 0
M  V30 1123 H 116.321 3.86489 0.66098 0
M  V30 1124 H 117.811 3.83589 1.65073 0
M  V30 1125 N 118.248 0.346503 1.53744 0
M  V30 1126 C 119.478 -0.250047 2.05081 0
M  V30 1127 C 119.886 -1.44529 1.22098 0
M  V30 1128 O 119.229 -1.81992 0.249917 0
M  V30 1129 C 119.291 -0.725934 3.52094 0
M  V30 1130 C 118.955 0.350053 4.55657 0
M  V30 1131 C 119.952 1.19372 5.0601 0
M  V30 1132 C 117.637 0.504827 4.99757 0
M  V30 1133 C 119.631 2.17768 5.99046 0
M  V30 1134 C 117.318 1.49218 5.92602 0
M  V30 1135 C 118.316 2.32706 6.42135 0
M  V30 1136 O 118.004 3.2976 7.33153 0
M  V30 1137 H 117.736 -0.0515469 0.674032 0
M  V30 1138 H 120.29 0.497559 1.99282 0
M  V30 1139 H 118.52 -1.52483 3.55367 0
M  V30 1140 H 120.209 -1.24336 3.86388 0
M  V30 1141 H 120.975 1.08525 4.72702 0
M  V30 1142 H 116.854 -0.135178 4.60802 0
M  V30 1143 H 120.398 2.82971 6.37631 0
M  V30 1144 H 116.295 1.6012 6.25325 0
M  V30 1145 H 117.063 3.25265 7.51096 0
M  V30 1146 N 119.726 -1.57421 0.075193 0
M  V30 1147 C 120.658 -2.09904 -0.920483 0
M  V30 1148 C 121.671 -1.03191 -1.25918 0
M  V30 1149 O 122.86 -1.30695 -1.21577 0
M  V30 1150 C 119.96 -2.54726 -2.23534 0
M  V30 1151 C 119.133 -3.8505 -2.07498 0
M  V30 1152 C 118.192 -4.15929 -3.22319 0
M  V30 1153 O 117.218 -4.85474 -2.9716 0
M  V30 1154 N 118.42 -3.69745 -4.47514 0
M  V30 1155 H 121.185 -2.95954 -0.472359 0
M  V30 1156 H 118.746 -1.61523 -0.110444 0
M  V30 1157 H 120.738 -2.72443 -2.9926 0
M  V30 1158 H 119.308 -1.73795 -2.59835 0
M  V30 1159 H 118.528 -3.76679 -1.16219 0
M  V30 1160 H 119.816 -4.70348 -1.94038 0
M  V30 1161 H 119.214 -3.13569 -4.7084 0
M  V30 1162 H 117.771 -3.92655 -5.20255 0
M  V30 1163 N 121.204 0.198386 -1.56346 0
M  V30 1164 C 122.134 1.24865 -1.9731 0
M  V30 1165 C 123.115 1.47651 -0.844576 0
M  V30 1166 O 124.3 1.59444 -1.10866 0
M  V30 1167 C 121.43 2.59358 -2.30977 0
M  V30 1168 C 120.384 2.5119 -3.46537 0
M  V30 1169 C 119.71 3.89926 -3.65871 0
M  V30 1170 C 121.01 2.03977 -4.80823 0
M  V30 1171 H 122.704 0.908252 -2.85291 0
M  V30 1172 H 120.25 0.435462 -1.37258 0
M  V30 1173 H 122.203 3.33011 -2.58228 0
M  V30 1174 H 120.927 2.95132 -1.39874 0
M  V30 1175 H 119.586 1.79993 -3.19371 0
M  V30 1176 H 119.234 4.23046 -2.72105 0
M  V30 1177 H 118.934 3.85336 -4.4361 0
M  V30 1178 H 120.458 4.65205 -3.95495 0
M  V30 1179 H 121.872 2.67386 -5.07127 0
M  V30 1180 H 120.269 2.10397 -5.62008 0
M  V30 1181 H 121.339 0.992861 -4.74626 0
M  V30 1182 N 122.682 1.50554 0.465978 0
M  V30 1183 C 123.592 1.72585 1.58907 0
M  V30 1184 C 124.608 0.60911 1.6299 0
M  V30 1185 O 125.784 0.88804 1.80765 0
M  V30 1186 C 122.849 1.81995 2.95091 0
M  V30 1187 C 121.91 3.05751 3.01355 0
M  V30 1188 C 121.143 3.14702 4.31043 0
M  V30 1189 O 121.366 2.30313 5.21835 0
M  V30 1190 O 120.3 4.07468 4.43005 0
M  V30 1191 H 124.126 2.67799 1.43239 0
M  V30 1192 H 121.711 1.34711 0.646013 0
M  V30 1193 H 123.593 1.90335 3.75966 0
M  V30 1194 H 122.268 0.899659 3.10947 0
M  V30 1195 H 121.175 3.02908 2.19539 0
M  V30 1196 H 122.508 3.97375 2.90437 0
M  V30 1197 N 124.16 -0.719506 1.40217 0
M  V30 1198 C 125.09 -1.8465 1.42922 0
M  V30 1199 C 126.071 -1.67599 0.29062 0
M  V30 1200 O 127.256 -1.87688 0.498677 0
M  V30 1201 C 124.386 -3.22565 1.28722 0
M  V30 1202 C 123.34 -3.54281 2.40144 0
M  V30 1203 C 122.666 -4.91298 2.11023 0
M  V30 1204 C 123.966 -3.55676 3.82481 0
M  V30 1205 H 125.66 -1.82644 2.37237 0
M  V30 1206 H 123.206 -0.877305 1.1419 0
M  V30 1207 H 125.159 -4.01095 1.29232 0
M  V30 1208 H 123.883 -3.25137 0.308811 0
M  V30 1209 H 122.542 -2.78088 2.38877 0
M  V30 1210 H 122.19 -4.90468 1.11582 0
M  V30 1211 H 121.89 -5.13485 2.8567 0
M  V30 1212 H 123.414 -5.72166 2.13209 0
M  V30 1213 H 124.828 -4.24254 3.85592 0
M  V30 1214 H 123.225 -3.89388 4.56614 0
M  V30 1215 H 124.295 -2.55144 4.12346 0
M  V30 1216 N 125.638 -1.25649 -0.95132 0
M  V30 1217 C 126.588 -1.03004 -2.03406 0
M  V30 1218 C 127.572 0.034187 -1.60864 0
M  V30 1219 O 128.764 -0.181549 -1.76066 0
M  V30 1220 C 125.893 -0.654255 -3.37008 0
M  V30 1221 C 124.979 -1.75542 -3.86065 0
M  V30 1222 N 125.37 -2.99113 -4.07879 0
M  V30 1223 C 123.668 -1.63669 -4.14884 0
M  V30 1224 C 124.369 -3.70611 -4.48356 0
M  V30 1225 N 123.345 -2.98247 -4.54477 0
M  V30 1226 H 127.147 -1.96813 -2.1827 0
M  V30 1227 H 124.661 -1.16017 -1.13639 0
M  V30 1228 H 126.658 -0.473206 -4.14206 0
M  V30 1229 H 125.318 0.276468 -3.23521 0
M  V30 1230 H 126.329 -3.35124 -3.94857 0
M  V30 1231 H 123.006 -0.775161 -4.10241 0
M  V30 1232 H 124.396 -4.76695 -4.73509 0
M  V30 1233 N 127.117 1.15442 -1.07289 0
M  V30 1234 C 128.365 1.85845 -0.794096 0
M  V30 1235 C 128.686 1.82692 0.681809 0
M  V30 1236 O 127.956 1.26741 1.49377 0
M  V30 1237 H 126.536 0.688089 -0.290763 0
M  V30 1238 H 129.198 1.39947 -1.3565 0
M  V30 1239 H 128.294 2.91001 -1.12804 0
M  V30 1240 N 128.595 0.856903 1.32268 0
M  V30 1241 C 129.844 0.457599 1.96441 0
M  V30 1242 C 130.157 -0.992426 1.68553 0
M  V30 1243 O 131.363 -1.49727 2.26482 0
M  V30 1244 C 129.819 0.767358 3.51624 0
M  V30 1245 C 129.427 2.23326 3.88367 0
M  V30 1246 C 131.171 0.435887 4.22256 0
M  V30 1247 C 129.078 2.48613 5.36606 0
M  V30 1248 H 128.008 0.167387 0.735185 0
M  V30 1249 H 130.659 1.048 1.5063 0
M  V30 1250 H 129.041 0.106367 3.95857 0
M  V30 1251 H 130.215 2.93623 3.55137 0
M  V30 1252 H 128.53 2.52948 3.30766 0
M  V30 1253 H 131.127 0.602202 5.31298 0
M  V30 1254 H 131.47 -0.622672 4.11617 0
M  V30 1255 H 132.003 1.05286 3.83614 0
M  V30 1256 H 128.742 3.53101 5.52268 0
M  V30 1257 H 128.262 1.82896 5.71235 0
M  V30 1258 H 129.941 2.32676 6.03714 0
M  V30 1259 N 130.073 -1.45103 0.615059 0
M  V30 1260 C 130.983 -2.34382 -0.101034 0
M  V30 1261 C 131.999 -1.51681 -0.852585 0
M  V30 1262 O 133.175 -1.8446 -0.808484 0
M  V30 1263 C 130.24 -3.29417 -1.08099 0
M  V30 1264 C 129.301 -4.28025 -0.330577 0
M  V30 1265 C 128.534 -5.1852 -1.26385 0
M  V30 1266 O 128.757 -5.12598 -2.50198 0
M  V30 1267 O 127.691 -5.97122 -0.756866 0
M  V30 1268 H 131.517 -2.97033 0.632855 0
M  V30 1269 H 129.102 -1.4461 0.375293 0
M  V30 1270 H 130.984 -3.87958 -1.6452 0
M  V30 1271 H 129.659 -2.69321 -1.79577 0
M  V30 1272 H 128.566 -3.73078 0.276283 0
M  V30 1273 H 129.899 -4.90997 0.343866 0
M  V30 1274 N 131.551 -0.354651 -1.53558 0
M  V30 1275 C 132.481 0.489091 -2.2832 0
M  V30 1276 C 133.462 1.09324 -1.30316 0
M  V30 1277 O 134.647 1.11255 -1.59173 0
M  V30 1278 C 131.777 1.63456 -3.0643 0
M  V30 1279 C 130.731 1.1582 -4.12031 0
M  V30 1280 C 130.057 2.39305 -4.7816 0
M  V30 1281 C 131.357 0.250731 -5.21698 0
M  V30 1282 H 133.051 -0.134614 -2.99097 0
M  V30 1283 H 130.597 -0.0661826 -1.43848 0
M  V30 1284 H 132.55 2.23136 -3.57475 0
M  V30 1285 H 131.274 2.28533 -2.33325 0
M  V30 1286 H 129.933 0.584146 -3.61916 0
M  V30 1287 H 129.581 3.02814 -4.01637 0
M  V30 1288 H 129.281 2.08109 -5.49513 0
M  V30 1289 H 130.805 2.99691 -5.31994 0
M  V30 1290 H 132.219 0.754695 -5.68311 0
M  V30 1291 H 130.616 0.0301468 -6.00092 0
M  V30 1292 H 131.686 -0.710125 -4.79672 0
M  V30 1293 N 133.029 1.57378 -0.0835403 0
M  V30 1294 C 133.939 2.16897 0.894021 0
M  V30 1295 C 134.955 1.13528 1.31861 0
M  V30 1296 O 136.131 1.45848 1.3889 0
M  V30 1297 C 133.196 2.72831 2.13925 0
M  V30 1298 C 132.257 3.91115 1.76997 0
M  V30 1299 C 131.49 4.44371 2.95584 0
M  V30 1300 O 131.713 3.96596 4.09961 0
M  V30 1301 O 130.647 5.35549 2.74719 0
M  V30 1302 H 134.473 3.00814 0.417679 0
M  V30 1303 H 132.058 1.48741 0.140181 0
M  V30 1304 H 133.94 3.0863 2.86924 0
M  V30 1305 H 132.615 1.91967 2.60635 0
M  V30 1306 H 131.522 3.60148 1.01214 0
M  V30 1307 H 132.855 4.73307 1.3506 0
M  V30 1308 N 134.507 -0.190092 1.56449 0
M  V30 1309 C 135.417 -1.25591 1.98152 0
M  V30 1310 C 136.433 -1.49519 0.889944 0
M  V30 1311 O 137.609 -1.62036 1.19609 0
M  V30 1312 C 134.674 -2.57916 2.3169 0
M  V30 1313 C 133.735 -2.42015 3.5458 0
M  V30 1314 C 132.968 -3.6803 3.8651 0
M  V30 1315 O 133.191 -4.72413 3.1966 0
M  V30 1316 O 132.125 -3.6326 4.79923 0
M  V30 1317 H 135.951 -0.931988 2.89046 0
M  V30 1318 H 133.536 -0.395488 1.4407 0
M  V30 1319 H 135.418 -3.36008 2.54316 0
M  V30 1320 H 134.093 -2.89925 1.43963 0
M  V30 1321 H 133 -1.62017 3.37196 0
M  V30 1322 H 134.333 -2.14937 4.4279 0
M  V30 1323 N 135.985 -1.50799 -0.457987 0
M  V30 1324 C 137.396 -1.55152 -1.0385 0
M  V30 1325 C 137.747 -0.362719 -1.92818 0
M  V30 1326 O 136.872 0.522915 -2.09987 0
M  V30 1327 C 137.467 -2.81173 -1.89017 0
M  V30 1328 C 136.026 -2.88164 -2.42154 0
M  V30 1329 C 135.173 -2.49591 -1.20829 0
M  V30 1330 H 138.124 -1.56874 -0.240068 0
M  V30 1331 H 138.145 -2.63769 -2.74238 0
M  V30 1332 H 137.657 -3.67677 -1.24238 0
M  V30 1333 H 135.758 -2.06042 -3.10447 0
M  V30 1334 H 135.871 -3.91356 -2.76364 0
M  V30 1335 H 134.235 -2.02322 -1.54719 0
M  V30 1336 H 135.018 -3.38418 -0.576927 0
M  V30 1337 N 137.463 0.71206 -1.40597 0
M  V30 1338 C 138.874 1.29135 -1.34837 0
M  V30 1339 C 139.225 1.96186 -0.0235395 0
M  V30 1340 O 138.35 1.97768 0.878444 0
M  V30 1341 C 138.945 2.34827 -2.44217 0
M  V30 1342 C 137.504 2.88371 -2.41907 0
M  V30 1343 C 136.651 1.62202 -2.24913 0
M  V30 1344 H 139.602 0.507944 -1.50352 0
M  V30 1345 H 139.623 3.15749 -2.12327 0
M  V30 1346 H 139.135 1.85996 -3.40627 0
M  V30 1347 H 137.236 3.41422 -1.49204 0
M  V30 1348 H 137.349 3.39925 -3.37621 0
M  V30 1349 H 135.713 1.874 -1.72492 0
M  V30 1350 H 136.496 1.15391 -3.23326 0
M  V30 1351 N 138.941 1.26152 0.944643 0
M  V30 1352 C 139.871 1.09902 2.06019 0
M  V30 1353 C 140.852 0.00519538 1.70099 0
M  V30 1354 O 142.037 0.176583 1.93396 0
M  V30 1355 C 139.167 0.727562 3.39594 0
M  V30 1356 C 138.121 1.77274 3.89561 0
M  V30 1357 C 137.447 1.25569 5.19747 0
M  V30 1358 C 138.747 3.17357 4.14827 0
M  V30 1359 H 140.441 2.03217 2.19871 0
M  V30 1360 H 137.987 0.978452 1.05652 0
M  V30 1361 H 139.94 0.600777 4.17095 0
M  V30 1362 H 138.664 -0.241287 3.25707 0
M  V30 1363 H 137.323 1.88814 3.14237 0
M  V30 1364 H 136.971 0.276783 5.02238 0
M  V30 1365 H 136.671 1.95433 5.54148 0
M  V30 1366 H 138.195 1.1415 5.99835 0
M  V30 1367 H 139.609 3.08914 4.82954 0
M  V30 1368 H 138.006 3.84781 4.60504 0
M  V30 1369 H 139.076 3.63673 3.20734 0
M  V30 1370 N 140.419 -1.14872 1.07899 0
M  V30 1371 C 141.665 -1.86064 0.806725 0
M  V30 1372 C 141.998 -1.82434 -0.665706 0
M  V30 1373 O 141.273 -1.25138 -1.48899 0
M  V30 1374 C 141.556 -3.34929 1.32267 0
M  V30 1375 C 141.409 -3.47161 2.86006 0
M  V30 1376 C 142.728 -4.29863 0.943717 0
M  V30 1377 H 139.847 -0.675591 0.294526 0
M  V30 1378 H 142.489 -1.34925 1.33773 0
M  V30 1379 H 140.639 -3.78611 0.870974 0
M  V30 1380 H 142.311 -3.12302 3.39507 0
M  V30 1381 H 140.554 -2.88539 3.23925 0
M  V30 1382 H 141.225 -4.51777 3.17177 0
M  V30 1383 H 143.701 -3.9417 1.33302 0
M  V30 1384 H 142.577 -5.32494 1.33198 0
M  V30 1385 H 142.838 -4.41846 -0.149796 0
M  V30 1386 N 141.898 -0.863906 -1.31812 0
M  V30 1387 C 142.828 -0.330843 -2.31144 0
M  V30 1388 C 143.809 0.575005 -1.60087 0
M  V30 1389 O 144.994 0.493304 -1.8783 0
M  V30 1390 C 142.124 0.47374 -3.44054 0
M  V30 1391 C 141.078 -0.338481 -4.26659 0
M  V30 1392 C 140.404 0.591412 -5.31419 0
M  V30 1393 C 141.704 -1.56926 -4.98168 0
M  V30 1394 H 143.398 -1.16086 -2.75979 0
M  V30 1395 H 140.944 -0.559657 -1.32679 0
M  V30 1396 H 142.897 0.857143 -4.12591 0
M  V30 1397 H 141.621 1.33721 -2.9797 0
M  V30 1398 H 140.28 -0.703754 -3.59782 0
M  V30 1399 H 139.928 1.45199 -4.81587 0
M  V30 1400 H 139.628 0.0519022 -5.87577 0
M  V30 1401 H 141.152 0.97179 -6.02817 0
M  V30 1402 H 142.566 -1.25764 -5.59336 0
M  V30 1403 H 140.963 -2.04739 -5.64094 0
M  V30 1404 H 142.033 -2.32544 -4.25501 0
M  V30 1405 N 143.376 1.44774 -0.622745 0
M  V30 1406 C 144.339 2.29069 0.0774015 0
M  V30 1407 C 145.339 1.4059 0.780461 0
M  V30 1408 O 146.529 1.62551 0.626322 0
M  V30 1409 C 143.661 3.21974 1.12006 0
M  V30 1410 H 144.854 2.92459 -0.663901 0
M  V30 1411 H 142.407 1.51548 -0.382486 0
M  V30 1412 H 143.142 2.63417 1.89162 0
M  V30 1413 H 142.927 3.87168 0.619951 0
M  V30 1414 H 144.417 3.85318 1.60995 0
M  V30 1415 N 144.854 0.36279 1.53368 0
M  V30 1416 C 145.817 -0.472679 2.24273 0
M  V30 1417 C 146.817 -1.012 1.24961 0
M  V30 1418 O 148.007 -0.898194 1.49259 0
M  V30 1419 C 145.139 -1.66039 2.97731 0
M  V30 1420 H 146.332 0.14773 2.99536 0
M  V30 1421 H 143.885 0.114434 1.55881 0
M  V30 1422 H 144.62 -2.31896 2.26704 0
M  V30 1423 H 144.405 -1.28066 3.70596 0
M  V30 1424 H 145.895 -2.25252 3.51641 0
M  V30 1425 N 146.332 -1.57332 0.0918853 0
M  V30 1426 C 147.295 -2.12708 -0.85369 0
M  V30 1427 C 148.295 -1.05561 -1.213 0
M  V30 1428 O 149.485 -1.31461 -1.14296 0
M  V30 1429 C 146.617 -2.64503 -2.15061 0
M  V30 1430 H 147.81 -2.97573 -0.3729 0
M  V30 1431 H 145.363 -1.55509 -0.157072 0
M  V30 1432 H 146.098 -1.83149 -2.67632 0
M  V30 1433 H 145.883 -3.4284 -1.90272 0
M  V30 1434 H 147.373 -3.07351 -2.82711 0
M  V30 1435 N 147.81 0.181792 -1.56548 0
M  V30 1436 C 148.758 1.24461 -1.965 0
M  V30 1437 C 149.752 1.464 -0.852261 0
M  V30 1438 O 150.958 1.47103 -1.03733 0
M  V30 1439 H 147.333 0.418138 -0.625031 0
M  V30 1440 H 149.304 0.880714 -2.85107 0
M  V30 1441 C 148.053 2.57891 -2.33212 0
M  V30 1442 H 147.376 2.41829 -3.18369 0
M  V30 1443 H 148.816 3.3097 -2.65019 0
M  V30 1444 C 147.275 3.15871 -1.17163 0
M  V30 1445 O 147.805 3.9913 -0.453708 0
M  V30 1446 N 146.011 2.74808 -0.944936 0
M  V30 1447 H 145.558 2.07205 -1.53049 0
M  V30 1448 H 145.516 3.13939 -0.170286 0
M  V30 1449 N 149.288 1.51039 0.449983 0
M  V30 1450 C 150.534 1.63322 1.20223 0
M  V30 1451 C 150.867 0.34241 1.91158 0
M  V30 1452 O 150.142 -0.657344 1.83055 0
M  V30 1453 C 150.425 2.82801 2.22925 0
M  V30 1454 C 150.278 4.21823 1.56157 0
M  V30 1455 C 151.597 2.97807 3.24035 0
M  V30 1456 H 148.716 0.594407 0.435718 0
M  V30 1457 H 151.358 1.83489 0.493136 0
M  V30 1458 H 149.508 2.65738 2.834 0
M  V30 1459 H 151.18 4.50526 0.991162 0
M  V30 1460 H 149.423 4.25105 0.864172 0
M  V30 1461 H 150.094 5.01391 2.30891 0
M  V30 1462 H 152.57 3.13497 2.73603 0
M  V30 1463 H 151.446 3.82992 3.93202 0
M  V30 1464 H 151.707 2.09328 3.89402 0
M  V30 1465 N 150.766 -0.704594 1.40972 0
M  V30 1466 C 152.012 -1.46675 1.40051 0
M  V30 1467 C 152.345 -1.94199 0.00641102 0
M  V30 1468 O 151.62 -1.68916 -0.964235 0
M  V30 1469 C 151.903 -2.68505 2.39952 0
M  V30 1470 C 151.756 -2.26805 3.88432 0
M  V30 1471 C 153.075 -3.70686 2.37233 0
M  V30 1472 H 150.194 -0.532015 0.510028 0
M  V30 1473 H 152.836 -0.803255 1.72185 0
M  V30 1474 H 150.986 -3.25114 2.1268 0
M  V30 1475 H 152.658 -1.75592 4.26574 0
M  V30 1476 H 150.901 -1.58685 4.03734 0
M  V30 1477 H 151.572 -3.14181 4.53866 0
M  V30 1478 H 154.048 -3.23731 2.61415 0
M  V30 1479 H 152.924 -4.53553 3.09162 0
M  V30 1480 H 153.185 -4.19754 1.38777 0
M  V30 1481 N 152.244 -1.26651 -0.937939 0
M  V30 1482 C 153.66 -1.03834 -1.21205 0
M  V30 1483 C 153.86 0.234502 -2.00131 0
M  V30 1484 O 152.916 0.942767 -2.3424 0
M  V30 1485 C 154.229 -2.27167 -1.97017 0
M  V30 1486 C 155.777 -2.32101 -2.09996 0
M  V30 1487 C 156.252 -3.55136 -2.8921 0
M  V30 1488 N 157.743 -3.55632 -2.96783 0
M  V30 1489 C 158.478 -4.475 -3.58512 0
M  V30 1490 N 157.974 -5.4966 -4.21717 0
M  V30 1491 N 159.767 -4.35145 -3.55816 0
M  V30 1492 H 151.918 -2.08398 -0.410391 0
M  V30 1493 H 154.181 -0.916031 -0.244114 0
M  V30 1494 H 153.887 -3.19765 -1.46434 0
M  V30 1495 H 153.761 -2.31672 -2.97671 0
M  V30 1496 H 156.148 -1.40015 -2.59769 0
M  V30 1497 H 156.229 -2.31605 -1.08594 0
M  V30 1498 H 155.873 -4.47553 -2.40123 0
M  V30 1499 H 155.803 -3.5288 -3.90875 0
M  V30 1500 H 158.294 -2.81743 -2.51852 0
M  V30 1501 H 158.607 -6.15943 -4.66727 0
M  V30 1502 H 156.952 -5.53514 -4.20294 0
M  V30 1503 H 160.143 -3.5455 -3.05634 0
M  V30 1504 H 160.316 -5.06934 -4.03636 0
M  V30 1505 N 153.722 1.14298 -1.08507 0
M  V30 1506 C 154.67 2.21483 -0.710483 0
M  V30 1507 C 155.664 1.66998 0.284234 0
M  V30 1508 O 156.87 1.79401 0.146692 0
M  V30 1509 H 153.245 0.721578 -0.211729 0
M  V30 1510 H 155.216 2.50348 -1.62384 0
M  V30 1511 C 153.965 3.4743 -0.137007 0
M  V30 1512 H 153.288 3.89686 -0.893592 0
M  V30 1513 H 154.728 4.2391 0.0872789 0
M  V30 1514 C 153.187 3.17548 1.12538 0
M  V30 1515 O 153.717 3.35437 2.21009 0
M  V30 1516 N 151.923 2.71499 1.03617 0
M  V30 1517 H 151.47 2.57143 0.153403 0
M  V30 1518 H 151.428 2.51881 1.88158 0
M  V30 1519 N 155.201 0.870884 1.31352 0
M  V30 1520 C 156.45 0.478408 1.95944 0
M  V30 1521 C 156.763 -0.974493 1.69597 0
M  V30 1522 O 157.969 -1.47316 2.28058 0
M  V30 1523 C 156.425 0.804609 3.50791 0
M  V30 1524 C 156.033 2.27433 3.85977 0
M  V30 1525 C 157.777 0.480648 4.2177 0
M  V30 1526 C 155.684 2.5429 5.33939 0
M  V30 1527 H 154.614 0.175175 0.733369 0
M  V30 1528 H 157.265 1.06391 1.4951 0
M  V30 1529 H 155.647 0.148347 3.95722 0
M  V30 1530 H 156.821 2.97373 3.52002 0
M  V30 1531 H 155.136 2.56442 3.28065 0
M  V30 1532 H 157.733 0.658519 5.30629 0
M  V30 1533 H 158.076 -0.578979 4.12254 0
M  V30 1534 H 158.609 1.09349 3.82476 0
M  V30 1535 H 155.348 3.58939 5.48491 0
M  V30 1536 H 154.868 1.88945 5.69263 0
M  V30 1537 H 156.547 2.39066 6.01212 0
M  V30 1538 N 156.679 -1.44442 0.630414 0
M  V30 1539 C 157.904 -2.06927 0.139944 0
M  V30 1540 C 158.329 -1.46795 -1.17613 0
M  V30 1541 O 157.687 -0.569144 -1.72135 0
M  V30 1542 C 157.735 -3.6058 0.0379581 0
M  V30 1543 O 156.839 -3.99937 -1.0062 0
M  V30 1544 H 156.18 -0.658608 0.0844483 0
M  V30 1545 H 158.71 -1.85327 0.866891 0
M  V30 1546 H 158.72 -4.07714 -0.152856 0
M  V30 1547 H 157.395 -4.03728 0.998809 0
M  V30 1548 H 155.972 -3.64436 -0.79001 0
M  V30 1549 N 158.157 -0.370918 -1.53173 0
M  V30 1550 C 159.387 0.217389 -2.05453 0
M  V30 1551 C 159.795 1.42568 -1.24382 0
M  V30 1552 O 159.138 1.81571 -0.278839 0
M  V30 1553 C 159.2 0.669827 -3.53205 0
M  V30 1554 C 158.864 -0.4225 -4.55043 0
M  V30 1555 C 159.861 -1.27407 -5.04047 0
M  V30 1556 C 157.546 -0.58427 -4.9889 0
M  V30 1557 C 159.54 -2.27271 -5.95505 0
M  V30 1558 C 157.227 -1.58627 -5.90153 0
M  V30 1559 C 158.225 -2.42892 -6.38351 0
M  V30 1560 O 157.913 -3.41382 -7.27814 0
M  V30 1561 H 157.645 0.0408171 -0.674767 0
M  V30 1562 H 160.199 -0.5292 -1.98466 0
M  V30 1563 H 158.429 1.4681 -3.57748 0
M  V30 1564 H 160.118 1.18173 -3.88317 0
M  V30 1565 H 160.884 -1.16031 -4.70916 0
M  V30 1566 H 156.763 0.061851 -4.60959 0
M  V30 1567 H 160.307 -2.93079 -6.33049 0
M  V30 1568 H 156.204 -1.70048 -6.22699 0
M  V30 1569 H 156.972 -3.37173 -7.45826 0
M  V30 1570 N 159.635 1.57281 -0.100228 0
M  V30 1571 C 160.582 2.14305 0.856858 0
M  V30 1572 C 161.552 1.06296 1.27634 0
M  V30 1573 O 162.737 1.34109 1.35718 0
M  V30 1574 C 159.877 2.73184 2.10866 0
M  V30 1575 C 158.99 3.95442 1.73925 0
M  V30 1576 C 158.125 4.42468 2.93931 0
M  V30 1577 C 157.164 5.57303 2.5314 0
M  V30 1578 N 156.301 5.99158 3.65997 0
M  V30 1579 H 161.141 2.95772 0.363726 0
M  V30 1580 H 158.678 1.46139 0.167858 0
M  V30 1581 H 160.636 3.05442 2.84185 0
M  V30 1582 H 159.266 1.94437 2.57671 0
M  V30 1583 H 158.318 3.69464 0.905554 0
M  V30 1584 H 159.63 4.78769 1.39935 0
M  V30 1585 H 158.784 4.76537 3.75496 0
M  V30 1586 H 157.523 3.58052 3.31134 0
M  V30 1587 H 156.528 5.22857 1.70003 0
M  V30 1588 H 157.753 6.43471 2.17075 0
M  V30 1589 H 155.699 5.17687 4.02909 0
M  V30 1590 H 155.616 6.77295 3.35869 0
M  V30 1591 H 156.884 6.3786 4.48057 0
M  V30 1592 N 161.113 -0.173488 1.56642 0
M  V30 1593 C 162.343 -0.904781 1.85734 0
M  V30 1594 C 162.751 -1.76431 0.68328 0
M  V30 1595 O 162.094 -1.802 -0.356865 0
M  V30 1596 C 162.156 -1.83382 3.09211 0
M  V30 1597 C 161.82 -1.15411 4.42187 0
M  V30 1598 C 162.817 -0.520609 5.17287 0
M  V30 1599 C 160.502 -1.15151 4.88923 0
M  V30 1600 C 162.496 0.106412 6.37311 0
M  V30 1601 C 160.183 -0.520664 6.08878 0
M  V30 1602 C 161.181 0.107196 6.82916 0
M  V30 1603 O 160.869 0.728102 8.00596 0
M  V30 1604 H 160.601 -0.268408 0.62043 0
M  V30 1605 H 163.155 -0.179096 2.04618 0
M  V30 1606 H 161.385 -2.59976 2.86268 0
M  V30 1607 H 163.074 -2.43476 3.24768 0
M  V30 1608 H 163.84 -0.514606 4.82262 0
M  V30 1609 H 159.719 -1.62961 4.31236 0
M  V30 1610 H 163.263 0.597081 6.9504 0
M  V30 1611 H 159.16 -0.524242 6.43368 0
M  V30 1612 H 159.928 0.627138 8.16094 0
M  V30 1613 N 162.591 -1.51276 -0.441967 0
M  V30 1614 C 164.007 -1.39349 -0.778083 0
M  V30 1615 C 164.207 -0.472212 -1.95889 0
M  V30 1616 O 163.263 0.0743551 -2.5239 0
M  V30 1617 C 164.576 -2.81292 -1.0628 0
M  V30 1618 C 166.124 -2.9041 -1.16751 0
M  V30 1619 C 166.599 -4.33251 -1.48519 0
M  V30 1620 N 168.09 -4.36336 -1.55453 0
M  V30 1621 C 168.825 -5.43885 -1.81596 0
M  V30 1622 N 168.321 -6.61601 -2.05562 0
M  V30 1623 N 170.114 -5.3136 -1.8334 0
M  V30 1624 H 162.265 -2.09729 0.335774 0
M  V30 1625 H 164.528 -0.943925 0.0878028 0
M  V30 1626 H 164.234 -3.50678 -0.267905 0
M  V30 1627 H 164.108 -3.20334 -1.99163 0
M  V30 1628 H 166.495 -2.21225 -1.95304 0
M  V30 1629 H 166.576 -2.54871 -0.217801 0
M  V30 1630 H 166.22 -5.02984 -0.704958 0
M  V30 1631 H 166.15 -4.66299 -2.44689 0
M  V30 1632 H 168.641 -3.51466 -1.38853 0
M  V30 1633 H 168.954 -7.39361 -2.24867 0
M  V30 1634 H 167.299 -6.64725 -2.02894 0
M  V30 1635 H 170.49 -4.38382 -1.64132 0
M  V30 1636 H 170.663 -6.15258 -2.03377 0
M  V30 1637 N 164.069 0.697108 -1.41344 0
M  V30 1638 C 164.979 1.84088 -1.45427 0
M  V30 1639 C 165.995 1.70545 -0.34501 0
M  V30 1640 O 167.171 1.92488 -0.592492 0
M  V30 1641 C 164.236 3.20056 -1.33286 0
M  V30 1642 C 163.297 3.45718 -2.54514 0
M  V30 1643 C 162.53 4.75199 -2.42944 0
M  V30 1644 O 162.753 5.51579 -1.45318 0
M  V30 1645 O 161.687 5.0161 -3.32672 0
M  V30 1646 H 165.513 1.836 -2.41919 0
M  V30 1647 H 163.098 0.849966 -1.22866 0
M  V30 1648 H 164.98 4.01236 -1.28794 0
M  V30 1649 H 163.655 3.2123 -0.39909 0
M  V30 1650 H 162.562 2.64474 -2.64583 0
M  V30 1651 H 163.895 3.49356 -3.46715 0
M  V30 1652 N 165.547 1.27147 0.931209 0
M  V30 1653 C 166.824 1.0401 1.65654 0
M  V30 1654 C 167.204 -0.426297 2.06751 0
M  V30 1655 O 166.552 -1.40879 1.79904 0
M  V30 1656 C 166.762 1.99834 2.86125 0
M  V30 1657 C 168.11 2.29007 3.57549 0
M  V30 1658 O 169.134 1.97779 2.96246 0
M  V30 1659 O 167.993 2.82222 4.67989 0
M  V30 1660 H 165.087 0.396239 0.725895 0
M  V30 1661 H 167.633 1.38397 0.982056 0
M  V30 1662 H 166.405 2.98744 2.52721 0
M  V30 1663 H 166.028 1.65987 3.61295 0
M  V30 1664 N 167.025 -1.13721 1.09112 0
M  V30 1665 C 167.955 -2.21148 0.749385 0
M  V30 1666 C 168.936 -1.6792 -0.271475 0
M  V30 1667 O 170.121 -1.93693 -0.140251 0
M  V30 1668 C 167.251 -3.46905 0.165659 0
M  V30 1669 C 166.205 -4.13203 1.11567 0
M  V30 1670 C 165.531 -5.33248 0.393809 0
M  V30 1671 C 166.831 -4.60912 2.45678 0
M  V30 1672 H 168.525 -2.4999 1.64758 0
M  V30 1673 H 166.071 -1.20156 0.793626 0
M  V30 1674 H 168.024 -4.21313 -0.085466 0
M  V30 1675 H 166.748 -3.17449 -0.767714 0
M  V30 1676 H 165.407 -3.40758 1.35202 0
M  V30 1677 H 165.055 -5.00054 -0.543599 0
M  V30 1678 H 164.755 -5.78552 1.02721 0
M  V30 1679 H 166.279 -6.10413 0.150908 0
M  V30 1680 H 167.693 -5.26759 2.26269 0
M  V30 1681 H 166.09 -5.16944 3.04776 0
M  V30 1682 H 167.16 -3.75603 3.06677 0
M  V30 1683 N 168.503 -0.877838 -1.30888 0
M  V30 1684 C 169.728 -0.506629 -2.01117 0
M  V30 1685 C 170.153 0.895564 -1.65412 0
M  V30 1686 O 169.511 1.5923 -0.866922 0
M  V30 1687 C 169.559 -0.680223 -3.54126 0
M  V30 1688 O 168.663 0.277033 -4.11468 0
M  V30 1689 H 168.004 -0.200518 -0.633 0
M  V30 1690 H 170.534 -1.18342 -1.66902 0
M  V30 1691 H 170.544 -0.5765 -4.03907 0
M  V30 1692 H 169.219 -1.70261 -3.79452 0
M  V30 1693 H 167.796 0.127606 -3.72682 0
M  V30 1694 N 169.982 1.44106 -0.638065 0
M  V30 1695 C 170.945 2.29138 0.0531013 0
M  V30 1696 C 171.945 1.41409 0.765506 0
M  V30 1697 O 173.135 1.63206 0.609046 0
M  V30 1698 C 170.267 3.23144 1.08584 0
M  V30 1699 H 171.46 2.91739 -0.694883 0
M  V30 1700 H 169.013 1.51134 -0.398538 0
M  V30 1701 H 169.748 2.65408 1.86357 0
M  V30 1702 H 169.533 3.87804 0.578852 0
M  V30 1703 H 171.023 3.87004 1.56899 0
M  V30 1704 N 171.46 0.379036 1.52974 0
M  V30 1705 C 172.41 -0.477772 2.22938 0
M  V30 1706 C 173.394 -1.03792 1.22948 0
M  V30 1707 O 174.586 -0.965725 1.48333 0
M  V30 1708 C 171.715 -1.60994 3.03209 0
M  V30 1709 C 170.801 -1.06203 4.10587 0
M  V30 1710 N 171.192 -0.238214 5.05239 0
M  V30 1711 C 169.49 -1.33554 4.25534 0
M  V30 1712 C 170.191 0.0633235 5.81666 0
M  V30 1713 N 169.167 -0.537901 5.40932 0
M  V30 1714 H 172.969 0.158295 2.93473 0
M  V30 1715 H 170.483 0.187778 1.61311 0
M  V30 1716 H 172.48 -2.23607 3.5186 0
M  V30 1717 H 171.14 -2.24893 2.34207 0
M  V30 1718 H 172.151 0.123695 5.17752 0
M  V30 1719 H 168.828 -1.97632 3.6776 0
M  V30 1720 H 170.218 0.730161 6.67921 0
M  V30 1721 N 172.938 -1.57226 0.108567 0
M  V30 1722 C 173.868 -2.17778 -0.84232 0
M  V30 1723 C 174.849 -1.11487 -1.2847 0
M  V30 1724 O 176.034 -1.39681 -1.34918 0
M  V30 1725 C 173.164 -2.76888 -2.09644 0
M  V30 1726 C 172.118 -3.88669 -1.79221 0
M  V30 1727 C 171.444 -4.34541 -3.11574 0
M  V30 1728 C 172.744 -5.11251 -1.06864 0
M  V30 1729 H 174.438 -2.97489 -0.337774 0
M  V30 1730 H 171.984 -1.43097 -0.161025 0
M  V30 1731 H 173.937 -3.17904 -2.76614 0
M  V30 1732 H 172.661 -1.94451 -2.62405 0
M  V30 1733 H 171.32 -3.48213 -1.14644 0
M  V30 1734 H 170.968 -3.48977 -3.62249 0
M  V30 1735 H 170.668 -5.09914 -2.91996 0
M  V30 1736 H 172.192 -4.782 -3.7968 0
M  V30 1737 H 173.606 -5.49352 -1.63968 0
M  V30 1738 H 172.003 -5.9214 -0.974178 0
M  V30 1739 H 173.073 -4.8487 -0.0536168 0
M  V30 1740 N 174.416 0.165178 -1.56732 0
M  V30 1741 C 175.349 1.23336 -1.91998 0
M  V30 1742 C 176.327 1.42476 -0.783531 0
M  V30 1743 O 177.511 1.57384 -1.03743 0
M  V30 1744 C 174.638 2.59533 -2.17625 0
M  V30 1745 C 173.684 2.57093 -3.40302 0
M  V30 1746 S 174.517 2.05571 -4.9447 0
M  V30 1747 C 175.673 3.43532 -5.23198 0
M  V30 1748 H 175.906 0.932387 -2.82301 0
M  V30 1749 H 173.439 0.370013 -1.49901 0
M  V30 1750 H 175.397 3.37918 -2.3307 0
M  V30 1751 H 174.058 2.86827 -1.28019 0
M  V30 1752 H 173.251 3.57308 -3.55453 0
M  V30 1753 H 172.853 1.86806 -3.24005 0
M  V30 1754 H 175.145 4.39559 -5.15552 0
M  V30 1755 H 176.088 3.33251 -6.2478 0
M  V30 1756 H 176.496 3.39828 -4.50752 0
M  V30 1757 N 175.894 1.51508 0.433938 0
M  V30 1758 C 177.14 1.64588 1.18484 0
M  V30 1759 C 177.473 0.362666 1.90784 0
M  V30 1760 O 176.748 -0.637892 1.83742 0
M  V30 1761 C 177.031 2.85149 2.19913 0
M  V30 1762 C 176.884 4.23456 1.51674 0
M  V30 1763 C 178.203 3.01227 3.20858 0
M  V30 1764 H 175.322 0.598994 0.429389 0
M  V30 1765 H 177.964 1.84002 0.473647 0
M  V30 1766 H 176.114 2.68729 2.80566 0
M  V30 1767 H 177.786 4.51552 0.943322 0
M  V30 1768 H 176.029 4.25998 0.819035 0
M  V30 1769 H 176.7 5.03812 2.2556 0
M  V30 1770 H 179.176 3.16382 2.70263 0
M  V30 1771 H 178.052 3.87141 3.89118 0
M  V30 1772 H 178.313 2.13447 3.8716 0
M  V30 1773 N 177.372 -0.689602 1.41712 0
M  V30 1774 C 178.335 -1.78521 1.43746 0
M  V30 1775 C 179.335 -1.57436 0.327191 0
M  V30 1776 O 180.525 -1.64 0.587348 0
M  V30 1777 C 177.657 -3.16971 1.25467 0
M  V30 1778 H 178.85 -1.78108 2.41283 0
M  V30 1779 H 176.403 -0.89781 1.27942 0
M  V30 1780 H 177.138 -3.23019 0.287948 0
M  V30 1781 H 176.923 -3.33678 2.05917 0
M  V30 1782 H 178.413 -3.96935 1.2974 0
M  V30 1783 N 178.85 -1.27639 -0.924453 0
M  V30 1784 C 180.098 -1.13941 -1.66918 0
M  V30 1785 C 180.419 0.314589 -1.92446 0
M  V30 1786 O 179.689 1.21964 -1.53303 0
M  V30 1787 H 178.269 -0.418678 -0.618642 0
M  V30 1788 H 180.931 -1.60213 -1.10985 0
M  V30 1789 H 180.027 -1.67094 -2.63602 0
M  V30 1790 N 180.328 1.1314 -1.09713 0
M  V30 1791 C 181.574 1.84967 -0.846104 0
M  V30 1792 C 181.929 1.82082 0.621601 0
M  V30 1793 O 181.222 1.2501 1.452 0
M  V30 1794 C 181.416 3.32167 -1.3191 0
M  V30 1795 C 181.245 3.49386 -2.83125 0
M  V30 1796 C 180.015 3.63456 -3.51038 0
M  V30 1797 C 182.213 3.45179 -3.81256 0
M  V30 1798 N 180.195 3.68966 -4.9065 0
M  V30 1799 C 181.566 3.57094 -5.06837 0
M  V30 1800 C 183.621 3.28598 -3.74069 0
M  V30 1801 C 182.324 3.5414 -6.26081 0
M  V30 1802 C 184.35 3.26953 -4.92804 0
M  V30 1803 C 183.712 3.39422 -6.17229 0
M  V30 1804 H 179.811 0.692899 -0.362512 0
M  V30 1805 H 182.395 1.35506 -1.39808 0
M  V30 1806 H 180.566 3.80186 -0.794535 0
M  V30 1807 H 182.298 3.91815 -1.01308 0
M  V30 1808 H 179.053 3.65256 -3.01471 0
M  V30 1809 H 179.477 3.75404 -5.63383 0
M  V30 1810 H 184.119 3.17858 -2.78794 0
M  V30 1811 H 181.837 3.63653 -7.21653 0
M  V30 1812 H 185.423 3.15316 -4.88945 0
M  V30 1813 H 184.303 3.38114 -7.07565 0
M  V30 1814 N 181.806 0.884767 1.30421 0
M  V30 1815 C 183.083 0.423185 1.90967 0
M  V30 1816 C 183.463 -1.09605 1.80416 0
M  V30 1817 O 182.811 -1.93126 1.22125 0
M  V30 1818 C 183.021 0.921056 3.36627 0
M  V30 1819 C 184.369 0.955903 4.137 0
M  V30 1820 O 185.393 0.867706 3.4547 0
M  V30 1821 O 184.252 1.08614 5.35598 0
M  V30 1822 H 181.346 0.129369 0.816819 0
M  V30 1823 H 183.892 0.973653 1.3899 0
M  V30 1824 H 182.664 1.96489 3.3839 0
M  V30 1825 H 182.287 0.349741 3.96059 0
M  V30 1826 N 183.284 -1.43765 0.645699 0
M  V30 1827 C 184.216 -2.29027 -0.0890605 0
M  V30 1828 C 185.229 -1.42093 -0.794563 0
M  V30 1829 O 186.418 -1.66104 -0.653575 0
M  V30 1830 C 183.518 -3.18831 -1.14891 0
M  V30 1831 C 182.691 -4.34261 -0.523043 0
M  V30 1832 C 181.75 -5.04994 -1.47878 0
M  V30 1833 O 180.776 -5.6052 -0.990277 0
M  V30 1834 N 181.978 -5.07795 -2.81291 0
M  V30 1835 H 184.743 -2.92727 0.64272 0
M  V30 1836 H 182.304 -1.54373 0.487924 0
M  V30 1837 H 184.296 -3.63015 -1.78892 0
M  V30 1838 H 182.866 -2.56782 -1.78275 0
M  V30 1839 H 182.086 -3.93088 0.295896 0
M  V30 1840 H 183.374 -5.08728 -0.0858147 0
M  V30 1841 H 182.772 -4.64042 -3.23546 0
M  V30 1842 H 181.329 -5.55721 -3.40614 0
M  V30 1843 N 184.763 -0.387143 -1.52771 0
M  V30 1844 C 186.179 -0.037007 -1.59557 0
M  V30 1845 C 186.379 1.44801 -1.40124 0
M  V30 1846 O 185.435 2.21227 -1.21716 0
M  V30 1847 C 186.748 -0.512256 -2.96305 0
M  V30 1848 C 188.296 -0.468328 -3.09476 0
M  V30 1849 C 188.771 -0.919731 -4.4867 0
M  V30 1850 N 190.262 -0.875656 -4.54848 0
M  V30 1851 C 190.997 -1.19637 -5.6078 0
M  V30 1852 N 190.493 -1.58745 -6.74368 0
M  V30 1853 N 192.286 -1.11776 -5.50874 0
M  V30 1854 H 184.437 -1.35395 -1.63652 0
M  V30 1855 H 186.7 -0.554818 -0.768688 0
M  V30 1856 H 186.406 -1.54935 -3.15734 0
M  V30 1857 H 186.28 0.089805 -3.77093 0
M  V30 1858 H 188.667 0.559671 -2.89744 0
M  V30 1859 H 188.748 -1.10616 -2.30646 0
M  V30 1860 H 188.392 -1.94595 -4.69143 0
M  V30 1861 H 188.322 -0.258927 -5.25963 0
M  V30 1862 H 190.813 -0.587843 -3.733 0
M  V30 1863 H 191.126 -1.81586 -7.51163 0
M  V30 1864 H 189.471 -1.6263 -6.75705 0
M  V30 1865 H 192.662 -0.811264 -4.61016 0
M  V30 1866 H 192.835 -1.37103 -6.3333 0
M  V30 1867 N 186.241 1.57166 -0.116904 0
M  V30 1868 C 187.151 2.18745 0.847812 0
M  V30 1869 C 188.167 1.163 1.29423 0
M  V30 1870 O 189.343 1.48761 1.35765 0
M  V30 1871 C 186.408 2.77307 2.0809 0
M  V30 1872 C 185.469 3.94781 1.68661 0
M  V30 1873 C 184.702 4.50541 2.86091 0
M  V30 1874 O 184.925 4.05202 4.01456 0
M  V30 1875 O 183.859 5.41256 2.63298 0
M  V30 1876 H 187.685 3.01632 0.353778 0
M  V30 1877 H 185.27 1.49005 0.108599 0
M  V30 1878 H 187.152 3.14647 2.80313 0
M  V30 1879 H 185.827 1.97452 2.56504 0
M  V30 1880 H 184.734 3.62214 0.935518 0
M  V30 1881 H 186.067 4.76065 1.24991 0
M  V30 1882 N 187.719 -0.156864 1.56817 0
M  V30 1883 C 188.967 -0.869404 1.82444 0
M  V30 1884 C 189.288 -1.82147 0.69623 0
M  V30 1885 O 188.558 -1.93847 -0.28287 0
M  V30 1886 H 187.138 -0.324043 0.673056 0
M  V30 1887 H 189.8 -0.153224 1.94297 0
M  V30 1888 H 188.896 -1.43761 2.77019 0
M  V30 1889 N 189.197 -1.51736 -0.425897 0
M  V30 1890 C 190.445 -1.64644 -1.17204 0
M  V30 1891 C 190.766 -0.370486 -1.91448 0
M  V30 1892 O 190.036 0.614088 -1.86026 0
M  V30 1893 H 188.616 -0.606819 -0.435638 0
M  V30 1894 H 191.278 -1.88713 -0.487177 0
M  V30 1895 H 190.374 -2.47958 -1.89534 0
M  V30 1896 N 190.675 0.682077 -1.42076 0
M  V30 1897 C 191.607 1.80755 -1.40926 0
M  V30 1898 C 192.62 1.59833 -0.309398 0
M  V30 1899 O 193.809 1.69087 -0.572014 0
M  V30 1900 C 190.909 3.17744 -1.17865 0
M  V30 1901 C 190.082 3.65578 -2.40149 0
M  V30 1902 C 189.141 4.81277 -2.12742 0
M  V30 1903 O 188.167 4.92197 -2.85887 0
M  V30 1904 N 189.369 5.69474 -1.12602 0
M  V30 1905 H 192.134 1.82229 -2.37935 0
M  V30 1906 H 189.695 0.864903 -1.36861 0
M  V30 1907 H 191.687 3.9279 -0.9746 0
M  V30 1908 H 190.257 3.11214 -0.294068 0
M  V30 1909 H 189.477 2.81291 -2.76169 0
M  V30 1910 H 190.765 3.94278 -3.21593 0
M  V30 1911 H 190.163 5.63297 -0.520899 0
M  V30 1912 H 188.72 6.44363 -0.981842 0
M  V30 1913 N 192.153 1.28127 0.917671 0
M  V30 1914 C 193.399 1.15223 1.66888 0
M  V30 1915 C 193.732 -0.299293 1.9188 0
M  V30 1916 O 193.007 -1.21805 1.51637 0
M  V30 1917 C 193.29 1.94706 3.02922 0
M  V30 1918 C 193.143 3.47898 2.85109 0
M  V30 1919 C 194.462 1.75939 4.03402 0
M  V30 1920 H 191.581 0.419946 0.605652 0
M  V30 1921 H 194.223 1.57398 1.06423 0
M  V30 1922 H 192.373 1.58864 3.54534 0
M  V30 1923 H 194.045 3.93624 2.40537 0
M  V30 1924 H 192.288 3.7373 2.20246 0
M  V30 1925 H 192.959 3.98765 3.81694 0
M  V30 1926 H 195.435 2.07209 3.60837 0
M  V30 1927 H 194.311 2.33931 4.96556 0
M  V30 1928 H 194.572 0.709877 4.36364 0
M  V30 1929 N 193.631 -1.12557 1.10312 0
M  V30 1930 C 194.861 -1.87592 0.865617 0
M  V30 1931 C 195.269 -1.79851 -0.587389 0
M  V30 1932 O 194.612 -1.16949 -1.41664 0
M  V30 1933 C 194.674 -3.37665 1.23381 0
M  V30 1934 C 194.338 -3.69181 2.69359 0
M  V30 1935 C 195.335 -3.67652 3.67597 0
M  V30 1936 C 193.02 -3.98555 3.05711 0
M  V30 1937 C 195.014 -3.95053 5.00212 0
M  V30 1938 C 192.701 -4.25616 4.38514 0
M  V30 1939 C 193.699 -4.23851 5.35574 0
M  V30 1940 O 193.387 -4.50242 6.65986 0
M  V30 1941 H 193.119 -0.600442 0.310557 0
M  V30 1942 H 195.673 -1.4335 1.47105 0
M  V30 1943 H 193.903 -3.82454 0.571467 0
M  V30 1944 H 195.592 -3.94041 0.973994 0
M  V30 1945 H 196.358 -3.45024 3.40857 0
M  V30 1946 H 192.237 -3.99071 2.30789 0
M  V30 1947 H 195.781 -3.93591 5.75962 0
M  V30 1948 H 191.678 -4.47718 4.64994 0
M  V30 1949 H 192.446 -4.67867 6.71597 0
M  V30 1950 N 195.109 -0.891671 -1.2995 0
M  V30 1951 C 196.357 -0.512486 -1.95494 0
M  V30 1952 C 196.678 0.942776 -1.70695 0
M  V30 1953 O 195.948 1.66374 -1.03424 0
M  V30 1954 H 194.528 -0.186533 -0.723336 0
M  V30 1955 H 197.19 -1.13621 -1.58355 0
M  V30 1956 H 196.286 -0.688342 -3.04415 0
M  V30 1957 N 196.587 1.43421 -0.653314 0
M  V30 1958 C 197.815 2.06163 -0.174491 0
M  V30 1959 C 198.23 1.48969 1.1599 0
M  V30 1960 O 197.587 0.621042 1.71608 0
M  V30 1961 C 197.638 3.61417 -0.0774865 0
M  V30 1962 O 197.359 4.16485 -1.35912 0
M  V30 1963 C 198.86 4.41235 0.427402 0
M  V30 1964 H 196.08 0.664946 -0.0899353 0
M  V30 1965 H 198.624 1.83924 -0.893988 0
M  V30 1966 H 196.779 3.82841 0.59257 0
M  V30 1967 H 197.193 5.10153 -1.21839 0
M  V30 1968 H 198.667 5.5021 0.44423 0
M  V30 1969 H 199.144 4.14268 1.45873 0
M  V30 1970 H 199.75 4.2478 -0.210167 0
M  V30 1971 N 198.065 0.39524 1.52563 0
M  V30 1972 C 198.995 -0.428384 2.29537 0
M  V30 1973 C 199.976 -1.05831 1.33169 0
M  V30 1974 O 201.161 -1.06995 1.62067 0
M  V30 1975 C 198.291 -1.55274 3.10656 0
M  V30 1976 C 197.245 -1.04855 4.14957 0
M  V30 1977 C 196.571 -2.26543 4.84337 0
M  V30 1978 C 197.871 -0.112324 5.22179 0
M  V30 1979 H 199.565 0.213867 2.98635 0
M  V30 1980 H 197.111 0.104298 1.43622 0
M  V30 1981 H 199.064 -2.1358 3.63265 0
M  V30 1982 H 197.788 -2.22266 2.39302 0
M  V30 1983 H 196.447 -0.487985 3.63338 0
M  V30 1984 H 196.095 -2.92059 4.09525 0
M  V30 1985 H 195.795 -1.93466 5.54837 0
M  V30 1986 H 197.319 -2.85481 5.39753 0
M  V30 1987 H 198.733 -0.603752 5.70112 0
M  V30 1988 H 197.13 0.128968 5.99961 0
M  V30 1989 H 198.2 0.837052 4.77621 0
M  V30 1990 N 199.544 -1.57102 0.125237 0
M  V30 1991 C 200.792 -1.95021 -0.530198 0
M  V30 1992 C 201.113 -1.00982 -1.66816 0
M  V30 1993 O 200.383 -0.0672693 -1.95784 0
M  V30 1994 H 198.963 -0.720046 -0.198853 0
M  V30 1995 H 201.625 -1.93916 0.19564 0
M  V30 1996 H 200.721 -2.98211 -0.920681 0
M  V30 1997 N 201.022 0.148545 -1.56898 0
M  V30 1998 C 202.27 0.859717 -1.82902 0
M  V30 1999 C 202.591 1.81775 -0.70588 0
M  V30 2000 O 201.861 1.93994 0.272586 0
M  V30 2001 H 200.441 0.320469 -0.674766 0
M  V30 2002 H 203.103 0.142918 -1.94375 0
M  V30 2003 H 202.199 1.4229 -2.77777 0
M  V30 2004 N 202.5 1.5196 0.417844 0
M  V30 2005 C 203.433 1.69387 1.52916 0
M  V30 2006 C 204.411 0.541419 1.53321 0
M  V30 2007 O 205.595 0.767695 1.72159 0
M  V30 2008 C 202.722 1.72525 2.91467 0
M  V30 2009 C 201.768 2.93967 3.09008 0
M  V30 2010 S 202.601 4.54461 2.83242 0
M  V30 2011 C 203.757 4.60372 4.24038 0
M  V30 2012 H 203.99 2.63382 1.37903 0
M  V30 2013 H 201.523 1.41889 0.608845 0
M  V30 2014 H 203.481 1.75018 3.7132 0
M  V30 2015 H 202.142 0.796733 3.03827 0
M  V30 2016 H 201.335 2.92619 4.10353 0
M  V30 2017 H 200.937 2.89316 2.37007 0
M  V30 2018 H 203.229 4.37213 5.17544 0
M  V30 2019 H 204.172 5.62273 4.30412 0
M  V30 2020 H 204.58 3.89492 4.08602 0
M  V30 2021 N 203.978 -0.674533 1.42435 0
M  V30 2022 C 204.908 -1.80009 1.48724 0
M  V30 2023 C 205.889 -1.6659 0.343793 0
M  V30 2024 O 207.074 -1.86007 0.558137 0
M  V30 2025 C 204.204 -3.18306 1.38919 0
M  V30 2026 C 203.158 -3.46461 2.51294 0
M  V30 2027 C 202.484 -4.84335 2.26547 0
M  V30 2028 C 203.784 -3.43328 3.93603 0
M  V30 2029 H 205.478 -1.75004 2.42928 0
M  V30 2030 H 203.024 -0.840533 1.16923 0
M  V30 2031 H 204.977 -3.9678 1.41927 0
M  V30 2032 H 203.701 -3.2399 0.412094 0
M  V30 2033 H 202.36 -2.70348 2.47604 0
M  V30 2034 H 202.008 -4.86669 1.2713 0
M  V30 2035 H 201.708 -5.04136 3.01861 0
M  V30 2036 H 203.232 -5.65094 2.31304 0
M  V30 2037 H 204.646 -4.11772 3.98894 0
M  V30 2038 H 203.043 -3.74664 4.68771 0
M  V30 2039 H 204.113 -2.41897 4.20255 0
M  V30 2040 N 205.456 -1.28612 -0.910864 0
M  V30 2041 C 206.684 -1.18792 -1.69399 0
M  V30 2042 C 207.099 0.253039 -1.87097 0
M  V30 2043 O 206.456 1.17071 -1.40003 0
M  V30 2044 C 206.507 -1.88511 -3.08457 0
M  V30 2045 O 206.228 -3.26979 -2.91576 0
M  V30 2046 C 207.729 -1.85029 -4.02839 0
M  V30 2047 H 204.949 -0.412233 -0.529438 0
M  V30 2048 H 207.493 -1.69788 -1.13984 0
M  V30 2049 H 205.648 -1.41379 -3.60681 0
M  V30 2050 H 206.062 -3.61936 -3.79608 0
M  V30 2051 H 207.536 -2.38395 -4.97867 0
M  V30 2052 H 208.013 -0.823303 -4.31414 0
M  V30 2053 H 208.619 -2.31853 -3.56545 0
M  V30 2054 N 206.934 1.1197 -1.10907 0
M  V30 2055 C 208.35 1.35591 -0.841852 0
M  V30 2056 C 208.55 1.94233 0.536246 0
M  V30 2057 O 207.606 2.1717 1.28816 0
M  V30 2058 C 208.919 2.29284 -1.94549 0
M  V30 2059 C 210.467 2.42862 -1.97451 0
M  V30 2060 C 210.942 3.39873 -3.07002 0
M  V30 2061 N 212.433 3.47433 -3.06341 0
M  V30 2062 C 213.168 4.22421 -3.87748 0
M  V30 2063 N 212.664 5.00432 -4.79103 0
M  V30 2064 N 214.457 4.17876 -3.75946 0
M  V30 2065 H 206.608 0.722664 -1.99728 0
M  V30 2066 H 208.871 0.380635 -0.868229 0
M  V30 2067 H 208.577 1.93378 -2.93765 0
M  V30 2068 H 208.451 3.29452 -1.83688 0
M  V30 2069 H 210.838 2.78046 -0.988645 0
M  V30 2070 H 210.919 1.42566 -2.12388 0
M  V30 2071 H 210.563 3.05417 -4.05811 0
M  V30 2072 H 210.493 4.40011 -2.89306 0
M  V30 2073 H 212.984 2.91784 -2.40147 0
M  V30 2074 H 213.297 5.55002 -5.37766 0
M  V30 2075 H 211.642 4.99612 -4.83128 0
M  V30 2076 H 214.833 3.56016 -3.03924 0
M  V30 2077 H 215.006 4.76061 -4.39624 0
M  V30 2078 N 208.412 0.89855 1.29475 0
M  V30 2079 C 209.344 0.332726 2.26772 0
M  V30 2080 C 210.357 -0.520323 1.54261 0
M  V30 2081 O 211.546 -0.337668 1.75277 0
M  V30 2082 C 208.646 -0.544334 3.345 0
M  V30 2083 C 207.819 0.282728 4.36485 0
M  V30 2084 C 206.878 -0.526982 5.23555 0
M  V30 2085 O 205.904 0.0551165 5.69173 0
M  V30 2086 N 207.106 -1.83331 5.5079 0
M  V30 2087 H 209.871 1.16897 2.75962 0
M  V30 2088 H 207.432 0.762919 1.42798 0
M  V30 2089 H 209.424 -1.09239 3.89678 0
M  V30 2090 H 207.994 -1.28127 2.85136 0
M  V30 2091 H 207.214 1.01221 3.80983 0
M  V30 2092 H 208.502 0.84918 5.01664 0
M  V30 2093 H 207.9 -2.32898 5.15534 0
M  V30 2094 H 206.457 -2.32852 6.08788 0
M  V30 2095 N 209.89 -1.43072 0.660911 0
M  V30 2096 C 211.301 -1.84932 0.256348 0
M  V30 2097 C 211.652 -1.55325 -1.19868 0
M  V30 2098 O 210.777 -1.00607 -1.91591 0
M  V30 2099 C 211.372 -3.35684 0.458475 0
M  V30 2100 C 209.931 -3.76245 0.108161 0
M  V30 2101 C 209.078 -2.66749 0.757641 0
M  V30 2102 H 212.029 -1.33116 0.864051 0
M  V30 2103 H 212.05 -3.79365 -0.293683 0
M  V30 2104 H 211.562 -3.572 1.51755 0
M  V30 2105 H 209.663 -3.60338 -0.948014 0
M  V30 2106 H 209.776 -4.76058 0.538992 0
M  V30 2107 H 208.14 -2.53989 0.190185 0
M  V30 2108 H 208.923 -2.91092 1.81989 0
M  V30 2109 N 211.368 -0.403325 -1.52352 0
M  V30 2110 C 212.615 0.174347 -2.01748 0
M  V30 2111 C 212.943 1.45636 -1.2892 0
M  V30 2112 O 212.198 1.9193 -0.382258 0
M  V30 2113 C 212.497 0.474665 -3.54234 0
M  V30 2114 C 212.163 -0.717458 -4.45155 0
M  V30 2115 C 210.825 -1.04447 -4.69728 0
M  V30 2116 C 213.177 -1.51432 -4.98716 0
M  V30 2117 C 210.505 -2.16963 -5.45109 0
M  V30 2118 C 212.857 -2.6302 -5.75329 0
M  V30 2119 C 211.521 -2.96213 -5.98175 0
M  V30 2120 H 210.791 0.0637981 -0.738248 0
M  V30 2121 H 213.438 -0.543553 -1.83624 0
M  V30 2122 H 211.743 1.27406 -3.70506 0
M  V30 2123 H 213.44 0.934496 -3.89959 0
M  V30 2124 H 210.03 -0.452596 -4.26204 0
M  V30 2125 H 214.214 -1.27491 -4.79645 0
M  V30 2126 H 209.47 -2.43034 -5.61021 0
M  V30 2127 H 213.644 -3.25158 -6.15829 0
M  V30 2128 H 211.271 -3.83516 -6.56368 0
M  V30 2129 N 212.846 1.57033 -0.133567 0
M  V30 2130 C 213.809 2.14897 0.796995 0
M  V30 2131 C 214.809 1.0874 1.18458 0
M  V30 2132 O 215.999 1.34446 1.1077 0
M  V30 2133 C 213.131 2.70112 2.07973 0
M  V30 2134 H 214.324 2.98457 0.293873 0
M  V30 2135 H 211.877 1.55871 0.115787 0
M  V30 2136 H 212.612 1.9018 2.62682 0
M  V30 2137 H 212.397 3.47764 1.81115 0
M  V30 2138 H 213.887 3.14738 2.74462 0
M  V30 2139 N 214.325 -0.140222 1.56975 0
M  V30 2140 C 215.574 -0.850152 1.82908 0
M  V30 2141 C 215.887 -1.82028 0.715892 0
M  V30 2142 O 217.093 -2.57485 0.861016 0
M  V30 2143 C 215.549 -1.5625 3.24213 0
M  V30 2144 C 215.157 -0.63443 4.43485 0
M  V30 2145 C 216.901 -2.25881 3.59413 0
M  V30 2146 C 214.808 -1.34879 5.75814 0
M  V30 2147 H 213.738 -0.321221 0.682153 0
M  V30 2148 H 216.389 -0.102874 1.83211 0
M  V30 2149 H 214.771 -2.35565 3.18316 0
M  V30 2150 H 215.945 0.12398 4.60633 0
M  V30 2151 H 214.26 -0.0461836 4.16374 0
M  V30 2152 H 216.857 -2.79978 4.5554 0
M  V30 2153 H 217.2 -3.02693 2.85802 0
M  V30 2154 H 217.733 -1.53477 3.67001 0
M  V30 2155 H 214.472 -0.622385 6.52539 0
M  V30 2156 H 213.992 -2.07974 5.6259 0
M  V30 2157 H 215.671 -1.88784 6.18845 0
M  V30 2158 N 215.803 -1.52179 -0.40978 0
M  V30 2159 C 217.051 -1.65878 -1.15451 0
M  V30 2160 C 217.372 -0.390771 -1.91044 0
M  V30 2161 O 216.642 0.594323 -1.86667 0
M  V30 2162 H 215.222 -0.611405 -0.429177 0
M  V30 2163 H 217.884 -1.89219 -0.467134 0
M  V30 2164 H 216.98 -2.49954 -1.86894 0
M  V30 2165 N 217.281 0.66697 -1.42791 0
M  V30 2166 C 218.529 1.42417 -1.43394 0
M  V30 2167 C 218.85 1.94925 -0.0542373 0
M  V30 2168 O 218.12 1.73564 0.908415 0
M  V30 2169 H 216.7 0.528515 -0.527902 0
M  V30 2170 H 219.362 0.787562 -1.78279 0
M  V30 2171 H 218.458 2.27333 -2.13837 0
M  V30 2172 N 218.759 1.29093 0.90403 0
M  V30 2173 C 219.984 1.19809 1.69294 0
M  V30 2174 C 220.409 -0.238481 1.86582 0
M  V30 2175 O 219.767 -1.1723 1.383 0
M  V30 2176 C 219.815 1.91202 3.05736 0
M  V30 2177 O 218.919 1.22611 3.93752 0
M  V30 2178 H 218.26 0.415385 0.518027 0
M  V30 2179 H 220.79 1.70586 1.12967 0
M  V30 2180 H 220.8 1.99487 3.55906 0
M  V30 2181 H 219.475 2.95692 2.92471 0
M  V30 2182 H 218.052 1.22554 3.52186 0
M  V30 2183 N 220.237 -1.11381 1.11499 0
M  V30 2184 C 221.485 -1.8277 0.862524 0
M  V30 2185 C 221.806 -1.85097 -0.613534 0
M  V30 2186 O 221.076 -1.32198 -1.4457 0
M  V30 2187 H 219.656 -0.676823 0.316101 0
M  V30 2188 H 222.318 -1.34816 1.4075 0
M  V30 2189 H 221.414 -2.86614 1.23527 0
M  V30 2190 N 221.715 -0.905404 -1.28997 0
M  V30 2191 C 222.94 -0.549175 -1.99997 0
M  V30 2192 C 223.365 0.860276 -1.67275 0
M  V30 2193 O 222.723 1.57355 -0.900502 0
M  V30 2194 C 222.771 -0.755185 -3.52604 0
M  V30 2195 O 221.875 0.189692 -4.11964 0
M  V30 2196 H 221.216 -0.213899 -0.628604 0
M  V30 2197 H 223.746 -1.21856 -1.64354 0
M  V30 2198 H 223.756 -0.662045 -4.02593 0
M  V30 2199 H 222.431 -1.78271 -3.75755 0
M  V30 2200 H 221.008 0.0485257 -3.72868 0
M  V30 2201 N 223.193 1.4272 -0.668489 0
M  V30 2202 C 224.421 2.05966 -0.196348 0
M  V30 2203 C 224.836 1.50191 1.14403 0
M  V30 2204 O 224.193 0.639208 1.7094 0
M  V30 2205 C 224.244 3.61314 -0.115815 0
M  V30 2206 O 223.965 4.1502 -1.40322 0
M  V30 2207 C 225.466 4.41663 0.380579 0
M  V30 2208 H 222.686 0.663954 -0.0969829 0
M  V30 2209 H 225.23 1.82966 -0.913446 0
M  V30 2210 H 223.385 3.83448 0.551931 0
M  V30 2211 H 223.799 5.08832 -1.27243 0
M  V30 2212 H 225.273 5.5065 0.385848 0
M  V30 2213 H 225.75 4.15792 1.41471 0
M  V30 2214 H 226.356 4.24534 -0.255209 0
M  V30 2215 N 224.671 0.411399 1.52136 0
M  V30 2216 C 225.918 -0.163645 2.01838 0
M  V30 2217 C 226.246 -1.4495 1.29691 0
M  V30 2218 O 225.501 -1.91725 0.392431 0
M  V30 2219 C 225.8 -0.455872 3.54481 0
M  V30 2220 C 225.466 0.741055 4.44769 0
M  V30 2221 C 224.128 1.06936 4.69167 0
M  V30 2222 C 226.48 1.54075 4.97906 0
M  V30 2223 C 223.808 2.19851 5.43951 0
M  V30 2224 C 226.16 2.66067 5.73926 0
M  V30 2225 C 224.824 2.99381 5.96596 0
M  V30 2226 H 224.094 -0.0598821 0.738576 0
M  V30 2227 H 226.741 0.553283 1.83333 0
M  V30 2228 H 225.046 -1.2544 3.71177 0
M  V30 2229 H 226.743 -0.913802 3.90449 0
M  V30 2230 H 223.333 0.475192 4.25958 0
M  V30 2231 H 227.517 1.30033 4.78963 0
M  V30 2232 H 222.773 2.46006 5.59724 0
M  V30 2233 H 226.947 3.28419 6.14096 0
M  V30 2234 H 224.574 3.86992 6.54325 0
M  V30 2235 N 226.149 -1.5696 0.141893 0
M  V30 2236 C 227.398 -1.95135 -0.510427 0
M  V30 2237 C 227.711 -1.02896 -1.66348 0
M  V30 2238 O 228.917 -1.30629 -2.38009 0
M  V30 2239 C 227.373 -3.46876 -0.959427 0
M  V30 2240 C 226.981 -4.47691 0.166419 0
M  V30 2241 C 228.725 -3.93927 -1.58183 0
M  V30 2242 C 226.632 -5.90636 -0.300565 0
M  V30 2243 H 225.562 -0.728494 -0.194454 0
M  V30 2244 H 228.213 -1.8211 0.22542 0
M  V30 2245 H 226.595 -3.55215 -1.75038 0
M  V30 2246 H 227.769 -4.51043 0.94325 0
M  V30 2247 H 226.084 -4.10527 0.696905 0
M  V30 2248 H 228.681 -4.98158 -1.94275 0
M  V30 2249 H 229.024 -3.3519 -2.46888 0
M  V30 2250 H 229.557 -3.88484 -0.855863 0
M  V30 2251 H 226.296 -6.5318 0.550989 0
M  V30 2252 H 225.816 -5.90655 -1.04338 0
M  V30 2253 H 227.495 -6.42588 -0.754265 0
M  V30 2254 N 227.627 0.131896 -1.57047 0
M  V30 2255 C 228.857 0.855219 -1.88068 0
M  V30 2256 C 229.265 1.74557 -0.729817 0
M  V30 2257 O 228.608 1.81083 0.308962 0
M  V30 2258 C 228.67 1.75119 -3.13964 0
M  V30 2259 C 228.334 1.03646 -4.45091 0
M  V30 2260 C 229.331 0.383276 -5.18485 0
M  V30 2261 C 227.016 1.02148 -4.91804 0
M  V30 2262 C 229.01 -0.275347 -6.36805 0
M  V30 2263 C 226.697 0.359047 -6.10044 0
M  V30 2264 C 227.695 -0.288222 -6.82392 0
M  V30 2265 O 227.383 -0.94011 -7.98384 0
M  V30 2266 H 227.115 0.251864 -0.627328 0
M  V30 2267 H 229.669 0.124782 -2.05021 0
M  V30 2268 H 227.899 2.52295 -2.9306 0
M  V30 2269 H 229.588 2.3478 -3.31109 0
M  V30 2270 H 230.354 0.386562 -4.83457 0
M  V30 2271 H 226.233 1.5147 -4.35405 0
M  V30 2272 H 229.777 -0.781148 -6.93213 0
M  V30 2273 H 225.674 0.35348 -6.44531 0
M  V30 2274 H 226.442 -0.84329 -8.14144 0
M  V30 2275 N 229.106 1.52395 0.401703 0
M  V30 2276 C 230.354 1.66488 1.14569 0
M  V30 2277 C 230.675 0.400897 1.90835 0
M  V30 2278 O 229.945 -0.584415 1.8698 0
M  V30 2279 H 228.525 0.613672 0.425929 0
M  V30 2280 H 231.187 1.89464 0.457093 0
M  V30 2281 H 230.283 2.50942 1.85566 0
M  V30 2282 N 230.584 -0.659388 1.43143 0
M  V30 2283 C 231.814 -1.44513 1.47646 0
M  V30 2284 C 232.222 -1.88981 0.0910095 0
M  V30 2285 O 231.565 -1.59702 -0.907789 0
M  V30 2286 C 231.627 -2.71663 2.35456 0
M  V30 2287 C 231.291 -2.49175 3.83094 0
M  V30 2288 C 232.288 -2.1279 4.74359 0
M  V30 2289 C 229.973 -2.63691 4.27519 0
M  V30 2290 C 231.967 -1.9121 6.08044 0
M  V30 2291 C 229.654 -2.41726 5.61259 0
M  V30 2292 C 230.652 -2.0554 6.51339 0
M  V30 2293 O 230.34 -1.838 7.82606 0
M  V30 2294 H 230.072 -0.45064 0.503884 0
M  V30 2295 H 232.626 -0.816248 1.88485 0
M  V30 2296 H 230.856 -3.37089 1.89493 0
M  V30 2297 H 232.545 -3.33595 2.31235 0
M  V30 2298 H 233.311 -2.01157 4.41317 0
M  V30 2299 H 229.19 -2.90832 3.57684 0
M  V30 2300 H 232.734 -1.62889 6.78316 0
M  V30 2301 H 228.631 -2.52959 5.9387 0
M  V30 2302 H 229.399 -1.98275 7.94122 0
M  V30 2303 N 232.062 -1.29571 -0.897171 0
M  V30 2304 C 233.308 -1.17863 -1.65034 0
M  V30 2305 C 233.641 0.268729 -1.92332 0
M  V30 2306 O 232.916 1.19378 -1.53555 0
M  V30 2307 C 233.199 -1.995 -2.99786 0
M  V30 2308 C 233.052 -3.5239 -2.79538 0
M  V30 2309 C 234.371 -1.82335 -4.00552 0
M  V30 2310 H 231.49 -0.429528 -0.598895 0
M  V30 2311 H 234.132 -1.59072 -1.03905 0
M  V30 2312 H 232.282 -1.64485 -3.51962 0
M  V30 2313 H 233.954 -3.97401 -2.34244 0
M  V30 2314 H 232.197 -3.77187 -2.14273 0
M  V30 2315 H 232.868 -4.04787 -3.75302 0
M  V30 2316 H 235.344 -2.12924 -3.57495 0
M  V30 2317 H 234.22 -2.41801 -4.92771 0
M  V30 2318 H 234.481 -0.779209 -4.35179 0
M  V30 2319 N 233.54 1.10788 -1.12088 0
M  V30 2320 C 234.817 1.79136 -0.785476 0
M  V30 2321 C 235.197 1.98246 0.725377 0
M  V30 2322 O 234.545 1.57258 1.65778 0
M  V30 2323 C 234.755 3.12375 -1.55636 0
M  V30 2324 C 236.103 3.8731 -1.74001 0
M  V30 2325 O 237.127 3.22085 -1.52117 0
M  V30 2326 O 235.986 5.04369 -2.10415 0
M  V30 2327 H 233.08 0.776226 -0.285311 0
M  V30 2328 H 235.626 1.1747 -1.2247 0
M  V30 2329 H 234.398 2.93863 -2.5838 0
M  V30 2330 H 234.021 3.81758 -1.11114 0
M  V30 2331 N 235.018 0.912232 1.28515 0
M  V30 2332 C 235.981 0.404223 2.25607 0
M  V30 2333 C 236.981 -0.468602 1.53821 0
M  V30 2334 O 238.171 -0.271873 1.72065 0
M  V30 2335 C 235.303 -0.420653 3.38295 0
M  V30 2336 H 236.496 1.26188 2.7206 0
M  V30 2337 H 234.049 0.691495 1.40171 0
M  V30 2338 H 234.784 -1.29777 2.97201 0
M  V30 2339 H 234.569 0.204935 3.91564 0
M  V30 2340 H 236.059 -0.766971 4.10496 0
M  V30 2341 N 236.496 -1.42363 0.676048 0
M  V30 2342 C 237.459 -2.29199 0.00766941 0
M  V30 2343 C 238.459 -1.43389 -0.727745 0
M  V30 2344 O 239.649 -1.64764 -0.56556 0
M  V30 2345 C 236.781 -3.2591 -0.999785 0
M  V30 2346 H 237.974 -2.89794 0.771988 0
M  V30 2347 H 235.527 -1.50024 0.438468 0
M  V30 2348 H 236.262 -2.70256 -1.79255 0
M  V30 2349 H 236.047 -3.89202 -0.475829 0
M  V30 2350 H 237.537 -3.91028 -1.46583 0
M  V30 2351 N 237.974 -0.419461 -1.51915 0
M  V30 2352 C 239.204 0.151915 -2.06041 0
M  V30 2353 C 239.612 1.38539 -1.28855 0
M  V30 2354 O 238.955 1.80592 -0.336463 0
M  V30 2355 C 239.017 0.557119 -3.55157 0
M  V30 2356 C 238.681 -0.567054 -4.53468 0
M  V30 2357 C 239.678 -1.43379 -4.99738 0
M  V30 2358 C 237.363 -0.742693 -4.96779 0
M  V30 2359 C 239.357 -2.46102 -5.87973 0
M  V30 2360 C 237.044 -1.77322 -5.84808 0
M  V30 2361 C 238.042 -2.63078 -6.30301 0
M  V30 2362 O 237.73 -3.64364 -7.16585 0
M  V30 2363 H 237.462 0.0193293 -0.675724 0
M  V30 2364 H 240.016 -0.592073 -1.96682 0
M  V30 2365 H 238.246 1.35355 -3.62238 0
M  V30 2366 H 239.935 1.05759 -3.9188 0
M  V30 2367 H 240.701 -1.30954 -4.66986 0
M  V30 2368 H 236.58 -0.0848307 -4.60922 0
M  V30 2369 H 240.124 -3.13071 -6.23404 0
M  V30 2370 H 236.021 -1.89773 -6.16974 0
M  V30 2371 H 236.789 -3.60731 -7.34721 0
M  V30 2372 N 239.452 1.56882 -0.150215 0
M  V30 2373 C 240.399 2.16922 0.788244 0
M  V30 2374 C 241.369 1.10303 1.24187 0
M  V30 2375 O 242.554 1.38359 1.31383 0
M  V30 2376 C 239.694 2.79754 2.02068 0
M  V30 2377 C 238.807 4.00775 1.61257 0
M  V30 2378 C 237.942 4.51595 2.79705 0
M  V30 2379 C 236.981 5.65074 2.35282 0
M  V30 2380 N 236.118 6.10499 3.4675 0
M  V30 2381 H 240.958 2.96779 0.269444 0
M  V30 2382 H 238.495 1.46599 0.12128 0
M  V30 2383 H 240.453 3.14329 2.74323 0
M  V30 2384 H 239.083 2.02536 2.51354 0
M  V30 2385 H 238.135 3.72158 0.787553 0
M  V30 2386 H 239.447 4.82978 1.24633 0
M  V30 2387 H 238.601 4.88242 3.60145 0
M  V30 2388 H 237.34 3.68406 3.19576 0
M  V30 2389 H 236.345 5.28 1.53283 0
M  V30 2390 H 237.57 6.50052 1.96493 0
M  V30 2391 H 235.516 5.30243 3.86236 0
M  V30 2392 H 235.433 6.87637 3.14152 0
M  V30 2393 H 236.701 6.51791 4.27537 0
M  V30 2394 N 240.93 -0.123565 1.57115 0
M  V30 2395 C 242.341 -0.681198 1.73829 0
M  V30 2396 C 242.692 -1.80535 0.768214 0
M  V30 2397 O 241.817 -2.16317 -0.0599103 0
M  V30 2398 C 242.412 -1.24246 3.15196 0
M  V30 2399 C 240.971 -1.74643 3.33432 0
M  V30 2400 C 240.118 -0.644284 2.69711 0
M  V30 2401 H 243.069 0.102315 1.5837 0
M  V30 2402 H 243.09 -2.11216 3.16493 0
M  V30 2403 H 242.602 -0.424062 3.85776 0
M  V30 2404 H 240.703 -2.58974 2.67886 0
M  V30 2405 H 240.816 -1.85902 4.41562 0
M  V30 2406 H 239.18 -1.07676 2.3082 0
M  V30 2407 H 239.963 0.163058 3.42913 0
M  V30 2408 N 242.408 -1.52605 -0.393616 0
M  V30 2409 C 243.656 -1.67093 -1.13685 0
M  V30 2410 C 243.977 -0.411011 -1.90619 0
M  V30 2411 O 243.247 0.574491 -1.87287 0
M  V30 2412 H 241.827 -0.615923 -0.422668 0
M  V30 2413 H 244.489 -1.89704 -0.447039 0
M  V30 2414 H 243.585 -2.51922 -1.84232 0
M  V30 2415 N 243.887 0.651787 -1.4349 0
M  V30 2416 C 244.82 1.77668 -1.43211 0
M  V30 2417 C 245.798 1.59931 -0.29338 0
M  V30 2418 O 246.982 1.82095 -0.487191 0
M  V30 2419 C 244.109 3.14986 -1.24505 0
M  V30 2420 C 243.155 3.51421 -2.41673 0
M  V30 2421 S 243.988 3.51234 -4.04222 0
M  V30 2422 C 245.144 4.91206 -3.87902 0
M  V30 2423 H 245.377 1.77635 -2.38397 0
M  V30 2424 H 242.91 0.824558 -1.30539 0
M  V30 2425 H 244.868 3.94237 -1.144 0
M  V30 2426 H 243.529 3.1258 -0.308651 0
M  V30 2427 H 242.722 4.51291 -2.24393 0
M  V30 2428 H 242.324 2.79585 -2.48411 0
M  V30 2429 H 244.616 5.79902 -3.50315 0
M  V30 2430 H 245.559 5.13537 -4.8753 0
M  V30 2431 H 245.967 4.64808 -3.20334 0
M  V30 2432 N 245.365 1.30045 0.890287 0
M  V30 2433 C 246.59 1.21598 1.68014 0
M  V30 2434 C 247.015 -0.218678 1.86825 0
M  V30 2435 O 246.373 -1.15756 1.39536 0
M  V30 2436 C 246.421 1.94434 3.03691 0
M  V30 2437 O 245.525 1.2678 3.92429 0
M  V30 2438 H 244.866 0.420856 0.513592 0
M  V30 2439 H 247.396 1.71775 1.11151 0
M  V30 2440 H 247.406 2.03251 3.5377 0
M  V30 2441 H 246.081 2.98777 2.89318 0
M  V30 2442 H 244.658 1.26282 3.50866 0
M  V30 2443 N 246.843 -1.10192 1.12674 0
M  V30 2444 C 248.254 -1.63707 0.897604 0
M  V30 2445 C 248.605 -1.87812 -0.567546 0
M  V30 2446 O 247.73 -1.62196 -1.43253 0
M  V30 2447 C 248.325 -2.974 1.62292 0
M  V30 2448 C 246.884 -3.47772 1.43986 0
M  V30 2449 C 246.031 -2.22332 1.65722 0
M  V30 2450 H 248.982 -0.936587 1.28116 0
M  V30 2451 H 249.003 -3.64986 1.07541 0
M  V30 2452 H 248.515 -2.79824 2.68924 0
M  V30 2453 H 246.616 -3.70487 0.396206 0
M  V30 2454 H 246.729 -4.25723 2.19765 0
M  V30 2455 H 245.093 -2.30599 1.08149 0
M  V30 2456 H 245.876 -2.07285 2.73657 0
M  V30 2457 N 248.321 -0.919034 -1.28029 0
M  V30 2458 C 249.231 -0.416756 -2.30869 0
M  V30 2459 C 250.247 0.498235 -1.66714 0
M  V30 2460 O 251.423 0.383144 -1.97722 0
M  V30 2461 C 248.488 0.330274 -3.45123 0
M  V30 2462 C 247.549 -0.618578 -4.2482 0
M  V30 2463 C 246.782 0.0928959 -5.33619 0
M  V30 2464 O 247.005 1.31375 -5.55065 0
M  V30 2465 O 245.939 -0.574499 -5.99152 0
M  V30 2466 H 249.765 -1.27043 -2.75851 0
M  V30 2467 H 247.35 -0.684052 -1.3282 0
M  V30 2468 H 249.232 0.751972 -4.14636 0
M  V30 2469 H 247.907 1.1597 -3.02213 0
M  V30 2470 H 246.814 -1.08978 -3.57875 0
M  V30 2471 H 248.147 -1.41497 -4.71423 0
M  V30 2472 N 249.799 1.42003 -0.683588 0
M  V30 2473 C 250.709 2.34597 -0.0109075 0
M  V30 2474 C 251.725 1.55576 0.779245 0
M  V30 2475 O 252.901 1.88107 0.719555 0
M  V30 2476 C 249.966 3.34199 0.922588 0
M  V30 2477 C 249.027 4.29115 0.125984 0
M  V30 2478 C 248.26 5.23959 1.01502 0
M  V30 2479 O 248.483 5.23952 2.25456 0
M  V30 2480 O 247.417 6.00053 0.47111 0
M  V30 2481 H 251.243 2.93675 -0.773853 0
M  V30 2482 H 248.828 1.42654 -0.443861 0
M  V30 2483 H 250.71 3.95365 1.45823 0
M  V30 2484 H 249.385 2.77582 1.66523 0
M  V30 2485 H 248.292 3.71335 -0.453969 0
M  V30 2486 H 249.625 4.88798 -0.577736 0
M  V30 2487 N 251.277 0.427512 1.51691 0
M  V30 2488 C 252.517 -0.141524 2.03909 0
M  V30 2489 C 252.881 -1.40811 1.30523 0
M  V30 2490 O 254.082 -2.05676 1.73063 0
M  V30 2491 C 252.353 -0.364962 3.55532 0
M  V30 2492 S 253.912 -0.898812 4.29496 0
M  V30 2493 H 250.73 -0.0364542 0.710065 0
M  V30 2494 H 253.332 0.584659 1.86553 0
M  V30 2495 H 252.036 0.56336 4.06515 0
M  V30 2496 H 251.567 -1.1185 3.77164 0
M  V30 2497 H 253.582 -2.17747 4.45871 0
M  V30 2498 N 252.755 -1.56801 0.158532 0
M  V30 2499 C 254.171 -1.5837 -0.197774 0
M  V30 2500 C 254.371 -1.17334 -1.63814 0
M  V30 2501 O 253.427 -0.878988 -2.36707 0
M  V30 2502 C 254.74 -3.00615 0.0714459 0
M  V30 2503 C 256.288 -3.12999 0.00864533 0
M  V30 2504 C 256.763 -4.57313 0.250685 0
M  V30 2505 N 258.254 -4.62777 0.198014 0
M  V30 2506 C 258.989 -5.72271 0.359642 0
M  V30 2507 N 258.485 -6.90371 0.579625 0
M  V30 2508 N 260.278 -5.61318 0.296438 0
M  V30 2509 H 252.429 -1.81765 1.09887 0
M  V30 2510 H 254.692 -0.841849 0.435884 0
M  V30 2511 H 254.398 -3.35068 1.06874 0
M  V30 2512 H 254.272 -3.71683 -0.642757 0
M  V30 2513 H 256.659 -2.7838 -0.979217 0
M  V30 2514 H 256.74 -2.44393 0.755359 0
M  V30 2515 H 256.384 -4.92639 1.2357 0
M  V30 2516 H 256.314 -5.24061 -0.516489 0
M  V30 2517 H 258.805 -3.77885 0.0331115 0
M  V30 2518 H 259.118 -7.69689 0.69275 0
M  V30 2519 H 257.463 -6.92264 0.616087 0
M  V30 2520 H 260.654 -4.67932 0.125258 0
M  V30 2521 H 260.827 -6.46599 0.425831 0
M  V30 2522 N 254.233 0.115231 -1.57178 0
M  V30 2523 C 255.649 0.468877 -1.52557 0
M  V30 2524 C 255.849 1.81649 -0.872125 0
M  V30 2525 O 254.905 2.48347 -0.45606 0
M  V30 2526 C 256.218 0.4499 -2.97315 0
M  V30 2527 C 257.766 0.533185 -3.08425 0
M  V30 2528 C 258.241 0.54456 -4.54751 0
M  V30 2529 N 259.732 0.605892 -4.5922 0
M  V30 2530 C 260.467 0.636203 -5.6986 0
M  V30 2531 N 259.963 0.623931 -6.89985 0
M  V30 2532 N 261.756 0.679496 -5.57978 0
M  V30 2533 H 253.907 -0.767712 -1.9804 0
M  V30 2534 H 256.17 -0.283609 -0.904583 0
M  V30 2535 H 255.876 -0.472721 -3.48509 0
M  V30 2536 H 255.75 1.27632 -3.5495 0
M  V30 2537 H 258.137 1.44623 -2.57232 0
M  V30 2538 H 258.218 -0.320995 -2.53778 0
M  V30 2539 H 257.862 -0.364452 -5.06591 0
M  V30 2540 H 257.792 1.41568 -5.07214 0
M  V30 2541 H 260.283 0.621386 -3.72756 0
M  V30 2542 H 260.596 0.649787 -7.70063 0
M  V30 2543 H 258.941 0.591296 -6.9248 0
M  V30 2544 H 262.132 0.686472 -4.63039 0
M  V30 2545 H 262.305 0.69965 -6.44212 0
M  V30 2546 N 255.711 1.52812 0.385517 0
M  V30 2547 C 256.958 1.68026 1.1302 0
M  V30 2548 C 257.286 0.421934 1.89868 0
M  V30 2549 O 256.541 -0.595749 1.86412 0
M  V30 2550 C 256.84 2.86856 2.13187 0
M  V30 2551 C 256.506 4.24159 1.5297 0
M  V30 2552 C 255.168 4.61501 1.36274 0
M  V30 2553 C 257.52 5.09627 1.09223 0
M  V30 2554 C 254.848 5.81966 0.743837 0
M  V30 2555 C 257.2 6.30719 0.487411 0
M  V30 2556 C 255.864 6.6679 0.307777 0
M  V30 2557 H 255.134 0.614849 0.413571 0
M  V30 2558 H 257.781 1.86962 0.414405 0
M  V30 2559 H 256.086 2.6235 2.90998 0
M  V30 2560 H 257.783 2.95821 2.70722 0
M  V30 2561 H 254.373 3.94746 1.66954 0
M  V30 2562 H 258.557 4.81343 1.20922 0
M  V30 2563 H 253.813 6.08519 0.592891 0
M  V30 2564 H 257.987 6.96259 0.140143 0
M  V30 2565 H 255.614 7.60001 -0.173879 0
M  V30 2566 N 257.189 -0.644168 1.43834 0
M  V30 2567 C 258.417 -1.43147 1.49387 0
M  V30 2568 C 258.832 -1.88452 0.114583 0
M  V30 2569 O 258.189 -1.60047 -0.876989 0
M  V30 2570 C 258.24 -2.66046 2.44748 0
M  V30 2571 O 257.961 -2.22633 3.77314 0
M  V30 2572 C 259.462 -3.59311 2.59635 0
M  V30 2573 H 256.682 -0.439447 0.507077 0
M  V30 2574 H 259.226 -0.78895 1.88669 0
M  V30 2575 H 257.381 -3.26418 2.08638 0
M  V30 2576 H 257.795 -3.02216 4.28679 0
M  V30 2577 H 259.269 -4.42187 3.30416 0
M  V30 2578 H 259.746 -4.07259 1.64427 0
M  V30 2579 H 260.352 -3.04816 2.96593 0
M  V30 2580 N 258.668 -1.30515 -0.883378 0
M  V30 2581 C 259.896 -1.22359 -1.66841 0
M  V30 2582 C 260.311 0.213296 -1.87591 0
M  V30 2583 O 259.668 1.14075 -1.42454 0
M  V30 2584 C 259.719 -1.95011 -3.04389 0
M  V30 2585 O 259.44 -3.3309 -2.84575 0
M  V30 2586 C 260.941 -1.93532 -3.98824 0
M  V30 2587 H 258.161 -0.423371 -0.520575 0
M  V30 2588 H 260.705 -1.72167 -1.10357 0
M  V30 2589 H 258.86 -1.48997 -3.57601 0
M  V30 2590 H 259.274 -3.69907 -3.71846 0
M  V30 2591 H 260.748 -2.48902 -4.92699 0
M  V30 2592 H 261.225 -0.914627 -4.29571 0
M  V30 2593 H 261.831 -2.39364 -3.51547 0
M  V30 2594 N 260.146 1.09593 -1.13257 0
M  V30 2595 C 261.423 1.78293 -0.804432 0
M  V30 2596 C 261.803 1.99004 0.70431 0
M  V30 2597 O 261.151 1.59007 1.641 0
M  V30 2598 C 261.361 3.10707 -1.5894 0
M  V30 2599 C 262.709 3.85443 -1.78099 0
M  V30 2600 O 263.733 3.20454 -1.55525 0
M  V30 2601 O 262.592 5.02108 -2.15753 0
M  V30 2602 H 259.686 0.773156 -0.293528 0
M  V30 2603 H 262.232 1.16164 -1.23709 0
M  V30 2604 H 261.004 2.91106 -2.61482 0
M  V30 2605 H 260.627 3.80558 -1.15157 0
M  V30 2606 N 261.624 0.925811 1.2754 0
M  V30 2607 C 262.587 0.428129 2.25166 0
M  V30 2608 C 263.587 -0.452261 1.54309 0
M  V30 2609 O 264.777 -0.253608 1.72344 0
M  V30 2610 C 261.909 -0.384749 3.38722 0
M  V30 2611 H 263.102 1.29066 2.70706 0
M  V30 2612 H 260.655 0.706323 1.3943 0
M  V30 2613 H 261.39 -1.26618 2.98561 0
M  V30 2614 H 261.175 0.246454 3.91325 0
M  V30 2615 H 262.665 -0.723389 4.11287 0
M  V30 2616 N 263.102 -1.41638 0.69111 0
M  V30 2617 C 264.351 -2.00526 0.217318 0
M  V30 2618 C 264.664 -1.55353 -1.18848 0
M  V30 2619 O 265.87 -2.06769 -1.75951 0
M  V30 2620 C 264.326 -3.58313 0.337639 0
M  V30 2621 C 263.934 -4.12469 1.74852 0
M  V30 2622 C 265.678 -4.24431 -0.0766066 0
M  V30 2623 C 263.585 -5.62675 1.82074 0
M  V30 2624 H 262.515 -0.750008 0.0774893 0
M  V30 2625 H 265.166 -1.6217 0.858661 0
M  V30 2626 H 263.548 -3.9425 -0.371879 0
M  V30 2627 H 264.722 -3.8796 2.48644 0
M  V30 2628 H 263.037 -3.58861 2.11205 0
M  V30 2629 H 265.634 -5.34683 -0.0430284 0
M  V30 2630 H 265.977 -4.01101 -1.1146 0
M  V30 2631 H 266.51 -3.93512 0.582476 0
M  V30 2632 H 263.249 -5.90826 2.83911 0
M  V30 2633 H 262.769 -5.89124 1.12661 0
M  V30 2634 H 264.448 -6.27371 1.58159 0
M  V30 2635 N 264.58 -0.43555 -1.51462 0
M  V30 2636 C 265.543 0.365137 -2.26273 0
M  V30 2637 C 266.543 0.951227 -1.29647 0
M  V30 2638 O 267.733 0.825958 -1.53374 0
M  V30 2639 C 264.865 1.51645 -3.05314 0
M  V30 2640 H 266.058 -0.290474 -2.9849 0
M  V30 2641 H 263.611 -0.188676 -1.55157 0
M  V30 2642 H 264.346 2.20816 -2.3751 0
M  V30 2643 H 264.131 1.10238 -3.76284 0
M  V30 2644 H 265.621 2.08218 -3.61987 0
M  V30 2645 N 266.058 1.56714 -0.166846 0
M  V30 2646 C 266.988 2.20754 0.760913 0
M  V30 2647 C 267.969 1.16178 1.24244 0
M  V30 2648 O 269.154 1.44592 1.29641 0
M  V30 2649 C 266.284 2.84478 1.99223 0
M  V30 2650 C 265.238 3.95053 1.64672 0
M  V30 2651 C 264.564 4.45805 2.95232 0
M  V30 2652 C 265.864 5.14865 0.878155 0
M  V30 2653 H 267.558 2.98537 0.22713 0
M  V30 2654 H 265.104 1.43596 0.107805 0
M  V30 2655 H 267.057 3.27951 2.64624 0
M  V30 2656 H 265.781 2.04056 2.55007 0
M  V30 2657 H 264.44 3.52228 1.01641 0
M  V30 2658 H 264.088 3.62181 3.49047 0
M  V30 2659 H 263.788 5.204 2.7287 0
M  V30 2660 H 265.312 4.91962 3.6167 0
M  V30 2661 H 266.726 5.55059 1.43466 0
M  V30 2662 H 265.123 5.95348 0.753738 0
M  V30 2663 H 266.193 4.84735 -0.126377 0
M  V30 2664 N 267.536 -0.106894 1.57237 0
M  V30 2665 C 268.499 -1.11466 2.0027 0
M  V30 2666 C 269.499 -1.33623 0.894519 0
M  V30 2667 O 270.689 -1.29935 1.16028 0
M  V30 2668 C 267.821 -2.46646 2.35327 0
M  V30 2669 H 269.014 -0.744516 2.90512 0
M  V30 2670 H 266.567 -0.351576 1.52295 0
M  V30 2671 H 267.302 -2.88558 1.48003 0
M  V30 2672 H 267.087 -2.31915 3.16161 0
M  V30 2673 H 268.577 -3.19151 2.69318 0
M  V30 2674 N 269.014 -1.53014 -0.377408 0
M  V30 2675 C 269.947 -1.73382 -1.48371 0
M  V30 2676 C 270.925 -0.581879 -1.51832 0
M  V30 2677 O 272.109 -0.81307 -1.70063 0
M  V30 2678 C 269.236 -1.80192 -2.8679 0
M  V30 2679 C 268.282 -3.02056 -3.01105 0
M  V30 2680 S 269.115 -4.61811 -2.71093 0
M  V30 2681 C 270.271 -4.71453 -4.11683 0
M  V30 2682 H 270.504 -2.66946 -1.30872 0
M  V30 2683 H 268.037 -1.43453 -0.571012 0
M  V30 2684 H 269.995 -1.84802 -3.6655 0
M  V30 2685 H 268.656 -0.877008 -3.01608 0
M  V30 2686 H 267.849 -3.03396 -4.02451 0
M  V30 2687 H 267.451 -2.95498 -2.29253 0
M  V30 2688 H 269.743 -4.50781 -5.0577 0
M  V30 2689 H 270.686 -5.73487 -4.15353 0
M  V30 2690 H 271.094 -4.00189 -3.98132 0
M  V30 2691 N 270.492 0.636531 -1.44174 0
M  V30 2692 C 271.717 1.42847 -1.50364 0
M  V30 2693 C 272.142 1.87665 -0.127867 0
M  V30 2694 O 271.5 1.58408 0.88185 0
M  V30 2695 C 271.548 2.62854 -2.4686 0
M  V30 2696 O 270.652 3.62501 -1.9664 0
M  V30 2697 H 269.993 0.427642 -0.507955 0
M  V30 2698 H 272.523 0.777422 -1.89255 0
M  V30 2699 H 272.533 3.10465 -2.64718 0
M  V30 2700 H 271.208 2.29578 -3.46795 0
M  V30 2701 H 269.785 3.21735 -1.88523 0
M  V30 2702 N 271.97 1.30982 0.876444 0
M  V30 2703 C 273.386 1.09498 1.16113 0
M  V30 2704 C 273.586 -0.13875 2.01022 0
M  V30 2705 O 272.642 -0.829935 2.38471 0
M  V30 2706 C 273.955 2.36308 1.85954 0
M  V30 2707 C 275.503 2.41856 1.98683 0
M  V30 2708 C 275.978 3.6853 2.71937 0
M  V30 2709 N 277.469 3.69387 2.79477 0
M  V30 2710 C 278.204 4.64096 3.36753 0
M  V30 2711 N 277.7 5.69155 3.95012 0
M  V30 2712 N 279.493 4.51626 3.3465 0
M  V30 2713 H 271.644 2.10118 0.310494 0
M  V30 2714 H 273.907 0.926634 0.200131 0
M  V30 2715 H 273.613 3.26388 1.31011 0
M  V30 2716 H 273.487 2.4561 2.86278 0
M  V30 2717 H 275.874 1.52249 2.52793 0
M  V30 2718 H 275.955 2.36523 0.9742 0
M  V30 2719 H 275.599 4.58499 2.18496 0
M  V30 2720 H 275.529 3.71127 3.73593 0
M  V30 2721 H 278.02 2.93438 2.38123 0
M  V30 2722 H 278.333 6.3751 4.36808 0
M  V30 2723 H 276.678 5.72937 3.93406 0
M  V30 2724 H 279.869 3.68728 2.8837 0
M  V30 2725 H 280.042 5.25614 3.7899 0
M  V30 2726 N 273.449 -1.08991 1.13837 0
M  V30 2727 C 274.726 -1.77863 0.813876 0
M  V30 2728 C 275.106 -1.99375 -0.693746 0
M  V30 2729 O 274.454 -1.59875 -1.63255 0
M  V30 2730 C 274.664 -3.0986 1.60586 0
M  V30 2731 C 276.012 -3.84493 1.8014 0
M  V30 2732 O 277.036 -3.19624 1.57222 0
M  V30 2733 O 275.895 -5.00957 2.18413 0
M  V30 2734 H 272.989 -0.771589 0.297624 0
M  V30 2735 H 275.535 -1.15507 1.24323 0
M  V30 2736 H 274.307 -2.89715 2.63022 0
M  V30 2737 H 273.93 -3.79942 1.17173 0
M  V30 2738 N 274.927 -0.932562 -1.27047 0
M  V30 2739 C 276.175 -0.574422 -1.93765 0
M  V30 2740 C 276.496 0.887993 -1.73608 0
M  V30 2741 O 275.766 1.62999 -1.08665 0
M  V30 2742 H 274.346 -0.209451 -0.717035 0
M  V30 2743 H 277.008 -1.18601 -1.5466 0
M  V30 2744 H 276.104 -0.784841 -3.02071 0
M  V30 2745 N 276.405 1.4127 -0.698611 0
M  V30 2746 C 277.63 2.06024 -0.238512 0
M  V30 2747 C 278.055 1.5224 1.10475 0
M  V30 2748 O 277.413 0.650623 1.69223 0
M  V30 2749 C 277.461 3.59988 -0.209952 0
M  V30 2750 O 276.565 4.04282 0.814235 0
M  V30 2751 H 275.906 0.653829 -0.115775 0
M  V30 2752 H 278.436 1.8098 -0.954326 0
M  V30 2753 H 278.446 4.07979 -0.0418436 0
M  V30 2754 H 277.121 3.98503 -1.1903 0
M  V30 2755 H 275.698 3.6779 0.615234 0
M  V30 2756 N 277.883 0.443576 1.51229 0
M  V30 2757 C 279.108 -0.121648 2.07043 0
M  V30 2758 C 279.533 -1.35156 1.30823 0
M  V30 2759 O 278.891 -1.7793 0.347934 0
M  V30 2760 C 278.939 -0.41624 3.5819 0
M  V30 2761 O 278.043 -1.50163 3.8409 0
M  V30 2762 H 277.384 0.000871367 0.663999 0
M  V30 2763 H 279.914 0.626706 1.94765 0
M  V30 2764 H 279.924 -0.664867 4.02546 0
M  V30 2765 H 278.599 0.482653 4.1309 0
M  V30 2766 H 277.176 -1.24248 3.51592 0
M  V30 2767 N 279.361 -1.56624 0.175154 0
M  V30 2768 C 280.609 -1.96609 -0.467885 0
M  V30 2769 C 280.93 -1.06238 -1.63519 0
M  V30 2770 O 280.2 -0.129523 -1.95471 0
M  V30 2771 H 278.78 -0.726008 -0.175845 0
M  V30 2772 H 281.442 -1.93195 0.257234 0
M  V30 2773 H 280.538 -3.00989 -0.825342 0
M  V30 2774 N 280.839 0.0985539 -1.57292 0
M  V30 2775 C 282.087 0.801092 -1.85545 0
M  V30 2776 C 282.408 1.79438 -0.763353 0
M  V30 2777 O 281.678 1.94763 0.21073 0
M  V30 2778 H 280.258 0.29884 -0.684619 0
M  V30 2779 H 282.92 0.0810064 -1.94732 0
M  V30 2780 H 282.016 1.3338 -2.82163 0
M  V30 2781 N 282.317 1.53212 0.369288 0
M  V30 2782 C 283.563 1.69466 1.11397 0
M  V30 2783 C 283.896 0.443257 1.89074 0
M  V30 2784 O 283.171 -0.559386 1.86282 0
M  V30 2785 C 283.454 2.9422 2.07621 0
M  V30 2786 C 283.307 4.29508 1.33577 0
M  V30 2787 C 284.626 3.14565 3.07794 0
M  V30 2788 H 281.745 0.616667 0.403597 0
M  V30 2789 H 284.387 1.85845 0.395179 0
M  V30 2790 H 282.537 2.80387 2.68916 0
M  V30 2791 H 284.209 4.55147 0.750955 0
M  V30 2792 H 282.452 4.29088 0.637618 0
M  V30 2793 H 283.123 5.12926 2.03989 0
M  V30 2794 H 285.599 3.2756 2.56601 0
M  V30 2795 H 284.475 4.03297 3.72348 0
M  V30 2796 H 284.736 2.29675 3.77759 0
M  V30 2797 N 283.795 -0.628877 1.44509 0
M  V30 2798 C 285.044 -1.38437 1.4669 0
M  V30 2799 C 285.357 -1.95322 0.104272 0
M  V30 2800 O 286.563 -2.715 0.00362163 0
M  V30 2801 C 285.019 -2.50659 2.5826 0
M  V30 2802 C 284.627 -2.00277 4.0074 0
M  V30 2803 C 286.371 -3.27844 2.69664 0
M  V30 2804 C 284.278 -3.09854 5.0373 0
M  V30 2805 H 283.208 -0.520245 0.545766 0
M  V30 2806 H 285.859 -0.676313 1.70582 0
M  V30 2807 H 284.241 -3.2405 2.27612 0
M  V30 2808 H 285.415 -1.33736 4.40966 0
M  V30 2809 H 283.73 -1.35901 3.93599 0
M  V30 2810 H 286.327 -4.09534 3.43781 0
M  V30 2811 H 286.67 -3.77471 1.75559 0
M  V30 2812 H 287.203 -2.61543 2.99733 0
M  V30 2813 H 283.942 -2.65168 5.99472 0
M  V30 2814 H 283.462 -3.7503 4.68095 0
M  V30 2815 H 285.141 -3.74592 5.27532 0
M  V30 2816 N 285.273 -1.31445 -0.869486 0
M  V30 2817 C 286.503 -1.23942 -1.65294 0
M  V30 2818 C 286.911 0.197561 -1.88166 0
M  V30 2819 O 286.254 1.14019 -1.44033 0
M  V30 2820 C 286.316 -1.91385 -3.04322 0
M  V30 2821 C 285.98 -3.40726 -3.04557 0
M  V30 2822 C 286.977 -4.36464 -2.82481 0
M  V30 2823 C 284.662 -3.82425 -3.25663 0
M  V30 2824 C 286.656 -5.71876 -2.8149 0
M  V30 2825 C 284.343 -5.1795 -3.243 0
M  V30 2826 C 285.341 -6.12486 -3.02241 0
M  V30 2827 O 285.029 -7.45534 -3.00724 0
M  V30 2828 H 284.761 -0.429459 -0.522054 0
M  V30 2829 H 287.315 -1.73873 -1.0935 0
M  V30 2830 H 285.545 -1.36004 -3.61994 0
M  V30 2831 H 287.234 -1.77791 -3.64891 0
M  V30 2832 H 288 -4.05576 -2.65956 0
M  V30 2833 H 283.879 -3.09274 -3.41863 0
M  V30 2834 H 287.423 -6.45638 -2.64191 0
M  V30 2835 H 283.32 -5.48473 -3.40365 0
M  V30 2836 H 284.088 -7.54713 -3.16782 0
M  V30 2837 N 286.751 1.08385 -1.14413 0
M  V30 2838 C 287.681 2.17321 -0.854044 0
M  V30 2839 C 288.662 1.69024 0.191049 0
M  V30 2840 O 289.847 1.94141 0.0476779 0
M  V30 2841 C 286.977 3.45719 -0.330983 0
M  V30 2842 C 285.931 4.07409 -1.31155 0
M  V30 2843 C 285.257 5.30762 -0.64778 0
M  V30 2844 C 286.557 4.48665 -2.67388 0
M  V30 2845 H 288.251 2.41845 -1.76498 0
M  V30 2846 H 285.797 1.16233 -0.850051 0
M  V30 2847 H 287.75 4.21241 -0.115645 0
M  V30 2848 H 286.474 3.2075 0.615381 0
M  V30 2849 H 285.133 3.33919 -1.51306 0
M  V30 2850 H 284.781 5.02078 0.304398 0
M  V30 2851 H 284.481 5.72992 -1.30207 0
M  V30 2852 H 286.005 6.08998 -0.441972 0
M  V30 2853 H 287.419 5.15364 -2.51143 0
M  V30 2854 H 285.816 5.01814 -3.29093 0
M  V30 2855 H 286.886 3.60543 -3.24248 0
M  V30 2856 N 288.23 0.939286 1.26551 0
M  V30 2857 C 289.476 0.586715 1.94128 0
M  V30 2858 C 289.809 -0.8717 1.73537 0
M  V30 2859 O 289.084 -1.62339 1.07127 0
M  V30 2860 C 289.367 0.927497 3.4795 0
M  V30 2861 C 289.22 2.44052 3.77834 0
M  V30 2862 C 290.539 0.441569 4.37879 0
M  V30 2863 H 287.658 0.21463 0.705055 0
M  V30 2864 H 290.3 1.17316 1.49455 0
M  V30 2865 H 288.45 0.428431 3.8613 0
M  V30 2866 H 290.122 3.01216 3.4938 0
M  V30 2867 H 288.365 2.8848 3.23978 0
M  V30 2868 H 289.036 2.62947 4.85348 0
M  V30 2869 H 291.512 0.869448 4.06915 0
M  V30 2870 H 290.388 0.708856 5.44304 0
M  V30 2871 H 290.649 -0.658467 4.37169 0
M  V30 2872 N 289.708 -1.40897 0.706093 0
M  V30 2873 C 290.936 -2.05373 0.250887 0
M  V30 2874 C 291.351 -1.53172 -1.10381 0
M  V30 2875 O 290.708 -0.684305 -1.69185 0
M  V30 2876 C 290.759 -3.6088 0.211571 0
M  V30 2877 O 290.48 -4.11153 1.51276 0
M  V30 2878 C 291.981 -4.42517 -0.263346 0
M  V30 2879 H 289.201 -0.66115 0.114552 0
M  V30 2880 H 291.745 -1.80479 0.961635 0
M  V30 2881 H 289.9 -3.84777 -0.450073 0
M  V30 2882 H 290.314 -5.05279 1.40689 0
M  V30 2883 H 291.788 -5.51479 -0.239718 0
M  V30 2884 H 292.265 -4.19396 -1.30397 0
M  V30 2885 H 292.871 -4.23708 0.367677 0
M  V30 2886 N 291.186 -0.45159 -1.50991 0
M  V30 2887 C 292.435 0.111653 -2.01391 0
M  V30 2888 C 292.748 1.42529 -1.33959 0
M  V30 2889 O 293.954 2.07232 -1.75405 0
M  V30 2890 C 292.41 0.249514 -3.59034 0
M  V30 2891 C 292.018 -1.05453 -4.35412 0
M  V30 2892 C 293.762 0.765762 -4.17536 0
M  V30 2893 C 291.669 -0.881529 -5.84793 0
M  V30 2894 H 290.599 0.0455022 -0.752626 0
M  V30 2895 H 293.25 -0.583524 -1.73975 0
M  V30 2896 H 291.632 1.00803 -3.82955 0
M  V30 2897 H 292.806 -1.82248 -4.23229 0
M  V30 2898 H 291.121 -1.50039 -3.88429 0
M  V30 2899 H 293.718 0.911913 -5.26866 0
M  V30 2900 H 294.061 1.75201 -3.77638 0
M  V30 2901 H 294.594 0.0651744 -3.97747 0
M  V30 2902 H 291.333 -1.84057 -6.29129 0
M  V30 2903 H 290.853 -0.153625 -5.99603 0
M  V30 2904 H 292.532 -0.540363 -6.4474 0
M  V30 2905 N 292.664 1.56529 -0.183458 0
M  V30 2906 C 293.892 2.01623 0.464285 0
M  V30 2907 C 294.307 1.06366 1.55986 0
M  V30 2908 O 293.664 0.0665398 1.82379 0
M  V30 2909 C 293.715 3.46475 1.03139 0
M  V30 2910 O 293.436 4.38095 -0.0204675 0
M  V30 2911 C 294.937 4.0703 1.75617 0
M  V30 2912 H 292.157 0.660596 0.117704 0
M  V30 2913 H 294.701 2.02451 -0.288751 0
M  V30 2914 H 292.856 3.46383 1.73486 0
M  V30 2915 H 293.27 5.22973 0.399952 0
M  V30 2916 H 294.744 5.10271 2.10542 0
M  V30 2917 H 295.221 3.49819 2.65563 0
M  V30 2918 H 295.827 4.1086 1.09882 0
M  V30 2919 N 294.142 -0.090211 1.57342 0
M  V30 2920 C 295.105 -1.09335 2.01441 0
M  V30 2921 C 296.105 -1.32666 0.908641 0
M  V30 2922 O 297.295 -1.28697 1.174 0
M  V30 2923 C 294.427 -2.44136 2.3793 0
M  V30 2924 H 295.62 -0.713662 2.91285 0
M  V30 2925 H 293.173 -0.335404 1.52659 0
M  V30 2926 H 293.908 -2.86972 1.51055 0
M  V30 2927 H 293.693 -2.28548 3.18603 0
M  V30 2928 H 295.183 -3.16277 2.72688 0
M  V30 2929 N 295.62 -1.53406 -0.361157 0
M  V30 2930 C 296.583 -1.79479 -1.42548 0
M  V30 2931 C 297.583 -0.665327 -1.4639 0
M  V30 2932 O 298.773 -0.933549 -1.47073 0
M  V30 2933 C 295.905 -1.92087 -2.8163 0
M  V30 2934 H 297.098 -2.74538 -1.20701 0
M  V30 2935 H 294.651 -1.4455 -0.594546 0
M  V30 2936 H 295.386 -0.991099 -3.08784 0
M  V30 2937 H 295.171 -2.74241 -2.80239 0
M  V30 2938 H 296.661 -2.13836 -3.58697 0
M  V30 2939 N 297.098 0.621204 -1.44841 0
M  V30 2940 C 298.346 1.37783 -1.47852 0
M  V30 2941 C 298.667 1.94653 -0.116224 0
M  V30 2942 O 297.937 1.76367 0.852737 0
M  V30 2943 H 296.517 0.511453 -0.544449 0
M  V30 2944 H 299.179 0.730446 -1.80694 0
M  V30 2945 H 298.275 2.20414 -2.20961 0
M  V30 2946 N 298.576 1.31904 0.862503 0
M  V30 2947 C 299.822 1.22197 1.61851 0
M  V30 2948 C 300.155 -0.217641 1.92977 0
M  V30 2949 O 299.43 -1.15264 1.56666 0
M  V30 2950 C 299.713 2.07378 2.94391 0
M  V30 2951 C 299.566 3.59678 2.70096 0
M  V30 2952 C 300.885 1.92891 3.95577 0
M  V30 2953 H 298.004 0.445255 0.587296 0
M  V30 2954 H 300.646 1.6177 0.99651 0
M  V30 2955 H 298.796 1.73758 3.47477 0
M  V30 2956 H 300.468 4.03472 2.23625 0
M  V30 2957 H 298.711 3.82735 2.04197 0
M  V30 2958 H 299.382 4.14595 3.64438 0
M  V30 2959 H 301.858 2.22327 3.51724 0
M  V30 2960 H 300.734 2.54781 4.86187 0
M  V30 2961 H 300.995 0.894315 4.3296 0
M  V30 2962 N 300.054 -1.07777 1.14986 0
M  V30 2963 C 301.331 -1.7699 0.832695 0
M  V30 2964 C 301.711 -2.001 -0.672561 0
M  V30 2965 O 301.059 -1.61598 -1.6155 0
M  V30 2966 C 301.269 -3.08139 1.63863 0
M  V30 2967 C 302.617 -3.8256 1.84208 0
M  V30 2968 O 303.641 -3.17939 1.60603 0
M  V30 2969 O 302.5 -4.98612 2.23714 0
M  V30 2970 H 299.594 -0.768389 0.305791 0
M  V30 2971 H 302.14 -1.14182 1.25541 0
M  V30 2972 H 300.912 -2.86909 2.6608 0
M  V30 2973 H 300.535 -3.78678 1.21197 0
M  V30 2974 N 301.532 -0.945985 -1.26051 0
M  V30 2975 C 302.482 -0.430164 -2.23905 0
M  V30 2976 C 303.466 0.47579 -1.53704 0
M  V30 2977 O 304.658 0.310252 -1.7426 0
M  V30 2978 C 301.787 0.298957 -3.41996 0
M  V30 2979 C 300.873 -0.624566 -4.19476 0
M  V30 2980 N 301.264 -1.75245 -4.74471 0
M  V30 2981 C 299.562 -0.431082 -4.43912 0
M  V30 2982 C 300.263 -2.32834 -5.3307 0
M  V30 2983 N 299.239 -1.61583 -5.1903 0
M  V30 2984 H 303.041 -1.29107 -2.64024 0
M  V30 2985 H 300.555 -0.802428 -1.41191 0
M  V30 2986 H 302.552 0.685565 -4.11225 0
M  V30 2987 H 301.212 1.15657 -3.03403 0
M  V30 2988 H 302.223 -2.13449 -4.71868 0
M  V30 2989 H 298.9 0.384364 -4.15727 0
M  V30 2990 H 300.29 -3.27893 -5.86461 0
M  V30 2991 N 303.011 1.40521 -0.713556 0
M  V30 2992 C 304.427 1.54839 -0.386907 0
M  V30 2993 C 304.627 1.68532 1.1045 0
M  V30 2994 O 303.683 1.67377 1.89053 0
M  V30 2995 C 304.996 2.77792 -1.15118 0
M  V30 2996 C 306.544 2.91607 -1.13729 0
M  V30 2997 C 307.019 4.1747 -1.88368 0
M  V30 2998 N 308.51 4.24466 -1.85427 0
M  V30 2999 C 309.245 5.20755 -2.40004 0
M  V30 3000 N 308.741 6.22965 -3.03129 0
M  V30 3001 N 310.534 5.1282 -2.30158 0
M  V30 3002 H 302.685 1.29879 -1.68063 0
M  V30 3003 H 304.948 0.627896 -0.710247 0
M  V30 3004 H 304.654 2.73944 -2.20561 0
M  V30 3005 H 304.528 3.6984 -0.741477 0
M  V30 3006 H 306.915 2.94959 -0.0910608 0
M  V30 3007 H 306.996 2.00682 -1.5862 0
M  V30 3008 H 306.64 4.1488 -2.9298 0
M  V30 3009 H 306.57 5.074 -1.40898 0
M  V30 3010 H 309.061 3.51241 -1.3942 0
M  V30 3011 H 309.374 6.92859 -3.42295 0
M  V30 3012 H 307.719 6.23415 -3.07212 0
M  V30 3013 H 310.91 4.31899 -1.80501 0
M  V30 3014 H 311.083 5.87689 -2.72993 0
M  V30 3015 N 304.489 0.459591 1.5075 0
M  V30 3016 C 305.735 -0.0994966 2.02556 0
M  V30 3017 C 306.068 -1.40399 1.3417 0
M  V30 3018 O 305.343 -1.88892 0.463683 0
M  V30 3019 C 305.626 -0.295242 3.58888 0
M  V30 3020 C 305.479 1.02947 4.37861 0
M  V30 3021 C 306.798 -1.05502 4.27267 0
M  V30 3022 H 303.917 -0.034686 0.736183 0
M  V30 3023 H 306.559 0.602938 1.8018 0
M  V30 3024 H 304.709 -0.893563 3.78084 0
M  V30 3025 H 306.381 1.66348 4.30263 0
M  V30 3026 H 304.624 1.62885 4.02058 0
M  V30 3027 H 305.295 0.846281 5.45474 0
M  V30 3028 H 307.771 -0.547993 4.12476 0
M  V30 3029 H 306.647 -1.16077 5.36486 0
M  V30 3030 H 306.908 -2.08875 3.89645 0
M  V30 3031 N 305.967 -1.56429 0.191757 0
M  V30 3032 C 307.216 -1.9666 -0.448088 0
M  V30 3033 C 307.529 -1.08136 -1.62991 0
M  V30 3034 O 308.735 -1.38135 -2.33733 0
M  V30 3035 C 307.191 -3.49753 -0.848585 0
M  V30 3036 C 306.799 -4.46935 0.308764 0
M  V30 3037 C 308.543 -3.9876 -1.4557 0
M  V30 3038 C 306.45 -5.91293 -0.112506 0
M  V30 3039 H 305.38 -0.734312 -0.171179 0
M  V30 3040 H 308.031 -1.81301 0.283242 0
M  V30 3041 H 306.413 -3.60604 -1.63649 0
M  V30 3042 H 307.587 -4.47813 1.08627 0
M  V30 3043 H 305.902 -4.08102 0.827158 0
M  V30 3044 H 308.499 -5.04086 -1.78328 0
M  V30 3045 H 308.842 -3.42875 -2.36099 0
M  V30 3046 H 309.375 -3.9101 -0.731836 0
M  V30 3047 H 306.114 -6.51097 0.758514 0
M  V30 3048 H 305.634 -5.93676 -0.854941 0
M  V30 3049 H 307.313 -6.44663 -0.549448 0
M  V30 3050 N 307.445 0.0818655 -1.57387 0
M  V30 3051 C 308.375 1.09885 -2.06028 0
M  V30 3052 C 309.356 1.4098 -0.951774 0
M  V30 3053 O 310.541 1.50781 -1.22387 0
M  V30 3054 C 307.671 2.4151 -2.4958 0
M  V30 3055 C 306.625 2.24792 -3.64215 0
M  V30 3056 C 305.951 3.61712 -3.93787 0
M  V30 3057 C 307.251 1.67749 -4.94629 0
M  V30 3058 H 308.945 0.694128 -2.91243 0
M  V30 3059 H 306.491 0.332448 -1.4011 0
M  V30 3060 H 308.444 3.12939 -2.82219 0
M  V30 3061 H 307.168 2.83943 -1.61381 0
M  V30 3062 H 305.827 1.55807 -3.31843 0
M  V30 3063 H 305.475 4.01697 -3.02735 0
M  V30 3064 H 305.175 3.51368 -4.70971 0
M  V30 3065 H 306.699 4.34587 -4.28913 0
M  V30 3066 H 308.113 2.29032 -5.25564 0
M  V30 3067 H 306.51 1.68128 -5.76067 0
M  V30 3068 H 307.58 0.638059 -4.80684 0
M  V30 3069 N 308.923 1.53595 0.353017 0
M  V30 3070 C 310.171 1.70049 1.09215 0
M  V30 3071 C 310.492 0.461406 1.89463 0
M  V30 3072 O 309.762 -0.524633 1.88744 0
M  V30 3073 H 308.342 0.626912 0.40619 0
M  V30 3074 H 311.004 1.90822 0.396585 0
M  V30 3075 H 310.1 2.56718 1.77488 0
M  V30 3076 N 310.401 -0.613514 1.45168 0
M  V30 3077 C 311.349 -1.74572 1.53712 0
M  V30 3078 C 312.343 -1.64426 0.407505 0
M  V30 3079 O 313.549 -1.70291 0.583176 0
M  V30 3080 H 309.924 -0.576641 0.48269 0
M  V30 3081 H 311.895 -1.64492 2.48968 0
M  V30 3082 C 310.644 -3.12943 1.51532 0
M  V30 3083 H 309.967 -3.21407 2.37776 0
M  V30 3084 H 311.407 -3.9201 1.61569 0
M  V30 3085 C 309.866 -3.36053 0.238798 0
M  V30 3086 O 310.396 -3.95837 -0.6838 0
M  V30 3087 N 308.602 -2.9028 0.136359 0
M  V30 3088 H 308.149 -2.41811 0.887999 0
M  V30 3089 H 308.107 -3.06116 -0.716944 0
M  V30 3090 N 311.879 -1.3236 -0.855495 0
M  V30 3091 C 312.789 -1.23221 -1.99634 0
M  V30 3092 C 313.805 -0.145983 -1.73387 0
M  V30 3093 O 314.981 -0.366502 -1.98037 0
M  V30 3094 C 312.046 -0.954782 -3.33294 0
M  V30 3095 C 311.107 -2.12937 -3.72769 0
M  V30 3096 C 310.34 -1.86508 -5.00051 0
M  V30 3097 O 310.563 -0.807231 -5.64659 0
M  V30 3098 O 309.497 -2.72591 -5.36636 0
M  V30 3099 H 313.323 -2.19126 -2.1028 0
M  V30 3100 H 310.908 -1.12241 -0.986018 0
M  V30 3101 H 312.79 -0.816519 -4.13414 0
M  V30 3102 H 311.465 -0.0258854 -3.2369 0
M  V30 3103 H 310.372 -2.3231 -2.93228 0
M  V30 3104 H 311.705 -3.04102 -3.87018 0
M  V30 3105 N 313.357 1.07166 -1.15556 0
M  V30 3106 C 314.287 2.16403 -0.877046 0
M  V30 3107 C 315.268 1.69217 0.173111 0
M  V30 3108 O 316.453 1.94181 0.027084 0
M  V30 3109 C 313.583 3.45349 -0.367632 0
M  V30 3110 C 312.537 4.05995 -1.35468 0
M  V30 3111 C 311.863 5.30045 -0.704038 0
M  V30 3112 C 313.163 4.45804 -2.72132 0
M  V30 3113 H 314.857 2.39959 -1.79053 0
M  V30 3114 H 312.403 1.15325 -0.862331 0
M  V30 3115 H 314.356 4.21095 -0.160317 0
M  V30 3116 H 313.08 3.21385 0.581326 0
M  V30 3117 H 311.739 3.32296 -1.54839 0
M  V30 3118 H 311.387 5.02373 0.251128 0
M  V30 3119 H 311.087 5.71579 -1.36277 0
M  V30 3120 H 312.611 6.08495 -0.50654 0
M  V30 3121 H 314.025 5.12671 -2.56595 0
M  V30 3122 H 312.422 4.98296 -3.34397 0
M  V30 3123 H 313.492 3.57083 -3.28054 0
M  V30 3124 N 314.835 0.952656 1.25548 0
M  V30 3125 C 316.246 0.647392 1.75116 0
M  V30 3126 C 316.597 -0.837274 1.77438 0
M  V30 3127 O 315.722 -1.65525 1.39393 0
M  V30 3128 C 316.317 1.16845 3.18014 0
M  V30 3129 C 314.876 0.913382 3.6515 0
M  V30 3130 C 314.023 1.31265 2.44264 0
M  V30 3131 H 316.974 1.12968 1.11462 0
M  V30 3132 H 316.995 0.527606 3.76824 0
M  V30 3133 H 316.507 2.24902 3.16292 0
M  V30 3134 H 314.608 -0.152316 3.72289 0
M  V30 3135 H 314.721 1.54845 4.53387 0
M  V30 3136 H 313.085 0.731028 2.43984 0
M  V30 3137 H 313.868 2.40239 2.45234 0
M  V30 3138 N 316.313 -1.40141 0.720998 0
M  V30 3139 C 317.26 -2.30688 0.071919 0
M  V30 3140 C 318.23 -1.48476 -0.744584 0
M  V30 3141 O 319.415 -1.77201 -0.707423 0
M  V30 3142 C 316.555 -3.34724 -0.839855 0
M  V30 3143 C 315.668 -4.31998 -0.0122438 0
M  V30 3144 C 314.803 -5.23102 -0.923995 0
M  V30 3145 C 313.842 -6.12033 -0.0907969 0
M  V30 3146 N 312.979 -6.95537 -0.957718 0
M  V30 3147 H 317.819 -2.85628 0.849755 0
M  V30 3148 H 315.356 -1.40653 0.430726 0
M  V30 3149 H 317.314 -3.93618 -1.38279 0
M  V30 3150 H 315.944 -2.81274 -1.58381 0
M  V30 3151 H 314.996 -3.74841 0.64794 0
M  V30 3152 H 316.308 -4.94772 0.632595 0
M  V30 3153 H 315.462 -5.86953 -1.53527 0
M  V30 3154 H 314.201 -4.60615 -1.60264 0
M  V30 3155 H 313.206 -5.47207 0.533377 0
M  V30 3156 H 314.431 -6.76581 0.584428 0
M  V30 3157 H 312.377 -6.35633 -1.62192 0
M  V30 3158 H 312.294 -7.55099 -0.36904 0
M  V30 3159 H 313.562 -7.63832 -1.555 0
M  V30 3160 N 317.792 -0.46758 -1.50504 0
M  V30 3161 C 319.039 0.0886219 -2.02306 0
M  V30 3162 C 319.367 1.40037 -1.34981 0
M  V30 3163 O 318.622 1.90136 -0.463318 0
M  V30 3164 C 318.921 0.323995 -3.55928 0
M  V30 3165 C 318.587 -0.905618 -4.41712 0
M  V30 3166 C 317.249 -1.24275 -4.64875 0
M  V30 3167 C 319.601 -1.72448 -4.91845 0
M  V30 3168 C 316.929 -2.39888 -5.35417 0
M  V30 3169 C 319.281 -2.87185 -5.63656 0
M  V30 3170 C 317.945 -3.21317 -5.85074 0
M  V30 3171 H 317.215 0.0324291 -0.74029 0
M  V30 3172 H 319.862 -0.620945 -1.81153 0
M  V30 3173 H 318.167 1.11577 -3.75577 0
M  V30 3174 H 319.864 0.76826 -3.93572 0
M  V30 3175 H 316.454 -0.632956 -4.239 0
M  V30 3176 H 320.638 -1.4772 -4.73806 0
M  V30 3177 H 315.894 -2.66611 -5.50208 0
M  V30 3178 H 320.068 -3.50985 -6.01484 0
M  V30 3179 H 317.695 -4.1101 -6.39511 0
M  V30 3180 N 319.27 1.56325 -0.20005 0
M  V30 3181 C 320.5 2.01811 0.442232 0
M  V30 3182 C 320.908 1.07932 1.55394 0
M  V30 3183 O 320.251 0.0772685 1.83537 0
M  V30 3184 C 320.313 3.43685 1.05457 0
M  V30 3185 C 319.977 4.56928 0.0809833 0
M  V30 3186 C 320.974 5.15009 -0.711471 0
M  V30 3187 C 318.659 5.0229 -0.0315364 0
M  V30 3188 C 320.653 6.16904 -1.60336 0
M  V30 3189 C 318.34 6.04028 -0.926981 0
M  V30 3190 C 319.338 6.6121 -1.71146 0
M  V30 3191 O 319.026 7.60971 -2.59189 0
M  V30 3192 H 318.758 0.666173 0.114848 0
M  V30 3193 H 321.312 2.03085 -0.307511 0
M  V30 3194 H 319.542 3.39413 1.85299 0
M  V30 3195 H 321.231 3.72948 1.60201 0
M  V30 3196 H 321.997 4.80827 -0.634873 0
M  V30 3197 H 317.876 4.57476 0.568902 0
M  V30 3198 H 321.42 6.61464 -2.21611 0
M  V30 3199 H 317.317 6.37634 -1.00468 0
M  V30 3200 H 318.085 7.7841 -2.53023 0
M  V30 3201 N 320.748 -0.0735177 1.57428 0
M  V30 3202 C 322.025 -0.805903 1.78226 0
M  V30 3203 C 322.405 -1.95874 0.787189 0
M  V30 3204 O 321.753 -2.2779 -0.180029 0
M  V30 3205 C 321.963 -1.28045 3.24662 0
M  V30 3206 C 323.311 -1.71453 3.88444 0
M  V30 3207 O 324.335 -1.37616 3.28543 0
M  V30 3208 O 323.194 -2.34093 4.93825 0
M  V30 3209 H 320.288 -0.386041 0.73137 0
M  V30 3210 H 322.834 -0.0537269 1.69615 0
M  V30 3211 H 321.606 -0.455476 3.8864 0
M  V30 3212 H 321.229 -2.094 3.37991 0
M  V30 3213 N 322.226 -1.5378 -0.344866 0
M  V30 3214 C 323.136 -1.84667 -1.4469 0
M  V30 3215 C 324.152 -0.736704 -1.57635 0
M  V30 3216 O 325.328 -1.02888 -1.73136 0
M  V30 3217 C 322.393 -2.04869 -2.79696 0
M  V30 3218 C 321.454 -3.28731 -2.76106 0
M  V30 3219 C 320.687 -3.4796 -4.04673 0
M  V30 3220 O 320.91 -2.71052 -5.01883 0
M  V30 3221 O 319.844 -4.41383 -4.09224 0
M  V30 3222 H 323.67 -2.78334 -1.21506 0
M  V30 3223 H 321.255 -1.39418 -0.536921 0
M  V30 3224 H 323.137 -2.19609 -3.59652 0
M  V30 3225 H 321.812 -1.14391 -3.02814 0
M  V30 3226 H 320.719 -3.19396 -1.94774 0
M  V30 3227 H 322.052 -4.19198 -2.57941 0
M  V30 3228 O 323.743 0.490843 -1.5386 0
M  V30 3229 H 324.434 1.14557 -1.56193 0
M  V30 END ATOM
M  V30 BEGIN BOND
M  V30 END BOND
M  V30 END CTAB
M  END
$$$$
