drugbank_target|P28070 Proteasome subunit beta type-4 (DB08515)
 OpenBabel12092120433D

  0  0  0     0  0            999 V3000
M  V30 BEGIN CTAB
M  V30 COUNTS 4062 4109 0 0 0
M  V30 BEGIN ATOM
M  V30 1 H -0.908 1.98254 -0.117106 0
M  V30 2 N 0 1.576 0 0
M  V30 3 C 0.933 2.03868 1.02534 0
M  V30 4 C 1.911 0.928543 1.3348 0
M  V30 5 O 3.095 1.19667 1.45644 0
M  V30 6 C 0.222 2.43627 2.35294 0
M  V30 7 C -0.732 3.65373 2.2001 0
M  V30 8 S 0.101 5.13292 1.52614 0
M  V30 9 C 1.257 5.56322 2.86805 0
M  V30 10 H 1.49 2.90518 0.631377 0
M  V30 11 H -0.977 1.52953 0.210867 0
M  V30 12 H 0.981 2.67203 3.11629 0
M  V30 13 H -0.358 1.57376 2.7183 0
M  V30 14 H -1.165 3.90944 3.18086 0
M  V30 15 H -1.563 3.418 1.51819 0
M  V30 16 H 0.729 5.58782 3.83104 0
M  V30 17 H 1.672 6.56266 2.65933 0
M  V30 18 H 2.08 4.83886 2.90714 0
M  V30 19 N 1.4781 -0.272755 1.55222 0
M  V30 20 C 2.3881 -1.35918 1.91216 0
M  V30 21 C 3.4041 -1.54026 0.809436 0
M  V30 22 O 4.5801 -1.68148 1.10852 0
M  V30 23 C 1.6451 -2.69834 2.17693 0
M  V30 24 C 0.7061 -2.6047 3.41253 0
M  V30 25 C -0.0609 -3.88 3.66458 0
M  V30 26 O 0.1621 -4.88693 2.94169 0
M  V30 27 O -0.9039 -3.88189 4.59992 0
M  V30 28 H 2.9221 -1.0839 2.83699 0
M  V30 29 H 0.5071 -0.471301 1.41771 0
M  V30 30 H 2.3891 -3.49017 2.36147 0
M  V30 31 H 1.0641 -2.97148 1.28392 0
M  V30 32 H -0.0289 -1.79663 3.28134 0
M  V30 33 H 1.3041 -2.38106 4.30774 0
M  V30 34 N 2.9562 -1.48159 -0.537278 0
M  V30 35 C 3.9192 -1.61665 -1.62472 0
M  V30 36 C 4.9192 -0.490395 -1.5314 0
M  V30 37 O 6.1092 -0.755998 -1.5694 0
M  V30 38 C 3.2412 -1.57997 -3.02076 0
M  V30 39 H 4.4342 -2.58621 -1.51839 0
M  V30 40 H 1.9872 -1.36647 -0.758771 0
M  V30 41 H 2.7222 -0.624913 -3.18222 0
M  V30 42 H 2.5072 -2.39755 -3.10258 0
M  V30 43 H 3.9972 -1.70627 -3.81151 0
M  V30 44 N 4.4343 0.785586 -1.36625 0
M  V30 45 C 5.6813 1.54362 -1.31067 0
M  V30 46 C 6.0093 1.94195 0.10893 0
M  V30 47 O 5.2643 1.63262 1.07908 0
M  V30 48 C 5.5633 2.83007 -2.1827 0
M  V30 49 C 5.2293 2.62294 -3.6676 0
M  V30 50 C 3.8913 2.56353 -4.0723 0
M  V30 51 C 6.2433 2.43371 -4.6089 0
M  V30 52 C 3.5713 2.29461 -5.39967 0
M  V30 53 C 5.9233 2.18005 -5.93849 0
M  V30 54 C 4.5873 2.105 -6.3344 0
M  V30 55 H 3.8573 0.564851 -0.479609 0
M  V30 56 H 6.5043 0.906028 -1.68711 0
M  V30 57 H 4.8093 3.51253 -1.73576 0
M  V30 58 H 6.5063 3.40817 -2.11292 0
M  V30 59 H 3.0963 2.67774 -3.34656 0
M  V30 60 H 7.2803 2.46959 -4.30494 0
M  V30 61 H 2.5363 2.22135 -5.69619 0
M  V30 62 H 6.7103 2.02359 -6.66351 0
M  V30 63 H 4.3373 1.89425 -7.36222 0
M  V30 64 N 5.9124 1.20967 1.01018 0
M  V30 65 C 6.8424 0.988272 2.11555 0
M  V30 66 C 7.8234 -0.0849778 1.69888 0
M  V30 67 O 9.0084 0.0738202 1.9406 0
M  V30 68 C 6.1384 0.546528 3.42973 0
M  V30 69 C 5.0924 1.56375 3.9841 0
M  V30 70 C 4.4184 0.97842 5.25672 0
M  V30 71 C 5.7184 2.94922 4.31066 0
M  V30 72 H 7.4124 1.91276 2.30334 0
M  V30 73 H 4.9584 0.921073 1.1069 0
M  V30 74 H 6.9114 0.378839 4.19694 0
M  V30 75 H 5.6354 -0.413598 3.23971 0
M  V30 76 H 4.2944 1.71891 3.23804 0
M  V30 77 H 3.9424 0.0101688 5.02999 0
M  V30 78 H 3.6424 1.65784 5.63728 0
M  V30 79 H 5.1664 0.821939 6.05043 0
M  V30 80 H 6.5804 2.8288 4.9865 0
M  V30 81 H 4.9774 3.5983 4.80253 0
M  V30 82 H 6.0474 3.4616 3.39561 0
M  V30 83 N 7.3905 -1.2043 1.01659 0
M  V30 84 C 8.6385 -1.89423 0.704522 0
M  V30 85 C 8.9595 -1.79231 -0.768197 0
M  V30 86 O 8.2295 -1.1947 -1.55254 0
M  V30 87 H 6.8095 -0.701178 0.257602 0
M  V30 88 H 9.4715 -1.4626 1.28818 0
M  V30 89 H 8.5675 -2.96052 0.987916 0
M  V30 90 N 8.8686 -0.792821 -1.36206 0
M  V30 91 C 10.0936 -0.377701 -2.03932 0
M  V30 92 C 10.5186 0.998947 -1.59382 0
M  V30 93 O 9.8766 1.64421 -0.763903 0
M  V30 94 C 9.9246 -0.453635 -3.57735 0
M  V30 95 O 9.0286 0.538151 -4.08874 0
M  V30 96 H 8.3696 -0.159855 -0.644471 0
M  V30 97 H 10.8996 -1.07488 -1.7409 0
M  V30 98 H 10.9096 -0.318464 -4.06755 0
M  V30 99 H 9.5846 -1.45784 -3.89512 0
M  V30 100 H 8.1616 0.364359 -3.71116 0
M  V30 101 N 10.3467 1.47872 -0.545128 0
M  V30 102 C 11.7627 1.5829 -0.204032 0
M  V30 103 C 11.9627 1.54529 1.29317 0
M  V30 104 O 11.0187 1.44232 2.07252 0
M  V30 105 C 12.3317 2.89304 -0.819987 0
M  V30 106 C 13.8797 3.02864 -0.790105 0
M  V30 107 C 14.3547 4.3656 -1.38491 0
M  V30 108 N 15.8457 4.43165 -1.34755 0
M  V30 109 C 16.5807 5.45153 -1.77753 0
M  V30 110 N 16.0767 6.54016 -2.2855 0
M  V30 111 N 17.8697 5.36125 -1.68897 0
M  V30 112 H 10.0207 1.4856 -1.51802 0
M  V30 113 H 12.2837 0.706305 -0.632327 0
M  V30 114 H 11.9897 2.97757 -1.87173 0
M  V30 115 H 11.8637 3.75957 -0.305915 0
M  V30 116 H 14.2507 2.94014 0.252913 0
M  V30 117 H 14.3317 2.17782 -1.34181 0
M  V30 118 H 13.9757 4.46164 -2.42693 0
M  V30 119 H 13.9057 5.20353 -0.808754 0
M  V30 120 H 16.3967 3.65083 -0.975855 0
M  V30 121 H 16.7097 7.27994 -2.59314 0
M  V30 122 H 15.0547 6.54938 -2.32553 0
M  V30 123 H 18.2457 4.49975 -1.28998 0
M  V30 124 H 18.4187 6.15472 -2.02726 0
M  V30 125 N 11.8248 0.280983 1.55075 0
M  V30 126 C 13.0498 -0.340154 2.04592 0
M  V30 127 C 13.4748 -1.48246 1.15779 0
M  V30 128 O 12.8328 -1.80614 0.15761 0
M  V30 129 C 12.8808 -0.793104 3.5177 0
M  V30 130 O 11.9848 -1.89981 3.66034 0
M  V30 131 H 11.3258 -0.0694289 0.66036 0
M  V30 132 H 13.8558 0.416993 2.00306 0
M  V30 133 H 13.8658 -1.08729 3.93245 0
M  V30 134 H 12.5408 0.0426163 4.15878 0
M  V30 135 H 11.1178 -1.60771 3.36463 0
M  V30 136 N 13.3029 -1.57598 0.00835791 0
M  V30 137 C 14.5509 -1.90551 -0.6734 0
M  V30 138 C 14.8719 -0.883301 -1.73847 0
M  V30 139 O 14.1419 0.0781442 -1.95744 0
M  V30 140 H 12.7219 -0.703312 -0.251717 0
M  V30 141 H 15.3839 -1.94833 0.0512592 0
M  V30 142 H 14.4799 -2.9056 -1.13935 0
M  V30 143 N 14.781 0.264519 -1.55364 0
M  V30 144 C 15.711 1.33121 -1.91836 0
M  V30 145 C 16.692 1.51101 -0.781192 0
M  V30 146 O 17.877 1.64003 -1.04003 0
M  V30 147 C 15.007 2.68921 -2.19769 0
M  V30 148 C 13.961 2.65661 -3.35571 0
M  V30 149 C 13.287 4.05093 -3.49004 0
M  V30 150 C 14.587 2.24187 -4.71739 0
M  V30 151 H 16.281 1.02844 -2.81182 0
M  V30 152 H 13.827 0.493286 -1.35287 0
M  V30 153 H 15.78 3.43663 -2.43872 0
M  V30 154 H 14.504 3.00799 -1.27231 0
M  V30 155 H 13.163 1.93377 -3.1145 0
M  V30 156 H 12.811 4.34206 -2.53917 0
M  V30 157 H 12.511 4.03804 -4.26868 0
M  V30 158 H 14.035 4.81561 -3.75408 0
M  V30 159 H 15.449 2.88654 -4.9533 0
M  V30 160 H 13.846 2.34044 -5.52579 0
M  V30 161 H 14.916 1.19327 -4.69988 0
M  V30 162 N 16.2591 1.48442 0.529413 0
M  V30 163 C 17.5051 1.57699 1.28463 0
M  V30 164 C 17.8601 0.247913 1.90796 0
M  V30 165 O 17.1531 -0.749279 1.76342 0
M  V30 166 C 17.3471 2.6523 2.39558 0
M  V30 167 C 17.1761 4.08464 1.88114 0
M  V30 168 C 15.9461 4.75596 1.70693 0
M  V30 169 C 18.1441 4.94613 1.40935 0
M  V30 170 N 16.1261 6.03245 1.13881 0
M  V30 171 C 17.4971 6.12511 0.960734 0
M  V30 172 C 19.5521 4.80833 1.29243 0
M  V30 173 C 18.2551 7.18149 0.406792 0
M  V30 174 C 20.2811 5.86593 0.752487 0
M  V30 175 C 19.6431 7.037 0.313946 0
M  V30 176 H 15.7421 0.631608 0.46108 0
M  V30 177 H 18.3261 1.85325 0.596886 0
M  V30 178 H 16.4971 2.39425 3.05827 0
M  V30 179 H 18.2291 2.64169 3.06589 0
M  V30 180 H 14.9841 4.31938 1.94232 0
M  V30 181 H 15.4081 6.71324 0.874831 0
M  V30 182 H 20.0501 3.90635 1.61754 0
M  V30 183 H 17.7681 8.0807 0.0693671 0
M  V30 184 H 21.3541 5.77985 0.665192 0
M  V30 185 H 20.2341 7.8414 -0.0973632 0
M  V30 186 N 17.7372 -0.778329 1.37039 0
M  V30 187 C 18.7002 -1.87301 1.32102 0
M  V30 188 C 19.7002 -1.59198 0.226405 0
M  V30 189 O 20.8902 -1.67403 0.481861 0
M  V30 190 C 18.0222 -3.24309 1.05055 0
M  V30 191 H 19.2152 -1.93093 2.29467 0
M  V30 192 H 16.7682 -0.977358 1.21973 0
M  V30 193 H 17.5032 -3.24196 0.0819373 0
M  V30 194 H 17.2882 -3.46098 1.84279 0
M  V30 195 H 18.7782 -4.04382 1.04234 0
M  V30 196 N 19.2153 -1.21501 -1.00376 0
M  V30 197 C 20.4633 -1.03095 -1.73827 0
M  V30 198 C 20.7843 0.436341 -1.90055 0
M  V30 199 O 20.0543 1.31466 -1.45236 0
M  V30 200 H 18.6343 -0.378487 -0.644016 0
M  V30 201 H 21.2963 -1.52831 -1.20949 0
M  V30 202 H 20.3923 -1.49991 -2.73695 0
M  V30 203 N 20.6934 1.19889 -1.02296 0
M  V30 204 C 21.9414 1.89046 -0.714558 0
M  V30 205 C 22.2624 1.79636 0.758681 0
M  V30 206 O 21.5324 1.20292 1.54618 0
M  V30 207 H 20.1124 0.699802 -0.261317 0
M  V30 208 H 22.7744 1.45574 -1.29592 0
M  V30 209 H 21.8704 2.95524 -1.0036 0
M  V30 210 N 22.1715 0.800033 1.35784 0
M  V30 211 C 23.5825 0.439142 1.81462 0
M  V30 212 C 23.9335 -1.03813 1.66485 0
M  V30 213 O 23.0585 -1.80626 1.19177 0
M  V30 214 C 23.6535 0.790314 3.29453 0
M  V30 215 C 22.2125 0.482111 3.733 0
M  V30 216 C 21.3595 1.01938 2.57883 0
M  V30 217 H 24.3105 0.992254 1.23855 0
M  V30 218 H 24.3315 0.0853677 3.80404 0
M  V30 219 H 23.8435 1.86554 3.40322 0
M  V30 220 H 21.9445 -0.584652 3.67984 0
M  V30 221 H 22.0575 1.01015 4.6833 0
M  V30 222 H 20.4215 0.442043 2.50835 0
M  V30 223 H 21.2045 2.10059 2.71533 0
M  V30 224 N 23.6496 -1.47581 0.552962 0
M  V30 225 C 24.6126 -2.28439 -0.186605 0
M  V30 226 C 25.6126 -1.36706 -0.84665 0
M  V30 227 O 26.8026 -1.59378 -0.703164 0
M  V30 228 C 23.9346 -3.16264 -1.2724 0
M  V30 229 H 25.1276 -2.95294 0.523609 0
M  V30 230 H 22.6806 -1.532 0.309745 0
M  V30 231 H 23.4156 -2.54091 -2.01514 0
M  V30 232 H 23.2006 -3.83769 -0.803968 0
M  V30 233 H 24.6906 -3.77198 -1.79196 0
M  V30 234 N 25.1277 -0.289203 -1.54924 0
M  V30 235 C 26.5387 0.205791 -1.85562 0
M  V30 236 C 26.8897 1.54351 -1.2112 0
M  V30 237 O 26.0147 2.10435 -0.504601 0
M  V30 238 C 26.6097 0.380177 -3.3666 0
M  V30 239 C 25.1687 0.819395 -3.67373 0
M  V30 240 C 24.3157 -0.079159 -2.77187 0
M  V30 241 H 27.2667 -0.510577 -1.50262 0
M  V30 242 H 27.2877 1.21659 -3.60526 0
M  V30 243 H 26.7997 -0.593589 -3.83534 0
M  V30 244 H 24.9007 1.80413 -3.26009 0
M  V30 245 H 25.0137 0.646957 -4.74712 0
M  V30 246 H 23.3777 0.439565 -2.50878 0
M  V30 247 H 24.1607 -1.04906 -3.26878 0
M  V30 248 N 26.6058 1.57591 -0.0167156 0
M  V30 249 C 27.8538 1.90906 0.663285 0
M  V30 250 C 28.1748 0.892509 1.73376 0
M  V30 251 O 27.4448 -0.0677623 1.95783 0
M  V30 252 H 26.0248 0.704637 0.247983 0
M  V30 253 H 28.6868 1.94803 -0.0615909 0
M  V30 254 H 27.7828 2.9116 1.12393 0
M  V30 255 N 28.0839 -0.256276 1.55502 0
M  V30 256 C 29.0159 -1.33981 1.85962 0
M  V30 257 C 30.0289 -1.44743 0.745212 0
M  V30 258 O 31.2179 -1.4626 1.02324 0
M  V30 259 C 28.3179 -2.7194 2.02242 0
M  V30 260 C 27.4909 -2.83562 3.33033 0
M  V30 261 C 26.5499 -4.02304 3.39172 0
M  V30 262 O 25.5759 -3.92273 4.12444 0
M  V30 263 N 26.7779 -5.15045 2.67784 0
M  V30 264 H 29.5429 -1.08191 2.7949 0
M  V30 265 H 27.1039 -0.446388 1.55624 0
M  V30 266 H 29.0959 -3.49697 2.03701 0
M  V30 267 H 27.6659 -2.90479 1.15502 0
M  V30 268 H 26.8859 -1.92555 3.43971 0
M  V30 269 H 28.1739 -2.88271 4.19258 0
M  V30 270 H 27.5719 -5.26085 2.07968 0
M  V30 271 H 26.1289 -5.90972 2.74947 0
M  V30 272 N 29.562 -1.4872 -0.521534 0
M  V30 273 C 30.809 -1.57168 -1.27689 0
M  V30 274 C 31.137 -0.249275 -1.92896 0
M  V30 275 O 30.392 0.761162 -1.80291 0
M  V30 276 C 30.691 -2.66497 -2.38148 0
M  V30 277 C 30.357 -4.08664 -1.90538 0
M  V30 278 C 29.019 -4.47357 -1.77271 0
M  V30 279 C 31.371 -4.97724 -1.54663 0
M  V30 280 C 28.699 -5.72905 -1.26478 0
M  V30 281 C 31.051 -6.2377 -1.05329 0
M  V30 282 C 29.715 -6.61311 -0.906861 0
M  V30 283 H 28.985 -0.575117 -0.467249 0
M  V30 284 H 31.632 -1.82472 -0.581051 0
M  V30 285 H 29.937 -2.35085 -3.13437 0
M  V30 286 H 31.634 -2.70246 -2.96257 0
M  V30 287 H 28.224 -3.78111 -2.01816 0
M  V30 288 H 32.408 -4.68501 -1.63768 0
M  V30 289 H 27.664 -6.00709 -1.13835 0
M  V30 290 H 31.838 -6.9217 -0.76644 0
M  V30 291 H 29.465 -7.5848 -0.511083 0
M  V30 292 N 31.0401 0.771051 -1.3745 0
M  V30 293 C 32.2701 1.55789 -1.35696 0
M  V30 294 C 32.6781 1.89107 0.0594523 0
M  V30 295 O 32.0211 1.51984 1.03183 0
M  V30 296 C 32.0831 2.89515 -2.13123 0
M  V30 297 C 31.7471 2.78829 -3.62082 0
M  V30 298 C 32.7441 2.49812 -4.5595 0
M  V30 299 C 30.4291 2.9683 -4.05213 0
M  V30 300 C 32.4231 2.38923 -5.90927 0
M  V30 301 C 30.1101 2.85562 -5.40276 0
M  V30 302 C 31.1081 2.56649 -6.32946 0
M  V30 303 O 30.7961 2.45408 -7.65526 0
M  V30 304 H 30.5281 0.489257 -0.466481 0
M  V30 305 H 33.0821 0.963446 -1.81403 0
M  V30 306 H 31.3121 3.51081 -1.62107 0
M  V30 307 H 33.0011 3.50915 -2.03994 0
M  V30 308 H 33.7671 2.3559 -4.23937 0
M  V30 309 H 29.6461 3.18335 -3.33442 0
M  V30 310 H 33.1901 2.16277 -6.63227 0
M  V30 311 H 29.0871 2.99351 -5.71891 0
M  V30 312 H 29.8551 2.60753 -7.75855 0
M  V30 313 N 32.5182 1.22032 0.997298 0
M  V30 314 C 33.9342 0.979326 1.26021 0
M  V30 315 C 34.1342 -0.32972 1.98784 0
M  V30 316 O 33.1902 -1.05345 2.29475 0
M  V30 317 C 34.5032 2.17509 2.07631 0
M  V30 318 C 36.0512 2.21817 2.2083 0
M  V30 319 C 36.5262 3.40933 3.05825 0
M  V30 320 N 38.0172 3.41067 3.13412 0
M  V30 321 C 38.7522 4.29885 3.79455 0
M  V30 322 N 38.2482 5.28914 4.47462 0
M  V30 323 N 40.0412 4.17673 3.76173 0
M  V30 324 H 32.1922 2.06202 0.509352 0
M  V30 325 H 34.4552 0.90334 0.287541 0
M  V30 326 H 34.1612 3.12415 1.61524 0
M  V30 327 H 34.0352 2.17206 3.08385 0
M  V30 328 H 36.4222 1.27462 2.66153 0
M  V30 329 H 36.5032 2.2616 1.1952 0
M  V30 330 H 36.1472 4.35586 2.61203 0
M  V30 331 H 36.0772 3.33829 4.07266 0
M  V30 332 H 38.5682 2.69406 2.65007 0
M  V30 333 H 38.8812 5.92973 4.95583 0
M  V30 334 H 37.2262 5.32831 4.46224 0
M  V30 335 H 40.4172 3.39564 3.22202 0
M  V30 336 H 40.5902 4.87098 4.27363 0
M  V30 337 N 33.9963 -1.19345 1.0293 0
M  V30 338 C 35.2453 -1.88363 0.721256 0
M  V30 339 C 35.5583 -1.80514 -0.753254 0
M  V30 340 O 36.7643 -2.44788 -1.17436 0
M  V30 341 C 35.2203 -3.37872 1.23978 0
M  V30 342 C 34.8283 -3.54278 2.74211 0
M  V30 343 C 36.5723 -4.12365 1.00775 0
M  V30 344 C 34.4793 -4.97682 3.19479 0
M  V30 345 H 33.4093 -0.705484 0.266098 0
M  V30 346 H 36.0603 -1.34928 1.24365 0
M  V30 347 H 34.4423 -3.90707 0.6453 0
M  V30 348 H 35.6163 -3.11769 3.39318 0
M  V30 349 H 33.9313 -2.93174 2.95699 0
M  V30 350 H 36.5283 -5.18119 1.32123 0
M  V30 351 H 36.8713 -4.16263 -0.0554308 0
M  V30 352 H 37.4043 -3.65668 1.56625 0
M  V30 353 H 34.1433 -4.98945 4.25128 0
M  V30 354 H 33.6633 -5.4095 2.591 0
M  V30 355 H 35.3423 -5.66337 3.12845 0
M  V30 356 N 35.4744 -0.807222 -1.35358 0
M  V30 357 C 36.8854 -0.44876 -1.81226 0
M  V30 358 C 37.2364 1.02929 -1.67033 0
M  V30 359 O 36.3614 1.79991 -1.20133 0
M  V30 360 C 36.9564 -0.807774 -3.2903 0
M  V30 361 C 35.5154 -0.501901 -3.73039 0
M  V30 362 C 34.6624 -1.03304 -2.57339 0
M  V30 363 H 37.6134 -0.998808 -1.23327 0
M  V30 364 H 37.6344 -0.10554 -3.80354 0
M  V30 365 H 37.1464 -1.88357 -3.39328 0
M  V30 366 H 35.2474 0.565128 -3.68289 0
M  V30 367 H 35.3604 -1.03497 -4.67787 0
M  V30 368 H 33.7244 -0.455339 -2.50597 0
M  V30 369 H 34.5074 -2.11496 -2.70415 0
M  V30 370 N 36.9525 1.47285 -0.560781 0
M  V30 371 C 38.1775 2.07359 -0.0410566 0
M  V30 372 C 38.6025 1.41017 1.24483 0
M  V30 373 O 37.9605 0.486368 1.74654 0
M  V30 374 C 38.0085 3.6035 0.134123 0
M  V30 375 O 37.1125 3.94681 1.19587 0
M  V30 376 H 36.4535 0.661887 -0.0529291 0
M  V30 377 H 38.9835 1.89252 -0.777482 0
M  V30 378 H 38.9935 4.0652 0.347207 0
M  V30 379 H 37.6685 4.08034 -0.805047 0
M  V30 380 H 36.2455 3.60251 0.962987 0
M  V30 381 N 38.4306 0.297415 1.54768 0
M  V30 382 C 39.6586 -0.315623 2.04478 0
M  V30 383 C 40.0736 -1.47792 1.17486 0
M  V30 384 O 39.4306 -1.81404 0.19971 0
M  V30 385 C 39.4816 -0.7753 3.53088 0
M  V30 386 O 39.2026 0.340732 4.36773 0
M  V30 387 C 40.7036 -1.45386 4.18781 0
M  V30 388 H 37.9236 -0.0690887 0.667434 0
M  V30 389 H 40.4676 0.436003 1.99798 0
M  V30 390 H 38.6226 -1.47696 3.58141 0
M  V30 391 H 39.0366 -0.0165035 5.24497 0
M  V30 392 H 40.5106 -1.72669 5.24299 0
M  V30 393 H 40.9876 -2.39275 3.68299 0
M  V30 394 H 41.5936 -0.795475 4.17795 0
M  V30 395 N 39.9087 -1.5758 0.0250728 0
M  V30 396 C 41.3197 -1.79476 -0.514323 0
M  V30 397 C 41.6707 -0.934956 -1.72491 0
M  V30 398 O 40.7957 -0.144245 -2.15919 0
M  V30 399 C 41.3907 -3.25503 -0.939842 0
M  V30 400 C 39.9497 -3.48408 -1.42438 0
M  V30 401 C 39.0967 -2.74583 -0.387201 0
M  V30 402 H 42.0477 -1.567 0.25113 0
M  V30 403 H 42.0687 -3.34992 -1.80445 0
M  V30 404 H 41.5807 -3.88056 -0.0585628 0
M  V30 405 H 39.6817 -2.91103 -2.32572 0
M  V30 406 H 39.7947 -4.57119 -1.43455 0
M  V30 407 H 38.1587 -2.39942 -0.854409 0
M  V30 408 H 38.9417 -3.39849 0.485543 0
M  V30 409 N 41.3868 0.248026 -1.55636 0
M  V30 410 C 42.6638 0.998988 -1.68165 0
M  V30 411 C 43.0438 2.03409 -0.564621 0
M  V30 412 O 42.3918 2.24378 0.432076 0
M  V30 413 C 42.6018 1.63334 -3.0842 0
M  V30 414 C 43.9498 2.13562 -3.66983 0
M  V30 415 O 44.9738 1.73277 -3.11213 0
M  V30 416 O 43.8328 2.87526 -4.64749 0
M  V30 417 H 40.9268 0.464933 -0.683935 0
M  V30 418 H 43.4728 0.241902 -1.67967 0
M  V30 419 H 42.2448 0.884583 -3.8117 0
M  V30 420 H 41.8678 2.45666 -3.12624 0
M  V30 421 N 42.8649 1.48995 0.513639 0
M  V30 422 C 44.0899 1.61792 1.29762 0
M  V30 423 C 44.5149 0.284475 1.85936 0
M  V30 424 O 43.8729 -0.746185 1.65232 0
M  V30 425 C 43.9209 2.67993 2.41272 0
M  V30 426 O 43.0249 2.26287 3.44772 0
M  V30 427 H 42.3659 0.541963 0.38363 0
M  V30 428 H 44.8959 1.95097 0.616307 0
M  V30 429 H 44.9059 2.89772 2.87221 0
M  V30 430 H 43.5809 3.64791 1.9975 0
M  V30 431 H 42.1579 2.14788 3.04829 0
M  V30 432 N 44.343 -0.763751 1.37857 0
M  V30 433 C 45.59 -1.52257 1.33506 0
M  V30 434 C 45.918 -1.94343 -0.078022 0
M  V30 435 O 45.173 -1.64958 -1.05297 0
M  V30 436 C 45.472 -2.79499 2.22745 0
M  V30 437 C 45.138 -2.56426 3.70886 0
M  V30 438 C 43.8 -2.49842 4.11257 0
M  V30 439 C 46.152 -2.36008 4.64704 0
M  V30 440 C 43.48 -2.20841 5.43549 0
M  V30 441 C 45.832 -2.0853 5.97242 0
M  V30 442 C 44.496 -2.00396 6.36709 0
M  V30 443 H 43.766 -0.557149 0.488534 0
M  V30 444 H 46.413 -0.879073 1.70131 0
M  V30 445 H 44.718 -3.48447 1.79142 0
M  V30 446 H 46.415 -3.37413 2.16688 0
M  V30 447 H 43.005 -2.62416 3.38874 0
M  V30 448 H 47.189 -2.40079 4.34368 0
M  V30 449 H 42.445 -2.13045 5.73081 0
M  V30 450 H 46.619 -1.91732 6.69486 0
M  V30 451 H 44.246 -1.77688 7.39142 0
M  V30 452 N 45.8211 -1.22559 -0.990812 0
M  V30 453 C 46.7541 -0.940773 -2.07905 0
M  V30 454 C 47.7321 0.117082 -1.62178 0
M  V30 455 O 48.9161 -0.0149506 -1.88494 0
M  V30 456 C 46.0431 -0.415321 -3.36144 0
M  V30 457 C 45.0891 -1.45818 -4.00799 0
M  V30 458 S 45.9221 -3.03219 -4.41382 0
M  V30 459 C 47.0781 -2.52317 -5.72789 0
M  V30 460 H 47.3111 -1.8623 -2.31745 0
M  V30 461 H 44.8441 -1.05688 -1.12558 0
M  V30 462 H 46.8021 -0.118747 -4.10328 0
M  V30 463 H 45.4631 0.485121 -3.10331 0
M  V30 464 H 44.6561 -1.04044 -4.93144 0
M  V30 465 H 44.2581 -1.70356 -3.32949 0
M  V30 466 H 46.5501 -1.93688 -6.49224 0
M  V30 467 H 47.4931 -3.43161 -6.19392 0
M  V30 468 H 47.9011 -1.93529 -5.30289 0
M  V30 469 N 47.2992 1.18797 -1.03562 0
M  V30 470 C 48.5762 1.84469 -0.650434 0
M  V30 471 C 48.9562 1.92319 0.870433 0
M  V30 472 O 48.3042 1.44528 1.76986 0
M  V30 473 C 48.5142 3.2306 -1.32036 0
M  V30 474 C 49.8622 3.9915 -1.44792 0
M  V30 475 O 50.8862 3.32481 -1.27806 0
M  V30 476 O 49.7452 5.18587 -1.72423 0
M  V30 477 H 46.8392 0.795251 -0.226946 0
M  V30 478 H 49.3852 1.26231 -1.13419 0
M  V30 479 H 48.1572 3.1222 -2.3587 0
M  V30 480 H 47.7802 3.88949 -0.8249 0
M  V30 481 N 48.7773 0.814389 1.34928 0
M  V30 482 C 50.1883 0.458364 1.80986 0
M  V30 483 C 50.5393 -1.02042 1.67577 0
M  V30 484 O 49.6643 -1.79352 1.21086 0
M  V30 485 C 50.2593 0.825212 3.28597 0
M  V30 486 C 48.8183 0.521677 3.72767 0
M  V30 487 C 47.9653 1.04668 2.56788 0
M  V30 488 H 50.9163 1.00533 1.22795 0
M  V30 489 H 50.9373 0.12571 3.80292 0
M  V30 490 H 50.4493 1.90154 3.38324 0
M  V30 491 H 48.5503 -0.545589 3.68584 0
M  V30 492 H 48.6633 1.05977 4.67232 0
M  V30 493 H 47.0273 0.468622 2.50352 0
M  V30 494 H 47.8103 2.12927 2.6929 0
M  V30 495 N 50.2554 -1.46986 0.568584 0
M  V30 496 C 51.2184 -2.28624 -0.162366 0
M  V30 497 C 52.2184 -1.37596 -0.832103 0
M  V30 498 O 53.4084 -1.60115 -0.68622 0
M  V30 499 C 50.5404 -3.17596 -1.23878 0
M  V30 500 H 51.7334 -2.94722 0.554899 0
M  V30 501 H 49.2864 -1.52863 0.325976 0
M  V30 502 H 50.0214 -2.56214 -1.98808 0
M  V30 503 H 49.8064 -3.846 -0.763219 0
M  V30 504 H 51.2964 -3.79078 -1.75185 0
M  V30 505 N 51.7335 -0.305618 -1.54608 0
M  V30 506 C 52.9585 0.307562 -2.05107 0
M  V30 507 C 53.3835 1.46385 -1.18123 0
M  V30 508 O 52.7415 1.8034 -0.186324 0
M  V30 509 C 52.7895 0.73704 -3.52987 0
M  V30 510 O 51.8935 1.84134 -3.6901 0
M  V30 511 H 51.2345 0.0589143 -0.661381 0
M  V30 512 H 53.7645 -0.448807 -1.99617 0
M  V30 513 H 53.7745 1.02459 -3.94925 0
M  V30 514 H 52.4495 -0.108773 -4.15758 0
M  V30 515 H 51.0265 1.55398 -3.38978 0
M  V30 516 N 53.2116 1.57565 -0.0334293 0
M  V30 517 C 54.1746 2.09393 0.932048 0
M  V30 518 C 55.1746 1.00986 1.25134 0
M  V30 519 O 56.3646 1.27129 1.19096 0
M  V30 520 C 53.4966 2.56338 2.2473 0
M  V30 521 H 54.6896 2.95984 0.483085 0
M  V30 522 H 52.2426 1.54819 0.21468 0
M  V30 523 H 52.9776 1.7309 2.74245 0
M  V30 524 H 52.7626 3.35542 2.02865 0
M  V30 525 H 54.2526 2.96646 2.93923 0
M  V30 526 N 54.6897 -0.239769 1.55765 0
M  V30 527 C 55.6197 -1.30052 1.9393 0
M  V30 528 C 56.6007 -1.49839 0.805132 0
M  V30 529 O 57.7857 -1.62328 1.06599 0
M  V30 530 C 54.9157 -2.65391 2.2402 0
M  V30 531 C 53.8697 -2.60289 3.39755 0
M  V30 532 C 53.1957 -3.99489 3.55405 0
M  V30 533 C 54.4957 -2.16654 4.75246 0
M  V30 534 H 56.1897 -0.983573 2.82783 0
M  V30 535 H 53.7357 -0.471701 1.36055 0
M  V30 536 H 55.6887 -3.3974 2.49308 0
M  V30 537 H 54.4127 -2.98736 1.32 0
M  V30 538 H 53.0717 -1.88398 3.14487 0
M  V30 539 H 52.7197 -4.30112 2.60793 0
M  V30 540 H 52.4197 -3.96962 4.33238 0
M  V30 541 H 53.9437 -4.75528 3.83022 0
M  V30 542 H 55.3577 -2.80737 4.99859 0
M  V30 543 H 53.7547 -2.25223 5.56232 0
M  V30 544 H 54.8247 -1.11835 4.71827 0
M  V30 545 N 56.1678 -1.49265 -0.50573 0
M  V30 546 C 57.3978 -1.61979 -1.28243 0
M  V30 547 C 57.8058 -0.288576 -1.86986 0
M  V30 548 O 57.1488 0.735408 -1.68337 0
M  V30 549 C 57.2108 -2.62632 -2.45489 0
M  V30 550 C 56.8748 -4.071 -2.07651 0
M  V30 551 C 57.8718 -4.94049 -1.61901 0
M  V30 552 C 55.5568 -4.52801 -2.17431 0
M  V30 553 C 57.5508 -6.24736 -1.26428 0
M  V30 554 C 55.2378 -5.83503 -1.8157 0
M  V30 555 C 56.2358 -6.69294 -1.36142 0
M  V30 556 O 55.9238 -7.9756 -1.00764 0
M  V30 557 H 55.6558 -0.54834 -0.395347 0
M  V30 558 H 58.2098 -1.96002 -0.614204 0
M  V30 559 H 56.4398 -2.2378 -3.15372 0
M  V30 560 H 58.1288 -2.64925 -3.07522 0
M  V30 561 H 58.8948 -4.5997 -1.53795 0
M  V30 562 H 54.7738 -3.86196 -2.51742 0
M  V30 563 H 58.3178 -6.91652 -0.908992 0
M  V30 564 H 54.2148 -6.17112 -1.89324 0
M  V30 565 H 54.9828 -8.10529 -1.13952 0
M  V30 566 N 57.6459 0.756429 -1.3826 0
M  V30 567 C 59.0619 1.0591 -1.19395 0
M  V30 568 C 59.2619 2.01459 -0.0406567 0
M  V30 569 O 58.3179 2.44909 0.614467 0
M  V30 570 C 59.6309 1.64191 -2.51916 0
M  V30 571 C 61.1789 1.76376 -2.58574 0
M  V30 572 C 61.6539 2.38069 -3.91264 0
M  V30 573 N 63.1449 2.45503 -3.92788 0
M  V30 574 C 63.8799 2.94126 -4.92217 0
M  V30 575 N 63.3759 3.42805 -6.02043 0
M  V30 576 N 65.1689 2.9314 -4.7961 0
M  V30 577 H 57.3199 0.122313 -2.12048 0
M  V30 578 H 59.5829 0.116892 -0.940766 0
M  V30 579 H 59.2889 1.01451 -3.3675 0
M  V30 580 H 59.1629 2.6329 -2.70108 0
M  V30 581 H 61.5499 2.38244 -1.74137 0
M  V30 582 H 61.6309 0.759894 -2.44252 0
M  V30 583 H 61.2749 1.76835 -4.76121 0
M  V30 584 H 61.2049 3.39091 -4.02895 0
M  V30 585 H 63.6959 2.1107 -3.13461 0
M  V30 586 H 64.0089 3.78354 -6.73846 0
M  V30 587 H 62.3539 3.4087 -6.05667 0
M  V30 588 H 65.5449 2.54419 -3.92923 0
M  V30 589 H 65.7179 3.30721 -5.5725 0
M  V30 590 N 59.124 1.23083 0.984299 0
M  V30 591 C 60.372 1.05848 1.72165 0
M  V30 592 C 60.693 -0.406049 1.90726 0
M  V30 593 O 59.963 -1.29139 1.47309 0
M  V30 594 H 58.543 0.388685 0.637913 0
M  V30 595 H 61.205 1.54736 1.18503 0
M  V30 596 H 60.301 1.54327 2.71274 0
M  V30 597 N 60.6021 -1.18246 1.0419 0
M  V30 598 C 62.0131 -1.69914 0.773698 0
M  V30 599 C 62.3641 -1.83085 -0.705297 0
M  V30 600 O 61.4891 -1.51123 -1.5489 0
M  V30 601 C 62.0841 -3.08619 1.39784 0
M  V30 602 C 60.6431 -3.57494 1.17792 0
M  V30 603 C 59.7901 -2.34013 1.48773 0
M  V30 604 H 62.7411 -1.02904 1.20816 0
M  V30 605 H 62.7621 -3.71958 0.801714 0
M  V30 606 H 62.2741 -2.99001 2.47426 0
M  V30 607 H 60.3751 -3.72406 0.120295 0
M  V30 608 H 60.4881 -4.40852 1.87581 0
M  V30 609 H 58.8521 -2.37986 0.907463 0
M  V30 610 H 59.6351 -2.27013 2.57527 0
M  V30 611 N 62.0802 -0.821533 -1.34494 0
M  V30 612 C 63.3292 -0.405355 -1.97585 0
M  V30 613 C 63.6422 1.03677 -1.65863 0
M  V30 614 O 64.8482 1.55679 -2.22433 0
M  V30 615 C 63.3042 -0.673861 -3.53535 0
M  V30 616 C 62.9122 -2.12951 -3.94152 0
M  V30 617 C 64.6562 -0.32378 -4.23263 0
M  V30 618 C 62.5632 -2.34298 -5.43009 0
M  V30 619 H 61.4932 -0.147836 -0.739365 0
M  V30 620 H 64.1442 -1.00769 -1.53355 0
M  V30 621 H 62.5262 -0.00137554 -3.96 0
M  V30 622 H 63.7002 -2.84104 -3.62797 0
M  V30 623 H 62.0152 -2.44089 -3.37356 0
M  V30 624 H 64.6122 -0.461126 -5.32708 0
M  V30 625 H 64.9552 0.731586 -4.09821 0
M  V30 626 H 65.4882 -0.950786 -3.8627 0
M  V30 627 H 62.2272 -3.38335 -5.61435 0
M  V30 628 H 61.7472 -1.67687 -5.75883 0
M  V30 629 H 63.4262 -2.16588 -6.09671 0
M  V30 630 N 63.5583 1.46682 -0.576371 0
M  V30 631 C 64.7863 2.06798 -0.0649635 0
M  V30 632 C 65.2013 1.42612 1.23723 0
M  V30 633 O 64.5583 0.529203 1.74659 0
M  V30 634 C 64.6093 3.6132 0.114202 0
M  V30 635 O 64.3303 4.23104 -1.13644 0
M  V30 636 C 65.8313 4.38349 0.66069 0
M  V30 637 H 63.0513 0.668778 -0.0545616 0
M  V30 638 H 65.5953 1.88404 -0.795237 0
M  V30 639 H 63.7503 3.79162 0.794673 0
M  V30 640 H 64.1643 5.15894 -0.946253 0
M  V30 641 H 65.6383 5.47081 0.73526 0
M  V30 642 H 66.1153 4.05953 1.67627 0
M  V30 643 H 66.7213 4.25297 0.0152951 0
M  V30 644 N 65.0364 0.313813 1.54444 0
M  V30 645 C 66.4524 -0.0391619 1.59552 0
M  V30 646 C 66.6524 -1.51322 1.33056 0
M  V30 647 O 65.7084 -2.26782 1.11022 0
M  V30 648 C 67.0214 0.370302 2.98411 0
M  V30 649 C 68.5694 0.320139 3.11358 0
M  V30 650 C 69.0444 0.704617 4.52547 0
M  V30 651 N 70.5354 0.657645 4.58508 0
M  V30 652 C 71.2704 0.927453 5.6585 0
M  V30 653 N 70.7664 1.26389 6.81174 0
M  V30 654 N 72.5594 0.853662 5.5558 0
M  V30 655 H 64.7104 1.27433 1.69925 0
M  V30 656 H 66.9734 0.517511 0.794284 0
M  V30 657 H 66.6794 1.39694 3.22767 0
M  V30 658 H 66.5534 -0.269619 3.76235 0
M  V30 659 H 68.9404 -0.697275 2.86744 0
M  V30 660 H 69.0214 0.99486 2.35661 0
M  V30 661 H 68.6654 1.7199 4.77893 0
M  V30 662 H 68.5954 0.00768843 5.26599 0
M  V30 663 H 71.0864 0.409067 3.75679 0
M  V30 664 H 71.3994 1.4554 7.58972 0
M  V30 665 H 69.7444 1.30206 6.82694 0
M  V30 666 H 72.9354 0.590383 4.64362 0
M  V30 667 H 73.1084 1.0673 6.3915 0
M  V30 668 N 66.5145 -1.57545 0.0417849 0
M  V30 669 C 67.7425 -1.96624 -0.643928 0
M  V30 670 C 68.1575 -0.918897 -1.64929 0
M  V30 671 O 67.5145 0.0979323 -1.82237 0
M  V30 672 C 67.5655 -3.35781 -1.33914 0
M  V30 673 O 67.2865 -4.365 -0.374048 0
M  V30 674 C 68.7875 -3.89566 -2.1155 0
M  V30 675 H 66.0075 -0.647316 -0.176702 0
M  V30 676 H 68.5515 -2.04229 0.105304 0
M  V30 677 H 66.7065 -3.29357 -2.03968 0
M  V30 678 H 67.1205 -5.17248 -0.869179 0
M  V30 679 H 68.5945 -4.89242 -2.55628 0
M  V30 680 H 69.0715 -3.24488 -2.9598 0
M  V30 681 H 69.6775 -3.99298 -1.46427 0
M  V30 682 N 67.9926 0.231505 -1.5589 0
M  V30 683 C 68.9246 1.31006 -1.8807 0
M  V30 684 C 69.9376 1.43539 -0.768145 0
M  V30 685 O 71.1266 1.44614 -1.04638 0
M  V30 686 C 68.2266 2.68688 -2.06543 0
M  V30 687 C 67.3996 2.78228 -3.37502 0
M  V30 688 C 66.4586 3.96857 -3.4553 0
M  V30 689 O 65.4846 3.85662 -4.18633 0
M  V30 690 N 66.6866 5.1072 -2.75944 0
M  V30 691 H 69.4516 1.03731 -2.81176 0
M  V30 692 H 67.0126 0.421573 -1.56315 0
M  V30 693 H 69.0046 3.46412 -2.09239 0
M  V30 694 H 67.5746 2.88605 -1.20109 0
M  V30 695 H 66.7946 1.87059 -3.46991 0
M  V30 696 H 68.0826 2.81564 -4.23791 0
M  V30 697 H 67.4806 5.2271 -2.16311 0
M  V30 698 H 66.0376 5.86523 -2.84314 0
M  V30 699 N 69.4707 1.49531 0.497807 0
M  V30 700 C 70.4187 1.66926 1.61983 0
M  V30 701 C 71.4127 0.535167 1.60724 0
M  V30 702 O 72.6187 0.714896 1.65195 0
M  V30 703 H 68.9937 0.526415 0.537021 0
M  V30 704 H 70.9647 2.61098 1.44465 0
M  V30 705 C 69.7137 1.75602 3.00099 0
M  V30 706 H 69.0367 2.62244 3.01775 0
M  V30 707 H 70.4767 1.91807 3.78135 0
M  V30 708 C 68.9357 0.501543 3.33146 0
M  V30 709 O 69.4657 -0.371342 3.9998 0
M  V30 710 N 67.6717 0.363531 2.88317 0
M  V30 711 H 67.2187 1.07485 2.34104 0
M  V30 712 H 67.1767 -0.474728 3.10795 0
M  V30 713 N 70.9488 -0.749086 1.3866 0
M  V30 714 C 72.3598 -1.32664 1.31366 0
M  V30 715 C 72.7108 -1.96179 -0.028484 0
M  V30 716 O 71.8358 -1.9537 -0.93057 0
M  V30 717 C 72.4308 -2.41219 2.37905 0
M  V30 718 C 70.9898 -2.94684 2.34176 0
M  V30 719 C 70.1368 -1.68108 2.20533 0
M  V30 720 H 73.0878 -0.547628 1.48952 0
M  V30 721 H 73.1088 -3.21268 2.0388 0
M  V30 722 H 72.6208 -1.94962 3.35576 0
M  V30 723 H 70.7218 -3.45258 1.401 0
M  V30 724 H 70.8348 -3.48757 3.2849 0
M  V30 725 H 69.1988 -1.91907 1.67463 0
M  V30 726 H 69.9818 -1.23923 3.20153 0
M  V30 727 N 72.4269 -1.23603 -0.977757 0
M  V30 728 C 73.3599 -0.962772 -2.06896 0
M  V30 729 C 74.3379 0.0998743 -1.62293 0
M  V30 730 O 75.5219 -0.0349421 -1.88468 0
M  V30 731 C 72.6489 -0.45095 -3.35685 0
M  V30 732 C 71.6949 -1.50061 -3.99229 0
M  V30 733 S 72.5279 -3.07884 -4.38142 0
M  V30 734 C 73.6839 -2.58378 -5.7008 0
M  V30 735 H 73.9169 -1.88677 -2.29757 0
M  V30 736 H 71.4499 -1.06876 -1.11431 0
M  V30 737 H 73.4079 -0.162261 -4.10179 0
M  V30 738 H 72.0689 0.452179 -3.10828 0
M  V30 739 H 71.2619 -1.09269 -4.92013 0
M  V30 740 H 70.8639 -1.73878 -3.31123 0
M  V30 741 H 73.1559 -2.00563 -6.47133 0
M  V30 742 H 74.0989 -3.49711 -6.15717 0
M  V30 743 H 74.5069 -1.99143 -5.28207 0
M  V30 744 N 73.905 1.17692 -1.04816 0
M  V30 745 C 75.151 1.88137 -0.75711 0
M  V30 746 C 75.484 1.80604 0.713841 0
M  V30 747 O 74.759 1.21146 1.52164 0
M  V30 748 C 75.042 3.38318 -1.2334 0
M  V30 749 C 74.895 3.54622 -2.76701 0
M  V30 750 C 76.214 4.32214 -0.829415 0
M  V30 751 H 73.333 0.683163 -0.27651 0
M  V30 752 H 75.975 1.38424 -1.30149 0
M  V30 753 H 74.125 3.80787 -0.770286 0
M  V30 754 H 75.797 3.21194 -3.31107 0
M  V30 755 H 74.04 2.97026 -3.16161 0
M  V30 756 H 74.711 4.60028 -3.05088 0
M  V30 757 H 77.187 3.97565 -1.22805 0
M  V30 758 H 76.063 5.35838 -1.19033 0
M  V30 759 H 76.324 4.41294 0.266891 0
M  V30 760 N 75.3831 0.828654 1.34056 0
M  V30 761 C 76.6111 0.43262 2.02326 0
M  V30 762 C 77.0261 -0.963147 1.62385 0
M  V30 763 O 76.3831 -1.62425 0.832121 0
M  V30 764 C 76.4341 0.53182 3.57567 0
M  V30 765 O 76.1551 1.87258 3.96063 0
M  V30 766 C 77.6561 0.131422 4.43105 0
M  V30 767 H 74.8761 0.172923 0.648335 0
M  V30 768 H 77.4201 1.1184 1.71208 0
M  V30 769 H 75.5751 -0.105938 3.87255 0
M  V30 770 H 75.9891 1.85087 4.90758 0
M  V30 771 H 77.4631 0.251904 5.51425 0
M  V30 772 H 77.9401 -0.925645 4.29335 0
M  V30 773 H 78.5461 0.743207 4.18756 0
M  V30 774 N 76.8612 -1.46375 0.584142 0
M  V30 775 C 78.1092 -2.01978 0.0701287 0
M  V30 776 C 78.4302 -1.4579 -1.295 0
M  V30 777 O 77.7002 -0.64314 -1.85042 0
M  V30 778 H 76.2802 -0.746648 0.0229345 0
M  V30 779 H 78.9422 -1.79461 0.760245 0
M  V30 780 H 78.0382 -3.121 0.0022064 0
M  V30 781 N 78.3393 -0.321999 -1.54275 0
M  V30 782 C 79.5673 0.283052 -2.04955 0
M  V30 783 C 79.9823 1.45904 -1.19823 0
M  V30 784 O 79.3393 1.81063 -0.228545 0
M  V30 785 C 79.3903 0.719028 -3.54277 0
M  V30 786 O 79.1113 -0.410175 -4.36176 0
M  V30 787 C 80.6123 1.38705 -4.21041 0
M  V30 788 H 77.8323 0.0584616 -0.668448 0
M  V30 789 H 80.3763 -0.467734 -1.99079 0
M  V30 790 H 78.5313 1.41979 -3.60445 0
M  V30 791 H 78.9453 -0.0669416 -5.24457 0
M  V30 792 H 80.4193 1.64306 -5.2698 0
M  V30 793 H 80.8963 2.33385 -3.72059 0
M  V30 794 H 81.5023 0.728906 -4.19007 0
M  V30 795 N 79.8174 1.5752 -0.0501392 0
M  V30 796 C 81.0424 1.97376 0.636997 0
M  V30 797 C 81.4674 0.927466 1.63645 0
M  V30 798 O 80.8254 -0.10941 1.8097 0
M  V30 799 C 80.8734 3.36304 1.30123 0
M  V30 800 O 79.9774 3.34156 2.41689 0
M  V30 801 H 79.3184 0.642998 0.165679 0
M  V30 802 H 81.8484 2.04258 -0.118233 0
M  V30 803 H 81.8584 3.73008 1.65315 0
M  V30 804 H 80.5334 4.11993 0.568746 0
M  V30 805 H 79.1104 3.09196 2.08451 0
M  V30 806 N 81.2955 -0.223234 1.56011 0
M  V30 807 C 82.5415 -0.949279 1.79211 0
M  V30 808 C 82.8745 -1.84054 0.619494 0
M  V30 809 O 82.1495 -1.90726 -0.381317 0
M  V30 810 C 82.4325 -1.78965 3.12479 0
M  V30 811 C 82.2855 -0.924997 4.40186 0
M  V30 812 C 83.6045 -2.76774 3.42175 0
M  V30 813 H 80.7235 -0.343676 0.651963 0
M  V30 814 H 83.3655 -0.218253 1.88742 0
M  V30 815 H 81.5155 -2.41291 3.04485 0
M  V30 816 H 83.1875 -0.318615 4.60198 0
M  V30 817 H 81.4305 -0.230344 4.33188 0
M  V30 818 H 82.1015 -1.54735 5.29869 0
M  V30 819 H 84.5775 -2.24584 3.50287 0
M  V30 820 H 83.4535 -3.32678 4.36597 0
M  V30 821 H 83.7145 -3.54429 2.64258 0
M  V30 822 N 82.7736 -1.49793 -0.48987 0
M  V30 823 C 83.7036 -1.70201 -1.59856 0
M  V30 824 C 84.6846 -0.55076 -1.60937 0
M  V30 825 O 85.8696 -0.787841 -1.77501 0
M  V30 826 C 82.9996 -1.77882 -2.98287 0
M  V30 827 C 81.9536 -2.92907 -3.12073 0
M  V30 828 C 81.2796 -2.85712 -4.51965 0
M  V30 829 C 82.5796 -4.3369 -2.91051 0
M  V30 830 H 84.2736 -2.63025 -1.43032 0
M  V30 831 H 81.8196 -1.26574 -0.686664 0
M  V30 832 H 83.7726 -1.90744 -3.75759 0
M  V30 833 H 82.4966 -0.816653 -3.16225 0
M  V30 834 H 81.1556 -2.79665 -2.37029 0
M  V30 835 H 80.8036 -1.8738 -4.66795 0
M  V30 836 H 80.5036 -3.62921 -4.62128 0
M  V30 837 H 82.0276 -3.00598 -5.31482 0
M  V30 838 H 83.4416 -4.47555 -3.58284 0
M  V30 839 H 81.8386 -5.12205 -3.12675 0
M  V30 840 H 82.9086 -4.47362 -1.87071 0
M  V30 841 N 84.2517 0.741722 -1.39055 0
M  V30 842 C 85.4997 1.49818 -1.35643 0
M  V30 843 C 85.8207 1.94938 0.0491642 0
M  V30 844 O 85.0907 1.68505 0.999141 0
M  V30 845 H 83.6707 0.555755 -0.499144 0
M  V30 846 H 86.3327 0.880957 -1.73854 0
M  V30 847 H 85.4287 2.38348 -2.01486 0
M  V30 848 N 85.7298 1.2412 0.971189 0
M  V30 849 C 86.9758 1.08041 1.71625 0
M  V30 850 C 87.3088 -0.380407 1.90438 0
M  V30 851 O 86.5838 -1.28127 1.46334 0
M  V30 852 C 86.8668 1.81682 3.10908 0
M  V30 853 C 86.7198 3.35493 2.99608 0
M  V30 854 C 88.0388 1.58671 4.10501 0
M  V30 855 H 85.1578 0.39388 0.622919 0
M  V30 856 H 87.7998 1.52743 1.13003 0
M  V30 857 H 85.9498 1.43684 3.60953 0
M  V30 858 H 87.6218 3.83068 2.57015 0
M  V30 859 H 85.8648 3.64052 2.35899 0
M  V30 860 H 86.5358 3.82217 3.98264 0
M  V30 861 H 89.0118 1.91719 3.69301 0
M  V30 862 H 87.8878 2.1266 5.06031 0
M  V30 863 H 88.1488 0.524161 4.38982 0
M  V30 864 N 87.2079 -1.17134 1.05439 0
M  V30 865 C 88.1549 -2.21235 0.657539 0
M  V30 866 C 89.1249 -1.62551 -0.341543 0
M  V30 867 O 90.3099 -1.89379 -0.232393 0
M  V30 868 C 87.4499 -3.45076 0.0410575 0
M  V30 869 C 86.5629 -4.18042 1.08927 0
M  V30 870 C 85.6979 -5.29376 0.439848 0
M  V30 871 C 84.7369 -5.94132 1.4722 0
M  V30 872 N 83.8739 -6.96975 0.846756 0
M  V30 873 H 88.7139 -2.54534 1.54972 0
M  V30 874 H 86.2509 -1.25028 0.775006 0
M  V30 875 H 88.2089 -4.15862 -0.33383 0
M  V30 876 H 86.8389 -3.12353 -0.814568 0
M  V30 877 H 85.8909 -3.45945 1.58196 0
M  V30 878 H 87.2029 -4.62306 1.87282 0
M  V30 879 H 86.3569 -6.06699 0.0115125 0
M  V30 880 H 85.0959 -4.86251 -0.375656 0
M  V30 881 H 84.1009 -5.15538 1.91052 0
M  V30 882 H 85.3259 -6.39337 2.28965 0
M  V30 883 H 83.2719 -6.5598 0.0518075 0
M  V30 884 H 83.1889 -7.39565 1.5678 0
M  V30 885 H 84.4569 -7.78239 0.443277 0
M  V30 886 N 88.686 -0.835752 -1.33615 0
M  V30 887 C 89.933 -0.429959 -1.97883 0
M  V30 888 C 90.261 1.01006 -1.66217 0
M  V30 889 O 89.516 1.72047 -0.93265 0
M  V30 890 C 89.815 -0.593925 -3.52431 0
M  V30 891 C 89.481 -2.00158 -4.04039 0
M  V30 892 C 88.143 -2.38662 -4.17844 0
M  V30 893 C 90.495 -2.92117 -4.31644 0
M  V30 894 C 87.823 -3.68435 -4.56588 0
M  V30 895 C 90.175 -4.21368 -4.71838 0
M  V30 896 C 88.839 -4.59833 -4.83849 0
M  V30 897 H 88.109 -0.157333 -0.724104 0
M  V30 898 H 90.756 -1.06217 -1.59343 0
M  V30 899 H 89.061 0.121619 -3.91611 0
M  V30 900 H 90.758 -0.260282 -4.00154 0
M  V30 901 H 87.348 -1.69252 -3.93766 0
M  V30 902 H 91.532 -2.63608 -4.20505 0
M  V30 903 H 86.788 -3.98046 -4.64079 0
M  V30 904 H 90.962 -4.92703 -4.92155 0
M  V30 905 H 88.589 -5.60438 -5.13627 0
M  V30 906 N 90.1641 1.46063 -0.591896 0
M  V30 907 C 91.0741 2.34192 0.13831 0
M  V30 908 C 92.0901 1.50305 0.876608 0
M  V30 909 O 93.2661 1.8315 0.837728 0
M  V30 910 C 90.3311 3.27656 1.13326 0
M  V30 911 C 89.3921 4.27445 0.39863 0
M  V30 912 C 88.6251 5.16443 1.34618 0
M  V30 913 O 88.8481 5.08553 2.58321 0
M  V30 914 O 87.7821 5.95843 0.851768 0
M  V30 915 H 91.6081 2.98002 -0.58552 0
M  V30 916 H 89.1931 1.45188 -0.352239 0
M  V30 917 H 91.0751 3.85291 1.70671 0
M  V30 918 H 89.7501 2.6643 1.83839 0
M  V30 919 H 88.6571 3.73471 -0.216895 0
M  V30 920 H 89.9901 4.91482 -0.265709 0
M  V30 921 N 91.6422 0.330177 1.54103 0
M  V30 922 C 92.8902 -0.269871 2.0029 0
M  V30 923 C 93.2112 -1.52133 1.21986 0
M  V30 924 O 92.4812 -1.93212 0.323438 0
M  V30 925 H 91.0612 -0.10271 0.739905 0
M  V30 926 H 93.7232 0.448249 1.89675 0
M  V30 927 H 92.8192 -0.52166 3.07709 0
M  V30 928 N 93.1203 -1.57491 0.0584922 0
M  V30 929 C 94.3683 -1.92597 -0.612436 0
M  V30 930 C 94.6893 -0.938162 -1.70949 0
M  V30 931 O 93.9593 0.0158301 -1.95894 0
M  V30 932 H 92.5393 -0.710964 -0.229214 0
M  V30 933 H 95.2013 -1.94571 0.113218 0
M  V30 934 H 94.2973 -2.94038 -1.04633 0
M  V30 935 N 94.5984 0.214957 -1.56127 0
M  V30 936 C 95.8444 0.939762 -1.79712 0
M  V30 937 C 96.1774 1.83723 -0.629247 0
M  V30 938 O 95.4524 1.90925 0.371197 0
M  V30 939 C 95.7354 1.77306 -3.13424 0
M  V30 940 C 95.5884 0.90164 -4.40671 0
M  V30 941 C 96.9074 2.74956 -3.43638 0
M  V30 942 H 94.0264 0.340214 -0.653776 0
M  V30 943 H 96.6684 0.20824 -1.88855 0
M  V30 944 H 94.8184 2.39673 -3.0576 0
M  V30 945 H 96.4904 0.294206 -4.60361 0
M  V30 946 H 94.7334 0.207368 -4.33304 0
M  V30 947 H 95.4044 1.51923 -5.30682 0
M  V30 948 H 97.8804 2.22724 -3.51473 0
M  V30 949 H 96.7564 3.30358 -4.38355 0
M  V30 950 H 97.0174 3.53023 -2.66134 0
M  V30 951 N 96.0765 1.50051 0.48192 0
M  V30 952 C 97.3225 1.60736 1.2366 0
M  V30 953 C 97.6555 0.301786 1.91841 0
M  V30 954 O 96.9305 -0.696025 1.8162 0
M  V30 955 C 97.2135 2.78009 2.28874 0
M  V30 956 C 97.0665 4.18416 1.65069 0
M  V30 957 C 98.3855 2.90867 3.30279 0
M  V30 958 H 95.5045 0.585031 0.448228 0
M  V30 959 H 98.1465 1.82402 0.531946 0
M  V30 960 H 96.2965 2.59667 2.88973 0
M  V30 961 H 97.9685 4.48322 1.0865 0
M  V30 962 H 96.2115 4.23177 0.954148 0
M  V30 963 H 96.8825 4.96381 2.41474 0
M  V30 964 H 99.3585 3.07623 2.80191 0
M  V30 965 H 98.2345 3.74566 4.01238 0
M  V30 966 H 98.4955 2.01021 3.93755 0
M  V30 967 N 97.5546 -0.734337 1.39446 0
M  V30 968 C 98.8036 -1.48937 1.36017 0
M  V30 969 C 99.1166 -1.95557 -0.0409005 0
M  V30 970 O 100.323 -2.70779 -0.19778 0
M  V30 971 C 98.7786 -2.69125 2.38955 0
M  V30 972 C 98.3866 -2.29452 3.8478 0
M  V30 973 C 100.131 -3.46944 2.44603 0
M  V30 974 C 98.0376 -3.46366 4.79358 0
M  V30 975 H 96.9676 -0.559296 0.505672 0
M  V30 976 H 99.6186 -0.800983 1.65095 0
M  V30 977 H 98.0006 -3.40041 2.02948 0
M  V30 978 H 99.1746 -1.66077 4.29831 0
M  V30 979 H 97.4896 -1.64723 3.82433 0
M  V30 980 H 100.087 -4.33907 3.12456 0
M  V30 981 H 100.43 -3.89454 1.47076 0
M  V30 982 H 100.963 -2.83056 2.79507 0
M  V30 983 H 97.7016 -3.08905 5.78151 0
M  V30 984 H 97.2216 -4.08719 4.38986 0
M  V30 985 H 98.9006 -4.12691 4.98292 0
M  V30 986 N 99.0327 -1.24633 -0.964593 0
M  V30 987 C 99.9957 -1.0424 -2.04124 0
M  V30 988 C 100.996 0.00137563 -1.608 0
M  V30 989 O 102.186 -0.239883 -1.7254 0
M  V30 990 C 99.3177 -0.580588 -3.3592 0
M  V30 991 H 100.511 -1.99803 -2.23649 0
M  V30 992 H 98.0637 -1.06899 -1.14027 0
M  V30 993 H 98.7987 0.3781 -3.22088 0
M  V30 994 H 98.5837 -1.33398 -3.6871 0
M  V30 995 H 100.074 -0.459034 -4.15069 0
M  V30 996 N 100.511 1.16574 -1.06058 0
M  V30 997 C 101.474 2.19085 -0.673392 0
M  V30 998 C 102.474 1.5835 0.279648 0
M  V30 999 O 103.664 1.74088 0.0623488 0
M  V30 1000 C 100.796 3.40899 0.00954234 0
M  V30 1001 H 101.989 2.54853 -1.58081 0
M  V30 1002 H 99.5418 1.30808 -0.855516 0
M  V30 1003 H 100.277 3.10684 0.929826 0
M  V30 1004 H 100.062 3.86233 -0.67573 0
M  V30 1005 H 101.552 4.1675 0.266245 0
M  V30 1006 N 101.989 0.842826 1.3317 0
M  V30 1007 C 103.266 0.362216 1.92217 0
M  V30 1008 C 103.646 -1.15289 1.76838 0
M  V30 1009 O 102.994 -1.96914 1.15919 0
M  V30 1010 C 103.204 0.813495 3.39387 0
M  V30 1011 C 104.552 0.823804 4.16532 0
M  V30 1012 O 105.576 0.757358 3.48055 0
M  V30 1013 O 104.435 0.915193 5.38782 0
M  V30 1014 H 101.529 0.103317 0.820521 0
M  V30 1015 H 104.075 0.928942 1.42017 0
M  V30 1016 H 102.847 1.85624 3.4447 0
M  V30 1017 H 102.47 0.223561 3.96971 0
M  V30 1018 N 103.467 -1.45747 0.599634 0
M  V30 1019 C 104.4 -2.27547 -0.172552 0
M  V30 1020 C 105.378 -1.36657 -0.881116 0
M  V30 1021 O 106.562 -1.66081 -0.891595 0
M  V30 1022 C 103.689 -3.14829 -1.24903 0
M  V30 1023 C 102.735 -4.21603 -0.644465 0
M  V30 1024 S 103.568 -5.32754 0.541606 0
M  V30 1025 C 104.724 -6.23604 -0.535656 0
M  V30 1026 H 104.957 -2.92691 0.521468 0
M  V30 1027 H 102.49 -1.49473 0.386947 0
M  V30 1028 H 104.448 -3.65675 -1.86527 0
M  V30 1029 H 103.109 -2.48965 -1.91508 0
M  V30 1030 H 102.302 -4.82566 -1.45417 0
M  V30 1031 H 101.904 -3.73857 -0.103534 0
M  V30 1032 H 104.196 -6.62519 -1.41686 0
M  V30 1033 H 105.139 -7.0809 0.0376246 0
M  V30 1034 H 105.547 -5.58103 -0.84741 0
M  V30 1035 N 104.945 -0.338344 -1.53925 0
M  V30 1036 C 105.875 0.51328 -2.27789 0
M  V30 1037 C 106.856 1.107 -1.29149 0
M  V30 1038 O 108.041 1.12937 -1.57984 0
M  V30 1039 C 105.171 1.66697 -3.04679 0
M  V30 1040 C 104.125 1.20183 -4.1078 0
M  V30 1041 C 103.451 2.44363 -4.75595 0
M  V30 1042 C 104.751 0.30605 -5.21403 0
M  V30 1043 H 106.445 -0.102883 -2.99223 0
M  V30 1044 H 103.991 -0.0509219 -1.4391 0
M  V30 1045 H 105.944 2.26915 -3.55088 0
M  V30 1046 H 104.668 2.30995 -2.30887 0
M  V30 1047 H 103.327 0.622499 -3.61276 0
M  V30 1048 H 102.975 3.07057 -3.98403 0
M  V30 1049 H 102.675 2.13925 -5.47275 0
M  V30 1050 H 104.199 3.05317 -5.28786 0
M  V30 1051 H 105.613 0.814929 -5.67478 0
M  V30 1052 H 104.01 0.0937929 -6.00027 0
M  V30 1053 H 105.08 -0.65921 -4.80398 0
M  V30 1054 N 106.423 1.57458 -0.0668435 0
M  V30 1055 C 107.671 1.92919 0.602214 0
M  V30 1056 C 107.992 0.947215 1.70449 0
M  V30 1057 O 107.262 -0.00544117 1.95899 0
M  V30 1058 H 105.842 0.71217 0.22544 0
M  V30 1059 H 108.504 1.94508 -0.123535 0
M  V30 1060 H 107.6 2.94589 1.03073 0
M  V30 1061 N 107.901 -0.206675 1.56239 0
M  V30 1062 C 109.126 -0.949474 1.8439 0
M  V30 1063 C 109.551 -1.76549 0.649016 0
M  V30 1064 O 108.909 -1.76782 -0.402231 0
M  V30 1065 C 108.957 -1.83078 3.10668 0
M  V30 1066 O 108.061 -2.9281 2.90407 0
M  V30 1067 H 107.402 -0.268033 0.607499 0
M  V30 1068 H 109.932 -0.215488 2.03462 0
M  V30 1069 H 109.942 -2.2377 3.41161 0
M  V30 1070 H 108.617 -1.23112 3.97261 0
M  V30 1071 H 107.194 -2.55956 2.71184 0
M  V30 1072 N 109.379 -1.50304 -0.473955 0
M  V30 1073 C 110.609 -1.64663 -1.24778 0
M  V30 1074 C 111.017 -0.328174 -1.86332 0
M  V30 1075 O 110.36 0.699536 -1.69859 0
M  V30 1076 C 110.422 -2.6778 -2.39863 0
M  V30 1077 C 110.086 -4.11413 -1.98969 0
M  V30 1078 C 111.083 -4.97372 -1.51385 0
M  V30 1079 C 108.768 -4.57312 -2.07777 0
M  V30 1080 C 110.762 -6.27277 -1.13148 0
M  V30 1081 C 108.449 -5.87223 -1.69152 0
M  V30 1082 C 109.447 -6.72031 -1.21915 0
M  V30 1083 O 109.135 -7.99518 -0.838237 0
M  V30 1084 H 108.867 -0.556602 -0.383627 0
M  V30 1085 H 111.421 -1.9726 -0.572491 0
M  V30 1086 H 109.651 -2.30419 -3.10554 0
M  V30 1087 H 111.34 -2.71388 -3.01833 0
M  V30 1088 H 112.106 -4.63128 -1.44004 0
M  V30 1089 H 107.985 -3.91449 -2.43493 0
M  V30 1090 H 111.529 -6.93425 -0.762077 0
M  V30 1091 H 107.426 -6.20989 -1.76191 0
M  V30 1092 H 108.194 -8.12764 -0.967339 0
M  V30 1093 N 110.857 0.726932 -1.39834 0
M  V30 1094 C 112.105 1.4837 -1.37225 0
M  V30 1095 C 112.426 1.94979 0.0284857 0
M  V30 1096 O 111.696 1.69555 0.981213 0
M  V30 1097 H 110.276 0.55043 -0.505011 0
M  V30 1098 H 112.938 0.862468 -1.74778 0
M  V30 1099 H 112.034 2.36198 -2.04003 0
M  V30 1100 N 112.336 1.25143 0.95797 0
M  V30 1101 C 113.561 1.12521 1.74223 0
M  V30 1102 C 113.986 -0.317402 1.85403 0
M  V30 1103 O 113.344 -1.2299 1.33204 0
M  V30 1104 C 113.392 1.78062 3.1357 0
M  V30 1105 O 112.496 1.058 3.98598 0
M  V30 1106 H 111.837 0.39304 0.535178 0
M  V30 1107 H 114.367 1.65641 1.201 0
M  V30 1108 H 114.377 1.84213 3.64046 0
M  V30 1109 H 113.052 2.83021 3.04749 0
M  V30 1110 H 111.629 1.07506 3.57067 0
M  V30 1111 N 113.814 -1.1601 1.06675 0
M  V30 1112 C 114.744 -2.22688 0.702307 0
M  V30 1113 C 115.725 -1.67306 -0.307032 0
M  V30 1114 O 116.91 -1.93352 -0.181305 0
M  V30 1115 C 114.04 -3.47178 0.092038 0
M  V30 1116 C 112.994 -4.15477 1.02777 0
M  V30 1117 C 112.32 -5.33963 0.28061 0
M  V30 1118 C 113.62 -4.66019 2.35846 0
M  V30 1119 H 115.314 -2.53429 1.59419 0
M  V30 1120 H 112.86 -1.21813 0.767961 0
M  V30 1121 H 114.813 -4.21037 -0.174814 0
M  V30 1122 H 113.537 -3.15749 -0.834877 0
M  V30 1123 H 112.196 -3.43549 1.27944 0
M  V30 1124 H 111.844 -4.98788 -0.649545 0
M  V30 1125 H 111.544 -5.806 0.904258 0
M  V30 1126 H 113.068 -6.10596 0.021396 0
M  V30 1127 H 114.482 -5.3144 2.15045 0
M  V30 1128 H 112.879 -5.23293 2.93743 0
M  V30 1129 H 113.949 -3.82023 2.98641 0
M  V30 1130 N 115.292 -0.849877 -1.32721 0
M  V30 1131 C 116.255 -0.296122 -2.27279 0
M  V30 1132 C 117.255 0.541458 -1.5141 0
M  V30 1133 O 118.445 0.353658 -1.70572 0
M  V30 1134 C 115.577 0.581579 -3.35902 0
M  V30 1135 H 116.77 -1.13064 -2.77771 0
M  V30 1136 H 114.323 -0.62383 -1.43311 0
M  V30 1137 H 115.058 1.43809 -2.9067 0
M  V30 1138 H 114.843 -0.0178814 -3.92096 0
M  V30 1139 H 116.333 0.961951 -4.0637 0
M  V30 1140 N 116.77 1.45427 -0.607355 0
M  V30 1141 C 118.186 1.57283 -0.270985 0
M  V30 1142 C 118.386 1.59875 1.22647 0
M  V30 1143 O 117.442 1.52893 2.00948 0
M  V30 1144 C 118.755 2.85566 -0.941952 0
M  V30 1145 C 120.303 2.9924 -0.917849 0
M  V30 1146 C 120.778 4.30293 -1.56882 0
M  V30 1147 N 122.269 4.37051 -1.5343 0
M  V30 1148 C 123.004 5.37123 -2.00715 0
M  V30 1149 N 122.5 6.43734 -2.56084 0
M  V30 1150 N 124.293 5.28479 -1.91484 0
M  V30 1151 H 116.444 1.41988 -1.57966 0
M  V30 1152 H 118.707 0.67885 -0.661715 0
M  V30 1153 H 118.413 2.8955 -1.99633 0
M  V30 1154 H 118.287 3.74322 -0.465096 0
M  V30 1155 H 120.674 2.94822 0.127984 0
M  V30 1156 H 120.755 2.11895 -1.43297 0
M  V30 1157 H 120.399 4.35469 -2.61398 0
M  V30 1158 H 120.329 5.16454 -1.02873 0
M  V30 1159 H 122.82 3.60615 -1.12982 0
M  V30 1160 H 123.133 7.16341 -2.89958 0
M  V30 1161 H 121.478 6.44485 -2.60122 0
M  V30 1162 H 124.669 4.44098 -1.47967 0
M  V30 1163 H 124.842 6.0632 -2.28648 0
M  V30 1164 N 118.248 0.346503 1.53744 0
M  V30 1165 C 119.495 -0.249104 2.00962 0
M  V30 1166 C 119.823 -1.5032 1.23426 0
M  V30 1167 O 119.078 -1.93217 0.310761 0
M  V30 1168 C 119.377 -0.605809 3.52228 0
M  V30 1169 C 119.043 0.551747 4.47512 0
M  V30 1170 C 117.705 0.86941 4.73281 0
M  V30 1171 C 120.057 1.32818 5.03993 0
M  V30 1172 C 117.385 1.96582 5.52786 0
M  V30 1173 C 119.737 2.41486 5.84694 0
M  V30 1174 C 118.401 2.73808 6.08757 0
M  V30 1175 H 117.671 -0.0911538 0.735372 0
M  V30 1176 H 120.318 0.475027 1.85515 0
M  V30 1177 H 118.623 -1.4107 3.65522 0
M  V30 1178 H 120.32 -1.07858 3.86222 0
M  V30 1179 H 116.91 0.294102 4.2759 0
M  V30 1180 H 121.094 1.09602 4.84047 0
M  V30 1181 H 116.35 2.22045 5.69654 0
M  V30 1182 H 120.524 3.02078 6.27473 0
M  V30 1183 H 118.151 3.58892 6.7015 0
M  V30 1184 N 119.726 -1.57421 0.075193 0
M  V30 1185 C 121.142 -1.57099 -0.281444 0
M  V30 1186 C 121.342 -1.08486 -1.69803 0
M  V30 1187 O 120.398 -0.752279 -2.41033 0
M  V30 1188 C 121.711 -3.00571 -0.0880041 0
M  V30 1189 C 123.259 -3.12605 -0.157281 0
M  V30 1190 C 123.734 -4.57999 0.0079207 0
M  V30 1191 N 125.225 -4.63176 -0.0475725 0
M  V30 1192 C 125.96 -5.73373 0.0557876 0
M  V30 1193 N 125.456 -6.92473 0.21286 0
M  V30 1194 N 127.249 -5.621 -0.00152098 0
M  V30 1195 H 119.4 -1.87335 1.00098 0
M  V30 1196 H 121.663 -0.86377 0.390646 0
M  V30 1197 H 121.369 -3.40262 0.889629 0
M  V30 1198 H 121.243 -3.67754 -0.838875 0
M  V30 1199 H 123.63 -2.72798 -1.1254 0
M  V30 1200 H 123.711 -2.48053 0.62475 0
M  V30 1201 H 123.355 -4.98496 0.972824 0
M  V30 1202 H 123.285 -5.20586 -0.793556 0
M  V30 1203 H 125.776 -3.7753 -0.167244 0
M  V30 1204 H 126.089 -7.72279 0.283781 0
M  V30 1205 H 124.434 -6.94556 0.248267 0
M  V30 1206 H 127.625 -4.67938 -0.122958 0
M  V30 1207 H 127.798 -6.47948 0.0824844 0
M  V30 1208 N 121.204 0.198386 -1.56346 0
M  V30 1209 C 122.152 1.26538 -1.95169 0
M  V30 1210 C 123.146 1.47295 -0.836685 0
M  V30 1211 O 124.352 1.48195 -1.02167 0
M  V30 1212 H 120.727 0.424744 -0.620561 0
M  V30 1213 H 122.698 0.910904 -2.84157 0
M  V30 1214 C 121.447 2.6035 -2.30463 0
M  V30 1215 H 120.77 2.45192 -3.15786 0
M  V30 1216 H 122.21 3.33762 -2.61494 0
M  V30 1217 C 120.669 3.17096 -1.13806 0
M  V30 1218 O 121.199 3.99588 -0.41135 0
M  V30 1219 N 119.405 2.75795 -0.915736 0
M  V30 1220 H 118.952 2.08816 -1.50843 0
M  V30 1221 H 118.91 3.14101 -0.136979 0
M  V30 1222 N 122.682 1.50554 0.465978 0
M  V30 1223 C 123.931 1.61038 1.21448 0
M  V30 1224 C 124.244 0.31865 1.92987 0
M  V30 1225 O 125.45 0.302469 2.6981 0
M  V30 1226 C 123.906 2.84283 2.20706 0
M  V30 1227 C 123.514 4.20352 1.54946 0
M  V30 1228 C 125.258 3.04115 2.96166 0
M  V30 1229 C 123.165 5.34778 2.5252 0
M  V30 1230 H 122.095 0.599718 0.457005 0
M  V30 1231 H 124.746 1.7699 0.484424 0
M  V30 1232 H 123.128 2.61901 2.97025 0
M  V30 1233 H 124.302 4.53008 0.843811 0
M  V30 1234 H 122.617 4.06167 0.917475 0
M  V30 1235 H 125.214 3.86774 3.69202 0
M  V30 1236 H 125.557 2.16045 3.55852 0
M  V30 1237 H 126.09 3.26702 2.26959 0
M  V30 1238 H 122.829 6.25018 1.97566 0
M  V30 1239 H 122.349 5.06534 3.21222 0
M  V30 1240 H 124.028 5.65561 3.14245 0
M  V30 1241 N 124.16 -0.719506 1.40217 0
M  V30 1242 C 125.385 -1.51371 1.4178 0
M  V30 1243 C 125.81 -1.88091 0.0182355 0
M  V30 1244 O 125.168 -1.52997 -0.972707 0
M  V30 1245 C 125.216 -2.768 2.31115 0
M  V30 1246 O 124.32 -3.73349 1.7517 0
M  V30 1247 H 123.661 -0.456529 0.482159 0
M  V30 1248 H 126.191 -0.88644 1.844 0
M  V30 1249 H 126.201 -3.25371 2.46167 0
M  V30 1250 H 124.876 -2.49407 3.3282 0
M  V30 1251 H 123.453 -3.32179 1.69444 0
M  V30 1252 N 125.638 -1.25649 -0.95132 0
M  V30 1253 C 127.054 -1.02542 -1.223 0
M  V30 1254 C 127.254 0.255715 -1.99871 0
M  V30 1255 O 126.31 0.967558 -2.33226 0
M  V30 1256 C 127.623 -2.25065 -1.99415 0
M  V30 1257 C 129.171 -2.29861 -2.12446 0
M  V30 1258 C 129.646 -3.52048 -2.92961 0
M  V30 1259 N 131.137 -3.52465 -3.00538 0
M  V30 1260 C 131.872 -4.43672 -3.63239 0
M  V30 1261 N 131.368 -5.45157 -4.27523 0
M  V30 1262 N 133.161 -4.31346 -3.60412 0
M  V30 1263 H 125.312 -2.07951 -0.432471 0
M  V30 1264 H 127.575 -0.91339 -0.253816 0
M  V30 1265 H 127.281 -3.18194 -1.49817 0
M  V30 1266 H 127.155 -2.28502 -3.00111 0
M  V30 1267 H 129.542 -1.37252 -2.61239 0
M  V30 1268 H 129.623 -2.3044 -1.11044 0
M  V30 1269 H 129.267 -4.44981 -2.44856 0
M  V30 1270 H 129.197 -3.48715 -3.94596 0
M  V30 1271 H 131.688 -2.79056 -2.54826 0
M  V30 1272 H 132.001 -6.10958 -4.73234 0
M  V30 1273 H 130.346 -5.49025 -4.26141 0
M  V30 1274 H 133.537 -3.51288 -3.09377 0
M  V30 1275 H 133.71 -5.02624 -4.0899 0
M  V30 1276 N 127.117 1.15442 -1.07289 0
M  V30 1277 C 128.366 1.85557 -0.790669 0
M  V30 1278 C 128.679 1.83186 0.685739 0
M  V30 1279 O 129.885 2.48977 1.0827 0
M  V30 1280 C 128.341 3.33038 -1.36433 0
M  V30 1281 C 127.949 3.43856 -2.8717 0
M  V30 1282 C 129.693 4.0834 -1.1601 0
M  V30 1283 C 127.6 4.85482 -3.3773 0
M  V30 1284 H 126.53 0.695122 -0.292098 0
M  V30 1285 H 129.181 1.30219 -1.29287 0
M  V30 1286 H 127.563 3.88043 -0.789864 0
M  V30 1287 H 128.737 2.98961 -3.50655 0
M  V30 1288 H 127.052 2.81998 -3.06376 0
M  V30 1289 H 129.649 5.12859 -1.51262 0
M  V30 1290 H 129.992 4.16182 -0.0991007 0
M  V30 1291 H 130.525 3.59603 -1.70089 0
M  V30 1292 H 127.264 4.82823 -4.43353 0
M  V30 1293 H 126.784 5.30961 -2.78999 0
M  V30 1294 H 128.463 5.54335 -3.33648 0
M  V30 1295 N 128.595 0.856903 1.32268 0
M  V30 1296 C 129.528 0.247937 2.26849 0
M  V30 1297 C 130.506 -0.615382 1.50505 0
M  V30 1298 O 131.69 -0.571689 1.79622 0
M  V30 1299 C 128.817 -0.650093 3.32403 0
M  V30 1300 C 127.863 0.140138 4.2627 0
M  V30 1301 S 128.696 1.51004 5.13769 0
M  V30 1302 C 129.852 0.61778 6.22844 0
M  V30 1303 H 130.085 1.04971 2.78152 0
M  V30 1304 H 127.618 0.654665 1.39834 0
M  V30 1305 H 129.576 -1.16256 3.93694 0
M  V30 1306 H 128.237 -1.4257 2.7988 0
M  V30 1307 H 127.43 -0.543945 5.01056 0
M  V30 1308 H 127.032 0.584267 3.69408 0
M  V30 1309 H 129.324 -0.177053 6.77269 0
M  V30 1310 H 130.267 1.33636 6.95375 0
M  V30 1311 H 130.675 0.191124 5.64176 0
M  V30 1312 N 130.073 -1.45103 0.615059 0
M  V30 1313 C 131.489 -1.57137 0.279322 0
M  V30 1314 C 131.689 -1.60523 -1.21797 0
M  V30 1315 O 130.745 -1.53956 -2.00134 0
M  V30 1316 C 132.058 -2.85062 0.957083 0
M  V30 1317 C 133.606 -2.98749 0.933706 0
M  V30 1318 C 134.081 -4.29455 1.59162 0
M  V30 1319 N 135.572 -4.36231 1.55746 0
M  V30 1320 C 136.307 -5.36051 2.0356 0
M  V30 1321 N 135.803 -6.42367 2.59494 0
M  V30 1322 N 137.596 -5.27456 1.94284 0
M  V30 1323 H 129.747 -1.41148 1.58717 0
M  V30 1324 H 132.01 -0.675331 0.665306 0
M  V30 1325 H 131.716 -2.88488 2.01166 0
M  V30 1326 H 131.59 -3.7407 0.48494 0
M  V30 1327 H 133.977 -2.94886 -0.112347 0
M  V30 1328 H 134.058 -2.11132 1.44419 0
M  V30 1329 H 133.702 -4.34077 2.63704 0
M  V30 1330 H 133.632 -5.15901 1.0561 0
M  V30 1331 H 136.123 -3.60011 1.14893 0
M  V30 1332 H 136.436 -7.14793 2.93752 0
M  V30 1333 H 134.781 -6.43097 2.63537 0
M  V30 1334 H 137.972 -4.43308 1.5032 0
M  V30 1335 H 138.145 -6.05099 2.3186 0
M  V30 1336 N 131.551 -0.354651 -1.53558 0
M  V30 1337 C 132.797 0.238797 -2.01389 0
M  V30 1338 C 133.13 1.49309 -1.2418 0
M  V30 1339 O 132.405 1.91638 -0.332457 0
M  V30 1340 C 132.688 0.541771 -3.56001 0
M  V30 1341 C 132.541 -0.725388 -4.43912 0
M  V30 1342 C 133.86 1.34685 -4.18984 0
M  V30 1343 H 130.979 0.0853177 -0.732045 0
M  V30 1344 H 133.621 -0.477384 -1.83905 0
M  V30 1345 H 131.771 1.15189 -3.71031 0
M  V30 1346 H 133.443 -1.36313 -4.407 0
M  V30 1347 H 131.686 -1.34801 -4.12324 0
M  V30 1348 H 132.357 -0.468505 -5.50008 0
M  V30 1349 H 134.833 0.830837 -4.07721 0
M  V30 1350 H 133.709 1.52759 -5.27215 0
M  V30 1351 H 133.97 2.35221 -3.74331 0
M  V30 1352 N 133.029 1.57378 -0.0835403 0
M  V30 1353 C 133.977 2.14602 0.89714 0
M  V30 1354 C 134.971 1.08589 1.30018 0
M  V30 1355 O 136.177 1.26952 1.27606 0
M  V30 1356 H 132.552 0.686346 0.3073 0
M  V30 1357 H 134.523 2.95845 0.38969 0
M  V30 1358 C 133.272 2.73188 2.15089 0
M  V30 1359 H 132.595 3.54442 1.84962 0
M  V30 1360 H 134.035 3.1681 2.81793 0
M  V30 1361 C 132.494 1.68517 2.91725 0
M  V30 1362 O 133.024 1.11718 3.85852 0
M  V30 1363 N 131.23 1.39277 2.55049 0
M  V30 1364 H 130.777 1.85655 1.78577 0
M  V30 1365 H 130.735 0.694791 3.06627 0
M  V30 1366 N 134.507 -0.190092 1.56449 0
M  V30 1367 C 135.455 -1.25501 1.95837 0
M  V30 1368 C 136.449 -1.4685 0.844485 0
M  V30 1369 O 137.655 -1.47651 1.02952 0
M  V30 1370 H 134.03 -0.421447 0.622805 0
M  V30 1371 H 136.001 -0.895821 2.84636 0
M  V30 1372 C 134.75 -2.59124 2.31841 0
M  V30 1373 H 134.073 -2.43514 3.17082 0
M  V30 1374 H 135.513 -3.32371 2.6326 0
M  V30 1375 C 133.972 -3.16488 1.15486 0
M  V30 1376 O 134.502 -3.99365 0.432535 0
M  V30 1377 N 132.708 -2.75305 0.930349 0
M  V30 1378 H 132.255 -2.08013 1.51948 0
M  V30 1379 H 132.213 -3.14024 0.153634 0
M  V30 1380 N 135.985 -1.50799 -0.457987 0
M  V30 1381 C 137.21 -1.66496 -1.23668 0
M  V30 1382 C 137.635 -0.353288 -1.84752 0
M  V30 1383 O 136.993 0.684346 -1.67888 0
M  V30 1384 C 137.041 -2.76763 -2.3116 0
M  V30 1385 O 136.145 -2.38928 -3.36136 0
M  V30 1386 H 135.486 -0.555828 -0.363252 0
M  V30 1387 H 138.016 -1.9725 -0.543474 0
M  V30 1388 H 138.026 -3.00232 -2.76269 0
M  V30 1389 H 136.701 -3.71954 -1.86073 0
M  V30 1390 H 135.278 -2.25953 -2.96647 0
M  V30 1391 N 137.463 0.71206 -1.40597 0
M  V30 1392 C 138.691 1.50111 -1.42388 0
M  V30 1393 C 139.106 1.88784 -0.0245395 0
M  V30 1394 O 138.463 1.55681 0.952351 0
M  V30 1395 C 138.514 2.7742 -2.31776 0
M  V30 1396 O 138.235 2.40382 -3.66262 0
M  V30 1397 C 139.736 3.7129 -2.42196 0
M  V30 1398 H 136.956 0.46314 -0.485533 0
M  V30 1399 H 139.5 0.878068 -1.8469 0
M  V30 1400 H 137.655 3.36001 -1.92827 0
M  V30 1401 H 138.069 3.22324 -4.13772 0
M  V30 1402 H 139.543 4.57448 -3.08943 0
M  V30 1403 H 140.02 4.14641 -1.44809 0
M  V30 1404 H 140.626 3.18619 -2.81712 0
M  V30 1405 N 138.941 1.26152 0.944643 0
M  V30 1406 C 139.874 1.01729 2.04271 0
M  V30 1407 C 140.852 -0.0568101 1.62501 0
M  V30 1408 O 142.036 0.0848987 1.88309 0
M  V30 1409 C 139.163 0.539792 3.34371 0
M  V30 1410 C 138.209 1.60593 3.9511 0
M  V30 1411 S 139.042 3.19392 4.29825 0
M  V30 1412 C 140.198 2.73402 5.63029 0
M  V30 1413 H 140.431 1.94703 2.24673 0
M  V30 1414 H 137.964 1.09793 1.08558 0
M  V30 1415 H 139.922 0.270956 4.09605 0
M  V30 1416 H 138.583 -0.369609 3.11918 0
M  V30 1417 H 137.776 1.22275 4.88943 0
M  V30 1418 H 137.378 1.82596 3.26397 0
M  V30 1419 H 139.67 2.1765 6.41588 0
M  V30 1420 H 140.613 3.65913 6.06229 0
M  V30 1421 H 141.021 2.13077 5.22741 0
M  V30 1422 N 140.419 -1.14872 1.07899 0
M  V30 1423 C 141.349 -2.2193 0.725887 0
M  V30 1424 C 142.33 -1.67622 -0.28927 0
M  V30 1425 O 143.515 -1.93533 -0.160787 0
M  V30 1426 C 140.645 -3.47061 0.128856 0
M  V30 1427 C 139.599 -4.14363 1.07178 0
M  V30 1428 C 138.925 -5.33636 0.337229 0
M  V30 1429 C 140.225 -4.63492 2.40775 0
M  V30 1430 H 141.919 -2.51724 1.62097 0
M  V30 1431 H 139.465 -1.20991 0.780838 0
M  V30 1432 H 141.418 -4.21199 -0.130147 0
M  V30 1433 H 140.142 -3.16617 -0.80134 0
M  V30 1434 H 138.801 -3.42173 1.3158 0
M  V30 1435 H 138.449 -4.99449 -0.596606 0
M  V30 1436 H 138.149 -5.79609 0.965788 0
M  V30 1437 H 139.673 -6.10539 0.0861567 0
M  V30 1438 H 141.087 -5.2913 2.20669 0
M  V30 1439 H 139.484 -5.20148 2.99276 0
M  V30 1440 H 140.554 -3.78834 3.02676 0
M  V30 1441 N 141.898 -0.863906 -1.31812 0
M  V30 1442 C 143.146 -0.470904 -1.96537 0
M  V30 1443 C 143.467 0.978771 -1.68657 0
M  V30 1444 O 142.737 1.6853 -0.998717 0
M  V30 1445 H 141.317 -0.171148 -0.72713 0
M  V30 1446 H 143.979 -1.10236 -1.60729 0
M  V30 1447 H 143.075 -0.623616 -3.05806 0
M  V30 1448 N 143.376 1.44774 -0.622745 0
M  V30 1449 C 144.339 2.29069 0.0774015 0
M  V30 1450 C 145.339 1.4059 0.780461 0
M  V30 1451 O 146.529 1.62551 0.626322 0
M  V30 1452 C 143.661 3.21974 1.12006 0
M  V30 1453 H 144.854 2.92459 -0.663901 0
M  V30 1454 H 142.407 1.51548 -0.382486 0
M  V30 1455 H 143.142 2.63417 1.89162 0
M  V30 1456 H 142.927 3.87168 0.619951 0
M  V30 1457 H 144.417 3.85318 1.60995 0
M  V30 1458 N 144.854 0.36279 1.53368 0
M  V30 1459 C 146.079 -0.231226 2.06107 0
M  V30 1460 C 146.504 -1.419 1.23474 0
M  V30 1461 O 145.862 -1.79524 0.253128 0
M  V30 1462 C 145.91 -0.605523 3.5548 0
M  V30 1463 O 145.014 -1.70312 3.7559 0
M  V30 1464 H 144.355 -0.034327 0.663112 0
M  V30 1465 H 146.885 0.522584 1.97814 0
M  V30 1466 H 146.895 -0.877314 3.98456 0
M  V30 1467 H 145.57 0.263004 4.15068 0
M  V30 1468 H 144.147 -1.4271 3.44512 0
M  V30 1469 N 146.332 -1.57332 0.0918853 0
M  V30 1470 C 147.58 -1.93853 -0.571446 0
M  V30 1471 C 147.901 -0.974212 -1.6892 0
M  V30 1472 O 147.171 -0.0257254 -1.95883 0
M  V30 1473 H 145.751 -0.715666 -0.214082 0
M  V30 1474 H 148.413 -1.94287 0.154464 0
M  V30 1475 H 147.509 -2.96191 -0.983729 0
M  V30 1476 N 147.81 0.181792 -1.56548 0
M  V30 1477 C 149.087 0.926765 -1.72251 0
M  V30 1478 C 149.467 2.00831 -0.650386 0
M  V30 1479 O 148.815 2.26008 0.336521 0
M  V30 1480 C 149.025 1.50106 -3.1507 0
M  V30 1481 C 150.373 1.97805 -3.75711 0
M  V30 1482 O 151.397 1.59922 -3.18282 0
M  V30 1483 O 150.256 2.67555 -4.76525 0
M  V30 1484 H 147.35 0.435506 -0.703039 0
M  V30 1485 H 149.896 0.170443 -1.68842 0
M  V30 1486 H 148.668 0.72212 -3.84579 0
M  V30 1487 H 148.291 2.32186 -3.22763 0
M  V30 1488 N 149.288 1.51039 0.449983 0
M  V30 1489 C 150.518 1.66627 1.22143 0
M  V30 1490 C 150.926 0.357776 1.85786 0
M  V30 1491 O 150.269 -0.672424 1.70951 0
M  V30 1492 C 150.331 2.71562 2.35573 0
M  V30 1493 C 149.995 4.14526 1.92399 0
M  V30 1494 C 150.992 4.99717 1.43453 0
M  V30 1495 C 148.677 4.60559 2.00475 0
M  V30 1496 C 150.671 6.28998 1.03155 0
M  V30 1497 C 148.358 5.8984 1.59788 0
M  V30 1498 C 149.356 6.73886 1.11208 0
M  V30 1499 O 149.044 8.0075 0.710935 0
M  V30 1500 H 148.776 0.562635 0.374724 0
M  V30 1501 H 151.33 1.98146 0.541036 0
M  V30 1502 H 149.56 2.3533 3.06849 0
M  V30 1503 H 151.249 2.76156 2.97478 0
M  V30 1504 H 152.015 4.65361 1.36618 0
M  V30 1505 H 147.894 3.95273 2.37235 0
M  V30 1506 H 151.438 6.9455 0.651663 0
M  V30 1507 H 147.335 6.23713 1.66289 0
M  V30 1508 H 148.103 8.142 0.837913 0
M  V30 1509 N 150.766 -0.704594 1.40972 0
M  V30 1510 C 151.729 -1.80035 1.41845 0
M  V30 1511 C 152.729 -1.57774 0.310474 0
M  V30 1512 O 153.919 -1.64613 0.56992 0
M  V30 1513 C 151.051 -3.18284 1.22098 0
M  V30 1514 H 152.244 -1.80658 2.3938 0
M  V30 1515 H 149.797 -0.911329 1.26982 0
M  V30 1516 H 150.532 -3.23306 0.253672 0
M  V30 1517 H 150.317 -3.35843 2.02366 0
M  V30 1518 H 151.807 -3.98289 1.25522 0
M  V30 1519 N 152.244 -1.26651 -0.937939 0
M  V30 1520 C 153.521 -1.0313 -1.66204 0
M  V30 1521 C 153.901 0.437256 -2.06522 0
M  V30 1522 O 153.249 1.41831 -1.79154 0
M  V30 1523 C 153.459 -1.98314 -2.87181 0
M  V30 1524 C 154.807 -2.27107 -3.58758 0
M  V30 1525 O 155.831 -1.96205 -2.97291 0
M  V30 1526 O 154.69 -2.79736 -4.69479 0
M  V30 1527 H 151.784 -0.392384 -0.727986 0
M  V30 1528 H 154.33 -1.37874 -0.989382 0
M  V30 1529 H 153.102 -2.97399 -2.54302 0
M  V30 1530 H 152.725 -1.64068 -3.6217 0
M  V30 1531 N 153.722 1.14298 -1.08507 0
M  V30 1532 C 154.969 1.85359 -0.815373 0
M  V30 1533 C 155.297 1.83001 0.658865 0
M  V30 1534 O 154.552 1.25655 1.50031 0
M  V30 1535 C 154.851 3.33547 -1.28379 0
M  V30 1536 C 154.517 3.56093 -2.76602 0
M  V30 1537 C 153.179 3.61955 -3.17084 0
M  V30 1538 C 155.531 3.64834 -3.72217 0
M  V30 1539 C 152.859 3.74082 -4.51973 0
M  V30 1540 C 155.211 3.78487 -5.06883 0
M  V30 1541 C 153.875 3.82598 -5.46969 0
M  V30 1542 H 153.145 0.678276 -0.298366 0
M  V30 1543 H 155.792 1.35002 -1.35819 0
M  V30 1544 H 154.097 3.86191 -0.660593 0
M  V30 1545 H 155.794 3.86959 -1.05186 0
M  V30 1546 H 152.384 3.52179 -2.4427 0
M  V30 1547 H 156.568 3.59595 -3.42061 0
M  V30 1548 H 151.824 3.75527 -4.82483 0
M  V30 1549 H 155.998 3.84193 -5.80834 0
M  V30 1550 H 153.625 3.91747 -6.51489 0
M  V30 1551 N 155.201 0.870884 1.31352 0
M  V30 1552 C 156.133 0.28455 2.27427 0
M  V30 1553 C 157.146 -0.552927 1.53123 0
M  V30 1554 O 158.335 -0.374771 1.74521 0
M  V30 1555 C 155.435 -0.615164 3.3327 0
M  V30 1556 C 154.608 0.190079 4.36987 0
M  V30 1557 C 153.667 -0.637917 5.22319 0
M  V30 1558 O 152.693 -0.065626 5.69162 0
M  V30 1559 N 153.895 -1.94973 5.46778 0
M  V30 1560 H 156.66 1.11017 2.7838 0
M  V30 1561 H 154.221 0.732458 1.44384 0
M  V30 1562 H 156.213 -1.1748 3.87273 0
M  V30 1563 H 154.783 -1.34146 2.82354 0
M  V30 1564 H 154.003 0.931165 3.83044 0
M  V30 1565 H 155.291 0.742579 5.03352 0
M  V30 1566 H 154.689 -2.4378 5.10478 0
M  V30 1567 H 153.246 -2.45713 6.03712 0
M  V30 1568 N 156.679 -1.44442 0.630414 0
M  V30 1569 C 157.909 -2.06115 0.141465 0
M  V30 1570 C 158.317 -1.47179 -1.1889 0
M  V30 1571 O 157.66 -0.588873 -1.74006 0
M  V30 1572 C 157.722 -3.59467 -0.0484355 0
M  V30 1573 C 157.386 -4.40864 1.20366 0
M  V30 1574 C 158.383 -4.74391 2.12719 0
M  V30 1575 C 156.068 -4.8125 1.43887 0
M  V30 1576 C 158.062 -5.47186 3.26904 0
M  V30 1577 C 155.749 -5.53795 2.5837 0
M  V30 1578 C 156.747 -5.86682 3.49705 0
M  V30 1579 O 156.435 -6.57749 4.62191 0
M  V30 1580 H 156.167 -0.671648 0.0765792 0
M  V30 1581 H 158.721 -1.86312 0.864695 0
M  V30 1582 H 156.951 -3.77758 -0.826803 0
M  V30 1583 H 158.64 -4.02909 -0.491849 0
M  V30 1584 H 159.406 -4.43728 1.95781 0
M  V30 1585 H 155.285 -4.55073 0.736853 0
M  V30 1586 H 158.829 -5.72773 3.98217 0
M  V30 1587 H 154.726 -5.83872 2.75251 0
M  V30 1588 H 155.494 -6.76217 4.61164 0
M  V30 1589 N 158.157 -0.370918 -1.53173 0
M  V30 1590 C 159.087 0.464847 -2.28826 0
M  V30 1591 C 160.068 1.07936 -1.31468 0
M  V30 1592 O 161.253 1.0956 -1.60344 0
M  V30 1593 C 158.383 1.60196 -3.08147 0
M  V30 1594 C 157.337 1.11443 -4.13237 0
M  V30 1595 C 156.663 2.3422 -4.80672 0
M  V30 1596 C 157.963 0.195384 -5.21934 0
M  V30 1597 H 159.657 -0.166329 -2.98938 0
M  V30 1598 H 157.203 -0.0814359 -1.4377 0
M  V30 1599 H 159.156 2.19332 -3.59822 0
M  V30 1600 H 157.88 2.26045 -2.35735 0
M  V30 1601 H 156.539 0.545727 -3.62515 0
M  V30 1602 H 156.187 2.98537 -4.04827 0
M  V30 1603 H 155.887 2.02269 -5.51689 0
M  V30 1604 H 157.411 2.94032 -5.35143 0
M  V30 1605 H 158.825 0.694375 -5.69079 0
M  V30 1606 H 157.222 -0.0335027 -6.00091 0
M  V30 1607 H 158.292 -0.760961 -4.78892 0
M  V30 1608 N 159.635 1.57281 -0.100228 0
M  V30 1609 C 160.582 2.14305 0.856858 0
M  V30 1610 C 161.552 1.06296 1.27634 0
M  V30 1611 O 162.737 1.34109 1.35718 0
M  V30 1612 C 159.877 2.73184 2.10866 0
M  V30 1613 C 158.99 3.95442 1.73925 0
M  V30 1614 C 158.125 4.42468 2.93931 0
M  V30 1615 C 157.164 5.57303 2.5314 0
M  V30 1616 N 156.301 5.99158 3.65997 0
M  V30 1617 H 161.141 2.95772 0.363726 0
M  V30 1618 H 158.678 1.46139 0.167858 0
M  V30 1619 H 160.636 3.05442 2.84185 0
M  V30 1620 H 159.266 1.94437 2.57671 0
M  V30 1621 H 158.318 3.69464 0.905554 0
M  V30 1622 H 159.63 4.78769 1.39935 0
M  V30 1623 H 158.784 4.76537 3.75496 0
M  V30 1624 H 157.523 3.58052 3.31134 0
M  V30 1625 H 156.528 5.22857 1.70003 0
M  V30 1626 H 157.753 6.43471 2.17075 0
M  V30 1627 H 155.699 5.17687 4.02909 0
M  V30 1628 H 155.616 6.77295 3.35869 0
M  V30 1629 H 156.884 6.3786 4.48057 0
M  V30 1630 N 161.113 -0.173488 1.56642 0
M  V30 1631 C 162.045 -1.23935 1.92802 0
M  V30 1632 C 163.058 -1.40589 0.820889 0
M  V30 1633 O 164.247 -1.40631 1.09933 0
M  V30 1634 C 161.347 -2.60837 2.16373 0
M  V30 1635 C 160.52 -2.6551 3.47596 0
M  V30 1636 C 159.579 -3.8376 3.60021 0
M  V30 1637 O 158.605 -3.69859 4.32658 0
M  V30 1638 N 159.807 -5.00127 2.94709 0
M  V30 1639 H 162.572 -0.932236 2.84832 0
M  V30 1640 H 160.133 -0.363268 1.57772 0
M  V30 1641 H 162.125 -3.38407 2.21952 0
M  V30 1642 H 160.695 -2.83948 1.30738 0
M  V30 1643 H 159.915 -1.74052 3.53694 0
M  V30 1644 H 161.203 -2.65641 4.33949 0
M  V30 1645 H 160.601 -5.14322 2.35563 0
M  V30 1646 H 159.158 -5.75567 3.05886 0
M  V30 1647 N 162.591 -1.51276 -0.441967 0
M  V30 1648 C 163.837 -1.63958 -1.19355 0
M  V30 1649 C 164.17 -0.352543 -1.90973 0
M  V30 1650 O 163.445 0.647627 -1.83401 0
M  V30 1651 C 163.728 -2.83979 -2.21422 0
M  V30 1652 C 163.581 -4.22646 -1.53918 0
M  V30 1653 C 164.9 -2.99521 -3.22451 0
M  V30 1654 H 162.019 -0.596709 -0.432559 0
M  V30 1655 H 164.661 -1.83748 -0.483398 0
M  V30 1656 H 162.811 -2.67237 -2.81987 0
M  V30 1657 H 164.483 -4.51045 -0.967256 0
M  V30 1658 H 162.726 -4.25558 -0.841615 0
M  V30 1659 H 163.397 -5.02609 -2.28229 0
M  V30 1660 H 165.873 -3.14944 -2.71937 0
M  V30 1661 H 164.749 -3.85072 -3.91166 0
M  V30 1662 H 165.01 -2.11391 -3.88287 0
M  V30 1663 N 164.069 0.697108 -1.41344 0
M  V30 1664 C 164.999 1.82353 -1.45841 0
M  V30 1665 C 165.98 1.67115 -0.317247 0
M  V30 1666 O 167.165 1.86871 -0.528474 0
M  V30 1667 C 164.295 3.20476 -1.33838 0
M  V30 1668 C 163.249 3.50415 -2.4575 0
M  V30 1669 C 162.575 4.87878 -2.18813 0
M  V30 1670 C 163.875 3.49546 -3.88091 0
M  V30 1671 H 165.569 1.78846 -2.40113 0
M  V30 1672 H 163.115 0.859028 -1.15571 0
M  V30 1673 H 165.068 3.98988 -1.35596 0
M  V30 1674 H 163.792 3.24604 -0.360498 0
M  V30 1675 H 162.451 2.74253 -2.43271 0
M  V30 1676 H 162.099 4.8863 -1.19371 0
M  V30 1677 H 161.799 5.08875 -2.93803 0
M  V30 1678 H 163.323 5.68702 -2.22284 0
M  V30 1679 H 164.737 4.18066 -3.92293 0
M  V30 1680 H 163.134 3.82075 -4.62751 0
M  V30 1681 H 164.204 2.48552 -4.16353 0
M  V30 1682 N 165.547 1.27147 0.931209 0
M  V30 1683 C 166.795 1.13055 1.6752 0
M  V30 1684 C 167.116 -0.324791 1.92276 0
M  V30 1685 O 166.386 -1.22775 1.52654 0
M  V30 1686 H 164.966 0.415391 0.620854 0
M  V30 1687 H 167.628 1.59623 1.11833 0
M  V30 1688 H 166.724 1.65694 2.64485 0
M  V30 1689 N 167.025 -1.13721 1.09112 0
M  V30 1690 C 167.957 -2.1871 0.685467 0
M  V30 1691 C 168.97 -1.60527 -0.271068 0
M  V30 1692 O 170.159 -1.78407 -0.0576148 0
M  V30 1693 C 167.259 -3.38898 -0.0111255 0
M  V30 1694 C 166.432 -4.26597 0.966131 0
M  V30 1695 C 165.491 -5.25324 0.303539 0
M  V30 1696 O 164.517 -5.61213 0.950177 0
M  V30 1697 N 165.719 -5.72779 -0.943651 0
M  V30 1698 H 168.484 -2.54126 1.58871 0
M  V30 1699 H 166.045 -1.29012 0.978143 0
M  V30 1700 H 168.037 -4.02014 -0.465517 0
M  V30 1701 H 166.607 -3.01747 -0.816565 0
M  V30 1702 H 165.827 -3.60306 1.59917 0
M  V30 1703 H 167.115 -4.82048 1.6281 0
M  V30 1704 H 166.513 -5.45762 -1.48862 0
M  V30 1705 H 165.07 -6.37847 -1.34142 0
M  V30 1706 N 168.503 -0.877838 -1.30888 0
M  V30 1707 C 169.436 -0.283995 -2.26426 0
M  V30 1708 C 170.414 0.591361 -1.51465 0
M  V30 1709 O 171.598 0.54304 -1.80509 0
M  V30 1710 C 168.725 0.597129 -3.33395 0
M  V30 1711 C 167.771 -0.207937 -4.25993 0
M  V30 1712 S 168.604 -1.59158 -5.11301 0
M  V30 1713 C 169.76 -0.716791 -6.21782 0
M  V30 1714 H 169.993 -1.09383 -2.76446 0
M  V30 1715 H 167.526 -0.676828 -1.38775 0
M  V30 1716 H 169.484 1.09978 -3.95493 0
M  V30 1717 H 168.145 1.38099 -2.82113 0
M  V30 1718 H 167.338 0.464163 -5.01858 0
M  V30 1719 H 166.94 -0.642963 -3.68432 0
M  V30 1720 H 169.232 0.0692833 -6.77465 0
M  V30 1721 H 170.175 -1.44682 -6.93161 0
M  V30 1722 H 170.583 -0.280855 -5.63801 0
M  V30 1723 N 169.982 1.44106 -0.638065 0
M  V30 1724 C 171.228 2.02277 -0.145546 0
M  V30 1725 C 171.561 1.50125 1.23191 0
M  V30 1726 O 170.836 0.688133 1.8192 0
M  V30 1727 C 171.119 3.59829 -0.139791 0
M  V30 1728 C 170.972 4.22247 -1.55008 0
M  V30 1729 C 172.291 4.36873 0.531966 0
M  V30 1730 H 169.41 0.734992 -0.0543632 0
M  V30 1731 H 172.052 1.71592 -0.815863 0
M  V30 1732 H 170.202 3.86102 0.431007 0
M  V30 1733 H 171.874 4.07057 -2.1703 0
M  V30 1734 H 170.117 3.79476 -2.10191 0
M  V30 1735 H 170.788 5.31284 -1.49804 0
M  V30 1736 H 173.264 4.16074 0.0464781 0
M  V30 1737 H 172.14 5.4657 0.505206 0
M  V30 1738 H 172.401 4.11995 1.60352 0
M  V30 1739 N 171.46 0.379036 1.52974 0
M  V30 1740 C 172.709 -0.207612 2.00629 0
M  V30 1741 C 173.022 -1.48758 1.27006 0
M  V30 1742 O 174.228 -2.15365 1.65318 0
M  V30 1743 C 172.684 -0.42053 3.57435 0
M  V30 1744 C 172.292 0.845587 4.39948 0
M  V30 1745 C 174.036 -0.964102 4.13407 0
M  V30 1746 C 171.943 0.601513 5.88333 0
M  V30 1747 H 170.873 -0.0813591 0.749598 0
M  V30 1748 H 173.524 0.499853 1.76561 0
M  V30 1749 H 171.906 -1.18959 3.7771 0
M  V30 1750 H 173.08 1.61848 4.31442 0
M  V30 1751 H 171.395 1.31336 3.95145 0
M  V30 1752 H 173.992 -1.16225 5.21916 0
M  V30 1753 H 174.335 -1.93019 3.68849 0
M  V30 1754 H 174.868 -0.25487 3.96983 0
M  V30 1755 H 171.607 1.53831 6.37194 0
M  V30 1756 H 171.127 -0.132628 5.99653 0
M  V30 1757 H 172.806 0.232134 6.46583 0
M  V30 1758 N 172.938 -1.57226 0.108567 0
M  V30 1759 C 174.215 -1.86333 -0.594939 0
M  V30 1760 C 174.595 -1.00788 -1.85486 0
M  V30 1761 O 173.943 -0.0839293 -2.28346 0
M  V30 1762 C 174.153 -3.37265 -0.897405 0
M  V30 1763 C 175.501 -4.05629 -1.25501 0
M  V30 1764 O 176.525 -3.42224 -0.987998 0
M  V30 1765 O 175.384 -5.17531 -1.75567 0
M  V30 1766 H 172.478 -0.771018 -0.2991 0
M  V30 1767 H 175.024 -1.69102 0.142283 0
M  V30 1768 H 173.796 -3.913 -0.00413806 0
M  V30 1769 H 173.419 -3.59889 -1.69014 0
M  V30 1770 N 174.416 0.165178 -1.56732 0
M  V30 1771 C 175.326 1.22423 -2.00125 0
M  V30 1772 C 176.342 1.48084 -0.913619 0
M  V30 1773 O 177.518 1.60112 -1.22172 0
M  V30 1774 C 174.583 2.54197 -2.35764 0
M  V30 1775 C 173.644 2.36343 -3.58386 0
M  V30 1776 C 172.877 3.61834 -3.92316 0
M  V30 1777 O 173.1 4.67267 -3.27135 0
M  V30 1778 O 172.034 3.55579 -4.85641 0
M  V30 1779 H 175.86 0.885886 -2.90492 0
M  V30 1780 H 173.445 0.372518 -1.44681 0
M  V30 1781 H 175.327 3.3192 -2.59629 0
M  V30 1782 H 174.002 2.87598 -1.48557 0
M  V30 1783 H 172.909 1.56632 -3.39731 0
M  V30 1784 H 174.242 2.07865 -4.46154 0
M  V30 1785 N 175.894 1.51508 0.433938 0
M  V30 1786 C 176.804 1.75917 1.5521 0
M  V30 1787 C 177.82 0.643545 1.61662 0
M  V30 1788 O 178.996 0.926183 1.7884 0
M  V30 1789 C 176.061 1.88213 2.91164 0
M  V30 1790 C 175.122 3.12074 2.94802 0
M  V30 1791 C 174.355 3.23774 4.24271 0
M  V30 1792 O 174.578 2.4133 5.16833 0
M  V30 1793 O 173.512 4.16774 4.34262 0
M  V30 1794 H 177.338 2.70777 1.37527 0
M  V30 1795 H 174.923 1.36051 0.617293 0
M  V30 1796 H 176.805 1.98267 3.71845 0
M  V30 1797 H 175.48 0.965413 3.08968 0
M  V30 1798 H 174.387 3.07497 2.13065 0
M  V30 1799 H 175.72 4.03446 2.81943 0
M  V30 1800 N 177.372 -0.689602 1.41712 0
M  V30 1801 C 178.302 -1.81577 1.46806 0
M  V30 1802 C 179.283 -1.66945 0.326105 0
M  V30 1803 O 180.468 -1.86588 0.538377 0
M  V30 1804 C 177.598 -3.19762 1.35535 0
M  V30 1805 C 176.552 -3.49107 2.47605 0
M  V30 1806 C 175.878 -4.86711 2.21397 0
M  V30 1807 C 177.178 -3.47483 3.89939 0
M  V30 1808 H 178.872 -1.7757 2.41058 0
M  V30 1809 H 176.418 -0.852887 1.16025 0
M  V30 1810 H 178.371 -3.98263 1.3771 0
M  V30 1811 H 177.095 -3.24409 0.377708 0
M  V30 1812 H 175.754 -2.72959 2.44722 0
M  V30 1813 H 175.402 -4.8799 1.21961 0
M  V30 1814 H 175.102 -5.0731 2.96497 0
M  V30 1815 H 176.626 -5.67515 2.25297 0
M  V30 1816 H 178.04 -4.1598 3.94505 0
M  V30 1817 H 176.437 -3.79615 4.64771 0
M  V30 1818 H 177.507 -2.46341 4.17665 0
M  V30 1819 N 178.85 -1.27639 -0.924453 0
M  V30 1820 C 179.78 -1.13166 -2.04244 0
M  V30 1821 C 180.761 -0.032256 -1.70069 0
M  V30 1822 O 181.946 -0.207328 -1.9309 0
M  V30 1823 C 179.076 -0.781496 -3.38393 0
M  V30 1824 C 178.03 -1.83449 -3.86692 0
M  V30 1825 C 177.356 -1.33822 -5.17683 0
M  V30 1826 C 178.656 -3.23917 -4.09726 0
M  V30 1827 H 180.35 -2.06689 -2.1661 0
M  V30 1828 H 177.896 -0.995136 -1.04082 0
M  V30 1829 H 179.849 -0.667057 -4.16087 0
M  V30 1830 H 178.573 0.189439 -3.2605 0
M  V30 1831 H 177.232 -1.93789 -3.11193 0
M  V30 1832 H 176.88 -0.35665 -5.01734 0
M  V30 1833 H 176.58 -2.04224 -5.50968 0
M  V30 1834 H 178.104 -1.23679 -5.97943 0
M  V30 1835 H 179.518 -3.16559 -4.77978 0
M  V30 1836 H 177.915 -3.92059 -4.54324 0
M  V30 1837 H 178.985 -3.68729 -3.14908 0
M  V30 1838 N 180.328 1.1314 -1.09713 0
M  V30 1839 C 181.576 1.84119 -0.833338 0
M  V30 1840 C 181.897 1.84097 0.642904 0
M  V30 1841 O 181.167 1.29881 1.46655 0
M  V30 1842 H 179.747 0.681766 -0.305293 0
M  V30 1843 H 182.409 1.37038 -1.38588 0
M  V30 1844 H 181.505 2.88543 -1.18951 0
M  V30 1845 N 181.806 0.884767 1.30421 0
M  V30 1846 C 183.083 0.423185 1.90967 0
M  V30 1847 C 183.463 -1.09605 1.80416 0
M  V30 1848 O 182.811 -1.93126 1.22125 0
M  V30 1849 C 183.021 0.921056 3.36627 0
M  V30 1850 C 184.369 0.955903 4.137 0
M  V30 1851 O 185.393 0.867706 3.4547 0
M  V30 1852 O 184.252 1.08614 5.35598 0
M  V30 1853 H 181.346 0.129369 0.816819 0
M  V30 1854 H 183.892 0.973653 1.3899 0
M  V30 1855 H 182.664 1.96489 3.3839 0
M  V30 1856 H 182.287 0.349741 3.96059 0
M  V30 1857 N 183.284 -1.43765 0.645699 0
M  V30 1858 C 184.532 -2.01499 0.155731 0
M  V30 1859 C 184.853 -1.51151 -1.232 0
M  V30 1860 O 184.123 -0.721044 -1.82148 0
M  V30 1861 H 182.703 -0.745003 0.0545817 0
M  V30 1862 H 185.365 -1.76075 0.835677 0
M  V30 1863 H 184.461 -3.1181 0.134577 0
M  V30 1864 N 184.763 -0.387143 -1.52771 0
M  V30 1865 C 185.713 0.465942 -2.23188 0
M  V30 1866 C 186.697 1.03138 -1.23496 0
M  V30 1867 O 187.889 0.957845 -1.48843 0
M  V30 1868 C 185.018 1.59384 -3.04059 0
M  V30 1869 C 184.104 1.04024 -4.11144 0
M  V30 1870 N 184.495 0.211416 -5.05358 0
M  V30 1871 C 182.793 1.31295 -4.26237 0
M  V30 1872 C 183.494 -0.0941698 -5.81624 0
M  V30 1873 N 182.47 0.509207 -5.4121 0
M  V30 1874 H 186.272 -0.173856 -2.93385 0
M  V30 1875 H 183.786 -0.19633 -1.61209 0
M  V30 1876 H 185.783 2.21738 -3.53041 0
M  V30 1877 H 184.443 2.23648 -2.35397 0
M  V30 1878 H 185.454 -0.151151 -5.17679 0
M  V30 1879 H 182.131 1.95679 -3.68803 0
M  V30 1880 H 183.521 -0.765572 -6.67524 0
M  V30 1881 N 186.241 1.57166 -0.116904 0
M  V30 1882 C 187.466 1.999 0.55271 0
M  V30 1883 C 187.891 0.996039 1.59564 0
M  V30 1884 O 187.249 -0.032556 1.81271 0
M  V30 1885 C 187.297 3.4152 1.15742 0
M  V30 1886 O 186.401 3.44106 2.27299 0
M  V30 1887 H 185.742 0.649447 0.138258 0
M  V30 1888 H 188.272 2.03573 -0.204759 0
M  V30 1889 H 188.282 3.79684 1.49346 0
M  V30 1890 H 186.957 4.14034 0.393493 0
M  V30 1891 H 185.534 3.17759 1.9515 0
M  V30 1892 N 187.719 -0.156864 1.56817 0
M  V30 1893 C 188.949 -0.885031 1.86684 0
M  V30 1894 C 189.357 -1.75696 0.701954 0
M  V30 1895 O 188.7 -1.80569 -0.337732 0
M  V30 1896 C 188.762 -1.80092 3.11138 0
M  V30 1897 C 188.426 -1.10714 4.43386 0
M  V30 1898 C 189.423 -0.465714 5.1781 0
M  V30 1899 C 187.108 -1.09959 4.90117 0
M  V30 1900 C 189.102 0.174002 6.37162 0
M  V30 1901 C 186.789 -0.456055 6.09396 0
M  V30 1902 C 187.787 0.179622 6.82764 0
M  V30 1903 O 187.475 0.812975 7.99779 0
M  V30 1904 H 187.207 -0.261813 0.623242 0
M  V30 1905 H 189.761 -0.157383 2.04796 0
M  V30 1906 H 187.991 -2.56926 2.89009 0
M  V30 1907 H 189.68 -2.40018 3.27332 0
M  V30 1908 H 190.446 -0.463427 4.82781 0
M  V30 1909 H 186.325 -1.58378 4.3294 0
M  V30 1910 H 189.869 0.670765 6.94368 0
M  V30 1911 H 185.766 -0.455975 6.43888 0
M  V30 1912 H 186.534 0.71366 8.15383 0
M  V30 1913 N 189.197 -1.51736 -0.425897 0
M  V30 1914 C 190.422 -1.69082 -1.20108 0
M  V30 1915 C 190.847 -0.392398 -1.83962 0
M  V30 1916 O 190.205 0.64858 -1.69302 0
M  V30 1917 C 190.253 -2.81604 -2.25237 0
M  V30 1918 O 189.357 -2.46004 -3.30992 0
M  V30 1919 H 188.698 -0.563408 -0.35138 0
M  V30 1920 H 191.228 -1.98358 -0.501512 0
M  V30 1921 H 191.238 -3.06025 -2.69838 0
M  V30 1922 H 189.913 -3.75817 -1.78142 0
M  V30 1923 H 188.49 -2.32195 -2.91787 0
M  V30 1924 N 190.675 0.682077 -1.42076 0
M  V30 1925 C 192.086 1.26246 -1.37546 0
M  V30 1926 C 192.437 1.96092 -0.0651481 0
M  V30 1927 O 191.562 1.99587 0.836297 0
M  V30 1928 C 192.157 2.29594 -2.49143 0
M  V30 1929 C 190.716 2.83175 -2.47969 0
M  V30 1930 C 189.863 1.57395 -2.28303 0
M  V30 1931 H 192.814 0.475937 -1.51395 0
M  V30 1932 H 192.835 3.11175 -2.18976 0
M  V30 1933 H 192.347 1.78729 -3.44496 0
M  V30 1934 H 190.448 3.3818 -1.56413 0
M  V30 1935 H 190.561 3.32687 -3.44755 0
M  V30 1936 H 188.925 1.83699 -1.76428 0
M  V30 1937 H 189.708 1.08507 -3.25701 0
M  V30 1938 N 192.153 1.28127 0.917671 0
M  V30 1939 C 193.569 1.05749 1.19538 0
M  V30 1940 C 193.769 -0.202633 2.00479 0
M  V30 1941 O 192.825 -0.905382 2.3571 0
M  V30 1942 C 194.138 2.30273 1.93378 0
M  V30 1943 C 195.686 2.35412 2.06277 0
M  V30 1944 C 196.161 3.59692 2.83524 0
M  V30 1945 N 197.652 3.60309 2.91087 0
M  V30 1946 C 198.387 4.53147 3.51348 0
M  V30 1947 N 197.883 5.563 4.12919 0
M  V30 1948 N 199.676 4.40751 3.48849 0
M  V30 1949 H 191.827 2.09024 0.377184 0
M  V30 1950 H 194.09 0.919798 0.22951 0
M  V30 1951 H 193.796 3.22055 1.41328 0
M  V30 1952 H 193.67 2.36378 2.93947 0
M  V30 1953 H 196.057 1.4413 2.57508 0
M  V30 1954 H 196.138 2.33304 1.04895 0
M  V30 1955 H 195.782 4.51316 2.32973 0
M  V30 1956 H 195.712 3.59054 3.85211 0
M  V30 1957 H 198.203 2.85714 2.47338 0
M  V30 1958 H 198.516 6.2329 4.56869 0
M  V30 1959 H 196.861 5.60131 4.11435 0
M  V30 1960 H 200.052 3.59367 2.99955 0
M  V30 1961 H 200.225 5.13291 3.9552 0
M  V30 1962 N 193.631 -1.12557 1.10312 0
M  V30 1963 C 194.594 -2.16434 0.75424 0
M  V30 1964 C 195.594 -1.59278 -0.220685 0
M  V30 1965 O 196.784 -1.742 0.00230591 0
M  V30 1966 C 193.916 -3.40699 0.116987 0
M  V30 1967 H 195.109 -2.48811 1.67431 0
M  V30 1968 H 192.662 -1.27542 0.903475 0
M  V30 1969 H 193.397 -3.13921 -0.813877 0
M  V30 1970 H 193.182 -3.83459 0.818613 0
M  V30 1971 H 194.672 -4.17451 -0.111387 0
M  V30 1972 N 195.109 -0.891671 -1.2995 0
M  V30 1973 C 196.358 -0.509521 -1.95158 0
M  V30 1974 C 196.671 0.947388 -1.71125 0
M  V30 1975 O 197.877 1.43669 -2.30372 0
M  V30 1976 C 196.333 -0.860315 -3.49466 0
M  V30 1977 C 195.941 -2.33545 -3.8231 0
M  V30 1978 C 197.685 -0.547687 -4.20952 0
M  V30 1979 C 195.592 -2.62752 -5.29826 0
M  V30 1980 H 194.522 -0.18682 -0.730489 0
M  V30 1981 H 197.173 -1.08756 -1.47798 0
M  V30 1982 H 195.555 -0.211285 -3.95436 0
M  V30 1983 H 196.729 -3.02936 -3.47227 0
M  V30 1984 H 195.044 -2.61629 -3.23944 0
M  V30 1985 H 197.641 -0.742854 -5.29515 0
M  V30 1986 H 197.984 0.51332 -4.13123 0
M  V30 1987 H 198.517 -1.1542 -3.80688 0
M  V30 1988 H 195.256 -3.6762 -5.42712 0
M  V30 1989 H 194.776 -1.97977 -5.66185 0
M  V30 1990 H 196.455 -2.48601 -5.97333 0
M  V30 1991 N 196.587 1.43421 -0.653314 0
M  V30 1992 C 197.537 2.2792 0.060558 0
M  V30 1993 C 198.521 1.39906 0.794677 0
M  V30 1994 O 199.713 1.63536 0.677128 0
M  V30 1995 C 196.842 3.27603 1.0262 0
M  V30 1996 C 195.928 4.23104 0.290551 0
M  V30 1997 N 196.319 5.01031 -0.692967 0
M  V30 1998 C 194.617 4.42816 0.531984 0
M  V30 1999 C 195.318 5.70626 -1.12963 0
M  V30 2000 N 194.294 5.41617 -0.463867 0
M  V30 2001 H 198.096 2.85585 -0.694143 0
M  V30 2002 H 195.61 1.55126 -0.480602 0
M  V30 2003 H 197.607 3.86918 1.55242 0
M  V30 2004 H 196.267 2.71499 1.78096 0
M  V30 2005 H 197.278 5.0669 -1.07169 0
M  V30 2006 H 193.955 3.97782 1.26791 0
M  V30 2007 H 195.345 6.4318 -1.94343 0
M  V30 2008 N 198.065 0.39524 1.52563 0
M  V30 2009 C 199.29 -0.187456 2.06551 0
M  V30 2010 C 199.715 -1.39249 1.26457 0
M  V30 2011 O 199.073 -1.78947 0.291151 0
M  V30 2012 C 199.121 -0.529985 3.56684 0
M  V30 2013 O 198.225 -1.62307 3.79118 0
M  V30 2014 H 197.566 -0.0202537 0.663691 0
M  V30 2015 H 200.096 0.564426 1.96661 0
M  V30 2016 H 200.106 -0.792598 4.00227 0
M  V30 2017 H 198.781 0.350987 4.14416 0
M  V30 2018 H 197.358 -1.3537 3.47461 0
M  V30 2019 N 199.544 -1.57102 0.125237 0
M  V30 2020 C 200.79 -1.96488 -0.525753 0
M  V30 2021 C 201.145 -1.00786 -1.6389 0
M  V30 2022 O 200.438 -0.038979 -1.9156 0
M  V30 2023 C 200.632 -3.40096 -1.09862 0
M  V30 2024 C 200.461 -4.4968 -0.0425004 0
M  V30 2025 C 199.231 -5.03781 0.391463 0
M  V30 2026 C 201.429 -5.08936 0.740829 0
M  V30 2027 N 199.411 -5.96948 1.4327 0
M  V30 2028 C 200.782 -5.98105 1.6331 0
M  V30 2029 C 202.837 -4.91576 0.791029 0
M  V30 2030 C 201.54 -6.71774 2.57122 0
M  V30 2031 C 203.566 -5.6593 1.71688 0
M  V30 2032 C 202.928 -6.5479 2.59672 0
M  V30 2033 H 199.027 -0.765072 -0.161831 0
M  V30 2034 H 201.611 -1.93511 0.214801 0
M  V30 2035 H 199.782 -3.43707 -1.80887 0
M  V30 2036 H 201.514 -3.66591 -1.71444 0
M  V30 2037 H 198.269 -4.736 -0.00213584 0
M  V30 2038 H 198.693 -6.48236 1.95243 0
M  V30 2039 H 203.335 -4.22615 0.124915 0
M  V30 2040 H 201.053 -7.39977 3.24744 0
M  V30 2041 H 204.639 -5.54501 1.76125 0
M  V30 2042 H 203.519 -7.11316 3.30149 0
M  V30 2043 N 201.022 0.148545 -1.56898 0
M  V30 2044 C 201.952 1.18524 -2.01182 0
M  V30 2045 C 202.933 1.4489 -0.891123 0
M  V30 2046 O 204.118 1.55836 -1.15882 0
M  V30 2047 C 201.248 2.51879 -2.39112 0
M  V30 2048 C 200.202 2.40038 -3.54353 0
M  V30 2049 C 199.528 3.78089 -3.78091 0
M  V30 2050 C 200.828 1.88577 -4.87069 0
M  V30 2051 H 202.522 0.817029 -2.88036 0
M  V30 2052 H 200.068 0.391575 -1.38574 0
M  V30 2053 H 202.021 3.24627 -2.68692 0
M  V30 2054 H 200.745 2.90532 -1.49193 0
M  V30 2055 H 199.404 1.69742 -3.24936 0
M  V30 2056 H 199.052 4.14175 -2.85426 0
M  V30 2057 H 198.752 3.71028 -4.55645 0
M  V30 2058 H 200.276 4.52387 -4.10095 0
M  V30 2059 H 201.69 2.51117 -5.15377 0
M  V30 2060 H 200.087 1.9241 -5.68417 0
M  V30 2061 H 201.157 0.84136 -4.77545 0
M  V30 2062 N 202.5 1.5196 0.417844 0
M  V30 2063 C 203.728 1.69426 1.18753 0
M  V30 2064 C 204.143 0.399955 1.84515 0
M  V30 2065 O 203.5 -0.623288 1.71527 0
M  V30 2066 C 203.551 2.82375 2.25714 0
M  V30 2067 O 203.272 4.06793 1.62638 0
M  V30 2068 C 204.773 3.11277 3.15628 0
M  V30 2069 H 201.993 0.568031 0.357186 0
M  V30 2070 H 204.537 1.98475 0.49273 0
M  V30 2071 H 202.692 2.5587 2.90877 0
M  V30 2072 H 203.106 4.69667 2.3348 0
M  V30 2073 H 204.58 3.93843 3.86771 0
M  V30 2074 H 205.057 2.24473 3.77503 0
M  V30 2075 H 205.663 3.39515 2.56144 0
M  V30 2076 N 203.978 -0.674533 1.42435 0
M  V30 2077 C 205.394 -0.98769 1.25367 0
M  V30 2078 C 205.594 -2.00879 0.158044 0
M  V30 2079 O 204.65 -2.48075 -0.470633 0
M  V30 2080 C 205.963 -1.49224 2.6106 0
M  V30 2081 C 207.511 -1.61 2.68417 0
M  V30 2082 C 207.986 -2.14852 4.04478 0
M  V30 2083 N 209.477 -2.22185 4.06434 0
M  V30 2084 C 210.212 -2.64928 5.08528 0
M  V30 2085 N 209.708 -3.07121 6.21006 0
M  V30 2086 N 211.501 -2.64679 4.95885 0
M  V30 2087 H 203.652 0.00152503 2.124 0
M  V30 2088 H 205.915 -0.0618434 0.945981 0
M  V30 2089 H 205.621 -0.816453 3.42092 0
M  V30 2090 H 205.495 -2.47094 2.84999 0
M  V30 2091 H 207.882 -2.27686 1.87732 0
M  V30 2092 H 207.963 -0.616195 2.48267 0
M  V30 2093 H 207.607 -1.48775 4.85622 0
M  V30 2094 H 207.537 -3.15024 4.2198 0
M  V30 2095 H 210.028 -1.92435 3.25234 0
M  V30 2096 H 210.341 -3.38423 6.94759 0
M  V30 2097 H 208.686 -3.04978 6.24511 0
M  V30 2098 H 211.877 -2.31078 4.07088 0
M  V30 2099 H 212.05 -2.9767 5.75584 0
M  V30 2100 N 205.456 -1.28612 -0.910864 0
M  V30 2101 C 206.419 -1.12803 -1.9952 0
M  V30 2102 C 207.419 -0.0668264 -1.60661 0
M  V30 2103 O 208.609 -0.312847 -1.71368 0
M  V30 2104 C 205.741 -0.72254 -3.33155 0
M  V30 2105 H 206.934 -2.09109 -2.14973 0
M  V30 2106 H 204.487 -1.11639 -1.09391 0
M  V30 2107 H 205.222 0.241152 -3.23402 0
M  V30 2108 H 205.007 -1.48916 -3.62721 0
M  V30 2109 H 206.497 -0.634666 -4.12749 0
M  V30 2110 N 206.934 1.1197 -1.10907 0
M  V30 2111 C 207.867 2.16998 -0.706192 0
M  V30 2112 C 208.845 1.59903 0.294897 0
M  V30 2113 O 210.029 1.87513 0.192636 0
M  V30 2114 C 207.156 3.38673 -0.0427664 0
M  V30 2115 C 206.202 4.14414 -1.00811 0
M  V30 2116 S 207.035 4.72079 -2.52789 0
M  V30 2117 C 208.191 5.97083 -1.87731 0
M  V30 2118 H 208.424 2.50837 -1.59587 0
M  V30 2119 H 205.957 1.23508 -0.926555 0
M  V30 2120 H 207.915 4.09142 0.333668 0
M  V30 2121 H 206.576 3.03105 0.823788 0
M  V30 2122 H 205.769 5.016 -0.491259 0
M  V30 2123 H 205.371 3.49678 -1.3267 0
M  V30 2124 H 207.663 6.66599 -1.21044 0
M  V30 2125 H 208.606 6.53403 -2.72892 0
M  V30 2126 H 209.014 5.4837 -1.33979 0
M  V30 2127 N 208.412 0.89855 1.29475 0
M  V30 2128 C 209.642 0.538479 1.99459 0
M  V30 2129 C 210.05 -0.880922 1.67441 0
M  V30 2130 O 209.393 -1.59283 0.915127 0
M  V30 2131 C 209.455 0.649564 3.53583 0
M  V30 2132 C 209.119 2.03573 4.09154 0
M  V30 2133 C 210.116 3.00675 4.24135 0
M  V30 2134 C 207.801 2.3448 4.44212 0
M  V30 2135 C 209.795 4.26809 4.73405 0
M  V30 2136 C 207.482 3.60857 4.93179 0
M  V30 2137 C 208.48 4.56836 5.0773 0
M  V30 2138 O 208.168 5.80969 5.55635 0
M  V30 2139 H 207.9 0.205372 0.644048 0
M  V30 2140 H 210.454 1.20958 1.66007 0
M  V30 2141 H 208.684 -0.0785592 3.8662 0
M  V30 2142 H 210.373 0.29881 4.04799 0
M  V30 2143 H 211.139 2.78112 3.97339 0
M  V30 2144 H 207.018 1.60534 4.32145 0
M  V30 2145 H 210.562 5.0173 4.84678 0
M  V30 2146 H 206.459 3.83251 5.19412 0
M  V30 2147 H 207.227 5.83542 5.73952 0
M  V30 2148 N 209.89 -1.43072 0.660911 0
M  V30 2149 C 211.115 -2.06584 0.183805 0
M  V30 2150 C 211.54 -1.49257 -1.14472 0
M  V30 2151 O 210.898 -0.605528 -1.70889 0
M  V30 2152 C 210.946 -3.60418 0.114434 0
M  V30 2153 O 210.05 -4.01981 -0.921137 0
M  V30 2154 H 209.391 -0.656669 0.0983994 0
M  V30 2155 H 211.921 -1.83447 0.906006 0
M  V30 2156 H 211.931 -4.07946 -0.0663394 0
M  V30 2157 H 210.606 -4.01519 1.08422 0
M  V30 2158 H 209.183 -3.66029 -0.71253 0
M  V30 2159 N 211.368 -0.403325 -1.52352 0
M  V30 2160 C 212.784 -0.0539281 -1.59509 0
M  V30 2161 C 212.984 1.43307 -1.41652 0
M  V30 2162 O 212.04 2.19924 -1.24056 0
M  V30 2163 C 213.353 -0.543654 -2.95745 0
M  V30 2164 C 214.901 -0.501125 -3.08962 0
M  V30 2165 C 215.376 -0.967267 -4.47669 0
M  V30 2166 N 216.867 -0.923849 -4.53893 0
M  V30 2167 C 217.602 -1.25578 -5.5948 0
M  V30 2168 N 217.098 -1.65889 -6.72646 0
M  V30 2169 N 218.891 -1.17613 -5.49658 0
M  V30 2170 H 211.042 -1.37123 -1.62206 0
M  V30 2171 H 213.305 -0.56294 -0.76276 0
M  V30 2172 H 213.011 -1.58275 -3.14073 0
M  V30 2173 H 212.885 0.0498042 -3.77167 0
M  V30 2174 H 215.272 0.528909 -2.90321 0
M  V30 2175 H 215.353 -1.13056 -2.2946 0
M  V30 2176 H 214.997 -1.9956 -4.67053 0
M  V30 2177 H 214.927 -0.314698 -5.25659 0
M  V30 2178 H 217.418 -0.627403 -3.72655 0
M  V30 2179 H 217.731 -1.89543 -7.49195 0
M  V30 2180 H 216.076 -1.69787 -6.73942 0
M  V30 2181 H 219.267 -0.860115 -4.6013 0
M  V30 2182 H 219.44 -1.43812 -6.3184 0
M  V30 2183 N 212.846 1.57033 -0.133567 0
M  V30 2184 C 214.262 1.58035 0.222944 0
M  V30 2185 C 214.462 1.14713 1.6566 0
M  V30 2186 O 213.518 0.841218 2.38075 0
M  V30 2187 C 214.831 3.00691 -0.0236116 0
M  V30 2188 C 216.379 3.12973 0.0411512 0
M  V30 2189 C 216.854 4.57654 -0.177899 0
M  V30 2190 N 218.345 4.63033 -0.124365 0
M  V30 2191 C 219.08 5.72771 -0.268553 0
M  V30 2192 N 218.576 6.91206 -0.46972 0
M  V30 2193 N 220.369 5.61718 -0.2071 0
M  V30 2194 H 212.52 1.8349 -1.06981 0
M  V30 2195 H 214.783 0.848677 -0.422436 0
M  V30 2196 H 214.489 3.36726 -1.0153 0
M  V30 2197 H 214.363 3.70614 0.701808 0
M  V30 2198 H 216.75 2.76787 1.02338 0
M  V30 2199 H 216.831 2.45564 -0.716383 0
M  V30 2200 H 216.475 4.94542 -1.15717 0
M  V30 2201 H 216.405 5.23173 0.599797 0
M  V30 2202 H 218.896 3.7789 0.027011 0
M  V30 2203 H 219.209 7.70693 -0.570212 0
M  V30 2204 H 217.554 6.93156 -0.505876 0
M  V30 2205 H 220.745 4.68072 -0.0507986 0
M  V30 2206 H 220.918 6.47195 -0.322909 0
M  V30 2207 N 214.325 -0.140222 1.56975 0
M  V30 2208 C 215.55 -0.870414 1.88251 0
M  V30 2209 C 215.975 -1.73637 0.723312 0
M  V30 2210 O 215.333 -1.78329 -0.32689 0
M  V30 2211 C 215.381 -1.69737 3.18154 0
M  V30 2212 O 214.485 -2.80229 3.02565 0
M  V30 2213 H 213.826 -0.242025 0.61832 0
M  V30 2214 H 216.356 -0.128999 2.04193 0
M  V30 2215 H 216.366 -2.09099 3.50345 0
M  V30 2216 H 215.041 -1.06152 4.02125 0
M  V30 2217 H 213.618 -2.44224 2.81796 0
M  V30 2218 N 215.803 -1.52179 -0.40978 0
M  V30 2219 C 216.75 -1.75475 -1.49924 0
M  V30 2220 C 217.72 -0.597175 -1.54994 0
M  V30 2221 O 218.905 -0.834655 -1.71575 0
M  V30 2222 C 216.045 -1.9107 -2.87378 0
M  V30 2223 C 215.158 -3.18717 -2.91622 0
M  V30 2224 C 214.293 -3.24747 -4.20372 0
M  V30 2225 C 213.332 -4.46598 -4.18588 0
M  V30 2226 N 212.469 -4.50025 -5.38908 0
M  V30 2227 H 217.309 -2.68458 -1.29361 0
M  V30 2228 H 214.846 -1.33024 -0.627934 0
M  V30 2229 H 216.804 -1.98096 -3.6717 0
M  V30 2230 H 215.434 -1.01469 -3.06437 0
M  V30 2231 H 214.486 -3.20866 -2.04326 0
M  V30 2232 H 215.798 -4.08544 -2.86169 0
M  V30 2233 H 214.952 -3.30841 -5.08556 0
M  V30 2234 H 213.691 -2.32857 -4.28519 0
M  V30 2235 H 212.696 -4.40652 -3.28794 0
M  V30 2236 H 213.921 -5.39783 -4.12081 0
M  V30 2237 H 211.867 -3.61017 -5.47725 0
M  V30 2238 H 211.784 -5.33697 -5.35447 0
M  V30 2239 H 213.052 -4.60347 -6.29048 0
M  V30 2240 N 217.281 0.66697 -1.42791 0
M  V30 2241 C 218.214 1.79177 -1.41318 0
M  V30 2242 C 219.192 1.60234 -0.276401 0
M  V30 2243 O 220.376 1.82602 -0.46785 0
M  V30 2244 C 217.503 3.16289 -1.21157 0
M  V30 2245 C 216.549 3.53964 -2.37932 0
M  V30 2246 S 217.382 3.55501 -4.00474 0
M  V30 2247 C 218.538 4.95292 -3.8267 0
M  V30 2248 H 218.771 1.80153 -2.365 0
M  V30 2249 H 216.304 0.838357 -1.29657 0
M  V30 2250 H 218.262 3.95428 -1.10212 0
M  V30 2251 H 216.923 3.1289 -0.275481 0
M  V30 2252 H 216.116 4.53646 -2.19594 0
M  V30 2253 H 215.718 2.82204 -2.45432 0
M  V30 2254 H 218.01 5.83584 -3.44145 0
M  V30 2255 H 218.953 5.18679 -4.82055 0
M  V30 2256 H 219.361 4.68179 -3.15386 0
M  V30 2257 N 218.759 1.29093 0.90403 0
M  V30 2258 C 219.707 1.13727 2.02901 0
M  V30 2259 C 220.701 0.0539853 1.69314 0
M  V30 2260 O 221.907 0.213469 1.7873 0
M  V30 2261 H 218.282 0.35117 0.664969 0
M  V30 2262 H 220.253 2.08982 2.13001 0
M  V30 2263 C 219.002 0.826066 3.37745 0
M  V30 2264 H 218.325 1.65164 3.64089 0
M  V30 2265 H 219.765 0.758559 4.17159 0
M  V30 2266 C 218.224 -0.470541 3.33598 0
M  V30 2267 O 218.754 -1.49792 3.72727 0
M  V30 2268 N 216.96 -0.474812 2.86695 0
M  V30 2269 H 216.507 0.361692 2.55048 0
M  V30 2270 H 216.465 -1.34236 2.84303 0
M  V30 2271 N 220.237 -1.11381 1.11499 0
M  V30 2272 C 221.648 -1.6465 0.880191 0
M  V30 2273 C 221.999 -1.87199 -0.587434 0
M  V30 2274 O 221.124 -1.60667 -1.44966 0
M  V30 2275 C 221.719 -2.99105 1.59128 0
M  V30 2276 C 220.278 -3.49279 1.40289 0
M  V30 2277 C 219.425 -2.24077 1.63354 0
M  V30 2278 H 222.376 -0.950123 1.27116 0
M  V30 2279 H 222.397 -3.66107 1.03664 0
M  V30 2280 H 221.909 -2.82661 2.65941 0
M  V30 2281 H 220.01 -3.70887 0.356888 0
M  V30 2282 H 220.123 -4.2803 2.15238 0
M  V30 2283 H 218.487 -2.31733 1.05698 0
M  V30 2284 H 219.27 -2.10175 2.71443 0
M  V30 2285 N 221.715 -0.905404 -1.28997 0
M  V30 2286 C 222.645 -0.404212 -2.29975 0
M  V30 2287 C 223.626 0.523784 -1.61835 0
M  V30 2288 O 224.811 0.433298 -1.89304 0
M  V30 2289 C 221.941 0.364042 -3.45387 0
M  V30 2290 C 220.895 -0.474048 -4.25367 0
M  V30 2291 C 220.221 0.422045 -5.33032 0
M  V30 2292 C 221.521 -1.72696 -4.92923 0
M  V30 2293 H 223.215 -1.24807 -2.72146 0
M  V30 2294 H 220.761 -0.601585 -1.30832 0
M  V30 2295 H 222.714 0.725447 -4.15109 0
M  V30 2296 H 221.438 1.24174 -3.02074 0
M  V30 2297 H 220.097 -0.81786 -3.57361 0
M  V30 2298 H 219.745 1.29804 -4.85963 0
M  V30 2299 H 219.445 -0.135057 -5.87445 0
M  V30 2300 H 220.969 0.779517 -6.05604 0
M  V30 2301 H 222.383 -1.43495 -5.55051 0
M  V30 2302 H 220.78 -2.22582 -5.57295 0
M  V30 2303 H 221.85 -2.45964 -4.17887 0
M  V30 2304 N 223.193 1.4272 -0.668489 0
M  V30 2305 C 224.439 2.02443 -0.197076 0
M  V30 2306 C 224.794 1.51882 1.18109 0
M  V30 2307 O 224.087 0.708618 1.78015 0
M  V30 2308 C 224.281 3.57021 -0.164499 0
M  V30 2309 C 224.11 4.22583 -1.53797 0
M  V30 2310 C 222.88 4.58019 -2.13416 0
M  V30 2311 C 225.078 4.50588 -2.47941 0
M  V30 2312 N 223.06 5.08729 -3.4361 0
M  V30 2313 C 224.431 5.02782 -3.62782 0
M  V30 2314 C 226.486 4.32571 -2.46551 0
M  V30 2315 C 225.189 5.38852 -4.76478 0
M  V30 2316 C 227.215 4.69713 -3.59338 0
M  V30 2317 C 226.577 5.22053 -4.72906 0
M  V30 2318 H 222.676 0.773214 -0.116894 0
M  V30 2319 H 225.26 1.73673 -0.880108 0
M  V30 2320 H 223.431 3.85323 0.487925 0
M  V30 2321 H 225.163 4.03439 0.319207 0
M  V30 2322 H 221.918 4.43566 -1.65969 0
M  V30 2323 H 222.342 5.38521 -4.10273 0
M  V30 2324 H 226.984 3.91365 -1.59978 0
M  V30 2325 H 224.702 5.78993 -5.63731 0
M  V30 2326 H 228.288 4.57454 -3.59482 0
M  V30 2327 H 227.168 5.50258 -5.58736 0
M  V30 2328 N 224.671 0.411399 1.52136 0
M  V30 2329 C 225.619 -0.427633 2.28635 0
M  V30 2330 C 226.613 -1.04383 1.33419 0
M  V30 2331 O 227.819 -0.981772 1.50868 0
M  V30 2332 H 224.194 -0.156689 0.735495 0
M  V30 2333 H 226.165 0.238761 2.97443 0
M  V30 2334 C 224.914 -1.53082 3.12188 0
M  V30 2335 H 224.237 -1.06601 3.85326 0
M  V30 2336 H 225.677 -2.09167 3.68816 0
M  V30 2337 C 224.136 -2.49946 2.25895 0
M  V30 2338 O 224.666 -3.53884 1.90076 0
M  V30 2339 N 222.872 -2.2021 1.8962 0
M  V30 2340 H 222.419 -1.35719 2.18948 0
M  V30 2341 H 222.377 -2.85266 1.32176 0
M  V30 2342 N 226.149 -1.5696 0.141893 0
M  V30 2343 C 227.377 -2.00322 -0.517579 0
M  V30 2344 C 227.792 -1.02193 -1.58752 0
M  V30 2345 O 227.149 -0.0181619 -1.82491 0
M  V30 2346 C 227.2 -3.43618 -1.12289 0
M  V30 2347 O 226.921 -4.37995 -0.0956929 0
M  V30 2348 C 228.422 -4.02231 -1.86347 0
M  V30 2349 H 225.642 -0.657243 -0.135177 0
M  V30 2350 H 228.186 -2.03146 0.234973 0
M  V30 2351 H 226.341 -3.41662 -1.82609 0
M  V30 2352 H 226.755 -5.21729 -0.538469 0
M  V30 2353 H 228.229 -5.04509 -2.23997 0
M  V30 2354 H 228.706 -3.42655 -2.74744 0
M  V30 2355 H 229.312 -4.07802 -1.20737 0
M  V30 2356 N 227.627 0.131896 -1.57047 0
M  V30 2357 C 228.56 1.19236 -1.94571 0
M  V30 2358 C 229.538 1.40782 -0.813576 0
M  V30 2359 O 230.722 1.55148 -1.07058 0
M  V30 2360 C 227.849 2.54858 -2.23081 0
M  V30 2361 C 226.895 2.49817 -3.45679 0
M  V30 2362 S 227.728 1.95036 -4.98719 0
M  V30 2363 C 228.884 3.32357 -5.30367 0
M  V30 2364 H 229.117 0.872297 -2.84215 0
M  V30 2365 H 226.65 0.338134 -1.50652 0
M  V30 2366 H 228.608 3.32898 -2.40185 0
M  V30 2367 H 227.269 2.84047 -1.34074 0
M  V30 2368 H 226.462 3.49688 -3.62952 0
M  V30 2369 H 226.064 1.79892 -3.27895 0
M  V30 2370 H 228.356 4.28525 -5.2476 0
M  V30 2371 H 229.299 3.19923 -6.31708 0
M  V30 2372 H 229.707 3.3019 -4.57859 0
M  V30 2373 N 229.106 1.52395 0.401703 0
M  V30 2374 C 230.352 1.67065 1.14966 0
M  V30 2375 C 230.685 0.403052 1.89971 0
M  V30 2376 O 229.96 -0.598774 1.85054 0
M  V30 2377 C 230.243 2.8975 2.13815 0
M  V30 2378 C 230.096 4.26578 1.42658 0
M  V30 2379 C 231.415 3.07965 3.14397 0
M  V30 2380 H 228.534 0.607968 0.416587 0
M  V30 2381 H 231.176 1.84965 0.434511 0
M  V30 2382 H 229.326 2.74619 2.74803 0
M  V30 2383 H 230.998 4.53451 0.847329 0
M  V30 2384 H 229.241 4.27639 0.72849 0
M  V30 2385 H 229.912 5.08483 2.14823 0
M  V30 2386 H 232.388 3.22043 2.63491 0
M  V30 2387 H 231.264 3.95308 3.80819 0
M  V30 2388 H 231.525 2.21611 3.82545 0
M  V30 2389 N 230.584 -0.659388 1.43143 0
M  V30 2390 C 231.833 -1.41518 1.43721 0
M  V30 2391 C 232.146 -1.95499 0.0628176 0
M  V30 2392 O 233.352 -2.71446 -0.0539683 0
M  V30 2393 C 231.808 -2.5608 2.52885 0
M  V30 2394 C 231.416 -2.08733 3.96402 0
M  V30 2395 C 233.16 -3.3349 2.62649 0
M  V30 2396 C 231.067 -3.20469 4.97045 0
M  V30 2397 H 229.997 -0.531705 0.534608 0
M  V30 2398 H 232.648 -0.712343 1.69109 0
M  V30 2399 H 231.03 -3.28805 2.20688 0
M  V30 2400 H 232.204 -1.43059 4.3803 0
M  V30 2401 H 230.519 -1.44219 3.90627 0
M  V30 2402 H 233.116 -4.16734 3.35017 0
M  V30 2403 H 233.459 -3.8111 1.67513 0
M  V30 2404 H 233.992 -2.67842 2.94118 0
M  V30 2405 H 230.731 -2.77824 5.93712 0
M  V30 2406 H 230.251 -3.84874 4.60034 0
M  V30 2407 H 231.93 -3.85698 5.19467 0
M  V30 2408 N 232.062 -1.29571 -0.897171 0
M  V30 2409 C 233.31 -1.17456 -1.64464 0
M  V30 2410 C 233.631 0.273698 -1.9307 0
M  V30 2411 O 232.901 1.18684 -1.55855 0
M  V30 2412 H 231.481 -0.431706 -0.609622 0
M  V30 2413 H 234.143 -1.62531 -1.07562 0
M  V30 2414 H 233.239 -1.72648 -2.59998 0
M  V30 2415 N 233.54 1.10788 -1.12088 0
M  V30 2416 C 234.788 1.8231 -0.872205 0
M  V30 2417 C 235.109 1.85419 0.603709 0
M  V30 2418 O 234.379 1.32963 1.43867 0
M  V30 2419 H 232.959 0.675137 -0.319686 0
M  V30 2420 H 235.621 1.34068 -1.41463 0
M  V30 2421 H 234.717 2.85955 -1.25045 0
M  V30 2422 N 235.018 0.912232 1.28515 0
M  V30 2423 C 236.248 0.559604 1.98877 0
M  V30 2424 C 236.656 -0.863113 1.68366 0
M  V30 2425 O 235.999 -1.58304 0.931969 0
M  V30 2426 C 236.061 0.68703 3.52874 0
M  V30 2427 C 235.725 2.07901 4.06972 0
M  V30 2428 C 236.722 3.05157 4.20922 0
M  V30 2429 C 234.407 2.39178 4.417 0
M  V30 2430 C 236.401 4.31806 4.68852 0
M  V30 2431 C 234.088 3.66068 4.89324 0
M  V30 2432 C 235.086 4.62195 5.02856 0
M  V30 2433 O 234.774 5.86829 5.49442 0
M  V30 2434 H 234.506 0.212191 0.641834 0
M  V30 2435 H 237.06 1.22712 1.64715 0
M  V30 2436 H 235.29 -0.0375486 3.86682 0
M  V30 2437 H 236.979 0.341727 4.04459 0
M  V30 2438 H 237.745 2.82311 3.94367 0
M  V30 2439 H 233.624 1.65109 4.30418 0
M  V30 2440 H 237.168 5.06842 4.79329 0
M  V30 2441 H 233.065 3.88739 5.15318 0
M  V30 2442 H 233.833 5.89597 5.6773 0
M  V30 2443 N 236.496 -1.42363 0.676048 0
M  V30 2444 C 237.459 -2.29199 0.00766941 0
M  V30 2445 C 238.459 -1.43389 -0.727745 0
M  V30 2446 O 239.649 -1.64764 -0.56556 0
M  V30 2447 C 236.781 -3.2591 -0.999785 0
M  V30 2448 H 237.974 -2.89794 0.771988 0
M  V30 2449 H 235.527 -1.50024 0.438468 0
M  V30 2450 H 236.262 -2.70256 -1.79255 0
M  V30 2451 H 236.047 -3.89202 -0.475829 0
M  V30 2452 H 237.537 -3.91028 -1.46583 0
M  V30 2453 N 237.974 -0.419461 -1.51915 0
M  V30 2454 C 239.251 0.211999 -1.94448 0
M  V30 2455 C 239.631 1.61703 -1.35703 0
M  V30 2456 O 238.979 2.22102 -0.536931 0
M  V30 2457 C 239.189 0.207872 -3.4838 0
M  V30 2458 C 240.537 0.422192 -4.22496 0
M  V30 2459 O 241.561 0.286778 -3.55044 0
M  V30 2460 O 240.42 0.690009 -5.42126 0
M  V30 2461 H 237.514 0.139586 -0.815135 0
M  V30 2462 H 240.06 -0.476151 -1.62883 0
M  V30 2463 H 238.832 -0.775102 -3.83546 0
M  V30 2464 H 238.455 0.939688 -3.86336 0
M  V30 2465 N 239.452 1.56882 -0.150215 0
M  V30 2466 C 240.7 1.9584 0.499105 0
M  V30 2467 C 241.021 1.03623 1.65188 0
M  V30 2468 O 240.291 0.0984084 1.95653 0
M  V30 2469 H 238.871 0.723119 0.187373 0
M  V30 2470 H 241.533 1.9358 -0.226466 0
M  V30 2471 H 240.629 2.99638 0.873122 0
M  V30 2472 N 240.93 -0.123565 1.57115 0
M  V30 2473 C 241.84 -1.17074 2.033 0
M  V30 2474 C 242.856 -1.4561 0.952559 0
M  V30 2475 O 244.032 -1.56817 1.26374 0
M  V30 2476 C 241.097 -2.47857 2.42421 0
M  V30 2477 C 240.158 -2.26758 3.64526 0
M  V30 2478 C 239.391 -3.51305 4.01771 0
M  V30 2479 O 239.614 -4.5843 3.39409 0
M  V30 2480 O 238.548 -3.42578 4.94898 0
M  V30 2481 H 242.374 -0.808555 2.92739 0
M  V30 2482 H 239.959 -0.334027 1.45618 0
M  V30 2483 H 241.841 -3.2492 2.68338 0
M  V30 2484 H 240.516 -2.83558 1.5613 0
M  V30 2485 H 239.423 -1.47569 3.43765 0
M  V30 2486 H 240.756 -1.95963 4.51508 0
M  V30 2487 N 242.408 -1.52605 -0.393616 0
M  V30 2488 C 243.633 -1.71592 -1.16495 0
M  V30 2489 C 244.058 -0.43133 -1.83088 0
M  V30 2490 O 243.416 0.612523 -1.7064 0
M  V30 2491 C 243.464 -2.86318 -2.19213 0
M  V30 2492 O 242.568 -2.52969 -3.257 0
M  V30 2493 H 241.909 -0.570734 -0.33935 0
M  V30 2494 H 244.439 -1.99377 -0.459324 0
M  V30 2495 H 244.449 -3.1168 -2.63286 0
M  V30 2496 H 243.124 -3.79511 -1.7013 0
M  V30 2497 H 241.701 -2.38332 -2.86797 0
M  V30 2498 N 243.887 0.651787 -1.4349 0
M  V30 2499 C 245.134 1.41167 -1.45183 0
M  V30 2500 C 245.462 1.94349 -0.0766601 0
M  V30 2501 O 244.717 1.72804 0.918555 0
M  V30 2502 C 245.016 2.60914 -2.44251 0
M  V30 2503 C 244.682 2.26142 -3.9009 0
M  V30 2504 C 243.344 2.16371 -4.2981 0
M  V30 2505 C 245.696 1.98334 -4.81989 0
M  V30 2506 C 243.024 1.7695 -5.5938 0
M  V30 2507 C 245.376 1.6041 -6.11924 0
M  V30 2508 C 244.04 1.49166 -6.5062 0
M  V30 2509 H 243.31 0.516566 -0.531263 0
M  V30 2510 H 245.957 0.741099 -1.76579 0
M  V30 2511 H 244.262 3.3311 -2.06265 0
M  V30 2512 H 245.959 3.19127 -2.42815 0
M  V30 2513 H 242.549 2.34658 -3.58655 0
M  V30 2514 H 246.733 2.04803 -4.52072 0
M  V30 2515 H 241.989 1.66831 -5.88198 0
M  V30 2516 H 246.163 1.37925 -6.82605 0
M  V30 2517 H 243.79 1.1839 -7.50925 0
M  V30 2518 N 245.365 1.30045 0.890287 0
M  V30 2519 C 246.295 1.18541 2.01172 0
M  V30 2520 C 247.276 0.0773356 1.69924 0
M  V30 2521 O 248.461 0.25845 1.92473 0
M  V30 2522 C 245.591 0.870941 3.36202 0
M  V30 2523 C 244.545 1.93637 3.81692 0
M  V30 2524 C 243.871 1.475 5.13953 0
M  V30 2525 C 245.171 3.34666 4.00994 0
M  V30 2526 H 246.865 2.12359 2.11054 0
M  V30 2527 H 244.411 1.02238 1.01407 0
M  V30 2528 H 246.364 0.777141 4.14172 0
M  V30 2529 H 245.088 -0.102926 3.26438 0
M  V30 2530 H 243.747 2.01972 3.05946 0
M  V30 2531 H 243.395 0.489551 5.00612 0
M  V30 2532 H 243.095 2.1876 5.4536 0
M  V30 2533 H 244.619 1.39489 5.94454 0
M  V30 2534 H 246.033 3.2912 4.69417 0
M  V30 2535 H 244.43 4.03966 4.43769 0
M  V30 2536 H 245.5 3.76949 3.05021 0
M  V30 2537 N 246.843 -1.10192 1.12674 0
M  V30 2538 C 248.091 -1.81845 0.881861 0
M  V30 2539 C 248.412 -1.85737 -0.593867 0
M  V30 2540 O 247.682 -1.33724 -1.4316 0
M  V30 2541 H 246.262 -0.673432 0.323261 0
M  V30 2542 H 248.924 -1.33316 1.42172 0
M  V30 2543 H 248.02 -2.85288 1.2656 0
M  V30 2544 N 248.321 -0.919034 -1.28029 0
M  V30 2545 C 249.551 -0.570143 -1.98577 0
M  V30 2546 C 249.959 0.854172 -1.68821 0
M  V30 2547 O 249.302 1.57807 -0.940351 0
M  V30 2548 C 249.364 -0.705734 -3.52505 0
M  V30 2549 C 249.028 -2.10057 -4.05863 0
M  V30 2550 C 250.025 -3.07385 -4.19298 0
M  V30 2551 C 247.71 -2.41517 -4.40426 0
M  V30 2552 C 249.704 -4.34287 -4.66555 0
M  V30 2553 C 247.391 -3.68657 -4.87376 0
M  V30 2554 C 248.389 -4.64856 -5.00398 0
M  V30 2555 O 248.077 -5.89735 -5.46322 0
M  V30 2556 H 247.809 -0.215592 -0.6407 0
M  V30 2557 H 250.363 -1.23583 -1.64062 0
M  V30 2558 H 248.593 0.0170414 -3.86696 0
M  V30 2559 H 250.282 -0.363172 -4.04272 0
M  V30 2560 H 251.048 -2.84398 -3.92865 0
M  V30 2561 H 246.927 -1.67389 -4.29537 0
M  V30 2562 H 250.471 -5.09377 -4.76635 0
M  V30 2563 H 246.368 -3.91466 -5.13249 0
M  V30 2564 H 247.136 -5.92599 -5.64596 0
M  V30 2565 N 249.799 1.42003 -0.683588 0
M  V30 2566 C 251.045 2.01712 -0.209825 0
M  V30 2567 C 251.378 1.53968 1.18353 0
M  V30 2568 O 250.653 0.745661 1.79639 0
M  V30 2569 C 250.936 3.59202 -0.254197 0
M  V30 2570 C 250.789 4.17102 -1.68363 0
M  V30 2571 C 252.108 4.38344 0.392709 0
M  V30 2572 H 249.227 0.732891 -0.0777189 0
M  V30 2573 H 251.869 1.68909 -0.87004 0
M  V30 2574 H 250.019 3.87278 0.307954 0
M  V30 2575 H 251.691 3.99946 -2.29871 0
M  V30 2576 H 249.934 3.72597 -2.22157 0
M  V30 2577 H 250.605 5.26249 -1.6663 0
M  V30 2578 H 253.081 4.16011 -0.0859162 0
M  V30 2579 H 251.957 5.47901 0.331063 0
M  V30 2580 H 252.218 4.16887 1.47164 0
M  V30 2581 N 251.277 0.427512 1.51691 0
M  V30 2582 C 252.554 -0.201684 1.94557 0
M  V30 2583 C 252.934 -1.60981 1.36559 0
M  V30 2584 O 252.282 -2.21814 0.548702 0
M  V30 2585 C 252.492 -0.189394 3.48486 0
M  V30 2586 C 253.84 -0.39978 4.22714 0
M  V30 2587 O 254.864 -0.267945 3.55191 0
M  V30 2588 O 253.723 -0.661249 5.42485 0
M  V30 2589 H 250.817 -0.135261 0.815864 0
M  V30 2590 H 253.363 0.484782 1.62628 0
M  V30 2591 H 252.135 0.795431 3.8313 0
M  V30 2592 H 251.758 -0.919187 3.86829 0
M  V30 2593 N 252.755 -1.56801 0.158532 0
M  V30 2594 C 253.688 -2.13148 -0.815065 0
M  V30 2595 C 254.666 -1.0581 -1.23462 0
M  V30 2596 O 255.85 -1.3371 -1.32868 0
M  V30 2597 C 252.977 -2.6606 -2.09594 0
M  V30 2598 C 252.023 -3.85651 -1.82141 0
M  V30 2599 S 252.856 -5.26041 -1.00207 0
M  V30 2600 C 254.012 -5.8235 -2.29389 0
M  V30 2601 H 254.245 -2.95396 -0.335937 0
M  V30 2602 H 251.778 -1.54299 -0.0559391 0
M  V30 2603 H 253.736 -2.97195 -2.8317 0
M  V30 2604 H 252.397 -1.83921 -2.54621 0
M  V30 2605 H 251.59 -4.20958 -2.77147 0
M  V30 2606 H 251.192 -3.55338 -1.16667 0
M  V30 2607 H 253.484 -5.94485 -3.24952 0
M  V30 2608 H 254.427 -6.79688 -1.9857 0
M  V30 2609 H 254.835 -5.10675 -2.40564 0
M  V30 2610 N 254.233 0.115231 -1.57178 0
M  V30 2611 C 255.163 1.1423 -2.03651 0
M  V30 2612 C 256.144 1.42967 -0.921655 0
M  V30 2613 O 257.329 1.53343 -1.19162 0
M  V30 2614 C 254.459 2.4675 -2.44401 0
M  V30 2615 C 253.413 2.32467 -3.59365 0
M  V30 2616 C 252.739 3.69984 -3.86026 0
M  V30 2617 C 254.039 1.78203 -4.90959 0
M  V30 2618 H 255.733 0.755749 -2.89705 0
M  V30 2619 H 253.279 0.362093 -1.39373 0
M  V30 2620 H 255.232 3.18854 -2.75517 0
M  V30 2621 H 253.956 2.87302 -1.55322 0
M  V30 2622 H 252.615 1.62811 -3.28463 0
M  V30 2623 H 252.263 4.08028 -2.94147 0
M  V30 2624 H 251.963 3.61279 -4.63412 0
M  V30 2625 H 253.487 4.43587 -4.19599 0
M  V30 2626 H 254.901 2.40128 -5.20587 0
M  V30 2627 H 253.298 1.8031 -5.72371 0
M  V30 2628 H 254.368 0.739876 -4.79222 0
M  V30 2629 N 255.711 1.52812 0.385517 0
M  V30 2630 C 256.959 1.67694 1.12797 0
M  V30 2631 C 257.28 0.421115 1.90399 0
M  V30 2632 O 256.55 -0.564551 1.87589 0
M  V30 2633 H 255.13 0.618155 0.419396 0
M  V30 2634 H 257.792 1.89938 0.436972 0
M  V30 2635 H 256.888 2.52896 1.82894 0
M  V30 2636 N 257.189 -0.644168 1.43834 0
M  V30 2637 C 258.435 -1.40603 1.46146 0
M  V30 2638 C 258.768 -1.93997 0.0887717 0
M  V30 2639 O 258.043 -1.72854 -0.891724 0
M  V30 2640 C 258.326 -2.58086 2.51124 0
M  V30 2641 C 258.179 -2.10126 3.97702 0
M  V30 2642 C 259.498 -3.60291 2.52742 0
M  V30 2643 H 256.617 -0.509905 0.532134 0
M  V30 2644 H 259.259 -0.729502 1.75437 0
M  V30 2645 H 257.409 -3.15801 2.26278 0
M  V30 2646 H 259.081 -1.57342 4.33637 0
M  V30 2647 H 257.324 -1.41419 4.10101 0
M  V30 2648 H 257.995 -2.94649 4.66783 0
M  V30 2649 H 260.471 -3.12352 2.7491 0
M  V30 2650 H 259.347 -4.40032 3.28121 0
M  V30 2651 H 259.608 -4.1349 1.56455 0
M  V30 2652 N 258.668 -1.30515 -0.883378 0
M  V30 2653 C 259.631 -1.1701 -1.97082 0
M  V30 2654 C 260.631 -0.10089 -1.60483 0
M  V30 2655 O 261.821 -0.349127 -1.70666 0
M  V30 2656 C 258.953 -0.793045 -3.31547 0
M  V30 2657 H 260.146 -2.13622 -2.10489 0
M  V30 2658 H 257.699 -1.13935 -1.06998 0
M  V30 2659 H 258.434 0.172499 -3.23841 0
M  V30 2660 H 258.219 -1.56576 -3.5948 0
M  V30 2661 H 259.709 -0.722073 -4.1131 0
M  V30 2662 N 260.146 1.09593 -1.13257 0
M  V30 2663 C 261.376 1.85231 -0.915049 0
M  V30 2664 C 261.784 1.81345 0.539498 0
M  V30 2665 O 261.127 1.20664 1.38513 0
M  V30 2666 C 261.189 3.34275 -1.3229 0
M  V30 2667 C 260.853 3.6191 -2.79052 0
M  V30 2668 C 261.85 3.57777 -3.77216 0
M  V30 2669 C 259.535 3.90309 -3.16171 0
M  V30 2670 C 261.529 3.81652 -5.1051 0
M  V30 2671 C 259.216 4.13839 -4.49644 0
M  V30 2672 C 260.214 4.09502 -5.46623 0
M  V30 2673 O 259.902 4.32426 -6.77689 0
M  V30 2674 H 259.634 0.591997 -0.326367 0
M  V30 2675 H 262.188 1.394 -1.50854 0
M  V30 2676 H 260.418 3.80805 -0.672667 0
M  V30 2677 H 262.107 3.9132 -1.07812 0
M  V30 2678 H 262.873 3.35865 -3.49885 0
M  V30 2679 H 258.752 3.92811 -2.41289 0
M  V30 2680 H 262.296 3.78182 -5.86195 0
M  V30 2681 H 258.193 4.35232 -4.767 0
M  V30 2682 H 258.961 4.49896 -6.83766 0
M  V30 2683 N 261.624 0.925811 1.2754 0
M  V30 2684 C 262.534 0.428993 2.30644 0
M  V30 2685 C 263.55 -0.489387 1.66976 0
M  V30 2686 O 264.726 -0.372653 1.97922 0
M  V30 2687 C 261.791 -0.311967 3.45294 0
M  V30 2688 C 260.852 0.641098 4.24486 0
M  V30 2689 C 260.085 -0.0645955 5.33661 0
M  V30 2690 O 260.308 -1.28429 5.55754 0
M  V30 2691 O 259.242 0.606265 5.98839 0
M  V30 2692 H 263.068 1.28504 2.75173 0
M  V30 2693 H 260.653 0.691086 1.32455 0
M  V30 2694 H 262.535 -0.729972 4.15029 0
M  V30 2695 H 261.21 -1.14365 3.02824 0
M  V30 2696 H 260.117 1.10874 3.57292 0
M  V30 2697 H 261.45 1.43995 4.70666 0
M  V30 2698 N 263.102 -1.41638 0.69111 0
M  V30 2699 C 264.065 -2.29178 0.0319786 0
M  V30 2700 C 265.065 -1.44153 -0.712496 0
M  V30 2701 O 266.255 -1.65354 -0.548053 0
M  V30 2702 C 263.387 -3.26952 -0.965161 0
M  V30 2703 H 264.58 -2.88959 0.802681 0
M  V30 2704 H 262.133 -1.4955 0.454356 0
M  V30 2705 H 262.868 -2.72142 -1.76378 0
M  V30 2706 H 262.653 -3.89685 -0.434522 0
M  V30 2707 H 264.143 -3.92561 -1.42428 0
M  V30 2708 N 264.58 -0.43555 -1.51462 0
M  V30 2709 C 265.991 0.0279871 -1.86679 0
M  V30 2710 C 266.342 1.42104 -1.35281 0
M  V30 2711 O 265.467 2.04667 -0.702878 0
M  V30 2712 C 266.062 0.0575626 -3.38751 0
M  V30 2713 C 264.621 0.465507 -3.7351 0
M  V30 2714 C 263.768 -0.342996 -2.75171 0
M  V30 2715 H 266.719 -0.651473 -1.44712 0
M  V30 2716 H 266.74 0.867421 -3.70481 0
M  V30 2717 H 266.252 -0.956448 -3.7613 0
M  V30 2718 H 264.353 1.48519 -3.41721 0
M  V30 2719 H 264.466 0.191546 -4.78717 0
M  V30 2720 H 262.83 0.198442 -2.53926 0
M  V30 2721 H 263.613 -1.35585 -3.15391 0
M  V30 2722 N 266.058 1.56714 -0.166846 0
M  V30 2723 C 267.283 2.01557 0.488833 0
M  V30 2724 C 267.708 1.0463 1.56314 0
M  V30 2725 O 267.066 0.0251304 1.81283 0
M  V30 2726 C 267.114 3.4503 1.04818 0
M  V30 2727 O 266.218 3.51163 2.16236 0
M  V30 2728 H 265.559 0.653516 0.117526 0
M  V30 2729 H 268.089 2.02818 -0.269421 0
M  V30 2730 H 268.099 3.84243 1.37191 0
M  V30 2731 H 266.774 4.15077 0.261572 0
M  V30 2732 H 265.351 3.23807 1.84942 0
M  V30 2733 N 267.536 -0.106894 1.57237 0
M  V30 2734 C 268.466 -1.13148 2.04254 0
M  V30 2735 C 269.447 -1.42476 0.929224 0
M  V30 2736 O 270.632 -1.52709 1.19973 0
M  V30 2737 C 267.762 -2.4545 2.45706 0
M  V30 2738 C 266.716 -2.30558 3.60592 0
M  V30 2739 C 266.042 -3.67931 3.87983 0
M  V30 2740 C 267.342 -1.75597 4.91897 0
M  V30 2741 H 269.036 -0.740374 2.90101 0
M  V30 2742 H 266.582 -0.354696 1.39563 0
M  V30 2743 H 268.535 -3.17389 2.77205 0
M  V30 2744 H 267.259 -2.86475 1.56843 0
M  V30 2745 H 265.918 -1.61067 3.29322 0
M  V30 2746 H 265.566 -4.06462 2.96306 0
M  V30 2747 H 265.266 -3.58817 4.65322 0
M  V30 2748 H 266.79 -4.41356 4.21945 0
M  V30 2749 H 268.204 -2.37364 5.21854 0
M  V30 2750 H 266.601 -1.77272 5.73319 0
M  V30 2751 H 267.671 -0.714451 4.79608 0
M  V30 2752 N 269.014 -1.53014 -0.377408 0
M  V30 2753 C 269.977 -1.77957 -1.44444 0
M  V30 2754 C 270.977 -0.649763 -1.47087 0
M  V30 2755 O 272.167 -0.917897 -1.48055 0
M  V30 2756 C 269.299 -1.89089 -2.83651 0
M  V30 2757 H 270.492 -2.73243 -1.23606 0
M  V30 2758 H 268.045 -1.43912 -0.609844 0
M  V30 2759 H 268.78 -0.958293 -3.09818 0
M  V30 2760 H 268.565 -2.71254 -2.83132 0
M  V30 2761 H 270.055 -2.1002 -3.60945 0
M  V30 2762 N 270.492 0.636531 -1.44174 0
M  V30 2763 C 271.72 1.42353 -1.50144 0
M  V30 2764 C 272.135 1.88389 -0.124575 0
M  V30 2765 O 271.492 1.6051 0.868489 0
M  V30 2766 C 271.543 2.64744 -2.46156 0
M  V30 2767 O 271.264 2.20629 -3.7849 0
M  V30 2768 C 272.765 3.57929 -2.61537 0
M  V30 2769 H 269.985 0.436752 -0.5094 0
M  V30 2770 H 272.529 0.778933 -1.89084 0
M  V30 2771 H 270.684 3.25307 -2.10366 0
M  V30 2772 H 271.098 2.99938 -4.30276 0
M  V30 2773 H 272.572 4.40428 -3.32757 0
M  V30 2774 H 273.049 4.06382 -1.66585 0
M  V30 2775 H 273.655 3.03238 -2.98206 0
M  V30 2776 N 271.97 1.30982 0.876444 0
M  V30 2777 C 273.218 1.20058 1.62575 0
M  V30 2778 C 273.539 -0.242947 1.93481 0
M  V30 2779 O 272.809 -1.1619 1.57724 0
M  V30 2780 H 271.389 0.44135 0.602677 0
M  V30 2781 H 274.051 1.64222 1.04962 0
M  V30 2782 H 273.147 1.76762 2.57219 0
M  V30 2783 N 273.449 -1.08991 1.13837 0
M  V30 2784 C 274.679 -1.84743 0.924859 0
M  V30 2785 C 275.087 -1.81629 -0.529874 0
M  V30 2786 O 274.43 -1.21397 -1.37872 0
M  V30 2787 C 274.492 -3.33568 1.34061 0
M  V30 2788 C 274.156 -3.60425 2.80968 0
M  V30 2789 C 275.153 -3.55771 3.79108 0
M  V30 2790 C 272.838 -3.88627 3.18236 0
M  V30 2791 C 274.832 -3.78939 5.12527 0
M  V30 2792 C 272.519 -4.11449 4.51833 0
M  V30 2793 C 273.517 -4.06598 5.48787 0
M  V30 2794 O 273.205 -4.28826 6.79973 0
M  V30 2795 H 272.937 -0.590258 0.329502 0
M  V30 2796 H 275.491 -1.38598 1.51591 0
M  V30 2797 H 273.721 -3.80442 0.692853 0
M  V30 2798 H 275.41 -3.90743 1.09886 0
M  V30 2799 H 276.176 -3.34005 3.51661 0
M  V30 2800 H 272.055 -3.91526 2.43369 0
M  V30 2801 H 275.599 -3.75068 5.88192 0
M  V30 2802 H 271.496 -4.32698 4.79002 0
M  V30 2803 H 272.264 -4.46264 6.86142 0
M  V30 2804 N 274.927 -0.932562 -1.27047 0
M  V30 2805 C 276.175 -0.574422 -1.93765 0
M  V30 2806 C 276.496 0.887993 -1.73608 0
M  V30 2807 O 275.766 1.62999 -1.08665 0
M  V30 2808 H 274.346 -0.209451 -0.717035 0
M  V30 2809 H 277.008 -1.18601 -1.5466 0
M  V30 2810 H 276.104 -0.784841 -3.02071 0
M  V30 2811 N 276.405 1.4127 -0.698611 0
M  V30 2812 C 277.368 2.29158 -0.044132 0
M  V30 2813 C 278.368 1.44529 0.704841 0
M  V30 2814 O 279.558 1.65643 0.539276 0
M  V30 2815 C 276.69 3.27459 0.947809 0
M  V30 2816 H 277.883 2.88529 -0.817994 0
M  V30 2817 H 275.436 1.49307 -0.46228 0
M  V30 2818 H 276.171 2.73073 1.74933 0
M  V30 2819 H 275.956 3.8991 0.41385 0
M  V30 2820 H 277.446 3.93311 1.40344 0
M  V30 2821 N 277.883 0.443576 1.51229 0
M  V30 2822 C 279.113 -0.119117 2.06256 0
M  V30 2823 C 279.521 -1.36471 1.31043 0
M  V30 2824 O 278.864 -1.80034 0.365151 0
M  V30 2825 C 278.926 -0.500546 3.55998 0
M  V30 2826 C 278.59 0.639125 4.52509 0
M  V30 2827 C 279.587 1.51311 4.97394 0
M  V30 2828 C 277.272 0.821632 4.95535 0
M  V30 2829 C 279.266 2.55425 5.83984 0
M  V30 2830 C 276.953 1.86603 5.81913 0
M  V30 2831 C 277.951 2.73072 6.26036 0
M  V30 2832 O 277.639 3.75718 7.10698 0
M  V30 2833 H 277.371 -0.00857665 0.675946 0
M  V30 2834 H 279.925 0.623288 1.95715 0
M  V30 2835 H 278.155 -1.29575 3.64345 0
M  V30 2836 H 279.844 -0.995116 3.93513 0
M  V30 2837 H 280.61 1.38367 4.64844 0
M  V30 2838 H 276.489 0.158149 4.60729 0
M  V30 2839 H 280.033 3.22949 6.18344 0
M  V30 2840 H 275.93 1.99564 6.13876 0
M  V30 2841 H 276.698 3.72374 7.2889 0
M  V30 2842 N 279.361 -1.56624 0.175154 0
M  V30 2843 C 280.291 -2.21155 -0.749195 0
M  V30 2844 C 281.272 -1.16836 -1.23626 0
M  V30 2845 O 282.457 -1.45277 -1.28873 0
M  V30 2846 C 279.587 -2.8553 -1.97711 0
M  V30 2847 C 278.541 -3.95921 -1.62575 0
M  V30 2848 C 277.867 -4.47365 -2.92864 0
M  V30 2849 C 279.167 -5.15323 -0.850838 0
M  V30 2850 H 280.861 -2.98653 -0.211295 0
M  V30 2851 H 278.407 -1.43651 -0.100188 0
M  V30 2852 H 280.36 -3.2935 -2.62881 0
M  V30 2853 H 279.084 -2.05406 -2.53921 0
M  V30 2854 H 277.743 -3.52762 -0.997719 0
M  V30 2855 H 277.391 -3.64027 -3.47122 0
M  V30 2856 H 277.091 -5.21839 -2.70106 0
M  V30 2857 H 278.615 -4.93873 -3.59056 0
M  V30 2858 H 280.029 -5.55812 -1.40521 0
M  V30 2859 H 278.426 -5.95739 -0.722154 0
M  V30 2860 H 279.496 -4.84661 0.152082 0
M  V30 2861 N 280.839 0.0985539 -1.57292 0
M  V30 2862 C 281.802 1.10402 -2.00858 0
M  V30 2863 C 282.802 1.33146 -0.901593 0
M  V30 2864 O 283.992 1.29318 -1.16716 0
M  V30 2865 C 281.124 2.45394 -2.36632 0
M  V30 2866 H 282.317 0.729099 -2.90902 0
M  V30 2867 H 279.87 0.343495 -1.52479 0
M  V30 2868 H 280.605 2.87769 -1.49531 0
M  V30 2869 H 280.39 2.30235 -3.17387 0
M  V30 2870 H 281.88 3.17718 -2.71007 0
M  V30 2871 N 282.317 1.53212 0.369288 0
M  V30 2872 C 283.249 1.75668 1.47219 0
M  V30 2873 C 284.262 0.637387 1.49804 0
M  V30 2874 O 285.451 0.913561 1.5335 0
M  V30 2875 C 282.551 1.81818 2.85999 0
M  V30 2876 C 281.724 3.11409 3.07153 0
M  V30 2877 C 280.783 3.08849 4.26026 0
M  V30 2878 O 279.809 3.82659 4.2138 0
M  V30 2879 N 281.011 2.29409 5.33246 0
M  V30 2880 H 283.776 2.70832 1.28337 0
M  V30 2881 H 281.337 1.51944 0.55898 0
M  V30 2882 H 283.329 1.77588 3.63655 0
M  V30 2883 H 281.899 0.939544 2.98146 0
M  V30 2884 H 281.119 3.28971 2.1719 0
M  V30 2885 H 282.407 3.97059 3.18154 0
M  V30 2886 H 281.805 1.68946 5.39883 0
M  V30 2887 H 280.362 2.31001 6.09493 0
M  V30 2888 N 283.795 -0.628877 1.44509 0
M  V30 2889 C 285.206 -1.21054 1.42137 0
M  V30 2890 C 285.557 -1.95715 0.137881 0
M  V30 2891 O 284.682 -2.02554 -0.761645 0
M  V30 2892 C 285.277 -2.20189 2.57493 0
M  V30 2893 C 283.836 -2.73777 2.58308 0
M  V30 2894 C 282.983 -1.48813 2.33987 0
M  V30 2895 H 285.934 -0.41942 1.53057 0
M  V30 2896 H 285.955 -3.02833 2.30375 0
M  V30 2897 H 285.467 -1.6582 3.50892 0
M  V30 2898 H 283.568 -3.32142 1.68856 0
M  V30 2899 H 283.681 -3.19662 3.56865 0
M  V30 2900 H 282.045 -1.77024 1.83124 0
M  V30 2901 H 282.828 -0.963442 3.29504 0
M  V30 2902 N 285.273 -1.31445 -0.869486 0
M  V30 2903 C 286.203 -1.21727 -1.99261 0
M  V30 2904 C 287.184 -0.104359 -1.6978 0
M  V30 2905 O 288.369 -0.289038 -1.92037 0
M  V30 2906 C 285.499 -0.924317 -3.34774 0
M  V30 2907 C 284.453 -1.99685 -3.78563 0
M  V30 2908 C 283.779 -1.55658 -5.11541 0
M  V30 2909 C 285.079 -3.41003 -3.95619 0
M  V30 2910 H 286.773 -2.1569 -2.07649 0
M  V30 2911 H 284.319 -1.03839 -0.997675 0
M  V30 2912 H 286.272 -0.842934 -4.12883 0
M  V30 2913 H 284.996 0.0509793 -3.2656 0
M  V30 2914 H 283.655 -2.06813 -3.02694 0
M  V30 2915 H 283.303 -0.569132 -4.9977 0
M  V30 2916 H 283.003 -2.27409 -5.41811 0
M  V30 2917 H 284.527 -1.48928 -5.92159 0
M  V30 2918 H 285.941 -3.36547 -4.64122 0
M  V30 2919 H 284.338 -4.10975 -4.37286 0
M  V30 2920 H 285.408 -3.81754 -2.98985 0
M  V30 2921 N 286.751 1.08385 -1.14413 0
M  V30 2922 C 287.681 2.17321 -0.854044 0
M  V30 2923 C 288.662 1.69024 0.191049 0
M  V30 2924 O 289.847 1.94141 0.0476779 0
M  V30 2925 C 286.977 3.45719 -0.330983 0
M  V30 2926 C 285.931 4.07409 -1.31155 0
M  V30 2927 C 285.257 5.30762 -0.64778 0
M  V30 2928 C 286.557 4.48665 -2.67388 0
M  V30 2929 H 288.251 2.41845 -1.76498 0
M  V30 2930 H 285.797 1.16233 -0.850051 0
M  V30 2931 H 287.75 4.21241 -0.115645 0
M  V30 2932 H 286.474 3.2075 0.615381 0
M  V30 2933 H 285.133 3.33919 -1.51306 0
M  V30 2934 H 284.781 5.02078 0.304398 0
M  V30 2935 H 284.481 5.72992 -1.30207 0
M  V30 2936 H 286.005 6.08998 -0.441972 0
M  V30 2937 H 287.419 5.15364 -2.51143 0
M  V30 2938 H 285.816 5.01814 -3.29093 0
M  V30 2939 H 286.886 3.60543 -3.24248 0
M  V30 2940 N 288.23 0.939286 1.26551 0
M  V30 2941 C 289.646 0.641304 1.46149 0
M  V30 2942 C 289.846 -0.805964 1.84679 0
M  V30 2943 O 288.902 -1.58278 1.96734 0
M  V30 2944 C 290.215 1.6011 2.54529 0
M  V30 2945 C 291.763 1.6106 2.68382 0
M  V30 2946 C 292.238 2.55765 3.79932 0
M  V30 2947 N 293.729 2.5404 3.87322 0
M  V30 2948 C 294.464 3.24004 4.73085 0
M  V30 2949 N 293.96 4.03388 5.63249 0
M  V30 2950 N 295.753 3.12965 4.66914 0
M  V30 2951 H 287.904 1.87478 0.998285 0
M  V30 2952 H 290.167 0.805559 0.499779 0
M  V30 2953 H 289.873 2.63412 2.33039 0
M  V30 2954 H 289.747 1.35171 3.52149 0
M  V30 2955 H 292.134 0.584835 2.89247 0
M  V30 2956 H 292.215 1.90053 1.71212 0
M  V30 2957 H 291.859 3.58458 3.5982 0
M  V30 2958 H 291.789 2.24063 4.76554 0
M  V30 2959 H 294.28 1.96396 3.22858 0
M  V30 2960 H 294.593 4.5373 6.25579 0
M  V30 2961 H 292.938 4.07489 5.63008 0
M  V30 2962 H 296.129 2.50432 3.95476 0
M  V30 2963 H 296.302 3.67759 5.33533 0
M  V30 2964 N 289.708 -1.40897 0.706093 0
M  V30 2965 C 290.618 -2.3455 0.0482286 0
M  V30 2966 C 291.634 -1.56796 -0.754396 0
M  V30 2967 O 292.81 -1.89228 -0.689538 0
M  V30 2968 C 289.875 -3.35625 -0.869303 0
M  V30 2969 C 288.936 -4.29261 -0.0576994 0
M  V30 2970 C 288.169 -5.25508 -0.931531 0
M  V30 2971 O 288.392 -5.27472 -2.17092 0
M  V30 2972 O 287.326 -6.00727 -0.375587 0
M  V30 2973 H 291.152 -2.92407 0.820476 0
M  V30 2974 H 288.737 -1.4193 0.4665 0
M  V30 2975 H 290.619 -3.97635 -1.39514 0
M  V30 2976 H 289.294 -2.80196 -1.62086 0
M  V30 2977 H 288.201 -3.70566 0.512988 0
M  V30 2978 H 289.534 -4.87817 0.655426 0
M  V30 2979 N 291.186 -0.45159 -1.50991 0
M  V30 2980 C 292.432 0.110237 -2.025 0
M  V30 2981 C 292.765 1.41109 -1.33424 0
M  V30 2982 O 292.04 1.89135 -0.453659 0
M  V30 2983 C 292.323 0.314271 -3.58726 0
M  V30 2984 C 292.176 -1.00623 -4.38401 0
M  V30 2985 C 293.495 1.07767 -4.26702 0
M  V30 2986 H 290.614 0.0385897 -0.735989 0
M  V30 2987 H 293.256 -0.593374 -1.80497 0
M  V30 2988 H 291.406 0.913601 -3.77605 0
M  V30 2989 H 293.078 -1.64064 -4.31139 0
M  V30 2990 H 291.321 -1.6075 -4.02917 0
M  V30 2991 H 291.992 -0.817341 -5.45915 0
M  V30 2992 H 294.468 0.56986 -4.12179 0
M  V30 2993 H 293.344 1.18921 -5.35863 0
M  V30 2994 H 293.605 2.10939 -3.88532 0
M  V30 2995 N 292.664 1.56529 -0.183458 0
M  V30 2996 C 293.594 2.21549 0.737456 0
M  V30 2997 C 294.575 1.17489 1.23005 0
M  V30 2998 O 295.76 1.45959 1.281 0
M  V30 2999 C 292.89 2.86575 1.96194 0
M  V30 3000 C 291.844 3.96778 1.60473 0
M  V30 3001 C 291.17 4.48911 2.90487 0
M  V30 3002 C 292.47 5.15767 0.823497 0
M  V30 3003 H 294.164 2.98761 0.195453 0
M  V30 3004 H 291.71 1.43702 0.0925686 0
M  V30 3005 H 293.663 3.30739 2.61131 0
M  V30 3006 H 292.387 2.06749 2.52828 0
M  V30 3007 H 291.046 3.53286 0.978997 0
M  V30 3008 H 290.694 3.65862 3.45186 0
M  V30 3009 H 290.394 5.23265 2.67335 0
M  V30 3010 H 291.918 4.95771 3.56432 0
M  V30 3011 H 293.332 5.56549 1.37571 0
M  V30 3012 H 291.729 5.96114 0.690551 0
M  V30 3013 H 292.799 4.84574 -0.177782 0
M  V30 3014 N 294.142 -0.090211 1.57342 0
M  V30 3015 C 295.052 -1.12735 2.05738 0
M  V30 3016 C 296.068 -1.43557 0.983231 0
M  V30 3017 O 297.244 -1.54101 1.29672 0
M  V30 3018 C 294.309 -2.42659 2.47624 0
M  V30 3019 C 293.37 -2.18975 3.69254 0
M  V30 3020 C 292.603 -3.42704 4.09133 0
M  V30 3021 O 292.826 -4.51127 3.49057 0
M  V30 3022 O 291.76 -3.32003 5.02053 0
M  V30 3023 H 295.586 -0.746279 2.94388 0
M  V30 3024 H 293.171 -0.303064 1.46294 0
M  V30 3025 H 295.053 -3.19155 2.7517 0
M  V30 3026 H 293.728 -2.80182 1.62109 0
M  V30 3027 H 292.635 -1.40244 3.46818 0
M  V30 3028 H 293.968 -1.86342 4.55563 0
M  V30 3029 N 295.62 -1.53406 -0.361157 0
M  V30 3030 C 296.567 -1.80156 -1.44265 0
M  V30 3031 C 297.537 -0.646183 -1.53015 0
M  V30 3032 O 298.722 -0.888818 -1.68833 0
M  V30 3033 C 295.862 -2.00116 -2.81154 0
M  V30 3034 C 294.975 -3.27833 -2.81335 0
M  V30 3035 C 294.11 -3.37957 -4.09828 0
M  V30 3036 C 293.149 -4.59689 -4.04168 0
M  V30 3037 N 292.286 -4.66942 -5.24318 0
M  V30 3038 H 297.126 -2.72438 -1.20754 0
M  V30 3039 H 294.663 -1.34954 -0.585296 0
M  V30 3040 H 296.621 -2.09677 -3.60682 0
M  V30 3041 H 295.251 -1.11167 -3.03054 0
M  V30 3042 H 294.303 -3.27204 -1.94014 0
M  V30 3043 H 295.615 -4.17442 -2.73027 0
M  V30 3044 H 294.769 -3.46853 -4.97773 0
M  V30 3045 H 293.508 -2.46372 -4.20894 0
M  V30 3046 H 292.513 -4.50889 -3.14609 0
M  V30 3047 H 293.738 -5.5262 -3.947 0
M  V30 3048 H 291.684 -3.7826 -5.35962 0
M  V30 3049 H 291.601 -5.50462 -5.18197 0
M  V30 3050 H 292.869 -4.80127 -6.14084 0
M  V30 3051 N 297.098 0.621204 -1.44841 0
M  V30 3052 C 298.03 1.74615 -1.48466 0
M  V30 3053 C 299.043 1.58377 -0.37691 0
M  V30 3054 O 300.232 1.66508 -0.643215 0
M  V30 3055 C 297.332 3.12459 -1.31236 0
M  V30 3056 C 296.505 3.55064 -2.55438 0
M  V30 3057 C 295.564 4.71821 -2.32963 0
M  V30 3058 O 294.59 4.79628 -3.06505 0
M  V30 3059 N 295.792 5.64186 -1.36654 0
M  V30 3060 H 298.557 1.71973 -2.45449 0
M  V30 3061 H 296.118 0.806077 -1.40407 0
M  V30 3062 H 298.11 3.88302 -1.14032 0
M  V30 3063 H 296.68 3.09686 -0.4258 0
M  V30 3064 H 295.9 2.69324 -2.87851 0
M  V30 3065 H 297.188 3.80284 -3.38026 0
M  V30 3066 H 296.586 5.6058 -0.759344 0
M  V30 3067 H 295.143 6.39618 -1.25425 0
M  V30 3068 N 298.576 1.31904 0.862503 0
M  V30 3069 C 299.987 1.19803 1.43193 0
M  V30 3070 C 300.338 -0.192567 1.95253 0
M  V30 3071 O 299.463 -1.09081 1.86896 0
M  V30 3072 C 300.058 2.16883 2.60283 0
M  V30 3073 C 298.617 2.08692 3.13248 0
M  V30 3074 C 297.764 2.05691 1.85975 0
M  V30 3075 H 300.715 1.43846 0.670365 0
M  V30 3076 H 300.736 1.76278 3.37204 0
M  V30 3077 H 300.248 3.18083 2.22363 0
M  V30 3078 H 298.349 1.10713 3.55771 0
M  V30 3079 H 298.462 2.9815 3.75025 0
M  V30 3080 H 296.826 1.50814 2.05249 0
M  V30 3081 H 297.609 3.08659 1.50282 0
M  V30 3082 N 300.054 -1.07777 1.14986 0
M  V30 3083 C 301.3 -1.80557 0.923422 0
M  V30 3084 C 301.633 -1.86298 -0.548337 0
M  V30 3085 O 300.908 -1.34354 -1.40639 0
M  V30 3086 C 301.191 -3.25839 1.53299 0
M  V30 3087 C 301.044 -3.28269 3.07505 0
M  V30 3088 C 302.363 -4.22991 1.21518 0
M  V30 3089 H 299.482 -0.655493 0.336894 0
M  V30 3090 H 302.124 -1.26144 1.42083 0
M  V30 3091 H 300.274 -3.72306 1.10999 0
M  V30 3092 H 301.946 -2.90079 3.58681 0
M  V30 3093 H 300.189 -2.67355 3.4162 0
M  V30 3094 H 300.86 -4.30691 3.45266 0
M  V30 3095 H 303.336 -3.84894 1.581 0
M  V30 3096 H 302.212 -5.22945 1.66793 0
M  V30 3097 H 302.473 -4.41904 0.131505 0
M  V30 3098 N 301.532 -0.945985 -1.26051 0
M  V30 3099 C 302.462 -0.477172 -2.28572 0
M  V30 3100 C 303.443 0.472032 -1.63419 0
M  V30 3101 O 304.628 0.372853 -1.90587 0
M  V30 3102 C 301.758 0.253975 -3.4637 0
M  V30 3103 C 300.712 -0.609135 -4.23643 0
M  V30 3104 C 300.038 0.252252 -5.34105 0
M  V30 3105 C 301.338 -1.8829 -4.8718 0
M  V30 3106 H 303.032 -1.33402 -2.68038 0
M  V30 3107 H 300.578 -0.642904 -1.28852 0
M  V30 3108 H 302.531 0.593016 -4.17207 0
M  V30 3109 H 301.255 1.145 -3.05871 0
M  V30 3110 H 299.914 -0.931138 -3.54578 0
M  V30 3111 H 299.562 1.14278 -4.89846 0
M  V30 3112 H 299.262 -0.32188 -5.86718 0
M  V30 3113 H 300.786 0.586454 -6.07777 0
M  V30 3114 H 302.2 -1.61081 -5.50205 0
M  V30 3115 H 300.597 -2.40199 -5.49931 0
M  V30 3116 H 301.667 -2.59134 -4.09851 0
M  V30 3117 N 303.011 1.40521 -0.713556 0
M  V30 3118 C 304.236 2.05759 -0.26035 0
M  V30 3119 C 304.661 1.53403 1.08854 0
M  V30 3120 O 304.019 0.668535 1.68524 0
M  V30 3121 C 304.067 3.59745 -0.248122 0
M  V30 3122 O 303.171 4.05123 0.77131 0
M  V30 3123 H 302.512 0.652564 -0.122703 0
M  V30 3124 H 305.042 1.79958 -0.973467 0
M  V30 3125 H 305.052 4.07911 -0.0851129 0
M  V30 3126 H 303.727 3.97218 -1.2325 0
M  V30 3127 H 302.304 3.68422 0.57619 0
M  V30 3128 N 304.489 0.459591 1.5075 0
M  V30 3129 C 305.421 -0.37665 2.26084 0
M  V30 3130 C 306.434 -0.967109 1.30961 0
M  V30 3131 O 307.623 -0.857468 1.56556 0
M  V30 3132 C 304.723 -1.54112 3.01832 0
M  V30 3133 C 303.896 -1.06553 4.24223 0
M  V30 3134 C 302.955 -2.1027 4.82362 0
M  V30 3135 O 301.981 -1.68798 5.43595 0
M  V30 3136 N 303.183 -3.42974 4.68347 0
M  V30 3137 H 305.948 0.269124 2.98489 0
M  V30 3138 H 303.509 0.28972 1.59287 0
M  V30 3139 H 305.501 -2.23165 3.37608 0
M  V30 3140 H 304.071 -2.0918 2.32298 0
M  V30 3141 H 303.291 -0.201274 3.93686 0
M  V30 3142 H 304.579 -0.725516 5.03601 0
M  V30 3143 H 303.977 -3.79385 4.19623 0
M  V30 3144 H 302.534 -4.07858 5.08424 0
M  V30 3145 N 305.967 -1.56429 0.191757 0
M  V30 3146 C 307.195 -2.01867 -0.453586 0
M  V30 3147 C 307.61 -1.07191 -1.5542 0
M  V30 3148 O 306.967 -0.0762108 -1.82341 0
M  V30 3149 C 307.018 -3.47017 -1.013 0
M  V30 3150 O 306.739 -4.38078 0.0437005 0
M  V30 3151 C 308.24 -4.07956 -1.73456 0
M  V30 3152 H 305.46 -0.661211 -0.114199 0
M  V30 3153 H 308.004 -2.02295 0.299483 0
M  V30 3154 H 306.159 -3.47298 -1.71647 0
M  V30 3155 H 306.573 -5.23178 -0.372212 0
M  V30 3156 H 308.047 -5.1138 -2.07833 0
M  V30 3157 H 308.524 -3.51222 -2.63704 0
M  V30 3158 H 309.13 -4.11437 -1.07702 0
M  V30 3159 N 307.445 0.0818655 -1.57387 0
M  V30 3160 C 308.355 1.11642 -2.06333 0
M  V30 3161 C 309.371 1.43033 -0.99083 0
M  V30 3162 O 310.547 1.53411 -1.30488 0
M  V30 3163 C 307.612 2.41342 -2.48907 0
M  V30 3164 C 306.673 2.17014 -3.7041 0
M  V30 3165 C 305.906 3.4053 -4.10944 0
M  V30 3166 O 306.129 4.4927 -3.51444 0
M  V30 3167 O 305.063 3.29336 -5.03807 0
M  V30 3168 H 308.889 0.730657 -2.9478 0
M  V30 3169 H 306.474 0.295301 -1.46452 0
M  V30 3170 H 308.356 3.17691 -2.76858 0
M  V30 3171 H 307.031 2.79319 -1.63593 0
M  V30 3172 H 305.938 1.38403 -3.47556 0
M  V30 3173 H 307.271 1.83923 -4.56545 0
M  V30 3174 N 308.923 1.53595 0.353017 0
M  V30 3175 C 309.886 1.80232 1.41594 0
M  V30 3176 C 310.886 0.673081 1.46035 0
M  V30 3177 O 312.076 0.941335 1.46576 0
M  V30 3178 C 309.208 1.93578 2.80607 0
M  V30 3179 H 310.401 2.75174 1.19244 0
M  V30 3180 H 307.954 1.44864 0.586872 0
M  V30 3181 H 308.689 1.00746 3.08254 0
M  V30 3182 H 308.474 2.75724 2.78781 0
M  V30 3183 H 309.964 2.15735 3.57558 0
M  V30 3184 N 310.401 -0.613514 1.45168 0
M  V30 3185 C 311.817 -0.933629 1.29443 0
M  V30 3186 C 312.017 -2.00028 0.243101 0
M  V30 3187 O 311.073 -2.49848 -0.364992 0
M  V30 3188 C 312.386 -1.38018 2.67155 0
M  V30 3189 C 313.934 -1.49471 2.75004 0
M  V30 3190 C 314.409 -1.97503 4.13227 0
M  V30 3191 N 315.9 -2.04746 4.15491 0
M  V30 3192 C 316.635 -2.43121 5.19307 0
M  V30 3193 N 316.131 -2.80506 6.33473 0
M  V30 3194 N 317.924 -2.43408 5.06664 0
M  V30 3195 H 310.075 0.0916097 2.12202 0
M  V30 3196 H 312.338 -0.0216655 0.947752 0
M  V30 3197 H 312.044 -0.670625 3.45247 0
M  V30 3198 H 311.918 -2.34784 2.95222 0
M  V30 3199 H 314.305 -2.19519 1.9722 0
M  V30 3200 H 314.386 -0.510342 2.50657 0
M  V30 3201 H 314.03 -1.28045 4.91495 0
M  V30 3202 H 313.96 -2.96843 4.34962 0
M  V30 3203 H 316.451 -1.78468 3.33103 0
M  V30 3204 H 316.764 -3.08652 7.08487 0
M  V30 3205 H 315.109 -2.78216 6.36884 0
M  V30 3206 H 318.3 -2.13604 4.16523 0
M  V30 3207 H 318.473 -2.72989 5.87691 0
M  V30 3208 N 311.879 -1.3236 -0.855495 0
M  V30 3209 C 313.156 -1.13491 -1.59309 0
M  V30 3210 C 313.536 0.30503 -2.08885 0
M  V30 3211 O 312.884 1.30151 -1.87811 0
M  V30 3212 C 313.094 -2.16176 -2.73987 0
M  V30 3213 C 314.442 -2.49463 -3.43589 0
M  V30 3214 O 315.466 -2.14715 -2.84211 0
M  V30 3215 O 314.325 -3.09027 -4.50738 0
M  V30 3216 H 311.419 -0.437887 -0.701559 0
M  V30 3217 H 313.965 -1.43887 -0.899696 0
M  V30 3218 H 312.737 -3.1297 -2.34873 0
M  V30 3219 H 312.36 -1.86769 -3.51003 0
M  V30 3220 N 313.357 1.07166 -1.15556 0
M  V30 3221 C 314.287 2.16403 -0.877046 0
M  V30 3222 C 315.268 1.69217 0.173111 0
M  V30 3223 O 316.453 1.94181 0.027084 0
M  V30 3224 C 313.583 3.45349 -0.367632 0
M  V30 3225 C 312.537 4.05995 -1.35468 0
M  V30 3226 C 311.863 5.30045 -0.704038 0
M  V30 3227 C 313.163 4.45804 -2.72132 0
M  V30 3228 H 314.857 2.39959 -1.79053 0
M  V30 3229 H 312.403 1.15325 -0.862331 0
M  V30 3230 H 314.356 4.21095 -0.160317 0
M  V30 3231 H 313.08 3.21385 0.581326 0
M  V30 3232 H 311.739 3.32296 -1.54839 0
M  V30 3233 H 311.387 5.02373 0.251128 0
M  V30 3234 H 311.087 5.71579 -1.36277 0
M  V30 3235 H 312.611 6.08495 -0.50654 0
M  V30 3236 H 314.025 5.12671 -2.56595 0
M  V30 3237 H 312.422 4.98296 -3.34397 0
M  V30 3238 H 313.492 3.57083 -3.28054 0
M  V30 3239 N 314.835 0.952656 1.25548 0
M  V30 3240 C 316.081 0.607272 1.93494 0
M  V30 3241 C 316.414 -0.853245 1.74452 0
M  V30 3242 O 315.689 -1.61194 1.08843 0
M  V30 3243 C 315.972 0.96435 3.46947 0
M  V30 3244 C 315.825 2.48045 3.75225 0
M  V30 3245 C 317.144 0.487987 4.37386 0
M  V30 3246 H 314.263 0.222096 0.702739 0
M  V30 3247 H 316.905 1.18895 1.48203 0
M  V30 3248 H 315.055 0.469361 3.85654 0
M  V30 3249 H 316.727 3.04905 3.46166 0
M  V30 3250 H 314.97 2.919 3.209 0
M  V30 3251 H 315.641 2.6808 4.82532 0
M  V30 3252 H 318.117 0.912558 4.0597 0
M  V30 3253 H 316.993 0.766547 5.43521 0
M  V30 3254 H 317.254 -0.612063 4.37843 0
M  V30 3255 N 316.313 -1.40141 0.720998 0
M  V30 3256 C 317.223 -2.34486 0.0731031 0
M  V30 3257 C 318.239 -1.57587 -0.737723 0
M  V30 3258 O 319.415 -1.89949 -0.669429 0
M  V30 3259 C 316.48 -3.36528 -0.833656 0
M  V30 3260 C 315.541 -4.29298 -0.0121673 0
M  V30 3261 C 314.774 -5.26466 -0.875742 0
M  V30 3262 O 314.997 -5.29745 -2.11485 0
M  V30 3263 O 313.931 -6.01092 -0.31185 0
M  V30 3264 H 317.757 -2.9152 0.851444 0
M  V30 3265 H 315.342 -1.41427 0.481527 0
M  V30 3266 H 317.224 -3.99093 -1.35289 0
M  V30 3267 H 315.899 -2.81899 -1.59105 0
M  V30 3268 H 314.806 -3.70001 0.552262 0
M  V30 3269 H 316.139 -4.87094 0.707129 0
M  V30 3270 N 317.792 -0.46758 -1.50504 0
M  V30 3271 C 319.208 -0.121533 -1.59137 0
M  V30 3272 C 319.408 1.3717 -1.47603 0
M  V30 3273 O 318.464 2.14464 -1.33272 0
M  V30 3274 C 319.777 -0.6686 -2.93173 0
M  V30 3275 C 321.325 -0.631716 -3.06559 0
M  V30 3276 C 321.8 -1.15627 -4.43164 0
M  V30 3277 N 323.291 -1.11553 -4.49567 0
M  V30 3278 C 324.026 -1.49195 -5.5365 0
M  V30 3279 N 323.522 -1.94269 -6.65005 0
M  V30 3280 N 325.315 -1.4082 -5.44175 0
M  V30 3281 H 317.466 -1.4388 -1.56245 0
M  V30 3282 H 319.729 -0.594784 -0.738198 0
M  V30 3283 H 319.435 -1.71453 -3.07078 0
M  V30 3284 H 319.309 -0.11021 -3.77039 0
M  V30 3285 H 321.696 0.405297 -2.92304 0
M  V30 3286 H 321.777 -1.22687 -2.24458 0
M  V30 3287 H 321.421 -2.1919 -4.58168 0
M  V30 3288 H 321.351 -0.537365 -5.23851 0
M  V30 3289 H 323.842 -0.784895 -3.69659 0
M  V30 3290 H 324.155 -2.21148 -7.40482 0
M  V30 3291 H 322.5 -1.98219 -6.66134 0
M  V30 3292 H 325.691 -1.0545 -4.56068 0
M  V30 3293 H 325.864 -1.70481 -6.25172 0
M  V30 3294 N 319.27 1.56325 -0.20005 0
M  V30 3295 C 320.51 1.99619 0.439519 0
M  V30 3296 C 320.874 1.08423 1.58456 0
M  V30 3297 O 322.075 1.40973 2.28867 0
M  V30 3298 C 320.346 3.46314 0.883258 0
M  V30 3299 S 321.905 4.11634 1.51997 0
M  V30 3300 H 318.723 0.697007 0.140363 0
M  V30 3301 H 321.325 1.93118 -0.304282 0
M  V30 3302 H 320.029 4.10381 0.0398967 0
M  V30 3303 H 319.56 3.56643 1.6604 0
M  V30 3304 H 321.575 4.09049 2.8088 0
M  V30 3305 N 320.748 -0.0735177 1.57428 0
M  V30 3306 C 321.681 -1.11932 1.98863 0
M  V30 3307 C 322.659 -1.37666 0.865266 0
M  V30 3308 O 323.843 -1.51068 1.12742 0
M  V30 3309 C 320.97 -2.46403 2.32386 0
M  V30 3310 C 320.016 -2.36815 3.54713 0
M  V30 3311 S 320.849 -1.76392 5.05614 0
M  V30 3312 C 322.005 -3.12444 5.42337 0
M  V30 3313 H 322.238 -0.766212 2.87257 0
M  V30 3314 H 319.771 -0.281987 1.51803 0
M  V30 3315 H 321.729 -3.23755 2.52375 0
M  V30 3316 H 320.39 -2.78876 1.44524 0
M  V30 3317 H 319.583 -3.35977 3.7568 0
M  V30 3318 H 319.185 -1.67598 3.34345 0
M  V30 3319 H 321.477 -4.08753 5.40303 0
M  V30 3320 H 322.42 -2.96258 6.43146 0
M  V30 3321 H 322.828 -3.1297 4.69798 0
M  V30 3322 N 322.226 -1.5378 -0.344866 0
M  V30 3323 C 323.642 -1.44015 -0.687888 0
M  V30 3324 C 323.842 -0.595834 -1.92489 0
M  V30 3325 O 322.898 -0.0863064 -2.52352 0
M  V30 3326 C 324.211 -2.87481 -0.881758 0
M  V30 3327 C 325.759 -2.97247 -0.980459 0
M  V30 3328 C 326.234 -4.41819 -1.20665 0
M  V30 3329 N 327.725 -4.45339 -1.27389 0
M  V30 3330 C 328.46 -5.54333 -1.46639 0
M  V30 3331 N 327.956 -6.73335 -1.63071 0
M  V30 3332 N 329.749 -5.41944 -1.49176 0
M  V30 3333 H 321.9 -2.07169 0.468475 0
M  V30 3334 H 324.163 -0.93643 0.147655 0
M  V30 3335 H 323.869 -3.51672 -0.0443444 0
M  V30 3336 H 323.743 -3.32352 -1.78388 0
M  V30 3337 H 326.13 -2.33197 -1.8084 0
M  V30 3338 H 326.211 -2.5574 -0.0552713 0
M  V30 3339 H 325.855 -5.06449 -0.383652 0
M  V30 3340 H 325.785 -4.80917 -2.14539 0
M  V30 3341 H 328.276 -3.59585 -1.1622 0
M  V30 3342 H 328.589 -7.52165 -1.77391 0
M  V30 3343 H 326.934 -6.76282 -1.60209 0
M  V30 3344 H 330.125 -4.47932 -1.3592 0
M  V30 3345 H 330.298 -6.26946 -1.63837 0
M  V30 3346 N 323.704 0.605807 -1.45491 0
M  V30 3347 C 324.95 1.36679 -1.49823 0
M  V30 3348 C 325.283 1.93693 -0.140175 0
M  V30 3349 O 324.558 1.75158 0.845581 0
M  V30 3350 C 324.841 2.51337 -2.57879 0
M  V30 3351 C 324.694 1.99508 -4.03134 0
M  V30 3352 C 326.013 3.53463 -2.62205 0
M  V30 3353 H 323.132 0.495617 -0.545466 0
M  V30 3354 H 325.774 0.682732 -1.7731 0
M  V30 3355 H 323.924 3.09691 -2.34571 0
M  V30 3356 H 325.596 1.45789 -4.37656 0
M  V30 3357 H 323.839 1.30496 -4.13707 0
M  V30 3358 H 324.51 2.82169 -4.74431 0
M  V30 3359 H 326.986 3.04953 -2.83095 0
M  V30 3360 H 325.862 4.31178 -3.39672 0
M  V30 3361 H 326.123 4.09197 -1.67363 0
M  V30 3362 N 325.182 1.32811 0.848464 0
M  V30 3363 C 326.112 1.24882 1.97299 0
M  V30 3364 C 327.093 0.131357 1.69592 0
M  V30 3365 O 328.278 0.319553 1.91553 0
M  V30 3366 C 325.408 0.97746 3.33261 0
M  V30 3367 C 324.362 2.05682 3.75338 0
M  V30 3368 C 323.688 1.63777 5.09 0
M  V30 3369 C 324.988 3.47254 3.90144 0
M  V30 3370 H 326.682 2.18966 2.04191 0
M  V30 3371 H 324.228 1.05413 0.981029 0
M  V30 3372 H 326.181 0.908513 4.1149 0
M  V30 3373 H 324.905 0.000980011 3.266 0
M  V30 3374 H 323.564 2.11603 2.99366 0
M  V30 3375 H 323.212 0.648569 4.98801 0
M  V30 3376 H 322.912 2.36 5.38124 0
M  V30 3377 H 324.436 1.5833 5.89715 0
M  V30 3378 H 325.85 3.43888 4.58709 0
M  V30 3379 H 324.247 4.1788 4.30693 0
M  V30 3380 H 325.317 3.86462 2.92874 0
M  V30 3381 N 326.66 -1.06551 1.16123 0
M  V30 3382 C 327.89 -1.8274 0.963838 0
M  V30 3383 C 328.298 -1.82712 -0.491228 0
M  V30 3384 O 327.641 -1.24294 -1.35265 0
M  V30 3385 C 327.703 -3.3065 1.41106 0
M  V30 3386 C 327.367 -3.54384 2.88549 0
M  V30 3387 C 328.364 -3.4765 3.86569 0
M  V30 3388 C 326.049 -3.81789 3.26408 0
M  V30 3389 C 328.043 -3.67982 5.2045 0
M  V30 3390 C 325.73 -4.01772 4.60459 0
M  V30 3391 C 326.728 -3.94866 5.57288 0
M  V30 3392 O 326.416 -4.14306 6.88916 0
M  V30 3393 H 326.148 -0.583136 0.341948 0
M  V30 3394 H 328.702 -1.35351 1.54497 0
M  V30 3395 H 326.932 -3.78887 0.773394 0
M  V30 3396 H 328.621 -3.88324 1.1815 0
M  V30 3397 H 329.387 -3.2647 3.58667 0
M  V30 3398 H 325.266 -3.86276 2.51619 0
M  V30 3399 H 328.81 -3.62507 5.96015 0
M  V30 3400 H 324.707 -4.2244 4.88072 0
M  V30 3401 H 325.475 -4.31609 6.95454 0
M  V30 3402 N 328.138 -0.959301 -1.25041 0
M  V30 3403 C 329.368 -0.63303 -1.96663 0
M  V30 3404 C 329.776 0.800031 -1.71453 0
M  V30 3405 O 329.119 1.54736 -0.99008 0
M  V30 3406 C 329.181 -0.817523 -3.50081 0
M  V30 3407 C 328.845 -2.22863 -3.98975 0
M  V30 3408 C 329.842 -3.20569 -4.09306 0
M  V30 3409 C 327.527 -2.55407 -4.32519 0
M  V30 3410 C 329.521 -4.4891 -4.52503 0
M  V30 3411 C 327.208 -3.83976 -4.754 0
M  V30 3412 C 328.206 -4.8054 -4.85356 0
M  V30 3413 O 327.894 -6.06817 -5.27284 0
M  V30 3414 H 327.626 -0.235866 -0.633516 0
M  V30 3415 H 330.18 -1.2874 -1.60047 0
M  V30 3416 H 328.41 -0.105992 -3.86555 0
M  V30 3417 H 330.099 -0.491604 -4.02912 0
M  V30 3418 H 330.865 -2.96753 -3.83618 0
M  V30 3419 H 326.744 -1.8097 -4.23994 0
M  V30 3420 H 330.288 -5.24283 -4.60188 0
M  V30 3421 H 326.185 -4.07596 -5.00535 0
M  V30 3422 H 326.953 -6.10262 -5.45457 0
M  V30 3423 N 329.616 1.39756 -0.72842 0
M  V30 3424 C 331.032 1.5442 -0.403308 0
M  V30 3425 C 331.232 1.69694 1.08656 0
M  V30 3426 O 330.288 1.69373 1.87267 0
M  V30 3427 C 331.601 2.76555 -1.18058 0
M  V30 3428 C 333.149 2.90384 -1.16815 0
M  V30 3429 C 333.624 4.15449 -1.92785 0
M  V30 3430 N 335.115 4.22475 -1.89918 0
M  V30 3431 C 335.85 5.1818 -2.45514 0
M  V30 3432 N 335.346 6.19714 -3.09719 0
M  V30 3433 N 337.139 5.1035 -2.35584 0
M  V30 3434 H 329.29 1.28089 -1.69431 0
M  V30 3435 H 331.553 0.620327 -0.716867 0
M  V30 3436 H 331.259 2.7159 -2.23455 0
M  V30 3437 H 331.133 3.69033 -0.780662 0
M  V30 3438 H 333.52 2.94846 -0.12234 0
M  V30 3439 H 333.601 1.98988 -1.6074 0
M  V30 3440 H 333.245 4.11749 -2.97364 0
M  V30 3441 H 333.175 5.05877 -1.46272 0
M  V30 3442 H 335.666 3.49743 -1.43138 0
M  V30 3443 H 335.979 6.8919 -3.49625 0
M  V30 3444 H 334.324 6.20121 -3.13807 0
M  V30 3445 H 337.515 4.2996 -1.85072 0
M  V30 3446 H 337.688 5.84761 -2.79211 0
M  V30 3447 N 331.094 0.475555 1.50254 0
M  V30 3448 C 332.371 -0.139685 1.95101 0
M  V30 3449 C 332.751 -1.56555 1.41611 0
M  V30 3450 O 332.099 -2.19956 0.618993 0
M  V30 3451 C 332.309 -0.0784298 3.48912 0
M  V30 3452 C 333.657 -0.265095 4.23772 0
M  V30 3453 O 334.681 -0.154808 3.55863 0
M  V30 3454 O 333.54 -0.488327 5.44314 0
M  V30 3455 H 330.634 -0.109236 0.819754 0
M  V30 3456 H 333.18 0.536276 1.61004 0
M  V30 3457 H 331.952 0.916918 3.80405 0
M  V30 3458 H 331.575 -0.795655 3.89558 0
M  V30 3459 N 332.573 -1.56217 0.208337 0
M  V30 3460 C 333.536 -2.18455 -0.693557 0
M  V30 3461 C 334.536 -1.14268 -1.13135 0
M  V30 3462 O 335.726 -1.39577 -1.0423 0
M  V30 3463 C 332.858 -2.79727 -1.94848 0
M  V30 3464 H 334.051 -2.99519 -0.15114 0
M  V30 3465 H 331.604 -1.56245 -0.041287 0
M  V30 3466 H 332.339 -2.02497 -2.53309 0
M  V30 3467 H 332.124 -3.56009 -1.64316 0
M  V30 3468 H 333.614 -3.27475 -2.59133 0
M  V30 3469 N 334.051 0.0651679 -1.57465 0
M  V30 3470 C 335.467 0.420105 -1.53972 0
M  V30 3471 C 335.667 1.78782 -0.929474 0
M  V30 3472 O 334.723 2.46771 -0.534839 0
M  V30 3473 C 336.036 0.355084 -2.98596 0
M  V30 3474 C 337.584 0.434792 -3.09965 0
M  V30 3475 C 338.059 0.399609 -4.56253 0
M  V30 3476 N 339.55 0.459488 -4.60915 0
M  V30 3477 C 340.285 0.454584 -5.71595 0
M  V30 3478 N 339.781 0.404102 -6.9162 0
M  V30 3479 N 341.574 0.501635 -5.59857 0
M  V30 3480 H 333.725 -0.830328 -1.95498 0
M  V30 3481 H 335.988 -0.312244 -0.895102 0
M  V30 3482 H 335.694 -0.583357 -3.46828 0
M  V30 3483 H 335.568 1.16275 -3.58831 0
M  V30 3484 H 337.955 1.36366 -2.61703 0
M  V30 3485 H 338.036 -0.40157 -2.52628 0
M  V30 3486 H 337.68 -0.525436 -5.05175 0
M  V30 3487 H 337.61 1.25359 -5.11461 0
M  V30 3488 H 340.101 0.502482 -3.74544 0
M  V30 3489 H 340.414 0.404468 -7.71741 0
M  V30 3490 H 338.759 0.37069 -6.94011 0
M  V30 3491 H 341.95 0.538812 -4.64989 0
M  V30 3492 H 342.123 0.494345 -6.46112 0
M  V30 3493 N 335.529 1.53961 0.336706 0
M  V30 3494 C 336.754 1.75797 1.10046 0
M  V30 3495 C 337.179 0.498985 1.81361 0
M  V30 3496 O 336.537 -0.548769 1.72795 0
M  V30 3497 C 336.585 2.94257 2.08436 0
M  V30 3498 O 335.689 2.64883 3.16087 0
M  V30 3499 H 335.03 0.582936 0.317934 0
M  V30 3500 H 337.56 2.00945 0.38501 0
M  V30 3501 H 337.57 3.21237 2.51537 0
M  V30 3502 H 336.245 3.85564 1.55927 0
M  V30 3503 H 334.822 2.48812 2.77753 0
M  V30 3504 N 337.007 -0.598083 1.45811 0
M  V30 3505 C 338.237 -1.38121 1.53643 0
M  V30 3506 C 338.645 -1.88425 0.171081 0
M  V30 3507 O 337.988 -1.63409 -0.839237 0
M  V30 3508 C 338.05 -2.61432 2.46766 0
M  V30 3509 C 337.714 -2.32702 3.93318 0
M  V30 3510 C 338.711 -1.92479 4.82957 0
M  V30 3511 C 336.396 -2.45321 4.38318 0
M  V30 3512 C 338.39 -1.65248 6.15607 0
M  V30 3513 C 336.077 -2.17703 5.71007 0
M  V30 3514 C 337.075 -1.7773 6.5947 0
M  V30 3515 O 336.763 -1.50441 7.89698 0
M  V30 3516 H 336.495 -0.428863 0.522544 0
M  V30 3517 H 339.049 -0.73557 1.91777 0
M  V30 3518 H 337.279 -3.28749 2.0362 0
M  V30 3519 H 338.968 -3.23487 2.45175 0
M  V30 3520 H 339.734 -1.82258 4.49452 0
M  V30 3521 H 335.613 -2.75399 3.69697 0
M  V30 3522 H 339.157 -1.33973 6.84614 0
M  V30 3523 H 335.054 -2.27544 6.04065 0
M  V30 3524 H 335.822 -1.64415 8.01817 0
M  V30 3525 N 338.485 -1.33259 -0.841409 0
M  V30 3526 C 339.433 -1.23279 -1.97244 0
M  V30 3527 C 340.427 -0.134706 -1.68864 0
M  V30 3528 O 341.633 -0.298501 -1.77508 0
M  V30 3529 H 338.008 -0.382497 -0.647457 0
M  V30 3530 H 339.979 -2.18906 -2.02787 0
M  V30 3531 C 338.728 -0.986268 -3.33419 0
M  V30 3532 H 338.051 -1.82347 -3.55794 0
M  V30 3533 H 339.491 -0.956728 -4.13065 0
M  V30 3534 C 337.95 0.310842 -3.35463 0
M  V30 3535 O 338.48 1.31838 -3.79449 0
M  V30 3536 N 336.686 0.337485 -2.88634 0
M  V30 3537 H 336.233 -0.482967 -2.53032 0
M  V30 3538 H 336.191 1.20518 -2.90384 0
M  V30 3539 N 339.963 1.05934 -1.16686 0
M  V30 3540 C 341.379 1.30938 -0.912542 0
M  V30 3541 C 341.579 1.96803 0.432533 0
M  V30 3542 O 340.635 2.23693 1.17123 0
M  V30 3543 C 341.948 2.18649 -2.06429 0
M  V30 3544 C 343.496 2.32055 -2.10047 0
M  V30 3545 C 343.971 3.23122 -3.24586 0
M  V30 3546 N 345.462 3.30706 -3.24327 0
M  V30 3547 C 346.197 4.01273 -4.09594 0
M  V30 3548 N 345.693 4.74332 -5.04956 0
M  V30 3549 N 347.486 3.97361 -3.97569 0
M  V30 3550 H 339.637 0.615777 -2.03278 0
M  V30 3551 H 341.9 0.334077 -0.887185 0
M  V30 3552 H 341.606 1.77534 -3.03603 0
M  V30 3553 H 341.48 3.19252 -2.00894 0
M  V30 3554 H 343.867 2.72415 -1.13464 0
M  V30 3555 H 343.948 1.31107 -2.19647 0
M  V30 3556 H 343.592 2.83477 -4.2143 0
M  V30 3557 H 343.522 4.24057 -3.12223 0
M  V30 3558 H 346.013 2.78644 -2.55276 0
M  V30 3559 H 346.326 5.25716 -5.6643 0
M  V30 3560 H 344.671 4.733 -5.08933 0
M  V30 3561 H 347.862 3.39405 -3.22369 0
M  V30 3562 H 348.035 4.52089 -4.64241 0
M  V30 3563 N 341.441 0.965919 1.2453 0
M  V30 3564 C 342.688 0.626831 1.92554 0
M  V30 3565 C 343.016 -0.837739 1.75534 0
M  V30 3566 O 342.271 -1.61793 1.10098 0
M  V30 3567 C 342.57 0.945428 3.44669 0
M  V30 3568 C 342.236 2.39785 3.81856 0
M  V30 3569 C 340.898 2.79483 3.91718 0
M  V30 3570 C 343.25 3.34055 4.00071 0
M  V30 3571 C 340.578 4.12496 4.1721 0
M  V30 3572 C 342.93 4.66694 4.27059 0
M  V30 3573 C 341.594 5.06172 4.3514 0
M  V30 3574 H 340.864 0.229374 0.704605 0
M  V30 3575 H 343.511 1.21707 1.4785 0
M  V30 3576 H 341.816 0.272926 3.90848 0
M  V30 3577 H 343.513 0.661484 3.95507 0
M  V30 3578 H 340.103 2.08003 3.74743 0
M  V30 3579 H 344.287 3.04571 3.91855 0
M  V30 3580 H 339.543 4.42709 4.21685 0
M  V30 3581 H 343.717 5.3971 4.40097 0
M  V30 3582 H 341.344 6.09262 4.54646 0
M  V30 3583 N 342.919 -1.39368 0.735821 0
M  V30 3584 C 343.851 -2.2913 0.0567723 0
M  V30 3585 C 344.864 -1.46859 -0.702589 0
M  V30 3586 O 346.053 -1.69925 -0.546616 0
M  V30 3587 C 343.153 -3.25492 -0.943823 0
M  V30 3588 C 342.326 -4.36709 -0.24581 0
M  V30 3589 C 341.385 -5.13376 -1.15463 0
M  V30 3590 O 340.411 -5.65683 -0.631803 0
M  V30 3591 N 341.613 -5.24656 -2.48427 0
M  V30 3592 H 344.378 -2.88047 0.827582 0
M  V30 3593 H 341.939 -1.50957 0.585112 0
M  V30 3594 H 343.931 -3.73657 -1.55443 0
M  V30 3595 H 342.501 -2.676 -1.61583 0
M  V30 3596 H 341.721 -3.9041 0.545286 0
M  V30 3597 H 343.009 -5.08244 0.237891 0
M  V30 3598 H 342.407 -4.83679 -2.93379 0
M  V30 3599 H 340.964 -5.76258 -3.04582 0
M  V30 3600 N 344.397 -0.483516 -1.5 0
M  V30 3601 C 345.646 0.0689102 -2.01582 0
M  V30 3602 C 345.959 1.39655 -1.36952 0
M  V30 3603 O 347.165 2.03465 -1.79762 0
M  V30 3604 C 345.621 0.173302 -3.59483 0
M  V30 3605 C 345.229 -1.14665 -4.33077 0
M  V30 3606 C 346.973 0.677024 -4.19066 0
M  V30 3607 C 344.88 -1.00537 -5.82792 0
M  V30 3608 H 343.81 0.0295277 -0.753422 0
M  V30 3609 H 346.461 -0.620295 -1.72698 0
M  V30 3610 H 344.843 0.926569 -3.85007 0
M  V30 3611 H 346.017 -1.91184 -4.19268 0
M  V30 3612 H 344.332 -1.58244 -3.85159 0
M  V30 3613 H 346.929 0.799952 -5.28682 0
M  V30 3614 H 347.272 1.67151 -3.81269 0
M  V30 3615 H 347.805 -0.0192083 -3.97795 0
M  V30 3616 H 344.544 -1.9736 -6.25083 0
M  V30 3617 H 344.064 -0.280776 -5.99142 0
M  V30 3618 H 345.743 -0.677 -6.43448 0
M  V30 3619 N 345.875 1.56104 -0.216619 0
M  V30 3620 C 346.838 2.18819 0.681962 0
M  V30 3621 C 347.838 1.14866 1.12528 0
M  V30 3622 O 349.028 1.40128 1.03488 0
M  V30 3623 C 346.16 2.80756 1.93362 0
M  V30 3624 H 347.353 2.99595 0.135254 0
M  V30 3625 H 344.906 1.56265 0.0330003 0
M  V30 3626 H 345.641 2.03837 2.52232 0
M  V30 3627 H 345.426 3.56876 1.62426 0
M  V30 3628 H 346.916 3.28844 2.57393 0
M  V30 3629 N 347.353 -0.0568162 1.57498 0
M  V30 3630 C 348.581 -0.765626 1.92213 0
M  V30 3631 C 348.996 -1.70353 0.813961 0
M  V30 3632 O 348.353 -1.81268 -0.211701 0
M  V30 3633 C 348.404 -1.5465 3.2675 0
M  V30 3634 O 348.125 -0.646278 4.33307 0
M  V30 3635 C 349.626 -2.35497 3.75574 0
M  V30 3636 H 346.846 -0.216835 0.634999 0
M  V30 3637 H 349.39 -0.0226146 2.04487 0
M  V30 3638 H 347.545 -2.24165 3.15957 0
M  V30 3639 H 347.959 -1.19093 5.108 0
M  V30 3640 H 349.433 -2.85722 4.72299 0
M  V30 3641 H 349.91 -3.15692 3.05344 0
M  V30 3642 H 350.516 -1.7111 3.8936 0
M  V30 3643 N 348.832 -1.54138 -0.328536 0
M  V30 3644 C 350.078 -1.7236 -1.06865 0
M  V30 3645 C 350.411 -0.493231 -1.87832 0
M  V30 3646 O 349.686 0.5098 -1.877 0
M  V30 3647 C 349.969 -2.99621 -1.99747 0
M  V30 3648 C 349.822 -4.32899 -1.22143 0
M  V30 3649 C 351.141 -3.22615 -2.99345 0
M  V30 3650 H 348.26 -0.627151 -0.387105 0
M  V30 3651 H 350.902 -1.86827 -0.345767 0
M  V30 3652 H 349.052 -2.87418 -2.61387 0
M  V30 3653 H 350.724 -4.56978 -0.630017 0
M  V30 3654 H 348.967 -4.30628 -0.523628 0
M  V30 3655 H 349.638 -5.18154 -1.90318 0
M  V30 3656 H 352.114 -3.34248 -2.47826 0
M  V30 3657 H 350.99 -4.13027 -3.61524 0
M  V30 3658 H 351.251 -2.3961 -3.71536 0
M  V30 3659 N 350.31 0.590341 -1.46126 0
M  V30 3660 C 351.538 1.37504 -1.54597 0
M  V30 3661 C 351.953 1.87897 -0.184447 0
M  V30 3662 O 351.31 1.63192 0.816984 0
M  V30 3663 C 351.361 2.56779 -2.54454 0
M  V30 3664 O 351.082 2.08476 -3.85317 0
M  V30 3665 C 352.583 3.49427 -2.72792 0
M  V30 3666 H 349.803 0.420325 -0.523037 0
M  V30 3667 H 352.347 0.718383 -1.91467 0
M  V30 3668 H 350.502 3.1845 -2.20609 0
M  V30 3669 H 350.916 2.86097 -4.396 0
M  V30 3670 H 352.39 4.29619 -3.466 0
M  V30 3671 H 352.867 4.00876 -1.79429 0
M  V30 3672 H 353.473 2.93598 -3.07702 0
M  V30 3673 N 351.788 1.33704 0.83433 0
M  V30 3674 C 352.698 1.26382 1.97648 0
M  V30 3675 C 353.714 0.173548 1.73132 0
M  V30 3676 O 354.89 0.397962 1.97429 0
M  V30 3677 C 351.955 1.00769 3.31733 0
M  V30 3678 C 351.016 2.1884 3.69334 0
M  V30 3679 C 350.249 1.9444 4.9702 0
M  V30 3680 O 350.472 0.896961 5.63303 0
M  V30 3681 O 349.406 2.81093 5.32231 0
M  V30 3682 H 353.232 2.22444 2.06767 0
M  V30 3683 H 350.817 1.13795 0.968037 0
M  V30 3684 H 352.699 0.882186 4.12062 0
M  V30 3685 H 351.374 0.0773783 3.23608 0
M  V30 3686 H 350.281 2.36946 2.89495 0
M  V30 3687 H 351.614 3.10221 3.82131 0
M  V30 3688 N 353.266 -1.05314 1.17247 0
M  V30 3689 C 354.213 -2.13031 0.888058 0
M  V30 3690 C 355.183 -1.65253 -0.167537 0
M  V30 3691 O 356.368 -1.90775 -0.0305974 0
M  V30 3692 C 353.508 -3.42702 0.406147 0
M  V30 3693 C 352.621 -4.04161 1.52572 0
M  V30 3694 C 351.756 -5.21744 0.997808 0
M  V30 3695 C 350.795 -5.75207 2.09291 0
M  V30 3696 N 349.932 -6.84094 1.57986 0
M  V30 3697 H 354.772 -2.36698 1.81048 0
M  V30 3698 H 352.309 -1.16121 0.903013 0
M  V30 3699 H 354.267 -4.17059 0.108305 0
M  V30 3700 H 352.897 -3.19222 -0.479313 0
M  V30 3701 H 351.949 -3.27253 1.93931 0
M  V30 3702 H 353.261 -4.39881 2.35172 0
M  V30 3703 H 352.415 -6.03168 0.653739 0
M  V30 3704 H 351.154 -4.87495 0.141232 0
M  V30 3705 H 350.159 -4.92414 2.44557 0
M  V30 3706 H 351.384 -6.11505 2.95362 0
M  V30 3707 H 349.33 -6.51745 0.74598 0
M  V30 3708 H 349.247 -7.18811 2.34195 0
M  V30 3709 H 350.515 -7.69172 1.26468 0
M  V30 3710 N 354.744 -0.972509 -1.24016 0
M  V30 3711 C 355.992 -0.635776 -1.91839 0
M  V30 3712 C 356.313 0.832312 -1.76345 0
M  V30 3713 O 355.583 1.5946 -1.13795 0
M  V30 3714 H 354.163 -0.232157 -0.710009 0
M  V30 3715 H 356.825 -1.23462 -1.50809 0
M  V30 3716 H 355.921 -0.880545 -2.99421 0
M  V30 3717 N 356.222 1.38976 -0.743202 0
M  V30 3718 C 357.468 2.0064 -0.295189 0
M  V30 3719 C 357.801 1.5885 1.11716 0
M  V30 3720 O 357.076 0.821181 1.76315 0
M  V30 3721 C 357.359 3.578 -0.406318 0
M  V30 3722 C 357.212 4.09586 -1.85903 0
M  V30 3723 C 358.531 4.39616 0.206439 0
M  V30 3724 H 355.65 0.728935 -0.108733 0
M  V30 3725 H 358.292 1.65067 -0.940897 0
M  V30 3726 H 356.442 3.88235 0.143419 0
M  V30 3727 H 358.114 3.89837 -2.46627 0
M  V30 3728 H 356.357 3.6284 -2.3776 0
M  V30 3729 H 357.028 5.18708 -1.888 0
M  V30 3730 H 359.504 4.15273 -0.262283 0
M  V30 3731 H 358.38 5.48812 0.0983819 0
M  V30 3732 H 358.641 4.22754 1.2935 0
M  V30 3733 N 357.7 0.491464 1.49741 0
M  V30 3734 C 358.61 -0.296835 2.32715 0
M  V30 3735 C 359.626 -0.976536 1.44013 0
M  V30 3736 O 360.802 -0.960023 1.77047 0
M  V30 3737 C 357.867 -1.35288 3.19215 0
M  V30 3738 C 356.928 -0.687632 4.23757 0
M  V30 3739 C 356.161 -1.69336 5.06123 0
M  V30 3740 O 356.384 -2.92219 4.89861 0
M  V30 3741 O 355.318 -1.25394 5.88693 0
M  V30 3742 H 359.144 0.382048 3.01287 0
M  V30 3743 H 356.729 0.252953 1.47243 0
M  V30 3744 H 358.611 -1.96411 3.72828 0
M  V30 3745 H 357.286 -2.01487 2.53347 0
M  V30 3746 H 356.193 -0.0369159 3.74082 0
M  V30 3747 H 357.526 -0.0682566 4.92153 0
M  V30 3748 N 359.178 -1.55987 0.224894 0
M  V30 3749 C 360.427 -1.97566 -0.406273 0
M  V30 3750 C 360.74 -1.11569 -1.6066 0
M  V30 3751 O 361.946 -1.43062 -2.3075 0
M  V30 3752 C 360.402 -3.51474 -0.774207 0
M  V30 3753 C 360.01 -4.46179 0.403496 0
M  V30 3754 C 361.754 -4.01758 -1.37079 0
M  V30 3755 C 359.661 -5.91399 0.0129412 0
M  V30 3756 H 358.591 -0.737777 -0.155565 0
M  V30 3757 H 361.242 -1.80659 0.321635 0
M  V30 3758 H 359.624 -3.63994 -1.55963 0
M  V30 3759 H 360.798 -4.45409 1.18101 0
M  V30 3760 H 359.113 -4.06255 0.913536 0
M  V30 3761 H 361.71 -5.07756 -1.67596 0
M  V30 3762 H 362.053 -3.47805 -2.28773 0
M  V30 3763 H 362.586 -3.92475 -0.648733 0
M  V30 3764 H 359.325 -6.49341 0.896451 0
M  V30 3765 H 358.845 -5.95356 -0.728821 0
M  V30 3766 H 360.524 -6.45683 -0.412582 0
M  V30 3767 N 360.656 0.0484629 -1.57525 0
M  V30 3768 C 361.566 1.07241 -2.08654 0
M  V30 3769 C 362.582 1.409 -1.02095 0
M  V30 3770 O 363.758 1.50609 -1.33712 0
M  V30 3771 C 360.823 2.36008 -2.5397 0
M  V30 3772 C 359.884 2.09108 -3.7493 0
M  V30 3773 C 359.117 3.31736 -4.18075 0
M  V30 3774 O 359.34 4.41714 -3.60895 0
M  V30 3775 O 358.274 3.18576 -5.10679 0
M  V30 3776 H 362.1 0.667965 -2.96263 0
M  V30 3777 H 359.685 0.26417 -1.47046 0
M  V30 3778 H 361.567 3.11747 -2.83535 0
M  V30 3779 H 360.242 2.75786 -1.69481 0
M  V30 3780 H 359.149 1.31 -3.50414 0
M  V30 3781 H 360.482 1.74198 -4.60343 0
M  V30 3782 N 362.134 1.5431 0.320358 0
M  V30 3783 C 363.382 1.72327 1.05583 0
M  V30 3784 C 363.703 0.50149 1.88441 0
M  V30 3785 O 362.973 -0.48448 1.89815 0
M  V30 3786 H 361.553 0.635387 0.3928 0
M  V30 3787 H 364.215 1.91621 0.356019 0
M  V30 3788 H 363.311 2.60426 1.72003 0
M  V30 3789 N 363.613 -0.582584 1.46437 0
M  V30 3790 C 365.024 -1.1647 1.45916 0
M  V30 3791 C 365.375 -1.95177 0.200077 0
M  V30 3792 O 364.5 -2.04874 -0.696819 0
M  V30 3793 C 365.095 -2.11885 2.64367 0
M  V30 3794 C 363.654 -2.65421 2.66887 0
M  V30 3795 C 362.801 -1.41294 2.38603 0
M  V30 3796 H 365.752 -0.370514 1.54314 0
M  V30 3797 H 365.773 -2.9535 2.39892 0
M  V30 3798 H 365.285 -1.54573 3.5599 0
M  V30 3799 H 363.386 -3.26602 1.79338 0
M  V30 3800 H 363.499 -3.08147 3.66854 0
M  V30 3801 H 361.863 -1.71109 1.88663 0
M  V30 3802 H 362.646 -0.858125 3.32402 0
M  V30 3803 N 365.091 -1.34144 -0.827227 0
M  V30 3804 C 366.021 -1.28005 -1.95287 0
M  V30 3805 C 367.002 -0.158321 -1.69362 0
M  V30 3806 O 368.187 -0.349987 -1.9102 0
M  V30 3807 C 365.317 -1.03036 -3.31664 0
M  V30 3808 C 364.271 -2.11628 -3.72019 0
M  V30 3809 C 363.597 -1.71854 -5.0633 0
M  V30 3810 C 364.897 -3.53417 -3.8457 0
M  V30 3811 H 366.591 -2.22187 -2.00682 0
M  V30 3812 H 364.137 -1.0696 -0.964135 0
M  V30 3813 H 366.09 -0.973863 -4.09993 0
M  V30 3814 H 364.814 -0.0529391 -3.26557 0
M  V30 3815 H 363.473 -2.16339 -2.95961 0
M  V30 3816 H 363.121 -0.727841 -4.97706 0
M  V30 3817 H 362.821 -2.44531 -5.34302 0
M  V30 3818 H 364.345 -1.67692 -5.87122 0
M  V30 3819 H 365.759 -3.51142 -4.5318 0
M  V30 3820 H 364.156 -4.24679 -4.2399 0
M  V30 3821 H 365.226 -3.91072 -2.86689 0
M  V30 3822 N 366.569 1.04691 -1.17803 0
M  V30 3823 C 367.794 1.81984 -0.994813 0
M  V30 3824 C 368.219 1.82586 0.452112 0
M  V30 3825 O 367.577 1.23854 1.324 0
M  V30 3826 C 367.625 3.2575 -1.54659 0
M  V30 3827 O 366.729 4.05267 -0.763728 0
M  V30 3828 H 366.07 0.562483 -0.352857 0
M  V30 3829 H 368.6 1.3189 -1.56417 0
M  V30 3830 H 368.61 3.76541 -1.57102 0
M  V30 3831 H 367.285 3.24627 -2.59981 0
M  V30 3832 H 365.862 3.63972 -0.811108 0
M  V30 3833 N 368.047 0.979072 1.23499 0
M  V30 3834 C 369.275 0.665202 1.95915 0
M  V30 3835 C 369.69 -0.767571 1.72493 0
M  V30 3836 O 369.047 -1.51635 1.01554 0
M  V30 3837 C 369.098 0.944438 3.48945 0
M  V30 3838 O 368.819 2.3209 3.71572 0
M  V30 3839 C 370.32 0.646336 4.38563 0
M  V30 3840 H 367.54 0.247218 0.623798 0
M  V30 3841 H 370.084 1.31009 1.57025 0
M  V30 3842 H 368.239 0.345575 3.85856 0
M  V30 3843 H 368.653 2.40957 4.65876 0
M  V30 3844 H 370.127 0.892091 5.44744 0
M  V30 3845 H 370.604 -0.419575 4.37191 0
M  V30 3846 H 371.21 1.22562 4.07258 0
M  V30 3847 N 369.525 -1.3858 0.750561 0
M  V30 3848 C 370.435 -2.34278 0.122825 0
M  V30 3849 C 371.451 -1.59116 -0.704131 0
M  V30 3850 O 372.627 -1.91326 -0.628987 0
M  V30 3851 C 369.692 -3.38221 -0.762086 0
M  V30 3852 C 368.753 -4.29227 0.078896 0
M  V30 3853 C 367.986 -5.28205 -0.763874 0
M  V30 3854 O 368.209 -5.34112 -2.00201 0
M  V30 3855 O 367.143 -6.01618 -0.18428 0
M  V30 3856 H 370.969 -2.89649 0.913088 0
M  V30 3857 H 368.554 -1.40374 0.511417 0
M  V30 3858 H 370.436 -4.01872 -1.26793 0
M  V30 3859 H 369.111 -2.85211 -1.5309 0
M  V30 3860 H 368.018 -3.68747 0.630621 0
M  V30 3861 H 369.351 -4.85484 0.810289 0
M  V30 3862 N 371.003 -0.499398 -1.49478 0
M  V30 3863 C 372.231 0.0425456 -2.06856 0
M  V30 3864 C 372.646 1.30964 -1.35992 0
M  V30 3865 O 372.003 1.77172 -0.437762 0
M  V30 3866 C 372.054 0.301735 -3.60239 0
M  V30 3867 O 371.775 -0.915127 -4.28436 0
M  V30 3868 C 373.276 0.887499 -4.34325 0
M  V30 3869 H 370.496 -0.0197482 -0.670709 0
M  V30 3870 H 373.04 -0.696297 -1.92281 0
M  V30 3871 H 371.195 0.990556 -3.74522 0
M  V30 3872 H 371.609 -0.676993 -5.20113 0
M  V30 3873 H 373.083 1.01845 -5.42523 0
M  V30 3874 H 373.56 1.88488 -3.96698 0
M  V30 3875 H 374.166 0.236196 -4.24644 0
M  V30 3876 N 372.481 1.55866 -0.233164 0
M  V30 3877 C 373.429 2.22176 0.68851 0
M  V30 3878 C 374.423 1.20487 1.19076 0
M  V30 3879 O 375.629 1.38536 1.14925 0
M  V30 3880 H 372.004 0.712511 0.240483 0
M  V30 3881 H 373.975 2.98212 0.105935 0
M  V30 3882 C 372.724 2.92446 1.88071 0
M  V30 3883 H 372.047 3.70458 1.50337 0
M  V30 3884 H 373.487 3.42226 2.50314 0
M  V30 3885 C 371.946 1.95555 2.74335 0
M  V30 3886 O 372.476 1.47986 3.73447 0
M  V30 3887 N 370.682 1.62953 2.40613 0
M  V30 3888 H 370.229 2.01831 1.60069 0
M  V30 3889 H 370.187 0.983886 2.98609 0
M  V30 3890 N 373.959 -0.0401083 1.57549 0
M  V30 3891 C 375.205 -0.728793 1.89895 0
M  V30 3892 C 375.56 -1.73551 0.830535 0
M  V30 3893 O 374.853 -1.90914 -0.162007 0
M  V30 3894 C 375.047 -1.44902 3.26708 0
M  V30 3895 C 374.876 -0.513568 4.46758 0
M  V30 3896 C 373.646 -0.138698 5.0511 0
M  V30 3897 C 375.844 0.203341 5.13898 0
M  V30 3898 N 373.826 0.799159 6.08676 0
M  V30 3899 C 375.197 0.997246 6.11927 0
M  V30 3900 C 377.252 0.271459 4.97159 0
M  V30 3901 C 375.955 1.85299 6.95023 0
M  V30 3902 C 377.981 1.11429 5.80808 0
M  V30 3903 C 377.343 1.89615 6.78399 0
M  V30 3904 H 373.442 -0.241125 0.743897 0
M  V30 3905 H 376.026 0.0108016 1.94697 0
M  V30 3906 H 374.197 -2.15914 3.22856 0
M  V30 3907 H 375.929 -2.08921 3.46603 0
M  V30 3908 H 372.684 -0.498496 4.70969 0
M  V30 3909 H 373.108 1.26227 6.65128 0
M  V30 3910 H 377.75 -0.318709 4.21597 0
M  V30 3911 H 375.468 2.454 7.69938 0
M  V30 3912 H 379.054 1.17038 5.69906 0
M  V30 3913 H 377.934 2.53779 7.42001 0
M  V30 3914 N 375.437 -1.54477 -0.31217 0
M  V30 3915 C 376.714 -1.63891 -1.06767 0
M  V30 3916 C 377.094 -0.480028 -2.0557 0
M  V30 3917 O 376.442 0.524487 -2.22399 0
M  V30 3918 C 376.652 -3.01402 -1.75948 0
M  V30 3919 C 378 -3.57838 -2.28554 0
M  V30 3920 O 379.024 -3.03782 -1.85998 0
M  V30 3921 O 377.883 -4.52462 -3.06497 0
M  V30 3922 H 374.977 -0.664125 -0.492816 0
M  V30 3923 H 377.523 -1.66823 -0.311149 0
M  V30 3924 H 376.295 -3.77187 -1.04144 0
M  V30 3925 H 375.918 -3.02199 -2.58383 0
M  V30 3926 N 376.915 0.57481 -1.46744 0
M  V30 3927 C 378.164 1.32898 -1.51727 0
M  V30 3928 C 378.477 1.948 -0.176692 0
M  V30 3929 O 379.683 2.71299 -0.104385 0
M  V30 3930 C 378.139 2.40901 -2.67385 0
M  V30 3931 C 377.747 1.85266 -4.07898 0
M  V30 3932 C 379.491 3.17609 -2.81646 0
M  V30 3933 C 377.398 2.90945 -5.14883 0
M  V30 3934 H 376.328 0.499631 -0.564699 0
M  V30 3935 H 378.979 0.612536 -1.72975 0
M  V30 3936 H 377.361 3.15379 -2.39483 0
M  V30 3937 H 378.535 1.17278 -4.45626 0
M  V30 3938 H 376.85 1.21199 -3.98371 0
M  V30 3939 H 379.447 3.96493 -3.58744 0
M  V30 3940 H 379.79 3.70696 -1.89448 0
M  V30 3941 H 380.323 2.50239 -3.09233 0
M  V30 3942 H 377.062 2.42736 -6.089 0
M  V30 3943 H 376.582 3.57398 -4.81691 0
M  V30 3944 H 378.261 3.54755 -5.41071 0
M  V30 3945 N 378.394 1.34581 0.820102 0
M  V30 3946 C 379.357 1.2628 1.91275 0
M  V30 3947 C 380.357 0.177344 1.59819 0
M  V30 3948 O 381.547 0.430156 1.68806 0
M  V30 3949 C 378.679 0.950327 3.27386 0
M  V30 3950 H 379.872 2.23421 2.00057 0
M  V30 3951 H 377.425 1.1891 1.0144 0
M  V30 3952 H 378.16 -0.0177938 3.24295 0
M  V30 3953 H 377.945 1.73549 3.51601 0
M  V30 3954 H 379.435 0.917492 4.07396 0
M  V30 3955 N 379.872 -1.04064 1.18357 0
M  V30 3956 C 380.822 -2.10393 0.878561 0
M  V30 3957 C 381.806 -1.60183 -0.151713 0
M  V30 3958 O 382.998 -1.76923 0.0523303 0
M  V30 3959 C 380.127 -3.4089 0.406096 0
M  V30 3960 C 379.213 -3.97866 1.46844 0
M  V30 3961 N 379.604 -4.28657 2.68489 0
M  V30 3962 C 377.902 -4.2574 1.32896 0
M  V30 3963 C 378.603 -4.74253 3.36836 0
M  V30 3964 N 377.579 -4.75068 2.64219 0
M  V30 3965 H 381.381 -2.32076 1.80327 0
M  V30 3966 H 378.895 -1.21818 1.07397 0
M  V30 3967 H 380.892 -4.16557 0.169088 0
M  V30 3968 H 379.552 -3.20633 -0.512275 0
M  V30 3969 H 380.563 -4.18304 3.05356 0
M  V30 3970 H 377.24 -4.1481 0.473134 0
M  V30 3971 H 378.63 -5.07096 4.40798 0
M  V30 3972 N 381.35 -0.985608 -1.22978 0
M  V30 3973 C 382.283 -0.47487 -2.23204 0
M  V30 3974 C 383.261 0.460865 -1.55932 0
M  V30 3975 O 384.445 0.388105 -1.84461 0
M  V30 3976 C 381.572 0.312427 -3.37256 0
M  V30 3977 C 380.618 -0.568219 -4.22698 0
M  V30 3978 S 381.451 -2.01919 -4.95973 0
M  V30 3979 C 382.607 -1.24118 -6.1347 0
M  V30 3980 H 382.84 -1.32419 -2.66181 0
M  V30 3981 H 380.373 -0.792005 -1.32539 0
M  V30 3982 H 382.331 0.760645 -4.03391 0
M  V30 3983 H 380.992 1.13693 -2.92801 0
M  V30 3984 H 380.185 0.0371657 -5.03986 0
M  V30 3985 H 379.787 -0.952897 -3.61657 0
M  V30 3986 H 382.079 -0.505121 -6.75614 0
M  V30 3987 H 383.022 -2.02907 -6.78406 0
M  V30 3988 H 383.43 -0.757669 -5.59392 0
M  V30 3989 N 382.828 1.3818 -0.7579 0
M  V30 3990 C 384.077 1.99261 -0.312744 0
M  V30 3991 C 384.39 1.60846 1.11301 0
M  V30 3992 O 385.596 2.14929 1.65885 0
M  V30 3993 C 384.052 3.56294 -0.50821 0
M  V30 3994 C 383.66 4.03657 -1.94333 0
M  V30 3995 C 385.404 4.24313 -0.125982 0
M  V30 3996 C 383.311 5.53347 -2.08712 0
M  V30 3997 H 382.241 0.745456 -0.113185 0
M  V30 3998 H 384.892 1.57889 -0.935056 0
M  V30 3999 H 383.274 3.95575 0.183353 0
M  V30 4000 H 384.448 3.75655 -2.66871 0
M  V30 4001 H 382.763 3.48376 -2.28086 0
M  V30 4002 H 385.36 5.34279 -0.212125 0
M  V30 4003 H 385.703 4.05962 0.921964 0
M  V30 4004 H 386.236 3.90285 -0.769563 0
M  V30 4005 H 382.975 5.76607 -3.11777 0
M  V30 4006 H 382.495 5.83078 -1.4064 0
M  V30 4007 H 384.174 6.19111 -1.87912 0
M  V30 4008 N 384.306 0.507319 1.49211 0
M  V30 4009 C 385.531 -0.033725 2.07373 0
M  V30 4010 C 385.956 -1.29485 1.36437 0
M  V30 4011 O 385.314 -1.76294 0.423087 0
M  V30 4012 C 385.362 -0.263945 3.59633 0
M  V30 4013 O 384.466 -1.33737 3.90113 0
M  V30 4014 H 383.807 0.0290331 0.663365 0
M  V30 4015 H 386.337 0.708749 1.91932 0
M  V30 4016 H 386.347 -0.493536 4.05004 0
M  V30 4017 H 385.022 0.657424 4.10671 0
M  V30 4018 H 383.599 -1.09224 3.56545 0
M  V30 4019 N 385.784 -1.5574 0.241426 0
M  V30 4020 C 387.032 -1.98417 -0.384075 0
M  V30 4021 C 387.353 -1.13078 -1.58866 0
M  V30 4022 O 386.623 -0.212312 -1.94746 0
M  V30 4023 H 385.203 -0.732813 -0.144894 0
M  V30 4024 H 387.865 -1.9193 0.338943 0
M  V30 4025 H 386.961 -3.04219 -0.696939 0
M  V30 4026 N 387.262 0.0317525 -1.57568 0
M  V30 4027 C 388.509 0.723104 -1.89149 0
M  V30 4028 C 388.837 1.75504 -0.838377 0
M  V30 4029 O 388.092 1.95037 0.160982 0
M  V30 4030 C 388.391 1.43167 -3.27472 0
M  V30 4031 C 388.057 0.535972 -4.47703 0
M  V30 4032 C 386.719 0.289262 -4.8033 0
M  V30 4033 C 389.071 -0.0826125 -5.21135 0
M  V30 4034 C 386.399 -0.584853 -5.83778 0
M  V30 4035 C 388.751 -0.944414 -6.25511 0
M  V30 4036 C 387.415 -1.20061 -6.56614 0
M  V30 4037 H 386.685 0.264602 -0.692146 0
M  V30 4038 H 389.332 -0.0169496 -1.91492 0
M  V30 4039 H 387.637 2.24497 -3.21105 0
M  V30 4040 H 389.334 1.97209 -3.49155 0
M  V30 4041 H 385.924 0.738414 -4.22191 0
M  V30 4042 H 390.108 0.0950302 -4.96209 0
M  V30 4043 H 385.364 -0.79168 -6.06253 0
M  V30 4044 H 389.538 -1.43026 -6.81554 0
M  V30 4045 H 387.165 -1.87967 -7.36595 0
M  V30 4046 N 388.74 1.54641 0.303973 0
M  V30 4047 C 389.65 1.88439 1.39743 0
M  V30 4048 C 390.666 0.778239 1.55626 0
M  V30 4049 O 391.842 1.07442 1.70347 0
M  V30 4050 C 388.907 2.12212 2.74166 0
M  V30 4051 C 387.968 3.35936 2.67293 0
M  V30 4052 C 387.201 3.58566 3.95305 0
M  V30 4053 O 387.424 2.84263 4.9452 0
M  V30 4054 O 386.358 4.52078 3.97378 0
M  V30 4055 H 390.184 2.81458 1.14083 0
M  V30 4056 H 387.769 1.40793 0.499768 0
M  V30 4057 H 389.651 2.29067 3.53704 0
M  V30 4058 H 388.326 1.22379 2.99675 0
M  V30 4059 H 387.233 3.24448 1.86237 0
M  V30 4060 H 388.566 4.2589 2.46736 0
M  V30 4061 O 390.257 -0.449877 1.55108 0
M  V30 4062 H 390.948 -1.10376 1.59176 0
M  V30 END ATOM
M  V30 BEGIN BOND
M  V30 END BOND
M  V30 END CTAB
M  END
$$$$
