drugbank_target|P28305 Aminodeoxychorismate lyase (DB02038)
 OpenBabel12092120283D

  0  0  0     0  0            999 V3000
M  V30 BEGIN CTAB
M  V30 COUNTS 4155 4190 0 0 0
M  V30 BEGIN ATOM
M  V30 1 H -0.908 1.98254 -0.117106 0
M  V30 2 N 0 1.576 0 0
M  V30 3 C 0.933 2.03868 1.02534 0
M  V30 4 C 1.911 0.928543 1.3348 0
M  V30 5 O 3.095 1.19667 1.45644 0
M  V30 6 C 0.222 2.43627 2.35294 0
M  V30 7 C -0.732 3.65373 2.2001 0
M  V30 8 S 0.101 5.13292 1.52614 0
M  V30 9 C 1.257 5.56322 2.86805 0
M  V30 10 H 1.49 2.90518 0.631377 0
M  V30 11 H -0.977 1.52953 0.210867 0
M  V30 12 H 0.981 2.67203 3.11629 0
M  V30 13 H -0.358 1.57376 2.7183 0
M  V30 14 H -1.165 3.90944 3.18086 0
M  V30 15 H -1.563 3.418 1.51819 0
M  V30 16 H 0.729 5.58782 3.83104 0
M  V30 17 H 1.672 6.56266 2.65933 0
M  V30 18 H 2.08 4.83886 2.90714 0
M  V30 19 N 1.4781 -0.272755 1.55222 0
M  V30 20 C 2.7251 -1.00433 1.7584 0
M  V30 21 C 3.0531 -1.86275 0.559629 0
M  V30 22 O 2.3081 -1.90269 -0.457857 0
M  V30 23 C 2.6071 -1.91642 3.01675 0
M  V30 24 C 2.2731 -1.21548 4.34208 0
M  V30 25 C 0.9351 -1.02166 4.70229 0
M  V30 26 C 3.2871 -0.716684 5.16249 0
M  V30 27 C 0.6151 -0.316334 5.85847 0
M  V30 28 C 2.9671 -0.0249476 6.32595 0
M  V30 29 C 1.6311 0.180579 6.67256 0
M  V30 30 H 0.9011 -0.367509 0.643443 0
M  V30 31 H 3.5481 -0.276596 1.89492 0
M  V30 32 H 1.8531 -2.71037 2.82924 0
M  V30 33 H 3.5501 -2.48369 3.14824 0
M  V30 34 H 0.1401 -1.37645 4.05896 0
M  V30 35 H 4.3241 -0.854047 4.88896 0
M  V30 36 H -0.4199 -0.146378 6.11225 0
M  V30 37 H 3.7541 0.369311 6.9542 0
M  V30 38 H 1.3811 0.729098 7.56696 0
M  V30 39 N 2.9562 -1.48159 -0.537278 0
M  V30 40 C 3.8862 -1.65029 -1.6519 0
M  V30 41 C 4.8672 -0.499281 -1.62607 0
M  V30 42 O 6.0522 -0.730972 -1.79918 0
M  V30 43 C 3.1822 -1.68303 -3.03795 0
M  V30 44 C 2.1362 -2.8283 -3.21234 0
M  V30 45 C 1.4622 -2.71189 -4.60826 0
M  V30 46 C 2.7622 -4.24211 -3.04701 0
M  V30 47 H 4.4562 -2.58341 -1.51328 0
M  V30 48 H 2.0022 -1.24325 -0.726585 0
M  V30 49 H 3.9552 -1.78693 -3.81637 0
M  V30 50 H 2.6792 -0.715635 -3.18663 0
M  V30 51 H 1.3382 -2.71983 -2.45807 0
M  V30 52 H 0.9862 -1.72435 -4.7252 0
M  V30 53 H 0.6862 -3.48035 -4.7344 0
M  V30 54 H 2.2102 -2.83537 -5.40777 0
M  V30 55 H 3.6242 -4.3593 -3.72341 0
M  V30 56 H 2.0212 -5.01998 -3.28813 0
M  V30 57 H 3.0912 -4.41184 -2.01209 0
M  V30 58 N 4.4343 0.785586 -1.36625 0
M  V30 59 C 5.6833 1.53883 -1.30396 0
M  V30 60 C 5.9963 1.95271 0.113452 0
M  V30 61 O 7.2023 2.69858 0.298142 0
M  V30 62 C 5.6583 2.77808 -2.28802 0
M  V30 63 C 5.2663 2.43574 -3.75999 0
M  V30 64 C 7.0103 3.55783 -2.31558 0
M  V30 65 C 4.9173 3.63919 -4.66173 0
M  V30 66 H 3.8473 0.577678 -0.484566 0
M  V30 67 H 6.4983 0.861705 -1.62009 0
M  V30 68 H 4.8803 3.47339 -1.90188 0
M  V30 69 H 6.0543 1.81916 -4.23371 0
M  V30 70 H 4.3693 1.78803 -3.76056 0
M  V30 71 H 6.9663 4.45205 -2.96137 0
M  V30 72 H 7.3093 3.94644 -1.3252 0
M  V30 73 H 7.8423 2.93235 -2.68809 0
M  V30 74 H 4.5813 3.3015 -5.66287 0
M  V30 75 H 4.1013 4.2473 -4.23515 0
M  V30 76 H 5.7803 4.30901 -4.82632 0
M  V30 77 N 5.9124 1.20967 1.01018 0
M  V30 78 C 6.8604 0.961223 2.1181 0
M  V30 79 C 7.8544 -0.0897034 1.69162 0
M  V30 80 O 9.0604 0.0612271 1.79896 0
M  V30 81 H 5.4354 0.29355 0.692338 0
M  V30 82 H 7.4064 1.90178 2.29946 0
M  V30 83 C 6.1554 0.536854 3.4353 0
M  V30 84 H 5.4784 1.33713 3.76777 0
M  V30 85 H 6.9184 0.402286 4.22087 0
M  V30 86 C 5.3774 -0.751574 3.2841 0
M  V30 87 O 5.9074 -1.80841 3.58691 0
M  V30 88 N 4.1134 -0.716079 2.81639 0
M  V30 89 H 3.6604 0.144236 2.57196 0
M  V30 90 H 3.6184 -1.57847 2.71904 0
M  V30 91 N 7.3905 -1.2043 1.01659 0
M  V30 92 C 8.6385 -1.89423 0.704522 0
M  V30 93 C 8.9595 -1.79231 -0.768197 0
M  V30 94 O 8.2295 -1.1947 -1.55254 0
M  V30 95 H 6.8095 -0.701178 0.257602 0
M  V30 96 H 9.4715 -1.4626 1.28818 0
M  V30 97 H 8.5675 -2.96052 0.987916 0
M  V30 98 N 8.8686 -0.792821 -1.36206 0
M  V30 99 C 9.8186 -0.166598 -2.27391 0
M  V30 100 C 10.8026 0.651479 -1.47121 0
M  V30 101 O 11.9946 0.510994 -1.69463 0
M  V30 102 C 9.1236 0.695033 -3.36191 0
M  V30 103 C 8.2096 -0.132019 -4.23894 0
M  V30 104 N 8.6006 -1.18822 -4.91645 0
M  V30 105 C 6.8986 0.0885952 -4.45912 0
M  V30 106 C 7.5996 -1.69198 -5.56549 0
M  V30 107 N 6.5756 -1.00065 -5.34311 0
M  V30 108 H 10.3776 -0.974947 -2.77258 0
M  V30 109 H 7.8916 -0.632616 -1.49572 0
M  V30 110 H 9.8886 1.1596 -4.00448 0
M  V30 111 H 8.5486 1.50189 -2.87877 0
M  V30 112 H 9.5596 -1.57069 -4.93507 0
M  V30 113 H 6.2366 0.865688 -4.08426 0
M  V30 114 H 7.6266 -2.57395 -6.20643 0
M  V30 115 N 10.3467 1.47872 -0.545128 0
M  V30 116 C 11.2937 2.29849 0.2093 0
M  V30 117 C 12.2637 1.38313 0.919707 0
M  V30 118 O 13.4487 1.67277 0.917772 0
M  V30 119 C 10.5887 3.22019 1.24088 0
M  V30 120 C 9.7017 4.2864 0.537778 0
M  V30 121 C 8.8367 5.07973 1.5536 0
M  V30 122 C 7.8757 6.06381 0.8348 0
M  V30 123 N 7.0127 6.78717 1.79688 0
M  V30 124 H 11.8527 2.93845 -0.49591 0
M  V30 125 H 9.3897 1.44848 -0.256389 0
M  V30 126 H 11.3477 3.73868 1.85144 0
M  V30 127 H 9.9777 2.59914 1.91428 0
M  V30 128 H 9.0297 3.7994 -0.187046 0
M  V30 129 H 10.3417 4.98793 -0.0258907 0
M  V30 130 H 9.4957 5.63912 2.23803 0
M  V30 131 H 8.2347 4.37693 2.15118 0
M  V30 132 H 7.2397 5.49631 0.136388 0
M  V30 133 H 8.4647 6.78665 0.24313 0
M  V30 134 H 6.4107 6.11177 2.38326 0
M  V30 135 H 6.3277 7.44998 1.28505 0
M  V30 136 H 7.5957 7.39237 2.47282 0
M  V30 137 N 11.8248 0.280983 1.55075 0
M  V30 138 C 12.7568 -0.637268 2.20163 0
M  V30 139 C 13.7698 -1.11298 1.18813 0
M  V30 140 O 14.9588 -1.03388 1.4551 0
M  V30 141 C 12.0588 -1.88199 2.81841 0
M  V30 142 C 11.2318 -1.55211 4.08936 0
M  V30 143 C 10.2908 -2.64991 4.54606 0
M  V30 144 O 9.3168 -2.30929 5.2025 0
M  V30 145 N 10.5188 -3.95161 4.25238 0
M  V30 146 H 13.2838 -0.0801694 2.99593 0
M  V30 147 H 10.8448 0.102329 1.61576 0
M  V30 148 H 12.8368 -2.60948 3.09335 0
M  V30 149 H 11.4068 -2.34799 2.06369 0
M  V30 150 H 10.6268 -0.658185 3.88666 0
M  V30 151 H 11.9148 -1.30681 4.91732 0
M  V30 152 H 11.3128 -4.25653 3.72607 0
M  V30 153 H 9.8698 -4.6427 4.5749 0
M  V30 154 N 13.3029 -1.57598 0.00835791 0
M  V30 155 C 14.2129 -2.12385 -0.996487 0
M  V30 156 C 15.2289 -1.07108 -1.37127 0
M  V30 157 O 16.4049 -1.39055 -1.4569 0
M  V30 158 C 13.4699 -2.62314 -2.26699 0
M  V30 159 C 12.5309 -3.82225 -1.95456 0
M  V30 160 C 11.7639 -4.29763 -3.16449 0
M  V30 161 O 11.9869 -3.76584 -4.28416 0
M  V30 162 O 10.9209 -5.21832 -2.99958 0
M  V30 163 H 14.7469 -2.98479 -0.560725 0
M  V30 164 H 12.3319 -1.47903 -0.210987 0
M  V30 165 H 14.2139 -2.94589 -3.01322 0
M  V30 166 H 12.8889 -1.79313 -2.69497 0
M  V30 167 H 11.7959 -3.54909 -1.18282 0
M  V30 168 H 13.1289 -4.66324 -1.57489 0
M  V30 169 N 14.781 0.264519 -1.55364 0
M  V30 170 C 16.006 1.01726 -1.80739 0
M  V30 171 C 16.431 1.78836 -0.583044 0
M  V30 172 O 15.789 1.75167 0.467566 0
M  V30 173 C 15.837 1.94482 -3.03659 0
M  V30 174 O 14.941 3.03386 -2.7934 0
M  V30 175 H 14.282 0.290395 -0.597132 0
M  V30 176 H 16.812 0.290854 -2.02522 0
M  V30 177 H 16.822 2.36278 -3.32621 0
M  V30 178 H 15.497 1.37772 -3.92418 0
M  V30 179 H 14.074 2.65844 -2.61498 0
M  V30 180 N 16.2591 1.48442 0.529413 0
M  V30 181 C 17.1891 1.65902 1.64313 0
M  V30 182 C 18.1701 0.507897 1.6234 0
M  V30 183 O 19.3551 0.740503 1.79528 0
M  V30 184 C 16.4851 1.69911 3.02898 0
M  V30 185 C 15.4391 2.8453 3.19729 0
M  V30 186 C 14.7651 2.73629 4.59381 0
M  V30 187 C 16.0651 4.25821 3.02447 0
M  V30 188 H 17.7591 2.5914 1.49955 0
M  V30 189 H 15.3051 1.24709 0.719982 0
M  V30 190 H 17.2581 1.80715 3.80684 0
M  V30 191 H 15.9821 0.732524 3.18279 0
M  V30 192 H 14.6411 2.73283 2.44361 0
M  V30 193 H 14.2891 1.74938 4.71599 0
M  V30 194 H 13.9891 3.50541 4.71588 0
M  V30 195 H 15.5131 2.86401 5.39265 0
M  V30 196 H 16.9271 4.37898 3.70024 0
M  V30 197 H 15.3241 5.03735 3.26146 0
M  V30 198 H 16.3941 4.42244 1.98867 0
M  V30 199 N 17.7372 -0.778329 1.37039 0
M  V30 200 C 18.7002 -1.87301 1.32102 0
M  V30 201 C 19.7002 -1.59198 0.226405 0
M  V30 202 O 20.8902 -1.67403 0.481861 0
M  V30 203 C 18.0222 -3.24309 1.05055 0
M  V30 204 H 19.2152 -1.93093 2.29467 0
M  V30 205 H 16.7682 -0.977358 1.21973 0
M  V30 206 H 17.5032 -3.24196 0.0819373 0
M  V30 207 H 17.2882 -3.46098 1.84279 0
M  V30 208 H 18.7782 -4.04382 1.04234 0
M  V30 209 N 19.2153 -1.21501 -1.00376 0
M  V30 210 C 20.4613 -1.03452 -1.74429 0
M  V30 211 C 20.7943 0.430764 -1.89362 0
M  V30 212 O 20.0693 1.31962 -1.42886 0
M  V30 213 C 20.3523 -1.73375 -3.15615 0
M  V30 214 C 20.2053 -3.27431 -3.08397 0
M  V30 215 C 21.5243 -1.47732 -4.14564 0
M  V30 216 H 18.6433 -0.377226 -0.633143 0
M  V30 217 H 21.2853 -1.49693 -1.17013 0
M  V30 218 H 19.4353 -1.34064 -3.64636 0
M  V30 219 H 21.1073 -3.76119 -2.67081 0
M  V30 220 H 19.3503 -3.5767 -2.45468 0
M  V30 221 H 20.0213 -3.71524 -4.08258 0
M  V30 222 H 22.4973 -1.8186 -3.74254 0
M  V30 223 H 21.3733 -1.99169 -5.11491 0
M  V30 224 H 21.6343 -0.407589 -4.40217 0
M  V30 225 N 20.6934 1.19889 -1.02296 0
M  V30 226 C 21.9184 1.9393 -0.735237 0
M  V30 227 C 22.3434 1.74639 0.698782 0
M  V30 228 O 21.7014 1.04481 1.48167 0
M  V30 229 C 21.7494 3.43916 -1.08417 0
M  V30 230 O 20.8534 4.11917 -0.199446 0
M  V30 231 H 20.1944 0.605645 -0.272196 0
M  V30 232 H 22.7244 1.52137 -1.36804 0
M  V30 233 H 22.7344 3.9456 -1.03856 0
M  V30 234 H 21.4094 3.5728 -2.12894 0
M  V30 235 H 19.9864 3.71666 -0.303136 0
M  V30 236 N 22.1715 0.800033 1.35784 0
M  V30 237 C 23.4485 0.30088 1.93272 0
M  V30 238 C 23.8285 -1.20857 1.73081 0
M  V30 239 O 23.1765 -2.00502 1.09596 0
M  V30 240 C 23.3865 0.70511 3.41803 0
M  V30 241 C 24.7345 0.690871 4.18942 0
M  V30 242 O 25.7585 0.646244 3.50289 0
M  V30 243 O 24.6175 0.74332 5.41421 0
M  V30 244 H 21.7115 0.0771605 0.823393 0
M  V30 245 H 24.2575 0.88329 1.449 0
M  V30 246 H 23.0295 1.74571 3.50201 0
M  V30 247 H 22.6525 0.0971541 3.97481 0
M  V30 248 N 23.6496 -1.47581 0.552962 0
M  V30 249 C 25.0656 -1.5818 0.212424 0
M  V30 250 C 25.2656 -1.55213 -1.28496 0
M  V30 251 O 24.3216 -1.45329 -2.06484 0
M  V30 252 C 25.6346 -2.88865 0.835318 0
M  V30 253 C 27.1826 -3.0244 0.806156 0
M  V30 254 C 27.6576 -4.35819 1.40804 0
M  V30 255 N 29.1486 -4.42444 1.37103 0
M  V30 256 C 29.8836 -5.44202 1.80641 0
M  V30 257 N 29.3796 -6.52795 2.32015 0
M  V30 258 N 31.1726 -5.35222 1.71738 0
M  V30 259 H 23.3236 -1.47753 1.52587 0
M  V30 260 H 25.5866 -0.702941 0.636064 0
M  V30 261 H 25.2926 -2.9676 1.88749 0
M  V30 262 H 25.1666 -3.7579 0.325848 0
M  V30 263 H 27.5536 -2.94144 -0.237317 0
M  V30 264 H 27.6346 -2.17068 1.35334 0
M  V30 265 H 27.2786 -4.44871 2.45056 0
M  V30 266 H 27.2086 -5.19916 0.836338 0
M  V30 267 H 29.6996 -3.6456 0.995202 0
M  V30 268 H 30.0126 -7.26609 2.63171 0
M  V30 269 H 28.3576 -6.53696 2.36023 0
M  V30 270 H 31.5486 -4.49284 1.31382 0
M  V30 271 H 31.7216 -6.14389 2.05987 0
M  V30 272 N 25.1277 -0.289203 -1.54924 0
M  V30 273 C 26.0907 0.579144 -2.21762 0
M  V30 274 C 27.0907 1.07047 -1.1999 0
M  V30 275 O 28.2807 0.968384 -1.44803 0
M  V30 276 C 25.4127 1.80055 -2.8947 0
M  V30 277 H 26.6057 -0.00464908 -2.999 0
M  V30 278 H 24.1587 -0.0399306 -1.56249 0
M  V30 279 H 24.8937 2.42449 -2.15381 0
M  V30 280 H 24.6787 1.45602 -3.64064 0
M  V30 281 H 26.1687 2.41773 -3.40493 0
M  V30 282 N 26.6058 1.57591 -0.0167156 0
M  V30 283 C 27.8338 1.95575 0.675128 0
M  V30 284 C 28.2488 0.892542 1.6637 0
M  V30 285 O 27.6058 -0.126912 1.82058 0
M  V30 286 C 27.6568 3.33608 1.39239 0
M  V30 287 O 27.3778 4.3585 0.443444 0
M  V30 288 C 28.8788 3.86151 2.17721 0
M  V30 289 H 26.0988 0.644423 0.186978 0
M  V30 290 H 28.6428 2.0437 -0.0728 0
M  V30 291 H 26.7978 3.2607 2.09182 0
M  V30 292 H 27.2118 5.158 0.951358 0
M  V30 293 H 28.6858 4.85114 2.63379 0
M  V30 294 H 29.1628 3.19738 3.01105 0
M  V30 295 H 29.7688 3.96918 1.52761 0
M  V30 296 N 28.0839 -0.256276 1.55502 0
M  V30 297 C 29.0159 -1.33981 1.85962 0
M  V30 298 C 30.0289 -1.44743 0.745212 0
M  V30 299 O 31.2179 -1.4626 1.02324 0
M  V30 300 C 28.3179 -2.7194 2.02242 0
M  V30 301 C 27.4909 -2.83562 3.33033 0
M  V30 302 C 26.5499 -4.02304 3.39172 0
M  V30 303 O 25.5759 -3.92273 4.12444 0
M  V30 304 N 26.7779 -5.15045 2.67784 0
M  V30 305 H 29.5429 -1.08191 2.7949 0
M  V30 306 H 27.1039 -0.446388 1.55624 0
M  V30 307 H 29.0959 -3.49697 2.03701 0
M  V30 308 H 27.6659 -2.90479 1.15502 0
M  V30 309 H 26.8859 -1.92555 3.43971 0
M  V30 310 H 28.1739 -2.88271 4.19258 0
M  V30 311 H 27.5719 -5.26085 2.07968 0
M  V30 312 H 26.1289 -5.90972 2.74947 0
M  V30 313 N 29.562 -1.4872 -0.521534 0
M  V30 314 C 30.809 -1.57168 -1.27689 0
M  V30 315 C 31.137 -0.249275 -1.92896 0
M  V30 316 O 30.392 0.761162 -1.80291 0
M  V30 317 C 30.691 -2.66497 -2.38148 0
M  V30 318 C 30.357 -4.08664 -1.90538 0
M  V30 319 C 29.019 -4.47357 -1.77271 0
M  V30 320 C 31.371 -4.97724 -1.54663 0
M  V30 321 C 28.699 -5.72905 -1.26478 0
M  V30 322 C 31.051 -6.2377 -1.05329 0
M  V30 323 C 29.715 -6.61311 -0.906861 0
M  V30 324 H 28.985 -0.575117 -0.467249 0
M  V30 325 H 31.632 -1.82472 -0.581051 0
M  V30 326 H 29.937 -2.35085 -3.13437 0
M  V30 327 H 31.634 -2.70246 -2.96257 0
M  V30 328 H 28.224 -3.78111 -2.01816 0
M  V30 329 H 32.408 -4.68501 -1.63768 0
M  V30 330 H 27.664 -6.00709 -1.13835 0
M  V30 331 H 31.838 -6.9217 -0.76644 0
M  V30 332 H 29.465 -7.5848 -0.511083 0
M  V30 333 N 31.0401 0.771051 -1.3745 0
M  V30 334 C 32.2881 1.52661 -1.32435 0
M  V30 335 C 32.6091 1.9479 0.0905024 0
M  V30 336 O 31.8791 1.66348 1.03466 0
M  V30 337 H 30.4591 0.566218 -0.487244 0
M  V30 338 H 33.1211 0.917636 -1.71946 0
M  V30 339 H 32.2171 2.42568 -1.96385 0
M  V30 340 N 32.5182 1.22032 0.997298 0
M  V30 341 C 33.7952 0.950823 1.70935 0
M  V30 342 C 34.1752 -0.535292 2.042 0
M  V30 343 O 33.5232 -1.50217 1.72183 0
M  V30 344 C 33.7332 1.84386 2.96315 0
M  V30 345 C 35.0812 2.09732 3.69185 0
M  V30 346 O 36.1052 1.81798 3.06314 0
M  V30 347 O 34.9642 2.57018 4.82291 0
M  V30 348 H 32.0582 0.357204 0.745878 0
M  V30 349 H 34.6042 1.32997 1.05404 0
M  V30 350 H 33.3762 2.84928 2.68201 0
M  V30 351 H 32.9992 1.46602 3.69586 0
M  V30 352 N 33.9963 -1.19345 1.0293 0
M  V30 353 C 35.2443 -1.88665 0.724574 0
M  V30 354 C 35.5653 -1.80036 -0.749144 0
M  V30 355 O 34.8353 -1.2111 -1.53978 0
M  V30 356 H 33.4153 -0.698406 0.265025 0
M  V30 357 H 36.0773 -1.44885 1.30362 0
M  V30 358 H 35.1733 -2.94987 1.01926 0
M  V30 359 N 35.4744 -0.807222 -1.35358 0
M  V30 360 C 36.7144 -0.393534 -2.00576 0
M  V30 361 C 37.0784 1.0203 -1.62647 0
M  V30 362 O 38.2794 1.53603 -2.20589 0
M  V30 363 C 36.5504 -0.572017 -3.52793 0
M  V30 364 S 38.1094 -0.248845 -4.38094 0
M  V30 365 H 34.9274 -0.149425 -0.695121 0
M  V30 366 H 37.5294 -1.04961 -1.64935 0
M  V30 367 H 36.2334 -1.60097 -3.77885 0
M  V30 368 H 35.7644 0.099359 -3.93275 0
M  V30 369 H 37.7794 0.943253 -4.87152 0
M  V30 370 N 36.9525 1.47285 -0.560781 0
M  V30 371 C 38.1995 2.02464 -0.038062 0
M  V30 372 C 38.5275 1.43474 1.31322 0
M  V30 373 O 37.7825 0.581311 1.86867 0
M  V30 374 C 38.0815 3.57258 0.100784 0
M  V30 375 C 37.7475 4.35184 -1.18007 0
M  V30 376 C 36.4095 4.56194 -1.53103 0
M  V30 377 C 38.7615 4.80098 -2.02867 0
M  V30 378 C 36.0895 5.19367 -2.729 0
M  V30 379 C 38.4415 5.44593 -3.21871 0
M  V30 380 C 37.1055 5.63835 -3.57276 0
M  V30 381 H 36.3755 0.740869 -0.0139279 0
M  V30 382 H 39.0225 1.76916 -0.733012 0
M  V30 383 H 37.3275 3.81819 0.878724 0
M  V30 384 H 39.0245 3.97606 0.520639 0
M  V30 385 H 35.6145 4.19113 -0.8968 0
M  V30 386 H 39.7985 4.63642 -1.7706 0
M  V30 387 H 35.0545 5.32459 -3.00496 0
M  V30 388 H 39.2285 5.78358 -3.87911 0
M  V30 389 H 36.8555 6.12557 -4.50197 0
M  V30 390 N 38.4306 0.297415 1.54768 0
M  V30 391 C 39.6586 -0.315623 2.04478 0
M  V30 392 C 40.0736 -1.47792 1.17486 0
M  V30 393 O 39.4306 -1.81404 0.19971 0
M  V30 394 C 39.4816 -0.7753 3.53088 0
M  V30 395 O 39.2026 0.340732 4.36773 0
M  V30 396 C 40.7036 -1.45386 4.18781 0
M  V30 397 H 37.9236 -0.0690887 0.667434 0
M  V30 398 H 40.4676 0.436003 1.99798 0
M  V30 399 H 38.6226 -1.47696 3.58141 0
M  V30 400 H 39.0366 -0.0165035 5.24497 0
M  V30 401 H 40.5106 -1.72669 5.24299 0
M  V30 402 H 40.9876 -2.39275 3.68299 0
M  V30 403 H 41.5936 -0.795475 4.17795 0
M  V30 404 N 39.9087 -1.5758 0.0250728 0
M  V30 405 C 41.1367 -1.9593 -0.664747 0
M  V30 406 C 41.5517 -0.901352 -1.65895 0
M  V30 407 O 40.9087 0.117255 -1.82123 0
M  V30 408 C 40.9597 -3.34342 -1.37468 0
M  V30 409 O 40.6807 -4.36079 -0.420324 0
M  V30 410 C 42.1817 -3.873 -2.1567 0
M  V30 411 H 39.4017 -0.645405 -0.183557 0
M  V30 412 H 41.9457 -2.04329 0.0836372 0
M  V30 413 H 40.1007 -3.27175 -2.0745 0
M  V30 414 H 40.5147 -5.16297 -0.923991 0
M  V30 415 H 41.9887 -4.86504 -2.60803 0
M  V30 416 H 42.4657 -3.21331 -2.99405 0
M  V30 417 H 43.0717 -3.97723 -1.50654 0
M  V30 418 N 41.3868 0.248026 -1.55636 0
M  V30 419 C 42.3498 1.29044 -1.89421 0
M  V30 420 C 43.3498 1.41134 -0.770581 0
M  V30 421 O 44.5398 1.39854 -1.03858 0
M  V30 422 C 41.6718 2.66831 -2.12165 0
M  V30 423 H 42.8648 1.00305 -2.82629 0
M  V30 424 H 40.4178 0.487265 -1.48511 0
M  V30 425 H 41.1528 3.00711 -1.21422 0
M  V30 426 H 40.9378 2.59438 -2.93997 0
M  V30 427 H 42.4278 3.42103 -2.3949 0
M  V30 428 N 42.8649 1.48995 0.513639 0
M  V30 429 C 44.2809 1.35478 0.843682 0
M  V30 430 C 44.4809 0.378213 1.97919 0
M  V30 431 O 43.5369 -0.194689 2.51748 0
M  V30 432 C 44.8499 2.75901 1.1958 0
M  V30 433 C 46.3979 2.84509 1.30474 0
M  V30 434 C 46.8729 4.25671 1.69021 0
M  V30 435 N 48.3639 4.28422 1.76094 0
M  V30 436 C 49.0989 5.34601 2.07338 0
M  V30 437 N 48.5949 6.5104 2.36894 0
M  V30 438 N 50.3879 5.22007 2.08483 0
M  V30 439 H 42.5389 2.11092 -0.235328 0
M  V30 440 H 44.8019 0.947039 -0.0426669 0
M  V30 441 H 44.5079 3.49001 0.434913 0
M  V30 442 H 44.3819 3.10467 2.1422 0
M  V30 443 H 46.7689 2.11655 2.05637 0
M  V30 444 H 46.8499 2.53542 0.339155 0
M  V30 445 H 46.4939 4.99048 0.944135 0
M  V30 446 H 46.4239 4.54094 2.66658 0
M  V30 447 H 48.9149 3.44441 1.55464 0
M  V30 448 H 49.2279 7.2779 2.59887 0
M  V30 449 H 47.5729 6.54287 2.34378 0
M  V30 450 H 50.7639 4.30051 1.84861 0
M  V30 451 H 50.9369 6.04854 2.325 0
M  V30 452 N 44.343 -0.763751 1.37857 0
M  V30 453 C 45.589 -1.52483 1.33704 0
M  V30 454 C 45.922 -1.94051 -0.0759612 0
M  V30 455 O 45.197 -1.64675 -1.03501 0
M  V30 456 C 45.48 -2.78441 2.28348 0
M  V30 457 C 45.333 -2.43075 3.78463 0
M  V30 458 C 46.652 -3.80415 2.21298 0
M  V30 459 H 43.771 -0.553169 0.487005 0
M  V30 460 H 46.413 -0.875562 1.68624 0
M  V30 461 H 44.563 -3.33842 1.987 0
M  V30 462 H 46.235 -1.93527 4.18742 0
M  V30 463 H 44.478 -1.75666 3.96641 0
M  V30 464 H 45.149 -3.33149 4.40132 0
M  V30 465 H 47.625 -3.34527 2.47449 0
M  V30 466 H 46.501 -4.66257 2.89647 0
M  V30 467 H 46.762 -4.25262 1.20849 0
M  V30 468 N 45.8211 -1.22559 -0.990812 0
M  V30 469 C 47.0701 -1.04553 -1.72486 0
M  V30 470 C 47.3831 0.419349 -1.91052 0
M  V30 471 O 48.5891 0.719121 -2.61803 0
M  V30 472 C 47.0451 -1.82231 -3.10355 0
M  V30 473 C 46.6531 -3.32981 -2.99713 0
M  V30 474 C 48.3971 -1.7268 -3.87791 0
M  V30 475 C 46.3041 -4.03091 -4.32748 0
M  V30 476 H 45.2341 -0.387614 -0.646739 0
M  V30 477 H 47.8851 -1.46429 -1.10593 0
M  V30 478 H 46.2671 -1.33155 -3.72942 0
M  V30 479 H 47.4411 -3.89466 -2.46278 0
M  V30 480 H 45.7561 -3.43231 -2.35758 0
M  V30 481 H 48.3531 -2.22381 -4.86262 0
M  V30 482 H 48.6961 -0.687607 -4.10582 0
M  V30 483 H 49.2291 -2.1931 -3.31885 0
M  V30 484 H 45.9681 -5.07273 -4.15156 0
M  V30 485 H 45.4881 -3.51394 -4.86089 0
M  V30 486 H 47.1671 -4.08804 -5.01486 0
M  V30 487 N 47.2992 1.18797 -1.03562 0
M  V30 488 C 48.5762 1.84469 -0.650434 0
M  V30 489 C 48.9562 1.92319 0.870433 0
M  V30 490 O 48.3042 1.44528 1.76986 0
M  V30 491 C 48.5142 3.2306 -1.32036 0
M  V30 492 C 49.8622 3.9915 -1.44792 0
M  V30 493 O 50.8862 3.32481 -1.27806 0
M  V30 494 O 49.7452 5.18587 -1.72423 0
M  V30 495 H 46.8392 0.795251 -0.226946 0
M  V30 496 H 49.3852 1.26231 -1.13419 0
M  V30 497 H 48.1572 3.1222 -2.3587 0
M  V30 498 H 47.7802 3.88949 -0.8249 0
M  V30 499 N 48.7773 0.814389 1.34928 0
M  V30 500 C 50.0253 0.397636 1.9815 0
M  V30 501 C 50.3463 -1.04069 1.64908 0
M  V30 502 O 49.6163 -1.72121 0.93548 0
M  V30 503 H 48.1963 0.144043 0.732981 0
M  V30 504 H 50.8583 1.04195 1.6471 0
M  V30 505 H 49.9543 0.509688 3.0791 0
M  V30 506 N 50.2554 -1.46986 0.568584 0
M  V30 507 C 51.2024 -2.30153 -0.172707 0
M  V30 508 C 52.1724 -1.39759 -0.897586 0
M  V30 509 O 53.3574 -1.68716 -0.891044 0
M  V30 510 C 50.4974 -3.23952 -1.1895 0
M  V30 511 C 49.6104 -4.29441 -0.469517 0
M  V30 512 C 48.7454 -5.1038 -1.47259 0
M  V30 513 C 47.7844 -6.07632 -0.738225 0
M  V30 514 N 46.9214 -6.8149 -1.68868 0
M  V30 515 H 51.7614 -2.93019 0.542596 0
M  V30 516 H 49.2984 -1.44422 0.279401 0
M  V30 517 H 51.2564 -3.76767 -1.79173 0
M  V30 518 H 49.8864 -2.62926 -1.87269 0
M  V30 519 H 48.9384 -3.79594 0.247467 0
M  V30 520 H 50.2504 -4.98689 0.105241 0
M  V30 521 H 49.4044 -5.67402 -2.14803 0
M  V30 522 H 48.1434 -4.4106 -2.08128 0
M  V30 523 H 47.1484 -5.49778 -0.0489293 0
M  V30 524 H 48.3734 -6.78966 -0.135129 0
M  V30 525 H 46.3194 -6.14891 -2.28573 0
M  V30 526 H 46.2364 -7.46948 -1.16636 0
M  V30 527 H 47.5044 -7.43078 -2.3549 0
M  V30 528 N 51.7335 -0.305618 -1.54608 0
M  V30 529 C 52.9795 0.302746 -2.00528 0
M  V30 530 C 53.3125 1.53184 -1.19367 0
M  V30 531 O 52.5875 1.92598 -0.271321 0
M  V30 532 C 52.8705 0.654756 -3.54097 0
M  V30 533 C 52.7235 -0.583793 -4.45995 0
M  V30 534 C 54.0425 1.47947 -4.14487 0
M  V30 535 H 51.1615 0.108564 -0.72896 0
M  V30 536 H 53.8035 -0.418634 -1.85331 0
M  V30 537 H 51.9535 1.26935 -3.67178 0
M  V30 538 H 53.6255 -1.22224 -4.44814 0
M  V30 539 H 51.8685 -1.21615 -4.16404 0
M  V30 540 H 52.5395 -0.293287 -5.5122 0
M  V30 541 H 55.0155 0.96013 -4.04871 0
M  V30 542 H 53.8915 1.69454 -5.22088 0
M  V30 543 H 54.1525 2.47011 -3.66658 0
M  V30 544 N 53.2116 1.57565 -0.0334293 0
M  V30 545 C 54.4366 1.96689 0.657895 0
M  V30 546 C 54.8616 0.910057 1.64619 0
M  V30 547 O 54.2196 -0.128598 1.80843 0
M  V30 548 C 54.2676 3.34905 1.33683 0
M  V30 549 O 53.3716 3.31574 2.45219 0
M  V30 550 H 52.7126 0.641205 0.172489 0
M  V30 551 H 55.2426 2.04372 -0.0965621 0
M  V30 552 H 55.2526 3.71234 1.69262 0
M  V30 553 H 53.9276 4.11366 0.612411 0
M  V30 554 H 52.5046 3.06968 2.11719 0
M  V30 555 N 54.6897 -0.239769 1.55765 0
M  V30 556 C 55.6197 -1.30052 1.9393 0
M  V30 557 C 56.6007 -1.49839 0.805132 0
M  V30 558 O 57.7857 -1.62328 1.06599 0
M  V30 559 C 54.9157 -2.65391 2.2402 0
M  V30 560 C 53.8697 -2.60289 3.39755 0
M  V30 561 C 53.1957 -3.99489 3.55405 0
M  V30 562 C 54.4957 -2.16654 4.75246 0
M  V30 563 H 56.1897 -0.983573 2.82783 0
M  V30 564 H 53.7357 -0.471701 1.36055 0
M  V30 565 H 55.6887 -3.3974 2.49308 0
M  V30 566 H 54.4127 -2.98736 1.32 0
M  V30 567 H 53.0717 -1.88398 3.14487 0
M  V30 568 H 52.7197 -4.30112 2.60793 0
M  V30 569 H 52.4197 -3.96962 4.33238 0
M  V30 570 H 53.9437 -4.75528 3.83022 0
M  V30 571 H 55.3577 -2.80737 4.99859 0
M  V30 572 H 53.7547 -2.25223 5.56232 0
M  V30 573 H 54.8247 -1.11835 4.71827 0
M  V30 574 N 56.1678 -1.49265 -0.50573 0
M  V30 575 C 57.0978 -1.68495 -1.61653 0
M  V30 576 C 58.0788 -0.53366 -1.61512 0
M  V30 577 O 59.2638 -0.76897 -1.78327 0
M  V30 578 C 56.3938 -1.74709 -3.00157 0
M  V30 579 C 55.3478 -2.89581 -3.15162 0
M  V30 580 C 54.6738 -2.80903 -4.5497 0
M  V30 581 C 55.9738 -4.30578 -2.95634 0
M  V30 582 H 57.6678 -2.61493 -1.45814 0
M  V30 583 H 55.2138 -1.25838 -0.70005 0
M  V30 584 H 57.1668 -1.86748 -3.77761 0
M  V30 585 H 55.8908 -0.783067 -3.17074 0
M  V30 586 H 54.5498 -2.77136 -2.39982 0
M  V30 587 H 54.1978 -1.82419 -4.68756 0
M  V30 588 H 53.8978 -3.57999 -4.65951 0
M  V30 589 H 55.4218 -2.94944 -5.34641 0
M  V30 590 H 56.8358 -4.4373 -3.63011 0
M  V30 591 H 55.2328 -5.0886 -3.18091 0
M  V30 592 H 56.3028 -4.45352 -1.91806 0
M  V30 593 N 57.6459 0.756429 -1.3826 0
M  V30 594 C 58.8709 1.55077 -1.37717 0
M  V30 595 C 59.2959 1.88073 0.03164 0
M  V30 596 O 58.6539 1.50364 1.01293 0
M  V30 597 C 58.7019 2.8283 -2.23695 0
M  V30 598 O 57.8059 3.77862 -1.6521 0
M  V30 599 H 57.1469 0.469152 -0.469885 0
M  V30 600 H 59.6769 0.935019 -1.81985 0
M  V30 601 H 59.6869 3.31783 -2.37453 0
M  V30 602 H 58.3619 2.58144 -3.2609 0
M  V30 603 H 56.9389 3.36555 -1.60578 0
M  V30 604 N 59.124 1.23083 0.984299 0
M  V30 605 C 60.087 1.00979 2.05757 0
M  V30 606 C 61.087 -0.0269573 1.60777 0
M  V30 607 O 62.277 0.212403 1.729 0
M  V30 608 C 59.409 0.527072 3.36801 0
M  V30 609 H 60.602 1.9622 2.26799 0
M  V30 610 H 58.155 1.05072 1.15714 0
M  V30 611 H 58.89 -0.429294 3.21446 0
M  V30 612 H 58.675 1.27515 3.70786 0
M  V30 613 H 60.165 0.392942 4.15747 0
M  V30 614 N 60.6021 -1.18246 1.0419 0
M  V30 615 C 61.5521 -2.19843 0.604392 0
M  V30 616 C 62.5361 -1.56962 -0.353814 0
M  V30 617 O 63.7281 -1.76156 -0.17267 0
M  V30 618 C 60.8571 -3.43287 -0.0298975 0
M  V30 619 C 59.9431 -4.13288 0.951531 0
M  V30 620 N 60.3341 -4.59271 2.11906 0
M  V30 621 C 58.6321 -4.39165 0.7778 0
M  V30 622 C 59.3331 -5.13173 2.73912 0
M  V30 623 N 58.3091 -5.04763 2.01779 0
M  V30 624 H 62.1111 -2.53089 1.4941 0
M  V30 625 H 59.6251 -1.34465 0.910658 0
M  V30 626 H 61.6221 -4.15334 -0.361037 0
M  V30 627 H 60.2821 -3.11537 -0.915127 0
M  V30 628 H 61.2931 -4.5368 2.49789 0
M  V30 629 H 57.9701 -4.17461 -0.0572331 0
M  V30 630 H 59.3601 -5.58947 3.72864 0
M  V30 631 N 62.0802 -0.821533 -1.34494 0
M  V30 632 C 63.3292 -0.405355 -1.97585 0
M  V30 633 C 63.6422 1.03677 -1.65863 0
M  V30 634 O 64.8482 1.55679 -2.22433 0
M  V30 635 C 63.3042 -0.673861 -3.53535 0
M  V30 636 C 62.9122 -2.12951 -3.94152 0
M  V30 637 C 64.6562 -0.32378 -4.23263 0
M  V30 638 C 62.5632 -2.34298 -5.43009 0
M  V30 639 H 61.4932 -0.147836 -0.739365 0
M  V30 640 H 64.1442 -1.00769 -1.53355 0
M  V30 641 H 62.5262 -0.00137554 -3.96 0
M  V30 642 H 63.7002 -2.84104 -3.62797 0
M  V30 643 H 62.0152 -2.44089 -3.37356 0
M  V30 644 H 64.6122 -0.461126 -5.32708 0
M  V30 645 H 64.9552 0.731586 -4.09821 0
M  V30 646 H 65.4882 -0.950786 -3.8627 0
M  V30 647 H 62.2272 -3.38335 -5.61435 0
M  V30 648 H 61.7472 -1.67687 -5.75883 0
M  V30 649 H 63.4262 -2.16588 -6.09671 0
M  V30 650 N 63.5583 1.46682 -0.576371 0
M  V30 651 C 64.4903 2.28341 0.198231 0
M  V30 652 C 65.5033 1.38141 0.861453 0
M  V30 653 O 66.6923 1.62797 0.732082 0
M  V30 654 C 63.7923 3.12986 1.29972 0
M  V30 655 C 62.9653 4.31271 0.729639 0
M  V30 656 C 62.0243 4.97363 1.71803 0
M  V30 657 O 61.0503 5.55156 1.25658 0
M  V30 658 N 62.2523 4.93796 3.05198 0
M  V30 659 H 65.0173 2.9546 -0.502324 0
M  V30 660 H 62.5783 1.56525 -0.413715 0
M  V30 661 H 64.5703 3.54066 1.96008 0
M  V30 662 H 63.1403 2.47984 1.90323 0
M  V30 663 H 62.3603 3.94052 -0.108012 0
M  V30 664 H 63.6483 5.07739 0.328438 0
M  V30 665 H 63.0463 4.48077 3.45317 0
M  V30 666 H 61.6033 5.38837 3.6674 0
M  V30 667 N 65.0364 0.313813 1.54444 0
M  V30 668 C 66.4524 -0.0391619 1.59552 0
M  V30 669 C 66.6524 -1.51322 1.33056 0
M  V30 670 O 65.7084 -2.26782 1.11022 0
M  V30 671 C 67.0214 0.370302 2.98411 0
M  V30 672 C 68.5694 0.320139 3.11358 0
M  V30 673 C 69.0444 0.704617 4.52547 0
M  V30 674 N 70.5354 0.657645 4.58508 0
M  V30 675 C 71.2704 0.927453 5.6585 0
M  V30 676 N 70.7664 1.26389 6.81174 0
M  V30 677 N 72.5594 0.853662 5.5558 0
M  V30 678 H 64.7104 1.27433 1.69925 0
M  V30 679 H 66.9734 0.517511 0.794284 0
M  V30 680 H 66.6794 1.39694 3.22767 0
M  V30 681 H 66.5534 -0.269619 3.76235 0
M  V30 682 H 68.9404 -0.697275 2.86744 0
M  V30 683 H 69.0214 0.99486 2.35661 0
M  V30 684 H 68.6654 1.7199 4.77893 0
M  V30 685 H 68.5954 0.00768843 5.26599 0
M  V30 686 H 71.0864 0.409067 3.75679 0
M  V30 687 H 71.3994 1.4554 7.58972 0
M  V30 688 H 69.7444 1.30206 6.82694 0
M  V30 689 H 72.9354 0.590383 4.64362 0
M  V30 690 H 73.1084 1.0673 6.3915 0
M  V30 691 N 66.5145 -1.57545 0.0417849 0
M  V30 692 C 67.4445 -2.14009 -0.933929 0
M  V30 693 C 68.4255 -1.05938 -1.33083 0
M  V30 694 O 69.6105 -1.33833 -1.40721 0
M  V30 695 C 66.7405 -2.67747 -2.21199 0
M  V30 696 C 65.6945 -3.80718 -1.95544 0
M  V30 697 C 65.0205 -4.20935 -3.29724 0
M  V30 698 C 66.3205 -5.06258 -1.28452 0
M  V30 699 H 68.0145 -2.95788 -0.463645 0
M  V30 700 H 65.5605 -1.42285 -0.221573 0
M  V30 701 H 67.5135 -3.05886 -2.89848 0
M  V30 702 H 66.2375 -1.83147 -2.70416 0
M  V30 703 H 64.8965 -3.43037 -1.2931 0
M  V30 704 H 64.5445 -3.33298 -3.76724 0
M  V30 705 H 64.2445 -4.9707 -3.13361 0
M  V30 706 H 65.7685 -4.61666 -3.9962 0
M  V30 707 H 67.1825 -5.41903 -1.8712 0
M  V30 708 H 65.5795 -5.87475 -1.22445 0
M  V30 709 H 66.6495 -4.84207 -0.259219 0
M  V30 710 N 67.9926 0.231505 -1.5589 0
M  V30 711 C 68.9246 1.31006 -1.8807 0
M  V30 712 C 69.9376 1.43539 -0.768145 0
M  V30 713 O 71.1266 1.44614 -1.04638 0
M  V30 714 C 68.2266 2.68688 -2.06543 0
M  V30 715 C 67.3996 2.78228 -3.37502 0
M  V30 716 C 66.4586 3.96857 -3.4553 0
M  V30 717 O 65.4846 3.85662 -4.18633 0
M  V30 718 N 66.6866 5.1072 -2.75944 0
M  V30 719 H 69.4516 1.03731 -2.81176 0
M  V30 720 H 67.0126 0.421573 -1.56315 0
M  V30 721 H 69.0046 3.46412 -2.09239 0
M  V30 722 H 67.5746 2.88605 -1.20109 0
M  V30 723 H 66.7946 1.87059 -3.46991 0
M  V30 724 H 68.0826 2.81564 -4.23791 0
M  V30 725 H 67.4806 5.2271 -2.16311 0
M  V30 726 H 66.0376 5.86523 -2.84314 0
M  V30 727 N 69.4707 1.49531 0.497807 0
M  V30 728 C 70.7477 1.49682 1.25915 0
M  V30 729 C 71.1277 0.226339 2.09883 0
M  V30 730 O 70.4757 -0.791189 2.14365 0
M  V30 731 C 70.6857 2.77755 2.11313 0
M  V30 732 C 72.0337 3.27371 2.70395 0
M  V30 733 O 73.0577 2.78894 2.21578 0
M  V30 734 O 71.9167 4.11808 3.59272 0
M  V30 735 H 69.0107 0.599228 0.56996 0
M  V30 736 H 71.5567 1.61798 0.511816 0
M  V30 737 H 70.3287 3.61713 1.49264 0
M  V30 738 H 69.9517 2.68515 2.93233 0
M  V30 739 N 70.9488 -0.749086 1.3866 0
M  V30 740 C 71.9118 -1.84457 1.36045 0
M  V30 741 C 72.9118 -1.58682 0.260122 0
M  V30 742 O 74.1018 -1.66343 0.517261 0
M  V30 743 C 71.2338 -3.22008 1.11911 0
M  V30 744 H 72.4268 -1.88182 2.33512 0
M  V30 745 H 69.9798 -0.951266 1.24019 0
M  V30 746 H 70.7148 -3.2395 0.150686 0
M  V30 747 H 70.4998 -3.42111 1.91579 0
M  V30 748 H 71.9898 -4.0208 1.12788 0
M  V30 749 N 72.4269 -1.23603 -0.977757 0
M  V30 750 C 73.6669 -1.08148 -1.73446 0
M  V30 751 C 74.0309 0.374785 -1.88307 0
M  V30 752 O 75.2319 0.650588 -2.60808 0
M  V30 753 C 73.5029 -1.78991 -3.0935 0
M  V30 754 S 75.0619 -1.79141 -4.00567 0
M  V30 755 H 71.8799 -0.386987 -0.596458 0
M  V30 756 H 74.4819 -1.5678 -1.16792 0
M  V30 757 H 73.1859 -2.8408 -2.96187 0
M  V30 758 H 72.7169 -1.30651 -3.71071 0
M  V30 759 H 74.7319 -0.851892 -4.88833 0
M  V30 760 N 73.905 1.17692 -1.04816 0
M  V30 761 C 74.837 2.21103 -0.603822 0
M  V30 762 C 75.85 1.59411 0.33046 0
M  V30 763 O 77.039 1.7807 0.12379 0
M  V30 764 C 74.139 3.38623 0.136898 0
M  V30 765 C 73.312 4.29888 -0.807137 0
M  V30 766 C 72.371 5.26088 -0.10836 0
M  V30 767 O 71.397 5.64353 -0.741232 0
M  V30 768 N 72.599 5.68882 1.15558 0
M  V30 769 H 75.364 2.59848 -1.49329 0
M  V30 770 H 72.925 1.32553 -0.929587 0
M  V30 771 H 74.917 4.00009 0.614401 0
M  V30 772 H 73.487 2.98508 0.927993 0
M  V30 773 H 72.707 3.65993 -1.46434 0
M  V30 774 H 73.995 4.87759 -1.44807 0
M  V30 775 H 73.393 5.39861 1.69015 0
M  V30 776 H 71.95 6.32429 1.57722 0
M  V30 777 N 75.3831 0.828654 1.34056 0
M  V30 778 C 76.7991 0.515135 1.51058 0
M  V30 779 C 76.9991 -0.959581 1.77184 0
M  V30 780 O 76.0551 -1.74382 1.82612 0
M  V30 781 C 77.3681 1.37963 2.67183 0
M  V30 782 C 78.9161 1.37735 2.81066 0
M  V30 783 C 79.3911 2.22645 4.00241 0
M  V30 784 N 80.8821 2.203 4.07458 0
M  V30 785 C 81.6171 2.82744 4.98842 0
M  V30 786 N 81.1131 3.54201 5.9541 0
M  V30 787 N 82.9061 2.72268 4.91759 0
M  V30 788 H 75.0571 1.78343 1.15358 0
M  V30 789 H 77.3201 0.760304 0.566252 0
M  V30 790 H 77.0261 2.42714 2.54525 0
M  V30 791 H 76.9001 1.0484 3.62338 0
M  V30 792 H 79.2871 0.337593 2.93163 0
M  V30 793 H 79.3681 1.74859 1.86703 0
M  V30 794 H 79.0121 3.26674 3.88905 0
M  V30 795 H 78.9421 1.82869 4.93829 0
M  V30 796 H 81.4331 1.68327 3.38341 0
M  V30 797 H 81.7461 3.9908 6.61782 0
M  V30 798 H 80.0911 3.58308 5.95517 0
M  V30 799 H 83.2821 2.16014 4.15278 0
M  V30 800 H 83.4551 3.21219 5.62781 0
M  V30 801 N 76.8612 -1.46375 0.584142 0
M  V30 802 C 77.7912 -2.33103 -0.136037 0
M  V30 803 C 78.7722 -1.45431 -0.882255 0
M  V30 804 O 79.9572 -1.74246 -0.857434 0
M  V30 805 C 77.0872 -3.27731 -1.14933 0
M  V30 806 C 76.0412 -4.24855 -0.517862 0
M  V30 807 C 75.3672 -5.09001 -1.63773 0
M  V30 808 C 76.6672 -5.19439 0.545886 0
M  V30 809 H 78.3612 -2.93568 0.588086 0
M  V30 810 H 75.9072 -1.41166 0.284259 0
M  V30 811 H 77.8602 -3.87261 -1.66153 0
M  V30 812 H 76.5842 -2.65377 -1.90375 0
M  V30 813 H 75.2432 -3.6659 -0.0267361 0
M  V30 814 H 74.8912 -4.43031 -2.38185 0
M  V30 815 H 74.5912 -5.74777 -1.22085 0
M  V30 816 H 76.1152 -5.71396 -2.15266 0
M  V30 817 H 77.5292 -5.73177 0.118704 0
M  V30 818 H 75.9262 -5.93566 0.88317 0
M  V30 819 H 76.9962 -4.63285 1.43162 0
M  V30 820 N 78.3393 -0.321999 -1.54275 0
M  V30 821 C 79.2723 0.58718 -2.20516 0
M  V30 822 C 80.2503 1.11693 -1.18167 0
M  V30 823 O 81.4343 1.18122 -1.46899 0
M  V30 824 C 78.5613 1.80554 -2.86562 0
M  V30 825 C 77.6073 1.40718 -4.02617 0
M  V30 826 S 78.4403 0.445218 -5.33646 0
M  V30 827 C 79.5963 1.6709 -6.03185 0
M  V30 828 H 79.8293 0.0244875 -2.9729 0
M  V30 829 H 77.3623 -0.106087 -1.54035 0
M  V30 830 H 79.3203 2.50462 -3.25237 0
M  V30 831 H 77.9813 2.33942 -2.09595 0
M  V30 832 H 77.1743 2.31501 -4.47687 0
M  V30 833 H 76.7763 0.78782 -3.65608 0
M  V30 834 H 79.0683 2.60856 -6.25268 0
M  V30 835 H 80.0113 1.26239 -6.96756 0
M  V30 836 H 80.4193 1.85716 -5.33076 0
M  V30 837 N 79.8174 1.5752 -0.0501392 0
M  V30 838 C 81.0664 1.91827 0.623328 0
M  V30 839 C 81.3794 0.930222 1.72065 0
M  V30 840 O 82.5854 1.1653 2.4522 0
M  V30 841 C 81.0414 3.40692 1.16003 0
M  V30 842 C 80.6494 4.479 0.0948811 0
M  V30 843 C 82.3934 3.84034 1.80881 0
M  V30 844 C 80.3004 5.87879 0.644411 0
M  V30 845 H 79.2304 0.715918 0.236596 0
M  V30 846 H 81.8814 1.83115 -0.118861 0
M  V30 847 H 80.2634 3.44405 1.9545 0
M  V30 848 H 81.4374 4.55775 -0.678675 0
M  V30 849 H 79.7524 4.13892 -0.45637 0
M  V30 850 H 82.3494 4.85984 2.22988 0
M  V30 851 H 82.6924 3.20225 2.6601 0
M  V30 852 H 83.2254 3.82833 1.0809 0
M  V30 853 H 79.9644 6.55282 -0.169229 0
M  V30 854 H 79.4844 5.83567 1.38598 0
M  V30 855 H 81.1634 6.37098 1.12763 0
M  V30 856 N 81.2955 -0.223234 1.56011 0
M  V30 857 C 82.5205 -0.968978 1.83373 0
M  V30 858 C 82.9455 -1.77227 0.630254 0
M  V30 859 O 82.3035 -1.76345 -0.420959 0
M  V30 860 C 82.3515 -1.86363 3.08709 0
M  V30 861 O 81.4555 -2.95873 2.87285 0
M  V30 862 H 80.7965 -0.274461 0.604622 0
M  V30 863 H 83.3265 -0.237056 2.03222 0
M  V30 864 H 83.3365 -2.27376 3.38768 0
M  V30 865 H 82.0115 -1.27319 3.95933 0
M  V30 866 H 80.5885 -2.58818 2.68454 0
M  V30 867 N 82.7736 -1.49793 -0.48987 0
M  V30 868 C 84.0136 -1.61466 -1.25332 0
M  V30 869 C 84.3776 -0.299688 -1.89647 0
M  V30 870 O 85.5786 -0.291687 -2.67213 0
M  V30 871 C 83.8496 -2.74944 -2.28343 0
M  V30 872 S 85.4086 -3.06637 -3.13878 0
M  V30 873 H 82.2266 -0.569411 -0.425784 0
M  V30 874 H 84.8286 -1.875 -0.553541 0
M  V30 875 H 83.5326 -3.68994 -1.79643 0
M  V30 876 H 83.0636 -2.50938 -3.02975 0
M  V30 877 H 85.0786 -2.49015 -4.29192 0
M  V30 878 N 84.2517 0.741722 -1.39055 0
M  V30 879 C 85.5287 1.49252 -1.26425 0
M  V30 880 C 85.9087 2.10705 0.129144 0
M  V30 881 O 85.2567 1.98045 1.13976 0
M  V30 882 C 85.4667 2.54934 -2.38347 0
M  V30 883 C 86.8147 3.21506 -2.77343 0
M  V30 884 O 87.8387 2.65245 -2.37747 0
M  V30 885 O 86.6977 4.23294 -3.45665 0
M  V30 886 H 83.7917 0.662451 -0.495064 0
M  V30 887 H 86.3377 0.776121 -1.50912 0
M  V30 888 H 85.1097 2.07857 -3.31529 0
M  V30 889 H 84.7327 3.34141 -2.15489 0
M  V30 890 N 85.7298 1.2412 0.971189 0
M  V30 891 C 86.9768 1.07881 1.71371 0
M  V30 892 C 87.3048 -0.382901 1.90694 0
M  V30 893 O 86.5598 -1.29945 1.46331 0
M  V30 894 C 86.8588 1.75983 3.11071 0
M  V30 895 C 86.5248 3.25909 3.11599 0
M  V30 896 C 85.1868 3.66813 3.11451 0
M  V30 897 C 87.5388 4.21771 3.062 0
M  V30 898 C 84.8668 5.02021 3.03631 0
M  V30 899 C 87.2188 5.56982 2.99923 0
M  V30 900 C 85.8828 5.97237 2.98102 0
M  V30 901 H 85.1528 0.394764 0.62709 0
M  V30 902 H 87.7998 1.54176 1.13587 0
M  V30 903 H 86.1048 1.22072 3.72298 0
M  V30 904 H 87.8018 1.60887 3.6731 0
M  V30 905 H 84.3918 2.93353 3.12477 0
M  V30 906 H 88.5758 3.91172 3.05447 0
M  V30 907 H 83.8318 5.32411 3.0058 0
M  V30 908 H 88.0058 6.30969 2.94704 0
M  V30 909 H 85.6328 7.01967 2.91798 0
M  V30 910 N 87.2079 -1.17134 1.05439 0
M  V30 911 C 88.4539 -1.87979 0.776872 0
M  V30 912 C 88.8089 -1.7965 -0.688751 0
M  V30 913 O 88.1019 -1.19535 -1.4974 0
M  V30 914 C 88.2959 -3.36833 1.19491 0
M  V30 915 C 88.1249 -3.59653 2.69963 0
M  V30 916 C 86.8949 -3.76234 3.37307 0
M  V30 917 C 89.0929 -3.59091 3.68182 0
M  V30 918 N 87.0749 -3.86922 4.76618 0
M  V30 919 C 88.4459 -3.75659 4.93235 0
M  V30 920 C 90.5009 -3.42255 3.61616 0
M  V30 921 C 89.2039 -3.77133 6.12506 0
M  V30 922 C 91.2299 -3.45018 4.8033 0
M  V30 923 C 90.5919 -3.62096 6.04207 0
M  V30 924 H 86.6909 -0.705876 0.336546 0
M  V30 925 H 89.2749 -1.40602 1.34682 0
M  V30 926 H 87.4459 -3.82873 0.652884 0
M  V30 927 H 89.1779 -3.95305 0.866966 0
M  V30 928 H 85.9329 -3.76193 2.87708 0
M  V30 929 H 86.3569 -3.96055 5.49062 0
M  V30 930 H 90.9989 -3.27986 2.66805 0
M  V30 931 H 88.7169 -3.90186 7.07659 0
M  V30 932 H 92.3029 -3.33246 4.76905 0
M  V30 933 H 91.1829 -3.64142 6.94529 0
M  V30 934 N 88.686 -0.835752 -1.33615 0
M  V30 935 C 90.097 -0.487099 -1.80234 0
M  V30 936 C 90.448 0.993627 -1.69179 0
M  V30 937 O 89.573 1.77403 -1.23924 0
M  V30 938 C 90.168 -0.877385 -3.27242 0
M  V30 939 C 88.727 -0.580915 -3.7189 0
M  V30 940 C 87.874 -1.0874 -2.5509 0
M  V30 941 H 90.825 -1.02474 -1.2118 0
M  V30 942 H 90.846 -0.186195 -3.80044 0
M  V30 943 H 90.358 -1.95512 -3.35256 0
M  V30 944 H 88.459 0.486881 -3.69405 0
M  V30 945 H 88.572 -1.13396 -4.65487 0
M  V30 946 H 86.936 -0.508392 -2.49575 0
M  V30 947 H 87.719 -2.17184 -2.65868 0
M  V30 948 N 90.1641 1.46063 -0.591896 0
M  V30 949 C 91.0961 2.28539 0.174001 0
M  V30 950 C 92.1091 1.39047 0.846753 0
M  V30 951 O 93.2981 1.63564 0.714774 0
M  V30 952 C 90.3981 3.14347 1.26645 0
M  V30 953 C 89.5711 4.32021 0.683856 0
M  V30 954 C 88.6301 4.99157 1.66518 0
M  V30 955 O 87.6561 5.56458 1.19763 0
M  V30 956 N 88.8581 4.97005 2.99943 0
M  V30 957 H 91.6231 2.94911 -0.533633 0
M  V30 958 H 89.1841 1.56077 -0.430294 0
M  V30 959 H 91.1761 3.56125 1.92242 0
M  V30 960 H 89.7461 2.49988 1.87682 0
M  V30 961 H 88.9661 3.93915 -0.1498 0
M  V30 962 H 90.2541 5.08059 0.274567 0
M  V30 963 H 89.6521 4.51714 3.40545 0
M  V30 964 H 88.2091 5.42696 3.61004 0
M  V30 965 N 91.6422 0.330177 1.54103 0
M  V30 966 C 92.5722 -0.525353 2.27513 0
M  V30 967 C 93.5532 -1.11383 1.2856 0
M  V30 968 O 94.7382 -1.13773 1.57383 0
M  V30 969 C 91.8682 -1.6831 3.03791 0
M  V30 970 C 90.8222 -1.2236 4.10137 0
M  V30 971 C 90.1482 -2.46882 4.74293 0
M  V30 972 C 91.4482 -0.333697 5.21233 0
M  V30 973 H 93.1422 0.087013 2.99274 0
M  V30 974 H 90.6882 0.0432893 1.43935 0
M  V30 975 H 92.6412 -2.28795 3.5388 0
M  V30 976 H 91.3652 -2.32216 2.29659 0
M  V30 977 H 90.0242 -0.64165 3.60941 0
M  V30 978 H 89.6722 -3.09165 3.96769 0
M  V30 979 H 89.3722 -2.16825 5.46133 0
M  V30 980 H 90.8962 -3.08117 5.27159 0
M  V30 981 H 92.3102 -0.845013 5.67038 0
M  V30 982 H 90.7072 -0.125612 5.99969 0
M  V30 983 H 91.7772 0.633724 4.80741 0
M  V30 984 N 93.1203 -1.57491 0.0584922 0
M  V30 985 C 94.0303 -2.15448 -0.928414 0
M  V30 986 C 95.0463 -1.11416 -1.3365 0
M  V30 987 O 96.2223 -1.4362 -1.41193 0
M  V30 988 C 93.2873 -2.69393 -2.18239 0
M  V30 989 C 92.3483 -3.88249 -1.83196 0
M  V30 990 C 91.5813 -4.39613 -3.02616 0
M  V30 991 O 91.8043 -3.90023 -4.16219 0
M  V30 992 O 90.7383 -5.31111 -2.83204 0
M  V30 993 H 94.5643 -3.00112 -0.465483 0
M  V30 994 H 92.1493 -1.48499 -0.163826 0
M  V30 995 H 94.0313 -3.04026 -2.91798 0
M  V30 996 H 92.7063 -1.87796 -2.63656 0
M  V30 997 H 91.6133 -3.58492 -1.06931 0
M  V30 998 H 92.9463 -4.71098 -1.42573 0
M  V30 999 N 94.5984 0.214957 -1.56127 0
M  V30 1000 C 95.5304 1.29004 -1.89448 0
M  V30 1001 C 96.5434 1.42716 -0.783326 0
M  V30 1002 O 97.7324 1.43496 -1.06166 0
M  V30 1003 C 94.8324 2.66482 -2.09381 0
M  V30 1004 C 94.0054 2.74633 -3.40434 0
M  V30 1005 C 93.0644 3.9317 -3.49719 0
M  V30 1006 O 92.0904 3.812 -4.227 0
M  V30 1007 N 93.2924 5.07765 -2.81346 0
M  V30 1008 H 96.0574 1.00743 -2.82261 0
M  V30 1009 H 93.6184 0.40497 -1.56753 0
M  V30 1010 H 95.6104 3.44173 -2.12901 0
M  V30 1011 H 94.1804 2.87314 -1.23163 0
M  V30 1012 H 93.4004 1.83368 -3.48955 0
M  V30 1013 H 94.6884 2.77054 -4.26754 0
M  V30 1014 H 94.0864 5.20386 -2.21843 0
M  V30 1015 H 92.6434 5.83474 -2.90519 0
M  V30 1016 N 96.0765 1.50051 0.48192 0
M  V30 1017 C 96.9865 1.7089 1.60728 0
M  V30 1018 C 98.0025 0.591788 1.63627 0
M  V30 1019 O 99.1785 0.868817 1.81696 0
M  V30 1020 C 96.2435 1.78855 2.97005 0
M  V30 1021 C 95.3045 3.02537 3.04581 0
M  V30 1022 C 94.5375 3.10112 4.34357 0
M  V30 1023 O 94.7605 2.24765 5.24249 0
M  V30 1024 O 93.6945 4.02747 4.47301 0
M  V30 1025 H 97.5205 2.66264 1.46072 0
M  V30 1026 H 95.1055 1.34018 0.660264 0
M  V30 1027 H 96.9875 1.86336 3.77964 0
M  V30 1028 H 95.6625 0.866628 3.11883 0
M  V30 1029 H 94.5695 3.00563 2.22739 0
M  V30 1030 H 95.9025 3.94272 2.94636 0
M  V30 1031 N 97.5546 -0.734337 1.39446 0
M  V30 1032 C 98.4876 -1.85715 1.32609 0
M  V30 1033 C 99.4656 -1.6137 0.199636 0
M  V30 1034 O 100.65 -1.84626 0.380195 0
M  V30 1035 C 97.7766 -3.21709 1.05929 0
M  V30 1036 C 96.8226 -3.64913 2.20773 0
M  V30 1037 S 97.6556 -3.74203 3.83056 0
M  V30 1038 C 98.8116 -5.12986 3.58603 0
M  V30 1039 H 99.0446 -1.91232 2.27635 0
M  V30 1040 H 96.5776 -0.899263 1.25509 0
M  V30 1041 H 98.5356 -4.00236 0.912203 0
M  V30 1042 H 97.1966 -3.13848 0.125883 0
M  V30 1043 H 96.3896 -4.63606 1.97699 0
M  V30 1044 H 95.9916 -2.93593 2.31688 0
M  V30 1045 H 98.2836 -5.99339 3.15909 0
M  V30 1046 H 99.2266 -5.41088 4.5676 0
M  V30 1047 H 99.6346 -4.82694 2.9269 0
M  V30 1048 N 99.0327 -1.24633 -0.964593 0
M  V30 1049 C 99.9797 -1.04144 -2.05968 0
M  V30 1050 C 100.95 0.046262 -1.66036 0
M  V30 1051 O 102.135 -0.108972 -1.90489 0
M  V30 1052 C 99.2747 -0.65563 -3.38815 0
M  V30 1053 C 98.3877 -1.81714 -3.91923 0
M  V30 1054 C 97.5227 -1.37662 -5.13052 0
M  V30 1055 C 96.5617 -2.50788 -5.58365 0
M  V30 1056 N 95.6987 -2.07582 -6.70712 0
M  V30 1057 H 100.539 -1.9787 -2.22827 0
M  V30 1058 H 98.0757 -0.9855 -1.09208 0
M  V30 1059 H 100.034 -0.412954 -4.15151 0
M  V30 1060 H 98.6637 0.244627 -3.21872 0
M  V30 1061 H 97.7157 -2.1734 -3.12198 0
M  V30 1062 H 99.0277 -2.66705 -4.21509 0
M  V30 1063 H 98.1817 -1.093 -5.96773 0
M  V30 1064 H 96.9207 -0.497293 -4.85158 0
M  V30 1065 H 95.9257 -2.79906 -4.73215 0
M  V30 1066 H 97.1507 -3.39283 -5.88272 0
M  V30 1067 H 95.0967 -1.22051 -6.44546 0
M  V30 1068 H 95.0137 -2.86125 -6.99763 0
M  V30 1069 H 96.2817 -1.82369 -7.57867 0
M  V30 1070 N 100.511 1.16574 -1.06058 0
M  V30 1071 C 101.739 1.90952 -0.796552 0
M  V30 1072 C 102.154 1.77302 0.648808 0
M  V30 1073 O 101.511 1.11605 1.44397 0
M  V30 1074 C 101.562 3.41736 -1.17894 0
M  V30 1075 O 101.283 3.54975 -2.56758 0
M  V30 1076 C 102.784 4.33169 -0.942308 0
M  V30 1077 H 100.004 0.605594 -0.288959 0
M  V30 1078 H 102.548 1.47777 -1.41358 0
M  V30 1079 H 100.703 3.82623 -0.606491 0
M  V30 1080 H 101.117 4.4846 -2.72 0
M  V30 1081 H 102.591 5.37439 -1.25952 0
M  V30 1082 H 103.068 4.3903 0.122078 0
M  V30 1083 H 103.674 3.98007 -1.49902 0
M  V30 1084 N 101.989 0.842826 1.3317 0
M  V30 1085 C 102.919 0.294028 2.31641 0
M  V30 1086 C 103.9 -0.600401 1.59151 0
M  V30 1087 O 105.085 -0.523124 1.87022 0
M  V30 1088 C 102.215 -0.528416 3.43257 0
M  V30 1089 C 101.169 0.27056 4.27144 0
M  V30 1090 C 100.495 -0.675881 5.30411 0
M  V30 1091 C 101.795 1.48981 5.00602 0
M  V30 1092 H 103.489 1.11681 2.77791 0
M  V30 1093 H 101.035 0.538478 1.33553 0
M  V30 1094 H 102.988 -0.922674 4.11175 0
M  V30 1095 H 101.712 -1.38445 2.95805 0
M  V30 1096 H 100.371 0.646427 3.60856 0
M  V30 1097 H 100.019 -1.52842 4.79216 0
M  V30 1098 H 99.7189 -0.145374 5.8742 0
M  V30 1099 H 101.243 -1.06757 6.01195 0
M  V30 1100 H 102.657 1.16849 5.61266 0
M  V30 1101 H 101.054 1.95739 5.6728 0
M  V30 1102 H 102.124 2.25746 4.29147 0
M  V30 1103 N 103.467 -1.45747 0.599634 0
M  V30 1104 C 104.43 -2.28917 -0.113835 0
M  V30 1105 C 105.43 -1.3933 -0.802729 0
M  V30 1106 O 106.62 -1.61534 -0.652103 0
M  V30 1107 C 103.752 -3.20152 -1.17114 0
M  V30 1108 H 104.945 -2.93478 0.617289 0
M  V30 1109 H 102.498 -1.52137 0.358327 0
M  V30 1110 H 103.233 -2.60374 -1.93329 0
M  V30 1111 H 103.018 -3.86133 -0.681468 0
M  V30 1112 H 104.508 -3.82708 -1.67105 0
M  V30 1113 N 104.945 -0.338344 -1.53925 0
M  V30 1114 C 105.908 0.508299 -2.23493 0
M  V30 1115 C 106.908 1.03175 -1.23335 0
M  V30 1116 O 108.098 0.921826 -1.47811 0
M  V30 1117 C 105.23 1.70754 -2.95052 0
M  V30 1118 H 106.423 -0.100058 -2.99733 0
M  V30 1119 H 103.976 -0.0896198 -1.56043 0
M  V30 1120 H 104.711 2.35474 -2.22986 0
M  V30 1121 H 104.496 1.33946 -3.68512 0
M  V30 1122 H 105.986 2.30818 -3.48013 0
M  V30 1123 N 106.423 1.57458 -0.0668435 0
M  V30 1124 C 107.333 2.15937 0.916975 0
M  V30 1125 C 108.349 1.12123 1.33058 0
M  V30 1126 O 109.525 1.44366 1.40429 0
M  V30 1127 C 106.59 2.70547 2.16807 0
M  V30 1128 C 105.651 3.89215 1.81135 0
M  V30 1129 C 104.884 4.41211 3.0028 0
M  V30 1130 O 105.107 3.92225 4.14144 0
M  V30 1131 O 104.041 5.32605 2.80384 0
M  V30 1132 H 107.867 3.00354 0.449561 0
M  V30 1133 H 105.452 1.48584 0.155949 0
M  V30 1134 H 107.334 3.0557 2.90181 0
M  V30 1135 H 106.009 1.89192 2.62656 0
M  V30 1136 H 104.916 3.59054 1.05028 0
M  V30 1137 H 106.249 4.71848 1.40073 0
M  V30 1138 N 107.901 -0.206675 1.56239 0
M  V30 1139 C 108.833 -1.27997 1.9013 0
M  V30 1140 C 109.846 -1.42299 0.790883 0
M  V30 1141 O 111.035 -1.42931 1.06925 0
M  V30 1142 C 108.135 -2.65368 2.10792 0
M  V30 1143 C 107.308 -2.72824 3.41886 0
M  V30 1144 C 106.367 -3.9131 3.51799 0
M  V30 1145 O 105.393 -3.78953 4.24716 0
M  V30 1146 N 106.595 -5.06265 2.84035 0
M  V30 1147 H 109.36 -0.992444 2.82791 0
M  V30 1148 H 106.921 -0.396652 1.56966 0
M  V30 1149 H 108.913 -3.43039 2.14724 0
M  V30 1150 H 107.483 -2.86657 1.24685 0
M  V30 1151 H 106.703 -1.81515 3.49923 0
M  V30 1152 H 107.991 -2.74786 4.28217 0
M  V30 1153 H 107.389 -5.19203 2.246 0
M  V30 1154 H 105.946 -5.81925 2.93609 0
M  V30 1155 N 109.379 -1.50304 -0.473955 0
M  V30 1156 C 110.311 -1.65109 -1.58971 0
M  V30 1157 C 111.324 -0.532676 -1.53839 0
M  V30 1158 O 112.513 -0.805751 -1.59279 0
M  V30 1159 C 109.613 -1.61684 -2.97845 0
M  V30 1160 C 108.786 -2.8951 -3.27876 0
M  V30 1161 C 107.845 -2.78768 -4.4629 0
M  V30 1162 O 106.871 -3.52722 -4.46739 0
M  V30 1163 N 108.073 -1.9213 -5.47783 0
M  V30 1164 H 110.838 -2.61347 -1.46689 0
M  V30 1165 H 108.399 -1.47732 -0.662324 0
M  V30 1166 H 110.391 -1.52114 -3.75024 0
M  V30 1167 H 108.961 -0.731925 -3.03911 0
M  V30 1168 H 108.181 -3.13228 -2.39336 0
M  V30 1169 H 109.469 -3.74199 -3.4475 0
M  V30 1170 H 108.867 -1.31353 -5.50239 0
M  V30 1171 H 107.424 -1.88466 -6.23958 0
M  V30 1172 N 110.857 0.726932 -1.39834 0
M  V30 1173 C 111.805 1.86235 -1.39353 0
M  V30 1174 C 112.799 1.67144 -0.275555 0
M  V30 1175 O 114.005 1.74387 -0.44601 0
M  V30 1176 H 110.38 0.613174 -0.43534 0
M  V30 1177 H 112.351 1.83756 -2.35109 0
M  V30 1178 C 111.1 3.23995 -1.26185 0
M  V30 1179 H 110.423 3.39285 -2.11484 0
M  V30 1180 H 111.863 4.03609 -1.29907 0
M  V30 1181 C 110.322 3.36888 0.0290018 0
M  V30 1182 O 110.852 3.89152 0.99619 0
M  V30 1183 N 109.058 2.90446 0.0947437 0
M  V30 1184 H 108.605 2.48102 -0.693035 0
M  V30 1185 H 108.563 2.99451 0.957932 0
M  V30 1186 N 112.336 1.25143 0.95797 0
M  V30 1187 C 113.584 1.09476 1.69881 0
M  V30 1188 C 113.905 -0.365502 1.91544 0
M  V30 1189 O 113.175 -1.25985 1.50015 0
M  V30 1190 H 111.755 0.402128 0.629525 0
M  V30 1191 H 114.417 1.57214 1.15194 0
M  V30 1192 H 113.513 1.60046 2.6794 0
M  V30 1193 N 113.814 -1.1601 1.06675 0
M  V30 1194 C 115.06 -1.86909 0.786945 0
M  V30 1195 C 115.393 -1.81717 -0.685018 0
M  V30 1196 O 114.668 -1.23551 -1.50218 0
M  V30 1197 C 114.951 -3.36313 1.28707 0
M  V30 1198 C 114.804 -3.50175 2.82308 0
M  V30 1199 C 116.123 -4.3084 0.898071 0
M  V30 1200 H 113.242 -0.678677 0.287343 0
M  V30 1201 H 115.884 -1.36336 1.32334 0
M  V30 1202 H 114.034 -3.79513 0.830768 0
M  V30 1203 H 115.706 -3.15886 3.36175 0
M  V30 1204 H 113.949 -2.91959 3.20847 0
M  V30 1205 H 114.62 -4.55116 3.12368 0
M  V30 1206 H 117.096 -3.95561 1.29114 0
M  V30 1207 H 115.972 -5.33876 1.27543 0
M  V30 1208 H 116.233 -4.41662 -0.196651 0
M  V30 1209 N 115.292 -0.849877 -1.32721 0
M  V30 1210 C 116.222 -0.306308 -2.31482 0
M  V30 1211 C 117.203 0.591952 -1.59468 0
M  V30 1212 O 118.388 0.513199 -1.87296 0
M  V30 1213 C 115.518 0.510204 -3.43532 0
M  V30 1214 C 114.472 -0.293209 -4.26994 0
M  V30 1215 C 113.798 0.647743 -5.30762 0
M  V30 1216 C 115.098 -1.51634 -4.99804 0
M  V30 1217 H 116.792 -1.13153 -2.77195 0
M  V30 1218 H 114.338 -0.545553 -1.33266 0
M  V30 1219 H 116.291 0.900856 -4.11658 0
M  V30 1220 H 115.015 1.36874 -2.96535 0
M  V30 1221 H 113.674 -0.665555 -3.60508 0
M  V30 1222 H 113.322 1.50299 -4.8002 0
M  V30 1223 H 113.022 0.11422 -5.87489 0
M  V30 1224 H 114.546 1.03567 -6.01753 0
M  V30 1225 H 115.96 -1.19824 -5.60638 0
M  V30 1226 H 114.357 -1.98745 -5.66234 0
M  V30 1227 H 115.427 -2.28018 -4.27943 0
M  V30 1228 N 116.77 1.45427 -0.607355 0
M  V30 1229 C 117.717 2.3053 0.111625 0
M  V30 1230 C 118.687 1.4209 0.860216 0
M  V30 1231 O 119.872 1.71019 0.845998 0
M  V30 1232 C 117.012 3.26992 1.10319 0
M  V30 1233 C 116.125 4.30535 0.355493 0
M  V30 1234 C 115.26 5.14105 1.33676 0
M  V30 1235 C 114.299 6.09376 0.576862 0
M  V30 1236 N 113.436 6.85727 1.5074 0
M  V30 1237 H 118.276 2.91477 -0.620093 0
M  V30 1238 H 115.813 1.43631 -0.317594 0
M  V30 1239 H 117.771 3.81385 1.6912 0
M  V30 1240 H 116.401 2.67799 1.80232 0
M  V30 1241 H 115.453 3.78805 -0.348023 0
M  V30 1242 H 116.765 4.98235 -0.237423 0
M  V30 1243 H 115.919 5.72897 1.99684 0
M  V30 1244 H 114.658 4.46423 1.9636 0
M  V30 1245 H 113.663 5.49715 -0.0968519 0
M  V30 1246 H 114.888 6.79085 -0.0449341 0
M  V30 1247 H 112.834 6.20735 2.12189 0
M  V30 1248 H 112.751 7.49778 0.967913 0
M  V30 1249 H 114.019 7.4906 2.15706 0
M  V30 1250 N 118.248 0.346503 1.53744 0
M  V30 1251 C 119.494 -0.249473 2.0126 0
M  V30 1252 C 119.827 -1.49965 1.23386 0
M  V30 1253 O 119.102 -1.91811 0.32229 0
M  V30 1254 C 119.385 -0.560643 3.55709 0
M  V30 1255 C 119.238 0.701836 4.44291 0
M  V30 1256 C 120.557 -1.36905 4.18264 0
M  V30 1257 H 117.676 -0.0891987 0.731582 0
M  V30 1258 H 120.318 0.467624 1.84156 0
M  V30 1259 H 118.468 -1.17156 3.70414 0
M  V30 1260 H 120.14 1.33974 4.41417 0
M  V30 1261 H 118.383 1.32612 4.13033 0
M  V30 1262 H 119.054 0.43933 5.50249 0
M  V30 1263 H 121.53 -0.852448 4.07275 0
M  V30 1264 H 120.406 -1.55553 5.26398 0
M  V30 1265 H 120.667 -2.37203 3.73078 0
M  V30 1266 N 119.726 -1.57421 0.075193 0
M  V30 1267 C 120.972 -1.93905 -0.594025 0
M  V30 1268 C 121.305 -0.955701 -1.69056 0
M  V30 1269 O 120.58 0.0145373 -1.94495 0
M  V30 1270 C 120.863 -3.40638 -1.1678 0
M  V30 1271 C 120.716 -4.49733 -0.0776792 0
M  V30 1272 C 122.035 -3.88259 -2.07228 0
M  V30 1273 H 119.154 -0.705105 -0.214466 0
M  V30 1274 H 121.796 -1.8947 0.141854 0
M  V30 1275 H 119.946 -3.44549 -1.79494 0
M  V30 1276 H 121.618 -4.57942 0.555573 0
M  V30 1277 H 119.861 -4.29751 0.591286 0
M  V30 1278 H 120.532 -5.49549 -0.519603 0
M  V30 1279 H 123.008 -3.86376 -1.54445 0
M  V30 1280 H 121.884 -4.91533 -2.44308 0
M  V30 1281 H 122.145 -3.26396 -2.98191 0
M  V30 1282 N 121.204 0.198386 -1.56346 0
M  V30 1283 C 122.453 0.917451 -1.79627 0
M  V30 1284 C 122.766 1.8456 -0.64784 0
M  V30 1285 O 123.972 2.60504 -0.764859 0
M  V30 1286 C 122.428 1.68175 -3.18191 0
M  V30 1287 C 122.036 0.798589 -4.40825 0
M  V30 1288 C 123.78 2.39065 -3.50782 0
M  V30 1289 C 121.687 1.56157 -5.70411 0
M  V30 1290 H 120.617 0.346317 -0.669762 0
M  V30 1291 H 123.268 0.170801 -1.82703 0
M  V30 1292 H 121.65 2.47216 -3.09354 0
M  V30 1293 H 122.824 0.0470665 -4.60776 0
M  V30 1294 H 121.139 0.200686 -4.15916 0
M  V30 1295 H 123.736 2.96692 -4.44835 0
M  V30 1296 H 124.079 3.13091 -2.74371 0
M  V30 1297 H 124.612 1.66993 -3.61052 0
M  V30 1298 H 121.351 0.864142 -6.49779 0
M  V30 1299 H 120.871 2.2871 -5.54483 0
M  V30 1300 H 122.55 2.11622 -6.11412 0
M  V30 1301 N 122.682 1.50554 0.465978 0
M  V30 1302 C 123.907 1.65838 1.24549 0
M  V30 1303 C 124.332 0.343486 1.84937 0
M  V30 1304 O 123.69 -0.69324 1.67523 0
M  V30 1305 C 123.738 2.75533 2.32624 0
M  V30 1306 O 122.842 2.37142 3.37398 0
M  V30 1307 H 122.183 0.553893 0.366194 0
M  V30 1308 H 124.713 1.96959 0.553927 0
M  V30 1309 H 124.723 2.98763 2.77857 0
M  V30 1310 H 123.398 3.70962 1.88043 0
M  V30 1311 H 121.975 2.24377 2.97841 0
M  V30 1312 N 124.16 -0.719506 1.40217 0
M  V30 1313 C 125.576 -1.02707 1.22161 0
M  V30 1314 C 125.776 -2.0128 0.0940557 0
M  V30 1315 O 124.832 -2.46452 -0.549318 0
M  V30 1316 C 126.145 -1.57454 2.56181 0
M  V30 1317 C 127.693 -1.69458 2.63159 0
M  V30 1318 C 128.168 -2.27611 3.97438 0
M  V30 1319 N 129.659 -2.35002 3.99159 0
M  V30 1320 C 130.394 -2.80972 4.99842 0
M  V30 1321 N 129.89 -3.26723 6.10921 0
M  V30 1322 N 131.683 -2.80321 4.87213 0
M  V30 1323 H 123.834 -0.0660492 2.12297 0
M  V30 1324 H 126.097 -0.0919077 0.943534 0
M  V30 1325 H 125.803 -0.924873 3.39321 0
M  V30 1326 H 125.677 -2.56036 2.76993 0
M  V30 1327 H 128.064 -2.33543 1.80393 0
M  V30 1328 H 128.145 -0.694867 2.46181 0
M  V30 1329 H 127.789 -1.6415 4.80643 0
M  V30 1330 H 127.719 -3.2829 4.11744 0
M  V30 1331 H 130.21 -2.02685 3.18947 0
M  V30 1332 H 130.523 -3.60355 6.8364 0
M  V30 1333 H 128.868 -3.24692 6.14492 0
M  V30 1334 H 132.059 -2.43912 3.9953 0
M  V30 1335 H 132.232 -3.15831 5.65822 0
M  V30 1336 N 125.638 -1.25649 -0.95132 0
M  V30 1337 C 126.886 -1.10375 -1.69298 0
M  V30 1338 C 127.207 0.355339 -1.91735 0
M  V30 1339 O 126.477 1.25188 -1.50681 0
M  V30 1340 H 125.057 -0.405461 -0.627384 0
M  V30 1341 H 127.719 -1.57823 -1.14358 0
M  V30 1342 H 126.815 -1.61465 -2.67087 0
M  V30 1343 N 127.117 1.15442 -1.07289 0
M  V30 1344 C 128.342 1.90638 -0.816828 0
M  V30 1345 C 128.767 1.77445 0.624083 0
M  V30 1346 O 128.125 1.10671 1.43602 0
M  V30 1347 C 128.173 3.39008 -1.22906 0
M  V30 1348 O 127.277 4.10701 -0.373975 0
M  V30 1349 H 126.618 0.593555 -0.297638 0
M  V30 1350 H 129.148 1.46198 -1.43134 0
M  V30 1351 H 129.158 3.89801 -1.20497 0
M  V30 1352 H 127.833 3.47929 -2.27856 0
M  V30 1353 H 126.41 3.70046 -0.460499 0
M  V30 1354 N 128.595 0.856903 1.32268 0
M  V30 1355 C 129.843 0.460474 1.96784 0
M  V30 1356 C 130.164 -0.987701 1.68135 0
M  V30 1357 O 129.434 -1.69058 0.989765 0
M  V30 1358 H 128.014 0.167289 0.728027 0
M  V30 1359 H 130.676 1.09383 1.61312 0
M  V30 1360 H 129.772 0.60739 3.06133 0
M  V30 1361 N 130.073 -1.45103 0.615059 0
M  V30 1362 C 131.321 -2.01784 0.112955 0
M  V30 1363 C 131.642 -1.48504 -1.26378 0
M  V30 1364 O 130.912 -0.682245 -1.83636 0
M  V30 1365 H 129.492 -0.745993 0.0387668 0
M  V30 1366 H 132.154 -1.77808 0.798141 0
M  V30 1367 H 131.25 -3.12025 0.0684069 0
M  V30 1368 N 131.551 -0.354651 -1.53558 0
M  V30 1369 C 132.967 -0.00315426 -1.596 0
M  V30 1370 C 133.167 1.47741 -1.37021 0
M  V30 1371 O 132.223 2.23759 -1.16996 0
M  V30 1372 C 133.536 -0.44929 -2.97325 0
M  V30 1373 C 135.084 -0.402578 -3.104 0
M  V30 1374 C 135.559 -0.824355 -4.5052 0
M  V30 1375 N 137.05 -0.778979 -4.56603 0
M  V30 1376 C 137.785 -1.07715 -5.63192 0
M  V30 1377 N 137.281 -1.44405 -6.77583 0
M  V30 1378 N 139.074 -1.00066 -5.53121 0
M  V30 1379 H 131.225 -1.31893 -1.66487 0
M  V30 1380 H 133.488 -0.538388 -0.780284 0
M  V30 1381 H 133.194 -1.48202 -3.1895 0
M  V30 1382 H 133.068 0.169772 -3.76818 0
M  V30 1383 H 135.455 0.621004 -2.88492 0
M  V30 1384 H 135.536 -1.05699 -2.32941 0
M  V30 1385 H 135.18 -1.846 -4.73165 0
M  V30 1386 H 135.11 -0.147304 -5.26394 0
M  V30 1387 H 137.601 -0.508528 -3.74463 0
M  V30 1388 H 137.914 -1.65612 -7.54846 0
M  V30 1389 H 136.259 -1.4826 -6.79002 0
M  V30 1390 H 139.45 -0.713293 -4.62633 0
M  V30 1391 H 139.623 -1.23638 -6.36096 0
M  V30 1392 N 133.029 1.57378 -0.0835403 0
M  V30 1393 C 134.277 1.93547 0.581718 0
M  V30 1394 C 134.598 0.96524 1.69435 0
M  V30 1395 O 133.868 0.0153369 1.95894 0
M  V30 1396 H 132.448 0.714521 0.217874 0
M  V30 1397 H 135.11 1.94366 -0.144158 0
M  V30 1398 H 134.206 2.95665 0.999423 0
M  V30 1399 N 134.507 -0.190092 1.56449 0
M  V30 1400 C 135.737 -0.92443 1.84764 0
M  V30 1401 C 136.145 -1.77146 0.664529 0
M  V30 1402 O 135.488 -1.79812 -0.375957 0
M  V30 1403 C 135.55 -1.86651 3.07248 0
M  V30 1404 C 135.214 -1.20094 4.40938 0
M  V30 1405 C 136.211 -0.575445 5.16706 0
M  V30 1406 C 133.896 -1.2033 4.87674 0
M  V30 1407 C 135.89 0.0388111 6.37388 0
M  V30 1408 C 133.577 -0.585214 6.08291 0
M  V30 1409 C 134.575 0.0347578 6.82991 0
M  V30 1410 O 134.263 0.643147 8.01323 0
M  V30 1411 H 133.995 -0.274974 0.617548 0
M  V30 1412 H 136.549 -0.200788 2.04416 0
M  V30 1413 H 134.779 -2.62998 2.83494 0
M  V30 1414 H 136.468 -2.46907 3.22167 0
M  V30 1415 H 137.234 -0.565728 4.81689 0
M  V30 1416 H 133.113 -1.67526 4.29484 0
M  V30 1417 H 136.657 0.523329 6.95634 0
M  V30 1418 H 132.554 -0.592451 6.42775 0
M  V30 1419 H 133.322 0.540545 8.16713 0
M  V30 1420 N 135.985 -1.50799 -0.457987 0
M  V30 1421 C 137.21 -1.66496 -1.23668 0
M  V30 1422 C 137.635 -0.353288 -1.84752 0
M  V30 1423 O 136.993 0.684346 -1.67888 0
M  V30 1424 C 137.041 -2.76763 -2.3116 0
M  V30 1425 O 136.145 -2.38928 -3.36136 0
M  V30 1426 H 135.486 -0.555828 -0.363252 0
M  V30 1427 H 138.016 -1.9725 -0.543474 0
M  V30 1428 H 138.026 -3.00232 -2.76269 0
M  V30 1429 H 136.701 -3.71954 -1.86073 0
M  V30 1430 H 135.278 -2.25953 -2.96647 0
M  V30 1431 N 137.463 0.71206 -1.40597 0
M  V30 1432 C 138.691 1.50111 -1.42388 0
M  V30 1433 C 139.106 1.88784 -0.0245395 0
M  V30 1434 O 138.463 1.55681 0.952351 0
M  V30 1435 C 138.514 2.7742 -2.31776 0
M  V30 1436 O 138.235 2.40382 -3.66262 0
M  V30 1437 C 139.736 3.7129 -2.42196 0
M  V30 1438 H 136.956 0.46314 -0.485533 0
M  V30 1439 H 139.5 0.878068 -1.8469 0
M  V30 1440 H 137.655 3.36001 -1.92827 0
M  V30 1441 H 138.069 3.22324 -4.13772 0
M  V30 1442 H 139.543 4.57448 -3.08943 0
M  V30 1443 H 140.02 4.14641 -1.44809 0
M  V30 1444 H 140.626 3.18619 -2.81712 0
M  V30 1445 N 138.941 1.26152 0.944643 0
M  V30 1446 C 139.871 1.09902 2.06019 0
M  V30 1447 C 140.852 0.00519538 1.70099 0
M  V30 1448 O 142.037 0.176583 1.93396 0
M  V30 1449 C 139.167 0.727562 3.39594 0
M  V30 1450 C 138.121 1.77274 3.89561 0
M  V30 1451 C 137.447 1.25569 5.19747 0
M  V30 1452 C 138.747 3.17357 4.14827 0
M  V30 1453 H 140.441 2.03217 2.19871 0
M  V30 1454 H 137.987 0.978452 1.05652 0
M  V30 1455 H 139.94 0.600777 4.17095 0
M  V30 1456 H 138.664 -0.241287 3.25707 0
M  V30 1457 H 137.323 1.88814 3.14237 0
M  V30 1458 H 136.971 0.276783 5.02238 0
M  V30 1459 H 136.671 1.95433 5.54148 0
M  V30 1460 H 138.195 1.1415 5.99835 0
M  V30 1461 H 139.609 3.08914 4.82954 0
M  V30 1462 H 138.006 3.84781 4.60504 0
M  V30 1463 H 139.076 3.63673 3.20734 0
M  V30 1464 N 140.419 -1.14872 1.07899 0
M  V30 1465 C 141.367 -2.21857 0.698727 0
M  V30 1466 C 142.361 -1.66845 -0.293086 0
M  V30 1467 O 143.567 -1.79321 -0.156204 0
M  V30 1468 H 139.942 -0.722691 0.207899 0
M  V30 1469 H 141.913 -2.51205 1.61054 0
M  V30 1470 C 140.662 -3.47498 0.11858 0
M  V30 1471 H 139.985 -3.90154 0.872914 0
M  V30 1472 H 141.425 -4.23858 -0.109759 0
M  V30 1473 C 139.884 -3.16947 -1.1422 0
M  V30 1474 O 140.414 -3.3426 -2.22785 0
M  V30 1475 N 138.62 -2.70946 -1.05055 0
M  V30 1476 H 138.167 -2.57058 -0.167038 0
M  V30 1477 H 138.125 -2.50879 -1.89491 0
M  V30 1478 N 141.898 -0.863906 -1.31812 0
M  V30 1479 C 143.123 -0.48527 -2.01643 0
M  V30 1480 C 143.548 0.913058 -1.64453 0
M  V30 1481 O 142.906 1.6014 -0.849985 0
M  V30 1482 C 142.954 -0.642625 -3.54828 0
M  V30 1483 O 142.058 0.320659 -4.11151 0
M  V30 1484 H 141.399 -0.193793 -0.635091 0
M  V30 1485 H 143.929 -1.16565 -1.68148 0
M  V30 1486 H 143.939 -0.533628 -4.04495 0
M  V30 1487 H 142.614 -1.66227 -3.81237 0
M  V30 1488 H 141.191 0.167126 -3.72525 0
M  V30 1489 N 143.376 1.44774 -0.622745 0
M  V30 1490 C 144.624 2.01721 -0.123655 0
M  V30 1491 C 144.945 1.49172 1.25589 0
M  V30 1492 O 144.215 0.691974 1.83272 0
M  V30 1493 H 142.795 0.745777 -0.0427225 0
M  V30 1494 H 145.457 1.77382 -0.807559 0
M  V30 1495 H 144.553 3.11984 -0.0849534 0
M  V30 1496 N 144.854 0.36279 1.53368 0
M  V30 1497 C 146.265 -0.117022 1.86333 0
M  V30 1498 C 146.616 -1.48397 1.28347 0
M  V30 1499 O 145.741 -2.07787 0.604428 0
M  V30 1500 C 146.336 -0.21912 3.38091 0
M  V30 1501 C 144.895 -0.643184 3.70864 0
M  V30 1502 C 144.042 0.211318 2.76494 0
M  V30 1503 H 146.993 0.581687 1.47655 0
M  V30 1504 H 147.014 -1.04319 3.6592 0
M  V30 1505 H 146.526 0.775902 3.80265 0
M  V30 1506 H 144.627 -1.64654 3.34245 0
M  V30 1507 H 144.74 -0.41973 4.77258 0
M  V30 1508 H 143.104 -0.319367 2.5269 0
M  V30 1509 H 143.887 1.20383 3.21501 0
M  V30 1510 N 146.332 -1.57332 0.0918853 0
M  V30 1511 C 147.295 -2.12708 -0.85369 0
M  V30 1512 C 148.295 -1.05561 -1.213 0
M  V30 1513 O 149.485 -1.31461 -1.14296 0
M  V30 1514 C 146.617 -2.64503 -2.15061 0
M  V30 1515 H 147.81 -2.97573 -0.3729 0
M  V30 1516 H 145.363 -1.55509 -0.157072 0
M  V30 1517 H 146.098 -1.83149 -2.67632 0
M  V30 1518 H 145.883 -3.4284 -1.90272 0
M  V30 1519 H 147.373 -3.07351 -2.82711 0
M  V30 1520 N 147.81 0.181792 -1.56548 0
M  V30 1521 C 149.038 0.915947 -1.85521 0
M  V30 1522 C 149.453 1.76282 -0.676016 0
M  V30 1523 O 148.81 1.79012 0.355077 0
M  V30 1524 C 148.861 1.80126 -3.13427 0
M  V30 1525 O 148.582 0.988562 -4.26801 0
M  V30 1526 C 150.083 2.64597 -3.55673 0
M  V30 1527 H 147.303 0.26661 -0.61576 0
M  V30 1528 H 149.847 0.185039 -2.03661 0
M  V30 1529 H 148.002 2.48563 -2.97145 0
M  V30 1530 H 148.416 1.59308 -4.99721 0
M  V30 1531 H 149.89 3.2235 -4.48101 0
M  V30 1532 H 150.367 3.38958 -2.79292 0
M  V30 1533 H 150.973 2.0151 -3.74532 0
M  V30 1534 N 149.288 1.51039 0.449983 0
M  V30 1535 C 150.704 1.38934 0.785462 0
M  V30 1536 C 150.904 0.461817 1.96136 0
M  V30 1537 O 149.96 -0.0877389 2.52348 0
M  V30 1538 C 151.273 2.80724 1.0777 0
M  V30 1539 C 152.821 2.89787 1.1829 0
M  V30 1540 C 153.296 4.32457 1.50815 0
M  V30 1541 N 154.787 4.35505 1.57764 0
M  V30 1542 C 155.522 5.42914 1.84477 0
M  V30 1543 N 155.018 6.60502 2.09068 0
M  V30 1544 N 156.811 5.3038 1.86155 0
M  V30 1545 H 148.962 2.09904 -0.324647 0
M  V30 1546 H 151.225 0.944378 -0.0827957 0
M  V30 1547 H 150.931 3.50531 0.286498 0
M  V30 1548 H 150.805 3.19273 2.00859 0
M  V30 1549 H 153.192 2.20186 1.96474 0
M  V30 1550 H 153.273 2.54752 0.231314 0
M  V30 1551 H 152.917 5.02603 0.731622 0
M  V30 1552 H 152.847 4.64995 2.47158 0
M  V30 1553 H 155.338 3.50724 1.40715 0
M  V30 1554 H 155.651 7.38158 2.28785 0
M  V30 1555 H 153.996 6.63639 2.06416 0
M  V30 1556 H 157.187 4.37505 1.66454 0
M  V30 1557 H 157.36 6.1417 2.06637 0
M  V30 1558 N 150.766 -0.704594 1.40972 0
M  V30 1559 C 152.015 -1.46018 1.39146 0
M  V30 1560 C 152.328 -1.956 0.000589254 0
M  V30 1561 O 153.534 -2.71137 -0.1403 0
M  V30 1562 C 151.99 -2.63996 2.4461 0
M  V30 1563 C 151.598 -2.21238 3.89561 0
M  V30 1564 C 153.342 -3.41677 2.51907 0
M  V30 1565 C 151.249 -3.3612 4.86598 0
M  V30 1566 H 150.179 -0.548444 0.517422 0
M  V30 1567 H 152.83 -0.765784 1.66757 0
M  V30 1568 H 151.212 -3.3566 2.10115 0
M  V30 1569 H 152.386 -1.56923 4.33257 0
M  V30 1570 H 150.701 -1.56574 3.85841 0
M  V30 1571 H 153.298 -4.27182 3.2159 0
M  V30 1572 H 153.641 -3.86247 1.55303 0
M  V30 1573 H 154.174 -2.77064 2.85448 0
M  V30 1574 H 150.913 -2.96572 5.84573 0
M  V30 1575 H 150.433 -3.99315 4.47557 0
M  V30 1576 H 152.112 -4.02029 5.06934 0
M  V30 1577 N 152.244 -1.26651 -0.937939 0
M  V30 1578 C 153.174 -1.10993 -2.05433 0
M  V30 1579 C 154.155 -0.0142161 -1.70094 0
M  V30 1580 O 155.34 -0.186837 -1.93299 0
M  V30 1581 C 152.47 -0.745561 -3.39203 0
M  V30 1582 C 151.424 -1.79337 -3.88616 0
M  V30 1583 C 150.75 -1.28324 -5.19073 0
M  V30 1584 C 152.05 -3.19553 -4.13138 0
M  V30 1585 H 153.744 -2.0438 -2.1879 0
M  V30 1586 H 151.29 -0.984041 -1.05131 0
M  V30 1587 H 153.243 -0.622888 -4.16771 0
M  V30 1588 H 151.967 0.22401 -3.25831 0
M  V30 1589 H 150.626 -1.90477 -3.13231 0
M  V30 1590 H 150.274 -0.303414 -5.02084 0
M  V30 1591 H 149.974 -1.98369 -5.53103 0
M  V30 1592 H 151.498 -1.1733 -5.99221 0
M  V30 1593 H 152.912 -3.11471 -4.81309 0
M  V30 1594 H 151.309 -3.87218 -4.58457 0
M  V30 1595 H 152.379 -3.65368 -3.18801 0
M  V30 1596 N 153.722 1.14298 -1.08507 0
M  V30 1597 C 154.947 1.8976 -0.837001 0
M  V30 1598 C 155.372 1.78097 0.605228 0
M  V30 1599 O 154.73 1.12188 1.4242 0
M  V30 1600 C 154.778 3.37685 -1.26495 0
M  V30 1601 O 153.882 4.10281 -0.417514 0
M  V30 1602 H 153.223 0.590365 -0.303917 0
M  V30 1603 H 155.753 1.44672 -1.44676 0
M  V30 1604 H 155.763 3.88501 -1.24625 0
M  V30 1605 H 154.438 3.45492 -2.31534 0
M  V30 1606 H 153.015 3.69536 -0.499722 0
M  V30 1607 N 155.201 0.870884 1.31352 0
M  V30 1608 C 156.447 0.482987 1.96965 0
M  V30 1609 C 156.78 -0.962462 1.68672 0
M  V30 1610 O 156.055 -1.6779 0.98371 0
M  V30 1611 C 156.338 0.741752 3.52378 0
M  V30 1612 C 156.191 2.2368 3.9024 0
M  V30 1613 C 157.51 0.208838 4.39604 0
M  V30 1614 H 154.629 0.176955 0.715441 0
M  V30 1615 H 157.271 1.09229 1.55464 0
M  V30 1616 H 155.421 0.223149 3.87859 0
M  V30 1617 H 157.093 2.82273 3.64856 0
M  V30 1618 H 155.336 2.70901 3.38814 0
M  V30 1619 H 156.007 2.3685 4.98604 0
M  V30 1620 H 158.483 0.652529 4.10952 0
M  V30 1621 H 157.359 0.419336 5.47296 0
M  V30 1622 H 157.62 -0.889275 4.33064 0
M  V30 1623 N 156.679 -1.44442 0.630414 0
M  V30 1624 C 157.907 -2.06414 0.141671 0
M  V30 1625 C 158.322 -1.47105 -1.18345 0
M  V30 1626 O 157.679 -0.593662 -1.72574 0
M  V30 1627 C 157.73 -3.61494 0.0199784 0
M  V30 1628 O 157.451 -4.18594 1.29269 0
M  V30 1629 C 158.952 -4.40499 -0.497544 0
M  V30 1630 H 156.172 -0.666292 0.0793452 0
M  V30 1631 H 158.716 -1.85323 0.864614 0
M  V30 1632 H 156.871 -3.8185 -0.653402 0
M  V30 1633 H 157.285 -5.12026 1.13707 0
M  V30 1634 H 158.759 -5.49433 -0.531708 0
M  V30 1635 H 159.236 -4.11895 -1.52445 0
M  V30 1636 H 159.842 -4.25061 0.142562 0
M  V30 1637 N 158.157 -0.370918 -1.53173 0
M  V30 1638 C 159.12 0.460778 -2.24521 0
M  V30 1639 C 160.12 1.00536 -1.25496 0
M  V30 1640 O 161.31 0.890266 -1.49733 0
M  V30 1641 C 158.442 1.64457 -2.98608 0
M  V30 1642 H 159.635 -0.163613 -2.99453 0
M  V30 1643 H 157.188 -0.122699 -1.55818 0
M  V30 1644 H 157.923 2.30691 -2.2793 0
M  V30 1645 H 157.708 1.26099 -3.7127 0
M  V30 1646 H 159.198 2.23384 -3.5283 0
M  V30 1647 N 159.635 1.57281 -0.100228 0
M  V30 1648 C 160.865 1.98591 0.569681 0
M  V30 1649 C 161.273 0.978315 1.61943 0
M  V30 1650 O 160.616 -0.0396108 1.83657 0
M  V30 1651 C 160.678 3.36282 1.271 0
M  V30 1652 C 160.342 4.55488 0.371409 0
M  V30 1653 C 161.339 5.18491 -0.382504 0
M  V30 1654 C 159.024 5.01474 0.287965 0
M  V30 1655 C 161.018 6.25852 -1.20779 0
M  V30 1656 C 158.705 6.08701 -0.540965 0
M  V30 1657 C 159.703 6.70755 -1.28749 0
M  V30 1658 O 159.391 7.75914 -2.10269 0
M  V30 1659 H 159.123 0.65752 0.156982 0
M  V30 1660 H 161.677 2.0463 -0.177734 0
M  V30 1661 H 159.907 3.26941 2.0651 0
M  V30 1662 H 161.596 3.62005 1.83595 0
M  V30 1663 H 162.362 4.83891 -0.3278 0
M  V30 1664 H 158.241 4.52932 0.858689 0
M  V30 1665 H 161.785 6.74218 -1.79096 0
M  V30 1666 H 157.682 6.42732 -0.597131 0
M  V30 1667 H 158.45 7.92925 -2.03007 0
M  V30 1668 N 161.113 -0.173488 1.56642 0
M  V30 1669 C 162.524 -0.736155 1.71574 0
M  V30 1670 C 162.875 -1.82888 0.710389 0
M  V30 1671 O 162 -2.16017 -0.1287 0
M  V30 1672 C 162.595 -1.34211 3.11083 0
M  V30 1673 C 161.154 -1.85162 3.27707 0
M  V30 1674 C 160.301 -0.729765 2.67525 0
M  V30 1675 H 163.252 0.0518786 1.58615 0
M  V30 1676 H 163.273 -2.21178 3.09613 0
M  V30 1677 H 162.785 -0.546579 3.84232 0
M  V30 1678 H 160.886 -2.67366 2.59512 0
M  V30 1679 H 160.999 -1.99855 4.35425 0
M  V30 1680 H 159.363 -1.14965 2.27278 0
M  V30 1681 H 160.146 0.0538806 3.43258 0
M  V30 1682 N 162.591 -1.51276 -0.441967 0
M  V30 1683 C 163.554 -1.7167 -1.51862 0
M  V30 1684 C 164.554 -0.586793 -1.49711 0
M  V30 1685 O 165.744 -0.854276 -1.51815 0
M  V30 1686 C 162.876 -1.76889 -2.91416 0
M  V30 1687 H 164.069 -2.67754 -1.35084 0
M  V30 1688 H 161.622 -1.41196 -0.670333 0
M  V30 1689 H 162.357 -0.826026 -3.13604 0
M  V30 1690 H 162.142 -2.59001 -2.94382 0
M  V30 1691 H 163.632 -1.94522 -3.69528 0
M  V30 1692 N 164.069 0.697108 -1.41344 0
M  V30 1693 C 165.019 1.80313 -1.39539 0
M  V30 1694 C 166.003 1.58618 -0.270001 0
M  V30 1695 O 167.195 1.69477 -0.510551 0
M  V30 1696 C 164.324 3.18606 -1.27848 0
M  V30 1697 C 163.41 3.46001 -2.45244 0
M  V30 1698 N 163.801 3.44103 -3.70711 0
M  V30 1699 C 162.099 3.76542 -2.39023 0
M  V30 1700 C 162.8 3.7036 -4.48563 0
M  V30 1701 N 161.776 3.90027 -3.78655 0
M  V30 1702 H 165.578 1.77207 -2.34468 0
M  V30 1703 H 163.092 0.897031 -1.35378 0
M  V30 1704 H 165.089 3.97833 -1.24637 0
M  V30 1705 H 163.749 3.22925 -0.339032 0
M  V30 1706 H 164.76 3.2452 -4.03618 0
M  V30 1707 H 161.437 3.88241 -1.53542 0
M  V30 1708 H 162.827 3.75042 -5.57488 0
M  V30 1709 N 165.547 1.27147 0.931209 0
M  V30 1710 C 166.777 1.15914 1.71019 0
M  V30 1711 C 167.185 -0.287112 1.87009 0
M  V30 1712 O 166.528 -1.20761 1.38429 0
M  V30 1713 C 166.59 1.76647 3.13107 0
M  V30 1714 C 166.254 3.25807 3.20467 0
M  V30 1715 C 167.251 4.22489 3.02983 0
M  V30 1716 C 164.936 3.66452 3.43538 0
M  V30 1717 C 166.93 5.57794 3.08454 0
M  V30 1718 C 164.617 5.01888 3.48643 0
M  V30 1719 C 165.615 5.97369 3.31119 0
M  V30 1720 O 165.303 7.30337 3.35952 0
M  V30 1721 H 165.035 0.404062 0.54195 0
M  V30 1722 H 167.589 1.68457 1.17521 0
M  V30 1723 H 165.819 1.18578 3.68071 0
M  V30 1724 H 167.508 1.60179 3.72958 0
M  V30 1725 H 168.274 3.92425 2.85004 0
M  V30 1726 H 164.153 2.92611 3.5623 0
M  V30 1727 H 167.697 6.32298 2.94694 0
M  V30 1728 H 163.594 5.31609 3.66145 0
M  V30 1729 H 164.362 7.38739 3.5243 0
M  V30 1730 N 167.025 -1.13721 1.09112 0
M  V30 1731 C 168.302 -1.81155 0.737706 0
M  V30 1732 C 168.682 -1.96253 -0.777683 0
M  V30 1733 O 168.03 -1.52807 -1.69889 0
M  V30 1734 C 168.24 -3.16392 1.47299 0
M  V30 1735 C 169.588 -3.91787 1.63671 0
M  V30 1736 O 170.612 -3.26005 1.43524 0
M  V30 1737 O 169.471 -5.0977 1.96969 0
M  V30 1738 H 166.565 -0.783518 0.26463 0
M  V30 1739 H 169.111 -1.20676 1.19312 0
M  V30 1740 H 167.883 -3.0061 2.50498 0
M  V30 1741 H 167.506 -3.8457 1.00953 0
M  V30 1742 N 168.503 -0.877838 -1.30888 0
M  V30 1743 C 169.919 -0.570844 -1.49042 0
M  V30 1744 C 170.119 0.893159 -1.80624 0
M  V30 1745 O 169.175 1.67485 -1.88958 0
M  V30 1746 C 170.488 -1.47784 -2.61878 0
M  V30 1747 C 172.036 -1.48071 -2.75761 0
M  V30 1748 C 172.511 -2.37347 -3.91702 0
M  V30 1749 N 174.002 -2.35271 -3.99001 0
M  V30 1750 C 174.737 -3.01063 -4.88004 0
M  V30 1751 N 174.233 -3.76055 -5.81854 0
M  V30 1752 N 176.026 -2.90332 -4.81315 0
M  V30 1753 H 168.177 -1.82502 -1.0866 0
M  V30 1754 H 170.44 -0.780797 -0.537644 0
M  V30 1755 H 170.146 -2.51993 -2.45341 0
M  V30 1756 H 170.02 -1.18215 -3.58197 0
M  V30 1757 H 172.407 -0.446166 -2.91708 0
M  V30 1758 H 172.488 -1.81668 -1.80085 0
M  V30 1759 H 172.132 -3.40883 -3.76512 0
M  V30 1760 H 172.062 -2.01071 -4.86701 0
M  V30 1761 H 174.553 -1.80768 -3.3186 0
M  V30 1762 H 174.866 -4.23366 -6.46514 0
M  V30 1763 H 173.211 -3.80163 -5.81808 0
M  V30 1764 H 176.402 -2.31278 -4.06974 0
M  V30 1765 H 176.575 -3.41885 -5.50471 0
M  V30 1766 N 169.982 1.44106 -0.638065 0
M  V30 1767 C 170.912 2.33448 0.0494287 0
M  V30 1768 C 171.893 1.48606 0.827672 0
M  V30 1769 O 173.078 1.77308 0.792173 0
M  V30 1770 C 170.208 3.31771 1.02691 0
M  V30 1771 C 169.162 4.26485 0.359823 0
M  V30 1772 C 168.488 5.14729 1.44769 0
M  V30 1773 C 169.788 5.17056 -0.738296 0
M  V30 1774 H 171.482 2.91183 -0.696636 0
M  V30 1775 H 169.028 1.40014 -0.336456 0
M  V30 1776 H 170.981 3.93161 1.51666 0
M  V30 1777 H 169.705 2.7226 1.80395 0
M  V30 1778 H 168.364 3.66437 -0.10934 0
M  V30 1779 H 168.012 4.51566 2.21578 0
M  V30 1780 H 167.712 5.78913 1.00668 0
M  V30 1781 H 169.236 5.78991 1.93911 0
M  V30 1782 H 170.65 5.72342 -0.331354 0
M  V30 1783 H 169.047 5.89879 -1.10286 0
M  V30 1784 H 170.117 4.57652 -1.60258 0
M  V30 1785 N 171.46 0.379036 1.52974 0
M  V30 1786 C 172.876 0.0285448 1.59574 0
M  V30 1787 C 173.076 -1.45542 1.39355 0
M  V30 1788 O 172.132 -2.2187 1.20541 0
M  V30 1789 C 173.445 0.496535 2.96572 0
M  V30 1790 C 174.993 0.451909 3.0972 0
M  V30 1791 C 175.468 0.895924 4.49152 0
M  V30 1792 N 176.959 0.851522 4.55306 0
M  V30 1793 C 177.694 1.16661 5.61407 0
M  V30 1794 N 177.19 1.55166 6.752 0
M  V30 1795 N 178.983 1.08853 5.51459 0
M  V30 1796 H 171.134 1.34525 1.64367 0
M  V30 1797 H 173.397 0.550733 0.771619 0
M  V30 1798 H 173.103 1.53258 3.16552 0
M  V30 1799 H 172.977 -0.109802 3.7704 0
M  V30 1800 H 175.364 -0.575029 2.89443 0
M  V30 1801 H 175.445 1.09392 2.3123 0
M  V30 1802 H 175.089 1.92104 4.70168 0
M  V30 1803 H 175.019 0.23103 5.26093 0
M  V30 1804 H 177.51 0.568038 3.73606 0
M  V30 1805 H 177.823 1.776 7.52116 0
M  V30 1806 H 176.168 1.59044 6.76557 0
M  V30 1807 H 179.359 0.786803 4.6144 0
M  V30 1808 H 179.532 1.33742 6.34048 0
M  V30 1809 N 172.938 -1.57226 0.108567 0
M  V30 1810 C 173.886 -2.16002 -0.862885 0
M  V30 1811 C 174.88 -1.10644 -1.28274 0
M  V30 1812 O 176.086 -1.28966 -1.2557 0
M  V30 1813 H 172.461 -0.691148 -0.296342 0
M  V30 1814 H 174.432 -2.96427 -0.342575 0
M  V30 1815 C 173.181 -2.76576 -2.10716 0
M  V30 1816 H 172.504 -3.5734 -1.793 0
M  V30 1817 H 173.944 -3.21253 -2.76717 0
M  V30 1818 C 172.403 -1.73137 -2.89007 0
M  V30 1819 O 172.933 -1.17842 -3.84026 0
M  V30 1820 N 171.139 -1.43317 -2.52801 0
M  V30 1821 H 170.686 -1.88473 -1.75601 0
M  V30 1822 H 170.644 -0.743485 -3.05483 0
M  V30 1823 N 174.416 0.165178 -1.56732 0
M  V30 1824 C 175.326 1.22423 -2.00125 0
M  V30 1825 C 176.342 1.48084 -0.913619 0
M  V30 1826 O 177.518 1.60112 -1.22172 0
M  V30 1827 C 174.583 2.54197 -2.35764 0
M  V30 1828 C 173.644 2.36343 -3.58386 0
M  V30 1829 C 172.877 3.61834 -3.92316 0
M  V30 1830 O 173.1 4.67267 -3.27135 0
M  V30 1831 O 172.034 3.55579 -4.85641 0
M  V30 1832 H 175.86 0.885886 -2.90492 0
M  V30 1833 H 173.445 0.372518 -1.44681 0
M  V30 1834 H 175.327 3.3192 -2.59629 0
M  V30 1835 H 174.002 2.87598 -1.48557 0
M  V30 1836 H 172.909 1.56632 -3.39731 0
M  V30 1837 H 174.242 2.07865 -4.46154 0
M  V30 1838 N 175.894 1.51508 0.433938 0
M  V30 1839 C 177.142 1.6402 1.18075 0
M  V30 1840 C 177.463 0.360328 1.91642 0
M  V30 1841 O 176.733 -0.623945 1.85698 0
M  V30 1842 H 175.313 0.6045 0.43885 0
M  V30 1843 H 177.975 1.88452 0.497178 0
M  V30 1844 H 177.071 2.46949 1.90847 0
M  V30 1845 N 177.372 -0.689602 1.41712 0
M  V30 1846 C 178.621 -1.44534 1.40686 0
M  V30 1847 C 178.934 -1.95588 0.0213352 0
M  V30 1848 O 180.14 -2.71271 -0.111534 0
M  V30 1849 C 178.596 -2.61387 2.47396 0
M  V30 1850 C 178.204 -2.17094 3.91885 0
M  V30 1851 C 179.948 -3.38986 2.55517 0
M  V30 1852 C 177.855 -3.3094 4.90135 0
M  V30 1853 H 176.785 -0.542925 0.52321 0
M  V30 1854 H 179.436 -0.748054 1.6756 0
M  V30 1855 H 177.818 -3.33412 2.13664 0
M  V30 1856 H 178.992 -1.52318 4.34897 0
M  V30 1857 H 177.307 -1.52473 3.8748 0
M  V30 1858 H 179.904 -4.23747 3.26102 0
M  V30 1859 H 180.247 -3.84578 1.59391 0
M  V30 1860 H 180.78 -2.74021 2.8837 0
M  V30 1861 H 177.519 -2.90355 5.87685 0
M  V30 1862 H 177.039 -3.94546 4.51767 0
M  V30 1863 H 178.718 -3.9663 5.11169 0
M  V30 1864 N 178.85 -1.27639 -0.924453 0
M  V30 1865 C 180.078 -1.16989 -1.70649 0
M  V30 1866 C 180.493 0.272869 -1.86818 0
M  V30 1867 O 179.85 1.18549 -1.38753 0
M  V30 1868 C 179.901 -1.85229 -3.10439 0
M  V30 1869 O 179.622 -3.23868 -2.95028 0
M  V30 1870 C 181.123 -1.80746 -4.04779 0
M  V30 1871 H 178.343 -0.406595 -0.53378 0
M  V30 1872 H 180.887 -1.68569 -1.15778 0
M  V30 1873 H 179.042 -1.37545 -3.6216 0
M  V30 1874 H 179.456 -3.57889 -3.83426 0
M  V30 1875 H 180.93 -2.33101 -5.00368 0
M  V30 1876 H 181.407 -0.777499 -4.32263 0
M  V30 1877 H 182.013 -2.28059 -3.58984 0
M  V30 1878 N 180.328 1.1314 -1.09713 0
M  V30 1879 C 181.258 2.20748 -0.761102 0
M  V30 1880 C 182.239 1.68061 0.262566 0
M  V30 1881 O 183.424 1.93765 0.129977 0
M  V30 1882 C 180.554 3.46812 -0.184054 0
M  V30 1883 C 179.508 4.12606 -1.13757 0
M  V30 1884 C 178.834 5.33031 -0.422083 0
M  V30 1885 C 180.134 4.59603 -2.48118 0
M  V30 1886 H 181.828 2.49113 -1.66082 0
M  V30 1887 H 179.374 1.19734 -0.799987 0
M  V30 1888 H 181.327 4.21353 0.0631215 0
M  V30 1889 H 180.051 3.17851 0.750868 0
M  V30 1890 H 178.71 3.40036 -1.37007 0
M  V30 1891 H 178.358 5.00335 0.517072 0
M  V30 1892 H 178.058 5.77999 -1.05788 0
M  V30 1893 H 179.582 6.10325 -0.183277 0
M  V30 1894 H 180.996 5.25552 -2.29059 0
M  V30 1895 H 179.393 5.15321 -3.07514 0
M  V30 1896 H 180.463 3.73971 -3.08665 0
M  V30 1897 N 181.806 0.884767 1.30421 0
M  V30 1898 C 182.769 0.356277 2.26414 0
M  V30 1899 C 183.769 -0.501124 1.52792 0
M  V30 1900 O 184.959 -0.30831 1.7145 0
M  V30 1901 C 182.091 -0.492316 3.37326 0
M  V30 1902 H 183.284 1.20389 2.74675 0
M  V30 1903 H 180.837 0.661607 1.41607 0
M  V30 1904 H 181.572 -1.36052 2.94381 0
M  V30 1905 H 181.357 0.121832 3.91911 0
M  V30 1906 H 182.847 -0.853871 4.08777 0
M  V30 1907 N 183.284 -1.43765 0.645699 0
M  V30 1908 C 184.214 -2.33471 -0.0370477 0
M  V30 1909 C 185.195 -1.49042 -0.819779 0
M  V30 1910 O 186.38 -1.77726 -0.782758 0
M  V30 1911 C 183.51 -3.32311 -1.0093 0
M  V30 1912 C 182.464 -4.2667 -0.337201 0
M  V30 1913 C 181.79 -5.1549 -1.42037 0
M  V30 1914 C 183.09 -5.16657 0.765706 0
M  V30 1915 H 184.784 -2.90809 0.712069 0
M  V30 1916 H 182.33 -1.39834 0.343876 0
M  V30 1917 H 184.283 -3.9396 -1.49578 0
M  V30 1918 H 183.007 -2.73213 -1.78948 0
M  V30 1919 H 181.666 -3.66374 0.128771 0
M  V30 1920 H 181.314 -4.52735 -2.1918 0
M  V30 1921 H 181.014 -5.79438 -0.975966 0
M  V30 1922 H 182.538 -5.80012 -1.90838 0
M  V30 1923 H 183.952 -5.72158 0.361702 0
M  V30 1924 H 182.349 -5.89286 1.13413 0
M  V30 1925 H 183.419 -4.56796 1.62683 0
M  V30 1926 N 184.763 -0.387143 -1.52771 0
M  V30 1927 C 185.988 0.198407 -2.06449 0
M  V30 1928 C 186.413 1.39918 -1.25716 0
M  V30 1929 O 185.771 1.79099 -0.281657 0
M  V30 1930 C 185.819 0.548893 -3.56398 0
M  V30 1931 O 184.923 1.64315 -3.78252 0
M  V30 1932 H 184.264 0.0237731 -0.663574 0
M  V30 1933 H 186.794 -0.553989 -1.96957 0
M  V30 1934 H 186.804 0.813812 -3.99801 0
M  V30 1935 H 185.479 -0.329005 -4.14597 0
M  V30 1936 H 184.056 1.37211 -3.46738 0
M  V30 1937 N 186.241 1.57166 -0.116904 0
M  V30 1938 C 187.652 1.82169 0.408809 0
M  V30 1939 C 188.003 1.03393 1.66746 0
M  V30 1940 O 187.128 0.269886 2.1471 0
M  V30 1941 C 187.723 3.30429 0.748466 0
M  V30 1942 C 186.282 3.5612 1.21882 0
M  V30 1943 C 185.429 2.76374 0.226452 0
M  V30 1944 H 188.38 1.5497 -0.342063 0
M  V30 1945 H 188.401 3.44943 1.60607 0
M  V30 1946 H 187.913 3.87737 -0.167784 0
M  V30 1947 H 186.014 3.04168 2.15204 0
M  V30 1948 H 186.127 4.64705 1.16559 0
M  V30 1949 H 184.491 2.44515 0.713063 0
M  V30 1950 H 185.274 3.3644 -0.682859 0
M  V30 1951 N 187.719 -0.156864 1.56817 0
M  V30 1952 C 188.965 -0.872416 1.83076 0
M  V30 1953 C 189.298 -1.81261 0.697001 0
M  V30 1954 O 188.573 -1.92171 -0.30008 0
M  V30 1955 C 188.856 -1.65551 3.19789 0
M  V30 1956 C 188.709 -0.737467 4.43713 0
M  V30 1957 C 190.028 -2.62012 3.53606 0
M  V30 1958 H 187.147 -0.315715 0.665953 0
M  V30 1959 H 189.789 -0.138004 1.89498 0
M  V30 1960 H 187.939 -2.28159 3.14445 0
M  V30 1961 H 189.611 -0.123143 4.61136 0
M  V30 1962 H 187.854 -0.0464067 4.33775 0
M  V30 1963 H 188.525 -1.32122 5.35955 0
M  V30 1964 H 191.001 -2.09525 3.59497 0
M  V30 1965 H 189.877 -3.13861 4.50314 0
M  V30 1966 H 190.138 -3.42902 2.79053 0
M  V30 1967 N 189.197 -1.51736 -0.425897 0
M  V30 1968 C 190.613 -1.40166 -0.76326 0
M  V30 1969 C 190.813 -0.492962 -1.95377 0
M  V30 1970 O 189.869 0.0475815 -2.52455 0
M  V30 1971 C 191.182 -2.82403 -1.03291 0
M  V30 1972 C 192.73 -2.91632 -1.13665 0
M  V30 1973 C 193.205 -4.34801 -1.43916 0
M  V30 1974 N 194.696 -4.3796 -1.50816 0
M  V30 1975 C 195.431 -5.4578 -1.75817 0
M  V30 1976 N 194.927 -6.63744 -1.98534 0
M  V30 1977 N 196.72 -5.33274 -1.77694 0
M  V30 1978 H 188.871 -2.09361 0.358 0
M  V30 1979 H 191.134 -0.942941 0.0978094 0
M  V30 1980 H 190.84 -3.50943 -0.230696 0
M  V30 1981 H 190.714 -3.22428 -1.95754 0
M  V30 1982 H 193.101 -2.23284 -1.92947 0
M  V30 1983 H 193.182 -2.55088 -0.190756 0
M  V30 1984 H 192.826 -5.03703 -0.65157 0
M  V30 1985 H 192.756 -4.68868 -2.39729 0
M  V30 1986 H 195.247 -3.52919 -1.35118 0
M  V30 1987 H 195.56 -7.41704 -2.17013 0
M  V30 1988 H 193.905 -6.66839 -1.95832 0
M  V30 1989 H 197.096 -4.40098 -1.59473 0
M  V30 1990 H 197.269 -6.1738 -1.9684 0
M  V30 1991 N 190.675 0.682077 -1.42076 0
M  V30 1992 C 191.605 1.80796 -1.47767 0
M  V30 1993 C 192.586 1.6677 -0.334954 0
M  V30 1994 O 193.771 1.863 -0.548264 0
M  V30 1995 C 190.901 3.19038 -1.37229 0
M  V30 1996 C 189.855 3.47789 -2.49453 0
M  V30 1997 C 189.181 4.8553 -2.23975 0
M  V30 1998 C 190.481 3.45411 -3.91776 0
M  V30 1999 H 192.175 1.7629 -2.41997 0
M  V30 2000 H 189.721 0.846721 -1.16476 0
M  V30 2001 H 191.674 3.97528 -1.39821 0
M  V30 2002 H 190.398 3.24204 -0.394907 0
M  V30 2003 H 189.057 2.71657 -2.46166 0
M  V30 2004 H 188.705 4.87337 -1.24547 0
M  V30 2005 H 188.405 5.0573 -2.99184 0
M  V30 2006 H 189.929 5.66312 -2.28304 0
M  V30 2007 H 191.343 4.13882 -3.96705 0
M  V30 2008 H 189.74 3.77145 -4.66778 0
M  V30 2009 H 190.81 2.44122 -4.18966 0
M  V30 2010 N 192.153 1.28127 0.917671 0
M  V30 2011 C 193.401 1.14825 1.66312 0
M  V30 2012 C 193.722 -0.304379 1.9261 0
M  V30 2013 O 192.992 -1.21149 1.53947 0
M  V30 2014 H 191.572 0.421953 0.616413 0
M  V30 2015 H 194.234 1.608 1.10134 0
M  V30 2016 H 193.33 1.68489 2.62712 0
M  V30 2017 N 193.631 -1.12557 1.10312 0
M  V30 2018 C 195.047 -1.36036 0.834649 0
M  V30 2019 C 195.247 -1.93946 -0.546539 0
M  V30 2020 O 194.303 -2.16484 -1.29966 0
M  V30 2021 C 195.616 -2.30312 1.9333 0
M  V30 2022 C 197.164 -2.43906 1.9616 0
M  V30 2023 C 197.639 -3.41496 3.05195 0
M  V30 2024 N 199.13 -3.49053 3.04494 0
M  V30 2025 C 199.865 -4.24471 3.85502 0
M  V30 2026 N 199.361 -5.02966 4.76442 0
M  V30 2027 N 201.154 -4.19864 3.73725 0
M  V30 2028 H 193.305 -0.733246 1.99342 0
M  V30 2029 H 195.568 -0.385234 0.866198 0
M  V30 2030 H 195.274 -1.94933 2.92735 0
M  V30 2031 H 195.148 -3.30421 1.81939 0
M  V30 2032 H 197.535 -2.78567 0.973886 0
M  V30 2033 H 197.616 -1.4369 2.11629 0
M  V30 2034 H 197.26 -3.07565 4.04186 0
M  V30 2035 H 197.19 -4.41539 2.86968 0
M  V30 2036 H 199.681 -2.93053 2.38596 0
M  V30 2037 H 199.994 -5.57846 5.34815 0
M  V30 2038 H 198.339 -5.02167 4.80472 0
M  V30 2039 H 201.53 -3.57623 3.02032 0
M  V30 2040 H 201.703 -4.78386 4.37093 0
M  V30 2041 N 195.109 -0.891671 -1.2995 0
M  V30 2042 C 196.057 -0.353066 -2.29905 0
M  V30 2043 C 197.051 0.543509 -1.60444 0
M  V30 2044 O 198.257 0.4272 -1.74857 0
M  V30 2045 H 194.632 -0.095531 -0.745907 0
M  V30 2046 H 196.603 -1.20961 -2.72784 0
M  V30 2047 C 195.352 0.411475 -3.45257 0
M  V30 2048 H 194.675 -0.269182 -3.98893 0
M  V30 2049 H 196.115 0.753328 -4.17254 0
M  V30 2050 C 194.574 1.6111 -2.9588 0
M  V30 2051 O 195.104 2.71045 -2.96475 0
M  V30 2052 N 193.31 1.45054 -2.51809 0
M  V30 2053 H 192.857 0.556175 -2.51524 0
M  V30 2054 H 192.815 2.25453 -2.1913 0
M  V30 2055 N 196.587 1.43421 -0.653314 0
M  V30 2056 C 197.998 1.85065 -0.246537 0
M  V30 2057 C 198.349 1.54688 1.2069 0
M  V30 2058 O 197.474 0.995896 1.92122 0
M  V30 2059 C 198.069 3.35922 -0.440666 0
M  V30 2060 C 196.628 3.76297 -0.0882064 0
M  V30 2061 C 195.775 2.67147 -0.743484 0
M  V30 2062 H 198.726 1.33572 -0.856979 0
M  V30 2063 H 198.747 3.79204 0.313798 0
M  V30 2064 H 198.259 3.58 -1.49858 0
M  V30 2065 H 196.36 3.5983 0.96711 0
M  V30 2066 H 196.473 4.76338 -0.513738 0
M  V30 2067 H 194.837 2.54086 -0.176712 0
M  V30 2068 H 195.62 2.92053 -1.80443 0
M  V30 2069 N 198.065 0.39524 1.52563 0
M  V30 2070 C 199.015 -0.4541 2.23432 0
M  V30 2071 C 199.999 -1.02482 1.24042 0
M  V30 2072 O 201.191 -0.949938 1.49349 0
M  V30 2073 C 198.32 -1.57769 3.049 0
M  V30 2074 C 197.406 -1.01842 4.1169 0
M  V30 2075 N 197.797 -0.184613 5.05463 0
M  V30 2076 C 196.095 -1.29033 4.26927 0
M  V30 2077 C 196.796 0.125013 5.81566 0
M  V30 2078 N 195.772 -0.480498 5.41472 0
M  V30 2079 H 199.574 0.189413 2.93289 0
M  V30 2080 H 197.088 0.204877 1.61102 0
M  V30 2081 H 199.085 -2.19862 3.54212 0
M  V30 2082 H 197.745 -2.22397 2.36579 0
M  V30 2083 H 198.756 0.178602 5.17592 0
M  V30 2084 H 195.433 -1.93721 3.69836 0
M  V30 2085 H 196.823 0.800962 6.67109 0
M  V30 2086 N 199.544 -1.57102 0.125237 0
M  V30 2087 C 200.474 -2.18659 -0.819174 0
M  V30 2088 C 201.455 -1.12843 -1.27281 0
M  V30 2089 O 202.64 -1.41104 -1.33429 0
M  V30 2090 C 199.77 -2.79096 -2.06695 0
M  V30 2091 C 198.724 -3.90548 -1.75088 0
M  V30 2092 C 198.05 -4.37821 -3.06948 0
M  V30 2093 C 199.35 -5.12356 -1.01435 0
M  V30 2094 H 201.044 -2.9783 -0.306202 0
M  V30 2095 H 198.59 -1.4326 -0.145839 0
M  V30 2096 H 200.543 -3.2082 -2.73226 0
M  V30 2097 H 199.267 -1.97223 -2.60328 0
M  V30 2098 H 197.926 -3.49409 -1.10944 0
M  V30 2099 H 197.574 -3.52799 -3.58527 0
M  V30 2100 H 197.274 -5.12982 -2.86571 0
M  V30 2101 H 198.798 -4.822 -3.74587 0
M  V30 2102 H 200.212 -5.5106 -1.58132 0
M  V30 2103 H 198.609 -5.9314 -0.911319 0
M  V30 2104 H 199.679 -4.849 -0.00218681 0
M  V30 2105 N 201.022 0.148545 -1.56898 0
M  V30 2106 C 201.985 1.16736 -1.97244 0
M  V30 2107 C 202.985 1.35947 -0.858777 0
M  V30 2108 O 204.175 1.32966 -1.12542 0
M  V30 2109 C 201.307 2.52798 -2.28705 0
M  V30 2110 H 202.5 0.821279 -2.88435 0
M  V30 2111 H 200.053 0.391831 -1.51309 0
M  V30 2112 H 200.788 2.92381 -1.403 0
M  V30 2113 H 200.573 2.40216 -3.09901 0
M  V30 2114 H 202.063 3.26179 -2.60762 0
M  V30 2115 N 202.5 1.5196 0.417844 0
M  V30 2116 C 203.748 1.65263 1.16329 0
M  V30 2117 C 204.069 0.380634 1.91249 0
M  V30 2118 O 203.339 -0.604214 1.86349 0
M  V30 2119 H 201.919 0.60912 0.432414 0
M  V30 2120 H 204.581 1.88969 0.477162 0
M  V30 2121 H 203.677 2.4896 1.88217 0
M  V30 2122 N 203.978 -0.674533 1.42435 0
M  V30 2123 C 205.227 -1.43034 1.42212 0
M  V30 2124 C 205.54 -1.95555 0.0420788 0
M  V30 2125 O 206.746 -2.71374 -0.0827558 0
M  V30 2126 C 205.202 -2.58748 2.50155 0
M  V30 2127 C 204.81 -2.12925 3.94166 0
M  V30 2128 C 206.554 -3.36257 2.59098 0
M  V30 2129 C 204.461 -3.25723 4.93618 0
M  V30 2130 H 203.391 -0.537345 0.528939 0
M  V30 2131 H 206.042 -0.73024 1.68344 0
M  V30 2132 H 204.424 -3.31128 2.17188 0
M  V30 2133 H 205.598 -1.47697 4.36488 0
M  V30 2134 H 203.913 -1.48354 3.89076 0
M  V30 2135 H 206.51 -4.20264 3.30578 0
M  V30 2136 H 206.853 -3.82866 1.63461 0
M  V30 2137 H 207.386 -2.70947 2.9126 0
M  V30 2138 H 204.125 -2.84105 5.90732 0
M  V30 2139 H 203.645 -3.89732 4.55926 0
M  V30 2140 H 205.324 -3.91186 5.15347 0
M  V30 2141 N 205.456 -1.28612 -0.910864 0
M  V30 2142 C 206.403 -1.12786 -2.01365 0
M  V30 2143 C 207.373 -0.024201 -1.66082 0
M  V30 2144 O 208.558 -0.189667 -1.89855 0
M  V30 2145 C 205.698 -0.798743 -3.35729 0
M  V30 2146 C 204.811 -1.98173 -3.83864 0
M  V30 2147 C 203.946 -1.59298 -5.06752 0
M  V30 2148 C 202.985 -2.74245 -5.47226 0
M  V30 2149 N 202.122 -2.35842 -6.61304 0
M  V30 2150 H 206.962 -2.07142 -2.14234 0
M  V30 2151 H 204.499 -1.03093 -1.0493 0
M  V30 2152 H 206.457 -0.588662 -4.13026 0
M  V30 2153 H 205.087 0.10789 -3.2262 0
M  V30 2154 H 204.139 -2.30386 -3.02699 0
M  V30 2155 H 205.451 -2.84343 -4.09818 0
M  V30 2156 H 204.605 -1.34513 -5.916 0
M  V30 2157 H 203.344 -0.702618 -4.82612 0
M  V30 2158 H 202.349 -2.99725 -4.60918 0
M  V30 2159 H 203.574 -3.63928 -5.73353 0
M  V30 2160 H 201.52 -1.49279 -6.38789 0
M  V30 2161 H 201.437 -3.15546 -6.86998 0
M  V30 2162 H 202.705 -2.14348 -7.4945 0
M  V30 2163 N 206.934 1.1197 -1.10907 0
M  V30 2164 C 207.884 2.15946 -0.731538 0
M  V30 2165 C 208.868 1.58758 0.261699 0
M  V30 2166 O 210.06 1.76863 0.0696722 0
M  V30 2167 C 207.189 3.42877 -0.170299 0
M  V30 2168 C 206.275 4.07037 -1.19087 0
M  V30 2169 N 206.666 4.46135 -2.38322 0
M  V30 2170 C 204.964 4.33884 -1.03252 0
M  V30 2171 C 205.665 4.96331 -3.03366 0
M  V30 2172 N 204.641 4.9214 -2.30865 0
M  V30 2173 H 208.443 2.43947 -1.63912 0
M  V30 2174 H 205.957 1.28927 -0.987505 0
M  V30 2175 H 207.954 4.16732 0.118271 0
M  V30 2176 H 206.614 3.16343 0.731935 0
M  V30 2177 H 207.625 4.38345 -2.75815 0
M  V30 2178 H 204.302 4.17084 -0.186256 0
M  V30 2179 H 205.692 5.36257 -4.04818 0
M  V30 2180 N 208.412 0.89855 1.29475 0
M  V30 2181 C 209.342 0.39201 2.30186 0
M  V30 2182 C 210.323 -0.532359 1.61555 0
M  V30 2183 O 211.508 -0.443331 1.89072 0
M  V30 2184 C 208.638 -0.382353 3.45189 0
M  V30 2185 C 207.592 0.451483 4.25612 0
M  V30 2186 C 206.918 -0.450307 5.328 0
M  V30 2187 C 208.218 1.70079 4.93832 0
M  V30 2188 H 209.912 1.23362 2.72804 0
M  V30 2189 H 207.458 0.594638 1.31149 0
M  V30 2190 H 209.411 -0.747451 4.14718 0
M  V30 2191 H 208.135 -1.25774 3.01411 0
M  V30 2192 H 206.794 0.798897 3.57789 0
M  V30 2193 H 206.442 -1.32379 4.85268 0
M  V30 2194 H 206.142 0.103902 5.87508 0
M  V30 2195 H 207.666 -0.811623 6.05182 0
M  V30 2196 H 209.08 1.40549 5.55805 0
M  V30 2197 H 207.477 2.19623 5.58467 0
M  V30 2198 H 208.547 2.43744 4.19186 0
M  V30 2199 N 209.89 -1.43072 0.660911 0
M  V30 2200 C 210.838 -2.32569 -0.0378199 0
M  V30 2201 C 211.832 -1.49046 -0.805092 0
M  V30 2202 O 213.038 -1.65206 -0.714624 0
M  V30 2203 H 209.413 -0.75136 -0.031019 0
M  V30 2204 H 211.384 -2.89216 0.734609 0
M  V30 2205 C 210.133 -3.33453 -0.985124 0
M  V30 2206 H 209.456 -3.97752 -0.404147 0
M  V30 2207 H 210.896 -3.98691 -1.44297 0
M  V30 2208 C 209.355 -2.64642 -2.08486 0
M  V30 2209 O 209.885 -2.46776 -3.16961 0
M  V30 2210 N 208.091 -2.23891 -1.8526 0
M  V30 2211 H 207.638 -2.38621 -0.970449 0
M  V30 2212 H 207.596 -1.78181 -2.59034 0
M  V30 2213 N 211.368 -0.403325 -1.52352 0
M  V30 2214 C 212.784 -0.0539281 -1.59509 0
M  V30 2215 C 212.984 1.43307 -1.41652 0
M  V30 2216 O 212.04 2.19924 -1.24056 0
M  V30 2217 C 213.353 -0.543654 -2.95745 0
M  V30 2218 C 214.901 -0.501125 -3.08962 0
M  V30 2219 C 215.376 -0.967267 -4.47669 0
M  V30 2220 N 216.867 -0.923849 -4.53893 0
M  V30 2221 C 217.602 -1.25578 -5.5948 0
M  V30 2222 N 217.098 -1.65889 -6.72646 0
M  V30 2223 N 218.891 -1.17613 -5.49658 0
M  V30 2224 H 211.042 -1.37123 -1.62206 0
M  V30 2225 H 213.305 -0.56294 -0.76276 0
M  V30 2226 H 213.011 -1.58275 -3.14073 0
M  V30 2227 H 212.885 0.0498042 -3.77167 0
M  V30 2228 H 215.272 0.528909 -2.90321 0
M  V30 2229 H 215.353 -1.13056 -2.2946 0
M  V30 2230 H 214.997 -1.9956 -4.67053 0
M  V30 2231 H 214.927 -0.314698 -5.25659 0
M  V30 2232 H 217.418 -0.627403 -3.72655 0
M  V30 2233 H 217.731 -1.89543 -7.49195 0
M  V30 2234 H 216.076 -1.69787 -6.73942 0
M  V30 2235 H 219.267 -0.860115 -4.6013 0
M  V30 2236 H 219.44 -1.43812 -6.3184 0
M  V30 2237 N 212.846 1.57033 -0.133567 0
M  V30 2238 C 213.776 2.1909 0.807567 0
M  V30 2239 C 214.757 1.13517 1.26681 0
M  V30 2240 O 215.942 1.41809 1.32679 0
M  V30 2241 C 213.072 2.80188 2.05212 0
M  V30 2242 C 212.026 3.91471 1.73015 0
M  V30 2243 C 211.352 4.39443 3.04622 0
M  V30 2244 C 212.652 5.12886 0.987168 0
M  V30 2245 H 214.346 2.97988 0.290403 0
M  V30 2246 H 211.892 1.43335 0.138239 0
M  V30 2247 H 213.845 3.22264 2.71521 0
M  V30 2248 H 212.569 1.98601 2.59278 0
M  V30 2249 H 211.228 3.49993 1.0909 0
M  V30 2250 H 210.876 3.54695 3.56651 0
M  V30 2251 H 210.576 5.14495 2.83847 0
M  V30 2252 H 212.1 4.8418 3.72024 0
M  V30 2253 H 213.514 5.51891 1.55208 0
M  V30 2254 H 211.911 5.93615 0.87985 0
M  V30 2255 H 212.981 4.84894 -0.0235286 0
M  V30 2256 N 214.325 -0.140222 1.56975 0
M  V30 2257 C 215.235 -1.19223 2.02047 0
M  V30 2258 C 216.251 -1.46612 0.937062 0
M  V30 2259 O 217.427 -1.58148 1.24704 0
M  V30 2260 C 214.492 -2.50414 2.39778 0
M  V30 2261 C 213.553 -2.30612 3.621 0
M  V30 2262 C 212.786 -3.55547 3.98023 0
M  V30 2263 O 213.009 -4.62004 3.34528 0
M  V30 2264 O 211.943 -3.47808 4.91237 0
M  V30 2265 H 215.769 -0.839559 2.91865 0
M  V30 2266 H 213.354 -0.349453 1.45256 0
M  V30 2267 H 215.236 -3.27747 2.64877 0
M  V30 2268 H 213.911 -2.85198 1.53114 0
M  V30 2269 H 212.818 -1.51207 3.4218 0
M  V30 2270 H 214.151 -2.00741 4.49404 0
M  V30 2271 N 215.803 -1.52179 -0.40978 0
M  V30 2272 C 216.735 -1.71703 -1.51825 0
M  V30 2273 C 217.748 -0.597445 -1.51441 0
M  V30 2274 O 218.937 -0.872582 -1.55719 0
M  V30 2275 C 216.037 -1.74171 -2.90719 0
M  V30 2276 C 215.21 -3.03156 -3.15302 0
M  V30 2277 C 214.269 -2.97445 -4.34065 0
M  V30 2278 O 213.295 -3.71352 -4.31377 0
M  V30 2279 N 214.497 -2.15191 -5.39141 0
M  V30 2280 H 217.262 -2.67334 -1.35472 0
M  V30 2281 H 214.823 -1.50409 -0.599069 0
M  V30 2282 H 216.815 -1.67884 -3.68235 0
M  V30 2283 H 215.385 -0.860166 -3.00533 0
M  V30 2284 H 214.605 -3.23097 -2.25836 0
M  V30 2285 H 215.893 -3.88484 -3.28569 0
M  V30 2286 H 215.291 -1.54573 -5.44173 0
M  V30 2287 H 213.848 -2.1476 -6.15403 0
M  V30 2288 N 217.281 0.66697 -1.42791 0
M  V30 2289 C 218.527 1.4291 -1.43891 0
M  V30 2290 C 218.86 1.94114 -0.0578972 0
M  V30 2291 O 218.135 1.71414 0.91911 0
M  V30 2292 C 218.418 2.62049 -2.46987 0
M  V30 2293 C 218.271 2.16426 -3.94309 0
M  V30 2294 C 219.59 3.64266 -2.46978 0
M  V30 2295 H 216.709 0.518306 -0.523954 0
M  V30 2296 H 219.351 0.757321 -1.74255 0
M  V30 2297 H 217.501 3.19361 -2.21225 0
M  V30 2298 H 219.173 1.64221 -4.31079 0
M  V30 2299 H 217.416 1.47925 -4.078 0
M  V30 2300 H 218.087 3.02038 -4.62036 0
M  V30 2301 H 220.563 3.16686 -2.69906 0
M  V30 2302 H 219.439 4.45196 -3.21079 0
M  V30 2303 H 219.7 4.15927 -1.49857 0
M  V30 2304 N 218.759 1.29093 0.90403 0
M  V30 2305 C 219.689 1.16401 2.02418 0
M  V30 2306 C 220.67 0.0593085 1.69997 0
M  V30 2307 O 221.855 0.238021 1.92736 0
M  V30 2308 C 218.985 0.835233 3.37107 0
M  V30 2309 C 217.939 1.89578 3.83724 0
M  V30 2310 C 217.265 1.42041 5.15489 0
M  V30 2311 C 218.565 3.30394 4.04521 0
M  V30 2312 H 220.259 2.10109 2.13295 0
M  V30 2313 H 217.805 1.01157 1.02486 0
M  V30 2314 H 219.758 0.733169 4.14973 0
M  V30 2315 H 218.482 -0.137543 3.2631 0
M  V30 2316 H 217.141 1.98715 3.08071 0
M  V30 2317 H 216.789 0.436426 5.01103 0
M  V30 2318 H 216.489 2.12964 5.4765 0
M  V30 2319 H 218.013 1.33176 5.959 0
M  V30 2320 H 219.427 3.24123 4.72882 0
M  V30 2321 H 217.824 3.99237 4.48029 0
M  V30 2322 H 218.894 3.73692 3.09002 0
M  V30 2323 N 220.237 -1.11381 1.11499 0
M  V30 2324 C 221.486 -1.82494 0.858993 0
M  V30 2325 C 221.799 -1.85605 -0.617278 0
M  V30 2326 O 223.005 -2.52824 -0.989552 0
M  V30 2327 C 221.461 -3.27745 1.48699 0
M  V30 2328 C 221.069 -3.32961 2.99735 0
M  V30 2329 C 222.813 -4.03754 1.31085 0
M  V30 2330 C 220.72 -4.72612 3.55516 0
M  V30 2331 H 219.65 -0.683802 0.317696 0
M  V30 2332 H 222.301 -1.25331 1.34031 0
M  V30 2333 H 220.683 -3.84844 0.933339 0
M  V30 2334 H 221.857 -2.85741 3.61509 0
M  V30 2335 H 220.172 -2.70433 3.16631 0
M  V30 2336 H 222.769 -5.06891 1.70192 0
M  V30 2337 H 223.112 -4.15527 0.253496 0
M  V30 2338 H 223.645 -3.53043 1.83318 0
M  V30 2339 H 220.384 -4.66036 4.60967 0
M  V30 2340 H 219.904 -5.2024 2.98513 0
M  V30 2341 H 221.583 -5.4157 3.53992 0
M  V30 2342 N 221.715 -0.905404 -1.28997 0
M  V30 2343 C 223.131 -0.60233 -1.47798 0
M  V30 2344 C 223.331 0.854645 -1.82478 0
M  V30 2345 O 222.387 1.63439 -1.92468 0
M  V30 2346 C 223.7 -1.53306 -2.58685 0
M  V30 2347 C 225.248 -1.53887 -2.72558 0
M  V30 2348 C 225.723 -2.45602 -3.86579 0
M  V30 2349 N 227.214 -2.43681 -3.93921 0
M  V30 2350 C 227.949 -3.11347 -4.81509 0
M  V30 2351 N 227.445 -3.88313 -5.73746 0
M  V30 2352 N 229.238 -3.00476 -4.75048 0
M  V30 2353 H 221.389 -1.84765 -1.04764 0
M  V30 2354 H 223.652 -0.792025 -0.520961 0
M  V30 2355 H 223.358 -2.57141 -2.39941 0
M  V30 2356 H 223.232 -1.25787 -3.55609 0
M  V30 2357 H 225.619 -0.507941 -2.90696 0
M  V30 2358 H 225.7 -1.85447 -1.76191 0
M  V30 2359 H 225.344 -3.48792 -3.69197 0
M  V30 2360 H 225.274 -2.11349 -4.82327 0
M  V30 2361 H 227.765 -1.87767 -3.27951 0
M  V30 2362 H 228.078 -4.36985 -6.37389 0
M  V30 2363 H 226.423 -3.92419 -5.73614 0
M  V30 2364 H 229.614 -2.39858 -4.01977 0
M  V30 2365 H 229.787 -3.53485 -5.43095 0
M  V30 2366 N 223.193 1.4272 -0.668489 0
M  V30 2367 C 224.418 2.06484 -0.194758 0
M  V30 2368 C 224.843 1.49862 1.13679 0
M  V30 2369 O 224.201 0.614582 1.70565 0
M  V30 2370 C 224.249 3.60353 -0.133546 0
M  V30 2371 O 223.353 4.02464 0.899806 0
M  V30 2372 H 222.694 0.656137 -0.10188 0
M  V30 2373 H 225.224 1.82964 -0.915722 0
M  V30 2374 H 225.234 4.07976 0.0447041 0
M  V30 2375 H 223.909 4.00938 -1.1055 0
M  V30 2376 H 222.486 3.66402 0.693109 0
M  V30 2377 N 224.671 0.411399 1.52136 0
M  V30 2378 C 225.621 -0.430376 2.23901 0
M  V30 2379 C 226.605 -1.0116 1.25121 0
M  V30 2380 O 227.797 -0.934044 1.50348 0
M  V30 2381 C 224.926 -1.54527 3.06556 0
M  V30 2382 C 224.012 -0.9747 4.12747 0
M  V30 2383 N 224.403 -0.130991 5.0563 0
M  V30 2384 C 222.701 -1.24497 4.28271 0
M  V30 2385 C 223.402 0.186689 5.814 0
M  V30 2386 N 222.378 -0.42304 5.41951 0
M  V30 2387 H 226.18 0.220509 2.93072 0
M  V30 2388 H 223.694 0.221952 1.60876 0
M  V30 2389 H 225.691 -2.16093 3.56524 0
M  V30 2390 H 224.351 -2.19875 2.38925 0
M  V30 2391 H 225.362 0.23349 5.17373 0
M  V30 2392 H 222.039 -1.89787 3.7187 0
M  V30 2393 H 223.429 0.871673 6.66222 0
M  V30 2394 N 226.149 -1.5696 0.141893 0
M  V30 2395 C 227.079 -2.19516 -0.795936 0
M  V30 2396 C 228.06 -1.14187 -1.26077 0
M  V30 2397 O 229.245 -1.42511 -1.31925 0
M  V30 2398 C 226.375 -2.81272 -2.03723 0
M  V30 2399 C 225.329 -3.92384 -1.70936 0
M  V30 2400 C 224.655 -4.41052 -3.02287 0
M  V30 2401 C 225.955 -5.13403 -0.959954 0
M  V30 2402 H 227.649 -2.98138 -0.274596 0
M  V30 2403 H 225.195 -1.43406 -0.130636 0
M  V30 2404 H 227.148 -3.237 -2.69808 0
M  V30 2405 H 225.872 -1.99973 -2.58221 0
M  V30 2406 H 224.531 -3.50566 -1.07232 0
M  V30 2407 H 224.179 -3.56582 -3.54765 0
M  V30 2408 H 223.879 -5.15993 -2.81114 0
M  V30 2409 H 225.403 -4.86146 -3.69451 0
M  V30 2410 H 226.817 -5.52706 -1.52279 0
M  V30 2411 H 225.214 -5.94073 -0.848357 0
M  V30 2412 H 226.284 -4.84875 0.0492434 0
M  V30 2413 N 227.627 0.131896 -1.57047 0
M  V30 2414 C 228.537 1.1815 -2.02676 0
M  V30 2415 C 229.553 1.46113 -0.944824 0
M  V30 2416 O 230.729 1.57485 -1.25541 0
M  V30 2417 C 227.794 2.49139 -2.41103 0
M  V30 2418 C 226.855 2.28688 -3.63318 0
M  V30 2419 C 226.088 3.53431 -3.99903 0
M  V30 2420 O 226.311 4.60223 -3.36973 0
M  V30 2421 O 225.245 3.45198 -4.93074 0
M  V30 2422 H 229.071 0.824069 -2.92306 0
M  V30 2423 H 226.656 0.341745 -1.45439 0
M  V30 2424 H 228.538 3.26338 -2.66611 0
M  V30 2425 H 227.213 2.84382 -1.54624 0
M  V30 2426 H 226.12 1.4939 -3.42977 0
M  V30 2427 H 227.453 1.98355 -4.50462 0
M  V30 2428 N 229.106 1.52395 0.401703 0
M  V30 2429 C 230.038 1.72505 1.50912 0
M  V30 2430 C 231.051 0.605468 1.51122 0
M  V30 2431 O 232.24 0.880828 1.55254 0
M  V30 2432 C 229.34 1.75711 2.89791 0
M  V30 2433 C 228.513 3.04824 3.1369 0
M  V30 2434 C 227.572 2.99743 4.32482 0
M  V30 2435 O 226.598 3.73635 4.29402 0
M  V30 2436 N 227.8 2.18047 5.37992 0
M  V30 2437 H 230.565 2.68049 1.34052 0
M  V30 2438 H 228.126 1.50724 0.591084 0
M  V30 2439 H 230.118 1.69834 3.6734 0
M  V30 2440 H 228.688 0.876092 3.00072 0
M  V30 2441 H 227.908 3.2429 2.24119 0
M  V30 2442 H 229.196 3.90221 3.26504 0
M  V30 2443 H 228.594 1.57456 5.43345 0
M  V30 2444 H 227.151 2.18021 6.14256 0
M  V30 2445 N 230.584 -0.659388 1.43143 0
M  V30 2446 C 231.812 -1.44723 1.47861 0
M  V30 2447 C 232.227 -1.88563 0.0945886 0
M  V30 2448 O 231.584 -1.59108 -0.893915 0
M  V30 2449 C 231.635 -2.68627 2.41913 0
M  V30 2450 O 231.356 -2.26623 3.74932 0
M  V30 2451 C 232.857 -3.62045 2.55809 0
M  V30 2452 H 230.077 -0.444801 0.502387 0
M  V30 2453 H 232.621 -0.808916 1.87821 0
M  V30 2454 H 230.776 -3.28613 2.05164 0
M  V30 2455 H 231.19 -3.06745 4.2545 0
M  V30 2456 H 232.664 -4.45666 3.25708 0
M  V30 2457 H 233.141 -4.08981 1.60099 0
M  V30 2458 H 233.747 -3.07944 2.93344 0
M  V30 2459 N 232.062 -1.29571 -0.897171 0
M  V30 2460 C 233.01 -1.14802 -2.02295 0
M  V30 2461 C 234.004 -0.0629637 -1.69283 0
M  V30 2462 O 235.21 -0.222945 -1.78614 0
M  V30 2463 H 231.585 -0.354692 -0.663097 0
M  V30 2464 H 233.556 -2.10108 -2.11889 0
M  V30 2465 C 232.305 -0.843966 -3.37302 0
M  V30 2466 H 231.628 -1.67093 -3.63208 0
M  V30 2467 H 233.068 -0.780672 -4.16751 0
M  V30 2468 C 231.527 0.452843 -3.33843 0
M  V30 2469 O 232.057 1.47813 -3.73516 0
M  V30 2470 N 230.263 0.459601 -2.86943 0
M  V30 2471 H 229.81 -0.375213 -2.54853 0
M  V30 2472 H 229.768 1.32726 -2.85011 0
M  V30 2473 N 233.54 1.10788 -1.12088 0
M  V30 2474 C 234.503 2.15207 -0.788577 0
M  V30 2475 C 235.503 1.59609 0.195317 0
M  V30 2476 O 236.693 1.74174 -0.0300193 0
M  V30 2477 C 233.825 3.4047 -0.171174 0
M  V30 2478 H 235.018 2.46116 -1.71368 0
M  V30 2479 H 232.571 1.26089 -0.923652 0
M  V30 2480 H 233.306 3.15176 0.763832 0
M  V30 2481 H 233.091 3.82109 -0.879514 0
M  V30 2482 H 234.581 4.17576 0.04496 0
M  V30 2483 N 235.018 0.912232 1.28515 0
M  V30 2484 C 236.295 0.463597 1.90027 0
M  V30 2485 C 236.675 -1.05753 1.82701 0
M  V30 2486 O 236.023 -1.90492 1.26194 0
M  V30 2487 C 236.233 0.992253 3.34597 0
M  V30 2488 C 237.581 1.04344 4.11579 0
M  V30 2489 O 238.605 0.94079 3.43551 0
M  V30 2490 O 237.464 1.1995 5.33174 0
M  V30 2491 H 234.558 0.146666 0.813891 0
M  V30 2492 H 237.104 1.00292 1.36893 0
M  V30 2493 H 235.876 2.03623 3.34146 0
M  V30 2494 H 235.499 0.433672 3.95228 0
M  V30 2495 N 236.496 -1.42363 0.676048 0
M  V30 2496 C 237.406 -2.346 -0.00153389 0
M  V30 2497 C 238.422 -1.5516 -0.787485 0
M  V30 2498 O 239.598 -1.87723 -0.729521 0
M  V30 2499 C 236.663 -3.33705 -0.940298 0
M  V30 2500 C 235.724 -4.29042 -0.148739 0
M  V30 2501 C 234.957 -5.23413 -1.04279 0
M  V30 2502 O 235.18 -5.22749 -2.28232 0
M  V30 2503 O 234.114 -5.99795 -0.502925 0
M  V30 2504 H 237.94 -2.94082 0.758268 0
M  V30 2505 H 235.525 -1.42888 0.436289 0
M  V30 2506 H 237.407 -3.94586 -1.47917 0
M  V30 2507 H 236.082 -2.76695 -1.67993 0
M  V30 2508 H 234.989 -3.71571 0.43427 0
M  V30 2509 H 236.322 -4.89097 0.551805 0
M  V30 2510 N 237.974 -0.419461 -1.51915 0
M  V30 2511 C 238.937 0.389116 -2.25873 0
M  V30 2512 C 239.937 0.964924 -1.28631 0
M  V30 2513 O 241.127 0.842179 -1.52489 0
M  V30 2514 C 238.259 1.54874 -3.03689 0
M  V30 2515 H 239.452 -0.258799 -2.98781 0
M  V30 2516 H 237.005 -0.172209 -1.55348 0
M  V30 2517 H 237.74 2.23323 -2.35154 0
M  V30 2518 H 237.525 1.14223 -3.75094 0
M  V30 2519 H 239.015 2.12046 -3.59759 0
M  V30 2520 N 239.452 1.56882 -0.150215 0
M  V30 2521 C 240.382 2.19935 0.784284 0
M  V30 2522 C 241.363 1.14854 1.25469 0
M  V30 2523 O 242.548 1.43209 1.31168 0
M  V30 2524 C 239.678 2.82349 2.02229 0
M  V30 2525 C 238.632 3.93285 1.68853 0
M  V30 2526 C 237.958 4.42649 2.99944 0
M  V30 2527 C 239.258 5.13904 0.932714 0
M  V30 2528 H 240.952 2.9828 0.258781 0
M  V30 2529 H 238.498 1.43473 0.123029 0
M  V30 2530 H 240.451 3.25126 2.68088 0
M  V30 2531 H 239.175 2.0134 2.57157 0
M  V30 2532 H 237.834 3.5113 1.05371 0
M  V30 2533 H 237.482 3.58458 3.52869 0
M  V30 2534 H 237.182 5.17476 2.78374 0
M  V30 2535 H 238.706 4.88099 3.66868 0
M  V30 2536 H 240.12 5.53506 1.49345 0
M  V30 2537 H 238.517 5.94515 0.81684 0
M  V30 2538 H 239.587 4.84842 -0.0749568 0
M  V30 2539 N 240.93 -0.123565 1.57115 0
M  V30 2540 C 242.176 -0.833386 1.84885 0
M  V30 2541 C 242.509 -1.79742 0.735292 0
M  V30 2542 O 241.784 -1.92764 -0.25925 0
M  V30 2543 C 242.067 -1.5873 3.23228 0
M  V30 2544 C 241.92 -0.643183 4.45178 0
M  V30 2545 C 243.239 -2.54453 3.59085 0
M  V30 2546 H 240.358 -0.301518 0.6725 0
M  V30 2547 H 243 -0.097778 1.89748 0
M  V30 2548 H 241.15 -2.21438 3.19214 0
M  V30 2549 H 242.822 -0.0253015 4.61293 0
M  V30 2550 H 241.065 0.0456139 4.33776 0
M  V30 2551 H 241.736 -1.20724 5.38637 0
M  V30 2552 H 244.212 -2.01853 3.63861 0
M  V30 2553 H 243.088 -3.04238 4.5687 0
M  V30 2554 H 243.349 -3.36906 2.86264 0
M  V30 2555 N 242.408 -1.52605 -0.393616 0
M  V30 2556 C 243.338 -1.80022 -1.48709 0
M  V30 2557 C 244.319 -0.651995 -1.57108 0
M  V30 2558 O 245.504 -0.89913 -1.72132 0
M  V30 2559 C 242.634 -1.96492 -2.86371 0
M  V30 2560 C 241.588 -3.12161 -2.92813 0
M  V30 2561 C 240.914 -3.13877 -4.3288 0
M  V30 2562 C 242.214 -4.51322 -2.6288 0
M  V30 2563 H 243.908 -2.71589 -1.26015 0
M  V30 2564 H 241.454 -1.30684 -0.604778 0
M  V30 2565 H 243.407 -2.14255 -3.62867 0
M  V30 2566 H 242.131 -1.01611 -3.10391 0
M  V30 2567 H 240.79 -2.94173 -2.18764 0
M  V30 2568 H 240.438 -2.16687 -4.53933 0
M  V30 2569 H 240.138 -3.91576 -4.38112 0
M  V30 2570 H 241.662 -3.33789 -5.1129 0
M  V30 2571 H 243.076 -4.69435 -3.29096 0
M  V30 2572 H 241.473 -5.31053 -2.79468 0
M  V30 2573 H 242.543 -4.58353 -1.58242 0
M  V30 2574 N 243.887 0.651787 -1.4349 0
M  V30 2575 C 245.164 1.40909 -1.35661 0
M  V30 2576 C 245.544 2.11099 -0.00511733 0
M  V30 2577 O 244.892 2.04892 1.0115 0
M  V30 2578 C 245.102 2.3926 -2.54078 0
M  V30 2579 C 246.45 3.03217 -2.97228 0
M  V30 2580 O 247.474 2.49588 -2.54135 0
M  V30 2581 O 246.333 4.00455 -3.71885 0
M  V30 2582 H 243.427 0.629625 -0.536191 0
M  V30 2583 H 245.973 0.678575 -1.55542 0
M  V30 2584 H 244.745 1.86352 -3.44076 0
M  V30 2585 H 244.368 3.1976 -2.36303 0
M  V30 2586 N 245.365 1.30045 0.890287 0
M  V30 2587 C 246.59 1.21598 1.68014 0
M  V30 2588 C 247.015 -0.218678 1.86825 0
M  V30 2589 O 246.373 -1.15756 1.39536 0
M  V30 2590 C 246.421 1.94434 3.03691 0
M  V30 2591 O 245.525 1.2678 3.92429 0
M  V30 2592 H 244.866 0.420856 0.513592 0
M  V30 2593 H 247.396 1.71775 1.11151 0
M  V30 2594 H 247.406 2.03251 3.5377 0
M  V30 2595 H 246.081 2.98777 2.89318 0
M  V30 2596 H 244.658 1.26282 3.50866 0
M  V30 2597 N 246.843 -1.10192 1.12674 0
M  V30 2598 C 247.753 -2.20172 0.810026 0
M  V30 2599 C 248.769 -1.72821 -0.202188 0
M  V30 2600 O 249.945 -2.01369 -0.0351691 0
M  V30 2601 C 247.01 -3.45631 0.272007 0
M  V30 2602 C 246.071 -4.07704 1.34447 0
M  V30 2603 C 245.304 -5.27175 0.832029 0
M  V30 2604 O 245.527 -5.69425 -0.333284 0
M  V30 2605 O 244.461 -5.80168 1.60277 0
M  V30 2606 H 248.287 -2.49701 1.72867 0
M  V30 2607 H 245.872 -1.18977 0.903597 0
M  V30 2608 H 247.754 -4.21394 -0.0230219 0
M  V30 2609 H 246.429 -3.17723 -0.619164 0
M  V30 2610 H 245.336 -3.33614 1.6927 0
M  V30 2611 H 246.669 -4.3982 2.2095 0
M  V30 2612 N 248.321 -0.919034 -1.28029 0
M  V30 2613 C 249.569 -0.553838 -1.94363 0
M  V30 2614 C 249.89 0.906357 -1.72656 0
M  V30 2615 O 249.16 1.64143 -1.0693 0
M  V30 2616 H 247.74 -0.201834 -0.719216 0
M  V30 2617 H 250.402 -1.16954 -1.55909 0
M  V30 2618 H 249.498 -0.752758 -3.02886 0
M  V30 2619 N 249.799 1.42003 -0.683588 0
M  V30 2620 C 251.045 2.02223 -0.218536 0
M  V30 2621 C 251.4 1.53126 1.16492 0
M  V30 2622 O 250.693 0.727459 1.77253 0
M  V30 2623 C 250.887 3.56827 -0.202357 0
M  V30 2624 C 250.716 4.20928 -1.5827 0
M  V30 2625 C 249.486 4.5573 -2.18262 0
M  V30 2626 C 251.684 4.47933 -2.52706 0
M  V30 2627 N 249.666 5.05056 -3.48986 0
M  V30 2628 C 251.037 4.98906 -3.68094 0
M  V30 2629 C 253.092 4.29931 -2.51125 0
M  V30 2630 C 251.795 5.33768 -4.82166 0
M  V30 2631 C 253.821 4.65875 -3.643 0
M  V30 2632 C 253.183 5.17008 -4.78417 0
M  V30 2633 H 249.282 0.771931 -0.125088 0
M  V30 2634 H 251.866 1.72729 -0.898479 0
M  V30 2635 H 250.037 3.85819 0.447029 0
M  V30 2636 H 251.769 4.03755 0.276399 0
M  V30 2637 H 248.524 4.41781 -1.70665 0
M  V30 2638 H 248.948 5.34139 -4.15962 0
M  V30 2639 H 253.59 3.89647 -1.6412 0
M  V30 2640 H 251.308 5.72981 -5.6984 0
M  V30 2641 H 254.894 4.53615 -3.64314 0
M  V30 2642 H 253.774 5.44301 -5.64541 0
M  V30 2643 N 251.277 0.427512 1.51691 0
M  V30 2644 C 252.523 -0.142439 2.02299 0
M  V30 2645 C 252.856 -1.43214 1.31162 0
M  V30 2646 O 252.131 -1.89833 0.423511 0
M  V30 2647 C 252.414 -0.371301 3.58181 0
M  V30 2648 C 252.267 0.936358 4.39946 0
M  V30 2649 C 253.586 -1.14542 4.24933 0
M  V30 2650 H 250.705 -0.0502937 0.735282 0
M  V30 2651 H 253.347 0.564584 1.81418 0
M  V30 2652 H 251.497 -0.973559 3.76104 0
M  V30 2653 H 253.169 1.57184 4.33694 0
M  V30 2654 H 251.412 1.5432 4.05423 0
M  V30 2655 H 252.083 0.730388 5.47147 0
M  V30 2656 H 254.559 -0.635362 4.11221 0
M  V30 2657 H 253.435 -1.27431 5.33903 0
M  V30 2658 H 253.696 -2.17093 3.85127 0
M  V30 2659 N 252.755 -1.56801 0.158532 0
M  V30 2660 C 253.983 -2.00859 -0.496303 0
M  V30 2661 C 254.398 -1.03871 -1.57659 0
M  V30 2662 O 253.755 -0.0375165 -1.82461 0
M  V30 2663 C 253.806 -3.4479 -1.08638 0
M  V30 2664 O 253.527 -4.38072 -0.0492322 0
M  V30 2665 C 255.028 -4.04185 -1.8207 0
M  V30 2666 H 252.248 -0.65864 -0.128199 0
M  V30 2667 H 254.792 -2.02885 0.256506 0
M  V30 2668 H 252.947 -3.43579 -1.78975 0
M  V30 2669 H 253.361 -5.2227 -0.483102 0
M  V30 2670 H 254.835 -5.06857 -2.18633 0
M  V30 2671 H 255.312 -3.45549 -2.71095 0
M  V30 2672 H 255.918 -4.0906 -1.16405 0
M  V30 2673 N 254.233 0.115231 -1.57178 0
M  V30 2674 C 255.143 1.15994 -2.03918 0
M  V30 2675 C 256.159 1.45103 -0.960268 0
M  V30 2676 O 257.335 1.56144 -1.27204 0
M  V30 2677 C 254.4 2.46568 -2.43732 0
M  V30 2678 C 253.461 2.24822 -3.65723 0
M  V30 2679 C 252.694 3.4917 -4.03629 0
M  V30 2680 O 252.917 4.56623 -3.41835 0
M  V30 2681 O 251.851 3.39949 -4.96708 0
M  V30 2682 H 255.677 0.793019 -2.93164 0
M  V30 2683 H 253.262 0.3263 -1.45793 0
M  V30 2684 H 255.144 3.23492 -2.70057 0
M  V30 2685 H 253.819 2.82726 -1.57631 0
M  V30 2686 H 252.726 1.45744 -3.44542 0
M  V30 2687 H 254.059 1.93566 -4.52541 0
M  V30 2688 N 255.711 1.52812 0.385517 0
M  V30 2689 C 256.951 1.69716 1.13911 0
M  V30 2690 C 257.315 0.42962 1.87132 0
M  V30 2691 O 258.516 0.475071 2.64569 0
M  V30 2692 C 256.787 2.90021 2.0886 0
M  V30 2693 S 258.346 3.27531 2.92009 0
M  V30 2694 H 255.164 0.59739 0.385547 0
M  V30 2695 H 257.766 1.90868 0.423061 0
M  V30 2696 H 256.47 3.80493 1.53797 0
M  V30 2697 H 256.001 2.71213 2.84969 0
M  V30 2698 H 258.016 2.77989 4.11019 0
M  V30 2699 N 257.189 -0.644168 1.43834 0
M  V30 2700 C 258.429 -1.41565 1.47441 0
M  V30 2701 C 258.793 -1.91743 0.0992723 0
M  V30 2702 O 259.994 -2.68798 0.0100192 0
M  V30 2703 C 258.265 -2.55902 2.49498 0
M  V30 2704 S 259.824 -3.44287 2.72051 0
M  V30 2705 H 256.642 -0.483118 0.521649 0
M  V30 2706 H 259.244 -0.747008 1.80666 0
M  V30 2707 H 257.948 -2.17327 3.48134 0
M  V30 2708 H 257.479 -3.27607 2.17801 0
M  V30 2709 H 259.494 -4.52927 2.0266 0
M  V30 2710 N 258.668 -1.30515 -0.883378 0
M  V30 2711 C 259.631 -1.1701 -1.97082 0
M  V30 2712 C 260.631 -0.10089 -1.60483 0
M  V30 2713 O 261.821 -0.349127 -1.70666 0
M  V30 2714 C 258.953 -0.793045 -3.31547 0
M  V30 2715 H 260.146 -2.13622 -2.10489 0
M  V30 2716 H 257.699 -1.13935 -1.06998 0
M  V30 2717 H 258.434 0.172499 -3.23841 0
M  V30 2718 H 258.219 -1.56576 -3.5948 0
M  V30 2719 H 259.709 -0.722073 -4.1131 0
M  V30 2720 N 260.146 1.09593 -1.13257 0
M  V30 2721 C 261.109 2.14359 -0.811358 0
M  V30 2722 C 262.109 1.59808 0.178377 0
M  V30 2723 O 263.299 1.74132 -0.0484911 0
M  V30 2724 C 260.431 3.40269 -0.207276 0
M  V30 2725 H 261.624 2.44284 -1.73969 0
M  V30 2726 H 259.177 1.25102 -0.936973 0
M  V30 2727 H 259.912 3.15969 0.73036 0
M  V30 2728 H 259.697 3.81154 -0.919992 0
M  V30 2729 H 261.187 4.176 0.000667944 0
M  V30 2730 N 261.624 0.925811 1.2754 0
M  V30 2731 C 262.572 0.413897 2.28888 0
M  V30 2732 C 263.566 -0.500779 1.61829 0
M  V30 2733 O 264.772 -0.38069 1.75928 0
M  V30 2734 H 261.147 0.115274 0.743112 0
M  V30 2735 H 263.118 1.28151 2.69481 0
M  V30 2736 C 261.867 -0.319792 3.46226 0
M  V30 2737 H 261.19 0.374846 3.98039 0
M  V30 2738 H 262.63 -0.642435 4.19105 0
M  V30 2739 C 261.089 -1.53209 3.00048 0
M  V30 2740 O 261.619 -2.6309 3.03557 0
M  V30 2741 N 259.825 -1.38326 2.55566 0
M  V30 2742 H 259.372 -0.489292 2.5291 0
M  V30 2743 H 259.33 -2.19564 2.25031 0
M  V30 2744 N 263.102 -1.41638 0.69111 0
M  V30 2745 C 264.032 -2.3347 0.037248 0
M  V30 2746 C 265.013 -1.51575 -0.771947 0
M  V30 2747 O 266.198 -1.80126 -0.72582 0
M  V30 2748 C 263.328 -3.35354 -0.903064 0
M  V30 2749 C 262.282 -4.27526 -0.201288 0
M  V30 2750 C 261.608 -5.19747 -1.25565 0
M  V30 2751 C 262.908 -5.13959 0.929689 0
M  V30 2752 H 264.602 -2.88397 0.804227 0
M  V30 2753 H 262.148 -1.38669 0.388189 0
M  V30 2754 H 264.101 -3.98519 -1.36969 0
M  V30 2755 H 262.825 -2.78767 -1.70166 0
M  V30 2756 H 261.484 -3.65779 0.245265 0
M  V30 2757 H 261.132 -4.59479 -2.04666 0
M  V30 2758 H 260.832 -5.8225 -0.791128 0
M  V30 2759 H 262.356 -5.85789 -1.72288 0
M  V30 2760 H 263.77 -5.70718 0.543546 0
M  V30 2761 H 262.167 -5.85379 1.32103 0
M  V30 2762 H 263.237 -4.51389 1.77133 0
M  V30 2763 N 264.58 -0.43555 -1.51462 0
M  V30 2764 C 265.827 0.131514 -2.02072 0
M  V30 2765 C 266.155 1.42868 -1.31981 0
M  V30 2766 O 265.41 1.91076 -0.422883 0
M  V30 2767 C 265.709 0.39942 -3.55161 0
M  V30 2768 C 265.375 -0.81172 -4.43533 0
M  V30 2769 C 264.037 -1.14387 -4.67407 0
M  V30 2770 C 266.389 -1.61976 -4.95392 0
M  V30 2771 C 263.717 -2.28477 -5.40384 0
M  V30 2772 C 266.069 -2.75164 -5.6962 0
M  V30 2773 C 264.733 -3.08835 -5.91758 0
M  V30 2774 H 264.003 0.0481244 -0.739436 0
M  V30 2775 H 266.65 -0.58238 -1.8243 0
M  V30 2776 H 264.955 1.19519 -3.73125 0
M  V30 2777 H 266.652 0.85157 -3.91854 0
M  V30 2778 H 263.242 -0.542898 -4.25148 0
M  V30 2779 H 267.426 -1.37637 -4.76833 0
M  V30 2780 H 262.682 -2.5488 -5.55739 0
M  V30 2781 H 266.856 -3.38147 -6.08793 0
M  V30 2782 H 264.483 -3.97353 -6.48086 0
M  V30 2783 N 266.058 1.56714 -0.166846 0
M  V30 2784 C 267.304 1.97813 0.473473 0
M  V30 2785 C 267.659 1.05095 1.61161 0
M  V30 2786 O 266.952 0.0897541 1.9139 0
M  V30 2787 C 267.146 3.42889 1.00806 0
M  V30 2788 C 266.975 4.49635 -0.0767392 0
M  V30 2789 C 265.745 5.02566 -0.524894 0
M  V30 2790 C 267.943 5.06793 -0.875504 0
M  V30 2791 N 265.925 5.9294 -1.59047 0
M  V30 2792 C 267.296 5.93565 -1.79111 0
M  V30 2793 C 269.351 4.89306 -0.921083 0
M  V30 2794 C 268.054 6.64721 -2.74843 0
M  V30 2795 C 270.08 5.61179 -1.86633 0
M  V30 2796 C 269.442 6.47675 -2.76942 0
M  V30 2797 H 265.541 0.769093 0.141489 0
M  V30 2798 H 268.125 1.92874 -0.266031 0
M  V30 2799 H 266.296 3.48382 1.7171 0
M  V30 2800 H 268.028 3.71008 1.61664 0
M  V30 2801 H 264.783 4.73439 -0.123432 0
M  V30 2802 H 265.207 6.42831 -2.12361 0
M  V30 2803 H 269.849 4.22136 -0.23692 0
M  V30 2804 H 267.567 7.31107 -3.44249 0
M  V30 2805 H 271.153 5.49636 -1.90764 0
M  V30 2806 H 270.033 7.02313 -3.48893 0
M  V30 2807 N 267.536 -0.106894 1.57237 0
M  V30 2808 C 268.952 -0.46078 1.52804 0
M  V30 2809 C 269.152 -1.81184 0.881746 0
M  V30 2810 O 268.208 -2.48102 0.469224 0
M  V30 2811 C 269.521 -0.434127 2.9755 0
M  V30 2812 C 271.069 -0.516821 3.08704 0
M  V30 2813 C 271.544 -0.520436 4.55033 0
M  V30 2814 N 273.035 -0.58153 4.59535 0
M  V30 2815 C 273.77 -0.605973 5.70189 0
M  V30 2816 N 273.266 -0.587331 6.90306 0
M  V30 2817 N 275.059 -0.649895 5.5833 0
M  V30 2818 H 267.21 0.778203 1.9763 0
M  V30 2819 H 269.473 0.288403 0.903066 0
M  V30 2820 H 269.179 0.491197 3.48253 0
M  V30 2821 H 269.053 -1.25748 3.55622 0
M  V30 2822 H 271.44 -1.43256 2.57995 0
M  V30 2823 H 271.521 0.334449 2.53604 0
M  V30 2824 H 271.165 0.391313 5.0639 0
M  V30 2825 H 271.095 -1.38876 5.07958 0
M  V30 2826 H 273.586 -0.60161 3.73081 0
M  V30 2827 H 273.899 -0.60894 7.70397 0
M  V30 2828 H 272.244 -0.554564 6.92784 0
M  V30 2829 H 275.435 -0.661907 4.63397 0
M  V30 2830 H 275.608 -0.665476 6.44574 0
M  V30 2831 N 269.014 -1.53014 -0.377408 0
M  V30 2832 C 269.961 -1.78616 -1.46168 0
M  V30 2833 C 270.931 -0.629917 -1.53692 0
M  V30 2834 O 272.116 -0.870861 -1.69766 0
M  V30 2835 C 269.256 -1.97123 -2.8326 0
M  V30 2836 C 268.369 -3.24831 -2.84796 0
M  V30 2837 C 267.504 -3.33591 -4.13389 0
M  V30 2838 C 266.543 -4.55377 -4.09021 0
M  V30 2839 N 265.68 -4.61355 -5.29241 0
M  V30 2840 H 270.52 -2.71142 -1.23637 0
M  V30 2841 H 268.057 -1.34326 -0.599577 0
M  V30 2842 H 270.015 -2.05839 -3.62886 0
M  V30 2843 H 268.645 -1.07946 -3.04216 0
M  V30 2844 H 267.697 -3.25128 -1.97474 0
M  V30 2845 H 269.009 -4.14523 -2.77439 0
M  V30 2846 H 268.163 -3.41554 -5.01424 0
M  V30 2847 H 266.902 -2.41894 -4.23484 0
M  V30 2848 H 265.907 -4.47527 -3.19373 0
M  V30 2849 H 267.132 -5.48402 -4.00539 0
M  V30 2850 H 265.078 -3.72554 -5.39944 0
M  V30 2851 H 264.995 -5.44935 -5.24006 0
M  V30 2852 H 266.263 -4.73586 -6.19141 0
M  V30 2853 N 270.492 0.636531 -1.44174 0
M  V30 2854 C 271.74 1.39343 -1.46383 0
M  V30 2855 C 272.061 1.94766 -0.0955715 0
M  V30 2856 O 271.331 1.75452 0.871395 0
M  V30 2857 H 269.911 0.517199 -0.538994 0
M  V30 2858 H 272.573 0.74957 -1.7991 0
M  V30 2859 H 271.669 2.22746 -2.18611 0
M  V30 2860 N 271.97 1.30982 0.876444 0
M  V30 2861 C 272.918 1.18006 2.00443 0
M  V30 2862 C 273.912 0.0898871 1.69161 0
M  V30 2863 O 275.118 0.251333 1.78237 0
M  V30 2864 H 271.493 0.365196 0.65737 0
M  V30 2865 H 273.464 2.13453 2.0852 0
M  V30 2866 C 272.213 0.897521 3.35916 0
M  V30 2867 H 271.536 1.7285 3.60504 0
M  V30 2868 H 272.976 0.846874 4.15456 0
M  V30 2869 C 271.435 -0.399674 3.34521 0
M  V30 2870 O 271.965 -1.41852 3.7582 0
M  V30 2871 N 270.171 -0.413893 2.87637 0
M  V30 2872 H 269.718 0.41571 2.54224 0
M  V30 2873 H 269.676 -1.28175 2.87086 0
M  V30 2874 N 273.449 -1.08991 1.13837 0
M  V30 2875 C 274.695 -1.81526 0.90422 0
M  V30 2876 C 275.028 -1.85706 -0.568066 0
M  V30 2877 O 274.303 -1.32855 -1.42056 0
M  V30 2878 C 274.586 -3.27447 1.49835 0
M  V30 2879 C 274.439 -3.31512 3.04006 0
M  V30 2880 C 275.758 -4.24256 1.17025 0
M  V30 2881 H 272.877 -0.659029 0.329923 0
M  V30 2882 H 275.519 -1.27644 1.40737 0
M  V30 2883 H 273.669 -3.73462 1.07044 0
M  V30 2884 H 275.341 -2.93867 3.55584 0
M  V30 2885 H 273.584 -2.70963 3.38765 0
M  V30 2886 H 274.255 -4.34329 3.40679 0
M  V30 2887 H 276.731 -3.86549 1.54009 0
M  V30 2888 H 275.607 -5.24684 1.61237 0
M  V30 2889 H 275.868 -4.42019 0.0846274 0
M  V30 2890 N 274.927 -0.932562 -1.27047 0
M  V30 2891 C 276.173 -0.576412 -1.94436 0
M  V30 2892 C 276.506 0.880891 -1.73072 0
M  V30 2893 O 275.781 1.62905 -1.06264 0
M  V30 2894 C 276.064 -0.909031 -3.48437 0
M  V30 2895 C 275.917 -2.42044 -3.79123 0
M  V30 2896 C 277.236 -0.418341 -4.38107 0
M  V30 2897 H 274.355 -0.210888 -0.706184 0
M  V30 2898 H 276.997 -1.16522 -1.50075 0
M  V30 2899 H 275.147 -0.407947 -3.86352 0
M  V30 2900 H 276.819 -2.99359 -3.50973 0
M  V30 2901 H 275.062 -2.86758 -3.25503 0
M  V30 2902 H 275.733 -2.6037 -4.86736 0
M  V30 2903 H 278.209 -0.847856 -4.0737 0
M  V30 2904 H 277.085 -0.679981 -5.44672 0
M  V30 2905 H 277.346 0.681642 -4.36814 0
M  V30 2906 N 276.405 1.4127 -0.698611 0
M  V30 2907 C 277.635 2.05205 -0.239644 0
M  V30 2908 C 278.043 1.52684 1.11733 0
M  V30 2909 O 277.386 0.671222 1.70998 0
M  V30 2910 C 277.448 3.59289 -0.123126 0
M  V30 2911 C 277.112 4.34619 -1.41263 0
M  V30 2912 C 278.109 4.63701 -2.35111 0
M  V30 2913 C 275.794 4.73837 -1.66684 0
M  V30 2914 C 277.788 5.30966 -3.52639 0
M  V30 2915 C 275.475 5.40837 -2.84498 0
M  V30 2916 C 276.473 5.69329 -3.77298 0
M  V30 2917 O 276.161 6.34949 -4.93047 0
M  V30 2918 H 275.893 0.66723 -0.108537 0
M  V30 2919 H 278.447 1.81974 -0.952602 0
M  V30 2920 H 276.677 3.81272 0.645628 0
M  V30 2921 H 278.366 4.04797 0.299056 0
M  V30 2922 H 279.132 4.33882 -2.16729 0
M  V30 2923 H 275.011 4.51039 -0.953135 0
M  V30 2924 H 278.555 5.53121 -4.25091 0
M  V30 2925 H 274.452 5.70075 -3.02795 0
M  V30 2926 H 275.22 6.53445 -4.92902 0
M  V30 2927 N 277.883 0.443576 1.51229 0
M  V30 2928 C 279.111 -0.11929 2.06556 0
M  V30 2929 C 279.526 -1.35921 1.31038 0
M  V30 2930 O 278.883 -1.78675 0.371704 0
M  V30 2931 C 278.934 -0.435228 3.5887 0
M  V30 2932 O 278.655 0.755486 4.31537 0
M  V30 2933 C 280.156 -1.04808 4.30732 0
M  V30 2934 H 277.376 -0.0051584 0.67098 0
M  V30 2935 H 279.92 0.624453 1.94733 0
M  V30 2936 H 278.075 -1.12887 3.70588 0
M  V30 2937 H 278.489 0.483491 5.22267 0
M  V30 2938 H 279.963 -1.2191 5.3837 0
M  V30 2939 H 280.44 -2.03081 3.89429 0
M  V30 2940 H 281.046 -0.393637 4.23474 0
M  V30 2941 N 279.361 -1.56624 0.175154 0
M  V30 2942 C 280.772 -1.83561 -0.340916 0
M  V30 2943 C 281.123 -1.09511 -1.62794 0
M  V30 2944 O 280.248 -0.349389 -2.13561 0
M  V30 2945 C 280.843 -3.32979 -0.625313 0
M  V30 2946 C 279.402 -3.60399 -1.08581 0
M  V30 2947 C 278.549 -2.77024 -0.123722 0
M  V30 2948 H 281.5 -1.53593 0.399344 0
M  V30 2949 H 281.521 -3.50666 -1.47694 0
M  V30 2950 H 281.033 -3.86847 0.311575 0
M  V30 2951 H 279.134 -3.11945 -2.03767 0
M  V30 2952 H 279.247 -4.68711 -0.992317 0
M  V30 2953 H 277.611 -2.46993 -0.621821 0
M  V30 2954 H 278.394 -3.33674 0.807256 0
M  V30 2955 N 280.839 0.0985539 -1.57292 0
M  V30 2956 C 282.255 0.45267 -1.53046 0
M  V30 2957 C 282.455 1.80713 -0.891342 0
M  V30 2958 O 281.511 2.4785 -0.482375 0
M  V30 2959 C 282.824 0.418341 -2.97776 0
M  V30 2960 C 284.372 0.500443 -3.08973 0
M  V30 2961 C 284.847 0.496297 -4.55303 0
M  V30 2962 N 286.338 0.557151 -4.59837 0
M  V30 2963 C 287.073 0.575726 -5.70502 0
M  V30 2964 N 286.569 0.550714 -6.90608 0
M  V30 2965 N 288.362 0.620277 -5.58667 0
M  V30 2966 H 280.513 -0.788673 -1.97215 0
M  V30 2967 H 282.776 -0.293188 -0.901524 0
M  V30 2968 H 282.482 -0.509659 -3.47988 0
M  V30 2969 H 282.356 1.2386 -3.56284 0
M  V30 2970 H 284.743 1.41886 -2.58751 0
M  V30 2971 H 284.824 -0.347894 -2.53423 0
M  V30 2972 H 284.468 -0.418162 -5.06176 0
M  V30 2973 H 284.398 1.3618 -5.08687 0
M  V30 2974 H 286.889 0.581816 -3.73394 0
M  V30 2975 H 287.202 0.568075 -7.70709 0
M  V30 2976 H 285.547 0.517816 -6.93068 0
M  V30 2977 H 288.738 0.637322 -4.63741 0
M  V30 2978 H 288.911 0.631283 -6.44918 0
M  V30 2979 N 282.317 1.53212 0.369288 0
M  V30 2980 C 283.247 1.82365 1.45826 0
M  V30 2981 C 284.228 0.676907 1.56051 0
M  V30 2982 O 285.413 0.926401 1.70679 0
M  V30 2983 C 282.543 2.01023 2.83208 0
M  V30 2984 C 281.497 3.1678 2.8781 0
M  V30 2985 C 280.823 3.20724 4.27832 0
M  V30 2986 C 282.123 4.55447 2.55667 0
M  V30 2987 H 283.817 2.73559 1.21678 0
M  V30 2988 H 281.363 1.3163 0.583911 0
M  V30 2989 H 283.316 2.20001 3.59413 0
M  V30 2990 H 282.04 1.06536 3.08736 0
M  V30 2991 H 280.699 2.97616 2.14056 0
M  V30 2992 H 280.347 2.23882 4.50429 0
M  V30 2993 H 280.047 3.98496 4.31827 0
M  V30 2994 H 281.571 3.41881 5.05915 0
M  V30 2995 H 282.985 4.74611 3.21586 0
M  V30 2996 H 281.382 5.35432 2.70984 0
M  V30 2997 H 282.452 4.60812 1.5093 0
M  V30 2998 N 283.795 -0.628877 1.44509 0
M  V30 2999 C 285.072 -1.38733 1.37886 0
M  V30 3000 C 285.452 -2.11065 0.0387008 0
M  V30 3001 O 284.8 -2.06476 -0.97878 0
M  V30 3002 C 285.01 -2.35188 2.57852 0
M  V30 3003 C 286.358 -2.9845 3.02014 0
M  V30 3004 O 287.382 -2.45513 2.58073 0
M  V30 3005 O 286.241 -3.94487 3.78209 0
M  V30 3006 H 283.335 -0.621015 0.54614 0
M  V30 3007 H 285.881 -0.653744 1.56602 0
M  V30 3008 H 284.653 -1.80855 3.46998 0
M  V30 3009 H 284.276 -3.1596 2.4136 0
M  V30 3010 N 285.273 -1.31445 -0.869486 0
M  V30 3011 C 286.205 -1.14955 -1.98287 0
M  V30 3012 C 287.218 -0.0885037 -1.62559 0
M  V30 3013 O 288.407 -0.336044 -1.75308 0
M  V30 3014 C 285.507 -0.734255 -3.3085 0
M  V30 3015 C 284.68 -1.88042 -3.94917 0
M  V30 3016 C 283.739 -1.4511 -5.05796 0
M  V30 3017 O 282.765 -2.16082 -5.2659 0
M  V30 3018 N 283.967 -0.338763 -5.79511 0
M  V30 3019 H 286.732 -2.10856 -2.12979 0
M  V30 3020 H 284.293 -1.23786 -1.04349 0
M  V30 3021 H 286.285 -0.42975 -4.02412 0
M  V30 3022 H 284.855 0.133158 -3.12316 0
M  V30 3023 H 284.075 -2.35222 -3.1633 0
M  V30 3024 H 285.363 -2.6481 -4.34457 0
M  V30 3025 H 284.761 0.252274 -5.65137 0
M  V30 3026 H 283.318 -0.0937925 -6.51733 0
M  V30 3027 N 286.751 1.08385 -1.14413 0
M  V30 3028 C 287.714 2.13486 -0.834048 0
M  V30 3029 C 288.714 1.59988 0.161418 0
M  V30 3030 O 289.904 1.74071 -0.0669575 0
M  V30 3031 C 287.036 3.4003 -0.243354 0
M  V30 3032 H 288.229 2.42425 -1.7655 0
M  V30 3033 H 285.782 1.24101 -0.950189 0
M  V30 3034 H 286.517 3.16726 0.696807 0
M  V30 3035 H 286.302 3.80157 -0.960367 0
M  V30 3036 H 287.792 4.17577 -0.0436242 0
M  V30 3037 N 288.23 0.939286 1.26551 0
M  V30 3038 C 289.478 0.58469 1.93457 0
M  V30 3039 C 289.799 -0.878774 1.74076 0
M  V30 3040 O 289.069 -1.62421 1.09528 0
M  V30 3041 H 287.649 0.21325 0.715914 0
M  V30 3042 H 290.311 1.1942 1.54029 0
M  V30 3043 H 289.407 0.800849 3.0165 0
M  V30 3044 N 289.708 -1.40897 0.706093 0
M  V30 3045 C 290.954 -2.01352 0.241889 0
M  V30 3046 C 291.287 -1.55832 -1.15888 0
M  V30 3047 O 290.562 -0.774145 -1.7843 0
M  V30 3048 C 290.845 -3.58752 0.311311 0
M  V30 3049 C 290.698 -4.1437 1.74978 0
M  V30 3050 C 292.017 -4.38914 -0.322922 0
M  V30 3051 H 289.136 -0.731562 0.0893687 0
M  V30 3052 H 291.778 -1.67504 0.896802 0
M  V30 3053 H 289.928 -3.87718 -0.246302 0
M  V30 3054 H 291.6 -3.96239 2.36205 0
M  V30 3055 H 289.843 -3.69016 2.28057 0
M  V30 3056 H 290.514 -5.23532 1.74981 0
M  V30 3057 H 292.99 -4.15822 0.152089 0
M  V30 3058 H 291.866 -5.48358 -0.243855 0
M  V30 3059 H 292.127 -4.19176 -1.40513 0
M  V30 3060 N 291.186 -0.45159 -1.50991 0
M  V30 3061 C 292.134 0.366864 -2.29689 0
M  V30 3062 C 293.128 1.00809 -1.36139 0
M  V30 3063 O 294.334 0.941427 -1.53418 0
M  V30 3064 H 290.709 0.137133 -0.739391 0
M  V30 3065 H 292.68 -0.317538 -2.96706 0
M  V30 3066 C 291.429 1.44751 -3.16137 0
M  V30 3067 H 290.752 0.963473 -3.88017 0
M  V30 3068 H 292.192 1.99315 -3.74232 0
M  V30 3069 C 290.651 2.43869 -2.32442 0
M  V30 3070 O 291.181 3.4872 -1.99392 0
M  V30 3071 N 289.387 2.15105 -1.95392 0
M  V30 3072 H 288.934 1.29866 -2.22469 0
M  V30 3073 H 288.892 2.81661 -1.39693 0
M  V30 3074 N 292.664 1.56529 -0.183458 0
M  V30 3075 C 293.912 1.96855 0.457452 0
M  V30 3076 C 294.233 1.07104 1.62953 0
M  V30 3077 O 293.503 0.139887 1.954 0
M  V30 3078 H 292.083 0.72693 0.171992 0
M  V30 3079 H 294.745 1.93056 -0.267476 0
M  V30 3080 H 293.841 3.01423 0.809368 0
M  V30 3081 N 294.142 -0.090211 1.57342 0
M  V30 3082 C 295.391 -0.791531 1.8552 0
M  V30 3083 C 295.704 -1.79659 0.773441 0
M  V30 3084 O 296.91 -2.54616 0.942497 0
M  V30 3085 C 295.366 -1.45856 3.2902 0
M  V30 3086 C 294.974 -0.493017 4.45279 0
M  V30 3087 C 296.718 -2.14332 3.66418 0
M  V30 3088 C 294.625 -1.16491 5.79814 0
M  V30 3089 H 293.555 -0.299356 0.692027 0
M  V30 3090 H 296.206 -0.0445343 1.83446 0
M  V30 3091 H 294.588 -2.25318 3.2565 0
M  V30 3092 H 295.762 0.270464 4.60006 0
M  V30 3093 H 294.077 0.0863061 4.16311 0
M  V30 3094 H 296.674 -2.65344 4.64216 0
M  V30 3095 H 297.017 -2.93447 2.95287 0
M  V30 3096 H 297.55 -1.41724 3.71698 0
M  V30 3097 H 294.289 -0.41447 6.54188 0
M  V30 3098 H 293.809 -1.8997 5.68921 0
M  V30 3099 H 295.488 -1.69001 6.24538 0
M  V30 3100 N 295.62 -1.53406 -0.361157 0
M  V30 3101 C 296.553 -1.74946 -1.46524 0
M  V30 3102 C 297.531 -0.59795 -1.51206 0
M  V30 3103 O 298.715 -0.831062 -1.69191 0
M  V30 3104 C 295.842 -1.83224 -2.84863 0
M  V30 3105 C 294.888 -3.05233 -2.97885 0
M  V30 3106 S 295.721 -4.6466 -2.66179 0
M  V30 3107 C 296.877 -4.75793 -4.06659 0
M  V30 3108 H 297.11 -2.68319 -1.28033 0
M  V30 3109 H 294.643 -1.44051 -0.555764 0
M  V30 3110 H 296.601 -1.88679 -3.64569 0
M  V30 3111 H 295.262 -0.908948 -3.00661 0
M  V30 3112 H 294.455 -3.07648 -3.9921 0
M  V30 3113 H 294.057 -2.97913 -2.26106 0
M  V30 3114 H 296.349 -4.5612 -5.0096 0
M  V30 3115 H 297.292 -5.7786 -4.09247 0
M  V30 3116 H 297.7 -4.04389 -3.93865 0
M  V30 3117 N 297.098 0.621204 -1.44841 0
M  V30 3118 C 298.514 0.94048 -1.28946 0
M  V30 3119 C 298.714 2.00154 -0.23249 0
M  V30 3120 O 297.77 2.49651 0.378237 0
M  V30 3121 C 299.083 1.39433 -2.66419 0
M  V30 3122 C 300.631 1.50927 -2.74208 0
M  V30 3123 C 301.106 1.99692 -4.12174 0
M  V30 3124 N 302.597 2.06947 -4.144 0
M  V30 3125 C 303.332 2.45871 -5.1801 0
M  V30 3126 N 302.828 2.83862 -6.31977 0
M  V30 3127 N 304.621 2.46092 -5.05366 0
M  V30 3128 H 296.772 -0.0803548 -2.12248 0
M  V30 3129 H 299.035 0.0266913 -0.947624 0
M  V30 3130 H 298.741 0.688925 -3.44887 0
M  V30 3131 H 298.615 2.36347 -2.93973 0
M  V30 3132 H 301.002 2.20561 -1.96053 0
M  V30 3133 H 301.083 0.523627 -2.50383 0
M  V30 3134 H 300.727 1.30649 -4.90809 0
M  V30 3135 H 300.657 2.99146 -4.33381 0
M  V30 3136 H 303.148 1.80232 -3.32152 0
M  V30 3137 H 303.461 3.12405 -7.0684 0
M  V30 3138 H 301.806 2.8159 -6.35399 0
M  V30 3139 H 304.997 2.1581 -4.15384 0
M  V30 3140 H 305.17 2.76102 -5.86235 0
M  V30 3141 N 298.576 1.31904 0.862503 0
M  V30 3142 C 299.508 1.16005 1.97675 0
M  V30 3143 C 300.521 0.0971234 1.6251 0
M  V30 3144 O 301.71 0.345337 1.75128 0
M  V30 3145 C 298.81 0.751791 3.30456 0
M  V30 3146 C 297.983 1.90133 3.93914 0
M  V30 3147 C 297.042 1.4779 5.05019 0
M  V30 3148 O 296.068 2.18872 5.25437 0
M  V30 3149 N 297.27 0.369491 5.79323 0
M  V30 3150 H 300.035 2.11982 2.11857 0
M  V30 3151 H 297.596 1.24337 1.03691 0
M  V30 3152 H 299.588 0.451084 4.02178 0
M  V30 3153 H 298.158 -0.116593 3.12382 0
M  V30 3154 H 297.378 2.36896 3.15078 0
M  V30 3155 H 298.666 2.67111 4.33047 0
M  V30 3156 H 298.064 -0.222299 5.65263 0
M  V30 3157 H 296.621 0.128354 6.51674 0
M  V30 3158 N 300.054 -1.07777 1.14986 0
M  V30 3159 C 301.301 -1.8029 0.922056 0
M  V30 3160 C 301.629 -1.86531 -0.55105 0
M  V30 3161 O 300.884 -1.34189 -1.42449 0
M  V30 3162 C 301.183 -3.25495 1.47608 0
M  V30 3163 C 300.849 -3.39361 2.96893 0
M  V30 3164 C 299.511 -3.42852 3.37647 0
M  V30 3165 C 301.863 -3.42512 3.92854 0
M  V30 3166 C 299.191 -3.47094 4.73015 0
M  V30 3167 C 301.543 -3.4829 5.28088 0
M  V30 3168 C 300.207 -3.50058 5.68345 0
M  V30 3169 H 299.477 -0.659727 0.337404 0
M  V30 3170 H 302.124 -1.26854 1.43459 0
M  V30 3171 H 300.429 -3.81683 0.88463 0
M  V30 3172 H 302.126 -3.80168 1.27568 0
M  V30 3173 H 298.716 -3.37339 2.64387 0
M  V30 3174 H 302.9 -3.3904 3.62444 0
M  V30 3175 H 298.156 -3.46758 5.03556 0
M  V30 3176 H 302.33 -3.49675 6.02246 0
M  V30 3177 H 299.957 -3.53097 6.73221 0
M  V30 3178 N 301.532 -0.945985 -1.26051 0
M  V30 3179 C 302.772 -0.603665 -1.95282 0
M  V30 3180 C 303.136 0.842377 -1.72534 0
M  V30 3181 O 304.337 1.29387 -2.35611 0
M  V30 3182 C 302.608 -0.942292 -3.44754 0
M  V30 3183 S 304.167 -0.711242 -4.32997 0
M  V30 3184 H 300.985 -0.222176 -0.675395 0
M  V30 3185 H 303.587 -1.21832 -1.52896 0
M  V30 3186 H 302.291 -1.99203 -3.58812 0
M  V30 3187 H 301.822 -0.317546 -3.92116 0
M  V30 3188 H 303.837 0.422221 -4.944 0
M  V30 3189 N 303.011 1.40521 -0.713556 0
M  V30 3190 C 304.26 2.00155 -0.249192 0
M  V30 3191 C 304.573 1.57224 1.16362 0
M  V30 3192 O 305.779 2.09542 1.72639 0
M  V30 3193 C 304.235 3.5773 -0.3946 0
M  V30 3194 C 303.843 4.09635 -1.81392 0
M  V30 3195 C 305.587 4.24499 0.00907364 0
M  V30 3196 C 303.494 5.59707 -1.91003 0
M  V30 3197 H 302.424 0.74868 -0.0894114 0
M  V30 3198 H 305.075 1.60784 -0.884352 0
M  V30 3199 H 303.457 3.94792 0.30911 0
M  V30 3200 H 304.631 3.83955 -2.54785 0
M  V30 3201 H 302.946 3.55456 -2.16888 0
M  V30 3202 H 305.543 5.34683 -0.0420404 0
M  V30 3203 H 305.886 4.02824 1.05065 0
M  V30 3204 H 306.419 3.92536 -0.645007 0
M  V30 3205 H 303.158 5.86234 -2.93275 0
M  V30 3206 H 302.678 5.87258 -1.22019 0
M  V30 3207 H 304.357 6.24776 -1.6812 0
M  V30 3208 N 304.489 0.459591 1.5075 0
M  V30 3209 C 305.905 0.113092 1.59199 0
M  V30 3210 C 306.105 -1.37951 1.46874 0
M  V30 3211 O 305.161 -2.15168 1.32132 0
M  V30 3212 C 306.474 0.653043 2.93523 0
M  V30 3213 C 308.022 0.615449 3.0689 0
M  V30 3214 C 308.497 1.13275 4.43771 0
M  V30 3215 N 309.988 1.09167 4.50152 0
M  V30 3216 C 310.723 1.46256 5.54434 0
M  V30 3217 N 310.219 1.90739 6.66026 0
M  V30 3218 N 312.012 1.37932 5.44914 0
M  V30 3219 H 304.163 1.43049 1.57005 0
M  V30 3220 H 306.426 0.590861 0.741341 0
M  V30 3221 H 306.132 1.69822 3.07983 0
M  V30 3222 H 306.006 0.0902132 3.77092 0
M  V30 3223 H 308.393 -0.420793 2.92084 0
M  V30 3224 H 308.474 1.21495 2.25106 0
M  V30 3225 H 308.118 2.16757 4.59324 0
M  V30 3226 H 308.048 0.509576 5.24129 0
M  V30 3227 H 310.539 0.76528 3.7007 0
M  V30 3228 H 310.852 2.17218 7.41644 0
M  V30 3229 H 309.197 1.94683 6.67176 0
M  V30 3230 H 312.388 1.0303 4.56621 0
M  V30 3231 H 312.561 1.67164 6.26067 0
M  V30 3232 N 305.967 -1.56429 0.191757 0
M  V30 3233 C 306.897 -2.21937 -0.725696 0
M  V30 3234 C 307.878 -1.1814 -1.2238 0
M  V30 3235 O 309.063 -1.46636 -1.27325 0
M  V30 3236 C 306.193 -2.87611 -1.94672 0
M  V30 3237 C 305.147 -3.97623 -1.58366 0
M  V30 3238 C 304.473 -4.50446 -2.88102 0
M  V30 3239 C 305.773 -5.16197 -0.796133 0
M  V30 3240 H 307.467 -2.98861 -0.179606 0
M  V30 3241 H 305.013 -1.43749 -0.0849464 0
M  V30 3242 H 306.966 -3.3212 -2.59373 0
M  V30 3243 H 305.69 -2.08087 -2.51728 0
M  V30 3244 H 304.349 -3.53801 -0.960247 0
M  V30 3245 H 303.997 -3.67688 -3.43241 0
M  V30 3246 H 303.697 -5.24675 -2.64556 0
M  V30 3247 H 305.221 -4.97654 -3.53798 0
M  V30 3248 H 306.635 -5.57271 -1.34618 0
M  V30 3249 H 305.032 -5.96471 -0.658928 0
M  V30 3250 H 306.102 -4.84473 0.203478 0
M  V30 3251 N 307.445 0.0818655 -1.57387 0
M  V30 3252 C 308.375 1.09885 -2.06028 0
M  V30 3253 C 309.356 1.4098 -0.951774 0
M  V30 3254 O 310.541 1.50781 -1.22387 0
M  V30 3255 C 307.671 2.4151 -2.4958 0
M  V30 3256 C 306.625 2.24792 -3.64215 0
M  V30 3257 C 305.951 3.61712 -3.93787 0
M  V30 3258 C 307.251 1.67749 -4.94629 0
M  V30 3259 H 308.945 0.694128 -2.91243 0
M  V30 3260 H 306.491 0.332448 -1.4011 0
M  V30 3261 H 308.444 3.12939 -2.82219 0
M  V30 3262 H 307.168 2.83943 -1.61381 0
M  V30 3263 H 305.827 1.55807 -3.31843 0
M  V30 3264 H 305.475 4.01697 -3.02735 0
M  V30 3265 H 305.175 3.51368 -4.70971 0
M  V30 3266 H 306.699 4.34587 -4.28913 0
M  V30 3267 H 308.113 2.29032 -5.25564 0
M  V30 3268 H 306.51 1.68128 -5.76067 0
M  V30 3269 H 307.58 0.638059 -4.80684 0
M  V30 3270 N 308.923 1.53595 0.353017 0
M  V30 3271 C 309.886 1.80232 1.41594 0
M  V30 3272 C 310.886 0.673081 1.46035 0
M  V30 3273 O 312.076 0.941335 1.46576 0
M  V30 3274 C 309.208 1.93578 2.80607 0
M  V30 3275 H 310.401 2.75174 1.19244 0
M  V30 3276 H 307.954 1.44864 0.586872 0
M  V30 3277 H 308.689 1.00746 3.08254 0
M  V30 3278 H 308.474 2.75724 2.78781 0
M  V30 3279 H 309.964 2.15735 3.57558 0
M  V30 3280 N 310.401 -0.613514 1.45168 0
M  V30 3281 C 311.333 -1.73825 1.4939 0
M  V30 3282 C 312.346 -1.58175 0.385304 0
M  V30 3283 O 313.535 -1.66165 0.652036 0
M  V30 3284 C 310.635 -3.11758 1.32891 0
M  V30 3285 C 309.808 -3.53704 2.57317 0
M  V30 3286 C 308.867 -4.70579 2.35462 0
M  V30 3287 O 307.893 -4.77996 3.09044 0
M  V30 3288 N 309.095 -5.63454 1.39644 0
M  V30 3289 H 311.86 -1.70669 2.46358 0
M  V30 3290 H 309.421 -0.79862 1.40832 0
M  V30 3291 H 311.413 -3.87692 1.1609 0
M  V30 3292 H 309.983 -3.09456 0.442218 0
M  V30 3293 H 309.203 -2.67794 2.89275 0
M  V30 3294 H 310.491 -3.78486 3.40038 0
M  V30 3295 H 309.889 -5.6017 0.789062 0
M  V30 3296 H 308.446 -6.38944 1.28816 0
M  V30 3297 N 311.879 -1.3236 -0.855495 0
M  V30 3298 C 313.104 -1.2601 -1.64731 0
M  V30 3299 C 313.529 0.169068 -1.87339 0
M  V30 3300 O 312.887 1.12016 -1.42556 0
M  V30 3301 C 312.935 -2.02417 -2.98429 0
M  V30 3302 O 312.039 -1.3714 -3.8893 0
M  V30 3303 H 311.38 -0.434325 -0.502253 0
M  V30 3304 H 313.91 -1.74661 -1.06558 0
M  V30 3305 H 313.92 -2.12559 -3.48257 0
M  V30 3306 H 312.595 -3.06343 -2.81295 0
M  V30 3307 H 311.172 -1.3554 -3.47395 0
M  V30 3308 N 313.357 1.07166 -1.15556 0
M  V30 3309 C 314.582 1.84053 -0.955988 0
M  V30 3310 C 315.007 1.81586 0.490739 0
M  V30 3311 O 314.365 1.21018 1.34997 0
M  V30 3312 C 314.413 3.28957 -1.47714 0
M  V30 3313 O 313.517 4.06795 -0.677593 0
M  V30 3314 H 312.858 0.569842 -0.340847 0
M  V30 3315 H 315.388 1.35178 -1.53584 0
M  V30 3316 H 315.398 3.79788 -1.4908 0
M  V30 3317 H 314.073 3.30068 -2.53037 0
M  V30 3318 H 312.65 3.6561 -0.733721 0
M  V30 3319 N 314.835 0.952656 1.25548 0
M  V30 3320 C 316.065 0.622592 1.96996 0
M  V30 3321 C 316.473 -0.809112 1.71026 0
M  V30 3322 O 315.816 -1.55258 0.981861 0
M  V30 3323 C 315.878 0.798946 3.5051 0
M  V30 3324 C 315.542 2.20744 4.00151 0
M  V30 3325 C 316.539 3.18394 4.11001 0
M  V30 3326 C 314.224 2.5311 4.33867 0
M  V30 3327 C 316.218 4.46504 4.54877 0
M  V30 3328 C 313.905 3.8145 4.7743 0
M  V30 3329 C 314.903 4.77959 4.87897 0
M  V30 3330 O 314.591 6.04012 5.30494 0
M  V30 3331 H 314.323 0.232503 0.634758 0
M  V30 3332 H 316.877 1.2789 1.60728 0
M  V30 3333 H 315.107 0.0854903 3.86605 0
M  V30 3334 H 316.796 0.47023 4.03167 0
M  V30 3335 H 317.562 2.94715 3.85186 0
M  V30 3336 H 313.441 1.78719 4.24948 0
M  V30 3337 H 316.985 5.21835 4.62962 0
M  V30 3338 H 312.882 4.04936 5.0269 0
M  V30 3339 H 313.65 6.0736 5.48685 0
M  V30 3340 N 316.313 -1.40141 0.720998 0
M  V30 3341 C 317.245 -2.29177 0.0324669 0
M  V30 3342 C 318.258 -1.46105 -0.718126 0
M  V30 3343 O 319.447 -1.69335 -0.564608 0
M  V30 3344 C 316.547 -3.24473 -0.978292 0
M  V30 3345 C 315.72 -4.36423 -0.292115 0
M  V30 3346 C 314.779 -5.12122 -1.20901 0
M  V30 3347 O 313.805 -5.64981 -0.691766 0
M  V30 3348 N 315.007 -5.21992 -2.53978 0
M  V30 3349 H 317.772 -2.88909 0.796984 0
M  V30 3350 H 315.333 -1.51569 0.569068 0
M  V30 3351 H 317.325 -3.71987 -1.59398 0
M  V30 3352 H 315.895 -2.65871 -1.64413 0
M  V30 3353 H 315.115 -3.90967 0.503847 0
M  V30 3354 H 316.403 -5.08467 0.183971 0
M  V30 3355 H 315.801 -4.8054 -2.98493 0
M  V30 3356 H 314.358 -5.72995 -3.10677 0
M  V30 3357 N 317.792 -0.46758 -1.50504 0
M  V30 3358 C 318.722 0.318381 -2.31319 0
M  V30 3359 C 319.703 0.993564 -1.38066 0
M  V30 3360 O 320.888 0.991411 -1.66987 0
M  V30 3361 C 318.018 1.40275 -3.17711 0
M  V30 3362 C 316.972 0.849373 -4.19487 0
M  V30 3363 C 316.298 2.03177 -4.94594 0
M  V30 3364 C 317.598 -0.136942 -5.2212 0
M  V30 3365 H 319.292 -0.356106 -2.97275 0
M  V30 3366 H 316.838 -0.172703 -1.42961 0
M  V30 3367 H 318.791 1.96004 -3.73042 0
M  V30 3368 H 317.515 2.10596 -2.49634 0
M  V30 3369 H 316.174 0.314076 -3.65252 0
M  V30 3370 H 315.822 2.72187 -4.22993 0
M  V30 3371 H 315.522 1.66774 -5.63436 0
M  V30 3372 H 317.046 2.59403 -5.52759 0
M  V30 3373 H 318.46 0.331056 -5.72343 0
M  V30 3374 H 316.857 -0.41507 -5.98663 0
M  V30 3375 H 317.927 -1.06398 -4.73083 0
M  V30 3376 N 319.27 1.56325 -0.20005 0
M  V30 3377 C 320.516 1.98012 0.438059 0
M  V30 3378 C 320.849 1.08702 1.60927 0
M  V30 3379 O 320.124 0.140064 1.93995 0
M  V30 3380 C 320.407 3.48841 0.893419 0
M  V30 3381 C 320.26 4.48928 -0.279947 0
M  V30 3382 C 321.579 4.03498 1.75719 0
M  V30 3383 H 318.698 0.719918 0.157757 0
M  V30 3384 H 321.34 1.87743 -0.291968 0
M  V30 3385 H 319.49 3.57723 1.51547 0
M  V30 3386 H 321.162 4.52079 -0.91772 0
M  V30 3387 H 319.405 4.23694 -0.930919 0
M  V30 3388 H 320.076 5.5194 0.0812601 0
M  V30 3389 H 322.552 3.97427 1.23253 0
M  V30 3390 H 321.428 5.09393 2.04476 0
M  V30 3391 H 321.689 3.4906 2.71311 0
M  V30 3392 N 320.748 -0.0735177 1.57428 0
M  V30 3393 C 321.658 -1.10547 2.06922 0
M  V30 3394 C 322.674 -1.42506 0.998402 0
M  V30 3395 O 323.85 -1.52717 1.31299 0
M  V30 3396 C 320.915 -2.40019 2.50184 0
M  V30 3397 C 319.976 -2.15046 3.71556 0
M  V30 3398 C 319.209 -3.38345 4.12745 0
M  V30 3399 O 319.432 -4.47399 3.53822 0
M  V30 3400 O 318.366 -3.2666 5.05546 0
M  V30 3401 H 322.192 -0.715013 2.95163 0
M  V30 3402 H 319.777 -0.287531 1.46607 0
M  V30 3403 H 321.659 -3.16218 2.78539 0
M  V30 3404 H 320.334 -2.78447 1.65072 0
M  V30 3405 H 319.241 -1.36558 3.48285 0
M  V30 3406 H 320.574 -1.81499 4.57514 0
M  V30 3407 N 322.226 -1.5378 -0.344866 0
M  V30 3408 C 323.472 -1.71216 -1.08687 0
M  V30 3409 C 323.805 -0.473281 -1.88345 0
M  V30 3410 O 323.08 0.52968 -1.87149 0
M  V30 3411 C 323.363 -2.97486 -2.02914 0
M  V30 3412 C 323.216 -4.31579 -1.26727 0
M  V30 3413 C 324.535 -3.19422 -3.0275 0
M  V30 3414 H 321.654 -0.62301 -0.393735 0
M  V30 3415 H 324.296 -1.8645 -0.365563 0
M  V30 3416 H 322.446 -2.84629 -2.64421 0
M  V30 3417 H 324.118 -4.56284 -0.67845 0
M  V30 3418 H 322.361 -4.30049 -0.569273 0
M  V30 3419 H 323.032 -5.16106 -1.95803 0
M  V30 3420 H 325.508 -3.316 -2.51357 0
M  V30 3421 H 324.384 -4.09169 -3.65885 0
M  V30 3422 H 324.645 -2.35656 -3.74057 0
M  V30 3423 N 323.704 0.605807 -1.45491 0
M  V30 3424 C 324.636 1.73031 -1.5031 0
M  V30 3425 C 325.649 1.57968 -0.393687 0
M  V30 3426 O 326.838 1.65817 -0.660839 0
M  V30 3427 C 323.938 3.11049 -1.34543 0
M  V30 3428 C 323.111 3.52334 -2.59189 0
M  V30 3429 C 322.17 4.69323 -2.37954 0
M  V30 3430 O 321.196 4.7635 -3.11575 0
M  V30 3431 N 322.398 5.62705 -1.4263 0
M  V30 3432 H 325.163 1.6936 -2.4726 0
M  V30 3433 H 322.724 0.79114 -1.41254 0
M  V30 3434 H 324.716 3.87071 -1.18144 0
M  V30 3435 H 323.286 3.09217 -0.458623 0
M  V30 3436 H 322.506 2.66256 -2.90691 0
M  V30 3437 H 323.794 3.76677 -3.42041 0
M  V30 3438 H 323.192 5.59744 -0.818758 0
M  V30 3439 H 321.749 6.38252 -1.32202 0
M  V30 3440 N 325.182 1.32811 0.848464 0
M  V30 3441 C 326.145 1.22194 1.9391 0
M  V30 3442 C 327.145 0.143404 1.60159 0
M  V30 3443 O 328.335 0.394253 1.6968 0
M  V30 3444 C 325.467 0.88067 3.29328 0
M  V30 3445 H 326.66 2.19127 2.04752 0
M  V30 3446 H 324.213 1.16731 1.0394 0
M  V30 3447 H 324.948 -0.0865776 3.24184 0
M  V30 3448 H 324.733 1.66052 3.55203 0
M  V30 3449 H 326.223 0.830871 4.09251 0
M  V30 3450 N 326.66 -1.06551 1.16123 0
M  V30 3451 C 327.885 -1.83544 0.965735 0
M  V30 3452 C 328.31 -1.81843 -0.481102 0
M  V30 3453 O 327.668 -1.21732 -1.34354 0
M  V30 3454 C 327.716 -3.28169 1.49457 0
M  V30 3455 O 326.82 -4.0643 0.699157 0
M  V30 3456 H 326.161 -0.568026 0.343864 0
M  V30 3457 H 328.691 -1.34362 1.54299 0
M  V30 3458 H 328.701 -3.78992 1.51092 0
M  V30 3459 H 327.376 -3.28722 2.54784 0
M  V30 3460 H 325.953 -3.65216 0.7531 0
M  V30 3461 N 328.138 -0.959301 -1.25041 0
M  V30 3462 C 329.068 -0.501388 -2.28053 0
M  V30 3463 C 330.049 0.454673 -1.63911 0
M  V30 3464 O 331.234 0.352618 -1.90972 0
M  V30 3465 C 328.364 0.217224 -3.4662 0
M  V30 3466 C 327.318 -0.654034 -4.22973 0
M  V30 3467 C 326.644 0.195589 -5.34342 0
M  V30 3468 C 327.944 -1.93447 -4.85155 0
M  V30 3469 H 329.638 -1.36238 -2.66608 0
M  V30 3470 H 327.184 -0.656534 -1.28163 0
M  V30 3471 H 329.137 0.548732 -4.17812 0
M  V30 3472 H 327.861 1.1125 -3.07068 0
M  V30 3473 H 326.52 -0.968693 -3.5357 0
M  V30 3474 H 326.168 1.09076 -4.91031 0
M  V30 3475 H 325.868 -0.384091 -5.86343 0
M  V30 3476 H 327.392 0.521958 -6.08365 0
M  V30 3477 H 328.806 -1.66908 -5.48466 0
M  V30 3478 H 327.203 -2.46018 -5.47353 0
M  V30 3479 H 328.273 -2.63466 -4.07079 0
M  V30 3480 N 329.616 1.39756 -0.72842 0
M  V30 3481 C 330.526 2.34444 -0.0855374 0
M  V30 3482 C 331.542 1.57976 0.729356 0
M  V30 3483 O 332.718 1.90301 0.659346 0
M  V30 3484 C 329.783 3.36965 0.815798 0
M  V30 3485 C 328.844 4.29299 -0.0105996 0
M  V30 3486 C 328.077 5.26923 0.84781 0
M  V30 3487 O 328.3 5.30859 2.08673 0
M  V30 3488 O 327.234 6.01249 0.279969 0
M  V30 3489 H 331.06 2.91065 -0.866892 0
M  V30 3490 H 328.645 1.4117 -0.48902 0
M  V30 3491 H 330.527 3.99804 1.33171 0
M  V30 3492 H 329.202 2.82739 1.57608 0
M  V30 3493 H 328.109 3.69703 -0.571877 0
M  V30 3494 H 329.442 4.86712 -0.73295 0
M  V30 3495 N 331.094 0.475555 1.50254 0
M  V30 3496 C 332.004 -0.321501 2.32387 0
M  V30 3497 C 333.02 -0.991755 1.42969 0
M  V30 3498 O 334.196 -0.978747 1.76018 0
M  V30 3499 C 331.261 -1.38667 3.17762 0
M  V30 3500 C 330.322 -0.732538 4.23004 0
M  V30 3501 C 329.555 -1.74695 5.04299 0
M  V30 3502 O 329.778 -2.97399 4.86734 0
M  V30 3503 O 328.712 -1.31631 5.8733 0
M  V30 3504 H 332.538 0.350071 3.01676 0
M  V30 3505 H 330.123 0.237321 1.47503 0
M  V30 3506 H 332.005 -2.00354 3.70724 0
M  V30 3507 H 330.68 -2.04163 2.51196 0
M  V30 3508 H 329.587 -0.0765902 3.74022 0
M  V30 3509 H 330.92 -0.120452 4.92053 0
M  V30 3510 N 332.573 -1.56217 0.208337 0
M  V30 3511 C 333.798 -2.02782 -0.435222 0
M  V30 3512 C 334.223 -1.08738 -1.53485 0
M  V30 3513 O 333.581 -0.0731855 -1.81152 0
M  V30 3514 C 333.629 -3.47687 -0.956335 0
M  V30 3515 O 332.733 -3.56773 -2.06849 0
M  V30 3516 H 332.074 -0.656403 -0.100158 0
M  V30 3517 H 334.604 -2.02033 0.3231 0
M  V30 3518 H 334.614 -3.87745 -1.26955 0
M  V30 3519 H 333.289 -4.15624 -0.15143 0
M  V30 3520 H 331.866 -3.28597 -1.76292 0
M  V30 3521 N 334.051 0.0651679 -1.57465 0
M  V30 3522 C 334.981 1.07693 -2.07182 0
M  V30 3523 C 335.962 1.39962 -0.966673 0
M  V30 3524 O 337.147 1.49475 -1.2398 0
M  V30 3525 C 334.277 2.3885 -2.52127 0
M  V30 3526 C 333.231 2.20917 -3.66579 0
M  V30 3527 C 332.557 3.57515 -3.97601 0
M  V30 3528 C 333.857 1.62493 -4.9638 0
M  V30 3529 H 335.551 0.663199 -2.91962 0
M  V30 3530 H 333.097 0.317569 -1.40455 0
M  V30 3531 H 335.05 3.09928 -2.85522 0
M  V30 3532 H 333.774 2.82215 -1.64384 0
M  V30 3533 H 332.433 1.52279 -3.33477 0
M  V30 3534 H 332.081 3.98463 -3.06979 0
M  V30 3535 H 331.781 3.46353 -4.74672 0
M  V30 3536 H 333.305 4.30013 -4.33499 0
M  V30 3537 H 334.719 2.23445 -5.27963 0
M  V30 3538 H 333.116 1.62009 -5.77818 0
M  V30 3539 H 334.186 0.587041 -4.81333 0
M  V30 3540 N 335.529 1.53961 0.336706 0
M  V30 3541 C 336.461 1.78751 1.4346 0
M  V30 3542 C 337.474 0.669019 1.48418 0
M  V30 3543 O 338.663 0.945884 1.51378 0
M  V30 3544 C 335.763 1.87844 2.82078 0
M  V30 3545 C 334.936 3.17854 3.00479 0
M  V30 3546 C 333.995 3.17816 4.19379 0
M  V30 3547 O 333.021 3.91511 4.13168 0
M  V30 3548 N 334.223 2.40669 5.2826 0
M  V30 3549 H 336.988 2.73493 1.22563 0
M  V30 3550 H 334.549 1.53096 0.526625 0
M  V30 3551 H 336.541 1.85261 3.59806 0
M  V30 3552 H 335.111 1.00257 2.96086 0
M  V30 3553 H 334.331 3.33504 2.10163 0
M  V30 3554 H 335.619 4.03718 3.0966 0
M  V30 3555 H 335.017 1.8036 5.36178 0
M  V30 3556 H 333.574 2.43877 6.04456 0
M  V30 3557 N 337.007 -0.598083 1.45811 0
M  V30 3558 C 337.97 -1.69018 1.54808 0
M  V30 3559 C 338.97 -1.55037 0.426652 0
M  V30 3560 O 340.16 -1.59932 0.690456 0
M  V30 3561 C 337.292 -3.0835 1.45371 0
M  V30 3562 H 338.485 -1.62403 2.52121 0
M  V30 3563 H 336.038 -0.814626 1.33392 0
M  V30 3564 H 336.773 -3.20534 0.492793 0
M  V30 3565 H 336.558 -3.19907 2.26721 0
M  V30 3566 H 338.048 -3.8788 1.54721 0
M  V30 3567 N 338.485 -1.33259 -0.841409 0
M  V30 3568 C 339.762 -1.15174 -1.58096 0
M  V30 3569 C 340.142 0.282858 -2.09196 0
M  V30 3570 O 339.49 1.28151 -1.89181 0
M  V30 3571 C 339.7 -2.1907 -2.71679 0
M  V30 3572 C 341.048 -2.53093 -3.40924 0
M  V30 3573 O 342.072 -2.17717 -2.81918 0
M  V30 3574 O 340.931 -3.1379 -4.47435 0
M  V30 3575 H 338.025 -0.445303 -0.696875 0
M  V30 3576 H 340.571 -1.44833 -0.884385 0
M  V30 3577 H 339.343 -3.15443 -2.31541 0
M  V30 3578 H 338.966 -1.90481 -3.49002 0
M  V30 3579 N 339.963 1.05934 -1.16686 0
M  V30 3580 C 340.873 2.17014 -0.891183 0
M  V30 3581 C 341.889 1.73453 0.137907 0
M  V30 3582 O 343.065 2.01361 -0.039592 0
M  V30 3583 C 340.13 3.44384 -0.400099 0
M  V30 3584 C 339.191 4.02433 -1.49486 0
M  V30 3585 C 338.424 5.23723 -1.02711 0
M  V30 3586 O 338.647 5.7027 0.121716 0
M  V30 3587 O 337.581 5.7382 -1.81699 0
M  V30 3588 H 341.407 2.43113 -1.82015 0
M  V30 3589 H 338.992 1.15541 -0.947132 0
M  V30 3590 H 340.874 4.21189 -0.133392 0
M  V30 3591 H 339.549 3.19802 0.500817 0
M  V30 3592 H 338.456 3.27102 -1.81535 0
M  V30 3593 H 339.789 4.31317 -2.37121 0
M  V30 3594 N 341.441 0.965919 1.2453 0
M  V30 3595 C 342.374 0.4393 2.23932 0
M  V30 3596 C 343.352 -0.485615 1.55179 0
M  V30 3597 O 344.536 -0.417402 1.83821 0
M  V30 3598 C 341.663 -0.366042 3.36716 0
M  V30 3599 C 340.709 0.5009 4.23548 0
M  V30 3600 S 341.542 1.94002 4.99123 0
M  V30 3601 C 342.698 1.14342 6.15367 0
M  V30 3602 H 342.931 1.28167 2.68254 0
M  V30 3603 H 340.464 0.770819 1.33782 0
M  V30 3604 H 342.422 -0.824724 4.0213 0
M  V30 3605 H 341.083 -1.18337 2.90956 0
M  V30 3606 H 340.276 -0.117341 5.03863 0
M  V30 3607 H 339.878 0.89524 3.63127 0
M  V30 3608 H 342.17 0.397572 6.76332 0
M  V30 3609 H 343.113 1.92089 6.81548 0
M  V30 3610 H 343.521 0.668579 5.60527 0
M  V30 3611 N 342.919 -1.39368 0.735821 0
M  V30 3612 C 344.165 -2.00794 0.284544 0
M  V30 3613 C 344.498 -1.58255 -1.12557 0
M  V30 3614 O 343.773 -0.811819 -1.76748 0
M  V30 3615 C 344.056 -3.58011 0.387337 0
M  V30 3616 C 343.909 -4.10566 1.83728 0
M  V30 3617 C 345.228 -4.395 -0.22975 0
M  V30 3618 H 342.347 -0.729501 0.104866 0
M  V30 3619 H 344.989 -1.65564 0.93213 0
M  V30 3620 H 343.139 -3.88154 -0.164006 0
M  V30 3621 H 344.811 -3.91139 2.44556 0
M  V30 3622 H 343.054 -3.64095 2.35833 0
M  V30 3623 H 343.725 -5.19702 1.86047 0
M  V30 3624 H 346.201 -4.15406 0.240257 0
M  V30 3625 H 345.077 -5.48752 -0.127485 0
M  V30 3626 H 345.338 -4.22062 -1.3159 0
M  V30 3627 N 344.397 -0.483516 -1.5 0
M  V30 3628 C 345.646 0.0689102 -2.01582 0
M  V30 3629 C 345.959 1.39655 -1.36952 0
M  V30 3630 O 347.165 2.03465 -1.79762 0
M  V30 3631 C 345.621 0.173302 -3.59483 0
M  V30 3632 C 345.229 -1.14665 -4.33077 0
M  V30 3633 C 346.973 0.677024 -4.19066 0
M  V30 3634 C 344.88 -1.00537 -5.82792 0
M  V30 3635 H 343.81 0.0295277 -0.753422 0
M  V30 3636 H 346.461 -0.620295 -1.72698 0
M  V30 3637 H 344.843 0.926569 -3.85007 0
M  V30 3638 H 346.017 -1.91184 -4.19268 0
M  V30 3639 H 344.332 -1.58244 -3.85159 0
M  V30 3640 H 346.929 0.799952 -5.28682 0
M  V30 3641 H 347.272 1.67151 -3.81269 0
M  V30 3642 H 347.805 -0.0192083 -3.97795 0
M  V30 3643 H 344.544 -1.9736 -6.25083 0
M  V30 3644 H 344.064 -0.280776 -5.99142 0
M  V30 3645 H 345.743 -0.677 -6.43448 0
M  V30 3646 N 345.875 1.56104 -0.216619 0
M  V30 3647 C 347.115 2.00074 0.418322 0
M  V30 3648 C 347.479 1.10098 1.57297 0
M  V30 3649 O 348.68 1.43393 2.27359 0
M  V30 3650 C 346.951 3.47231 0.846477 0
M  V30 3651 S 348.51 4.13223 1.47622 0
M  V30 3652 H 345.328 0.698457 0.132962 0
M  V30 3653 H 347.93 1.92784 -0.324748 0
M  V30 3654 H 346.634 4.104 -0.0036319 0
M  V30 3655 H 346.165 3.58384 1.62248 0
M  V30 3656 H 348.18 4.12005 2.76526 0
M  V30 3657 N 347.353 -0.0568162 1.57498 0
M  V30 3658 C 348.301 -1.08452 2.05769 0
M  V30 3659 C 349.295 -1.39164 0.965903 0
M  V30 3660 O 350.501 -1.38395 1.15095 0
M  V30 3661 H 346.876 -0.367148 0.656282 0
M  V30 3662 H 348.847 -0.651368 2.91204 0
M  V30 3663 C 347.596 -2.38543 2.52968 0
M  V30 3664 H 346.919 -2.15765 3.36579 0
M  V30 3665 H 348.359 -3.08863 2.90481 0
M  V30 3666 C 346.818 -3.05562 1.41893 0
M  V30 3667 O 347.348 -3.94262 0.769442 0
M  V30 3668 N 345.554 -2.6643 1.16032 0
M  V30 3669 H 345.101 -1.94387 1.6903 0
M  V30 3670 H 345.059 -3.11593 0.419219 0
M  V30 3671 N 348.832 -1.54138 -0.328536 0
M  V30 3672 C 349.795 -1.82462 -1.38709 0
M  V30 3673 C 350.795 -0.696229 -1.44946 0
M  V30 3674 O 351.985 -0.964535 -1.4506 0
M  V30 3675 C 349.117 -1.98018 -2.77492 0
M  V30 3676 H 350.31 -2.77037 -1.14851 0
M  V30 3677 H 347.863 -1.45779 -0.563751 0
M  V30 3678 H 348.598 -1.05637 -3.06613 0
M  V30 3679 H 348.383 -2.80124 -2.74359 0
M  V30 3680 H 349.873 -2.21396 -3.54081 0
M  V30 3681 N 350.31 0.590341 -1.46126 0
M  V30 3682 C 351.24 1.71032 -1.58966 0
M  V30 3683 C 352.221 1.64302 -0.440335 0
M  V30 3684 O 353.406 1.82436 -0.665634 0
M  V30 3685 C 350.536 3.09665 -1.57241 0
M  V30 3686 C 349.49 3.31221 -2.71066 0
M  V30 3687 C 348.816 4.70303 -2.54399 0
M  V30 3688 C 350.116 3.19796 -4.1295 0
M  V30 3689 H 351.81 1.60543 -2.52718 0
M  V30 3690 H 349.356 0.770933 -1.21625 0
M  V30 3691 H 351.309 3.87831 -1.64819 0
M  V30 3692 H 350.033 3.21036 -0.600289 0
M  V30 3693 H 348.692 2.55452 -2.62944 0
M  V30 3694 H 348.34 4.78429 -1.55288 0
M  V30 3695 H 348.04 4.85679 -3.30741 0
M  V30 3696 H 349.564 5.50647 -2.63857 0
M  V30 3697 H 350.978 3.87815 -4.22223 0
M  V30 3698 H 349.375 3.46696 -4.89818 0
M  V30 3699 H 350.445 2.16983 -4.33643 0
M  V30 3700 N 351.788 1.33704 0.83433 0
M  V30 3701 C 352.721 1.18675 1.94914 0
M  V30 3702 C 353.699 0.0811145 1.62398 0
M  V30 3703 O 354.883 0.244186 1.86912 0
M  V30 3704 C 352.01 0.821231 3.28593 0
M  V30 3705 C 351.056 1.93501 3.80079 0
M  V30 3706 S 351.889 3.54671 4.01209 0
M  V30 3707 C 353.045 3.20136 5.37833 0
M  V30 3708 H 353.278 2.13043 2.07364 0
M  V30 3709 H 350.811 1.18598 0.988624 0
M  V30 3710 H 352.769 0.617123 4.05835 0
M  V30 3711 H 351.43 -0.103927 3.13928 0
M  V30 3712 H 350.623 1.63273 4.76821 0
M  V30 3713 H 350.225 2.09601 3.09747 0
M  V30 3714 H 352.517 2.71242 6.20833 0
M  V30 3715 H 353.46 4.15975 5.73036 0
M  V30 3716 H 353.868 2.56613 5.02802 0
M  V30 3717 N 353.266 -1.05314 1.17247 0
M  V30 3718 C 354.677 -1.59753 0.96623 0
M  V30 3719 C 355.028 -1.9005 -0.487378 0
M  V30 3720 O 354.153 -1.68126 -1.36245 0
M  V30 3721 C 354.748 -2.90249 1.74759 0
M  V30 3722 C 353.307 -3.41352 1.58606 0
M  V30 3723 C 352.454 -2.15103 1.75002 0
M  V30 3724 H 355.405 -0.881406 1.31973 0
M  V30 3725 H 355.426 -3.60097 1.22925 0
M  V30 3726 H 354.938 -2.68166 2.8055 0
M  V30 3727 H 353.039 -3.68474 0.552985 0
M  V30 3728 H 353.152 -4.16019 2.37624 0
M  V30 3729 H 351.516 -2.25804 1.17833 0
M  V30 3730 H 352.299 -1.95491 2.82202 0
M  V30 3731 N 354.744 -0.972509 -1.24016 0
M  V30 3732 C 355.99 -0.637978 -1.92504 0
M  V30 3733 C 356.323 0.825383 -1.75787 0
M  V30 3734 O 355.598 1.59442 -1.11393 0
M  V30 3735 C 355.881 -1.01942 -3.45369 0
M  V30 3736 C 355.734 -2.53983 -3.71231 0
M  V30 3737 C 357.053 -0.55751 -4.36555 0
M  V30 3738 H 354.172 -0.233248 -0.699117 0
M  V30 3739 H 356.814 -1.21238 -1.46292 0
M  V30 3740 H 354.964 -0.530656 -3.84859 0
M  V30 3741 H 356.636 -3.10374 -3.41271 0
M  V30 3742 H 354.879 -2.96968 -3.16216 0
M  V30 3743 H 355.55 -2.75723 -4.78206 0
M  V30 3744 H 358.026 -0.977029 -4.04467 0
M  V30 3745 H 356.902 -0.85292 -5.42233 0
M  V30 3746 H 357.163 0.542328 -4.38761 0
M  V30 3747 N 356.222 1.38976 -0.743202 0
M  V30 3748 C 357.155 2.28128 -0.0572165 0
M  V30 3749 C 358.133 1.44827 0.739182 0
M  V30 3750 O 359.317 1.74207 0.720009 0
M  V30 3751 C 356.444 3.25796 0.926001 0
M  V30 3752 C 355.49 4.25947 0.217099 0
M  V30 3753 S 356.323 5.24604 -1.07477 0
M  V30 3754 C 357.479 6.25829 -0.0943545 0
M  V30 3755 H 357.712 2.85961 -0.813246 0
M  V30 3756 H 355.245 1.44822 -0.535341 0
M  V30 3757 H 357.203 3.82583 1.48797 0
M  V30 3758 H 355.864 2.66966 1.65493 0
M  V30 3759 H 355.057 4.94746 0.961372 0
M  V30 3760 H 354.659 3.73002 -0.273059 0
M  V30 3761 H 356.951 6.73411 0.743239 0
M  V30 3762 H 357.894 7.0412 -0.749713 0
M  V30 3763 H 358.302 5.63797 0.281706 0
M  V30 3764 N 357.7 0.491464 1.49741 0
M  V30 3765 C 359.111 0.0413169 1.86654 0
M  V30 3766 C 359.462 -1.36985 1.40462 0
M  V30 3767 O 358.587 -2.01917 0.778354 0
M  V30 3768 C 359.182 0.0682023 3.38731 0
M  V30 3769 C 357.741 -0.32656 3.74981 0
M  V30 3770 C 356.888 0.444888 2.73708 0
M  V30 3771 H 359.839 0.704733 1.42194 0
M  V30 3772 H 359.86 -0.729322 3.73445 0
M  V30 3773 H 359.372 1.09539 3.72321 0
M  V30 3774 H 357.473 -1.35734 3.46997 0
M  V30 3775 H 357.586 -0.013741 4.79098 0
M  V30 3776 H 355.95 -0.104062 2.54487 0
M  V30 3777 H 356.733 1.47197 3.10142 0
M  V30 3778 N 359.178 -1.55987 0.224894 0
M  V30 3779 C 360.424 -1.98684 -0.406502 0
M  V30 3780 C 360.757 -1.11248 -1.59177 0
M  V30 3781 O 360.032 -0.170909 -1.93748 0
M  V30 3782 C 360.315 -3.50218 -0.837808 0
M  V30 3783 C 360.168 -4.48426 0.351332 0
M  V30 3784 C 361.487 -4.06243 -1.69278 0
M  V30 3785 H 358.606 -0.722337 -0.146283 0
M  V30 3786 H 361.248 -1.87255 0.321799 0
M  V30 3787 H 359.398 -3.60089 -1.45837 0
M  V30 3788 H 361.07 -4.50562 0.989526 0
M  V30 3789 H 359.313 -4.22159 0.998207 0
M  V30 3790 H 359.984 -5.52 0.00655905 0
M  V30 3791 H 362.46 -3.99337 -1.16914 0
M  V30 3792 H 361.336 -5.12581 -1.96346 0
M  V30 3793 H 361.597 -3.53332 -2.65723 0
M  V30 3794 N 360.656 0.0484629 -1.57525 0
M  V30 3795 C 361.896 0.748196 -1.90214 0
M  V30 3796 C 362.26 1.73545 -0.821347 0
M  V30 3797 O 363.461 2.48201 -1.03198 0
M  V30 3798 C 361.732 1.41727 -3.28098 0
M  V30 3799 S 363.291 2.14884 -3.82584 0
M  V30 3800 H 360.109 0.248307 -0.666232 0
M  V30 3801 H 362.711 0.00343188 -1.955 0
M  V30 3802 H 361.415 0.685244 -4.04639 0
M  V30 3803 H 360.946 2.20099 -3.26068 0
M  V30 3804 H 362.961 3.41755 -3.59747 0
M  V30 3805 N 362.134 1.5431 0.320358 0
M  V30 3806 C 363.097 1.83195 1.3774 0
M  V30 3807 C 364.097 0.703906 1.44575 0
M  V30 3808 O 365.287 0.972214 1.44546 0
M  V30 3809 C 362.419 1.99487 2.76438 0
M  V30 3810 H 363.612 2.77642 1.1338 0
M  V30 3811 H 361.165 1.46076 0.556012 0
M  V30 3812 H 361.9 1.07262 3.06048 0
M  V30 3813 H 361.685 2.81575 2.7287 0
M  V30 3814 H 363.175 2.23271 3.52902 0
M  V30 3815 N 363.613 -0.582584 1.46437 0
M  V30 3816 C 364.853 -1.35184 1.53312 0
M  V30 3817 C 365.217 -1.9115 0.180508 0
M  V30 3818 O 366.418 -2.68514 0.124017 0
M  V30 3819 C 364.689 -2.45089 2.60127 0
M  V30 3820 S 366.248 -3.32439 2.86408 0
M  V30 3821 H 363.066 -0.460559 0.54167 0
M  V30 3822 H 365.668 -0.669709 1.83671 0
M  V30 3823 H 364.372 -2.02366 3.57038 0
M  V30 3824 H 363.903 -3.18074 2.315 0
M  V30 3825 H 365.918 -4.43924 2.21688 0
M  V30 3826 N 365.091 -1.34144 -0.827227 0
M  V30 3827 C 366.339 -1.26009 -1.58007 0
M  V30 3828 C 366.66 0.170971 -1.94249 0
M  V30 3829 O 365.93 1.10256 -1.61927 0
M  V30 3830 H 364.51 -0.463414 -0.585881 0
M  V30 3831 H 367.172 -1.68005 -0.987951 0
M  V30 3832 H 366.268 -1.86187 -2.50481 0
M  V30 3833 N 366.569 1.04691 -1.17803 0
M  V30 3834 C 367.846 1.7472 -0.879328 0
M  V30 3835 C 368.226 2.01812 0.619271 0
M  V30 3836 O 367.574 1.65824 1.57209 0
M  V30 3837 C 367.784 3.03686 -1.71976 0
M  V30 3838 C 369.132 3.77542 -1.94286 0
M  V30 3839 O 370.156 3.13569 -1.68976 0
M  V30 3840 O 369.015 4.92506 -2.36855 0
M  V30 3841 H 366.109 0.760011 -0.326056 0
M  V30 3842 H 368.655 1.10813 -1.28525 0
M  V30 3843 H 367.427 2.79754 -2.73594 0
M  V30 3844 H 367.05 3.75332 -1.31194 0
M  V30 3845 N 368.047 0.979072 1.23499 0
M  V30 3846 C 369.293 0.648178 1.92163 0
M  V30 3847 C 369.626 -0.816049 1.76222 0
M  V30 3848 O 368.901 -1.58849 1.12237 0
M  V30 3849 C 369.184 1.03773 3.44824 0
M  V30 3850 C 369.037 2.55948 3.69879 0
M  V30 3851 C 370.356 0.580653 4.36253 0
M  V30 3852 H 367.475 0.236952 0.69787 0
M  V30 3853 H 370.117 1.22012 1.45647 0
M  V30 3854 H 368.267 0.551058 3.84572 0
M  V30 3855 H 369.939 3.12179 3.3962 0
M  V30 3856 H 368.182 2.98641 3.14636 0
M  V30 3857 H 368.853 2.78255 4.76737 0
M  V30 3858 H 371.329 0.998465 4.03943 0
M  V30 3859 H 370.205 0.881663 5.41773 0
M  V30 3860 H 370.466 -0.519052 4.39042 0
M  V30 3861 N 369.525 -1.3858 0.750561 0
M  V30 3862 C 370.75 -2.04997 0.314812 0
M  V30 3863 C 371.175 -1.56235 -1.04749 0
M  V30 3864 O 370.533 -0.712981 -1.66692 0
M  V30 3865 C 370.581 -3.58961 0.343415 0
M  V30 3866 O 369.685 -4.07025 -0.663628 0
M  V30 3867 H 369.026 -0.649081 0.139962 0
M  V30 3868 H 371.556 -1.77313 1.02084 0
M  V30 3869 H 371.566 -4.07542 0.193233 0
M  V30 3870 H 370.241 -3.93811 1.33738 0
M  V30 3871 H 368.818 -3.6982 -0.478307 0
M  V30 3872 N 371.003 -0.499398 -1.49478 0
M  V30 3873 C 372.25 0.0456899 -2.02448 0
M  V30 3874 C 372.578 1.37142 -1.37921 0
M  V30 3875 O 371.833 1.89111 -0.503544 0
M  V30 3876 C 372.132 0.248424 -3.56536 0
M  V30 3877 C 371.798 -0.999107 -4.39692 0
M  V30 3878 C 370.46 -1.34108 -4.62135 0
M  V30 3879 C 372.812 -1.82842 -4.88076 0
M  V30 3880 C 370.14 -2.51191 -5.30208 0
M  V30 3881 C 372.492 -2.99076 -5.57437 0
M  V30 3882 C 371.156 -3.33655 -5.78127 0
M  V30 3883 H 370.426 0.0167191 -0.740811 0
M  V30 3884 H 373.073 -0.65923 -1.79795 0
M  V30 3885 H 371.378 1.03586 -3.77859 0
M  V30 3886 H 373.075 0.684605 -3.95113 0
M  V30 3887 H 369.665 -0.722729 -4.22463 0
M  V30 3888 H 373.849 -1.57737 -4.70566 0
M  V30 3889 H 369.105 -2.78221 -5.44429 0
M  V30 3890 H 373.279 -3.63664 -5.93904 0
M  V30 3891 H 370.906 -4.24483 -6.30649 0
M  V30 3892 N 372.481 1.55866 -0.233164 0
M  V30 3893 C 373.706 2.03449 0.402906 0
M  V30 3894 C 374.131 1.11166 1.51736 0
M  V30 3895 O 373.489 0.101996 1.81013 0
M  V30 3896 C 373.537 3.49165 0.9009 0
M  V30 3897 O 372.641 3.60019 2.01147 0
M  V30 3898 H 371.982 0.657913 0.0897025 0
M  V30 3899 H 374.512 2.01493 -0.355201 0
M  V30 3900 H 374.522 3.89716 1.2077 0
M  V30 3901 H 373.197 4.15813 0.0852889 0
M  V30 3902 H 371.774 3.3136 1.71042 0
M  V30 3903 N 373.959 -0.0401083 1.57549 0
M  V30 3904 C 375.184 -0.748931 1.93406 0
M  V30 3905 C 375.609 -1.68686 0.832274 0
M  V30 3906 O 374.967 -1.80047 -0.212818 0
M  V30 3907 C 375.015 -1.4916 3.28304 0
M  V30 3908 O 374.119 -2.6042 3.19774 0
M  V30 3909 H 373.46 -0.202212 0.63246 0
M  V30 3910 H 375.99 0.00112086 2.046 0
M  V30 3911 H 376 -1.86395 3.62934 0
M  V30 3912 H 374.675 -0.80364 4.08062 0
M  V30 3913 H 373.252 -2.25808 2.96758 0
M  V30 3914 N 375.437 -1.54477 -0.31217 0
M  V30 3915 C 376.4 -1.83923 -1.36766 0
M  V30 3916 C 377.4 -0.711563 -1.44199 0
M  V30 3917 O 378.59 -0.979866 -1.44029 0
M  V30 3918 C 375.722 -2.0095 -2.75376 0
M  V30 3919 H 376.915 -2.78239 -1.11906 0
M  V30 3920 H 374.468 -1.46369 -0.548257 0
M  V30 3921 H 375.203 -1.08883 -3.05475 0
M  V30 3922 H 374.988 -2.83018 -2.71373 0
M  V30 3923 H 376.478 -2.2514 -3.51713 0
M  V30 3924 N 376.915 0.57481 -1.46744 0
M  V30 3925 C 378.143 1.35856 -1.56047 0
M  V30 3926 C 378.558 1.87691 -0.204365 0
M  V30 3927 O 377.915 1.64049 0.79963 0
M  V30 3928 C 377.966 2.54066 -2.57163 0
M  V30 3929 O 377.687 2.04377 -3.87507 0
M  V30 3930 C 379.188 3.46514 -2.76483 0
M  V30 3931 H 376.408 0.414754 -0.527466 0
M  V30 3932 H 378.952 0.698035 -1.92218 0
M  V30 3933 H 377.107 3.16092 -2.23974 0
M  V30 3934 H 377.521 2.81419 -4.4261 0
M  V30 3935 H 378.995 4.25919 -3.51137 0
M  V30 3936 H 379.472 3.98951 -1.83671 0
M  V30 3937 H 380.078 2.90318 -3.10799 0
M  V30 3938 N 378.394 1.34581 0.820102 0
M  V30 3939 C 379.324 1.29038 1.94606 0
M  V30 3940 C 380.305 0.1673 1.69275 0
M  V30 3941 O 381.49 0.360112 1.90832 0
M  V30 3942 C 378.62 1.04793 3.31113 0
M  V30 3943 C 377.574 2.13597 3.70891 0
M  V30 3944 C 376.9 1.74537 5.05412 0
M  V30 3945 C 378.2 3.55451 3.8269 0
M  V30 3946 H 379.894 2.23248 1.99501 0
M  V30 3947 H 377.44 1.0747 0.958449 0
M  V30 3948 H 379.393 0.995592 4.0947 0
M  V30 3949 H 378.117 0.0702565 3.26524 0
M  V30 3950 H 376.776 2.17905 2.9481 0
M  V30 3951 H 376.424 0.754226 4.97313 0
M  V30 3952 H 376.124 2.47361 5.32997 0
M  V30 3953 H 377.648 1.70803 5.86224 0
M  V30 3954 H 379.062 3.5354 4.51312 0
M  V30 3955 H 377.459 4.26922 4.21732 0
M  V30 3956 H 378.529 3.92587 2.84611 0
M  V30 3957 N 379.872 -1.04064 1.18357 0
M  V30 3958 C 381.102 -1.80654 1.00238 0
M  V30 3959 C 381.51 -1.83713 -0.452362 0
M  V30 3960 O 380.853 -1.27135 -1.32599 0
M  V30 3961 C 380.915 -3.27582 1.48088 0
M  V30 3962 C 380.579 -3.48184 2.96002 0
M  V30 3963 C 381.576 -3.39372 3.93856 0
M  V30 3964 C 379.261 -3.7478 3.34433 0
M  V30 3965 C 381.255 -3.5686 5.28138 0
M  V30 3966 C 378.942 -3.91915 4.68877 0
M  V30 3967 C 379.94 -3.82956 5.65539 0
M  V30 3968 O 379.628 -3.996 6.97549 0
M  V30 3969 H 379.36 -0.575751 0.354241 0
M  V30 3970 H 381.914 -1.32044 1.57333 0
M  V30 3971 H 380.144 -3.77161 0.853588 0
M  V30 3972 H 381.833 -3.8573 1.2636 0
M  V30 3973 H 382.599 -3.18789 3.65511 0
M  V30 3974 H 378.478 -3.80852 2.59756 0
M  V30 3975 H 382.022 -3.49783 6.03571 0
M  V30 3976 H 377.919 -4.11992 4.96923 0
M  V30 3977 H 378.687 -4.1676 7.04452 0
M  V30 3978 N 381.35 -0.985608 -1.22978 0
M  V30 3979 C 382.26 -0.538548 -2.28335 0
M  V30 3980 C 383.276 0.409163 -1.69121 0
M  V30 3981 O 384.452 0.277797 -1.99475 0
M  V30 3982 C 381.517 0.146867 -3.46389 0
M  V30 3983 C 380.578 -0.842896 -4.20944 0
M  V30 3984 C 379.811 -0.190095 -5.33361 0
M  V30 3985 O 380.034 1.01767 -5.61248 0
M  V30 3986 O 378.968 -0.891289 -5.95264 0
M  V30 3987 H 382.794 -1.41487 -2.68729 0
M  V30 3988 H 380.379 -0.753495 -1.29007 0
M  V30 3989 H 382.261 0.531125 -4.1804 0
M  V30 3990 H 380.936 0.997871 -3.07935 0
M  V30 3991 H 379.843 -1.27795 -3.51595 0
M  V30 3992 H 381.176 -1.66287 -4.6326 0
M  V30 3993 N 382.828 1.3818 -0.7579 0
M  V30 3994 C 384.058 2.04004 -0.326463 0
M  V30 3995 C 384.466 1.57286 1.05156 0
M  V30 3996 O 383.809 0.743144 1.67997 0
M  V30 3997 C 383.871 3.58444 -0.275402 0
M  V30 3998 C 383.535 4.28237 -1.59569 0
M  V30 3999 C 384.532 4.53312 -2.54566 0
M  V30 4000 C 382.217 4.66341 -1.86631 0
M  V30 4001 C 384.211 5.15531 -3.74842 0
M  V30 4002 C 381.898 5.28283 -3.0718 0
M  V30 4003 C 382.896 5.52814 -4.01106 0
M  V30 4004 O 382.584 6.13465 -5.19534 0
M  V30 4005 H 382.316 0.662026 -0.136739 0
M  V30 4006 H 384.87 1.7777 -1.02893 0
M  V30 4007 H 383.1 3.83667 0.483337 0
M  V30 4008 H 384.789 4.05701 0.127099 0
M  V30 4009 H 385.555 4.24299 -2.34936 0
M  V30 4010 H 381.434 4.46591 -1.14358 0
M  V30 4011 H 384.978 5.34594 -4.48168 0
M  V30 4012 H 380.875 5.56719 -3.26702 0
M  V30 4013 H 381.643 6.31951 -5.20173 0
M  V30 4014 N 384.306 0.507319 1.49211 0
M  V30 4015 C 385.236 -0.256939 2.32082 0
M  V30 4016 C 386.217 -0.956609 1.40652 0
M  V30 4017 O 387.402 -0.946788 1.69557 0
M  V30 4018 C 384.532 -1.31802 3.21318 0
M  V30 4019 C 383.486 -0.737855 4.21592 0
M  V30 4020 C 382.812 -1.89992 4.99807 0
M  V30 4021 C 384.112 0.275325 5.21574 0
M  V30 4022 H 385.806 0.434798 2.96226 0
M  V30 4023 H 383.352 0.210546 1.42452 0
M  V30 4024 H 385.305 -1.86045 3.78107 0
M  V30 4025 H 384.029 -2.03903 2.5513 0
M  V30 4026 H 382.688 -0.217126 3.65956 0
M  V30 4027 H 382.336 -2.60877 4.30061 0
M  V30 4028 H 382.036 -1.51777 5.6766 0
M  V30 4029 H 383.56 -2.44657 5.59442 0
M  V30 4030 H 384.974 -0.179193 5.7302 0
M  V30 4031 H 383.371 0.573649 5.97352 0
M  V30 4032 H 384.441 1.18903 4.70096 0
M  V30 4033 N 385.784 -1.5574 0.241426 0
M  V30 4034 C 386.747 -2.19877 -0.647063 0
M  V30 4035 C 387.747 -1.16642 -1.10686 0
M  V30 4036 O 388.937 -1.41757 -1.01245 0
M  V30 4037 C 386.069 -2.83797 -1.88871 0
M  V30 4038 H 387.262 -2.99772 -0.087574 0
M  V30 4039 H 384.815 -1.56298 -0.00813574 0
M  V30 4040 H 385.55 -2.07824 -2.48957 0
M  V30 4041 H 385.335 -3.59414 -1.56728 0
M  V30 4042 H 386.825 -3.32898 -2.52129 0
M  V30 4043 N 387.262 0.0317525 -1.57568 0
M  V30 4044 C 388.673 0.578692 -1.77505 0
M  V30 4045 C 389.024 1.75749 -0.872164 0
M  V30 4046 O 388.149 2.16298 -0.0663106 0
M  V30 4047 C 388.744 1.05658 -3.21904 0
M  V30 4048 C 387.303 1.54906 -3.43047 0
M  V30 4049 C 386.45 0.485939 -2.73009 0
M  V30 4050 H 389.401 -0.194475 -1.57504 0
M  V30 4051 H 389.422 1.92404 -3.28269 0
M  V30 4052 H 388.934 0.198422 -3.87592 0
M  V30 4053 H 387.035 2.42915 -2.82529 0
M  V30 4054 H 387.148 1.59841 -4.5165 0
M  V30 4055 H 385.512 0.940354 -2.36705 0
M  V30 4056 H 386.295 -0.362709 -3.41379 0
M  V30 4057 N 388.74 1.54641 0.303973 0
M  V30 4058 C 389.67 1.88386 1.3796 0
M  V30 4059 C 390.651 0.742485 1.5304 0
M  V30 4060 O 391.836 0.997959 1.66597 0
M  V30 4061 C 388.966 2.12854 2.74427 0
M  V30 4062 C 387.92 3.28702 2.74115 0
M  V30 4063 C 387.246 3.38582 4.13844 0
M  V30 4064 C 388.546 4.65881 2.3612 0
M  V30 4065 H 390.24 2.78474 1.09966 0
M  V30 4066 H 387.786 1.33988 0.527556 0
M  V30 4067 H 389.739 2.35047 3.49758 0
M  V30 4068 H 388.463 1.19535 3.03939 0
M  V30 4069 H 387.122 3.06428 2.0124 0
M  V30 4070 H 386.77 2.42784 4.40528 0
M  V30 4071 H 386.47 4.16453 4.14537 0
M  V30 4072 H 387.994 3.63031 4.90959 0
M  V30 4073 H 389.408 4.87823 3.01167 0
M  V30 4074 H 387.805 5.46444 2.48031 0
M  V30 4075 H 388.875 4.66799 1.3125 0
M  V30 4076 N 390.218 -0.567019 1.47046 0
M  V30 4077 C 391.458 -1.3355 1.54738 0
M  V30 4078 C 391.822 -1.90947 0.200772 0
M  V30 4079 O 393.023 -2.68367 0.152489 0
M  V30 4080 C 391.294 -2.42317 2.62712 0
M  V30 4081 S 392.853 -3.29383 2.89918 0
M  V30 4082 H 389.671 -0.454788 0.546525 0
M  V30 4083 H 392.273 -0.650191 1.84371 0
M  V30 4084 H 390.977 -1.98568 3.59164 0
M  V30 4085 H 390.508 -3.15601 2.34861 0
M  V30 4086 H 392.523 -4.41548 2.26384 0
M  V30 4087 N 391.696 -1.35014 -0.812953 0
M  V30 4088 C 392.606 -1.2951 -1.95613 0
M  V30 4089 C 393.622 -0.20107 -1.72834 0
M  V30 4090 O 394.798 -0.42932 -1.96771 0
M  V30 4091 C 391.863 -1.06033 -3.30088 0
M  V30 4092 C 390.924 -2.24688 -3.65805 0
M  V30 4093 C 390.157 -2.02322 -4.93864 0
M  V30 4094 O 390.38 -0.986464 -5.61805 0
M  V30 4095 O 389.314 -2.89525 -5.27692 0
M  V30 4096 H 393.14 -2.25705 -2.03202 0
M  V30 4097 H 390.725 -1.15321 -0.949811 0
M  V30 4098 H 392.607 -0.94763 -4.10607 0
M  V30 4099 H 391.282 -0.128852 -3.23443 0
M  V30 4100 H 390.189 -2.41521 -2.85689 0
M  V30 4101 H 391.522 -3.16261 -3.77147 0
M  V30 4102 N 393.175 1.03435 -1.18907 0
M  V30 4103 C 394.591 1.28973 -0.940111 0
M  V30 4104 C 394.791 1.97676 0.390691 0
M  V30 4105 O 393.847 2.26127 1.12352 0
M  V30 4106 C 395.16 2.14221 -2.11021 0
M  V30 4107 C 396.708 2.27547 -2.14922 0
M  V30 4108 C 397.183 3.16164 -3.31367 0
M  V30 4109 N 398.674 3.23752 -3.31269 0
M  V30 4110 C 399.409 3.92495 -4.18014 0
M  V30 4111 N 398.905 4.63515 -5.14904 0
M  V30 4112 N 400.698 3.88838 -4.05908 0
M  V30 4113 H 392.849 0.57252 -2.04538 0
M  V30 4114 H 395.112 0.315184 -0.894071 0
M  V30 4115 H 394.818 1.71054 -3.073 0
M  V30 4116 H 394.692 3.14919 -2.0762 0
M  V30 4117 H 397.079 2.69947 -1.19217 0
M  V30 4118 H 397.16 1.26418 -2.22378 0
M  V30 4119 H 396.804 2.74474 -4.27348 0
M  V30 4120 H 396.734 4.17339 -3.21148 0
M  V30 4121 H 399.225 2.73167 -2.61129 0
M  V30 4122 H 399.538 5.13583 -5.77453 0
M  V30 4123 H 397.883 4.62398 -5.18857 0
M  V30 4124 H 401.074 3.32491 -3.29495 0
M  V30 4125 H 401.247 4.4214 -4.73726 0
M  V30 4126 N 394.653 0.992116 1.22453 0
M  V30 4127 C 396.064 0.702776 1.72968 0
M  V30 4128 C 396.415 -0.780399 1.80012 0
M  V30 4129 O 395.54 -1.61007 1.44589 0
M  V30 4130 C 396.135 1.26903 3.14135 0
M  V30 4131 C 394.694 1.02909 3.62059 0
M  V30 4132 C 393.841 1.38969 2.39964 0
M  V30 4133 H 396.792 1.16457 1.07812 0
M  V30 4134 H 396.813 0.647223 3.74955 0
M  V30 4135 H 396.325 2.34851 3.08977 0
M  V30 4136 H 394.426 -0.0337979 3.72585 0
M  V30 4137 H 394.539 1.69191 4.48231 0
M  V30 4138 H 392.903 0.808279 2.41535 0
M  V30 4139 H 393.686 2.4792 2.37467 0
M  V30 4140 N 396.131 -1.37776 0.765217 0
M  V30 4141 C 397.079 -2.32209 0.134798 0
M  V30 4142 C 398.073 -1.54607 -0.692315 0
M  V30 4143 O 399.279 -1.70052 -0.590109 0
M  V30 4144 H 395.654 -0.751591 0.0248005 0
M  V30 4145 H 397.625 -2.8297 0.947119 0
M  V30 4146 C 396.374 -3.39841 -0.735063 0
M  V30 4147 H 395.697 -3.99654 -0.107991 0
M  V30 4148 H 397.137 -4.08296 -1.14326 0
M  V30 4149 C 395.596 -2.79378 -1.88281 0
M  V30 4150 O 396.126 -2.69608 -2.97783 0
M  V30 4151 N 394.332 -2.37016 -1.68142 0
M  V30 4152 H 393.879 -2.45162 -0.790772 0
M  V30 4153 H 393.837 -1.96905 -2.45104 0
M  V30 4154 O 397.648 -0.656736 -1.47544 0
M  V30 4155 H 398.339 -0.183317 -1.92831 0
M  V30 END ATOM
M  V30 BEGIN BOND
M  V30 END BOND
M  V30 END CTAB
M  END
$$$$
