drugbank_target|P28476 Gamma-aminobutyric acid receptor subunit rho-2 (DB01567)
 OpenBabel12092120353D

  0  0  0     0  0            999 V3000
M  V30 BEGIN CTAB
M  V30 COUNTS 7640 7741 0 0 0
M  V30 BEGIN ATOM
M  V30 1 H -0.908 1.98254 -0.117106 0
M  V30 2 N 0 1.576 0 0
M  V30 3 C 0.933 2.03868 1.02534 0
M  V30 4 C 1.911 0.928543 1.3348 0
M  V30 5 O 3.095 1.19667 1.45644 0
M  V30 6 C 0.222 2.43627 2.35294 0
M  V30 7 C -0.732 3.65373 2.2001 0
M  V30 8 S 0.101 5.13292 1.52614 0
M  V30 9 C 1.257 5.56322 2.86805 0
M  V30 10 H 1.49 2.90518 0.631377 0
M  V30 11 H -0.977 1.52953 0.210867 0
M  V30 12 H 0.981 2.67203 3.11629 0
M  V30 13 H -0.358 1.57376 2.7183 0
M  V30 14 H -1.165 3.90944 3.18086 0
M  V30 15 H -1.563 3.418 1.51819 0
M  V30 16 H 0.729 5.58782 3.83104 0
M  V30 17 H 1.672 6.56266 2.65933 0
M  V30 18 H 2.08 4.83886 2.90714 0
M  V30 19 N 1.4781 -0.272755 1.55222 0
M  V30 20 C 2.8891 -0.84378 1.66545 0
M  V30 21 C 3.2401 -1.87035 0.592641 0
M  V30 22 O 2.3651 -2.14761 -0.265818 0
M  V30 23 C 2.9601 -1.53723 3.01918 0
M  V30 24 C 1.5191 -2.05628 3.15268 0
M  V30 25 C 0.6661 -0.898424 2.62343 0
M  V30 26 H 3.6171 -0.0490998 1.58624 0
M  V30 27 H 3.6381 -2.40421 2.94921 0
M  V30 28 H 3.1501 -0.78983 3.79978 0
M  V30 29 H 1.2511 -2.83329 2.41983 0
M  V30 30 H 1.3641 -2.27142 4.21833 0
M  V30 31 H -0.2719 -1.29186 2.19506 0
M  V30 32 H 0.5111 -0.164528 3.42906 0
M  V30 33 N 2.9562 -1.48159 -0.537278 0
M  V30 34 C 4.1862 -1.59223 -1.3165 0
M  V30 35 C 4.5942 -0.248849 -1.87556 0
M  V30 36 O 3.9372 0.770949 -1.6674 0
M  V30 37 C 3.9992 -2.57365 -2.51005 0
M  V30 38 C 3.6632 -4.02603 -2.16239 0
M  V30 39 C 4.6602 -4.90503 -1.72344 0
M  V30 40 C 2.3452 -4.48088 -2.26986 0
M  V30 41 C 4.3392 -6.21913 -1.39651 0
M  V30 42 C 2.0262 -5.7952 -1.93906 0
M  V30 43 C 3.0242 -6.66255 -1.50309 0
M  V30 44 O 2.7122 -7.95243 -1.17659 0
M  V30 45 H 2.4442 -0.539831 -0.406889 0
M  V30 46 H 4.9982 -1.94655 -0.655641 0
M  V30 47 H 3.2282 -2.1704 -3.20048 0
M  V30 48 H 4.9172 -2.58342 -3.13072 0
M  V30 49 H 5.6832 -4.56604 -1.63517 0
M  V30 50 H 1.5622 -3.80769 -2.59877 0
M  V30 51 H 5.1062 -6.89569 -1.0555 0
M  V30 52 H 1.0032 -6.12957 -2.02371 0
M  V30 53 H 1.7712 -8.0793 -1.31119 0
M  V30 54 N 4.4343 0.785586 -1.36625 0
M  V30 55 C 5.6813 1.54362 -1.31067 0
M  V30 56 C 6.0093 1.94195 0.10893 0
M  V30 57 O 5.2643 1.63262 1.07908 0
M  V30 58 C 5.5633 2.83007 -2.1827 0
M  V30 59 C 5.2293 2.62294 -3.6676 0
M  V30 60 C 3.8913 2.56353 -4.0723 0
M  V30 61 C 6.2433 2.43371 -4.6089 0
M  V30 62 C 3.5713 2.29461 -5.39967 0
M  V30 63 C 5.9233 2.18005 -5.93849 0
M  V30 64 C 4.5873 2.105 -6.3344 0
M  V30 65 H 3.8573 0.564851 -0.479609 0
M  V30 66 H 6.5043 0.906028 -1.68711 0
M  V30 67 H 4.8093 3.51253 -1.73576 0
M  V30 68 H 6.5063 3.40817 -2.11292 0
M  V30 69 H 3.0963 2.67774 -3.34656 0
M  V30 70 H 7.2803 2.46959 -4.30494 0
M  V30 71 H 2.5363 2.22135 -5.69619 0
M  V30 72 H 6.7103 2.02359 -6.66351 0
M  V30 73 H 4.3373 1.89425 -7.36222 0
M  V30 74 N 5.9124 1.20967 1.01018 0
M  V30 75 C 7.1404 1.04956 1.78303 0
M  V30 76 C 7.5554 -0.400915 1.84494 0
M  V30 77 O 6.9124 -1.27826 1.30257 0
M  V30 78 C 6.9634 1.63403 3.22462 0
M  V30 79 O 6.6844 3.02775 3.16637 0
M  V30 80 C 8.1854 1.52432 4.16268 0
M  V30 81 H 5.4054 0.368858 0.560522 0
M  V30 82 H 7.9494 1.60193 1.27116 0
M  V30 83 H 6.1044 1.1227 3.70775 0
M  V30 84 H 6.5184 3.30626 4.07169 0
M  V30 85 H 7.9924 1.98078 5.15237 0
M  V30 86 H 8.4694 0.477875 4.36592 0
M  V30 87 H 9.0754 2.02787 3.73841 0
M  V30 88 N 7.3905 -1.2043 1.01659 0
M  V30 89 C 8.8065 -1.41852 0.731442 0
M  V30 90 C 9.0065 -1.89358 -0.688898 0
M  V30 91 O 8.0625 -2.06247 -1.45666 0
M  V30 92 C 9.3755 -2.44019 1.75714 0
M  V30 93 C 10.9235 -2.57785 1.77527 0
M  V30 94 C 11.3985 -3.63194 2.79023 0
M  V30 95 N 12.8895 -3.70678 2.77763 0
M  V30 96 C 13.6245 -4.51897 3.52954 0
M  V30 97 N 13.1205 -5.36921 4.37821 0
M  V30 98 N 14.9135 -4.4643 3.41551 0
M  V30 99 H 7.0645 -0.879093 1.93354 0
M  V30 100 H 9.3275 -0.448425 0.835236 0
M  V30 101 H 9.0335 -2.1611 2.77469 0
M  V30 102 H 8.9075 -3.43007 1.56927 0
M  V30 103 H 11.2945 -2.85023 0.764569 0
M  V30 104 H 11.3755 -1.58992 2.00387 0
M  V30 105 H 11.0195 -3.36699 3.80258 0
M  V30 106 H 10.9495 -4.61609 2.53425 0
M  V30 107 H 13.4405 -3.09944 2.16201 0
M  V30 108 H 13.7535 -5.95981 4.91962 0
M  V30 109 H 12.0985 -5.36424 4.41899 0
M  V30 110 H 15.2895 -3.79042 2.74672 0
M  V30 111 H 15.4625 -5.09491 4.00404 0
M  V30 112 N 8.8686 -0.792821 -1.36206 0
M  V30 113 C 9.7986 -0.207853 -2.32573 0
M  V30 114 C 10.7796 0.659055 -1.56813 0
M  V30 115 O 11.9646 0.592176 -1.84951 0
M  V30 116 C 9.0946 0.655449 -3.41059 0
M  V30 117 C 8.0486 -0.111842 -4.27854 0
M  V30 118 C 7.3746 0.872274 -5.27537 0
M  V30 119 C 8.6746 -1.30299 -5.05786 0
M  V30 120 H 10.3686 -1.01294 -2.81744 0
M  V30 121 H 7.9146 -0.48854 -1.3546 0
M  V30 122 H 9.8676 1.07464 -4.07467 0
M  V30 123 H 8.5916 1.49328 -2.90463 0
M  V30 124 H 7.2506 -0.512053 -3.63006 0
M  V30 125 H 6.8986 1.70523 -4.73214 0
M  V30 126 H 6.5986 0.363291 -5.86476 0
M  V30 127 H 8.1226 1.28996 -5.96818 0
M  V30 128 H 9.5366 -0.959379 -5.65216 0
M  V30 129 H 7.9336 -1.7455 -5.74154 0
M  V30 130 H 9.0036 -2.09663 -4.37229 0
M  V30 131 N 10.3467 1.47872 -0.545128 0
M  V30 132 C 11.5957 2.01695 -0.0145033 0
M  V30 133 C 11.9087 1.42609 1.33873 0
M  V30 134 O 13.1147 1.88021 1.95858 0
M  V30 135 C 11.5707 3.59892 0.0245068 0
M  V30 136 C 11.1787 4.27966 -1.32475 0
M  V30 137 C 12.9227 4.21507 0.50316 0
M  V30 138 C 10.8297 5.78136 -1.2455 0
M  V30 139 H 9.7597 0.753998 -0.00165172 0
M  V30 140 H 12.4107 1.69985 -0.691175 0
M  V30 141 H 10.7927 3.88509 0.766575 0
M  V30 142 H 11.9667 4.11003 -2.08357 0
M  V30 143 H 10.2817 3.78286 -1.74036 0
M  V30 144 H 12.8787 5.31538 0.580656 0
M  V30 145 H 13.2217 3.87855 1.51243 0
M  V30 146 H 13.7547 3.97376 -0.183681 0
M  V30 147 H 10.4937 6.16388 -2.23039 0
M  V30 148 H 10.0137 5.97469 -0.528282 0
M  V30 149 H 11.6927 6.40099 -0.942488 0
M  V30 150 N 11.8248 0.280983 1.55075 0
M  V30 151 C 12.7548 -0.597469 2.25727 0
M  V30 152 C 13.7358 -1.15417 1.24952 0
M  V30 153 O 14.9208 -1.18722 1.53684 0
M  V30 154 C 12.0508 -1.7789 2.98283 0
M  V30 155 C 11.0048 -1.35347 4.06036 0
M  V30 156 C 10.3308 -2.61846 4.66198 0
M  V30 157 C 11.6308 -0.499354 5.19907 0
M  V30 158 H 13.3248 -0.00824265 2.99399 0
M  V30 159 H 10.8708 -0.0025244 1.44 0
M  V30 160 H 12.8238 -2.39937 3.46422 0
M  V30 161 H 11.5478 -2.39405 2.22155 0
M  V30 162 H 10.2068 -0.756156 3.58717 0
M  V30 163 H 9.8548 -3.21632 3.86732 0
M  V30 164 H 9.5548 -2.3409 5.38958 0
M  V30 165 H 11.0788 -3.24732 5.1709 0
M  V30 166 H 12.4928 -1.02498 5.64063 0
M  V30 167 H 10.8898 -0.316424 5.99265 0
M  V30 168 H 11.9598 0.480459 4.82514 0
M  V30 169 N 13.3029 -1.57598 0.00835791 0
M  V30 170 C 14.5499 -1.90928 -0.674732 0
M  V30 171 C 14.8779 -0.88277 -1.73313 0
M  V30 172 O 14.1329 0.111294 -1.95383 0
M  V30 173 C 14.4319 -3.3101 -1.34787 0
M  V30 174 C 14.0979 -4.48922 -0.421861 0
M  V30 175 C 12.7599 -4.8091 -0.166927 0
M  V30 176 C 15.1119 -5.20755 0.215211 0
M  V30 177 C 12.4399 -5.821 0.733232 0
M  V30 178 C 14.7919 -6.22905 1.1033 0
M  V30 179 C 13.4559 -6.53346 1.36733 0
M  V30 180 H 12.7259 -0.698656 -0.246902 0
M  V30 181 H 15.3729 -1.91387 0.0656779 0
M  V30 182 H 13.6779 -3.26714 -2.16253 0
M  V30 183 H 15.3749 -3.54061 -1.8826 0
M  V30 184 H 11.9649 -4.23934 -0.630729 0
M  V30 185 H 16.1489 -4.9629 0.0312829 0
M  V30 186 H 11.4049 -6.04042 0.945712 0
M  V30 187 H 15.5789 -6.77694 1.60325 0
M  V30 188 H 13.2059 -7.31573 2.06652 0
M  V30 189 N 14.781 0.264519 -1.55364 0
M  V30 190 C 15.711 1.33121 -1.91836 0
M  V30 191 C 16.692 1.51101 -0.781192 0
M  V30 192 O 17.877 1.64003 -1.04003 0
M  V30 193 C 15.007 2.68921 -2.19769 0
M  V30 194 C 13.961 2.65661 -3.35571 0
M  V30 195 C 13.287 4.05093 -3.49004 0
M  V30 196 C 14.587 2.24187 -4.71739 0
M  V30 197 H 16.281 1.02844 -2.81182 0
M  V30 198 H 13.827 0.493286 -1.35287 0
M  V30 199 H 15.78 3.43663 -2.43872 0
M  V30 200 H 14.504 3.00799 -1.27231 0
M  V30 201 H 13.163 1.93377 -3.1145 0
M  V30 202 H 12.811 4.34206 -2.53917 0
M  V30 203 H 12.511 4.03804 -4.26868 0
M  V30 204 H 14.035 4.81561 -3.75408 0
M  V30 205 H 15.449 2.88654 -4.9533 0
M  V30 206 H 13.846 2.34044 -5.52579 0
M  V30 207 H 14.916 1.19327 -4.69988 0
M  V30 208 N 16.2591 1.48442 0.529413 0
M  V30 209 C 17.5061 1.56488 1.28521 0
M  V30 210 C 17.8341 0.239042 1.93025 0
M  V30 211 O 17.0891 -0.770713 1.79885 0
M  V30 212 C 17.3881 2.6523 2.39558 0
M  V30 213 C 17.0541 4.07648 1.92702 0
M  V30 214 C 15.7161 4.46411 1.79641 0
M  V30 215 C 18.0681 4.96896 1.573 0
M  V30 216 C 15.3961 5.72226 1.29514 0
M  V30 217 C 17.7481 6.23202 1.08636 0
M  V30 218 C 16.4121 6.60821 0.941919 0
M  V30 219 H 15.6821 0.572631 0.470292 0
M  V30 220 H 18.3291 1.82161 0.59072 0
M  V30 221 H 16.6341 2.33419 3.14679 0
M  V30 222 H 18.3311 2.68671 2.97686 0
M  V30 223 H 14.9211 3.77036 2.03819 0
M  V30 224 H 19.1051 4.67626 1.66251 0
M  V30 225 H 14.3611 6.00097 1.17019 0
M  V30 226 H 18.5351 6.91753 0.803136 0
M  V30 227 H 16.1621 7.58198 0.5513 0
M  V30 228 N 17.7372 -0.778329 1.37039 0
M  V30 229 C 18.9772 -1.54973 1.33276 0
M  V30 230 C 19.3412 -1.91816 -0.0839376 0
M  V30 231 O 20.5422 -2.6767 -0.246228 0
M  V30 232 C 18.8132 -2.78517 2.23971 0
M  V30 233 S 20.3722 -3.6865 2.37997 0
M  V30 234 H 17.1902 -0.530639 0.473226 0
M  V30 235 H 19.7922 -0.915806 1.72723 0
M  V30 236 H 18.4962 -2.4952 3.25835 0
M  V30 237 H 18.0272 -3.46875 1.85584 0
M  V30 238 H 20.0422 -4.70182 1.58567 0
M  V30 239 N 19.2153 -1.21501 -1.00376 0
M  V30 240 C 20.1453 -0.999478 -2.11028 0
M  V30 241 C 21.1263 0.0759671 -1.6993 0
M  V30 242 O 22.3113 -0.0841106 -1.94018 0
M  V30 243 C 19.4413 -0.564709 -3.42678 0
M  V30 244 C 18.3953 -1.58486 -3.97576 0
M  V30 245 C 17.7213 -1.00628 -5.25146 0
M  V30 246 C 19.0213 -2.97204 -4.29496 0
M  V30 247 H 20.7153 -1.92495 -2.29317 0
M  V30 248 H 18.2613 -0.92693 -1.102 0
M  V30 249 H 20.2143 -0.401091 -4.19487 0
M  V30 250 H 18.9383 0.396411 -3.24185 0
M  V30 251 H 17.5973 -1.73606 -3.22888 0
M  V30 252 H 17.2453 -0.0368439 -5.02987 0
M  V30 253 H 16.9453 -1.68771 -5.62841 0
M  V30 254 H 18.4693 -0.854015 -6.04598 0
M  V30 255 H 19.8833 -2.8552 -4.97143 0
M  V30 256 H 18.2803 -3.62372 -4.78338 0
M  V30 257 H 19.3503 -3.47956 -3.3772 0
M  V30 258 N 20.6934 1.19889 -1.02296 0
M  V30 259 C 21.6264 2.21639 -0.543282 0
M  V30 260 C 22.6044 1.57275 0.412698 0
M  V30 261 O 23.7884 1.85568 0.331198 0
M  V30 262 C 20.9154 3.38057 0.208571 0
M  V30 263 C 19.9614 4.20751 -0.697933 0
M  V30 264 S 20.7944 4.89529 -2.17075 0
M  V30 265 C 21.9504 6.09363 -1.42923 0
M  V30 266 H 22.1834 2.61984 -1.40541 0
M  V30 267 H 19.7164 1.30041 -0.832387 0
M  V30 268 H 21.6744 4.05539 0.63624 0
M  V30 269 H 20.3354 2.96159 1.04635 0
M  V30 270 H 19.5284 5.03862 -0.117831 0
M  V30 271 H 19.1304 3.58556 -1.06366 0
M  V30 272 H 21.4224 6.73742 -0.712637 0
M  V30 273 H 22.3654 6.71845 -2.23673 0
M  V30 274 H 22.7734 5.56798 -0.929327 0
M  V30 275 N 22.1715 0.800033 1.35784 0
M  V30 276 C 23.4175 0.377901 1.99248 0
M  V30 277 C 23.7505 -1.05052 1.63333 0
M  V30 278 O 23.0255 -1.72768 0.893385 0
M  V30 279 C 23.3085 0.553922 3.55814 0
M  V30 280 C 23.1615 2.0268 4.01548 0
M  V30 281 C 24.4805 -0.0244802 4.40093 0
M  V30 282 H 21.5995 0.138782 0.723815 0
M  V30 283 H 24.2415 1.00835 1.61035 0
M  V30 284 H 22.3915 0.0172398 3.88496 0
M  V30 285 H 24.0635 2.62536 3.79305 0
M  V30 286 H 22.3065 2.5256 3.52698 0
M  V30 287 H 22.9775 2.10087 5.10458 0
M  V30 288 H 25.4535 0.433775 4.13833 0
M  V30 289 H 24.3295 0.128637 5.48749 0
M  V30 290 H 24.5905 -1.11758 4.27741 0
M  V30 291 N 23.6496 -1.47581 0.552962 0
M  V30 292 C 24.5796 -2.32762 -0.185451 0
M  V30 293 C 25.5606 -1.43527 -0.912905 0
M  V30 294 O 26.7456 -1.72388 -0.894201 0
M  V30 295 C 23.8756 -3.25219 -1.21859 0
M  V30 296 C 22.8296 -4.23661 -0.607864 0
M  V30 297 C 22.1556 -5.05413 -1.74533 0
M  V30 298 C 23.4556 -5.20481 0.435582 0
M  V30 299 H 25.1496 -2.94749 0.525684 0
M  V30 300 H 22.6956 -1.41738 0.254251 0
M  V30 301 H 24.6486 -3.8365 -1.7433 0
M  V30 302 H 23.3726 -2.61279 -1.95961 0
M  V30 303 H 22.0316 -3.66451 -0.104489 0
M  V30 304 H 21.6796 -4.3788 -2.47529 0
M  V30 305 H 21.3796 -5.72059 -1.34249 0
M  V30 306 H 22.9036 -5.66701 -2.27338 0
M  V30 307 H 24.3176 -5.733 -0.00290157 0
M  V30 308 H 22.7146 -5.95305 0.757067 0
M  V30 309 H 23.7846 -4.66217 1.33303 0
M  V30 310 N 25.1277 -0.289203 -1.54924 0
M  V30 311 C 26.3737 0.323998 -2.00195 0
M  V30 312 C 26.7067 1.54441 -1.17735 0
M  V30 313 O 25.9817 1.92875 -0.250878 0
M  V30 314 C 26.2647 0.692276 -3.53383 0
M  V30 315 C 26.1177 -0.536457 -4.46589 0
M  V30 316 C 27.4367 1.52335 -4.12895 0
M  V30 317 H 24.5557 0.116289 -0.727768 0
M  V30 318 H 27.1977 -0.398954 -1.85764 0
M  V30 319 H 25.3477 1.30822 -3.65811 0
M  V30 320 H 27.0197 -1.17499 -4.46085 0
M  V30 321 H 25.2627 -1.17192 -4.1767 0
M  V30 322 H 25.9337 -0.234806 -5.515 0
M  V30 323 H 28.4097 1.00302 -4.0383 0
M  V30 324 H 27.2857 1.74982 -5.20262 0
M  V30 325 H 27.5467 2.50886 -3.64018 0
M  V30 326 N 26.6058 1.57591 -0.0167156 0
M  V30 327 C 27.5158 2.1291 0.98521 0
M  V30 328 C 28.5318 1.07834 1.36557 0
M  V30 329 O 29.7078 1.39826 1.44951 0
M  V30 330 C 26.7728 2.63512 2.25305 0
M  V30 331 C 25.8338 3.83256 1.93426 0
M  V30 332 C 25.0668 4.31435 3.14165 0
M  V30 333 O 25.2898 3.78851 4.26413 0
M  V30 334 O 24.2238 5.23416 2.97186 0
M  V30 335 H 28.0498 2.98772 0.544888 0
M  V30 336 H 25.6348 1.48012 0.203141 0
M  V30 337 H 27.5168 2.96183 2.99756 0
M  V30 338 H 26.1918 1.8074 2.68542 0
M  V30 339 H 25.0988 3.55531 1.16398 0
M  V30 340 H 26.4318 4.67153 1.55013 0
M  V30 341 N 28.0839 -0.256276 1.55502 0
M  V30 342 C 29.3089 -1.00766 1.81276 0
M  V30 343 C 29.7339 -1.78524 0.59252 0
M  V30 344 O 29.0919 -1.75413 -0.45827 0
M  V30 345 C 29.1399 -1.92869 3.04687 0
M  V30 346 O 28.2439 -3.019 2.80945 0
M  V30 347 H 27.5849 -0.287224 0.598664 0
M  V30 348 H 30.1149 -0.280109 2.02674 0
M  V30 349 H 30.1249 -2.34511 3.33869 0
M  V30 350 H 28.7999 -1.35689 3.93143 0
M  V30 351 H 27.3769 -2.64454 2.62904 0
M  V30 352 N 29.562 -1.4872 -0.521534 0
M  V30 353 C 30.978 -1.35028 -0.850855 0
M  V30 354 C 31.178 -0.367712 -1.98116 0
M  V30 355 O 30.234 0.208037 -2.51642 0
M  V30 356 C 31.547 -2.75263 -1.21041 0
M  V30 357 C 33.095 -2.83813 -1.31981 0
M  V30 358 C 33.57 -4.24769 -1.71276 0
M  V30 359 N 35.061 -4.27482 -1.78363 0
M  V30 360 C 35.796 -5.33494 -2.1017 0
M  V30 361 N 35.292 -6.49775 -2.40343 0
M  V30 362 N 37.085 -5.20894 -2.11248 0
M  V30 363 H 29.236 -2.11214 0.22413 0
M  V30 364 H 31.499 -0.947252 0.0376439 0
M  V30 365 H 31.205 -3.48765 -0.453415 0
M  V30 366 H 31.079 -3.09327 -2.15863 0
M  V30 367 H 33.466 -2.10561 -2.06756 0
M  V30 368 H 33.547 -2.53358 -0.352596 0
M  V30 369 H 33.191 -4.9854 -0.970588 0
M  V30 370 H 33.121 -4.52673 -2.69062 0
M  V30 371 H 35.612 -3.43611 -1.57288 0
M  V30 372 H 35.925 -7.26402 -2.63743 0
M  V30 373 H 34.27 -6.53035 -2.37844 0
M  V30 374 H 37.461 -4.29065 -1.87139 0
M  V30 375 H 37.634 -6.03612 -2.35704 0
M  V30 376 N 31.0401 0.771051 -1.3745 0
M  V30 377 C 31.9871 1.88435 -1.3327 0
M  V30 378 C 32.9571 1.64914 -0.198136 0
M  V30 379 O 34.1421 1.86821 -0.387606 0
M  V30 380 C 31.2821 3.25509 -1.14622 0
M  V30 381 C 30.3951 3.60979 -2.37314 0
M  V30 382 C 29.5301 4.87265 -2.11533 0
M  V30 383 C 28.5691 5.15469 -3.30088 0
M  V30 384 N 27.7061 6.32944 -3.03853 0
M  V30 385 H 32.5461 1.91344 -2.28455 0
M  V30 386 H 30.0831 0.935466 -1.13523 0
M  V30 387 H 32.0411 4.04582 -1.01831 0
M  V30 388 H 30.6711 3.21974 -0.230837 0
M  V30 389 H 29.7231 2.76885 -2.60842 0
M  V30 390 H 31.0351 3.77759 -3.25729 0
M  V30 391 H 30.1891 5.74244 -1.95777 0
M  V30 392 H 28.9281 4.7259 -1.20457 0
M  V30 393 H 27.9331 4.26966 -3.46382 0
M  V30 394 H 29.1581 5.32052 -4.22016 0
M  V30 395 H 27.1041 6.19625 -2.15407 0
M  V30 396 H 27.0211 6.50143 -3.85812 0
M  V30 397 H 28.2891 7.22857 -2.91716 0
M  V30 398 N 32.5182 1.22032 0.997298 0
M  V30 399 C 33.9292 1.0397 1.55071 0
M  V30 400 C 34.2802 -0.398192 1.92117 0
M  V30 401 O 33.4052 -1.28254 1.74298 0
M  V30 402 C 34.0002 1.88109 2.81781 0
M  V30 403 C 32.5592 1.74357 3.33581 0
M  V30 404 C 31.7062 1.84846 2.06706 0
M  V30 405 H 34.6572 1.35941 0.818883 0
M  V30 406 H 34.6782 1.39589 3.53971 0
M  V30 407 H 34.1902 2.92754 2.54787 0
M  V30 408 H 32.2912 0.72427 3.65493 0
M  V30 409 H 32.4042 2.56772 4.04481 0
M  V30 410 H 30.7682 1.28238 2.20062 0
M  V30 411 H 31.5512 2.91014 1.82114 0
M  V30 412 N 33.9963 -1.19345 1.0293 0
M  V30 413 C 34.9433 -2.2258 0.610464 0
M  V30 414 C 35.9133 -1.6179 -0.375946 0
M  V30 415 O 37.0983 -1.88844 -0.272511 0
M  V30 416 C 34.2383 -3.45085 -0.0321473 0
M  V30 417 C 33.3513 -4.20258 1.00035 0
M  V30 418 C 32.4863 -5.3019 0.32746 0
M  V30 419 C 31.5253 -5.97121 1.34584 0
M  V30 420 N 30.6623 -6.98615 0.698726 0
M  V30 421 H 35.5023 -2.57764 1.49538 0
M  V30 422 H 33.0393 -1.26644 0.748311 0
M  V30 423 H 34.9973 -4.15061 -0.421966 0
M  V30 424 H 33.6273 -3.10555 -0.88064 0
M  V30 425 H 32.6793 -3.49223 1.50823 0
M  V30 426 H 33.9913 -4.66175 1.77433 0
M  V30 427 H 33.1453 -6.06587 -0.11718 0
M  V30 428 H 31.8843 -4.85345 -0.478713 0
M  V30 429 H 30.8893 -5.19474 1.80074 0
M  V30 430 H 32.1143 -6.4405 2.15352 0
M  V30 431 H 30.0603 -6.55942 -0.0873471 0
M  V30 432 H 29.9773 -7.42724 1.41058 0
M  V30 433 H 31.2453 -7.79004 0.278102 0
M  V30 434 N 35.4744 -0.807222 -1.35358 0
M  V30 435 C 36.8904 -0.491038 -1.51858 0
M  V30 436 C 37.0904 0.987648 -1.75635 0
M  V30 437 O 36.1464 1.77265 -1.79815 0
M  V30 438 C 37.4594 -1.33695 -2.69344 0
M  V30 439 C 39.0074 -1.33246 -2.83222 0
M  V30 440 C 39.4824 -2.1625 -4.03733 0
M  V30 441 N 40.9734 -2.1379 -4.10911 0
M  V30 442 C 41.7084 -2.74772 -5.03277 0
M  V30 443 N 41.2044 -3.44684 -6.0097 0
M  V30 444 N 42.9974 -2.6441 -4.96028 0
M  V30 445 H 35.1484 -1.76485 -1.18181 0
M  V30 446 H 37.4114 -0.751199 -0.578276 0
M  V30 447 H 37.1174 -2.38634 -2.58354 0
M  V30 448 H 36.9914 -0.990618 -3.6396 0
M  V30 449 H 39.3784 -0.290911 -2.93663 0
M  V30 450 H 39.4594 -1.71866 -1.89461 0
M  V30 451 H 39.1034 -3.20445 -3.94052 0
M  V30 452 H 39.0334 -1.74989 -4.96675 0
M  V30 453 H 41.5244 -1.62923 -3.40976 0
M  V30 454 H 41.8374 -3.88501 -6.68047 0
M  V30 455 H 40.1824 -3.48788 -6.01142 0
M  V30 456 H 43.3734 -2.0938 -4.18662 0
M  V30 457 H 43.5464 -3.12225 -5.6782 0
M  V30 458 N 36.9525 1.47285 -0.560781 0
M  V30 459 C 37.8995 2.30058 0.18491 0
M  V30 460 C 38.8695 1.39281 0.904986 0
M  V30 461 O 40.0545 1.68241 0.899979 0
M  V30 462 C 37.1945 3.23317 1.20666 0
M  V30 463 C 36.3075 4.29186 0.492285 0
M  V30 464 C 35.4425 5.09592 1.49964 0
M  V30 465 C 34.4815 6.07232 0.770439 0
M  V30 466 N 33.6185 6.80584 1.72479 0
M  V30 467 H 38.4585 2.93302 -0.527048 0
M  V30 468 H 35.9955 1.44568 -0.271738 0
M  V30 469 H 37.9535 3.75811 1.81168 0
M  V30 470 H 36.5835 2.61929 1.88661 0
M  V30 471 H 35.6355 3.7972 -0.227333 0
M  V30 472 H 36.9475 4.98738 -0.0787929 0
M  V30 473 H 36.1015 5.66254 2.17809 0
M  V30 474 H 34.8405 4.3995 2.10464 0
M  V30 475 H 33.8455 5.49745 0.0780846 0
M  V30 476 H 35.0705 6.78884 0.171134 0
M  V30 477 H 33.0165 6.1367 2.3183 0
M  V30 478 H 32.9335 7.46319 1.20596 0
M  V30 479 H 34.2015 7.41818 2.39428 0
M  V30 480 N 38.4306 0.297415 1.54768 0
M  V30 481 C 39.8466 -0.0560823 1.59501 0
M  V30 482 C 40.0466 -1.52725 1.31444 0
M  V30 483 O 39.1026 -2.27947 1.08611 0
M  V30 484 C 40.4156 0.338631 2.98787 0
M  V30 485 C 41.9636 0.287097 3.11681 0
M  V30 486 C 42.4386 0.656579 4.53269 0
M  V30 487 N 43.9296 0.608977 4.59179 0
M  V30 488 C 44.6646 0.867385 5.66802 0
M  V30 489 N 44.1606 1.19157 6.82476 0
M  V30 490 N 45.9536 0.794687 5.56454 0
M  V30 491 H 38.1046 1.25624 1.71267 0
M  V30 492 H 40.3676 0.509057 0.799728 0
M  V30 493 H 40.0736 1.36263 3.2423 0
M  V30 494 H 39.9476 -0.309508 3.75928 0
M  V30 495 H 42.3346 -0.727649 2.85988 0
M  V30 496 H 42.4156 0.969809 2.36703 0
M  V30 497 H 42.0596 1.66912 4.7969 0
M  V30 498 H 41.9896 -0.0481649 5.26578 0
M  V30 499 H 44.4806 0.369198 3.76092 0
M  V30 500 H 44.7936 1.37482 7.60473 0
M  V30 501 H 43.1386 1.22958 6.84037 0
M  V30 502 H 46.3296 0.541098 4.64962 0
M  V30 503 H 46.5026 0.999445 6.40246 0
M  V30 504 N 39.9087 -1.5758 0.0250728 0
M  V30 505 C 41.1547 -1.92746 -0.649648 0
M  V30 506 C 41.5097 -0.901588 -1.69968 0
M  V30 507 O 40.8027 0.0829251 -1.9142 0
M  V30 508 C 40.9967 -3.32421 -1.31268 0
M  V30 509 C 40.8257 -4.48499 -0.328394 0
M  V30 510 C 39.5957 -5.05251 0.070284 0
M  V30 511 C 41.7937 -5.12618 0.415665 0
M  V30 512 N 39.7757 -6.04851 1.05016 0
M  V30 513 C 41.1467 -6.0728 1.24943 0
M  V30 514 C 43.2017 -4.95612 0.476803 0
M  V30 515 C 41.9047 -6.86766 2.1388 0
M  V30 516 C 43.9307 -5.75703 1.3535 0
M  V30 517 C 43.2927 -6.69978 2.17504 0
M  V30 518 H 39.3917 -0.753231 -0.210159 0
M  V30 519 H 41.9757 -1.94486 0.0912999 0
M  V30 520 H 40.1467 -3.31508 -2.02379 0
M  V30 521 H 41.8787 -3.54946 -1.94411 0
M  V30 522 H 38.6337 -4.72628 -0.303323 0
M  V30 523 H 39.0577 -6.5934 1.53622 0
M  V30 524 H 43.6997 -4.22554 -0.144105 0
M  V30 525 H 41.4177 -7.59132 2.77027 0
M  V30 526 H 45.0037 -5.64579 1.40504 0
M  V30 527 H 43.8837 -7.30873 2.84244 0
M  V30 528 N 41.3868 0.248026 -1.55636 0
M  V30 529 C 42.6148 0.993808 -1.81469 0
M  V30 530 C 43.0298 1.78991 -0.60064 0
M  V30 531 O 42.3868 1.77345 0.430682 0
M  V30 532 C 42.4378 1.93258 -3.05506 0
M  V30 533 O 42.1588 1.16869 -4.22224 0
M  V30 534 C 43.6598 2.79444 -3.4413 0
M  V30 535 H 40.8798 0.292486 -0.603898 0
M  V30 536 H 43.4238 0.271253 -2.02693 0
M  V30 537 H 41.5788 2.60943 -2.86335 0
M  V30 538 H 41.9928 1.80359 -4.92515 0
M  V30 539 H 43.4668 3.41066 -4.34026 0
M  V30 540 H 43.9438 3.50499 -2.64665 0
M  V30 541 H 44.5498 2.17214 -3.65648 0
M  V30 542 N 42.8649 1.48995 0.513639 0
M  V30 543 C 44.1129 1.57531 1.26604 0
M  V30 544 C 44.4339 0.258236 1.93283 0
M  V30 545 O 43.7039 -0.721502 1.8213 0
M  V30 546 H 42.2839 0.580387 0.470276 0
M  V30 547 H 44.9459 1.85552 0.596373 0
M  V30 548 H 44.0419 2.36486 2.03669 0
M  V30 549 N 44.343 -0.763751 1.37857 0
M  V30 550 C 45.275 -1.88664 1.30148 0
M  V30 551 C 46.288 -1.61365 0.215685 0
M  V30 552 O 47.477 -1.72134 0.472459 0
M  V30 553 C 44.577 -3.24075 0.991396 0
M  V30 554 C 43.75 -3.78958 2.18426 0
M  V30 555 C 42.809 -4.92862 1.8432 0
M  V30 556 O 41.835 -5.08027 2.56704 0
M  V30 557 N 43.037 -5.75071 0.792081 0
M  V30 558 H 45.802 -1.95791 2.26905 0
M  V30 559 H 43.363 -0.943226 1.31586 0
M  V30 560 H 45.355 -3.97804 0.743935 0
M  V30 561 H 43.925 -3.12399 0.112122 0
M  V30 562 H 43.145 -2.96913 2.59299 0
M  V30 563 H 44.433 -4.12357 2.98058 0
M  V30 564 H 43.831 -5.65375 0.191595 0
M  V30 565 H 42.388 -6.48991 0.60449 0
M  V30 566 N 45.8211 -1.22559 -0.990812 0
M  V30 567 C 47.0671 -1.05297 -1.73322 0
M  V30 568 C 47.4001 0.410655 -1.89808 0
M  V30 569 O 46.6751 1.30439 -1.44277 0
M  V30 570 C 46.9581 -1.76713 -3.13759 0
M  V30 571 C 46.8111 -3.30684 -3.04907 0
M  V30 572 C 48.1301 -1.52121 -4.12974 0
M  V30 573 H 45.2491 -0.38392 -0.629106 0
M  V30 574 H 47.8911 -1.50926 -1.15418 0
M  V30 575 H 46.0411 -1.37924 -3.63193 0
M  V30 576 H 47.7131 -3.7893 -2.63077 0
M  V30 577 H 45.9561 -3.60253 -2.41661 0
M  V30 578 H 46.6271 -3.75833 -4.04294 0
M  V30 579 H 49.1031 -1.85819 -3.72304 0
M  V30 580 H 47.9791 -2.04582 -5.0935 0
M  V30 581 H 48.2401 -0.454257 -4.3976 0
M  V30 582 N 47.2992 1.18797 -1.03562 0
M  V30 583 C 48.2092 2.25913 -0.632505 0
M  V30 584 C 49.2252 1.70668 0.338882 0
M  V30 585 O 50.4012 2.00453 0.195076 0
M  V30 586 C 47.4662 3.467 0.00350942 0
M  V30 587 C 46.5272 4.17098 -1.01624 0
M  V30 588 C 45.7602 5.32119 -0.410478 0
M  V30 589 O 45.9832 5.64976 0.784725 0
M  V30 590 O 44.9172 5.9107 -1.13667 0
M  V30 591 H 48.7432 2.62648 -1.52478 0
M  V30 592 H 46.3282 1.25781 -0.806195 0
M  V30 593 H 48.2102 4.19878 0.35781 0
M  V30 594 H 46.8852 3.11798 0.869686 0
M  V30 595 H 45.7922 3.4601 -1.42224 0
M  V30 596 H 47.1252 4.55987 -1.85301 0
M  V30 597 N 48.7773 0.814389 1.34928 0
M  V30 598 C 49.7103 0.175641 2.27523 0
M  V30 599 C 50.6883 -0.662953 1.48471 0
M  V30 600 O 51.8723 -0.628545 1.77712 0
M  V30 601 C 48.9993 -0.755516 3.30166 0
M  V30 602 C 48.0453 0.00445305 4.265 0
M  V30 603 S 48.8783 1.34582 5.18313 0
M  V30 604 C 50.0343 0.419315 6.24494 0
M  V30 605 H 50.2673 0.960691 2.8135 0
M  V30 606 H 47.8003 0.609846 1.41846 0
M  V30 607 H 49.7583 -1.28723 3.89796 0
M  V30 608 H 48.4193 -1.51402 2.75202 0
M  V30 609 H 47.6123 -0.703077 4.99072 0
M  V30 610 H 47.2143 0.466447 3.7108 0
M  V30 611 H 49.5063 -0.392432 6.76362 0
M  V30 612 H 50.4493 1.11446 6.99275 0
M  V30 613 H 50.8573 0.0115389 5.64499 0
M  V30 614 N 50.2554 -1.46986 0.568584 0
M  V30 615 C 51.6664 -1.86188 0.138219 0
M  V30 616 C 52.0174 -1.47388 -1.29504 0
M  V30 617 O 51.1424 -0.88219 -1.97602 0
M  V30 618 C 51.7374 -3.3792 0.244065 0
M  V30 619 C 50.2964 -3.76171 -0.131335 0
M  V30 620 C 49.4434 -2.71027 0.586465 0
M  V30 621 H 52.3944 -1.38342 0.777645 0
M  V30 622 H 52.4154 -3.76729 -0.534351 0
M  V30 623 H 51.9274 -3.66128 1.28731 0
M  V30 624 H 50.0284 -3.5358 -1.17526 0
M  V30 625 H 50.1414 -4.78523 0.235146 0
M  V30 626 H 48.5054 -2.54684 0.0282722 0
M  V30 627 H 49.2884 -3.02077 1.63109 0
M  V30 628 N 51.7335 -0.305618 -1.54608 0
M  V30 629 C 52.6805 0.568421 -2.23691 0
M  V30 630 C 53.6505 1.12592 -1.22116 0
M  V30 631 O 54.8355 1.16959 -1.50749 0
M  V30 632 C 51.9755 1.7322 -2.98477 0
M  V30 633 C 51.0885 1.20566 -4.14835 0
M  V30 634 C 50.2235 2.33368 -4.77193 0
M  V30 635 C 49.2625 1.7787 -5.85686 0
M  V30 636 N 48.3995 2.84263 -6.4198 0
M  V30 637 H 53.2395 -0.0272867 -2.97988 0
M  V30 638 H 50.7765 -0.0252363 -1.47078 0
M  V30 639 H 52.7345 2.41675 -3.40072 0
M  V30 640 H 51.3645 2.29947 -2.26548 0
M  V30 641 H 50.4165 0.413223 -3.78149 0
M  V30 642 H 51.7285 0.759417 -4.92985 0
M  V30 643 H 50.8825 3.09761 -5.21664 0
M  V30 644 H 49.6215 2.8132 -3.98385 0
M  V30 645 H 48.6265 0.99968 -5.40635 0
M  V30 646 H 49.8515 1.30816 -6.66381 0
M  V30 647 H 47.7975 3.31541 -5.66053 0
M  V30 648 H 47.7145 2.44149 -7.15491 0
M  V30 649 H 48.9825 3.6054 -6.91109 0
M  V30 650 N 53.2116 1.57565 -0.0334293 0
M  V30 651 C 54.6226 1.79746 0.504798 0
M  V30 652 C 54.9736 0.944091 1.71992 0
M  V30 653 O 54.0986 0.155694 2.15839 0
M  V30 654 C 54.6936 3.25997 0.922567 0
M  V30 655 C 53.2526 3.49159 1.40588 0
M  V30 656 C 52.3996 2.74785 0.372633 0
M  V30 657 H 55.3506 1.56565 -0.259436 0
M  V30 658 H 55.3716 3.35945 1.78666 0
M  V30 659 H 54.8836 3.88081 0.0379825 0
M  V30 660 H 52.9846 2.92332 2.31025 0
M  V30 661 H 53.0976 4.57873 1.41028 0
M  V30 662 H 51.4616 2.40391 0.841672 0
M  V30 663 H 52.2446 3.39587 -0.503559 0
M  V30 664 N 54.6897 -0.239769 1.55765 0
M  V30 665 C 55.9147 -0.988373 1.82335 0
M  V30 666 C 56.3397 -1.77886 0.611421 0
M  V30 667 O 55.6977 -1.75889 -0.439639 0
M  V30 668 C 55.7457 -1.89627 3.06715 0
M  V30 669 O 54.8497 -2.98904 2.84131 0
M  V30 670 H 54.1907 -0.280858 0.601677 0
M  V30 671 H 56.7207 -0.258597 2.02959 0
M  V30 672 H 56.7307 -2.30957 3.36338 0
M  V30 673 H 55.4057 -1.31511 3.9456 0
M  V30 674 H 53.9827 -2.61651 2.65694 0
M  V30 675 N 56.1678 -1.49265 -0.50573 0
M  V30 676 C 57.1178 -1.6198 -1.60457 0
M  V30 677 C 58.1018 -0.47568 -1.53708 0
M  V30 678 O 59.2938 -0.728392 -1.61318 0
M  V30 679 C 56.4228 -1.68526 -2.99089 0
M  V30 680 C 55.5088 -2.885 -3.10852 0
M  V30 681 N 55.8998 -4.12635 -2.92517 0
M  V30 682 C 54.1978 -2.86338 -3.41945 0
M  V30 683 C 54.8988 -4.93258 -3.08337 0
M  V30 684 N 53.8748 -4.26533 -3.37003 0
M  V30 685 H 57.6768 -2.55681 -1.44928 0
M  V30 686 H 55.1908 -1.45972 -0.711752 0
M  V30 687 H 57.1878 -1.75732 -3.78053 0
M  V30 688 H 55.8478 -0.759584 -3.1569 0
M  V30 689 H 56.8588 -4.42689 -2.68787 0
M  V30 690 H 53.5358 -2.03129 -3.64753 0
M  V30 691 H 54.9258 -6.01856 -2.98695 0
M  V30 692 N 57.6459 0.756429 -1.3826 0
M  V30 693 C 58.5759 1.88374 -1.37976 0
M  V30 694 C 59.5569 1.68311 -0.246082 0
M  V30 695 O 60.7419 1.88944 -0.44874 0
M  V30 696 C 57.8719 3.25864 -1.20125 0
M  V30 697 C 56.8259 3.60523 -2.30666 0
M  V30 698 C 56.1519 4.9672 -1.97923 0
M  V30 699 C 57.4519 3.65692 -3.72916 0
M  V30 700 H 59.1459 1.88869 -2.32312 0
M  V30 701 H 56.6919 0.907272 -1.11824 0
M  V30 702 H 58.6449 4.0438 -1.18552 0
M  V30 703 H 57.3689 3.25841 -0.222498 0
M  V30 704 H 56.0279 2.84324 -2.3142 0
M  V30 705 H 55.6759 4.93253 -0.985393 0
M  V30 706 H 55.3759 5.20878 -2.71955 0
M  V30 707 H 56.8999 5.77618 -1.97964 0
M  V30 708 H 58.3139 4.34328 -3.74208 0
M  V30 709 H 56.7109 4.01358 -4.4613 0
M  V30 710 H 57.7809 2.65987 -4.05436 0
M  V30 711 N 59.124 1.23083 0.984299 0
M  V30 712 C 60.354 1.08556 1.75781 0
M  V30 713 C 60.762 -0.366171 1.85623 0
M  V30 714 O 60.105 -1.26524 1.33182 0
M  V30 715 C 60.167 1.63208 3.20318 0
M  V30 716 C 59.831 3.11922 3.33997 0
M  V30 717 C 60.828 4.09259 3.2063 0
M  V30 718 C 58.513 3.51552 3.58771 0
M  V30 719 C 60.507 5.4421 3.31835 0
M  V30 720 C 58.194 4.86649 3.69616 0
M  V30 721 C 59.192 5.82787 3.56157 0
M  V30 722 O 58.88 7.15431 3.66626 0
M  V30 723 H 58.612 0.380713 0.5586 0
M  V30 724 H 61.166 1.63321 1.2456 0
M  V30 725 H 59.396 1.0286 3.72769 0
M  V30 726 H 61.085 1.44216 3.79416 0
M  V30 727 H 61.851 3.79984 3.01392 0
M  V30 728 H 57.73 2.77239 3.6832 0
M  V30 729 H 61.274 6.1923 3.21247 0
M  V30 730 H 57.171 5.15601 3.88363 0
M  V30 731 H 57.939 7.23127 3.83445 0
M  V30 732 N 60.6021 -1.18246 1.0419 0
M  V30 733 C 61.5491 -2.2192 0.634037 0
M  V30 734 C 62.5191 -1.62179 -0.358765 0
M  V30 735 O 63.7041 -1.89122 -0.252466 0
M  V30 736 C 60.8441 -3.451 0.00445535 0
M  V30 737 C 59.9571 -4.19174 1.04487 0
M  V30 738 C 59.0921 -5.29813 0.383676 0
M  V30 739 C 58.1311 -5.9566 1.4091 0
M  V30 740 N 57.2681 -6.97834 0.772784 0
M  V30 741 H 62.1081 -2.56164 1.52263 0
M  V30 742 H 59.6451 -1.25843 0.761701 0
M  V30 743 H 61.6031 -4.15485 -0.377919 0
M  V30 744 H 60.2331 -3.11472 -0.847652 0
M  V30 745 H 59.2851 -3.47604 1.54518 0
M  V30 746 H 60.5971 -4.64267 1.82368 0
M  V30 747 H 59.7511 -6.06677 -0.0528366 0
M  V30 748 H 58.4901 -4.85825 -0.427208 0
M  V30 749 H 57.4951 -5.17535 1.85574 0
M  V30 750 H 58.7201 -6.4173 2.22171 0
M  V30 751 H 56.6661 -6.55998 -0.0177708 0
M  V30 752 H 56.5831 -7.41186 1.48928 0
M  V30 753 H 57.8511 -7.78665 0.36071 0
M  V30 754 N 62.0802 -0.821533 -1.34494 0
M  V30 755 C 63.0272 -0.240397 -2.29545 0
M  V30 756 C 63.9972 0.634031 -1.53523 0
M  V30 757 O 65.1822 0.575966 -1.81899 0
M  V30 758 C 62.3222 0.592869 -3.39969 0
M  V30 759 C 61.4352 -0.30365 -4.30932 0
M  V30 760 C 60.5702 0.539049 -5.28458 0
M  V30 761 C 59.6092 -0.356942 -6.11058 0
M  V30 762 N 58.7462 0.446603 -7.00678 0
M  V30 763 H 63.5862 -1.05632 -2.7865 0
M  V30 764 H 61.1232 -0.532413 -1.37127 0
M  V30 765 H 63.0812 1.09129 -4.02675 0
M  V30 766 H 61.7112 1.37392 -2.92102 0
M  V30 767 H 60.7632 -0.920276 -3.691 0
M  V30 768 H 62.0752 -0.992661 -4.88823 0
M  V30 769 H 61.2292 1.102 -5.96608 0
M  V30 770 H 59.9682 1.26157 -4.71101 0
M  V30 771 H 58.9732 -0.932047 -5.41842 0
M  V30 772 H 60.1982 -1.07755 -6.70497 0
M  V30 773 H 58.1442 1.15282 -6.45791 0
M  V30 774 H 58.0612 -0.184048 -7.55776 0
M  V30 775 H 59.3292 0.992352 -7.73158 0
M  V30 776 N 63.5583 1.46682 -0.576371 0
M  V30 777 C 64.5063 2.31953 0.17335 0
M  V30 778 C 65.5003 1.44098 0.89062 0
M  V30 779 O 66.7063 1.60759 0.809728 0
M  V30 780 H 63.0813 0.748273 0.0747727 0
M  V30 781 H 65.0523 2.93007 -0.564738 0
M  V30 782 C 63.8013 3.27142 1.17786 0
M  V30 783 H 63.1243 3.94719 0.635361 0
M  V30 784 H 64.5643 3.896 1.67296 0
M  V30 785 C 63.0233 2.52036 2.23561 0
M  V30 786 O 63.5533 2.27877 3.3081 0
M  V30 787 N 61.7593 2.12709 1.97998 0
M  V30 788 H 61.3063 2.32557 1.10792 0
M  V30 789 H 61.2643 1.62776 2.68982 0
M  V30 790 N 65.0364 0.313813 1.54444 0
M  V30 791 C 65.9664 -0.549454 2.26943 0
M  V30 792 C 66.9474 -1.12741 1.27372 0
M  V30 793 O 68.1324 -1.15436 1.56167 0
M  V30 794 C 65.2624 -1.71523 3.01989 0
M  V30 795 C 64.2164 -1.26703 4.08816 0
M  V30 796 C 63.5424 -2.51898 4.71647 0
M  V30 797 C 64.8424 -0.388962 5.2085 0
M  V30 798 H 66.5364 0.0552661 2.99349 0
M  V30 799 H 64.0824 0.0280207 1.43973 0
M  V30 800 H 66.0354 -2.32535 3.51433 0
M  V30 801 H 64.7594 -2.34639 2.27183 0
M  V30 802 H 63.4184 -0.679896 3.6024 0
M  V30 803 H 63.0664 -3.13356 3.93468 0
M  V30 804 H 62.7664 -2.22605 5.43802 0
M  V30 805 H 64.2904 -3.1369 5.23861 0
M  V30 806 H 65.7044 -0.905107 5.6611 0
M  V30 807 H 64.1014 -0.18924 5.99802 0
M  V30 808 H 65.1714 0.582699 4.81386 0
M  V30 809 N 66.5145 -1.57545 0.0417849 0
M  V30 810 C 67.7915 -1.83642 -0.673433 0
M  V30 811 C 68.1715 -0.928298 -1.89594 0
M  V30 812 O 67.5195 0.0129955 -2.28496 0
M  V30 813 C 67.7295 -3.33155 -1.03964 0
M  V30 814 C 69.0775 -3.99941 -1.42592 0
M  V30 815 O 70.1015 -3.37725 -1.13226 0
M  V30 816 O 68.9605 -5.09619 -1.9736 0
M  V30 817 H 66.0545 -0.757638 -0.331533 0
M  V30 818 H 68.6005 -1.69554 0.070433 0
M  V30 819 H 67.3725 -3.9093 -0.170098 0
M  V30 820 H 66.9955 -3.52396 -1.84126 0
M  V30 821 N 67.9926 0.231505 -1.5589 0
M  V30 822 C 69.2386 0.95877 -1.78705 0
M  V30 823 C 69.5716 1.8438 -0.609725 0
M  V30 824 O 68.8466 1.90521 0.391426 0
M  V30 825 C 69.1296 1.8062 -3.11526 0
M  V30 826 C 68.9826 0.948328 -4.39689 0
M  V30 827 C 70.3016 2.78585 -3.40703 0
M  V30 828 H 67.4206 0.347129 -0.650131 0
M  V30 829 H 70.0626 0.228259 -1.88624 0
M  V30 830 H 68.2126 2.42902 -3.03201 0
M  V30 831 H 69.8846 0.343016 -4.60023 0
M  V30 832 H 68.1276 0.253314 -4.3306 0
M  V30 833 H 68.7986 1.57543 -5.29041 0
M  V30 834 H 71.2746 2.26439 -3.49091 0
M  V30 835 H 70.1506 3.34988 -4.34826 0
M  V30 836 H 70.4116 3.55825 -2.62375 0
M  V30 837 N 69.4707 1.49531 0.497807 0
M  V30 838 C 70.6987 1.62893 1.27567 0
M  V30 839 C 71.1137 0.301585 1.86376 0
M  V30 840 O 70.4707 -0.713335 1.67982 0
M  V30 841 C 70.5217 2.70013 2.40364 0
M  V30 842 O 70.2427 3.976 1.83972 0
M  V30 843 C 71.7437 2.94109 3.31685 0
M  V30 844 H 68.9637 0.548298 0.386794 0
M  V30 845 H 71.5077 1.95584 0.597245 0
M  V30 846 H 69.6627 2.40092 3.04031 0
M  V30 847 H 70.0767 4.56631 2.58047 0
M  V30 848 H 71.5507 3.72788 4.07104 0
M  V30 849 H 72.0277 2.04147 3.88871 0
M  V30 850 H 72.6337 3.2546 2.73781 0
M  V30 851 N 70.9488 -0.749086 1.3866 0
M  V30 852 C 71.8958 -1.86291 1.36251 0
M  V30 853 C 72.8658 -1.64578 0.224347 0
M  V30 854 O 74.0508 -1.86181 0.417279 0
M  V30 855 C 71.1908 -3.23644 1.19786 0
M  V30 856 C 70.3038 -3.57158 2.43027 0
M  V30 857 C 69.4388 -4.83838 2.19258 0
M  V30 858 C 68.4778 -5.10152 3.38247 0
M  V30 859 N 67.6148 -6.28029 3.13884 0
M  V30 860 H 72.4548 -1.87685 2.3147 0
M  V30 861 H 69.9918 -0.917287 1.14997 0
M  V30 862 H 71.9498 -4.0291 1.08254 0
M  V30 863 H 70.5798 -3.21566 0.282031 0
M  V30 864 H 69.6318 -2.72701 2.65214 0
M  V30 865 H 70.9438 -3.7253 3.31697 0
M  V30 866 H 70.0978 -5.71057 2.04888 0
M  V30 867 H 68.8368 -4.70614 1.2796 0
M  V30 868 H 67.8418 -4.21401 3.53131 0
M  V30 869 H 69.0668 -5.25271 4.30427 0
M  V30 870 H 67.0128 -6.1612 2.25238 0
M  V30 871 H 66.9298 -6.43922 3.96106 0
M  V30 872 H 68.1978 -7.18124 3.03179 0
M  V30 873 N 72.4269 -1.23603 -0.977757 0
M  V30 874 C 73.6759 -1.06377 -1.71368 0
M  V30 875 C 73.9889 0.399062 -1.91486 0
M  V30 876 O 75.1949 0.691312 -2.62551 0
M  V30 877 C 73.6509 -1.85512 -3.08404 0
M  V30 878 C 73.2589 -3.36141 -2.96164 0
M  V30 879 C 75.0029 -1.76783 -3.85938 0
M  V30 880 C 72.9099 -4.07659 -4.28449 0
M  V30 881 H 71.8399 -0.394452 -0.642591 0
M  V30 882 H 74.4909 -1.47594 -1.09034 0
M  V30 883 H 72.8729 -1.37103 -3.71509 0
M  V30 884 H 74.0469 -3.92056 -2.42133 0
M  V30 885 H 72.3619 -3.45712 -2.32104 0
M  V30 886 H 74.9589 -2.27526 -4.83876 0
M  V30 887 H 75.3019 -0.731116 -4.0983 0
M  V30 888 H 75.8349 -2.22818 -3.2954 0
M  V30 889 H 72.5739 -5.11648 -4.09752 0
M  V30 890 H 72.0939 -3.5653 -4.82334 0
M  V30 891 H 73.7729 -4.141 -4.97122 0
M  V30 892 N 73.905 1.17692 -1.04816 0
M  V30 893 C 75.321 1.39863 -0.768794 0
M  V30 894 C 75.521 1.91118 0.638451 0
M  V30 895 O 74.577 2.10036 1.40146 0
M  V30 896 C 75.89 2.39274 -1.82122 0
M  V30 897 C 77.438 2.52987 -1.843 0
M  V30 898 C 77.913 3.55669 -2.88555 0
M  V30 899 N 79.404 3.63183 -2.87493 0
M  V30 900 C 80.139 4.42381 -3.64811 0
M  V30 901 N 79.635 5.25125 -4.51903 0
M  V30 902 N 81.428 4.37217 -3.53267 0
M  V30 903 H 73.579 0.82752 -1.95617 0
M  V30 904 H 75.842 0.426123 -0.846831 0
M  V30 905 H 75.548 2.08678 -2.83102 0
M  V30 906 H 75.422 3.38725 -1.65967 0
M  V30 907 H 77.809 2.82896 -0.839869 0
M  V30 908 H 77.89 1.53623 -2.04532 0
M  V30 909 H 77.534 3.26499 -3.89051 0
M  V30 910 H 77.464 4.54728 -2.65575 0
M  V30 911 H 79.955 3.04103 -2.24343 0
M  V30 912 H 80.268 5.82728 -5.07591 0
M  V30 913 H 78.613 5.24519 -4.55966 0
M  V30 914 H 81.804 3.71626 -2.84625 0
M  V30 915 H 81.977 4.98696 -4.13771 0
M  V30 916 N 75.3831 0.828654 1.34056 0
M  V30 917 C 76.3301 0.252567 2.29414 0
M  V30 918 C 77.3001 -0.62588 1.53857 0
M  V30 919 O 78.4851 -0.566312 1.82202 0
M  V30 920 C 75.6251 -0.574831 3.40279 0
M  V30 921 C 74.7381 0.326499 4.30764 0
M  V30 922 C 73.8731 -0.511016 5.28736 0
M  V30 923 C 72.9121 0.389342 6.1086 0
M  V30 924 N 72.0491 -0.409439 7.00905 0
M  V30 925 H 76.8891 1.07108 2.78086 0
M  V30 926 H 74.4261 0.539677 1.36843 0
M  V30 927 H 76.3841 -1.06992 4.03248 0
M  V30 928 H 75.0141 -1.35841 2.92826 0
M  V30 929 H 74.0661 0.939837 3.68607 0
M  V30 930 H 75.3781 1.01857 4.88289 0
M  V30 931 H 74.5321 -1.07035 5.97184 0
M  V30 932 H 73.2711 -1.23657 4.71763 0
M  V30 933 H 72.2761 0.960769 5.4134 0
M  V30 934 H 73.5011 1.1131 6.69916 0
M  V30 935 H 71.4471 -1.11856 6.46393 0
M  V30 936 H 71.3641 0.224126 7.55668 0
M  V30 937 H 72.6321 -0.951336 7.73673 0
M  V30 938 N 76.8612 -1.46375 0.584142 0
M  V30 939 C 78.1092 -2.01978 0.0701287 0
M  V30 940 C 78.4302 -1.4579 -1.295 0
M  V30 941 O 77.7002 -0.64314 -1.85042 0
M  V30 942 H 76.2802 -0.746648 0.0229345 0
M  V30 943 H 78.9422 -1.79461 0.760245 0
M  V30 944 H 78.0382 -3.121 0.0022064 0
M  V30 945 N 78.3393 -0.321999 -1.54275 0
M  V30 946 C 79.2863 0.544664 -2.24281 0
M  V30 947 C 80.2563 1.1129 -1.23303 0
M  V30 948 O 81.4413 1.15354 -1.51981 0
M  V30 949 C 78.5813 1.70045 -3.00298 0
M  V30 950 C 77.6943 1.16159 -4.1609 0
M  V30 951 C 76.8293 2.28293 -4.79641 0
M  V30 952 C 75.8683 1.71648 -5.8754 0
M  V30 953 N 75.0053 2.77438 -6.44959 0
M  V30 954 H 79.8453 -0.0588907 -2.97942 0
M  V30 955 H 77.3823 -0.0408345 -1.47043 0
M  V30 956 H 79.3403 2.38054 -3.42616 0
M  V30 957 H 77.9703 2.27531 -2.28975 0
M  V30 958 H 77.0223 0.373092 -3.78566 0
M  V30 959 H 78.3343 0.707087 -4.93763 0
M  V30 960 H 77.4883 3.0421 -5.2492 0
M  V30 961 H 76.2273 2.77079 -4.01346 0
M  V30 962 H 75.2323 0.942282 -5.41665 0
M  V30 963 H 76.4573 1.23741 -6.67731 0
M  V30 964 H 74.4033 3.25519 -5.69538 0
M  V30 965 H 74.3203 2.36547 -7.1804 0
M  V30 966 H 75.5883 3.53189 -6.94894 0
M  V30 967 N 79.8174 1.5752 -0.0501392 0
M  V30 968 C 81.2284 1.80271 0.485705 0
M  V30 969 C 81.5794 0.96228 1.70981 0
M  V30 970 O 80.7044 0.178578 2.15662 0
M  V30 971 C 81.2994 3.26957 0.887938 0
M  V30 972 C 79.8584 3.5063 1.36877 0
M  V30 973 C 79.0054 2.75165 0.343468 0
M  V30 974 H 81.9564 1.56281 -0.276028 0
M  V30 975 H 81.9774 3.37821 1.75093 0
M  V30 976 H 81.4894 3.881 -0.0031809 0
M  V30 977 H 79.5904 2.94766 2.27911 0
M  V30 978 H 79.7034 4.59343 1.36164 0
M  V30 979 H 78.0674 2.4127 0.816128 0
M  V30 980 H 78.8504 3.39034 -0.539548 0
M  V30 981 N 81.2955 -0.223234 1.56011 0
M  V30 982 C 82.2275 -1.30006 1.88762 0
M  V30 983 C 83.2405 -1.43129 0.775746 0
M  V30 984 O 84.4295 -1.44057 1.05403 0
M  V30 985 C 81.5295 -2.67589 2.07965 0
M  V30 986 C 80.7025 -2.76434 3.38973 0
M  V30 987 C 79.7615 -3.95019 3.47629 0
M  V30 988 O 78.7875 -3.83436 4.20672 0
M  V30 989 N 79.9895 -5.09249 2.78649 0
M  V30 990 H 82.7545 -1.02238 2.81722 0
M  V30 991 H 80.3155 -0.413278 1.56536 0
M  V30 992 H 82.3075 -3.45297 2.11073 0
M  V30 993 H 80.8775 -2.87964 1.21638 0
M  V30 994 H 80.0975 -1.85216 3.47978 0
M  V30 995 H 81.3855 -2.79313 4.25278 0
M  V30 996 H 80.7835 -5.21556 2.19081 0
M  V30 997 H 79.3405 -5.85007 2.8742 0
M  V30 998 N 82.7736 -1.49793 -0.48987 0
M  V30 999 C 83.7056 -1.63413 -1.60713 0
M  V30 1000 C 84.7186 -0.516329 -1.54395 0
M  V30 1001 O 85.9076 -0.788812 -1.60125 0
M  V30 1002 C 83.0076 -1.58516 -2.99543 0
M  V30 1003 C 82.1806 -2.86016 -3.30928 0
M  V30 1004 C 81.2396 -2.74018 -4.49222 0
M  V30 1005 O 80.2656 -3.47964 -4.50455 0
M  V30 1006 N 81.4676 -1.86309 -5.4979 0
M  V30 1007 H 84.2326 -2.59777 -1.49452 0
M  V30 1008 H 81.7936 -1.47022 -0.677955 0
M  V30 1009 H 83.7856 -1.48128 -3.76617 0
M  V30 1010 H 82.3556 -0.69965 -3.0467 0
M  V30 1011 H 81.5756 -3.10672 -2.42645 0
M  V30 1012 H 82.8636 -3.70521 -3.487 0
M  V30 1013 H 82.2616 -1.2551 -5.51601 0
M  V30 1014 H 80.8186 -1.81837 -6.25922 0
M  V30 1015 N 84.2517 0.741722 -1.39055 0
M  V30 1016 C 85.1817 1.869 -1.39966 0
M  V30 1017 C 86.1627 1.6804 -0.26392 0
M  V30 1018 O 87.3477 1.88458 -0.468755 0
M  V30 1019 C 84.4777 3.24572 -1.23574 0
M  V30 1020 C 83.4317 3.58056 -2.34477 0
M  V30 1021 C 82.7577 4.94593 -2.0318 0
M  V30 1022 C 84.0577 3.61716 -3.76774 0
M  V30 1023 H 85.7517 1.86395 -2.34302 0
M  V30 1024 H 83.2977 0.895361 -1.1278 0
M  V30 1025 H 85.2507 4.031 -1.22834 0
M  V30 1026 H 83.9747 3.25587 -0.257045 0
M  V30 1027 H 82.6337 2.81854 -2.34423 0
M  V30 1028 H 82.2817 4.92181 -1.03765 0
M  V30 1029 H 81.9817 5.17964 -2.77465 0
M  V30 1030 H 83.5057 5.75486 -2.04079 0
M  V30 1031 H 84.9197 4.30335 -3.78794 0
M  V30 1032 H 83.3167 3.96603 -4.50362 0
M  V30 1033 H 84.3867 2.61672 -4.08235 0
M  V30 1034 N 85.7298 1.2412 0.971189 0
M  V30 1035 C 86.6598 1.05508 2.08304 0
M  V30 1036 C 87.6408 -0.0308864 1.70072 0
M  V30 1037 O 88.8258 0.135521 1.93727 0
M  V30 1038 C 85.9558 0.655365 3.4106 0
M  V30 1039 C 84.9098 1.68971 3.93234 0
M  V30 1040 C 84.2358 1.14516 5.22293 0
M  V30 1041 C 85.5358 3.08487 4.21465 0
M  V30 1042 H 87.2298 1.98507 2.24132 0
M  V30 1043 H 84.7758 0.955821 1.07704 0
M  V30 1044 H 86.7288 0.51217 4.18276 0
M  V30 1045 H 85.4528 -0.31032 3.25122 0
M  V30 1046 H 84.1118 1.82106 3.18171 0
M  V30 1047 H 83.7598 0.170189 5.02712 0
M  V30 1048 H 83.4598 1.83635 5.58168 0
M  V30 1049 H 84.9838 1.01401 6.02121 0
M  V30 1050 H 86.3978 2.98601 4.89398 0
M  V30 1051 H 84.7948 3.74926 4.68562 0
M  V30 1052 H 85.8648 3.56787 3.28376 0
M  V30 1053 N 87.2079 -1.17134 1.05439 0
M  V30 1054 C 88.6239 -1.39454 0.776201 0
M  V30 1055 C 88.8239 -1.91454 -0.628307 0
M  V30 1056 O 87.8799 -2.10777 -1.39031 0
M  V30 1057 C 89.1929 -2.38305 1.83388 0
M  V30 1058 C 90.7409 -2.52006 1.85639 0
M  V30 1059 C 91.2159 -3.54133 2.90437 0
M  V30 1060 N 92.7069 -3.61653 2.89415 0
M  V30 1061 C 93.4419 -4.4044 3.67152 0
M  V30 1062 N 92.9379 -5.22721 4.54681 0
M  V30 1063 N 94.7309 -4.35337 3.55581 0
M  V30 1064 H 86.8819 -0.817134 1.96053 0
M  V30 1065 H 89.1449 -0.421626 0.849079 0
M  V30 1066 H 88.8509 -2.07173 2.84204 0
M  V30 1067 H 88.7249 -3.37841 1.67761 0
M  V30 1068 H 91.1119 -2.82447 0.85486 0
M  V30 1069 H 91.1929 -1.52537 2.05344 0
M  V30 1070 H 90.8369 -3.24431 3.90777 0
M  V30 1071 H 90.7669 -4.53313 2.67983 0
M  V30 1072 H 93.2579 -3.02909 2.25952 0
M  V30 1073 H 93.5709 -5.80027 5.10674 0
M  V30 1074 H 91.9159 -5.22093 4.58741 0
M  V30 1075 H 95.1069 -3.70112 2.86592 0
M  V30 1076 H 95.2799 -4.96494 4.1641 0
M  V30 1077 N 88.686 -0.835752 -1.33615 0
M  V30 1078 C 89.932 -0.430596 -1.98176 0
M  V30 1079 C 90.265 1.00684 -1.66061 0
M  V30 1080 O 89.54 1.70339 -0.938877 0
M  V30 1081 C 89.823 -0.648065 -3.5422 0
M  V30 1082 C 89.676 -2.13255 -3.96033 0
M  V30 1083 C 90.995 -0.0922113 -4.40003 0
M  V30 1084 H 88.114 -0.157924 -0.719881 0
M  V30 1085 H 90.756 -1.05069 -1.58305 0
M  V30 1086 H 88.906 -0.120237 -3.88314 0
M  V30 1087 H 90.578 -2.725 -3.72211 0
M  V30 1088 H 88.821 -2.61823 -3.45878 0
M  V30 1089 H 89.492 -2.23547 -5.04708 0
M  V30 1090 H 91.968 -0.543343 -4.12537 0
M  V30 1091 H 90.844 -0.274083 -5.48215 0
M  V30 1092 H 91.105 1.00378 -4.30554 0
M  V30 1093 N 90.1641 1.46063 -0.591896 0
M  V30 1094 C 91.4411 1.95595 -0.0137119 0
M  V30 1095 C 91.8211 1.5345 1.4497 0
M  V30 1096 O 91.1691 0.789543 2.14426 0
M  V30 1097 C 91.3791 3.48453 -0.195373 0
M  V30 1098 C 92.7271 4.24546 -0.0679765 0
M  V30 1099 O 93.7511 3.55982 -0.124681 0
M  V30 1100 O 92.6101 5.46467 0.0600579 0
M  V30 1101 H 89.7041 0.825795 0.0446279 0
M  V30 1102 H 92.2501 1.56303 -0.660859 0
M  V30 1103 H 91.0221 3.72045 -1.21235 0
M  V30 1104 H 90.6451 3.94597 0.487775 0
M  V30 1105 N 91.6422 0.330177 1.54103 0
M  V30 1106 C 92.5522 -0.541534 2.28264 0
M  V30 1107 C 93.5682 -1.12351 1.32866 0
M  V30 1108 O 94.7442 -1.14206 1.65888 0
M  V30 1109 C 91.8092 -1.68322 3.03098 0
M  V30 1110 C 90.8702 -1.13238 4.14096 0
M  V30 1111 C 90.1032 -2.21966 4.85352 0
M  V30 1112 O 90.3262 -3.42437 4.56172 0
M  V30 1113 O 89.2602 -1.87013 5.7211 0
M  V30 1114 H 93.0862 0.060938 3.03639 0
M  V30 1115 H 90.6712 0.09565 1.49093 0
M  V30 1116 H 92.5532 -2.34777 3.49939 0
M  V30 1117 H 91.2282 -2.27176 2.30593 0
M  V30 1118 H 90.1352 -0.432736 3.71589 0
M  V30 1119 H 91.4682 -0.588898 4.88664 0
M  V30 1120 N 93.1203 -1.57491 0.0584922 0
M  V30 1121 C 94.0703 -2.08474 -0.923188 0
M  V30 1122 C 95.0543 -0.991479 -1.26722 0
M  V30 1123 O 96.2463 -1.25473 -1.24842 0
M  V30 1124 C 93.3753 -2.6392 -2.19548 0
M  V30 1125 C 92.4613 -3.80227 -1.87852 0
M  V30 1126 N 92.8523 -4.89714 -1.26546 0
M  V30 1127 C 91.1503 -3.89271 -2.17679 0
M  V30 1128 C 91.8513 -5.70689 -1.12644 0
M  V30 1129 N 90.8273 -5.18531 -1.63176 0
M  V30 1130 H 94.6293 -2.90517 -0.444653 0
M  V30 1131 H 92.1433 -1.61745 -0.145764 0
M  V30 1132 H 94.1403 -2.98752 -2.9078 0
M  V30 1133 H 92.8003 -1.83318 -2.68001 0
M  V30 1134 H 93.8113 -5.09358 -0.936757 0
M  V30 1135 H 90.4883 -3.19623 -2.68602 0
M  V30 1136 H 91.8783 -6.6875 -0.6499 0
M  V30 1137 N 94.5984 0.214957 -1.56127 0
M  V30 1138 C 95.8754 0.963093 -1.70247 0
M  V30 1139 C 96.2554 2.02166 -0.60764 0
M  V30 1140 O 95.6034 2.25244 0.384385 0
M  V30 1141 C 95.8134 1.56756 -3.11815 0
M  V30 1142 C 97.1614 2.0573 -3.7143 0
M  V30 1143 O 98.1854 1.66637 -3.14818 0
M  V30 1144 O 97.0444 2.77603 -4.70743 0
M  V30 1145 H 94.1384 0.450321 -0.693643 0
M  V30 1146 H 96.6844 0.206219 -1.68442 0
M  V30 1147 H 95.4564 0.803533 -3.82961 0
M  V30 1148 H 95.0794 2.3898 -3.17765 0
M  V30 1149 N 96.0765 1.50051 0.48192 0
M  V30 1150 C 97.3235 1.60498 1.23477 0
M  V30 1151 C 97.6515 0.300331 1.92167 0
M  V30 1152 O 96.9065 -0.713094 1.82246 0
M  V30 1153 C 97.2055 2.72717 2.30998 0
M  V30 1154 C 96.8715 4.13572 1.79636 0
M  V30 1155 C 95.5335 4.519 1.65348 0
M  V30 1156 C 97.8855 5.01649 1.41412 0
M  V30 1157 C 95.2135 5.76057 1.11244 0
M  V30 1158 C 97.5655 6.26343 0.887538 0
M  V30 1159 C 96.2295 6.63483 0.731207 0
M  V30 1160 H 95.4995 0.587303 0.451836 0
M  V30 1161 H 98.1465 1.83948 0.532468 0
M  V30 1162 H 96.4515 2.43312 3.07094 0
M  V30 1163 H 98.1485 2.78006 2.88988 0
M  V30 1164 H 94.7385 3.83329 1.91721 0
M  V30 1165 H 98.9225 4.72679 1.51289 0
M  V30 1166 H 94.1785 6.03516 0.978686 0
M  V30 1167 H 98.3525 6.93958 0.582654 0
M  V30 1168 H 95.9795 7.59568 0.309806 0
M  V30 1169 N 97.5546 -0.734337 1.39446 0
M  V30 1170 C 98.7796 -1.52866 1.40167 0
M  V30 1171 C 99.2046 -1.881 -0.00171513 0
M  V30 1172 O 98.5626 -1.51957 -0.988879 0
M  V30 1173 C 98.6106 -2.79235 2.28167 0
M  V30 1174 O 97.7146 -3.75185 1.71201 0
M  V30 1175 H 97.0556 -0.461618 0.477289 0
M  V30 1176 H 99.5856 -0.905949 1.8345 0
M  V30 1177 H 99.5956 -3.27963 2.42702 0
M  V30 1178 H 98.2706 -2.52923 3.30156 0
M  V30 1179 H 96.8476 -3.33958 1.65912 0
M  V30 1180 N 99.0327 -1.24633 -0.964593 0
M  V30 1181 C 99.9657 -0.984662 -2.05863 0
M  V30 1182 C 100.944 0.0826554 -1.6239 0
M  V30 1183 O 102.128 -0.0549296 -1.8842 0
M  V30 1184 C 99.2547 -0.486529 -3.35187 0
M  V30 1185 C 98.3007 -1.54286 -3.97615 0
M  V30 1186 S 99.1337 -3.12513 -4.34851 0
M  V30 1187 C 100.29 -2.6441 -5.67308 0
M  V30 1188 H 100.523 -1.91104 -2.27743 0
M  V30 1189 H 98.0557 -1.08052 -1.10291 0
M  V30 1190 H 100.014 -0.205757 -4.09984 0
M  V30 1191 H 98.6747 0.419186 -3.1129 0
M  V30 1192 H 97.8677 -1.14481 -4.90826 0
M  V30 1193 H 97.4697 -1.7738 -3.2926 0
M  V30 1194 H 99.7617 -2.07416 -6.44969 0
M  V30 1195 H 100.705 -3.56222 -6.11973 0
M  V30 1196 H 101.113 -2.04734 -5.26065 0
M  V30 1197 N 100.511 1.16574 -1.06058 0
M  V30 1198 C 101.927 1.3904 -0.783585 0
M  V30 1199 C 102.127 1.91784 0.618145 0
M  V30 1200 O 101.183 2.11511 1.37911 0
M  V30 1201 C 102.496 2.37329 -1.84649 0
M  V30 1202 C 104.044 2.51018 -1.86973 0
M  V30 1203 C 104.519 3.52588 -2.92311 0
M  V30 1204 N 106.01 3.60113 -2.91329 0
M  V30 1205 C 106.745 4.38486 -3.69482 0
M  V30 1206 N 106.241 5.20302 -4.57447 0
M  V30 1207 N 108.034 4.33446 -3.57885 0
M  V30 1208 H 100.185 0.806725 -1.96483 0
M  V30 1209 H 102.448 0.417117 -0.851303 0
M  V30 1210 H 102.154 2.05663 -2.85299 0
M  V30 1211 H 102.028 3.36946 -1.6955 0
M  V30 1212 H 104.415 2.81989 -0.869827 0
M  V30 1213 H 104.496 1.51445 -2.0615 0
M  V30 1214 H 104.14 3.22354 -3.92492 0
M  V30 1215 H 104.07 4.51886 -2.70383 0
M  V30 1216 H 106.561 3.01707 -2.27555 0
M  V30 1217 H 106.874 5.77311 -5.13743 0
M  V30 1218 H 105.219 5.19653 -4.61503 0
M  V30 1219 H 108.41 3.68586 -2.88551 0
M  V30 1220 H 108.583 4.94279 -4.19037 0
M  V30 1221 N 101.989 0.842826 1.3317 0
M  V30 1222 C 103.4 0.496651 1.79973 0
M  V30 1223 C 103.751 -0.984641 1.69703 0
M  V30 1224 O 102.876 -1.76743 1.24863 0
M  V30 1225 C 103.471 0.894727 3.26772 0
M  V30 1226 C 102.03 0.600629 3.71577 0
M  V30 1227 C 101.177 1.10091 2.5451 0
M  V30 1228 H 104.128 1.03116 1.20635 0
M  V30 1229 H 104.149 0.206347 3.7994 0
M  V30 1230 H 103.661 1.97287 3.34215 0
M  V30 1231 H 101.762 -0.467284 3.69658 0
M  V30 1232 H 101.875 1.15863 4.64879 0
M  V30 1233 H 100.239 0.52162 2.49301 0
M  V30 1234 H 101.022 2.18591 2.64713 0
M  V30 1235 N 103.467 -1.45747 0.599634 0
M  V30 1236 C 104.43 -2.28917 -0.113835 0
M  V30 1237 C 105.43 -1.3933 -0.802729 0
M  V30 1238 O 106.62 -1.61534 -0.652103 0
M  V30 1239 C 103.752 -3.20152 -1.17114 0
M  V30 1240 H 104.945 -2.93478 0.617289 0
M  V30 1241 H 102.498 -1.52137 0.358327 0
M  V30 1242 H 103.233 -2.60374 -1.93329 0
M  V30 1243 H 103.018 -3.86133 -0.681468 0
M  V30 1244 H 104.508 -3.82708 -1.67105 0
M  V30 1245 N 104.945 -0.338344 -1.53925 0
M  V30 1246 C 106.192 0.259758 -2.00827 0
M  V30 1247 C 106.52 1.50973 -1.22628 0
M  V30 1248 O 105.775 1.93379 -0.300509 0
M  V30 1249 C 106.074 0.62448 -3.51902 0
M  V30 1250 C 105.74 -0.528006 -4.47798 0
M  V30 1251 C 104.402 -0.844298 -4.73735 0
M  V30 1252 C 106.754 -1.30143 -5.0469 0
M  V30 1253 C 104.082 -1.93648 -5.53821 0
M  V30 1254 C 106.434 -2.38382 -5.85967 0
M  V30 1255 C 105.098 -2.70576 -6.10201 0
M  V30 1256 H 104.368 0.0950523 -0.734878 0
M  V30 1257 H 107.015 -0.465182 -1.85764 0
M  V30 1258 H 105.32 1.43006 -3.64769 0
M  V30 1259 H 107.017 1.09905 -3.85645 0
M  V30 1260 H 103.607 -0.271421 -4.2774 0
M  V30 1261 H 107.791 -1.07033 -4.84621 0
M  V30 1262 H 103.047 -2.19021 -5.70824 0
M  V30 1263 H 107.221 -2.98746 -6.29066 0
M  V30 1264 H 104.848 -3.55333 -6.72044 0
M  V30 1265 N 106.423 1.57458 -0.0668435 0
M  V30 1266 C 107.671 1.92919 0.602214 0
M  V30 1267 C 107.992 0.947215 1.70449 0
M  V30 1268 O 107.262 -0.00544117 1.95899 0
M  V30 1269 H 105.842 0.71217 0.22544 0
M  V30 1270 H 108.504 1.94508 -0.123535 0
M  V30 1271 H 107.6 2.94589 1.03073 0
M  V30 1272 N 107.901 -0.206675 1.56239 0
M  V30 1273 C 109.149 -0.927007 1.79586 0
M  V30 1274 C 109.47 -1.8427 0.637929 0
M  V30 1275 O 108.74 -1.92849 -0.344398 0
M  V30 1276 H 107.32 -0.345292 0.662407 0
M  V30 1277 H 109.982 -0.21496 1.93711 0
M  V30 1278 H 109.078 -1.52501 2.72305 0
M  V30 1279 N 109.379 -1.50304 -0.473955 0
M  V30 1280 C 110.79 -1.54042 -1.0549 0
M  V30 1281 C 111.141 -0.342248 -1.93192 0
M  V30 1282 O 110.266 0.545157 -2.09421 0
M  V30 1283 C 110.861 -2.79152 -1.91989 0
M  V30 1284 C 109.42 -2.8558 -2.45196 0
M  V30 1285 C 108.567 -2.48295 -1.2347 0
M  V30 1286 H 111.518 -1.5661 -0.256693 0
M  V30 1287 H 111.539 -2.60845 -2.7702 0
M  V30 1288 H 111.051 -3.66339 -1.28131 0
M  V30 1289 H 109.152 -2.02738 -3.12615 0
M  V30 1290 H 109.265 -3.88403 -2.80499 0
M  V30 1291 H 107.629 -2.00669 -1.56856 0
M  V30 1292 H 108.412 -3.37787 -0.612789 0
M  V30 1293 N 110.857 0.726932 -1.39834 0
M  V30 1294 C 111.82 1.82269 -1.38962 0
M  V30 1295 C 112.82 1.58248 -0.285334 0
M  V30 1296 O 114.01 1.65499 -0.54366 0
M  V30 1297 C 111.142 3.20186 -1.17019 0
M  V30 1298 H 112.335 1.84443 -2.36476 0
M  V30 1299 H 109.888 0.931416 -1.25516 0
M  V30 1300 H 110.623 3.23669 -0.202204 0
M  V30 1301 H 110.408 3.3902 -1.96998 0
M  V30 1302 H 111.898 4.00235 -1.1917 0
M  V30 1303 N 112.336 1.25143 0.95797 0
M  V30 1304 C 113.585 1.0909 1.69654 0
M  V30 1305 C 113.898 -0.368548 1.92097 0
M  V30 1306 O 115.104 -0.649455 2.63618 0
M  V30 1307 C 113.56 1.90395 3.05414 0
M  V30 1308 C 113.168 3.4081 2.90779 0
M  V30 1309 C 114.912 1.82901 3.83076 0
M  V30 1310 C 112.819 4.14423 4.21909 0
M  V30 1311 H 111.749 0.404625 0.636235 0
M  V30 1312 H 114.4 1.4931 1.06672 0
M  V30 1313 H 112.782 1.42996 3.69281 0
M  V30 1314 H 113.956 3.95859 2.35865 0
M  V30 1315 H 112.271 3.49361 2.26575 0
M  V30 1316 H 114.868 2.35196 4.80195 0
M  V30 1317 H 115.211 0.796224 4.08615 0
M  V30 1318 H 115.744 2.28033 3.25954 0
M  V30 1319 H 112.483 5.18102 4.01561 0
M  V30 1320 H 112.003 3.64159 4.76601 0
M  V30 1321 H 113.682 4.21956 4.90471 0
M  V30 1322 N 113.814 -1.1601 1.06675 0
M  V30 1323 C 115.225 -1.68235 0.809565 0
M  V30 1324 C 115.576 -1.8454 -0.666303 0
M  V30 1325 O 114.701 -1.54374 -1.5165 0
M  V30 1326 C 115.296 -3.05585 1.46299 0
M  V30 1327 C 113.855 -3.54915 1.25349 0
M  V30 1328 C 113.002 -2.30804 1.53703 0
M  V30 1329 H 115.953 -1.00318 1.22971 0
M  V30 1330 H 115.974 -3.70174 0.880431 0
M  V30 1331 H 115.486 -2.93686 2.53713 0
M  V30 1332 H 113.587 -3.72067 0.199261 0
M  V30 1333 H 113.7 -4.36774 1.9689 0
M  V30 1334 H 112.064 -2.36007 0.957739 0
M  V30 1335 H 112.847 -2.21499 2.62284 0
M  V30 1336 N 115.292 -0.849877 -1.32721 0
M  V30 1337 C 116.538 -0.451591 -1.97708 0
M  V30 1338 C 116.871 0.989175 -1.6712 0
M  V30 1339 O 116.146 1.69334 -0.956891 0
M  V30 1340 C 116.429 -0.685598 -3.53513 0
M  V30 1341 C 116.282 -2.17444 -3.93749 0
M  V30 1342 C 117.601 -0.138874 -4.39881 0
M  V30 1343 H 114.72 -0.16555 -0.718166 0
M  V30 1344 H 117.362 -1.06742 -1.57182 0
M  V30 1345 H 115.512 -0.161416 -3.88165 0
M  V30 1346 H 117.184 -2.76433 -3.693 0
M  V30 1347 H 115.427 -2.65476 -3.43081 0
M  V30 1348 H 116.098 -2.28888 -5.02309 0
M  V30 1349 H 118.574 -0.587068 -4.11938 0
M  V30 1350 H 117.45 -0.332213 -5.47894 0
M  V30 1351 H 117.711 0.95806 -4.31594 0
M  V30 1352 N 116.77 1.45427 -0.607355 0
M  V30 1353 C 118.018 2.01841 -0.102253 0
M  V30 1354 C 118.339 1.47832 1.27164 0
M  V30 1355 O 117.609 0.672497 1.83995 0
M  V30 1356 H 116.189 0.746188 -0.0348101 0
M  V30 1357 H 118.851 1.78229 -0.7887 0
M  V30 1358 H 117.947 3.12057 -0.0518585 0
M  V30 1359 N 118.248 0.346503 1.53744 0
M  V30 1360 C 119.494 -0.249473 2.0126 0
M  V30 1361 C 119.827 -1.49965 1.23386 0
M  V30 1362 O 119.102 -1.91811 0.32229 0
M  V30 1363 C 119.385 -0.560643 3.55709 0
M  V30 1364 C 119.238 0.701836 4.44291 0
M  V30 1365 C 120.557 -1.36905 4.18264 0
M  V30 1366 H 117.676 -0.0891987 0.731582 0
M  V30 1367 H 120.318 0.467624 1.84156 0
M  V30 1368 H 118.468 -1.17156 3.70414 0
M  V30 1369 H 120.14 1.33974 4.41417 0
M  V30 1370 H 118.383 1.32612 4.13033 0
M  V30 1371 H 119.054 0.43933 5.50249 0
M  V30 1372 H 121.53 -0.852448 4.07275 0
M  V30 1373 H 120.406 -1.55553 5.26398 0
M  V30 1374 H 120.667 -2.37203 3.73078 0
M  V30 1375 N 119.726 -1.57421 0.075193 0
M  V30 1376 C 121.003 -1.85029 -0.634329 0
M  V30 1377 C 121.383 -0.968305 -1.87582 0
M  V30 1378 O 120.731 -0.0354749 -2.28472 0
M  V30 1379 C 120.941 -3.35286 -0.968742 0
M  V30 1380 C 122.289 -4.02875 -1.34077 0
M  V30 1381 O 123.313 -3.40051 -1.06037 0
M  V30 1382 O 122.172 -5.13691 -1.86506 0
M  V30 1383 H 119.266 -0.7645 -0.315387 0
M  V30 1384 H 121.812 -1.69366 0.106382 0
M  V30 1385 H 120.584 -3.91203 -0.0871376 0
M  V30 1386 H 120.207 -3.56223 -1.7661 0
M  V30 1387 N 121.204 0.198386 -1.56346 0
M  V30 1388 C 122.45 0.920648 -1.80698 0
M  V30 1389 C 122.783 1.83045 -0.648697 0
M  V30 1390 O 122.058 1.91308 0.350925 0
M  V30 1391 C 122.341 1.73971 -3.15287 0
M  V30 1392 C 122.194 0.85485 -4.41602 0
M  V30 1393 C 123.513 2.71296 -3.46535 0
M  V30 1394 H 120.632 0.333261 -0.657348 0
M  V30 1395 H 123.274 0.188198 -1.89066 0
M  V30 1396 H 121.424 2.36416 -3.08285 0
M  V30 1397 H 123.096 0.245362 -4.60647 0
M  V30 1398 H 121.339 0.161398 -4.335 0
M  V30 1399 H 122.01 1.46286 -5.32264 0
M  V30 1400 H 124.486 2.18983 -3.53816 0
M  V30 1401 H 123.362 3.2569 -4.41834 0
M  V30 1402 H 123.623 3.5018 -2.69864 0
M  V30 1403 N 122.682 1.50554 0.465978 0
M  V30 1404 C 123.614 1.65949 1.58093 0
M  V30 1405 C 124.627 0.540827 1.53554 0
M  V30 1406 O 125.816 0.814187 1.5885 0
M  V30 1407 C 122.916 1.63261 2.96983 0
M  V30 1408 C 122.089 2.91245 3.26336 0
M  V30 1409 C 121.148 2.8113 4.44806 0
M  V30 1410 O 120.174 3.55086 4.44862 0
M  V30 1411 N 121.376 1.95032 5.46756 0
M  V30 1412 H 124.141 2.62122 1.45301 0
M  V30 1413 H 121.702 1.48082 0.65448 0
M  V30 1414 H 123.694 1.54101 3.74212 0
M  V30 1415 H 122.264 0.748032 3.03518 0
M  V30 1416 H 121.484 3.14493 2.37672 0
M  V30 1417 H 122.772 3.76022 3.42761 0
M  V30 1418 H 122.17 1.3427 5.49534 0
M  V30 1419 H 120.727 1.91772 6.2295 0
M  V30 1420 N 124.16 -0.719506 1.40217 0
M  V30 1421 C 125.406 -1.48152 1.38488 0
M  V30 1422 C 125.739 -1.94195 -0.0141867 0
M  V30 1423 O 125.014 -1.67884 -0.982096 0
M  V30 1424 C 125.297 -2.71035 2.37091 0
M  V30 1425 C 125.15 -2.30912 3.86005 0
M  V30 1426 C 126.469 -3.73182 2.33288 0
M  V30 1427 H 123.588 -0.537395 0.504357 0
M  V30 1428 H 126.23 -0.821472 1.71324 0
M  V30 1429 H 124.38 -3.27352 2.0922 0
M  V30 1430 H 126.052 -1.80107 4.24687 0
M  V30 1431 H 124.295 -1.62958 4.02029 0
M  V30 1432 H 124.966 -3.18978 4.50508 0
M  V30 1433 H 127.442 -3.26485 2.57966 0
M  V30 1434 H 126.318 -4.56806 3.04334 0
M  V30 1435 H 126.579 -4.21202 1.34317 0
M  V30 1436 N 125.638 -1.25649 -0.95132 0
M  V30 1437 C 126.548 -1.08073 -2.08224 0
M  V30 1438 C 127.564 -0.0169666 -1.73992 0
M  V30 1439 O 128.74 -0.218593 -2.0021 0
M  V30 1440 C 125.805 -0.704922 -3.39458 0
M  V30 1441 C 124.866 -1.84699 -3.87537 0
M  V30 1442 C 124.099 -1.48902 -5.12508 0
M  V30 1443 O 124.322 -0.386156 -5.69091 0
M  V30 1444 O 123.256 -2.32033 -5.55378 0
M  V30 1445 H 127.082 -2.02924 -2.25954 0
M  V30 1446 H 124.667 -1.04618 -1.06656 0
M  V30 1447 H 126.549 -0.507609 -4.18332 0
M  V30 1448 H 125.224 0.214291 -3.2299 0
M  V30 1449 H 124.131 -2.09919 -3.09653 0
M  V30 1450 H 125.464 -2.74557 -4.08509 0
M  V30 1451 N 127.117 1.15442 -1.07289 0
M  V30 1452 C 128.342 1.90638 -0.816828 0
M  V30 1453 C 128.767 1.77445 0.624083 0
M  V30 1454 O 128.125 1.10671 1.43602 0
M  V30 1455 C 128.173 3.39008 -1.22906 0
M  V30 1456 O 127.277 4.10701 -0.373975 0
M  V30 1457 H 126.618 0.593555 -0.297638 0
M  V30 1458 H 129.148 1.46198 -1.43134 0
M  V30 1459 H 129.158 3.89801 -1.20497 0
M  V30 1460 H 127.833 3.47929 -2.27856 0
M  V30 1461 H 126.41 3.70046 -0.460499 0
M  V30 1462 N 128.595 0.856903 1.32268 0
M  V30 1463 C 129.525 0.31858 2.31316 0
M  V30 1464 C 130.506 -0.583487 1.59779 0
M  V30 1465 O 131.691 -0.503259 1.87566 0
M  V30 1466 C 128.821 -0.491979 3.43798 0
M  V30 1467 C 127.775 0.315849 4.26833 0
M  V30 1468 C 127.101 -0.619586 5.31098 0
M  V30 1469 C 128.401 1.54282 4.98993 0
M  V30 1470 H 130.095 1.14621 2.76591 0
M  V30 1471 H 127.641 0.552613 1.32974 0
M  V30 1472 H 129.594 -0.879012 4.1213 0
M  V30 1473 H 128.318 -1.35299 2.97257 0
M  V30 1474 H 126.977 0.684664 3.6015 0
M  V30 1475 H 126.625 -1.47751 4.8081 0
M  V30 1476 H 126.325 -0.0830621 5.87541 0
M  V30 1477 H 127.849 -1.00375 6.02293 0
M  V30 1478 H 129.263 1.22796 5.59995 0
M  V30 1479 H 127.66 2.01745 5.65172 0
M  V30 1480 H 128.73 2.30285 4.26728 0
M  V30 1481 N 130.073 -1.45103 0.615059 0
M  V30 1482 C 131.35 -1.95549 0.0448276 0
M  V30 1483 C 131.73 -1.55737 -1.4251 0
M  V30 1484 O 131.078 -0.823556 -2.13143 0
M  V30 1485 C 131.288 -3.48098 0.250785 0
M  V30 1486 C 132.636 -4.24384 0.135509 0
M  V30 1487 O 133.66 -3.55738 0.181299 0
M  V30 1488 O 132.519 -5.46493 0.0268878 0
M  V30 1489 H 129.613 -0.8264 -0.0314845 0
M  V30 1490 H 132.159 -1.55232 0.685642 0
M  V30 1491 H 130.931 -3.7007 1.27139 0
M  V30 1492 H 130.554 -3.95323 -0.424937 0
M  V30 1493 N 131.551 -0.354651 -1.53558 0
M  V30 1494 C 132.776 0.242153 -2.05981 0
M  V30 1495 C 133.201 1.42553 -1.2272 0
M  V30 1496 O 132.559 1.79656 -0.243604 0
M  V30 1497 C 132.607 0.624367 -3.55154 0
M  V30 1498 O 131.711 1.72301 -3.74681 0
M  V30 1499 H 131.052 0.0378432 -0.662921 0
M  V30 1500 H 133.582 -0.512087 -1.98088 0
M  V30 1501 H 133.592 0.898433 -3.97985 0
M  V30 1502 H 132.267 -0.240989 -4.15201 0
M  V30 1503 H 130.844 1.44535 -3.4375 0
M  V30 1504 N 133.029 1.57378 -0.0835403 0
M  V30 1505 C 134.278 1.93106 0.582498 0
M  V30 1506 C 134.591 0.96651 1.70053 0
M  V30 1507 O 135.797 1.21705 2.42693 0
M  V30 1508 C 134.253 3.43076 1.08751 0
M  V30 1509 C 133.861 4.48 -0.000146404 0
M  V30 1510 C 135.605 3.87785 1.72694 0
M  V30 1511 C 133.512 5.89113 0.519568 0
M  V30 1512 H 132.442 0.720775 0.221358 0
M  V30 1513 H 135.093 1.82821 -0.157675 0
M  V30 1514 H 133.475 3.48474 1.88101 0
M  V30 1515 H 134.649 4.54233 -0.775199 0
M  V30 1516 H 132.964 4.1283 -0.54406 0
M  V30 1517 H 135.561 4.90604 2.1263 0
M  V30 1518 H 135.904 3.25796 2.59158 0
M  V30 1519 H 136.437 3.8504 0.999457 0
M  V30 1520 H 133.176 6.54775 -0.308186 0
M  V30 1521 H 132.696 5.86376 1.26188 0
M  V30 1522 H 134.375 6.39346 0.992237 0
M  V30 1523 N 134.507 -0.190092 1.56449 0
M  V30 1524 C 135.732 -0.929864 1.85387 0
M  V30 1525 C 136.157 -1.7585 0.667704 0
M  V30 1526 O 135.515 -1.77198 -0.383459 0
M  V30 1527 C 135.563 -1.79773 3.12593 0
M  V30 1528 O 134.667 -2.89713 2.93496 0
M  V30 1529 H 134.008 -0.261574 0.610307 0
M  V30 1530 H 136.538 -0.193896 2.03679 0
M  V30 1531 H 136.548 -2.20139 3.43515 0
M  V30 1532 H 135.223 -1.18892 3.98544 0
M  V30 1533 H 133.8 -2.53065 2.73884 0
M  V30 1534 N 135.985 -1.50799 -0.457987 0
M  V30 1535 C 136.895 -1.73426 -1.57989 0
M  V30 1536 C 137.911 -0.617745 -1.62665 0
M  V30 1537 O 139.087 -0.897614 -1.80291 0
M  V30 1538 C 136.152 -1.83557 -2.94122 0
M  V30 1539 C 135.213 -3.07345 -2.99729 0
M  V30 1540 C 134.446 -3.16983 -4.29368 0
M  V30 1541 O 134.669 -2.33077 -5.20607 0
M  V30 1542 O 133.603 -4.09812 -4.40837 0
M  V30 1543 H 137.429 -2.68555 -1.41817 0
M  V30 1544 H 135.014 -1.35052 -0.638859 0
M  V30 1545 H 136.896 -1.92326 -3.74952 0
M  V30 1546 H 135.571 -0.916137 -3.10465 0
M  V30 1547 H 134.478 -3.04068 -2.1793 0
M  V30 1548 H 135.811 -3.9891 -2.88326 0
M  V30 1549 N 137.463 0.71206 -1.40597 0
M  V30 1550 C 138.709 1.47416 -1.39271 0
M  V30 1551 C 139.042 1.942 0.00388791 0
M  V30 1552 O 138.317 1.68403 0.973179 0
M  V30 1553 C 138.6 2.69774 -2.38525 0
M  V30 1554 C 138.453 2.28861 -3.87224 0
M  V30 1555 C 139.772 3.71939 -2.35264 0
M  V30 1556 H 136.891 0.534713 -0.5072 0
M  V30 1557 H 139.533 0.812375 -1.71757 0
M  V30 1558 H 137.683 3.26238 -2.10953 0
M  V30 1559 H 139.355 1.77852 -4.25636 0
M  V30 1560 H 137.598 1.60824 -4.02887 0
M  V30 1561 H 138.269 3.16584 -4.52193 0
M  V30 1562 H 140.745 3.25113 -2.59694 0
M  V30 1563 H 139.621 4.55186 -3.06753 0
M  V30 1564 H 139.882 4.20484 -1.36549 0
M  V30 1565 N 138.941 1.26152 0.944643 0
M  V30 1566 C 140.218 1.02247 1.66748 0
M  V30 1567 C 140.598 -0.448202 2.06287 0
M  V30 1568 O 139.946 -1.42779 1.78399 0
M  V30 1569 C 140.156 1.96788 2.88228 0
M  V30 1570 C 141.504 2.25201 3.59958 0
M  V30 1571 O 142.528 1.94626 2.98327 0
M  V30 1572 O 141.387 2.77242 4.70956 0
M  V30 1573 H 138.481 0.388517 0.730057 0
M  V30 1574 H 141.027 1.37348 0.99668 0
M  V30 1575 H 139.799 2.96047 2.55875 0
M  V30 1576 H 139.422 1.62145 3.63035 0
M  V30 1577 N 140.419 -1.14872 1.07899 0
M  V30 1578 C 141.352 -2.18794 0.64841 0
M  V30 1579 C 142.33 -1.59065 -0.337189 0
M  V30 1580 O 143.514 -1.86936 -0.242284 0
M  V30 1581 C 140.641 -3.38667 -0.0470417 0
M  V30 1582 C 139.687 -4.16942 0.897884 0
M  V30 1583 S 140.52 -4.78615 2.40183 0
M  V30 1584 C 141.676 -6.0185 1.71834 0
M  V30 1585 H 141.909 -2.5498 1.52881 0
M  V30 1586 H 139.442 -1.25922 0.893484 0
M  V30 1587 H 141.4 -4.08113 -0.442027 0
M  V30 1588 H 140.061 -3.00814 -0.903861 0
M  V30 1589 H 139.254 -5.02726 0.358096 0
M  V30 1590 H 138.856 -3.53073 1.23352 0
M  V30 1591 H 141.148 -6.69574 1.03328 0
M  V30 1592 H 142.091 -6.60408 2.55473 0
M  V30 1593 H 142.499 -5.5173 1.19392 0
M  V30 1594 N 141.898 -0.863906 -1.31812 0
M  V30 1595 C 143.175 -0.39275 -1.91616 0
M  V30 1596 C 143.555 1.12461 -1.7865 0
M  V30 1597 O 142.903 1.95045 -1.19037 0
M  V30 1598 C 143.113 -0.867385 -3.38049 0
M  V30 1599 C 144.461 -0.889966 -4.15168 0
M  V30 1600 O 145.485 -0.812635 -3.46806 0
M  V30 1601 O 144.344 -1.00079 -5.37258 0
M  V30 1602 H 141.438 -0.116358 -0.818773 0
M  V30 1603 H 143.984 -0.951418 -1.40521 0
M  V30 1604 H 142.756 -1.91081 -3.41473 0
M  V30 1605 H 142.379 -0.286687 -3.96565 0
M  V30 1606 N 143.376 1.44774 -0.622745 0
M  V30 1607 C 144.623 2.02121 -0.1239 0
M  V30 1608 C 144.951 1.48915 1.25118 0
M  V30 1609 O 144.206 0.660045 1.84233 0
M  V30 1610 C 144.505 3.57364 -0.0508323 0
M  V30 1611 C 144.171 4.29787 -1.36358 0
M  V30 1612 C 142.833 4.4929 -1.72314 0
M  V30 1613 C 145.185 4.71062 -2.23048 0
M  V30 1614 C 142.513 5.07325 -2.94682 0
M  V30 1615 C 144.865 5.30452 -3.44679 0
M  V30 1616 C 143.529 5.48175 -3.80868 0
M  V30 1617 H 142.799 0.739612 -0.0453381 0
M  V30 1618 H 145.446 1.73648 -0.807389 0
M  V30 1619 H 143.751 3.85202 0.715991 0
M  V30 1620 H 145.448 3.99456 0.351533 0
M  V30 1621 H 142.038 4.14932 -1.07375 0
M  V30 1622 H 146.222 4.55715 -1.96565 0
M  V30 1623 H 141.478 5.19235 -3.22809 0
M  V30 1624 H 145.652 5.61385 -4.12092 0
M  V30 1625 H 143.279 5.92912 -4.75773 0
M  V30 1626 N 144.854 0.36279 1.53368 0
M  V30 1627 C 146.082 -0.228613 2.05633 0
M  V30 1628 C 146.497 -1.42676 1.23649 0
M  V30 1629 O 145.854 -1.80394 0.27647 0
M  V30 1630 C 145.905 -0.624845 3.56059 0
M  V30 1631 O 145.626 0.525675 4.34935 0
M  V30 1632 C 147.127 -1.27493 4.24571 0
M  V30 1633 H 144.347 -0.0407183 0.669763 0
M  V30 1634 H 146.891 0.520352 1.97769 0
M  V30 1635 H 145.046 -1.32373 3.64083 0
M  V30 1636 H 145.46 0.205969 5.24095 0
M  V30 1637 H 146.934 -1.50277 5.31151 0
M  V30 1638 H 147.411 -2.23439 3.78116 0
M  V30 1639 H 148.017 -0.617558 4.20792 0
M  V30 1640 N 146.332 -1.57332 0.0918853 0
M  V30 1641 C 147.265 -2.09499 -0.904735 0
M  V30 1642 C 148.243 -1.00479 -1.27839 0
M  V30 1643 O 149.427 -1.27954 -1.38419 0
M  V30 1644 C 146.554 -2.56931 -2.2069 0
M  V30 1645 C 145.6 -3.77579 -1.98334 0
M  V30 1646 S 146.433 -5.21317 -1.22428 0
M  V30 1647 C 147.589 -5.72097 -2.53882 0
M  V30 1648 H 147.822 -2.93705 -0.460922 0
M  V30 1649 H 145.355 -1.53923 -0.121332 0
M  V30 1650 H 147.313 -2.84917 -2.95521 0
M  V30 1651 H 145.974 -1.72956 -2.62192 0
M  V30 1652 H 145.167 -4.08824 -2.94752 0
M  V30 1653 H 144.769 -3.5007 -1.31633 0
M  V30 1654 H 147.061 -5.80168 -3.49874 0
M  V30 1655 H 148.004 -6.70654 -2.27219 0
M  V30 1656 H 148.412 -5.00012 -2.62007 0
M  V30 1657 N 147.81 0.181792 -1.56548 0
M  V30 1658 C 149.038 0.915947 -1.85521 0
M  V30 1659 C 149.453 1.76282 -0.676016 0
M  V30 1660 O 148.81 1.79012 0.355077 0
M  V30 1661 C 148.861 1.80126 -3.13427 0
M  V30 1662 O 148.582 0.988562 -4.26801 0
M  V30 1663 C 150.083 2.64597 -3.55673 0
M  V30 1664 H 147.303 0.26661 -0.61576 0
M  V30 1665 H 149.847 0.185039 -2.03661 0
M  V30 1666 H 148.002 2.48563 -2.97145 0
M  V30 1667 H 148.416 1.59308 -4.99721 0
M  V30 1668 H 149.89 3.2235 -4.48101 0
M  V30 1669 H 150.367 3.38958 -2.79292 0
M  V30 1670 H 150.973 2.0151 -3.74532 0
M  V30 1671 N 149.288 1.51039 0.449983 0
M  V30 1672 C 150.218 1.74379 1.55288 0
M  V30 1673 C 151.199 0.593236 1.5942 0
M  V30 1674 O 152.384 0.834625 1.7535 0
M  V30 1675 C 149.514 1.85728 2.93466 0
M  V30 1676 C 148.468 3.01078 3.04197 0
M  V30 1677 C 147.794 2.97595 4.44231 0
M  V30 1678 C 149.094 4.41254 2.7945 0
M  V30 1679 H 150.788 2.66725 1.36008 0
M  V30 1680 H 148.334 1.2835 0.652864 0
M  V30 1681 H 150.287 2.0064 3.70569 0
M  V30 1682 H 149.011 0.900207 3.13949 0
M  V30 1683 H 147.67 2.85851 2.29531 0
M  V30 1684 H 147.318 1.99691 4.61663 0
M  V30 1685 H 147.018 3.75046 4.52343 0
M  V30 1686 H 148.542 3.14583 5.23326 0
M  V30 1687 H 149.956 4.56897 3.46292 0
M  V30 1688 H 148.353 5.20315 2.98985 0
M  V30 1689 H 149.423 4.52164 1.75144 0
M  V30 1690 N 150.766 -0.704594 1.40972 0
M  V30 1691 C 151.996 -1.49138 1.42974 0
M  V30 1692 C 152.404 -1.89175 0.0308406 0
M  V30 1693 O 151.747 -1.56734 -0.958138 0
M  V30 1694 C 151.809 -2.79016 2.26694 0
M  V30 1695 C 151.473 -2.61236 3.74973 0
M  V30 1696 C 152.47 -2.27773 4.67349 0
M  V30 1697 C 150.155 -2.77158 4.18914 0
M  V30 1698 C 152.149 -2.10457 6.01653 0
M  V30 1699 C 149.836 -2.59459 5.53285 0
M  V30 1700 C 150.834 -2.26158 6.4447 0
M  V30 1701 O 150.522 -2.08605 7.76363 0
M  V30 1702 H 150.254 -0.466443 0.489292 0
M  V30 1703 H 152.808 -0.8758 1.85793 0
M  V30 1704 H 151.038 -3.42947 1.78673 0
M  V30 1705 H 152.727 -3.40782 2.20504 0
M  V30 1706 H 153.493 -2.15095 4.34694 0
M  V30 1707 H 149.372 -3.02064 3.48251 0
M  V30 1708 H 152.916 -1.84387 6.72791 0
M  V30 1709 H 148.813 -2.71725 5.85522 0
M  V30 1710 H 149.581 -2.23439 7.87412 0
M  V30 1711 N 152.244 -1.26651 -0.937939 0
M  V30 1712 C 153.174 -1.10993 -2.05433 0
M  V30 1713 C 154.155 -0.0142161 -1.70094 0
M  V30 1714 O 155.34 -0.186837 -1.93299 0
M  V30 1715 C 152.47 -0.745561 -3.39203 0
M  V30 1716 C 151.424 -1.79337 -3.88616 0
M  V30 1717 C 150.75 -1.28324 -5.19073 0
M  V30 1718 C 152.05 -3.19553 -4.13138 0
M  V30 1719 H 153.744 -2.0438 -2.1879 0
M  V30 1720 H 151.29 -0.984041 -1.05131 0
M  V30 1721 H 153.243 -0.622888 -4.16771 0
M  V30 1722 H 151.967 0.22401 -3.25831 0
M  V30 1723 H 150.626 -1.90477 -3.13231 0
M  V30 1724 H 150.274 -0.303414 -5.02084 0
M  V30 1725 H 149.974 -1.98369 -5.53103 0
M  V30 1726 H 151.498 -1.1733 -5.99221 0
M  V30 1727 H 152.912 -3.11471 -4.81309 0
M  V30 1728 H 151.309 -3.87218 -4.58457 0
M  V30 1729 H 152.379 -3.65368 -3.18801 0
M  V30 1730 N 153.722 1.14298 -1.08507 0
M  V30 1731 C 155.138 1.37347 -0.812901 0
M  V30 1732 C 155.338 1.93052 0.577325 0
M  V30 1733 O 154.394 2.14389 1.33393 0
M  V30 1734 C 155.707 2.33359 -1.89642 0
M  V30 1735 C 157.255 2.46996 -1.92255 0
M  V30 1736 C 157.73 3.46309 -2.99724 0
M  V30 1737 N 159.221 3.53853 -2.98902 0
M  V30 1738 C 159.956 4.3055 -3.787 0
M  V30 1739 N 159.452 5.10482 -4.6838 0
M  V30 1740 N 161.245 4.25757 -3.66998 0
M  V30 1741 H 153.396 0.764867 -1.9815 0
M  V30 1742 H 155.659 0.398966 -0.859959 0
M  V30 1743 H 155.365 1.99565 -2.89597 0
M  V30 1744 H 155.239 3.33274 -1.76659 0
M  V30 1745 H 157.626 2.80081 -0.929445 0
M  V30 1746 H 157.707 1.47039 -2.09316 0
M  V30 1747 H 157.351 3.13957 -3.99241 0
M  V30 1748 H 157.281 4.46049 -2.79907 0
M  V30 1749 H 159.772 2.96812 -2.33904 0
M  V30 1750 H 160.085 5.66284 -5.25873 0
M  V30 1751 H 158.43 5.09747 -4.72422 0
M  V30 1752 H 161.621 3.62383 -2.96304 0
M  V30 1753 H 161.794 4.85279 -4.29427 0
M  V30 1754 N 155.201 0.870884 1.31352 0
M  V30 1755 C 156.151 0.298889 2.26032 0
M  V30 1756 C 157.135 -0.564595 1.50669 0
M  V30 1757 O 158.327 -0.411323 1.72154 0
M  V30 1758 C 155.456 -0.497842 3.39671 0
M  V30 1759 C 154.542 0.378937 4.22404 0
M  V30 1760 N 154.933 1.47284 4.83881 0
M  V30 1761 C 153.231 0.171535 4.4567 0
M  V30 1762 C 153.932 2.01359 5.45738 0
M  V30 1763 N 152.908 1.31047 5.27568 0
M  V30 1764 H 156.71 1.13494 2.71102 0
M  V30 1765 H 154.224 0.718745 1.45629 0
M  V30 1766 H 156.221 -0.924155 4.06528 0
M  V30 1767 H 154.881 -1.33149 2.96144 0
M  V30 1768 H 155.892 1.85575 4.8351 0
M  V30 1769 H 152.569 -0.626091 4.12779 0
M  V30 1770 H 153.959 2.93143 6.0458 0
M  V30 1771 N 156.679 -1.44442 0.630414 0
M  V30 1772 C 157.909 -2.06115 0.141465 0
M  V30 1773 C 158.317 -1.47179 -1.1889 0
M  V30 1774 O 157.66 -0.588873 -1.74006 0
M  V30 1775 C 157.722 -3.59467 -0.0484355 0
M  V30 1776 C 157.386 -4.40864 1.20366 0
M  V30 1777 C 158.383 -4.74391 2.12719 0
M  V30 1778 C 156.068 -4.8125 1.43887 0
M  V30 1779 C 158.062 -5.47186 3.26904 0
M  V30 1780 C 155.749 -5.53795 2.5837 0
M  V30 1781 C 156.747 -5.86682 3.49705 0
M  V30 1782 O 156.435 -6.57749 4.62191 0
M  V30 1783 H 156.167 -0.671648 0.0765792 0
M  V30 1784 H 158.721 -1.86312 0.864695 0
M  V30 1785 H 156.951 -3.77758 -0.826803 0
M  V30 1786 H 158.64 -4.02909 -0.491849 0
M  V30 1787 H 159.406 -4.43728 1.95781 0
M  V30 1788 H 155.285 -4.55073 0.736853 0
M  V30 1789 H 158.829 -5.72773 3.98217 0
M  V30 1790 H 154.726 -5.83872 2.75251 0
M  V30 1791 H 155.494 -6.76217 4.61164 0
M  V30 1792 N 158.157 -0.370918 -1.53173 0
M  V30 1793 C 159.403 0.209976 -2.02313 0
M  V30 1794 C 159.758 1.45987 -1.25322 0
M  V30 1795 O 159.051 1.8856 -0.339965 0
M  V30 1796 C 159.245 0.549696 -3.53147 0
M  V30 1797 C 159.074 -0.665721 -4.44745 0
M  V30 1798 C 157.844 -1.17942 -4.91343 0
M  V30 1799 C 160.042 -1.53255 -4.90935 0
M  V30 1800 N 158.024 -2.35431 -5.66962 0
M  V30 1801 C 159.395 -2.55403 -5.64951 0
M  V30 1802 C 161.45 -1.5548 -4.73002 0
M  V30 1803 C 160.153 -3.5964 -6.22938 0
M  V30 1804 C 162.179 -2.58613 -5.31858 0
M  V30 1805 C 161.541 -3.59485 -6.05764 0
M  V30 1806 H 157.64 0.0394095 -0.781006 0
M  V30 1807 H 160.224 -0.516666 -1.8772 0
M  V30 1808 H 158.395 1.24541 -3.67891 0
M  V30 1809 H 160.127 1.11614 -3.89004 0
M  V30 1810 H 156.882 -0.743228 -4.67732 0
M  V30 1811 H 157.306 -2.94827 -6.09431 0
M  V30 1812 H 161.948 -0.788457 -4.15383 0
M  V30 1813 H 159.666 -4.37153 -6.79649 0
M  V30 1814 H 163.252 -2.61195 -5.19873 0
M  V30 1815 H 162.132 -4.3798 -6.50495 0
M  V30 1816 N 159.635 1.57281 -0.100228 0
M  V30 1817 C 160.582 2.14305 0.856858 0
M  V30 1818 C 161.552 1.06296 1.27634 0
M  V30 1819 O 162.737 1.34109 1.35718 0
M  V30 1820 C 159.877 2.73184 2.10866 0
M  V30 1821 C 158.99 3.95442 1.73925 0
M  V30 1822 C 158.125 4.42468 2.93931 0
M  V30 1823 C 157.164 5.57303 2.5314 0
M  V30 1824 N 156.301 5.99158 3.65997 0
M  V30 1825 H 161.141 2.95772 0.363726 0
M  V30 1826 H 158.678 1.46139 0.167858 0
M  V30 1827 H 160.636 3.05442 2.84185 0
M  V30 1828 H 159.266 1.94437 2.57671 0
M  V30 1829 H 158.318 3.69464 0.905554 0
M  V30 1830 H 159.63 4.78769 1.39935 0
M  V30 1831 H 158.784 4.76537 3.75496 0
M  V30 1832 H 157.523 3.58052 3.31134 0
M  V30 1833 H 156.528 5.22857 1.70003 0
M  V30 1834 H 157.753 6.43471 2.17075 0
M  V30 1835 H 155.699 5.17687 4.02909 0
M  V30 1836 H 155.616 6.77295 3.35869 0
M  V30 1837 H 156.884 6.3786 4.48057 0
M  V30 1838 N 161.113 -0.173488 1.56642 0
M  V30 1839 C 162.39 -0.917617 1.7274 0
M  V30 1840 C 162.77 -2.00484 0.661027 0
M  V30 1841 O 162.118 -2.26184 -0.32453 0
M  V30 1842 C 162.328 -1.48433 3.15862 0
M  V30 1843 C 163.676 -1.95809 3.76754 0
M  V30 1844 O 164.7 -1.58231 3.19126 0
M  V30 1845 O 163.559 -2.65024 4.77938 0
M  V30 1846 H 160.653 -0.431772 0.705338 0
M  V30 1847 H 163.199 -0.161487 1.6893 0
M  V30 1848 H 161.971 -0.701715 3.84957 0
M  V30 1849 H 161.594 -2.30471 3.23989 0
M  V30 1850 N 162.591 -1.51276 -0.441967 0
M  V30 1851 C 163.501 -1.75092 -1.56141 0
M  V30 1852 C 164.517 -0.634963 -1.62001 0
M  V30 1853 O 165.693 -0.916686 -1.79329 0
M  V30 1854 C 162.758 -1.86666 -2.92158 0
M  V30 1855 C 161.819 -3.10506 -2.96453 0
M  V30 1856 C 161.052 -3.21519 -4.25982 0
M  V30 1857 O 161.275 -2.38586 -5.18105 0
M  V30 1858 O 160.209 -4.14465 -4.36466 0
M  V30 1859 H 164.035 -2.70044 -1.38961 0
M  V30 1860 H 161.62 -1.35722 -0.624499 0
M  V30 1861 H 163.502 -1.96292 -3.72891 0
M  V30 1862 H 162.177 -0.949014 -3.09476 0
M  V30 1863 H 161.084 -3.06363 -2.14692 0
M  V30 1864 H 162.417 -4.01945 -2.84079 0
M  V30 1865 N 164.069 0.697108 -1.41344 0
M  V30 1866 C 165.485 1.00751 -1.2378 0
M  V30 1867 C 165.685 2.01105 -0.126066 0
M  V30 1868 O 164.741 2.47295 0.51004 0
M  V30 1869 C 166.054 1.53359 -2.58653 0
M  V30 1870 C 167.602 1.6525 -2.65822 0
M  V30 1871 C 168.077 2.2126 -4.01009 0
M  V30 1872 N 169.568 2.28622 -4.02847 0
M  V30 1873 C 170.303 2.72984 -5.04249 0
M  V30 1874 N 169.799 3.16962 -6.16041 0
M  V30 1875 N 171.592 2.72534 -4.91611 0
M  V30 1876 H 163.743 0.0322662 -2.12375 0
M  V30 1877 H 166.006 0.0768853 -0.944877 0
M  V30 1878 H 165.712 0.870773 -3.4075 0
M  V30 1879 H 165.586 2.51597 -2.81032 0
M  V30 1880 H 167.973 2.30644 -1.84086 0
M  V30 1881 H 168.054 0.655614 -2.47256 0
M  V30 1882 H 167.698 1.56482 -4.83193 0
M  V30 1883 H 167.628 3.21698 -4.16915 0
M  V30 1884 H 170.119 1.97585 -3.22131 0
M  V30 1885 H 170.432 3.49434 -6.89287 0
M  V30 1886 H 168.777 3.14875 -6.1958 0
M  V30 1887 H 171.968 2.37525 -4.0336 0
M  V30 1888 H 172.141 3.06789 -5.70775 0
M  V30 1889 N 165.547 1.27147 0.931209 0
M  V30 1890 C 166.477 1.12081 2.04842 0
M  V30 1891 C 167.458 0.0232364 1.70084 0
M  V30 1892 O 168.643 0.197085 1.93197 0
M  V30 1893 C 165.773 0.76354 3.38803 0
M  V30 1894 C 164.727 1.81396 3.87659 0
M  V30 1895 C 164.053 1.31075 5.18385 0
M  V30 1896 C 165.353 3.21739 4.11438 0
M  V30 1897 H 167.047 2.05537 2.17703 0
M  V30 1898 H 164.593 0.989603 1.04608 0
M  V30 1899 H 166.546 0.644982 4.16435 0
M  V30 1900 H 165.27 -0.206727 3.25945 0
M  V30 1901 H 163.929 1.92136 3.12217 0
M  V30 1902 H 163.577 0.330037 5.01916 0
M  V30 1903 H 163.277 2.013 5.52044 0
M  V30 1904 H 164.801 1.20506 5.98591 0
M  V30 1905 H 166.215 3.14019 4.79651 0
M  V30 1906 H 164.612 3.89644 4.56397 0
M  V30 1907 H 165.682 3.67054 3.16859 0
M  V30 1908 N 167.025 -1.13721 1.09112 0
M  V30 1909 C 167.988 -2.17222 0.731241 0
M  V30 1910 C 168.988 -1.59035 -0.237566 0
M  V30 1911 O 170.178 -1.74192 -0.0161704 0
M  V30 1912 C 167.31 -3.40804 0.0808443 0
M  V30 1913 H 168.503 -2.50573 1.64783 0
M  V30 1914 H 166.056 -1.28493 0.889897 0
M  V30 1915 H 166.791 -3.1304 -0.847127 0
M  V30 1916 H 166.576 -3.84306 0.777896 0
M  V30 1917 H 168.066 -4.1731 -0.155657 0
M  V30 1918 N 168.503 -0.877838 -1.30888 0
M  V30 1919 C 169.75 -0.492696 -1.96415 0
M  V30 1920 C 170.078 0.956671 -1.69346 0
M  V30 1921 O 169.333 1.68993 -0.986913 0
M  V30 1922 C 169.632 -0.705748 -3.50363 0
M  V30 1923 C 169.298 -2.1291 -3.97467 0
M  V30 1924 C 167.96 -2.51834 -4.1004 0
M  V30 1925 C 170.312 -3.05702 -4.22132 0
M  V30 1926 C 167.64 -3.82775 -4.44635 0
M  V30 1927 C 169.992 -4.36166 -4.58194 0
M  V30 1928 C 168.656 -4.74993 -4.68975 0
M  V30 1929 H 167.926 -0.18029 -0.718733 0
M  V30 1930 H 170.573 -1.11233 -1.55883 0
M  V30 1931 H 168.878 -0.00303058 -3.918 0
M  V30 1932 H 170.575 -0.387456 -3.99124 0
M  V30 1933 H 167.165 -1.81694 -3.88182 0
M  V30 1934 H 171.349 -2.76853 -4.11906 0
M  V30 1935 H 166.605 -4.12609 -4.51181 0
M  V30 1936 H 170.779 -5.08111 -4.76231 0
M  V30 1937 H 168.406 -5.76495 -4.95537 0
M  V30 1938 N 169.982 1.44106 -0.638065 0
M  V30 1939 C 171.207 2.0685 -0.150916 0
M  V30 1940 C 171.632 1.47417 1.16833 0
M  V30 1941 O 170.99 0.578264 1.71831 0
M  V30 1942 C 171.038 3.60555 -0.05708 0
M  V30 1943 O 170.142 4.00465 0.984972 0
M  V30 1944 H 169.483 0.658151 -0.0879399 0
M  V30 1945 H 172.013 1.84865 -0.876707 0
M  V30 1946 H 172.023 4.07789 0.131232 0
M  V30 1947 H 170.698 4.03193 -1.02021 0
M  V30 1948 H 169.275 3.64849 0.770672 0
M  V30 1949 N 171.46 0.379036 1.52974 0
M  V30 1950 C 172.685 -0.209353 2.06341 0
M  V30 1951 C 173.11 -1.40583 1.24972 0
M  V30 1952 O 172.468 -1.79246 0.272155 0
M  V30 1953 C 172.516 -0.567786 3.56102 0
M  V30 1954 O 171.62 -1.66318 3.77375 0
M  V30 1955 H 170.961 -0.0272919 0.663439 0
M  V30 1956 H 173.491 0.543536 1.97248 0
M  V30 1957 H 173.501 -0.835003 3.99364 0
M  V30 1958 H 172.176 0.307013 4.14765 0
M  V30 1959 H 170.753 -1.39048 3.46006 0
M  V30 1960 N 172.938 -1.57226 0.108567 0
M  V30 1961 C 173.901 -2.13602 -0.831082 0
M  V30 1962 C 174.901 -1.06841 -1.20173 0
M  V30 1963 O 176.091 -1.32666 -1.12895 0
M  V30 1964 C 173.223 -2.66769 -2.12243 0
M  V30 1965 H 174.416 -2.97951 -0.341317 0
M  V30 1966 H 171.969 -1.55667 -0.14057 0
M  V30 1967 H 172.704 -1.85977 -2.65675 0
M  V30 1968 H 172.489 -3.44839 -1.86625 0
M  V30 1969 H 173.979 -3.10332 -2.79435 0
M  V30 1970 N 174.416 0.165178 -1.56732 0
M  V30 1971 C 175.641 0.900253 -1.86843 0
M  V30 1972 C 176.066 1.74766 -0.695596 0
M  V30 1973 O 175.424 1.77786 0.35522 0
M  V30 1974 C 175.472 1.74777 -3.15413 0
M  V30 1975 O 174.576 2.85007 -2.98068 0
M  V30 1976 H 173.917 0.251832 -0.614391 0
M  V30 1977 H 176.447 0.161468 -2.03962 0
M  V30 1978 H 176.457 2.14646 -3.46974 0
M  V30 1979 H 175.132 1.12537 -4.00385 0
M  V30 1980 H 173.709 2.48676 -2.77875 0
M  V30 1981 N 175.894 1.51508 0.433938 0
M  V30 1982 C 176.842 1.73646 1.54757 0
M  V30 1983 C 177.836 0.602854 1.5831 0
M  V30 1984 O 179.042 0.784318 1.62014 0
M  V30 1985 H 175.417 0.548718 0.51421 0
M  V30 1986 H 177.388 2.66991 1.33261 0
M  V30 1987 C 176.137 1.88172 2.92381 0
M  V30 1988 H 175.46 2.74808 2.90381 0
M  V30 1989 H 176.9 2.07672 3.6966 0
M  V30 1990 C 175.359 0.64239 3.30719 0
M  V30 1991 O 175.889 -0.201362 4.01195 0
M  V30 1992 N 174.095 0.485489 2.86516 0
M  V30 1993 H 173.642 1.17318 2.29334 0
M  V30 1994 H 173.6 -0.342482 3.12529 0
M  V30 1995 N 177.372 -0.689602 1.41712 0
M  V30 1996 C 178.319 -1.80345 1.44029 0
M  V30 1997 C 179.289 -1.63478 0.293948 0
M  V30 1998 O 180.474 -1.84244 0.495869 0
M  V30 1999 C 177.614 -3.18272 1.33405 0
M  V30 2000 C 176.727 -3.46529 2.57956 0
M  V30 2001 C 175.862 -4.74103 2.39582 0
M  V30 2002 C 174.901 -4.95347 3.5958 0
M  V30 2003 N 174.038 -6.14151 3.40239 0
M  V30 2004 H 178.878 -1.77698 2.39222 0
M  V30 2005 H 176.415 -0.867688 1.18784 0
M  V30 2006 H 178.373 -3.97956 1.25246 0
M  V30 2007 H 177.003 -3.2008 0.418164 0
M  V30 2008 H 176.055 -2.61207 2.76542 0
M  V30 2009 H 177.367 -3.58126 3.47199 0
M  V30 2010 H 176.521 -5.61853 2.28924 0
M  V30 2011 H 175.26 -4.64763 1.47805 0
M  V30 2012 H 174.265 -4.06044 3.70686 0
M  V30 2013 H 175.49 -5.06542 4.52318 0
M  V30 2014 H 173.436 -6.06013 2.51167 0
M  V30 2015 H 173.353 -6.26543 4.23061 0
M  V30 2016 H 174.621 -7.04619 3.33365 0
M  V30 2017 N 178.85 -1.27639 -0.924453 0
M  V30 2018 C 180.075 -1.17101 -1.71179 0
M  V30 2019 C 180.5 0.268134 -1.86179 0
M  V30 2020 O 179.858 1.19415 -1.36418 0
M  V30 2021 C 179.906 -1.86313 -3.08739 0
M  V30 2022 O 179.01 -1.16331 -3.95652 0
M  V30 2023 H 178.351 -0.407091 -0.524569 0
M  V30 2024 H 180.881 -1.68767 -1.15666 0
M  V30 2025 H 180.891 -1.938 -3.59034 0
M  V30 2026 H 179.566 -2.91001 -2.97138 0
M  V30 2027 H 178.143 -1.16935 -3.54091 0
M  V30 2028 N 180.328 1.1314 -1.09713 0
M  V30 2029 C 181.261 2.17735 -0.683137 0
M  V30 2030 C 182.239 1.59582 0.311841 0
M  V30 2031 O 183.423 1.87298 0.212514 0
M  V30 2032 C 180.55 3.38699 -0.00684324 0
M  V30 2033 C 179.596 4.1546 -0.964102 0
M  V30 2034 S 180.429 4.74733 -2.47767 0
M  V30 2035 C 181.585 5.9904 -1.81387 0
M  V30 2036 H 181.818 2.52515 -1.56918 0
M  V30 2037 H 179.351 1.24484 -0.913404 0
M  V30 2038 H 181.309 4.08765 0.377044 0
M  V30 2039 H 179.97 3.02214 0.85589 0
M  V30 2040 H 179.163 5.02093 -0.43803 0
M  V30 2041 H 178.765 3.51066 -1.28953 0
M  V30 2042 H 181.057 6.67846 -1.13967 0
M  V30 2043 H 182 6.56261 -2.65947 0
M  V30 2044 H 182.408 5.4976 -1.28155 0
M  V30 2045 N 181.806 0.884767 1.30421 0
M  V30 2046 C 183.034 0.518044 2.0031 0
M  V30 2047 C 183.449 -0.893408 1.66324 0
M  V30 2048 O 182.806 -1.5875 0.900262 0
M  V30 2049 C 182.857 0.682997 3.54989 0
M  V30 2050 O 182.578 2.03888 3.87764 0
M  V30 2051 C 184.079 0.31924 4.42149 0
M  V30 2052 H 181.299 0.200265 0.640418 0
M  V30 2053 H 183.843 1.19001 1.6631 0
M  V30 2054 H 181.998 0.0584052 3.87356 0
M  V30 2055 H 182.412 2.05735 4.82466 0
M  V30 2056 H 183.886 0.485555 5.4986 0
M  V30 2057 H 184.363 -0.742717 4.32875 0
M  V30 2058 H 184.969 0.920147 4.15227 0
M  V30 2059 N 183.284 -1.43765 0.645699 0
M  V30 2060 C 184.531 -2.01898 0.15604 0
M  V30 2061 C 184.859 -1.50887 -1.22733 0
M  V30 2062 O 184.114 -0.689271 -1.8316 0
M  V30 2063 C 184.413 -3.57238 0.107679 0
M  V30 2064 C 184.079 -4.27564 1.43178 0
M  V30 2065 C 182.741 -4.46492 1.7944 0
M  V30 2066 C 185.093 -4.67454 2.30513 0
M  V30 2067 C 182.421 -5.02573 3.02716 0
M  V30 2068 C 184.773 -5.24901 3.53074 0
M  V30 2069 C 183.437 -5.42046 3.89541 0
M  V30 2070 H 182.707 -0.738797 0.057099 0
M  V30 2071 H 185.354 -1.72341 0.834912 0
M  V30 2072 H 183.659 -3.86293 -0.654618 0
M  V30 2073 H 185.356 -3.99965 -0.287938 0
M  V30 2074 H 181.946 -4.13171 1.13963 0
M  V30 2075 H 186.13 -4.5253 2.0379 0
M  V30 2076 H 181.386 -5.14033 3.31028 0
M  V30 2077 H 185.56 -5.54758 4.20971 0
M  V30 2078 H 183.187 -5.85268 4.85145 0
M  V30 2079 N 184.763 -0.387143 -1.52771 0
M  V30 2080 C 186.04 0.253197 -1.93954 0
M  V30 2081 C 186.42 1.64545 -1.32243 0
M  V30 2082 O 185.768 2.23191 -0.489699 0
M  V30 2083 C 185.978 0.281722 -3.47861 0
M  V30 2084 C 187.326 0.511715 -4.21505 0
M  V30 2085 O 188.35 0.362023 -3.54356 0
M  V30 2086 O 187.209 0.804847 -5.40541 0
M  V30 2087 H 184.303 0.156845 -0.811991 0
M  V30 2088 H 186.849 -0.441494 -1.63856 0
M  V30 2089 H 185.621 -0.693571 -3.85104 0
M  V30 2090 H 185.244 1.02142 -3.84256 0
M  V30 2091 N 186.241 1.57166 -0.116904 0
M  V30 2092 C 187.489 1.94737 0.540533 0
M  V30 2093 C 187.81 1.00096 1.67349 0
M  V30 2094 O 187.08 0.0568854 1.95817 0
M  V30 2095 H 185.66 0.718981 0.202669 0
M  V30 2096 H 188.322 1.94017 -0.185353 0
M  V30 2097 H 187.418 2.97719 0.936483 0
M  V30 2098 N 187.719 -0.156864 1.56817 0
M  V30 2099 C 189.135 -0.50916 1.5126 0
M  V30 2100 C 189.335 -1.83897 0.823658 0
M  V30 2101 O 188.391 -2.49469 0.390055 0
M  V30 2102 C 189.704 -0.52857 2.96018 0
M  V30 2103 C 191.252 -0.614771 3.06903 0
M  V30 2104 C 191.727 -0.664938 4.53147 0
M  V30 2105 N 193.218 -0.727433 4.57452 0
M  V30 2106 C 193.953 -0.787067 5.67973 0
M  V30 2107 N 193.449 -0.806649 6.88088 0
M  V30 2108 N 195.242 -0.827195 5.5598 0
M  V30 2109 H 187.393 0.714935 2.00006 0
M  V30 2110 H 189.656 0.259526 0.911784 0
M  V30 2111 H 189.362 0.380154 3.49639 0
M  V30 2112 H 189.236 -1.36998 3.51442 0
M  V30 2113 H 191.623 -1.51392 2.53307 0
M  V30 2114 H 191.704 0.253597 2.5454 0
M  V30 2115 H 191.348 0.230011 5.07379 0
M  V30 2116 H 191.278 -1.54966 5.03282 0
M  V30 2117 H 193.769 -0.719998 3.70978 0
M  V30 2118 H 194.082 -0.853727 7.6807 0
M  V30 2119 H 192.427 -0.774687 6.90669 0
M  V30 2120 H 195.618 -0.808998 4.61056 0
M  V30 2121 H 195.791 -0.870206 6.4213 0
M  V30 2122 N 189.197 -1.51736 -0.425897 0
M  V30 2123 C 190.127 -1.76827 -1.52494 0
M  V30 2124 C 191.108 -0.618524 -1.58456 0
M  V30 2125 O 192.293 -0.862416 -1.74 0
M  V30 2126 C 189.423 -1.90374 -2.90474 0
M  V30 2127 C 188.377 -3.0588 -2.99369 0
M  V30 2128 C 187.703 -3.04625 -4.3944 0
M  V30 2129 C 189.003 -4.45644 -2.72394 0
M  V30 2130 H 190.697 -2.68855 -1.31748 0
M  V30 2131 H 188.243 -1.29372 -0.632362 0
M  V30 2132 H 190.196 -2.0651 -3.6733 0
M  V30 2133 H 188.92 -0.95004 -3.12477 0
M  V30 2134 H 187.579 -2.89467 -2.24954 0
M  V30 2135 H 187.227 -2.0701 -4.58428 0
M  V30 2136 H 186.927 -3.82195 -4.46319 0
M  V30 2137 H 188.451 -3.22869 -5.18255 0
M  V30 2138 H 189.865 -4.62348 -3.38979 0
M  V30 2139 H 188.262 -5.25006 -2.9067 0
M  V30 2140 H 189.332 -4.54893 -1.67929 0
M  V30 2141 N 190.675 0.682077 -1.42076 0
M  V30 2142 C 191.921 1.44428 -1.42367 0
M  V30 2143 C 192.254 1.94164 -0.0373056 0
M  V30 2144 O 191.529 1.70429 0.937239 0
M  V30 2145 C 191.812 2.64654 -2.44194 0
M  V30 2146 C 191.665 2.20596 -3.91991 0
M  V30 2147 C 192.984 3.66865 -2.431 0
M  V30 2148 H 190.103 0.523834 -0.518428 0
M  V30 2149 H 192.745 0.77576 -1.73442 0
M  V30 2150 H 190.895 3.2169 -2.17826 0
M  V30 2151 H 192.567 1.68783 -4.29313 0
M  V30 2152 H 190.81 1.52242 -4.06208 0
M  V30 2153 H 191.481 3.06921 -4.58807 0
M  V30 2154 H 193.957 3.19531 -2.66532 0
M  V30 2155 H 192.833 4.48577 -3.16339 0
M  V30 2156 H 193.094 4.17493 -1.45437 0
M  V30 2157 N 192.153 1.28127 0.917671 0
M  V30 2158 C 193.1 1.11717 2.0196 0
M  V30 2159 C 194.07 0.0153929 1.66093 0
M  V30 2160 O 195.255 0.179596 1.89953 0
M  V30 2161 C 192.395 0.780927 3.36148 0
M  V30 2162 C 191.508 1.96135 3.84909 0
M  V30 2163 C 190.643 1.56609 5.0759 0
M  V30 2164 C 189.682 2.71339 5.48673 0
M  V30 2165 N 188.819 2.32332 6.62545 0
M  V30 2166 H 193.659 2.06003 2.15329 0
M  V30 2167 H 191.196 1.02535 1.05475 0
M  V30 2168 H 193.154 0.56675 4.13333 0
M  V30 2169 H 191.784 -0.124998 3.22558 0
M  V30 2170 H 190.836 2.28777 3.03916 0
M  V30 2171 H 192.148 2.82165 4.1132 0
M  V30 2172 H 191.302 1.31374 5.92305 0
M  V30 2173 H 190.041 0.677014 4.82978 0
M  V30 2174 H 189.046 2.97276 4.62501 0
M  V30 2175 H 190.271 3.60882 5.75274 0
M  V30 2176 H 188.217 1.45889 6.39572 0
M  V30 2177 H 188.134 3.11899 6.88662 0
M  V30 2178 H 189.402 2.10371 7.50576 0
M  V30 2179 N 193.631 -1.12557 1.10312 0
M  V30 2180 C 194.578 -2.18247 0.750781 0
M  V30 2181 C 195.548 -1.63853 -0.272293 0
M  V30 2182 O 196.733 -1.90195 -0.151862 0
M  V30 2183 C 193.873 -3.44591 0.187379 0
M  V30 2184 C 192.986 -4.13046 1.2656 0
M  V30 2185 C 192.121 -5.27034 0.663978 0
M  V30 2186 C 191.16 -5.87353 1.72287 0
M  V30 2187 N 190.297 -6.92757 1.1416 0
M  V30 2188 H 195.137 -2.47732 1.65628 0
M  V30 2189 H 192.674 -1.21629 0.827337 0
M  V30 2190 H 194.632 -4.16904 -0.157148 0
M  V30 2191 H 193.262 -3.15527 -0.681355 0
M  V30 2192 H 192.314 -3.38924 1.72727 0
M  V30 2193 H 193.626 -4.53947 2.06721 0
M  V30 2194 H 192.78 -6.06104 0.268824 0
M  V30 2195 H 191.519 -4.87407 -0.169082 0
M  V30 2196 H 190.524 -5.06971 2.12746 0
M  V30 2197 H 191.749 -6.29051 2.55875 0
M  V30 2198 H 189.695 -6.5517 0.329984 0
M  V30 2199 H 189.612 -7.3225 1.88007 0
M  V30 2200 H 190.88 -7.75658 0.772956 0
M  V30 2201 N 195.109 -0.891671 -1.2995 0
M  V30 2202 C 196.358 -0.509521 -1.95158 0
M  V30 2203 C 196.671 0.947388 -1.71125 0
M  V30 2204 O 197.877 1.43669 -2.30372 0
M  V30 2205 C 196.333 -0.860315 -3.49466 0
M  V30 2206 C 195.941 -2.33545 -3.8231 0
M  V30 2207 C 197.685 -0.547687 -4.20952 0
M  V30 2208 C 195.592 -2.62752 -5.29826 0
M  V30 2209 H 194.522 -0.18682 -0.730489 0
M  V30 2210 H 197.173 -1.08756 -1.47798 0
M  V30 2211 H 195.555 -0.211285 -3.95436 0
M  V30 2212 H 196.729 -3.02936 -3.47227 0
M  V30 2213 H 195.044 -2.61629 -3.23944 0
M  V30 2214 H 197.641 -0.742854 -5.29515 0
M  V30 2215 H 197.984 0.51332 -4.13123 0
M  V30 2216 H 198.517 -1.1542 -3.80688 0
M  V30 2217 H 195.256 -3.6762 -5.42712 0
M  V30 2218 H 194.776 -1.97977 -5.66185 0
M  V30 2219 H 196.455 -2.48601 -5.97333 0
M  V30 2220 N 196.587 1.43421 -0.653314 0
M  V30 2221 C 197.833 2.02641 -0.175593 0
M  V30 2222 C 198.188 1.5062 1.19713 0
M  V30 2223 O 197.481 0.689697 1.78756 0
M  V30 2224 C 197.675 3.57176 -0.126623 0
M  V30 2225 C 197.504 4.24191 -1.49306 0
M  V30 2226 C 196.274 4.60257 -2.08547 0
M  V30 2227 C 198.472 4.53193 -2.43148 0
M  V30 2228 N 196.454 5.12345 -3.38194 0
M  V30 2229 C 197.825 5.06601 -3.57429 0
M  V30 2230 C 199.88 4.35161 -2.41949 0
M  V30 2231 C 198.583 5.43875 -4.70736 0
M  V30 2232 C 200.609 4.73498 -3.54336 0
M  V30 2233 C 199.971 5.27039 -4.67343 0
M  V30 2234 H 196.07 0.77441 -0.108686 0
M  V30 2235 H 198.654 1.74596 -0.861638 0
M  V30 2236 H 196.825 3.84784 0.528766 0
M  V30 2237 H 198.557 4.03078 0.36198 0
M  V30 2238 H 195.312 4.45302 -1.61255 0
M  V30 2239 H 195.736 5.42842 -4.04538 0
M  V30 2240 H 200.378 3.9304 -1.55818 0
M  V30 2241 H 198.096 5.8494 -5.57558 0
M  V30 2242 H 201.682 4.61241 -3.5461 0
M  V30 2243 H 200.562 5.56153 -5.52868 0
M  V30 2244 N 198.065 0.39524 1.52563 0
M  V30 2245 C 199.311 -0.185318 2.01952 0
M  V30 2246 C 199.644 -1.45964 1.28095 0
M  V30 2247 O 198.919 -1.90689 0.38315 0
M  V30 2248 C 199.202 -0.447193 3.57312 0
M  V30 2249 C 199.055 0.842828 4.41833 0
M  V30 2250 C 200.374 -1.23529 4.22408 0
M  V30 2251 H 197.493 -0.0658788 0.73405 0
M  V30 2252 H 200.135 0.525975 1.82575 0
M  V30 2253 H 198.285 -1.05312 3.73954 0
M  V30 2254 H 199.957 1.4795 4.36931 0
M  V30 2255 H 198.2 1.45686 4.08605 0
M  V30 2256 H 198.871 0.614165 5.48573 0
M  V30 2257 H 201.347 -0.722445 4.0978 0
M  V30 2258 H 200.223 -1.38727 5.3108 0
M  V30 2259 H 200.484 -2.25213 3.80436 0
M  V30 2260 N 199.544 -1.57102 0.125237 0
M  V30 2261 C 200.955 -1.82384 -0.399142 0
M  V30 2262 C 201.306 -1.04276 -1.66195 0
M  V30 2263 O 200.431 -0.281269 -2.14564 0
M  V30 2264 C 201.026 -3.30821 -0.730932 0
M  V30 2265 C 199.585 -3.56762 -1.19992 0
M  V30 2266 C 198.732 -2.7649 -0.211792 0
M  V30 2267 H 201.683 -1.54786 0.350277 0
M  V30 2268 H 201.704 -3.4579 -1.58775 0
M  V30 2269 H 201.216 -3.87643 0.188345 0
M  V30 2270 H 199.317 -3.05305 -2.13588 0
M  V30 2271 H 199.43 -4.65317 -1.14093 0
M  V30 2272 H 197.794 -2.4489 -0.700085 0
M  V30 2273 H 198.577 -3.36073 0.700691 0
M  V30 2274 N 201.022 0.148545 -1.56898 0
M  V30 2275 C 202.299 0.890019 -1.74178 0
M  V30 2276 C 202.679 1.99407 -0.692839 0
M  V30 2277 O 202.027 2.26671 0.288505 0
M  V30 2278 C 202.237 1.43389 -3.18183 0
M  V30 2279 C 203.585 1.89791 -3.79822 0
M  V30 2280 O 204.609 1.53134 -3.21603 0
M  V30 2281 O 203.468 2.57387 -4.82093 0
M  V30 2282 H 200.562 0.420496 -0.712118 0
M  V30 2283 H 203.108 0.134591 -1.69165 0
M  V30 2284 H 201.88 0.640383 -3.86024 0
M  V30 2285 H 201.503 2.25287 -3.27615 0
M  V30 2286 N 202.5 1.5196 0.417844 0
M  V30 2287 C 203.746 1.65836 1.16732 0
M  V30 2288 C 204.079 0.382881 1.90388 0
M  V30 2289 O 203.354 -0.618368 1.84408 0
M  V30 2290 C 203.637 2.87466 2.16876 0
M  V30 2291 C 203.49 4.25041 1.47174 0
M  V30 2292 C 204.809 3.04613 3.17646 0
M  V30 2293 H 201.928 0.603515 0.423011 0
M  V30 2294 H 204.57 1.84494 0.454105 0
M  V30 2295 H 202.72 2.71689 2.777 0
M  V30 2296 H 204.392 4.52527 0.895376 0
M  V30 2297 H 202.635 4.26843 0.773806 0
M  V30 2298 H 203.306 5.06176 2.20204 0
M  V30 2299 H 205.782 3.1923 2.66892 0
M  V30 2300 H 204.658 3.91247 3.8499 0
M  V30 2301 H 204.919 2.17541 3.84874 0
M  V30 2302 N 203.978 -0.674533 1.42435 0
M  V30 2303 C 205.225 -1.43459 1.42919 0
M  V30 2304 C 205.553 -1.94446 0.0457312 0
M  V30 2305 O 204.808 -1.7132 -0.94593 0
M  V30 2306 C 205.107 -2.64767 2.40069 0
M  V30 2307 C 204.773 -2.3232 3.86443 0
M  V30 2308 C 203.435 -2.23182 4.26314 0
M  V30 2309 C 205.787 -2.05977 4.78773 0
M  V30 2310 C 203.115 -1.85827 5.56494 0
M  V30 2311 C 205.467 -1.70125 6.09295 0
M  V30 2312 C 204.131 -1.59498 6.48164 0
M  V30 2313 H 203.401 -0.524952 0.522978 0
M  V30 2314 H 206.048 -0.769097 1.75377 0
M  V30 2315 H 204.353 -3.36349 2.00939 0
M  V30 2316 H 206.05 -3.22949 2.37707 0
M  V30 2317 H 202.64 -2.40334 3.54877 0
M  V30 2318 H 206.824 -2.11969 4.48757 0
M  V30 2319 H 202.08 -1.76168 5.8547 0
M  V30 2320 H 206.254 -1.48767 6.80324 0
M  V30 2321 H 203.881 -1.30322 7.48946 0
M  V30 2322 N 205.456 -1.28612 -0.910864 0
M  V30 2323 C 206.703 -1.15934 -1.66029 0
M  V30 2324 C 207.031 0.291483 -1.92303 0
M  V30 2325 O 206.286 1.22816 -1.52364 0
M  V30 2326 C 206.585 -1.90624 -3.0232 0
M  V30 2327 C 206.251 -3.40405 -2.95695 0
M  V30 2328 C 204.913 -3.81255 -2.93595 0
M  V30 2329 C 207.265 -4.359 -2.85728 0
M  V30 2330 C 204.593 -5.15936 -2.79334 0
M  V30 2331 C 206.945 -5.70657 -2.73007 0
M  V30 2332 C 205.609 -6.10779 -2.69267 0
M  V30 2333 H 204.879 -0.424234 -0.607541 0
M  V30 2334 H 207.526 -1.5942 -1.06101 0
M  V30 2335 H 205.831 -1.39696 -3.6605 0
M  V30 2336 H 207.528 -1.78228 -3.59215 0
M  V30 2337 H 204.118 -3.07927 -2.98125 0
M  V30 2338 H 208.302 -4.053 -2.86436 0
M  V30 2339 H 203.558 -5.46146 -2.74835 0
M  V30 2340 H 207.732 -6.44311 -2.64264 0
M  V30 2341 H 205.359 -7.1509 -2.57974 0
M  V30 2342 N 206.934 1.1197 -1.10907 0
M  V30 2343 C 208.18 1.8386 -0.855773 0
M  V30 2344 C 208.513 1.84134 0.617103 0
M  V30 2345 O 207.788 1.29041 1.45529 0
M  V30 2346 C 208.071 3.31305 -1.411 0
M  V30 2347 C 207.924 3.39456 -2.9511 0
M  V30 2348 C 209.243 4.2721 -1.05736 0
M  V30 2349 H 206.362 0.667545 -0.312334 0
M  V30 2350 H 209.004 1.31331 -1.37303 0
M  V30 2351 H 207.154 3.76169 -0.97105 0
M  V30 2352 H 208.826 3.03191 -3.47668 0
M  V30 2353 H 207.069 2.79849 -3.31462 0
M  V30 2354 H 207.74 4.43209 -3.29044 0
M  V30 2355 H 210.216 3.90497 -1.43706 0
M  V30 2356 H 209.092 5.28775 -1.47269 0
M  V30 2357 H 209.353 4.42088 0.0325958 0
M  V30 2358 N 208.412 0.89855 1.29475 0
M  V30 2359 C 209.362 0.346767 2.25348 0
M  V30 2360 C 210.346 -0.532509 1.51833 0
M  V30 2361 O 211.538 -0.374714 1.72988 0
M  V30 2362 C 208.667 -0.425681 3.40651 0
M  V30 2363 C 207.753 0.46845 4.21505 0
M  V30 2364 N 208.144 1.57514 4.80648 0
M  V30 2365 C 206.442 0.26603 4.45206 0
M  V30 2366 C 207.143 2.12889 5.41344 0
M  V30 2367 N 206.119 1.42208 5.24669 0
M  V30 2368 H 209.921 1.19219 2.68634 0
M  V30 2369 H 207.435 0.749473 1.44072 0
M  V30 2370 H 209.432 -0.837716 4.08397 0
M  V30 2371 H 208.092 -1.26838 2.98902 0
M  V30 2372 H 209.103 1.95789 4.79465 0
M  V30 2373 H 205.78 -0.538394 4.14014 0
M  V30 2374 H 207.17 3.05901 5.98226 0
M  V30 2375 N 209.89 -1.43072 0.660911 0
M  V30 2376 C 211.115 -2.06584 0.183805 0
M  V30 2377 C 211.54 -1.49257 -1.14472 0
M  V30 2378 O 210.898 -0.605528 -1.70889 0
M  V30 2379 C 210.946 -3.60418 0.114434 0
M  V30 2380 O 210.05 -4.01981 -0.921137 0
M  V30 2381 H 209.391 -0.656669 0.0983994 0
M  V30 2382 H 211.921 -1.83447 0.906006 0
M  V30 2383 H 211.931 -4.07946 -0.0663394 0
M  V30 2384 H 210.606 -4.01519 1.08422 0
M  V30 2385 H 209.183 -3.66029 -0.71253 0
M  V30 2386 N 211.368 -0.403325 -1.52352 0
M  V30 2387 C 212.315 0.425011 -2.26853 0
M  V30 2388 C 213.285 1.04598 -1.29029 0
M  V30 2389 O 214.47 1.07135 -1.57882 0
M  V30 2390 C 211.61 1.53888 -3.08889 0
M  V30 2391 C 210.723 0.939396 -4.21663 0
M  V30 2392 C 209.858 2.02547 -4.91068 0
M  V30 2393 C 208.897 1.40263 -5.95813 0
M  V30 2394 N 208.034 2.4286 -6.58759 0
M  V30 2395 H 212.874 -0.21674 -2.97211 0
M  V30 2396 H 210.411 -0.118722 -1.4662 0
M  V30 2397 H 212.369 2.19558 -3.54753 0
M  V30 2398 H 210.999 2.15074 -2.40714 0
M  V30 2399 H 210.051 0.171898 -3.80011 0
M  V30 2400 H 211.363 0.44436 -4.96817 0
M  V30 2401 H 210.517 2.75958 -5.40308 0
M  V30 2402 H 209.256 2.55415 -4.15469 0
M  V30 2403 H 208.261 0.653833 -5.45898 0
M  V30 2404 H 209.486 0.881719 -6.73352 0
M  V30 2405 H 207.432 2.94871 -5.85992 0
M  V30 2406 H 207.349 1.98152 -7.2957 0
M  V30 2407 H 208.617 3.15858 -7.12639 0
M  V30 2408 N 212.846 1.57033 -0.133567 0
M  V30 2409 C 214.262 1.58035 0.222944 0
M  V30 2410 C 214.462 1.14713 1.6566 0
M  V30 2411 O 213.518 0.841218 2.38075 0
M  V30 2412 C 214.831 3.00691 -0.0236116 0
M  V30 2413 C 216.379 3.12973 0.0411512 0
M  V30 2414 C 216.854 4.57654 -0.177899 0
M  V30 2415 N 218.345 4.63033 -0.124365 0
M  V30 2416 C 219.08 5.72771 -0.268553 0
M  V30 2417 N 218.576 6.91206 -0.46972 0
M  V30 2418 N 220.369 5.61718 -0.2071 0
M  V30 2419 H 212.52 1.8349 -1.06981 0
M  V30 2420 H 214.783 0.848677 -0.422436 0
M  V30 2421 H 214.489 3.36726 -1.0153 0
M  V30 2422 H 214.363 3.70614 0.701808 0
M  V30 2423 H 216.75 2.76787 1.02338 0
M  V30 2424 H 216.831 2.45564 -0.716383 0
M  V30 2425 H 216.475 4.94542 -1.15717 0
M  V30 2426 H 216.405 5.23173 0.599797 0
M  V30 2427 H 218.896 3.7789 0.027011 0
M  V30 2428 H 219.209 7.70693 -0.570212 0
M  V30 2429 H 217.554 6.93156 -0.505876 0
M  V30 2430 H 220.745 4.68072 -0.0507986 0
M  V30 2431 H 220.918 6.47195 -0.322909 0
M  V30 2432 N 214.325 -0.140222 1.56975 0
M  V30 2433 C 215.55 -0.870414 1.88251 0
M  V30 2434 C 215.975 -1.73637 0.723312 0
M  V30 2435 O 215.333 -1.78329 -0.32689 0
M  V30 2436 C 215.381 -1.69737 3.18154 0
M  V30 2437 O 214.485 -2.80229 3.02565 0
M  V30 2438 H 213.826 -0.242025 0.61832 0
M  V30 2439 H 216.356 -0.128999 2.04193 0
M  V30 2440 H 216.366 -2.09099 3.50345 0
M  V30 2441 H 215.041 -1.06152 4.02125 0
M  V30 2442 H 213.618 -2.44224 2.81796 0
M  V30 2443 N 215.803 -1.52179 -0.40978 0
M  V30 2444 C 217.05 -1.66206 -1.15679 0
M  V30 2445 C 217.378 -0.391674 -1.90516 0
M  V30 2446 O 216.633 0.62533 -1.8544 0
M  V30 2447 C 216.932 -2.83428 -2.17723 0
M  V30 2448 C 216.598 -4.21672 -1.59699 0
M  V30 2449 C 215.26 -4.59274 -1.43599 0
M  V30 2450 C 217.612 -5.07825 -1.17317 0
M  V30 2451 C 214.94 -5.80709 -0.836328 0
M  V30 2452 C 217.292 -6.29864 -0.587691 0
M  V30 2453 C 215.956 -6.66216 -0.413818 0
M  V30 2454 H 215.226 -0.608192 -0.423301 0
M  V30 2455 H 217.873 -1.86279 -0.444097 0
M  V30 2456 H 216.178 -2.57687 -2.95135 0
M  V30 2457 H 217.875 -2.91477 -2.75394 0
M  V30 2458 H 214.465 -3.9204 -1.73213 0
M  V30 2459 H 218.649 -4.79359 -1.28565 0
M  V30 2460 H 213.905 -6.07498 -0.689626 0
M  V30 2461 H 218.079 -6.95948 -0.250894 0
M  V30 2462 H 215.706 -7.60182 0.0529471 0
M  V30 2463 N 217.281 0.66697 -1.42791 0
M  V30 2464 C 218.509 1.45505 -1.47091 0
M  V30 2465 C 218.924 1.8861 -0.0845873 0
M  V30 2466 O 218.281 1.58632 0.90234 0
M  V30 2467 C 218.332 2.69906 -2.40485 0
M  V30 2468 O 218.053 2.28608 -3.73725 0
M  V30 2469 C 219.554 3.63396 -2.53886 0
M  V30 2470 H 216.774 0.447459 -0.500022 0
M  V30 2471 H 219.318 0.818866 -1.8739 0
M  V30 2472 H 217.473 3.29696 -2.03419 0
M  V30 2473 H 217.887 3.08997 -4.23817 0
M  V30 2474 H 219.361 4.47387 -3.2334 0
M  V30 2475 H 219.838 4.09824 -1.57927 0
M  V30 2476 H 220.444 3.09495 -2.91706 0
M  V30 2477 N 218.759 1.29093 0.90403 0
M  V30 2478 C 219.709 1.10482 1.99443 0
M  V30 2479 C 220.693 0.0255401 1.6088 0
M  V30 2480 O 221.885 0.24677 1.75271 0
M  V30 2481 C 219.014 0.778882 3.34348 0
M  V30 2482 C 218.1 1.89749 3.79284 0
M  V30 2483 N 218.491 3.14045 3.96497 0
M  V30 2484 C 216.789 1.78955 4.08523 0
M  V30 2485 C 217.49 3.86996 4.34292 0
M  V30 2486 N 216.466 3.14909 4.43095 0
M  V30 2487 H 220.268 2.04778 2.10815 0
M  V30 2488 H 217.782 1.20155 1.09255 0
M  V30 2489 H 219.779 0.62661 4.12164 0
M  V30 2490 H 218.439 -0.156205 3.24324 0
M  V30 2491 H 219.45 3.49548 3.82148 0
M  V30 2492 H 216.127 0.926886 4.07081 0
M  V30 2493 H 217.517 4.93941 4.55491 0
M  V30 2494 N 220.237 -1.11381 1.11499 0
M  V30 2495 C 221.514 -1.7955 0.775965 0
M  V30 2496 C 221.894 -1.97859 -0.73588 0
M  V30 2497 O 221.242 -1.56376 -1.66609 0
M  V30 2498 C 221.452 -3.13196 1.53977 0
M  V30 2499 C 222.8 -3.88227 1.71944 0
M  V30 2500 O 223.824 -3.22887 1.50407 0
M  V30 2501 O 222.683 -5.05477 2.07738 0
M  V30 2502 H 219.777 -0.777728 0.28119 0
M  V30 2503 H 222.323 -1.18118 1.21845 0
M  V30 2504 H 221.095 -2.95229 2.56818 0
M  V30 2505 H 220.718 -3.82342 1.09088 0
M  V30 2506 N 221.715 -0.905404 -1.28997 0
M  V30 2507 C 222.943 -0.549846 -1.9946 0
M  V30 2508 C 223.358 0.866834 -1.67724 0
M  V30 2509 O 222.715 1.57298 -0.925404 0
M  V30 2510 C 222.766 -0.739387 -3.53858 0
M  V30 2511 O 222.487 -2.10031 -3.84472 0
M  V30 2512 C 223.988 -0.389541 -4.41585 0
M  V30 2513 H 221.208 -0.210429 -0.637151 0
M  V30 2514 H 223.752 -1.21632 -1.64396 0
M  V30 2515 H 221.907 -0.120023 -3.87214 0
M  V30 2516 H 222.321 -2.13385 -4.79132 0
M  V30 2517 H 223.795 -0.572972 -5.49018 0
M  V30 2518 H 224.272 0.673756 -4.34001 0
M  V30 2519 H 224.878 -0.986089 -4.1371 0
M  V30 2520 N 223.193 1.4272 -0.668489 0
M  V30 2521 C 224.421 2.05966 -0.196348 0
M  V30 2522 C 224.836 1.50191 1.14403 0
M  V30 2523 O 224.193 0.639208 1.7094 0
M  V30 2524 C 224.244 3.61314 -0.115815 0
M  V30 2525 O 223.965 4.1502 -1.40322 0
M  V30 2526 C 225.466 4.41663 0.380579 0
M  V30 2527 H 222.686 0.663954 -0.0969829 0
M  V30 2528 H 225.23 1.82966 -0.913446 0
M  V30 2529 H 223.385 3.83448 0.551931 0
M  V30 2530 H 223.799 5.08832 -1.27243 0
M  V30 2531 H 225.273 5.5065 0.385848 0
M  V30 2532 H 225.75 4.15792 1.41471 0
M  V30 2533 H 226.356 4.24534 -0.255209 0
M  V30 2534 N 224.671 0.411399 1.52136 0
M  V30 2535 C 225.899 -0.163076 2.06256 0
M  V30 2536 C 226.314 -1.3867 1.28125 0
M  V30 2537 O 225.671 -1.79423 0.333721 0
M  V30 2538 C 225.722 -0.511252 3.57867 0
M  V30 2539 O 225.443 0.66378 4.33042 0
M  V30 2540 C 226.944 -1.13921 4.28412 0
M  V30 2541 H 224.164 -0.0193897 0.67072 0
M  V30 2542 H 226.708 0.583007 1.96013 0
M  V30 2543 H 224.863 -1.20723 3.6811 0
M  V30 2544 H 225.277 0.372601 5.23175 0
M  V30 2545 H 226.751 -1.33302 5.35663 0
M  V30 2546 H 227.228 -2.11296 3.85033 0
M  V30 2547 H 227.834 -0.483373 4.22544 0
M  V30 2548 N 226.149 -1.5696 0.141893 0
M  V30 2549 C 227.426 -1.87553 -0.555281 0
M  V30 2550 C 227.806 -1.04699 -1.83306 0
M  V30 2551 O 227.154 -0.132346 -2.28116 0
M  V30 2552 C 227.364 -3.39093 -0.825664 0
M  V30 2553 C 228.712 -4.08199 -1.16869 0
M  V30 2554 O 229.736 -3.44242 -0.915185 0
M  V30 2555 O 228.595 -5.21139 -1.6455 0
M  V30 2556 H 225.689 -0.777188 -0.282679 0
M  V30 2557 H 228.235 -1.68763 0.17812 0
M  V30 2558 H 227.007 -3.91221 0.0788633 0
M  V30 2559 H 226.63 -3.63393 -1.61343 0
M  V30 2560 N 227.627 0.131896 -1.57047 0
M  V30 2561 C 228.575 1.18146 -2.0036 0
M  V30 2562 C 229.569 1.43614 -0.898406 0
M  V30 2563 O 230.775 1.43729 -1.08361 0
M  V30 2564 H 227.15 0.398042 -0.638018 0
M  V30 2565 H 229.121 0.789564 -2.87765 0
M  V30 2566 C 227.87 2.50341 -2.41298 0
M  V30 2567 H 227.193 2.31578 -3.25902 0
M  V30 2568 H 228.633 3.22371 -2.75414 0
M  V30 2569 C 227.092 3.11984 -1.27153 0
M  V30 2570 O 227.622 3.97484 -0.580459 0
M  V30 2571 N 225.828 2.71662 -1.03189 0
M  V30 2572 H 225.375 2.02231 -1.59564 0
M  V30 2573 H 225.333 3.13238 -0.270077 0
M  V30 2574 N 229.106 1.52395 0.401703 0
M  V30 2575 C 230.355 1.66044 1.14509 0
M  V30 2576 C 230.668 0.400216 1.91462 0
M  V30 2577 O 231.874 0.416632 2.68284 0
M  V30 2578 C 230.33 2.93388 2.0845 0
M  V30 2579 C 229.938 4.26545 1.36978 0
M  V30 2580 C 231.682 3.16402 2.83001 0
M  V30 2581 C 229.589 5.45007 2.29611 0
M  V30 2582 H 228.519 0.618562 0.431158 0
M  V30 2583 H 231.17 1.78886 0.40892 0
M  V30 2584 H 229.552 2.74263 2.8565 0
M  V30 2585 H 230.726 4.56179 0.650916 0
M  V30 2586 H 229.041 4.09692 0.74438 0
M  V30 2587 H 231.638 4.02085 3.52465 0
M  V30 2588 H 231.981 2.30943 3.46368 0
M  V30 2589 H 232.514 3.36034 2.12898 0
M  V30 2590 H 229.253 6.32835 1.70879 0
M  V30 2591 H 228.773 5.19702 2.9945 0
M  V30 2592 H 230.452 5.7838 2.89974 0
M  V30 2593 N 230.584 -0.659388 1.43143 0
M  V30 2594 C 231.517 -1.78425 1.42267 0
M  V30 2595 C 232.495 -1.60085 0.284894 0
M  V30 2596 O 233.679 -1.82351 0.477527 0
M  V30 2597 C 230.806 -3.15642 1.22833 0
M  V30 2598 C 229.852 -3.52698 2.39806 0
M  V30 2599 S 230.685 -3.53372 4.02353 0
M  V30 2600 C 231.841 -4.93256 3.85291 0
M  V30 2601 H 232.074 -1.78897 2.37452 0
M  V30 2602 H 229.607 -0.831469 1.301 0
M  V30 2603 H 231.565 -3.94838 1.12308 0
M  V30 2604 H 230.226 -3.12739 0.29207 0
M  V30 2605 H 229.419 -4.52475 2.21996 0
M  V30 2606 H 229.021 -2.80899 2.46925 0
M  V30 2607 H 231.313 -5.81751 3.47235 0
M  V30 2608 H 232.256 -5.16115 4.84799 0
M  V30 2609 H 232.664 -4.665 3.17865 0
M  V30 2610 N 232.062 -1.29571 -0.897171 0
M  V30 2611 C 232.992 -1.17473 -2.01798 0
M  V30 2612 C 233.973 -0.068323 -1.69963 0
M  V30 2613 O 235.158 -0.248239 -1.92607 0
M  V30 2614 C 232.288 -0.853099 -3.36659 0
M  V30 2615 C 231.242 -1.9161 -3.82713 0
M  V30 2616 C 230.568 -1.44773 -5.14728 0
M  V30 2617 C 231.868 -3.32535 -4.02763 0
M  V30 2618 H 233.562 -2.11237 -2.12177 0
M  V30 2619 H 231.108 -1.01699 -1.01948 0
M  V30 2620 H 233.061 -0.755165 -4.14578 0
M  V30 2621 H 231.785 0.120236 -3.26379 0
M  V30 2622 H 230.444 -2.00346 -3.07013 0
M  V30 2623 H 230.092 -0.462995 -5.00865 0
M  V30 2624 H 229.792 -2.15865 -5.46513 0
M  V30 2625 H 231.316 -1.36334 -5.95185 0
M  V30 2626 H 232.73 -3.26626 -4.71156 0
M  V30 2627 H 231.127 -4.01607 -4.45905 0
M  V30 2628 H 232.197 -3.75326 -3.07016 0
M  V30 2629 N 233.54 1.10788 -1.12088 0
M  V30 2630 C 234.956 1.34691 -0.856186 0
M  V30 2631 C 235.156 1.94791 0.515615 0
M  V30 2632 O 234.212 2.18524 1.26505 0
M  V30 2633 C 235.525 2.27208 -1.9697 0
M  V30 2634 C 237.073 2.40755 -2.00016 0
M  V30 2635 C 237.548 3.36598 -3.1059 0
M  V30 2636 N 239.039 3.44164 -3.10008 0
M  V30 2637 C 239.774 4.18284 -3.92206 0
M  V30 2638 N 239.27 4.95322 -4.84384 0
M  V30 2639 N 241.063 4.13865 -3.80357 0
M  V30 2640 H 233.214 0.70144 -2.00483 0
M  V30 2641 H 235.477 0.371405 -0.872217 0
M  V30 2642 H 235.183 1.90251 -2.958 0
M  V30 2643 H 235.057 3.27485 -1.87172 0
M  V30 2644 H 237.444 2.76982 -1.01808 0
M  V30 2645 H 237.525 1.40305 -2.13888 0
M  V30 2646 H 237.169 3.01096 -4.09028 0
M  V30 2647 H 237.099 4.36918 -2.93956 0
M  V30 2648 H 239.59 2.8922 -2.43228 0
M  V30 2649 H 239.903 5.49267 -5.43623 0
M  V30 2650 H 238.248 4.94459 -4.884 0
M  V30 2651 H 241.439 3.52773 -3.07683 0
M  V30 2652 H 241.612 4.71372 -4.44649 0
M  V30 2653 N 235.018 0.912232 1.28515 0
M  V30 2654 C 236.264 0.545405 1.95328 0
M  V30 2655 C 236.597 -0.908313 1.71649 0
M  V30 2656 O 235.872 -1.64575 1.03659 0
M  V30 2657 C 236.155 0.853483 3.4984 0
M  V30 2658 C 236.008 2.35982 3.82926 0
M  V30 2659 C 237.327 0.348589 4.38717 0
M  V30 2660 H 234.446 0.199626 0.709449 0
M  V30 2661 H 237.088 1.1412 1.5191 0
M  V30 2662 H 235.238 0.34643 3.86952 0
M  V30 2663 H 236.91 2.93738 3.55691 0
M  V30 2664 H 235.153 2.81543 3.30024 0
M  V30 2665 H 235.824 2.52593 4.90816 0
M  V30 2666 H 238.3 0.78294 4.08668 0
M  V30 2667 H 237.176 0.593242 5.45685 0
M  V30 2668 H 237.437 -0.751049 4.35674 0
M  V30 2669 N 236.496 -1.42363 0.676048 0
M  V30 2670 C 237.743 -2.01522 0.19883 0
M  V30 2671 C 238.071 -1.53456 -1.19505 0
M  V30 2672 O 237.326 -0.727967 -1.81657 0
M  V30 2673 C 237.625 -3.56929 0.183431 0
M  V30 2674 C 237.291 -4.24431 1.52215 0
M  V30 2675 C 235.953 -4.42585 1.8887 0
M  V30 2676 C 238.305 -4.62459 2.40377 0
M  V30 2677 C 235.633 -4.96039 3.13309 0
M  V30 2678 C 237.985 -5.17294 3.64129 0
M  V30 2679 C 236.649 -5.33661 4.00951 0
M  V30 2680 H 235.919 -0.737419 0.0727571 0
M  V30 2681 H 238.566 -1.70531 0.871281 0
M  V30 2682 H 236.871 -3.87594 -0.572532 0
M  V30 2683 H 238.568 -4.00486 -0.203035 0
M  V30 2684 H 235.158 -4.10661 1.22701 0
M  V30 2685 H 239.342 -4.48105 2.13343 0
M  V30 2686 H 234.598 -5.06896 3.41857 0
M  V30 2687 H 238.772 -5.45704 4.32644 0
M  V30 2688 H 236.399 -5.74845 4.9745 0
M  V30 2689 N 237.974 -0.419461 -1.51915 0
M  V30 2690 C 239.385 0.0477853 -1.86639 0
M  V30 2691 C 239.736 1.43531 -1.33766 0
M  V30 2692 O 238.861 2.05401 -0.68113 0
M  V30 2693 C 239.456 0.0934885 -3.38671 0
M  V30 2694 C 238.015 0.505097 -3.72996 0
M  V30 2695 C 237.162 -0.313792 -2.75519 0
M  V30 2696 H 240.113 -0.636088 -1.45395 0
M  V30 2697 H 240.134 0.906667 -3.6954 0
M  V30 2698 H 239.646 -0.916501 -3.77123 0
M  V30 2699 H 237.747 1.52135 -3.40126 0
M  V30 2700 H 237.86 0.242309 -4.78487 0
M  V30 2701 H 236.224 0.225363 -2.53701 0
M  V30 2702 H 237.007 -1.32232 -3.16812 0
M  V30 2703 N 239.452 1.56882 -0.150215 0
M  V30 2704 C 240.729 1.87844 0.545327 0
M  V30 2705 C 241.109 1.0567 1.82749 0
M  V30 2706 O 240.457 0.144442 2.28043 0
M  V30 2707 C 240.667 3.39526 0.80767 0
M  V30 2708 C 242.015 4.08814 1.14703 0
M  V30 2709 O 243.039 3.44723 0.896917 0
M  V30 2710 O 241.898 5.22004 1.61784 0
M  V30 2711 H 238.992 0.778677 0.278553 0
M  V30 2712 H 241.538 1.68666 -0.187068 0
M  V30 2713 H 240.31 3.91173 -0.0996096 0
M  V30 2714 H 239.933 3.64243 1.59413 0
M  V30 2715 N 240.93 -0.123565 1.57115 0
M  V30 2716 C 242.178 -0.83051 1.84247 0
M  V30 2717 C 242.499 -1.80629 0.73471 0
M  V30 2718 O 241.769 -1.94403 -0.241688 0
M  V30 2719 H 240.349 -0.309694 0.679778 0
M  V30 2720 H 243.011 -0.111976 1.94578 0
M  V30 2721 H 242.107 -1.37852 2.80006 0
M  V30 2722 N 242.408 -1.52605 -0.393616 0
M  V30 2723 C 243.358 -1.73436 -1.48 0
M  V30 2724 C 244.342 -0.588386 -1.49756 0
M  V30 2725 O 245.534 -0.846047 -1.5547 0
M  V30 2726 C 242.663 -1.90247 -2.85764 0
M  V30 2727 C 241.749 -3.10763 -2.88595 0
M  V30 2728 N 242.14 -4.33196 -2.61103 0
M  V30 2729 C 240.438 -3.10914 -3.19763 0
M  V30 2730 C 241.139 -5.1477 -2.70899 0
M  V30 2731 N 240.115 -4.50356 -3.04435 0
M  V30 2732 H 243.917 -2.65727 -1.25563 0
M  V30 2733 H 241.431 -1.5085 -0.601513 0
M  V30 2734 H 243.428 -2.03291 -3.63976 0
M  V30 2735 H 242.088 -0.991663 -3.09186 0
M  V30 2736 H 243.099 -4.61408 -2.35209 0
M  V30 2737 H 239.776 -2.29626 -3.4868 0
M  V30 2738 H 241.166 -6.22355 -2.53227 0
M  V30 2739 N 243.887 0.651787 -1.4349 0
M  V30 2740 C 245.133 1.41376 -1.45398 0
M  V30 2741 C 245.466 1.94041 -0.0784823 0
M  V30 2742 O 244.741 1.72379 0.900878 0
M  V30 2743 C 245.024 2.59414 -2.49752 0
M  V30 2744 C 244.877 2.12232 -3.96582 0
M  V30 2745 C 246.196 3.61626 -2.50827 0
M  V30 2746 H 243.315 0.512719 -0.529422 0
M  V30 2747 H 245.957 0.738796 -1.75048 0
M  V30 2748 H 244.107 3.16997 -2.246 0
M  V30 2749 H 245.779 1.59639 -4.32797 0
M  V30 2750 H 244.022 1.43592 -4.09346 0
M  V30 2751 H 244.693 2.9712 -4.65214 0
M  V30 2752 H 247.169 3.13805 -2.7325 0
M  V30 2753 H 246.045 4.41766 -3.25783 0
M  V30 2754 H 246.306 4.14314 -1.5426 0
M  V30 2755 N 245.365 1.30045 0.890287 0
M  V30 2756 C 246.295 1.18541 2.01172 0
M  V30 2757 C 247.276 0.0773356 1.69924 0
M  V30 2758 O 248.461 0.25845 1.92473 0
M  V30 2759 C 245.591 0.870941 3.36202 0
M  V30 2760 C 244.545 1.93637 3.81692 0
M  V30 2761 C 243.871 1.475 5.13953 0
M  V30 2762 C 245.171 3.34666 4.00994 0
M  V30 2763 H 246.865 2.12359 2.11054 0
M  V30 2764 H 244.411 1.02238 1.01407 0
M  V30 2765 H 246.364 0.777141 4.14172 0
M  V30 2766 H 245.088 -0.102926 3.26438 0
M  V30 2767 H 243.747 2.01972 3.05946 0
M  V30 2768 H 243.395 0.489551 5.00612 0
M  V30 2769 H 243.095 2.1876 5.4536 0
M  V30 2770 H 244.619 1.39489 5.94454 0
M  V30 2771 H 246.033 3.2912 4.69417 0
M  V30 2772 H 244.43 4.03966 4.43769 0
M  V30 2773 H 245.5 3.76949 3.05021 0
M  V30 2774 N 246.843 -1.10192 1.12674 0
M  V30 2775 C 248.073 -1.85713 0.905213 0
M  V30 2776 C 248.481 -1.81056 -0.549108 0
M  V30 2777 O 247.824 -1.19927 -1.39151 0
M  V30 2778 C 247.886 -3.34972 1.30516 0
M  V30 2779 C 247.55 -3.63385 2.77129 0
M  V30 2780 C 248.547 -3.59772 3.75313 0
M  V30 2781 C 246.232 -3.91981 3.14096 0
M  V30 2782 C 248.226 -3.84354 5.08479 0
M  V30 2783 C 245.913 -4.16218 4.47443 0
M  V30 2784 C 246.911 -4.12395 5.44444 0
M  V30 2785 O 246.599 -4.36014 6.75387 0
M  V30 2786 H 246.331 -0.593719 0.323223 0
M  V30 2787 H 248.885 -1.40198 1.50112 0
M  V30 2788 H 247.115 -3.81156 0.652463 0
M  V30 2789 H 248.804 -3.91886 1.05736 0
M  V30 2790 H 249.57 -3.37716 3.48099 0
M  V30 2791 H 245.449 -3.94085 2.39202 0
M  V30 2792 H 248.993 -3.81285 5.84181 0
M  V30 2793 H 244.89 -4.37754 4.74386 0
M  V30 2794 H 245.658 -4.53516 6.8137 0
M  V30 2795 N 248.321 -0.919034 -1.28029 0
M  V30 2796 C 249.546 -0.570357 -1.99403 0
M  V30 2797 C 249.971 0.842486 -1.68178 0
M  V30 2798 O 249.329 1.56391 -0.917141 0
M  V30 2799 C 249.377 -0.792541 -3.51783 0
M  V30 2800 O 248.481 0.145988 -4.12142 0
M  V30 2801 H 247.822 -0.220555 -0.6263 0
M  V30 2802 H 250.352 -1.23592 -1.63053 0
M  V30 2803 H 250.362 -0.704708 -4.01868 0
M  V30 2804 H 249.037 -1.82247 -3.73844 0
M  V30 2805 H 247.614 0.00897528 -3.72899 0
M  V30 2806 N 249.799 1.42003 -0.683588 0
M  V30 2807 C 250.732 2.28166 0.039592 0
M  V30 2808 C 251.71 1.41562 0.799942 0
M  V30 2809 O 252.894 1.70997 0.793248 0
M  V30 2810 C 250.021 3.21575 1.06335 0
M  V30 2811 C 249.067 4.24643 0.397562 0
M  V30 2812 S 249.9 5.2869 -0.851296 0
M  V30 2813 C 251.056 6.25666 0.171166 0
M  V30 2814 H 251.289 2.89153 -0.691229 0
M  V30 2815 H 248.822 1.46962 -0.473435 0
M  V30 2816 H 250.78 3.75928 1.6489 0
M  V30 2817 H 249.441 2.59707 1.76667 0
M  V30 2818 H 248.634 4.90223 1.17035 0
M  V30 2819 H 248.236 3.73824 -0.114611 0
M  V30 2820 H 250.528 6.69653 1.02819 0
M  V30 2821 H 251.471 7.06666 -0.450397 0
M  V30 2822 H 251.879 5.62095 0.520578 0
M  V30 2823 N 251.277 0.427512 1.51691 0
M  V30 2824 C 252.693 0.0792977 1.59403 0
M  V30 2825 C 252.893 -1.41035 1.43914 0
M  V30 2826 O 251.949 -2.17922 1.27539 0
M  V30 2827 C 253.262 0.590636 2.94842 0
M  V30 2828 C 254.81 0.550215 3.08126 0
M  V30 2829 C 255.285 1.03836 4.46074 0
M  V30 2830 N 256.776 0.995943 4.52366 0
M  V30 2831 C 257.511 1.34463 5.57411 0
M  V30 2832 N 257.007 1.76569 6.69922 0
M  V30 2833 N 258.8 1.26343 5.47717 0
M  V30 2834 H 250.951 1.39687 1.60004 0
M  V30 2835 H 253.214 0.575003 0.753708 0
M  V30 2836 H 252.92 1.63251 3.11516 0
M  V30 2837 H 252.794 0.0102061 3.77199 0
M  V30 2838 H 255.181 -0.482654 2.91126 0
M  V30 2839 H 255.262 1.16693 2.27632 0
M  V30 2840 H 254.906 2.06965 4.63819 0
M  V30 2841 H 254.836 0.398286 5.25092 0
M  V30 2842 H 257.327 0.68661 3.7161 0
M  V30 2843 H 257.64 2.01438 7.46085 0
M  V30 2844 H 255.985 1.80488 6.71155 0
M  V30 2845 H 259.176 0.933209 4.58703 0
M  V30 2846 H 259.349 1.53846 6.29472 0
M  V30 2847 N 252.755 -1.56801 0.158532 0
M  V30 2848 C 254.004 -1.95665 -0.489702 0
M  V30 2849 C 254.317 -1.04654 -1.65248 0
M  V30 2850 O 255.523 -1.33146 -2.3661 0
M  V30 2851 C 253.979 -3.47874 -0.922582 0
M  V30 2852 C 253.587 -4.47489 0.213893 0
M  V30 2853 C 255.331 -3.95583 -1.53996 0
M  V30 2854 C 253.238 -5.90921 -0.237903 0
M  V30 2855 H 252.168 -0.730516 -0.186716 0
M  V30 2856 H 254.819 -1.81861 0.244722 0
M  V30 2857 H 253.201 -3.57051 -1.71261 0
M  V30 2858 H 254.375 -4.50017 0.991036 0
M  V30 2859 H 252.69 -4.09764 0.740407 0
M  V30 2860 H 255.287 -5.0019 -1.8898 0
M  V30 2861 H 255.63 -3.37789 -2.43319 0
M  V30 2862 H 256.163 -3.8937 -0.814611 0
M  V30 2863 H 252.902 -6.52559 0.620236 0
M  V30 2864 H 252.422 -5.91729 -0.980676 0
M  V30 2865 H 254.101 -6.43352 -0.686067 0
M  V30 2866 N 254.233 0.115231 -1.57178 0
M  V30 2867 C 255.461 0.836437 -1.89239 0
M  V30 2868 C 255.876 1.73256 -0.750175 0
M  V30 2869 O 255.233 1.80357 0.278832 0
M  V30 2870 C 255.284 1.66671 -3.20785 0
M  V30 2871 O 255.005 0.806652 -4.3061 0
M  V30 2872 C 256.506 2.49274 -3.66575 0
M  V30 2873 H 253.726 0.240253 -0.626514 0
M  V30 2874 H 256.27 0.0984932 -2.04263 0
M  V30 2875 H 254.425 2.35737 -3.0742 0
M  V30 2876 H 254.839 1.37969 -5.06028 0
M  V30 2877 H 256.313 3.03055 -4.6137 0
M  V30 2878 H 256.79 3.26807 -2.93417 0
M  V30 2879 H 257.396 1.85443 -3.82741 0
M  V30 2880 N 255.711 1.52812 0.385517 0
M  V30 2881 C 256.957 1.68275 1.13188 0
M  V30 2882 C 257.29 0.423179 1.89533 0
M  V30 2883 O 256.565 -0.579113 1.85679 0
M  V30 2884 C 256.848 2.92001 2.1073 0
M  V30 2885 C 256.701 4.28067 1.38125 0
M  V30 2886 C 258.02 3.11283 3.11113 0
M  V30 2887 H 255.139 0.612352 0.410115 0
M  V30 2888 H 257.781 1.85415 0.414869 0
M  V30 2889 H 255.931 2.77519 2.71874 0
M  V30 2890 H 257.603 4.54324 0.799187 0
M  V30 2891 H 255.846 4.28388 0.683092 0
M  V30 2892 H 256.517 5.10733 2.09417 0
M  V30 2893 H 258.993 3.2482 2.6006 0
M  V30 2894 H 257.869 3.99325 3.76605 0
M  V30 2895 H 258.13 2.25656 3.80173 0
M  V30 2896 N 257.189 -0.644168 1.43834 0
M  V30 2897 C 258.417 -1.43147 1.49387 0
M  V30 2898 C 258.832 -1.88452 0.114583 0
M  V30 2899 O 258.189 -1.60047 -0.876989 0
M  V30 2900 C 258.24 -2.66046 2.44748 0
M  V30 2901 O 257.961 -2.22633 3.77314 0
M  V30 2902 C 259.462 -3.59311 2.59635 0
M  V30 2903 H 256.682 -0.439447 0.507077 0
M  V30 2904 H 259.226 -0.78895 1.88669 0
M  V30 2905 H 257.381 -3.26418 2.08638 0
M  V30 2906 H 257.795 -3.02216 4.28679 0
M  V30 2907 H 259.269 -4.42187 3.30416 0
M  V30 2908 H 259.746 -4.07259 1.64427 0
M  V30 2909 H 260.352 -3.04816 2.96593 0
M  V30 2910 N 258.668 -1.30515 -0.883378 0
M  V30 2911 C 259.631 -1.1701 -1.97082 0
M  V30 2912 C 260.631 -0.10089 -1.60483 0
M  V30 2913 O 261.821 -0.349127 -1.70666 0
M  V30 2914 C 258.953 -0.793045 -3.31547 0
M  V30 2915 H 260.146 -2.13622 -2.10489 0
M  V30 2916 H 257.699 -1.13935 -1.06998 0
M  V30 2917 H 258.434 0.172499 -3.23841 0
M  V30 2918 H 258.219 -1.56576 -3.5948 0
M  V30 2919 H 259.709 -0.722073 -4.1131 0
M  V30 2920 N 260.146 1.09593 -1.13257 0
M  V30 2921 C 261.079 2.15451 -0.752061 0
M  V30 2922 C 262.057 1.60493 0.260913 0
M  V30 2923 O 263.241 1.8788 0.152819 0
M  V30 2924 C 260.368 3.38506 -0.114594 0
M  V30 2925 C 259.414 4.12183 -1.09579 0
M  V30 2926 S 260.247 4.6661 -2.62745 0
M  V30 2927 C 261.403 5.92966 -2.00354 0
M  V30 2928 H 261.636 2.47395 -1.64872 0
M  V30 2929 H 259.169 1.21515 -0.952545 0
M  V30 2930 H 261.127 4.09757 0.246808 0
M  V30 2931 H 259.788 3.04784 0.759309 0
M  V30 2932 H 258.981 5.00445 -0.597545 0
M  V30 2933 H 258.583 3.46785 -1.40057 0
M  V30 2934 H 260.875 6.63882 -1.35156 0
M  V30 2935 H 261.818 6.47467 -2.86691 0
M  V30 2936 H 262.226 5.45405 -1.4558 0
M  V30 2937 N 261.624 0.925811 1.2754 0
M  V30 2938 C 262.864 0.572521 1.96218 0
M  V30 2939 C 263.228 -0.869719 1.71172 0
M  V30 2940 O 264.429 -1.33119 2.33523 0
M  V30 2941 C 262.7 0.887325 3.4621 0
M  V30 2942 S 264.259 0.642266 4.34074 0
M  V30 2943 H 261.077 0.211403 0.678845 0
M  V30 2944 H 263.679 1.19384 1.54815 0
M  V30 2945 H 262.383 1.93469 3.61936 0
M  V30 2946 H 261.914 0.255123 3.92572 0
M  V30 2947 H 263.929 -0.500822 4.93666 0
M  V30 2948 N 263.102 -1.41638 0.69111 0
M  V30 2949 C 264.05 -2.32597 0.0115199 0
M  V30 2950 C 265.044 -1.5072 -0.773296 0
M  V30 2951 O 266.25 -1.66685 -0.67942 0
M  V30 2952 H 262.625 -0.751849 -0.0150746 0
M  V30 2953 H 264.596 -2.87593 0.795791 0
M  V30 2954 C 263.345 -3.35467 -0.914172 0
M  V30 2955 H 262.668 -3.9852 -0.319687 0
M  V30 2956 H 264.108 -4.01662 -1.35808 0
M  V30 2957 C 262.567 -2.69004 -2.02826 0
M  V30 2958 O 263.097 -2.53444 -3.11655 0
M  V30 2959 N 261.303 -2.2777 -1.80469 0
M  V30 2960 H 260.85 -2.40626 -0.919615 0
M  V30 2961 H 260.808 -1.83635 -2.55197 0
M  V30 2962 N 264.58 -0.43555 -1.51462 0
M  V30 2963 C 265.513 0.421989 -2.24264 0
M  V30 2964 C 266.491 1.02619 -1.26127 0
M  V30 2965 O 267.675 1.069 -1.55257 0
M  V30 2966 C 264.802 1.588 -2.99166 0
M  V30 2967 C 263.848 1.10465 -4.11946 0
M  V30 2968 S 264.681 0.048146 -5.35478 0
M  V30 2969 C 265.837 1.21887 -6.13917 0
M  V30 2970 H 266.07 -0.196102 -2.96653 0
M  V30 2971 H 263.603 -0.220054 -1.52824 0
M  V30 2972 H 265.561 2.25647 -3.42919 0
M  V30 2973 H 264.222 2.1775 -2.26371 0
M  V30 2974 H 263.415 1.97654 -4.63626 0
M  V30 2975 H 263.017 0.51445 -3.70445 0
M  V30 2976 H 265.309 2.13756 -6.42895 0
M  V30 2977 H 266.252 0.742076 -7.04201 0
M  V30 2978 H 266.66 1.45663 -5.45383 0
M  V30 2979 N 266.058 1.56714 -0.166846 0
M  V30 2980 C 267.335 1.88412 0.525373 0
M  V30 2981 C 267.715 1.07602 1.81618 0
M  V30 2982 O 267.063 0.168621 2.27877 0
M  V30 2983 C 267.273 3.40363 0.771613 0
M  V30 2984 C 268.621 4.10007 1.1036 0
M  V30 2985 O 269.645 3.45655 0.860304 0
M  V30 2986 O 268.504 5.2369 1.56239 0
M  V30 2987 H 265.598 0.781587 0.270278 0
M  V30 2988 H 268.144 1.68458 -0.204946 0
M  V30 2989 H 266.916 3.91046 -0.141093 0
M  V30 2990 H 266.539 3.65914 1.55541 0
M  V30 2991 N 267.536 -0.106894 1.57237 0
M  V30 2992 C 268.783 -0.812526 1.85484 0
M  V30 2993 C 269.111 -1.79304 0.753687 0
M  V30 2994 O 268.366 -1.94047 -0.253853 0
M  V30 2995 C 268.665 -1.58628 3.20268 0
M  V30 2996 C 268.331 -0.748967 4.44636 0
M  V30 2997 C 266.993 -0.518104 4.78403 0
M  V30 2998 C 269.345 -0.166122 5.20935 0
M  V30 2999 C 266.673 0.305659 5.85903 0
M  V30 3000 C 269.025 0.644899 6.29304 0
M  V30 3001 C 267.689 0.885965 6.61594 0
M  V30 3002 H 266.959 -0.297324 0.678734 0
M  V30 3003 H 269.606 -0.0744332 1.91355 0
M  V30 3004 H 267.911 -2.39562 3.10028 0
M  V30 3005 H 269.608 -2.13643 3.39349 0
M  V30 3006 H 266.198 -0.939006 4.18187 0
M  V30 3007 H 270.382 -0.33167 4.95191 0
M  V30 3008 H 265.638 0.501528 6.0934 0
M  V30 3009 H 269.812 1.10345 6.87602 0
M  V30 3010 H 267.439 1.52609 7.44725 0
M  V30 3011 N 269.014 -1.53014 -0.377408 0
M  V30 3012 C 270.239 -1.72818 -1.14668 0
M  V30 3013 C 270.664 -0.450725 -1.8262 0
M  V30 3014 O 270.022 0.59439 -1.7128 0
M  V30 3015 C 270.07 -2.88627 -2.16164 0
M  V30 3016 O 269.174 -2.56409 -3.22998 0
M  V30 3017 H 268.515 -0.574301 -0.333278 0
M  V30 3018 H 271.045 -1.99853 -0.438152 0
M  V30 3019 H 271.055 -3.14455 -2.59966 0
M  V30 3020 H 269.73 -3.81294 -1.66095 0
M  V30 3021 H 268.307 -2.4136 -2.84253 0
M  V30 3022 N 270.492 0.636531 -1.44174 0
M  V30 3023 C 271.442 1.74233 -1.47061 0
M  V30 3024 C 272.426 1.57331 -0.337034 0
M  V30 3025 O 273.618 1.67159 -0.581973 0
M  V30 3026 C 270.747 3.12897 -1.41246 0
M  V30 3027 C 269.833 3.35288 -2.59698 0
M  V30 3028 N 270.224 3.2807 -3.84972 0
M  V30 3029 C 268.522 3.66065 -2.54778 0
M  V30 3030 C 269.223 3.51001 -4.63867 0
M  V30 3031 N 268.199 3.73616 -3.94857 0
M  V30 3032 H 272.001 1.67103 -2.41773 0
M  V30 3033 H 269.515 0.838806 -1.3906 0
M  V30 3034 H 271.512 3.92189 -1.41398 0
M  V30 3035 H 270.172 3.21197 -0.47569 0
M  V30 3036 H 271.183 3.07109 -4.17019 0
M  V30 3037 H 267.86 3.81379 -1.6987 0
M  V30 3038 H 269.25 3.51059 -5.72894 0
M  V30 3039 N 271.97 1.30982 0.876444 0
M  V30 3040 C 273.217 1.20296 1.62896 0
M  V30 3041 C 273.545 -0.240395 1.93009 0
M  V30 3042 O 272.8 -1.18733 1.55567 0
M  V30 3043 C 273.099 1.98572 2.9716 0
M  V30 3044 C 272.765 3.48125 2.86566 0
M  V30 3045 C 271.427 3.88905 2.83383 0
M  V30 3046 C 273.779 4.43322 2.74071 0
M  V30 3047 C 271.107 5.2316 2.65556 0
M  V30 3048 C 273.459 5.77695 2.57781 0
M  V30 3049 C 272.123 6.17704 2.52979 0
M  V30 3050 H 271.393 0.440193 0.59608 0
M  V30 3051 H 274.04 1.62177 1.01837 0
M  V30 3052 H 272.345 1.49352 3.62217 0
M  V30 3053 H 274.042 1.8769 3.54364 0
M  V30 3054 H 270.632 3.15723 2.89856 0
M  V30 3055 H 274.816 4.12752 2.75589 0
M  V30 3056 H 270.072 5.53241 2.60259 0
M  V30 3057 H 274.246 6.51091 2.47089 0
M  V30 3058 H 271.873 7.21678 2.38924 0
M  V30 3059 N 273.449 -1.08991 1.13837 0
M  V30 3060 C 274.86 -1.62746 0.914917 0
M  V30 3061 C 275.211 -1.88403 -0.547594 0
M  V30 3062 O 274.336 -1.63706 -1.41525 0
M  V30 3063 C 274.931 -2.95662 1.65437 0
M  V30 3064 C 273.49 -3.46225 1.47666 0
M  V30 3065 C 272.637 -2.20562 1.6807 0
M  V30 3066 H 275.588 -0.922946 1.29102 0
M  V30 3067 H 275.609 -3.63825 1.11407 0
M  V30 3068 H 275.121 -2.76956 2.71877 0
M  V30 3069 H 273.222 -3.70046 0.435478 0
M  V30 3070 H 273.335 -4.23368 2.24268 0
M  V30 3071 H 271.699 -2.29439 1.10589 0
M  V30 3072 H 272.482 -2.0437 2.7584 0
M  V30 3073 N 274.927 -0.932562 -1.27047 0
M  V30 3074 C 275.857 -0.452902 -2.29066 0
M  V30 3075 C 276.838 0.489338 -1.62909 0
M  V30 3076 O 278.023 0.393046 -1.90181 0
M  V30 3077 C 275.153 0.290698 -3.46081 0
M  V30 3078 C 274.107 -0.564168 -4.24265 0
M  V30 3079 C 273.433 0.308886 -5.33807 0
M  V30 3080 C 274.733 -1.83112 -4.89149 0
M  V30 3081 H 276.427 -1.30552 -2.69437 0
M  V30 3082 H 273.973 -0.629201 -1.29526 0
M  V30 3083 H 275.926 0.637233 -4.16554 0
M  V30 3084 H 274.65 1.17738 -3.0464 0
M  V30 3085 H 273.309 -0.893477 -3.55545 0
M  V30 3086 H 272.957 1.19467 -4.88607 0
M  V30 3087 H 272.657 -0.259633 -5.87026 0
M  V30 3088 H 274.181 0.650884 -6.07121 0
M  V30 3089 H 275.595 -1.55236 -5.51883 0
M  V30 3090 H 273.992 -2.34353 -5.52448 0
M  V30 3091 H 275.062 -2.54772 -4.12576 0
M  V30 3092 N 276.405 1.4127 -0.698611 0
M  V30 3093 C 277.682 1.94955 -0.158762 0
M  V30 3094 C 278.062 1.63781 1.33188 0
M  V30 3095 O 277.41 0.946423 2.07979 0
M  V30 3096 C 277.62 3.46044 -0.453309 0
M  V30 3097 C 278.968 4.22872 -0.382707 0
M  V30 3098 O 279.992 3.54076 -0.388396 0
M  V30 3099 O 278.851 5.45407 -0.345463 0
M  V30 3100 H 275.945 0.82683 -0.0167505 0
M  V30 3101 H 278.491 1.50971 -0.77498 0
M  V30 3102 H 277.263 3.62028 -1.48498 0
M  V30 3103 H 276.886 3.97128 0.19373 0
M  V30 3104 N 277.883 0.443576 1.51229 0
M  V30 3105 C 279.108 -0.121648 2.07043 0
M  V30 3106 C 279.533 -1.35156 1.30823 0
M  V30 3107 O 278.891 -1.7793 0.347934 0
M  V30 3108 C 278.939 -0.41624 3.5819 0
M  V30 3109 O 278.043 -1.50163 3.8409 0
M  V30 3110 H 277.384 0.000871367 0.663999 0
M  V30 3111 H 279.914 0.626706 1.94765 0
M  V30 3112 H 279.924 -0.664867 4.02546 0
M  V30 3113 H 278.599 0.482653 4.1309 0
M  V30 3114 H 277.176 -1.24248 3.51592 0
M  V30 3115 N 279.361 -1.56624 0.175154 0
M  V30 3116 C 280.293 -2.15333 -0.785128 0
M  V30 3117 C 281.306 -1.1099 -1.19101 0
M  V30 3118 O 282.495 -1.38162 -1.13019 0
M  V30 3119 C 279.595 -2.68427 -2.06882 0
M  V30 3120 C 278.768 -3.97466 -1.8259 0
M  V30 3121 C 277.827 -4.35585 -2.95215 0
M  V30 3122 O 276.853 -5.03389 -2.65684 0
M  V30 3123 N 278.055 -3.97457 -4.23094 0
M  V30 3124 H 280.82 -2.98359 -0.283187 0
M  V30 3125 H 278.381 -1.61898 -0.00749817 0
M  V30 3126 H 280.373 -2.90924 -2.81328 0
M  V30 3127 H 278.943 -1.89968 -2.48256 0
M  V30 3128 H 278.163 -3.83307 -0.920287 0
M  V30 3129 H 279.451 -4.81736 -1.63733 0
M  V30 3130 H 278.849 -3.42878 -4.49945 0
M  V30 3131 H 277.406 -4.24947 -4.9423 0
M  V30 3132 N 280.839 0.0985539 -1.57292 0
M  V30 3133 C 282.067 0.816318 -1.90115 0
M  V30 3134 C 282.482 1.72451 -0.768509 0
M  V30 3135 O 281.839 1.80643 0.259687 0
M  V30 3136 C 281.89 1.63259 -3.22535 0
M  V30 3137 O 281.611 0.760934 -4.31441 0
M  V30 3138 C 283.112 2.45372 -3.69199 0
M  V30 3139 H 280.332 0.233595 -0.629027 0
M  V30 3140 H 282.876 0.0768229 -2.04356 0
M  V30 3141 H 281.031 2.32463 -3.09903 0
M  V30 3142 H 281.445 1.32595 -5.07463 0
M  V30 3143 H 282.919 2.98144 -4.64558 0
M  V30 3144 H 283.396 3.23677 -2.96867 0
M  V30 3145 H 284.002 1.81373 -3.84687 0
M  V30 3146 N 282.317 1.53212 0.369288 0
M  V30 3147 C 283.557 1.70915 1.12105 0
M  V30 3148 C 283.921 0.449444 1.86665 0
M  V30 3149 O 285.122 0.503105 2.6405 0
M  V30 3150 C 283.393 2.9222 2.05772 0
M  V30 3151 S 284.952 3.30609 2.88519 0
M  V30 3152 H 281.77 0.601445 0.379189 0
M  V30 3153 H 284.372 1.91306 0.402794 0
M  V30 3154 H 283.076 3.82103 1.49752 0
M  V30 3155 H 282.607 2.7422 2.82076 0
M  V30 3156 H 284.622 2.82333 4.08047 0
M  V30 3157 N 283.795 -0.628877 1.44509 0
M  V30 3158 C 285.02 -1.42048 1.5112 0
M  V30 3159 C 285.445 -1.87594 0.137818 0
M  V30 3160 O 284.803 -1.58873 -0.873437 0
M  V30 3161 C 284.851 -2.61541 2.48251 0
M  V30 3162 O 283.955 -3.61453 1.98559 0
M  V30 3163 H 283.296 -0.424942 0.510216 0
M  V30 3164 H 285.826 -0.767374 1.89664 0
M  V30 3165 H 285.836 -3.09057 2.66361 0
M  V30 3166 H 284.511 -2.27736 3.48007 0
M  V30 3167 H 283.088 -3.20731 1.90227 0
M  V30 3168 N 285.273 -1.31445 -0.869486 0
M  V30 3169 C 286.203 -1.21727 -1.99261 0
M  V30 3170 C 287.184 -0.104359 -1.6978 0
M  V30 3171 O 288.369 -0.289038 -1.92037 0
M  V30 3172 C 285.499 -0.924317 -3.34774 0
M  V30 3173 C 284.453 -1.99685 -3.78563 0
M  V30 3174 C 283.779 -1.55658 -5.11541 0
M  V30 3175 C 285.079 -3.41003 -3.95619 0
M  V30 3176 H 286.773 -2.1569 -2.07649 0
M  V30 3177 H 284.319 -1.03839 -0.997675 0
M  V30 3178 H 286.272 -0.842934 -4.12883 0
M  V30 3179 H 284.996 0.0509793 -3.2656 0
M  V30 3180 H 283.655 -2.06813 -3.02694 0
M  V30 3181 H 283.303 -0.569132 -4.9977 0
M  V30 3182 H 283.003 -2.27409 -5.41811 0
M  V30 3183 H 284.527 -1.48928 -5.92159 0
M  V30 3184 H 285.941 -3.36547 -4.64122 0
M  V30 3185 H 284.338 -4.10975 -4.37286 0
M  V30 3186 H 285.408 -3.81754 -2.98985 0
M  V30 3187 N 286.751 1.08385 -1.14413 0
M  V30 3188 C 287.661 2.18856 -0.844951 0
M  V30 3189 C 288.677 1.73121 0.174668 0
M  V30 3190 O 289.853 2.014 0.00312857 0
M  V30 3191 C 286.918 3.45155 -0.32696 0
M  V30 3192 C 285.979 4.05513 -1.40916 0
M  V30 3193 C 285.212 5.25784 -0.915793 0
M  V30 3194 O 285.435 5.69884 0.242651 0
M  V30 3195 O 284.369 5.77545 -1.69487 0
M  V30 3196 H 288.195 2.46919 -1.76818 0
M  V30 3197 H 285.78 1.17524 -0.922411 0
M  V30 3198 H 287.662 4.21377 -0.0440211 0
M  V30 3199 H 286.337 3.18668 0.568539 0
M  V30 3200 H 285.244 3.30879 -1.74556 0
M  V30 3201 H 286.577 4.3625 -2.27919 0
M  V30 3202 N 288.23 0.939286 1.26551 0
M  V30 3203 C 289.16 0.465044 2.28822 0
M  V30 3204 C 290.141 -0.480692 1.63167 0
M  V30 3205 O 291.326 -0.382955 1.90387 0
M  V30 3206 C 288.456 -0.27234 3.46231 0
M  V30 3207 C 287.41 0.58666 4.2396 0
M  V30 3208 C 286.736 -0.280573 5.33963 0
M  V30 3209 C 288.036 1.85704 4.88171 0
M  V30 3210 H 289.73 1.31979 2.68741 0
M  V30 3211 H 287.276 0.636061 1.29191 0
M  V30 3212 H 289.229 -0.615133 4.16886 0
M  V30 3213 H 287.953 -1.16121 3.0526 0
M  V30 3214 H 286.612 0.91232 3.55067 0
M  V30 3215 H 286.26 -1.16874 4.89234 0
M  V30 3216 H 285.96 0.29076 5.8688 0
M  V30 3217 H 287.484 -0.618678 6.07458 0
M  V30 3218 H 288.898 1.58161 5.51052 0
M  V30 3219 H 287.295 2.37279 5.51197 0
M  V30 3220 H 288.365 2.56957 4.11219 0
M  V30 3221 N 289.708 -1.40897 0.706093 0
M  V30 3222 C 290.618 -2.3455 0.0482286 0
M  V30 3223 C 291.634 -1.56796 -0.754396 0
M  V30 3224 O 292.81 -1.89228 -0.689538 0
M  V30 3225 C 289.875 -3.35625 -0.869303 0
M  V30 3226 C 288.936 -4.29261 -0.0576994 0
M  V30 3227 C 288.169 -5.25508 -0.931531 0
M  V30 3228 O 288.392 -5.27472 -2.17092 0
M  V30 3229 O 287.326 -6.00727 -0.375587 0
M  V30 3230 H 291.152 -2.92407 0.820476 0
M  V30 3231 H 288.737 -1.4193 0.4665 0
M  V30 3232 H 290.619 -3.97635 -1.39514 0
M  V30 3233 H 289.294 -2.80196 -1.62086 0
M  V30 3234 H 288.201 -3.70566 0.512988 0
M  V30 3235 H 289.534 -4.87817 0.655426 0
M  V30 3236 N 291.186 -0.45159 -1.50991 0
M  V30 3237 C 292.411 0.110667 -2.07105 0
M  V30 3238 C 292.836 1.3446 -1.31538 0
M  V30 3239 O 292.194 1.77743 -0.357365 0
M  V30 3240 C 292.242 0.397238 -3.58405 0
M  V30 3241 O 291.346 1.48124 -3.84881 0
M  V30 3242 H 290.687 -0.00439271 -0.663985 0
M  V30 3243 H 293.217 -0.637026 -1.9443 0
M  V30 3244 H 293.227 0.64351 -4.02893 0
M  V30 3245 H 291.902 -0.504553 -4.12828 0
M  V30 3246 H 290.479 1.22381 -3.52246 0
M  V30 3247 N 292.664 1.56529 -0.183458 0
M  V30 3248 C 293.894 2.01331 0.463612 0
M  V30 3249 C 294.302 1.06278 1.5653 0
M  V30 3250 O 293.645 0.0577976 1.83609 0
M  V30 3251 C 293.707 3.42547 1.09096 0
M  V30 3252 C 293.371 4.56817 0.129442 0
M  V30 3253 C 294.368 5.15734 -0.656807 0
M  V30 3254 C 292.053 5.02295 0.02174 0
M  V30 3255 C 294.047 6.1857 -1.53784 0
M  V30 3256 C 291.734 6.04978 -0.862864 0
M  V30 3257 C 292.732 6.62988 -1.64123 0
M  V30 3258 O 292.42 7.63677 -2.51103 0
M  V30 3259 H 292.152 0.664917 0.121907 0
M  V30 3260 H 294.706 2.034 -0.285954 0
M  V30 3261 H 292.936 3.37428 1.88889 0
M  V30 3262 H 294.625 3.71228 1.64148 0
M  V30 3263 H 295.391 4.81473 -0.583839 0
M  V30 3264 H 291.27 4.56847 0.617392 0
M  V30 3265 H 294.814 6.63777 -2.14583 0
M  V30 3266 H 290.711 6.38663 -0.93699 0
M  V30 3267 H 291.479 7.81049 -2.44753 0
M  V30 3268 N 294.142 -0.090211 1.57342 0
M  V30 3269 C 295.105 -1.09335 2.01441 0
M  V30 3270 C 296.105 -1.32666 0.908641 0
M  V30 3271 O 297.295 -1.28697 1.174 0
M  V30 3272 C 294.427 -2.44136 2.3793 0
M  V30 3273 H 295.62 -0.713662 2.91285 0
M  V30 3274 H 293.173 -0.335404 1.52659 0
M  V30 3275 H 293.908 -2.86972 1.51055 0
M  V30 3276 H 293.693 -2.28548 3.18603 0
M  V30 3277 H 295.183 -3.16277 2.72688 0
M  V30 3278 N 295.62 -1.53406 -0.361157 0
M  V30 3279 C 296.85 -1.73465 -1.1222 0
M  V30 3280 C 297.258 -0.465486 -1.83384 0
M  V30 3281 O 296.601 0.571611 -1.7458 0
M  V30 3282 C 296.663 -2.84834 -2.19339 0
M  V30 3283 C 296.327 -4.25038 -1.67903 0
M  V30 3284 C 297.324 -5.07231 -1.14074 0
M  V30 3285 C 295.009 -4.71464 -1.73282 0
M  V30 3286 C 297.003 -6.33942 -0.663068 0
M  V30 3287 C 294.69 -5.98153 -1.25127 0
M  V30 3288 C 295.688 -6.79223 -0.717296 0
M  V30 3289 O 295.376 -8.03533 -0.242865 0
M  V30 3290 H 295.108 -0.583526 -0.341283 0
M  V30 3291 H 297.662 -2.00964 -0.424591 0
M  V30 3292 H 295.892 -2.5282 -2.92607 0
M  V30 3293 H 297.581 -2.9303 -2.80871 0
M  V30 3294 H 298.347 -4.72534 -1.09254 0
M  V30 3295 H 294.226 -4.08432 -2.13786 0
M  V30 3296 H 297.77 -6.97167 -0.245612 0
M  V30 3297 H 293.667 -6.32347 -1.29642 0
M  V30 3298 H 294.435 -8.177 -0.361786 0
M  V30 3299 N 297.098 0.621204 -1.44841 0
M  V30 3300 C 298.326 1.40752 -1.51646 0
M  V30 3301 C 298.741 1.88246 -0.144549 0
M  V30 3302 O 298.098 1.61422 0.851416 0
M  V30 3303 C 298.149 2.62119 -2.4895 0
M  V30 3304 O 297.87 2.16602 -3.80808 0
M  V30 3305 C 299.371 3.55135 -2.65319 0
M  V30 3306 H 296.591 0.431325 -0.514004 0
M  V30 3307 H 299.135 0.758835 -1.899 0
M  V30 3308 H 297.29 3.23058 -2.13805 0
M  V30 3309 H 297.704 2.95358 -4.33433 0
M  V30 3310 H 299.178 4.36874 -3.37409 0
M  V30 3311 H 299.655 4.04592 -1.70886 0
M  V30 3312 H 300.261 3.00058 -3.01405 0
M  V30 3313 N 298.576 1.31904 0.862503 0
M  V30 3314 C 299.853 1.12644 1.59908 0
M  V30 3315 C 300.233 -0.316104 2.0872 0
M  V30 3316 O 299.581 -1.31145 1.87118 0
M  V30 3317 C 299.791 2.1472 2.7513 0
M  V30 3318 C 301.139 2.47637 3.44907 0
M  V30 3319 O 302.163 2.13205 2.85346 0
M  V30 3320 O 301.022 3.06632 4.52371 0
M  V30 3321 H 298.116 0.43416 0.703871 0
M  V30 3322 H 300.662 1.43408 0.907314 0
M  V30 3323 H 299.434 3.1172 2.3653 0
M  V30 3324 H 299.057 1.84905 3.51989 0
M  V30 3325 N 300.054 -1.07777 1.14986 0
M  V30 3326 C 300.964 -2.18404 0.856546 0
M  V30 3327 C 301.98 -1.73211 -0.165485 0
M  V30 3328 O 303.156 -2.01399 0.00755219 0
M  V30 3329 C 300.221 -3.44977 0.34526 0
M  V30 3330 C 299.282 -4.0476 1.43065 0
M  V30 3331 C 298.515 -5.25291 0.943663 0
M  V30 3332 O 298.738 -5.70004 -0.212426 0
M  V30 3333 O 297.672 -5.76638 1.72547 0
M  V30 3334 H 301.498 -2.45978 1.78125 0
M  V30 3335 H 299.083 -1.17033 0.928631 0
M  V30 3336 H 300.965 -4.21348 0.0663671 0
M  V30 3337 H 299.64 -3.18965 -0.551631 0
M  V30 3338 H 298.547 -3.29949 1.76309 0
M  V30 3339 H 299.88 -4.35035 2.30229 0
M  V30 3340 N 301.532 -0.945985 -1.26051 0
M  V30 3341 C 302.809 -0.513816 -1.88731 0
M  V30 3342 C 303.189 1.00872 -1.8544 0
M  V30 3343 O 302.537 1.8708 -1.312 0
M  V30 3344 C 302.747 -1.08062 -3.31849 0
M  V30 3345 C 304.095 -1.1522 -4.08668 0
M  V30 3346 O 305.119 -1.03155 -3.40936 0
M  V30 3347 O 303.978 -1.34044 -5.29806 0
M  V30 3348 H 301.072 -0.168193 -0.809716 0
M  V30 3349 H 303.618 -1.03886 -1.34186 0
M  V30 3350 H 302.39 -2.1241 -3.2863 0
M  V30 3351 H 302.013 -0.538307 -3.93939 0
M  V30 3352 N 303.011 1.40521 -0.713556 0
M  V30 3353 C 303.941 2.33381 -0.0743864 0
M  V30 3354 C 304.922 1.52784 0.747735 0
M  V30 3355 O 306.107 1.81258 0.697071 0
M  V30 3356 C 303.237 3.36748 0.849598 0
M  V30 3357 C 302.191 4.27793 0.133247 0
M  V30 3358 C 301.517 5.21679 1.17281 0
M  V30 3359 C 302.817 5.12415 -1.01134 0
M  V30 3360 H 304.511 2.87081 -0.850007 0
M  V30 3361 H 302.057 1.38034 -0.410201 0
M  V30 3362 H 304.01 4.00648 1.30612 0
M  V30 3363 H 302.734 2.81439 1.65709 0
M  V30 3364 H 301.393 3.65342 -0.303426 0
M  V30 3365 H 301.041 4.62677 1.9733 0
M  V30 3366 H 300.741 5.83435 0.698397 0
M  V30 3367 H 302.265 5.88456 1.62947 0
M  V30 3368 H 303.679 5.69781 -0.634274 0
M  V30 3369 H 302.076 5.83203 -1.41399 0
M  V30 3370 H 303.146 4.48514 -1.84292 0
M  V30 3371 N 304.489 0.459591 1.5075 0
M  V30 3372 C 305.422 -0.386257 2.24907 0
M  V30 3373 C 306.4 -1.006 1.27744 0
M  V30 3374 O 307.584 -1.04416 1.56938 0
M  V30 3375 C 304.711 -1.54021 3.01654 0
M  V30 3376 C 303.757 -1.03898 4.13651 0
M  V30 3377 S 304.59 0.0370501 5.35487 0
M  V30 3378 C 305.746 -1.12105 6.15779 0
M  V30 3379 H 305.979 0.243272 2.96303 0
M  V30 3380 H 303.512 0.244339 1.52454 0
M  V30 3381 H 305.47 -2.20163 3.46466 0
M  V30 3382 H 304.131 -2.14121 2.29806 0
M  V30 3383 H 303.324 -1.90254 4.66711 0
M  V30 3384 H 302.926 -0.45545 3.71216 0
M  V30 3385 H 305.218 -2.03501 6.46215 0
M  V30 3386 H 306.161 -0.62995 7.05292 0
M  V30 3387 H 306.569 -1.36967 5.47631 0
M  V30 3388 N 305.967 -1.56429 0.191757 0
M  V30 3389 C 306.897 -2.21937 -0.725696 0
M  V30 3390 C 307.878 -1.1814 -1.2238 0
M  V30 3391 O 309.063 -1.46636 -1.27325 0
M  V30 3392 C 306.193 -2.87611 -1.94672 0
M  V30 3393 C 305.147 -3.97623 -1.58366 0
M  V30 3394 C 304.473 -4.50446 -2.88102 0
M  V30 3395 C 305.773 -5.16197 -0.796133 0
M  V30 3396 H 307.467 -2.98861 -0.179606 0
M  V30 3397 H 305.013 -1.43749 -0.0849464 0
M  V30 3398 H 306.966 -3.3212 -2.59373 0
M  V30 3399 H 305.69 -2.08087 -2.51728 0
M  V30 3400 H 304.349 -3.53801 -0.960247 0
M  V30 3401 H 303.997 -3.67688 -3.43241 0
M  V30 3402 H 303.697 -5.24675 -2.64556 0
M  V30 3403 H 305.221 -4.97654 -3.53798 0
M  V30 3404 H 306.635 -5.57271 -1.34618 0
M  V30 3405 H 305.032 -5.96471 -0.658928 0
M  V30 3406 H 306.102 -4.84473 0.203478 0
M  V30 3407 N 307.445 0.0818655 -1.57387 0
M  V30 3408 C 308.675 0.794954 -1.90694 0
M  V30 3409 C 309.083 1.72147 -0.784982 0
M  V30 3410 O 308.426 1.81974 0.251196 0
M  V30 3411 C 308.488 1.65042 -3.19376 0
M  V30 3412 C 308.152 0.894337 -4.48164 0
M  V30 3413 C 309.149 0.21813 -5.19442 0
M  V30 3414 C 306.834 0.864495 -4.94805 0
M  V30 3415 C 308.828 -0.477802 -6.35607 0
M  V30 3416 C 306.515 0.164785 -6.10878 0
M  V30 3417 C 307.513 -0.505173 -6.81129 0
M  V30 3418 O 307.201 -1.19363 -7.94989 0
M  V30 3419 H 306.933 0.231779 -0.635023 0
M  V30 3420 H 309.487 0.059493 -2.05314 0
M  V30 3421 H 307.717 2.42844 -3.00938 0
M  V30 3422 H 309.406 2.24127 -3.38411 0
M  V30 3423 H 310.172 0.232558 -4.84442 0
M  V30 3424 H 306.051 1.37542 -4.40004 0
M  V30 3425 H 309.595 -1.00129 -6.90377 0
M  V30 3426 H 305.492 0.148249 -6.4533 0
M  V30 3427 H 306.26 -1.10188 -8.11049 0
M  V30 3428 N 308.923 1.53595 0.353017 0
M  V30 3429 C 310.169 1.71581 1.09232 0
M  V30 3430 C 310.524 0.468328 1.86613 0
M  V30 3431 O 309.817 -0.538911 1.83865 0
M  V30 3432 C 310.011 2.91313 2.07054 0
M  V30 3433 C 309.84 4.27585 1.39287 0
M  V30 3434 C 308.61 4.92233 1.1417 0
M  V30 3435 C 310.808 5.07656 0.824005 0
M  V30 3436 N 308.79 6.124 0.428841 0
M  V30 3437 C 310.161 6.19531 0.241195 0
M  V30 3438 C 312.216 4.92609 0.723922 0
M  V30 3439 C 310.919 7.18002 -0.431952 0
M  V30 3440 C 312.945 5.91365 0.0645334 0
M  V30 3441 C 312.307 7.02571 -0.507347 0
M  V30 3442 H 308.406 0.680987 0.384422 0
M  V30 3443 H 310.99 1.91013 0.377096 0
M  V30 3444 H 309.161 2.73398 2.75877 0
M  V30 3445 H 310.893 2.98062 2.73753 0
M  V30 3446 H 307.648 4.51612 1.42631 0
M  V30 3447 H 308.072 6.76944 0.0874131 0
M  V30 3448 H 312.714 4.06808 1.15181 0
M  V30 3449 H 310.432 8.03384 -0.871758 0
M  V30 3450 H 314.018 5.81799 -0.0121469 0
M  V30 3451 H 312.898 7.77675 -1.0095 0
M  V30 3452 N 310.401 -0.613514 1.45168 0
M  V30 3453 C 311.348 -1.72456 1.53387 0
M  V30 3454 C 312.318 -1.6169 0.380191 0
M  V30 3455 O 313.503 -1.81356 0.592836 0
M  V30 3456 C 310.643 -3.10753 1.50088 0
M  V30 3457 C 309.756 -3.32368 2.75963 0
M  V30 3458 C 308.891 -4.60737 2.64376 0
M  V30 3459 C 307.93 -4.7559 3.85332 0
M  V30 3460 N 307.067 -5.95253 3.72315 0
M  V30 3461 H 311.907 -1.64768 2.48305 0
M  V30 3462 H 309.444 -0.803503 1.23216 0
M  V30 3463 H 311.402 -3.90758 1.46164 0
M  V30 3464 H 310.032 -3.17413 0.587243 0
M  V30 3465 H 309.084 -2.4618 2.89999 0
M  V30 3466 H 310.396 -3.39218 3.65695 0
M  V30 3467 H 309.55 -5.48928 2.58385 0
M  V30 3468 H 308.289 -4.56275 1.72233 0
M  V30 3469 H 307.294 -3.85824 3.91688 0
M  V30 3470 H 308.519 -4.81854 4.78533 0
M  V30 3471 H 306.465 -5.91847 2.82937 0
M  V30 3472 H 306.382 -6.03236 4.55677 0
M  V30 3473 H 307.65 -6.85958 3.70246 0
M  V30 3474 N 311.879 -1.3236 -0.855495 0
M  V30 3475 C 312.827 -1.2118 -1.9854 0
M  V30 3476 C 313.821 -0.116788 -1.68997 0
M  V30 3477 O 315.027 -0.279657 -1.77814 0
M  V30 3478 H 311.402 -0.375608 -0.651477 0
M  V30 3479 H 313.373 -2.16743 -2.05098 0
M  V30 3480 C 312.122 -0.950849 -3.34446 0
M  V30 3481 H 311.445 -1.78563 -3.57708 0
M  V30 3482 H 312.885 -0.912863 -4.14057 0
M  V30 3483 C 311.344 0.346404 -3.35114 0
M  V30 3484 O 311.874 1.35855 -3.7803 0
M  V30 3485 N 310.08 0.36808 -2.88259 0
M  V30 3486 H 309.627 -0.456102 -2.5353 0
M  V30 3487 H 309.585 1.23591 -2.89089 0
M  V30 3488 N 313.357 1.07166 -1.15556 0
M  V30 3489 C 314.605 1.79443 -0.929764 0
M  V30 3490 C 314.926 1.87246 0.544414 0
M  V30 3491 O 314.196 1.37473 1.39564 0
M  V30 3492 H 312.776 0.664625 -0.341003 0
M  V30 3493 H 315.438 1.29499 -1.45657 0
M  V30 3494 H 314.534 2.81832 -1.34079 0
M  V30 3495 N 314.835 0.952656 1.25548 0
M  V30 3496 C 316.112 0.523818 1.88456 0
M  V30 3497 C 316.492 -0.998871 1.85973 0
M  V30 3498 O 315.84 -1.86381 1.3219 0
M  V30 3499 C 316.05 1.0982 3.31271 0
M  V30 3500 C 317.398 1.17385 4.08051 0
M  V30 3501 O 318.422 1.04961 3.40384 0
M  V30 3502 O 317.281 1.36852 5.29088 0
M  V30 3503 H 314.375 0.172485 0.808813 0
M  V30 3504 H 316.921 1.04596 1.33633 0
M  V30 3505 H 315.693 2.1415 3.27499 0
M  V30 3506 H 315.316 0.559191 3.93648 0
M  V30 3507 N 316.313 -1.40141 0.720998 0
M  V30 3508 C 317.223 -2.34486 0.0731031 0
M  V30 3509 C 318.239 -1.57587 -0.737723 0
M  V30 3510 O 319.415 -1.89949 -0.669429 0
M  V30 3511 C 316.48 -3.36528 -0.833656 0
M  V30 3512 C 315.541 -4.29298 -0.0121673 0
M  V30 3513 C 314.774 -5.26466 -0.875742 0
M  V30 3514 O 314.997 -5.29745 -2.11485 0
M  V30 3515 O 313.931 -6.01092 -0.31185 0
M  V30 3516 H 317.757 -2.9152 0.851444 0
M  V30 3517 H 315.342 -1.41427 0.481527 0
M  V30 3518 H 317.224 -3.99093 -1.35289 0
M  V30 3519 H 315.899 -2.81899 -1.59105 0
M  V30 3520 H 314.806 -3.70001 0.552262 0
M  V30 3521 H 316.139 -4.87094 0.707129 0
M  V30 3522 N 317.792 -0.46758 -1.50504 0
M  V30 3523 C 319.017 0.0886943 -2.0721 0
M  V30 3524 C 319.442 1.33057 -1.32956 0
M  V30 3525 O 318.8 1.77354 -0.376197 0
M  V30 3526 C 318.848 0.359202 -3.58806 0
M  V30 3527 O 317.952 1.44034 -3.8643 0
M  V30 3528 H 317.293 -0.0114349 -0.663902 0
M  V30 3529 H 319.823 -0.657613 -1.93744 0
M  V30 3530 H 319.833 0.600742 -4.03553 0
M  V30 3531 H 318.508 -0.548311 -4.1227 0
M  V30 3532 H 317.085 1.18638 -3.53524 0
M  V30 3533 N 319.27 1.56325 -0.20005 0
M  V30 3534 C 320.2 2.22318 0.713916 0
M  V30 3535 C 321.181 1.18788 1.21752 0
M  V30 3536 O 322.366 1.47309 1.26545 0
M  V30 3537 C 319.496 2.88639 1.93144 0
M  V30 3538 C 318.45 3.98457 1.56255 0
M  V30 3539 C 317.776 4.51967 2.85709 0
M  V30 3540 C 319.076 5.16612 0.768747 0
M  V30 3541 H 320.77 2.98952 0.163755 0
M  V30 3542 H 318.316 1.43792 0.0773219 0
M  V30 3543 H 320.269 3.33491 2.57608 0
M  V30 3544 H 318.993 2.09419 2.50621 0
M  V30 3545 H 317.652 3.54305 0.941471 0
M  V30 3546 H 317.3 3.69503 3.41287 0
M  V30 3547 H 317 5.26071 2.6177 0
M  V30 3548 H 318.524 4.99523 3.51154 0
M  V30 3549 H 319.938 5.57977 1.3166 0
M  V30 3550 H 318.335 5.96812 0.627286 0
M  V30 3551 H 319.405 4.84358 -0.229168 0
M  V30 3552 N 320.748 -0.0735177 1.57428 0
M  V30 3553 C 321.695 -1.08756 2.0357 0
M  V30 3554 C 322.665 -1.38559 0.916 0
M  V30 3555 O 323.85 -1.49656 1.18354 0
M  V30 3556 C 320.99 -2.39657 2.48311 0
M  V30 3557 C 320.103 -2.16399 3.73892 0
M  V30 3558 C 319.238 -3.40852 4.07423 0
M  V30 3559 C 318.277 -3.1295 5.2605 0
M  V30 3560 N 317.414 -4.29729 5.55228 0
M  V30 3561 H 322.254 -0.687104 2.8997 0
M  V30 3562 H 319.791 -0.327709 1.43403 0
M  V30 3563 H 321.749 -3.16081 2.72303 0
M  V30 3564 H 320.379 -2.77508 1.64891 0
M  V30 3565 H 319.431 -1.30676 3.57251 0
M  V30 3566 H 320.743 -1.91788 4.60455 0
M  V30 3567 H 319.897 -4.25671 4.32306 0
M  V30 3568 H 318.636 -3.68537 3.19425 0
M  V30 3569 H 317.641 -2.26526 5.00965 0
M  V30 3570 H 318.866 -2.86589 6.15665 0
M  V30 3571 H 316.812 -4.57448 4.70188 0
M  V30 3572 H 316.729 -4.08385 6.36206 0
M  V30 3573 H 317.997 -5.1555 5.84661 0
M  V30 3574 N 322.226 -1.5378 -0.344866 0
M  V30 3575 C 323.454 -1.74899 -1.10534 0
M  V30 3576 C 323.869 -0.487534 -1.82397 0
M  V30 3577 O 323.226 0.540741 -1.74305 0
M  V30 3578 C 323.277 -2.92822 -2.11984 0
M  V30 3579 O 322.998 -4.14089 -1.43044 0
M  V30 3580 C 324.499 -3.25982 -3.00417 0
M  V30 3581 H 321.719 -0.584426 -0.329678 0
M  V30 3582 H 324.263 -2.006 -0.397474 0
M  V30 3583 H 322.418 -2.69457 -2.78338 0
M  V30 3584 H 322.832 -4.80272 -2.10805 0
M  V30 3585 H 324.306 -4.11848 -3.67539 0
M  V30 3586 H 324.783 -2.42228 -3.66363 0
M  V30 3587 H 325.389 -3.51349 -2.39654 0
M  V30 3588 N 323.704 0.605807 -1.45491 0
M  V30 3589 C 324.981 1.36522 -1.40075 0
M  V30 3590 C 325.361 2.10976 -0.0722744 0
M  V30 3591 O 324.709 2.08007 0.945808 0
M  V30 3592 C 324.919 2.31056 -2.61561 0
M  V30 3593 C 326.267 2.93608 -3.06724 0
M  V30 3594 O 327.291 2.41376 -2.61946 0
M  V30 3595 O 326.15 3.88421 -3.84437 0
M  V30 3596 H 323.244 0.612248 -0.555951 0
M  V30 3597 H 325.79 0.628747 -1.57623 0
M  V30 3598 H 324.562 1.75311 -3.49831 0
M  V30 3599 H 324.185 3.12081 -2.46356 0
M  V30 3600 N 325.182 1.32811 0.848464 0
M  V30 3601 C 326.092 1.24278 1.98978 0
M  V30 3602 C 327.108 0.155176 1.73307 0
M  V30 3603 O 328.284 0.376999 1.9784 0
M  V30 3604 C 325.349 0.972444 3.32783 0
M  V30 3605 C 324.41 2.14911 3.71634 0
M  V30 3606 C 323.643 1.89157 4.99054 0
M  V30 3607 O 323.866 0.837165 5.64223 0
M  V30 3608 O 322.8 2.75433 5.35183 0
M  V30 3609 H 326.626 2.20238 2.09115 0
M  V30 3610 H 324.211 1.12762 0.980052 0
M  V30 3611 H 326.093 0.838432 4.12975 0
M  V30 3612 H 324.768 0.043051 3.23671 0
M  V30 3613 H 323.675 2.33862 2.91992 0
M  V30 3614 H 325.008 3.06151 3.85399 0
M  V30 3615 N 326.66 -1.06551 1.16123 0
M  V30 3616 C 327.607 -2.13961 0.865414 0
M  V30 3617 C 328.577 -1.65066 -0.185055 0
M  V30 3618 O 329.762 -1.90732 -0.05083 0
M  V30 3619 C 326.902 -3.43113 0.369776 0
M  V30 3620 C 326.015 -4.05756 1.48276 0
M  V30 3621 C 325.15 -5.22773 0.942414 0
M  V30 3622 C 324.189 -5.77395 2.03179 0
M  V30 3623 N 323.326 -6.85731 1.50721 0
M  V30 3624 H 328.166 -2.38605 1.78527 0
M  V30 3625 H 325.703 -1.17072 0.890646 0
M  V30 3626 H 327.661 -4.17151 0.0640643 0
M  V30 3627 H 326.291 -3.18695 -0.513143 0
M  V30 3628 H 325.343 -3.29292 1.9045 0
M  V30 3629 H 326.655 -4.42351 2.30493 0
M  V30 3630 H 325.809 -6.03827 0.589729 0
M  V30 3631 H 324.548 -4.87618 0.0895191 0
M  V30 3632 H 323.553 -4.94981 2.3932 0
M  V30 3633 H 324.778 -6.14603 2.8886 0
M  V30 3634 H 322.724 -6.52499 0.676811 0
M  V30 3635 H 322.641 -7.21254 2.26557 0
M  V30 3636 H 323.909 -7.7047 1.18303 0
M  V30 3637 N 328.138 -0.959301 -1.25041 0
M  V30 3638 C 329.387 -0.612254 -1.92183 0
M  V30 3639 C 329.7 0.855347 -1.75907 0
M  V30 3640 O 330.906 1.31256 -2.37664 0
M  V30 3641 C 329.362 -1.04435 -3.44414 0
M  V30 3642 C 328.97 -2.53482 -3.69393 0
M  V30 3643 C 330.714 -0.770055 -4.17457 0
M  V30 3644 C 328.621 -2.90468 -5.15153 0
M  V30 3645 H 327.551 -0.225279 -0.719559 0
M  V30 3646 H 330.202 -1.16438 -1.41825 0
M  V30 3647 H 328.584 -0.4206 -3.9376 0
M  V30 3648 H 329.758 -3.20916 -3.30681 0
M  V30 3649 H 328.073 -2.78432 -3.0962 0
M  V30 3650 H 330.67 -1.02249 -5.24832 0
M  V30 3651 H 331.013 0.293611 -4.15263 0
M  V30 3652 H 331.546 -1.35437 -3.74034 0
M  V30 3653 H 328.285 -3.95871 -5.22462 0
M  V30 3654 H 327.805 -2.27711 -5.54894 0
M  V30 3655 H 329.484 -2.79914 -5.83315 0
M  V30 3656 N 329.616 1.39756 -0.72842 0
M  V30 3657 C 330.841 2.05472 -0.282159 0
M  V30 3658 C 331.266 1.54549 1.07221 0
M  V30 3659 O 330.624 0.686372 1.67805 0
M  V30 3660 C 330.672 3.59462 -0.286264 0
M  V30 3661 O 329.776 4.05918 0.728298 0
M  V30 3662 H 329.117 0.651226 -0.129618 0
M  V30 3663 H 331.647 1.78915 -0.992499 0
M  V30 3664 H 331.657 4.07798 -0.128373 0
M  V30 3665 H 330.332 3.95889 -1.27456 0
M  V30 3666 H 328.909 3.69012 0.537081 0
M  V30 3667 N 331.094 0.475555 1.50254 0
M  V30 3668 C 332.024 -0.30611 2.31485 0
M  V30 3669 C 333.005 -0.986228 1.38591 0
M  V30 3670 O 334.19 -0.982541 1.67511 0
M  V30 3671 C 331.32 -1.38588 3.1845 0
M  V30 3672 C 330.274 -0.827115 4.19932 0
M  V30 3673 C 329.6 -2.00551 4.95665 0
M  V30 3674 C 330.9 0.16463 5.2204 0
M  V30 3675 H 332.594 0.371866 2.97082 0
M  V30 3676 H 330.14 0.180282 1.42867 0
M  V30 3677 H 332.093 -1.94023 3.74076 0
M  V30 3678 H 330.817 -2.09269 2.50747 0
M  V30 3679 H 329.476 -0.294702 3.65414 0
M  V30 3680 H 329.124 -2.6994 4.2443 0
M  V30 3681 H 328.824 -1.63784 5.64313 0
M  V30 3682 H 330.348 -2.56468 5.54127 0
M  V30 3683 H 331.762 -0.300699 5.72511 0
M  V30 3684 H 330.159 0.446813 5.98434 0
M  V30 3685 H 331.229 1.08905 4.72512 0
M  V30 3686 N 332.573 -1.56217 0.208337 0
M  V30 3687 C 333.798 -2.02782 -0.435222 0
M  V30 3688 C 334.223 -1.08738 -1.53485 0
M  V30 3689 O 333.581 -0.0731855 -1.81152 0
M  V30 3690 C 333.629 -3.47687 -0.956335 0
M  V30 3691 O 332.733 -3.56773 -2.06849 0
M  V30 3692 H 332.074 -0.656403 -0.100158 0
M  V30 3693 H 334.604 -2.02033 0.3231 0
M  V30 3694 H 334.614 -3.87745 -1.26955 0
M  V30 3695 H 333.289 -4.15624 -0.15143 0
M  V30 3696 H 331.866 -3.28597 -1.76292 0
M  V30 3697 N 334.051 0.0651679 -1.57465 0
M  V30 3698 C 334.983 1.10359 -2.00882 0
M  V30 3699 C 335.996 1.346 -0.915788 0
M  V30 3700 O 337.185 1.32723 -1.1936 0
M  V30 3701 C 334.285 2.45312 -2.33828 0
M  V30 3702 C 333.458 2.40934 -3.65061 0
M  V30 3703 C 332.517 3.58047 -3.85602 0
M  V30 3704 O 331.543 3.39175 -4.57109 0
M  V30 3705 N 332.745 4.78637 -3.28462 0
M  V30 3706 H 335.51 0.733807 -2.90578 0
M  V30 3707 H 333.071 0.253719 -1.599 0
M  V30 3708 H 335.063 3.22314 -2.44737 0
M  V30 3709 H 333.633 2.74267 -1.49988 0
M  V30 3710 H 332.853 1.49273 -3.64844 0
M  V30 3711 H 334.141 2.35117 -4.51218 0
M  V30 3712 H 333.539 4.96872 -2.70433 0
M  V30 3713 H 332.096 5.53127 -3.44809 0
M  V30 3714 N 335.529 1.53961 0.336706 0
M  V30 3715 C 336.776 1.71536 1.07618 0
M  V30 3716 C 337.104 0.482125 1.8843 0
M  V30 3717 O 336.359 -0.536142 1.88213 0
M  V30 3718 C 336.658 2.93493 2.03953 0
M  V30 3719 C 336.324 4.28811 1.39399 0
M  V30 3720 C 334.986 4.65602 1.21523 0
M  V30 3721 C 337.338 5.12844 0.929541 0
M  V30 3722 C 334.666 5.84037 0.558312 0
M  V30 3723 C 337.018 6.31951 0.286505 0
M  V30 3724 C 335.682 6.67432 0.0954869 0
M  V30 3725 H 334.952 0.627696 0.393801 0
M  V30 3726 H 337.599 1.88186 0.354715 0
M  V30 3727 H 335.904 2.71475 2.82504 0
M  V30 3728 H 337.601 3.04285 2.61174 0
M  V30 3729 H 334.191 3.99858 1.54311 0
M  V30 3730 H 338.375 4.84947 1.05548 0
M  V30 3731 H 333.631 6.10097 0.398995 0
M  V30 3732 H 337.805 6.96352 -0.0814376 0
M  V30 3733 H 335.432 7.59063 -0.415579 0
M  V30 3734 N 337.007 -0.598083 1.45811 0
M  V30 3735 C 337.937 -1.71873 1.58057 0
M  V30 3736 C 338.918 -1.64533 0.431615 0
M  V30 3737 O 340.103 -1.82787 0.65595 0
M  V30 3738 C 337.233 -3.10495 1.55597 0
M  V30 3739 C 336.187 -3.32654 2.69305 0
M  V30 3740 C 335.513 -4.71646 2.51902 0
M  V30 3741 C 336.813 -3.21981 4.11248 0
M  V30 3742 H 338.507 -1.61881 2.51863 0
M  V30 3743 H 336.053 -0.777372 1.21214 0
M  V30 3744 H 338.006 -3.88699 1.6276 0
M  V30 3745 H 336.73 -3.2135 0.583255 0
M  V30 3746 H 335.389 -2.56843 2.61586 0
M  V30 3747 H 335.037 -4.79246 1.52748 0
M  V30 3748 H 334.737 -4.87426 3.2816 0
M  V30 3749 H 336.261 -5.52038 2.60933 0
M  V30 3750 H 337.675 -3.90049 4.20161 0
M  V30 3751 H 336.072 -3.49289 4.87972 0
M  V30 3752 H 337.142 -2.1928 4.32486 0
M  V30 3753 N 338.485 -1.33259 -0.841409 0
M  V30 3754 C 339.734 -1.23921 -1.59143 0
M  V30 3755 C 340.047 0.1941 -1.94635 0
M  V30 3756 O 341.253 0.409474 -2.68394 0
M  V30 3757 C 339.709 -2.17119 -2.87032 0
M  V30 3758 C 339.317 -3.65606 -2.58914 0
M  V30 3759 C 341.061 -2.16648 -3.65053 0
M  V30 3760 C 338.968 -4.50726 -3.82884 0
M  V30 3761 H 337.898 -0.460264 -0.597221 0
M  V30 3762 H 340.549 -1.58307 -0.927959 0
M  V30 3763 H 338.931 -1.75663 -3.54906 0
M  V30 3764 H 340.105 -4.15487 -1.99267 0
M  V30 3765 H 338.42 -3.68341 -1.942 0
M  V30 3766 H 341.017 -2.77474 -4.57069 0
M  V30 3767 H 341.36 -1.16088 -3.99787 0
M  V30 3768 H 341.893 -2.56453 -3.041 0
M  V30 3769 H 338.632 -5.52151 -3.53283 0
M  V30 3770 H 338.152 -4.0559 -4.41879 0
M  V30 3771 H 339.831 -4.64401 -4.50489 0
M  V30 3772 N 339.963 1.05934 -1.16686 0
M  V30 3773 C 340.895 2.13468 -0.834503 0
M  V30 3774 C 341.908 1.62013 0.15984 0
M  V30 3775 O 343.097 1.7838 -0.0654228 0
M  V30 3776 C 340.197 3.3817 -0.222361 0
M  V30 3777 C 339.37 4.18928 -1.25771 0
M  V30 3778 C 338.429 5.21985 -0.664703 0
M  V30 3779 O 337.455 5.53334 -1.33453 0
M  V30 3780 N 338.657 5.77919 0.546834 0
M  V30 3781 H 341.422 2.42578 -1.75999 0
M  V30 3782 H 338.983 1.21967 -1.06469 0
M  V30 3783 H 340.975 4.04266 0.187472 0
M  V30 3784 H 339.545 3.06655 0.606758 0
M  V30 3785 H 338.765 3.48433 -1.84358 0
M  V30 3786 H 340.053 4.69687 -1.95631 0
M  V30 3787 H 339.451 5.54721 1.10912 0
M  V30 3788 H 338.008 6.45573 0.898829 0
M  V30 3789 N 341.441 0.965919 1.2453 0
M  V30 3790 C 342.388 0.49402 2.25451 0
M  V30 3791 C 343.358 -0.45948 1.59618 0
M  V30 3792 O 344.543 -0.370238 1.87173 0
M  V30 3793 C 341.683 -0.211359 3.44452 0
M  V30 3794 C 340.796 0.7807 4.24887 0
M  V30 3795 C 339.931 0.0516105 5.31175 0
M  V30 3796 C 338.97 1.03385 6.03306 0
M  V30 3797 N 338.107 0.334887 7.01301 0
M  V30 3798 H 342.947 1.35946 2.65184 0
M  V30 3799 H 340.484 0.681515 1.3036 0
M  V30 3800 H 342.442 -0.637 4.12308 0
M  V30 3801 H 341.072 -1.04077 3.05562 0
M  V30 3802 H 340.124 1.32479 3.56586 0
M  V30 3803 H 341.436 1.52978 4.74762 0
M  V30 3804 H 340.59 -0.432114 6.05159 0
M  V30 3805 H 339.329 -0.730179 4.82203 0
M  V30 3806 H 338.334 1.52847 5.28127 0
M  V30 3807 H 339.559 1.81606 6.54367 0
M  V30 3808 H 337.505 -0.427959 6.54603 0
M  V30 3809 H 337.422 1.02287 7.49048 0
M  V30 3810 H 338.69 -0.126928 7.79397 0
M  V30 3811 N 342.919 -1.39368 0.735821 0
M  V30 3812 C 344.166 -2.00497 0.284123 0
M  V30 3813 C 344.494 -1.58387 -1.12889 0
M  V30 3814 O 343.749 -0.804359 -1.78406 0
M  V30 3815 C 344.048 -3.5583 0.334651 0
M  V30 3816 C 343.714 -4.17593 1.7008 0
M  V30 3817 C 342.376 -4.34176 2.07472 0
M  V30 3818 C 344.728 -4.51848 2.59775 0
M  V30 3819 C 342.056 -4.82304 3.34065 0
M  V30 3820 C 344.408 -5.01384 3.85741 0
M  V30 3821 C 343.072 -5.16175 4.23225 0
M  V30 3822 H 342.342 -0.73367 0.103968 0
M  V30 3823 H 344.989 -1.66683 0.942825 0
M  V30 3824 H 343.294 -3.89674 -0.407625 0
M  V30 3825 H 344.991 -4.00986 -0.0329927 0
M  V30 3826 H 341.581 -4.05087 1.40008 0
M  V30 3827 H 345.765 -4.38653 2.32157 0
M  V30 3828 H 341.021 -4.91941 3.63049 0
M  V30 3829 H 345.195 -5.26863 4.55399 0
M  V30 3830 H 342.822 -5.5323 5.21384 0
M  V30 3831 N 344.397 -0.483516 -1.5 0
M  V30 3832 C 345.347 0.32306 -2.257 0
M  V30 3833 C 346.331 0.950755 -1.29805 0
M  V30 3834 O 347.523 0.861247 -1.54634 0
M  V30 3835 C 344.652 1.39724 -3.13579 0
M  V30 3836 C 343.738 0.776663 -4.16928 0
M  V30 3837 N 344.129 -0.1104 -5.0568 0
M  V30 3838 C 342.427 1.03922 -4.33724 0
M  V30 3839 C 343.128 -0.46387 -5.79848 0
M  V30 3840 N 342.104 0.163987 -5.43353 0
M  V30 3841 H 345.906 -0.360086 -2.91686 0
M  V30 3842 H 343.42 -0.298456 -1.59634 0
M  V30 3843 H 345.417 1.98837 -3.66428 0
M  V30 3844 H 344.077 2.08225 -2.49143 0
M  V30 3845 H 345.088 -0.480069 -5.1567 0
M  V30 3846 H 341.765 1.71829 -3.80501 0
M  V30 3847 H 343.155 -1.18854 -6.61304 0
M  V30 3848 N 345.875 1.56104 -0.216619 0
M  V30 3849 C 347.103 2.02563 0.421413 0
M  V30 3850 C 347.518 1.0965 1.53695 0
M  V30 3851 O 346.875 0.10521 1.82196 0
M  V30 3852 C 346.926 3.48584 0.957665 0
M  V30 3853 O 346.647 4.37953 -0.113389 0
M  V30 3854 C 348.148 4.10664 1.66943 0
M  V30 3855 H 345.368 0.662944 0.103665 0
M  V30 3856 H 347.912 2.01793 -0.331629 0
M  V30 3857 H 346.067 3.49985 1.661 0
M  V30 3858 H 346.481 5.23704 0.288932 0
M  V30 3859 H 347.955 5.14622 1.99671 0
M  V30 3860 H 348.432 3.55373 2.58083 0
M  V30 3861 H 349.038 4.13098 1.01142 0
M  V30 3862 N 347.353 -0.0568162 1.57498 0
M  V30 3863 C 348.581 -0.765626 1.92213 0
M  V30 3864 C 348.996 -1.70353 0.813961 0
M  V30 3865 O 348.353 -1.81268 -0.211701 0
M  V30 3866 C 348.404 -1.5465 3.2675 0
M  V30 3867 O 348.125 -0.646278 4.33307 0
M  V30 3868 C 349.626 -2.35497 3.75574 0
M  V30 3869 H 346.846 -0.216835 0.634999 0
M  V30 3870 H 349.39 -0.0226146 2.04487 0
M  V30 3871 H 347.545 -2.24165 3.15957 0
M  V30 3872 H 347.959 -1.19093 5.108 0
M  V30 3873 H 349.433 -2.85722 4.72299 0
M  V30 3874 H 349.91 -3.15692 3.05344 0
M  V30 3875 H 350.516 -1.7111 3.8936 0
M  V30 3876 N 348.832 -1.54138 -0.328536 0
M  V30 3877 C 350.057 -1.76378 -1.09112 0
M  V30 3878 C 350.482 -0.508596 -1.81094 0
M  V30 3879 O 349.84 0.539598 -1.73084 0
M  V30 3880 C 349.888 -2.95358 -2.06872 0
M  V30 3881 O 348.992 -2.66556 -3.14677 0
M  V30 3882 H 348.333 -0.584614 -0.314838 0
M  V30 3883 H 350.863 -2.01146 -0.374348 0
M  V30 3884 H 350.873 -3.22566 -2.4983 0
M  V30 3885 H 349.548 -3.86385 -1.5388 0
M  V30 3886 H 348.125 -2.50282 -2.7643 0
M  V30 3887 N 350.31 0.590341 -1.46126 0
M  V30 3888 C 351.726 0.912917 -1.30912 0
M  V30 3889 C 351.926 1.99616 -0.274893 0
M  V30 3890 O 350.982 2.50397 0.325197 0
M  V30 3891 C 352.295 1.3375 -2.69317 0
M  V30 3892 C 353.843 1.45077 -2.77348 0
M  V30 3893 C 354.318 1.90904 -4.16317 0
M  V30 3894 N 355.809 1.9811 -4.18696 0
M  V30 3895 C 356.544 2.34828 -5.23109 0
M  V30 3896 N 356.04 2.70393 -6.37856 0
M  V30 3897 N 357.833 2.35317 -5.10473 0
M  V30 3898 H 349.984 -0.125358 -2.1203 0
M  V30 3899 H 352.247 0.00658481 -0.947977 0
M  V30 3900 H 351.953 0.615614 -3.4627 0
M  V30 3901 H 351.827 2.30058 -2.9892 0
M  V30 3902 H 354.214 2.16353 -2.00687 0
M  V30 3903 H 354.295 0.4704 -2.51438 0
M  V30 3904 H 353.939 1.20209 -4.9347 0
M  V30 3905 H 353.869 2.89886 -4.39629 0
M  V30 3906 H 356.36 1.73146 -3.359 0
M  V30 3907 H 356.673 2.97341 -7.13308 0
M  V30 3908 H 355.018 2.68048 -6.41229 0
M  V30 3909 H 358.209 2.0695 -4.19868 0
M  V30 3910 H 358.382 2.63605 -5.9196 0
M  V30 3911 N 351.788 1.33704 0.83433 0
M  V30 3912 C 352.718 1.26967 1.95963 0
M  V30 3913 C 353.699 0.149337 1.69443 0
M  V30 3914 O 354.884 0.339852 1.91203 0
M  V30 3915 C 352.014 1.01275 3.32206 0
M  V30 3916 C 350.968 2.09652 3.73136 0
M  V30 3917 C 350.294 1.69166 5.07235 0
M  V30 3918 C 351.594 3.51372 3.86439 0
M  V30 3919 H 353.288 2.2112 2.01857 0
M  V30 3920 H 350.834 1.06447 0.969793 0
M  V30 3921 H 352.787 0.952106 4.10503 0
M  V30 3922 H 351.511 0.0356203 3.26581 0
M  V30 3923 H 350.17 2.14766 2.97104 0
M  V30 3924 H 349.818 0.701437 4.98085 0
M  V30 3925 H 349.518 2.41694 5.35591 0
M  V30 3926 H 351.042 1.64576 5.88003 0
M  V30 3927 H 352.456 3.48734 4.55036 0
M  V30 3928 H 350.853 4.22425 4.26236 0
M  V30 3929 H 351.923 3.89546 2.88759 0
M  V30 3930 N 353.266 -1.05314 1.17247 0
M  V30 3931 C 354.229 -2.112 0.890357 0
M  V30 3932 C 355.229 -1.60359 -0.118943 0
M  V30 3933 O 356.419 -1.73833 0.113086 0
M  V30 3934 C 353.551 -3.39266 0.333422 0
M  V30 3935 H 354.744 -2.37659 1.82916 0
M  V30 3936 H 352.297 -1.21538 0.982758 0
M  V30 3937 H 353.032 -3.18462 -0.612587 0
M  V30 3938 H 352.817 -3.77477 1.06082 0
M  V30 3939 H 354.307 -4.17315 0.154322 0
M  V30 3940 N 354.744 -0.972509 -1.24016 0
M  V30 3941 C 355.991 -0.637034 -1.92219 0
M  V30 3942 C 356.319 0.828418 -1.75976 0
M  V30 3943 O 355.574 1.61206 -1.10955 0
M  V30 3944 C 355.873 -0.963694 -3.44162 0
M  V30 3945 C 355.539 -2.41807 -3.80579 0
M  V30 3946 C 354.201 -2.81556 -3.9023 0
M  V30 3947 C 356.553 -3.36172 -3.98293 0
M  V30 3948 C 353.881 -4.14702 -4.15017 0
M  V30 3949 C 356.233 -4.68952 -4.24578 0
M  V30 3950 C 354.897 -5.08472 -4.32449 0
M  V30 3951 H 354.167 -0.233107 -0.703379 0
M  V30 3952 H 356.814 -1.2249 -1.47202 0
M  V30 3953 H 355.119 -0.29365 -3.90698 0
M  V30 3954 H 356.816 -0.682449 -3.9515 0
M  V30 3955 H 353.406 -2.09988 -3.73635 0
M  V30 3956 H 357.59 -3.06644 -3.90234 0
M  V30 3957 H 352.846 -4.4494 -4.19331 0
M  V30 3958 H 357.02 -5.42037 -4.37229 0
M  V30 3959 H 354.647 -6.11665 -4.51409 0
M  V30 3960 N 356.222 1.38976 -0.743202 0
M  V30 3961 C 357.452 2.04339 -0.304807 0
M  V30 3962 C 357.86 1.56162 1.06819 0
M  V30 3963 O 357.203 0.725284 1.68776 0
M  V30 3964 C 357.265 3.58716 -0.237369 0
M  V30 3965 C 356.929 4.29905 -1.55018 0
M  V30 3966 C 357.926 4.55987 -2.49744 0
M  V30 3967 C 355.611 4.68294 -1.81675 0
M  V30 3968 C 357.605 5.19478 -3.69353 0
M  V30 3969 C 355.292 5.31512 -3.0156 0
M  V30 3970 C 356.29 5.57037 -3.9522 0
M  V30 3971 O 355.978 6.18941 -5.12998 0
M  V30 3972 H 355.71 0.663439 -0.12971 0
M  V30 3973 H 358.264 1.78852 -1.01001 0
M  V30 3974 H 356.494 3.83133 0.524003 0
M  V30 3975 H 358.183 4.05543 0.170121 0
M  V30 3976 H 358.949 4.26767 -2.30423 0
M  V30 3977 H 354.828 4.47779 -1.09615 0
M  V30 3978 H 358.372 5.39318 -4.42473 0
M  V30 3979 H 354.269 5.60153 -3.20778 0
M  V30 3980 H 355.037 6.37433 -5.13441 0
M  V30 3981 N 357.7 0.491464 1.49741 0
M  V30 3982 C 358.925 -0.0557177 2.07325 0
M  V30 3983 C 359.35 -1.30925 1.35056 0
M  V30 3984 O 358.708 -1.76733 0.404365 0
M  V30 3985 C 358.756 -0.302074 3.59333 0
M  V30 3986 O 357.86 -1.37868 3.88672 0
M  V30 3987 H 357.201 0.0219956 0.663636 0
M  V30 3988 H 359.731 0.688352 1.92673 0
M  V30 3989 H 359.741 -0.536464 4.04458 0
M  V30 3990 H 358.416 0.61383 4.11345 0
M  V30 3991 H 356.993 -1.12999 3.55367 0
M  V30 3992 N 359.178 -1.55987 0.224894 0
M  V30 3993 C 360.403 -2.03232 -0.41369 0
M  V30 3994 C 360.828 -1.10359 -1.52323 0
M  V30 3995 O 360.186 -0.092395 -1.81064 0
M  V30 3996 C 360.234 -3.48682 -0.919405 0
M  V30 3997 O 359.338 -3.58947 -2.03054 0
M  V30 3998 H 358.679 -0.657428 -0.0931903 0
M  V30 3999 H 361.209 -2.01679 0.34451 0
M  V30 4000 H 361.219 -3.8907 -1.22835 0
M  V30 4001 H 359.894 -4.15761 -0.107339 0
M  V30 4002 H 358.471 -3.30448 -1.72796 0
M  V30 4003 N 360.656 0.0484629 -1.57525 0
M  V30 4004 C 361.884 0.755421 -1.92616 0
M  V30 4005 C 362.299 1.69919 -0.822984 0
M  V30 4006 O 361.656 1.81378 0.202085 0
M  V30 4007 C 361.707 1.52915 -3.27566 0
M  V30 4008 O 361.428 0.62329 -4.33644 0
M  V30 4009 C 362.929 2.33502 -3.76818 0
M  V30 4010 H 360.149 0.213465 -0.63614 0
M  V30 4011 H 362.693 0.0117698 -2.04497 0
M  V30 4012 H 360.848 2.22486 -3.17142 0
M  V30 4013 H 361.262 1.16383 -5.11425 0
M  V30 4014 H 362.736 2.83214 -4.73808 0
M  V30 4015 H 363.213 3.14068 -3.07014 0
M  V30 4016 H 363.819 1.69043 -3.90262 0
M  V30 4017 N 362.134 1.5431 0.320358 0
M  V30 4018 C 363.382 1.72327 1.05583 0
M  V30 4019 C 363.703 0.50149 1.88441 0
M  V30 4020 O 362.973 -0.48448 1.89815 0
M  V30 4021 H 361.553 0.635387 0.3928 0
M  V30 4022 H 364.215 1.91621 0.356019 0
M  V30 4023 H 363.311 2.60426 1.72003 0
M  V30 4024 N 363.613 -0.582584 1.46437 0
M  V30 4025 C 364.859 -1.34064 1.52965 0
M  V30 4026 C 365.214 -1.91566 0.178968 0
M  V30 4027 O 364.507 -1.73526 -0.812365 0
M  V30 4028 C 364.701 -2.48964 2.56421 0
M  V30 4029 C 364.53 -2.02717 4.01417 0
M  V30 4030 C 363.3 -1.87728 4.69134 0
M  V30 4031 C 365.498 -1.58675 4.8921 0
M  V30 4032 N 363.48 -1.35554 5.98747 0
M  V30 4033 C 364.851 -1.18093 6.08649 0
M  V30 4034 C 366.906 -1.46494 4.75861 0
M  V30 4035 C 365.609 -0.665427 7.16215 0
M  V30 4036 C 367.635 -0.96347 5.83499 0
M  V30 4037 C 366.997 -0.567432 7.02111 0
M  V30 4038 H 363.096 -0.483551 0.614575 0
M  V30 4039 H 365.68 -0.663309 1.83053 0
M  V30 4040 H 363.851 -3.1426 2.28244 0
M  V30 4041 H 365.583 -3.15913 2.52944 0
M  V30 4042 H 362.338 -2.09678 4.24655 0
M  V30 4043 H 362.762 -1.11628 6.67734 0
M  V30 4044 H 367.404 -1.75731 3.8455 0
M  V30 4045 H 365.122 -0.360639 8.07295 0
M  V30 4046 H 368.708 -0.873129 5.75211 0
M  V30 4047 H 367.588 -0.185389 7.83981 0
M  V30 4048 N 365.091 -1.34144 -0.827227 0
M  V30 4049 C 366.321 -1.29138 -1.61267 0
M  V30 4050 C 366.729 0.137597 -1.88699 0
M  V30 4051 O 366.072 1.09379 -1.47587 0
M  V30 4052 C 366.134 -2.0097 -2.9808 0
M  V30 4053 C 365.798 -3.50242 -2.93563 0
M  V30 4054 C 366.795 -4.4523 -2.68452 0
M  V30 4055 C 364.48 -3.92592 -3.13331 0
M  V30 4056 C 366.474 -5.80542 -2.63154 0
M  V30 4057 C 364.161 -5.28005 -3.07658 0
M  V30 4058 C 365.159 -6.21792 -2.82602 0
M  V30 4059 O 364.847 -7.54723 -2.76853 0
M  V30 4060 H 364.579 -0.445851 -0.508127 0
M  V30 4061 H 367.133 -1.77263 -1.03763 0
M  V30 4062 H 365.363 -1.47451 -3.57484 0
M  V30 4063 H 367.052 -1.89309 -3.5905 0
M  V30 4064 H 367.818 -4.13832 -2.52919 0
M  V30 4065 H 363.697 -3.19994 -3.31851 0
M  V30 4066 H 367.241 -6.53717 -2.43516 0
M  V30 4067 H 363.138 -5.59023 -3.22743 0
M  V30 4068 H 363.906 -7.64409 -2.92611 0
M  V30 4069 N 366.569 1.04691 -1.17803 0
M  V30 4070 C 367.517 2.14665 -0.895635 0
M  V30 4071 C 368.511 1.68806 0.141679 0
M  V30 4072 O 369.717 1.79999 -0.00587914 0
M  V30 4073 H 366.092 0.701038 -0.272121 0
M  V30 4074 H 368.063 2.35685 -1.83017 0
M  V30 4075 C 366.812 3.45019 -0.430962 0
M  V30 4076 H 366.135 3.8071 -1.22064 0
M  V30 4077 H 367.575 4.23125 -0.272301 0
M  V30 4078 C 366.034 3.25943 0.852207 0
M  V30 4079 O 366.564 3.5296 1.91786 0
M  V30 4080 N 364.77 2.79304 0.802346 0
M  V30 4081 H 364.317 2.57518 -0.0650788 0
M  V30 4082 H 364.275 2.66921 1.66134 0
M  V30 4083 N 368.047 0.979072 1.23499 0
M  V30 4084 C 369.463 0.687475 1.44034 0
M  V30 4085 C 369.663 -0.746801 1.8715 0
M  V30 4086 O 368.719 -1.51939 2.0167 0
M  V30 4087 C 370.032 1.68127 2.49307 0
M  V30 4088 C 371.58 1.69516 2.63122 0
M  V30 4089 C 372.055 2.67723 3.71603 0
M  V30 4090 N 373.546 2.66233 3.79044 0
M  V30 4091 C 374.281 3.38891 4.62537 0
M  V30 4092 N 373.777 4.21103 5.50131 0
M  V30 4093 N 375.57 3.27661 4.56721 0
M  V30 4094 H 367.721 1.90559 0.938135 0
M  V30 4095 H 369.984 0.821051 0.473897 0
M  V30 4096 H 369.69 2.70693 2.2454 0
M  V30 4097 H 369.564 1.46306 3.4767 0
M  V30 4098 H 371.951 0.676561 2.8724 0
M  V30 4099 H 372.032 1.95404 1.65079 0
M  V30 4100 H 371.676 3.69724 3.48233 0
M  V30 4101 H 371.606 2.39111 4.69184 0
M  V30 4102 H 374.097 2.06568 3.16446 0
M  V30 4103 H 374.41 4.73403 6.10827 0
M  V30 4104 H 372.755 4.25195 5.49759 0
M  V30 4105 H 375.946 2.62887 3.87309 0
M  V30 4106 H 376.119 3.84547 5.21562 0
M  V30 4107 N 369.525 -1.3858 0.750561 0
M  V30 4108 C 370.455 -2.33102 0.136237 0
M  V30 4109 C 371.436 -1.54713 -0.706965 0
M  V30 4110 O 372.621 -1.83043 -0.648769 0
M  V30 4111 C 369.751 -3.38882 -0.760017 0
M  V30 4112 C 368.705 -4.27995 -0.0197785 0
M  V30 4113 C 368.031 -5.24605 -1.03408 0
M  V30 4114 C 369.331 -5.09554 1.14684 0
M  V30 4115 H 371.025 -2.84726 0.925822 0
M  V30 4116 H 368.571 -1.36898 0.446654 0
M  V30 4117 H 370.524 -4.0397 -1.19943 0
M  V30 4118 H 369.248 -2.85734 -1.58189 0
M  V30 4119 H 367.907 -3.64409 0.400184 0
M  V30 4120 H 367.555 -4.67746 -1.84994 0
M  V30 4121 H 367.255 -5.85081 -0.543464 0
M  V30 4122 H 368.779 -5.9257 -1.47288 0
M  V30 4123 H 370.193 -5.67899 0.785118 0
M  V30 4124 H 368.59 -5.7925 1.56812 0
M  V30 4125 H 369.66 -4.4347 1.96118 0
M  V30 4126 N 371.003 -0.499398 -1.49478 0
M  V30 4127 C 372.233 0.0424839 -2.06556 0
M  V30 4128 C 372.641 1.31514 -1.36018 0
M  V30 4129 O 371.984 1.78555 -0.431718 0
M  V30 4130 C 372.046 0.368074 -3.57611 0
M  V30 4131 C 371.71 -0.806631 -4.49825 0
M  V30 4132 C 372.707 -1.69667 -4.91436 0
M  V30 4133 C 370.392 -1.00498 -4.92144 0
M  V30 4134 C 372.386 -2.76923 -5.74101 0
M  V30 4135 C 370.073 -2.08072 -5.74586 0
M  V30 4136 C 371.071 -2.96119 -6.15469 0
M  V30 4137 O 370.759 -4.01836 -6.96264 0
M  V30 4138 H 370.491 -0.0165165 -0.675798 0
M  V30 4139 H 373.045 -0.695497 -1.93267 0
M  V30 4140 H 371.275 1.15963 -3.68903 0
M  V30 4141 H 372.964 0.848381 -3.96935 0
M  V30 4142 H 373.73 -1.55524 -4.59388 0
M  V30 4143 H 369.609 -0.329036 -4.59824 0
M  V30 4144 H 373.153 -3.45676 -6.05932 0
M  V30 4145 H 369.05 -2.22211 -6.06047 0
M  V30 4146 H 369.818 -3.9917 -7.14567 0
M  V30 4147 N 372.481 1.55866 -0.233164 0
M  V30 4148 C 373.73 1.97779 0.39579 0
M  V30 4149 C 374.043 1.12419 1.60066 0
M  V30 4150 O 375.249 1.44283 2.29988 0
M  V30 4151 C 373.705 3.5188 0.755556 0
M  V30 4152 C 373.313 4.45959 -0.427152 0
M  V30 4153 C 375.057 4.02479 1.34946 0
M  V30 4154 C 372.964 5.91383 -0.0443043 0
M  V30 4155 H 371.894 0.738592 0.15165 0
M  V30 4156 H 374.545 1.80486 -0.331212 0
M  V30 4157 H 372.927 3.64816 1.5403 0
M  V30 4158 H 374.101 4.44776 -1.20462 0
M  V30 4159 H 372.416 4.05765 -0.935068 0
M  V30 4160 H 375.013 5.08637 1.649 0
M  V30 4161 H 375.356 3.49014 2.26925 0
M  V30 4162 H 375.889 3.92813 0.62791 0
M  V30 4163 H 372.628 6.48857 -0.930874 0
M  V30 4164 H 372.148 5.95734 0.697238 0
M  V30 4165 H 373.827 6.45893 0.378334 0
M  V30 4166 N 373.959 -0.0401083 1.57549 0
M  V30 4167 C 374.907 -1.06264 2.06908 0
M  V30 4168 C 375.901 -1.38132 0.980608 0
M  V30 4169 O 377.107 -1.37167 1.16556 0
M  V30 4170 H 373.482 -0.360166 0.660139 0
M  V30 4171 H 375.453 -0.620445 2.91878 0
M  V30 4172 C 374.202 -2.35846 2.55483 0
M  V30 4173 H 373.525 -2.12183 3.38849 0
M  V30 4174 H 374.965 -3.05765 2.93741 0
M  V30 4175 C 373.424 -3.0404 1.45126 0
M  V30 4176 O 373.954 -3.93424 0.811216 0
M  V30 4177 N 372.16 -2.65184 1.18852 0
M  V30 4178 H 371.707 -1.92584 1.71083 0
M  V30 4179 H 371.665 -3.1113 0.452244 0
M  V30 4180 N 375.437 -1.54477 -0.31217 0
M  V30 4181 C 376.684 -1.73227 -1.04875 0
M  V30 4182 C 377.012 -0.512042 -1.87639 0
M  V30 4183 O 376.267 0.506131 -1.89042 0
M  V30 4184 C 376.566 -2.967 -1.99258 0
M  V30 4185 C 376.232 -4.30974 -1.32559 0
M  V30 4186 C 374.894 -4.67477 -1.141 0
M  V30 4187 C 377.246 -5.14258 -0.847835 0
M  V30 4188 C 374.574 -5.84852 -0.465326 0
M  V30 4189 C 376.926 -6.32327 -0.185931 0
M  V30 4190 C 375.59 -6.67499 0.0107077 0
M  V30 4191 H 374.86 -0.633881 -0.383765 0
M  V30 4192 H 377.507 -1.88727 -0.324731 0
M  V30 4193 H 375.812 -2.75935 -2.7815 0
M  V30 4194 H 377.509 -3.08401 -2.563 0
M  V30 4195 H 374.099 -4.02262 -1.4793 0
M  V30 4196 H 378.283 -4.86565 -0.978192 0
M  V30 4197 H 373.539 -6.10654 -0.301883 0
M  V30 4198 H 377.713 -6.96135 0.192211 0
M  V30 4199 H 375.34 -7.58306 0.536287 0
M  V30 4200 N 376.915 0.57481 -1.46744 0
M  V30 4201 C 378.143 1.35856 -1.56047 0
M  V30 4202 C 378.558 1.87691 -0.204365 0
M  V30 4203 O 377.915 1.64049 0.79963 0
M  V30 4204 C 377.966 2.54066 -2.57163 0
M  V30 4205 O 377.687 2.04377 -3.87507 0
M  V30 4206 C 379.188 3.46514 -2.76483 0
M  V30 4207 H 376.408 0.414754 -0.527466 0
M  V30 4208 H 378.952 0.698035 -1.92218 0
M  V30 4209 H 377.107 3.16092 -2.23974 0
M  V30 4210 H 377.521 2.81419 -4.4261 0
M  V30 4211 H 378.995 4.25919 -3.51137 0
M  V30 4212 H 379.472 3.98951 -1.83671 0
M  V30 4213 H 380.078 2.90318 -3.10799 0
M  V30 4214 N 378.394 1.34581 0.820102 0
M  V30 4215 C 379.324 1.29038 1.94606 0
M  V30 4216 C 380.305 0.1673 1.69275 0
M  V30 4217 O 381.49 0.360112 1.90832 0
M  V30 4218 C 378.62 1.04793 3.31113 0
M  V30 4219 C 377.574 2.13597 3.70891 0
M  V30 4220 C 376.9 1.74537 5.05412 0
M  V30 4221 C 378.2 3.55451 3.8269 0
M  V30 4222 H 379.894 2.23248 1.99501 0
M  V30 4223 H 377.44 1.0747 0.958449 0
M  V30 4224 H 379.393 0.995592 4.0947 0
M  V30 4225 H 378.117 0.0702565 3.26524 0
M  V30 4226 H 376.776 2.17905 2.9481 0
M  V30 4227 H 376.424 0.754226 4.97313 0
M  V30 4228 H 376.124 2.47361 5.32997 0
M  V30 4229 H 377.648 1.70803 5.86224 0
M  V30 4230 H 379.062 3.5354 4.51312 0
M  V30 4231 H 377.459 4.26922 4.21732 0
M  V30 4232 H 378.529 3.92587 2.84611 0
M  V30 4233 N 379.872 -1.04064 1.18357 0
M  V30 4234 C 381.288 -1.2947 0.933258 0
M  V30 4235 C 381.488 -1.97466 -0.401169 0
M  V30 4236 O 380.544 -2.25528 -1.13549 0
M  V30 4237 C 381.857 -2.15337 2.09882 0
M  V30 4238 C 383.405 -2.28683 2.13712 0
M  V30 4239 C 383.88 -3.17917 3.29686 0
M  V30 4240 N 385.371 -3.25504 3.29547 0
M  V30 4241 C 386.106 -3.94706 4.15926 0
M  V30 4242 N 385.602 -4.66239 5.12439 0
M  V30 4243 N 387.395 -3.90986 4.0384 0
M  V30 4244 H 379.546 -0.583359 2.04232 0
M  V30 4245 H 381.809 -0.319921 0.892387 0
M  V30 4246 H 381.515 -1.72682 3.06389 0
M  V30 4247 H 381.389 -3.16015 2.05947 0
M  V30 4248 H 383.776 -2.70575 1.17784 0
M  V30 4249 H 383.857 -1.27596 2.21705 0
M  V30 4250 H 383.501 -2.76736 4.25887 0
M  V30 4251 H 383.431 -4.19036 3.1893 0
M  V30 4252 H 385.922 -2.74547 2.59677 0
M  V30 4253 H 386.235 -5.16638 5.74722 0
M  V30 4254 H 384.58 -4.65143 5.16398 0
M  V30 4255 H 387.771 -3.34234 3.27727 0
M  V30 4256 H 387.944 -4.44646 4.71375 0
M  V30 4257 N 381.35 -0.985608 -1.22978 0
M  V30 4258 C 382.766 -0.695104 -1.43668 0
M  V30 4259 C 382.966 0.736866 -1.87543 0
M  V30 4260 O 382.022 1.50868 -2.02473 0
M  V30 4261 C 383.335 -1.69447 -2.48412 0
M  V30 4262 C 384.883 -1.70909 -2.62219 0
M  V30 4263 C 385.358 -2.6969 -3.70178 0
M  V30 4264 N 386.849 -2.6824 -3.77626 0
M  V30 4265 C 387.584 -3.41339 -4.60733 0
M  V30 4266 N 387.08 -4.24015 -5.4789 0
M  V30 4267 N 388.873 -3.30079 -4.54977 0
M  V30 4268 H 381.024 -1.91054 -0.928016 0
M  V30 4269 H 383.287 -0.823553 -0.469536 0
M  V30 4270 H 382.993 -2.7188 -2.23102 0
M  V30 4271 H 382.867 -1.48147 -3.46889 0
M  V30 4272 H 385.254 -0.691785 -2.86877 0
M  V30 4273 H 385.335 -1.96276 -1.6404 0
M  V30 4274 H 384.979 -3.71566 -3.46268 0
M  V30 4275 H 384.909 -2.41595 -4.67909 0
M  V30 4276 H 387.4 -2.08243 -3.15346 0
M  V30 4277 H 387.713 -4.76636 -6.08308 0
M  V30 4278 H 386.058 -4.28104 -5.47496 0
M  V30 4279 H 389.249 -2.64937 -3.85909 0
M  V30 4280 H 389.422 -3.87308 -5.19516 0
M  V30 4281 N 382.828 1.3818 -0.7579 0
M  V30 4282 C 383.778 2.27741 -0.108674 0
M  V30 4283 C 384.762 1.45415 0.688709 0
M  V30 4284 O 385.954 1.68108 0.553956 0
M  V30 4285 C 383.083 3.34313 0.780367 0
M  V30 4286 C 382.169 4.24093 -0.0240977 0
M  V30 4287 N 382.56 4.9451 -1.06271 0
M  V30 4288 C 380.858 4.45542 0.202049 0
M  V30 4289 C 381.559 5.60675 -1.54979 0
M  V30 4290 N 380.535 5.36684 -0.864348 0
M  V30 4291 H 384.337 2.79649 -0.904071 0
M  V30 4292 H 381.851 1.51133 -0.594346 0
M  V30 4293 H 383.848 3.97368 1.26114 0
M  V30 4294 H 382.508 2.83962 1.57467 0
M  V30 4295 H 383.519 4.97345 -1.44459 0
M  V30 4296 H 380.196 4.06091 0.96935 0
M  V30 4297 H 381.586 6.26992 -2.41517 0
M  V30 4298 N 384.306 0.507319 1.49211 0
M  V30 4299 C 385.555 -0.0368315 2.01666 0
M  V30 4300 C 385.868 -1.37459 1.39156 0
M  V30 4301 O 387.074 -2.00579 1.82976 0
M  V30 4302 C 385.53 -0.116089 3.59713 0
M  V30 4303 C 385.138 1.2154 4.31198 0
M  V30 4304 C 386.882 -0.610268 4.2009 0
M  V30 4305 C 384.789 1.09796 5.81119 0
M  V30 4306 H 383.719 -0.0175376 0.753796 0
M  V30 4307 H 386.37 0.647691 1.71689 0
M  V30 4308 H 384.752 -0.8652 3.86433 0
M  V30 4309 H 385.926 1.9783 4.16173 0
M  V30 4310 H 384.241 1.64352 3.82593 0
M  V30 4311 H 386.838 -0.715742 5.29888 0
M  V30 4312 H 387.181 -1.61064 3.8388 0
M  V30 4313 H 387.714 0.0824916 3.97714 0
M  V30 4314 H 384.453 2.0728 6.21864 0
M  V30 4315 H 383.973 0.376058 5.9862 0
M  V30 4316 H 385.652 0.779281 6.4229 0
M  V30 4317 N 385.784 -1.5574 0.241426 0
M  V30 4318 C 387.031 -1.9881 -0.384836 0
M  V30 4319 C 387.359 -1.12947 -1.58346 0
M  V30 4320 O 386.614 -0.178993 -1.9488 0
M  V30 4321 C 386.913 -3.47308 -0.843317 0
M  V30 4322 C 386.579 -4.50223 0.246946 0
M  V30 4323 C 385.241 -4.78088 0.546399 0
M  V30 4324 C 387.593 -5.11841 0.983282 0
M  V30 4325 C 384.921 -5.64846 1.58636 0
M  V30 4326 C 387.273 -5.99727 2.01272 0
M  V30 4327 C 385.937 -6.25927 2.31888 0
M  V30 4328 H 385.207 -0.727496 -0.140821 0
M  V30 4329 H 387.854 -1.8831 0.348106 0
M  V30 4330 H 386.159 -3.55112 -1.65537 0
M  V30 4331 H 387.856 -3.78017 -1.33806 0
M  V30 4332 H 384.446 -4.286 0.00340639 0
M  V30 4333 H 388.63 -4.90366 0.765182 0
M  V30 4334 H 383.886 -5.83403 1.82896 0
M  V30 4335 H 388.06 -6.46517 2.58823 0
M  V30 4336 H 385.687 -6.92949 3.12611 0
M  V30 4337 N 387.262 0.0317525 -1.57568 0
M  V30 4338 C 388.509 0.723104 -1.89149 0
M  V30 4339 C 388.837 1.75504 -0.838377 0
M  V30 4340 O 388.092 1.95037 0.160982 0
M  V30 4341 C 388.391 1.43167 -3.27472 0
M  V30 4342 C 388.057 0.535972 -4.47703 0
M  V30 4343 C 386.719 0.289262 -4.8033 0
M  V30 4344 C 389.071 -0.0826125 -5.21135 0
M  V30 4345 C 386.399 -0.584853 -5.83778 0
M  V30 4346 C 388.751 -0.944414 -6.25511 0
M  V30 4347 C 387.415 -1.20061 -6.56614 0
M  V30 4348 H 386.685 0.264602 -0.692146 0
M  V30 4349 H 389.332 -0.0169496 -1.91492 0
M  V30 4350 H 387.637 2.24497 -3.21105 0
M  V30 4351 H 389.334 1.97209 -3.49155 0
M  V30 4352 H 385.924 0.738414 -4.22191 0
M  V30 4353 H 390.108 0.0950302 -4.96209 0
M  V30 4354 H 385.364 -0.79168 -6.06253 0
M  V30 4355 H 389.538 -1.43026 -6.81554 0
M  V30 4356 H 387.165 -1.87967 -7.36595 0
M  V30 4357 N 388.74 1.54641 0.303973 0
M  V30 4358 C 389.987 1.7378 1.03955 0
M  V30 4359 C 390.315 0.521986 1.87365 0
M  V30 4360 O 389.57 -0.496099 1.89308 0
M  V30 4361 C 389.869 2.97753 1.97681 0
M  V30 4362 C 389.535 4.31671 1.30271 0
M  V30 4363 C 388.197 4.68075 1.11619 0
M  V30 4364 C 390.549 5.147 0.82055 0
M  V30 4365 C 387.877 5.8509 0.434304 0
M  V30 4366 C 390.229 6.32416 0.152395 0
M  V30 4367 C 388.893 6.67484 -0.0461067 0
M  V30 4368 H 388.163 0.635908 0.380398 0
M  V30 4369 H 390.81 1.88896 0.314718 0
M  V30 4370 H 389.115 2.77406 2.76682 0
M  V30 4371 H 390.812 3.09756 2.54661 0
M  V30 4372 H 387.402 4.03041 1.45795 0
M  V30 4373 H 391.586 4.87077 0.952374 0
M  V30 4374 H 386.842 6.10806 0.269495 0
M  V30 4375 H 391.016 6.96023 -0.229126 0
M  V30 4376 H 388.643 7.58011 -0.576494 0
M  V30 4377 N 390.218 -0.567019 1.47046 0
M  V30 4378 C 391.148 -1.68482 1.61667 0
M  V30 4379 C 392.129 -1.6358 0.466418 0
M  V30 4380 O 393.314 -1.81354 0.694574 0
M  V30 4381 C 390.444 -3.07124 1.62148 0
M  V30 4382 C 389.398 -3.26867 2.76301 0
M  V30 4383 C 388.724 -4.66196 2.61849 0
M  V30 4384 C 390.024 -3.13186 4.17986 0
M  V30 4385 H 391.718 -1.56502 2.5524 0
M  V30 4386 H 389.264 -0.751486 1.22836 0
M  V30 4387 H 391.217 -3.8516 1.70968 0
M  V30 4388 H 389.941 -3.2004 0.651287 0
M  V30 4389 H 388.6 -2.51237 2.66975 0
M  V30 4390 H 388.248 -4.75898 1.62879 0
M  V30 4391 H 387.948 -4.80356 3.38425 0
M  V30 4392 H 389.472 -5.46379 2.72584 0
M  V30 4393 H 390.886 -3.81049 4.2834 0
M  V30 4394 H 389.283 -3.3886 4.95272 0
M  V30 4395 H 390.353 -2.10057 4.3704 0
M  V30 4396 N 391.696 -1.35014 -0.812953 0
M  V30 4397 C 392.626 -1.30069 -1.93919 0
M  V30 4398 C 393.607 -0.176275 -1.69184 0
M  V30 4399 O 394.792 -0.370227 -1.90638 0
M  V30 4400 C 391.922 -1.06547 -3.30552 0
M  V30 4401 C 390.876 -2.15561 -3.69753 0
M  V30 4402 C 390.202 -1.77214 -5.04479 0
M  V30 4403 C 391.502 -3.57476 -3.808 0
M  V30 4404 H 393.196 -2.24303 -1.98314 0
M  V30 4405 H 390.742 -1.07977 -0.952736 0
M  V30 4406 H 392.695 -1.01729 -4.08937 0
M  V30 4407 H 391.419 -0.0875719 -3.26483 0
M  V30 4408 H 390.078 -2.19466 -2.9365 0
M  V30 4409 H 389.726 -0.780589 -4.96906 0
M  V30 4410 H 389.426 -2.50184 -5.31678 0
M  V30 4411 H 390.95 -1.7391 -5.8531 0
M  V30 4412 H 392.364 -3.55929 -4.4943 0
M  V30 4413 H 390.761 -4.29152 -4.19462 0
M  V30 4414 H 391.831 -3.94091 -2.82525 0
M  V30 4415 N 393.175 1.03435 -1.18907 0
M  V30 4416 C 394.107 2.1165 -0.879595 0
M  V30 4417 C 395.12 1.62316 0.125439 0
M  V30 4418 O 396.309 1.78201 -0.103245 0
M  V30 4419 C 393.409 3.37622 -0.294042 0
M  V30 4420 C 392.582 4.16166 -1.34629 0
M  V30 4421 C 391.641 5.20457 -0.775274 0
M  V30 4422 O 390.667 5.50379 -1.4516 0
M  V30 4423 N 391.869 5.78949 0.424126 0
M  V30 4424 H 394.634 2.38791 -1.81105 0
M  V30 4425 H 392.195 1.19681 -1.09032 0
M  V30 4426 H 394.187 4.04572 0.101679 0
M  V30 4427 H 392.757 3.07873 0.541575 0
M  V30 4428 H 391.977 3.44444 -1.91707 0
M  V30 4429 H 393.265 4.65432 -2.05549 0
M  V30 4430 H 392.663 5.56948 0.991209 0
M  V30 4431 H 391.22 6.47334 0.761691 0
M  V30 4432 N 394.653 0.992116 1.22453 0
M  V30 4433 C 395.881 0.685944 1.95198 0
M  V30 4434 C 396.296 -0.749233 1.73297 0
M  V30 4435 O 395.653 -1.50549 1.03156 0
M  V30 4436 C 395.704 0.981395 3.47924 0
M  V30 4437 O 395.425 2.36018 3.6909 0
M  V30 4438 C 396.926 0.692815 4.37853 0
M  V30 4439 H 394.146 0.253821 0.621141 0
M  V30 4440 H 396.69 1.32668 1.55626 0
M  V30 4441 H 394.845 0.386481 3.85467 0
M  V30 4442 H 395.259 2.45884 4.63294 0
M  V30 4443 H 396.733 0.949818 5.43767 0
M  V30 4444 H 397.21 -0.373181 4.37612 0
M  V30 4445 H 397.816 1.26874 4.05935 0
M  V30 4446 N 396.131 -1.37776 0.765217 0
M  V30 4447 C 397.361 -2.03828 0.337277 0
M  V30 4448 C 397.769 -1.57841 -1.04321 0
M  V30 4449 O 397.112 -0.752043 -1.67601 0
M  V30 4450 C 397.174 -3.58292 0.294407 0
M  V30 4451 C 396.838 -4.27384 1.61838 0
M  V30 4452 C 397.835 -4.51956 2.56967 0
M  V30 4453 C 395.52 -4.65345 1.89102 0
M  V30 4454 C 397.514 -5.13536 3.77571 0
M  V30 4455 C 395.201 -5.26647 3.09978 0
M  V30 4456 C 396.199 -5.50679 4.04032 0
M  V30 4457 O 395.887 -6.10702 5.2278 0
M  V30 4458 H 395.619 -0.661292 0.140248 0
M  V30 4459 H 398.173 -1.77222 1.03834 0
M  V30 4460 H 396.403 -3.83918 -0.462983 0
M  V30 4461 H 398.092 -4.05763 -0.105581 0
M  V30 4462 H 398.858 -4.23048 2.37183 0
M  V30 4463 H 394.737 -4.45978 1.16725 0
M  V30 4464 H 398.281 -5.3221 4.50997 0
M  V30 4465 H 394.178 -5.54979 3.29649 0
M  V30 4466 H 394.946 -6.29183 5.23517 0
M  V30 4467 N 397.609 -0.515225 -1.4894 0
M  V30 4468 C 398.856 0.024215 -2.02486 0
M  V30 4469 C 399.184 1.35671 -1.39368 0
M  V30 4470 O 398.439 1.88566 -0.523574 0
M  V30 4471 C 398.738 0.210595 -3.56779 0
M  V30 4472 C 398.404 -1.04569 -4.38607 0
M  V30 4473 C 397.066 -1.39002 -4.60686 0
M  V30 4474 C 399.418 -1.88008 -4.86109 0
M  V30 4475 C 396.746 -2.568 -5.27514 0
M  V30 4476 C 399.098 -3.04972 -5.54234 0
M  V30 4477 C 397.762 -3.39768 -5.74555 0
M  V30 4478 H 397.032 0.00886088 -0.740947 0
M  V30 4479 H 399.679 -0.678263 -1.79086 0
M  V30 4480 H 397.984 0.99572 -3.78936 0
M  V30 4481 H 399.681 0.642659 -3.95817 0
M  V30 4482 H 396.271 -0.767497 -4.21672 0
M  V30 4483 H 400.455 -1.62719 -4.68867 0
M  V30 4484 H 395.711 -2.8398 -5.41447 0
M  V30 4485 H 399.885 -3.69943 -5.90013 0
M  V30 4486 H 397.512 -4.31148 -6.26112 0
M  V30 4487 N 399.087 1.5561 -0.249682 0
M  V30 4488 C 400.498 1.84979 0.252949 0
M  V30 4489 C 400.849 1.17153 1.57384 0
M  V30 4490 O 399.974 0.450884 2.11651 0
M  V30 4491 C 400.569 3.35584 0.465732 0
M  V30 4492 C 399.128 3.65169 0.912624 0
M  V30 4493 C 398.275 2.77299 -0.00859085 0
M  V30 4494 H 401.226 1.51513 -0.47217 0
M  V30 4495 H 401.247 3.57313 1.30795 0
M  V30 4496 H 400.759 3.8492 -0.49579 0
M  V30 4497 H 398.86 3.21312 1.88652 0
M  V30 4498 H 398.973 4.72912 0.767559 0
M  V30 4499 H 397.337 2.49678 0.50327 0
M  V30 4500 H 398.12 3.29442 -0.965537 0
M  V30 4501 N 400.565 -0.0233959 1.57583 0
M  V30 4502 C 401.528 -1.00693 2.05897 0
M  V30 4503 C 402.528 -1.28693 0.964092 0
M  V30 4504 O 403.718 -1.23602 1.22753 0
M  V30 4505 C 400.85 -2.33825 2.4807 0
M  V30 4506 H 402.043 -0.589476 2.9405 0
M  V30 4507 H 399.596 -0.270354 1.53944 0
M  V30 4508 H 400.331 -2.80307 1.6309 0
M  V30 4509 H 400.116 -2.1483 3.2801 0
M  V30 4510 H 401.606 -3.04426 2.85857 0
M  V30 4511 N 402.043 -1.548 -0.295768 0
M  V30 4512 C 403.271 -1.78327 -1.04914 0
M  V30 4513 C 403.686 -0.545316 -1.80753 0
M  V30 4514 O 403.043 0.485013 -1.75937 0
M  V30 4515 C 403.094 -2.99418 -2.02561 0
M  V30 4516 O 402.815 -4.18431 -1.29798 0
M  V30 4517 C 404.316 -3.35375 -2.89895 0
M  V30 4518 H 401.536 -0.594618 -0.310918 0
M  V30 4519 H 404.08 -2.01763 -0.333454 0
M  V30 4520 H 402.235 -2.78175 -2.69624 0
M  V30 4521 H 402.649 -4.86736 -1.95419 0
M  V30 4522 H 404.123 -4.23332 -3.54251 0
M  V30 4523 H 404.6 -2.53761 -3.58472 0
M  V30 4524 H 405.206 -3.58796 -2.28355 0
M  V30 4525 N 403.521 0.559213 -1.47345 0
M  V30 4526 C 404.451 1.67622 -1.62558 0
M  V30 4527 C 405.432 1.63331 -0.475087 0
M  V30 4528 O 406.617 1.80983 -0.704182 0
M  V30 4529 C 403.747 3.0626 -1.63774 0
M  V30 4530 C 402.701 3.25397 -2.7803 0
M  V30 4531 C 402.027 4.64801 -2.64318 0
M  V30 4532 C 403.327 3.10965 -4.19641 0
M  V30 4533 H 405.021 1.55146 -2.56067 0
M  V30 4534 H 402.567 0.744961 -1.23233 0
M  V30 4535 H 404.52 3.84247 -1.73008 0
M  V30 4536 H 403.244 3.1969 -0.66825 0
M  V30 4537 H 401.903 2.49817 -2.68304 0
M  V30 4538 H 401.551 4.75028 -1.65401 0
M  V30 4539 H 401.251 4.78555 -3.40968 0
M  V30 4540 H 402.775 5.44926 -2.75478 0
M  V30 4541 H 404.189 3.78772 -4.30354 0
M  V30 4542 H 402.586 3.36229 -4.97062 0
M  V30 4543 H 403.656 2.07736 -4.38148 0
M  V30 4544 N 404.999 1.35443 0.805782 0
M  V30 4545 C 405.932 1.22783 1.92353 0
M  V30 4546 C 406.91 0.115543 1.62189 0
M  V30 4547 O 408.094 0.283778 1.86352 0
M  V30 4548 C 405.221 0.890746 3.26777 0
M  V30 4549 C 404.267 2.01519 3.75889 0
M  V30 4550 S 405.1 3.63101 3.93596 0
M  V30 4551 C 406.256 3.31472 5.30921 0
M  V30 4552 H 406.489 2.17394 2.02798 0
M  V30 4553 H 404.022 1.20669 0.963245 0
M  V30 4554 H 405.98 0.703068 4.04434 0
M  V30 4555 H 404.641 -0.0373152 3.14078 0
M  V30 4556 H 403.834 1.7335 4.7325 0
M  V30 4557 H 403.436 2.16124 3.05231 0
M  V30 4558 H 405.728 2.8435 6.1494 0
M  V30 4559 H 406.671 4.28036 5.64084 0
M  V30 4560 H 407.079 2.67221 4.97246 0
M  V30 4561 N 406.477 -1.02803 1.19454 0
M  V30 4562 C 407.723 -1.76478 0.999171 0
M  V30 4563 C 408.056 -1.88456 -0.468828 0
M  V30 4564 O 407.331 -1.40198 -1.34814 0
M  V30 4565 C 407.614 -3.19044 1.66981 0
M  V30 4566 C 407.467 -3.14932 3.21151 0
M  V30 4567 C 408.786 -4.17456 1.39349 0
M  V30 4568 H 405.905 -0.640614 0.364393 0
M  V30 4569 H 408.547 -1.20005 1.47305 0
M  V30 4570 H 406.697 -3.67263 1.2669 0
M  V30 4571 H 408.369 -2.74605 3.70661 0
M  V30 4572 H 406.612 -2.52625 3.52652 0
M  V30 4573 H 407.283 -4.1566 3.63223 0
M  V30 4574 H 409.759 -3.77842 1.74283 0
M  V30 4575 H 408.635 -5.154 1.88823 0
M  V30 4576 H 408.896 -4.40949 0.318813 0
M  V30 4577 N 407.956 -0.998596 -1.21925 0
M  V30 4578 C 408.889 -0.498517 -2.22688 0
M  V30 4579 C 409.867 0.444301 -1.56412 0
M  V30 4580 O 411.051 0.368518 -1.84863 0
M  V30 4581 C 408.178 0.276639 -3.37568 0
M  V30 4582 C 407.224 -0.61302 -4.22071 0
M  V30 4583 S 408.057 -2.07168 -4.93803 0
M  V30 4584 C 409.213 -1.30617 -6.12119 0
M  V30 4585 H 409.446 -1.35234 -2.64762 0
M  V30 4586 H 406.979 -0.806018 -1.31692 0
M  V30 4587 H 408.937 0.717817 -4.04175 0
M  V30 4588 H 407.598 1.10581 -2.93991 0
M  V30 4589 H 406.791 -0.0162909 -5.03997 0
M  V30 4590 H 406.393 -0.991202 -3.60626 0
M  V30 4591 H 408.685 -0.57675 -6.75041 0
M  V30 4592 H 409.628 -2.10091 -6.76215 0
M  V30 4593 H 410.036 -0.816957 -5.58557 0
M  V30 4594 N 409.434 1.37368 -0.772513 0
M  V30 4595 C 410.364 2.32856 -0.173304 0
M  V30 4596 C 411.345 1.55818 0.682262 0
M  V30 4597 O 412.53 1.84052 0.619566 0
M  V30 4598 C 409.66 3.40048 0.706007 0
M  V30 4599 C 408.614 4.27973 -0.0483144 0
M  V30 4600 C 407.94 5.26184 0.950491 0
M  V30 4601 C 409.24 5.07665 -1.22776 0
M  V30 4602 H 410.934 2.83217 -0.971002 0
M  V30 4603 H 408.48 1.3617 -0.468377 0
M  V30 4604 H 410.433 4.05827 1.13501 0
M  V30 4605 H 409.157 2.88214 1.53623 0
M  V30 4606 H 407.816 3.63726 -0.458107 0
M  V30 4607 H 407.464 4.7063 1.77529 0
M  V30 4608 H 407.164 5.85872 0.450314 0
M  V30 4609 H 408.688 5.94838 1.37842 0
M  V30 4610 H 410.102 5.66578 -0.875366 0
M  V30 4611 H 408.499 5.76681 -1.66007 0
M  V30 4612 H 409.569 4.40294 -2.03149 0
M  V30 4613 N 410.912 0.523116 1.48665 0
M  V30 4614 C 412.137 -0.0117284 2.07397 0
M  V30 4615 C 412.562 -1.28031 1.37803 0
M  V30 4616 O 411.92 -1.75836 0.441762 0
M  V30 4617 C 411.968 -0.225786 3.59892 0
M  V30 4618 O 411.072 -1.29592 3.91509 0
M  V30 4619 H 410.413 0.0360673 0.66302 0
M  V30 4620 H 412.943 0.729066 1.9117 0
M  V30 4621 H 412.953 -0.450552 4.05505 0
M  V30 4622 H 411.628 0.700944 4.09951 0
M  V30 4623 H 410.205 -1.05436 3.57684 0
M  V30 4624 N 412.39 -1.55475 0.257931 0
M  V30 4625 C 413.636 -2.00237 -0.357338 0
M  V30 4626 C 413.991 -1.14313 -1.54759 0
M  V30 4627 O 413.284 -0.201187 -1.90541 0
M  V30 4628 C 413.478 -3.48183 -0.806433 0
M  V30 4629 C 413.307 -4.48422 0.338758 0
M  V30 4630 C 412.077 -4.98651 0.817011 0
M  V30 4631 C 414.275 -5.00827 1.16949 0
M  V30 4632 N 412.257 -5.82658 1.93346 0
M  V30 4633 C 413.628 -5.82113 2.13413 0
M  V30 4634 C 415.683 -4.83104 1.2048 0
M  V30 4635 C 414.386 -6.47566 3.13131 0
M  V30 4636 C 416.412 -5.49343 2.19034 0
M  V30 4637 C 415.774 -6.30427 3.14232 0
M  V30 4638 H 411.873 -0.776034 -0.0964083 0
M  V30 4639 H 414.457 -1.90995 0.37803 0
M  V30 4640 H 412.628 -3.57801 -1.51107 0
M  V30 4641 H 414.36 -3.79802 -1.39758 0
M  V30 4642 H 411.115 -4.71914 0.39925 0
M  V30 4643 H 411.539 -6.29356 2.49478 0
M  V30 4644 H 416.181 -4.20036 0.482634 0
M  V30 4645 H 413.899 -7.09793 3.8629 0
M  V30 4646 H 417.485 -5.37579 2.22485 0
M  V30 4647 H 416.365 -6.80777 3.89246 0
M  V30 4648 N 413.868 0.0150385 -1.57593 0
M  V30 4649 C 415.114 0.704043 -1.90187 0
M  V30 4650 C 415.447 1.74249 -0.857366 0
M  V30 4651 O 414.722 1.94092 0.125843 0
M  V30 4652 C 415.005 1.36087 -3.33395 0
M  V30 4653 C 414.858 0.334981 -4.48551 0
M  V30 4654 C 416.177 2.29112 -3.7576 0
M  V30 4655 H 413.296 0.254475 -0.691673 0
M  V30 4656 H 415.938 -0.0331678 -1.89971 0
M  V30 4657 H 414.088 1.98922 -3.3371 0
M  V30 4658 H 415.76 -0.292534 -4.60372 0
M  V30 4659 H 414.003 -0.344325 -4.32431 0
M  V30 4660 H 414.674 0.833316 -5.45674 0
M  V30 4661 H 417.15 1.76308 -3.76902 0
M  V30 4662 H 416.026 2.72043 -4.76743 0
M  V30 4663 H 416.287 3.16385 -3.08793 0
M  V30 4664 N 415.346 1.54954 0.287554 0
M  V30 4665 C 416.571 1.79209 1.04397 0
M  V30 4666 C 416.996 0.556431 1.79682 0
M  V30 4667 O 416.354 -0.493518 1.74454 0
M  V30 4668 C 416.402 3.00739 1.98969 0
M  V30 4669 O 415.506 2.74805 3.075 0
M  V30 4670 H 414.847 0.592755 0.299227 0
M  V30 4671 H 417.377 2.02068 0.320886 0
M  V30 4672 H 417.387 3.29077 2.4119 0
M  V30 4673 H 416.062 3.90329 1.43582 0
M  V30 4674 H 414.639 2.57523 2.69697 0
M  V30 4675 N 416.824 -0.551391 1.4764 0
M  V30 4676 C 418.071 -1.3083 1.54563 0
M  V30 4677 C 418.399 -1.93359 0.210361 0
M  V30 4678 O 417.654 -1.78721 -0.797332 0
M  V30 4679 C 417.953 -2.43469 2.61644 0
M  V30 4680 C 417.619 -1.98732 4.04742 0
M  V30 4681 C 416.281 -1.86248 4.43695 0
M  V30 4682 C 418.633 -1.64659 4.94507 0
M  V30 4683 C 415.961 -1.37995 5.70241 0
M  V30 4684 C 418.313 -1.17875 6.21521 0
M  V30 4685 C 416.977 -1.03992 6.5935 0
M  V30 4686 H 416.247 -0.478741 0.565587 0
M  V30 4687 H 418.894 -0.617697 1.81264 0
M  V30 4688 H 417.199 -3.18109 2.28722 0
M  V30 4689 H 418.896 -3.01642 2.64222 0
M  V30 4690 H 415.486 -2.09393 3.73968 0
M  V30 4691 H 419.67 -1.73174 4.65107 0
M  V30 4692 H 414.926 -1.25915 5.98294 0
M  V30 4693 H 419.1 -0.905739 6.90485 0
M  V30 4694 H 416.727 -0.663794 7.57296 0
M  V30 4695 N 418.302 -1.35869 -0.798587 0
M  V30 4696 C 419.548 -1.30788 -1.55775 0
M  V30 4697 C 419.903 0.114558 -1.92059 0
M  V30 4698 O 419.196 1.06691 -1.59147 0
M  V30 4699 C 419.39 -2.1556 -2.85077 0
M  V30 4700 C 419.219 -3.65904 -2.61428 0
M  V30 4701 C 417.989 -4.35112 -2.56915 0
M  V30 4702 C 420.187 -4.59375 -2.31255 0
M  V30 4703 N 418.169 -5.71155 -2.25068 0
M  V30 4704 C 419.54 -5.83598 -2.09316 0
M  V30 4705 C 421.595 -4.48035 -2.17185 0
M  V30 4706 C 420.298 -6.97755 -1.74731 0
M  V30 4707 C 422.324 -5.62049 -1.83998 0
M  V30 4708 C 421.686 -6.85305 -1.629 0
M  V30 4709 H 417.785 -0.533855 -0.571422 0
M  V30 4710 H 420.369 -1.7083 -0.934079 0
M  V30 4711 H 418.54 -1.77776 -3.45326 0
M  V30 4712 H 420.272 -2.01938 -3.50718 0
M  V30 4713 H 417.027 -3.87812 -2.71843 0
M  V30 4714 H 417.451 -6.42978 -2.11916 0
M  V30 4715 H 422.093 -3.53338 -2.3219 0
M  V30 4716 H 419.811 -7.92411 -1.58464 0
M  V30 4717 H 423.397 -5.55232 -1.73808 0
M  V30 4718 H 422.277 -7.72034 -1.37596 0
M  V30 4719 N 419.78 1.02168 -1.19998 0
M  V30 4720 C 421.029 1.75091 -1.0013 0
M  V30 4721 C 421.342 1.89923 0.467835 0
M  V30 4722 O 422.548 2.59888 0.785515 0
M  V30 4723 C 421.004 3.14892 -1.74273 0
M  V30 4724 C 420.612 3.0809 -3.25245 0
M  V30 4725 C 422.356 3.9206 -1.62755 0
M  V30 4726 C 420.263 4.42867 -3.91948 0
M  V30 4727 H 419.193 0.656394 -0.37103 0
M  V30 4728 H 421.844 1.14284 -1.43567 0
M  V30 4729 H 420.226 3.7621 -1.2362 0
M  V30 4730 H 421.4 2.5611 -3.83072 0
M  V30 4731 H 419.715 2.44416 -3.3712 0
M  V30 4732 H 422.312 4.91764 -2.09934 0
M  V30 4733 H 422.655 4.12199 -0.582894 0
M  V30 4734 H 423.188 3.37359 -2.10793 0
M  V30 4735 H 419.927 4.27931 -4.96543 0
M  V30 4736 H 419.447 4.94874 -3.3891 0
M  V30 4737 H 421.126 5.11728 -3.95909 0
M  V30 4738 N 421.258 1.00505 1.21394 0
M  V30 4739 C 422.535 0.603277 1.86064 0
M  V30 4740 C 422.915 -0.919095 1.90042 0
M  V30 4741 O 422.263 -1.80607 1.39977 0
M  V30 4742 C 422.473 1.23772 3.26315 0
M  V30 4743 C 423.821 1.34586 4.02705 0
M  V30 4744 O 424.845 1.19304 3.35626 0
M  V30 4745 O 423.704 1.59169 5.22807 0
M  V30 4746 H 420.798 0.206634 0.800769 0
M  V30 4747 H 423.344 1.1017 1.29076 0
M  V30 4748 H 422.116 2.27848 3.18121 0
M  V30 4749 H 421.739 0.725648 3.90922 0
M  V30 4750 N 422.737 -1.36956 0.779787 0
M  V30 4751 C 424.153 -1.52817 0.460342 0
M  V30 4752 C 424.353 -1.7361 -1.02283 0
M  V30 4753 O 423.409 -1.76207 -1.80852 0
M  V30 4754 C 424.722 -2.71983 1.28241 0
M  V30 4755 C 426.27 -2.85849 1.27512 0
M  V30 4756 C 426.745 -4.08008 2.08072 0
M  V30 4757 N 428.236 -4.15135 2.05467 0
M  V30 4758 C 428.971 -5.08711 2.64577 0
M  V30 4759 N 428.467 -6.07792 3.32506 0
M  V30 4760 N 430.26 -5.01254 2.54363 0
M  V30 4761 H 422.411 -1.21713 1.74068 0
M  V30 4762 H 424.674 -0.593294 0.739396 0
M  V30 4763 H 424.38 -2.63109 2.33381 0
M  V30 4764 H 424.254 -3.65882 0.917088 0
M  V30 4765 H 426.641 -2.94189 0.231686 0
M  V30 4766 H 426.722 -1.92886 1.68014 0
M  V30 4767 H 426.366 -4.00429 3.12441 0
M  V30 4768 H 426.296 -5.001 1.64947 0
M  V30 4769 H 428.787 -3.44189 1.5602 0
M  V30 4770 H 429.1 -6.75739 3.74963 0
M  V30 4771 H 427.445 -6.08047 3.36606 0
M  V30 4772 H 430.636 -4.22795 2.00902 0
M  V30 4773 H 430.809 -5.73995 3.00722 0
M  V30 4774 N 424.215 -0.530993 -1.48385 0
M  V30 4775 C 425.631 -0.188919 -1.58478 0
M  V30 4776 C 425.831 1.30786 -1.53288 0
M  V30 4777 O 424.887 2.08619 -1.42248 0
M  V30 4778 C 426.2 -0.792343 -2.90073 0
M  V30 4779 C 427.748 -0.76117 -3.03604 0
M  V30 4780 C 428.223 -1.34319 -4.37861 0
M  V30 4781 N 429.714 -1.3052 -4.44431 0
M  V30 4782 C 430.449 -1.72543 -5.46824 0
M  V30 4783 N 429.945 -2.22299 -6.56167 0
M  V30 4784 N 431.738 -1.63773 -5.37712 0
M  V30 4785 H 423.889 -1.50377 -1.50002 0
M  V30 4786 H 426.152 -0.625559 -0.712306 0
M  V30 4787 H 425.858 -1.84323 -2.99529 0
M  V30 4788 H 425.732 -0.270026 -3.76232 0
M  V30 4789 H 428.119 0.280957 -2.93759 0
M  V30 4790 H 428.2 -1.32097 -2.19053 0
M  V30 4791 H 427.844 -2.38425 -4.4846 0
M  V30 4792 H 427.774 -0.759064 -5.21101 0
M  V30 4793 H 430.265 -0.940973 -3.65997 0
M  V30 4794 H 430.578 -2.52356 -7.30436 0
M  V30 4795 H 428.923 -2.26293 -6.57127 0
M  V30 4796 H 432.114 -1.24698 -4.51185 0
M  V30 4797 H 432.287 -1.96844 -6.17379 0
M  V30 4798 N 425.693 1.55336 -0.266172 0
M  V30 4799 C 426.656 2.20878 0.612001 0
M  V30 4800 C 427.656 1.18388 1.08816 0
M  V30 4801 O 428.846 1.4335 0.989774 0
M  V30 4802 C 425.978 2.86765 1.84332 0
M  V30 4803 H 427.171 2.99873 0.0398718 0
M  V30 4804 H 424.724 1.56291 -0.0167309 0
M  V30 4805 H 425.459 2.11759 2.45619 0
M  V30 4806 H 425.244 3.61862 1.5099 0
M  V30 4807 H 426.734 3.36867 2.46801 0
M  V30 4808 N 427.171 -0.0066808 1.57599 0
M  V30 4809 C 428.417 -0.693947 1.90558 0
M  V30 4810 C 428.75 -1.73792 0.866594 0
M  V30 4811 O 428.025 -1.94156 -0.115548 0
M  V30 4812 C 428.308 -1.34317 3.34112 0
M  V30 4813 C 428.161 -0.311189 4.48722 0
M  V30 4814 C 429.48 -2.27116 3.7697 0
M  V30 4815 H 426.599 -0.250803 0.693013 0
M  V30 4816 H 429.241 0.043242 1.89951 0
M  V30 4817 H 427.391 -1.9715 3.3476 0
M  V30 4818 H 429.063 0.316944 4.6021 0
M  V30 4819 H 427.306 0.367253 4.32243 0
M  V30 4820 H 427.977 -0.804366 5.46108 0
M  V30 4821 H 430.453 -1.74306 3.77831 0
M  V30 4822 H 429.329 -2.69511 4.78179 0
M  V30 4823 H 429.59 -3.14743 3.10466 0
M  V30 4824 N 428.649 -1.55105 -0.279332 0
M  V30 4825 C 430.06 -1.66186 -0.850832 0
M  V30 4826 C 430.411 -0.584707 -1.87285 0
M  V30 4827 O 429.536 0.274919 -2.14647 0
M  V30 4828 C 430.131 -3.01264 -1.55001 0
M  V30 4829 C 428.69 -3.14394 -2.06963 0
M  V30 4830 C 427.837 -2.61959 -0.909536 0
M  V30 4831 H 430.788 -1.58602 -0.0558235 0
M  V30 4832 H 430.809 -2.93899 -2.41669 0
M  V30 4833 H 430.321 -3.7964 -0.805931 0
M  V30 4834 H 428.422 -2.4078 -2.84352 0
M  V30 4835 H 428.535 -4.20867 -2.28928 0
M  V30 4836 H 426.899 -2.18957 -1.30116 0
M  V30 4837 H 427.682 -3.42833 -0.179062 0
M  V30 4838 N 430.127 0.543554 -1.4793 0
M  V30 4839 C 431.09 1.63156 -1.60975 0
M  V30 4840 C 432.09 1.53346 -0.483899 0
M  V30 4841 O 433.28 1.5726 -0.749339 0
M  V30 4842 C 430.412 3.02743 -1.56716 0
M  V30 4843 H 431.605 1.52934 -2.57975 0
M  V30 4844 H 429.158 0.764557 -1.36324 0
M  V30 4845 H 429.893 3.18484 -0.611418 0
M  V30 4846 H 429.678 3.11272 -2.38438 0
M  V30 4847 H 431.168 3.81871 -1.6901 0
M  V30 4848 N 431.605 1.3629 0.791371 0
M  V30 4849 C 433.021 1.16661 1.08914 0
M  V30 4850 C 433.221 -0.0106266 2.01497 0
M  V30 4851 O 432.277 -0.676596 2.43266 0
M  V30 4852 C 433.59 2.47656 1.70549 0
M  V30 4853 C 435.138 2.54002 1.82899 0
M  V30 4854 C 435.613 3.85078 2.47949 0
M  V30 4855 N 437.104 3.86413 2.5542 0
M  V30 4856 C 437.839 4.84572 3.06557 0
M  V30 4857 N 437.335 5.93124 3.58016 0
M  V30 4858 N 439.128 4.71994 3.05251 0
M  V30 4859 H 431.279 2.11668 0.176238 0
M  V30 4860 H 433.542 0.937486 0.140796 0
M  V30 4861 H 433.248 3.34059 1.09989 0
M  V30 4862 H 433.122 2.63319 2.70079 0
M  V30 4863 H 435.509 1.68018 2.42598 0
M  V30 4864 H 435.59 2.42239 0.821808 0
M  V30 4865 H 435.234 4.71467 1.88895 0
M  V30 4866 H 435.164 3.94135 3.49235 0
M  V30 4867 H 437.655 3.07988 2.18979 0
M  V30 4868 H 437.968 6.63999 3.95381 0
M  V30 4869 H 436.313 5.96796 3.56173 0
M  V30 4870 H 439.504 3.86321 2.64336 0
M  V30 4871 H 439.677 5.48653 3.44796 0
M  V30 4872 N 433.083 -1.0153 1.20538 0
M  V30 4873 C 434.329 -1.75408 1.01783 0
M  V30 4874 C 434.662 -1.88943 -0.448814 0
M  V30 4875 O 433.937 -1.4162 -1.33319 0
M  V30 4876 C 434.22 -3.17255 1.70356 0
M  V30 4877 C 434.073 -3.11508 3.24473 0
M  V30 4878 C 435.392 -4.15955 1.43769 0
M  V30 4879 H 432.511 -0.636713 0.371167 0
M  V30 4880 H 435.153 -1.18436 1.4857 0
M  V30 4881 H 433.303 -3.65898 1.30578 0
M  V30 4882 H 434.975 -2.70658 3.73553 0
M  V30 4883 H 433.218 -2.4887 3.55311 0
M  V30 4884 H 433.889 -4.11784 3.67611 0
M  V30 4885 H 436.365 -3.75973 1.7828 0
M  V30 4886 H 435.241 -5.13368 1.94279 0
M  V30 4887 H 435.502 -4.40586 0.365564 0
M  V30 4888 N 434.561 -1.01147 -1.20859 0
M  V30 4889 C 435.786 -0.716698 -1.94623 0
M  V30 4890 C 436.211 0.715415 -1.73964 0
M  V30 4891 O 435.569 1.49157 -1.03062 0
M  V30 4892 C 435.617 -1.0513 -3.44935 0
M  V30 4893 O 434.721 -0.160131 -4.12089 0
M  V30 4894 H 434.062 -0.266404 -0.608214 0
M  V30 4895 H 436.592 -1.35346 -1.53436 0
M  V30 4896 H 436.602 -1.00086 -3.95533 0
M  V30 4897 H 435.277 -2.09475 -3.59295 0
M  V30 4898 H 433.854 -0.267657 -3.71938 0
M  V30 4899 N 436.039 1.36541 -0.78704 0
M  V30 4900 C 436.969 2.32659 -0.197992 0
M  V30 4901 C 437.95 1.56533 0.665697 0
M  V30 4902 O 439.135 1.84698 0.60001 0
M  V30 4903 C 436.265 3.40778 0.669901 0
M  V30 4904 C 435.219 4.27897 -0.0937039 0
M  V30 4905 C 434.545 5.27163 0.894629 0
M  V30 4906 C 435.845 5.06334 -1.28154 0
M  V30 4907 H 437.539 2.82171 -1.00099 0
M  V30 4908 H 435.085 1.35665 -0.482793 0
M  V30 4909 H 437.038 4.07008 1.09191 0
M  V30 4910 H 435.762 2.89827 1.50558 0
M  V30 4911 H 434.421 3.6322 -0.49666 0
M  V30 4912 H 434.069 4.72486 1.72527 0
M  V30 4913 H 433.769 5.86317 0.388149 0
M  V30 4914 H 435.293 5.96266 1.31525 0
M  V30 4915 H 436.707 5.65617 -0.93541 0
M  V30 4916 H 435.104 5.74888 -1.72115 0
M  V30 4917 H 436.174 4.38114 -2.07807 0
M  V30 4918 N 437.518 0.538854 1.48102 0
M  V30 4919 C 438.766 0.00798599 2.02098 0
M  V30 4920 C 439.087 -1.33922 1.41739 0
M  V30 4921 O 438.357 -1.86932 0.585934 0
M  V30 4922 H 436.937 -3.62179e-05 0.747 0
M  V30 4923 H 439.599 0.7047 1.81714 0
M  V30 4924 H 438.695 -0.0937672 3.11959 0
M  V30 4925 N 438.996 -1.55193 0.274407 0
M  V30 4926 C 440.245 -1.98758 -0.343213 0
M  V30 4927 C 440.558 -1.16624 -1.5703 0
M  V30 4928 O 441.764 -1.5033 -2.26082 0
M  V30 4929 C 440.22 -3.53759 -0.661996 0
M  V30 4930 C 439.828 -4.4467 0.54524 0
M  V30 4931 C 441.572 -4.05916 -1.24228 0
M  V30 4932 C 439.479 -5.91058 0.201084 0
M  V30 4933 H 438.409 -0.742353 -0.132014 0
M  V30 4934 H 441.06 -1.79545 0.378948 0
M  V30 4935 H 439.442 -3.68772 -1.44304 0
M  V30 4936 H 440.616 -4.41426 1.32212 0
M  V30 4937 H 438.931 -4.03143 1.04232 0
M  V30 4938 H 441.528 -5.12831 -1.51357 0
M  V30 4939 H 441.871 -3.54908 -2.17592 0
M  V30 4940 H 442.404 -3.9434 -0.523542 0
M  V30 4941 H 439.143 -6.46161 1.10258 0
M  V30 4942 H 438.663 -5.97373 -0.539045 0
M  V30 4943 H 440.342 -6.46669 -0.206954 0
M  V30 4944 N 440.474 -0.00167713 -1.576 0
M  V30 4945 C 441.702 0.693759 -1.94922 0
M  V30 4946 C 442.117 1.67215 -0.876626 0
M  V30 4947 O 441.474 1.81929 0.144279 0
M  V30 4948 C 441.525 1.42416 -3.32265 0
M  V30 4949 O 441.246 0.485014 -4.35407 0
M  V30 4950 C 442.747 2.21395 -3.84056 0
M  V30 4951 H 439.967 0.193118 -0.642609 0
M  V30 4952 H 442.511 -0.0532952 -2.04431 0
M  V30 4953 H 440.666 2.12284 -3.24059 0
M  V30 4954 H 441.08 1.00053 -5.14868 0
M  V30 4955 H 442.554 2.67996 -4.82578 0
M  V30 4956 H 443.031 3.04142 -3.16851 0
M  V30 4957 H 443.637 1.56542 -3.95443 0
M  V30 4958 N 441.952 1.55251 0.271103 0
M  V30 4959 C 443.18 1.79974 1.02064 0
M  V30 4960 C 443.595 0.574003 1.79863 0
M  V30 4961 O 442.952 -0.456962 1.76686 0
M  V30 4962 C 443.003 3.02603 1.97772 0
M  V30 4963 O 442.724 4.20443 1.23124 0
M  V30 4964 C 444.225 3.39944 2.84522 0
M  V30 4965 H 441.445 0.599489 0.301419 0
M  V30 4966 H 443.989 2.02268 0.301313 0
M  V30 4967 H 442.144 2.8243 2.65165 0
M  V30 4968 H 442.558 4.89783 1.87651 0
M  V30 4969 H 444.032 4.28915 3.47471 0
M  V30 4970 H 444.509 2.59432 3.54389 0
M  V30 4971 H 445.115 3.62383 2.22618 0
M  V30 4972 N 443.43 -0.535701 1.48216 0
M  V30 4973 C 444.676 -1.29375 1.56173 0
M  V30 4974 C 445.009 -1.92804 0.232429 0
M  V30 4975 O 444.284 -1.78992 -0.761048 0
M  V30 4976 C 444.567 -2.38747 2.69577 0
M  V30 4977 C 444.42 -1.80046 4.12193 0
M  V30 4978 C 445.739 -3.40551 2.78771 0
M  V30 4979 H 442.858 -0.469027 0.568491 0
M  V30 4980 H 445.5 -0.597358 1.80365 0
M  V30 4981 H 443.65 -2.98147 2.4908 0
M  V30 4982 H 445.322 -1.24742 4.44114 0
M  V30 4983 H 443.565 -1.10609 4.19462 0
M  V30 4984 H 444.236 -2.59212 4.87353 0
M  V30 4985 H 446.712 -2.91099 2.97322 0
M  V30 4986 H 445.588 -4.1448 3.59857 0
M  V30 4987 H 445.849 -4.00746 1.86696 0
M  V30 4988 N 444.908 -1.36708 -0.784132 0
M  V30 4989 C 445.838 -1.34153 -1.91116 0
M  V30 4990 C 446.819 -0.212121 -1.68772 0
M  V30 4991 O 448.004 -0.410581 -1.8981 0
M  V30 4992 C 445.134 -1.13535 -3.28218 0
M  V30 4993 C 444.088 -2.23356 -3.65097 0
M  V30 4994 C 443.414 -1.87875 -5.00607 0
M  V30 4995 C 444.714 -3.65473 -3.73131 0
M  V30 4996 H 446.408 -2.28459 -1.93512 0
M  V30 4997 H 443.954 -1.09973 -0.929618 0
M  V30 4998 H 445.907 -1.10381 -4.06687 0
M  V30 4999 H 444.631 -0.156804 -3.26223 0
M  V30 5000 H 443.29 -2.25645 -2.88929 0
M  V30 5001 H 442.938 -0.885814 -4.95139 0
M  V30 5002 H 442.638 -2.61406 -5.26252 0
M  V30 5003 H 444.162 -1.86286 -5.81489 0
M  V30 5004 H 445.576 -3.65382 -4.41779 0
M  V30 5005 H 443.973 -4.37953 -4.10265 0
M  V30 5006 H 445.043 -3.99995 -2.74102 0
M  V30 5007 N 446.386 1.0089 -1.21074 0
M  V30 5008 C 447.614 1.78191 -1.05145 0
M  V30 5009 C 448.029 1.84537 0.398952 0
M  V30 5010 O 447.386 1.30393 1.27687 0
M  V30 5011 C 447.437 3.22288 -1.63746 0
M  V30 5012 O 447.158 3.16315 -3.03111 0
M  V30 5013 C 448.659 4.16106 -1.52875 0
M  V30 5014 H 445.879 0.560129 -0.369454 0
M  V30 5015 H 448.423 1.26945 -1.60328 0
M  V30 5016 H 446.578 3.70655 -1.12664 0
M  V30 5017 H 446.992 4.06817 -3.31059 0
M  V30 5018 H 448.466 5.15026 -1.98626 0
M  V30 5019 H 448.943 4.36541 -0.482521 0
M  V30 5020 H 449.549 3.73625 -2.03185 0
M  V30 5021 N 447.864 1.01787 1.20321 0
M  V30 5022 C 448.797 0.533882 2.21867 0
M  V30 5023 C 449.775 -0.419361 1.57099 0
M  V30 5024 O 450.959 -0.339062 1.85426 0
M  V30 5025 C 448.086 -0.222899 3.37966 0
M  V30 5026 C 447.132 0.680091 4.21043 0
M  V30 5027 S 447.965 2.14997 4.90445 0
M  V30 5028 C 449.121 1.40339 6.09964 0
M  V30 5029 H 449.354 1.39429 2.62577 0
M  V30 5030 H 446.887 0.826867 1.30393 0
M  V30 5031 H 448.845 -0.653425 4.05266 0
M  V30 5032 H 447.506 -1.0589 2.95713 0
M  V30 5033 H 446.699 0.0964704 5.03908 0
M  V30 5034 H 446.301 1.04845 3.59004 0
M  V30 5035 H 448.593 0.68407 6.74038 0
M  V30 5036 H 449.536 2.20823 6.72787 0
M  V30 5037 H 449.944 0.905716 5.57187 0
M  V30 5038 N 449.342 -1.36122 0.79427 0
M  V30 5039 C 450.57 -2.03362 0.380989 0
M  V30 5040 C 450.985 -1.59881 -1.00416 0
M  V30 5041 O 450.342 -0.790515 -1.6449 0
M  V30 5042 C 450.393 -3.58804 0.440649 0
M  V30 5043 O 450.114 -4.007 1.77118 0
M  V30 5044 C 451.615 -4.43296 0.0186117 0
M  V30 5045 H 448.835 -0.652526 0.156367 0
M  V30 5046 H 451.379 -1.73998 1.07447 0
M  V30 5047 H 449.534 -3.8686 -0.204458 0
M  V30 5048 H 449.948 -4.95309 1.72538 0
M  V30 5049 H 451.422 -5.51887 0.111488 0
M  V30 5050 H 451.899 -4.2684 -1.03461 0
M  V30 5051 H 452.505 -4.20512 0.636395 0
M  V30 5052 N 450.82 -0.546701 -1.47814 0
M  V30 5053 C 452.048 -0.0232857 -2.06887 0
M  V30 5054 C 452.463 1.26571 -1.4009 0
M  V30 5055 O 451.82 1.7569 -0.493906 0
M  V30 5056 C 451.871 0.186975 -3.61016 0
M  V30 5057 O 451.592 -1.05097 -4.25307 0
M  V30 5058 C 453.093 0.748872 -4.36929 0
M  V30 5059 H 450.313 -0.0410763 -0.669742 0
M  V30 5060 H 452.857 -0.757117 -1.89968 0
M  V30 5061 H 451.012 0.870903 -3.77484 0
M  V30 5062 H 451.426 -0.842121 -5.17695 0
M  V30 5063 H 452.9 0.845334 -5.45489 0
M  V30 5064 H 453.377 1.75772 -4.02493 0
M  V30 5065 H 453.983 0.100979 -4.2518 0
M  V30 5066 N 452.299 1.55045 -0.282633 0
M  V30 5067 C 453.548 1.98938 0.332667 0
M  V30 5068 C 453.861 1.17455 1.56409 0
M  V30 5069 O 455.067 1.51527 2.25282 0
M  V30 5070 C 453.523 3.54105 0.643226 0
M  V30 5071 C 453.131 4.44374 -0.568814 0
M  V30 5072 C 454.875 4.06569 1.22074 0
M  V30 5073 C 452.782 5.90943 -0.232426 0
M  V30 5074 H 451.712 0.743043 0.128075 0
M  V30 5075 H 454.363 1.79341 -0.388464 0
M  V30 5076 H 452.745 3.69532 1.42346 0
M  V30 5077 H 453.919 4.40718 -1.34551 0
M  V30 5078 H 452.234 4.02585 -1.06369 0
M  V30 5079 H 454.831 5.13626 1.48635 0
M  V30 5080 H 455.174 3.56057 2.15707 0
M  V30 5081 H 455.707 3.94612 0.502621 0
M  V30 5082 H 452.446 6.45567 -1.13683 0
M  V30 5083 H 451.966 5.9765 0.507357 0
M  V30 5084 H 453.645 6.4677 0.172657 0
M  V30 5085 N 453.777 0.010035 1.57597 0
M  V30 5086 C 455.026 -0.671945 1.90178 0
M  V30 5087 C 455.339 -1.74376 0.886131 0
M  V30 5088 O 456.545 -2.48107 1.10252 0
M  V30 5089 C 455.001 -1.24636 3.3763 0
M  V30 5090 C 454.609 -0.208838 4.47513 0
M  V30 5091 C 456.353 -1.90595 3.79307 0
M  V30 5092 C 454.26 -0.793814 5.86048 0
M  V30 5093 H 453.19 -0.25474 0.709665 0
M  V30 5094 H 455.841 0.0722206 1.83358 0
M  V30 5095 H 454.223 -2.04152 3.3932 0
M  V30 5096 H 455.397 0.562463 4.57354 0
M  V30 5097 H 453.712 0.350889 4.14919 0
M  V30 5098 H 456.309 -2.35284 4.80151 0
M  V30 5099 H 456.652 -2.74074 3.13352 0
M  V30 5100 H 457.185 -1.17798 3.79958 0
M  V30 5101 H 453.924 0.00240855 6.555 0
M  V30 5102 H 453.444 -1.53404 5.79851 0
M  V30 5103 H 455.123 -1.2894 6.34022 0
M  V30 5104 N 455.255 -1.55392 -0.262866 0
M  V30 5105 C 456.483 -1.80513 -1.01108 0
M  V30 5106 C 456.898 -0.583533 -1.79556 0
M  V30 5107 O 456.255 0.447585 -1.76926 0
M  V30 5108 C 456.306 -3.03648 -1.96164 0
M  V30 5109 O 456.027 -4.2109 -1.20893 0
M  V30 5110 C 457.528 -3.41448 -2.82715 0
M  V30 5111 H 454.748 -0.601079 -0.298236 0
M  V30 5112 H 457.292 -2.02425 -0.290582 0
M  V30 5113 H 455.447 -2.83832 -2.63663 0
M  V30 5114 H 455.861 -4.90771 -1.85051 0
M  V30 5115 H 457.335 -4.30751 -3.45192 0
M  V30 5116 H 457.812 -2.61308 -3.53008 0
M  V30 5117 H 458.418 -3.63559 -2.20693 0
M  V30 5118 N 456.733 0.527833 -1.48498 0
M  V30 5119 C 457.981 1.28101 -1.56316 0
M  V30 5120 C 458.302 1.9352 -0.239781 0
M  V30 5121 O 457.572 1.81433 0.738849 0
M  V30 5122 H 456.152 0.475793 -0.575873 0
M  V30 5123 H 458.814 0.614052 -1.84974 0
M  V30 5124 H 457.91 2.05916 -2.34532 0
M  V30 5125 N 458.211 1.37122 0.776871 0
M  V30 5126 C 459.457 1.32243 1.53752 0
M  V30 5127 C 459.79 -0.0944745 1.9397 0
M  V30 5128 O 459.065 -1.05068 1.6368 0
M  V30 5129 C 459.348 2.25681 2.80607 0
M  V30 5130 C 459.201 3.76127 2.46676 0
M  V30 5131 C 460.52 2.17657 3.82509 0
M  V30 5132 H 457.639 0.481704 0.557791 0
M  V30 5133 H 460.281 1.6778 0.891612 0
M  V30 5134 H 458.431 1.95505 3.35723 0
M  V30 5135 H 460.103 4.16877 1.97513 0
M  V30 5136 H 458.346 3.94946 1.79443 0
M  V30 5137 H 459.017 4.36933 3.37333 0
M  V30 5138 H 461.493 2.44245 3.36873 0
M  V30 5139 H 460.369 2.85185 4.69 0
M  V30 5140 H 460.63 1.16785 4.26396 0
M  V30 5141 N 459.689 -1.00246 1.21608 0
M  V30 5142 C 460.637 -2.11193 0.97469 0
M  V30 5143 C 461.631 -1.69216 -0.0789303 0
M  V30 5144 O 462.837 -1.79853 0.0726806 0
M  V30 5145 H 459.212 -0.690455 0.297953 0
M  V30 5146 H 461.183 -2.2873 1.91638 0
M  V30 5147 C 459.932 -3.43182 0.558717 0
M  V30 5148 H 459.255 -3.75918 1.3611 0
M  V30 5149 H 460.695 -4.21823 0.429154 0
M  V30 5150 C 459.154 -3.28882 -0.730648 0
M  V30 5151 O 459.684 -3.59835 -1.78554 0
M  V30 5152 N 457.89 -2.8209 -0.698131 0
M  V30 5153 H 457.437 -2.57099 0.16061 0
M  V30 5154 H 457.395 -2.72903 -1.56113 0
M  V30 5155 N 461.167 -1.02423 -1.1978 0
M  V30 5156 C 462.13 -0.605703 -2.21052 0
M  V30 5157 C 463.13 0.328209 -1.57415 0
M  V30 5158 O 464.32 0.115853 -1.73814 0
M  V30 5159 C 461.452 0.114366 -3.40708 0
M  V30 5160 H 462.645 -1.5017 -2.59594 0
M  V30 5161 H 460.198 -0.814888 -1.33376 0
M  V30 5162 H 460.933 1.02492 -3.07678 0
M  V30 5163 H 460.718 -0.556641 -3.88129 0
M  V30 5164 H 462.208 0.394272 -4.15735 0
M  V30 5165 N 462.645 1.35699 -0.801477 0
M  V30 5166 C 463.87 2.03687 -0.390678 0
M  V30 5167 C 464.295 1.60015 0.988778 0
M  V30 5168 O 463.653 0.774357 1.63931 0
M  V30 5169 C 463.701 3.57439 -0.476404 0
M  V30 5170 O 462.805 4.09208 0.512106 0
M  V30 5171 H 462.146 0.64344 -0.163956 0
M  V30 5172 H 464.676 1.73403 -1.08594 0
M  V30 5173 H 464.686 4.06544 -0.344357 0
M  V30 5174 H 463.361 3.88576 -1.48262 0
M  V30 5175 H 461.938 3.7134 0.340721 0
M  V30 5176 N 464.123 0.554532 1.47522 0
M  V30 5177 C 465.056 -0.242442 2.26908 0
M  V30 5178 C 466.034 -0.922722 1.33883 0
M  V30 5179 O 467.218 -0.942244 1.63261 0
M  V30 5180 C 464.345 -1.34525 3.10839 0
M  V30 5181 C 463.391 -0.773805 4.19422 0
M  V30 5182 S 464.224 0.377525 5.34168 0
M  V30 5183 C 465.38 -0.727164 6.21662 0
M  V30 5184 H 465.613 0.431218 2.94156 0
M  V30 5185 H 463.146 0.3408 1.50592 0
M  V30 5186 H 465.104 -1.97683 3.59766 0
M  V30 5187 H 463.765 -1.99073 2.42958 0
M  V30 5188 H 462.958 -1.60187 4.77866 0
M  V30 5189 H 462.56 -0.218448 3.73361 0
M  V30 5190 H 464.852 -1.61992 6.57849 0
M  V30 5191 H 465.795 -0.180135 7.07871 0
M  V30 5192 H 466.203 -1.01863 5.55233 0
M  V30 5193 N 465.601 -1.54893 0.290851 0
M  V30 5194 C 467.012 -1.85584 -0.203816 0
M  V30 5195 C 467.363 -1.21285 -1.54222 0
M  V30 5196 O 466.488 -0.506841 -2.10381 0
M  V30 5197 C 467.083 -3.367 -0.376595 0
M  V30 5198 C 465.642 -3.6746 -0.815485 0
M  V30 5199 C 464.789 -2.77178 0.0821087 0
M  V30 5200 H 467.74 -1.50208 0.512175 0
M  V30 5201 H 467.761 -3.60656 -1.21275 0
M  V30 5202 H 467.273 -3.8347 0.59767 0
M  V30 5203 H 465.374 -3.26201 -1.80066 0
M  V30 5204 H 465.487 -4.7478 -0.641905 0
M  V30 5205 H 463.851 -2.50925 -0.436895 0
M  V30 5206 H 464.634 -3.26767 1.05254 0
M  V30 5207 N 467.08 -0.0183926 -1.57589 0
M  V30 5208 C 468.496 0.337897 -1.55982 0
M  V30 5209 C 468.696 1.73604 -1.02294 0
M  V30 5210 O 467.752 2.43589 -0.664895 0
M  V30 5211 C 469.065 0.196305 -3.00059 0
M  V30 5212 C 470.613 0.269875 -3.11834 0
M  V30 5213 C 471.088 0.157197 -4.5773 0
M  V30 5214 N 472.579 0.214521 -4.62703 0
M  V30 5215 C 473.314 0.150955 -5.73201 0
M  V30 5216 N 472.81 0.0369212 -6.9279 0
M  V30 5217 N 474.603 0.204162 -5.61729 0
M  V30 5218 H 466.754 -0.93279 -1.90821 0
M  V30 5219 H 469.017 -0.359253 -0.877292 0
M  V30 5220 H 468.723 -0.766383 -3.43248 0
M  V30 5221 H 468.597 0.970908 -3.6449 0
M  V30 5222 H 470.984 1.22302 -2.68563 0
M  V30 5223 H 471.065 -0.534918 -2.50144 0
M  V30 5224 H 470.709 -0.792479 -5.01679 0
M  V30 5225 H 470.639 0.980717 -5.17387 0
M  V30 5226 H 473.13 0.303238 -3.76681 0
M  V30 5227 H 473.443 -0.00518321 -7.728 0
M  V30 5228 H 471.788 0.0022886 -6.95 0
M  V30 5229 H 474.979 0.291575 -4.67191 0
M  V30 5230 H 475.152 0.15116 -6.47824 0
M  V30 5231 N 468.558 1.5553 0.254621 0
M  V30 5232 C 469.804 1.77262 0.985193 0
M  V30 5233 C 470.137 0.582286 1.85265 0
M  V30 5234 O 469.412 -0.419666 1.89919 0
M  V30 5235 C 469.695 3.0881 1.85225 0
M  V30 5236 C 469.548 4.38233 1.0135 0
M  V30 5237 C 470.867 3.3653 2.83612 0
M  V30 5238 H 467.986 0.644906 0.356742 0
M  V30 5239 H 470.628 1.88264 0.256236 0
M  V30 5240 H 468.778 2.99562 2.47376 0
M  V30 5241 H 470.45 4.59463 0.411269 0
M  V30 5242 H 468.693 4.32636 0.317574 0
M  V30 5243 H 469.364 5.26644 1.65379 0
M  V30 5244 H 471.84 3.45691 2.31596 0
M  V30 5245 H 470.716 4.29805 3.41407 0
M  V30 5246 H 470.977 2.57064 3.59681 0
M  V30 5247 N 470.036 -0.519951 1.48776 0
M  V30 5248 C 471.261 -1.30447 1.6124 0
M  V30 5249 C 471.686 -1.86055 0.276591 0
M  V30 5250 O 471.044 -1.64915 -0.753183 0
M  V30 5251 C 471.092 -2.42406 2.66967 0
M  V30 5252 O 470.196 -3.45728 2.24824 0
M  V30 5253 H 469.537 -0.385924 0.540332 0
M  V30 5254 H 472.067 -0.624572 1.94834 0
M  V30 5255 H 472.077 -2.88447 2.88552 0
M  V30 5256 H 470.752 -2.01294 3.63941 0
M  V30 5257 H 469.329 -3.05737 2.13494 0
M  V30 5258 N 471.514 -1.37532 -0.769588 0
M  V30 5259 C 472.744 -1.35861 -1.55645 0
M  V30 5260 C 473.152 0.0574398 -1.89113 0
M  V30 5261 O 472.495 1.03021 -1.52093 0
M  V30 5262 C 472.557 -2.13431 -2.89288 0
M  V30 5263 C 472.221 -3.62378 -2.78444 0
M  V30 5264 C 473.218 -4.56215 -2.49326 0
M  V30 5265 C 470.903 -4.05529 -2.96398 0
M  V30 5266 C 472.897 -5.91181 -2.38294 0
M  V30 5267 C 470.584 -5.40579 -2.84987 0
M  V30 5268 C 471.582 -6.33218 -2.55975 0
M  V30 5269 O 471.27 -7.65787 -2.44594 0
M  V30 5270 H 471.002 -0.467001 -0.48876 0
M  V30 5271 H 473.556 -1.81505 -0.961515 0
M  V30 5272 H 471.786 -1.62481 -3.50909 0
M  V30 5273 H 473.475 -2.04368 -3.50697 0
M  V30 5274 H 474.241 -4.24187 -2.35139 0
M  V30 5275 H 470.12 -3.33781 -3.1798 0
M  V30 5276 H 473.664 -6.63457 -2.15571 0
M  V30 5277 H 469.561 -5.72209 -2.98743 0
M  V30 5278 H 470.329 -7.76132 -2.59927 0
M  V30 5279 N 472.992 0.995999 -1.22138 0
M  V30 5280 C 474.238 1.73767 -1.04561 0
M  V30 5281 C 474.571 1.89633 0.418698 0
M  V30 5282 O 473.846 1.43723 1.3105 0
M  V30 5283 C 474.129 3.14505 -1.75382 0
M  V30 5284 C 473.982 3.06306 -3.29388 0
M  V30 5285 C 475.301 4.13615 -1.50369 0
M  V30 5286 H 472.42 0.630728 -0.38125 0
M  V30 5287 H 475.062 1.16057 -1.50435 0
M  V30 5288 H 473.212 3.63775 -1.36383 0
M  V30 5289 H 474.884 2.64681 -3.77812 0
M  V30 5290 H 473.127 2.43186 -3.59226 0
M  V30 5291 H 473.798 4.05884 -3.74116 0
M  V30 5292 H 476.274 3.73089 -1.84239 0
M  V30 5293 H 475.15 5.10212 -2.02421 0
M  V30 5294 H 475.411 4.39949 -0.435611 0
M  V30 5295 N 474.47 1.03057 1.19235 0
M  V30 5296 C 475.417 0.612832 2.22515 0
M  V30 5297 C 476.387 -0.374224 1.61829 0
M  V30 5298 O 477.572 -0.270501 1.88873 0
M  V30 5299 C 474.712 -0.028475 3.45088 0
M  V30 5300 C 473.825 1.00483 4.20151 0
M  V30 5301 C 472.96 0.333102 5.30155 0
M  V30 5302 C 471.999 1.3522 5.96977 0
M  V30 5303 N 471.136 0.70616 6.9854 0
M  V30 5304 H 475.976 1.49812 2.57605 0
M  V30 5305 H 473.513 0.749658 1.26564 0
M  V30 5306 H 475.471 -0.417548 4.15105 0
M  V30 5307 H 474.101 -0.877334 3.10649 0
M  V30 5308 H 473.153 1.51194 3.49062 0
M  V30 5309 H 474.465 1.77929 4.65986 0
M  V30 5310 H 473.619 -0.110725 6.06599 0
M  V30 5311 H 472.358 -0.473547 4.85396 0
M  V30 5312 H 471.363 1.80627 5.19282 0
M  V30 5313 H 472.588 2.16037 6.4382 0
M  V30 5314 H 470.534 -0.0803667 6.55951 0
M  V30 5315 H 470.451 1.41848 7.42573 0
M  V30 5316 H 471.719 0.286391 7.78974 0
M  V30 5317 N 475.948 -1.35272 0.808662 0
M  V30 5318 C 476.911 -2.28082 0.226093 0
M  V30 5319 C 477.911 -1.49673 -0.587762 0
M  V30 5320 O 479.101 -1.69404 -0.405943 0
M  V30 5321 C 476.233 -3.33955 -0.684596 0
M  V30 5322 H 477.426 -2.81116 1.04469 0
M  V30 5323 H 474.979 -1.45162 0.579466 0
M  V30 5324 H 475.714 -2.86111 -1.5268 0
M  V30 5325 H 475.499 -3.91965 -0.102699 0
M  V30 5326 H 476.989 -4.03219 -1.08646 0
M  V30 5327 N 477.426 -0.562348 -1.47226 0
M  V30 5328 C 478.672 -0.0402761 -2.0276 0
M  V30 5329 C 479.005 1.30823 -1.43523 0
M  V30 5330 O 478.28 1.85249 -0.592705 0
M  V30 5331 C 478.563 0.047311 -3.60069 0
M  V30 5332 C 478.416 -1.32865 -4.29729 0
M  V30 5333 C 479.735 0.758182 -4.3352 0
M  V30 5334 H 476.854 -0.0161105 -0.736824 0
M  V30 5335 H 479.496 -0.725628 -1.75598 0
M  V30 5336 H 477.646 0.630986 -3.83342 0
M  V30 5337 H 479.318 -1.95593 -4.17781 0
M  V30 5338 H 477.561 -1.90195 -3.89882 0
M  V30 5339 H 478.232 -1.22004 -5.38349 0
M  V30 5340 H 480.708 0.262546 -4.15271 0
M  V30 5341 H 479.584 0.78844 -5.43208 0
M  V30 5342 H 479.845 1.81537 -4.03109 0
M  V30 5343 N 478.904 1.54736 -0.299062 0
M  V30 5344 C 480.181 1.92187 0.363802 0
M  V30 5345 C 480.561 1.22607 1.71845 0
M  V30 5346 O 479.909 0.361141 2.25628 0
M  V30 5347 C 480.119 3.45678 0.480377 0
M  V30 5348 C 481.467 4.17885 0.752147 0
M  V30 5349 O 482.491 3.51702 0.564264 0
M  V30 5350 O 481.35 5.35048 1.11294 0
M  V30 5351 H 478.444 0.801681 0.203066 0
M  V30 5352 H 480.99 1.66115 -0.346978 0
M  V30 5353 H 479.762 3.88443 -0.471999 0
M  V30 5354 H 479.385 3.77779 1.2397 0
M  V30 5355 N 480.382 0.0267497 1.57577 0
M  V30 5356 C 481.631 -0.651736 1.9088 0
M  V30 5357 C 481.944 -1.73427 0.904576 0
M  V30 5358 O 483.15 -2.46923 1.12877 0
M  V30 5359 C 481.606 -1.21048 3.38933 0
M  V30 5360 C 481.214 -0.161362 4.47709 0
M  V30 5361 C 482.958 -1.86562 3.81307 0
M  V30 5362 C 480.865 -0.731611 5.86857 0
M  V30 5363 H 479.795 -0.247198 0.712326 0
M  V30 5364 H 482.446 0.0916641 1.83271 0
M  V30 5365 H 480.828 -2.00542 3.41466 0
M  V30 5366 H 482.002 0.61094 4.56732 0
M  V30 5367 H 480.317 0.394877 4.14523 0
M  V30 5368 H 482.914 -2.30178 4.8262 0
M  V30 5369 H 483.257 -2.70735 3.16241 0
M  V30 5370 H 483.79 -1.13762 3.81186 0
M  V30 5371 H 480.529 0.0719329 6.55461 0
M  V30 5372 H 480.049 -1.47245 5.81445 0
M  V30 5373 H 481.728 -1.22208 6.35354 0
M  V30 5374 N 481.861 -1.55662 -0.24637 0
M  V30 5375 C 483.091 -1.81312 -0.990438 0
M  V30 5376 C 483.499 -0.600234 -1.79426 0
M  V30 5377 O 482.842 0.440537 -1.78339 0
M  V30 5378 C 482.904 -3.0032 -1.97607 0
M  V30 5379 C 482.568 -4.36322 -1.35912 0
M  V30 5380 C 483.565 -5.14295 -0.761348 0
M  V30 5381 C 481.25 -4.83019 -1.37833 0
M  V30 5382 C 483.244 -6.37114 -0.190998 0
M  V30 5383 C 480.931 -6.05786 -0.804128 0
M  V30 5384 C 481.929 -6.82672 -0.211489 0
M  V30 5385 O 481.617 -8.03121 0.353845 0
M  V30 5386 H 481.349 -0.607233 -0.297058 0
M  V30 5387 H 483.903 -2.0356 -0.274351 0
M  V30 5388 H 482.133 -2.73829 -2.73047 0
M  V30 5389 H 483.822 -3.13057 -2.58361 0
M  V30 5390 H 484.588 -4.79337 -0.739013 0
M  V30 5391 H 480.467 -4.23165 -1.829 0
M  V30 5392 H 484.011 -6.97069 0.272206 0
M  V30 5393 H 479.908 -6.40222 -0.823792 0
M  V30 5394 H 480.676 -8.18131 0.245761 0
M  V30 5395 N 483.339 0.512053 -1.4905 0
M  V30 5396 C 484.269 1.62365 -1.67809 0
M  V30 5397 C 485.25 1.61737 -0.526809 0
M  V30 5398 O 486.435 1.78651 -0.761404 0
M  V30 5399 C 483.565 3.00895 -1.73435 0
M  V30 5400 C 482.519 3.16387 -2.88242 0
M  V30 5401 C 481.845 4.56157 -2.78971 0
M  V30 5402 C 483.145 2.97457 -4.29321 0
M  V30 5403 H 484.839 1.46921 -2.60873 0
M  V30 5404 H 482.385 0.705379 -1.2554 0
M  V30 5405 H 484.338 3.78549 -1.85145 0
M  V30 5406 H 483.062 3.17403 -0.769619 0
M  V30 5407 H 481.721 2.41155 -2.76116 0
M  V30 5408 H 481.369 4.69525 -1.8043 0
M  V30 5409 H 481.069 4.67465 -3.5602 0
M  V30 5410 H 482.593 5.35886 -2.92675 0
M  V30 5411 H 484.007 3.64888 -4.42187 0
M  V30 5412 H 482.404 3.20245 -5.07507 0
M  V30 5413 H 483.474 1.93692 -4.44535 0
M  V30 5414 N 484.817 1.37938 0.762283 0
M  V30 5415 C 486.063 1.34873 1.52253 0
M  V30 5416 C 486.418 -0.0635972 1.92295 0
M  V30 5417 O 485.711 -1.02434 1.61919 0
M  V30 5418 C 485.905 2.23042 2.79261 0
M  V30 5419 C 485.734 3.72706 2.51635 0
M  V30 5420 C 484.504 4.41771 2.45289 0
M  V30 5421 C 486.702 4.65345 2.18994 0
M  V30 5422 N 484.684 5.76921 2.09846 0
M  V30 5423 C 486.055 5.88943 1.9377 0
M  V30 5424 C 488.11 4.53636 2.0523 0
M  V30 5425 C 486.813 7.02142 1.5617 0
M  V30 5426 C 488.839 5.6673 1.69031 0
M  V30 5427 C 488.201 6.89383 1.44673 0
M  V30 5428 H 484.3 0.548818 0.557067 0
M  V30 5429 H 486.884 1.73247 0.888458 0
M  V30 5430 H 485.055 1.8687 3.40491 0
M  V30 5431 H 486.787 2.11165 3.45241 0
M  V30 5432 H 483.542 3.94883 2.61465 0
M  V30 5433 H 483.966 6.4837 1.94794 0
M  V30 5434 H 488.608 3.5937 2.2274 0
M  V30 5435 H 486.326 7.96334 1.37399 0
M  V30 5436 H 489.912 5.59645 1.59026 0
M  V30 5437 H 488.792 7.75411 1.17079 0
M  V30 5438 N 486.295 -0.989507 1.22664 0
M  V30 5439 C 487.541 -1.7321 1.05481 0
M  V30 5440 C 487.874 -1.89852 -0.408635 0
M  V30 5441 O 487.149 -1.44416 -1.30285 0
M  V30 5442 C 487.432 -3.1357 1.77047 0
M  V30 5443 C 487.285 -3.04555 3.31008 0
M  V30 5444 C 488.604 -4.12812 1.5256 0
M  V30 5445 H 485.723 -0.628697 0.384589 0
M  V30 5446 H 488.365 -1.15258 1.51049 0
M  V30 5447 H 486.515 -3.63046 1.3831 0
M  V30 5448 H 488.187 -2.62674 3.7921 0
M  V30 5449 H 486.43 -2.41278 3.6051 0
M  V30 5450 H 487.101 -4.03894 3.76263 0
M  V30 5451 H 489.577 -3.72106 1.86215 0
M  V30 5452 H 488.453 -5.09132 2.05124 0
M  V30 5453 H 488.714 -4.39711 0.458936 0
M  V30 5454 N 487.773 -1.03688 -1.18687 0
M  V30 5455 C 488.998 -0.757819 -1.93059 0
M  V30 5456 C 489.423 0.678353 -1.75442 0
M  V30 5457 O 488.781 1.46938 -1.06203 0
M  V30 5458 C 488.829 -1.12423 -3.42627 0
M  V30 5459 O 487.933 -0.247505 -4.11657 0
M  V30 5460 H 487.274 -0.279245 -0.602427 0
M  V30 5461 H 489.804 -1.3857 -1.5053 0
M  V30 5462 H 489.814 -1.08454 -3.93322 0
M  V30 5463 H 488.489 -2.17049 -3.54771 0
M  V30 5464 H 487.066 -0.34649 -3.71287 0
M  V30 5465 N 489.251 1.34841 -0.815825 0
M  V30 5466 C 490.498 1.98499 -0.400535 0
M  V30 5467 C 490.826 1.64699 1.03463 0
M  V30 5468 O 490.081 0.907006 1.73412 0
M  V30 5469 C 490.38 3.53273 -0.541541 0
M  V30 5470 C 490.046 4.06966 -1.94138 0
M  V30 5471 C 488.708 4.21341 -2.32433 0
M  V30 5472 C 491.06 4.35933 -2.85677 0
M  V30 5473 C 488.388 4.62007 -3.61617 0
M  V30 5474 C 490.74 4.78042 -4.14317 0
M  V30 5475 C 489.404 4.90622 -4.52599 0
M  V30 5476 H 488.674 0.72636 -0.146566 0
M  V30 5477 H 491.321 1.60902 -1.0384 0
M  V30 5478 H 489.626 3.91387 0.179741 0
M  V30 5479 H 491.323 4.00497 -0.20085 0
M  V30 5480 H 487.913 3.96235 -1.63388 0
M  V30 5481 H 492.097 4.24372 -2.57337 0
M  V30 5482 H 487.353 4.69937 -3.91113 0
M  V30 5483 H 491.527 4.99415 -4.85342 0
M  V30 5484 H 489.154 5.2189 -5.52752 0
M  V30 5485 N 490.729 0.570148 1.46925 0
M  V30 5486 C 491.975 0.0510284 2.02736 0
M  V30 5487 C 492.308 -1.3006 1.44215 0
M  V30 5488 O 491.583 -1.84932 0.602521 0
M  V30 5489 C 491.866 -0.028215 3.60089 0
M  V30 5490 C 491.719 1.35142 4.29018 0
M  V30 5491 C 493.038 -0.735181 4.33916 0
M  V30 5492 H 490.157 0.0200178 0.736728 0
M  V30 5493 H 492.799 0.73493 1.75211 0
M  V30 5494 H 490.949 -0.610648 3.83671 0
M  V30 5495 H 492.621 1.97806 4.16738 0
M  V30 5496 H 490.864 1.9226 3.88868 0
M  V30 5497 H 491.535 1.24857 5.37694 0
M  V30 5498 H 494.011 -0.240519 4.15404 0
M  V30 5499 H 492.887 -0.759622 5.43618 0
M  V30 5500 H 493.148 -1.79397 4.04066 0
M  V30 5501 N 492.207 -1.54576 0.307264 0
M  V30 5502 C 493.454 -2.00263 -0.300167 0
M  V30 5503 C 493.782 -1.19561 -1.53413 0
M  V30 5504 O 493.037 -0.261487 -1.93945 0
M  V30 5505 C 493.336 -3.50572 -0.695253 0
M  V30 5506 C 493.002 -4.48771 0.437679 0
M  V30 5507 C 491.664 -4.7534 0.748681 0
M  V30 5508 C 494.016 -5.0721 1.19949 0
M  V30 5509 C 491.344 -5.5761 1.8245 0
M  V30 5510 C 493.696 -5.90651 2.26527 0
M  V30 5511 C 492.36 -6.15528 2.58227 0
M  V30 5512 H 491.63 -0.732814 -0.109839 0
M  V30 5513 H 494.277 -1.86664 0.427661 0
M  V30 5514 H 492.582 -3.61814 -1.50326 0
M  V30 5515 H 494.279 -3.83352 -1.17653 0
M  V30 5516 H 490.869 -4.282 0.185187 0
M  V30 5517 H 495.053 -4.86679 0.972474 0
M  V30 5518 H 490.309 -5.75121 2.07476 0
M  V30 5519 H 494.483 -6.34957 2.86011 0
M  V30 5520 H 492.11 -6.79066 3.4172 0
M  V30 5521 N 493.685 -0.035106 -1.57561 0
M  V30 5522 C 494.931 0.64318 -1.92331 0
M  V30 5523 C 495.264 1.71434 -0.912368 0
M  V30 5524 O 494.539 1.94395 0.0640303 0
M  V30 5525 C 494.822 1.25411 -3.37556 0
M  V30 5526 C 494.675 0.192109 -4.4939 0
M  V30 5527 C 495.994 2.17041 -3.82859 0
M  V30 5528 H 493.113 0.232341 -0.699419 0
M  V30 5529 H 495.755 -0.0935889 -1.89769 0
M  V30 5530 H 493.905 1.88205 -3.39869 0
M  V30 5531 H 495.577 -0.438849 -4.59208 0
M  V30 5532 H 493.82 -0.481725 -4.31117 0
M  V30 5533 H 494.491 0.659292 -5.48049 0
M  V30 5534 H 496.967 1.64228 -3.8232 0
M  V30 5535 H 495.843 2.56738 -4.85157 0
M  V30 5536 H 496.104 3.06401 -3.18702 0
M  V30 5537 N 495.163 1.55791 0.238111 0
M  V30 5538 C 496.41 1.78033 0.964907 0
M  V30 5539 C 496.738 0.600984 1.84982 0
M  V30 5540 O 495.993 -0.41536 1.91241 0
M  V30 5541 C 496.292 3.05869 1.84875 0
M  V30 5542 C 495.958 4.36808 1.11846 0
M  V30 5543 C 494.62 4.72388 0.916662 0
M  V30 5544 C 496.972 5.17717 0.60151 0
M  V30 5545 C 494.3 5.86406 0.185756 0
M  V30 5546 C 496.652 6.32494 -0.115972 0
M  V30 5547 C 495.316 6.66688 -0.329168 0
M  V30 5548 H 494.586 0.651469 0.353085 0
M  V30 5549 H 497.233 1.90061 0.234318 0
M  V30 5550 H 495.538 2.88891 2.64668 0
M  V30 5551 H 497.235 3.20278 2.41294 0
M  V30 5552 H 493.825 4.08862 1.28569 0
M  V30 5553 H 498.009 4.90678 0.744932 0
M  V30 5554 H 493.265 6.11399 0.0101886 0
M  V30 5555 H 497.439 6.94425 -0.524127 0
M  V30 5556 H 495.066 7.54884 -0.897474 0
M  V30 5557 N 496.642 -0.504142 1.49319 0
M  V30 5558 C 497.572 -1.61473 1.68667 0
M  V30 5559 C 498.553 -1.61455 0.535378 0
M  V30 5560 O 499.738 -1.78245 0.770868 0
M  V30 5561 C 496.868 -2.99971 1.75028 0
M  V30 5562 C 495.822 -3.14854 2.89916 0
M  V30 5563 C 495.148 -4.54671 2.81387 0
M  V30 5564 C 496.448 -2.95176 4.30893 0
M  V30 5565 H 498.142 -1.45535 2.61648 0
M  V30 5566 H 495.688 -0.698711 1.25913 0
M  V30 5567 H 497.641 -3.77562 1.8715 0
M  V30 5568 H 496.365 -3.1699 0.786441 0
M  V30 5569 H 495.024 -2.39687 2.77391 0
M  V30 5570 H 494.672 -4.68562 1.82917 0
M  V30 5571 H 494.372 -4.6557 3.58494 0
M  V30 5572 H 495.896 -5.34327 2.95512 0
M  V30 5573 H 497.31 -3.62538 4.44116 0
M  V30 5574 H 495.707 -3.17549 5.09198 0
M  V30 5575 H 496.777 -1.91332 4.45556 0
M  V30 5576 N 498.12 -1.38341 -0.754957 0
M  V30 5577 C 499.345 -1.37882 -1.5493 0
M  V30 5578 C 499.77 0.0296385 -1.88077 0
M  V30 5579 O 499.128 1.01133 -1.50472 0
M  V30 5580 C 499.176 -2.23996 -2.82592 0
M  V30 5581 O 498.28 -1.65612 -3.77686 0
M  V30 5582 H 497.621 -0.470384 -0.468652 0
M  V30 5583 H 500.151 -1.82084 -0.933082 0
M  V30 5584 H 500.161 -2.37806 -3.3153 0
M  V30 5585 H 498.836 -3.26365 -2.57796 0
M  V30 5586 H 497.413 -1.60936 -3.36384 0
M  V30 5587 N 499.598 0.982988 -1.23187 0
M  V30 5588 C 500.844 1.72648 -1.06398 0
M  V30 5589 C 501.177 1.90066 0.398561 0
M  V30 5590 O 500.452 1.45105 1.29518 0
M  V30 5591 C 500.735 3.12627 -1.78707 0
M  V30 5592 C 500.588 3.02795 -3.32618 0
M  V30 5593 C 501.907 4.11997 -1.54747 0
M  V30 5594 H 499.026 0.626649 -0.387918 0
M  V30 5595 H 501.668 1.14455 -1.51658 0
M  V30 5596 H 499.818 3.62308 -1.40234 0
M  V30 5597 H 501.49 2.60659 -3.80598 0
M  V30 5598 H 499.733 2.39362 -3.61785 0
M  V30 5599 H 500.404 4.01893 -3.78399 0
M  V30 5600 H 502.88 3.71114 -1.88186 0
M  V30 5601 H 501.756 5.08037 -2.07821 0
M  V30 5602 H 502.017 4.39462 -0.482249 0
M  V30 5603 N 501.076 1.04316 1.18135 0
M  V30 5604 C 502.006 0.657299 2.24058 0
M  V30 5605 C 502.987 -0.340678 1.66654 0
M  V30 5606 O 504.172 -0.220223 1.92947 0
M  V30 5607 C 501.302 0.0220715 3.47293 0
M  V30 5608 C 500.256 0.943857 4.17463 0
M  V30 5609 C 499.582 0.172973 5.3442 0
M  V30 5610 C 500.882 2.26409 4.70677 0
M  V30 5611 H 502.576 1.5428 2.56589 0
M  V30 5612 H 500.122 0.743263 1.23335 0
M  V30 5613 H 502.075 -0.259607 4.206 0
M  V30 5614 H 500.799 -0.898323 3.14003 0
M  V30 5615 H 499.458 1.20996 3.46057 0
M  V30 5616 H 499.106 -0.749907 4.97379 0
M  V30 5617 H 498.806 0.787098 5.82304 0
M  V30 5618 H 500.33 -0.101628 6.10515 0
M  V30 5619 H 501.744 2.04294 5.35665 0
M  V30 5620 H 500.141 2.8314 5.29105 0
M  V30 5621 H 501.211 2.90883 3.87962 0
M  V30 5622 N 502.554 -1.34406 0.822964 0
M  V30 5623 C 503.464 -2.33298 0.246838 0
M  V30 5624 C 504.48 -1.62625 -0.618797 0
M  V30 5625 O 505.656 -1.94391 -0.526685 0
M  V30 5626 C 502.721 -3.41785 -0.581731 0
M  V30 5627 C 501.782 -4.28206 0.306309 0
M  V30 5628 C 501.015 -5.31512 -0.48281 0
M  V30 5629 O 501.238 -5.43973 -1.71607 0
M  V30 5630 O 500.172 -6.01749 0.134884 0
M  V30 5631 H 503.998 -2.84401 1.06534 0
M  V30 5632 H 501.583 -1.37466 0.585108 0
M  V30 5633 H 503.465 -4.08028 -1.05313 0
M  V30 5634 H 502.14 -2.92925 -1.37756 0
M  V30 5635 H 501.047 -3.64885 0.825199 0
M  V30 5636 H 502.38 -4.80507 1.06649 0
M  V30 5637 N 504.032 -0.577932 -1.46621 0
M  V30 5638 C 505.262 -0.0670668 -2.06491 0
M  V30 5639 C 505.67 1.24119 -1.42798 0
M  V30 5640 O 505.013 1.76016 -0.525759 0
M  V30 5641 C 505.075 0.177995 -3.59059 0
M  V30 5642 C 504.739 -1.04394 -4.44917 0
M  V30 5643 C 505.736 -1.95479 -4.81751 0
M  V30 5644 C 503.421 -1.26444 -4.86125 0
M  V30 5645 C 505.415 -3.06965 -5.58615 0
M  V30 5646 C 503.102 -2.38237 -5.62749 0
M  V30 5647 C 504.1 -3.28327 -5.98908 0
M  V30 5648 O 503.788 -4.38179 -6.73984 0
M  V30 5649 H 503.52 -0.0523159 -0.673973 0
M  V30 5650 H 506.074 -0.796966 -1.89308 0
M  V30 5651 H 504.304 0.962451 -3.74531 0
M  V30 5652 H 505.993 0.636782 -4.00874 0
M  V30 5653 H 506.759 -1.79657 -4.50498 0
M  V30 5654 H 502.638 -0.572316 -4.57434 0
M  V30 5655 H 506.182 -3.77309 -5.86757 0
M  V30 5656 H 502.079 -2.54023 -5.93416 0
M  V30 5657 H 502.847 -4.36486 -6.92403 0
M  V30 5658 N 505.51 1.54411 -0.315457 0
M  V30 5659 C 506.473 2.22713 0.54142 0
M  V30 5660 C 507.473 1.2179 1.04995 0
M  V30 5661 O 508.663 1.46426 0.943667 0
M  V30 5662 C 505.795 2.92485 1.75116 0
M  V30 5663 H 506.988 2.99849 -0.0555508 0
M  V30 5664 H 504.541 1.56159 -0.0664453 0
M  V30 5665 H 505.276 2.19466 2.38758 0
M  V30 5666 H 505.061 3.66483 1.39401 0
M  V30 5667 H 506.551 3.44548 2.35959 0
M  V30 5668 N 506.988 0.0434614 1.5754 0
M  V30 5669 C 507.951 -0.918696 2.09982 0
M  V30 5670 C 508.951 -1.24488 1.01781 0
M  V30 5671 O 510.141 -1.18284 1.27885 0
M  V30 5672 C 507.273 -2.23093 2.57764 0
M  V30 5673 H 508.466 -0.464229 2.96285 0
M  V30 5674 H 506.019 -0.204818 1.54952 0
M  V30 5675 H 506.754 -2.73137 1.74832 0
M  V30 5676 H 506.539 -2.00724 3.36827 0
M  V30 5677 H 508.029 -2.92028 2.98512 0
M  V30 5678 N 508.466 -1.55915 -0.229846 0
M  V30 5679 C 509.712 -1.78807 -0.956868 0
M  V30 5680 C 510.045 -0.611687 -1.84315 0
M  V30 5681 O 509.32 0.389398 -1.90562 0
M  V30 5682 C 509.603 -3.11718 -1.80288 0
M  V30 5683 C 509.456 -4.3979 -0.943649 0
M  V30 5684 C 510.775 -3.40999 -2.78222 0
M  V30 5685 H 507.894 -0.6505 -0.346437 0
M  V30 5686 H 510.536 -1.88648 -0.226252 0
M  V30 5687 H 508.686 -3.03459 -2.42579 0
M  V30 5688 H 510.358 -4.60059 -0.338121 0
M  V30 5689 H 508.601 -4.33086 -0.248705 0
M  V30 5690 H 509.272 -5.29208 -1.5698 0
M  V30 5691 H 511.748 -3.49332 -2.26067 0
M  V30 5692 H 510.624 -4.35183 -3.34526 0
M  V30 5693 H 510.885 -2.62754 -3.55546 0
M  V30 5694 N 509.944 0.496216 -1.49584 0
M  V30 5695 C 510.892 1.61805 -1.67098 0
M  V30 5696 C 511.886 1.60667 -0.536877 0
M  V30 5697 O 513.092 1.65118 -0.716654 0
M  V30 5698 H 509.467 0.53646 -0.526986 0
M  V30 5699 H 511.438 1.44187 -2.61252 0
M  V30 5700 C 510.187 2.99912 -1.75921 0
M  V30 5701 H 509.51 3.01496 -2.62565 0
M  V30 5702 H 510.95 3.77931 -1.92209 0
M  V30 5703 C 509.409 3.33092 -0.505088 0
M  V30 5704 O 509.939 4.00019 0.367085 0
M  V30 5705 N 508.145 2.88278 -0.366599 0
M  V30 5706 H 507.692 2.33989 -1.07735 0
M  V30 5707 H 507.65 3.10846 0.47142 0
M  V30 5708 N 511.423 1.38739 0.74761 0
M  V30 5709 C 512.653 1.3832 1.53464 0
M  V30 5710 C 513.061 -0.0273464 1.8918 0
M  V30 5711 O 512.404 -1.00588 1.53713 0
M  V30 5712 C 512.466 2.18007 2.85855 0
M  V30 5713 C 512.13 3.66762 2.72644 0
M  V30 5714 C 513.127 4.60124 2.42037 0
M  V30 5715 C 510.812 4.10193 2.89909 0
M  V30 5716 C 512.806 5.94897 2.28859 0
M  V30 5717 C 510.493 5.45045 2.7635 0
M  V30 5718 C 511.491 6.37211 2.45869 0
M  V30 5719 O 511.179 7.69581 2.3238 0
M  V30 5720 H 510.911 0.474718 0.481268 0
M  V30 5721 H 513.465 1.83012 0.932518 0
M  V30 5722 H 511.695 1.68043 3.48279 0
M  V30 5723 H 513.384 2.09921 3.47402 0
M  V30 5724 H 514.15 4.27874 2.28361 0
M  V30 5725 H 510.029 3.38797 3.1263 0
M  V30 5726 H 513.573 6.66802 2.04989 0
M  V30 5727 H 509.47 5.76889 2.89601 0
M  V30 5728 H 510.238 7.80169 2.47546 0
M  V30 5729 N 512.901 -0.976442 1.23707 0
M  V30 5730 C 513.831 -2.08749 1.04624 0
M  V30 5731 C 514.812 -1.70057 -0.0380956 0
M  V30 5732 O 515.997 -1.93782 0.127308 0
M  V30 5733 C 513.127 -3.41335 0.640902 0
M  V30 5734 C 512.081 -3.93947 1.67302 0
M  V30 5735 C 511.407 -5.22774 1.12301 0
M  V30 5736 C 512.707 -4.22769 3.06697 0
M  V30 5737 H 514.401 -2.24972 1.97555 0
M  V30 5738 H 511.947 -1.08108 0.951247 0
M  V30 5739 H 513.9 -4.18489 0.494434 0
M  V30 5740 H 512.624 -3.24988 -0.324099 0
M  V30 5741 H 511.283 -3.18941 1.80755 0
M  V30 5742 H 510.931 -5.0278 0.148877 0
M  V30 5743 H 510.631 -5.58942 1.81267 0
M  V30 5744 H 512.155 -6.02546 0.988479 0
M  V30 5745 H 513.569 -4.90659 2.96524 0
M  V30 5746 H 511.966 -4.70147 3.72937 0
M  V30 5747 H 513.036 -3.29885 3.55392 0
M  V30 5748 N 514.379 -1.04941 -1.1758 0
M  V30 5749 C 515.607 -0.778294 -1.91703 0
M  V30 5750 C 516.022 0.665697 -1.76675 0
M  V30 5751 O 515.379 1.45456 -1.10222 0
M  V30 5752 C 515.43 -1.14628 -3.42845 0
M  V30 5753 O 515.151 -2.53359 -3.57409 0
M  V30 5754 C 516.652 -0.900931 -4.34049 0
M  V30 5755 H 513.872 -0.283167 -0.608323 0
M  V30 5756 H 516.416 -1.39942 -1.49119 0
M  V30 5757 H 514.571 -0.569953 -3.83184 0
M  V30 5758 H 514.985 -2.67709 -4.51035 0
M  V30 5759 H 516.459 -1.20817 -5.38616 0
M  V30 5760 H 516.936 0.163966 -4.38894 0
M  V30 5761 H 517.542 -1.46097 -3.99419 0
M  V30 5762 N 515.857 1.33968 -0.830081 0
M  V30 5763 C 517.085 2.0228 -0.434773 0
M  V30 5764 C 517.5 1.62487 0.961419 0
M  V30 5765 O 516.857 0.833849 1.62337 0
M  V30 5766 C 516.908 3.5751 -0.535625 0
M  V30 5767 O 516.629 3.95864 -1.87679 0
M  V30 5768 C 518.13 4.43091 -0.136137 0
M  V30 5769 H 515.35 0.648151 -0.173613 0
M  V30 5770 H 517.894 1.71089 -1.12022 0
M  V30 5771 H 516.049 3.87266 0.101817 0
M  V30 5772 H 516.463 4.9056 -1.85609 0
M  V30 5773 H 517.937 5.51398 -0.257772 0
M  V30 5774 H 518.414 4.29433 0.921076 0
M  V30 5775 H 519.02 4.18677 -0.747662 0
M  V30 5776 N 517.335 0.585699 1.46312 0
M  V30 5777 C 518.581 0.0725284 2.0267 0
M  V30 5778 C 518.914 -1.28523 1.45586 0
M  V30 5779 O 518.189 -1.84283 0.622101 0
M  V30 5780 C 518.472 0.0099788 3.60099 0
M  V30 5781 C 518.325 1.39685 4.27561 0
M  V30 5782 C 519.644 -0.689117 4.34671 0
M  V30 5783 H 516.763 0.0278307 0.736474 0
M  V30 5784 H 519.405 0.753472 1.74421 0
M  V30 5785 H 517.555 -0.56992 3.84297 0
M  V30 5786 H 519.227 2.02215 4.14617 0
M  V30 5787 H 517.47 1.96374 3.86807 0
M  V30 5788 H 518.141 1.30553 5.36339 0
M  V30 5789 H 520.617 -0.196446 4.15636 0
M  V30 5790 H 519.493 -0.701921 5.44393 0
M  V30 5791 H 519.754 -1.75101 4.05946 0
M  V30 5792 N 518.813 -1.54241 0.323641 0
M  V30 5793 C 519.745 -2.21836 -0.576311 0
M  V30 5794 C 520.758 -1.21837 -1.07979 0
M  V30 5795 O 521.947 -1.48306 -0.99336 0
M  V30 5796 C 519.047 -2.86923 -1.80356 0
M  V30 5797 C 518.22 -4.1306 -1.43875 0
M  V30 5798 C 517.279 -4.6174 -2.52353 0
M  V30 5799 O 516.305 -5.26421 -2.16494 0
M  V30 5800 N 517.507 -4.35974 -3.83284 0
M  V30 5801 H 520.272 -2.997 0.00247987 0
M  V30 5802 H 517.833 -1.61233 0.146848 0
M  V30 5803 H 519.825 -3.16414 -2.52318 0
M  V30 5804 H 518.395 -2.12765 -2.29019 0
M  V30 5805 H 517.615 -3.90334 -0.550752 0
M  V30 5806 H 518.903 -4.95148 -1.17071 0
M  V30 5807 H 518.301 -3.84203 -4.15216 0
M  V30 5808 H 516.858 -4.70119 -4.51477 0
M  V30 5809 N 520.291 -0.0518155 -1.57515 0
M  V30 5810 C 521.201 0.937539 -2.15052 0
M  V30 5811 C 522.217 1.34121 -1.10849 0
M  V30 5812 O 523.393 1.418 -1.4302 0
M  V30 5813 C 520.458 2.19379 -2.68466 0
M  V30 5814 C 519.519 1.84841 -3.87469 0
M  V30 5815 C 518.752 3.04477 -4.38326 0
M  V30 5816 O 518.975 4.17868 -3.88256 0
M  V30 5817 O 517.909 2.85453 -5.29906 0
M  V30 5818 H 521.735 0.478201 -2.99912 0
M  V30 5819 H 519.32 0.17012 -1.48428 0
M  V30 5820 H 521.202 2.93084 -3.02787 0
M  V30 5821 H 519.877 2.64449 -1.86677 0
M  V30 5822 H 518.784 1.08449 -3.58036 0
M  V30 5823 H 520.117 1.44569 -4.7049 0
M  V30 5824 N 521.769 1.56035 0.221574 0
M  V30 5825 C 523.185 1.49026 0.571271 0
M  V30 5826 C 523.385 0.746912 1.87146 0
M  V30 5827 O 522.441 0.286566 2.50869 0
M  V30 5828 C 523.754 2.93579 0.650522 0
M  V30 5829 C 525.302 3.04099 0.741151 0
M  V30 5830 C 525.777 4.5001 0.851747 0
M  V30 5831 N 527.268 4.54053 0.915968 0
M  V30 5832 C 528.003 5.64232 1.02125 0
M  V30 5833 N 527.499 6.84164 1.09049 0
M  V30 5834 N 529.292 5.52084 1.05639 0
M  V30 5835 H 521.443 2.02791 -0.63162 0
M  V30 5836 H 523.706 0.921736 -0.221602 0
M  V30 5837 H 523.412 3.50912 -0.235253 0
M  V30 5838 H 523.286 3.45476 1.51413 0
M  V30 5839 H 525.673 2.4683 1.61737 0
M  V30 5840 H 525.754 2.55371 -0.148128 0
M  V30 5841 H 525.398 5.07896 -0.0200117 0
M  V30 5842 H 525.328 4.96444 1.75644 0
M  V30 5843 H 527.819 3.67683 0.872782 0
M  V30 5844 H 528.132 7.63883 1.1706 0
M  V30 5845 H 526.477 6.86875 1.05962 0
M  V30 5846 H 529.668 4.57317 0.998953 0
M  V30 5847 H 529.841 6.37983 1.13498 0
M  V30 5848 N 523.247 -0.488276 1.49845 0
M  V30 5849 C 524.194 -1.58836 1.67451 0
M  V30 5850 C 525.164 -1.57886 0.515857 0
M  V30 5851 O 526.349 -1.75679 0.744403 0
M  V30 5852 C 523.489 -2.96915 1.75885 0
M  V30 5853 C 522.602 -3.07784 3.03138 0
M  V30 5854 C 521.737 -4.36673 3.02473 0
M  V30 5855 C 520.776 -4.41222 4.24252 0
M  V30 5856 N 519.913 -5.61557 4.21424 0
M  V30 5857 H 524.753 -1.43131 2.61376 0
M  V30 5858 H 522.29 -0.696186 1.29583 0
M  V30 5859 H 524.248 -3.76965 1.78755 0
M  V30 5860 H 522.878 -3.11295 0.85414 0
M  V30 5861 H 521.93 -2.20717 3.09819 0
M  V30 5862 H 523.242 -3.07005 3.93128 0
M  V30 5863 H 522.396 -5.25055 3.03977 0
M  V30 5864 H 521.135 -4.40037 2.10283 0
M  V30 5865 H 520.14 -3.5124 4.22978 0
M  V30 5866 H 521.365 -4.39564 5.17649 0
M  V30 5867 H 519.311 -5.65738 3.32078 0
M  V30 5868 H 519.228 -5.62447 5.05163 0
M  V30 5869 H 520.496 -6.52111 4.2705 0
M  V30 5870 N 524.725 -1.39134 -0.740242 0
M  V30 5871 C 525.635 -1.39697 -1.88473 0
M  V30 5872 C 526.651 -0.292403 -1.71526 0
M  V30 5873 O 527.827 -0.533021 -1.94219 0
M  V30 5874 C 524.892 -1.23382 -3.24003 0
M  V30 5875 C 523.953 -2.43763 -3.53381 0
M  V30 5876 C 523.186 -2.28216 -4.82445 0
M  V30 5877 O 523.409 -1.28288 -5.55786 0
M  V30 5878 O 522.343 -3.1709 -5.11603 0
M  V30 5879 H 526.169 -2.36159 -1.90952 0
M  V30 5880 H 523.754 -1.20194 -0.887346 0
M  V30 5881 H 525.636 -1.16395 -4.05006 0
M  V30 5882 H 524.311 -0.300121 -3.22306 0
M  V30 5883 H 523.218 -2.56325 -2.72485 0
M  V30 5884 H 524.551 -3.35808 -3.59852 0
M  V30 5885 N 526.204 0.969867 -1.24223 0
M  V30 5886 C 527.62 1.23809 -1.00716 0
M  V30 5887 C 527.82 1.99469 0.285358 0
M  V30 5888 O 526.876 2.31764 1.00207 0
M  V30 5889 C 528.189 2.02734 -2.2208 0
M  V30 5890 C 529.737 2.15834 -2.26681 0
M  V30 5891 C 530.212 2.98154 -3.47661 0
M  V30 5892 N 531.703 3.05737 -3.47964 0
M  V30 5893 C 532.438 3.69785 -4.38231 0
M  V30 5894 N 531.934 4.35569 -5.3875 0
M  V30 5895 N 533.727 3.66775 -4.25949 0
M  V30 5896 H 525.878 0.463294 -2.07286 0
M  V30 5897 H 528.141 0.267348 -0.909521 0
M  V30 5898 H 527.847 1.54524 -3.15935 0
M  V30 5899 H 527.721 3.0347 -2.24021 0
M  V30 5900 H 530.108 2.63248 -1.33359 0
M  V30 5901 H 530.189 1.14453 -2.28767 0
M  V30 5902 H 529.833 2.51435 -4.41297 0
M  V30 5903 H 529.763 3.99729 -3.42818 0
M  V30 5904 H 532.254 2.58941 -2.75242 0
M  V30 5905 H 532.567 4.82251 -6.03866 0
M  V30 5906 H 530.912 4.34244 -5.42639 0
M  V30 5907 H 534.103 3.14558 -3.46657 0
M  V30 5908 H 534.276 4.16407 -4.96497 0
M  V30 5909 N 527.682 1.05563 1.17022 0
M  V30 5910 C 528.629 0.659893 2.21165 0
M  V30 5911 C 529.599 -0.339813 1.62587 0
M  V30 5912 O 530.784 -0.230378 1.89404 0
M  V30 5913 C 527.924 0.0447297 3.45071 0
M  V30 5914 C 527.037 1.09372 4.17926 0
M  V30 5915 C 526.172 0.445481 5.29329 0
M  V30 5916 C 525.211 1.47852 5.93975 0
M  V30 5917 N 524.348 0.854172 6.96885 0
M  V30 5918 H 529.188 1.55243 2.54369 0
M  V30 5919 H 526.725 0.776336 1.24946 0
M  V30 5920 H 528.683 -0.329404 4.15898 0
M  V30 5921 H 527.313 -0.811244 3.1244 0
M  V30 5922 H 526.365 1.58564 3.45777 0
M  V30 5923 H 527.677 1.87773 4.62107 0
M  V30 5924 H 526.831 0.0179688 6.06697 0
M  V30 5925 H 525.57 -0.370481 4.86291 0
M  V30 5926 H 524.575 1.91601 5.15334 0
M  V30 5927 H 525.8 2.29645 6.39093 0
M  V30 5928 H 523.746 0.0587882 6.55974 0
M  V30 5929 H 523.663 1.57567 7.39397 0
M  V30 5930 H 524.931 0.451559 7.78191 0
M  V30 5931 N 529.16 -1.33526 0.837174 0
M  V30 5932 C 530.09 -2.31764 0.284206 0
M  V30 5933 C 531.071 -1.58896 -0.607142 0
M  V30 5934 O 532.256 -1.86798 -0.531047 0
M  V30 5935 C 529.386 -3.43029 -0.542962 0
M  V30 5936 C 528.34 -4.27255 0.252451 0
M  V30 5937 C 527.666 -5.3012 -0.69836 0
M  V30 5938 C 528.966 -5.01229 1.46858 0
M  V30 5939 H 530.66 -2.78262 1.10502 0
M  V30 5940 H 528.206 -1.3378 0.532812 0
M  V30 5941 H 530.159 -4.1078 -0.940096 0
M  V30 5942 H 528.883 -2.95216 -1.39697 0
M  V30 5943 H 527.542 -3.61127 0.631124 0
M  V30 5944 H 527.19 -4.78564 -1.54872 0
M  V30 5945 H 526.89 -5.87353 -0.170274 0
M  V30 5946 H 528.414 -6.00737 -1.09305 0
M  V30 5947 H 529.828 -5.61756 1.14469 0
M  V30 5948 H 528.225 -5.68104 1.93333 0
M  V30 5949 H 529.295 -4.301 2.23924 0
M  V30 5950 N 530.638 -0.59345 -1.46 0
M  V30 5951 C 532.054 -0.255965 -1.57534 0
M  V30 5952 C 532.254 1.24167 -1.58697 0
M  V30 5953 O 531.31 2.02398 -1.50968 0
M  V30 5954 C 532.623 -0.91466 -2.86451 0
M  V30 5955 C 534.171 -0.889253 -3.00102 0
M  V30 5956 C 534.646 -1.52769 -4.3177 0
M  V30 5957 N 536.137 -1.49253 -4.38495 0
M  V30 5958 C 536.872 -1.9558 -5.39014 0
M  V30 5959 N 536.368 -2.49929 -6.46148 0
M  V30 5960 N 538.161 -1.86432 -5.30282 0
M  V30 5961 H 530.312 -1.56604 -1.43489 0
M  V30 5962 H 532.575 -0.655207 -0.685133 0
M  V30 5963 H 532.281 -1.96861 -2.91442 0
M  V30 5964 H 532.155 -0.429356 -3.74748 0
M  V30 5965 H 534.542 0.156111 -2.94687 0
M  V30 5966 H 534.623 -1.41268 -2.13253 0
M  V30 5967 H 534.267 -2.57231 -4.37944 0
M  V30 5968 H 534.197 -0.979398 -5.17412 0
M  V30 5969 H 536.688 -1.09536 -3.61677 0
M  V30 5970 H 537.001 -2.83109 -7.19075 0
M  V30 5971 H 535.346 -2.53961 -6.46938 0
M  V30 5972 H 538.537 -1.43722 -4.4549 0
M  V30 5973 H 538.71 -2.22852 -6.08474 0
M  V30 5974 N 532.116 1.54067 -0.331816 0
M  V30 5975 C 533.026 2.28322 0.539104 0
M  V30 5976 C 534.042 1.32985 1.1221 0
M  V30 5977 O 535.218 1.6601 1.1403 0
M  V30 5978 C 532.283 3.03277 1.68 0
M  V30 5979 C 531.344 4.14216 1.12798 0
M  V30 5980 C 530.577 4.85588 2.2145 0
M  V30 5981 O 530.8 4.56536 3.41952 0
M  V30 5982 O 529.734 5.72309 1.86404 0
M  V30 5983 H 533.56 3.03632 -0.0641692 0
M  V30 5984 H 531.145 1.49083 -0.0972365 0
M  V30 5985 H 533.027 3.50189 2.34405 0
M  V30 5986 H 531.702 2.30834 2.2693 0
M  V30 5987 H 530.609 3.71635 0.428782 0
M  V30 5988 H 531.942 4.88727 0.583698 0
M  V30 5989 N 533.594 0.0601682 1.57485 0
M  V30 5990 C 534.541 -0.91112 2.12055 0
M  V30 5991 C 535.511 -1.30298 1.03013 0
M  V30 5992 O 536.696 -1.39087 1.30612 0
M  V30 5993 C 533.836 -2.1775 2.67729 0
M  V30 5994 C 532.949 -1.83933 3.90887 0
M  V30 5995 C 532.084 -3.05096 4.34845 0
M  V30 5996 C 531.123 -2.67241 5.5068 0
M  V30 5997 N 530.26 -3.81127 5.8965 0
M  V30 5998 H 535.1 -0.43888 2.9475 0
M  V30 5999 H 532.637 -0.204995 1.45665 0
M  V30 6000 H 534.595 -2.91866 2.98111 0
M  V30 6001 H 533.225 -2.62535 1.87816 0
M  V30 6002 H 532.277 -0.999287 3.6704 0
M  V30 6003 H 533.589 -1.52074 4.75052 0
M  V30 6004 H 532.743 -3.87502 4.66827 0
M  V30 6005 H 531.482 -3.40139 3.49509 0
M  V30 6006 H 530.487 -1.83254 5.18361 0
M  V30 6007 H 531.712 -2.3338 6.37738 0
M  V30 6008 H 529.658 -4.15954 5.07266 0
M  V30 6009 H 529.575 -3.52997 6.68528 0
M  V30 6010 H 530.843 -4.64145 6.2625 0
M  V30 6011 N 535.072 -1.5615 -0.213296 0
M  V30 6012 C 536.319 -1.79546 -0.936462 0
M  V30 6013 C 536.647 -0.630337 -1.84003 0
M  V30 6014 O 535.902 0.384883 -1.91878 0
M  V30 6015 C 536.201 -3.08772 -1.79985 0
M  V30 6016 C 535.867 -4.38532 -1.04882 0
M  V30 6017 C 534.529 -4.73787 -0.841393 0
M  V30 6018 C 536.881 -5.18609 -0.51907 0
M  V30 6019 C 534.209 -5.86627 -0.0924403 0
M  V30 6020 C 536.561 -6.32229 0.216581 0
M  V30 6021 C 535.225 -6.6608 0.435191 0
M  V30 6022 H 534.495 -0.657004 -0.342676 0
M  V30 6023 H 537.142 -1.9041 -0.204051 0
M  V30 6024 H 535.447 -2.93065 -2.60038 0
M  V30 6025 H 537.144 -3.24077 -2.36168 0
M  V30 6026 H 533.734 -4.10855 -1.22048 0
M  V30 6027 H 537.918 -4.91801 -0.666775 0
M  V30 6028 H 533.174 -6.11338 0.087081 0
M  V30 6029 H 537.348 -6.93503 0.634538 0
M  V30 6030 H 534.975 -7.5336 1.01746 0
M  V30 6031 N 536.55 0.480323 -1.50102 0
M  V30 6032 C 537.961 1.06142 -1.53593 0
M  V30 6033 C 538.312 1.93335 -0.334055 0
M  V30 6034 O 537.437 2.09188 0.55403 0
M  V30 6035 C 538.032 1.9317 -2.78336 0
M  V30 6036 C 536.591 2.46405 -2.84538 0
M  V30 6037 C 535.738 1.24521 -2.4777 0
M  V30 6038 H 538.689 0.26333 -1.565 0
M  V30 6039 H 538.71 2.78123 -2.59669 0
M  V30 6040 H 538.222 1.29683 -3.65792 0
M  V30 6041 H 536.323 3.13472 -2.01411 0
M  V30 6042 H 536.436 2.82143 -3.87211 0
M  V30 6043 H 534.8 1.57706 -2.00003 0
M  V30 6044 H 535.583 0.627102 -3.37524 0
M  V30 6045 N 538.028 1.39524 0.732853 0
M  V30 6046 C 539.268 1.383 1.50508 0
M  V30 6047 C 539.632 -0.0208271 1.91989 0
M  V30 6048 O 540.833 -0.158091 2.68335 0
M  V30 6049 C 539.104 2.33007 2.71003 0
M  V30 6050 S 540.663 2.49989 3.60626 0
M  V30 6051 H 537.481 0.490417 0.514794 0
M  V30 6052 H 540.083 1.75641 0.858524 0
M  V30 6053 H 538.787 3.33862 2.38672 0
M  V30 6054 H 538.318 1.96889 3.40585 0
M  V30 6055 H 540.333 1.7394 4.64714 0
M  V30 6056 N 539.506 -0.963266 1.24736 0
M  V30 6057 C 540.439 -2.05758 0.986852 0
M  V30 6058 C 541.417 -1.62398 -0.0809272 0
M  V30 6059 O 542.601 -1.88414 0.0569347 0
M  V30 6060 C 539.728 -3.35135 0.490095 0
M  V30 6061 C 538.774 -3.97451 1.54709 0
M  V30 6062 S 539.607 -4.34519 3.12976 0
M  V30 6063 C 540.763 -5.67026 2.65014 0
M  V30 6064 H 540.996 -2.27539 1.91346 0
M  V30 6065 H 538.529 -1.10176 1.08169 0
M  V30 6066 H 540.487 -4.09962 0.21012 0
M  V30 6067 H 539.148 -3.11335 -0.415873 0
M  V30 6068 H 538.341 -4.90704 1.15003 0
M  V30 6069 H 537.943 -3.29071 1.77731 0
M  V30 6070 H 540.235 -6.44748 2.08102 0
M  V30 6071 H 541.178 -6.11594 3.56873 0
M  V30 6072 H 541.586 -5.25847 2.05294 0
M  V30 6073 N 540.985 -1.06182 -1.16461 0
M  V30 6074 C 542.225 -0.787048 -1.8864 0
M  V30 6075 C 542.589 0.674093 -1.79778 0
M  V30 6076 O 543.79 1.06341 -2.46871 0
M  V30 6077 C 542.061 -1.2666 -3.34203 0
M  V30 6078 S 543.62 -1.12071 -4.24247 0
M  V30 6079 H 540.438 -0.285539 -0.651144 0
M  V30 6080 H 543.04 -1.35851 -1.40587 0
M  V30 6081 H 541.744 -2.32496 -3.38192 0
M  V30 6082 H 541.275 -0.689841 -3.87304 0
M  V30 6083 H 543.29 -0.0509341 -4.96174 0
M  V30 6084 N 542.463 1.3308 -0.844243 0
M  V30 6085 C 543.711 1.97215 -0.441676 0
M  V30 6086 C 544.032 1.67185 1.0037 0
M  V30 6087 O 543.302 0.973588 1.69994 0
M  V30 6088 H 541.882 0.72959 -0.160335 0
M  V30 6089 H 544.544 1.62348 -1.07838 0
M  V30 6090 H 543.64 3.06698 -0.57815 0
M  V30 6091 N 543.941 0.601185 1.45683 0
M  V30 6092 C 544.874 -0.17013 2.27565 0
M  V30 6093 C 545.852 -0.879661 1.36751 0
M  V30 6094 O 547.036 -0.889827 1.66176 0
M  V30 6095 C 544.163 -1.24568 3.14961 0
M  V30 6096 C 543.209 -0.639978 4.21671 0
M  V30 6097 S 544.042 0.547275 5.32696 0
M  V30 6098 C 545.198 -0.529019 6.2366 0
M  V30 6099 H 545.431 0.524583 2.92635 0
M  V30 6100 H 542.964 0.388537 1.49431 0
M  V30 6101 H 544.922 -1.86138 3.65873 0
M  V30 6102 H 543.583 -1.91243 2.49169 0
M  V30 6103 H 542.776 -1.44903 4.8272 0
M  V30 6104 H 542.378 -0.0995558 3.73867 0
M  V30 6105 H 544.67 -1.40981 6.62669 0
M  V30 6106 H 545.613 0.0451599 7.08086 0
M  V30 6107 H 546.021 -0.84147 5.58193 0
M  V30 6108 N 545.419 -1.53889 0.339982 0
M  V30 6109 C 546.349 -2.27843 -0.510856 0
M  V30 6110 C 547.33 -1.29267 -1.10563 0
M  V30 6111 O 548.515 -1.58104 -1.12768 0
M  V30 6112 C 545.645 -3.04857 -1.66372 0
M  V30 6113 C 544.599 -4.10907 -1.19746 0
M  V30 6114 C 543.925 -4.75855 -2.43857 0
M  V30 6115 C 545.225 -5.21435 -0.300501 0
M  V30 6116 H 546.919 -2.99212 0.106067 0
M  V30 6117 H 544.465 -1.43904 0.0524533 0
M  V30 6118 H 546.418 -3.5533 -2.26537 0
M  V30 6119 H 545.142 -2.31133 -2.30749 0
M  V30 6120 H 543.801 -3.61342 -0.618654 0
M  V30 6121 H 543.449 -3.9873 -3.06633 0
M  V30 6122 H 543.149 -5.47502 -2.13343 0
M  V30 6123 H 544.673 -5.2911 -3.04754 0
M  V30 6124 H 546.087 -5.67565 -0.80889 0
M  V30 6125 H 544.484 -6.00036 -0.0874076 0
M  V30 6126 H 545.554 -4.80328 0.664321 0
M  V30 6127 N 546.897 -0.0685191 -1.57451 0
M  V30 6128 C 547.847 0.909895 -2.09057 0
M  V30 6129 C 548.831 1.26088 -0.999528 0
M  V30 6130 O 550.023 1.24041 -1.26265 0
M  V30 6131 C 547.152 2.17863 -2.65312 0
M  V30 6132 C 546.238 1.85427 -3.81415 0
M  V30 6133 N 546.629 1.23426 -4.9051 0
M  V30 6134 C 544.927 2.15196 -3.90649 0
M  V30 6135 C 545.628 1.09008 -5.71395 0
M  V30 6136 N 544.604 1.59871 -5.1956 0
M  V30 6137 H 548.406 0.426145 -2.90794 0
M  V30 6138 H 545.92 0.135462 -1.61834 0
M  V30 6139 H 547.917 2.88872 -3.00597 0
M  V30 6140 H 546.577 2.66829 -1.85021 0
M  V30 6141 H 547.588 0.904305 -5.09944 0
M  V30 6142 H 544.265 2.66562 -3.21327 0
M  V30 6143 H 545.655 0.607305 -6.6915 0
M  V30 6144 N 548.375 1.56261 0.205012 0
M  V30 6145 C 549.6 1.84491 0.947512 0
M  V30 6146 C 550.025 0.650894 1.76479 0
M  V30 6147 O 549.383 -0.40035 1.76824 0
M  V30 6148 C 549.431 3.10863 1.82747 0
M  V30 6149 O 548.535 2.90719 2.925 0
M  V30 6150 H 547.876 0.607783 0.267386 0
M  V30 6151 H 550.406 2.03485 0.213323 0
M  V30 6152 H 550.416 3.41399 2.23407 0
M  V30 6153 H 549.091 3.97392 1.2269 0
M  V30 6154 H 547.668 2.71457 2.55667 0
M  V30 6155 N 549.853 -0.472356 1.50355 0
M  V30 6156 C 550.8 -1.57051 1.69126 0
M  V30 6157 C 551.77 -1.5733 0.532574 0
M  V30 6158 O 552.955 -1.7488 0.762994 0
M  V30 6159 C 550.095 -2.95033 1.79024 0
M  V30 6160 C 549.208 -3.04552 3.06386 0
M  V30 6161 C 548.343 -4.33441 3.07087 0
M  V30 6162 C 547.382 -4.36697 4.28908 0
M  V30 6163 N 546.519 -5.57056 4.27356 0
M  V30 6164 H 551.359 -1.40351 2.62879 0
M  V30 6165 H 548.896 -0.682403 1.30314 0
M  V30 6166 H 550.854 -3.75048 1.82744 0
M  V30 6167 H 549.484 -3.10371 0.887109 0
M  V30 6168 H 548.536 -2.17419 3.12143 0
M  V30 6169 H 549.848 -3.02818 3.96362 0
M  V30 6170 H 549.002 -5.21801 3.09529 0
M  V30 6171 H 547.741 -4.37782 2.14939 0
M  V30 6172 H 546.746 -3.46734 4.2668 0
M  V30 6173 H 547.971 -4.34049 5.22282 0
M  V30 6174 H 545.917 -5.62184 3.3806 0
M  V30 6175 H 545.834 -5.57058 5.111 0
M  V30 6176 H 547.102 -6.47545 4.33942 0
M  V30 6177 N 551.331 -1.39911 -0.725443 0
M  V30 6178 C 552.559 -1.40949 -1.51463 0
M  V30 6179 C 552.974 -0.0065242 -1.88799 0
M  V30 6180 O 552.331 0.967163 -1.54765 0
M  V30 6181 C 552.382 -2.29119 -2.79619 0
M  V30 6182 O 552.103 -3.63952 -2.43866 0
M  V30 6183 C 553.604 -2.38642 -3.73584 0
M  V30 6184 H 550.824 -0.481091 -0.467752 0
M  V30 6185 H 553.368 -1.83843 -0.895651 0
M  V30 6186 H 551.523 -1.89612 -3.37826 0
M  V30 6187 H 551.937 -4.10677 -3.26258 0
M  V30 6188 H 553.411 -3.04563 -4.60375 0
M  V30 6189 H 553.888 -1.40846 -4.16004 0
M  V30 6190 H 554.494 -2.78659 -3.21293 0
M  V30 6191 N 552.809 0.956637 -1.25245 0
M  V30 6192 C 553.742 2.05232 -0.99775 0
M  V30 6193 C 554.72 1.62439 0.0723137 0
M  V30 6194 O 555.904 1.88381 -0.066926 0
M  V30 6195 C 553.031 3.34871 -0.507861 0
M  V30 6196 C 552.077 3.96625 -1.56815 0
M  V30 6197 S 552.91 4.32853 -3.15276 0
M  V30 6198 C 554.066 5.65613 -2.68017 0
M  V30 6199 H 554.299 2.26521 -1.9255 0
M  V30 6200 H 551.832 1.09601 -1.08752 0
M  V30 6201 H 553.79 4.09845 -0.231858 0
M  V30 6202 H 552.451 3.11551 0.399356 0
M  V30 6203 H 551.644 4.90087 -1.17604 0
M  V30 6204 H 551.246 3.28124 -1.79473 0
M  V30 6205 H 553.538 6.43635 -2.11518 0
M  V30 6206 H 554.481 6.09693 -3.60112 0
M  V30 6207 H 554.889 5.24751 -2.0808 0
M  V30 6208 N 554.287 1.06798 1.15896 0
M  V30 6209 C 555.22 0.627503 2.19403 0
M  V30 6210 C 556.198 -0.352352 1.58736 0
M  V30 6211 O 557.382 -0.260111 1.86697 0
M  V30 6212 C 554.509 -0.079356 3.38607 0
M  V30 6213 C 553.555 0.858057 4.17779 0
M  V30 6214 S 554.388 2.35605 4.80885 0
M  V30 6215 C 555.544 1.66083 6.03463 0
M  V30 6216 H 555.777 1.50441 2.56427 0
M  V30 6217 H 553.31 0.881427 1.26768 0
M  V30 6218 H 555.268 -0.48095 4.07673 0
M  V30 6219 H 553.929 -0.932524 2.99938 0
M  V30 6220 H 553.122 0.310108 5.03045 0
M  V30 6221 H 552.724 1.19977 3.54234 0
M  V30 6222 H 555.016 0.969337 6.7053 0
M  V30 6223 H 555.959 2.49159 6.62816 0
M  V30 6224 H 556.367 1.14122 5.52844 0
M  V30 6225 N 555.766 -1.3263 0.851289 0
M  V30 6226 C 556.696 -2.31449 0.308771 0
M  V30 6227 C 557.677 -1.59531 -0.590255 0
M  V30 6228 O 558.862 -1.87351 -0.511205 0
M  V30 6229 C 555.992 -3.43586 -0.506548 0
M  V30 6230 C 554.946 -4.26963 0.297753 0
M  V30 6231 C 554.272 -5.30831 -0.642094 0
M  V30 6232 C 555.572 -4.99643 1.52166 0
M  V30 6233 H 557.266 -2.77074 1.13447 0
M  V30 6234 H 554.812 -1.33207 0.546971 0
M  V30 6235 H 556.765 -4.11754 -0.896474 0
M  V30 6236 H 555.489 -2.96681 -1.36558 0
M  V30 6237 H 554.148 -3.60437 0.669391 0
M  V30 6238 H 553.796 -4.8018 -1.49788 0
M  V30 6239 H 553.496 -5.87501 -0.107968 0
M  V30 6240 H 555.02 -6.01862 -1.02927 0
M  V30 6241 H 556.434 -5.6051 1.20421 0
M  V30 6242 H 554.831 -5.66022 1.99347 0
M  V30 6243 H 555.901 -4.27701 2.28474 0
M  V30 6244 N 557.244 -0.608902 -1.45362 0
M  V30 6245 C 558.521 -0.0365378 -1.95566 0
M  V30 6246 C 558.901 1.43169 -1.55131 0
M  V30 6247 O 558.249 2.1349 -0.814513 0
M  V30 6248 C 558.459 -0.236026 -3.48201 0
M  V30 6249 C 559.807 -0.117518 -4.24437 0
M  V30 6250 O 560.831 -0.166217 -3.55812 0
M  V30 6251 O 559.69 -0.00372127 -5.465 0
M  V30 6252 H 556.784 0.0349874 -0.82626 0
M  V30 6253 H 559.33 -0.679055 -1.55521 0
M  V30 6254 H 558.102 -1.25569 -3.70605 0
M  V30 6255 H 557.725 0.441691 -3.95139 0
M  V30 6256 N 558.722 1.53707 -0.348139 0
M  V30 6257 C 559.97 2.00591 0.246478 0
M  V30 6258 C 560.291 1.23753 1.50699 0
M  V30 6259 O 559.561 0.345964 1.92821 0
M  V30 6260 H 558.141 0.741053 0.0940679 0
M  V30 6261 H 560.803 1.89139 -0.470354 0
M  V30 6262 H 559.899 3.08297 0.485714 0
M  V30 6263 N 560.2 0.0768682 1.57412 0
M  V30 6264 C 561.425 -0.603404 1.98428 0
M  V30 6265 C 561.85 -1.62047 0.955108 0
M  V30 6266 O 561.208 -1.81129 -0.0786778 0
M  V30 6267 C 561.256 -1.24396 3.38464 0
M  V30 6268 O 560.36 -2.35982 3.3821 0
M  V30 6269 H 559.701 -0.154741 0.645718 0
M  V30 6270 H 562.231 0.152885 2.04028 0
M  V30 6271 H 562.241 -1.5896 3.7576 0
M  V30 6272 H 560.916 -0.498735 4.12899 0
M  V30 6273 H 559.493 -2.03173 3.1269 0
M  V30 6274 N 561.678 -1.56367 -0.196722 0
M  V30 6275 C 562.908 -1.84371 -0.932254 0
M  V30 6276 C 563.316 -0.657013 -1.77426 0
M  V30 6277 O 562.659 0.383576 -1.79651 0
M  V30 6278 C 562.721 -3.06454 -1.87952 0
M  V30 6279 C 562.385 -4.40425 -1.21962 0
M  V30 6280 C 563.382 -5.16457 -0.597343 0
M  V30 6281 C 561.067 -4.8716 -1.22396 0
M  V30 6282 C 563.061 -6.37399 0.0117913 0
M  V30 6283 C 560.748 -6.08038 -0.610995 0
M  V30 6284 C 561.746 -6.83 0.00580487 0
M  V30 6285 O 561.434 -8.01589 0.609173 0
M  V30 6286 H 561.166 -0.616377 -0.277589 0
M  V30 6287 H 563.72 -2.04329 -0.209452 0
M  V30 6288 H 561.95 -2.82377 -2.64197 0
M  V30 6289 H 563.639 -3.21118 -2.48271 0
M  V30 6290 H 564.405 -4.81445 -0.586142 0
M  V30 6291 H 560.284 -4.2877 -1.69345 0
M  V30 6292 H 563.828 -6.9585 0.493836 0
M  V30 6293 H 559.725 -6.42519 -0.619693 0
M  V30 6294 H 560.493 -8.16935 0.505919 0
M  V30 6295 N 563.156 0.464375 -1.50603 0
M  V30 6296 C 564.381 1.24372 -1.65971 0
M  V30 6297 C 564.806 1.84901 -0.345453 0
M  V30 6298 O 564.164 1.67596 0.691457 0
M  V30 6299 C 564.212 2.32331 -2.7578 0
M  V30 6300 O 563.316 3.37146 -2.375 0
M  V30 6301 H 562.657 0.365604 -0.554283 0
M  V30 6302 H 565.187 0.55183 -1.97018 0
M  V30 6303 H 565.197 2.77539 -2.99059 0
M  V30 6304 H 563.872 1.87648 -3.71162 0
M  V30 6305 H 562.449 2.97602 -2.24694 0
M  V30 6306 N 564.634 1.40294 0.718013 0
M  V30 6307 C 565.544 1.42678 1.86226 0
M  V30 6308 C 566.56 0.319655 1.71039 0
M  V30 6309 O 567.736 0.563852 1.93346 0
M  V30 6310 C 564.801 1.2852 3.21999 0
M  V30 6311 C 563.862 2.49354 3.49458 0
M  V30 6312 C 563.095 2.35863 4.78753 0
M  V30 6313 O 563.318 1.37114 5.53675 0
M  V30 6314 O 562.252 3.25189 5.06494 0
M  V30 6315 H 566.078 2.39167 1.87171 0
M  V30 6316 H 563.663 1.2159 0.868112 0
M  V30 6317 H 565.545 1.22824 4.03103 0
M  V30 6318 H 564.22 0.351359 3.21787 0
M  V30 6319 H 563.127 2.60628 2.68373 0
M  V30 6320 H 564.46 3.41491 3.54464 0
M  V30 6321 N 566.112 -0.949982 1.2575 0
M  V30 6322 C 567.337 -1.73503 1.13628 0
M  V30 6323 C 567.762 -1.85601 -0.30559 0
M  V30 6324 O 567.12 -1.33984 -1.22139 0
M  V30 6325 C 567.168 -3.1243 1.80055 0
M  V30 6326 O 566.272 -3.97916 1.08336 0
M  V30 6327 H 565.613 -0.532665 0.396439 0
M  V30 6328 H 568.143 -1.19043 1.66403 0
M  V30 6329 H 568.153 -3.62866 1.86527 0
M  V30 6330 H 566.828 -3.02941 2.84956 0
M  V30 6331 H 565.405 -3.56375 1.09777 0
M  V30 6332 N 567.59 -1.07411 -1.15328 0
M  V30 6333 C 568.5 -0.706438 -2.23711 0
M  V30 6334 C 569.516 0.282586 -1.7169 0
M  V30 6335 O 570.692 0.129066 -2.00986 0
M  V30 6336 C 567.757 -0.11048 -3.46524 0
M  V30 6337 C 566.818 -1.15282 -4.13532 0
M  V30 6338 C 566.051 -0.585205 -5.30482 0
M  V30 6339 O 566.274 0.598549 -5.67251 0
M  V30 6340 O 565.208 -1.33039 -5.87013 0
M  V30 6341 H 569.034 -1.61031 -2.57493 0
M  V30 6342 H 566.619 -0.847113 -1.23062 0
M  V30 6343 H 568.501 0.21957 -4.20828 0
M  V30 6344 H 567.176 0.766703 -3.14489 0
M  V30 6345 H 566.083 -1.53523 -3.41147 0
M  V30 6346 H 567.416 -2.00192 -4.49649 0
M  V30 6347 N 569.068 1.32177 -0.85831 0
M  V30 6348 C 570.031 2.27086 -0.310588 0
M  V30 6349 C 571.031 1.51751 0.531806 0
M  V30 6350 O 572.221 1.70794 0.34279 0
M  V30 6351 C 569.353 3.36266 0.560179 0
M  V30 6352 H 570.546 2.77045 -1.1483 0
M  V30 6353 H 568.099 1.42911 -0.632942 0
M  V30 6354 H 568.834 2.9158 1.41956 0
M  V30 6355 H 568.619 3.92077 -0.0428473 0
M  V30 6356 H 570.109 4.06974 0.936056 0
M  V30 6357 N 570.547 0.616602 1.45037 0
M  V30 6358 C 571.495 -0.109318 2.32343 0
M  V30 6359 C 572.489 -0.850543 1.465 0
M  V30 6360 O 573.695 -0.765088 1.62931 0
M  V30 6361 H 570.07 -0.0541091 0.750051 0
M  V30 6362 H 572.041 0.645326 2.91338 0
M  V30 6363 C 570.79 -1.0872 3.30266 0
M  V30 6364 H 570.113 -0.526267 3.96321 0
M  V30 6365 H 571.553 -1.56489 3.94065 0
M  V30 6366 C 570.012 -2.16525 2.58105 0
M  V30 6367 O 570.542 -3.244 2.36913 0
M  V30 6368 N 568.748 -1.92057 2.18088 0
M  V30 6369 H 568.295 -1.04337 2.35524 0
M  V30 6370 H 568.253 -2.64391 1.70131 0
M  V30 6371 N 572.025 -1.5352 0.356285 0
M  V30 6372 C 573.25 -2.06007 -0.239961 0
M  V30 6373 C 573.675 -1.22872 -1.42422 0
M  V30 6374 O 573.033 -0.245516 -1.7963 0
M  V30 6375 C 573.081 -3.5522 -0.620587 0
M  V30 6376 O 572.185 -3.74864 -1.71902 0
M  V30 6377 H 571.526 -0.662961 -0.0371377 0
M  V30 6378 H 574.056 -1.98033 0.514194 0
M  V30 6379 H 574.066 -3.98081 -0.894197 0
M  V30 6380 H 572.741 -4.15175 0.245407 0
M  V30 6381 H 571.318 -3.43904 -1.44169 0
M  V30 6382 N 573.503 -0.0852151 -1.57369 0
M  V30 6383 C 574.433 0.874556 -2.16503 0
M  V30 6384 C 575.414 1.30111 -1.09568 0
M  V30 6385 O 576.599 1.36977 -1.37662 0
M  V30 6386 C 573.729 2.13731 -2.73745 0
M  V30 6387 C 572.683 1.84971 -3.85966 0
M  V30 6388 C 572.009 3.17991 -4.29867 0
M  V30 6389 C 573.309 1.14442 -5.09608 0
M  V30 6390 H 575.003 0.381899 -2.96954 0
M  V30 6391 H 572.549 0.18225 -1.42842 0
M  V30 6392 H 574.502 2.81302 -3.13763 0
M  V30 6393 H 573.226 2.65263 -1.90534 0
M  V30 6394 H 571.885 1.19801 -3.46473 0
M  V30 6395 H 571.533 3.6739 -3.4356 0
M  V30 6396 H 571.233 2.99534 -5.05523 0
M  V30 6397 H 572.757 3.86737 -4.72511 0
M  V30 6398 H 574.171 1.72105 -5.46857 0
M  V30 6399 H 572.568 1.06197 -5.90629 0
M  V30 6400 H 573.638 0.12559 -4.84737 0
M  V30 6401 N 574.981 1.5647 0.188427 0
M  V30 6402 C 575.944 1.9421 1.21718 0
M  V30 6403 C 576.944 0.823901 1.38089 0
M  V30 6404 O 578.134 1.09122 1.35787 0
M  V30 6405 C 575.266 2.22197 2.58537 0
M  V30 6406 H 576.459 2.86252 0.894418 0
M  V30 6407 H 574.012 1.50263 0.430211 0
M  V30 6408 H 574.747 1.32814 2.95856 0
M  V30 6409 H 574.532 3.03688 2.48025 0
M  V30 6410 H 576.022 2.52376 3.3271 0
M  V30 6411 N 576.459 -0.456382 1.50847 0
M  V30 6412 C 577.707 -1.20497 1.62249 0
M  V30 6413 C 578.028 -1.92156 0.331839 0
M  V30 6414 O 577.298 -1.84751 -0.651443 0
M  V30 6415 H 575.878 -0.447775 0.597918 0
M  V30 6416 H 578.54 -0.525099 1.87693 0
M  V30 6417 H 577.636 -1.94492 2.44089 0
M  V30 6418 N 577.937 -1.40673 -0.710563 0
M  V30 6419 C 579.167 -1.4234 -1.49742 0
M  V30 6420 C 579.575 -0.022821 -1.89186 0
M  V30 6421 O 578.918 0.964773 -1.56326 0
M  V30 6422 C 578.98 -2.25509 -2.79975 0
M  V30 6423 C 578.644 -3.73862 -2.62824 0
M  V30 6424 C 579.641 -4.66379 -2.29752 0
M  V30 6425 C 577.326 -4.17735 -2.78932 0
M  V30 6426 C 579.32 -6.00756 -2.13006 0
M  V30 6427 C 577.007 -5.5218 -2.61802 0
M  V30 6428 C 578.005 -6.43505 -2.28888 0
M  V30 6429 O 577.693 -7.75472 -2.11894 0
M  V30 6430 H 577.425 -0.487311 -0.468513 0
M  V30 6431 H 579.979 -1.8542 -0.883668 0
M  V30 6432 H 578.209 -1.77218 -3.43701 0
M  V30 6433 H 579.898 -2.19058 -3.41714 0
M  V30 6434 H 580.664 -4.33778 -2.16936 0
M  V30 6435 H 576.543 -3.46967 -3.03537 0
M  V30 6436 H 580.087 -6.72003 -1.87237 0
M  V30 6437 H 575.984 -5.84365 -2.74204 0
M  V30 6438 H 576.752 -7.86458 -2.26775 0
M  V30 6439 N 579.415 0.9433 -1.26252 0
M  V30 6440 C 580.826 1.50404 -1.10614 0
M  V30 6441 C 581.177 1.93666 0.31429 0
M  V30 6442 O 580.302 1.79709 1.20555 0
M  V30 6443 C 580.897 2.73336 -2.00182 0
M  V30 6444 C 579.456 3.25686 -1.88695 0
M  V30 6445 C 578.603 1.98474 -1.93658 0
M  V30 6446 H 581.554 0.759006 -1.39373 0
M  V30 6447 H 581.575 3.47567 -1.54847 0
M  V30 6448 H 581.087 2.41818 -3.03555 0
M  V30 6449 H 579.188 3.61998 -0.882489 0
M  V30 6450 H 579.301 3.92935 -2.74115 0
M  V30 6451 H 577.665 2.14278 -1.37684 0
M  V30 6452 H 578.448 1.6929 -2.98657 0
M  V30 6453 N 580.893 1.08022 1.14757 0
M  V30 6454 C 582.309 0.807072 1.3769 0
M  V30 6455 C 582.509 -0.585504 1.92806 0
M  V30 6456 O 581.565 -1.34301 2.13821 0
M  V30 6457 C 582.878 1.88651 2.34161 0
M  V30 6458 C 584.426 1.91206 2.47809 0
M  V30 6459 C 584.901 2.98253 3.47576 0
M  V30 6460 N 586.392 2.974 3.55117 0
M  V30 6461 C 587.127 3.76872 4.32152 0
M  V30 6462 N 586.623 4.66212 5.12463 0
M  V30 6463 N 588.416 3.6519 4.27309 0
M  V30 6464 H 580.567 1.97824 0.77326 0
M  V30 6465 H 582.83 0.85826 0.402608 0
M  V30 6466 H 582.536 2.88749 2.00791 0
M  V30 6467 H 582.41 1.75244 3.3402 0
M  V30 6468 H 584.797 0.917564 2.80472 0
M  V30 6469 H 584.878 2.08691 1.47925 0
M  V30 6470 H 584.522 3.97907 3.15646 0
M  V30 6471 H 584.452 2.78014 4.47231 0
M  V30 6472 H 586.943 2.32643 2.97801 0
M  V30 6473 H 587.256 5.23468 5.68508 0
M  V30 6474 H 585.601 4.70257 5.11745 0
M  V30 6475 H 588.792 2.94765 3.63636 0
M  V30 6476 H 588.965 4.27366 4.87095 0
M  V30 6477 N 582.371 -1.3172 0.865308 0
M  V30 6478 C 583.596 -2.01591 0.487415 0
M  V30 6479 C 584.021 -1.6455 -0.911307 0
M  V30 6480 O 583.379 -0.851689 -1.6005 0
M  V30 6481 C 583.427 -3.54759 0.646401 0
M  V30 6482 O 582.531 -4.11185 -0.316284 0
M  V30 6483 H 581.872 -0.634884 0.194468 0
M  V30 6484 H 584.402 -1.68024 1.16744 0
M  V30 6485 H 584.412 -4.04438 0.537932 0
M  V30 6486 H 583.087 -3.8106 1.66632 0
M  V30 6487 H 581.664 -3.72543 -0.163162 0
M  V30 6488 N 583.85 -0.624285 -1.44708 0
M  V30 6489 C 584.8 0.106466 -2.27751 0
M  V30 6490 C 585.784 0.822703 -1.38277 0
M  V30 6491 O 586.976 0.709939 -1.62138 0
M  V30 6492 C 584.105 1.092 -3.25469 0
M  V30 6493 C 583.191 0.375737 -4.22432 0
M  V30 6494 N 583.582 -0.591881 -5.02325 0
M  V30 6495 C 581.88 0.621093 -4.41654 0
M  V30 6496 C 582.581 -1.01443 -5.72786 0
M  V30 6497 N 581.557 -0.354651 -5.42442 0
M  V30 6498 H 585.359 -0.636464 -2.86926 0
M  V30 6499 H 582.873 -0.44925 -1.56062 0
M  V30 6500 H 584.87 1.63006 -3.83712 0
M  V30 6501 H 583.529 1.8353 -2.67856 0
M  V30 6502 H 584.541 -0.969389 -5.08747 0
M  V30 6503 H 581.218 1.34779 -3.95147 0
M  V30 6504 H 582.608 -1.81345 -6.46965 0
M  V30 6505 N 585.328 1.53329 -0.364422 0
M  V30 6506 C 586.577 2.00421 0.226747 0
M  V30 6507 C 586.89 1.25581 1.49963 0
M  V30 6508 O 588.096 1.63256 2.16933 0
M  V30 6509 C 586.552 3.57017 0.454618 0
M  V30 6510 C 586.16 4.40734 -0.803568 0
M  V30 6511 C 587.904 4.12468 1.00351 0
M  V30 6512 C 585.811 5.8888 -0.545345 0
M  V30 6513 H 584.741 0.748787 0.0885082 0
M  V30 6514 H 587.392 1.7703 -0.482983 0
M  V30 6515 H 585.774 3.76558 1.22558 0
M  V30 6516 H 586.948 4.32967 -1.57723 0
M  V30 6517 H 585.263 3.96381 -1.27559 0
M  V30 6518 H 587.86 5.20783 1.212 0
M  V30 6519 H 588.203 3.6699 1.9653 0
M  V30 6520 H 588.736 3.96721 0.29274 0
M  V30 6521 H 585.475 6.38633 -1.47743 0
M  V30 6522 H 584.995 5.99499 0.189842 0
M  V30 6523 H 586.674 6.46776 -0.170425 0
M  V30 6524 N 586.806 0.0935595 1.57322 0
M  V30 6525 C 587.736 -0.863062 2.16964 0
M  V30 6526 C 588.717 -1.29528 1.10256 0
M  V30 6527 O 589.902 -1.36245 1.38387 0
M  V30 6528 C 587.032 -2.12276 2.74875 0
M  V30 6529 C 585.986 -1.82921 3.86942 0
M  V30 6530 C 585.312 -3.15707 4.31548 0
M  V30 6531 C 586.612 -1.11737 5.10208 0
M  V30 6532 H 588.306 -0.366145 2.97153 0
M  V30 6533 H 585.852 -0.174673 1.42937 0
M  V30 6534 H 587.805 -2.79634 3.1525 0
M  V30 6535 H 586.529 -2.64248 1.91938 0
M  V30 6536 H 585.188 -1.17961 3.47103 0
M  V30 6537 H 584.836 -3.65563 3.45504 0
M  V30 6538 H 584.536 -2.96849 5.07104 0
M  V30 6539 H 586.06 -3.84226 4.74555 0
M  V30 6540 H 587.474 -1.69203 5.47762 0
M  V30 6541 H 585.871 -1.03064 5.91183 0
M  V30 6542 H 586.941 -0.0998818 4.84797 0
M  V30 6543 N 588.284 -1.56567 -0.180126 0
M  V30 6544 C 589.512 -1.85618 -0.913972 0
M  V30 6545 C 589.927 -0.677892 -1.7621 0
M  V30 6546 O 589.284 0.353171 -1.7905 0
M  V30 6547 C 589.335 -3.13619 -1.79793 0
M  V30 6548 O 589.056 -4.26906 -0.98402 0
M  V30 6549 C 590.557 -3.55954 -2.64219 0
M  V30 6550 H 587.777 -0.616043 -0.265954 0
M  V30 6551 H 590.321 -2.03681 -0.182872 0
M  V30 6552 H 588.476 -2.97409 -2.48247 0
M  V30 6553 H 588.89 -4.9989 -1.58776 0
M  V30 6554 H 590.364 -4.48444 -3.21873 0
M  V30 6555 H 590.841 -2.79653 -3.38661 0
M  V30 6556 H 591.447 -3.74746 -2.01111 0
M  V30 6557 N 589.762 0.448376 -1.51087 0
M  V30 6558 C 590.672 1.56882 -1.74428 0
M  V30 6559 C 591.688 1.62268 -0.62809 0
M  V30 6560 O 592.864 1.79716 -0.909075 0
M  V30 6561 C 589.929 2.92947 -1.85426 0
M  V30 6562 C 588.99 2.97766 -3.09247 0
M  V30 6563 C 588.223 4.27341 -3.19711 0
M  V30 6564 O 588.446 5.19112 -2.36387 0
M  V30 6565 O 587.38 4.38219 -4.12611 0
M  V30 6566 H 591.206 1.40104 -2.69452 0
M  V30 6567 H 588.791 0.630247 -1.35456 0
M  V30 6568 H 590.673 3.73719 -1.94709 0
M  V30 6569 H 589.348 3.09876 -0.935887 0
M  V30 6570 H 588.255 2.15989 -3.0545 0
M  V30 6571 H 589.588 2.8578 -4.00738 0
M  V30 6572 N 591.24 1.41047 0.703093 0
M  V30 6573 C 592.15 1.44645 1.84703 0
M  V30 6574 C 593.166 0.337778 1.7069 0
M  V30 6575 O 594.342 0.584327 1.92737 0
M  V30 6576 C 591.407 1.31928 3.20618 0
M  V30 6577 C 590.468 2.53047 3.46794 0
M  V30 6578 C 589.701 2.40927 4.76224 0
M  V30 6579 O 589.924 1.42978 5.5219 0
M  V30 6580 O 588.858 3.30543 5.03016 0
M  V30 6581 H 592.684 2.41139 1.84624 0
M  V30 6582 H 590.269 1.22504 0.855167 0
M  V30 6583 H 592.151 1.27092 4.01778 0
M  V30 6584 H 590.826 0.385469 3.21397 0
M  V30 6585 H 589.733 2.6346 2.65593 0
M  V30 6586 H 591.066 3.45231 3.50822 0
M  V30 6587 N 592.718 -0.936591 1.26751 0
M  V30 6588 C 593.628 -2.06949 1.10496 0
M  V30 6589 C 594.644 -1.7396 0.037271 0
M  V30 6590 O 595.82 -1.99941 0.241944 0
M  V30 6591 C 592.885 -3.38612 0.744491 0
M  V30 6592 C 591.946 -3.85355 1.89209 0
M  V30 6593 C 591.179 -5.10735 1.54873 0
M  V30 6594 O 591.402 -5.68602 0.452546 0
M  V30 6595 O 590.336 -5.52632 2.38499 0
M  V30 6596 H 594.162 -2.23571 2.05547 0
M  V30 6597 H 591.747 -1.05428 1.05855 0
M  V30 6598 H 593.629 -4.17711 0.556396 0
M  V30 6599 H 592.304 -3.23218 -0.176582 0
M  V30 6600 H 591.211 -3.07182 2.13518 0
M  V30 6601 H 592.544 -4.05277 2.79305 0
M  V30 6602 N 594.196 -1.08629 -1.14182 0
M  V30 6603 C 595.612 -0.814363 -1.3726 0
M  V30 6604 C 595.812 0.575271 -1.93114 0
M  V30 6605 O 594.868 1.33165 -2.1453 0
M  V30 6606 C 596.181 -1.8989 -2.33157 0
M  V30 6607 C 597.729 -1.92518 -2.46791 0
M  V30 6608 C 598.204 -3.00092 -3.45989 0
M  V30 6609 N 599.695 -2.99279 -3.53534 0
M  V30 6610 C 600.43 -3.79158 -4.30147 0
M  V30 6611 N 599.926 -4.68923 -5.09983 0
M  V30 6612 N 601.719 -3.67451 -4.25366 0
M  V30 6613 H 593.87 -1.98232 -0.762758 0
M  V30 6614 H 596.133 -0.860383 -0.398051 0
M  V30 6615 H 595.839 -2.89809 -1.99257 0
M  V30 6616 H 595.713 -1.77013 -3.33086 0
M  V30 6617 H 598.1 -0.932425 -2.79982 0
M  V30 6618 H 598.181 -2.09473 -1.46816 0
M  V30 6619 H 597.825 -3.99575 -3.13532 0
M  V30 6620 H 597.755 -2.80382 -4.45751 0
M  V30 6621 H 600.246 -2.3422 -2.96563 0
M  V30 6622 H 600.559 -5.26475 -5.65724 0
M  V30 6623 H 598.904 -4.72964 -5.09244 0
M  V30 6624 H 602.095 -2.9669 -3.62067 0
M  V30 6625 H 602.268 -4.29944 -4.84822 0
M  V30 6626 N 595.674 1.31259 -0.872281 0
M  V30 6627 C 596.606 2.27396 -0.28697 0
M  V30 6628 C 597.619 1.53181 0.551297 0
M  V30 6629 O 598.808 1.74561 0.372914 0
M  V30 6630 C 595.908 3.33335 0.611617 0
M  V30 6631 C 595.081 4.36966 -0.194729 0
M  V30 6632 C 594.14 5.22387 0.632358 0
M  V30 6633 O 593.166 5.69169 0.0595691 0
M  V30 6634 N 594.368 5.46985 1.94391 0
M  V30 6635 H 597.133 2.78261 -1.11314 0
M  V30 6636 H 594.694 1.44306 -0.733994 0
M  V30 6637 H 596.686 3.87398 1.17068 0
M  V30 6638 H 595.256 2.82496 1.33846 0
M  V30 6639 H 594.476 3.82945 -0.935241 0
M  V30 6640 H 595.764 5.03273 -0.747935 0
M  V30 6641 H 595.162 5.10737 2.43237 0
M  V30 6642 H 593.719 6.03973 2.45071 0
M  V30 6643 N 597.152 0.631951 1.44375 0
M  V30 6644 C 598.429 0.067646 1.95483 0
M  V30 6645 C 598.809 -1.40683 1.57389 0
M  V30 6646 O 598.157 -2.12167 0.848375 0
M  V30 6647 C 598.367 0.291392 3.47781 0
M  V30 6648 C 599.715 0.185028 4.24197 0
M  V30 6649 O 600.739 0.222803 3.55503 0
M  V30 6650 O 599.598 0.0906642 5.46425 0
M  V30 6651 H 596.692 -0.0218379 0.826712 0
M  V30 6652 H 599.238 0.703711 1.54421 0
M  V30 6653 H 598.01 1.31449 3.68561 0
M  V30 6654 H 597.633 -0.378772 3.95792 0
M  V30 6655 N 598.631 -1.53133 0.372548 0
M  V30 6656 C 599.578 -2.25951 -0.470631 0
M  V30 6657 C 600.548 -1.26895 -1.07176 0
M  V30 6658 O 601.733 -1.55691 -1.10294 0
M  V30 6659 C 598.873 -3.05726 -1.6008 0
M  V30 6660 C 597.986 -4.19684 -1.02416 0
M  V30 6661 C 597.121 -4.86888 -2.124 0
M  V30 6662 C 596.16 -5.92866 -1.52238 0
M  V30 6663 N 595.297 -6.53732 -2.56084 0
M  V30 6664 H 600.137 -2.97587 0.156816 0
M  V30 6665 H 597.674 -1.4683 0.0891571 0
M  V30 6666 H 599.632 -3.50258 -2.26661 0
M  V30 6667 H 598.262 -2.36331 -2.1988 0
M  V30 6668 H 597.314 -3.79588 -0.248426 0
M  V30 6669 H 598.626 -4.95821 -0.544366 0
M  V30 6670 H 597.78 -5.34638 -2.86787 0
M  V30 6671 H 596.519 -4.10239 -2.63734 0
M  V30 6672 H 595.524 -5.4447 -0.763685 0
M  V30 6673 H 596.749 -6.71439 -1.0172 0
M  V30 6674 H 594.695 -5.79932 -3.06618 0
M  V30 6675 H 594.612 -7.25429 -2.12811 0
M  V30 6676 H 595.88 -7.0613 -3.30152 0
M  V30 6677 N 600.109 -0.101901 -1.5727 0
M  V30 6678 C 601.358 0.559922 -1.93772 0
M  V30 6679 C 601.671 1.68913 -0.98629 0
M  V30 6680 O 602.877 2.41256 -1.24529 0
M  V30 6681 C 601.333 1.04739 -3.44322 0
M  V30 6682 C 600.941 -0.05243 -4.47969 0
M  V30 6683 C 602.685 1.68157 -3.89774 0
M  V30 6684 C 600.592 0.450781 -5.8968 0
M  V30 6685 H 599.522 0.212931 -0.723309 0
M  V30 6686 H 602.173 -0.179001 -1.82625 0
M  V30 6687 H 600.555 1.84021 -3.50645 0
M  V30 6688 H 601.729 -0.828157 -4.53297 0
M  V30 6689 H 600.044 -0.592202 -4.12167 0
M  V30 6690 H 602.641 2.0689 -4.93052 0
M  V30 6691 H 602.984 2.55338 -3.28798 0
M  V30 6692 H 603.517 0.954453 -3.8618 0
M  V30 6693 H 600.256 -0.38458 -6.54371 0
M  V30 6694 H 599.776 1.19336 -5.87809 0
M  V30 6695 H 601.455 0.917555 -6.40461 0
M  V30 6696 N 601.587 1.56661 0.17182 0
M  V30 6697 C 602.833 1.82235 0.889845 0
M  V30 6698 C 603.166 0.679673 1.81918 0
M  V30 6699 O 602.441 -0.318404 1.91876 0
M  V30 6700 C 602.724 3.18195 1.68595 0
M  V30 6701 C 602.577 4.42989 0.779773 0
M  V30 6702 C 603.896 3.5109 2.65375 0
M  V30 6703 H 601.015 0.66291 0.322056 0
M  V30 6704 H 603.657 1.89358 0.15608 0
M  V30 6705 H 601.807 3.12253 2.3115 0
M  V30 6706 H 603.479 4.60997 0.16714 0
M  V30 6707 H 601.722 4.33711 0.0877964 0
M  V30 6708 H 602.393 5.3467 1.3723 0
M  V30 6709 H 604.869 3.57482 2.12946 0
M  V30 6710 H 603.745 4.47298 3.18144 0
M  V30 6711 H 604.006 2.75768 3.45549 0
M  V30 6712 N 603.065 -0.440357 1.51323 0
M  V30 6713 C 604.311 -1.19181 1.64085 0
M  V30 6714 C 604.644 -1.90936 0.354575 0
M  V30 6715 O 603.919 -1.8347 -0.645675 0
M  V30 6716 C 604.202 -2.2112 2.84215 0
M  V30 6717 C 604.055 -1.53468 4.22809 0
M  V30 6718 C 605.374 -3.22133 2.99864 0
M  V30 6719 H 602.493 -0.431924 0.597169 0
M  V30 6720 H 605.135 -0.481443 1.83799 0
M  V30 6721 H 603.285 -2.81703 2.67537 0
M  V30 6722 H 604.957 -0.962455 4.51148 0
M  V30 6723 H 603.2 -0.837086 4.25647 0
M  V30 6724 H 603.871 -2.27694 5.02852 0
M  V30 6725 H 606.347 -2.71601 3.15233 0
M  V30 6726 H 605.223 -3.90756 3.85488 0
M  V30 6727 H 605.484 -3.88061 2.11804 0
M  V30 6728 N 604.543 -1.41418 -0.695603 0
M  V30 6729 C 605.493 -1.39731 -1.80165 0
M  V30 6730 C 606.477 -0.271689 -1.5859 0
M  V30 6731 O 607.669 -0.512354 -1.69422 0
M  V30 6732 C 604.798 -1.28187 -3.1847 0
M  V30 6733 C 603.884 -2.45612 -3.45739 0
M  V30 6734 N 604.275 -3.71077 -3.43708 0
M  V30 6735 C 602.573 -2.39424 -3.76288 0
M  V30 6736 C 603.274 -4.48957 -3.69882 0
M  V30 6737 N 602.25 -3.7907 -3.89624 0
M  V30 6738 H 606.052 -2.34656 -1.76957 0
M  V30 6739 H 603.566 -1.35473 -0.89559 0
M  V30 6740 H 605.563 -1.2506 -3.977 0
M  V30 6741 H 604.223 -0.342468 -3.22889 0
M  V30 6742 H 605.234 -4.03963 -3.2409 0
M  V30 6743 H 601.911 -1.53955 -3.88077 0
M  V30 6744 H 603.301 -5.57887 -3.74448 0
M  V30 6745 N 606.021 0.929856 -1.27246 0
M  V30 6746 C 606.951 2.04722 -1.12299 0
M  V30 6747 C 607.932 1.70082 -0.0250464 0
M  V30 6748 O 609.117 1.93176 -0.199141 0
M  V30 6749 C 606.247 3.38721 -0.767145 0
M  V30 6750 C 605.201 3.87466 -1.81808 0
M  V30 6751 C 604.527 5.18246 -1.31626 0
M  V30 6752 C 605.827 4.11095 -3.22177 0
M  V30 6753 H 607.521 2.17485 -2.05769 0
M  V30 6754 H 605.067 1.04503 -0.990715 0
M  V30 6755 H 607.02 4.16366 -0.649413 0
M  V30 6756 H 605.744 3.25967 0.203259 0
M  V30 6757 H 604.403 3.12012 -1.92468 0
M  V30 6758 H 604.051 5.01881 -0.335378 0
M  V30 6759 H 603.751 5.51829 -2.01887 0
M  V30 6760 H 605.275 5.98462 -1.21143 0
M  V30 6761 H 606.689 4.79316 -3.1453 0
M  V30 6762 H 605.086 4.55982 -3.90129 0
M  V30 6763 H 606.156 3.16468 -3.67391 0
M  V30 6764 N 607.499 1.09233 1.13605 0
M  V30 6765 C 608.747 0.825525 1.84471 0
M  V30 6766 C 609.068 -0.650702 1.83823 0
M  V30 6767 O 608.338 -1.47204 1.29259 0
M  V30 6768 H 606.918 0.3024 0.683054 0
M  V30 6769 H 609.58 1.38006 1.37624 0
M  V30 6770 H 608.676 1.17727 2.89045 0
M  V30 6771 N 608.977 -1.30795 0.87923 0
M  V30 6772 C 609.907 -2.30742 0.357796 0
M  V30 6773 C 610.888 -1.60747 -0.556283 0
M  V30 6774 O 612.073 -1.88393 -0.47135 0
M  V30 6775 C 609.203 -3.44583 -0.433555 0
M  V30 6776 C 608.157 -4.26235 0.388251 0
M  V30 6777 C 607.483 -5.32073 -0.529352 0
M  V30 6778 C 608.783 -4.96303 1.62729 0
M  V30 6779 H 610.477 -2.74605 1.19299 0
M  V30 6780 H 608.023 -1.32017 0.575104 0
M  V30 6781 H 609.976 -4.13563 -0.808934 0
M  V30 6782 H 608.7 -2.99511 -1.30234 0
M  V30 6783 H 607.359 -3.58936 0.745695 0
M  V30 6784 H 607.007 -4.83249 -1.39569 0
M  V30 6785 H 606.707 -5.87598 0.0166741 0
M  V30 6786 H 608.231 -6.0391 -0.901373 0
M  V30 6787 H 609.645 -5.5783 1.32283 0
M  V30 6788 H 608.042 -5.61666 2.11309 0
M  V30 6789 H 609.112 -4.22758 2.37494 0
M  V30 6790 N 610.455 -0.639598 -1.44038 0
M  V30 6791 C 611.68 -0.153117 -2.06834 0
M  V30 6792 C 612.105 1.16676 -1.47541 0
M  V30 6793 O 611.463 1.71769 -0.580093 0
M  V30 6794 C 611.511 -0.0609169 -3.60549 0
M  V30 6795 O 610.615 0.98071 -4.00569 0
M  V30 6796 H 609.956 -0.0886402 -0.658057 0
M  V30 6797 H 612.486 -0.878674 -1.84771 0
M  V30 6798 H 612.496 0.126892 -4.07803 0
M  V30 6799 H 611.171 -1.0245 -4.03084 0
M  V30 6800 H 609.748 0.766789 -3.64931 0
M  V30 6801 N 611.933 1.52934 -0.380664 0
M  V30 6802 C 613.181 2.01069 0.203874 0
M  V30 6803 C 613.502 1.26922 1.4804 0
M  V30 6804 O 612.772 0.386787 1.92044 0
M  V30 6805 H 611.352 0.742882 0.0783279 0
M  V30 6806 H 614.014 1.88099 -0.510368 0
M  V30 6807 H 613.11 3.09258 0.42021 0
M  V30 6808 N 613.412 0.11024 1.57214 0
M  V30 6809 C 614.322 -0.857077 2.18383 0
M  V30 6810 C 615.338 -1.29915 1.1575 0
M  V30 6811 O 616.514 -1.36394 1.48184 0
M  V30 6812 C 613.579 -2.09264 2.76423 0
M  V30 6813 C 612.64 -1.70333 3.94063 0
M  V30 6814 C 611.873 -2.87999 4.49324 0
M  V30 6815 O 612.096 -4.0317 4.03497 0
M  V30 6816 O 611.03 -2.6559 5.40135 0
M  V30 6817 H 614.856 -0.366561 3.0148 0
M  V30 6818 H 612.441 -0.114914 1.48957 0
M  V30 6819 H 614.323 -2.81644 3.13456 0
M  V30 6820 H 612.998 -2.57339 1.96363 0
M  V30 6821 H 611.905 -0.950864 3.61814 0
M  V30 6822 H 613.238 -1.27007 4.75531 0
M  V30 6823 N 614.89 -1.56749 -0.16351 0
M  V30 6824 C 615.853 -1.96121 -1.18613 0
M  V30 6825 C 616.853 -0.845765 -1.36761 0
M  V30 6826 O 618.043 -1.11268 -1.34033 0
M  V30 6827 C 615.175 -2.26282 -2.54969 0
M  V30 6828 H 616.368 -2.87639 -0.848764 0
M  V30 6829 H 613.921 -1.50928 -0.406251 0
M  V30 6830 H 614.656 -1.37504 -2.93706 0
M  V30 6831 H 614.441 -3.07595 -2.43162 0
M  V30 6832 H 615.931 -2.57638 -3.28653 0
M  V30 6833 N 616.368 0.432326 -1.51554 0
M  V30 6834 C 617.316 1.54572 -1.73811 0
M  V30 6835 C 618.31 1.58246 -0.604539 0
M  V30 6836 O 619.516 1.6193 -0.786041 0
M  V30 6837 H 615.891 0.513626 -0.549265 0
M  V30 6838 H 617.862 1.32977 -2.67132 0
M  V30 6839 C 616.611 2.92181 -1.88483 0
M  V30 6840 H 615.934 2.90088 -2.75116 0
M  V30 6841 H 617.374 3.69439 -2.08065 0
M  V30 6842 C 615.833 3.3065 -0.645909 0
M  V30 6843 O 616.363 4.01216 0.197093 0
M  V30 6844 N 614.569 2.86464 -0.488538 0
M  V30 6845 H 614.116 2.29209 -1.17562 0
M  V30 6846 H 614.074 3.12565 0.339156 0
M  V30 6847 N 617.846 1.41785 0.688094 0
M  V30 6848 C 618.809 1.43936 1.78368 0
M  V30 6849 C 619.809 0.328866 1.57401 0
M  V30 6850 O 620.999 0.589093 1.63937 0
M  V30 6851 C 618.131 1.25804 3.16838 0
M  V30 6852 H 619.324 2.41472 1.77852 0
M  V30 6853 H 616.877 1.28037 0.896448 0
M  V30 6854 H 617.612 0.291386 3.22988 0
M  V30 6855 H 617.397 2.06272 3.33458 0
M  V30 6856 H 618.887 1.30162 3.96797 0
M  V30 6857 N 619.324 -0.923095 1.27737 0
M  V30 6858 C 620.287 -2.00587 1.10894 0
M  V30 6859 C 621.287 -1.60718 0.0514927 0
M  V30 6860 O 622.477 -1.71658 0.296481 0
M  V30 6861 C 619.609 -3.33829 0.690717 0
M  V30 6862 H 620.802 -2.16959 2.07048 0
M  V30 6863 H 618.355 -1.10451 1.1059 0
M  V30 6864 H 619.09 -3.23157 -0.272 0
M  V30 6865 H 618.875 -3.64125 1.45448 0
M  V30 6866 H 620.365 -4.13336 0.595252 0
M  V30 6867 N 620.802 -1.09834 -1.13024 0
M  V30 6868 C 622.218 -0.828875 -1.36388 0
M  V30 6869 C 622.418 0.554756 -1.93713 0
M  V30 6870 O 621.474 1.30882 -2.15931 0
M  V30 6871 C 622.787 -1.92352 -2.3113 0
M  V30 6872 C 624.335 -1.95124 -2.44735 0
M  V30 6873 C 624.81 -3.03745 -3.42787 0
M  V30 6874 N 626.301 -3.03012 -3.5034 0
M  V30 6875 C 627.036 -3.83699 -4.26101 0
M  V30 6876 N 626.532 -4.74306 -5.04981 0
M  V30 6877 N 628.325 -3.71942 -4.21445 0
M  V30 6878 H 620.476 -1.99029 -0.74169 0
M  V30 6879 H 622.739 -0.864557 -0.388903 0
M  V30 6880 H 622.445 -2.91906 -1.96172 0
M  V30 6881 H 622.319 -1.80536 -3.3119 0
M  V30 6882 H 624.706 -0.962069 -2.78977 0
M  V30 6883 H 624.787 -2.11018 -1.44586 0
M  V30 6884 H 624.431 -4.02878 -3.09276 0
M  V30 6885 H 624.361 -2.85094 -4.42752 0
M  V30 6886 H 626.852 -2.37352 -2.94062 0
M  V30 6887 H 627.165 -5.32446 -5.60108 0
M  V30 6888 H 625.51 -4.78339 -5.04199 0
M  V30 6889 H 628.701 -3.00513 -3.589 0
M  V30 6890 H 628.874 -4.35062 -4.80235 0
M  V30 6891 N 622.28 1.30327 -0.886154 0
M  V30 6892 C 623.227 2.28099 -0.352069 0
M  V30 6893 C 624.197 1.56433 0.558397 0
M  V30 6894 O 625.382 1.84492 0.486561 0
M  V30 6895 C 622.522 3.42456 0.426346 0
M  V30 6896 C 621.635 4.28938 -0.513472 0
M  V30 6897 C 620.77 5.30458 0.280657 0
M  V30 6898 C 619.809 6.0859 -0.654556 0
M  V30 6899 N 618.946 7.02022 0.104322 0
M  V30 6900 H 623.786 2.73166 -1.19097 0
M  V30 6901 H 621.323 1.34367 -0.598662 0
M  V30 6902 H 623.281 4.07518 0.893587 0
M  V30 6903 H 621.911 2.98455 1.22981 0
M  V30 6904 H 620.963 3.64173 -1.09921 0
M  V30 6905 H 622.275 4.83399 -1.2299 0
M  V30 6906 H 621.429 6.01273 0.8097 0
M  V30 6907 H 620.168 4.76693 1.03029 0
M  V30 6908 H 619.173 5.36651 -1.19522 0
M  V30 6909 H 620.398 6.64443 -1.4033 0
M  V30 6910 H 618.344 6.50645 0.836472 0
M  V30 6911 H 618.261 7.53979 -0.552453 0
M  V30 6912 H 619.529 7.77077 0.614069 0
M  V30 6913 N 623.758 0.647228 1.43697 0
M  V30 6914 C 624.705 -0.0480092 2.3075 0
M  V30 6915 C 625.675 -0.820705 1.44408 0
M  V30 6916 O 626.86 -0.798515 1.73287 0
M  V30 6917 C 624 -1.01259 3.2991 0
M  V30 6918 C 623.113 -0.236629 4.31351 0
M  V30 6919 C 622.248 -1.19447 5.17596 0
M  V30 6920 C 621.287 -0.408595 6.10735 0
M  V30 6921 N 620.424 -1.31772 6.89623 0
M  V30 6922 H 625.264 0.700238 2.89656 0
M  V30 6923 H 622.801 0.357082 1.427 0
M  V30 6924 H 624.759 -1.58538 3.85903 0
M  V30 6925 H 623.389 -1.72778 2.72667 0
M  V30 6926 H 622.441 0.452353 3.77701 0
M  V30 6927 H 623.753 0.374731 4.9739 0
M  V30 6928 H 622.907 -1.83809 5.78186 0
M  V30 6929 H 621.646 -1.83975 4.51669 0
M  V30 6930 H 620.651 0.24841 5.49239 0
M  V30 6931 H 621.876 0.232188 6.78703 0
M  V30 6932 H 619.822 -1.94991 6.2635 0
M  V30 6933 H 619.739 -0.760779 7.52162 0
M  V30 6934 H 621.007 -1.94967 7.54724 0
M  V30 6935 N 625.236 -1.5273 0.388769 0
M  V30 6936 C 626.484 -2.01174 -0.193208 0
M  V30 6937 C 626.805 -1.27705 -1.47365 0
M  V30 6938 O 626.075 -0.396966 -1.91836 0
M  V30 6939 H 624.655 -0.743287 -0.0743871 0
M  V30 6940 H 627.317 -1.87826 0.520336 0
M  V30 6941 H 626.413 -3.09477 -0.403803 0
M  V30 6942 N 626.714 -0.118576 -1.57153 0
M  V30 6943 C 627.644 0.828436 -2.1831 0
M  V30 6944 C 628.625 1.27758 -1.12303 0
M  V30 6945 O 629.81 1.34026 -1.40537 0
M  V30 6946 C 626.94 2.07876 -2.78217 0
M  V30 6947 C 625.894 1.76742 -3.89803 0
M  V30 6948 C 625.22 3.08801 -4.36516 0
M  V30 6949 C 626.52 1.03606 -5.11921 0
M  V30 6950 H 628.214 0.318824 -2.97698 0
M  V30 6951 H 625.76 0.151911 -1.43196 0
M  V30 6952 H 627.713 2.74584 -3.19659 0
M  V30 6953 H 626.437 2.61161 -1.96118 0
M  V30 6954 H 625.096 1.12424 -3.48936 0
M  V30 6955 H 624.744 3.6002 -3.51276 0
M  V30 6956 H 624.444 2.88743 -5.11763 0
M  V30 6957 H 625.968 3.76627 -4.80608 0
M  V30 6958 H 627.382 1.60467 -5.50385 0
M  V30 6959 H 625.779 0.936454 -5.92748 0
M  V30 6960 H 626.849 0.0227421 -4.84895 0
M  V30 6961 N 628.193 1.56834 0.155195 0
M  V30 6962 C 629.123 2.00678 1.19376 0
M  V30 6963 C 630.104 0.884973 1.45266 0
M  V30 6964 O 631.289 1.1522 1.56326 0
M  V30 6965 C 628.419 2.38042 2.5289 0
M  V30 6966 C 627.373 3.53332 2.41538 0
M  V30 6967 C 626.699 3.76485 3.79688 0
M  V30 6968 C 627.999 4.86265 1.9064 0
M  V30 6969 H 629.693 2.87688 0.829232 0
M  V30 6970 H 627.239 1.38407 0.397445 0
M  V30 6971 H 629.192 2.67314 3.25763 0
M  V30 6972 H 627.916 1.4796 2.91162 0
M  V30 6973 H 626.575 3.24213 1.71117 0
M  V30 6974 H 626.223 2.83667 4.15382 0
M  V30 6975 H 625.923 4.54068 3.72956 0
M  V30 6976 H 627.447 4.08174 4.54122 0
M  V30 6977 H 628.861 5.14308 2.53299 0
M  V30 6978 H 627.258 5.67597 1.94818 0
M  V30 6979 H 628.328 4.77184 0.861596 0
M  V30 6980 N 629.671 -0.424282 1.51781 0
M  V30 6981 C 630.618 -1.51591 1.74037 0
M  V30 6982 C 631.588 -1.55556 0.582358 0
M  V30 6983 O 632.773 -1.72364 0.818245 0
M  V30 6984 C 629.913 -2.89188 1.8832 0
M  V30 6985 C 629.026 -2.9465 3.1592 0
M  V30 6986 C 628.161 -4.23452 3.20721 0
M  V30 6987 C 627.2 -4.22831 4.42584 0
M  V30 6988 N 626.337 -5.43178 4.44862 0
M  V30 6989 H 631.177 -1.31917 2.67212 0
M  V30 6990 H 628.714 -0.640599 1.32419 0
M  V30 6991 H 630.672 -3.69044 1.94583 0
M  V30 6992 H 629.302 -3.07392 0.985402 0
M  V30 6993 H 628.354 -2.07378 3.18902 0
M  V30 6994 H 629.666 -2.90055 4.05795 0
M  V30 6995 H 628.82 -5.1169 3.25973 0
M  V30 6996 H 627.559 -4.30722 2.28757 0
M  V30 6997 H 626.564 -3.32984 4.37495 0
M  V30 6998 H 627.789 -4.17213 5.35826 0
M  V30 6999 H 625.735 -5.51145 3.55775 0
M  V30 7000 H 625.652 -5.40515 5.28563 0
M  V30 7001 H 626.92 -6.33412 4.54324 0
M  V30 7002 N 631.149 -1.42148 -0.680565 0
M  V30 7003 C 632.397 -1.42029 -1.43779 0
M  V30 7004 C 632.718 -0.0356347 -1.94967 0
M  V30 7005 O 631.988 0.924936 -1.7269 0
M  V30 7006 H 630.568 -0.522835 -0.533529 0
M  V30 7007 H 633.23 -1.7752 -0.804538 0
M  V30 7008 H 632.326 -2.11658 -2.29363 0
M  V30 7009 N 632.627 0.916307 -1.28225 0
M  V30 7010 C 633.559 2.02303 -1.07732 0
M  V30 7011 C 634.572 1.62773 -0.0298421 0
M  V30 7012 O 635.761 1.76406 -0.272626 0
M  V30 7013 C 632.861 3.33282 -0.614504 0
M  V30 7014 C 632.034 4.01439 -1.73682 0
M  V30 7015 C 631.093 5.10698 -1.26781 0
M  V30 7016 O 630.119 5.34038 -1.96958 0
M  V30 7017 N 631.321 5.80355 -0.129624 0
M  V30 7018 H 634.086 2.20442 -2.03041 0
M  V30 7019 H 631.647 1.08744 -1.19943 0
M  V30 7020 H 633.639 4.03699 -0.284397 0
M  V30 7021 H 632.209 3.11633 0.245664 0
M  V30 7022 H 631.429 3.24604 -2.23665 0
M  V30 7023 H 632.717 4.43721 -2.48976 0
M  V30 7024 H 632.115 5.6386 0.455847 0
M  V30 7025 H 630.672 6.51647 0.141224 0
M  V30 7026 N 634.105 1.10431 1.1244 0
M  V30 7027 C 635.333 0.868872 1.87772 0
M  V30 7028 C 635.748 -0.580645 1.7965 0
M  V30 7029 O 635.105 -1.40031 1.17036 0
M  V30 7030 C 635.156 1.30855 3.36986 0
M  V30 7031 O 634.877 2.70123 3.44914 0
M  V30 7032 C 636.378 1.107 4.29256 0
M  V30 7033 H 633.598 0.311868 0.59412 0
M  V30 7034 H 636.142 1.46897 1.42273 0
M  V30 7035 H 634.297 0.752126 3.80029 0
M  V30 7036 H 634.711 2.88923 4.37748 0
M  V30 7037 H 636.185 1.46378 5.32238 0
M  V30 7038 H 636.662 0.0456228 4.39176 0
M  V30 7039 H 637.268 1.64988 3.91994 0
M  V30 7040 N 635.583 -1.29855 0.893053 0
M  V30 7041 C 636.831 -1.9544 0.514566 0
M  V30 7042 C 637.152 -1.70795 -0.940959 0
M  V30 7043 O 636.422 -1.03601 -1.66264 0
M  V30 7044 H 635.002 -0.723137 0.187302 0
M  V30 7045 H 637.664 -1.58234 1.13789 0
M  V30 7046 H 636.76 -3.04341 0.691581 0
M  V30 7047 N 637.061 -0.65484 -1.43351 0
M  V30 7048 C 638.308 -0.168892 -2.01794 0
M  V30 7049 C 638.636 1.2177 -1.51665 0
M  V30 7050 O 637.891 1.82717 -0.70092 0
M  V30 7051 C 638.19 -0.130424 -3.57162 0
M  V30 7052 C 637.856 -1.45898 -4.26643 0
M  V30 7053 C 636.518 -1.82279 -4.4534 0
M  V30 7054 C 638.87 -2.33485 -4.65976 0
M  V30 7055 C 636.198 -3.0591 -5.00635 0
M  V30 7056 C 638.55 -3.5641 -5.22642 0
M  V30 7057 C 637.214 -3.92985 -5.39555 0
M  V30 7058 H 636.484 -0.061802 -0.738418 0
M  V30 7059 H 639.131 -0.845869 -1.71806 0
M  V30 7060 H 637.436 0.630008 -3.86702 0
M  V30 7061 H 639.133 0.262465 -4.0014 0
M  V30 7062 H 635.723 -1.16591 -4.12437 0
M  V30 7063 H 639.907 -2.06668 -4.51223 0
M  V30 7064 H 635.163 -3.34295 -5.11915 0
M  V30 7065 H 639.337 -4.24495 -5.52066 0
M  V30 7066 H 636.964 -4.88862 -5.82167 0
M  V30 7067 N 638.539 1.52521 -0.396863 0
M  V30 7068 C 639.955 1.5953 -0.0471659 0
M  V30 7069 C 640.155 1.41044 1.43906 0
M  V30 7070 O 639.211 1.23122 2.20448 0
M  V30 7071 C 640.524 2.95972 -0.531113 0
M  V30 7072 C 642.072 3.09172 -0.488024 0
M  V30 7073 C 642.547 4.48075 -0.948281 0
M  V30 7074 N 644.038 4.54281 -0.9046 0
M  V30 7075 C 644.773 5.60007 -1.23205 0
M  V30 7076 N 644.269 6.73343 -1.63036 0
M  V30 7077 N 646.062 5.50151 -1.15282 0
M  V30 7078 H 638.213 1.62786 -1.36435 0
M  V30 7079 H 640.476 0.76514 -0.559701 0
M  V30 7080 H 640.182 3.14741 -1.56942 0
M  V30 7081 H 640.056 3.77143 0.0657922 0
M  V30 7082 H 642.443 2.90095 0.541211 0
M  V30 7083 H 642.524 2.29937 -1.12083 0
M  V30 7084 H 642.168 4.67894 -1.97578 0
M  V30 7085 H 642.098 5.25788 -0.292412 0
M  V30 7086 H 644.589 3.72918 -0.6116 0
M  V30 7087 H 644.902 7.49992 -1.86365 0
M  V30 7088 H 643.247 6.74655 -1.66929 0
M  V30 7089 H 646.438 4.6049 -0.840602 0
M  V30 7090 H 646.611 6.32444 -1.41133 0
M  V30 7091 N 640.017 0.126909 1.57088 0
M  V30 7092 C 641.266 -0.529024 1.94639 0
M  V30 7093 C 641.579 -1.67323 1.01304 0
M  V30 7094 O 642.785 -2.39245 1.28352 0
M  V30 7095 C 641.241 -0.992483 3.45945 0
M  V30 7096 C 640.849 0.123691 4.47829 0
M  V30 7097 C 642.593 -1.61934 3.924 0
M  V30 7098 C 640.5 -0.356911 5.90322 0
M  V30 7099 H 639.43 -0.201397 0.726605 0
M  V30 7100 H 642.081 0.208032 1.82317 0
M  V30 7101 H 640.463 -1.7842 3.53528 0
M  V30 7102 H 641.637 0.900168 4.51922 0
M  V30 7103 H 639.952 0.657699 4.11173 0
M  V30 7104 H 642.549 -1.9902 4.96281 0
M  V30 7105 H 642.892 -2.50075 3.32819 0
M  V30 7106 H 643.425 -0.892894 3.8765 0
M  V30 7107 H 640.164 0.488636 6.53676 0
M  V30 7108 H 639.684 -1.0997 5.89633 0
M  V30 7109 H 641.363 -0.815547 6.41839 0
M  V30 7110 N 641.495 -1.56914 -0.146875 0
M  V30 7111 C 642.742 -1.83356 -0.859467 0
M  V30 7112 C 643.07 -0.707811 -1.81164 0
M  V30 7113 O 642.325 0.303155 -1.93338 0
M  V30 7114 C 642.624 -3.16128 -1.66727 0
M  V30 7115 C 642.29 -4.42586 -0.861881 0
M  V30 7116 C 640.952 -4.76929 -0.639687 0
M  V30 7117 C 643.304 -5.20344 -0.298643 0
M  V30 7118 C 640.632 -5.86491 0.156451 0
M  V30 7119 C 642.984 -6.30742 0.484536 0
M  V30 7120 C 641.648 -6.63635 0.717306 0
M  V30 7121 H 640.918 -0.670947 -0.314501 0
M  V30 7122 H 643.565 -1.91104 -0.123108 0
M  V30 7123 H 641.87 -3.03831 -2.47374 0
M  V30 7124 H 643.567 -3.33802 -2.2221 0
M  V30 7125 H 640.157 -4.15662 -1.04513 0
M  V30 7126 H 644.341 -4.94186 -0.457585 0
M  V30 7127 H 639.597 -6.10419 0.346292 0
M  V30 7128 H 643.771 -6.90188 0.928105 0
M  V30 7129 H 641.398 -7.48367 1.33607 0
M  V30 7130 N 642.974 0.416227 -1.52004 0
M  V30 7131 C 643.906 1.52552 -1.71058 0
M  V30 7132 C 644.919 1.51693 -0.59102 0
M  V30 7133 O 646.108 1.56087 -0.865973 0
M  V30 7134 C 643.208 2.91455 -1.72937 0
M  V30 7135 C 642.381 3.16584 -3.01816 0
M  V30 7136 C 641.44 4.35322 -2.95603 0
M  V30 7137 O 640.466 4.32947 -3.6952 0
M  V30 7138 N 641.668 5.40049 -2.12903 0
M  V30 7139 H 644.433 1.36604 -2.66757 0
M  V30 7140 H 641.994 0.60544 -1.50153 0
M  V30 7141 H 643.986 3.68944 -1.66321 0
M  V30 7142 H 642.556 3.00895 -0.847418 0
M  V30 7143 H 641.776 2.27203 -3.22137 0
M  V30 7144 H 643.064 3.30213 -3.87088 0
M  V30 7145 H 642.462 5.44823 -1.52265 0
M  V30 7146 H 641.019 6.16308 -2.1215 0
M  V30 7147 N 644.452 1.42507 0.673017 0
M  V30 7148 C 645.4 1.46362 1.80779 0
M  V30 7149 C 646.394 0.339166 1.6597 0
M  V30 7150 O 647.6 0.512262 1.72557 0
M  V30 7151 H 643.975 0.458433 0.596107 0
M  V30 7152 H 645.946 2.41953 1.74646 0
M  V30 7153 C 644.695 1.38462 3.18941 0
M  V30 7154 H 644.018 2.24283 3.30964 0
M  V30 7155 H 645.458 1.45221 3.98355 0
M  V30 7156 C 643.917 0.0996354 3.36753 0
M  V30 7157 O 644.447 -0.846894 3.92671 0
M  V30 7158 N 642.653 0.016211 2.90595 0
M  V30 7159 H 642.2 0.78725 2.45276 0
M  V30 7160 H 642.158 -0.84291 3.0289 0
M  V30 7161 N 645.93 -0.909495 1.28709 0
M  V30 7162 C 647.158 -1.69272 1.18973 0
M  V30 7163 C 647.573 -1.87123 -0.251048 0
M  V30 7164 O 646.93 -1.40127 -1.16922 0
M  V30 7165 C 646.981 -3.08257 1.88839 0
M  V30 7166 O 646.702 -2.91228 3.27289 0
M  V30 7167 C 648.203 -4.02642 1.85457 0
M  V30 7168 H 645.423 -0.528999 0.412797 0
M  V30 7169 H 647.967 -1.13803 1.69909 0
M  V30 7170 H 646.122 -3.6053 1.41762 0
M  V30 7171 H 646.536 -3.79223 3.6234 0
M  V30 7172 H 648.01 -4.97613 2.38925 0
M  V30 7173 H 648.487 -4.31327 0.827893 0
M  V30 7174 H 649.093 -3.56298 2.32233 0
M  V30 7175 N 647.408 -1.11026 -1.11852 0
M  V30 7176 C 648.358 -0.733836 -2.15868 0
M  V30 7177 C 649.342 0.26001 -1.58785 0
M  V30 7178 O 650.534 0.0677901 -1.7687 0
M  V30 7179 C 647.663 -0.173948 -3.42859 0
M  V30 7180 C 646.749 -1.1952 -4.0691 0
M  V30 7181 N 647.14 -2.38797 -4.45881 0
M  V30 7182 C 645.438 -1.03714 -4.33773 0
M  V30 7183 C 646.139 -3.03894 -4.96007 0
M  V30 7184 N 645.115 -2.31389 -4.91894 0
M  V30 7185 H 648.917 -1.64171 -2.43773 0
M  V30 7186 H 646.431 -0.988877 -1.28822 0
M  V30 7187 H 648.428 0.113836 -4.16745 0
M  V30 7188 H 647.088 0.728568 -3.16421 0
M  V30 7189 H 648.099 -2.76281 -4.38051 0
M  V30 7190 H 644.776 -0.190694 -4.17064 0
M  V30 7191 H 646.166 -4.05389 -5.35826 0
M  V30 7192 N 648.886 1.2938 -0.899927 0
M  V30 7193 C 649.849 2.25983 -0.382677 0
M  V30 7194 C 650.849 1.53366 0.483259 0
M  V30 7195 O 652.039 1.71798 0.28828 0
M  V30 7196 C 649.171 3.37878 0.452915 0
M  V30 7197 H 650.364 2.73252 -1.23586 0
M  V30 7198 H 647.917 1.40825 -0.678088 0
M  V30 7199 H 648.652 2.95949 1.32608 0
M  V30 7200 H 648.437 3.91742 -0.167562 0
M  V30 7201 H 649.927 4.09746 0.806107 0
M  V30 7202 N 650.364 0.662433 1.43002 0
M  V30 7203 C 651.613 0.176873 2.00923 0
M  V30 7204 C 651.926 -1.21954 1.52927 0
M  V30 7205 O 653.132 -1.80081 2.03182 0
M  V30 7206 C 651.588 0.265379 3.5892 0
M  V30 7207 C 651.196 1.66507 4.15908 0
M  V30 7208 C 652.94 -0.162103 4.2419 0
M  V30 7209 C 650.847 1.707 5.66229 0
M  V30 7210 H 649.777 0.0623627 0.751417 0
M  V30 7211 H 652.428 0.825813 1.63868 0
M  V30 7212 H 650.81 -0.451235 3.93421 0
M  V30 7213 H 651.984 2.40777 3.92891 0
M  V30 7214 H 650.299 2.03932 3.63044 0
M  V30 7215 H 652.896 -0.150745 5.34487 0
M  V30 7216 H 653.239 -1.19519 3.98774 0
M  V30 7217 H 653.772 0.503075 3.94606 0
M  V30 7218 H 650.511 2.7195 5.96426 0
M  V30 7219 H 650.031 1.00768 5.91275 0
M  V30 7220 H 651.71 1.45487 6.3043 0
M  V30 7221 N 651.842 -1.52309 0.404946 0
M  V30 7222 C 653.119 -1.94237 -0.230544 0
M  V30 7223 C 653.499 -1.34154 -1.6299 0
M  V30 7224 O 652.847 -0.515713 -2.22604 0
M  V30 7225 C 653.057 -3.48166 -0.241106 0
M  V30 7226 C 654.405 -4.22074 -0.462488 0
M  V30 7227 O 655.429 -3.54754 -0.320644 0
M  V30 7228 O 654.288 -5.41443 -0.741708 0
M  V30 7229 H 651.382 -0.813766 -0.147358 0
M  V30 7230 H 653.928 -1.6333 0.460587 0
M  V30 7231 H 652.7 -3.84269 0.738467 0
M  V30 7232 H 652.323 -3.85422 -0.97651 0
M  V30 7233 N 653.32 -0.135238 -1.57019 0
M  V30 7234 C 654.267 0.808908 -2.1616 0
M  V30 7235 C 655.237 1.25234 -1.09113 0
M  V30 7236 O 656.422 1.32697 -1.37099 0
M  V30 7237 C 653.562 2.04729 -2.77813 0
M  V30 7238 C 652.675 1.65074 -3.99218 0
M  V30 7239 C 651.81 2.84002 -4.48906 0
M  V30 7240 C 650.849 2.40663 -5.62803 0
M  V30 7241 N 649.986 3.5256 -6.07162 0
M  V30 7242 H 654.826 0.297751 -2.96509 0
M  V30 7243 H 652.363 0.135264 -1.46477 0
M  V30 7244 H 654.321 2.7731 -3.11697 0
M  V30 7245 H 652.951 2.53275 -2.00128 0
M  V30 7246 H 652.003 0.823029 -3.7139 0
M  V30 7247 H 653.315 1.29236 -4.81767 0
M  V30 7248 H 652.469 3.64788 -4.84783 0
M  V30 7249 H 651.208 3.23076 -3.65339 0
M  V30 7250 H 650.213 1.58314 -5.26514 0
M  V30 7251 H 651.438 2.02687 -6.48147 0
M  V30 7252 H 649.384 3.91278 -5.26534 0
M  V30 7253 H 649.301 3.20699 -6.84608 0
M  V30 7254 H 650.569 4.33738 -6.47682 0
M  V30 7255 N 654.798 1.5699 0.138552 0
M  V30 7256 C 656.028 1.87704 0.863184 0
M  V30 7257 C 656.436 0.722411 1.74865 0
M  V30 7258 O 655.779 -0.316636 1.80951 0
M  V30 7259 C 655.841 3.13219 1.76449 0
M  V30 7260 C 655.505 4.44648 1.05532 0
M  V30 7261 C 656.502 5.18318 0.405252 0
M  V30 7262 C 654.187 4.91367 1.04231 0
M  V30 7263 C 656.181 6.36916 -0.24835 0
M  V30 7264 C 653.868 6.09887 0.384904 0
M  V30 7265 C 654.866 6.82508 -0.259292 0
M  V30 7266 O 654.554 7.98775 -0.906258 0
M  V30 7267 H 654.286 0.626255 0.254521 0
M  V30 7268 H 656.84 2.04966 0.133472 0
M  V30 7269 H 655.07 2.91988 2.53535 0
M  V30 7270 H 656.759 3.30111 2.36181 0
M  V30 7271 H 657.525 4.83289 0.407053 0
M  V30 7272 H 653.404 4.34759 1.53315 0
M  V30 7273 H 656.948 6.93538 -0.751755 0
M  V30 7274 H 652.845 6.44376 0.380799 0
M  V30 7275 H 653.613 8.14494 -0.80877 0
M  V30 7276 N 656.276 -0.40816 1.52223 0
M  V30 7277 C 657.501 -1.18127 1.70472 0
M  V30 7278 C 657.926 -1.83491 0.41384 0
M  V30 7279 O 657.284 -1.70047 -0.628778 0
M  V30 7280 C 657.332 -2.21935 2.84213 0
M  V30 7281 O 656.436 -3.28099 2.4985 0
M  V30 7282 H 655.777 -0.344781 0.56747 0
M  V30 7283 H 658.307 -0.478328 1.9893 0
M  V30 7284 H 658.317 -2.66248 3.09153 0
M  V30 7285 H 656.992 -1.73744 3.7787 0
M  V30 7286 H 655.569 -2.89058 2.35584 0
M  V30 7287 N 657.755 -1.42862 -0.66545 0
M  V30 7288 C 659.171 -1.25993 -0.979687 0
M  V30 7289 C 659.371 -0.170831 -2.00775 0
M  V30 7290 O 658.427 0.454827 -2.4837 0
M  V30 7291 C 659.74 -2.62005 -1.47559 0
M  V30 7292 C 661.288 -2.69437 -1.59288 0
M  V30 7293 C 661.763 -4.05838 -2.12272 0
M  V30 7294 N 663.254 -4.0784 -2.19592 0
M  V30 7295 C 663.989 -5.10205 -2.61684 0
M  V30 7296 N 663.485 -6.22949 -3.03161 0
M  V30 7297 N 665.278 -4.9756 -2.61516 0
M  V30 7298 H 657.429 -2.12395 0.0150493 0
M  V30 7299 H 659.692 -0.946355 -0.0558187 0
M  V30 7300 H 659.398 -3.42605 -0.794654 0
M  V30 7301 H 659.272 -2.86566 -2.45275 0
M  V30 7302 H 661.659 -1.89178 -2.26486 0
M  V30 7303 H 661.74 -2.48655 -0.600374 0
M  V30 7304 H 661.384 -4.86559 -1.4568 0
M  V30 7305 H 661.314 -4.23977 -3.12331 0
M  V30 7306 H 663.805 -3.26452 -1.90361 0
M  V30 7307 H 664.118 -6.96899 -3.33993 0
M  V30 7308 H 662.463 -6.2644 -3.00995 0
M  V30 7309 H 665.654 -4.08551 -2.28481 0
M  V30 7310 H 665.827 -5.77468 -2.93999 0
M  V30 7311 N 659.233 0.902656 -1.29189 0
M  V30 7312 C 660.163 2.02294 -1.16616 0
M  V30 7313 C 661.144 1.6999 -0.0611175 0
M  V30 7314 O 662.329 1.9271 -0.240072 0
M  V30 7315 C 659.459 3.37018 -0.83882 0
M  V30 7316 C 658.413 3.83522 -1.89986 0
M  V30 7317 C 657.739 5.15337 -1.42589 0
M  V30 7318 C 659.039 4.04169 -3.30824 0
M  V30 7319 H 660.733 2.13071 -2.10336 0
M  V30 7320 H 658.279 1.02378 -1.01266 0
M  V30 7321 H 660.232 4.14895 -0.737584 0
M  V30 7322 H 658.956 3.26325 0.134071 0
M  V30 7323 H 657.615 3.07859 -1.99043 0
M  V30 7324 H 657.263 5.01056 -0.441759 0
M  V30 7325 H 656.963 5.47423 -2.13547 0
M  V30 7326 H 658.487 5.95758 -1.3381 0
M  V30 7327 H 659.901 4.72537 -3.24626 0
M  V30 7328 H 658.298 4.47604 -3.99713 0
M  V30 7329 H 659.368 3.08604 -3.74021 0
M  V30 7330 N 660.711 1.11618 1.11262 0
M  V30 7331 C 661.96 0.860934 1.82403 0
M  V30 7332 C 662.273 -0.615303 1.8567 0
M  V30 7333 O 663.479 -0.986861 2.52929 0
M  V30 7334 C 661.935 1.49048 3.27586 0
M  V30 7335 C 661.543 3.00089 3.32642 0
M  V30 7336 C 663.287 1.31515 4.03614 0
M  V30 7337 C 661.194 3.56019 4.72234 0
M  V30 7338 H 660.124 0.318423 0.683464 0
M  V30 7339 H 662.775 1.34165 1.25188 0
M  V30 7340 H 661.157 0.937434 3.84744 0
M  V30 7341 H 662.331 3.61813 2.85356 0
M  V30 7342 H 660.646 3.16919 2.70096 0
M  V30 7343 H 663.243 1.70732 5.0671 0
M  V30 7344 H 663.586 0.257917 4.155 0
M  V30 7345 H 664.119 1.83694 3.52848 0
M  V30 7346 H 660.858 4.61463 4.65545 0
M  V30 7347 H 660.378 2.99066 5.19923 0
M  V30 7348 H 662.057 3.54568 5.41193 0
M  V30 7349 N 662.189 -1.289 0.906776 0
M  V30 7350 C 663.436 -1.95269 0.536326 0
M  V30 7351 C 663.764 -1.71435 -0.918711 0
M  V30 7352 O 663.019 -1.02431 -1.66752 0
M  V30 7353 C 663.318 -3.48704 0.783617 0
M  V30 7354 C 662.984 -3.92626 2.21711 0
M  V30 7355 C 661.646 -4.04329 2.60906 0
M  V30 7356 C 663.998 -4.15218 3.15029 0
M  V30 7357 C 661.326 -4.35998 3.92584 0
M  V30 7358 C 663.678 -4.48365 4.46264 0
M  V30 7359 C 662.342 -4.58278 4.85322 0
M  V30 7360 H 661.612 -0.714538 0.196256 0
M  V30 7361 H 664.259 -1.53366 1.14678 0
M  V30 7362 H 662.564 -3.91696 0.0903048 0
M  V30 7363 H 664.261 -3.98162 0.476267 0
M  V30 7364 H 660.851 -3.84038 1.90296 0
M  V30 7365 H 665.035 -4.05636 2.8596 0
M  V30 7366 H 660.291 -4.41878 4.22557 0
M  V30 7367 H 664.465 -4.64795 5.18593 0
M  V30 7368 H 662.092 -4.82573 5.87391 0
M  V30 7369 N 663.667 -0.670007 -1.42649 0
M  V30 7370 C 665.078 -0.268118 -1.84765 0
M  V30 7371 C 665.429 1.18877 -1.56086 0
M  V30 7372 O 664.554 1.90947 -1.01825 0
M  V30 7373 C 665.149 -0.47984 -3.35385 0
M  V30 7374 C 663.708 -0.132116 -3.76168 0
M  V30 7375 C 662.855 -0.774611 -2.66261 0
M  V30 7376 H 665.806 -0.872509 -1.32563 0
M  V30 7377 H 665.827 0.269522 -3.79544 0
M  V30 7378 H 665.339 -1.54026 -3.56227 0
M  V30 7379 H 663.44 0.92505 -3.60934 0
M  V30 7380 H 663.553 -0.569294 -4.75706 0
M  V30 7381 H 661.917 -0.206353 -2.53863 0
M  V30 7382 H 662.7 -1.83839 -2.89928 0
M  V30 7383 N 665.145 1.52092 -0.413018 0
M  V30 7384 C 666.108 2.25706 0.398687 0
M  V30 7385 C 667.108 1.28221 0.970368 0
M  V30 7386 O 668.298 1.52131 0.848635 0
M  V30 7387 C 665.43 3.03029 1.5616 0
M  V30 7388 H 666.623 2.98888 -0.246131 0
M  V30 7389 H 664.176 1.5542 -0.165622 0
M  V30 7390 H 664.911 2.34205 2.24317 0
M  V30 7391 H 664.696 3.74606 1.15812 0
M  V30 7392 H 666.186 3.58857 2.13569 0
M  V30 7393 N 666.623 0.143563 1.56945 0
M  V30 7394 C 667.848 -0.518701 2.00809 0
M  V30 7395 C 668.273 -1.5785 1.02298 0
M  V30 7396 O 667.631 -1.813 -0.0017839 0
M  V30 7397 C 667.679 -1.09929 3.43436 0
M  V30 7398 O 666.783 -2.21425 3.47915 0
M  V30 7399 H 666.124 -0.127215 0.6517 0
M  V30 7400 H 668.654 0.239283 2.03196 0
M  V30 7401 H 668.664 -1.4288 3.82164 0
M  V30 7402 H 667.339 -0.323162 4.14643 0
M  V30 7403 H 665.916 -1.89728 3.21026 0
M  V30 7404 N 668.101 -1.57061 -0.130224 0
M  V30 7405 C 669.331 -1.88159 -0.853217 0
M  V30 7406 C 669.739 -0.731675 -1.7448 0
M  V30 7407 O 669.082 0.307035 -1.81116 0
M  V30 7408 C 669.144 -3.1415 -1.74785 0
M  V30 7409 C 668.808 -4.45202 -1.03173 0
M  V30 7410 C 669.805 -5.18526 -0.377759 0
M  V30 7411 C 667.49 -4.91912 -1.01624 0
M  V30 7412 C 669.484 -6.36775 0.282123 0
M  V30 7413 C 667.171 -6.10082 -0.352555 0
M  V30 7414 C 668.169 -6.82361 0.295483 0
M  V30 7415 O 667.857 -7.98284 0.948606 0
M  V30 7416 H 667.589 -0.627596 -0.251197 0
M  V30 7417 H 670.143 -2.05034 -0.1226 0
M  V30 7418 H 668.373 -2.93328 -2.51983 0
M  V30 7419 H 670.062 -3.31359 -2.34427 0
M  V30 7420 H 670.828 -4.83498 -0.381417 0
M  V30 7421 H 666.707 -4.35566 -1.51007 0
M  V30 7422 H 670.251 -6.93129 0.788525 0
M  V30 7423 H 666.148 -6.44569 -0.346621 0
M  V30 7424 H 666.916 -8.14054 0.851954 0
M  V30 7425 N 669.579 0.400081 -1.52437 0
M  V30 7426 C 670.828 1.14332 -1.66166 0
M  V30 7427 C 671.141 1.91419 -0.402253 0
M  V30 7428 O 672.347 2.6824 -0.419487 0
M  V30 7429 C 670.803 2.08137 -2.9361 0
M  V30 7430 C 670.411 1.36524 -4.26691 0
M  V30 7431 C 672.155 2.82664 -3.16703 0
M  V30 7432 C 670.062 2.29031 -5.45251 0
M  V30 7433 H 668.992 0.430499 -0.61902 0
M  V30 7434 H 671.643 0.407017 -1.78929 0
M  V30 7435 H 670.025 2.85358 -2.74567 0
M  V30 7436 H 671.199 0.646061 -4.56249 0
M  V30 7437 H 669.514 0.74002 -4.09771 0
M  V30 7438 H 672.111 3.52037 -4.0246 0
M  V30 7439 H 672.454 3.46122 -2.31312 0
M  V30 7440 H 672.987 2.12541 -3.36261 0
M  V30 7441 H 669.726 1.70206 -6.33017 0
M  V30 7442 H 669.246 2.98896 -5.2002 0
M  V30 7443 H 670.925 2.89359 -5.78689 0
M  V30 7444 N 671.057 1.43213 0.657864 0
M  V30 7445 C 672.304 1.44584 1.41781 0
M  V30 7446 C 672.632 0.0684208 1.9438 0
M  V30 7447 O 671.887 -0.925872 1.72413 0
M  V30 7448 C 672.186 2.43143 2.61947 0
M  V30 7449 C 671.852 3.89128 2.27794 0
M  V30 7450 C 670.514 4.28889 2.18191 0
M  V30 7451 C 672.866 4.81144 2.00375 0
M  V30 7452 C 670.194 5.58625 1.79319 0
M  V30 7453 C 672.546 6.11239 1.63003 0
M  V30 7454 C 671.21 6.49981 1.51922 0
M  V30 7455 H 670.48 0.529069 0.518813 0
M  V30 7456 H 673.127 1.76263 0.748577 0
M  V30 7457 H 671.432 2.04851 3.33981 0
M  V30 7458 H 673.129 2.4146 3.20153 0
M  V30 7459 H 669.719 3.57657 2.36176 0
M  V30 7460 H 673.903 4.512 2.06718 0
M  V30 7461 H 669.159 5.87486 1.69323 0
M  V30 7462 H 673.333 6.82014 1.40817 0
M  V30 7463 H 670.96 7.50416 1.21572 0
M  V30 7464 N 672.536 -0.895792 1.29666 0
M  V30 7465 C 673.783 -1.64664 1.17864 0
M  V30 7466 C 674.111 -1.92631 -0.26902 0
M  V30 7467 O 673.366 -1.53787 -1.21029 0
M  V30 7468 C 673.665 -3.00075 1.94139 0
M  V30 7469 C 673.331 -2.91702 3.43833 0
M  V30 7470 C 671.993 -2.89126 3.84656 0
M  V30 7471 C 674.345 -2.80622 4.39205 0
M  V30 7472 C 671.673 -2.73293 5.1916 0
M  V30 7473 C 674.025 -2.66329 5.73805 0
M  V30 7474 C 672.689 -2.62121 6.1388 0
M  V30 7475 H 671.959 -0.602549 0.431295 0
M  V30 7476 H 674.606 -1.04234 1.60648 0
M  V30 7477 H 672.911 -3.64394 1.43958 0
M  V30 7478 H 674.608 -3.57111 1.82408 0
M  V30 7479 H 671.198 -2.94511 3.11386 0
M  V30 7480 H 675.382 -2.81686 4.08615 0
M  V30 7481 H 670.638 -2.68443 5.49316 0
M  V30 7482 H 674.812 -2.56727 6.47352 0
M  V30 7483 H 672.439 -2.49611 7.18052 0
M  V30 7484 N 674.014 -1.12206 -1.10668 0
M  V30 7485 C 674.962 -0.782918 -2.19028 0
M  V30 7486 C 675.956 0.229175 -1.67843 0
M  V30 7487 O 677.162 0.0876295 -1.79787 0
M  V30 7488 H 673.537 -0.235339 -0.714227 0
M  V30 7489 H 675.508 -1.70527 -2.44874 0
M  V30 7490 C 674.257 -0.25116 -3.46792 0
M  V30 7491 H 673.58 -1.02123 -3.86537 0
M  V30 7492 H 675.02 -0.0521409 -4.23968 0
M  V30 7493 C 673.479 1.02037 -3.21076 0
M  V30 7494 O 674.009 2.09862 -3.42522 0
M  V30 7495 N 672.215 0.946348 -2.74759 0
M  V30 7496 H 671.762 0.068777 -2.57508 0
M  V30 7497 H 671.72 1.79775 -2.57931 0
M  V30 7498 N 675.492 1.28418 -0.913599 0
M  V30 7499 C 676.422 2.29713 -0.418847 0
M  V30 7500 C 677.403 1.62165 0.513469 0
M  V30 7501 O 678.588 1.89576 0.421235 0
M  V30 7502 C 675.718 3.45612 0.342042 0
M  V30 7503 C 674.672 4.25056 -0.501123 0
M  V30 7504 C 673.998 5.3329 0.388097 0
M  V30 7505 C 675.298 4.91814 -1.75831 0
M  V30 7506 H 676.992 2.71346 -1.26538 0
M  V30 7507 H 674.538 1.30446 -0.609903 0
M  V30 7508 H 676.491 4.15562 0.699 0
M  V30 7509 H 675.215 3.02858 1.22248 0
M  V30 7510 H 673.874 3.56833 -0.840598 0
M  V30 7511 H 673.522 4.8678 1.26707 0
M  V30 7512 H 673.222 5.87347 -0.172459 0
M  V30 7513 H 674.746 6.06088 0.74094 0
M  V30 7514 H 676.16 5.54126 -1.47026 0
M  V30 7515 H 674.557 5.55866 -2.26126 0
M  V30 7516 H 675.627 4.16313 -2.4862 0
M  V30 7517 N 676.97 0.677563 1.42291 0
M  V30 7518 C 678.219 0.198173 2.00724 0
M  V30 7519 C 678.532 -1.20325 1.54211 0
M  V30 7520 O 679.738 -1.77916 2.05081 0
M  V30 7521 C 678.194 0.303432 3.58619 0
M  V30 7522 C 677.802 1.70909 4.14119 0
M  V30 7523 C 679.546 -0.117103 4.24338 0
M  V30 7524 C 677.453 1.76696 5.64387 0
M  V30 7525 H 676.383 0.070329 0.750713 0
M  V30 7526 H 679.034 0.843147 1.62982 0
M  V30 7527 H 677.416 -0.409482 3.93877 0
M  V30 7528 H 678.59 2.44931 3.90315 0
M  V30 7529 H 676.905 2.07771 3.6086 0
M  V30 7530 H 679.502 -0.0940471 5.34617 0
M  V30 7531 H 679.845 -1.15283 4.00019 0
M  V30 7532 H 680.378 0.5449 3.9405 0
M  V30 7533 H 677.117 2.7826 5.93508 0
M  V30 7534 H 676.637 1.07034 5.90173 0
M  V30 7535 H 678.316 1.52166 6.28852 0
M  V30 7536 N 678.448 -1.51871 0.421078 0
M  V30 7537 C 679.678 -2.06057 -0.149723 0
M  V30 7538 C 680.086 -1.29002 -1.38402 0
M  V30 7539 O 679.429 -0.338385 -1.80556 0
M  V30 7540 C 679.491 -3.55216 -0.553339 0
M  V30 7541 C 679.155 -4.53408 0.571879 0
M  V30 7542 C 680.152 -4.99586 1.4391 0
M  V30 7543 C 677.837 -4.967 0.747979 0
M  V30 7544 C 679.831 -5.87711 2.46727 0
M  V30 7545 C 677.518 -5.84619 1.77944 0
M  V30 7546 C 678.516 -6.30021 2.63748 0
M  V30 7547 O 678.204 -7.16197 3.65126 0
M  V30 7548 H 677.936 -0.675744 -0.0186102 0
M  V30 7549 H 680.49 -1.96618 0.594166 0
M  V30 7550 H 678.72 -3.62381 -1.34969 0
M  V30 7551 H 680.409 -3.91992 -1.05342 0
M  V30 7552 H 681.175 -4.66846 1.31451 0
M  V30 7553 H 677.054 -4.60913 0.0897357 0
M  V30 7554 H 680.598 -6.2307 3.13734 0
M  V30 7555 H 676.495 -6.16771 1.90429 0
M  V30 7556 H 677.263 -7.34337 3.61512 0
M  V30 7557 N 679.926 -0.151884 -1.56866 0
M  V30 7558 C 681.172 0.492327 -1.97352 0
M  V30 7559 C 681.527 1.62156 -1.03553 0
M  V30 7560 O 680.82 1.91467 -0.0714872 0
M  V30 7561 C 681.014 1.04074 -3.41911 0
M  V30 7562 C 680.843 -0.0338306 -4.49687 0
M  V30 7563 C 679.613 -0.476914 -5.03044 0
M  V30 7564 C 681.811 -0.827105 -5.07606 0
M  V30 7565 N 679.793 -1.53382 -5.9443 0
M  V30 7566 C 681.164 -1.73439 -5.95247 0
M  V30 7567 C 683.219 -0.874351 -4.90163 0
M  V30 7568 C 681.922 -2.68488 -6.67313 0
M  V30 7569 C 683.948 -1.81269 -5.62935 0
M  V30 7570 C 683.31 -2.70749 -6.50288 0
M  V30 7571 H 679.409 0.148822 -0.767708 0
M  V30 7572 H 681.993 -0.247615 -1.93119 0
M  V30 7573 H 680.164 1.75027 -3.46728 0
M  V30 7574 H 681.896 1.65197 -3.69448 0
M  V30 7575 H 678.651 -0.0782493 -4.73535 0
M  V30 7576 H 679.075 -2.06217 -6.44828 0
M  V30 7577 H 683.717 -0.196628 -4.22343 0
M  V30 7578 H 681.435 -3.37257 -7.34359 0
M  V30 7579 H 685.021 -1.85511 -5.51432 0
M  V30 7580 H 683.901 -3.42175 -7.0561 0
M  V30 7581 N 681.404 1.57128 0.121893 0
M  V30 7582 C 682.629 1.89254 0.848385 0
M  V30 7583 C 683.054 0.743527 1.72781 0
M  V30 7584 O 682.412 -0.306056 1.78698 0
M  V30 7585 C 682.46 3.20113 1.66012 0
M  V30 7586 O 681.564 3.05815 2.76679 0
M  V30 7587 H 680.905 0.621103 0.234793 0
M  V30 7588 H 683.435 2.0433 0.10516 0
M  V30 7589 H 683.445 3.52761 2.04996 0
M  V30 7590 H 682.12 4.03336 1.01452 0
M  V30 7591 H 680.697 2.84627 2.40918 0
M  V30 7592 N 682.882 -0.391992 1.52647 0
M  V30 7593 C 684.128 -1.139 1.67793 0
M  V30 7594 C 684.461 -1.89711 0.41514 0
M  V30 7595 O 683.736 -1.85431 -0.586979 0
M  V30 7596 C 684.019 -2.11966 2.91105 0
M  V30 7597 C 683.872 -1.39939 4.27478 0
M  V30 7598 C 685.191 -3.1243 3.09961 0
M  V30 7599 H 682.31 -0.412707 0.610608 0
M  V30 7600 H 684.952 -0.422725 1.85238 0
M  V30 7601 H 683.102 -2.73048 2.76364 0
M  V30 7602 H 684.774 -0.818439 4.53982 0
M  V30 7603 H 683.017 -0.701246 4.28095 0
M  V30 7604 H 683.688 -2.1158 5.09841 0
M  V30 7605 H 686.164 -2.61435 3.23714 0
M  V30 7606 H 685.04 -3.78294 3.97725 0
M  V30 7607 H 685.301 -3.81127 2.24042 0
M  V30 7608 N 684.36 -1.4356 -0.65026 0
M  V30 7609 C 685.607 -1.45333 -1.41012 0
M  V30 7610 C 685.935 -0.0787282 -1.94341 0
M  V30 7611 O 685.19 0.916715 -1.72901 0
M  V30 7612 C 685.489 -2.44528 -2.60654 0
M  V30 7613 C 685.155 -3.90331 -2.25727 0
M  V30 7614 C 683.817 -4.3004 -2.15914 0
M  V30 7615 C 686.169 -4.822 -1.97821 0
M  V30 7616 C 683.497 -5.59568 -1.76354 0
M  V30 7617 C 685.849 -6.12095 -1.59759 0
M  V30 7618 C 684.513 -6.50778 -1.48473 0
M  V30 7619 H 683.783 -0.531813 -0.516 0
M  V30 7620 H 686.43 -1.76657 -0.739219 0
M  V30 7621 H 684.735 -2.06619 -3.3289 0
M  V30 7622 H 686.432 -2.43155 -3.18868 0
M  V30 7623 H 683.022 -3.58905 -2.34276 0
M  V30 7624 H 687.206 -4.5229 -2.04322 0
M  V30 7625 H 682.462 -5.88376 -1.66205 0
M  V30 7626 H 686.636 -6.82751 -1.37198 0
M  V30 7627 H 684.263 -7.5105 -1.17591 0
M  V30 7628 N 685.838 0.888903 -1.30139 0
M  V30 7629 C 687.063 1.67884 -1.21777 0
M  V30 7630 C 687.488 1.86848 0.216689 0
M  V30 7631 O 686.846 1.39659 1.15608 0
M  V30 7632 C 686.894 3.03483 -1.94757 0
M  V30 7633 O 685.998 3.92294 -1.27198 0
M  V30 7634 H 685.339 0.513144 -0.421402 0
M  V30 7635 H 687.869 1.10968 -1.71893 0
M  V30 7636 H 687.879 3.53553 -2.03627 0
M  V30 7637 H 686.554 2.89 -2.99085 0
M  V30 7638 H 685.131 3.50732 -1.26655 0
M  V30 7639 O 687.355 1.24817 1.02483 0
M  V30 7640 H 688.046 1.02783 1.64181 0
M  V30 END ATOM
M  V30 BEGIN BOND
M  V30 END BOND
M  V30 END CTAB
M  END
$$$$
