drugbank_target|P28676 Grancalcin (DB11093; DB11348; DB14481)
 OpenBabel12092121053D

  0  0  0     0  0            999 V3000
M  V30 BEGIN CTAB
M  V30 COUNTS 3293 3333 0 0 0
M  V30 BEGIN ATOM
M  V30 1 H -0.908 1.98254 -0.117106 0
M  V30 2 N 0 1.576 0 0
M  V30 3 C 0.933 2.03868 1.02534 0
M  V30 4 C 1.911 0.928543 1.3348 0
M  V30 5 O 3.095 1.19667 1.45644 0
M  V30 6 C 0.222 2.43627 2.35294 0
M  V30 7 C -0.732 3.65373 2.2001 0
M  V30 8 S 0.101 5.13292 1.52614 0
M  V30 9 C 1.257 5.56322 2.86805 0
M  V30 10 H 1.49 2.90518 0.631377 0
M  V30 11 H -0.977 1.52953 0.210867 0
M  V30 12 H 0.981 2.67203 3.11629 0
M  V30 13 H -0.358 1.57376 2.7183 0
M  V30 14 H -1.165 3.90944 3.18086 0
M  V30 15 H -1.563 3.418 1.51819 0
M  V30 16 H 0.729 5.58782 3.83104 0
M  V30 17 H 1.672 6.56266 2.65933 0
M  V30 18 H 2.08 4.83886 2.90714 0
M  V30 19 N 1.4781 -0.272755 1.55222 0
M  V30 20 C 2.4411 -1.32041 1.87344 0
M  V30 21 C 3.4411 -1.42342 0.74803 0
M  V30 22 O 4.6311 -1.41488 1.0162 0
M  V30 23 C 1.7631 -2.70173 2.07893 0
M  V30 24 H 2.9561 -1.04789 2.80997 0
M  V30 25 H 0.5091 -0.51083 1.47717 0
M  V30 26 H 1.2441 -3.02605 1.16622 0
M  V30 27 H 1.0291 -2.64082 2.89833 0
M  V30 28 H 2.5191 -3.45869 2.34017 0
M  V30 29 N 2.9562 -1.48159 -0.537278 0
M  V30 30 C 4.1862 -1.59223 -1.3165 0
M  V30 31 C 4.5942 -0.248849 -1.87556 0
M  V30 32 O 3.9372 0.770949 -1.6674 0
M  V30 33 C 3.9992 -2.57365 -2.51005 0
M  V30 34 C 3.6632 -4.02603 -2.16239 0
M  V30 35 C 4.6602 -4.90503 -1.72344 0
M  V30 36 C 2.3452 -4.48088 -2.26986 0
M  V30 37 C 4.3392 -6.21913 -1.39651 0
M  V30 38 C 2.0262 -5.7952 -1.93906 0
M  V30 39 C 3.0242 -6.66255 -1.50309 0
M  V30 40 O 2.7122 -7.95243 -1.17659 0
M  V30 41 H 2.4442 -0.539831 -0.406889 0
M  V30 42 H 4.9982 -1.94655 -0.655641 0
M  V30 43 H 3.2282 -2.1704 -3.20048 0
M  V30 44 H 4.9172 -2.58342 -3.13072 0
M  V30 45 H 5.6832 -4.56604 -1.63517 0
M  V30 46 H 1.5622 -3.80769 -2.59877 0
M  V30 47 H 5.1062 -6.89569 -1.0555 0
M  V30 48 H 1.0032 -6.12957 -2.02371 0
M  V30 49 H 1.7712 -8.0793 -1.31119 0
M  V30 50 N 4.4343 0.785586 -1.36625 0
M  V30 51 C 5.8453 1.36101 -1.27803 0
M  V30 52 C 6.1963 1.96035 0.0804875 0
M  V30 53 O 5.3213 1.92834 0.982042 0
M  V30 54 C 5.9163 2.47442 -2.31426 0
M  V30 55 C 4.4753 3.00789 -2.26281 0
M  V30 56 C 3.6223 1.73896 -2.15999 0
M  V30 57 H 6.5733 0.586928 -1.47448 0
M  V30 58 H 6.5943 3.2656 -1.95291 0
M  V30 59 H 6.1063 2.03791 -3.30289 0
M  V30 60 H 4.2073 3.48851 -1.30896 0
M  V30 61 H 4.3203 3.57343 -3.19128 0
M  V30 62 H 2.6843 1.9628 -1.62316 0
M  V30 63 H 3.4673 1.32368 -3.16755 0
M  V30 64 N 5.9124 1.20967 1.01018 0
M  V30 65 C 7.1604 1.02172 1.74371 0
M  V30 66 C 7.4814 -0.446414 1.89821 0
M  V30 67 O 6.7514 -1.32234 1.44537 0
M  V30 68 H 5.3314 0.375066 0.646014 0
M  V30 69 H 7.9934 1.52187 1.21758 0
M  V30 70 H 7.0894 1.48538 2.74487 0
M  V30 71 N 7.3905 -1.2043 1.01659 0
M  V30 72 C 8.6205 -1.93496 0.724081 0
M  V30 73 C 9.0285 -1.74998 -0.71918 0
M  V30 74 O 8.3715 -1.06118 -1.49949 0
M  V30 75 C 8.4335 -3.45886 0.97994 0
M  V30 76 C 8.0975 -3.88145 2.41232 0
M  V30 77 C 9.0945 -3.93907 3.39313 0
M  V30 78 C 6.7795 -4.20134 2.75305 0
M  V30 79 C 8.7735 -4.31069 4.6953 0
M  V30 80 C 6.4605 -4.56971 4.05735 0
M  V30 81 C 7.4585 -4.62411 5.02658 0
M  V30 82 O 7.1465 -4.98403 6.30754 0
M  V30 83 H 6.8785 -0.621824 0.265162 0
M  V30 84 H 9.4325 -1.53867 1.36066 0
M  V30 85 H 7.6625 -3.85639 0.286198 0
M  V30 86 H 9.3515 -4.0018 0.679021 0
M  V30 87 H 10.1175 -3.69357 3.14325 0
M  V30 88 H 5.9965 -4.1509 2.00551 0
M  V30 89 H 9.5405 -4.3523 5.45179 0
M  V30 90 H 5.4375 -4.80977 4.30502 0
M  V30 91 H 6.2055 -5.16395 6.35042 0
M  V30 92 N 8.8686 -0.792821 -1.36206 0
M  V30 93 C 10.1166 -0.366062 -1.98757 0
M  V30 94 C 10.4376 1.0668 -1.63231 0
M  V30 95 O 9.7076 1.73587 -0.907978 0
M  V30 96 H 8.2876 -0.132364 -0.735179 0
M  V30 97 H 10.9496 -1.01562 -1.66347 0
M  V30 98 H 10.0456 -0.460638 -3.08682 0
M  V30 99 N 10.3467 1.47872 -0.545128 0
M  V30 100 C 11.5947 2.02093 -0.016553 0
M  V30 101 C 11.9157 1.42305 1.3332 0
M  V30 102 O 11.1857 0.593853 1.86682 0
M  V30 103 H 9.7657 0.746993 -0.00313038 0
M  V30 104 H 12.4277 1.81414 -0.712397 0
M  V30 105 H 11.5237 3.11996 0.0805422 0
M  V30 106 N 11.8248 0.280983 1.55075 0
M  V30 107 C 13.0728 -0.333455 1.9933 0
M  V30 108 C 13.3938 -1.55937 1.17085 0
M  V30 109 O 12.6638 -1.94143 0.261805 0
M  V30 110 H 11.2438 -0.126197 0.736263 0
M  V30 111 H 13.9058 0.387678 1.91005 0
M  V30 112 H 13.0018 -0.619292 3.05894 0
M  V30 113 N 13.3029 -1.57598 0.00835791 0
M  V30 114 C 14.5499 -1.90928 -0.674732 0
M  V30 115 C 14.8779 -0.88277 -1.73313 0
M  V30 116 O 14.1329 0.111294 -1.95383 0
M  V30 117 C 14.4319 -3.3101 -1.34787 0
M  V30 118 C 14.0979 -4.48922 -0.421861 0
M  V30 119 C 12.7599 -4.8091 -0.166927 0
M  V30 120 C 15.1119 -5.20755 0.215211 0
M  V30 121 C 12.4399 -5.821 0.733232 0
M  V30 122 C 14.7919 -6.22905 1.1033 0
M  V30 123 C 13.4559 -6.53346 1.36733 0
M  V30 124 H 12.7259 -0.698656 -0.246902 0
M  V30 125 H 15.3729 -1.91387 0.0656779 0
M  V30 126 H 13.6779 -3.26714 -2.16253 0
M  V30 127 H 15.3749 -3.54061 -1.8826 0
M  V30 128 H 11.9649 -4.23934 -0.630729 0
M  V30 129 H 16.1489 -4.9629 0.0312829 0
M  V30 130 H 11.4049 -6.04042 0.945712 0
M  V30 131 H 15.5789 -6.77694 1.60325 0
M  V30 132 H 13.2059 -7.31573 2.06652 0
M  V30 133 N 14.781 0.264519 -1.55364 0
M  V30 134 C 16.029 0.993021 -1.76021 0
M  V30 135 C 16.35 1.86511 -0.569099 0
M  V30 136 O 15.62 1.91438 0.415735 0
M  V30 137 H 14.2 0.369639 -0.649135 0
M  V30 138 H 16.862 0.286707 -1.9278 0
M  V30 139 H 15.958 1.62502 -2.66457 0
M  V30 140 N 16.2591 1.48442 0.529413 0
M  V30 141 C 17.2071 1.63452 1.65487 0
M  V30 142 C 18.2011 0.500955 1.61823 0
M  V30 143 O 19.4071 0.679695 1.66674 0
M  V30 144 H 15.7821 0.514905 0.548066 0
M  V30 145 H 17.7531 2.57975 1.49971 0
M  V30 146 C 16.5021 1.69196 3.03756 0
M  V30 147 H 15.8251 2.55784 3.07269 0
M  V30 148 H 17.2651 1.83743 3.82119 0
M  V30 149 C 15.7241 0.430765 3.34135 0
M  V30 150 O 16.2541 -0.4561 3.99102 0
M  V30 151 N 14.4601 0.302293 2.89023 0
M  V30 152 H 14.0071 1.02496 2.36331 0
M  V30 153 H 13.9651 -0.540546 3.09718 0
M  V30 154 N 17.7372 -0.778329 1.37039 0
M  V30 155 C 18.9842 -1.53665 1.31884 0
M  V30 156 C 19.3122 -1.9425 -0.0986303 0
M  V30 157 O 18.5672 -1.63832 -1.07041 0
M  V30 158 C 18.8662 -2.81845 2.19768 0
M  V30 159 C 18.5322 -2.60345 3.68146 0
M  V30 160 C 17.1942 -2.5419 4.08584 0
M  V30 161 C 19.5462 -2.40923 4.62175 0
M  V30 162 C 16.8742 -2.26594 5.41177 0
M  V30 163 C 19.2262 -2.14852 5.94997 0
M  V30 164 C 17.8902 -2.07137 6.34547 0
M  V30 165 H 17.1602 -0.562299 0.482598 0
M  V30 166 H 19.8072 -0.897069 1.69189 0
M  V30 167 H 18.1122 -3.50328 1.75436 0
M  V30 168 H 19.8092 -3.39692 2.13097 0
M  V30 169 H 16.3992 -2.65996 3.36072 0
M  V30 170 H 20.5832 -2.44673 4.31797 0
M  V30 171 H 15.8392 -2.19111 5.70789 0
M  V30 172 H 20.0132 -1.98822 6.67415 0
M  V30 173 H 17.6402 -1.85518 7.37216 0
M  V30 174 N 19.2153 -1.21501 -1.00376 0
M  V30 175 C 20.4403 -1.05977 -1.78279 0
M  V30 176 C 20.8653 0.385994 -1.84097 0
M  V30 177 O 20.2233 1.27849 -1.28547 0
M  V30 178 C 20.2713 -1.66302 -3.19963 0
M  V30 179 O 19.3753 -0.909333 -4.0225 0
M  V30 180 H 18.7163 -0.372906 -0.549397 0
M  V30 181 H 21.2463 -1.6107 -1.26165 0
M  V30 182 H 21.2563 -1.70574 -3.70632 0
M  V30 183 H 19.9313 -2.71515 -3.15043 0
M  V30 184 H 18.5083 -0.941795 -3.60811 0
M  V30 185 N 20.6934 1.19889 -1.02296 0
M  V30 186 C 21.9424 1.88743 -0.711257 0
M  V30 187 C 22.2554 1.80112 0.762817 0
M  V30 188 O 23.4614 2.44161 1.18733 0
M  V30 189 C 21.9174 3.38525 -1.22185 0
M  V30 190 C 21.5254 3.55727 -2.72328 0
M  V30 191 C 23.2694 4.12893 -0.985864 0
M  V30 192 C 21.1764 4.99369 -3.16835 0
M  V30 193 H 20.1064 0.706885 -0.262353 0
M  V30 194 H 22.7574 1.35586 -1.23648 0
M  V30 195 H 21.1394 3.91044 -0.624571 0
M  V30 196 H 22.3134 3.13564 -3.3766 0
M  V30 197 H 20.6284 2.94739 -2.9414 0
M  V30 198 H 23.2254 5.18813 -1.29374 0
M  V30 199 H 23.5684 4.16228 0.0775055 0
M  V30 200 H 24.1014 3.66494 -1.54684 0
M  V30 201 H 20.8404 5.01193 -4.22476 0
M  V30 202 H 20.3604 5.42317 -2.56228 0
M  V30 203 H 22.0394 5.67988 -3.09837 0
M  V30 204 N 22.1715 0.800033 1.35784 0
M  V30 205 C 23.1035 0.163596 2.28615 0
M  V30 206 C 24.1165 -0.633317 1.49976 0
M  V30 207 O 25.3055 -0.466754 1.72289 0
M  V30 208 C 22.4055 -0.790958 3.29541 0
M  V30 209 C 21.5785 -0.0418255 4.3738 0
M  V30 210 C 20.6375 -0.91389 5.18203 0
M  V30 211 O 19.6635 -0.367234 5.68014 0
M  V30 212 N 20.8655 -2.23682 5.35674 0
M  V30 213 H 23.6305 0.96105 2.83873 0
M  V30 214 H 21.1915 0.654894 1.48063 0
M  V30 215 H 23.1835 -1.37844 3.80501 0
M  V30 216 H 21.7535 -1.48925 2.74846 0
M  V30 217 H 20.9735 0.726813 3.87442 0
M  V30 218 H 22.2615 0.474719 5.06581 0
M  V30 219 H 21.6595 -2.70497 4.96838 0
M  V30 220 H 20.2165 -2.77369 5.89839 0
M  V30 221 N 23.6496 -1.47581 0.552962 0
M  V30 222 C 24.8956 -2.02782 0.0273648 0
M  V30 223 C 25.2286 -1.42687 -1.31734 0
M  V30 224 O 24.5036 -0.580897 -1.85623 0
M  V30 225 C 24.7866 -3.60031 -0.0702371 0
M  V30 226 C 24.6396 -4.30566 1.30126 0
M  V30 227 C 25.9586 -4.33028 -0.785771 0
M  V30 228 H 23.0776 -0.736912 0.0114185 0
M  V30 229 H 25.7196 -1.76056 0.714432 0
M  V30 230 H 23.8696 -3.82932 -0.655382 0
M  V30 231 H 25.5416 -4.19018 1.92929 0
M  V30 232 H 23.7846 -3.91086 1.87709 0
M  V30 233 H 24.4556 -5.39114 1.18573 0
M  V30 234 H 26.9316 -4.15095 -0.288982 0
M  V30 235 H 25.8076 -5.42695 -0.823013 0
M  V30 236 H 26.0686 -4.01945 -1.841 0
M  V30 237 N 25.1277 -0.289203 -1.54924 0
M  V30 238 C 26.5387 0.205791 -1.85562 0
M  V30 239 C 26.8897 1.54351 -1.2112 0
M  V30 240 O 26.0147 2.10435 -0.504601 0
M  V30 241 C 26.6097 0.380177 -3.3666 0
M  V30 242 C 25.1687 0.819395 -3.67373 0
M  V30 243 C 24.3157 -0.079159 -2.77187 0
M  V30 244 H 27.2667 -0.510577 -1.50262 0
M  V30 245 H 27.2877 1.21659 -3.60526 0
M  V30 246 H 26.7997 -0.593589 -3.83534 0
M  V30 247 H 24.9007 1.80413 -3.26009 0
M  V30 248 H 25.0137 0.646957 -4.74712 0
M  V30 249 H 23.3777 0.439565 -2.50878 0
M  V30 250 H 24.1607 -1.04906 -3.26878 0
M  V30 251 N 26.6058 1.57591 -0.0167156 0
M  V30 252 C 27.8538 1.90906 0.663285 0
M  V30 253 C 28.1748 0.892509 1.73376 0
M  V30 254 O 27.4448 -0.0677623 1.95783 0
M  V30 255 H 26.0248 0.704637 0.247983 0
M  V30 256 H 28.6868 1.94803 -0.0615909 0
M  V30 257 H 27.7828 2.9116 1.12393 0
M  V30 258 N 28.0839 -0.256276 1.55502 0
M  V30 259 C 29.0169 -1.34321 1.84481 0
M  V30 260 C 29.9949 -1.46802 0.699131 0
M  V30 261 O 31.1789 -1.63165 0.943904 0
M  V30 262 C 28.3059 -2.71779 2.02123 0
M  V30 263 C 27.3519 -2.76496 3.24734 0
M  V30 264 S 28.1849 -2.3405 4.81644 0
M  V30 265 C 29.3409 -3.73452 5.02279 0
M  V30 266 H 29.5739 -1.09539 2.76385 0
M  V30 267 H 27.1069 -0.45678 1.47489 0
M  V30 268 H 29.0649 -3.50932 2.12972 0
M  V30 269 H 27.7259 -2.93803 1.11078 0
M  V30 270 H 26.9189 -3.77424 3.34016 0
M  V30 271 H 26.5209 -2.05379 3.12563 0
M  V30 272 H 28.8129 -4.6887 4.89047 0
M  V30 273 H 29.7559 -3.6911 6.04287 0
M  V30 274 H 30.1639 -3.6553 4.30172 0
M  V30 275 N 29.562 -1.4872 -0.521534 0
M  V30 276 C 30.494 -1.59968 -1.64143 0
M  V30 277 C 31.507 -0.483463 -1.55456 0
M  V30 278 O 32.696 -0.75467 -1.61762 0
M  V30 279 C 29.796 -1.52127 -3.02838 0
M  V30 280 C 28.969 -2.78932 -3.36921 0
M  V30 281 C 28.028 -2.64428 -4.54933 0
M  V30 282 O 27.054 -3.38331 -4.57735 0
M  V30 283 N 28.256 -1.74606 -5.53618 0
M  V30 284 H 31.021 -2.56548 -1.54929 0
M  V30 285 H 28.582 -1.45551 -0.708988 0
M  V30 286 H 30.574 -1.40106 -3.79674 0
M  V30 287 H 29.144 -0.634868 -3.06085 0
M  V30 288 H 28.364 -3.05455 -2.4918 0
M  V30 289 H 29.652 -3.63041 -3.56481 0
M  V30 290 H 29.05 -1.13782 -5.54139 0
M  V30 291 H 27.607 -1.6852 -6.29638 0
M  V30 292 N 31.0401 0.771051 -1.3745 0
M  V30 293 C 31.9731 1.89166 -1.27638 0
M  V30 294 C 32.9511 1.61842 -0.156782 0
M  V30 295 O 34.1351 1.85569 -0.331111 0
M  V30 296 C 31.2621 3.24405 -0.973621 0
M  V30 297 C 30.3081 3.70638 -2.1102 0
M  V30 298 S 31.1411 3.84228 -3.73 0
M  V30 299 C 32.2971 5.22313 -3.44876 0
M  V30 300 H 32.5301 1.972 -2.22485 0
M  V30 301 H 30.0631 0.932224 -1.23081 0
M  V30 302 H 32.0211 4.02514 -0.805766 0
M  V30 303 H 30.6821 3.14071 -0.0426279 0
M  V30 304 H 29.8751 4.68685 -1.85338 0
M  V30 305 H 29.4771 2.99632 -2.23822 0
M  V30 306 H 31.7691 6.07505 -2.99908 0
M  V30 307 H 32.7121 5.53008 -4.42253 0
M  V30 308 H 33.1201 4.90284 -2.79789 0
M  V30 309 N 32.5182 1.22032 0.997298 0
M  V30 310 C 33.7662 1.04016 1.73278 0
M  V30 311 C 34.0872 -0.426255 1.90284 0
M  V30 312 O 33.3572 -1.30694 1.45931 0
M  V30 313 H 31.9372 0.381897 0.642 0
M  V30 314 H 34.5992 1.5347 1.20137 0
M  V30 315 H 33.6952 1.51441 2.72896 0
M  V30 316 N 33.9963 -1.19345 1.0293 0
M  V30 317 C 34.9283 -2.22036 0.56857 0
M  V30 318 C 35.9413 -1.58865 -0.355779 0
M  V30 319 O 37.1303 -1.77851 -0.152103 0
M  V30 320 C 34.2303 -3.38363 -0.190752 0
M  V30 321 C 33.4033 -4.31118 0.738643 0
M  V30 322 C 32.4623 -5.26194 0.0246497 0
M  V30 323 O 31.4883 -5.65461 0.651354 0
M  V30 324 N 32.6903 -5.66971 -1.24594 0
M  V30 325 H 35.4553 -2.6219 1.45177 0
M  V30 326 H 33.0163 -1.34015 0.908381 0
M  V30 327 H 35.0083 -3.98981 -0.677961 0
M  V30 328 H 33.5783 -2.96994 -0.975366 0
M  V30 329 H 32.7983 -3.68276 1.40593 0
M  V30 330 H 34.0863 -4.90001 1.37029 0
M  V30 331 H 33.4843 -5.37104 -1.77583 0
M  V30 332 H 32.0413 -6.2984 -1.67764 0
M  V30 333 N 35.4744 -0.807222 -1.35358 0
M  V30 334 C 36.8854 -0.44876 -1.81226 0
M  V30 335 C 37.2364 1.02929 -1.67033 0
M  V30 336 O 36.3614 1.79991 -1.20133 0
M  V30 337 C 36.9564 -0.807774 -3.2903 0
M  V30 338 C 35.5154 -0.501901 -3.73039 0
M  V30 339 C 34.6624 -1.03304 -2.57339 0
M  V30 340 H 37.6134 -0.998808 -1.23327 0
M  V30 341 H 37.6344 -0.10554 -3.80354 0
M  V30 342 H 37.1464 -1.88357 -3.39328 0
M  V30 343 H 35.2474 0.565128 -3.68289 0
M  V30 344 H 35.3604 -1.03497 -4.67787 0
M  V30 345 H 33.7244 -0.455339 -2.50597 0
M  V30 346 H 34.5074 -2.11496 -2.70415 0
M  V30 347 N 36.9525 1.47285 -0.560781 0
M  V30 348 C 38.1985 2.02764 -0.0381184 0
M  V30 349 C 38.5315 1.43384 1.30976 0
M  V30 350 O 37.8065 0.590733 1.85312 0
M  V30 351 C 38.0895 3.60064 0.0511427 0
M  V30 352 C 37.9425 4.2987 -1.32408 0
M  V30 353 C 39.2615 4.33439 0.762795 0
M  V30 354 H 36.3805 0.736841 -0.0153264 0
M  V30 355 H 39.0225 1.75675 -0.723759 0
M  V30 356 H 37.1725 3.83274 0.635065 0
M  V30 357 H 38.8445 4.17989 -1.95148 0
M  V30 358 H 37.0875 3.90085 -1.8978 0
M  V30 359 H 37.7585 5.38478 -1.21431 0
M  V30 360 H 40.2345 4.15243 0.266965 0
M  V30 361 H 39.1105 5.43124 0.794221 0
M  V30 362 H 39.3715 4.02915 1.81966 0
M  V30 363 N 38.4306 0.297415 1.54768 0
M  V30 364 C 39.8416 -0.195947 1.85669 0
M  V30 365 C 40.1926 -1.53707 1.21937 0
M  V30 366 O 39.3176 -2.10164 0.515754 0
M  V30 367 C 39.9126 -0.362318 3.36857 0
M  V30 368 C 38.4716 -0.799901 3.67802 0
M  V30 369 C 37.6186 0.0938578 2.77141 0
M  V30 370 H 40.5696 0.518538 1.4999 0
M  V30 371 H 40.5906 -1.19745 3.61167 0
M  V30 372 H 40.1026 0.613921 3.83214 0
M  V30 373 H 38.2036 -1.78682 3.26961 0
M  V30 374 H 38.3166 -0.621773 4.75048 0
M  V30 375 H 36.6806 -0.426254 2.51108 0
M  V30 376 H 37.4636 1.06639 3.26318 0
M  V30 377 N 39.9087 -1.5758 0.0250728 0
M  V30 378 C 40.8187 -2.1343 -0.973905 0
M  V30 379 C 41.8347 -1.08556 -1.35984 0
M  V30 380 O 43.0107 -1.40592 -1.44207 0
M  V30 381 C 40.0757 -2.64703 -2.23904 0
M  V30 382 C 39.1367 -3.84276 -1.91391 0
M  V30 383 C 38.3697 -4.33095 -3.11873 0
M  V30 384 O 38.5927 -3.81107 -4.24398 0
M  V30 385 O 37.5267 -5.24984 -2.94406 0
M  V30 386 H 41.3527 -2.99057 -0.529036 0
M  V30 387 H 38.9377 -1.48118 -0.195288 0
M  V30 388 H 40.8197 -2.97769 -2.98181 0
M  V30 389 H 39.4947 -1.82161 -2.6758 0
M  V30 390 H 38.4017 -3.56143 -1.14511 0
M  V30 391 H 39.7347 -4.67968 -1.52534 0
M  V30 392 N 41.3868 0.248026 -1.55636 0
M  V30 393 C 42.6148 0.993808 -1.81469 0
M  V30 394 C 43.0298 1.78991 -0.60064 0
M  V30 395 O 42.3868 1.77345 0.430682 0
M  V30 396 C 42.4378 1.93258 -3.05506 0
M  V30 397 O 42.1588 1.16869 -4.22224 0
M  V30 398 C 43.6598 2.79444 -3.4413 0
M  V30 399 H 40.8798 0.292486 -0.603898 0
M  V30 400 H 43.4238 0.271253 -2.02693 0
M  V30 401 H 41.5788 2.60943 -2.86335 0
M  V30 402 H 41.9928 1.80359 -4.92515 0
M  V30 403 H 43.4668 3.41066 -4.34026 0
M  V30 404 H 43.9438 3.50499 -2.64665 0
M  V30 405 H 44.5498 2.17214 -3.65648 0
M  V30 406 N 42.8649 1.48995 0.513639 0
M  V30 407 C 44.1129 1.57531 1.26604 0
M  V30 408 C 44.4339 0.258236 1.93283 0
M  V30 409 O 43.7039 -0.721502 1.8213 0
M  V30 410 H 42.2839 0.580387 0.470276 0
M  V30 411 H 44.9459 1.85552 0.596373 0
M  V30 412 H 44.0419 2.36486 2.03669 0
M  V30 413 N 44.343 -0.763751 1.37857 0
M  V30 414 C 45.754 -1.3405 1.29952 0
M  V30 415 C 46.105 -1.96138 -0.0492898 0
M  V30 416 O 45.23 -1.94372 -0.951239 0
M  V30 417 C 45.825 -2.43729 2.35333 0
M  V30 418 C 44.384 -2.97151 2.31037 0
M  V30 419 C 43.531 -1.70438 2.18738 0
M  V30 420 H 46.482 -0.563396 1.48363 0
M  V30 421 H 46.503 -3.23412 2.00462 0
M  V30 422 H 46.015 -1.9851 3.33489 0
M  V30 423 H 44.116 -3.46724 1.3643 0
M  V30 424 H 44.229 -3.52221 3.24772 0
M  V30 425 H 42.593 -1.93673 1.65418 0
M  V30 426 H 43.376 -1.27312 3.18821 0
M  V30 427 N 45.8211 -1.22559 -0.990812 0
M  V30 428 C 46.7841 -0.998863 -2.0629 0
M  V30 429 C 47.7841 0.0354834 -1.60761 0
M  V30 430 O 48.9741 -0.203231 -1.7301 0
M  V30 431 C 46.1061 -0.509203 -3.37076 0
M  V30 432 H 47.2991 -1.95014 -2.27837 0
M  V30 433 H 44.8521 -1.04456 -1.16269 0
M  V30 434 H 45.5871 0.446335 -3.21214 0
M  V30 435 H 45.3721 -1.25547 -3.71457 0
M  V30 436 H 46.8621 -0.370888 -4.1595 0
M  V30 437 N 47.2992 1.18797 -1.03562 0
M  V30 438 C 48.5482 1.87978 -0.731235 0
M  V30 439 C 48.8612 1.80911 0.743671 0
M  V30 440 O 50.0672 2.45407 1.16137 0
M  V30 441 C 48.5232 3.3721 -1.25768 0
M  V30 442 C 48.1312 3.52818 -2.76085 0
M  V30 443 C 49.8752 4.11825 -1.0296 0
M  V30 444 C 47.7822 4.9598 -3.22114 0
M  V30 445 H 46.7122 0.704063 -0.269835 0
M  V30 446 H 49.3632 1.34266 -1.25079 0
M  V30 447 H 47.7452 3.90359 -0.666011 0
M  V30 448 H 48.9192 3.09965 -3.40966 0
M  V30 449 H 47.2342 2.91602 -2.97249 0
M  V30 450 H 49.8312 5.17411 -1.34869 0
M  V30 451 H 50.1742 4.16287 0.0333546 0
M  V30 452 H 50.7072 3.64833 -1.58562 0
M  V30 453 H 47.4462 4.96684 -4.27768 0
M  V30 454 H 46.9662 5.39569 -2.61965 0
M  V30 455 H 48.6452 5.6467 -3.15844 0
M  V30 456 N 48.7773 0.814389 1.34928 0
M  V30 457 C 49.7073 0.244827 2.32213 0
M  V30 458 C 50.6883 -0.634024 1.57842 0
M  V30 459 O 51.8733 -0.562676 1.8587 0
M  V30 460 C 49.0033 -0.601106 3.42058 0
M  V30 461 C 47.9573 0.179896 4.27622 0
M  V30 462 C 47.2833 -0.788237 5.28858 0
M  V30 463 C 48.5833 1.38329 5.03649 0
M  V30 464 H 50.2773 1.05763 2.80097 0
M  V30 465 H 47.8233 0.510029 1.34665 0
M  V30 466 H 49.7763 -1.00968 4.09125 0
M  V30 467 H 48.5003 -1.44688 2.92802 0
M  V30 468 H 47.1593 0.569739 3.62146 0
M  V30 469 H 46.8073 -1.62973 4.75866 0
M  V30 470 H 46.5073 -0.269942 5.8698 0
M  V30 471 H 48.0313 -1.19485 5.98795 0
M  V30 472 H 49.4453 1.04918 5.63618 0
M  V30 473 H 47.8423 1.83662 5.71304 0
M  V30 474 H 48.9123 2.16592 4.33839 0
M  V30 475 N 50.2554 -1.46986 0.568584 0
M  V30 476 C 51.1854 -2.32946 -0.160753 0
M  V30 477 C 52.1664 -1.44487 -0.897631 0
M  V30 478 O 53.3514 -1.73327 -0.875867 0
M  V30 479 C 50.4814 -3.26494 -1.18403 0
M  V30 480 C 49.4354 -4.24282 -0.562895 0
M  V30 481 C 48.7614 -5.07236 -1.69163 0
M  V30 482 C 50.0614 -5.19989 0.490761 0
M  V30 483 H 51.7554 -2.94175 0.556916 0
M  V30 484 H 49.3014 -1.4146 0.26927 0
M  V30 485 H 51.2544 -3.85477 -1.70251 0
M  V30 486 H 49.9784 -2.63343 -1.93179 0
M  V30 487 H 48.6374 -3.66541 -0.0656164 0
M  V30 488 H 48.2854 -4.4048 -2.42871 0
M  V30 489 H 47.9854 -5.7345 -1.28174 0
M  V30 490 H 49.5094 -5.6908 -2.21314 0
M  V30 491 H 50.9234 -5.73271 0.0579047 0
M  V30 492 H 49.3204 -5.94469 0.820165 0
M  V30 493 H 50.3904 -4.64777 1.3824 0
M  V30 494 N 51.7335 -0.305618 -1.54608 0
M  V30 495 C 53.0105 0.355652 -1.92339 0
M  V30 496 C 53.3905 1.71324 -1.23335 0
M  V30 497 O 52.7385 2.25473 -0.370702 0
M  V30 498 C 52.9485 0.46572 -3.45879 0
M  V30 499 C 54.2965 0.734426 -4.182 0
M  V30 500 O 55.3205 0.54935 -3.51938 0
M  V30 501 O 54.1795 1.09024 -5.35515 0
M  V30 502 H 51.2735 0.199666 -0.802535 0
M  V30 503 H 53.8195 -0.354017 -1.65966 0
M  V30 504 H 52.5915 -0.488461 -3.88239 0
M  V30 505 H 52.2145 1.22367 -3.78301 0
M  V30 506 N 53.2116 1.57565 -0.0334293 0
M  V30 507 C 54.4596 1.91598 0.642999 0
M  V30 508 C 54.7806 0.910847 1.7242 0
M  V30 509 O 54.0506 -0.0469931 1.95844 0
M  V30 510 H 52.6306 0.707228 0.240496 0
M  V30 511 H 55.2926 1.94726 -0.0822488 0
M  V30 512 H 54.3886 2.92336 1.09298 0
M  V30 513 N 54.6897 -0.239769 1.55765 0
M  V30 514 C 55.9197 -0.982743 1.8173 0
M  V30 515 C 56.3277 -1.7917 0.607835 0
M  V30 516 O 55.6707 -1.78525 -0.432973 0
M  V30 517 C 55.7327 -1.96332 3.01155 0
M  V30 518 C 55.3967 -1.34062 4.36894 0
M  V30 519 C 56.3937 -0.739539 5.14613 0
M  V30 520 C 54.0787 -1.35784 4.83599 0
M  V30 521 C 56.0727 -0.163989 6.37189 0
M  V30 522 C 53.7597 -0.778441 6.06122 0
M  V30 523 C 54.7577 -0.182548 6.82756 0
M  V30 524 O 54.4457 0.387887 8.02964 0
M  V30 525 H 54.1777 -0.294481 0.608487 0
M  V30 526 H 56.7317 -0.26572 2.03674 0
M  V30 527 H 54.9617 -2.71884 2.74984 0
M  V30 528 H 56.6507 -2.57032 3.14149 0
M  V30 529 H 57.4167 -0.718687 4.79646 0
M  V30 530 H 53.2957 -1.81105 4.23936 0
M  V30 531 H 56.8397 0.301753 6.96947 0
M  V30 532 H 52.7367 -0.796645 6.40565 0
M  V30 533 H 53.5047 0.28044 8.18019 0
M  V30 534 N 56.1678 -1.49265 -0.50573 0
M  V30 535 C 57.3928 -1.62478 -1.28902 0
M  V30 536 C 57.8178 -0.294332 -1.85783 0
M  V30 537 O 57.1758 0.737412 -1.65626 0
M  V30 538 C 57.2238 -2.69268 -2.39848 0
M  V30 539 O 56.3278 -2.28113 -3.43567 0
M  V30 540 H 55.6688 -0.54399 -0.380751 0
M  V30 541 H 58.1988 -1.95421 -0.605952 0
M  V30 542 H 58.2088 -2.91291 -2.85681 0
M  V30 543 H 56.8838 -3.65846 -1.97812 0
M  V30 544 H 55.4608 -2.16401 -3.03685 0
M  V30 545 N 57.6459 0.756429 -1.3826 0
M  V30 546 C 58.8939 1.51248 -1.34047 0
M  V30 547 C 59.2149 1.94875 0.0698372 0
M  V30 548 O 58.4849 1.67436 1.01696 0
M  V30 549 H 57.0649 0.561018 -0.493222 0
M  V30 550 H 59.7269 0.899347 -1.7291 0
M  V30 551 H 58.8229 2.40472 -1.98947 0
M  V30 552 N 59.124 1.23083 0.984299 0
M  V30 553 C 60.535 1.05609 1.5396 0
M  V30 554 C 60.886 -0.377793 1.92528 0
M  V30 555 O 60.011 -1.26398 1.75649 0
M  V30 556 C 60.606 1.91087 2.7977 0
M  V30 557 C 59.165 1.77885 3.31713 0
M  V30 558 C 58.312 1.87028 2.04733 0
M  V30 559 H 61.263 1.36802 0.804419 0
M  V30 560 H 61.284 1.43336 3.5247 0
M  V30 561 H 60.796 2.9544 2.51668 0
M  V30 562 H 58.897 0.762995 3.64704 0
M  V30 563 H 59.01 2.61047 4.01735 0
M  V30 564 H 57.374 1.30565 2.18689 0
M  V30 565 H 58.157 2.92929 1.79017 0
M  V30 566 N 60.6021 -1.18246 1.0419 0
M  V30 567 C 61.5651 -2.20128 0.638452 0
M  V30 568 C 62.5651 -1.57885 -0.304805 0
M  V30 569 O 63.7551 -1.73967 -0.0900369 0
M  V30 570 C 60.8871 -3.4084 -0.0637751 0
M  V30 571 H 62.0801 -2.57336 1.54007 0
M  V30 572 H 59.6331 -1.32152 0.834598 0
M  V30 573 H 60.3681 -3.09166 -0.979136 0
M  V30 574 H 60.1531 -3.8726 0.614198 0
M  V30 575 H 61.6431 -4.16274 -0.332512 0
M  V30 576 N 62.0802 -0.821533 -1.34494 0
M  V30 577 C 63.3102 -0.421272 -2.02259 0
M  V30 578 C 63.7182 0.977047 -1.6202 0
M  V30 579 O 63.0612 1.64348 -0.820703 0
M  V30 580 C 63.1232 -0.44231 -3.56769 0
M  V30 581 C 62.7872 -1.79372 -4.20327 0
M  V30 582 C 63.7842 -2.75435 -4.40944 0
M  V30 583 C 61.4692 -2.08182 -4.57127 0
M  V30 584 C 63.4632 -3.98482 -4.97484 0
M  V30 585 C 61.1502 -3.31489 -5.13379 0
M  V30 586 C 62.1482 -4.26457 -5.33501 0
M  V30 587 O 61.8362 -5.47585 -5.88562 0
M  V30 588 H 61.5682 -0.167473 -0.654927 0
M  V30 589 H 64.1222 -1.11073 -1.72777 0
M  V30 590 H 62.3522 0.303836 -3.85505 0
M  V30 591 H 64.0412 -0.0622925 -4.05852 0
M  V30 592 H 64.8072 -2.54473 -4.12878 0
M  V30 593 H 60.6862 -1.35066 -4.4077 0
M  V30 594 H 64.2302 -4.72618 -5.13106 0
M  V30 595 H 60.1272 -3.52316 -5.40873 0
M  V30 596 H 60.8952 -5.49086 -6.06998 0
M  V30 597 N 63.5583 1.46682 -0.576371 0
M  V30 598 C 64.7833 2.07304 -0.0630475 0
M  V30 599 C 65.2083 1.42329 1.2298 0
M  V30 600 O 64.5663 0.504865 1.74129 0
M  V30 601 C 64.6143 3.60472 0.095895 0
M  V30 602 O 63.7183 3.95927 1.15394 0
M  V30 603 H 63.0593 0.661288 -0.0599463 0
M  V30 604 H 65.5893 1.88417 -0.797511 0
M  V30 605 H 65.5993 4.06865 0.304071 0
M  V30 606 H 64.2743 4.07157 -0.84828 0
M  V30 607 H 62.8513 3.61252 0.924724 0
M  V30 608 N 65.0364 0.313813 1.54444 0
M  V30 609 C 66.3134 -0.345447 1.92525 0
M  V30 610 C 66.6934 -1.70667 1.24242 0
M  V30 611 O 66.0414 -2.25273 0.382654 0
M  V30 612 C 66.2514 -0.44737 3.46121 0
M  V30 613 C 67.5994 -0.712238 4.18584 0
M  V30 614 O 68.6234 -0.530678 3.52225 0
M  V30 615 O 67.4824 -1.06183 5.36085 0
M  V30 616 H 64.5764 -0.195407 0.803583 0
M  V30 617 H 67.1224 0.362813 1.65776 0
M  V30 618 H 65.8944 0.509043 3.87975 0
M  V30 619 H 65.5174 -1.20359 3.78945 0
M  V30 620 N 66.5145 -1.57545 0.0417849 0
M  V30 621 C 67.7425 -1.96624 -0.643928 0
M  V30 622 C 68.1575 -0.918897 -1.64929 0
M  V30 623 O 67.5145 0.0979323 -1.82237 0
M  V30 624 C 67.5655 -3.35781 -1.33914 0
M  V30 625 O 67.2865 -4.365 -0.374048 0
M  V30 626 C 68.7875 -3.89566 -2.1155 0
M  V30 627 H 66.0075 -0.647316 -0.176702 0
M  V30 628 H 68.5515 -2.04229 0.105304 0
M  V30 629 H 66.7065 -3.29357 -2.03968 0
M  V30 630 H 67.1205 -5.17248 -0.869179 0
M  V30 631 H 68.5945 -4.89242 -2.55628 0
M  V30 632 H 69.0715 -3.24488 -2.9598 0
M  V30 633 H 69.6775 -3.99298 -1.46427 0
M  V30 634 N 67.9926 0.231505 -1.5589 0
M  V30 635 C 69.2226 0.973092 -1.82248 0
M  V30 636 C 69.6306 1.78845 -0.617328 0
M  V30 637 O 68.9736 1.78752 0.423499 0
M  V30 638 C 69.0356 1.94732 -3.02192 0
M  V30 639 C 68.6996 1.31743 -4.37599 0
M  V30 640 C 69.6966 0.712238 -5.14998 0
M  V30 641 C 67.3816 1.33218 -4.84312 0
M  V30 642 C 69.3756 0.130195 -6.37267 0
M  V30 643 C 67.0626 0.746286 -6.06526 0
M  V30 644 C 68.0606 0.146337 -6.82843 0
M  V30 645 O 67.7486 -0.430465 -8.02747 0
M  V30 646 H 67.4806 0.29125 -0.61004 0
M  V30 647 H 70.0346 0.254915 -2.03812 0
M  V30 648 H 68.2646 2.70422 -2.76422 0
M  V30 649 H 69.9536 2.55362 -3.15508 0
M  V30 650 H 70.7196 0.69324 -4.8002 0
M  V30 651 H 66.5986 1.78854 -4.24891 0
M  V30 652 H 70.1426 -0.33871 -6.96777 0
M  V30 653 H 66.0396 0.762663 -6.40979 0
M  V30 654 H 66.8076 -0.323818 -8.17859 0
M  V30 655 N 69.4707 1.49531 0.497807 0
M  V30 656 C 70.6957 1.63159 1.28039 0
M  V30 657 C 71.1207 0.30418 1.85624 0
M  V30 658 O 70.4787 -0.728618 1.66015 0
M  V30 659 C 70.5267 2.70537 2.38416 0
M  V30 660 O 69.6307 2.29931 3.42353 0
M  V30 661 H 68.9717 0.546001 0.377861 0
M  V30 662 H 71.5017 1.9574 0.59558 0
M  V30 663 H 71.5117 2.92802 2.84132 0
M  V30 664 H 70.1867 3.6689 1.95869 0
M  V30 665 H 68.7637 2.18009 3.02533 0
M  V30 666 N 70.9488 -0.749086 1.3866 0
M  V30 667 C 72.1738 -1.54344 1.38538 0
M  V30 668 C 72.5988 -1.88088 -0.0216655 0
M  V30 669 O 71.9568 -1.50899 -1.00494 0
M  V30 670 C 72.0048 -2.8164 2.25192 0
M  V30 671 O 71.1088 -3.7698 1.67212 0
M  V30 672 H 70.4498 -0.466654 0.472367 0
M  V30 673 H 72.9798 -0.925355 1.82478 0
M  V30 674 H 72.9898 -3.30519 2.3921 0
M  V30 675 H 71.6648 -2.56411 3.27454 0
M  V30 676 H 70.2418 -3.35699 1.6236 0
M  V30 677 N 72.4269 -1.23603 -0.977757 0
M  V30 678 C 73.3899 -1.02069 -2.05218 0
M  V30 679 C 74.3899 0.0184305 -1.60789 0
M  V30 680 O 75.5799 -0.221569 -1.72785 0
M  V30 681 C 72.7119 -0.544926 -3.36517 0
M  V30 682 H 73.9049 -1.9742 -2.25755 0
M  V30 683 H 71.4579 -1.05684 -1.15155 0
M  V30 684 H 72.1929 0.412241 -3.21669 0
M  V30 685 H 71.9779 -1.2948 -3.70105 0
M  V30 686 H 73.4679 -0.414985 -4.15533 0
M  V30 687 N 73.905 1.17692 -1.04816 0
M  V30 688 C 75.153 1.87488 -0.754497 0
M  V30 689 C 75.474 1.81205 0.720407 0
M  V30 690 O 74.744 1.23544 1.52032 0
M  V30 691 H 73.324 0.694101 -0.276102 0
M  V30 692 H 75.986 1.42793 -1.32651 0
M  V30 693 H 75.082 2.93328 -1.06606 0
M  V30 694 N 75.3831 0.828654 1.34056 0
M  V30 695 C 76.6601 0.341809 1.9259 0
M  V30 696 C 77.0401 -1.17158 1.75605 0
M  V30 697 O 76.3881 -1.98132 1.13824 0
M  V30 698 C 76.5981 0.777453 3.4023 0
M  V30 699 C 77.9461 0.779579 4.17382 0
M  V30 700 O 78.9701 0.7204 3.48839 0
M  V30 701 O 77.8291 0.857996 5.39723 0
M  V30 702 H 74.9231 0.0946085 0.821571 0
M  V30 703 H 77.4691 0.913827 1.42994 0
M  V30 704 H 76.2411 1.8196 3.46419 0
M  V30 705 H 75.8641 0.181444 3.97186 0
M  V30 706 N 76.8612 -1.46375 0.584142 0
M  V30 707 C 78.0862 -2.07268 0.0740405 0
M  V30 708 C 78.5112 -1.42979 -1.22223 0
M  V30 709 O 77.8692 -0.514092 -1.73859 0
M  V30 710 C 77.9172 -3.60518 -0.0767769 0
M  V30 711 O 77.0212 -3.96533 -1.13292 0
M  V30 712 H 76.3622 -0.660961 0.0634524 0
M  V30 713 H 78.8922 -1.87991 0.807492 0
M  V30 714 H 78.9022 -4.07021 -0.282489 0
M  V30 715 H 77.5772 -4.06702 0.86986 0
M  V30 716 H 76.1542 -3.61738 -0.905553 0
M  V30 717 N 78.3393 -0.321999 -1.54275 0
M  V30 718 C 79.5853 0.281461 -2.00837 0
M  V30 719 C 79.9183 1.51909 -1.20985 0
M  V30 720 O 79.1933 1.923 -0.291733 0
M  V30 721 C 79.4763 0.617162 -3.54772 0
M  V30 722 C 79.3293 -0.631064 -4.45351 0
M  V30 723 C 80.6483 1.43542 -4.16033 0
M  V30 724 H 77.7673 0.100826 -0.730071 0
M  V30 725 H 80.4093 -0.438268 -1.84876 0
M  V30 726 H 78.5593 1.23034 -3.68504 0
M  V30 727 H 80.2313 -1.26934 -4.43492 0
M  V30 728 H 78.4743 -1.26025 -4.15091 0
M  V30 729 H 79.1453 -0.351735 -5.50878 0
M  V30 730 H 81.6213 0.917134 -4.05867 0
M  V30 731 H 80.4973 1.63907 -5.23856 0
M  V30 732 H 80.7583 2.43108 -3.69257 0
M  V30 733 N 79.8174 1.5752 -0.0501392 0
M  V30 734 C 81.0474 1.96678 0.632573 0
M  V30 735 C 81.4554 0.926298 1.64974 0
M  V30 736 O 80.7984 -0.09802 1.83438 0
M  V30 737 C 80.8604 3.32068 1.37735 0
M  V30 738 C 80.5244 4.54076 0.516131 0
M  V30 739 C 81.5214 5.19445 -0.217357 0
M  V30 740 C 79.2064 5.00304 0.44736 0
M  V30 741 C 81.2004 6.29378 -1.00807 0
M  V30 742 C 78.8874 6.10114 -0.347038 0
M  V30 743 C 79.8854 6.74512 -1.07344 0
M  V30 744 O 79.5734 7.82211 -1.85477 0
M  V30 745 H 79.3054 0.652193 0.177821 0
M  V30 746 H 81.8594 2.05091 -0.112543 0
M  V30 747 H 80.0894 3.20206 2.16807 0
M  V30 748 H 81.7784 3.55981 1.95019 0
M  V30 749 H 82.5444 4.84689 -0.173688 0
M  V30 750 H 78.4234 4.49971 1.00235 0
M  V30 751 H 81.9674 6.79575 -1.57556 0
M  V30 752 H 77.8644 6.44307 -0.392349 0
M  V30 753 H 78.6324 7.98982 -1.77678 0
M  V30 754 N 81.2955 -0.223234 1.56011 0
M  V30 755 C 82.5235 -0.964812 1.83027 0
M  V30 756 C 82.9385 -1.78013 0.62904 0
M  V30 757 O 82.2955 -1.78008 -0.402414 0
M  V30 758 C 82.3465 -1.88373 3.08542 0
M  V30 759 O 82.0675 -1.10137 4.2403 0
M  V30 760 C 83.5685 -2.73934 3.48533 0
M  V30 761 H 80.7885 -0.282842 0.608475 0
M  V30 762 H 83.3325 -0.238971 2.03099 0
M  V30 763 H 81.4875 -2.56354 2.9045 0
M  V30 764 H 81.9015 -1.72501 4.95322 0
M  V30 765 H 83.3755 -3.34117 4.39397 0
M  V30 766 H 83.8525 -3.46244 2.70207 0
M  V30 767 H 84.4585 -2.11369 3.69057 0
M  V30 768 N 82.7736 -1.49793 -0.48987 0
M  V30 769 C 84.0036 -1.6333 -1.26518 0
M  V30 770 C 84.4116 -0.308392 -1.8667 0
M  V30 771 O 83.7546 0.717512 -1.69108 0
M  V30 772 C 83.8166 -2.6522 -2.4269 0
M  V30 773 C 83.4806 -4.09279 -2.03321 0
M  V30 774 C 84.4776 -4.95738 -1.56652 0
M  V30 775 C 82.1626 -4.55082 -2.12616 0
M  V30 776 C 84.1566 -6.26041 -1.19795 0
M  V30 777 C 81.8436 -5.85396 -1.75371 0
M  V30 778 C 82.8416 -6.707 -1.29036 0
M  V30 779 O 82.5296 -7.98584 -0.92299 0
M  V30 780 H 82.2616 -0.552502 -0.389509 0
M  V30 781 H 84.8156 -1.96642 -0.593381 0
M  V30 782 H 83.0456 -2.27112 -3.12981 0
M  V30 783 H 84.7346 -2.68171 -3.04695 0
M  V30 784 H 85.5006 -4.61575 -1.48908 0
M  V30 785 H 81.3796 -3.88844 -2.47631 0
M  V30 786 H 84.9236 -6.92578 -0.835582 0
M  V30 787 H 80.8206 -6.19085 -1.82768 0
M  V30 788 H 81.5886 -8.11692 -1.05349 0
M  V30 789 N 84.2517 0.741722 -1.39055 0
M  V30 790 C 85.4987 1.50114 -1.35912 0
M  V30 791 C 85.8267 1.94443 0.0470937 0
M  V30 792 O 85.0817 1.66612 1.02659 0
M  V30 793 C 85.3807 2.7592 -2.27163 0
M  V30 794 C 85.0467 2.50493 -3.74919 0
M  V30 795 C 83.7087 2.43267 -4.1518 0
M  V30 796 C 86.0607 2.28585 -4.684 0
M  V30 797 C 83.3887 2.12166 -5.46994 0
M  V30 798 C 85.7407 1.99002 -6.00484 0
M  V30 799 C 84.4047 1.90241 -6.39816 0
M  V30 800 H 83.6747 0.549306 -0.497336 0
M  V30 801 H 86.3217 0.851896 -1.71508 0
M  V30 802 H 84.6267 3.45553 -1.84663 0
M  V30 803 H 86.3237 3.33923 -2.22028 0
M  V30 804 H 82.9137 2.56992 -3.43006 0
M  V30 805 H 87.0977 2.33139 -4.38132 0
M  V30 806 H 82.3537 2.03901 -5.76398 0
M  V30 807 H 86.5277 1.81057 -6.72452 0
M  V30 808 H 84.1547 1.65907 -7.41875 0
M  V30 809 N 85.7298 1.2412 0.971189 0
M  V30 810 C 86.9548 1.10667 1.75407 0
M  V30 811 C 87.3798 -0.337048 1.85056 0
M  V30 812 O 86.7378 -1.24396 1.31892 0
M  V30 813 C 86.7858 1.74726 3.15441 0
M  V30 814 O 85.8898 1.01566 3.99697 0
M  V30 815 H 85.2308 0.387341 0.539317 0
M  V30 816 H 87.7608 1.64358 1.2185 0
M  V30 817 H 87.7708 1.80341 3.6598 0
M  V30 818 H 86.4458 2.79773 3.07734 0
M  V30 819 H 85.0228 1.03713 3.58187 0
M  V30 820 N 87.2079 -1.17134 1.05439 0
M  V30 821 C 88.1709 -2.19439 0.661764 0
M  V30 822 C 89.1709 -1.58199 -0.288042 0
M  V30 823 O 90.3609 -1.74053 -0.0715803 0
M  V30 824 C 87.4929 -3.40889 -0.0276209 0
M  V30 825 H 88.6859 -2.55688 1.56728 0
M  V30 826 H 86.2389 -1.31259 0.848567 0
M  V30 827 H 86.9739 -3.10187 -0.94629 0
M  V30 828 H 86.7589 -3.86586 0.655238 0
M  V30 829 H 88.2489 -4.16603 -0.288342 0
M  V30 830 N 88.686 -0.835752 -1.33615 0
M  V30 831 C 89.932 -0.430596 -1.98176 0
M  V30 832 C 90.265 1.00684 -1.66061 0
M  V30 833 O 89.54 1.70339 -0.938877 0
M  V30 834 C 89.823 -0.648065 -3.5422 0
M  V30 835 C 89.676 -2.13255 -3.96033 0
M  V30 836 C 90.995 -0.0922113 -4.40003 0
M  V30 837 H 88.114 -0.157924 -0.719881 0
M  V30 838 H 90.756 -1.05069 -1.58305 0
M  V30 839 H 88.906 -0.120237 -3.88314 0
M  V30 840 H 90.578 -2.725 -3.72211 0
M  V30 841 H 88.821 -2.61823 -3.45878 0
M  V30 842 H 89.492 -2.23547 -5.04708 0
M  V30 843 H 91.968 -0.543343 -4.12537 0
M  V30 844 H 90.844 -0.274083 -5.48215 0
M  V30 845 H 91.105 1.00378 -4.30554 0
M  V30 846 N 90.1641 1.46063 -0.591896 0
M  V30 847 C 91.1271 2.28854 0.125973 0
M  V30 848 C 92.1271 1.38903 0.810107 0
M  V30 849 O 93.3171 1.61186 0.66066 0
M  V30 850 C 90.4491 3.19526 1.1881 0
M  V30 851 H 91.6421 2.93802 -0.601717 0
M  V30 852 H 89.1951 1.52325 -0.350254 0
M  V30 853 H 89.9301 2.59345 1.94707 0
M  V30 854 H 89.7151 3.85766 0.701936 0
M  V30 855 H 91.2051 3.81817 1.69132 0
M  V30 856 N 91.6422 0.330177 1.54103 0
M  V30 857 C 92.8902 -0.269871 2.0029 0
M  V30 858 C 93.2112 -1.52133 1.21986 0
M  V30 859 O 92.4812 -1.93212 0.323438 0
M  V30 860 H 91.0612 -0.10271 0.739905 0
M  V30 861 H 93.7232 0.448249 1.89675 0
M  V30 862 H 92.8192 -0.52166 3.07709 0
M  V30 863 N 93.1203 -1.57491 0.0584922 0
M  V30 864 C 94.0523 -2.08916 -0.942694 0
M  V30 865 C 95.0653 -1.0185 -1.27006 0
M  V30 866 O 96.2543 -1.29398 -1.22957 0
M  V30 867 C 93.3543 -2.52341 -2.26224 0
M  V30 868 C 92.5273 -3.82827 -2.1157 0
M  V30 869 C 91.5863 -4.12487 -3.26712 0
M  V30 870 O 90.6123 -4.82295 -3.02292 0
M  V30 871 N 91.8143 -3.64978 -4.5141 0
M  V30 872 H 94.5793 -2.95437 -0.503722 0
M  V30 873 H 92.1403 -1.61397 -0.12757 0
M  V30 874 H 94.1323 -2.69254 -3.02133 0
M  V30 875 H 92.7023 -1.7103 -2.61663 0
M  V30 876 H 91.9223 -3.75425 -1.20208 0
M  V30 877 H 93.2103 -4.68263 -1.99015 0
M  V30 878 H 92.6083 -3.08558 -4.7414 0
M  V30 879 H 91.1653 -3.87115 -5.2439 0
M  V30 880 N 94.5984 0.214957 -1.56127 0
M  V30 881 C 95.8754 0.963093 -1.70247 0
M  V30 882 C 96.2554 2.02166 -0.60764 0
M  V30 883 O 95.6034 2.25244 0.384385 0
M  V30 884 C 95.8134 1.56756 -3.11815 0
M  V30 885 C 97.1614 2.0573 -3.7143 0
M  V30 886 O 98.1854 1.66637 -3.14818 0
M  V30 887 O 97.0444 2.77603 -4.70743 0
M  V30 888 H 94.1384 0.450321 -0.693643 0
M  V30 889 H 96.6844 0.206219 -1.68442 0
M  V30 890 H 95.4564 0.803533 -3.82961 0
M  V30 891 H 95.0794 2.3898 -3.17765 0
M  V30 892 N 96.0765 1.50051 0.48192 0
M  V30 893 C 97.3245 1.60181 1.23234 0
M  V30 894 C 97.6455 0.299176 1.92691 0
M  V30 895 O 96.9155 -0.682708 1.83619 0
M  V30 896 H 95.4955 0.590232 0.457859 0
M  V30 897 H 98.1575 1.86775 0.556881 0
M  V30 898 H 97.2535 2.40753 1.98607 0
M  V30 899 N 97.5546 -0.734337 1.39446 0
M  V30 900 C 98.4646 -1.87879 1.40495 0
M  V30 901 C 99.4806 -1.714 0.299672 0
M  V30 902 O 100.657 -1.93991 0.541249 0
M  V30 903 C 97.7216 -3.23477 1.24754 0
M  V30 904 C 96.7826 -3.52344 2.45259 0
M  V30 905 C 96.0156 -4.81473 2.30259 0
M  V30 906 O 96.2386 -5.55237 1.30643 0
M  V30 907 O 95.1726 -5.10254 3.19256 0
M  V30 908 H 98.9986 -1.89949 2.36966 0
M  V30 909 H 96.5836 -0.882243 1.20569 0
M  V30 910 H 98.4656 -4.04509 1.18111 0
M  V30 911 H 97.1406 -3.22176 0.313781 0
M  V30 912 H 96.0476 -2.71396 2.57478 0
M  V30 913 H 97.3806 -3.58426 3.37331 0
M  V30 914 N 99.0327 -1.24633 -0.964593 0
M  V30 915 C 100.279 -1.08949 -1.71049 0
M  V30 916 C 100.612 0.370302 -1.90637 0
M  V30 917 O 99.8867 1.27349 -1.47011 0
M  V30 918 C 100.17 -1.83329 -3.0994 0
M  V30 919 C 100.023 -3.37077 -2.97824 0
M  V30 920 C 101.342 -1.60846 -4.09654 0
M  V30 921 H 98.4607 -0.397178 -0.620821 0
M  V30 922 H 101.103 -1.5334 -1.12191 0
M  V30 923 H 99.2527 -1.45597 -3.60186 0
M  V30 924 H 100.925 -3.84425 -2.5498 0
M  V30 925 H 99.1677 -3.65298 -2.33965 0
M  V30 926 H 99.8387 -3.84324 -3.96231 0
M  V30 927 H 102.315 -1.93674 -3.68279 0
M  V30 928 H 101.191 -2.1534 -5.04896 0
M  V30 929 H 101.452 -0.547434 -4.38698 0
M  V30 930 N 100.511 1.16574 -1.06058 0
M  V30 931 C 101.788 1.83048 -0.689416 0
M  V30 932 C 102.168 1.94122 0.829443 0
M  V30 933 O 101.516 1.48249 1.7388 0
M  V30 934 C 101.726 3.20186 -1.38859 0
M  V30 935 C 103.074 3.95989 -1.53226 0
M  V30 936 O 104.098 3.29696 -1.3483 0
M  V30 937 O 102.957 5.14813 -1.83384 0
M  V30 938 H 100.051 0.790258 -0.243764 0
M  V30 939 H 102.597 1.23797 -1.16071 0
M  V30 940 H 101.369 3.07146 -2.4244 0
M  V30 941 H 100.992 3.87112 -0.907216 0
M  V30 942 N 101.989 0.842826 1.3317 0
M  V30 943 C 102.952 0.284065 2.27433 0
M  V30 944 C 103.952 -0.54948 1.5112 0
M  V30 945 O 105.142 -0.362699 1.70382 0
M  V30 946 C 102.274 -0.599384 3.35589 0
M  V30 947 H 103.467 1.11589 2.78366 0
M  V30 948 H 101.02 0.616221 1.4364 0
M  V30 949 H 101.755 -1.45349 2.89904 0
M  V30 950 H 101.54 -0.00291266 3.921 0
M  V30 951 H 103.03 -0.983488 4.05854 0
M  V30 952 N 103.467 -1.45747 0.599634 0
M  V30 953 C 104.377 -2.34262 -0.125888 0
M  V30 954 C 105.393 -1.50768 -0.868625 0
M  V30 955 O 106.569 -1.83592 -0.828003 0
M  V30 956 C 103.634 -3.28252 -1.11587 0
M  V30 957 C 102.695 -4.27651 -0.375956 0
M  V30 958 C 101.928 -5.1715 -1.31877 0
M  V30 959 O 102.151 -5.09916 -2.55621 0
M  V30 960 O 101.085 -5.96286 -0.820157 0
M  V30 961 H 104.911 -2.97688 0.601315 0
M  V30 962 H 102.496 -1.44999 0.359934 0
M  V30 963 H 104.378 -3.86191 -1.68626 0
M  V30 964 H 103.053 -2.67401 -1.82424 0
M  V30 965 H 101.96 -3.7335 0.236698 0
M  V30 966 H 103.293 -4.91334 0.29177 0
M  V30 967 N 104.945 -0.338344 -1.53925 0
M  V30 968 C 105.855 0.529421 -2.28548 0
M  V30 969 C 106.871 1.11645 -1.3346 0
M  V30 970 O 108.047 1.13325 -1.66492 0
M  V30 971 C 105.112 1.66713 -3.03987 0
M  V30 972 C 104.173 1.11041 -4.14691 0
M  V30 973 C 103.406 2.19389 -4.86522 0
M  V30 974 O 103.629 3.40013 -4.57982 0
M  V30 975 O 102.563 1.83976 -5.73094 0
M  V30 976 H 106.389 -0.0770399 -3.03602 0
M  V30 977 H 103.974 -0.103555 -1.49041 0
M  V30 978 H 105.856 2.32918 -3.5118 0
M  V30 979 H 104.531 2.25949 -2.31794 0
M  V30 980 H 103.438 0.413024 -3.71813 0
M  V30 981 H 104.771 0.562975 -4.8897 0
M  V30 982 N 106.423 1.57458 -0.0668435 0
M  V30 983 C 107.353 2.15468 0.899764 0
M  V30 984 C 108.334 1.08042 1.31381 0
M  V30 985 O 109.519 1.36054 1.38574 0
M  V30 986 C 106.649 2.71232 2.16911 0
M  V30 987 C 105.603 3.83781 1.89463 0
M  V30 988 C 104.929 4.26127 3.22986 0
M  V30 989 C 106.229 5.08238 1.20381 0
M  V30 990 H 107.923 2.96488 0.416529 0
M  V30 991 H 105.469 1.4262 0.198908 0
M  V30 992 H 107.422 3.10458 2.84945 0
M  V30 993 H 106.146 1.87426 2.67468 0
M  V30 994 H 104.805 3.45051 1.23836 0
M  V30 995 H 104.453 3.39249 3.71374 0
M  V30 996 H 104.153 5.01993 3.05413 0
M  V30 997 H 105.677 4.67966 3.92225 0
M  V30 998 H 107.091 5.44811 1.78475 0
M  V30 999 H 105.488 5.89349 1.13083 0
M  V30 1000 H 106.558 4.84558 0.182153 0
M  V30 1001 N 107.901 -0.206675 1.56239 0
M  V30 1002 C 108.833 -1.27997 1.9013 0
M  V30 1003 C 109.846 -1.42299 0.790883 0
M  V30 1004 O 111.035 -1.42931 1.06925 0
M  V30 1005 C 108.135 -2.65368 2.10792 0
M  V30 1006 C 107.308 -2.72824 3.41886 0
M  V30 1007 C 106.367 -3.9131 3.51799 0
M  V30 1008 O 105.393 -3.78953 4.24716 0
M  V30 1009 N 106.595 -5.06265 2.84035 0
M  V30 1010 H 109.36 -0.992444 2.82791 0
M  V30 1011 H 106.921 -0.396652 1.56966 0
M  V30 1012 H 108.913 -3.43039 2.14724 0
M  V30 1013 H 107.483 -2.86657 1.24685 0
M  V30 1014 H 106.703 -1.81515 3.49923 0
M  V30 1015 H 107.991 -2.74786 4.28217 0
M  V30 1016 H 107.389 -5.19203 2.246 0
M  V30 1017 H 105.946 -5.81925 2.93609 0
M  V30 1018 N 109.379 -1.50304 -0.473955 0
M  V30 1019 C 110.795 -1.37667 -0.807466 0
M  V30 1020 C 110.995 -0.430555 -1.96846 0
M  V30 1021 O 110.051 0.127874 -2.52176 0
M  V30 1022 C 111.364 -2.78974 -1.12223 0
M  V30 1023 C 112.912 -2.87868 -1.22885 0
M  V30 1024 C 113.387 -4.30003 -1.57676 0
M  V30 1025 N 114.878 -4.3294 -1.64673 0
M  V30 1026 C 115.613 -5.3991 -1.93091 0
M  V30 1027 N 115.109 -6.57092 -2.1955 0
M  V30 1028 N 116.902 -5.27351 -1.94569 0
M  V30 1029 H 109.053 -2.10394 0.291212 0
M  V30 1030 H 111.316 -0.945575 0.0677609 0
M  V30 1031 H 111.022 -3.50031 -0.342229 0
M  V30 1032 H 110.896 -3.16038 -2.05913 0
M  V30 1033 H 113.283 -2.17032 -1.99953 0
M  V30 1034 H 113.364 -2.54352 -0.271814 0
M  V30 1035 H 113.008 -5.01375 -0.81149 0
M  V30 1036 H 112.938 -4.61004 -2.54525 0
M  V30 1037 H 115.429 -3.48441 -1.46277 0
M  V30 1038 H 115.742 -7.34425 -2.405 0
M  V30 1039 H 114.087 -6.60272 -2.16948 0
M  V30 1040 H 117.278 -4.34801 -1.73394 0
M  V30 1041 H 117.451 -6.10805 -2.16381 0
M  V30 1042 N 110.857 0.726932 -1.39834 0
M  V30 1043 C 112.097 1.4992 -1.38936 0
M  V30 1044 C 112.461 1.91996 0.0126883 0
M  V30 1045 O 113.662 2.68399 0.146715 0
M  V30 1046 C 111.933 2.70013 -2.34153 0
M  V30 1047 S 113.492 3.59563 -2.51515 0
M  V30 1048 H 110.31 0.51271 -0.492595 0
M  V30 1049 H 112.912 0.85107 -1.76003 0
M  V30 1050 H 111.616 2.37254 -3.34871 0
M  V30 1051 H 111.147 3.39748 -1.98331 0
M  V30 1052 H 113.162 4.63973 -1.75909 0
M  V30 1053 N 112.336 1.25143 0.95797 0
M  V30 1054 C 113.266 1.07711 2.07173 0
M  V30 1055 C 114.247 -0.0128462 1.70095 0
M  V30 1056 O 115.432 0.156061 1.93572 0
M  V30 1057 C 112.562 0.691503 3.40346 0
M  V30 1058 C 111.516 1.73132 3.9142 0
M  V30 1059 C 110.842 1.20049 5.21049 0
M  V30 1060 C 112.142 3.1294 4.1817 0
M  V30 1061 H 113.836 2.00873 2.22014 0
M  V30 1062 H 111.382 0.967191 1.06684 0
M  V30 1063 H 113.335 0.556505 4.17709 0
M  V30 1064 H 112.059 -0.275819 3.25433 0
M  V30 1065 H 110.718 1.8547 3.16222 0
M  V30 1066 H 110.366 0.223499 5.02503 0
M  V30 1067 H 110.066 1.89545 5.56189 0
M  V30 1068 H 111.59 1.07782 6.01012 0
M  V30 1069 H 113.004 3.03775 4.86203 0
M  V30 1070 H 111.401 3.79875 4.64559 0
M  V30 1071 H 112.471 3.6025 3.24573 0
M  V30 1072 N 113.814 -1.1601 1.06675 0
M  V30 1073 C 115.042 -1.90527 0.806667 0
M  V30 1074 C 115.457 -1.77643 -0.639396 0
M  V30 1075 O 114.814 -1.12369 -1.43803 0
M  V30 1076 C 114.865 -3.41106 1.19705 0
M  V30 1077 O 114.586 -3.53608 2.58636 0
M  V30 1078 C 116.087 -4.32663 0.965266 0
M  V30 1079 H 113.307 -0.604053 0.292166 0
M  V30 1080 H 115.851 -1.47026 1.4214 0
M  V30 1081 H 114.006 -3.82296 0.626774 0
M  V30 1082 H 114.42 -4.47011 2.74375 0
M  V30 1083 H 115.894 -5.36763 1.288 0
M  V30 1084 H 116.371 -4.39089 -0.0987936 0
M  V30 1085 H 116.977 -3.97206 1.52011 0
M  V30 1086 N 115.292 -0.849877 -1.32721 0
M  V30 1087 C 116.224 -0.248332 -2.27851 0
M  V30 1088 C 117.237 0.577218 -1.52224 0
M  V30 1089 O 118.426 0.402489 -1.73903 0
M  V30 1090 C 115.526 0.668107 -3.32249 0
M  V30 1091 C 114.699 -0.120534 -4.37234 0
M  V30 1092 C 113.758 0.720932 -5.21238 0
M  V30 1093 O 112.784 0.156166 -5.68986 0
M  V30 1094 N 113.986 2.03647 -5.43607 0
M  V30 1095 H 116.751 -1.06575 -2.80111 0
M  V30 1096 H 114.312 -0.709395 -1.45531 0
M  V30 1097 H 116.304 1.23627 -3.85355 0
M  V30 1098 H 114.874 1.38621 -2.80184 0
M  V30 1099 H 114.094 -0.870108 -3.84477 0
M  V30 1100 H 115.382 -0.662406 -5.0447 0
M  V30 1101 H 114.78 2.51871 -5.06535 0
M  V30 1102 H 113.337 2.55287 -5.99727 0
M  V30 1103 N 116.77 1.45427 -0.607355 0
M  V30 1104 C 117.995 2.07124 -0.107006 0
M  V30 1105 C 118.42 1.44906 1.19933 0
M  V30 1106 O 117.778 0.541687 1.73019 0
M  V30 1107 C 117.826 3.60595 0.0194119 0
M  V30 1108 O 116.93 3.98285 1.0697 0
M  V30 1109 H 116.271 0.659868 -0.0739597 0
M  V30 1110 H 118.801 1.86683 -0.837297 0
M  V30 1111 H 118.811 4.07419 0.2177 0
M  V30 1112 H 117.486 4.05266 -0.934453 0
M  V30 1113 H 116.063 3.63133 0.847889 0
M  V30 1114 N 118.248 0.346503 1.53744 0
M  V30 1115 C 119.496 -0.248612 2.00565 0
M  V30 1116 C 119.817 -1.5083 1.23593 0
M  V30 1117 O 119.087 -1.92858 0.343912 0
M  V30 1118 H 117.667 -0.0948564 0.740953 0
M  V30 1119 H 120.329 0.468341 1.89189 0
M  V30 1120 H 119.425 -0.488994 3.08245 0
M  V30 1121 N 119.726 -1.57421 0.075193 0
M  V30 1122 C 120.975 -1.92794 -0.592731 0
M  V30 1123 C 121.288 -0.957478 -1.70563 0
M  V30 1124 O 122.494 -1.20417 -2.43335 0
M  V30 1125 C 120.95 -3.42495 -1.10569 0
M  V30 1126 C 120.558 -4.47994 -0.0236121 0
M  V30 1127 C 122.302 -3.86864 -1.74748 0
M  V30 1128 C 120.209 -5.88829 -0.550803 0
M  V30 1129 H 119.139 -0.719591 -0.225177 0
M  V30 1130 H 121.79 -1.82902 0.147978 0
M  V30 1131 H 120.172 -3.47471 -1.89947 0
M  V30 1132 H 121.346 -4.54637 0.751099 0
M  V30 1133 H 119.661 -4.13113 0.522159 0
M  V30 1134 H 122.258 -4.8947 -2.15229 0
M  V30 1135 H 122.601 -3.24417 -2.60882 0
M  V30 1136 H 123.134 -3.84504 -1.01986 0
M  V30 1137 H 119.873 -6.54929 0.273457 0
M  V30 1138 H 119.393 -5.85698 -1.29296 0
M  V30 1139 H 121.072 -6.38811 -1.02613 0
M  V30 1140 N 121.204 0.198386 -1.56346 0
M  V30 1141 C 122.152 1.26538 -1.95169 0
M  V30 1142 C 123.146 1.47295 -0.836685 0
M  V30 1143 O 124.352 1.48195 -1.02167 0
M  V30 1144 H 120.727 0.424744 -0.620561 0
M  V30 1145 H 122.698 0.910904 -2.84157 0
M  V30 1146 C 121.447 2.6035 -2.30463 0
M  V30 1147 H 120.77 2.45192 -3.15786 0
M  V30 1148 H 122.21 3.33762 -2.61494 0
M  V30 1149 C 120.669 3.17096 -1.13806 0
M  V30 1150 O 121.199 3.99588 -0.41135 0
M  V30 1151 N 119.405 2.75795 -0.915736 0
M  V30 1152 H 118.952 2.08816 -1.50843 0
M  V30 1153 H 118.91 3.14101 -0.136979 0
M  V30 1154 N 122.682 1.50554 0.465978 0
M  V30 1155 C 123.93 1.61479 1.21528 0
M  V30 1156 C 124.251 0.319596 1.92363 0
M  V30 1157 O 123.521 -0.663194 1.84333 0
M  V30 1158 H 122.101 0.595055 0.451573 0
M  V30 1159 H 124.763 1.87355 0.53704 0
M  V30 1160 H 123.859 2.42846 1.96042 0
M  V30 1161 N 124.16 -0.719506 1.40217 0
M  V30 1162 C 125.388 -1.50864 1.41589 0
M  V30 1163 C 125.803 -1.88794 0.0145275 0
M  V30 1164 O 125.16 -1.55174 -0.960594 0
M  V30 1165 C 125.211 -2.78646 2.30302 0
M  V30 1166 O 124.932 -2.42321 3.64983 0
M  V30 1167 C 126.433 -3.72569 2.40224 0
M  V30 1168 H 123.653 -0.465709 0.48307 0
M  V30 1169 H 126.197 -0.88785 1.84221 0
M  V30 1170 H 124.352 -3.37019 1.91042 0
M  V30 1171 H 124.766 -3.24514 4.12057 0
M  V30 1172 H 126.24 -4.5908 3.06512 0
M  V30 1173 H 126.717 -4.15403 1.42608 0
M  V30 1174 H 127.323 -3.20109 2.80019 0
M  V30 1175 N 125.638 -1.25649 -0.95132 0
M  V30 1176 C 126.868 -1.13179 -1.72841 0
M  V30 1177 C 127.276 0.316827 -1.86528 0
M  V30 1178 O 126.619 1.22948 -1.3649 0
M  V30 1179 C 126.681 -1.71644 -3.15878 0
M  V30 1180 C 126.345 -3.20667 -3.25609 0
M  V30 1181 C 127.342 -4.17616 -3.09666 0
M  V30 1182 C 125.027 -3.6094 -3.49324 0
M  V30 1183 C 127.021 -5.52817 -3.17289 0
M  V30 1184 C 124.708 -4.96278 -3.56584 0
M  V30 1185 C 125.706 -5.92025 -3.40581 0
M  V30 1186 O 125.394 -7.24899 -3.47528 0
M  V30 1187 H 125.126 -0.395389 -0.54831 0
M  V30 1188 H 127.68 -1.66566 -1.20187 0
M  V30 1189 H 125.91 -1.12707 -3.69911 0
M  V30 1190 H 127.599 -1.54225 -3.75459 0
M  V30 1191 H 128.365 -3.87842 -2.91211 0
M  V30 1192 H 124.244 -2.86907 -3.6084 0
M  V30 1193 H 127.788 -6.2753 -3.04716 0
M  V30 1194 H 123.685 -5.25716 -3.74556 0
M  V30 1195 H 124.453 -7.33039 -3.64138 0
M  V30 1196 N 127.117 1.15442 -1.07289 0
M  V30 1197 C 128.342 1.90638 -0.816828 0
M  V30 1198 C 128.767 1.77445 0.624083 0
M  V30 1199 O 128.125 1.10671 1.43602 0
M  V30 1200 C 128.173 3.39008 -1.22906 0
M  V30 1201 O 127.277 4.10701 -0.373975 0
M  V30 1202 H 126.618 0.593555 -0.297638 0
M  V30 1203 H 129.148 1.46198 -1.43134 0
M  V30 1204 H 129.158 3.89801 -1.20497 0
M  V30 1205 H 127.833 3.47929 -2.27856 0
M  V30 1206 H 126.41 3.70046 -0.460499 0
M  V30 1207 N 128.595 0.856903 1.32268 0
M  V30 1208 C 130.006 0.515711 1.79436 0
M  V30 1209 C 130.357 -0.966586 1.70738 0
M  V30 1210 O 129.482 -1.75409 1.26731 0
M  V30 1211 C 130.077 0.929335 3.25805 0
M  V30 1212 C 128.636 0.640006 3.70919 0
M  V30 1213 C 127.783 1.12784 2.53328 0
M  V30 1214 H 130.734 1.04389 1.19535 0
M  V30 1215 H 130.755 0.246633 3.797 0
M  V30 1216 H 130.267 2.00821 3.32103 0
M  V30 1217 H 128.368 -0.428051 3.70133 0
M  V30 1218 H 128.481 1.20788 4.63624 0
M  V30 1219 H 126.845 0.548033 2.48734 0
M  V30 1220 H 127.628 2.21387 2.62379 0
M  V30 1221 N 130.073 -1.45103 0.615059 0
M  V30 1222 C 131.32 -2.02183 0.113179 0
M  V30 1223 C 131.648 -1.48249 -1.25906 0
M  V30 1224 O 130.903 -0.650265 -1.84581 0
M  V30 1225 C 131.202 -3.57386 0.0318797 0
M  V30 1226 C 130.868 -4.30505 1.34077 0
M  V30 1227 C 129.53 -4.50197 1.69929 0
M  V30 1228 C 131.882 -4.72238 2.20546 0
M  V30 1229 C 129.21 -5.08881 2.91988 0
M  V30 1230 C 131.562 -5.32272 3.41861 0
M  V30 1231 C 130.226 -5.50187 3.77956 0
M  V30 1232 H 129.496 -0.739842 0.0414151 0
M  V30 1233 H 132.143 -1.74073 0.798168 0
M  V30 1234 H 130.448 -3.84817 -0.736409 0
M  V30 1235 H 132.145 -3.99264 -0.372712 0
M  V30 1236 H 128.735 -4.15496 1.05173 0
M  V30 1237 H 132.919 -4.56751 1.94146 0
M  V30 1238 H 128.175 -5.20939 3.2005 0
M  V30 1239 H 132.349 -5.63563 4.09109 0
M  V30 1240 H 129.976 -5.95427 4.72622 0
M  V30 1241 N 131.551 -0.354651 -1.53558 0
M  V30 1242 C 132.776 0.242153 -2.05981 0
M  V30 1243 C 133.201 1.42553 -1.2272 0
M  V30 1244 O 132.559 1.79656 -0.243604 0
M  V30 1245 C 132.607 0.624367 -3.55154 0
M  V30 1246 O 131.711 1.72301 -3.74681 0
M  V30 1247 H 131.052 0.0378432 -0.662921 0
M  V30 1248 H 133.582 -0.512087 -1.98088 0
M  V30 1249 H 133.592 0.898433 -3.97985 0
M  V30 1250 H 132.267 -0.240989 -4.15201 0
M  V30 1251 H 130.844 1.44535 -3.4375 0
M  V30 1252 N 133.029 1.57378 -0.0835403 0
M  V30 1253 C 133.959 2.1641 0.87686 0
M  V30 1254 C 134.94 1.09429 1.30228 0
M  V30 1255 O 136.125 1.37516 1.37124 0
M  V30 1256 C 133.255 2.73517 2.14022 0
M  V30 1257 C 132.209 3.85769 1.85381 0
M  V30 1258 C 131.535 4.29529 3.18448 0
M  V30 1259 C 132.835 5.09486 1.14984 0
M  V30 1260 H 134.529 2.96914 0.385059 0
M  V30 1261 H 132.075 1.42823 0.18377 0
M  V30 1262 H 134.028 3.13463 2.81636 0
M  V30 1263 H 132.752 1.90252 2.65465 0
M  V30 1264 H 131.411 3.46345 1.20169 0
M  V30 1265 H 131.059 3.43169 3.67755 0
M  V30 1266 H 130.759 5.05204 3.00071 0
M  V30 1267 H 132.283 4.72099 3.8724 0
M  V30 1268 H 133.697 5.46674 1.72687 0
M  V30 1269 H 132.094 5.90515 1.06826 0
M  V30 1270 H 133.164 4.84724 0.130749 0
M  V30 1271 N 134.507 -0.190092 1.56449 0
M  V30 1272 C 135.417 -1.25591 1.98152 0
M  V30 1273 C 136.433 -1.49519 0.889944 0
M  V30 1274 O 137.609 -1.62036 1.19609 0
M  V30 1275 C 134.674 -2.57916 2.3169 0
M  V30 1276 C 133.735 -2.42015 3.5458 0
M  V30 1277 C 132.968 -3.6803 3.8651 0
M  V30 1278 O 133.191 -4.72413 3.1966 0
M  V30 1279 O 132.125 -3.6326 4.79923 0
M  V30 1280 H 135.951 -0.931988 2.89046 0
M  V30 1281 H 133.536 -0.395488 1.4407 0
M  V30 1282 H 135.418 -3.36008 2.54316 0
M  V30 1283 H 134.093 -2.89925 1.43963 0
M  V30 1284 H 133 -1.62017 3.37196 0
M  V30 1285 H 134.333 -2.14937 4.4279 0
M  V30 1286 N 135.985 -1.50799 -0.457987 0
M  V30 1287 C 137.213 -1.66218 -1.23203 0
M  V30 1288 C 137.628 -0.350894 -1.85511 0
M  V30 1289 O 136.985 0.668546 -1.69814 0
M  V30 1290 C 137.036 -2.76291 -2.33121 0
M  V30 1291 O 136.757 -4.02338 -1.73366 0
M  V30 1292 C 138.258 -3.028 -3.2377 0
M  V30 1293 H 135.478 -0.558361 -0.372121 0
M  V30 1294 H 138.022 -1.97099 -0.545179 0
M  V30 1295 H 136.177 -2.48068 -2.97558 0
M  V30 1296 H 136.591 -4.63312 -2.4585 0
M  V30 1297 H 138.065 -3.8345 -3.97077 0
M  V30 1298 H 138.542 -2.14385 -3.83322 0
M  V30 1299 H 139.148 -3.32604 -2.65056 0
M  V30 1300 N 137.463 0.71206 -1.40597 0
M  V30 1301 C 138.703 1.48438 -1.40519 0
M  V30 1302 C 139.067 1.91998 -0.00767611 0
M  V30 1303 O 140.268 2.6854 0.118239 0
M  V30 1304 C 138.539 2.67514 -2.37004 0
M  V30 1305 S 140.098 3.56875 -2.55315 0
M  V30 1306 H 136.916 0.507457 -0.498005 0
M  V30 1307 H 139.518 0.832355 -1.76896 0
M  V30 1308 H 138.222 2.33689 -3.37368 0
M  V30 1309 H 137.753 3.37625 -2.01923 0
M  V30 1310 H 139.768 4.62081 -1.8082 0
M  V30 1311 N 138.941 1.26152 0.944643 0
M  V30 1312 C 140.357 1.03189 1.21754 0
M  V30 1313 C 140.557 -0.245112 2.00004 0
M  V30 1314 O 139.613 -0.955176 2.33736 0
M  V30 1315 C 140.926 2.26119 1.98219 0
M  V30 1316 C 142.474 2.30984 2.11224 0
M  V30 1317 C 142.949 3.53597 2.91089 0
M  V30 1318 N 144.44 3.54053 2.98664 0
M  V30 1319 C 145.175 4.45593 3.60881 0
M  V30 1320 N 144.671 5.47416 4.24626 0
M  V30 1321 N 146.464 4.33252 3.58119 0
M  V30 1322 H 138.615 2.08177 0.421437 0
M  V30 1323 H 140.878 0.914723 0.248969 0
M  V30 1324 H 140.584 3.18984 1.48128 0
M  V30 1325 H 140.458 2.3009 2.98895 0
M  V30 1326 H 142.845 1.38635 2.60508 0
M  V30 1327 H 142.926 2.31026 1.09821 0
M  V30 1328 H 142.57 4.46273 2.42493 0
M  V30 1329 H 142.5 3.50802 3.92741 0
M  V30 1330 H 144.991 2.80403 2.53343 0
M  V30 1331 H 145.304 6.13459 4.69987 0
M  V30 1332 H 143.649 5.51278 4.23223 0
M  V30 1333 H 146.84 3.52924 3.0751 0
M  V30 1334 H 147.013 5.04786 4.06319 0
M  V30 1335 N 140.419 -1.14872 1.07899 0
M  V30 1336 C 141.668 -1.85135 0.800499 0
M  V30 1337 C 141.981 -1.83547 -0.676014 0
M  V30 1338 O 143.187 -2.49548 -1.06948 0
M  V30 1339 C 141.643 -3.3231 1.38197 0
M  V30 1340 C 141.251 -3.42329 2.8899 0
M  V30 1341 C 142.995 -4.0772 1.18174 0
M  V30 1342 C 140.902 -4.83684 3.403 0
M  V30 1343 H 139.832 -0.693563 0.29578 0
M  V30 1344 H 142.483 -1.29532 1.29976 0
M  V30 1345 H 140.865 -3.87618 0.810431 0
M  V30 1346 H 142.039 -2.97097 3.52236 0
M  V30 1347 H 140.354 -2.80369 3.07867 0
M  V30 1348 H 142.951 -5.12049 1.5398 0
M  V30 1349 H 143.294 -4.16124 0.12117 0
M  V30 1350 H 143.827 -3.58696 1.71994 0
M  V30 1351 H 140.566 -4.80465 4.45907 0
M  V30 1352 H 140.086 -5.29474 2.81811 0
M  V30 1353 H 141.765 -5.52558 3.36584 0
M  V30 1354 N 141.898 -0.863906 -1.31812 0
M  V30 1355 C 142.831 -0.259963 -2.26714 0
M  V30 1356 C 143.809 0.607392 -1.50829 0
M  V30 1357 O 144.993 0.562155 -1.79922 0
M  V30 1358 C 142.12 0.632456 -3.32743 0
M  V30 1359 C 141.166 -0.162743 -4.26189 0
M  V30 1360 S 141.999 -1.53726 -5.12961 0
M  V30 1361 C 143.155 -0.650803 -6.22507 0
M  V30 1362 H 143.388 -1.06445 -2.77591 0
M  V30 1363 H 140.921 -0.662071 -1.39485 0
M  V30 1364 H 142.879 1.14167 -3.94305 0
M  V30 1365 H 141.54 1.41083 -2.80632 0
M  V30 1366 H 140.733 0.517366 -5.01338 0
M  V30 1367 H 140.335 -0.60385 -3.69093 0
M  V30 1368 H 142.627 0.141134 -6.77353 0
M  V30 1369 H 143.57 -1.37322 -6.94657 0
M  V30 1370 H 143.978 -0.221041 -5.64067 0
M  V30 1371 N 143.376 1.44774 -0.622745 0
M  V30 1372 C 144.625 2.01334 -0.121397 0
M  V30 1373 C 144.938 1.49505 1.26125 0
M  V30 1374 O 146.144 1.98139 1.85616 0
M  V30 1375 C 144.6 3.59516 -0.166298 0
M  V30 1376 C 144.208 4.20342 -1.54974 0
M  V30 1377 C 145.952 4.23582 0.279021 0
M  V30 1378 C 143.859 5.70721 -1.55021 0
M  V30 1379 H 142.789 0.752851 -0.0416172 0
M  V30 1380 H 145.44 1.66083 -0.780309 0
M  V30 1381 H 143.822 3.92027 0.559557 0
M  V30 1382 H 144.996 3.99381 -2.29851 0
M  V30 1383 H 143.311 3.68529 -1.93843 0
M  V30 1384 H 145.908 5.33868 0.298083 0
M  V30 1385 H 146.251 3.95327 1.30471 0
M  V30 1386 H 146.784 3.95843 -0.394063 0
M  V30 1387 H 143.523 6.03698 -2.55399 0
M  V30 1388 H 143.043 5.93829 -0.844245 0
M  V30 1389 H 144.722 6.34203 -1.28047 0
M  V30 1390 N 144.854 0.36279 1.53368 0
M  V30 1391 C 145.817 -0.472679 2.24273 0
M  V30 1392 C 146.817 -1.012 1.24961 0
M  V30 1393 O 148.007 -0.898194 1.49259 0
M  V30 1394 C 145.139 -1.66039 2.97731 0
M  V30 1395 H 146.332 0.14773 2.99536 0
M  V30 1396 H 143.885 0.114434 1.55881 0
M  V30 1397 H 144.62 -2.31896 2.26704 0
M  V30 1398 H 144.405 -1.28066 3.70596 0
M  V30 1399 H 145.895 -2.25252 3.51641 0
M  V30 1400 N 146.332 -1.57332 0.0918853 0
M  V30 1401 C 147.265 -2.09499 -0.904735 0
M  V30 1402 C 148.243 -1.00479 -1.27839 0
M  V30 1403 O 149.427 -1.27954 -1.38419 0
M  V30 1404 C 146.554 -2.56931 -2.2069 0
M  V30 1405 C 145.6 -3.77579 -1.98334 0
M  V30 1406 S 146.433 -5.21317 -1.22428 0
M  V30 1407 C 147.589 -5.72097 -2.53882 0
M  V30 1408 H 147.822 -2.93705 -0.460922 0
M  V30 1409 H 145.355 -1.53923 -0.121332 0
M  V30 1410 H 147.313 -2.84917 -2.95521 0
M  V30 1411 H 145.974 -1.72956 -2.62192 0
M  V30 1412 H 145.167 -4.08824 -2.94752 0
M  V30 1413 H 144.769 -3.5007 -1.31633 0
M  V30 1414 H 147.061 -5.80168 -3.49874 0
M  V30 1415 H 148.004 -6.70654 -2.27219 0
M  V30 1416 H 148.412 -5.00012 -2.62007 0
M  V30 1417 N 147.81 0.181792 -1.56548 0
M  V30 1418 C 148.74 1.22765 -1.98623 0
M  V30 1419 C 149.721 1.46747 -0.860189 0
M  V30 1420 O 150.906 1.58259 -1.12551 0
M  V30 1421 C 148.036 2.56894 -2.33715 0
M  V30 1422 C 146.99 2.475 -3.49182 0
M  V30 1423 C 146.316 3.86023 -3.69986 0
M  V30 1424 C 147.616 1.98866 -4.82959 0
M  V30 1425 H 149.31 0.877942 -2.86239 0
M  V30 1426 H 146.856 0.42088 -1.37712 0
M  V30 1427 H 148.809 3.30253 -2.61746 0
M  V30 1428 H 147.533 2.93632 -1.42997 0
M  V30 1429 H 146.192 1.76596 -3.21262 0
M  V30 1430 H 145.84 4.20136 -2.76576 0
M  V30 1431 H 145.54 3.80609 -4.47672 0
M  V30 1432 H 147.064 4.60984 -4.00407 0
M  V30 1433 H 148.478 2.61992 -5.09934 0
M  V30 1434 H 146.875 2.04424 -5.64208 0
M  V30 1435 H 147.945 0.942465 -4.75653 0
M  V30 1436 N 149.288 1.51039 0.449983 0
M  V30 1437 C 150.565 1.53612 1.21089 0
M  V30 1438 C 150.945 0.292997 2.09057 0
M  V30 1439 O 150.293 -0.72259 2.16774 0
M  V30 1440 C 150.503 2.84337 2.0237 0
M  V30 1441 C 151.851 3.35807 2.59843 0
M  V30 1442 O 152.875 2.85802 2.12593 0
M  V30 1443 O 151.734 4.23029 3.45989 0
M  V30 1444 H 148.828 0.617057 0.550608 0
M  V30 1445 H 151.374 1.63344 0.460082 0
M  V30 1446 H 150.146 3.66278 1.37681 0
M  V30 1447 H 149.769 2.77708 2.84542 0
M  V30 1448 N 150.766 -0.704594 1.40972 0
M  V30 1449 C 152.182 -1.01406 1.23244 0
M  V30 1450 C 152.382 -2.01169 0.115399 0
M  V30 1451 O 151.438 -2.47021 -0.523147 0
M  V30 1452 C 152.751 -1.54728 2.57836 0
M  V30 1453 C 154.299 -1.66658 2.64942 0
M  V30 1454 C 154.774 -2.23383 3.9983 0
M  V30 1455 N 156.265 -2.30756 4.01629 0
M  V30 1456 C 157 -2.75655 5.02794 0
M  V30 1457 N 156.496 -3.20225 6.14352 0
M  V30 1458 N 158.289 -2.75138 4.90159 0
M  V30 1459 H 150.44 -0.0435285 2.12355 0
M  V30 1460 H 152.703 -0.0818951 0.944456 0
M  V30 1461 H 152.409 -0.888832 3.40283 0
M  V30 1462 H 152.283 -2.53084 2.79693 0
M  V30 1463 H 154.67 -2.31617 1.8286 0
M  V30 1464 H 154.751 -0.668717 2.46904 0
M  V30 1465 H 154.395 -1.59043 4.82357 0
M  V30 1466 H 154.325 -3.23904 4.15203 0
M  V30 1467 H 156.816 -1.99291 3.21079 0
M  V30 1468 H 157.129 -3.53084 6.87424 0
M  V30 1469 H 155.474 -3.18156 6.17901 0
M  V30 1470 H 158.665 -2.39661 4.02095 0
M  V30 1471 H 158.838 -3.09812 5.6914 0
M  V30 1472 N 152.244 -1.26651 -0.937939 0
M  V30 1473 C 153.521 -1.0313 -1.66204 0
M  V30 1474 C 153.901 0.437256 -2.06522 0
M  V30 1475 O 153.249 1.41831 -1.79154 0
M  V30 1476 C 153.459 -1.98314 -2.87181 0
M  V30 1477 C 154.807 -2.27107 -3.58758 0
M  V30 1478 O 155.831 -1.96205 -2.97291 0
M  V30 1479 O 154.69 -2.79736 -4.69479 0
M  V30 1480 H 151.784 -0.392384 -0.727986 0
M  V30 1481 H 154.33 -1.37874 -0.989382 0
M  V30 1482 H 153.102 -2.97399 -2.54302 0
M  V30 1483 H 152.725 -1.64068 -3.6217 0
M  V30 1484 N 153.722 1.14298 -1.08507 0
M  V30 1485 C 154.672 2.17449 -0.685569 0
M  V30 1486 C 155.656 1.58167 0.295315 0
M  V30 1487 O 156.848 1.76675 0.107172 0
M  V30 1488 C 153.977 3.43161 -0.0975318 0
M  V30 1489 C 153.063 4.09471 -1.10426 0
M  V30 1490 N 153.454 4.51089 -2.28806 0
M  V30 1491 C 151.752 4.35976 -0.940258 0
M  V30 1492 C 152.453 5.02654 -2.9277 0
M  V30 1493 N 151.429 4.96927 -2.20374 0
M  V30 1494 H 155.231 2.47369 -1.587 0
M  V30 1495 H 152.745 1.30992 -0.959936 0
M  V30 1496 H 154.742 4.16388 0.20664 0
M  V30 1497 H 153.402 3.14719 0.798872 0
M  V30 1498 H 154.413 4.44097 -2.66455 0
M  V30 1499 H 151.09 4.17386 -0.0977441 0
M  V30 1500 H 152.48 5.44723 -3.93352 0
M  V30 1501 N 155.201 0.870884 1.31352 0
M  V30 1502 C 156.429 0.49677 2.00848 0
M  V30 1503 C 156.844 -0.910998 1.65367 0
M  V30 1504 O 156.201 -1.59696 0.883374 0
M  V30 1505 C 156.252 0.645308 3.55694 0
M  V30 1506 O 155.973 1.99764 3.89905 0
M  V30 1507 C 157.474 0.272326 4.42463 0
M  V30 1508 H 154.694 0.193462 0.642506 0
M  V30 1509 H 157.238 1.1723 1.67563 0
M  V30 1510 H 155.393 0.0173176 3.87396 0
M  V30 1511 H 155.807 2.00607 4.84621 0
M  V30 1512 H 157.281 0.427208 5.50344 0
M  V30 1513 H 157.758 -0.788587 4.32062 0
M  V30 1514 H 158.364 0.876054 4.1618 0
M  V30 1515 N 156.679 -1.44442 0.630414 0
M  V30 1516 C 157.927 -2.01653 0.134351 0
M  V30 1517 C 158.248 -1.49836 -1.24796 0
M  V30 1518 O 157.518 -0.701684 -1.82902 0
M  V30 1519 H 156.098 -0.74554 0.0466769 0
M  V30 1520 H 158.76 -1.76952 0.816955 0
M  V30 1521 H 157.856 -3.11935 0.101498 0
M  V30 1522 N 158.157 -0.370918 -1.53173 0
M  V30 1523 C 159.104 0.473035 -2.259 0
M  V30 1524 C 160.074 1.07311 -1.26781 0
M  V30 1525 O 161.259 1.1046 -1.55574 0
M  V30 1526 C 158.399 1.60405 -3.05556 0
M  V30 1527 C 157.512 1.02863 -4.19575 0
M  V30 1528 C 156.647 2.12918 -4.86661 0
M  V30 1529 C 155.686 1.52869 -5.92704 0
M  V30 1530 N 154.823 2.56779 -6.53459 0
M  V30 1531 H 159.663 -0.153649 -2.97604 0
M  V30 1532 H 157.2 -0.0875946 -1.46839 0
M  V30 1533 H 159.158 2.27034 -3.50016 0
M  V30 1534 H 157.788 2.20131 -2.36097 0
M  V30 1535 H 156.84 0.252465 -3.79561 0
M  V30 1536 H 158.152 0.549642 -4.95762 0
M  V30 1537 H 157.306 2.87356 -5.34333 0
M  V30 1538 H 156.045 2.6417 -4.09958 0
M  V30 1539 H 155.05 0.769479 -5.44389 0
M  V30 1540 H 156.275 1.02435 -6.7133 0
M  V30 1541 H 154.221 3.07235 -5.79606 0
M  V30 1542 H 154.138 2.13583 -7.25202 0
M  V30 1543 H 155.406 3.30903 -7.05779 0
M  V30 1544 N 159.635 1.57281 -0.100228 0
M  V30 1545 C 160.568 2.09976 0.893612 0
M  V30 1546 C 161.546 1.01155 1.27304 0
M  V30 1547 O 162.73 1.28687 1.37739 0
M  V30 1548 C 159.857 2.58098 2.19324 0
M  V30 1549 C 158.903 3.78626 1.96328 0
M  V30 1550 S 159.736 5.21959 1.19662 0
M  V30 1551 C 160.892 5.73435 2.50844 0
M  V30 1552 H 161.125 2.93946 0.44534 0
M  V30 1553 H 158.658 1.53985 0.113167 0
M  V30 1554 H 160.616 2.8648 2.94005 0
M  V30 1555 H 159.277 1.74344 2.61272 0
M  V30 1556 H 158.47 4.10382 2.92579 0
M  V30 1557 H 158.072 3.50763 1.29775 0
M  V30 1558 H 160.364 5.82015 3.46792 0
M  V30 1559 H 161.307 6.7185 2.23659 0
M  V30 1560 H 161.715 5.01395 2.59352 0
M  V30 1561 N 161.113 -0.173488 1.56642 0
M  V30 1562 C 162.361 -0.888706 1.81512 0
M  V30 1563 C 162.682 -1.82875 0.676872 0
M  V30 1564 O 161.952 -1.93536 -0.303414 0
M  V30 1565 H 160.532 -0.331164 0.669582 0
M  V30 1566 H 163.194 -0.173823 1.94123 0
M  V30 1567 H 162.29 -1.46691 2.75478 0
M  V30 1568 N 162.591 -1.51276 -0.441967 0
M  V30 1569 C 163.838 -1.63715 -1.19179 0
M  V30 1570 C 164.166 -0.351175 -1.91303 0
M  V30 1571 O 163.421 0.664524 -1.84072 0
M  V30 1572 C 163.72 -2.78746 -2.23686 0
M  V30 1573 C 163.386 -4.18189 -1.68607 0
M  V30 1574 C 162.048 -4.56125 -1.53308 0
M  V30 1575 C 164.4 -5.05222 -1.28062 0
M  V30 1576 C 161.728 -5.78804 -0.959317 0
M  V30 1577 C 164.08 -6.28476 -0.721162 0
M  V30 1578 C 162.744 -6.65188 -0.55504 0
M  V30 1579 H 162.014 -0.599076 -0.436106 0
M  V30 1580 H 164.661 -1.85296 -0.48351 0
M  V30 1581 H 162.966 -2.51369 -3.00535 0
M  V30 1582 H 164.663 -2.8557 -2.81515 0
M  V30 1583 H 161.253 -3.88277 -1.8149 0
M  V30 1584 H 165.437 -4.76524 -1.38704 0
M  V30 1585 H 160.693 -6.05899 -0.81833 0
M  V30 1586 H 164.867 -6.95259 -0.398458 0
M  V30 1587 H 162.494 -7.60123 -0.108311 0
M  V30 1588 N 164.069 0.697108 -1.41344 0
M  V30 1589 C 165.017 1.83237 -1.43272 0
M  V30 1590 C 166.011 1.66522 -0.310947 0
M  V30 1591 O 167.217 1.73402 -0.482899 0
M  V30 1592 H 163.592 0.603802 -0.448249 0
M  V30 1593 H 165.563 1.78727 -2.38954 0
M  V30 1594 C 164.312 3.21245 -1.33029 0
M  V30 1595 H 163.635 3.34723 -2.18633 0
M  V30 1596 H 165.075 4.00763 -1.38439 0
M  V30 1597 C 163.534 3.36873 -0.0424635 0
M  V30 1598 O 164.064 3.91177 0.913421 0
M  V30 1599 N 162.27 2.90581 0.0331145 0
M  V30 1600 H 161.817 2.46577 -0.745506 0
M  V30 1601 H 161.775 3.01416 0.894199 0
M  V30 1602 N 165.547 1.27147 0.931209 0
M  V30 1603 C 166.51 1.09615 2.01289 0
M  V30 1604 C 167.51 0.0412581 1.60747 0
M  V30 1605 O 168.7 0.285545 1.71844 0
M  V30 1606 C 165.832 0.669447 3.34262 0
M  V30 1607 H 167.025 2.05662 2.18273 0
M  V30 1608 H 164.578 1.09885 1.11153 0
M  V30 1609 H 165.313 -0.292572 3.22978 0
M  V30 1610 H 165.098 1.43127 3.65044 0
M  V30 1611 H 166.588 0.568921 4.13706 0
M  V30 1612 N 167.025 -1.13721 1.09112 0
M  V30 1613 C 168.272 -1.84924 0.825192 0
M  V30 1614 C 168.6 -1.83347 -0.649151 0
M  V30 1615 O 167.855 -1.26449 -1.49362 0
M  V30 1616 C 168.154 -3.32861 1.30146 0
M  V30 1617 C 167.82 -3.54621 2.78486 0
M  V30 1618 C 166.482 -3.60268 3.18999 0
M  V30 1619 C 168.834 -3.62855 3.74146 0
M  V30 1620 C 166.162 -3.71679 4.53951 0
M  V30 1621 C 168.514 -3.75793 5.08883 0
M  V30 1622 C 167.178 -3.79692 5.4899 0
M  V30 1623 H 166.448 -0.676684 0.301959 0
M  V30 1624 H 169.095 -1.3428 1.36533 0
M  V30 1625 H 167.4 -3.85835 0.681064 0
M  V30 1626 H 169.097 -3.86395 1.07236 0
M  V30 1627 H 165.687 -3.50879 2.46134 0
M  V30 1628 H 169.871 -3.57775 3.43963 0
M  V30 1629 H 165.127 -3.72963 4.84467 0
M  V30 1630 H 169.301 -3.81107 5.82864 0
M  V30 1631 H 166.928 -3.88287 6.53558 0
M  V30 1632 N 168.503 -0.877838 -1.30888 0
M  V30 1633 C 169.45 -0.337538 -2.28318 0
M  V30 1634 C 170.42 0.568346 -1.56074 0
M  V30 1635 O 171.605 0.498298 -1.84178 0
M  V30 1636 C 168.745 0.448142 -3.42178 0
M  V30 1637 C 167.858 -0.48615 -4.29256 0
M  V30 1638 C 166.993 0.314427 -5.30269 0
M  V30 1639 C 166.032 -0.615791 -6.08995 0
M  V30 1640 N 165.169 0.14902 -7.01942 0
M  V30 1641 H 170.009 -1.17356 -2.73919 0
M  V30 1642 H 167.546 -0.590094 -1.34745 0
M  V30 1643 H 169.504 0.919517 -4.06941 0
M  V30 1644 H 168.134 1.24879 -2.97666 0
M  V30 1645 H 167.186 -1.076 -3.64865 0
M  V30 1646 H 168.498 -1.19909 -4.84173 0
M  V30 1647 H 167.652 0.847969 -6.00745 0
M  V30 1648 H 166.391 1.06062 -4.76027 0
M  V30 1649 H 165.396 -1.16102 -5.37401 0
M  V30 1650 H 166.621 -1.36097 -6.65323 0
M  V30 1651 H 164.567 0.877884 -6.50099 0
M  V30 1652 H 164.484 -0.504433 -7.54315 0
M  V30 1653 H 165.752 0.663537 -7.76671 0
M  V30 1654 N 169.982 1.44106 -0.638065 0
M  V30 1655 C 170.892 2.34513 0.0637334 0
M  V30 1656 C 171.908 1.53018 0.828346 0
M  V30 1657 O 173.084 1.85723 0.779036 0
M  V30 1658 C 170.149 3.31095 1.02844 0
M  V30 1659 C 169.21 4.28497 0.26244 0
M  V30 1660 C 168.443 5.20465 1.1812 0
M  V30 1661 O 168.666 5.16514 2.42011 0
M  V30 1662 O 167.6 5.98251 0.661774 0
M  V30 1663 H 171.426 2.95989 -0.68003 0
M  V30 1664 H 169.011 1.43994 -0.398252 0
M  V30 1665 H 170.893 3.90526 1.58327 0
M  V30 1666 H 169.568 2.72144 1.7527 0
M  V30 1667 H 168.475 3.72592 -0.335602 0
M  V30 1668 H 169.808 4.90388 -0.421936 0
M  V30 1669 N 171.46 0.379036 1.52974 0
M  V30 1670 C 172.39 -0.452706 2.29069 0
M  V30 1671 C 173.371 -1.07237 1.32039 0
M  V30 1672 O 174.556 -1.08708 1.60923 0
M  V30 1673 C 171.686 -1.5856 3.08992 0
M  V30 1674 C 170.64 -1.0925 4.13822 0
M  V30 1675 C 169.966 -2.31668 4.81907 0
M  V30 1676 C 171.266 -0.167702 5.22031 0
M  V30 1677 H 172.96 0.182181 2.98845 0
M  V30 1678 H 170.506 0.0890592 1.43724 0
M  V30 1679 H 172.459 -2.1742 3.6098 0
M  V30 1680 H 171.183 -2.24792 2.36931 0
M  V30 1681 H 169.842 -0.526494 3.628 0
M  V30 1682 H 169.49 -2.96386 4.06404 0
M  V30 1683 H 169.19 -1.9934 5.52754 0
M  V30 1684 H 170.714 -2.91189 5.36695 0
M  V30 1685 H 172.128 -0.664186 5.6944 0
M  V30 1686 H 170.525 0.0653265 6.00064 0
M  V30 1687 H 171.595 0.786347 4.78482 0
M  V30 1688 N 172.938 -1.57226 0.108567 0
M  V30 1689 C 174.184 -1.95919 -0.546564 0
M  V30 1690 C 174.539 -0.990417 -1.6495 0
M  V30 1691 O 173.832 -0.0186593 -1.91591 0
M  V30 1692 C 174.026 -3.38911 -1.13463 0
M  V30 1693 C 173.855 -4.4961 -0.0901926 0
M  V30 1694 C 172.625 -5.04168 0.338008 0
M  V30 1695 C 174.823 -5.09693 0.686808 0
M  V30 1696 N 172.805 -5.98434 1.36931 0
M  V30 1697 C 174.176 -5.99804 1.56958 0
M  V30 1698 C 176.231 -4.92388 0.738846 0
M  V30 1699 C 174.934 -6.74463 2.49983 0
M  V30 1700 C 176.96 -5.67719 1.65676 0
M  V30 1701 C 176.322 -6.57507 2.52713 0
M  V30 1702 H 172.421 -0.763312 -0.169936 0
M  V30 1703 H 175.005 -1.93728 0.194264 0
M  V30 1704 H 173.176 -3.41769 -1.84522 0
M  V30 1705 H 174.908 -3.64752 -1.75322 0
M  V30 1706 H 171.663 -4.73571 -0.0523673 0
M  V30 1707 H 172.087 -6.5027 1.88356 0
M  V30 1708 H 176.729 -4.22724 0.080084 0
M  V30 1709 H 174.447 -7.4338 3.16878 0
M  V30 1710 H 178.033 -5.56338 1.70233 0
M  V30 1711 H 176.913 -7.14778 3.22586 0
M  V30 1712 N 174.416 0.165178 -1.56732 0
M  V30 1713 C 175.379 1.18822 -1.95995 0
M  V30 1714 C 176.379 1.3685 -0.84431 0
M  V30 1715 O 177.569 1.34152 -1.11126 0
M  V30 1716 C 174.701 2.5521 -2.26011 0
M  V30 1717 H 175.894 0.851825 -2.87548 0
M  V30 1718 H 173.447 0.407857 -1.50885 0
M  V30 1719 H 174.182 2.93852 -1.37191 0
M  V30 1720 H 173.967 2.43489 -3.07336 0
M  V30 1721 H 175.457 3.28927 -2.57288 0
M  V30 1722 N 175.894 1.51508 0.433938 0
M  V30 1723 C 176.857 1.72473 1.50949 0
M  V30 1724 C 177.857 0.594725 1.49398 0
M  V30 1725 O 179.047 0.862315 1.5136 0
M  V30 1726 C 176.179 1.78431 2.90474 0
M  V30 1727 H 177.372 2.68467 1.33662 0
M  V30 1728 H 174.925 1.41549 0.662836 0
M  V30 1729 H 175.66 0.842645 3.13161 0
M  V30 1730 H 175.445 2.60558 2.93005 0
M  V30 1731 H 176.935 1.96479 3.68491 0
M  V30 1732 N 177.372 -0.689602 1.41712 0
M  V30 1733 C 178.302 -1.81577 1.46806 0
M  V30 1734 C 179.283 -1.66945 0.326105 0
M  V30 1735 O 180.468 -1.86588 0.538377 0
M  V30 1736 C 177.598 -3.19762 1.35535 0
M  V30 1737 C 176.552 -3.49107 2.47605 0
M  V30 1738 C 175.878 -4.86711 2.21397 0
M  V30 1739 C 177.178 -3.47483 3.89939 0
M  V30 1740 H 178.872 -1.7757 2.41058 0
M  V30 1741 H 176.418 -0.852887 1.16025 0
M  V30 1742 H 178.371 -3.98263 1.3771 0
M  V30 1743 H 177.095 -3.24409 0.377708 0
M  V30 1744 H 175.754 -2.72959 2.44722 0
M  V30 1745 H 175.402 -4.8799 1.21961 0
M  V30 1746 H 175.102 -5.0731 2.96497 0
M  V30 1747 H 176.626 -5.67515 2.25297 0
M  V30 1748 H 178.04 -4.1598 3.94505 0
M  V30 1749 H 176.437 -3.79615 4.64771 0
M  V30 1750 H 177.507 -2.46341 4.17665 0
M  V30 1751 N 178.85 -1.27639 -0.924453 0
M  V30 1752 C 179.798 -1.10485 -2.04685 0
M  V30 1753 C 180.792 -0.0270421 -1.69378 0
M  V30 1754 O 181.998 -0.185008 -1.79047 0
M  V30 1755 H 178.373 -0.340546 -0.670472 0
M  V30 1756 H 180.344 -2.05566 -2.16298 0
M  V30 1757 C 179.093 -0.772229 -3.39016 0
M  V30 1758 H 178.416 -1.59351 -3.66671 0
M  V30 1759 H 179.856 -0.692097 -4.18313 0
M  V30 1760 C 178.315 0.523554 -3.32807 0
M  V30 1761 O 178.845 1.55702 -3.70297 0
M  V30 1762 N 177.051 0.520363 -2.85903 0
M  V30 1763 H 176.598 -0.32107 -2.55591 0
M  V30 1764 H 176.556 1.38742 -2.82131 0
M  V30 1765 N 180.328 1.1314 -1.09713 0
M  V30 1766 C 181.291 2.16831 -0.742751 0
M  V30 1767 C 182.291 1.59159 0.229129 0
M  V30 1768 O 183.481 1.74199 0.00693237 0
M  V30 1769 C 180.613 3.40756 -0.0989168 0
M  V30 1770 H 181.806 2.49695 -1.66109 0
M  V30 1771 H 179.359 1.2802 -0.896699 0
M  V30 1772 H 180.094 3.13485 0.830514 0
M  V30 1773 H 179.879 3.83888 -0.798265 0
M  V30 1774 H 181.369 4.17386 0.133524 0
M  V30 1775 N 181.806 0.884767 1.30421 0
M  V30 1776 C 183.052 0.513218 1.96819 0
M  V30 1777 C 183.407 -0.927347 1.68577 0
M  V30 1778 O 182.7 -1.64644 0.979941 0
M  V30 1779 C 182.894 0.724318 3.49983 0
M  V30 1780 C 182.723 2.18385 3.93113 0
M  V30 1781 C 181.493 2.82839 4.18725 0
M  V30 1782 C 183.691 3.15763 4.05953 0
M  V30 1783 N 181.673 4.1939 4.48314 0
M  V30 1784 C 183.044 4.37387 4.39423 0
M  V30 1785 C 185.099 3.11555 3.88379 0
M  V30 1786 C 183.802 5.55343 4.5715 0
M  V30 1787 C 185.828 4.28782 4.07308 0
M  V30 1788 C 185.19 5.49172 4.41123 0
M  V30 1789 H 181.289 0.237123 0.745182 0
M  V30 1790 H 183.873 1.14246 1.57658 0
M  V30 1791 H 182.044 0.124565 3.882 0
M  V30 1792 H 183.776 0.31969 4.03435 0
M  V30 1793 H 180.531 2.33708 4.11919 0
M  V30 1794 H 180.955 4.89911 4.67243 0
M  V30 1795 H 185.597 2.19576 3.61312 0
M  V30 1796 H 183.315 6.47826 4.8306 0
M  V30 1797 H 186.901 4.26995 3.95179 0
M  V30 1798 H 185.781 6.38371 4.55469 0
M  V30 1799 N 183.284 -1.43765 0.645699 0
M  V30 1800 C 184.231 -2.30745 -0.0504648 0
M  V30 1801 C 185.201 -1.4432 -0.822241 0
M  V30 1802 O 186.386 -1.73202 -0.800358 0
M  V30 1803 C 183.526 -3.29802 -1.0161 0
M  V30 1804 C 182.639 -4.31326 -0.241219 0
M  V30 1805 C 181.774 -5.17469 -1.19998 0
M  V30 1806 C 180.813 -6.10691 -0.415094 0
M  V30 1807 N 179.95 -6.89483 -1.32506 0
M  V30 1808 H 184.79 -2.8973 0.697155 0
M  V30 1809 H 182.327 -1.42738 0.355563 0
M  V30 1810 H 184.285 -3.85734 -1.58949 0
M  V30 1811 H 182.915 -2.72483 -1.73069 0
M  V30 1812 H 181.967 -3.77749 0.448334 0
M  V30 1813 H 183.279 -4.9743 0.369437 0
M  V30 1814 H 182.433 -5.7799 -1.84424 0
M  V30 1815 H 181.172 -4.51473 -1.84455 0
M  V30 1816 H 180.177 -5.49265 0.242565 0
M  V30 1817 H 181.402 -6.78727 0.224966 0
M  V30 1818 H 179.348 -6.26142 -1.95657 0
M  V30 1819 H 179.265 -7.52081 -0.768783 0
M  V30 1820 H 180.533 -7.54516 -1.9577 0
M  V30 1821 N 184.763 -0.387143 -1.52771 0
M  V30 1822 C 185.673 0.456442 -2.30117 0
M  V30 1823 C 186.689 1.07342 -1.36944 0
M  V30 1824 O 187.865 1.07971 -1.70013 0
M  V30 1825 C 184.93 1.56957 -3.09136 0
M  V30 1826 C 183.991 0.977916 -4.18014 0
M  V30 1827 C 183.224 2.038 -4.93256 0
M  V30 1828 O 183.447 3.25271 -4.68567 0
M  V30 1829 O 182.381 1.6565 -5.78657 0
M  V30 1830 H 186.207 -0.17359 -3.03203 0
M  V30 1831 H 183.792 -0.150919 -1.48636 0
M  V30 1832 H 185.674 2.21628 -3.58412 0
M  V30 1833 H 184.349 2.18461 -2.38865 0
M  V30 1834 H 183.256 0.294525 -3.72939 0
M  V30 1835 H 184.589 0.407128 -4.90513 0
M  V30 1836 N 186.241 1.57166 -0.116904 0
M  V30 1837 C 187.189 2.16457 0.851418 0
M  V30 1838 C 188.183 1.11323 1.27686 0
M  V30 1839 O 189.389 1.2963 1.24884 0
M  V30 1840 H 185.764 0.69271 0.292672 0
M  V30 1841 H 187.735 2.96605 0.32685 0
M  V30 1842 C 186.484 2.77689 2.09246 0
M  V30 1843 H 185.807 3.58285 1.77402 0
M  V30 1844 H 187.247 3.22716 2.7501 0
M  V30 1845 C 185.706 1.74667 2.88085 0
M  V30 1846 O 186.236 1.19877 3.83396 0
M  V30 1847 N 184.442 1.44656 2.52038 0
M  V30 1848 H 183.989 1.89402 1.74599 0
M  V30 1849 H 183.947 0.759675 3.05084 0
M  V30 1850 N 187.719 -0.156864 1.56817 0
M  V30 1851 C 188.966 -0.871125 1.82805 0
M  V30 1852 C 189.294 -1.81611 0.696262 0
M  V30 1853 O 188.549 -1.93141 -0.315459 0
M  V30 1854 C 188.848 -1.68737 3.1506 0
M  V30 1855 C 188.514 -0.890045 4.42028 0
M  V30 1856 C 187.176 -0.670042 4.76512 0
M  V30 1857 C 189.528 -0.331769 5.20143 0
M  V30 1858 C 186.856 0.119104 5.86579 0
M  V30 1859 C 189.208 0.444365 6.31037 0
M  V30 1860 C 187.872 0.675035 6.64078 0
M  V30 1861 H 187.142 -0.318767 0.668931 0
M  V30 1862 H 189.789 -0.135274 1.91022 0
M  V30 1863 H 188.094 -2.49304 3.0225 0
M  V30 1864 H 189.791 -2.24331 3.3238 0
M  V30 1865 H 186.381 -1.07157 4.14988 0
M  V30 1866 H 190.565 -0.489043 4.93885 0
M  V30 1867 H 185.821 0.307417 6.10627 0
M  V30 1868 H 189.995 0.884139 6.90765 0
M  V30 1869 H 187.622 1.28839 7.49203 0
M  V30 1870 N 189.197 -1.51736 -0.425897 0
M  V30 1871 C 190.13 -1.68574 -1.53812 0
M  V30 1872 C 191.108 -0.53328 -1.53606 0
M  V30 1873 O 192.292 -0.758555 -1.72564 0
M  V30 1874 C 189.419 -1.70977 -2.92377 0
M  V30 1875 C 188.465 -2.92324 -3.10563 0
M  V30 1876 S 189.298 -4.52952 -2.85648 0
M  V30 1877 C 190.454 -4.58117 -4.26474 0
M  V30 1878 H 190.687 -2.62647 -1.39298 0
M  V30 1879 H 188.22 -1.41564 -0.616361 0
M  V30 1880 H 190.178 -1.73047 -3.72243 0
M  V30 1881 H 188.839 -0.78061 -3.04245 0
M  V30 1882 H 188.032 -2.90439 -4.11899 0
M  V30 1883 H 187.634 -2.88055 -2.38538 0
M  V30 1884 H 189.926 -4.34462 -5.19855 0
M  V30 1885 H 190.869 -5.59983 -4.33388 0
M  V30 1886 H 191.277 -3.8732 -4.10662 0
M  V30 1887 N 190.675 0.682077 -1.42076 0
M  V30 1888 C 191.903 1.47057 -1.4554 0
M  V30 1889 C 192.318 1.8869 -0.0645779 0
M  V30 1890 O 191.675 1.57666 0.919115 0
M  V30 1891 C 191.726 2.72442 -2.37609 0
M  V30 1892 O 191.447 2.32559 -3.71279 0
M  V30 1893 C 192.948 3.66069 -2.50017 0
M  V30 1894 H 190.168 0.452737 -0.495248 0
M  V30 1895 H 192.712 0.838695 -1.8651 0
M  V30 1896 H 190.867 3.31835 -1.9991 0
M  V30 1897 H 191.281 3.13475 -4.20516 0
M  V30 1898 H 192.755 4.50792 -3.18576 0
M  V30 1899 H 193.232 4.11476 -1.53572 0
M  V30 1900 H 193.838 3.12572 -2.88407 0
M  V30 1901 N 192.153 1.28127 0.917671 0
M  V30 1902 C 193.399 1.15223 1.66888 0
M  V30 1903 C 193.732 -0.299293 1.9188 0
M  V30 1904 O 193.007 -1.21805 1.51637 0
M  V30 1905 C 193.29 1.94706 3.02922 0
M  V30 1906 C 193.143 3.47898 2.85109 0
M  V30 1907 C 194.462 1.75939 4.03402 0
M  V30 1908 H 191.581 0.419946 0.605652 0
M  V30 1909 H 194.223 1.57398 1.06423 0
M  V30 1910 H 192.373 1.58864 3.54534 0
M  V30 1911 H 194.045 3.93624 2.40537 0
M  V30 1912 H 192.288 3.7373 2.20246 0
M  V30 1913 H 192.959 3.98765 3.81694 0
M  V30 1914 H 195.435 2.07209 3.60837 0
M  V30 1915 H 194.311 2.33931 4.96556 0
M  V30 1916 H 194.572 0.709877 4.36364 0
M  V30 1917 N 193.631 -1.12557 1.10312 0
M  V30 1918 C 194.908 -1.80363 0.756878 0
M  V30 1919 C 195.288 -1.97067 -0.756824 0
M  V30 1920 O 194.636 -1.54601 -1.68259 0
M  V30 1921 C 194.846 -3.14812 1.50647 0
M  V30 1922 C 196.194 -3.90029 1.67817 0
M  V30 1923 O 197.218 -3.24464 1.46974 0
M  V30 1924 O 196.077 -5.07652 2.02365 0
M  V30 1925 H 193.171 -0.780667 0.272926 0
M  V30 1926 H 195.717 -1.19404 1.20586 0
M  V30 1927 H 194.489 -2.97936 2.53672 0
M  V30 1928 H 194.112 -3.83478 1.05026 0
M  V30 1929 N 195.109 -0.891671 -1.2995 0
M  V30 1930 C 196.041 -0.320695 -2.26945 0
M  V30 1931 C 197.054 0.528497 -1.53983 0
M  V30 1932 O 198.243 0.346959 -1.75096 0
M  V30 1933 C 195.343 0.562066 -3.34207 0
M  V30 1934 C 194.516 -0.259576 -4.36629 0
M  V30 1935 C 193.575 0.554739 -5.23268 0
M  V30 1936 O 192.601 -0.0249311 -5.69195 0
M  V30 1937 N 193.803 1.8625 -5.4981 0
M  V30 1938 H 196.568 -1.15432 -2.76578 0
M  V30 1939 H 194.129 -0.755336 -1.432 0
M  V30 1940 H 196.121 1.11304 -3.89093 0
M  V30 1941 H 194.691 1.29637 -2.84452 0
M  V30 1942 H 193.911 -0.991986 -3.81514 0
M  V30 1943 H 195.199 -0.822564 -5.02107 0
M  V30 1944 H 194.597 2.35628 -5.14292 0
M  V30 1945 H 193.154 2.36078 -6.07545 0
M  V30 1946 N 196.587 1.43421 -0.653314 0
M  V30 1947 C 197.864 1.95361 -0.0966581 0
M  V30 1948 C 198.244 1.59461 1.38331 0
M  V30 1949 O 197.592 0.879777 2.10884 0
M  V30 1950 C 197.802 3.47311 -0.342988 0
M  V30 1951 C 199.15 4.23875 -0.24798 0
M  V30 1952 O 200.174 3.55133 -0.275553 0
M  V30 1953 O 199.033 5.4623 -0.171771 0
M  V30 1954 H 196.127 0.826945 0.00956291 0
M  V30 1955 H 198.673 1.5336 -0.726558 0
M  V30 1956 H 197.445 3.66569 -1.36906 0
M  V30 1957 H 197.068 3.9631 0.319975 0
M  V30 1958 N 198.065 0.39524 1.52563 0
M  V30 1959 C 199.313 -0.184678 2.01254 0
M  V30 1960 C 199.634 -1.46822 1.28329 0
M  V30 1961 O 198.904 -1.91666 0.405094 0
M  V30 1962 H 197.484 -0.0712355 0.743596 0
M  V30 1963 H 200.146 0.528293 1.87603 0
M  V30 1964 H 199.242 -0.390681 3.09645 0
M  V30 1965 N 199.544 -1.57102 0.125237 0
M  V30 1966 C 200.769 -2.0019 -0.542101 0
M  V30 1967 C 201.194 -1.00449 -1.59034 0
M  V30 1968 O 200.552 0.0229423 -1.81285 0
M  V30 1969 C 200.6 -3.42129 -1.13929 0
M  V30 1970 O 199.704 -3.45307 -2.2547 0
M  V30 1971 H 199.045 -0.650171 -0.134812 0
M  V30 1972 H 201.575 -2.03461 0.215553 0
M  V30 1973 H 201.585 -3.80471 -1.4733 0
M  V30 1974 H 200.26 -4.14237 -0.371531 0
M  V30 1975 H 198.837 -3.1879 -1.93462 0
M  V30 1976 N 201.022 0.148545 -1.56898 0
M  V30 1977 C 202.27 0.859717 -1.82902 0
M  V30 1978 C 202.591 1.81775 -0.70588 0
M  V30 1979 O 201.861 1.93994 0.272586 0
M  V30 1980 H 200.441 0.320469 -0.674766 0
M  V30 1981 H 203.103 0.142918 -1.94375 0
M  V30 1982 H 202.199 1.4229 -2.77777 0
M  V30 1983 N 202.5 1.5196 0.417844 0
M  V30 1984 C 203.728 1.69426 1.18753 0
M  V30 1985 C 204.143 0.399955 1.84515 0
M  V30 1986 O 203.5 -0.623288 1.71527 0
M  V30 1987 C 203.551 2.82375 2.25714 0
M  V30 1988 O 203.272 4.06793 1.62638 0
M  V30 1989 C 204.773 3.11277 3.15628 0
M  V30 1990 H 201.993 0.568031 0.357186 0
M  V30 1991 H 204.537 1.98475 0.49273 0
M  V30 1992 H 202.692 2.5587 2.90877 0
M  V30 1993 H 203.106 4.69667 2.3348 0
M  V30 1994 H 204.58 3.93843 3.86771 0
M  V30 1995 H 205.057 2.24473 3.77503 0
M  V30 1996 H 205.663 3.39515 2.56144 0
M  V30 1997 N 203.978 -0.674533 1.42435 0
M  V30 1998 C 205.224 -1.43671 1.43131 0
M  V30 1999 C 205.557 -1.94142 0.0476021 0
M  V30 2000 O 204.832 -1.70924 -0.928188 0
M  V30 2001 C 205.115 -2.63355 2.45594 0
M  V30 2002 C 204.968 -2.18514 3.93156 0
M  V30 2003 C 206.287 -3.65571 2.45043 0
M  V30 2004 H 203.406 -0.521077 0.521198 0
M  V30 2005 H 206.048 -0.766551 1.7385 0
M  V30 2006 H 204.198 -3.2053 2.19528 0
M  V30 2007 H 205.87 -1.66504 4.30202 0
M  V30 2008 H 204.113 -1.50086 4.07009 0
M  V30 2009 H 204.784 -3.04484 4.60428 0
M  V30 2010 H 207.26 -3.18113 2.68223 0
M  V30 2011 H 206.136 -4.46893 3.18713 0
M  V30 2012 H 206.397 -4.16716 1.47649 0
M  V30 2013 N 205.456 -1.28612 -0.910864 0
M  V30 2014 C 206.366 -1.14643 -2.0468 0
M  V30 2015 C 207.382 -0.0723121 -1.7385 0
M  V30 2016 O 208.558 -0.282178 -1.99413 0
M  V30 2017 C 205.623 -0.812561 -3.37044 0
M  V30 2018 C 204.684 -1.96935 -3.81465 0
M  V30 2019 C 203.917 -1.65131 -5.07511 0
M  V30 2020 O 204.14 -0.567013 -5.67575 0
M  V30 2021 O 203.074 -2.49585 -5.47714 0
M  V30 2022 H 206.9 -2.1001 -2.19384 0
M  V30 2023 H 204.485 -1.07958 -1.03274 0
M  V30 2024 H 206.367 -0.640441 -4.16505 0
M  V30 2025 H 205.042 0.111426 -3.23508 0
M  V30 2026 H 203.949 -2.19664 -3.02818 0
M  V30 2027 H 205.282 -2.87414 -3.99567 0
M  V30 2028 N 206.934 1.1197 -1.10907 0
M  V30 2029 C 207.884 2.15946 -0.731538 0
M  V30 2030 C 208.868 1.58758 0.261699 0
M  V30 2031 O 210.06 1.76863 0.0696722 0
M  V30 2032 C 207.189 3.42877 -0.170299 0
M  V30 2033 C 206.275 4.07037 -1.19087 0
M  V30 2034 N 206.666 4.46135 -2.38322 0
M  V30 2035 C 204.964 4.33884 -1.03252 0
M  V30 2036 C 205.665 4.96331 -3.03366 0
M  V30 2037 N 204.641 4.9214 -2.30865 0
M  V30 2038 H 208.443 2.43947 -1.63912 0
M  V30 2039 H 205.957 1.28927 -0.987505 0
M  V30 2040 H 207.954 4.16732 0.118271 0
M  V30 2041 H 206.614 3.16343 0.731935 0
M  V30 2042 H 207.625 4.38345 -2.75815 0
M  V30 2043 H 204.302 4.17084 -0.186256 0
M  V30 2044 H 205.692 5.36257 -4.04818 0
M  V30 2045 N 208.412 0.89855 1.29475 0
M  V30 2046 C 209.362 0.346767 2.25348 0
M  V30 2047 C 210.346 -0.532509 1.51833 0
M  V30 2048 O 211.538 -0.374714 1.72988 0
M  V30 2049 C 208.667 -0.425681 3.40651 0
M  V30 2050 C 207.753 0.46845 4.21505 0
M  V30 2051 N 208.144 1.57514 4.80648 0
M  V30 2052 C 206.442 0.26603 4.45206 0
M  V30 2053 C 207.143 2.12889 5.41344 0
M  V30 2054 N 206.119 1.42208 5.24669 0
M  V30 2055 H 209.921 1.19219 2.68634 0
M  V30 2056 H 207.435 0.749473 1.44072 0
M  V30 2057 H 209.432 -0.837716 4.08397 0
M  V30 2058 H 208.092 -1.26838 2.98902 0
M  V30 2059 H 209.103 1.95789 4.79465 0
M  V30 2060 H 205.78 -0.538394 4.14014 0
M  V30 2061 H 207.17 3.05901 5.98226 0
M  V30 2062 N 209.89 -1.43072 0.660911 0
M  V30 2063 C 210.8 -2.34585 -0.0264163 0
M  V30 2064 C 211.816 -1.54316 -0.803898 0
M  V30 2065 O 212.992 -1.86939 -0.749391 0
M  V30 2066 C 210.057 -3.32689 -0.975639 0
M  V30 2067 C 209.118 -4.2886 -0.194236 0
M  V30 2068 C 208.351 -5.22278 -1.09825 0
M  V30 2069 O 208.574 -5.20299 -2.33763 0
M  V30 2070 O 207.508 -5.99228 -0.566513 0
M  V30 2071 H 211.334 -2.94869 0.727034 0
M  V30 2072 H 208.919 -1.43342 0.42111 0
M  V30 2073 H 210.801 -3.92995 -1.52094 0
M  V30 2074 H 209.476 -2.74898 -1.70918 0
M  V30 2075 H 208.383 -3.72011 0.394835 0
M  V30 2076 H 209.716 -4.89655 0.499899 0
M  V30 2077 N 211.368 -0.403325 -1.52352 0
M  V30 2078 C 212.298 0.416205 -2.29761 0
M  V30 2079 C 213.279 1.05123 -1.33728 0
M  V30 2080 O 214.464 1.06134 -1.62632 0
M  V30 2081 C 211.594 1.53624 -3.11475 0
M  V30 2082 C 210.548 1.02653 -4.15507 0
M  V30 2083 C 209.874 2.23971 -4.85532 0
M  V30 2084 C 211.174 0.08463 -5.22231 0
M  V30 2085 H 212.868 -0.229701 -2.98518 0
M  V30 2086 H 210.414 -0.111913 -1.43564 0
M  V30 2087 H 212.367 2.1165 -3.64393 0
M  V30 2088 H 211.091 2.20994 -2.40477 0
M  V30 2089 H 209.75 0.46871 -3.63591 0
M  V30 2090 H 209.398 2.89883 -4.11068 0
M  V30 2091 H 209.098 1.90521 -5.55856 0
M  V30 2092 H 210.622 2.82614 -5.41259 0
M  V30 2093 H 212.036 0.573509 -5.70424 0
M  V30 2094 H 210.433 -0.160783 -5.99885 0
M  V30 2095 H 211.503 -0.86237 -4.7717 0
M  V30 2096 N 212.846 1.57033 -0.133567 0
M  V30 2097 C 214.262 1.58035 0.222944 0
M  V30 2098 C 214.462 1.14713 1.6566 0
M  V30 2099 O 213.518 0.841218 2.38075 0
M  V30 2100 C 214.831 3.00691 -0.0236116 0
M  V30 2101 C 216.379 3.12973 0.0411512 0
M  V30 2102 C 216.854 4.57654 -0.177899 0
M  V30 2103 N 218.345 4.63033 -0.124365 0
M  V30 2104 C 219.08 5.72771 -0.268553 0
M  V30 2105 N 218.576 6.91206 -0.46972 0
M  V30 2106 N 220.369 5.61718 -0.2071 0
M  V30 2107 H 212.52 1.8349 -1.06981 0
M  V30 2108 H 214.783 0.848677 -0.422436 0
M  V30 2109 H 214.489 3.36726 -1.0153 0
M  V30 2110 H 214.363 3.70614 0.701808 0
M  V30 2111 H 216.75 2.76787 1.02338 0
M  V30 2112 H 216.831 2.45564 -0.716383 0
M  V30 2113 H 216.475 4.94542 -1.15717 0
M  V30 2114 H 216.405 5.23173 0.599797 0
M  V30 2115 H 218.896 3.7789 0.027011 0
M  V30 2116 H 219.209 7.70693 -0.570212 0
M  V30 2117 H 217.554 6.93156 -0.505876 0
M  V30 2118 H 220.745 4.68072 -0.0507986 0
M  V30 2119 H 220.918 6.47195 -0.322909 0
M  V30 2120 N 214.325 -0.140222 1.56975 0
M  V30 2121 C 215.257 -1.19818 1.95388 0
M  V30 2122 C 216.27 -1.38816 0.850525 0
M  V30 2123 O 217.459 -1.38267 1.12891 0
M  V30 2124 C 214.559 -2.56189 2.21857 0
M  V30 2125 C 213.732 -2.58077 3.5315 0
M  V30 2126 C 212.791 -3.76037 3.6808 0
M  V30 2127 O 211.817 -3.60598 4.40406 0
M  V30 2128 N 213.019 -4.93763 3.05251 0
M  V30 2129 H 215.784 -0.871609 2.86746 0
M  V30 2130 H 213.345 -0.32972 1.58507 0
M  V30 2131 H 215.337 -3.33623 2.2908 0
M  V30 2132 H 213.907 -2.81111 1.36731 0
M  V30 2133 H 213.127 -1.6651 3.57307 0
M  V30 2134 H 214.415 -2.56377 4.39486 0
M  V30 2135 H 213.813 -5.09209 2.46419 0
M  V30 2136 H 212.37 -5.68949 3.18026 0
M  V30 2137 N 215.803 -1.52179 -0.40978 0
M  V30 2138 C 216.766 -1.74853 -1.48186 0
M  V30 2139 C 217.766 -0.618417 -1.48433 0
M  V30 2140 O 218.956 -0.886286 -1.49969 0
M  V30 2141 C 216.088 -1.8303 -2.87598 0
M  V30 2142 H 217.281 -2.70559 -1.29374 0
M  V30 2143 H 214.834 -1.42586 -0.640233 0
M  V30 2144 H 215.569 -0.89236 -3.11781 0
M  V30 2145 H 215.354 -2.65187 -2.88822 0
M  V30 2146 H 216.844 -2.02316 -3.65319 0
M  V30 2147 N 217.281 0.66697 -1.42791 0
M  V30 2148 C 218.53 1.42278 -1.42968 0
M  V30 2149 C 218.843 1.9553 -0.0524489 0
M  V30 2150 O 220.049 2.71414 0.068363 0
M  V30 2151 C 218.505 2.57418 -2.51524 0
M  V30 2152 C 218.113 2.10832 -3.9529 0
M  V30 2153 C 219.857 3.34878 -2.60877 0
M  V30 2154 C 217.764 3.23101 -4.95338 0
M  V30 2155 H 216.694 0.534533 -0.531781 0
M  V30 2156 H 219.345 0.721302 -1.68729 0
M  V30 2157 H 217.727 3.29971 -2.18941 0
M  V30 2158 H 218.901 1.4538 -4.37266 0
M  V30 2159 H 217.216 1.46289 -3.89857 0
M  V30 2160 H 219.813 4.18505 -3.32802 0
M  V30 2161 H 220.156 3.81993 -1.6549 0
M  V30 2162 H 220.689 2.69398 -2.92693 0
M  V30 2163 H 217.428 2.80969 -5.9223 0
M  V30 2164 H 216.948 3.87309 -4.57987 0
M  V30 2165 H 218.627 3.88447 -5.17415 0
M  V30 2166 N 218.759 1.29093 0.90403 0
M  V30 2167 C 220.007 1.16583 1.65085 0
M  V30 2168 C 220.328 -0.283933 1.92922 0
M  V30 2169 O 219.598 -1.19509 1.55224 0
M  V30 2170 H 218.178 0.428467 0.611903 0
M  V30 2171 H 220.84 1.61959 1.08422 0
M  V30 2172 H 219.936 1.71266 2.6091 0
M  V30 2173 N 220.237 -1.11381 1.11499 0
M  V30 2174 C 221.167 -2.19509 0.796125 0
M  V30 2175 C 222.148 -1.68458 -0.235796 0
M  V30 2176 O 223.333 -1.93947 -0.0991344 0
M  V30 2177 C 220.463 -3.46475 0.239205 0
M  V30 2178 C 219.417 -4.10744 1.20307 0
M  V30 2179 C 218.743 -5.32293 0.50683 0
M  V30 2180 C 220.043 -4.55597 2.55399 0
M  V30 2181 H 221.737 -2.46439 1.70024 0
M  V30 2182 H 219.283 -1.18446 0.818935 0
M  V30 2183 H 221.236 -4.214 0.00392006 0
M  V30 2184 H 219.96 -3.19006 -0.700206 0
M  V30 2185 H 218.619 -3.37813 1.42399 0
M  V30 2186 H 218.267 -5.01095 -0.437408 0
M  V30 2187 H 217.967 -5.76243 1.1497 0
M  V30 2188 H 219.491 -6.09956 0.280351 0
M  V30 2189 H 220.905 -5.21841 2.37391 0
M  V30 2190 H 219.302 -5.10363 3.15673 0
M  V30 2191 H 220.372 -3.69013 3.14575 0
M  V30 2192 N 221.715 -0.905404 -1.28997 0
M  V30 2193 C 222.648 -0.331959 -2.25773 0
M  V30 2194 C 223.626 0.559099 -1.52685 0
M  V30 2195 O 224.81 0.50463 -1.8162 0
M  V30 2196 C 221.937 0.526276 -3.34586 0
M  V30 2197 C 220.983 -0.298249 -4.25456 0
M  V30 2198 S 221.816 -1.69968 -5.0781 0
M  V30 2199 C 222.972 -0.848519 -6.20122 0
M  V30 2200 H 223.205 -1.15222 -2.74064 0
M  V30 2201 H 220.738 -0.706112 -1.37308 0
M  V30 2202 H 222.696 1.01565 -3.97737 0
M  V30 2203 H 221.357 1.32084 -2.84978 0
M  V30 2204 H 220.55 0.357607 -5.0273 0
M  V30 2205 H 220.152 -0.720968 -3.66985 0
M  V30 2206 H 222.444 -0.0744325 -6.77459 0
M  V30 2207 H 223.387 -1.59353 -6.89937 0
M  V30 2208 H 223.795 -0.400383 -5.63078 0
M  V30 2209 N 223.193 1.4272 -0.668489 0
M  V30 2210 C 224.441 2.01226 -0.187769 0
M  V30 2211 C 224.762 1.53092 1.2078 0
M  V30 2212 O 224.032 0.74993 1.80977 0
M  V30 2213 H 222.612 0.744041 -0.0664272 0
M  V30 2214 H 225.274 1.74723 -0.863583 0
M  V30 2215 H 224.37 3.11556 -0.184166 0
M  V30 2216 N 224.671 0.411399 1.52136 0
M  V30 2217 C 225.901 -0.16284 2.05957 0
M  V30 2218 C 226.309 -1.3922 1.28119 0
M  V30 2219 O 225.652 -1.80768 0.326881 0
M  V30 2220 C 225.714 -0.575946 3.54856 0
M  V30 2221 C 225.378 0.542998 4.53763 0
M  V30 2222 C 226.375 1.40726 5.00492 0
M  V30 2223 C 224.06 0.716337 4.97166 0
M  V30 2224 C 226.054 2.4298 5.8927 0
M  V30 2225 C 223.741 1.74218 5.8574 0
M  V30 2226 C 224.739 2.59731 6.31687 0
M  V30 2227 O 224.427 3.60558 7.18507 0
M  V30 2228 H 224.159 -0.0229125 0.675612 0
M  V30 2229 H 226.713 0.581634 1.96993 0
M  V30 2230 H 224.943 -1.37274 3.61515 0
M  V30 2231 H 226.632 -1.07836 3.91313 0
M  V30 2232 H 227.398 1.28476 4.67674 0
M  V30 2233 H 223.277 0.0603857 4.6096 0
M  V30 2234 H 226.821 3.0976 6.25055 0
M  V30 2235 H 222.718 1.86498 6.17971 0
M  V30 2236 H 223.486 3.56829 7.36624 0
M  V30 2237 N 226.149 -1.5696 0.141893 0
M  V30 2238 C 227.565 -1.58151 -0.21456 0
M  V30 2239 C 227.765 -1.1559 -1.65049 0
M  V30 2240 O 226.821 -0.853832 -2.37626 0
M  V30 2241 C 228.134 -3.00674 0.0395576 0
M  V30 2242 C 229.682 -3.1299 -0.0245529 0
M  V30 2243 C 230.157 -4.57554 0.202167 0
M  V30 2244 N 231.648 -4.62961 0.148919 0
M  V30 2245 C 232.383 -5.7262 0.298924 0
M  V30 2246 N 231.879 -6.90947 0.50637 0
M  V30 2247 N 233.672 -5.61601 0.236886 0
M  V30 2248 H 225.823 -1.8292 1.07953 0
M  V30 2249 H 228.086 -0.846425 0.42693 0
M  V30 2250 H 227.792 -3.36183 1.03315 0
M  V30 2251 H 227.666 -3.70981 -0.682143 0
M  V30 2252 H 230.053 -2.77326 -1.00869 0
M  V30 2253 H 230.134 -2.4518 0.729396 0
M  V30 2254 H 229.778 -4.93922 1.18338 0
M  V30 2255 H 229.708 -5.23484 -0.572044 0
M  V30 2256 H 232.199 -3.77899 -0.00697015 0
M  V30 2257 H 232.512 -7.7038 0.611076 0
M  V30 2258 H 230.857 -6.92878 0.542628 0
M  V30 2259 H 234.048 -4.68039 0.0756209 0
M  V30 2260 H 234.221 -6.47015 0.357227 0
M  V30 2261 N 227.627 0.131896 -1.57047 0
M  V30 2262 C 228.557 1.16384 -2.02428 0
M  V30 2263 C 229.538 1.43936 -0.90644 0
M  V30 2264 O 230.723 1.54599 -1.17528 0
M  V30 2265 C 227.853 2.49328 -2.4177 0
M  V30 2266 C 226.807 2.36266 -3.56879 0
M  V30 2267 C 226.133 3.74057 -3.8208 0
M  V30 2268 C 227.433 1.834 -4.89042 0
M  V30 2269 H 229.127 0.786433 -2.88887 0
M  V30 2270 H 226.673 0.376855 -1.38981 0
M  V30 2271 H 228.626 3.21759 -2.7212 0
M  V30 2272 H 227.35 2.88934 -1.52266 0
M  V30 2273 H 226.009 1.66286 -3.26718 0
M  V30 2274 H 225.657 4.11125 -2.89803 0
M  V30 2275 H 225.357 3.66174 -4.59554 0
M  V30 2276 H 226.881 4.48012 -4.1487 0
M  V30 2277 H 228.295 2.45636 -5.18011 0
M  V30 2278 H 226.692 1.8637 -5.70426 0
M  V30 2279 H 227.762 0.790662 -4.7841 0
M  V30 2280 N 229.106 1.52395 0.401703 0
M  V30 2281 C 230.331 1.70972 1.17403 0
M  V30 2282 C 230.756 0.421615 1.83314 0
M  V30 2283 O 230.114 -0.621564 1.70312 0
M  V30 2284 C 230.162 2.85151 2.20728 0
M  V30 2285 O 229.266 2.51238 3.27037 0
M  V30 2286 H 228.607 0.568927 0.342372 0
M  V30 2287 H 231.137 1.99131 0.469891 0
M  V30 2288 H 231.147 3.10279 2.64936 0
M  V30 2289 H 229.822 3.78603 1.7214 0
M  V30 2290 H 228.399 2.36808 2.88057 0
M  V30 2291 N 230.584 -0.659388 1.43143 0
M  V30 2292 C 231.995 -1.24041 1.39537 0
M  V30 2293 C 232.346 -1.95963 0.0963364 0
M  V30 2294 O 231.471 -2.00892 -0.804438 0
M  V30 2295 C 232.066 -2.25601 2.52764 0
M  V30 2296 C 230.625 -2.79195 2.52443 0
M  V30 2297 C 229.772 -1.53743 2.30778 0
M  V30 2298 H 232.723 -0.451792 1.52133 0
M  V30 2299 H 232.744 -3.07651 2.23899 0
M  V30 2300 H 232.256 -1.73226 3.47296 0
M  V30 2301 H 230.357 -3.35649 1.61773 0
M  V30 2302 H 230.47 -3.2716 3.50004 0
M  V30 2303 H 228.834 -1.80869 1.79328 0
M  V30 2304 H 229.617 -1.03312 3.27386 0
M  V30 2305 N 232.062 -1.29571 -0.897171 0
M  V30 2306 C 232.994 -1.10724 -2.00681 0
M  V30 2307 C 234.007 -0.0540026 -1.6271 0
M  V30 2308 O 235.196 -0.298783 -1.75982 0
M  V30 2309 C 232.296 -0.663912 -3.32333 0
M  V30 2310 C 231.469 -1.79622 -3.98816 0
M  V30 2311 C 230.528 -1.34349 -5.0876 0
M  V30 2312 O 229.554 -2.04864 -5.31055 0
M  V30 2313 N 230.756 -0.215764 -5.80099 0
M  V30 2314 H 233.521 -2.06291 -2.17403 0
M  V30 2315 H 231.082 -1.21544 -1.06951 0
M  V30 2316 H 233.074 -0.344295 -4.03233 0
M  V30 2317 H 231.644 0.199375 -3.11964 0
M  V30 2318 H 230.864 -2.28459 -3.21248 0
M  V30 2319 H 232.152 -2.55535 -4.39976 0
M  V30 2320 H 231.55 0.372091 -5.64475 0
M  V30 2321 H 230.107 0.0444707 -6.51785 0
M  V30 2322 N 233.54 1.10788 -1.12088 0
M  V30 2323 C 234.768 1.86461 -0.896651 0
M  V30 2324 C 235.183 1.80492 0.553912 0
M  V30 2325 O 234.54 1.19102 1.38278 0
M  V30 2326 C 234.591 3.35006 -1.35843 0
M  V30 2327 O 234.312 3.40866 -2.75213 0
M  V30 2328 C 235.813 4.27565 -1.1706 0
M  V30 2329 H 233.033 0.589425 -0.320654 0
M  V30 2330 H 235.577 1.40076 -1.48993 0
M  V30 2331 H 233.732 3.7887 -0.808458 0
M  V30 2332 H 234.146 4.33411 -2.9539 0
M  V30 2333 H 235.62 5.30007 -1.54263 0
M  V30 2334 H 236.097 4.3906 -0.110814 0
M  V30 2335 H 236.703 3.89501 -1.70789 0
M  V30 2336 N 235.018 0.912232 1.28515 0
M  V30 2337 C 235.948 0.416403 2.29757 0
M  V30 2338 C 236.929 -0.515194 1.6211 0
M  V30 2339 O 238.114 -0.423253 1.89532 0
M  V30 2340 C 235.244 -0.34572 3.45575 0
M  V30 2341 C 234.198 0.496599 4.25109 0
M  V30 2342 C 233.524 -0.393771 5.33248 0
M  V30 2343 C 234.824 1.75307 4.92001 0
M  V30 2344 H 236.518 1.26249 2.7148 0
M  V30 2345 H 234.064 0.608515 1.30511 0
M  V30 2346 H 236.017 -0.703422 4.15488 0
M  V30 2347 H 234.741 -1.2257 3.02728 0
M  V30 2348 H 233.4 0.8368 3.56922 0
M  V30 2349 H 233.048 -1.27225 4.86644 0
M  V30 2350 H 232.748 0.166209 5.87365 0
M  V30 2351 H 234.272 -0.747389 6.06009 0
M  V30 2352 H 235.686 1.46437 5.54283 0
M  V30 2353 H 234.083 2.25534 5.56106 0
M  V30 2354 H 235.153 2.48176 4.16577 0
M  V30 2355 N 236.496 -1.42363 0.676048 0
M  V30 2356 C 237.724 -2.05859 0.207268 0
M  V30 2357 C 238.139 -1.50796 -1.13605 0
M  V30 2358 O 237.496 -0.648265 -1.70598 0
M  V30 2359 C 237.547 -3.61248 0.134975 0
M  V30 2360 O 237.268 -4.1427 1.42521 0
M  V30 2361 C 238.769 -4.41859 -0.357151 0
M  V30 2362 H 235.989 -0.663431 0.100503 0
M  V30 2363 H 238.533 -1.82479 0.923136 0
M  V30 2364 H 236.688 -3.83735 -0.531588 0
M  V30 2365 H 237.102 -5.0815 1.29939 0
M  V30 2366 H 238.576 -5.50847 -0.356641 0
M  V30 2367 H 239.053 -4.16536 -1.39264 0
M  V30 2368 H 239.659 -4.24392 0.27772 0
M  V30 2369 N 237.974 -0.419461 -1.51915 0
M  V30 2370 C 239.202 0.152136 -2.0634 0
M  V30 2371 C 239.617 1.37988 -1.28859 0
M  V30 2372 O 238.974 1.79243 -0.343232 0
M  V30 2373 C 239.025 0.492266 -3.58133 0
M  V30 2374 O 238.746 -0.686736 -4.32684 0
M  V30 2375 C 240.247 1.11648 -4.2901 0
M  V30 2376 H 237.467 0.0158325 -0.670813 0
M  V30 2377 H 240.011 -0.593394 -1.95702 0
M  V30 2378 H 238.166 1.18769 -3.68745 0
M  V30 2379 H 238.58 -0.400341 -5.2297 0
M  V30 2380 H 240.054 1.3046 -5.36362 0
M  V30 2381 H 240.531 2.09251 -3.86148 0
M  V30 2382 H 241.137 0.460958 -4.22795 0
M  V30 2383 N 239.452 1.56882 -0.150215 0
M  V30 2384 C 240.701 1.95403 0.500071 0
M  V30 2385 C 241.014 1.03777 1.658 0
M  V30 2386 O 242.22 1.31889 2.37313 0
M  V30 2387 C 240.676 3.4738 0.941018 0
M  V30 2388 C 240.284 4.47596 -0.190158 0
M  V30 2389 C 242.028 3.9476 1.56091 0
M  V30 2390 C 239.935 5.90787 0.269237 0
M  V30 2391 H 238.865 0.729515 0.190588 0
M  V30 2392 H 241.516 1.81988 -0.235074 0
M  V30 2393 H 239.898 3.56138 1.73152 0
M  V30 2394 H 241.072 4.50536 -0.967157 0
M  V30 2395 H 239.387 4.10151 -0.718666 0
M  V30 2396 H 241.984 4.99181 1.9163 0
M  V30 2397 H 242.327 3.36494 2.45107 0
M  V30 2398 H 242.86 3.88932 0.835249 0
M  V30 2399 H 239.599 6.52879 -0.585621 0
M  V30 2400 H 239.119 5.912 1.01204 0
M  V30 2401 H 240.798 6.42979 0.720176 0
M  V30 2402 N 240.93 -0.123565 1.57115 0
M  V30 2403 C 242.176 -0.833386 1.84885 0
M  V30 2404 C 242.509 -1.79742 0.735292 0
M  V30 2405 O 241.784 -1.92764 -0.25925 0
M  V30 2406 C 242.067 -1.5873 3.23228 0
M  V30 2407 C 241.92 -0.643183 4.45178 0
M  V30 2408 C 243.239 -2.54453 3.59085 0
M  V30 2409 H 240.358 -0.301518 0.6725 0
M  V30 2410 H 243 -0.097778 1.89748 0
M  V30 2411 H 241.15 -2.21438 3.19214 0
M  V30 2412 H 242.822 -0.0253015 4.61293 0
M  V30 2413 H 241.065 0.0456139 4.33776 0
M  V30 2414 H 241.736 -1.20724 5.38637 0
M  V30 2415 H 244.212 -2.01853 3.63861 0
M  V30 2416 H 243.088 -3.04238 4.5687 0
M  V30 2417 H 243.349 -3.36906 2.86264 0
M  V30 2418 N 242.408 -1.52605 -0.393616 0
M  V30 2419 C 243.355 -1.77055 -1.48054 0
M  V30 2420 C 244.325 -0.61358 -1.54352 0
M  V30 2421 O 245.51 -0.852806 -1.70681 0
M  V30 2422 C 242.65 -1.94108 -2.85335 0
M  V30 2423 C 241.763 -3.21792 -2.88226 0
M  V30 2424 C 240.898 -3.29188 -4.16904 0
M  V30 2425 C 239.937 -4.51013 -4.13828 0
M  V30 2426 N 239.074 -4.55716 -5.34105 0
M  V30 2427 H 243.914 -2.69815 -1.26506 0
M  V30 2428 H 241.451 -1.33683 -0.61379 0
M  V30 2429 H 243.409 -2.01979 -3.65049 0
M  V30 2430 H 242.039 -1.04713 -3.05344 0
M  V30 2431 H 241.091 -3.23015 -2.00911 0
M  V30 2432 H 242.403 -4.11557 -2.8182 0
M  V30 2433 H 241.557 -3.36216 -5.05018 0
M  V30 2434 H 240.296 -2.37389 -4.26026 0
M  V30 2435 H 239.301 -4.44115 -3.24102 0
M  V30 2436 H 240.526 -5.44123 -4.06333 0
M  V30 2437 H 238.472 -3.66807 -5.43865 0
M  V30 2438 H 238.389 -5.39346 -5.29756 0
M  V30 2439 H 239.657 -4.66993 -6.2413 0
M  V30 2440 N 243.887 0.651787 -1.4349 0
M  V30 2441 C 245.303 0.96762 -1.26922 0
M  V30 2442 C 245.503 2.00602 -0.189982 0
M  V30 2443 O 244.559 2.48793 0.431107 0
M  V30 2444 C 245.872 1.45052 -2.63401 0
M  V30 2445 C 247.42 1.5671 -2.70945 0
M  V30 2446 C 247.895 2.0839 -4.07845 0
M  V30 2447 N 249.386 2.1569 -4.09917 0
M  V30 2448 C 250.121 2.56804 -5.12679 0
M  V30 2449 N 249.617 2.97203 -6.25813 0
M  V30 2450 N 251.41 2.56756 -5.00033 0
M  V30 2451 H 243.561 -0.0353158 -2.12371 0
M  V30 2452 H 245.824 0.0467858 -0.946845 0
M  V30 2453 H 245.53 0.761926 -3.43348 0
M  V30 2454 H 245.404 2.42529 -2.88894 0
M  V30 2455 H 247.791 2.2467 -1.9133 0
M  V30 2456 H 247.872 0.57662 -2.49216 0
M  V30 2457 H 247.516 1.41031 -4.87927 0
M  V30 2458 H 247.446 3.08271 -4.26938 0
M  V30 2459 H 249.937 1.87237 -3.28254 0
M  V30 2460 H 250.25 3.27328 -7.00055 0
M  V30 2461 H 248.595 2.95004 -6.29283 0
M  V30 2462 H 251.786 2.24572 -4.10713 0
M  V30 2463 H 251.959 2.88475 -5.80247 0
M  V30 2464 N 245.365 1.30045 0.890287 0
M  V30 2465 C 246.595 1.21296 1.67245 0
M  V30 2466 C 247.003 -0.227471 1.87828 0
M  V30 2467 O 246.346 -1.16296 1.422 0
M  V30 2468 C 246.408 1.86519 3.07329 0
M  V30 2469 C 246.072 3.35837 3.09939 0
M  V30 2470 C 247.069 4.31915 2.89389 0
M  V30 2471 C 244.754 3.77196 3.31706 0
M  V30 2472 C 246.748 5.67325 2.90552 0
M  V30 2473 C 244.435 5.12725 3.32499 0
M  V30 2474 C 245.433 6.076 3.11947 0
M  V30 2475 O 245.121 7.40655 3.12547 0
M  V30 2476 H 244.853 0.4211 0.528821 0
M  V30 2477 H 247.407 1.72111 1.12103 0
M  V30 2478 H 245.637 1.30228 3.64112 0
M  V30 2479 H 247.326 1.71963 3.67673 0
M  V30 2480 H 248.092 4.01294 2.72375 0
M  V30 2481 H 243.971 3.03796 3.4674 0
M  V30 2482 H 247.515 6.41354 2.74429 0
M  V30 2483 H 243.412 5.42988 3.49047 0
M  V30 2484 H 244.18 7.49577 3.28749 0
M  V30 2485 N 246.843 -1.10192 1.12674 0
M  V30 2486 C 248.068 -1.86523 0.906853 0
M  V30 2487 C 248.493 -1.80221 -0.538711 0
M  V30 2488 O 247.851 -1.17396 -1.38158 0
M  V30 2489 C 247.899 -3.32758 1.3894 0
M  V30 2490 O 247.003 -4.08449 0.5695 0
M  V30 2491 H 246.344 -0.578678 0.325619 0
M  V30 2492 H 248.874 -1.39203 1.49946 0
M  V30 2493 H 248.884 -3.83608 1.38958 0
M  V30 2494 H 247.559 -3.36661 2.44197 0
M  V30 2495 H 246.136 -3.67427 0.636528 0
M  V30 2496 N 248.321 -0.919034 -1.28029 0
M  V30 2497 C 249.268 -0.410005 -2.27129 0
M  V30 2498 C 250.238 0.518405 -1.57803 0
M  V30 2499 O 251.423 0.439451 -1.8567 0
M  V30 2500 C 248.563 0.339054 -3.4343 0
M  V30 2501 C 247.676 -0.622468 -4.27492 0
M  V30 2502 C 246.811 0.145567 -5.31001 0
M  V30 2503 C 245.85 -0.809226 -6.06727 0
M  V30 2504 N 244.987 -0.0743728 -7.02061 0
M  V30 2505 H 249.827 -1.26011 -2.70047 0
M  V30 2506 H 247.364 -0.632663 -1.328 0
M  V30 2507 H 249.322 0.789586 -4.0966 0
M  V30 2508 H 247.952 1.15346 -3.01488 0
M  V30 2509 H 247.004 -1.19153 -3.61257 0
M  V30 2510 H 248.316 -1.35252 -4.80113 0
M  V30 2511 H 247.47 0.656417 -6.03139 0
M  V30 2512 H 246.209 0.908643 -4.79161 0
M  V30 2513 H 245.214 -1.3314 -5.33436 0
M  V30 2514 H 246.439 -1.57194 -6.60656 0
M  V30 2515 H 244.385 0.670616 -6.52563 0
M  V30 2516 H 244.302 -0.744157 -7.52329 0
M  V30 2517 H 245.57 0.416109 -7.78389 0
M  V30 2518 N 249.799 1.42003 -0.683588 0
M  V30 2519 C 250.747 2.326 0.000815408 0
M  V30 2520 C 251.741 1.50308 0.781278 0
M  V30 2521 O 252.947 1.66322 0.688251 0
M  V30 2522 H 249.322 0.751758 0.0190616 0
M  V30 2523 H 251.293 2.88011 -0.780528 0
M  V30 2524 C 250.042 3.34978 0.93195 0
M  V30 2525 H 249.365 3.98345 0.340817 0
M  V30 2526 H 250.805 4.00936 1.37936 0
M  V30 2527 C 249.264 2.67925 2.04249 0
M  V30 2528 O 249.794 2.51788 3.12995 0
M  V30 2529 N 248 2.2681 1.81675 0
M  V30 2530 H 247.547 2.40135 0.932363 0
M  V30 2531 H 247.505 1.8228 2.56167 0
M  V30 2532 N 251.277 0.427512 1.51691 0
M  V30 2533 C 252.525 -0.141948 2.01601 0
M  V30 2534 C 252.846 -1.44067 1.31414 0
M  V30 2535 O 252.116 -1.90763 0.445658 0
M  V30 2536 H 250.696 -0.0554468 0.744939 0
M  V30 2537 H 253.358 0.567968 1.86441 0
M  V30 2538 H 252.454 -0.324913 3.10404 0
M  V30 2539 N 252.755 -1.56801 0.158532 0
M  V30 2540 C 254.171 -1.5837 -0.197774 0
M  V30 2541 C 254.371 -1.17334 -1.63814 0
M  V30 2542 O 253.427 -0.878988 -2.36707 0
M  V30 2543 C 254.74 -3.00615 0.0714459 0
M  V30 2544 C 256.288 -3.12999 0.00864533 0
M  V30 2545 C 256.763 -4.57313 0.250685 0
M  V30 2546 N 258.254 -4.62777 0.198014 0
M  V30 2547 C 258.989 -5.72271 0.359642 0
M  V30 2548 N 258.485 -6.90371 0.579625 0
M  V30 2549 N 260.278 -5.61318 0.296438 0
M  V30 2550 H 252.429 -1.81765 1.09887 0
M  V30 2551 H 254.692 -0.841849 0.435884 0
M  V30 2552 H 254.398 -3.35068 1.06874 0
M  V30 2553 H 254.272 -3.71683 -0.642757 0
M  V30 2554 H 256.659 -2.7838 -0.979217 0
M  V30 2555 H 256.74 -2.44393 0.755359 0
M  V30 2556 H 256.384 -4.92639 1.2357 0
M  V30 2557 H 256.314 -5.24061 -0.516489 0
M  V30 2558 H 258.805 -3.77885 0.0331115 0
M  V30 2559 H 259.118 -7.69689 0.69275 0
M  V30 2560 H 257.463 -6.92264 0.616087 0
M  V30 2561 H 260.654 -4.67932 0.125258 0
M  V30 2562 H 260.827 -6.46599 0.425831 0
M  V30 2563 N 254.233 0.115231 -1.57178 0
M  V30 2564 C 255.482 0.820945 -1.84237 0
M  V30 2565 C 255.795 1.80866 -0.744761 0
M  V30 2566 O 257.001 2.56083 -0.901871 0
M  V30 2567 C 255.457 1.51072 -3.26658 0
M  V30 2568 C 255.065 0.563795 -4.44438 0
M  V30 2569 C 256.809 2.20134 -3.62962 0
M  V30 2570 C 254.716 1.25701 -5.77887 0
M  V30 2571 H 253.646 0.310328 -0.687177 0
M  V30 2572 H 256.297 0.0737134 -1.83352 0
M  V30 2573 H 254.679 2.30471 -3.22024 0
M  V30 2574 H 255.853 -0.197247 -4.60378 0
M  V30 2575 H 254.168 -0.0200638 -4.16395 0
M  V30 2576 H 256.765 2.72696 -4.59936 0
M  V30 2577 H 257.108 2.98107 -2.90582 0
M  V30 2578 H 257.641 1.47619 -3.69396 0
M  V30 2579 H 254.38 0.518493 -6.53446 0
M  V30 2580 H 253.9 1.98997 -5.65827 0
M  V30 2581 H 255.579 1.78915 -6.2177 0
M  V30 2582 N 255.711 1.52812 0.385517 0
M  V30 2583 C 256.958 1.68026 1.1302 0
M  V30 2584 C 257.286 0.421934 1.89868 0
M  V30 2585 O 256.541 -0.595749 1.86412 0
M  V30 2586 C 256.84 2.86856 2.13187 0
M  V30 2587 C 256.506 4.24159 1.5297 0
M  V30 2588 C 255.168 4.61501 1.36274 0
M  V30 2589 C 257.52 5.09627 1.09223 0
M  V30 2590 C 254.848 5.81966 0.743837 0
M  V30 2591 C 257.2 6.30719 0.487411 0
M  V30 2592 C 255.864 6.6679 0.307777 0
M  V30 2593 H 255.134 0.614849 0.413571 0
M  V30 2594 H 257.781 1.86962 0.414405 0
M  V30 2595 H 256.086 2.6235 2.90998 0
M  V30 2596 H 257.783 2.95821 2.70722 0
M  V30 2597 H 254.373 3.94746 1.66954 0
M  V30 2598 H 258.557 4.81343 1.20922 0
M  V30 2599 H 253.813 6.08519 0.592891 0
M  V30 2600 H 257.987 6.96259 0.140143 0
M  V30 2601 H 255.614 7.60001 -0.173879 0
M  V30 2602 N 257.189 -0.644168 1.43834 0
M  V30 2603 C 258.436 -1.40395 1.4593 0
M  V30 2604 C 258.764 -1.94305 0.0869658 0
M  V30 2605 O 258.019 -1.73288 -0.909378 0
M  V30 2606 C 258.318 -2.59615 2.45631 0
M  V30 2607 C 257.984 -2.2407 3.91284 0
M  V30 2608 C 256.646 -2.14089 4.30952 0
M  V30 2609 C 258.998 -1.95775 4.83034 0
M  V30 2610 C 256.326 -1.73981 5.6031 0
M  V30 2611 C 258.678 -1.57163 6.12766 0
M  V30 2612 C 257.342 -1.45713 6.51402 0
M  V30 2613 H 256.612 -0.513741 0.533995 0
M  V30 2614 H 259.259 -0.731724 1.76969 0
M  V30 2615 H 257.564 -3.32011 2.08028 0
M  V30 2616 H 259.261 -3.17834 2.44504 0
M  V30 2617 H 255.851 -2.32753 3.59895 0
M  V30 2618 H 260.035 -2.02403 4.53152 0
M  V30 2619 H 255.291 -1.63709 5.89075 0
M  V30 2620 H 259.465 -1.34303 6.83327 0
M  V30 2621 H 257.092 -1.14406 7.51542 0
M  V30 2622 N 258.668 -1.30515 -0.883378 0
M  V30 2623 C 259.945 -1.10086 -1.6168 0
M  V30 2624 C 260.325 0.349269 -2.08191 0
M  V30 2625 O 259.673 1.34105 -1.85008 0
M  V30 2626 C 259.883 -2.10315 -2.78511 0
M  V30 2627 C 261.231 -2.42119 -3.48803 0
M  V30 2628 O 262.255 -2.08638 -2.88702 0
M  V30 2629 O 261.114 -2.99396 -4.57192 0
M  V30 2630 H 258.208 -0.422907 -0.710689 0
M  V30 2631 H 260.754 -1.41947 -0.930015 0
M  V30 2632 H 259.526 -3.07917 -2.41459 0
M  V30 2633 H 259.149 -1.79282 -3.54886 0
M  V30 2634 N 260.146 1.09593 -1.13257 0
M  V30 2635 C 261.423 1.78293 -0.804432 0
M  V30 2636 C 261.803 1.99004 0.70431 0
M  V30 2637 O 261.151 1.59007 1.641 0
M  V30 2638 C 261.361 3.10707 -1.5894 0
M  V30 2639 C 262.709 3.85443 -1.78099 0
M  V30 2640 O 263.733 3.20454 -1.55525 0
M  V30 2641 O 262.592 5.02108 -2.15753 0
M  V30 2642 H 259.686 0.773156 -0.293528 0
M  V30 2643 H 262.232 1.16164 -1.23709 0
M  V30 2644 H 261.004 2.91106 -2.61482 0
M  V30 2645 H 260.627 3.80558 -1.15157 0
M  V30 2646 N 261.624 0.925811 1.2754 0
M  V30 2647 C 262.854 0.580666 1.98272 0
M  V30 2648 C 263.262 -0.845207 1.69272 0
M  V30 2649 O 262.605 -1.57306 0.948707 0
M  V30 2650 C 262.667 0.724418 3.52126 0
M  V30 2651 C 262.331 2.12206 4.04744 0
M  V30 2652 C 263.328 3.09604 4.17662 0
M  V30 2653 C 261.013 2.4385 4.39138 0
M  V30 2654 C 263.007 4.36755 4.64246 0
M  V30 2655 C 260.694 3.71237 4.85414 0
M  V30 2656 C 261.692 4.67503 4.97926 0
M  V30 2657 O 261.38 5.92624 5.43187 0
M  V30 2658 H 261.112 0.218987 0.639547 0
M  V30 2659 H 263.666 1.24452 1.63404 0
M  V30 2660 H 261.896 0.0034663 3.867 0
M  V30 2661 H 263.585 0.384607 4.04074 0
M  V30 2662 H 264.351 2.86478 3.91351 0
M  V30 2663 H 260.23 1.69665 4.28643 0
M  V30 2664 H 263.774 5.11898 4.73927 0
M  V30 2665 H 259.671 3.94182 5.11166 0
M  V30 2666 H 260.439 5.95585 5.61445 0
M  V30 2667 N 263.102 -1.41638 0.69111 0
M  V30 2668 C 264.348 -2.01598 0.220519 0
M  V30 2669 C 264.681 -1.54594 -1.17535 0
M  V30 2670 O 263.956 -0.755177 -1.79241 0
M  V30 2671 C 264.239 -3.59062 0.273243 0
M  V30 2672 C 264.092 -4.16203 1.70573 0
M  V30 2673 C 265.411 -4.38546 -0.369457 0
M  V30 2674 H 262.53 -0.732468 0.0816045 0
M  V30 2675 H 265.172 -1.68445 0.878986 0
M  V30 2676 H 263.322 -3.87435 -0.287411 0
M  V30 2677 H 264.994 -3.98722 2.31989 0
M  V30 2678 H 263.237 -3.71414 2.2413 0
M  V30 2679 H 263.908 -5.25358 1.69419 0
M  V30 2680 H 266.384 -4.1596 0.107977 0
M  V30 2681 H 265.26 -5.48069 -0.302002 0
M  V30 2682 H 265.521 -4.17662 -1.44951 0
M  V30 2683 N 264.58 -0.43555 -1.51462 0
M  V30 2684 C 265.543 0.365137 -2.26273 0
M  V30 2685 C 266.543 0.951227 -1.29647 0
M  V30 2686 O 267.733 0.825958 -1.53374 0
M  V30 2687 C 264.865 1.51645 -3.05314 0
M  V30 2688 H 266.058 -0.290474 -2.9849 0
M  V30 2689 H 263.611 -0.188676 -1.55157 0
M  V30 2690 H 264.346 2.20816 -2.3751 0
M  V30 2691 H 264.131 1.10238 -3.76284 0
M  V30 2692 H 265.621 2.08218 -3.61987 0
M  V30 2693 N 266.058 1.56714 -0.166846 0
M  V30 2694 C 267.298 1.98641 0.481763 0
M  V30 2695 C 267.662 1.05038 1.6072 0
M  V30 2696 O 268.863 1.36087 2.31805 0
M  V30 2697 C 267.134 3.44362 0.956517 0
M  V30 2698 S 268.693 4.08317 1.60694 0
M  V30 2699 H 265.511 0.693873 0.155116 0
M  V30 2700 H 268.113 1.93719 -0.263251 0
M  V30 2701 H 266.817 4.10204 0.126936 0
M  V30 2702 H 266.348 3.53041 1.73568 0
M  V30 2703 H 268.363 4.02999 2.89494 0
M  V30 2704 N 267.536 -0.106894 1.57237 0
M  V30 2705 C 268.776 -0.818277 1.87306 0
M  V30 2706 C 269.14 -1.76474 0.756371 0
M  V30 2707 O 270.341 -2.5186 0.939155 0
M  V30 2708 C 268.612 -1.53806 3.22612 0
M  V30 2709 S 270.171 -2.28935 3.74345 0
M  V30 2710 H 266.989 -0.272862 0.656557 0
M  V30 2711 H 269.591 -0.075988 1.95352 0
M  V30 2712 H 268.295 -0.834951 4.01817 0
M  V30 2713 H 267.826 -2.32049 3.17674 0
M  V30 2714 H 269.841 -3.54871 3.46815 0
M  V30 2715 N 269.014 -1.53014 -0.377408 0
M  V30 2716 C 270.26 -1.68872 -1.12294 0
M  V30 2717 C 270.593 -0.433224 -1.89306 0
M  V30 2718 O 269.868 0.569258 -1.85983 0
M  V30 2719 C 270.151 -2.93115 -2.09179 0
M  V30 2720 C 270.004 -4.28794 -1.35853 0
M  V30 2721 C 271.323 -3.12928 -3.09458 0
M  V30 2722 H 268.442 -0.614518 -0.406862 0
M  V30 2723 H 271.084 -1.85633 -0.40503 0
M  V30 2724 H 269.234 -2.78956 -2.70399 0
M  V30 2725 H 270.906 -4.54742 -0.775082 0
M  V30 2726 H 269.149 -4.28744 -0.660364 0
M  V30 2727 H 269.82 -5.11837 -2.06706 0
M  V30 2728 H 272.296 -3.26194 -2.58334 0
M  V30 2729 H 271.172 -4.01316 -3.74482 0
M  V30 2730 H 271.433 -2.27669 -3.78971 0
M  V30 2731 N 270.492 0.636531 -1.44174 0
M  V30 2732 C 271.439 1.74875 -1.50624 0
M  V30 2733 C 272.409 1.62275 -0.35442 0
M  V30 2734 O 273.594 1.82276 -0.563908 0
M  V30 2735 C 270.734 3.13102 -1.45125 0
M  V30 2736 C 269.847 3.36717 -2.7064 0
M  V30 2737 C 268.982 4.64885 -2.57013 0
M  V30 2738 C 268.021 4.8166 -3.77717 0
M  V30 2739 N 267.158 6.01101 -3.62798 0
M  V30 2740 H 271.998 1.68697 -2.45653 0
M  V30 2741 H 269.535 0.823004 -1.21922 0
M  V30 2742 H 271.493 3.93034 -1.39929 0
M  V30 2743 H 270.123 3.18308 -0.536671 0
M  V30 2744 H 269.175 2.50763 -2.86046 0
M  V30 2745 H 270.487 3.44993 -3.60252 0
M  V30 2746 H 269.641 5.52969 -2.49619 0
M  V30 2747 H 268.38 4.58957 -1.64953 0
M  V30 2748 H 267.385 3.92007 -3.85501 0
M  V30 2749 H 268.61 4.89406 -4.70807 0
M  V30 2750 H 266.556 5.96273 -2.73486 0
M  V30 2751 H 266.473 6.10409 -4.46023 0
M  V30 2752 H 267.741 6.91761 -3.59286 0
M  V30 2753 N 271.97 1.30982 0.876444 0
M  V30 2754 C 272.9 1.20668 1.99903 0
M  V30 2755 C 273.881 0.095354 1.69833 0
M  V30 2756 O 275.066 0.27885 1.92188 0
M  V30 2757 C 272.196 0.90655 3.3526 0
M  V30 2758 C 271.15 1.97675 3.79617 0
M  V30 2759 C 270.476 1.52943 5.1236 0
M  V30 2760 C 271.776 3.389 3.97422 0
M  V30 2761 H 273.47 2.14586 2.0879 0
M  V30 2762 H 271.016 1.03308 1.00317 0
M  V30 2763 H 272.969 0.821025 4.13324 0
M  V30 2764 H 271.693 -0.0682969 3.26529 0
M  V30 2765 H 270.352 2.05205 3.03787 0
M  V30 2766 H 270 0.54262 5.00065 0
M  V30 2767 H 269.7 2.24532 5.43009 0
M  V30 2768 H 271.224 1.45786 5.92941 0
M  V30 2769 H 272.638 3.34081 4.659 0
M  V30 2770 H 271.035 4.0865 4.3946 0
M  V30 2771 H 272.105 3.80163 3.01006 0
M  V30 2772 N 273.449 -1.08991 1.13837 0
M  V30 2773 C 274.865 -1.33312 0.877506 0
M  V30 2774 C 275.065 -1.95587 -0.48456 0
M  V30 2775 O 274.121 -2.20509 -1.23013 0
M  V30 2776 C 275.434 -2.24045 2.0056 0
M  V30 2777 C 276.982 -2.37542 2.03821 0
M  V30 2778 C 277.457 -3.31614 3.15905 0
M  V30 2779 N 278.948 -3.39189 3.15445 0
M  V30 2780 C 279.683 -4.11992 3.98811 0
M  V30 2781 N 279.179 -4.87553 4.92203 0
M  V30 2782 N 280.972 -4.07762 3.86894 0
M  V30 2783 H 273.123 -0.669456 2.01574 0
M  V30 2784 H 275.386 -0.357482 0.878015 0
M  V30 2785 H 275.092 -1.85521 2.98789 0
M  V30 2786 H 274.966 -3.24466 1.92359 0
M  V30 2787 H 277.353 -2.75327 1.06202 0
M  V30 2788 H 277.434 -1.36884 2.16093 0
M  V30 2789 H 277.078 -2.94551 4.13766 0
M  V30 2790 H 277.008 -4.32186 3.0087 0
M  V30 2791 H 279.499 -2.85314 2.47799 0
M  V30 2792 H 279.812 -5.40549 5.52292 0
M  V30 2793 H 278.157 -4.86627 4.96205 0
M  V30 2794 H 281.348 -3.47833 3.13257 0
M  V30 2795 H 281.521 -4.64238 4.52092 0
M  V30 2796 N 274.927 -0.932562 -1.27047 0
M  V30 2797 C 275.89 -0.440064 -2.24936 0
M  V30 2798 C 276.89 0.444071 -1.54547 0
M  V30 2799 O 278.08 0.244465 -1.72476 0
M  V30 2800 C 275.212 0.36678 -3.38921 0
M  V30 2801 H 276.405 -1.305 -2.70018 0
M  V30 2802 H 273.958 -0.713707 -1.39054 0
M  V30 2803 H 274.693 1.25033 -2.99228 0
M  V30 2804 H 274.478 -0.267204 -3.91188 0
M  V30 2805 H 275.968 0.701567 -4.11665 0
M  V30 2806 N 276.405 1.4127 -0.698611 0
M  V30 2807 C 277.335 2.33447 -0.049629 0
M  V30 2808 C 278.316 1.51982 0.763898 0
M  V30 2809 O 279.501 1.80509 0.716257 0
M  V30 2810 C 276.631 3.35828 0.885267 0
M  V30 2811 C 275.585 4.27627 0.178613 0
M  V30 2812 C 274.911 5.20406 1.22807 0
M  V30 2813 C 276.211 5.13459 -0.956933 0
M  V30 2814 H 277.905 2.87966 -0.81951 0
M  V30 2815 H 275.451 1.38461 -0.395538 0
M  V30 2816 H 277.404 3.9924 1.34854 0
M  V30 2817 H 276.128 2.79666 1.68685 0
M  V30 2818 H 274.787 3.65643 -0.26466 0
M  V30 2819 H 274.435 4.60558 2.02226 0
M  V30 2820 H 274.135 5.82661 0.760239 0
M  V30 2821 H 275.659 5.86695 1.69179 0
M  V30 2822 H 277.073 5.70421 -0.573805 0
M  V30 2823 H 275.47 5.8467 -1.35205 0
M  V30 2824 H 276.54 4.50443 -1.79524 0
M  V30 2825 N 277.883 0.443576 1.51229 0
M  V30 2826 C 279.111 -0.11929 2.06556 0
M  V30 2827 C 279.526 -1.35921 1.31038 0
M  V30 2828 O 278.883 -1.78675 0.371704 0
M  V30 2829 C 278.934 -0.435228 3.5887 0
M  V30 2830 O 278.655 0.755486 4.31537 0
M  V30 2831 C 280.156 -1.04808 4.30732 0
M  V30 2832 H 277.376 -0.0051584 0.67098 0
M  V30 2833 H 279.92 0.624453 1.94733 0
M  V30 2834 H 278.075 -1.12887 3.70588 0
M  V30 2835 H 278.489 0.483491 5.22267 0
M  V30 2836 H 279.963 -1.2191 5.3837 0
M  V30 2837 H 280.44 -2.03081 3.89429 0
M  V30 2838 H 281.046 -0.393637 4.23474 0
M  V30 2839 N 279.361 -1.56624 0.175154 0
M  V30 2840 C 280.638 -1.88688 -0.515373 0
M  V30 2841 C 281.018 -1.08564 -1.81044 0
M  V30 2842 O 280.366 -0.180703 -2.27784 0
M  V30 2843 C 280.576 -3.40768 -0.753552 0
M  V30 2844 C 281.924 -4.10587 -1.08184 0
M  V30 2845 O 282.948 -3.46106 -0.841961 0
M  V30 2846 O 281.807 -5.24512 -1.53459 0
M  V30 2847 H 278.901 -0.78301 -0.26613 0
M  V30 2848 H 281.447 -1.68347 0.213877 0
M  V30 2849 H 280.219 -3.90965 0.161829 0
M  V30 2850 H 279.842 -3.66733 -1.53598 0
M  V30 2851 N 280.839 0.0985539 -1.57292 0
M  V30 2852 C 282.086 0.802678 -1.85912 0
M  V30 2853 C 282.414 1.78901 -0.763186 0
M  V30 2854 O 281.669 1.94178 0.243559 0
M  V30 2855 C 281.968 1.56927 -3.21105 0
M  V30 2856 C 281.634 0.725376 -4.45027 0
M  V30 2857 C 280.296 0.492726 -4.78671 0
M  V30 2858 C 282.648 0.138493 -5.21016 0
M  V30 2859 C 279.976 -0.336727 -5.85733 0
M  V30 2860 C 282.328 -0.678264 -6.28953 0
M  V30 2861 C 280.992 -0.921039 -6.61115 0
M  V30 2862 H 280.262 0.293721 -0.680301 0
M  V30 2863 H 282.909 0.0642841 -1.91392 0
M  V30 2864 H 281.214 2.37914 -3.11294 0
M  V30 2865 H 282.911 2.11841 -3.40477 0
M  V30 2866 H 279.501 0.916815 -4.18679 0
M  V30 2867 H 283.685 0.305404 -4.95359 0
M  V30 2868 H 278.941 -0.533836 -6.09065 0
M  V30 2869 H 283.115 -1.1399 -6.87007 0
M  V30 2870 H 280.742 -1.56556 -7.43905 0
M  V30 2871 N 282.317 1.53212 0.369288 0
M  V30 2872 C 283.564 1.69215 1.11232 0
M  V30 2873 C 283.892 0.442048 1.8941 0
M  V30 2874 O 283.147 -0.575944 1.87033 0
M  V30 2875 C 283.446 2.89101 2.10132 0
M  V30 2876 C 283.112 4.25758 1.48463 0
M  V30 2877 C 281.774 4.6292 1.31372 0
M  V30 2878 C 284.126 5.10757 1.03811 0
M  V30 2879 C 281.454 5.82722 0.68207 0
M  V30 2880 C 283.806 6.31201 0.420487 0
M  V30 2881 C 282.47 6.67079 0.237038 0
M  V30 2882 H 281.74 0.619201 0.407027 0
M  V30 2883 H 284.387 1.87391 0.394552 0
M  V30 2884 H 282.692 2.65421 2.88199 0
M  V30 2885 H 284.389 2.98676 2.6757 0
M  V30 2886 H 280.979 3.96494 1.62758 0
M  V30 2887 H 285.163 4.82599 1.1581 0
M  V30 2888 H 280.419 6.09113 0.528316 0
M  V30 2889 H 284.593 6.96368 0.0662874 0
M  V30 2890 H 282.22 7.59774 -0.254477 0
M  V30 2891 N 283.795 -0.628877 1.44509 0
M  V30 2892 C 285.211 -0.947305 1.28446 0
M  V30 2893 C 285.411 -2.00275 0.221872 0
M  V30 2894 O 284.467 -2.49447 -0.391471 0
M  V30 2895 C 285.78 -1.40843 2.65676 0
M  V30 2896 C 287.328 -1.52379 2.73404 0
M  V30 2897 C 287.803 -2.01875 4.11109 0
M  V30 2898 N 289.294 -2.09142 4.13296 0
M  V30 2899 C 290.029 -2.48615 5.16699 0
M  V30 2900 N 289.525 -2.87209 6.30462 0
M  V30 2901 N 291.318 -2.48768 5.04054 0
M  V30 2902 H 283.469 0.0690977 2.12288 0
M  V30 2903 H 285.732 -0.0317164 0.947469 0
M  V30 2904 H 285.438 -0.707206 3.44516 0
M  V30 2905 H 285.312 -2.37902 2.92716 0
M  V30 2906 H 287.699 -2.21598 1.9488 0
M  V30 2907 H 287.78 -0.536898 2.50102 0
M  V30 2908 H 287.424 -1.3325 4.90109 0
M  V30 2909 H 287.354 -3.0144 4.31789 0
M  V30 2910 H 289.845 -1.81991 3.31191 0
M  V30 2911 H 290.158 -3.16149 7.05174 0
M  V30 2912 H 288.503 -2.84955 6.33897 0
M  V30 2913 H 291.694 -2.18009 4.14234 0
M  V30 2914 H 291.867 -2.79207 5.84763 0
M  V30 2915 N 285.273 -1.31445 -0.869486 0
M  V30 2916 C 286.22 -1.19135 -1.97675 0
M  V30 2917 C 287.19 -0.0770266 -1.65921 0
M  V30 2918 O 288.375 -0.249972 -1.89155 0
M  V30 2919 C 285.515 -0.905149 -3.33018 0
M  V30 2920 C 284.628 -2.10285 -3.77365 0
M  V30 2921 C 283.763 -1.75339 -5.01427 0
M  V30 2922 C 282.802 -2.91515 -5.38224 0
M  V30 2923 N 281.939 -2.56762 -6.53466 0
M  V30 2924 H 286.779 -2.13853 -2.07535 0
M  V30 2925 H 284.316 -1.06379 -1.01597 0
M  V30 2926 H 286.274 -0.719765 -4.10944 0
M  V30 2927 H 284.904 0.00519624 -3.228 0
M  V30 2928 H 283.956 -2.39899 -2.95216 0
M  V30 2929 H 285.268 -2.97237 -4.00564 0
M  V30 2930 H 284.422 -1.53266 -5.87022 0
M  V30 2931 H 283.161 -0.855801 -4.80133 0
M  V30 2932 H 282.166 -3.14237 -4.51149 0
M  V30 2933 H 283.391 -3.81985 -5.61484 0
M  V30 2934 H 281.337 -1.69526 -6.33717 0
M  V30 2935 H 281.254 -3.37243 -6.76612 0
M  V30 2936 H 282.522 -2.38083 -7.42251 0
M  V30 2937 N 286.751 1.08385 -1.14413 0
M  V30 2938 C 288.167 1.32844 -0.884563 0
M  V30 2939 C 288.367 1.95841 0.474181 0
M  V30 2940 O 287.423 2.21158 1.21842 0
M  V30 2941 C 288.736 2.22978 -2.01745 0
M  V30 2942 C 290.284 2.36458 -2.05077 0
M  V30 2943 C 290.759 3.29934 -3.1766 0
M  V30 2944 N 292.25 3.37511 -3.17239 0
M  V30 2945 C 292.985 4.09871 -4.0099 0
M  V30 2946 N 292.481 4.84936 -4.94781 0
M  V30 2947 N 294.274 4.05704 -3.89051 0
M  V30 2948 H 286.425 0.658756 -2.01926 0
M  V30 2949 H 288.688 0.352821 -0.879899 0
M  V30 2950 H 288.394 1.83934 -2.99769 0
M  V30 2951 H 288.268 3.23441 -1.94077 0
M  V30 2952 H 290.655 2.7476 -1.0766 0
M  V30 2953 H 290.736 1.35736 -2.16816 0
M  V30 2954 H 290.38 2.92352 -4.15322 0
M  V30 2955 H 290.31 4.30584 -3.03158 0
M  V30 2956 H 292.801 2.83996 -2.49308 0
M  V30 2957 H 293.114 5.37612 -5.55151 0
M  V30 2958 H 291.459 4.83988 -4.98779 0
M  V30 2959 H 294.65 3.46167 -3.15097 0
M  V30 2960 H 294.823 4.61834 -4.54547 0
M  V30 2961 N 288.23 0.939286 1.26551 0
M  V30 2962 C 289.507 0.5038 1.89001 0
M  V30 2963 C 289.887 -1.01854 1.84903 0
M  V30 2964 O 289.235 -1.87773 1.30206 0
M  V30 2965 C 289.445 1.063 3.32417 0
M  V30 2966 C 290.793 1.13051 4.09273 0
M  V30 2967 O 291.817 1.01345 3.41479 0
M  V30 2968 O 290.676 1.31233 5.30509 0
M  V30 2969 H 287.77 0.163897 0.810597 0
M  V30 2970 H 290.316 1.03173 1.34735 0
M  V30 2971 H 289.088 2.10665 3.29752 0
M  V30 2972 H 288.711 0.517408 3.94219 0
M  V30 2973 N 289.708 -1.40897 0.706093 0
M  V30 2974 C 290.658 -2.27987 0.0240746 0
M  V30 2975 C 291.642 -1.42759 -0.742204 0
M  V30 2976 O 292.834 -1.65936 -0.615966 0
M  V30 2977 C 289.963 -3.31186 -0.903907 0
M  V30 2978 C 289.049 -4.2389 -0.133318 0
M  V30 2979 N 289.44 -4.98113 0.878444 0
M  V30 2980 C 287.738 -4.44485 -0.367269 0
M  V30 2981 C 288.439 -5.6604 1.34064 0
M  V30 2982 N 287.415 -5.39522 0.664565 0
M  V30 2983 H 291.217 -2.82812 0.799658 0
M  V30 2984 H 288.731 -1.53235 0.537845 0
M  V30 2985 H 290.728 -3.92413 -1.40775 0
M  V30 2986 H 289.388 -2.77922 -1.67897 0
M  V30 2987 H 290.399 -5.02364 1.25901 0
M  V30 2988 H 287.076 -4.02213 -1.1194 0
M  V30 2989 H 288.466 -6.35524 2.1808 0
M  V30 2990 N 291.186 -0.45159 -1.50991 0
M  V30 2991 C 292.116 0.342898 -2.30969 0
M  V30 2992 C 293.097 1.00815 -1.37005 0
M  V30 2993 O 294.282 1.00907 -1.65926 0
M  V30 2994 C 291.412 1.43637 -3.16205 0
M  V30 2995 C 290.366 0.893818 -4.18563 0
M  V30 2996 C 289.692 2.08411 -4.92411 0
M  V30 2997 C 290.992 -0.0815568 -5.22236 0
M  V30 2998 H 292.686 -0.324556 -2.97636 0
M  V30 2999 H 290.232 -0.157531 -1.43136 0
M  V30 3000 H 292.185 1.9995 -3.70942 0
M  V30 3001 H 290.909 2.13232 -2.47386 0
M  V30 3002 H 289.568 0.352798 -3.64898 0
M  V30 3003 H 289.216 2.76658 -4.20082 0
M  V30 3004 H 288.916 1.72741 -5.61636 0
M  V30 3005 H 290.44 2.65251 -5.49976 0
M  V30 3006 H 291.854 0.391742 -5.7196 0
M  V30 3007 H 290.251 -0.351551 -5.99069 0
M  V30 3008 H 291.321 -1.01374 -4.74185 0
M  V30 3009 N 292.664 1.56529 -0.183458 0
M  V30 3010 C 293.596 2.15747 0.773697 0
M  V30 3011 C 294.609 1.1162 1.1851 0
M  V30 3012 O 295.798 1.3876 1.12285 0
M  V30 3013 C 292.898 2.6952 2.05456 0
M  V30 3014 C 292.071 3.98429 1.8048 0
M  V30 3015 C 291.13 4.37145 2.92901 0
M  V30 3016 O 290.156 5.04791 2.6301 0
M  V30 3017 N 291.358 3.99695 4.2098 0
M  V30 3018 H 294.123 2.98505 0.26736 0
M  V30 3019 H 291.684 1.619 -0.0010878 0
M  V30 3020 H 293.676 2.92412 2.79781 0
M  V30 3021 H 292.246 1.91282 2.47245 0
M  V30 3022 H 291.466 3.8379 0.899947 0
M  V30 3023 H 292.754 4.82597 1.61175 0
M  V30 3024 H 292.152 3.4526 4.48121 0
M  V30 3025 H 290.709 4.27562 4.9197 0
M  V30 3026 N 294.142 -0.090211 1.57342 0
M  V30 3027 C 295.074 -1.13541 1.99101 0
M  V30 3028 C 296.087 -1.3604 0.894258 0
M  V30 3029 O 297.276 -1.34606 1.17233 0
M  V30 3030 C 294.376 -2.49001 2.29895 0
M  V30 3031 C 293.549 -2.46712 3.61182 0
M  V30 3032 C 292.608 -3.64136 3.79857 0
M  V30 3033 O 291.634 -3.46405 4.51655 0
M  V30 3034 N 292.836 -4.83802 3.20806 0
M  V30 3035 H 295.601 -0.779942 2.89373 0
M  V30 3036 H 293.162 -0.279125 1.59476 0
M  V30 3037 H 295.154 -3.26166 2.39578 0
M  V30 3038 H 293.724 -2.76619 1.45605 0
M  V30 3039 H 292.944 -1.55058 3.62423 0
M  V30 3040 H 294.232 -2.42265 4.4742 0
M  V30 3041 H 293.63 -5.01112 2.62494 0
M  V30 3042 H 292.187 -5.58543 3.35966 0
M  V30 3043 N 295.62 -1.53406 -0.361157 0
M  V30 3044 C 296.868 -1.69467 -1.10115 0
M  V30 3045 C 297.189 -0.451352 -1.89705 0
M  V30 3046 O 296.459 0.534636 -1.88463 0
M  V30 3047 H 295.039 -0.624749 -0.409508 0
M  V30 3048 H 297.701 -1.90609 -0.406699 0
M  V30 3049 H 296.797 -2.55774 -1.78847 0
M  V30 3050 N 297.098 0.621204 -1.44841 0
M  V30 3051 C 298.323 1.41244 -1.51871 0
M  V30 3052 C 298.748 1.87519 -0.147764 0
M  V30 3053 O 298.106 1.59334 0.865 0
M  V30 3054 C 298.154 2.60221 -2.49634 0
M  V30 3055 O 297.258 3.60395 -2.00473 0
M  V30 3056 H 296.599 0.42223 -0.512463 0
M  V30 3057 H 299.129 0.757305 -1.90069 0
M  V30 3058 H 299.139 3.0764 -2.67996 0
M  V30 3059 H 297.814 2.25887 -3.4921 0
M  V30 3060 H 296.391 3.19717 -1.91925 0
M  V30 3061 N 298.576 1.31904 0.862503 0
M  V30 3062 C 299.539 1.20131 1.95195 0
M  V30 3063 C 300.539 0.126409 1.60302 0
M  V30 3064 O 301.729 0.376234 1.70089 0
M  V30 3065 C 298.861 0.845691 3.30244 0
M  V30 3066 H 300.054 2.16943 2.07064 0
M  V30 3067 H 297.607 1.15622 1.05172 0
M  V30 3068 H 298.342 -0.120957 3.24074 0
M  V30 3069 H 298.127 1.62276 3.56944 0
M  V30 3070 H 299.617 0.787418 4.10109 0
M  V30 3071 N 300.054 -1.07777 1.14986 0
M  V30 3072 C 301.002 -2.16964 0.838406 0
M  V30 3073 C 301.996 -1.68372 -0.186386 0
M  V30 3074 O 303.202 -1.79951 -0.0418465 0
M  V30 3075 H 299.577 -0.708006 0.253439 0
M  V30 3076 H 301.548 -2.40454 1.76704 0
M  V30 3077 C 300.297 -3.4604 0.339335 0
M  V30 3078 H 299.62 -3.83813 1.11927 0
M  V30 3079 H 301.06 -4.23698 0.160021 0
M  V30 3080 C 299.519 -3.23569 -0.938325 0
M  V30 3081 O 300.049 -3.47752 -2.01077 0
M  V30 3082 N 298.255 -2.77079 -0.876117 0
M  V30 3083 H 297.802 -2.576 -0.00322037 0
M  V30 3084 H 297.76 -2.62422 -1.73153 0
M  V30 3085 N 301.532 -0.945985 -1.26051 0
M  V30 3086 C 302.779 -0.596118 -1.93527 0
M  V30 3087 C 303.107 0.865559 -1.74179 0
M  V30 3088 O 302.362 1.63524 -1.0751 0
M  V30 3089 C 302.661 -0.890475 -3.46129 0
M  V30 3090 C 302.327 -2.3368 -3.85622 0
M  V30 3091 C 300.989 -2.73216 -3.96114 0
M  V30 3092 C 303.341 -3.27648 -4.05334 0
M  V30 3093 C 300.669 -4.05806 -4.2372 0
M  V30 3094 C 303.021 -4.59841 -4.3443 0
M  V30 3095 C 301.685 -4.99185 -4.43137 0
M  V30 3096 H 300.955 -0.218135 -0.708165 0
M  V30 3097 H 303.602 -1.1934 -1.49768 0
M  V30 3098 H 301.907 -0.210711 -3.91233 0
M  V30 3099 H 303.604 -0.598478 -3.96509 0
M  V30 3100 H 300.194 -2.02015 -3.78005 0
M  V30 3101 H 304.378 -2.98298 -3.96651 0
M  V30 3102 H 299.634 -4.35945 -4.28675 0
M  V30 3103 H 303.808 -5.32641 -4.48628 0
M  V30 3104 H 301.435 -6.01952 -4.64282 0
M  V30 3105 N 303.011 1.40521 -0.713556 0
M  V30 3106 C 304.26 2.00155 -0.249192 0
M  V30 3107 C 304.573 1.57224 1.16362 0
M  V30 3108 O 305.779 2.09542 1.72639 0
M  V30 3109 C 304.235 3.5773 -0.3946 0
M  V30 3110 C 303.843 4.09635 -1.81392 0
M  V30 3111 C 305.587 4.24499 0.00907364 0
M  V30 3112 C 303.494 5.59707 -1.91003 0
M  V30 3113 H 302.424 0.74868 -0.0894114 0
M  V30 3114 H 305.075 1.60784 -0.884352 0
M  V30 3115 H 303.457 3.94792 0.30911 0
M  V30 3116 H 304.631 3.83955 -2.54785 0
M  V30 3117 H 302.946 3.55456 -2.16888 0
M  V30 3118 H 305.543 5.34683 -0.0420404 0
M  V30 3119 H 305.886 4.02824 1.05065 0
M  V30 3120 H 306.419 3.92536 -0.645007 0
M  V30 3121 H 303.158 5.86234 -2.93275 0
M  V30 3122 H 302.678 5.87258 -1.22019 0
M  V30 3123 H 304.357 6.24776 -1.6812 0
M  V30 3124 N 304.489 0.459591 1.5075 0
M  V30 3125 C 305.719 -0.0972338 2.06371 0
M  V30 3126 C 306.127 -1.35074 1.32483 0
M  V30 3127 O 305.47 -1.79637 0.384226 0
M  V30 3128 C 305.532 -0.462759 3.56509 0
M  V30 3129 C 305.196 0.687084 4.51805 0
M  V30 3130 C 306.193 1.56578 4.95761 0
M  V30 3131 C 303.878 0.874144 4.94635 0
M  V30 3132 C 305.872 2.61604 5.81242 0
M  V30 3133 C 303.559 1.92765 5.79901 0
M  V30 3134 C 304.557 2.79697 6.23104 0
M  V30 3135 O 304.245 3.83235 7.06673 0
M  V30 3136 H 303.977 -0.00140687 0.675999 0
M  V30 3137 H 306.531 0.644011 1.95043 0
M  V30 3138 H 304.761 -1.25703 3.65699 0
M  V30 3139 H 306.45 -0.953323 3.94546 0
M  V30 3140 H 307.216 1.4329 4.6335 0
M  V30 3141 H 303.095 0.207006 4.60535 0
M  V30 3142 H 306.639 3.29489 6.14884 0
M  V30 3143 H 302.536 2.06064 6.11725 0
M  V30 3144 H 303.304 3.80084 7.24899 0
M  V30 3145 N 305.967 -1.56429 0.191757 0
M  V30 3146 C 307.244 -1.89224 -0.495332 0
M  V30 3147 C 307.624 -1.10478 -1.79883 0
M  V30 3148 O 306.972 -0.204852 -2.2758 0
M  V30 3149 C 307.182 -3.41548 -0.717367 0
M  V30 3150 C 308.53 -4.11711 -1.03823 0
M  V30 3151 O 309.554 -3.4698 -0.805204 0
M  V30 3152 O 308.413 -5.2611 -1.47887 0
M  V30 3153 H 305.507 -0.785788 -0.25781 0
M  V30 3154 H 308.053 -1.68111 0.231721 0
M  V30 3155 H 306.825 -3.90772 0.203287 0
M  V30 3156 H 306.448 -3.68342 -1.497 0
M  V30 3157 N 307.445 0.0818655 -1.57387 0
M  V30 3158 C 308.722 0.815343 -1.77796 0
M  V30 3159 C 309.102 1.96289 -0.77679 0
M  V30 3160 O 308.45 2.27691 0.192106 0
M  V30 3161 C 308.66 1.29765 -3.23978 0
M  V30 3162 C 310.008 1.7351 -3.8753 0
M  V30 3163 O 311.032 1.39356 -3.27808 0
M  V30 3164 O 309.891 2.36708 -4.92576 0
M  V30 3165 H 306.985 0.389914 -0.729312 0
M  V30 3166 H 309.531 0.0627213 -1.69584 0
M  V30 3167 H 308.303 0.47608 -3.88393 0
M  V30 3168 H 307.926 2.11189 -3.36875 0
M  V30 3169 N 308.923 1.53595 0.353017 0
M  V30 3170 C 310.17 1.70385 1.09431 0
M  V30 3171 C 310.498 0.462113 1.88931 0
M  V30 3172 O 309.753 -0.556074 1.87633 0
M  V30 3173 C 310.052 2.91313 2.07054 0
M  V30 3174 C 309.718 4.27308 1.43939 0
M  V30 3175 C 308.38 4.64287 1.26454 0
M  V30 3176 C 310.732 5.11829 0.983883 0
M  V30 3177 C 308.06 5.83412 0.620226 0
M  V30 3178 C 310.412 6.31611 0.353516 0
M  V30 3179 C 309.076 6.67293 0.166272 0
M  V30 3180 H 308.346 0.623484 0.400436 0
M  V30 3181 H 310.993 1.87799 0.374655 0
M  V30 3182 H 309.298 2.68463 2.85368 0
M  V30 3183 H 310.995 3.01497 2.64387 0
M  V30 3184 H 307.585 3.98198 1.58543 0
M  V30 3185 H 311.769 4.838 1.10685 0
M  V30 3186 H 307.025 6.09639 0.463681 0
M  V30 3187 H 311.199 6.964 -0.00757555 0
M  V30 3188 H 308.826 7.59461 -0.335047 0
M  V30 3189 N 310.401 -0.613514 1.45168 0
M  V30 3190 C 311.331 -1.7354 1.56225 0
M  V30 3191 C 312.312 -1.64981 0.41414 0
M  V30 3192 O 313.497 -1.83472 0.636526 0
M  V30 3193 C 310.627 -3.12128 1.52295 0
M  V30 3194 C 309.581 -3.35491 2.65762 0
M  V30 3195 C 308.907 -4.74291 2.46885 0
M  V30 3196 C 310.207 -3.26325 4.0781 0
M  V30 3197 H 311.901 -1.64543 2.50132 0
M  V30 3198 H 309.447 -0.790185 1.20383 0
M  V30 3199 H 311.4 -3.90404 1.58628 0
M  V30 3200 H 310.124 -3.2195 0.549139 0
M  V30 3201 H 308.783 -2.59603 2.58847 0
M  V30 3202 H 308.431 -4.80839 1.47657 0
M  V30 3203 H 308.131 -4.9088 3.22972 0
M  V30 3204 H 309.655 -5.54775 2.55063 0
M  V30 3205 H 311.069 -3.94483 4.16 0
M  V30 3206 H 309.466 -3.54445 4.8424 0
M  V30 3207 H 310.536 -2.23855 4.30136 0
M  V30 3208 N 311.879 -1.3236 -0.855495 0
M  V30 3209 C 312.811 -1.17052 -1.97057 0
M  V30 3210 C 313.824 -0.10574 -1.62456 0
M  V30 3211 O 315.013 -0.354619 -1.74942 0
M  V30 3212 C 312.113 -0.769305 -3.30053 0
M  V30 3213 C 311.286 -1.9222 -3.929 0
M  V30 3214 C 310.345 -1.50466 -5.04228 0
M  V30 3215 O 309.371 -2.21655 -5.24269 0
M  V30 3216 N 310.573 -0.400209 -5.79119 0
M  V30 3217 H 313.338 -2.13103 -2.1073 0
M  V30 3218 H 310.899 -1.24885 -1.0303 0
M  V30 3219 H 312.891 -0.472407 -4.01933 0
M  V30 3220 H 311.461 0.100025 -3.1244 0
M  V30 3221 H 310.681 -2.38563 -3.13817 0
M  V30 3222 H 311.969 -2.69403 -4.31624 0
M  V30 3223 H 311.367 0.192319 -5.65373 0
M  V30 3224 H 309.924 -0.162912 -6.51596 0
M  V30 3225 N 313.357 1.07166 -1.15556 0
M  V30 3226 C 314.605 1.79443 -0.929764 0
M  V30 3227 C 314.926 1.87246 0.544414 0
M  V30 3228 O 314.196 1.37473 1.39564 0
M  V30 3229 H 312.776 0.664625 -0.341003 0
M  V30 3230 H 315.438 1.29499 -1.45657 0
M  V30 3231 H 314.534 2.81832 -1.34079 0
M  V30 3232 N 314.835 0.952656 1.25548 0
M  V30 3233 C 316.063 0.623496 1.97282 0
M  V30 3234 C 316.478 -0.803987 1.70826 0
M  V30 3235 O 315.835 -1.53755 0.983147 0
M  V30 3236 C 315.886 0.870209 3.5087 0
M  V30 3237 O 315.607 2.24156 3.76412 0
M  V30 3238 C 317.108 0.553164 4.39835 0
M  V30 3239 H 314.328 0.233931 0.628902 0
M  V30 3240 H 316.872 1.27649 1.59768 0
M  V30 3241 H 315.027 0.263652 3.86502 0
M  V30 3242 H 315.441 2.31021 4.70882 0
M  V30 3243 H 316.915 0.776342 5.46513 0
M  V30 3244 H 317.392 -0.512215 4.36203 0
M  V30 3245 H 317.998 1.13896 4.09766 0
M  V30 3246 N 316.313 -1.40141 0.720998 0
M  V30 3247 C 317.246 -2.2819 0.020916 0
M  V30 3248 C 318.224 -1.43633 -0.762129 0
M  V30 3249 O 319.408 -1.7304 -0.747633 0
M  V30 3250 C 316.535 -3.24281 -0.977715 0
M  V30 3251 C 315.581 -4.25548 -0.284836 0
M  V30 3252 S 316.414 -5.26247 0.991169 0
M  V30 3253 C 317.57 -6.259 -0.0052214 0
M  V30 3254 H 317.803 -2.87218 0.767649 0
M  V30 3255 H 315.336 -1.45656 0.512233 0
M  V30 3256 H 317.294 -3.80167 -1.54865 0
M  V30 3257 H 315.955 -2.643 -1.69719 0
M  V30 3258 H 315.148 -4.93154 -1.03996 0
M  V30 3259 H 314.75 -3.73389 0.213684 0
M  V30 3260 H 317.042 -6.72143 -0.850279 0
M  V30 3261 H 317.985 -7.05224 0.637599 0
M  V30 3262 H 318.393 -5.63277 -0.371366 0
M  V30 3263 N 317.792 -0.46758 -1.50504 0
M  V30 3264 C 318.755 0.317059 -2.26996 0
M  V30 3265 C 319.755 0.923513 -1.31635 0
M  V30 3266 O 320.945 0.793239 -1.55091 0
M  V30 3267 C 318.077 1.45134 -3.08462 0
M  V30 3268 H 319.27 -0.353723 -2.97807 0
M  V30 3269 H 316.823 -0.221545 -1.54722 0
M  V30 3270 H 317.558 2.15728 -2.4214 0
M  V30 3271 H 317.343 1.02232 -3.78538 0
M  V30 3272 H 318.833 2.00493 -3.66323 0
M  V30 3273 N 319.27 1.56325 -0.20005 0
M  V30 3274 C 320.519 1.96895 0.437652 0
M  V30 3275 C 320.832 1.08999 1.62415 0
M  V30 3276 O 322.038 1.39372 2.32997 0
M  V30 3277 C 320.494 3.50198 0.830025 0
M  V30 3278 C 320.102 4.46765 -0.332461 0
M  V30 3279 C 321.846 3.99526 1.43453 0
M  V30 3280 C 319.753 5.91344 0.0811468 0
M  V30 3281 H 318.683 0.735209 0.167282 0
M  V30 3282 H 321.334 1.81148 -0.292853 0
M  V30 3283 H 319.716 3.61467 1.61734 0
M  V30 3284 H 320.89 4.47231 -1.11 0
M  V30 3285 H 319.205 4.07657 -0.848789 0
M  V30 3286 H 321.802 5.05025 1.75652 0
M  V30 3287 H 322.145 3.44122 2.34277 0
M  V30 3288 H 322.678 3.91393 0.71109 0
M  V30 3289 H 319.417 6.50685 -0.793033 0
M  V30 3290 H 318.937 5.94121 0.823445 0
M  V30 3291 H 320.616 6.44945 0.515252 0
M  V30 3292 O 320.787 0.0630897 1.61377 0
M  V30 3293 H 321.478 -0.544463 1.85891 0
M  V30 END ATOM
M  V30 BEGIN BOND
M  V30 END BOND
M  V30 END CTAB
M  END
$$$$
