drugbank_target|P28793 Fatty acid oxidation complex subunit alpha (DB08249)
 OpenBabel12092120503D

  0  0  0     0  0            999 V3000
M  V30 BEGIN CTAB
M  V30 COUNTS 10975 11062 0 0 0
M  V30 BEGIN ATOM
M  V30 1 H -0.908 1.98254 -0.117106 0
M  V30 2 N 0 1.576 0 0
M  V30 3 C 0.933 2.03868 1.02534 0
M  V30 4 C 1.911 0.928543 1.3348 0
M  V30 5 O 3.095 1.19667 1.45644 0
M  V30 6 C 0.222 2.43627 2.35294 0
M  V30 7 C -0.732 3.65373 2.2001 0
M  V30 8 S 0.101 5.13292 1.52614 0
M  V30 9 C 1.257 5.56322 2.86805 0
M  V30 10 H 1.49 2.90518 0.631377 0
M  V30 11 H -0.977 1.52953 0.210867 0
M  V30 12 H 0.981 2.67203 3.11629 0
M  V30 13 H -0.358 1.57376 2.7183 0
M  V30 14 H -1.165 3.90944 3.18086 0
M  V30 15 H -1.563 3.418 1.51819 0
M  V30 16 H 0.729 5.58782 3.83104 0
M  V30 17 H 1.672 6.56266 2.65933 0
M  V30 18 H 2.08 4.83886 2.90714 0
M  V30 19 N 1.4781 -0.272755 1.55222 0
M  V30 20 C 2.7271 -1.00211 1.75045 0
M  V30 21 C 3.0401 -1.87441 0.559046 0
M  V30 22 O 4.2461 -2.63856 0.639698 0
M  V30 23 C 2.7021 -1.83165 3.09804 0
M  V30 24 C 2.3101 -1.008 4.36513 0
M  V30 25 C 4.0541 -2.55529 3.38977 0
M  V30 26 C 1.9611 -1.83194 5.62311 0
M  V30 27 H 0.8911 -0.377878 0.652476 0
M  V30 28 H 3.5421 -0.257776 1.8168 0
M  V30 29 H 1.9241 -2.61694 2.97207 0
M  V30 30 H 3.0981 -0.266855 4.60027 0
M  V30 31 H 1.4131 -0.398897 4.14485 0
M  V30 32 H 4.0101 -3.17578 4.30172 0
M  V30 33 H 4.3531 -3.25825 2.59121 0
M  V30 34 H 4.8861 -1.84029 3.52673 0
M  V30 35 H 1.6251 -1.17318 6.44916 0
M  V30 36 H 1.1451 -2.54905 5.4294 0
M  V30 37 H 2.8241 -2.40552 6.00619 0
M  V30 38 N 2.9562 -1.48159 -0.537278 0
M  V30 39 C 4.1862 -1.59223 -1.3165 0
M  V30 40 C 4.5942 -0.248849 -1.87556 0
M  V30 41 O 3.9372 0.770949 -1.6674 0
M  V30 42 C 3.9992 -2.57365 -2.51005 0
M  V30 43 C 3.6632 -4.02603 -2.16239 0
M  V30 44 C 4.6602 -4.90503 -1.72344 0
M  V30 45 C 2.3452 -4.48088 -2.26986 0
M  V30 46 C 4.3392 -6.21913 -1.39651 0
M  V30 47 C 2.0262 -5.7952 -1.93906 0
M  V30 48 C 3.0242 -6.66255 -1.50309 0
M  V30 49 O 2.7122 -7.95243 -1.17659 0
M  V30 50 H 2.4442 -0.539831 -0.406889 0
M  V30 51 H 4.9982 -1.94655 -0.655641 0
M  V30 52 H 3.2282 -2.1704 -3.20048 0
M  V30 53 H 4.9172 -2.58342 -3.13072 0
M  V30 54 H 5.6832 -4.56604 -1.63517 0
M  V30 55 H 1.5622 -3.80769 -2.59877 0
M  V30 56 H 5.1062 -6.89569 -1.0555 0
M  V30 57 H 1.0032 -6.12957 -2.02371 0
M  V30 58 H 1.7712 -8.0793 -1.31119 0
M  V30 59 N 4.4343 0.785586 -1.36625 0
M  V30 60 C 5.3443 1.92964 -1.33425 0
M  V30 61 C 6.3603 1.72394 -0.235851 0
M  V30 62 O 7.5363 1.95866 -0.468878 0
M  V30 63 C 4.6013 3.27884 -1.12662 0
M  V30 64 C 3.6623 3.61204 -2.32013 0
M  V30 65 C 2.8953 4.89687 -2.12231 0
M  V30 66 O 3.1183 5.59704 -1.09945 0
M  V30 67 O 2.0523 5.21752 -3.00098 0
M  V30 68 H 5.8783 1.98613 -2.29753 0
M  V30 69 H 3.4633 0.926384 -1.17211 0
M  V30 70 H 5.3453 4.08614 -1.03016 0
M  V30 71 H 4.0203 3.23118 -0.193991 0
M  V30 72 H 2.9273 2.80765 -2.47228 0
M  V30 73 H 4.2603 3.70698 -3.23796 0
M  V30 74 N 5.9124 1.20967 1.01018 0
M  V30 75 C 7.1604 1.02172 1.74371 0
M  V30 76 C 7.4814 -0.446414 1.89821 0
M  V30 77 O 6.7514 -1.32234 1.44537 0
M  V30 78 H 5.3314 0.375066 0.646014 0
M  V30 79 H 7.9934 1.52187 1.21758 0
M  V30 80 H 7.0894 1.48538 2.74487 0
M  V30 81 N 7.3905 -1.2043 1.01659 0
M  V30 82 C 8.3375 -2.23215 0.586822 0
M  V30 83 C 9.3075 -1.61382 -0.393085 0
M  V30 84 O 10.4925 -1.88544 -0.292525 0
M  V30 85 C 7.6325 -3.45032 -0.0687464 0
M  V30 86 C 6.7455 -4.21296 0.955724 0
M  V30 87 C 5.8805 -5.30507 0.271208 0
M  V30 88 C 4.9195 -5.98515 1.28244 0
M  V30 89 N 4.0565 -6.99316 0.62459 0
M  V30 90 H 8.8965 -2.59336 1.46796 0
M  V30 91 H 6.4335 -1.27431 0.734836 0
M  V30 92 H 8.3915 -4.1459 -0.465965 0
M  V30 93 H 7.0215 -3.09604 -0.913529 0
M  V30 94 H 6.0735 -3.50803 1.4711 0
M  V30 95 H 7.3855 -4.6803 1.72479 0
M  V30 96 H 6.5395 -6.06428 -0.18151 0
M  V30 97 H 5.2785 -4.8481 -0.530163 0
M  V30 98 H 4.2835 -5.21355 1.74554 0
M  V30 99 H 5.5085 -6.46298 2.08509 0
M  V30 100 H 3.4545 -6.55812 -0.156914 0
M  V30 101 H 3.3715 -7.44178 1.33172 0
M  V30 102 H 4.6395 -7.79255 0.195462 0
M  V30 103 N 8.8686 -0.792821 -1.36206 0
M  V30 104 C 9.8316 -0.199459 -2.2833 0
M  V30 105 C 10.8316 0.605189 -1.48977 0
M  V30 106 O 12.0216 0.425685 -1.68919 0
M  V30 107 C 9.1536 0.723523 -3.33134 0
M  V30 108 H 10.3466 -1.01181 -2.82316 0
M  V30 109 H 7.8996 -0.562485 -1.45828 0
M  V30 110 H 8.6346 1.56008 -2.84309 0
M  V30 111 H 8.4196 0.148436 -3.91819 0
M  V30 112 H 9.9096 1.13344 -4.01924 0
M  V30 113 N 10.3467 1.47872 -0.545128 0
M  V30 114 C 11.5957 2.01695 -0.0145033 0
M  V30 115 C 11.9087 1.42609 1.33873 0
M  V30 116 O 13.1147 1.88021 1.95858 0
M  V30 117 C 11.5707 3.59892 0.0245068 0
M  V30 118 C 11.1787 4.27966 -1.32475 0
M  V30 119 C 12.9227 4.21507 0.50316 0
M  V30 120 C 10.8297 5.78136 -1.2455 0
M  V30 121 H 9.7597 0.753998 -0.00165172 0
M  V30 122 H 12.4107 1.69985 -0.691175 0
M  V30 123 H 10.7927 3.88509 0.766575 0
M  V30 124 H 11.9667 4.11003 -2.08357 0
M  V30 125 H 10.2817 3.78286 -1.74036 0
M  V30 126 H 12.8787 5.31538 0.580656 0
M  V30 127 H 13.2217 3.87855 1.51243 0
M  V30 128 H 13.7547 3.97376 -0.183681 0
M  V30 129 H 10.4937 6.16388 -2.23039 0
M  V30 130 H 10.0137 5.97469 -0.528282 0
M  V30 131 H 11.6927 6.40099 -0.942488 0
M  V30 132 N 11.8248 0.280983 1.55075 0
M  V30 133 C 13.0528 -0.337293 2.04132 0
M  V30 134 C 13.4678 -1.4903 1.15912 0
M  V30 135 O 12.8248 -1.81606 0.180459 0
M  V30 136 C 12.8758 -0.812706 3.52246 0
M  V30 137 O 12.5968 0.294387 4.3711 0
M  V30 138 C 14.0978 -1.4982 4.17216 0
M  V30 139 H 11.3178 -0.0761638 0.666663 0
M  V30 140 H 13.8618 0.414787 2.00249 0
M  V30 141 H 12.0168 -1.51486 3.56554 0
M  V30 142 H 12.4308 -0.0721325 5.2445 0
M  V30 143 H 13.9048 -1.7822 5.22438 0
M  V30 144 H 14.3818 -2.43168 3.65741 0
M  V30 145 H 14.9878 -0.839742 4.16927 0
M  V30 146 N 13.3029 -1.57598 0.00835791 0
M  V30 147 C 14.5489 -1.91211 -0.675732 0
M  V30 148 C 14.8819 -0.883139 -1.72958 0
M  V30 149 O 14.1569 0.097016 -1.94258 0
M  V30 150 C 14.4399 -3.35379 -1.31123 0
M  V30 151 C 14.2929 -4.48999 -0.268356 0
M  V30 152 C 15.6119 -3.7912 -2.23508 0
M  V30 153 H 12.7309 -0.695374 -0.244179 0
M  V30 154 H 15.3729 -1.89901 0.0613655 0
M  V30 155 H 13.5229 -3.36626 -1.93946 0
M  V30 156 H 15.1949 -4.59887 0.360844 0
M  V30 157 H 13.4379 -4.31873 0.408482 0
M  V30 158 H 14.1089 -5.46851 -0.752218 0
M  V30 159 H 16.5849 -3.79477 -1.70693 0
M  V30 160 H 15.4609 -4.80729 -2.64936 0
M  V30 161 H 15.7219 -3.13455 -3.11766 0
M  V30 162 N 14.781 0.264519 -1.55364 0
M  V30 163 C 16.009 1.013 -1.80405 0
M  V30 164 C 16.424 1.79618 -0.581622 0
M  V30 165 O 15.781 1.76879 0.449468 0
M  V30 166 C 15.832 1.96487 -3.03439 0
M  V30 167 O 15.553 1.21341 -4.20961 0
M  V30 168 C 17.054 2.83079 -3.41147 0
M  V30 169 H 14.274 0.298875 -0.600762 0
M  V30 170 H 16.818 0.292736 -2.02394 0
M  V30 171 H 14.973 2.63965 -2.83551 0
M  V30 172 H 15.387 1.85573 -4.90574 0
M  V30 173 H 16.861 3.4565 -4.30384 0
M  V30 174 H 17.338 3.53286 -2.60932 0
M  V30 175 H 17.944 2.2108 -3.63323 0
M  V30 176 N 16.2591 1.48442 0.529413 0
M  V30 177 C 17.2221 1.62524 1.61612 0
M  V30 178 C 18.2221 0.498509 1.52877 0
M  V30 179 O 19.4121 0.76431 1.56537 0
M  V30 180 C 16.5441 1.59597 3.01233 0
M  V30 181 H 17.7371 2.59423 1.50465 0
M  V30 182 H 15.2901 1.37047 0.751514 0
M  V30 183 H 16.0251 0.641781 3.17886 0
M  V30 184 H 15.8101 2.41397 3.08982 0
M  V30 185 H 17.3001 1.72646 3.80241 0
M  V30 186 N 17.7372 -0.778329 1.37039 0
M  V30 187 C 18.6672 -1.90546 1.34962 0
M  V30 188 C 19.6482 -1.68681 0.219274 0
M  V30 189 O 20.8332 -1.89634 0.418624 0
M  V30 190 C 17.9632 -3.27734 1.14925 0
M  V30 191 C 16.9172 -3.64147 2.24902 0
M  V30 192 C 16.2432 -4.99806 1.89996 0
M  V30 193 C 17.5432 -3.71579 3.67051 0
M  V30 194 H 19.2372 -1.92541 2.29277 0
M  V30 195 H 16.7832 -0.924948 1.10366 0
M  V30 196 H 18.7362 -4.06215 1.12104 0
M  V30 197 H 17.4602 -3.26154 0.170631 0
M  V30 198 H 16.1192 -2.8797 2.26868 0
M  V30 199 H 15.7672 -4.94759 0.906796 0
M  V30 200 H 15.4672 -5.25139 2.63634 0
M  V30 201 H 16.9912 -5.80694 1.88749 0
M  V30 202 H 18.4052 -4.40227 3.67251 0
M  V30 203 H 16.8022 -4.08405 4.39688 0
M  V30 204 H 17.8722 -2.72404 4.01154 0
M  V30 205 N 19.2153 -1.21501 -1.00376 0
M  V30 206 C 20.1253 -0.991447 -2.12621 0
M  V30 207 C 21.1413 0.0568446 -1.73907 0
M  V30 208 O 22.3173 -0.13348 -2.00957 0
M  V30 209 C 19.3823 -0.560312 -3.42142 0
M  V30 210 C 18.4433 -1.68096 -3.95022 0
M  V30 211 C 17.6763 -1.2703 -5.18362 0
M  V30 212 O 17.8993 -0.144438 -5.70217 0
M  V30 213 O 16.8333 -2.08269 -5.64719 0
M  V30 214 H 20.6593 -1.93158 -2.34358 0
M  V30 215 H 18.2443 -0.999999 -1.10997 0
M  V30 216 H 20.1263 -0.329724 -4.20108 0
M  V30 217 H 18.8013 0.351089 -3.2179 0
M  V30 218 H 17.7083 -1.96597 -3.18278 0
M  V30 219 H 19.0413 -2.56983 -4.19786 0
M  V30 220 N 20.6934 1.19889 -1.02296 0
M  V30 221 C 21.9184 1.9393 -0.735237 0
M  V30 222 C 22.3434 1.74639 0.698782 0
M  V30 223 O 21.7014 1.04481 1.48167 0
M  V30 224 C 21.7494 3.43916 -1.08417 0
M  V30 225 O 20.8534 4.11917 -0.199446 0
M  V30 226 H 20.1944 0.605645 -0.272196 0
M  V30 227 H 22.7244 1.52137 -1.36804 0
M  V30 228 H 22.7344 3.9456 -1.03856 0
M  V30 229 H 21.4094 3.5728 -2.12894 0
M  V30 230 H 19.9864 3.71666 -0.303136 0
M  V30 231 N 22.1715 0.800033 1.35784 0
M  V30 232 C 23.4195 0.376597 1.9856 0
M  V30 233 C 23.7405 -1.05812 1.63795 0
M  V30 234 O 23.0105 -1.73103 0.917171 0
M  V30 235 H 21.5905 0.136261 0.734467 0
M  V30 236 H 24.2525 1.02442 1.65806 0
M  V30 237 H 23.3485 0.477002 3.08433 0
M  V30 238 N 23.6496 -1.47581 0.552962 0
M  V30 239 C 24.8986 -2.01684 0.0251995 0
M  V30 240 C 25.2116 -1.43317 -1.33115 0
M  V30 241 O 26.4176 -1.89057 -1.94858 0
M  V30 242 C 24.8736 -3.599 -0.00542052 0
M  V30 243 C 24.4816 -4.27257 1.34742 0
M  V30 244 C 26.2256 -4.21768 -0.4808 0
M  V30 245 C 24.1326 -5.77467 1.27614 0
M  V30 246 H 23.0626 -0.753979 0.00565033 0
M  V30 247 H 25.7136 -1.69616 0.70018 0
M  V30 248 H 24.0956 -3.88911 -0.745961 0
M  V30 249 H 25.2696 -4.09893 2.10534 0
M  V30 250 H 23.5846 -3.77358 1.76039 0
M  V30 251 H 26.1816 -5.31838 -0.55246 0
M  V30 252 H 26.5246 -3.88651 -1.49184 0
M  V30 253 H 27.0576 -3.97273 0.204752 0
M  V30 254 H 23.7966 -6.15196 2.26304 0
M  V30 255 H 23.3166 -5.9718 0.55996 0
M  V30 256 H 24.9956 -6.3959 0.976421 0
M  V30 257 N 25.1277 -0.289203 -1.54924 0
M  V30 258 C 26.3737 0.323998 -2.00195 0
M  V30 259 C 26.7067 1.54441 -1.17735 0
M  V30 260 O 25.9817 1.92875 -0.250878 0
M  V30 261 C 26.2647 0.692276 -3.53383 0
M  V30 262 C 26.1177 -0.536457 -4.46589 0
M  V30 263 C 27.4367 1.52335 -4.12895 0
M  V30 264 H 24.5557 0.116289 -0.727768 0
M  V30 265 H 27.1977 -0.398954 -1.85764 0
M  V30 266 H 25.3477 1.30822 -3.65811 0
M  V30 267 H 27.0197 -1.17499 -4.46085 0
M  V30 268 H 25.2627 -1.17192 -4.1767 0
M  V30 269 H 25.9337 -0.234806 -5.515 0
M  V30 270 H 28.4097 1.00302 -4.0383 0
M  V30 271 H 27.2857 1.74982 -5.20262 0
M  V30 272 H 27.5467 2.50886 -3.64018 0
M  V30 273 N 26.6058 1.57591 -0.0167156 0
M  V30 274 C 27.5158 2.1291 0.98521 0
M  V30 275 C 28.5318 1.07834 1.36557 0
M  V30 276 O 29.7078 1.39826 1.44951 0
M  V30 277 C 26.7728 2.63512 2.25305 0
M  V30 278 C 25.8338 3.83256 1.93426 0
M  V30 279 C 25.0668 4.31435 3.14165 0
M  V30 280 O 25.2898 3.78851 4.26413 0
M  V30 281 O 24.2238 5.23416 2.97186 0
M  V30 282 H 28.0498 2.98772 0.544888 0
M  V30 283 H 25.6348 1.48012 0.203141 0
M  V30 284 H 27.5168 2.96183 2.99756 0
M  V30 285 H 26.1918 1.8074 2.68542 0
M  V30 286 H 25.0988 3.55531 1.16398 0
M  V30 287 H 26.4318 4.67153 1.55013 0
M  V30 288 N 28.0839 -0.256276 1.55502 0
M  V30 289 C 29.0139 -1.32102 1.92539 0
M  V30 290 C 29.9949 -1.50684 0.789194 0
M  V30 291 O 31.1799 -1.63449 1.04872 0
M  V30 292 C 28.3099 -2.67752 2.21192 0
M  V30 293 C 27.2639 -2.63878 3.36975 0
M  V30 294 C 26.5899 -4.03236 3.51147 0
M  V30 295 C 27.8899 -2.21682 4.72921 0
M  V30 296 H 29.5839 -1.01351 2.81724 0
M  V30 297 H 27.1299 -0.486105 1.35547 0
M  V30 298 H 29.0829 -3.42365 2.45691 0
M  V30 299 H 27.8069 -3.0012 1.28824 0
M  V30 300 H 26.4659 -1.91722 3.12471 0
M  V30 301 H 26.1139 -4.32854 2.56216 0
M  V30 302 H 25.8139 -4.01535 4.29003 0
M  V30 303 H 27.3379 -4.79563 3.77957 0
M  V30 304 H 28.7519 -2.86023 4.96854 0
M  V30 305 H 27.1489 -2.3111 5.53812 0
M  V30 306 H 28.2189 -1.16833 4.70615 0
M  V30 307 N 29.562 -1.4872 -0.521534 0
M  V30 308 C 30.509 -1.63871 -1.62527 0
M  V30 309 C 31.479 -0.480559 -1.58996 0
M  V30 310 O 32.664 -0.705085 -1.77294 0
M  V30 311 C 29.804 -1.69227 -3.00759 0
M  V30 312 C 28.917 -2.96207 -3.14461 0
M  V30 313 C 28.052 -2.92671 -4.43303 0
M  V30 314 C 27.091 -4.14318 -4.50563 0
M  V30 315 N 26.228 -4.0881 -5.70805 0
M  V30 316 H 31.068 -2.58123 -1.48918 0
M  V30 317 H 28.605 -1.28 -0.724878 0
M  V30 318 H 30.563 -1.70314 -3.80853 0
M  V30 319 H 29.193 -0.784586 -3.1312 0
M  V30 320 H 28.245 -3.04826 -2.27564 0
M  V30 321 H 29.557 -3.86192 -3.15686 0
M  V30 322 H 28.711 -2.92206 -5.31696 0
M  V30 323 H 27.45 -2.00429 -4.44612 0
M  V30 324 H 26.455 -4.15049 -3.60575 0
M  V30 325 H 27.68 -5.07729 -4.50986 0
M  V30 326 H 25.626 -3.19394 -5.72995 0
M  V30 327 H 25.543 -4.92509 -5.7356 0
M  V30 328 H 26.811 -4.12418 -6.61462 0
M  V30 329 N 31.0401 0.771051 -1.3745 0
M  V30 330 C 32.2871 1.52963 -1.32697 0
M  V30 331 C 32.6151 1.94299 0.0883274 0
M  V30 332 O 31.8701 1.64397 1.0617 0
M  V30 333 C 32.1691 2.80676 -2.2126 0
M  V30 334 C 31.8351 2.58389 -3.69521 0
M  V30 335 C 30.4971 2.52019 -4.09927 0
M  V30 336 C 32.8491 2.38469 -4.63446 0
M  V30 337 C 30.1771 2.23721 -5.42371 0
M  V30 338 C 32.5291 2.11694 -5.96128 0
M  V30 339 C 31.1931 2.03769 -6.35637 0
M  V30 340 H 30.4631 0.559732 -0.485573 0
M  V30 341 H 33.1101 0.888083 -1.69662 0
M  V30 342 H 31.4151 3.49392 -1.77291 0
M  V30 343 H 33.1121 3.38557 -2.14895 0
M  V30 344 H 29.7021 2.6421 -3.37478 0
M  V30 345 H 33.8861 2.4238 -4.33089 0
M  V30 346 H 29.1421 2.16081 -5.71943 0
M  V30 347 H 33.3161 1.9528 -6.6846 0
M  V30 348 H 30.9431 1.81606 -7.38189 0
M  V30 349 N 32.5182 1.22032 0.997298 0
M  V30 350 C 33.7952 0.950823 1.70935 0
M  V30 351 C 34.1752 -0.535292 2.042 0
M  V30 352 O 33.5232 -1.50217 1.72183 0
M  V30 353 C 33.7332 1.84386 2.96315 0
M  V30 354 C 35.0812 2.09732 3.69185 0
M  V30 355 O 36.1052 1.81798 3.06314 0
M  V30 356 O 34.9642 2.57018 4.82291 0
M  V30 357 H 32.0582 0.357204 0.745878 0
M  V30 358 H 34.6042 1.32997 1.05404 0
M  V30 359 H 33.3762 2.84928 2.68201 0
M  V30 360 H 32.9992 1.46602 3.69586 0
M  V30 361 N 33.9963 -1.19345 1.0293 0
M  V30 362 C 34.9263 -2.2481 0.631105 0
M  V30 363 C 35.9073 -1.66245 -0.360104 0
M  V30 364 O 37.0923 -1.92677 -0.242726 0
M  V30 365 C 34.2223 -3.47295 -0.0184607 0
M  V30 366 C 33.1763 -4.18536 0.895073 0
M  V30 367 C 32.5023 -5.34586 0.110592 0
M  V30 368 C 33.8023 -4.73287 2.209 0
M  V30 369 H 35.4963 -2.58372 1.51275 0
M  V30 370 H 33.0423 -1.24194 0.728818 0
M  V30 371 H 34.9953 -4.20268 -0.308675 0
M  V30 372 H 33.7193 -3.12933 -0.934907 0
M  V30 373 H 32.3783 -3.47446 1.16949 0
M  V30 374 H 32.0263 -4.96469 -0.807902 0
M  V30 375 H 31.7263 -5.83183 0.719087 0
M  V30 376 H 33.2503 -6.10355 -0.172871 0
M  V30 377 H 34.6643 -5.38013 1.98028 0
M  V30 378 H 33.0613 -5.32373 2.76946 0
M  V30 379 H 34.1313 -3.91331 2.86336 0
M  V30 380 N 35.4744 -0.807222 -1.35358 0
M  V30 381 C 36.4214 -0.216037 -2.29787 0
M  V30 382 C 37.3914 0.650278 -1.52842 0
M  V30 383 O 38.5764 0.595227 -1.81278 0
M  V30 384 C 35.7164 0.628893 -3.39321 0
M  V30 385 C 34.8294 -0.257927 -4.31229 0
M  V30 386 C 33.9644 0.595069 -5.27856 0
M  V30 387 C 33.0034 -0.292111 -6.11403 0
M  V30 388 N 32.1404 0.520895 -7.00165 0
M  V30 389 H 36.9804 -1.02671 -2.79755 0
M  V30 390 H 34.5174 -0.517839 -1.37684 0
M  V30 391 H 36.4754 1.13393 -4.01494 0
M  V30 392 H 35.1054 1.40482 -2.90628 0
M  V30 393 H 34.1574 -0.881076 -3.70056 0
M  V30 394 H 35.4694 -0.940759 -4.89848 0
M  V30 395 H 34.6234 1.16522 -5.95405 0
M  V30 396 H 33.3624 1.31146 -4.69736 0
M  V30 397 H 32.3674 -0.874525 -5.428 0
M  V30 398 H 33.5924 -1.00638 -6.71602 0
M  V30 399 H 31.5384 1.22125 -6.44532 0
M  V30 400 H 31.4554 -0.103877 -7.55929 0
M  V30 401 H 32.7234 1.0743 -7.72062 0
M  V30 402 N 36.9525 1.47285 -0.560781 0
M  V30 403 C 38.2005 2.02064 -0.0379868 0
M  V30 404 C 38.5215 1.43711 1.31803 0
M  V30 405 O 37.7915 0.61362 1.86042 0
M  V30 406 H 36.3715 0.746918 -0.0110531 0
M  V30 407 H 39.0335 1.80648 -0.731598 0
M  V30 408 H 38.1295 3.12064 0.0474463 0
M  V30 409 N 38.4306 0.297415 1.54768 0
M  V30 410 C 39.3406 -0.58983 2.27064 0
M  V30 411 C 40.3566 -1.15144 1.30453 0
M  V30 412 O 41.5326 -1.17699 1.63428 0
M  V30 413 C 38.5976 -1.74714 2.9946 0
M  V30 414 C 37.6586 -1.21997 4.11601 0
M  V30 415 C 36.8916 -2.32212 4.80535 0
M  V30 416 O 37.1146 -3.52036 4.48806 0
M  V30 417 O 36.0486 -1.99106 5.68014 0
M  V30 418 H 39.8746 -0.00348199 3.037 0
M  V30 419 H 37.4596 0.0640035 1.49263 0
M  V30 420 H 39.3416 -2.42147 3.44881 0
M  V30 421 H 38.0166 -2.32016 2.25722 0
M  V30 422 H 36.9236 -0.511458 3.70587 0
M  V30 423 H 38.2566 -0.692419 4.87305 0
M  V30 424 N 39.9087 -1.5758 0.0250728 0
M  V30 425 C 41.1337 -1.96337 -0.668317 0
M  V30 426 C 41.5587 -0.901314 -1.651 0
M  V30 427 O 40.9167 0.138187 -1.80773 0
M  V30 428 C 40.9647 -3.34191 -1.35457 0
M  V30 429 O 40.0687 -3.30269 -2.46974 0
M  V30 430 H 39.4097 -0.640281 -0.175887 0
M  V30 431 H 41.9397 -2.0442 0.0857224 0
M  V30 432 H 41.9497 -3.70331 -1.71228 0
M  V30 433 H 40.6247 -4.11036 -0.634218 0
M  V30 434 H 39.2017 -3.05841 -2.13344 0
M  V30 435 N 41.3868 0.248026 -1.55636 0
M  V30 436 C 42.6328 0.97767 -1.77678 0
M  V30 437 C 42.9658 1.85016 -0.590135 0
M  V30 438 O 42.2408 1.90095 0.411611 0
M  V30 439 C 42.5238 1.83914 -3.09593 0
M  V30 440 C 42.3768 0.99491 -4.38659 0
M  V30 441 C 43.6958 2.82183 -3.37729 0
M  V30 442 H 40.8148 0.354005 -0.646413 0
M  V30 443 H 43.4568 0.248253 -1.88371 0
M  V30 444 H 41.6068 2.46104 -3.00608 0
M  V30 445 H 43.2788 0.391789 -4.59633 0
M  V30 446 H 41.5218 0.299231 -4.32767 0
M  V30 447 H 42.1928 1.63145 -5.2734 0
M  V30 448 H 44.6688 2.30129 -3.4667 0
M  V30 449 H 43.5448 3.39582 -4.31249 0
M  V30 450 H 43.8058 3.58588 -2.58586 0
M  V30 451 N 42.8649 1.48995 0.513639 0
M  V30 452 C 43.8129 1.65199 1.63744 0
M  V30 453 C 44.8069 0.51809 1.61283 0
M  V30 454 O 46.0129 0.697335 1.65943 0
M  V30 455 H 42.3879 0.52069 0.542574 0
M  V30 456 H 44.3589 2.59552 1.47226 0
M  V30 457 C 43.1079 1.72409 3.01945 0
M  V30 458 H 42.4309 2.59029 3.04539 0
M  V30 459 H 43.8709 1.87785 3.80148 0
M  V30 460 C 42.3299 0.46618 3.33659 0
M  V30 461 O 42.8599 -0.413744 3.99564 0
M  V30 462 N 41.0659 0.332931 2.88687 0
M  V30 463 H 40.6129 1.04996 2.35231 0
M  V30 464 H 40.5709 -0.507665 3.10274 0
M  V30 465 N 44.343 -0.763751 1.37857 0
M  V30 466 C 45.29 -1.87726 1.34267 0
M  V30 467 C 46.26 -1.64807 0.206879 0
M  V30 468 O 47.445 -1.86613 0.397508 0
M  V30 469 C 44.585 -3.24896 1.16346 0
M  V30 470 C 43.698 -3.59716 2.39225 0
M  V30 471 C 42.833 -4.86137 2.14114 0
M  V30 472 C 41.872 -5.13711 3.32817 0
M  V30 473 N 41.009 -6.31323 3.07206 0
M  V30 474 H 45.849 -1.90129 2.29466 0
M  V30 475 H 43.386 -0.929433 1.14017 0
M  V30 476 H 45.344 -4.04036 1.03975 0
M  V30 477 H 43.974 -3.21847 0.247909 0
M  V30 478 H 43.026 -2.75498 2.62307 0
M  V30 479 H 44.338 -3.76027 3.27728 0
M  V30 480 H 43.492 -5.73198 1.9882 0
M  V30 481 H 42.231 -4.71945 1.22961 0
M  V30 482 H 41.236 -4.25123 3.48641 0
M  V30 483 H 42.461 -5.29807 4.24832 0
M  V30 484 H 40.407 -6.18474 2.1869 0
M  V30 485 H 40.324 -6.48087 3.89254 0
M  V30 486 H 41.592 -7.213 2.95546 0
M  V30 487 N 45.8211 -1.22559 -0.990812 0
M  V30 488 C 47.0681 -1.05141 -1.73065 0
M  V30 489 C 47.3961 0.413191 -1.9006 0
M  V30 490 O 46.6511 1.32257 -1.44245 0
M  V30 491 C 46.9501 -1.71011 -3.13831 0
M  V30 492 C 46.6161 -3.20911 -3.16745 0
M  V30 493 C 45.2781 -3.61812 -3.17247 0
M  V30 494 C 47.6301 -4.16846 -3.12872 0
M  V30 495 C 44.9581 -4.97127 -3.1158 0
M  V30 496 C 47.3101 -5.5214 -3.08746 0
M  V30 497 C 45.9741 -5.92419 -3.07565 0
M  V30 498 H 45.2441 -0.384738 -0.633291 0
M  V30 499 H 47.8911 -1.5235 -1.16025 0
M  V30 500 H 46.1961 -1.16133 -3.74193 0
M  V30 501 H 47.8931 -1.55023 -3.69823 0
M  V30 502 H 44.4831 -2.88344 -3.17105 0
M  V30 503 H 48.6671 -3.86263 -3.11632 0
M  V30 504 H 43.9231 -5.27562 -3.09012 0
M  V30 505 H 48.0971 -6.26201 -3.04705 0
M  V30 506 H 45.7241 -6.97236 -3.02929 0
M  V30 507 N 47.2992 1.18797 -1.03562 0
M  V30 508 C 48.2472 2.24297 -0.615905 0
M  V30 509 C 49.2412 1.65643 0.354808 0
M  V30 510 O 50.4472 1.78618 0.22265 0
M  V30 511 H 46.8222 0.729909 -0.180934 0
M  V30 512 H 48.7932 2.5701 -1.5162 0
M  V30 513 C 47.5422 3.47698 0.0104735 0
M  V30 514 H 46.8652 3.93125 -0.727509 0
M  V30 515 H 48.3052 4.23159 0.266995 0
M  V30 516 C 46.7642 3.12489 1.25905 0
M  V30 517 O 47.2942 3.25761 2.35038 0
M  V30 518 N 45.5002 2.6686 1.15039 0
M  V30 519 H 45.0472 2.56261 0.262328 0
M  V30 520 H 45.0052 2.43674 1.98672 0
M  V30 521 N 48.7773 0.814389 1.34928 0
M  V30 522 C 50.1933 0.499084 1.51596 0
M  V30 523 C 50.3933 -0.978319 1.76157 0
M  V30 524 O 49.4493 -1.76309 1.80752 0
M  V30 525 C 50.7623 1.35121 2.68631 0
M  V30 526 C 52.3103 1.34746 2.82511 0
M  V30 527 C 52.7853 2.18388 4.0258 0
M  V30 528 N 54.2763 2.15966 4.09772 0
M  V30 529 C 55.0113 2.77437 5.01813 0
M  V30 530 N 54.5073 3.47866 5.99134 0
M  V30 531 N 56.3003 2.67037 4.94619 0
M  V30 532 H 48.4513 1.7711 1.17243 0
M  V30 533 H 50.7143 0.754256 0.574284 0
M  V30 534 H 50.4203 2.40001 2.57085 0
M  V30 535 H 50.2943 1.00991 3.63429 0
M  V30 536 H 52.6813 0.30648 2.93504 0
M  V30 537 H 52.7623 1.72869 1.88547 0
M  V30 538 H 52.4063 3.2253 3.92347 0
M  V30 539 H 52.3363 1.77621 4.9574 0
M  V30 540 H 54.8273 1.64729 3.40107 0
M  V30 541 H 55.1403 3.92038 6.65977 0
M  V30 542 H 53.4853 3.51972 5.99284 0
M  V30 543 H 56.6763 2.11597 4.17546 0
M  V30 544 H 56.8493 3.15232 5.66156 0
M  V30 545 N 50.2554 -1.46986 0.568584 0
M  V30 546 C 51.1854 -2.32946 -0.160753 0
M  V30 547 C 52.1664 -1.44487 -0.897631 0
M  V30 548 O 53.3514 -1.73327 -0.875867 0
M  V30 549 C 50.4814 -3.26494 -1.18403 0
M  V30 550 C 49.4354 -4.24282 -0.562895 0
M  V30 551 C 48.7614 -5.07236 -1.69163 0
M  V30 552 C 50.0614 -5.19989 0.490761 0
M  V30 553 H 51.7554 -2.94175 0.556916 0
M  V30 554 H 49.3014 -1.4146 0.26927 0
M  V30 555 H 51.2544 -3.85477 -1.70251 0
M  V30 556 H 49.9784 -2.63343 -1.93179 0
M  V30 557 H 48.6374 -3.66541 -0.0656164 0
M  V30 558 H 48.2854 -4.4048 -2.42871 0
M  V30 559 H 47.9854 -5.7345 -1.28174 0
M  V30 560 H 49.5094 -5.6908 -2.21314 0
M  V30 561 H 50.9234 -5.73271 0.0579047 0
M  V30 562 H 49.3204 -5.94469 0.820165 0
M  V30 563 H 50.3904 -4.64777 1.3824 0
M  V30 564 N 51.7335 -0.305618 -1.54608 0
M  V30 565 C 52.9615 0.304775 -2.04643 0
M  V30 566 C 53.3765 1.47167 -1.18268 0
M  V30 567 O 52.7335 1.81296 -0.209328 0
M  V30 568 C 52.7845 0.756564 -3.53495 0
M  V30 569 O 52.5055 -0.36389 -4.36586 0
M  V30 570 C 54.0065 1.43163 -4.19546 0
M  V30 571 H 51.2265 0.0655481 -0.667791 0
M  V30 572 H 53.7705 -0.446592 -1.99564 0
M  V30 573 H 51.9255 1.45794 -3.58919 0
M  V30 574 H 52.3395 -0.0113121 -5.24499 0
M  V30 575 H 53.8135 1.69886 -5.25207 0
M  V30 576 H 54.2905 2.37318 -3.69563 0
M  V30 577 H 54.8965 0.773307 -4.18211 0
M  V30 578 N 53.2116 1.57565 -0.0334293 0
M  V30 579 C 54.1416 2.13511 0.945265 0
M  V30 580 C 55.1226 1.05231 1.33643 0
M  V30 581 O 56.3076 1.33084 1.41429 0
M  V30 582 C 53.4376 2.6657 2.22616 0
M  V30 583 C 52.3916 3.79676 1.97561 0
M  V30 584 C 51.7176 4.1918 3.31952 0
M  V30 585 C 53.0176 5.0557 1.31135 0
M  V30 586 H 54.7116 2.95538 0.479325 0
M  V30 587 H 52.2576 1.42166 0.229115 0
M  V30 588 H 54.2106 3.04344 2.91466 0
M  V30 589 H 52.9346 1.8171 2.71384 0
M  V30 590 H 51.5936 3.42347 1.31127 0
M  V30 591 H 51.2416 3.31296 3.78487 0
M  V30 592 H 50.9416 4.95402 3.15992 0
M  V30 593 H 52.4656 4.59541 4.02063 0
M  V30 594 H 53.8796 5.40903 1.89992 0
M  V30 595 H 52.2766 5.86818 1.25559 0
M  V30 596 H 53.3466 4.84062 0.284894 0
M  V30 597 N 54.6897 -0.239769 1.55765 0
M  V30 598 C 55.6377 -1.31668 1.91745 0
M  V30 599 C 56.6317 -1.49462 0.797338 0
M  V30 600 O 57.8377 -1.50852 0.982021 0
M  V30 601 H 54.2127 -0.441048 0.609082 0
M  V30 602 H 56.1837 -0.985923 2.81642 0
M  V30 603 C 54.9327 -2.66368 2.2348 0
M  V30 604 H 54.2557 -2.53478 3.09175 0
M  V30 605 H 55.6957 -3.40578 2.52553 0
M  V30 606 C 54.1547 -3.20002 1.05359 0
M  V30 607 O 54.6847 -4.00538 0.305261 0
M  V30 608 N 52.8907 -2.78126 0.842292 0
M  V30 609 H 52.4377 -2.12742 1.45253 0
M  V30 610 H 52.3957 -3.14354 0.053652 0
M  V30 611 N 56.1678 -1.49265 -0.50573 0
M  V30 612 C 57.0778 -1.68312 -1.63427 0
M  V30 613 C 58.0938 -0.565682 -1.64548 0
M  V30 614 O 59.2698 -0.839801 -1.83055 0
M  V30 615 C 56.3348 -1.74107 -2.99813 0
M  V30 616 C 55.3958 -2.97653 -3.09356 0
M  V30 617 C 54.6288 -3.03163 -4.39236 0
M  V30 618 O 54.8518 -2.16396 -5.27758 0
M  V30 619 O 53.7858 -3.9558 -4.53652 0
M  V30 620 H 57.6118 -2.63907 -1.50289 0
M  V30 621 H 55.1968 -1.32951 -0.681502 0
M  V30 622 H 57.0788 -1.803 -3.80881 0
M  V30 623 H 55.7538 -0.816901 -3.13223 0
M  V30 624 H 54.6608 -2.96981 -2.27493 0
M  V30 625 H 55.9938 -3.89535 -3.00871 0
M  V30 626 N 57.6459 0.756429 -1.3826 0
M  V30 627 C 58.5759 1.88374 -1.37976 0
M  V30 628 C 59.5569 1.68311 -0.246082 0
M  V30 629 O 60.7419 1.88944 -0.44874 0
M  V30 630 C 57.8719 3.25864 -1.20125 0
M  V30 631 C 56.8259 3.60523 -2.30666 0
M  V30 632 C 56.1519 4.9672 -1.97923 0
M  V30 633 C 57.4519 3.65692 -3.72916 0
M  V30 634 H 59.1459 1.88869 -2.32312 0
M  V30 635 H 56.6919 0.907272 -1.11824 0
M  V30 636 H 58.6449 4.0438 -1.18552 0
M  V30 637 H 57.3689 3.25841 -0.222498 0
M  V30 638 H 56.0279 2.84324 -2.3142 0
M  V30 639 H 55.6759 4.93253 -0.985393 0
M  V30 640 H 55.3759 5.20878 -2.71955 0
M  V30 641 H 56.8999 5.77618 -1.97964 0
M  V30 642 H 58.3139 4.34328 -3.74208 0
M  V30 643 H 56.7109 4.01358 -4.4613 0
M  V30 644 H 57.7809 2.65987 -4.05436 0
M  V30 645 N 59.124 1.23083 0.984299 0
M  V30 646 C 60.54 0.992637 1.24975 0
M  V30 647 C 60.74 -0.308618 1.99123 0
M  V30 648 O 59.796 -1.02905 2.30579 0
M  V30 649 C 61.109 2.19698 2.05312 0
M  V30 650 C 62.657 2.24147 2.18465 0
M  V30 651 C 63.132 3.44157 3.02192 0
M  V30 652 N 64.623 3.44372 3.09777 0
M  V30 653 C 65.358 4.33886 3.74874 0
M  V30 654 N 64.854 5.3363 4.41827 0
M  V30 655 N 66.647 4.21639 3.71721 0
M  V30 656 H 58.798 2.06731 0.487453 0
M  V30 657 H 61.061 0.906339 0.277944 0
M  V30 658 H 60.767 3.1411 1.58201 0
M  V30 659 H 60.641 2.20465 3.06064 0
M  V30 660 H 63.028 1.30277 2.64786 0
M  V30 661 H 63.109 2.27415 1.17115 0
M  V30 662 H 62.753 4.38332 2.56568 0
M  V30 663 H 62.683 3.3813 4.03702 0
M  V30 664 H 65.174 2.72201 2.62135 0
M  V30 665 H 65.487 5.98196 4.89266 0
M  V30 666 H 63.832 5.37534 4.40548 0
M  V30 667 H 67.023 3.42962 3.18582 0
M  V30 668 H 67.196 4.91604 4.22173 0
M  V30 669 N 60.6021 -1.18246 1.0419 0
M  V30 670 C 61.5341 -2.2142 0.592088 0
M  V30 671 C 62.5471 -1.59233 -0.338909 0
M  V30 672 O 63.7361 -1.78002 -0.133231 0
M  V30 673 C 60.8361 -3.38546 -0.154854 0
M  V30 674 C 60.0091 -4.3031 0.784328 0
M  V30 675 C 59.0681 -5.26138 0.0804583 0
M  V30 676 O 58.0941 -5.64738 0.711292 0
M  V30 677 N 59.2961 -5.68261 -1.18574 0
M  V30 678 H 62.0611 -2.60636 1.47949 0
M  V30 679 H 59.6221 -1.33044 0.922544 0
M  V30 680 H 61.6141 -3.99678 -0.635606 0
M  V30 681 H 60.1841 -2.98012 -0.943811 0
M  V30 682 H 59.4041 -3.66764 1.44491 0
M  V30 683 H 60.6921 -4.8852 1.42218 0
M  V30 684 H 60.0901 -5.38957 -1.71876 0
M  V30 685 H 58.6471 -6.31584 -1.61074 0
M  V30 686 N 62.0802 -0.821533 -1.34494 0
M  V30 687 C 63.0432 -0.247847 -2.27856 0
M  V30 688 C 64.0432 0.573453 -1.50227 0
M  V30 689 O 65.2332 0.389759 -1.69784 0
M  V30 690 C 62.3652 0.652698 -3.34593 0
M  V30 691 H 63.5582 -1.07146 -2.80107 0
M  V30 692 H 61.1112 -0.593291 -1.44602 0
M  V30 693 H 61.8462 1.49943 -2.87555 0
M  V30 694 H 61.6312 0.065292 -3.92046 0
M  V30 695 H 63.1212 1.04793 -4.04238 0
M  V30 696 N 63.5583 1.46682 -0.576371 0
M  V30 697 C 64.8043 2.02712 -0.0596221 0
M  V30 698 C 65.1373 1.44765 1.29448 0
M  V30 699 O 64.4123 0.610355 1.84675 0
M  V30 700 C 64.6953 3.60098 0.0129503 0
M  V30 701 C 64.5483 4.28441 -1.3696 0
M  V30 702 C 65.8673 4.34224 0.71678 0
M  V30 703 H 62.9863 0.736637 -0.0231407 0
M  V30 704 H 65.6283 1.74898 -0.742351 0
M  V30 705 H 63.7783 3.83926 0.594378 0
M  V30 706 H 65.4503 4.15896 -1.9957 0
M  V30 707 H 63.6933 3.8805 -1.93907 0
M  V30 708 H 64.3643 5.3716 -1.27135 0
M  V30 709 H 66.8403 4.15503 0.222908 0
M  V30 710 H 65.7163 5.43936 0.73657 0
M  V30 711 H 65.9773 4.04823 1.77682 0
M  V30 712 N 65.0364 0.313813 1.54444 0
M  V30 713 C 66.3134 -0.345447 1.92525 0
M  V30 714 C 66.6934 -1.70667 1.24242 0
M  V30 715 O 66.0414 -2.25273 0.382654 0
M  V30 716 C 66.2514 -0.44737 3.46121 0
M  V30 717 C 67.5994 -0.712238 4.18584 0
M  V30 718 O 68.6234 -0.530678 3.52225 0
M  V30 719 O 67.4824 -1.06183 5.36085 0
M  V30 720 H 64.5764 -0.195407 0.803583 0
M  V30 721 H 67.1224 0.362813 1.65776 0
M  V30 722 H 65.8944 0.509043 3.87975 0
M  V30 723 H 65.5174 -1.20359 3.78945 0
M  V30 724 N 66.5145 -1.57545 0.0417849 0
M  V30 725 C 67.4775 -2.09885 -0.92093 0
M  V30 726 C 68.4775 -1.01648 -1.24596 0
M  V30 727 O 69.6675 -1.27759 -1.1842 0
M  V30 728 C 66.7995 -2.57527 -2.23367 0
M  V30 729 H 67.9925 -2.96236 -0.467382 0
M  V30 730 H 65.5455 -1.5493 -0.206467 0
M  V30 731 H 66.2805 -1.74542 -2.73323 0
M  V30 732 H 66.0655 -3.36613 -2.01083 0
M  V30 733 H 67.5555 -2.98201 -2.92346 0
M  V30 734 N 67.9926 0.231505 -1.5589 0
M  V30 735 C 69.2416 0.955346 -1.7764 0
M  V30 736 C 69.5546 1.85893 -0.608546 0
M  V30 737 O 70.7606 2.62067 -0.70943 0
M  V30 738 C 69.2166 1.74886 -3.14552 0
M  V30 739 C 68.8246 0.891915 -4.39032 0
M  V30 740 C 70.5686 2.46452 -3.45633 0
M  V30 741 C 68.4756 1.68221 -5.66971 0
M  V30 742 H 67.4056 0.360446 -0.662265 0
M  V30 743 H 70.0566 0.209516 -1.823 0
M  V30 744 H 68.4386 2.53723 -3.04041 0
M  V30 745 H 69.6126 0.144793 -4.60572 0
M  V30 746 H 67.9276 0.288863 -4.15397 0
M  V30 747 H 70.5246 3.06061 -4.38441 0
M  V30 748 H 70.8676 3.18841 -2.67668 0
M  V30 749 H 71.4006 1.74613 -3.57428 0
M  V30 750 H 68.1396 1.00178 -6.478 0
M  V30 751 H 67.6596 2.4042 -5.49507 0
M  V30 752 H 69.3386 2.24544 -6.06786 0
M  V30 753 N 69.4707 1.49531 0.497807 0
M  V30 754 C 70.4177 1.66436 1.59899 0
M  V30 755 C 71.3877 0.505793 1.58212 0
M  V30 756 O 72.5727 0.733202 1.7615 0
M  V30 757 C 69.7127 1.7399 2.98029 0
M  V30 758 C 68.8257 3.01172 3.09708 0
M  V30 759 C 67.9607 2.99686 4.38591 0
M  V30 760 C 66.9997 4.21434 4.43914 0
M  V30 761 N 66.1367 4.1784 5.64229 0
M  V30 762 H 70.9767 2.60459 1.44793 0
M  V30 763 H 68.5137 1.29137 0.704423 0
M  V30 764 H 70.4717 1.76352 3.78095 0
M  V30 765 H 69.1017 0.834301 3.11832 0
M  V30 766 H 68.1537 3.08408 2.22685 0
M  V30 767 H 69.4657 3.91165 3.09502 0
M  V30 768 H 68.6197 3.00628 5.2698 0
M  V30 769 H 67.3587 2.07477 4.41367 0
M  V30 770 H 66.3637 4.20733 3.53926 0
M  V30 771 H 67.5887 5.14839 4.42851 0
M  V30 772 H 65.5347 3.28469 5.67841 0
M  V30 773 H 65.4517 5.01571 5.65652 0
M  V30 774 H 66.7197 4.22889 6.54817 0
M  V30 775 N 70.9488 -0.749086 1.3866 0
M  V30 776 C 71.9118 -1.84457 1.36045 0
M  V30 777 C 72.9118 -1.58682 0.260122 0
M  V30 778 O 74.1018 -1.66343 0.517261 0
M  V30 779 C 71.2338 -3.22008 1.11911 0
M  V30 780 H 72.4268 -1.88182 2.33512 0
M  V30 781 H 69.9798 -0.951266 1.24019 0
M  V30 782 H 70.7148 -3.2395 0.150686 0
M  V30 783 H 70.4998 -3.42111 1.91579 0
M  V30 784 H 71.9898 -4.0208 1.12788 0
M  V30 785 N 72.4269 -1.23603 -0.977757 0
M  V30 786 C 73.7039 -0.977897 -1.69401 0
M  V30 787 C 74.0839 0.502738 -2.05026 0
M  V30 788 O 73.4319 1.47459 -1.74551 0
M  V30 789 C 73.6419 -1.89077 -2.93345 0
M  V30 790 C 74.9899 -2.15579 -3.65802 0
M  V30 791 O 76.0139 -1.86648 -3.03383 0
M  V30 792 O 74.8729 -2.64658 -4.78141 0
M  V30 793 H 71.9669 -0.369025 -0.740101 0
M  V30 794 H 74.5129 -1.34657 -1.03274 0
M  V30 795 H 73.2849 -2.89158 -2.63634 0
M  V30 796 H 72.9079 -1.52463 -3.67207 0
M  V30 797 N 73.905 1.17692 -1.04816 0
M  V30 798 C 74.868 2.19787 -0.650117 0
M  V30 799 C 75.868 1.58044 0.296427 0
M  V30 800 O 77.058 1.74012 0.0808097 0
M  V30 801 C 74.19 3.40869 0.0456987 0
M  V30 802 H 75.383 2.56516 -1.5537 0
M  V30 803 H 72.936 1.31708 -0.841594 0
M  V30 804 H 73.671 3.09681 0.962726 0
M  V30 805 H 73.456 3.86928 -0.634727 0
M  V30 806 H 74.946 4.16445 0.310432 0
M  V30 807 N 75.3831 0.828654 1.34056 0
M  V30 808 C 76.6081 0.431637 2.02859 0
M  V30 809 C 77.0331 -0.956339 1.61975 0
M  V30 810 O 76.3911 -1.62338 0.807228 0
M  V30 811 C 76.4391 0.548323 3.56407 0
M  V30 812 O 75.5431 -0.429556 4.10157 0
M  V30 813 H 74.8841 0.176886 0.640006 0
M  V30 814 H 77.4141 1.12066 1.71179 0
M  V30 815 H 77.4241 0.426196 4.05768 0
M  V30 816 H 76.0991 1.5606 3.8551 0
M  V30 817 H 74.6761 -0.265836 3.71951 0
M  V30 818 N 76.8612 -1.46375 0.584142 0
M  V30 819 C 78.1072 -2.02678 0.0703716 0
M  V30 820 C 78.4402 -1.4545 -1.28678 0
M  V30 821 O 77.7152 -0.62014 -1.84349 0
M  V30 822 C 77.9982 -3.60099 0.00614674 0
M  V30 823 C 77.8512 -4.27709 1.3923 0
M  V30 824 C 79.1702 -4.34598 -0.693742 0
M  V30 825 H 76.2892 -0.736504 0.027047 0
M  V30 826 H 78.9312 -1.74501 0.751615 0
M  V30 827 H 77.0812 -3.84236 -0.574009 0
M  V30 828 H 78.7532 -4.14832 2.01773 0
M  V30 829 H 76.9962 -3.87016 1.95962 0
M  V30 830 H 77.6672 -5.36478 1.29982 0
M  V30 831 H 80.1432 -4.15615 -0.200869 0
M  V30 832 H 79.0192 -5.44318 -0.707714 0
M  V30 833 H 79.2802 -4.05759 -1.75533 0
M  V30 834 N 78.3393 -0.321999 -1.54275 0
M  V30 835 C 79.2863 0.544664 -2.24281 0
M  V30 836 C 80.2563 1.1129 -1.23303 0
M  V30 837 O 81.4413 1.15354 -1.51981 0
M  V30 838 C 78.5813 1.70045 -3.00298 0
M  V30 839 C 77.6943 1.16159 -4.1609 0
M  V30 840 C 76.8293 2.28293 -4.79641 0
M  V30 841 C 75.8683 1.71648 -5.8754 0
M  V30 842 N 75.0053 2.77438 -6.44959 0
M  V30 843 H 79.8453 -0.0588907 -2.97942 0
M  V30 844 H 77.3823 -0.0408345 -1.47043 0
M  V30 845 H 79.3403 2.38054 -3.42616 0
M  V30 846 H 77.9703 2.27531 -2.28975 0
M  V30 847 H 77.0223 0.373092 -3.78566 0
M  V30 848 H 78.3343 0.707087 -4.93763 0
M  V30 849 H 77.4883 3.0421 -5.2492 0
M  V30 850 H 76.2273 2.77079 -4.01346 0
M  V30 851 H 75.2323 0.942282 -5.41665 0
M  V30 852 H 76.4573 1.23741 -6.67731 0
M  V30 853 H 74.4033 3.25519 -5.69538 0
M  V30 854 H 74.3203 2.36547 -7.1804 0
M  V30 855 H 75.5883 3.53189 -6.94894 0
M  V30 856 N 79.8174 1.5752 -0.0501392 0
M  V30 857 C 81.0654 1.9227 0.622642 0
M  V30 858 C 81.3864 0.929083 1.71444 0
M  V30 859 O 80.6564 -0.0262186 1.95882 0
M  V30 860 H 79.2364 0.709739 0.232981 0
M  V30 861 H 81.8984 1.94628 -0.102898 0
M  V30 862 H 80.9944 2.93479 1.06191 0
M  V30 863 N 81.2955 -0.223234 1.56011 0
M  V30 864 C 82.5415 -0.949279 1.79211 0
M  V30 865 C 82.8745 -1.84054 0.619494 0
M  V30 866 O 82.1495 -1.90726 -0.381317 0
M  V30 867 C 82.4325 -1.78965 3.12479 0
M  V30 868 C 82.2855 -0.924997 4.40186 0
M  V30 869 C 83.6045 -2.76774 3.42175 0
M  V30 870 H 80.7235 -0.343676 0.651963 0
M  V30 871 H 83.3655 -0.218253 1.88742 0
M  V30 872 H 81.5155 -2.41291 3.04485 0
M  V30 873 H 83.1875 -0.318615 4.60198 0
M  V30 874 H 81.4305 -0.230344 4.33188 0
M  V30 875 H 82.1015 -1.54735 5.29869 0
M  V30 876 H 84.5775 -2.24584 3.50287 0
M  V30 877 H 83.4535 -3.32678 4.36597 0
M  V30 878 H 83.7145 -3.54429 2.64258 0
M  V30 879 N 82.7736 -1.49793 -0.48987 0
M  V30 880 C 84.0226 -1.59085 -1.23995 0
M  V30 881 C 84.3356 -0.287907 -1.9347 0
M  V30 882 O 85.5416 -0.259506 -2.70257 0
M  V30 883 C 83.9976 -2.80736 -2.252 0
M  V30 884 C 83.6056 -4.17833 -1.61614 0
M  V30 885 C 85.3496 -2.99364 -3.00967 0
M  V30 886 C 83.2566 -5.30693 -2.60996 0
M  V30 887 H 82.1866 -0.592372 -0.466488 0
M  V30 888 H 84.8376 -1.76197 -0.51252 0
M  V30 889 H 83.2196 -2.57142 -3.01154 0
M  V30 890 H 84.3936 -4.51608 -0.915774 0
M  V30 891 H 82.7086 -4.04656 -0.981977 0
M  V30 892 H 85.3056 -3.80851 -3.75308 0
M  V30 893 H 85.6486 -2.10356 -3.59244 0
M  V30 894 H 86.1816 -3.2305 -2.32128 0
M  V30 895 H 82.9206 -6.21796 -2.07485 0
M  V30 896 H 82.4406 -5.01359 -3.2924 0
M  V30 897 H 84.1196 -5.6049 -3.23202 0
M  V30 898 N 84.2517 0.741722 -1.39055 0
M  V30 899 C 85.4977 1.50336 -1.36113 0
M  V30 900 C 85.8307 1.94148 0.0450796 0
M  V30 901 O 85.1057 1.66301 1.00868 0
M  V30 902 C 85.3887 2.74773 -2.32749 0
M  V30 903 C 85.2417 2.37023 -3.82283 0
M  V30 904 C 86.5607 3.76846 -2.27322 0
M  V30 905 H 83.6797 0.545351 -0.495743 0
M  V30 906 H 86.3217 0.848624 -1.69995 0
M  V30 907 H 84.4717 3.30639 -2.03986 0
M  V30 908 H 86.1437 1.8684 -4.21768 0
M  V30 909 H 84.3867 1.69334 -3.99385 0
M  V30 910 H 85.0577 3.26104 -4.45376 0
M  V30 911 H 87.5337 3.30548 -2.5274 0
M  V30 912 H 86.4097 4.6159 -2.97028 0
M  V30 913 H 86.6707 4.23286 -1.27599 0
M  V30 914 N 85.7298 1.2412 0.971189 0
M  V30 915 C 86.9548 1.10667 1.75407 0
M  V30 916 C 87.3798 -0.337048 1.85056 0
M  V30 917 O 86.7378 -1.24396 1.31892 0
M  V30 918 C 86.7858 1.74726 3.15441 0
M  V30 919 O 85.8898 1.01566 3.99697 0
M  V30 920 H 85.2308 0.387341 0.539317 0
M  V30 921 H 87.7608 1.64358 1.2185 0
M  V30 922 H 87.7708 1.80341 3.6598 0
M  V30 923 H 86.4458 2.79773 3.07734 0
M  V30 924 H 85.0228 1.03713 3.58187 0
M  V30 925 N 87.2079 -1.17134 1.05439 0
M  V30 926 C 88.4329 -1.91913 0.786396 0
M  V30 927 C 88.8579 -1.7643 -0.652234 0
M  V30 928 O 88.2159 -1.08372 -1.45345 0
M  V30 929 C 88.2639 -3.40921 1.17497 0
M  V30 930 O 87.3679 -4.11244 0.308589 0
M  V30 931 H 86.7089 -0.598215 0.288158 0
M  V30 932 H 89.2389 -1.48457 1.4079 0
M  V30 933 H 89.2489 -3.91668 1.14281 0
M  V30 934 H 87.9239 -3.5151 2.22292 0
M  V30 935 H 86.5009 -3.70731 0.40157 0
M  V30 936 N 88.686 -0.835752 -1.33615 0
M  V30 937 C 89.934 -0.429109 -1.97492 0
M  V30 938 C 90.255 1.01433 -1.66543 0
M  V30 939 O 89.525 1.70611 -0.962744 0
M  V30 940 H 88.105 -0.155686 -0.730596 0
M  V30 941 H 90.767 -1.06802 -1.63031 0
M  V30 942 H 89.863 -0.55861 -3.0706 0
M  V30 943 N 90.1641 1.46063 -0.591896 0
M  V30 944 C 91.1111 2.30399 0.136069 0
M  V30 945 C 92.0811 1.41169 0.875238 0
M  V30 946 O 93.2661 1.70112 0.86409 0
M  V30 947 C 90.4061 3.25804 1.13781 0
M  V30 948 C 89.5191 4.30134 0.401137 0
M  V30 949 C 88.6541 5.12659 1.39121 0
M  V30 950 C 87.6931 6.0873 0.641462 0
M  V30 951 N 86.8301 6.8409 1.58004 0
M  V30 952 H 91.6701 2.92118 -0.589144 0
M  V30 953 H 89.2071 1.43959 -0.302342 0
M  V30 954 H 91.1651 3.79569 1.73156 0
M  V30 955 H 89.7951 2.65872 1.83062 0
M  V30 956 H 88.8471 3.79152 -0.307826 0
M  V30 957 H 90.1591 4.98458 -0.184565 0
M  V30 958 H 89.3131 5.70747 2.05749 0
M  V30 959 H 88.0521 4.44316 2.01084 0
M  V30 960 H 87.0571 5.49786 -0.0385419 0
M  V30 961 H 88.2821 6.79095 0.0270945 0
M  V30 962 H 86.2281 6.18449 2.18761 0
M  V30 963 H 86.1451 7.48709 1.04738 0
M  V30 964 H 87.4131 7.4673 2.23639 0
M  V30 965 N 91.6422 0.330177 1.54103 0
M  V30 966 C 92.9192 -0.325007 1.92881 0
M  V30 967 C 93.2992 -1.6934 1.26045 0
M  V30 968 O 92.6472 -2.24855 0.406526 0
M  V30 969 C 92.8572 -0.410634 3.46576 0
M  V30 970 C 94.2052 -0.667801 4.19316 0
M  V30 971 O 95.2292 -0.49329 3.52768 0
M  V30 972 O 94.0882 -1.00491 5.37181 0
M  V30 973 H 91.1822 -0.186873 0.80561 0
M  V30 974 H 93.7282 0.380376 1.65382 0
M  V30 975 H 92.5002 0.550164 3.87413 0
M  V30 976 H 92.1232 -1.16333 3.802 0
M  V30 977 N 93.1203 -1.57491 0.0584922 0
M  V30 978 C 94.3663 -1.93264 -0.614558 0
M  V30 979 C 94.6993 -0.937717 -1.7006 0
M  V30 980 O 93.9743 0.0351652 -1.94468 0
M  V30 981 C 94.2573 -3.3938 -1.20386 0
M  V30 982 C 94.1103 -4.49625 -0.125375 0
M  V30 983 C 95.4293 -3.86039 -2.11334 0
M  V30 984 H 92.5483 -0.702791 -0.221933 0
M  V30 985 H 95.1903 -1.8961 0.12175 0
M  V30 986 H 93.3403 -3.42626 -1.83139 0
M  V30 987 H 95.0123 -4.58506 0.506971 0
M  V30 988 H 93.2553 -4.30354 0.545672 0
M  V30 989 H 93.9263 -5.48967 -0.577861 0
M  V30 990 H 96.4023 -3.84716 -1.58534 0
M  V30 991 H 95.2783 -4.88914 -2.49507 0
M  V30 992 H 95.5393 -3.23215 -3.01636 0
M  V30 993 N 94.5984 0.214957 -1.56127 0
M  V30 994 C 95.8454 0.938372 -1.79446 0
M  V30 995 C 96.1734 1.8407 -0.628378 0
M  V30 996 O 95.4284 1.91837 0.386925 0
M  V30 997 C 95.7274 1.80314 -3.0858 0
M  V30 998 C 95.3934 1.05349 -4.3842 0
M  V30 999 C 94.0554 0.846435 -4.73697 0
M  V30 1000 C 96.4074 0.524588 -5.18553 0
M  V30 1001 C 93.7354 0.098683 -5.86617 0
M  V30 1002 C 96.0874 -0.209853 -6.32252 0
M  V30 1003 C 94.7514 -0.428102 -6.66126 0
M  V30 1004 H 94.0214 0.343375 -0.656639 0
M  V30 1005 H 96.6684 0.206077 -1.90388 0
M  V30 1006 H 94.9734 2.6035 -2.92789 0
M  V30 1007 H 96.6704 2.36513 -3.23825 0
M  V30 1008 H 93.2604 1.22486 -4.10725 0
M  V30 1009 H 97.4444 0.672008 -4.91729 0
M  V30 1010 H 92.7004 -0.0805753 -6.11347 0
M  V30 1011 H 96.8744 -0.627157 -6.9357 0
M  V30 1012 H 94.5014 -1.00944 -7.53468 0
M  V30 1013 N 96.0765 1.50051 0.48192 0
M  V30 1014 C 97.3255 1.59741 1.23149 0
M  V30 1015 C 97.6385 0.298163 1.93314 0
M  V30 1016 O 98.8445 0.273835 2.70116 0
M  V30 1017 C 97.3005 2.81926 2.23708 0
M  V30 1018 C 96.9085 4.18685 1.59396 0
M  V30 1019 C 98.6525 3.00956 2.99375 0
M  V30 1020 C 96.5595 5.3207 2.58178 0
M  V30 1021 H 95.4895 0.594838 0.46334 0
M  V30 1022 H 98.1405 1.76467 0.503169 0
M  V30 1023 H 96.5225 2.58736 2.99786 0
M  V30 1024 H 97.6965 4.52088 0.891811 0
M  V30 1025 H 96.0115 4.05171 0.960503 0
M  V30 1026 H 98.6085 3.82836 3.73283 0
M  V30 1027 H 98.9515 2.12258 3.58123 0
M  V30 1028 H 99.4845 3.24277 2.30411 0
M  V30 1029 H 96.2235 6.22888 2.04184 0
M  V30 1030 H 95.7435 5.03098 3.26577 0
M  V30 1031 H 97.4225 5.62196 3.20225 0
M  V30 1032 N 97.5546 -0.734337 1.39446 0
M  V30 1033 C 98.8006 -1.49613 1.36908 0
M  V30 1034 C 99.1336 -1.94169 -0.0347829 0
M  V30 1035 O 98.4086 -1.66833 -0.999847 0
M  V30 1036 C 98.6916 -2.73534 2.34203 0
M  V30 1037 C 98.5446 -2.34993 3.83534 0
M  V30 1038 C 99.8636 -3.75635 2.29317 0
M  V30 1039 H 96.9826 -0.542714 0.498629 0
M  V30 1040 H 99.6246 -0.839597 1.70443 0
M  V30 1041 H 97.7746 -3.29553 2.05736 0
M  V30 1042 H 99.4466 -1.84601 4.22753 0
M  V30 1043 H 97.6896 -1.67213 4.00278 0
M  V30 1044 H 98.3606 -3.23738 4.47099 0
M  V30 1045 H 100.837 -3.29203 2.54489 0
M  V30 1046 H 99.7126 -4.60008 2.99472 0
M  V30 1047 H 99.9736 -4.22603 1.29842 0
M  V30 1048 N 99.0327 -1.24633 -0.964593 0
M  V30 1049 C 100.281 -1.08573 -1.70459 0
M  V30 1050 C 100.602 0.375655 -1.91347 0
M  V30 1051 O 99.8717 1.26779 -1.49345 0
M  V30 1052 H 98.4517 -0.398784 -0.631649 0
M  V30 1053 H 101.114 -1.56601 -1.16026 0
M  V30 1054 H 100.21 -1.58623 -2.68785 0
M  V30 1055 N 100.511 1.16574 -1.06058 0
M  V30 1056 C 101.474 2.19085 -0.673392 0
M  V30 1057 C 102.474 1.5835 0.279648 0
M  V30 1058 O 103.664 1.74088 0.0623488 0
M  V30 1059 C 100.796 3.40899 0.00954234 0
M  V30 1060 H 101.989 2.54853 -1.58081 0
M  V30 1061 H 99.5418 1.30808 -0.855516 0
M  V30 1062 H 100.277 3.10684 0.929826 0
M  V30 1063 H 100.062 3.86233 -0.67573 0
M  V30 1064 H 101.552 4.1675 0.266245 0
M  V30 1065 N 101.989 0.842826 1.3317 0
M  V30 1066 C 103.266 0.362216 1.92217 0
M  V30 1067 C 103.646 -1.15289 1.76838 0
M  V30 1068 O 102.994 -1.96914 1.15919 0
M  V30 1069 C 103.204 0.813495 3.39387 0
M  V30 1070 C 104.552 0.823804 4.16532 0
M  V30 1071 O 105.576 0.757358 3.48055 0
M  V30 1072 O 104.435 0.915193 5.38782 0
M  V30 1073 H 101.529 0.103317 0.820521 0
M  V30 1074 H 104.075 0.928942 1.42017 0
M  V30 1075 H 102.847 1.85624 3.4447 0
M  V30 1076 H 102.47 0.223561 3.96971 0
M  V30 1077 N 103.467 -1.45747 0.599634 0
M  V30 1078 C 104.716 -2.01502 0.0893511 0
M  V30 1079 C 105.029 -1.4748 -1.28488 0
M  V30 1080 O 106.235 -1.95161 -1.88745 0
M  V30 1081 C 104.691 -3.59735 0.109082 0
M  V30 1082 C 104.299 -4.22754 1.48267 0
M  V30 1083 C 106.043 -4.23085 -0.346374 0
M  V30 1084 C 103.95 -5.73115 1.45921 0
M  V30 1085 H 102.88 -0.753417 0.0296347 0
M  V30 1086 H 105.531 -1.67303 0.753788 0
M  V30 1087 H 103.913 -3.91087 -0.621854 0
M  V30 1088 H 105.087 -4.02987 2.23468 0
M  V30 1089 H 103.402 -3.71567 1.87955 0
M  V30 1090 H 105.999 -5.33327 -0.38298 0
M  V30 1091 H 106.342 -3.93201 -1.36743 0
M  V30 1092 H 106.875 -3.9642 0.331038 0
M  V30 1093 H 103.614 -6.07685 2.45762 0
M  V30 1094 H 103.134 -5.95097 0.749665 0
M  V30 1095 H 104.813 -6.3616 1.17941 0
M  V30 1096 N 104.945 -0.338344 -1.53925 0
M  V30 1097 C 106.173 0.261298 -2.05243 0
M  V30 1098 C 106.588 1.44625 -1.21363 0
M  V30 1099 O 105.945 1.80811 -0.247736 0
M  V30 1100 C 105.996 0.681412 -3.5502 0
M  V30 1101 O 105.717 -0.456414 -4.35716 0
M  V30 1102 C 107.218 1.34232 -4.22489 0
M  V30 1103 H 104.438 0.0513685 -0.669031 0
M  V30 1104 H 106.982 -0.488822 -1.98572 0
M  V30 1105 H 105.137 1.38148 -3.61931 0
M  V30 1106 H 105.551 -0.122564 -5.24357 0
M  V30 1107 H 107.025 1.58708 -5.28693 0
M  V30 1108 H 107.502 2.29426 -3.74514 0
M  V30 1109 H 108.108 0.684424 -4.19757 0
M  V30 1110 N 106.423 1.57458 -0.0668435 0
M  V30 1111 C 107.333 2.15937 0.916975 0
M  V30 1112 C 108.349 1.12123 1.33058 0
M  V30 1113 O 109.525 1.44366 1.40429 0
M  V30 1114 C 106.59 2.70547 2.16807 0
M  V30 1115 C 105.651 3.89215 1.81135 0
M  V30 1116 C 104.884 4.41211 3.0028 0
M  V30 1117 O 105.107 3.92225 4.14144 0
M  V30 1118 O 104.041 5.32605 2.80384 0
M  V30 1119 H 107.867 3.00354 0.449561 0
M  V30 1120 H 105.452 1.48584 0.155949 0
M  V30 1121 H 107.334 3.0557 2.90181 0
M  V30 1122 H 106.009 1.89192 2.62656 0
M  V30 1123 H 104.916 3.59054 1.05028 0
M  V30 1124 H 106.249 4.71848 1.40073 0
M  V30 1125 N 107.901 -0.206675 1.56239 0
M  V30 1126 C 109.148 -0.928842 1.79941 0
M  V30 1127 C 109.476 -1.83734 0.638131 0
M  V30 1128 O 108.731 -1.92039 -0.376746 0
M  V30 1129 C 109.03 -1.78675 3.09532 0
M  V30 1130 C 108.696 -1.03022 4.38973 0
M  V30 1131 C 107.358 -0.821302 4.74139 0
M  V30 1132 C 109.71 -0.497081 5.18824 0
M  V30 1133 C 107.038 -0.0675719 5.86661 0
M  V30 1134 C 109.39 0.24338 6.32132 0
M  V30 1135 C 108.054 0.463422 6.65889 0
M  V30 1136 H 107.324 -0.339887 0.658451 0
M  V30 1137 H 109.971 -0.195977 1.90495 0
M  V30 1138 H 108.276 -2.58794 2.94165 0
M  V30 1139 H 109.973 -2.34792 3.25075 0
M  V30 1140 H 106.563 -1.20306 4.11369 0
M  V30 1141 H 110.747 -0.645921 4.92079 0
M  V30 1142 H 106.003 0.112995 6.11296 0
M  V30 1143 H 110.177 0.66393 6.93228 0
M  V30 1144 H 107.804 1.04938 7.52922 0
M  V30 1145 N 109.379 -1.50304 -0.473955 0
M  V30 1146 C 110.625 -1.61389 -1.22806 0
M  V30 1147 C 110.958 -0.311955 -1.91678 0
M  V30 1148 O 110.233 0.686384 -1.81986 0
M  V30 1149 C 110.516 -2.79219 -2.27396 0
M  V30 1150 C 110.369 -4.19286 -1.62848 0
M  V30 1151 C 111.688 -2.92614 -3.28732 0
M  V30 1152 H 108.807 -0.587399 -0.445119 0
M  V30 1153 H 111.449 -1.82681 -0.522265 0
M  V30 1154 H 109.599 -2.61195 -2.87592 0
M  V30 1155 H 111.271 -4.48892 -1.06271 0
M  V30 1156 H 109.514 -4.23677 -0.931693 0
M  V30 1157 H 110.185 -4.97655 -2.38838 0
M  V30 1158 H 112.661 -3.09105 -2.78556 0
M  V30 1159 H 111.537 -3.76688 -3.99246 0
M  V30 1160 H 111.798 -2.03107 -3.92683 0
M  V30 1161 N 110.857 0.726932 -1.39834 0
M  V30 1162 C 111.767 1.87131 -1.41489 0
M  V30 1163 C 112.783 1.71239 -0.308757 0
M  V30 1164 O 113.959 1.93701 -0.551529 0
M  V30 1165 C 111.024 3.22811 -1.26468 0
M  V30 1166 C 110.085 3.51039 -2.47124 0
M  V30 1167 C 109.318 4.80245 -2.3281 0
M  V30 1168 O 109.541 5.54537 -1.33585 0
M  V30 1169 O 108.475 5.08554 -3.21957 0
M  V30 1170 H 112.301 1.8869 -2.3797 0
M  V30 1171 H 109.886 0.875837 -1.21035 0
M  V30 1172 H 111.768 4.03877 -1.20255 0
M  V30 1173 H 110.443 3.22005 -0.330862 0
M  V30 1174 H 109.35 2.70027 -2.58914 0
M  V30 1175 H 110.683 3.56632 -3.39227 0
M  V30 1176 N 112.336 1.25143 0.95797 0
M  V30 1177 C 113.284 1.05019 2.07542 0
M  V30 1178 C 114.278 -0.0178751 1.69391 0
M  V30 1179 O 115.484 0.137472 1.79474 0
M  V30 1180 H 111.859 0.32265 0.679265 0
M  V30 1181 H 113.83 1.99759 2.21673 0
M  V30 1182 C 112.579 0.682074 3.40944 0
M  V30 1183 H 111.902 1.49573 3.70767 0
M  V30 1184 H 113.342 0.580945 4.20001 0
M  V30 1185 C 111.801 -0.611608 3.31302 0
M  V30 1186 O 112.331 -1.65465 3.66038 0
M  V30 1187 N 110.537 -0.595982 2.84423 0
M  V30 1188 H 110.084 0.253192 2.56353 0
M  V30 1189 H 110.042 -1.46173 2.78354 0
M  V30 1190 N 113.814 -1.1601 1.06675 0
M  V30 1191 C 115.061 -1.86633 0.785781 0
M  V30 1192 C 115.389 -1.81929 -0.687896 0
M  V30 1193 O 114.644 -1.23253 -1.52011 0
M  V30 1194 C 114.943 -3.35547 1.23057 0
M  V30 1195 C 114.609 -3.60448 2.70902 0
M  V30 1196 C 113.271 -3.66954 3.11285 0
M  V30 1197 C 115.623 -3.7071 3.66365 0
M  V30 1198 C 112.951 -3.81225 4.45965 0
M  V30 1199 C 115.303 -3.86503 5.00797 0
M  V30 1200 C 113.967 -3.91252 5.40813 0
M  V30 1201 H 113.237 -0.682937 0.287538 0
M  V30 1202 H 115.884 -1.37146 1.33654 0
M  V30 1203 H 114.189 -3.87193 0.59907 0
M  V30 1204 H 115.886 -3.88583 0.990163 0
M  V30 1205 H 112.476 -3.56021 2.38636 0
M  V30 1206 H 116.66 -3.64991 3.36296 0
M  V30 1207 H 111.916 -3.83155 4.76447 0
M  V30 1208 H 116.09 -3.93385 5.74649 0
M  V30 1209 H 113.717 -4.02062 6.45174 0
M  V30 1210 N 115.292 -0.849877 -1.32721 0
M  V30 1211 C 116.239 -0.289033 -2.28983 0
M  V30 1212 C 117.209 0.601324 -1.54833 0
M  V30 1213 O 118.394 0.537253 -1.8308 0
M  V30 1214 C 115.534 0.520623 -3.4115 0
M  V30 1215 C 114.647 -0.394989 -4.3019 0
M  V30 1216 C 113.782 0.426834 -5.29482 0
M  V30 1217 C 112.821 -0.486476 -6.10164 0
M  V30 1218 N 111.958 0.297879 -7.01468 0
M  V30 1219 H 116.798 -1.11519 -2.76347 0
M  V30 1220 H 114.335 -0.56138 -1.35967 0
M  V30 1221 H 116.293 1.00563 -4.04899 0
M  V30 1222 H 114.923 1.31165 -2.9495 0
M  V30 1223 H 113.975 -0.99836 -3.67065 0
M  V30 1224 H 115.287 -1.09612 -4.86607 0
M  V30 1225 H 114.441 0.975205 -5.98811 0
M  V30 1226 H 113.18 1.16136 -4.73671 0
M  V30 1227 H 112.185 -1.04677 -5.39743 0
M  V30 1228 H 113.41 -1.21953 -6.6806 0
M  V30 1229 H 111.356 1.01558 -6.48091 0
M  V30 1230 H 111.273 -0.344318 -7.55216 0
M  V30 1231 H 112.541 0.828131 -7.75089 0
M  V30 1232 N 116.77 1.45427 -0.607355 0
M  V30 1233 C 117.7 2.3329 0.0989352 0
M  V30 1234 C 118.681 1.46816 0.859007 0
M  V30 1235 O 119.866 1.75588 0.829604 0
M  V30 1236 C 116.996 3.29518 1.09705 0
M  V30 1237 C 115.95 4.25626 0.450206 0
M  V30 1238 C 115.276 5.11542 1.55655 0
M  V30 1239 C 116.576 5.18505 -0.628455 0
M  V30 1240 H 118.27 2.92595 -0.634716 0
M  V30 1241 H 115.816 1.40696 -0.306681 0
M  V30 1242 H 117.769 3.89855 1.59971 0
M  V30 1243 H 116.493 2.68372 1.86129 0
M  V30 1244 H 115.152 3.66586 -0.0315886 0
M  V30 1245 H 114.8 4.46765 2.31107 0
M  V30 1246 H 114.5 5.76647 1.12925 0
M  V30 1247 H 116.024 5.74748 2.06148 0
M  V30 1248 H 117.438 5.72916 -0.209877 0
M  V30 1249 H 115.835 5.92085 -0.977489 0
M  V30 1250 H 116.905 4.60948 -1.50514 0
M  V30 1251 N 118.248 0.346503 1.53744 0
M  V30 1252 C 119.659 -0.136779 1.86198 0
M  V30 1253 C 120.01 -1.49749 1.26766 0
M  V30 1254 O 119.135 -2.08417 0.582355 0
M  V30 1255 C 119.73 -0.254966 3.37839 0
M  V30 1256 C 118.289 -0.682482 3.70161 0
M  V30 1257 C 117.436 0.181981 2.76702 0
M  V30 1258 H 120.387 0.565994 1.48264 0
M  V30 1259 H 120.408 -1.08195 3.64793 0
M  V30 1260 H 119.92 0.735526 3.81066 0
M  V30 1261 H 118.021 -1.68189 3.3248 0
M  V30 1262 H 118.134 -0.470326 4.76786 0
M  V30 1263 H 116.498 -0.34615 2.52337 0
M  V30 1264 H 117.281 1.16966 3.2276 0
M  V30 1265 N 119.726 -1.57421 0.075193 0
M  V30 1266 C 121.003 -1.85029 -0.634329 0
M  V30 1267 C 121.383 -0.968305 -1.87582 0
M  V30 1268 O 120.731 -0.0354749 -2.28472 0
M  V30 1269 C 120.941 -3.35286 -0.968742 0
M  V30 1270 C 122.289 -4.02875 -1.34077 0
M  V30 1271 O 123.313 -3.40051 -1.06037 0
M  V30 1272 O 122.172 -5.13691 -1.86506 0
M  V30 1273 H 119.266 -0.7645 -0.315387 0
M  V30 1274 H 121.812 -1.69366 0.106382 0
M  V30 1275 H 120.584 -3.91203 -0.0871376 0
M  V30 1276 H 120.207 -3.56223 -1.7661 0
M  V30 1277 N 121.204 0.198386 -1.56346 0
M  V30 1278 C 122.167 1.22952 -1.93431 0
M  V30 1279 C 123.167 1.38611 -0.815092 0
M  V30 1280 O 124.357 1.36479 -1.08255 0
M  V30 1281 C 121.489 2.59946 -2.20546 0
M  V30 1282 H 122.682 0.912626 -2.85677 0
M  V30 1283 H 120.235 0.43977 -1.49986 0
M  V30 1284 H 120.97 2.96696 -1.30927 0
M  V30 1285 H 120.755 2.49953 -3.02102 0
M  V30 1286 H 122.245 3.3431 -2.50253 0
M  V30 1287 N 122.682 1.50554 0.465978 0
M  V30 1288 C 123.592 1.72585 1.58907 0
M  V30 1289 C 124.608 0.60911 1.6299 0
M  V30 1290 O 125.784 0.88804 1.80765 0
M  V30 1291 C 122.849 1.81995 2.95091 0
M  V30 1292 C 121.91 3.05751 3.01355 0
M  V30 1293 C 121.143 3.14702 4.31043 0
M  V30 1294 O 121.366 2.30313 5.21835 0
M  V30 1295 O 120.3 4.07468 4.43005 0
M  V30 1296 H 124.126 2.67799 1.43239 0
M  V30 1297 H 121.711 1.34711 0.646013 0
M  V30 1298 H 123.593 1.90335 3.75966 0
M  V30 1299 H 122.268 0.899659 3.10947 0
M  V30 1300 H 121.175 3.02908 2.19539 0
M  V30 1301 H 122.508 3.97375 2.90437 0
M  V30 1302 N 124.16 -0.719506 1.40217 0
M  V30 1303 C 125.09 -1.8465 1.42922 0
M  V30 1304 C 126.071 -1.67599 0.29062 0
M  V30 1305 O 127.256 -1.87688 0.498677 0
M  V30 1306 C 124.386 -3.22565 1.28722 0
M  V30 1307 C 123.34 -3.54281 2.40144 0
M  V30 1308 C 122.666 -4.91298 2.11023 0
M  V30 1309 C 123.966 -3.55676 3.82481 0
M  V30 1310 H 125.66 -1.82644 2.37237 0
M  V30 1311 H 123.206 -0.877305 1.1419 0
M  V30 1312 H 125.159 -4.01095 1.29232 0
M  V30 1313 H 123.883 -3.25137 0.308811 0
M  V30 1314 H 122.542 -2.78088 2.38877 0
M  V30 1315 H 122.19 -4.90468 1.11582 0
M  V30 1316 H 121.89 -5.13485 2.8567 0
M  V30 1317 H 123.414 -5.72166 2.13209 0
M  V30 1318 H 124.828 -4.24254 3.85592 0
M  V30 1319 H 123.225 -3.89388 4.56614 0
M  V30 1320 H 124.295 -2.55144 4.12346 0
M  V30 1321 N 125.638 -1.25649 -0.95132 0
M  V30 1322 C 126.887 -1.09988 -1.69073 0
M  V30 1323 C 127.2 0.358355 -1.92289 0
M  V30 1324 O 128.406 0.635466 -2.63958 0
M  V30 1325 C 126.862 -1.92012 -3.044 0
M  V30 1326 C 126.47 -3.42347 -2.88968 0
M  V30 1327 C 128.214 -1.8493 -3.82101 0
M  V30 1328 C 126.121 -4.16655 -4.19705 0
M  V30 1329 H 125.051 -0.407993 -0.63408 0
M  V30 1330 H 127.702 -1.49873 -1.05879 0
M  V30 1331 H 126.084 -1.44952 -3.68517 0
M  V30 1332 H 127.258 -3.97104 -2.33762 0
M  V30 1333 H 125.573 -3.50557 -2.24719 0
M  V30 1334 H 128.17 -2.37739 -4.78941 0
M  V30 1335 H 128.513 -0.817883 -4.08187 0
M  V30 1336 H 129.046 -2.29758 -3.2474 0
M  V30 1337 H 125.785 -5.20224 -3.98807 0
M  V30 1338 H 125.305 -3.66681 -4.74663 0
M  V30 1339 H 126.984 -4.24551 -4.88227 0
M  V30 1340 N 127.117 1.15442 -1.07289 0
M  V30 1341 C 128.08 2.18358 -0.696591 0
M  V30 1342 C 129.08 1.58637 0.262837 0
M  V30 1343 O 130.27 1.74145 0.0438809 0
M  V30 1344 C 127.402 3.4089 -0.0266151 0
M  V30 1345 H 128.595 2.53162 -1.60776 0
M  V30 1346 H 126.148 1.29893 -0.869342 0
M  V30 1347 H 126.883 3.11653 0.896822 0
M  V30 1348 H 126.668 3.85495 -0.716657 0
M  V30 1349 H 128.158 4.17009 0.222028 0
M  V30 1350 N 128.595 0.856903 1.32268 0
M  V30 1351 C 129.843 0.460474 1.96784 0
M  V30 1352 C 130.164 -0.987701 1.68135 0
M  V30 1353 O 129.434 -1.69058 0.989765 0
M  V30 1354 H 128.014 0.167289 0.728027 0
M  V30 1355 H 130.676 1.09383 1.61312 0
M  V30 1356 H 129.772 0.60739 3.06133 0
M  V30 1357 N 130.073 -1.45103 0.615059 0
M  V30 1358 C 131.021 -2.32331 -0.111791 0
M  V30 1359 C 132.015 -1.46409 -0.852102 0
M  V30 1360 O 133.221 -1.62849 -0.766821 0
M  V30 1361 H 129.596 -0.749993 -0.0549072 0
M  V30 1362 H 131.567 -2.91407 0.642225 0
M  V30 1363 C 130.316 -3.3015 -1.09071 0
M  V30 1364 H 129.639 -3.96265 -0.530485 0
M  V30 1365 H 131.079 -3.93898 -1.56908 0
M  V30 1366 C 129.538 -2.57875 -2.168 0
M  V30 1367 O 130.068 -2.36567 -3.24652 0
M  V30 1368 N 128.274 -2.17884 -1.92289 0
M  V30 1369 H 127.821 -2.35413 -1.04587 0
M  V30 1370 H 127.779 -1.6985 -2.64572 0
M  V30 1371 N 131.551 -0.354651 -1.53558 0
M  V30 1372 C 132.481 0.489091 -2.2832 0
M  V30 1373 C 133.462 1.09324 -1.30316 0
M  V30 1374 O 134.647 1.11255 -1.59173 0
M  V30 1375 C 131.777 1.63456 -3.0643 0
M  V30 1376 C 130.731 1.1582 -4.12031 0
M  V30 1377 C 130.057 2.39305 -4.7816 0
M  V30 1378 C 131.357 0.250731 -5.21698 0
M  V30 1379 H 133.051 -0.134614 -2.99097 0
M  V30 1380 H 130.597 -0.0661826 -1.43848 0
M  V30 1381 H 132.55 2.23136 -3.57475 0
M  V30 1382 H 131.274 2.28533 -2.33325 0
M  V30 1383 H 129.933 0.584146 -3.61916 0
M  V30 1384 H 129.581 3.02814 -4.01637 0
M  V30 1385 H 129.281 2.08109 -5.49513 0
M  V30 1386 H 130.805 2.99691 -5.31994 0
M  V30 1387 H 132.219 0.754695 -5.68311 0
M  V30 1388 H 130.616 0.0301468 -6.00092 0
M  V30 1389 H 131.686 -0.710125 -4.79672 0
M  V30 1390 N 133.029 1.57378 -0.0835403 0
M  V30 1391 C 133.939 2.16897 0.894021 0
M  V30 1392 C 134.955 1.13528 1.31861 0
M  V30 1393 O 136.131 1.45848 1.3889 0
M  V30 1394 C 133.196 2.72831 2.13925 0
M  V30 1395 C 132.257 3.91115 1.76997 0
M  V30 1396 C 131.49 4.44371 2.95584 0
M  V30 1397 O 131.713 3.96596 4.09961 0
M  V30 1398 O 130.647 5.35549 2.74719 0
M  V30 1399 H 134.473 3.00814 0.417679 0
M  V30 1400 H 132.058 1.48741 0.140181 0
M  V30 1401 H 133.94 3.0863 2.86924 0
M  V30 1402 H 132.615 1.91967 2.60635 0
M  V30 1403 H 131.522 3.60148 1.01214 0
M  V30 1404 H 132.855 4.73307 1.3506 0
M  V30 1405 N 134.507 -0.190092 1.56449 0
M  V30 1406 C 135.47 -1.21925 1.9408 0
M  V30 1407 C 136.47 -1.38176 0.822431 0
M  V30 1408 O 137.66 -1.35903 1.08977 0
M  V30 1409 C 134.792 -2.58773 2.21922 0
M  V30 1410 H 135.985 -0.897464 2.86157 0
M  V30 1411 H 133.538 -0.43181 1.50217 0
M  V30 1412 H 134.273 -2.95998 1.32499 0
M  V30 1413 H 134.058 -2.48348 3.03424 0
M  V30 1414 H 135.548 -3.32978 2.52022 0
M  V30 1415 N 135.985 -1.50799 -0.457987 0
M  V30 1416 C 136.933 -1.71162 -1.575 0
M  V30 1417 C 137.927 -0.577592 -1.59249 0
M  V30 1418 O 139.133 -0.758443 -1.63241 0
M  V30 1419 H 135.508 -0.540468 -0.522875 0
M  V30 1420 H 137.479 -2.64837 -1.37492 0
M  V30 1421 C 136.228 -1.83496 -2.95338 0
M  V30 1422 H 135.551 -2.70153 -2.94716 0
M  V30 1423 H 136.991 -2.01765 -3.72917 0
M  V30 1424 C 135.45 -0.589694 -3.31699 0
M  V30 1425 O 135.98 0.265163 -4.00824 0
M  V30 1426 N 134.186 -0.439845 -2.87252 0
M  V30 1427 H 133.733 -1.13655 -2.31172 0
M  V30 1428 H 133.691 0.392159 -3.11945 0
M  V30 1429 N 137.463 0.71206 -1.40597 0
M  V30 1430 C 138.41 1.82613 -1.41142 0
M  V30 1431 C 139.38 1.63925 -0.267903 0
M  V30 1432 O 140.565 1.85009 -0.466495 0
M  V30 1433 C 137.705 3.20354 -1.28324 0
M  V30 1434 C 136.818 3.50589 -2.52411 0
M  V30 1435 C 135.953 4.77855 -2.32009 0
M  V30 1436 C 134.992 5.01005 -3.51654 0
M  V30 1437 N 134.129 6.19487 -3.30425 0
M  V30 1438 H 138.969 1.81482 -2.36365 0
M  V30 1439 H 136.506 0.886475 -1.17388 0
M  V30 1440 H 138.464 3.99899 -1.18899 0
M  V30 1441 H 137.094 3.20705 -0.367189 0
M  V30 1442 H 136.146 2.65573 -2.72351 0
M  V30 1443 H 137.458 3.63604 -3.41458 0
M  V30 1444 H 136.612 5.65424 -2.19956 0
M  V30 1445 H 135.351 4.67056 -1.40392 0
M  V30 1446 H 134.356 4.1189 -3.64179 0
M  V30 1447 H 135.581 5.13674 -4.44202 0
M  V30 1448 H 133.527 6.09932 -2.41494 0
M  V30 1449 H 133.444 6.33194 -4.13039 0
M  V30 1450 H 134.712 7.09834 -3.22113 0
M  V30 1451 N 138.941 1.26152 0.944643 0
M  V30 1452 C 140.19 1.10883 1.68487 0
M  V30 1453 C 140.503 -0.348153 1.92477 0
M  V30 1454 O 141.709 -0.621459 2.64292 0
M  V30 1455 C 140.165 1.93624 3.03377 0
M  V30 1456 C 139.773 3.43875 2.87148 0
M  V30 1457 C 141.517 1.86954 3.81115 0
M  V30 1458 C 139.424 4.18875 4.1749 0
M  V30 1459 H 138.354 0.41135 0.631907 0
M  V30 1460 H 141.005 1.50433 1.05082 0
M  V30 1461 H 139.387 1.46904 3.67743 0
M  V30 1462 H 140.561 3.98338 2.31653 0
M  V30 1463 H 138.876 3.51744 2.22856 0
M  V30 1464 H 141.473 2.40275 4.77673 0
M  V30 1465 H 141.816 0.839518 4.07747 0
M  V30 1466 H 142.349 2.31477 3.23517 0
M  V30 1467 H 139.088 5.22332 3.96043 0
M  V30 1468 H 138.608 3.69193 4.72712 0
M  V30 1469 H 140.287 4.27134 4.85968 0
M  V30 1470 N 140.419 -1.14872 1.07899 0
M  V30 1471 C 141.666 -1.85789 0.805532 0
M  V30 1472 C 141.994 -1.82649 -0.668561 0
M  V30 1473 O 141.249 -1.24858 -1.50695 0
M  V30 1474 C 141.548 -3.34223 1.26609 0
M  V30 1475 C 141.214 -3.57555 2.74709 0
M  V30 1476 C 139.876 -3.63631 3.1516 0
M  V30 1477 C 142.228 -3.66803 3.70277 0
M  V30 1478 C 139.556 -3.76473 4.49983 0
M  V30 1479 C 141.908 -3.8117 5.04869 0
M  V30 1480 C 140.572 -3.85494 5.44932 0
M  V30 1481 H 139.842 -0.679849 0.294765 0
M  V30 1482 H 142.489 -1.3572 1.35101 0
M  V30 1483 H 140.794 -3.86536 0.640103 0
M  V30 1484 H 142.491 -3.87511 1.03132 0
M  V30 1485 H 139.081 -3.5347 2.42398 0
M  V30 1486 H 143.265 -3.61404 3.40149 0
M  V30 1487 H 138.521 -3.7808 4.80484 0
M  V30 1488 H 142.695 -3.87268 5.78789 0
M  V30 1489 H 140.322 -3.95197 6.49403 0
M  V30 1490 N 141.898 -0.863906 -1.31812 0
M  V30 1491 C 143.123 -0.48527 -2.01643 0
M  V30 1492 C 143.548 0.913058 -1.64453 0
M  V30 1493 O 142.906 1.6014 -0.849985 0
M  V30 1494 C 142.954 -0.642625 -3.54828 0
M  V30 1495 O 142.058 0.320659 -4.11151 0
M  V30 1496 H 141.399 -0.193793 -0.635091 0
M  V30 1497 H 143.929 -1.16565 -1.68148 0
M  V30 1498 H 143.939 -0.533628 -4.04495 0
M  V30 1499 H 142.614 -1.66227 -3.81237 0
M  V30 1500 H 141.191 0.167126 -3.72525 0
M  V30 1501 N 143.376 1.44774 -0.622745 0
M  V30 1502 C 144.653 1.95522 -0.0551974 0
M  V30 1503 C 145.033 1.5649 1.41683 0
M  V30 1504 O 144.381 0.834848 2.12703 0
M  V30 1505 C 144.591 3.4796 -0.269242 0
M  V30 1506 C 145.939 4.24306 -0.158014 0
M  V30 1507 O 146.963 3.55637 -0.200162 0
M  V30 1508 O 145.822 5.46471 -0.0558693 0
M  V30 1509 H 142.916 0.826556 0.0271015 0
M  V30 1510 H 145.462 1.54866 -0.693864 0
M  V30 1511 H 144.234 3.6939 -1.29099 0
M  V30 1512 H 143.857 3.95543 0.403966 0
M  V30 1513 N 144.854 0.36279 1.53368 0
M  V30 1514 C 146.101 -0.227776 2.01215 0
M  V30 1515 C 146.429 -1.49003 1.25014 0
M  V30 1516 O 145.684 -1.92876 0.331236 0
M  V30 1517 C 145.983 -0.568417 3.52851 0
M  V30 1518 C 145.649 0.59918 4.46901 0
M  V30 1519 C 144.311 0.919559 4.72332 0
M  V30 1520 C 146.663 1.38156 5.02556 0
M  V30 1521 C 143.991 2.02434 5.5067 0
M  V30 1522 C 146.343 2.47674 5.821 0
M  V30 1523 C 145.007 2.8025 6.05819 0
M  V30 1524 H 144.277 -0.083349 0.736297 0
M  V30 1525 H 146.924 0.494677 1.85001 0
M  V30 1526 H 145.229 -1.37185 3.66998 0
M  V30 1527 H 146.926 -1.03756 3.87344 0
M  V30 1528 H 143.516 0.339437 4.27254 0
M  V30 1529 H 147.7 1.14729 4.82857 0
M  V30 1530 H 142.956 2.28075 5.67267 0
M  V30 1531 H 147.13 3.08716 6.24234 0
M  V30 1532 H 144.757 3.65979 6.66306 0
M  V30 1533 N 146.332 -1.57332 0.0918853 0
M  V30 1534 C 147.242 -2.17368 -0.882505 0
M  V30 1535 C 148.258 -1.14226 -1.31257 0
M  V30 1536 O 149.434 -1.46582 -1.38115 0
M  V30 1537 C 146.499 -2.73962 -2.12476 0
M  V30 1538 C 145.56 -3.92048 -1.7492 0
M  V30 1539 C 144.793 -4.45933 -2.93223 0
M  V30 1540 O 145.016 -3.98764 -4.07852 0
M  V30 1541 O 143.95 -5.36999 -2.71875 0
M  V30 1542 H 147.776 -3.01031 -0.40172 0
M  V30 1543 H 145.361 -1.48813 -0.132291 0
M  V30 1544 H 147.243 -3.10147 -2.85283 0
M  V30 1545 H 145.918 -1.93347 -2.59613 0
M  V30 1546 H 144.825 -3.6068 -0.993025 0
M  V30 1547 H 146.158 -4.74017 -1.32548 0
M  V30 1548 N 147.81 0.181792 -1.56548 0
M  V30 1549 C 149.087 0.926765 -1.72251 0
M  V30 1550 C 149.467 2.00831 -0.650386 0
M  V30 1551 O 148.815 2.26008 0.336521 0
M  V30 1552 C 149.025 1.50106 -3.1507 0
M  V30 1553 C 150.373 1.97805 -3.75711 0
M  V30 1554 O 151.397 1.59922 -3.18282 0
M  V30 1555 O 150.256 2.67555 -4.76525 0
M  V30 1556 H 147.35 0.435506 -0.703039 0
M  V30 1557 H 149.896 0.170443 -1.68842 0
M  V30 1558 H 148.668 0.72212 -3.84579 0
M  V30 1559 H 148.291 2.32186 -3.22763 0
M  V30 1560 N 149.288 1.51039 0.449983 0
M  V30 1561 C 150.218 1.74379 1.55288 0
M  V30 1562 C 151.199 0.593236 1.5942 0
M  V30 1563 O 152.384 0.834625 1.7535 0
M  V30 1564 C 149.514 1.85728 2.93466 0
M  V30 1565 C 148.468 3.01078 3.04197 0
M  V30 1566 C 147.794 2.97595 4.44231 0
M  V30 1567 C 149.094 4.41254 2.7945 0
M  V30 1568 H 150.788 2.66725 1.36008 0
M  V30 1569 H 148.334 1.2835 0.652864 0
M  V30 1570 H 150.287 2.0064 3.70569 0
M  V30 1571 H 149.011 0.900207 3.13949 0
M  V30 1572 H 147.67 2.85851 2.29531 0
M  V30 1573 H 147.318 1.99691 4.61663 0
M  V30 1574 H 147.018 3.75046 4.52343 0
M  V30 1575 H 148.542 3.14583 5.23326 0
M  V30 1576 H 149.956 4.56897 3.46292 0
M  V30 1577 H 148.353 5.20315 2.98985 0
M  V30 1578 H 149.423 4.52164 1.75144 0
M  V30 1579 N 150.766 -0.704594 1.40972 0
M  V30 1580 C 151.714 -1.83994 1.42299 0
M  V30 1581 C 152.708 -1.66684 0.302111 0
M  V30 1582 O 153.914 -1.73655 0.473697 0
M  V30 1583 H 150.289 -0.606171 0.44504 0
M  V30 1584 H 152.26 -1.79992 2.38003 0
M  V30 1585 C 151.009 -3.21946 1.31323 0
M  V30 1586 H 150.332 -3.35878 2.16855 0
M  V30 1587 H 151.772 -4.01491 1.36311 0
M  V30 1588 C 150.231 -3.36891 0.0245977 0
M  V30 1589 O 150.761 -3.90687 -0.934153 0
M  V30 1590 N 148.967 -2.90559 -0.0485243 0
M  V30 1591 H 148.514 -2.46968 0.732419 0
M  V30 1592 H 148.472 -3.00937 -0.910171 0
M  V30 1593 N 152.244 -1.26651 -0.937939 0
M  V30 1594 C 153.49 -1.12553 -1.687 0
M  V30 1595 C 153.823 0.329782 -1.91379 0
M  V30 1596 O 153.098 1.24202 -1.4968 0
M  V30 1597 C 153.381 -1.89862 -3.05981 0
M  V30 1598 C 153.234 -3.43318 -2.90607 0
M  V30 1599 C 154.553 -1.69499 -4.0615 0
M  V30 1600 H 151.672 -0.410257 -0.612257 0
M  V30 1601 H 154.314 -1.55685 -1.08913 0
M  V30 1602 H 152.464 -1.53204 -3.57017 0
M  V30 1603 H 154.136 -3.89747 -2.46769 0
M  V30 1604 H 152.379 -3.70179 -2.26164 0
M  V30 1605 H 153.05 -3.92642 -3.8799 0
M  V30 1606 H 155.526 -2.01442 -3.64088 0
M  V30 1607 H 154.402 -2.26002 -5.00214 0
M  V30 1608 H 154.663 -0.640365 -4.37438 0
M  V30 1609 N 153.722 1.14298 -1.08507 0
M  V30 1610 C 155.133 1.66926 -0.836227 0
M  V30 1611 C 155.484 1.85576 0.63686 0
M  V30 1612 O 154.609 1.56767 1.49175 0
M  V30 1613 C 155.204 3.03219 -1.51142 0
M  V30 1614 C 153.763 3.52876 -1.30979 0
M  V30 1615 C 152.91 2.2833 -1.57356 0
M  V30 1616 H 155.861 0.983491 -1.24552 0
M  V30 1617 H 155.882 3.68726 -0.939211 0
M  V30 1618 H 155.394 2.89612 -2.58353 0
M  V30 1619 H 153.495 3.71703 -0.258429 0
M  V30 1620 H 153.608 4.33586 -2.03814 0
M  V30 1621 H 151.972 2.34454 -0.995164 0
M  V30 1622 H 152.755 2.17298 -2.65775 0
M  V30 1623 N 155.201 0.870884 1.31352 0
M  V30 1624 C 156.429 0.49677 2.00848 0
M  V30 1625 C 156.844 -0.910998 1.65367 0
M  V30 1626 O 156.201 -1.59696 0.883374 0
M  V30 1627 C 156.252 0.645308 3.55694 0
M  V30 1628 O 155.973 1.99764 3.89905 0
M  V30 1629 C 157.474 0.272326 4.42463 0
M  V30 1630 H 154.694 0.193462 0.642506 0
M  V30 1631 H 157.238 1.1723 1.67563 0
M  V30 1632 H 155.393 0.0173176 3.87396 0
M  V30 1633 H 155.807 2.00607 4.84621 0
M  V30 1634 H 157.281 0.427208 5.50344 0
M  V30 1635 H 157.758 -0.788587 4.32062 0
M  V30 1636 H 158.364 0.876054 4.1618 0
M  V30 1637 N 156.679 -1.44442 0.630414 0
M  V30 1638 C 157.925 -2.02351 0.134816 0
M  V30 1639 C 158.258 -1.4947 -1.23986 0
M  V30 1640 O 157.533 -0.678475 -1.82283 0
M  V30 1641 C 157.816 -3.59898 0.120707 0
M  V30 1642 C 157.669 -4.23063 1.52767 0
M  V30 1643 C 158.988 -4.36585 -0.555127 0
M  V30 1644 H 156.107 -0.73527 0.0504646 0
M  V30 1645 H 158.749 -1.72022 0.806751 0
M  V30 1646 H 156.899 -3.85868 -0.451477 0
M  V30 1647 H 158.571 -4.08202 2.14869 0
M  V30 1648 H 156.814 -3.80586 2.08175 0
M  V30 1649 H 157.485 -5.32071 1.46984 0
M  V30 1650 H 159.961 -4.16044 -0.0685429 0
M  V30 1651 H 158.837 -5.46294 -0.534185 0
M  V30 1652 H 159.098 -4.11138 -1.62535 0
M  V30 1653 N 158.157 -0.370918 -1.53173 0
M  V30 1654 C 159.12 0.460778 -2.24521 0
M  V30 1655 C 160.12 1.00536 -1.25496 0
M  V30 1656 O 161.31 0.890266 -1.49733 0
M  V30 1657 C 158.442 1.64457 -2.98608 0
M  V30 1658 H 159.635 -0.163613 -2.99453 0
M  V30 1659 H 157.188 -0.122699 -1.55818 0
M  V30 1660 H 157.923 2.30691 -2.2793 0
M  V30 1661 H 157.708 1.26099 -3.7127 0
M  V30 1662 H 159.198 2.23384 -3.5283 0
M  V30 1663 N 159.635 1.57281 -0.100228 0
M  V30 1664 C 160.598 2.13158 0.842398 0
M  V30 1665 C 161.598 1.06202 1.20738 0
M  V30 1666 O 162.788 1.32066 1.13597 0
M  V30 1667 C 159.92 2.65639 2.13655 0
M  V30 1668 H 161.113 2.97766 0.357114 0
M  V30 1669 H 158.666 1.5559 0.148823 0
M  V30 1670 H 159.401 1.84566 2.66657 0
M  V30 1671 H 159.186 3.43844 1.88451 0
M  V30 1672 H 160.676 3.08846 2.81077 0
M  V30 1673 N 161.113 -0.173488 1.56642 0
M  V30 1674 C 162.362 -0.888758 1.81063 0
M  V30 1675 C 162.675 -1.83506 0.67712 0
M  V30 1676 O 163.881 -2.59254 0.806206 0
M  V30 1677 C 162.337 -1.63091 3.20826 0
M  V30 1678 C 161.945 -0.728357 4.4204 0
M  V30 1679 C 163.689 -2.33454 3.54541 0
M  V30 1680 C 161.596 -1.47062 5.72823 0
M  V30 1681 H 160.526 -0.335618 0.675186 0
M  V30 1682 H 163.177 -0.141712 1.82952 0
M  V30 1683 H 161.559 -2.42263 3.13248 0
M  V30 1684 H 162.733 0.0262449 4.60793 0
M  V30 1685 H 161.048 -0.134492 4.16183 0
M  V30 1686 H 163.645 -2.89578 4.49498 0
M  V30 1687 H 163.988 -3.08687 2.79317 0
M  V30 1688 H 164.521 -1.61227 3.63663 0
M  V30 1689 H 161.26 -0.760658 6.51072 0
M  V30 1690 H 160.78 -2.1986 5.58052 0
M  V30 1691 H 162.459 -2.01868 6.14702 0
M  V30 1692 N 162.591 -1.51276 -0.441967 0
M  V30 1693 C 163.539 -1.72823 -1.55676 0
M  V30 1694 C 164.533 -0.59445 -1.58627 0
M  V30 1695 O 165.739 -0.775715 -1.62427 0
M  V30 1696 H 162.114 -0.545983 -0.517113 0
M  V30 1697 H 164.085 -2.6628 -1.34675 0
M  V30 1698 C 162.834 -1.86619 -2.93375 0
M  V30 1699 H 162.157 -2.73264 -2.91834 0
M  V30 1700 H 163.597 -2.05709 -3.70756 0
M  V30 1701 C 162.056 -0.624842 -3.31055 0
M  V30 1702 O 162.586 0.222636 -4.01083 0
M  V30 1703 N 160.792 -0.470288 -2.86769 0
M  V30 1704 H 160.339 -1.161 -2.29953 0
M  V30 1705 H 160.297 0.359051 -3.12343 0
M  V30 1706 N 164.069 0.697108 -1.41344 0
M  V30 1707 C 165.317 1.45426 -1.40341 0
M  V30 1708 C 165.638 1.94996 -0.0128787 0
M  V30 1709 O 164.908 1.71599 0.945027 0
M  V30 1710 H 163.488 0.539594 -0.516573 0
M  V30 1711 H 166.15 0.825201 -1.76569 0
M  V30 1712 H 165.246 2.31817 -2.08967 0
M  V30 1713 N 165.547 1.27147 0.931209 0
M  V30 1714 C 166.796 1.12664 1.67302 0
M  V30 1715 C 167.109 -0.327718 1.92835 0
M  V30 1716 O 168.315 -0.593392 2.64936 0
M  V30 1717 C 166.771 1.9683 3.01307 0
M  V30 1718 C 166.379 3.46901 2.83485 0
M  V30 1719 C 168.123 1.90985 3.79111 0
M  V30 1720 C 166.03 4.23279 4.13024 0
M  V30 1721 H 164.96 0.41803 0.627509 0
M  V30 1722 H 167.611 1.51539 1.03481 0
M  V30 1723 H 165.993 1.50797 3.66164 0
M  V30 1724 H 167.167 4.00773 2.27415 0
M  V30 1725 H 165.482 3.54088 2.19113 0
M  V30 1726 H 168.079 2.45328 4.75098 0
M  V30 1727 H 168.422 0.882718 4.06834 0
M  V30 1728 H 168.955 2.34895 3.21044 0
M  V30 1729 H 165.694 5.26503 3.90481 0
M  V30 1730 H 165.214 3.74186 4.6877 0
M  V30 1731 H 166.893 4.32265 4.81411 0
M  V30 1732 N 167.025 -1.13721 1.09112 0
M  V30 1733 C 167.988 -2.17222 0.731241 0
M  V30 1734 C 168.988 -1.59035 -0.237566 0
M  V30 1735 O 170.178 -1.74192 -0.0161704 0
M  V30 1736 C 167.31 -3.40804 0.0808443 0
M  V30 1737 H 168.503 -2.50573 1.64783 0
M  V30 1738 H 166.056 -1.28493 0.889897 0
M  V30 1739 H 166.791 -3.1304 -0.847127 0
M  V30 1740 H 166.576 -3.84306 0.777896 0
M  V30 1741 H 168.066 -4.1731 -0.155657 0
M  V30 1742 N 168.503 -0.877838 -1.30888 0
M  V30 1743 C 169.433 -0.35534 -2.3078 0
M  V30 1744 C 170.414 0.557994 -1.60687 0
M  V30 1745 O 171.599 0.473355 -1.88343 0
M  V30 1746 C 168.729 0.437221 -3.44537 0
M  V30 1747 C 167.683 -0.383715 -4.26276 0
M  V30 1748 C 167.009 0.535014 -5.32017 0
M  V30 1749 C 168.309 -1.62201 -4.96476 0
M  V30 1750 H 170.003 -1.19007 -2.74732 0
M  V30 1751 H 167.549 -0.573698 -1.32078 0
M  V30 1752 H 169.502 0.813334 -4.13477 0
M  V30 1753 H 168.226 1.30553 -2.99372 0
M  V30 1754 H 166.885 -0.741874 -3.59015 0
M  V30 1755 H 166.533 1.40083 -4.831 0
M  V30 1756 H 166.233 -0.0104211 -5.87599 0
M  V30 1757 H 167.757 0.907799 -6.03814 0
M  V30 1758 H 169.171 -1.31689 -5.5797 0
M  V30 1759 H 167.568 -2.10711 -5.61891 0
M  V30 1760 H 168.638 -2.37044 -4.23011 0
M  V30 1761 N 169.982 1.44106 -0.638065 0
M  V30 1762 C 171.23 2.01579 -0.145043 0
M  V30 1763 C 171.551 1.50496 1.24 0
M  V30 1764 O 170.821 0.711374 1.82527 0
M  V30 1765 H 169.401 0.745282 -0.05063 0
M  V30 1766 H 172.063 1.76516 -0.826327 0
M  V30 1767 H 171.159 3.11877 -0.118039 0
M  V30 1768 N 171.46 0.379036 1.52974 0
M  V30 1769 C 172.708 -0.206014 2.01047 0
M  V30 1770 C 173.029 -1.48175 1.26765 0
M  V30 1771 O 172.299 -1.92085 0.384743 0
M  V30 1772 H 170.879 -0.0791184 0.742798 0
M  V30 1773 H 173.541 0.508366 1.88153 0
M  V30 1774 H 172.637 -0.423501 3.09213 0
M  V30 1775 N 172.938 -1.57226 0.108567 0
M  V30 1776 C 174.186 -1.94448 -0.550853 0
M  V30 1777 C 174.507 -0.992074 -1.67878 0
M  V30 1778 O 173.777 -0.0465 -1.95845 0
M  V30 1779 H 172.357 -0.717897 -0.206479 0
M  V30 1780 H 175.019 -1.94112 0.175062 0
M  V30 1781 H 174.115 -2.97218 -0.952259 0
M  V30 1782 N 174.416 0.165178 -1.56732 0
M  V30 1783 C 175.346 1.20651 -1.99914 0
M  V30 1784 C 176.327 1.45827 -0.875705 0
M  V30 1785 O 177.512 1.57057 -1.14223 0
M  V30 1786 C 174.642 2.54401 -2.36427 0
M  V30 1787 C 173.596 2.43782 -3.51787 0
M  V30 1788 C 172.922 3.82078 -3.7406 0
M  V30 1789 C 174.222 1.93732 -4.85041 0
M  V30 1790 H 175.916 0.847534 -2.87154 0
M  V30 1791 H 173.462 0.40625 -1.38151 0
M  V30 1792 H 175.415 3.27458 -2.65234 0
M  V30 1793 H 174.139 2.92098 -1.46103 0
M  V30 1794 H 172.798 1.73178 -3.23117 0
M  V30 1795 H 172.446 4.17179 -2.81017 0
M  V30 1796 H 172.146 3.7584 -4.51684 0
M  V30 1797 H 173.67 4.56712 -4.05274 0
M  V30 1798 H 175.084 2.56569 -5.12684 0
M  V30 1799 H 173.481 1.98428 -5.66345 0
M  V30 1800 H 174.551 0.891962 -4.76626 0
M  V30 1801 N 175.894 1.51508 0.433938 0
M  V30 1802 C 176.804 1.75917 1.5521 0
M  V30 1803 C 177.82 0.643545 1.61662 0
M  V30 1804 O 178.996 0.926183 1.7884 0
M  V30 1805 C 176.061 1.88213 2.91164 0
M  V30 1806 C 175.122 3.12074 2.94802 0
M  V30 1807 C 174.355 3.23774 4.24271 0
M  V30 1808 O 174.578 2.4133 5.16833 0
M  V30 1809 O 173.512 4.16774 4.34262 0
M  V30 1810 H 177.338 2.70777 1.37527 0
M  V30 1811 H 174.923 1.36051 0.617293 0
M  V30 1812 H 176.805 1.98267 3.71845 0
M  V30 1813 H 175.48 0.965413 3.08968 0
M  V30 1814 H 174.387 3.07497 2.13065 0
M  V30 1815 H 175.72 4.03446 2.81943 0
M  V30 1816 N 177.372 -0.689602 1.41712 0
M  V30 1817 C 178.305 -1.81403 1.3845 0
M  V30 1818 C 179.283 -1.60653 0.250874 0
M  V30 1819 O 180.467 -1.83323 0.43874 0
M  V30 1820 C 177.594 -3.18176 1.1611 0
M  V30 1821 C 176.64 -3.57705 2.3227 0
M  V30 1822 S 177.473 -3.61827 3.94767 0
M  V30 1823 C 178.629 -5.01318 3.74742 0
M  V30 1824 H 178.862 -1.83893 2.33603 0
M  V30 1825 H 176.395 -0.858878 1.28307 0
M  V30 1826 H 178.353 -3.97132 1.03907 0
M  V30 1827 H 177.014 -3.13288 0.225668 0
M  V30 1828 H 176.207 -4.57082 2.12349 0
M  V30 1829 H 175.809 -2.86073 2.40911 0
M  V30 1830 H 178.101 -5.88986 3.34817 0
M  V30 1831 H 179.044 -5.26283 4.73743 0
M  V30 1832 H 179.452 -4.73138 3.07898 0
M  V30 1833 N 178.85 -1.27639 -0.924453 0
M  V30 1834 C 180.09 -1.15407 -1.68703 0
M  V30 1835 C 180.454 0.294581 -1.89727 0
M  V30 1836 O 181.655 0.539385 -2.63333 0
M  V30 1837 C 179.926 -1.9195 -3.0148 0
M  V30 1838 S 181.485 -1.95969 -3.92609 0
M  V30 1839 H 178.303 -0.411937 -0.579507 0
M  V30 1840 H 180.905 -1.61592 -1.10038 0
M  V30 1841 H 179.609 -2.96387 -2.83871 0
M  V30 1842 H 179.14 -1.46272 -3.65196 0
M  V30 1843 H 181.155 -1.05846 -4.84779 0
M  V30 1844 N 180.328 1.1314 -1.09713 0
M  V30 1845 C 181.258 2.20748 -0.761102 0
M  V30 1846 C 182.239 1.68061 0.262566 0
M  V30 1847 O 183.424 1.93765 0.129977 0
M  V30 1848 C 180.554 3.46812 -0.184054 0
M  V30 1849 C 179.508 4.12606 -1.13757 0
M  V30 1850 C 178.834 5.33031 -0.422083 0
M  V30 1851 C 180.134 4.59603 -2.48118 0
M  V30 1852 H 181.828 2.49113 -1.66082 0
M  V30 1853 H 179.374 1.19734 -0.799987 0
M  V30 1854 H 181.327 4.21353 0.0631215 0
M  V30 1855 H 180.051 3.17851 0.750868 0
M  V30 1856 H 178.71 3.40036 -1.37007 0
M  V30 1857 H 178.358 5.00335 0.517072 0
M  V30 1858 H 178.058 5.77999 -1.05788 0
M  V30 1859 H 179.582 6.10325 -0.183277 0
M  V30 1860 H 180.996 5.25552 -2.29059 0
M  V30 1861 H 179.393 5.15321 -3.07514 0
M  V30 1862 H 180.463 3.73971 -3.08665 0
M  V30 1863 N 181.806 0.884767 1.30421 0
M  V30 1864 C 182.769 0.356277 2.26414 0
M  V30 1865 C 183.769 -0.501124 1.52792 0
M  V30 1866 O 184.959 -0.30831 1.7145 0
M  V30 1867 C 182.091 -0.492316 3.37326 0
M  V30 1868 H 183.284 1.20389 2.74675 0
M  V30 1869 H 180.837 0.661607 1.41607 0
M  V30 1870 H 181.572 -1.36052 2.94381 0
M  V30 1871 H 181.357 0.121832 3.91911 0
M  V30 1872 H 182.847 -0.853871 4.08777 0
M  V30 1873 N 183.284 -1.43765 0.645699 0
M  V30 1874 C 184.247 -2.29163 -0.0409488 0
M  V30 1875 C 185.247 -1.41813 -0.757996 0
M  V30 1876 O 186.437 -1.63527 -0.600382 0
M  V30 1877 C 183.569 -3.23716 -1.06869 0
M  V30 1878 H 184.762 -2.91366 0.710345 0
M  V30 1879 H 182.315 -1.5092 0.406547 0
M  V30 1880 H 183.05 -2.66393 -1.84947 0
M  V30 1881 H 182.835 -3.88105 -0.558277 0
M  V30 1882 H 184.325 -3.87831 -1.54845 0
M  V30 1883 N 184.763 -0.387143 -1.52771 0
M  V30 1884 C 186.04 0.253197 -1.93954 0
M  V30 1885 C 186.42 1.64545 -1.32243 0
M  V30 1886 O 185.768 2.23191 -0.489699 0
M  V30 1887 C 185.978 0.281722 -3.47861 0
M  V30 1888 C 187.326 0.511715 -4.21505 0
M  V30 1889 O 188.35 0.362023 -3.54356 0
M  V30 1890 O 187.209 0.804847 -5.40541 0
M  V30 1891 H 184.303 0.156845 -0.811991 0
M  V30 1892 H 186.849 -0.441494 -1.63856 0
M  V30 1893 H 185.621 -0.693571 -3.85104 0
M  V30 1894 H 185.244 1.02142 -3.84256 0
M  V30 1895 N 186.241 1.57166 -0.116904 0
M  V30 1896 C 187.488 1.95123 0.541603 0
M  V30 1897 C 187.816 1.00006 1.6682 0
M  V30 1898 O 187.071 0.0235658 1.95686 0
M  V30 1899 C 187.37 3.39508 1.11664 0
M  V30 1900 C 187.036 4.50762 0.111606 0
M  V30 1901 C 185.698 4.80918 -0.164758 0
M  V30 1902 C 188.05 5.18036 -0.573438 0
M  V30 1903 C 185.378 5.75666 -1.13249 0
M  V30 1904 C 187.73 6.13824 -1.52978 0
M  V30 1905 C 186.394 6.42374 -1.81415 0
M  V30 1906 H 185.664 0.714005 0.198187 0
M  V30 1907 H 188.311 1.9048 -0.197365 0
M  V30 1908 H 186.616 3.40835 1.93232 0
M  V30 1909 H 188.313 3.66189 1.63422 0
M  V30 1910 H 184.903 4.27272 0.337192 0
M  V30 1911 H 189.087 4.94896 -0.373092 0
M  V30 1912 H 184.343 5.96092 -1.35958 0
M  V30 1913 H 188.517 6.65039 -2.06629 0
M  V30 1914 H 186.144 7.15599 -2.56557 0
M  V30 1915 N 187.719 -0.156864 1.56817 0
M  V30 1916 C 189.135 -0.50916 1.5126 0
M  V30 1917 C 189.335 -1.83897 0.823658 0
M  V30 1918 O 188.391 -2.49469 0.390055 0
M  V30 1919 C 189.704 -0.52857 2.96018 0
M  V30 1920 C 191.252 -0.614771 3.06903 0
M  V30 1921 C 191.727 -0.664938 4.53147 0
M  V30 1922 N 193.218 -0.727433 4.57452 0
M  V30 1923 C 193.953 -0.787067 5.67973 0
M  V30 1924 N 193.449 -0.806649 6.88088 0
M  V30 1925 N 195.242 -0.827195 5.5598 0
M  V30 1926 H 187.393 0.714935 2.00006 0
M  V30 1927 H 189.656 0.259526 0.911784 0
M  V30 1928 H 189.362 0.380154 3.49639 0
M  V30 1929 H 189.236 -1.36998 3.51442 0
M  V30 1930 H 191.623 -1.51392 2.53307 0
M  V30 1931 H 191.704 0.253597 2.5454 0
M  V30 1932 H 191.348 0.230011 5.07379 0
M  V30 1933 H 191.278 -1.54966 5.03282 0
M  V30 1934 H 193.769 -0.719998 3.70978 0
M  V30 1935 H 194.082 -0.853727 7.6807 0
M  V30 1936 H 192.427 -0.774687 6.90669 0
M  V30 1937 H 195.618 -0.808998 4.61056 0
M  V30 1938 H 195.791 -0.870206 6.4213 0
M  V30 1939 N 189.197 -1.51736 -0.425897 0
M  V30 1940 C 190.443 -1.65214 -1.1761 0
M  V30 1941 C 190.776 -0.372778 -1.90589 0
M  V30 1942 O 190.051 0.628139 -1.84078 0
M  V30 1943 C 190.334 -2.86312 -2.18398 0
M  V30 1944 C 190.187 -4.24254 -1.49426 0
M  V30 1945 C 191.506 -3.02925 -3.19256 0
M  V30 1946 H 188.625 -0.601263 -0.426206 0
M  V30 1947 H 191.267 -1.8425 -0.463882 0
M  V30 1948 H 189.417 -2.70213 -2.79137 0
M  V30 1949 H 191.089 -4.52046 -0.919362 0
M  V30 1950 H 189.332 -4.26426 -0.796432 0
M  V30 1951 H 190.003 -5.05001 -2.22885 0
M  V30 1952 H 192.479 -3.1781 -2.68581 0
M  V30 1953 H 191.355 -3.89199 -3.8706 0
M  V30 1954 H 191.616 -2.15497 -3.86023 0
M  V30 1955 N 190.675 0.682077 -1.42076 0
M  V30 1956 C 191.608 1.80666 -1.3941 0
M  V30 1957 C 192.586 1.60518 -0.25939 0
M  V30 1958 O 193.77 1.83088 -0.448456 0
M  V30 1959 C 190.897 3.17556 -1.17796 0
M  V30 1960 C 189.943 3.56468 -2.34164 0
M  V30 1961 S 190.776 3.59729 -3.96681 0
M  V30 1962 C 191.932 4.99323 -3.77395 0
M  V30 1963 H 192.165 1.82652 -2.34575 0
M  V30 1964 H 189.698 0.852062 -1.2876 0
M  V30 1965 H 191.656 3.96575 -1.06012 0
M  V30 1966 H 190.317 3.13164 -0.242279 0
M  V30 1967 H 189.51 4.5595 -2.1477 0
M  V30 1968 H 189.112 2.84792 -2.42425 0
M  V30 1969 H 191.404 5.87202 -3.37935 0
M  V30 1970 H 192.347 5.23763 -4.76527 0
M  V30 1971 H 192.755 4.71498 -3.10403 0
M  V30 1972 N 192.153 1.28127 0.917671 0
M  V30 1973 C 193.116 1.11744 2.00115 0
M  V30 1974 C 194.116 0.0583052 1.60694 0
M  V30 1975 O 195.306 0.303755 1.71531 0
M  V30 1976 C 192.438 0.704862 3.33533 0
M  V30 1977 H 193.631 2.07966 2.16079 0
M  V30 1978 H 191.184 1.11058 1.09981 0
M  V30 1979 H 191.919 -0.258299 3.2327 0
M  V30 1980 H 191.704 1.4699 3.63505 0
M  V30 1981 H 193.194 0.612768 4.1308 0
M  V30 1982 N 193.631 -1.12557 1.10312 0
M  V30 1983 C 194.908 -1.80363 0.756878 0
M  V30 1984 C 195.288 -1.97067 -0.756824 0
M  V30 1985 O 194.636 -1.54601 -1.68259 0
M  V30 1986 C 194.846 -3.14812 1.50647 0
M  V30 1987 C 196.194 -3.90029 1.67817 0
M  V30 1988 O 197.218 -3.24464 1.46974 0
M  V30 1989 O 196.077 -5.07652 2.02365 0
M  V30 1990 H 193.171 -0.780667 0.272926 0
M  V30 1991 H 195.717 -1.19404 1.20586 0
M  V30 1992 H 194.489 -2.97936 2.53672 0
M  V30 1993 H 194.112 -3.83478 1.05026 0
M  V30 1994 N 195.109 -0.891671 -1.2995 0
M  V30 1995 C 196.334 -0.527932 -2.00568 0
M  V30 1996 C 196.759 0.877969 -1.66353 0
M  V30 1997 O 196.117 1.58301 -0.883762 0
M  V30 1998 C 196.165 -0.717745 -3.53385 0
M  V30 1999 O 195.269 0.233376 -4.11739 0
M  V30 2000 H 194.61 -0.20722 -0.630837 0
M  V30 2001 H 197.14 -1.20105 -1.65638 0
M  V30 2002 H 197.15 -0.619307 -4.03272 0
M  V30 2003 H 195.825 -1.74276 -3.77625 0
M  V30 2004 H 194.402 0.0880706 -3.72796 0
M  V30 2005 N 196.587 1.43421 -0.653314 0
M  V30 2006 C 197.55 2.29182 0.0287951 0
M  V30 2007 C 198.55 1.42213 0.750465 0
M  V30 2008 O 199.74 1.63843 0.591701 0
M  V30 2009 C 196.872 3.24278 1.05151 0
M  V30 2010 H 198.065 2.90985 -0.725786 0
M  V30 2011 H 195.618 1.50702 -0.414545 0
M  V30 2012 H 196.353 2.6737 1.83532 0
M  V30 2013 H 196.138 3.88396 0.537687 0
M  V30 2014 H 197.628 3.88647 1.52786 0
M  V30 2015 N 198.065 0.39524 1.52563 0
M  V30 2016 C 199.012 -0.437036 2.26624 0
M  V30 2017 C 199.982 -1.05281 1.28472 0
M  V30 2018 O 201.167 -1.07971 1.57311 0
M  V30 2019 C 198.307 -1.55524 3.08069 0
M  V30 2020 C 197.42 -0.961745 4.21158 0
M  V30 2021 C 196.555 -2.05149 4.89987 0
M  V30 2022 C 195.594 -1.4342 5.95061 0
M  V30 2023 N 194.731 -2.46351 6.57462 0
M  V30 2024 H 199.571 0.200976 2.97322 0
M  V30 2025 H 197.108 0.110944 1.46681 0
M  V30 2026 H 199.066 -2.21437 3.53584 0
M  V30 2027 H 197.696 -2.16348 2.3957 0
M  V30 2028 H 196.748 -0.192048 3.79915 0
M  V30 2029 H 198.06 -0.470701 4.96574 0
M  V30 2030 H 197.214 -2.78819 5.38837 0
M  V30 2031 H 195.953 -2.57615 4.14109 0
M  V30 2032 H 194.958 -0.682774 5.45544 0
M  V30 2033 H 196.183 -0.917416 6.72875 0
M  V30 2034 H 194.129 -2.97975 5.8442 0
M  V30 2035 H 194.046 -2.02019 7.28508 0
M  V30 2036 H 195.314 -3.19633 7.10954 0
M  V30 2037 N 199.544 -1.57102 0.125237 0
M  V30 2038 C 200.793 -1.94582 -0.531095 0
M  V30 2039 C 201.106 -1.01126 -1.6743 0
M  V30 2040 O 202.312 -1.28097 -2.39381 0
M  V30 2041 C 200.768 -3.45839 -0.996164 0
M  V30 2042 C 200.376 -4.47842 0.118926 0
M  V30 2043 C 202.12 -3.92227 -1.62352 0
M  V30 2044 C 200.027 -5.90284 -0.363192 0
M  V30 2045 H 198.957 -0.726391 -0.20217 0
M  V30 2046 H 201.608 -1.82339 0.206092 0
M  V30 2047 H 199.99 -3.53338 -1.78796 0
M  V30 2048 H 201.164 -4.52018 0.895358 0
M  V30 2049 H 199.479 -4.11243 0.653324 0
M  V30 2050 H 202.076 -4.96069 -1.99548 0
M  V30 2051 H 202.419 -3.32552 -2.50429 0
M  V30 2052 H 202.952 -3.87554 -0.897019 0
M  V30 2053 H 199.691 -6.53728 0.481679 0
M  V30 2054 H 199.211 -5.89515 -1.10597 0
M  V30 2055 H 200.89 -6.41752 -0.822377 0
M  V30 2056 N 201.022 0.148545 -1.56898 0
M  V30 2057 C 202.27 0.859717 -1.82902 0
M  V30 2058 C 202.591 1.81775 -0.70588 0
M  V30 2059 O 201.861 1.93994 0.272586 0
M  V30 2060 H 200.441 0.320469 -0.674766 0
M  V30 2061 H 203.103 0.142918 -1.94375 0
M  V30 2062 H 202.199 1.4229 -2.77777 0
M  V30 2063 N 202.5 1.5196 0.417844 0
M  V30 2064 C 203.43 1.77634 1.51554 0
M  V30 2065 C 204.411 0.626918 1.58126 0
M  V30 2066 O 205.596 0.871632 1.7354 0
M  V30 2067 C 202.726 1.91911 2.8946 0
M  V30 2068 C 201.68 3.07463 2.97743 0
M  V30 2069 C 201.006 3.06951 4.37819 0
M  V30 2070 C 202.306 4.47082 2.70027 0
M  V30 2071 H 204 2.6955 1.3032 0
M  V30 2072 H 201.546 1.29706 0.625492 0
M  V30 2073 H 203.499 2.08455 3.6623 0
M  V30 2074 H 202.223 0.966598 3.11969 0
M  V30 2075 H 200.882 2.90656 2.23416 0
M  V30 2076 H 200.53 2.09438 4.57323 0
M  V30 2077 H 200.23 3.84556 4.44286 0
M  V30 2078 H 201.754 3.25613 5.16535 0
M  V30 2079 H 203.168 4.6414 3.36522 0
M  V30 2080 H 201.565 5.2654 2.87881 0
M  V30 2081 H 202.635 4.55777 1.65514 0
M  V30 2082 N 203.978 -0.674533 1.42435 0
M  V30 2083 C 205.389 -1.25514 1.38214 0
M  V30 2084 C 205.74 -1.96055 0.0755464 0
M  V30 2085 O 204.865 -2.00028 -0.8257 0
M  V30 2086 C 205.46 -2.28269 2.50357 0
M  V30 2087 C 204.019 -2.81856 2.49467 0
M  V30 2088 C 203.166 -1.56182 2.29134 0
M  V30 2089 H 206.117 -0.467902 1.51646 0
M  V30 2090 H 206.138 -3.10009 2.20624 0
M  V30 2091 H 205.65 -1.769 3.45439 0
M  V30 2092 H 203.751 -3.37346 1.58204 0
M  V30 2093 H 203.864 -3.30854 3.46515 0
M  V30 2094 H 202.228 -1.82761 1.774 0
M  V30 2095 H 203.011 -1.06778 3.26272 0
M  V30 2096 N 205.456 -1.28612 -0.910864 0
M  V30 2097 C 206.366 -1.14643 -2.0468 0
M  V30 2098 C 207.382 -0.0723121 -1.7385 0
M  V30 2099 O 208.558 -0.282178 -1.99413 0
M  V30 2100 C 205.623 -0.812561 -3.37044 0
M  V30 2101 C 204.684 -1.96935 -3.81465 0
M  V30 2102 C 203.917 -1.65131 -5.07511 0
M  V30 2103 O 204.14 -0.567013 -5.67575 0
M  V30 2104 O 203.074 -2.49585 -5.47714 0
M  V30 2105 H 206.9 -2.1001 -2.19384 0
M  V30 2106 H 204.485 -1.07958 -1.03274 0
M  V30 2107 H 206.367 -0.640441 -4.16505 0
M  V30 2108 H 205.042 0.111426 -3.23508 0
M  V30 2109 H 203.949 -2.19664 -3.02818 0
M  V30 2110 H 205.282 -2.87414 -3.99567 0
M  V30 2111 N 206.934 1.1197 -1.10907 0
M  V30 2112 C 208.18 1.8386 -0.855773 0
M  V30 2113 C 208.513 1.84134 0.617103 0
M  V30 2114 O 207.788 1.29041 1.45529 0
M  V30 2115 C 208.071 3.31305 -1.411 0
M  V30 2116 C 207.924 3.39456 -2.9511 0
M  V30 2117 C 209.243 4.2721 -1.05736 0
M  V30 2118 H 206.362 0.667545 -0.312334 0
M  V30 2119 H 209.004 1.31331 -1.37303 0
M  V30 2120 H 207.154 3.76169 -0.97105 0
M  V30 2121 H 208.826 3.03191 -3.47668 0
M  V30 2122 H 207.069 2.79849 -3.31462 0
M  V30 2123 H 207.74 4.43209 -3.29044 0
M  V30 2124 H 210.216 3.90497 -1.43706 0
M  V30 2125 H 209.092 5.28775 -1.47269 0
M  V30 2126 H 209.353 4.42088 0.0325958 0
M  V30 2127 N 208.412 0.89855 1.29475 0
M  V30 2128 C 209.359 0.373819 2.27753 0
M  V30 2129 C 210.329 -0.543444 1.56958 0
M  V30 2130 O 211.514 -0.468934 1.84948 0
M  V30 2131 C 208.654 -0.393648 3.42848 0
M  V30 2132 C 207.767 0.554379 4.28428 0
M  V30 2133 C 206.902 -0.230026 5.30702 0
M  V30 2134 C 205.941 0.712599 6.07938 0
M  V30 2135 N 205.078 -0.0373283 7.0209 0
M  V30 2136 H 209.918 1.21699 2.72017 0
M  V30 2137 H 207.455 0.611456 1.33789 0
M  V30 2138 H 209.413 -0.85466 4.08352 0
M  V30 2139 H 208.043 -1.20128 2.99615 0
M  V30 2140 H 207.095 1.13391 3.63107 0
M  V30 2141 H 208.407 1.27597 4.82204 0
M  V30 2142 H 207.561 -0.752288 6.02018 0
M  V30 2143 H 206.3 -0.984758 4.77654 0
M  V30 2144 H 205.305 1.24637 5.35486 0
M  V30 2145 H 206.53 1.46664 6.63074 0
M  V30 2146 H 204.476 -0.774348 6.51414 0
M  V30 2147 H 204.393 0.624374 7.53417 0
M  V30 2148 H 205.661 -0.539891 7.77628 0
M  V30 2149 N 209.89 -1.43072 0.660911 0
M  V30 2150 C 210.82 -2.33497 -0.0122829 0
M  V30 2151 C 211.801 -1.49903 -0.803925 0
M  V30 2152 O 212.986 -1.78546 -0.763864 0
M  V30 2153 C 210.116 -3.33363 -0.973994 0
M  V30 2154 C 209.07 -4.27003 -0.291928 0
M  V30 2155 C 208.396 -5.16967 -1.36562 0
M  V30 2156 C 209.696 -5.15816 0.820462 0
M  V30 2157 H 211.39 -2.90038 0.742873 0
M  V30 2158 H 208.936 -1.39461 0.358688 0
M  V30 2159 H 210.889 -3.95524 -1.45392 0
M  V30 2160 H 209.613 -2.75095 -1.7604 0
M  V30 2161 H 208.272 -3.66217 0.167623 0
M  V30 2162 H 207.92 -4.55034 -2.14366 0
M  V30 2163 H 207.62 -5.80441 -0.914454 0
M  V30 2164 H 209.144 -5.82003 -1.84675 0
M  V30 2165 H 210.558 -5.71742 0.422366 0
M  V30 2166 H 208.955 -5.8805 1.19656 0
M  V30 2167 H 210.025 -4.55045 1.67518 0
M  V30 2168 N 211.368 -0.403325 -1.52352 0
M  V30 2169 C 212.616 0.174003 -2.0135 0
M  V30 2170 C 212.937 1.46139 -1.29106 0
M  V30 2171 O 212.207 1.91448 -0.415253 0
M  V30 2172 H 210.787 0.0672911 -0.743963 0
M  V30 2173 H 213.449 -0.538235 -1.87321 0
M  V30 2174 H 212.545 0.374254 -3.09848 0
M  V30 2175 N 212.846 1.57033 -0.133567 0
M  V30 2176 C 214.095 1.94861 0.520768 0
M  V30 2177 C 214.408 1.02012 1.66892 0
M  V30 2178 O 215.614 1.29365 2.38699 0
M  V30 2179 C 214.07 3.46362 0.977809 0
M  V30 2180 C 213.678 4.47773 -0.142674 0
M  V30 2181 C 215.422 3.93083 1.60269 0
M  V30 2182 C 213.329 5.90468 0.331883 0
M  V30 2183 H 212.259 0.727453 0.198315 0
M  V30 2184 H 214.91 1.82227 -0.215759 0
M  V30 2185 H 213.292 3.54282 1.7692 0
M  V30 2186 H 214.466 4.51536 -0.919317 0
M  V30 2187 H 212.781 4.10891 -0.675124 0
M  V30 2188 H 215.378 4.97121 1.96914 0
M  V30 2189 H 215.721 3.33876 2.48662 0
M  V30 2190 H 216.254 3.88025 0.876453 0
M  V30 2191 H 212.993 6.53463 -0.516341 0
M  V30 2192 H 212.513 5.90094 1.07469 0
M  V30 2193 H 214.192 6.42179 0.788332 0
M  V30 2194 N 214.325 -0.140222 1.56975 0
M  V30 2195 C 215.555 -0.865181 1.87612 0
M  V30 2196 C 215.963 -1.74942 0.72055 0
M  V30 2197 O 215.306 -1.80917 -0.318561 0
M  V30 2198 C 215.368 -1.76782 3.13031 0
M  V30 2199 C 215.032 -1.06005 4.44536 0
M  V30 2200 C 216.029 -0.410768 5.18275 0
M  V30 2201 C 213.714 -1.04754 4.91255 0
M  V30 2202 C 215.708 0.241572 6.36942 0
M  V30 2203 C 213.395 -0.391394 6.09845 0
M  V30 2204 C 214.393 0.252029 6.82535 0
M  V30 2205 O 214.081 0.897757 7.98871 0
M  V30 2206 H 213.813 -0.255188 0.625983 0
M  V30 2207 H 216.367 -0.135653 2.04952 0
M  V30 2208 H 214.597 -2.53846 2.91718 0
M  V30 2209 H 216.286 -2.36533 3.29859 0
M  V30 2210 H 217.052 -0.412195 4.83245 0
M  V30 2211 H 212.931 -1.53777 4.34596 0
M  V30 2212 H 216.475 0.744375 6.93617 0
M  V30 2213 H 212.372 -0.387656 6.44335 0
M  V30 2214 H 213.14 0.800102 8.1458 0
M  V30 2215 N 215.803 -1.52179 -0.40978 0
M  V30 2216 C 217.214 -1.58377 -0.988615 0
M  V30 2217 C 217.565 -0.423879 -1.91566 0
M  V30 2218 O 216.69 0.455844 -2.11544 0
M  V30 2219 C 217.285 -2.87044 -1.79976 0
M  V30 2220 C 215.844 -2.95722 -2.32863 0
M  V30 2221 C 214.991 -2.53309 -1.12828 0
M  V30 2222 H 217.942 -1.57558 -0.190039 0
M  V30 2223 H 217.963 -2.7236 -2.65707 0
M  V30 2224 H 217.475 -3.71444 -1.12478 0
M  V30 2225 H 215.576 -2.15814 -3.03735 0
M  V30 2226 H 215.689 -3.99951 -2.63773 0
M  V30 2227 H 214.053 -2.07142 -1.48204 0
M  V30 2228 H 214.836 -3.40082 -0.46897 0
M  V30 2229 N 217.281 0.66697 -1.42791 0
M  V30 2230 C 218.529 1.42417 -1.43394 0
M  V30 2231 C 218.85 1.94925 -0.0542373 0
M  V30 2232 O 218.12 1.73564 0.908415 0
M  V30 2233 H 216.7 0.528515 -0.527902 0
M  V30 2234 H 219.362 0.787562 -1.78279 0
M  V30 2235 H 218.458 2.27333 -2.13837 0
M  V30 2236 N 218.759 1.29093 0.90403 0
M  V30 2237 C 220.006 1.16813 1.65411 0
M  V30 2238 C 220.334 -0.28128 1.92455 0
M  V30 2239 O 219.589 -1.22006 1.53013 0
M  V30 2240 C 219.888 1.92224 3.01305 0
M  V30 2241 C 219.554 3.41968 2.93885 0
M  V30 2242 C 218.216 3.82807 2.91569 0
M  V30 2243 C 220.568 4.37409 2.83413 0
M  V30 2244 C 217.896 5.1741 2.76594 0
M  V30 2245 C 220.248 5.72097 2.69977 0
M  V30 2246 C 218.912 6.12199 2.66024 0
M  V30 2247 H 218.182 0.42745 0.605283 0
M  V30 2248 H 220.829 1.59981 1.05254 0
M  V30 2249 H 219.134 1.41635 3.65304 0
M  V30 2250 H 220.831 1.80131 3.58265 0
M  V30 2251 H 217.421 3.09504 2.96488 0
M  V30 2252 H 221.605 4.06813 2.84283 0
M  V30 2253 H 216.861 5.47596 2.71935 0
M  V30 2254 H 221.035 6.45704 2.60844 0
M  V30 2255 H 218.662 7.16448 2.54178 0
M  V30 2256 N 220.237 -1.11381 1.11499 0
M  V30 2257 C 221.485 -1.8277 0.862524 0
M  V30 2258 C 221.806 -1.85097 -0.613534 0
M  V30 2259 O 221.076 -1.32198 -1.4457 0
M  V30 2260 H 219.656 -0.676823 0.316101 0
M  V30 2261 H 222.318 -1.34816 1.4075 0
M  V30 2262 H 221.414 -2.86614 1.23527 0
M  V30 2263 N 221.715 -0.905404 -1.28997 0
M  V30 2264 C 222.963 -0.533192 -1.9494 0
M  V30 2265 C 223.284 0.924618 -1.71685 0
M  V30 2266 O 222.554 1.65268 -1.05183 0
M  V30 2267 H 221.134 -0.194194 -0.721317 0
M  V30 2268 H 223.796 -1.15294 -1.57141 0
M  V30 2269 H 222.892 -0.72059 -3.03667 0
M  V30 2270 N 223.193 1.4272 -0.668489 0
M  V30 2271 C 224.421 2.05966 -0.196348 0
M  V30 2272 C 224.836 1.50191 1.14403 0
M  V30 2273 O 224.193 0.639208 1.7094 0
M  V30 2274 C 224.244 3.61314 -0.115815 0
M  V30 2275 O 223.965 4.1502 -1.40322 0
M  V30 2276 C 225.466 4.41663 0.380579 0
M  V30 2277 H 222.686 0.663954 -0.0969829 0
M  V30 2278 H 225.23 1.82966 -0.913446 0
M  V30 2279 H 223.385 3.83448 0.551931 0
M  V30 2280 H 223.799 5.08832 -1.27243 0
M  V30 2281 H 225.273 5.5065 0.385848 0
M  V30 2282 H 225.75 4.15792 1.41471 0
M  V30 2283 H 226.356 4.24534 -0.255209 0
M  V30 2284 N 224.671 0.411399 1.52136 0
M  V30 2285 C 225.917 -0.163888 2.02137 0
M  V30 2286 C 226.25 -1.44597 1.29636 0
M  V30 2287 O 225.525 -1.90272 0.403353 0
M  V30 2288 C 225.808 -0.40927 3.57767 0
M  V30 2289 C 225.661 0.889643 4.40914 0
M  V30 2290 C 226.98 -1.19042 4.23694 0
M  V30 2291 H 224.099 -0.0580896 0.734707 0
M  V30 2292 H 226.741 0.54531 1.82007 0
M  V30 2293 H 224.891 -1.0134 3.7505 0
M  V30 2294 H 226.563 1.52575 4.35337 0
M  V30 2295 H 224.806 1.50011 4.07037 0
M  V30 2296 H 225.477 0.672314 5.4789 0
M  V30 2297 H 227.953 -0.678942 4.10524 0
M  V30 2298 H 226.829 -1.33086 5.32522 0
M  V30 2299 H 227.09 -2.21166 3.82803 0
M  V30 2300 N 226.149 -1.5696 0.141893 0
M  V30 2301 C 227.565 -1.58151 -0.21456 0
M  V30 2302 C 227.765 -1.1559 -1.65049 0
M  V30 2303 O 226.821 -0.853832 -2.37626 0
M  V30 2304 C 228.134 -3.00674 0.0395576 0
M  V30 2305 C 229.682 -3.1299 -0.0245529 0
M  V30 2306 C 230.157 -4.57554 0.202167 0
M  V30 2307 N 231.648 -4.62961 0.148919 0
M  V30 2308 C 232.383 -5.7262 0.298924 0
M  V30 2309 N 231.879 -6.90947 0.50637 0
M  V30 2310 N 233.672 -5.61601 0.236886 0
M  V30 2311 H 225.823 -1.8292 1.07953 0
M  V30 2312 H 228.086 -0.846425 0.42693 0
M  V30 2313 H 227.792 -3.36183 1.03315 0
M  V30 2314 H 227.666 -3.70981 -0.682143 0
M  V30 2315 H 230.053 -2.77326 -1.00869 0
M  V30 2316 H 230.134 -2.4518 0.729396 0
M  V30 2317 H 229.778 -4.93922 1.18338 0
M  V30 2318 H 229.708 -5.23484 -0.572044 0
M  V30 2319 H 232.199 -3.77899 -0.00697015 0
M  V30 2320 H 232.512 -7.7038 0.611076 0
M  V30 2321 H 230.857 -6.92878 0.542628 0
M  V30 2322 H 234.048 -4.68039 0.0756209 0
M  V30 2323 H 234.221 -6.47015 0.357227 0
M  V30 2324 N 227.627 0.131896 -1.57047 0
M  V30 2325 C 228.557 1.16384 -2.02428 0
M  V30 2326 C 229.538 1.43936 -0.90644 0
M  V30 2327 O 230.723 1.54599 -1.17528 0
M  V30 2328 C 227.853 2.49328 -2.4177 0
M  V30 2329 C 226.807 2.36266 -3.56879 0
M  V30 2330 C 226.133 3.74057 -3.8208 0
M  V30 2331 C 227.433 1.834 -4.89042 0
M  V30 2332 H 229.127 0.786433 -2.88887 0
M  V30 2333 H 226.673 0.376855 -1.38981 0
M  V30 2334 H 228.626 3.21759 -2.7212 0
M  V30 2335 H 227.35 2.88934 -1.52266 0
M  V30 2336 H 226.009 1.66286 -3.26718 0
M  V30 2337 H 225.657 4.11125 -2.89803 0
M  V30 2338 H 225.357 3.66174 -4.59554 0
M  V30 2339 H 226.881 4.48012 -4.1487 0
M  V30 2340 H 228.295 2.45636 -5.18011 0
M  V30 2341 H 226.692 1.8637 -5.70426 0
M  V30 2342 H 227.762 0.790662 -4.7841 0
M  V30 2343 N 229.106 1.52395 0.401703 0
M  V30 2344 C 230.517 1.58899 0.980202 0
M  V30 2345 C 230.868 0.434032 1.91339 0
M  V30 2346 O 229.993 -0.444619 2.11783 0
M  V30 2347 C 230.588 2.87994 1.78451 0
M  V30 2348 C 229.147 2.96953 2.31292 0
M  V30 2349 C 228.294 2.53903 1.11483 0
M  V30 2350 H 231.245 1.57657 0.18168 0
M  V30 2351 H 231.266 2.73765 2.64259 0
M  V30 2352 H 230.778 3.72035 1.10506 0
M  V30 2353 H 228.879 2.17422 3.02586 0
M  V30 2354 H 228.992 4.01344 2.61649 0
M  V30 2355 H 227.356 2.07925 1.47104 0
M  V30 2356 H 228.139 3.40326 0.450928 0
M  V30 2357 N 230.584 -0.659388 1.43143 0
M  V30 2358 C 232 -0.974337 1.26407 0
M  V30 2359 C 232.2 -2.007 0.179341 0
M  V30 2360 O 231.256 -2.4856 -0.444295 0
M  V30 2361 C 232.569 -1.46447 2.62628 0
M  V30 2362 C 234.117 -1.58144 2.7011 0
M  V30 2363 C 234.592 -2.1055 4.06734 0
M  V30 2364 N 236.083 -2.17861 4.08767 0
M  V30 2365 C 236.818 -2.59519 5.1131 0
M  V30 2366 N 236.314 -3.00518 6.24228 0
M  V30 2367 N 238.107 -2.59404 4.98664 0
M  V30 2368 H 230.258 0.0240528 2.12386 0
M  V30 2369 H 232.521 -0.0518065 0.946583 0
M  V30 2370 H 232.227 -0.780123 3.42939 0
M  V30 2371 H 232.101 -2.44058 2.87603 0
M  V30 2372 H 234.488 -2.25682 1.90136 0
M  V30 2373 H 234.569 -0.589828 2.48907 0
M  V30 2374 H 234.213 -1.43616 4.87172 0
M  V30 2375 H 234.143 -3.10531 4.25298 0
M  V30 2376 H 236.634 -1.88975 3.27257 0
M  V30 2377 H 236.947 -3.31036 6.98309 0
M  V30 2378 H 235.292 -2.98337 6.2771 0
M  V30 2379 H 238.483 -2.26747 4.09516 0
M  V30 2380 H 238.656 -2.91548 5.78709 0
M  V30 2381 N 232.062 -1.29571 -0.897171 0
M  V30 2382 C 232.992 -1.17473 -2.01798 0
M  V30 2383 C 233.973 -0.068323 -1.69963 0
M  V30 2384 O 235.158 -0.248239 -1.92607 0
M  V30 2385 C 232.288 -0.853099 -3.36659 0
M  V30 2386 C 231.242 -1.9161 -3.82713 0
M  V30 2387 C 230.568 -1.44773 -5.14728 0
M  V30 2388 C 231.868 -3.32535 -4.02763 0
M  V30 2389 H 233.562 -2.11237 -2.12177 0
M  V30 2390 H 231.108 -1.01699 -1.01948 0
M  V30 2391 H 233.061 -0.755165 -4.14578 0
M  V30 2392 H 231.785 0.120236 -3.26379 0
M  V30 2393 H 230.444 -2.00346 -3.07013 0
M  V30 2394 H 230.092 -0.462995 -5.00865 0
M  V30 2395 H 229.792 -2.15865 -5.46513 0
M  V30 2396 H 231.316 -1.36334 -5.95185 0
M  V30 2397 H 232.73 -3.26626 -4.71156 0
M  V30 2398 H 231.127 -4.01607 -4.45905 0
M  V30 2399 H 232.197 -3.75326 -3.07016 0
M  V30 2400 N 233.54 1.10788 -1.12088 0
M  V30 2401 C 234.789 1.82036 -0.868659 0
M  V30 2402 C 235.102 1.85929 0.607426 0
M  V30 2403 O 236.308 2.53346 0.97613 0
M  V30 2404 C 234.764 3.26951 -1.50435 0
M  V30 2405 C 234.372 3.31367 -3.01496 0
M  V30 2406 C 236.116 4.03053 -1.33225 0
M  V30 2407 C 234.023 4.7072 -3.58017 0
M  V30 2408 H 232.953 0.682108 -0.321318 0
M  V30 2409 H 235.604 1.24618 -1.34694 0
M  V30 2410 H 233.986 3.84343 -0.953735 0
M  V30 2411 H 235.16 2.83819 -3.6302 0
M  V30 2412 H 233.475 2.6875 -3.18061 0
M  V30 2413 H 236.072 5.05981 -1.72878 0
M  V30 2414 H 236.415 4.15387 -0.275529 0
M  V30 2415 H 236.948 3.52066 -1.85188 0
M  V30 2416 H 233.687 4.63585 -4.63432 0
M  V30 2417 H 233.207 5.1865 -3.01268 0
M  V30 2418 H 234.886 5.39685 -3.56859 0
M  V30 2419 N 235.018 0.912232 1.28515 0
M  V30 2420 C 236.266 0.543523 1.94654 0
M  V30 2421 C 236.587 -0.9155 1.72173 0
M  V30 2422 O 235.857 -1.64708 1.06058 0
M  V30 2423 H 234.437 0.198017 0.720277 0
M  V30 2424 H 237.099 1.16126 1.56527 0
M  V30 2425 H 236.195 0.736684 3.03281 0
M  V30 2426 N 236.496 -1.42363 0.676048 0
M  V30 2427 C 237.742 -2.0182 0.199125 0
M  V30 2428 C 238.075 -1.53339 -1.19168 0
M  V30 2429 O 237.35 -0.736124 -1.80032 0
M  V30 2430 C 237.633 -3.59331 0.235144 0
M  V30 2431 C 237.486 -4.17989 1.66149 0
M  V30 2432 C 238.805 -4.3813 -0.41595 0
M  V30 2433 H 235.924 -0.733293 0.0738311 0
M  V30 2434 H 238.566 -1.69368 0.86107 0
M  V30 2435 H 236.716 -3.87109 -0.328487 0
M  V30 2436 H 238.388 -4.0116 2.27747 0
M  V30 2437 H 236.631 -3.7377 2.20178 0
M  V30 2438 H 237.302 -5.27126 1.63837 0
M  V30 2439 H 239.778 -4.16051 0.0638529 0
M  V30 2440 H 238.654 -5.47717 -0.360115 0
M  V30 2441 H 238.915 -4.16101 -1.49373 0
M  V30 2442 N 237.974 -0.419461 -1.51915 0
M  V30 2443 C 239.251 0.211999 -1.94448 0
M  V30 2444 C 239.631 1.61703 -1.35703 0
M  V30 2445 O 238.979 2.22102 -0.536931 0
M  V30 2446 C 239.189 0.207872 -3.4838 0
M  V30 2447 C 240.537 0.422192 -4.22496 0
M  V30 2448 O 241.561 0.286778 -3.55044 0
M  V30 2449 O 240.42 0.690009 -5.42126 0
M  V30 2450 H 237.514 0.139586 -0.815135 0
M  V30 2451 H 240.06 -0.476151 -1.62883 0
M  V30 2452 H 238.832 -0.775102 -3.83546 0
M  V30 2453 H 238.455 0.939688 -3.86336 0
M  V30 2454 N 239.452 1.56882 -0.150215 0
M  V30 2455 C 240.4 2.18214 0.805313 0
M  V30 2456 C 241.394 1.14006 1.25296 0
M  V30 2457 O 242.6 1.3225 1.22107 0
M  V30 2458 H 238.975 0.698762 0.277913 0
M  V30 2459 H 240.946 2.97231 0.263862 0
M  V30 2460 C 239.695 2.82065 2.03309 0
M  V30 2461 H 239.018 3.61968 1.69763 0
M  V30 2462 H 240.458 3.28477 2.68103 0
M  V30 2463 C 238.917 1.80739 2.84315 0
M  V30 2464 O 239.447 1.27983 3.80767 0
M  V30 2465 N 237.653 1.4997 2.48913 0
M  V30 2466 H 237.2 1.93062 1.70542 0
M  V30 2467 H 237.158 0.824217 3.03404 0
M  V30 2468 N 240.93 -0.123565 1.57115 0
M  V30 2469 C 241.893 -1.13583 1.99076 0
M  V30 2470 C 242.893 -1.34564 0.880296 0
M  V30 2471 O 244.083 -1.31158 1.14644 0
M  V30 2472 C 241.215 -2.49128 2.32698 0
M  V30 2473 H 242.408 -0.775287 2.89706 0
M  V30 2474 H 239.961 -0.36771 1.51913 0
M  V30 2475 H 240.696 -2.90111 1.44934 0
M  V30 2476 H 240.481 -2.35255 3.13684 0
M  V30 2477 H 241.971 -3.2199 2.65918 0
M  V30 2478 N 242.408 -1.52605 -0.393616 0
M  V30 2479 C 243.654 -1.67672 -1.14079 0
M  V30 2480 C 243.987 -0.413121 -1.89755 0
M  V30 2481 O 243.262 0.588952 -1.85369 0
M  V30 2482 C 243.545 -2.9088 -2.12276 0
M  V30 2483 C 243.398 -4.27329 -1.40394 0
M  V30 2484 C 244.717 -3.09628 -3.12759 0
M  V30 2485 H 241.836 -0.610168 -0.413356 0
M  V30 2486 H 244.478 -1.85193 -0.424696 0
M  V30 2487 H 242.628 -2.76073 -2.73342 0
M  V30 2488 H 244.3 -4.53894 -0.82327 0
M  V30 2489 H 242.543 -4.2802 -0.705801 0
M  V30 2490 H 243.214 -5.09615 -2.12123 0
M  V30 2491 H 245.69 -3.23436 -2.61779 0
M  V30 2492 H 244.566 -3.97322 -3.78717 0
M  V30 2493 H 244.827 -2.23637 -3.81365 0
M  V30 2494 N 243.887 0.651787 -1.4349 0
M  V30 2495 C 244.797 1.79368 -1.5121 0
M  V30 2496 C 245.813 1.69361 -0.399093 0
M  V30 2497 O 246.989 1.90505 -0.653431 0
M  V30 2498 C 244.054 3.15653 -1.43401 0
M  V30 2499 C 243.115 3.37446 -2.65384 0
M  V30 2500 C 242.348 4.67229 -2.57939 0
M  V30 2501 O 242.571 5.46676 -1.62792 0
M  V30 2502 O 241.505 4.90773 -3.48462 0
M  V30 2503 H 245.331 1.7581 -2.47638 0
M  V30 2504 H 242.916 0.810447 -1.25507 0
M  V30 2505 H 244.798 3.96935 -1.41494 0
M  V30 2506 H 243.473 3.19798 -0.501085 0
M  V30 2507 H 242.38 2.55923 -2.72863 0
M  V30 2508 H 243.713 3.38148 -3.57654 0
M  V30 2509 N 245.365 1.30045 0.890287 0
M  V30 2510 C 246.611 1.19747 1.64415 0
M  V30 2511 C 246.966 -0.246591 1.90813 0
M  V30 2512 O 246.259 -1.174 1.51419 0
M  V30 2513 C 246.453 1.95409 2.99249 0
M  V30 2514 C 246.282 3.47025 2.86013 0
M  V30 2515 C 245.052 4.1638 2.86279 0
M  V30 2516 C 247.25 4.42353 2.62351 0
M  V30 2517 N 245.232 5.54293 2.63879 0
M  V30 2518 C 246.603 5.67792 2.49022 0
M  V30 2519 C 248.658 4.32009 2.47533 0
M  V30 2520 C 247.361 6.8406 2.22383 0
M  V30 2521 C 249.387 5.48038 2.22279 0
M  V30 2522 C 248.749 6.72455 2.09722 0
M  V30 2523 H 244.848 0.493223 0.60684 0
M  V30 2524 H 247.432 1.6399 1.04954 0
M  V30 2525 H 245.603 1.53565 3.56752 0
M  V30 2526 H 247.335 1.77298 3.63796 0
M  V30 2527 H 244.09 3.68164 2.97913 0
M  V30 2528 H 244.514 6.26852 2.55706 0
M  V30 2529 H 249.156 3.36503 2.55979 0
M  V30 2530 H 246.874 7.79612 2.12675 0
M  V30 2531 H 250.46 5.41939 2.11643 0
M  V30 2532 H 249.34 7.60722 1.90453 0
M  V30 2533 N 246.843 -1.10192 1.12674 0
M  V30 2534 C 248.092 -1.81573 0.8783 0
M  V30 2535 C 248.405 -1.86249 -0.597557 0
M  V30 2536 O 249.611 -2.5386 -0.962681 0
M  V30 2537 C 248.067 -3.26149 1.52167 0
M  V30 2538 C 247.675 -3.29763 3.03249 0
M  V30 2539 C 249.419 -4.0234 1.3536 0
M  V30 2540 C 247.326 -4.68815 3.60508 0
M  V30 2541 H 246.256 -0.680394 0.324931 0
M  V30 2542 H 248.907 -1.23902 1.35353 0
M  V30 2543 H 247.289 -3.83832 0.974104 0
M  V30 2544 H 248.463 -2.8189 3.6452 0
M  V30 2545 H 246.778 -2.67059 3.19481 0
M  V30 2546 H 249.375 -5.05058 1.75559 0
M  V30 2547 H 249.718 -4.15235 0.297554 0
M  V30 2548 H 250.251 -3.51079 1.87052 0
M  V30 2549 H 246.99 -4.61121 4.65884 0
M  V30 2550 H 246.51 -5.17045 3.04014 0
M  V30 2551 H 248.189 -5.37785 3.59717 0
M  V30 2552 N 248.321 -0.919034 -1.28029 0
M  V30 2553 C 249.284 -0.416182 -2.2539 0
M  V30 2554 C 250.284 0.460438 -1.54067 0
M  V30 2555 O 251.474 0.262744 -1.72207 0
M  V30 2556 C 248.606 0.402707 -3.38513 0
M  V30 2557 H 249.799 -1.27629 -2.71387 0
M  V30 2558 H 247.352 -0.698919 -1.39803 0
M  V30 2559 H 248.087 1.282 -2.97885 0
M  V30 2560 H 247.872 -0.225698 -3.9145 0
M  V30 2561 H 249.362 0.745191 -4.10897 0
M  V30 2562 N 249.799 1.42003 -0.683588 0
M  V30 2563 C 251.024 2.06265 -0.216647 0
M  V30 2564 C 251.449 1.51059 1.12083 0
M  V30 2565 O 250.807 0.632638 1.69904 0
M  V30 2566 C 250.855 3.60191 -0.171759 0
M  V30 2567 O 249.959 4.03396 0.857069 0
M  V30 2568 H 249.3 0.65502 -0.108834 0
M  V30 2569 H 251.83 1.81982 -0.935077 0
M  V30 2570 H 251.84 4.08 0.0014303 0
M  V30 2571 H 250.515 3.99743 -1.14796 0
M  V30 2572 H 249.092 3.67117 0.654208 0
M  V30 2573 N 251.277 0.427512 1.51691 0
M  V30 2574 C 252.525 -0.141948 2.01601 0
M  V30 2575 C 252.846 -1.44067 1.31414 0
M  V30 2576 O 252.116 -1.90763 0.445658 0
M  V30 2577 H 250.696 -0.0554468 0.744939 0
M  V30 2578 H 253.358 0.567968 1.86441 0
M  V30 2579 H 252.454 -0.324913 3.10404 0
M  V30 2580 N 252.755 -1.56801 0.158532 0
M  V30 2581 C 253.702 -2.17337 -0.776729 0
M  V30 2582 C 254.672 -1.1096 -1.23601 0
M  V30 2583 O 255.857 -1.39054 -1.30647 0
M  V30 2584 C 252.997 -2.80822 -2.00582 0
M  V30 2585 C 252.11 -4.01624 -1.59129 0
M  V30 2586 C 251.245 -4.53072 -2.77306 0
M  V30 2587 C 250.284 -5.66314 -2.32282 0
M  V30 2588 N 249.421 -6.12329 -3.43508 0
M  V30 2589 H 254.261 -2.96918 -0.253701 0
M  V30 2590 H 251.798 -1.46661 -0.113504 0
M  V30 2591 H 253.756 -3.15779 -2.72652 0
M  V30 2592 H 252.386 -2.03866 -2.50277 0
M  V30 2593 H 251.438 -3.72571 -0.767806 0
M  V30 2594 H 252.75 -4.83633 -1.2207 0
M  V30 2595 H 251.904 -4.90145 -3.57551 0
M  V30 2596 H 250.643 -3.70095 -3.17617 0
M  V30 2597 H 249.648 -5.28806 -1.5048 0
M  V30 2598 H 250.873 -6.51085 -1.93043 0
M  V30 2599 H 248.819 -5.32284 -3.83418 0
M  V30 2600 H 248.736 -6.89293 -3.105 0
M  V30 2601 H 250.004 -6.5405 -4.24075 0
M  V30 2602 N 254.233 0.115231 -1.57178 0
M  V30 2603 C 255.143 1.15994 -2.03918 0
M  V30 2604 C 256.159 1.45103 -0.960268 0
M  V30 2605 O 257.335 1.56144 -1.27204 0
M  V30 2606 C 254.4 2.46568 -2.43732 0
M  V30 2607 C 253.461 2.24822 -3.65723 0
M  V30 2608 C 252.694 3.4917 -4.03629 0
M  V30 2609 O 252.917 4.56623 -3.41835 0
M  V30 2610 O 251.851 3.39949 -4.96708 0
M  V30 2611 H 255.677 0.793019 -2.93164 0
M  V30 2612 H 253.262 0.3263 -1.45793 0
M  V30 2613 H 255.144 3.23492 -2.70057 0
M  V30 2614 H 253.819 2.82726 -1.57631 0
M  V30 2615 H 252.726 1.45744 -3.44542 0
M  V30 2616 H 254.059 1.93566 -4.52541 0
M  V30 2617 N 255.711 1.52812 0.385517 0
M  V30 2618 C 256.659 1.78482 1.49155 0
M  V30 2619 C 257.653 0.652914 1.56312 0
M  V30 2620 O 258.859 0.835464 1.59436 0
M  V30 2621 H 255.234 0.5648 0.496493 0
M  V30 2622 H 257.205 2.71095 1.24699 0
M  V30 2623 C 255.954 1.97378 2.86247 0
M  V30 2624 H 255.277 2.83907 2.81491 0
M  V30 2625 H 256.717 2.19327 3.62866 0
M  V30 2626 C 255.176 0.74728 3.28508 0
M  V30 2627 O 255.706 -0.0736232 4.01633 0
M  V30 2628 N 253.912 0.576396 2.84826 0
M  V30 2629 H 253.459 1.24555 2.25486 0
M  V30 2630 H 253.417 -0.24288 3.1346 0
M  V30 2631 N 257.189 -0.644168 1.43834 0
M  V30 2632 C 258.605 -0.960875 1.27434 0
M  V30 2633 C 258.805 -2.00499 0.200618 0
M  V30 2634 O 257.861 -2.49018 -0.417906 0
M  V30 2635 C 259.174 -1.43653 2.64167 0
M  V30 2636 C 260.722 -1.55271 2.71772 0
M  V30 2637 C 261.197 -2.06224 4.08944 0
M  V30 2638 N 262.688 -2.13513 4.11055 0
M  V30 2639 C 263.423 -2.54081 5.14033 0
M  V30 2640 N 262.919 -2.9388 6.27381 0
M  V30 2641 N 264.712 -2.54101 5.01387 0
M  V30 2642 H 256.863 0.0465779 2.12349 0
M  V30 2643 H 259.126 -0.0417638 0.94708 0
M  V30 2644 H 258.832 -0.743706 3.43747 0
M  V30 2645 H 258.706 -2.40993 2.90176 0
M  V30 2646 H 261.093 -2.23653 1.92519 0
M  V30 2647 H 261.174 -0.563395 2.49519 0
M  V30 2648 H 260.818 -1.38441 4.88668 0
M  V30 2649 H 260.748 -3.06003 4.28567 0
M  V30 2650 H 263.239 -1.85493 3.29242 0
M  V30 2651 H 263.552 -3.2361 7.01781 0
M  V30 2652 H 261.897 -2.91663 6.30839 0
M  V30 2653 H 265.088 -2.22391 4.11898 0
M  V30 2654 H 265.261 -2.85394 5.81768 0
M  V30 2655 N 258.668 -1.30515 -0.883378 0
M  V30 2656 C 259.631 -1.1701 -1.97082 0
M  V30 2657 C 260.631 -0.10089 -1.60483 0
M  V30 2658 O 261.821 -0.349127 -1.70666 0
M  V30 2659 C 258.953 -0.793045 -3.31547 0
M  V30 2660 H 260.146 -2.13622 -2.10489 0
M  V30 2661 H 257.699 -1.13935 -1.06998 0
M  V30 2662 H 258.434 0.172499 -3.23841 0
M  V30 2663 H 258.219 -1.56576 -3.5948 0
M  V30 2664 H 259.709 -0.722073 -4.1131 0
M  V30 2665 N 260.146 1.09593 -1.13257 0
M  V30 2666 C 261.056 2.19739 -0.821691 0
M  V30 2667 C 262.072 1.72926 0.19302 0
M  V30 2668 O 263.248 2.01385 0.0244895 0
M  V30 2669 C 260.313 3.45482 -0.290333 0
M  V30 2670 C 259.374 4.06985 -1.36607 0
M  V30 2671 C 258.607 5.26726 -0.859975 0
M  V30 2672 O 258.83 5.69594 0.303082 0
M  V30 2673 O 257.764 5.7931 -1.63351 0
M  V30 2674 H 261.59 2.48781 -1.74189 0
M  V30 2675 H 259.175 1.18496 -0.909894 0
M  V30 2676 H 261.057 4.214 0.000674022 0
M  V30 2677 H 259.732 3.18047 0.602306 0
M  V30 2678 H 258.639 3.32712 -1.71037 0
M  V30 2679 H 259.972 4.38643 -2.23279 0
M  V30 2680 N 261.624 0.925811 1.2754 0
M  V30 2681 C 262.901 0.483726 1.89524 0
M  V30 2682 C 263.281 -1.03809 1.83812 0
M  V30 2683 O 262.629 -1.89143 1.28207 0
M  V30 2684 C 262.839 1.02769 3.33526 0
M  V30 2685 C 264.187 1.08703 4.10449 0
M  V30 2686 O 265.211 0.977175 3.42534 0
M  V30 2687 O 264.07 1.25599 5.31871 0
M  V30 2688 H 261.164 0.15529 0.812289 0
M  V30 2689 H 263.71 1.01738 1.35822 0
M  V30 2690 H 262.482 2.07155 3.31967 0
M  V30 2691 H 262.105 0.475567 3.94746 0
M  V30 2692 N 263.102 -1.41638 0.69111 0
M  V30 2693 C 264.065 -2.29178 0.0319786 0
M  V30 2694 C 265.065 -1.44153 -0.712496 0
M  V30 2695 O 266.255 -1.65354 -0.548053 0
M  V30 2696 C 263.387 -3.26952 -0.965161 0
M  V30 2697 H 264.58 -2.88959 0.802681 0
M  V30 2698 H 262.133 -1.4955 0.454356 0
M  V30 2699 H 262.868 -2.72142 -1.76378 0
M  V30 2700 H 262.653 -3.89685 -0.434522 0
M  V30 2701 H 264.143 -3.92561 -1.42428 0
M  V30 2702 N 264.58 -0.43555 -1.51462 0
M  V30 2703 C 265.51 0.367376 -2.30592 0
M  V30 2704 C 266.491 1.02263 -1.35928 0
M  V30 2705 O 267.676 1.02661 -1.64847 0
M  V30 2706 C 264.806 1.46983 -3.14664 0
M  V30 2707 C 263.76 0.938161 -4.17591 0
M  V30 2708 C 263.086 2.13622 -4.90173 0
M  V30 2709 C 264.386 -0.0261621 -5.22293 0
M  V30 2710 H 266.08 -0.292969 -2.97963 0
M  V30 2711 H 263.626 -0.14234 -1.43295 0
M  V30 2712 H 265.579 2.03873 -3.688 0
M  V30 2713 H 264.303 2.15843 -2.4511 0
M  V30 2714 H 262.962 0.391481 -3.64504 0
M  V30 2715 H 262.61 2.81098 -4.17124 0
M  V30 2716 H 262.31 1.78688 -5.59772 0
M  V30 2717 H 263.834 2.7107 -5.47132 0
M  V30 2718 H 265.248 0.452384 -5.71512 0
M  V30 2719 H 263.645 -0.287992 -5.99409 0
M  V30 2720 H 264.715 -0.963391 -4.75233 0
M  V30 2721 N 266.058 1.56714 -0.166846 0
M  V30 2722 C 267.005 2.17746 0.765193 0
M  V30 2723 C 267.975 1.11614 1.23011 0
M  V30 2724 O 269.16 1.39745 1.29908 0
M  V30 2725 C 266.3 2.81882 1.9909 0
M  V30 2726 C 265.413 4.02462 1.56997 0
M  V30 2727 C 264.548 4.54537 2.749 0
M  V30 2728 C 263.587 5.67538 2.29275 0
M  V30 2729 N 262.724 6.14142 3.40255 0
M  V30 2730 H 267.564 2.97048 0.237952 0
M  V30 2731 H 265.101 1.4672 0.105725 0
M  V30 2732 H 267.059 3.17221 2.70974 0
M  V30 2733 H 265.689 2.05191 2.49192 0
M  V30 2734 H 264.741 3.72973 0.748037 0
M  V30 2735 H 266.053 4.84273 1.19503 0
M  V30 2736 H 265.207 4.92035 3.54946 0
M  V30 2737 H 263.946 3.71774 3.1565 0
M  V30 2738 H 262.951 5.29597 1.47674 0
M  V30 2739 H 264.176 6.52099 1.89588 0
M  V30 2740 H 262.122 5.3431 3.8059 0
M  V30 2741 H 262.039 6.9093 3.06841 0
M  V30 2742 H 263.307 6.56289 4.206 0
M  V30 2743 N 267.536 -0.106894 1.57237 0
M  V30 2744 C 268.782 -0.81373 1.85759 0
M  V30 2745 C 269.115 -1.78952 0.754315 0
M  V30 2746 O 268.39 -1.93029 -0.23879 0
M  V30 2747 C 268.673 -1.55293 3.24894 0
M  V30 2748 C 268.526 -0.595929 4.45835 0
M  V30 2749 C 269.845 -2.5063 3.61763 0
M  V30 2750 H 266.964 -0.294369 0.67566 0
M  V30 2751 H 269.606 -0.0776472 1.89841 0
M  V30 2752 H 267.756 -2.1804 3.21544 0
M  V30 2753 H 269.428 0.0236262 4.61294 0
M  V30 2754 H 267.671 0.0916191 4.33703 0
M  V30 2755 H 268.342 -1.15004 5.39887 0
M  V30 2756 H 270.818 -1.97982 3.65981 0
M  V30 2757 H 269.694 -2.99376 4.60071 0
M  V30 2758 H 269.955 -3.3385 2.89821 0
M  V30 2759 N 269.014 -1.53014 -0.377408 0
M  V30 2760 C 270.239 -1.72818 -1.14668 0
M  V30 2761 C 270.664 -0.450725 -1.8262 0
M  V30 2762 O 270.022 0.59439 -1.7128 0
M  V30 2763 C 270.07 -2.88627 -2.16164 0
M  V30 2764 O 269.174 -2.56409 -3.22998 0
M  V30 2765 H 268.515 -0.574301 -0.333278 0
M  V30 2766 H 271.045 -1.99853 -0.438152 0
M  V30 2767 H 271.055 -3.14455 -2.59966 0
M  V30 2768 H 269.73 -3.81294 -1.66095 0
M  V30 2769 H 268.307 -2.4136 -2.84253 0
M  V30 2770 N 270.492 0.636531 -1.44174 0
M  V30 2771 C 271.455 1.73063 -1.50273 0
M  V30 2772 C 272.455 1.56113 -0.385397 0
M  V30 2773 O 273.645 1.61707 -0.64781 0
M  V30 2774 C 270.777 3.12096 -1.37145 0
M  V30 2775 H 271.97 1.69031 -2.47727 0
M  V30 2776 H 269.523 0.849706 -1.31186 0
M  V30 2777 H 270.258 3.21728 -0.407636 0
M  V30 2778 H 270.043 3.25805 -2.18159 0
M  V30 2779 H 271.533 3.91846 -1.44382 0
M  V30 2780 N 271.97 1.30982 0.876444 0
M  V30 2781 C 273.216 1.20474 1.63138 0
M  V30 2782 C 273.549 -0.238096 1.92735 0
M  V30 2783 O 272.824 -1.1692 1.55435 0
M  V30 2784 C 273.107 2.04244 2.96574 0
M  V30 2785 C 272.96 3.56793 2.73896 0
M  V30 2786 C 274.279 1.88684 3.97601 0
M  V30 2787 H 271.398 0.439001 0.591985 0
M  V30 2788 H 274.04 1.60704 1.01361 0
M  V30 2789 H 272.19 1.70063 3.493 0
M  V30 2790 H 273.862 4.01077 2.27892 0
M  V30 2791 H 272.105 3.80548 2.08245 0
M  V30 2792 H 272.776 4.10706 3.68815 0
M  V30 2793 H 275.252 2.18584 3.54062 0
M  V30 2794 H 274.128 2.4961 4.88862 0
M  V30 2795 H 274.389 0.848343 4.33884 0
M  V30 2796 N 273.449 -1.08991 1.13837 0
M  V30 2797 C 274.726 -1.77863 0.813876 0
M  V30 2798 C 275.106 -1.99375 -0.693746 0
M  V30 2799 O 274.454 -1.59875 -1.63255 0
M  V30 2800 C 274.664 -3.0986 1.60586 0
M  V30 2801 C 276.012 -3.84493 1.8014 0
M  V30 2802 O 277.036 -3.19624 1.57222 0
M  V30 2803 O 275.895 -5.00957 2.18413 0
M  V30 2804 H 272.989 -0.771589 0.297624 0
M  V30 2805 H 275.535 -1.15507 1.24323 0
M  V30 2806 H 274.307 -2.89715 2.63022 0
M  V30 2807 H 273.93 -3.79942 1.17173 0
M  V30 2808 N 274.927 -0.932562 -1.27047 0
M  V30 2809 C 275.89 -0.440064 -2.24936 0
M  V30 2810 C 276.89 0.444071 -1.54547 0
M  V30 2811 O 278.08 0.244465 -1.72476 0
M  V30 2812 C 275.212 0.36678 -3.38921 0
M  V30 2813 H 276.405 -1.305 -2.70018 0
M  V30 2814 H 273.958 -0.713707 -1.39054 0
M  V30 2815 H 274.693 1.25033 -2.99228 0
M  V30 2816 H 274.478 -0.267204 -3.91188 0
M  V30 2817 H 275.968 0.701567 -4.11665 0
M  V30 2818 N 276.405 1.4127 -0.698611 0
M  V30 2819 C 277.651 2.01478 -0.231207 0
M  V30 2820 C 277.984 1.55215 1.16713 0
M  V30 2821 O 277.259 0.764672 1.78838 0
M  V30 2822 C 277.542 3.58912 -0.292281 0
M  V30 2823 C 277.395 4.15293 -1.72778 0
M  V30 2824 C 278.714 4.38736 0.346194 0
M  V30 2825 H 275.833 0.732025 -0.0854878 0
M  V30 2826 H 278.475 1.67977 -0.887906 0
M  V30 2827 H 276.625 3.87582 0.26686 0
M  V30 2828 H 278.297 3.97486 -2.341 0
M  V30 2829 H 276.54 3.7022 -2.26096 0
M  V30 2830 H 277.211 5.24452 -1.72202 0
M  V30 2831 H 279.687 4.15897 -0.130035 0
M  V30 2832 H 278.563 5.48221 0.272932 0
M  V30 2833 H 278.824 4.18425 1.42734 0
M  V30 2834 N 277.883 0.443576 1.51229 0
M  V30 2835 C 279.129 -0.120975 2.02439 0
M  V30 2836 C 279.462 -1.41815 1.32674 0
M  V30 2837 O 278.737 -1.89373 0.443622 0
M  V30 2838 C 279.02 -0.333291 3.58554 0
M  V30 2839 C 278.873 0.982968 4.38928 0
M  V30 2840 C 280.192 -1.10028 4.26124 0
M  V30 2841 H 277.311 -0.0424923 0.735774 0
M  V30 2842 H 279.953 0.583794 1.80809 0
M  V30 2843 H 278.103 -0.933614 3.77115 0
M  V30 2844 H 279.775 1.61775 4.32003 0
M  V30 2845 H 278.018 1.58611 4.03763 0
M  V30 2846 H 278.689 0.788379 5.46341 0
M  V30 2847 H 281.165 -0.591711 4.11871 0
M  V30 2848 H 280.041 -1.21761 5.35225 0
M  V30 2849 H 280.302 -2.12996 3.87408 0
M  V30 2850 N 279.361 -1.56624 0.175154 0
M  V30 2851 C 280.589 -2.01374 -0.474971 0
M  V30 2852 C 281.004 -1.05537 -1.56548 0
M  V30 2853 O 280.361 -0.0568668 -1.82411 0
M  V30 2854 C 280.412 -3.45923 -1.04975 0
M  V30 2855 O 280.133 -4.381 -0.00276605 0
M  V30 2856 C 281.634 -4.06093 -1.77773 0
M  V30 2857 H 278.854 -0.659962 -0.121206 0
M  V30 2858 H 281.398 -2.02601 0.27801 0
M  V30 2859 H 279.553 -3.45458 -1.75321 0
M  V30 2860 H 279.967 -5.22753 -0.427681 0
M  V30 2861 H 281.441 -5.09147 -2.13245 0
M  V30 2862 H 281.918 -3.48405 -2.67414 0
M  V30 2863 H 282.524 -4.10272 -1.12059 0
M  V30 2864 N 280.839 0.0985539 -1.57292 0
M  V30 2865 C 281.802 1.10402 -2.00858 0
M  V30 2866 C 282.802 1.33146 -0.901593 0
M  V30 2867 O 283.992 1.29318 -1.16716 0
M  V30 2868 C 281.124 2.45394 -2.36632 0
M  V30 2869 H 282.317 0.729099 -2.90902 0
M  V30 2870 H 279.87 0.343495 -1.52479 0
M  V30 2871 H 280.605 2.87769 -1.49531 0
M  V30 2872 H 280.39 2.30235 -3.17387 0
M  V30 2873 H 281.88 3.17718 -2.71007 0
M  V30 2874 N 282.317 1.53212 0.369288 0
M  V30 2875 C 283.594 1.59815 1.12776 0
M  V30 2876 C 283.974 0.403402 2.0721 0
M  V30 2877 O 283.322 -0.606667 2.20299 0
M  V30 2878 C 283.532 2.94664 1.87013 0
M  V30 2879 C 284.88 3.49109 2.41677 0
M  V30 2880 O 285.904 2.96669 1.97144 0
M  V30 2881 O 284.763 4.40775 3.23079 0
M  V30 2882 H 281.857 0.645376 0.517125 0
M  V30 2883 H 284.403 1.65553 0.37285 0
M  V30 2884 H 283.175 3.73061 1.18071 0
M  V30 2885 H 282.798 2.92401 2.69421 0
M  V30 2886 N 283.795 -0.628877 1.44509 0
M  V30 2887 C 284.742 -1.74074 1.51549 0
M  V30 2888 C 285.712 -1.62084 0.363021 0
M  V30 2889 O 286.897 -1.81975 0.573567 0
M  V30 2890 C 284.037 -3.12328 1.46784 0
M  V30 2891 C 283.15 -3.35277 2.72422 0
M  V30 2892 C 282.285 -4.63515 2.59475 0
M  V30 2893 C 281.324 -4.7965 3.80266 0
M  V30 2894 N 280.461 -5.99168 3.65981 0
M  V30 2895 H 285.301 -1.67392 2.46544 0
M  V30 2896 H 282.838 -0.816527 1.22357 0
M  V30 2897 H 284.796 -3.92286 1.42012 0
M  V30 2898 H 283.426 -3.18018 0.553544 0
M  V30 2899 H 282.478 -2.49242 2.87372 0
M  V30 2900 H 283.79 -3.43078 3.62076 0
M  V30 2901 H 282.944 -5.51638 2.52548 0
M  V30 2902 H 281.683 -4.58076 1.67384 0
M  V30 2903 H 280.688 -3.89957 3.87574 0
M  V30 2904 H 281.913 -4.86902 4.73395 0
M  V30 2905 H 279.859 -5.94814 2.76644 0
M  V30 2906 H 279.776 -6.08035 4.49254 0
M  V30 2907 H 281.044 -6.89846 3.6295 0
M  V30 2908 N 285.273 -1.31445 -0.869486 0
M  V30 2909 C 286.203 -1.21727 -1.99261 0
M  V30 2910 C 287.184 -0.104359 -1.6978 0
M  V30 2911 O 288.369 -0.289038 -1.92037 0
M  V30 2912 C 285.499 -0.924317 -3.34774 0
M  V30 2913 C 284.453 -1.99685 -3.78563 0
M  V30 2914 C 283.779 -1.55658 -5.11541 0
M  V30 2915 C 285.079 -3.41003 -3.95619 0
M  V30 2916 H 286.773 -2.1569 -2.07649 0
M  V30 2917 H 284.319 -1.03839 -0.997675 0
M  V30 2918 H 286.272 -0.842934 -4.12883 0
M  V30 2919 H 284.996 0.0509793 -3.2656 0
M  V30 2920 H 283.655 -2.06813 -3.02694 0
M  V30 2921 H 283.303 -0.569132 -4.9977 0
M  V30 2922 H 283.003 -2.27409 -5.41811 0
M  V30 2923 H 284.527 -1.48928 -5.92159 0
M  V30 2924 H 285.941 -3.36547 -4.64122 0
M  V30 2925 H 284.338 -4.10975 -4.37286 0
M  V30 2926 H 285.408 -3.81754 -2.98985 0
M  V30 2927 N 286.751 1.08385 -1.14413 0
M  V30 2928 C 287.999 1.80419 -0.910679 0
M  V30 2929 C 288.32 1.86658 0.564243 0
M  V30 2930 O 287.59 1.35985 1.41014 0
M  V30 2931 H 286.17 0.668204 -0.333934 0
M  V30 2932 H 288.832 1.31037 -1.44275 0
M  V30 2933 H 287.928 2.83238 -1.31082 0
M  V30 2934 N 288.23 0.939286 1.26551 0
M  V30 2935 C 289.193 0.451987 2.24699 0
M  V30 2936 C 290.193 -0.435869 1.5478 0
M  V30 2937 O 291.383 -0.235314 1.72603 0
M  V30 2938 C 288.515 -0.348801 3.39111 0
M  V30 2939 H 289.708 1.3193 2.69322 0
M  V30 2940 H 287.261 0.721072 1.38673 0
M  V30 2941 H 287.996 -1.23444 2.99887 0
M  V30 2942 H 287.781 0.287945 3.91041 0
M  V30 2943 H 289.271 -0.679726 4.12031 0
M  V30 2944 N 289.708 -1.40897 0.706093 0
M  V30 2945 C 290.671 -2.29131 0.0562841 0
M  V30 2946 C 291.671 -1.44901 -0.697166 0
M  V30 2947 O 292.861 -1.65926 -0.530484 0
M  V30 2948 C 289.993 -3.27957 -0.93043 0
M  V30 2949 H 291.186 -2.88091 0.833284 0
M  V30 2950 H 288.739 -1.4906 0.470192 0
M  V30 2951 H 289.474 -2.73997 -1.73482 0
M  V30 2952 H 289.259 -3.90124 -0.393166 0
M  V30 2953 H 290.749 -3.94049 -1.38256 0
M  V30 2954 N 291.186 -0.45159 -1.50991 0
M  V30 2955 C 292.149 0.341117 -2.26647 0
M  V30 2956 C 293.149 0.937422 -1.30649 0
M  V30 2957 O 294.339 0.809644 -1.54241 0
M  V30 2958 C 291.471 1.48398 -3.06905 0
M  V30 2959 H 292.664 -0.322117 -2.98165 0
M  V30 2960 H 290.217 -0.205122 -1.54948 0
M  V30 2961 H 290.952 2.18284 -2.39838 0
M  V30 2962 H 290.737 1.06241 -3.77432 0
M  V30 2963 H 292.227 2.04367 -3.64176 0
M  V30 2964 N 292.664 1.56529 -0.183458 0
M  V30 2965 C 293.594 2.21549 0.737456 0
M  V30 2966 C 294.575 1.17489 1.23005 0
M  V30 2967 O 295.76 1.45959 1.281 0
M  V30 2968 C 292.89 2.86575 1.96194 0
M  V30 2969 C 291.844 3.96778 1.60473 0
M  V30 2970 C 291.17 4.48911 2.90487 0
M  V30 2971 C 292.47 5.15767 0.823497 0
M  V30 2972 H 294.164 2.98761 0.195453 0
M  V30 2973 H 291.71 1.43702 0.0925686 0
M  V30 2974 H 293.663 3.30739 2.61131 0
M  V30 2975 H 292.387 2.06749 2.52828 0
M  V30 2976 H 291.046 3.53286 0.978997 0
M  V30 2977 H 290.694 3.65862 3.45186 0
M  V30 2978 H 290.394 5.23265 2.67335 0
M  V30 2979 H 291.918 4.95771 3.56432 0
M  V30 2980 H 293.332 5.56549 1.37571 0
M  V30 2981 H 291.729 5.96114 0.690551 0
M  V30 2982 H 292.799 4.84574 -0.177782 0
M  V30 2983 N 294.142 -0.090211 1.57342 0
M  V30 2984 C 295.419 -0.824761 1.77361 0
M  V30 2985 C 295.799 -1.96698 0.76637 0
M  V30 2986 O 295.147 -2.27586 -0.204179 0
M  V30 2987 C 295.357 -1.31481 3.23286 0
M  V30 2988 C 296.705 -1.75563 3.86604 0
M  V30 2989 O 297.729 -1.41093 3.27065 0
M  V30 2990 O 296.588 -2.39317 4.91314 0
M  V30 2991 H 293.682 -0.393776 0.727234 0
M  V30 2992 H 296.228 -0.0717138 1.69548 0
M  V30 2993 H 295 -0.496671 3.88135 0
M  V30 2994 H 294.623 -2.12973 3.35751 0
M  V30 2995 N 295.62 -1.53406 -0.361157 0
M  V30 2996 C 296.55 -1.83136 -1.44857 0
M  V30 2997 C 297.531 -0.685174 -1.5569 0
M  V30 2998 O 298.716 -0.93544 -1.70186 0
M  V30 2999 C 295.846 -2.02522 -2.82138 0
M  V30 3000 C 294.8 -3.18302 -2.86126 0
M  V30 3001 C 294.126 -3.22989 -4.26125 0
M  V30 3002 C 295.426 -4.56796 -2.53248 0
M  V30 3003 H 297.12 -2.74201 -1.20226 0
M  V30 3004 H 294.666 -1.31938 -0.576922 0
M  V30 3005 H 296.619 -2.21904 -3.58241 0
M  V30 3006 H 295.343 -1.08172 -3.08166 0
M  V30 3007 H 294.002 -2.98747 -2.12475 0
M  V30 3008 H 293.65 -2.26267 -4.49235 0
M  V30 3009 H 293.35 -4.00781 -4.29708 0
M  V30 3010 H 294.874 -3.44559 -5.04094 0
M  V30 3011 H 296.288 -4.7631 -3.19064 0
M  V30 3012 H 294.685 -5.36862 -2.68141 0
M  V30 3013 H 295.755 -4.61606 -1.48484 0
M  V30 3014 N 297.098 0.621204 -1.44841 0
M  V30 3015 C 298.347 1.37658 -1.47422 0
M  V30 3016 C 298.66 1.95264 -0.114629 0
M  V30 3017 O 299.866 2.71494 -0.0180199 0
M  V30 3018 C 298.322 2.49285 -2.59586 0
M  V30 3019 C 297.93 1.98149 -4.01797 0
M  V30 3020 C 299.674 3.26409 -2.71399 0
M  V30 3021 C 297.581 3.07178 -5.05367 0
M  V30 3022 H 296.511 0.517344 -0.548517 0
M  V30 3023 H 299.162 0.667257 -1.70938 0
M  V30 3024 H 297.544 3.22839 -2.29328 0
M  V30 3025 H 298.718 1.31395 -4.41669 0
M  V30 3026 H 297.033 1.33812 -3.94314 0
M  V30 3027 H 299.63 4.07706 -3.45948 0
M  V30 3028 H 299.973 3.76535 -1.77559 0
M  V30 3029 H 300.506 2.5995 -3.01116 0
M  V30 3030 H 297.245 2.61985 -6.00869 0
M  V30 3031 H 296.765 3.72542 -4.70077 0
M  V30 3032 H 298.444 3.71789 -5.29511 0
M  V30 3033 N 298.576 1.31904 0.862503 0
M  V30 3034 C 299.523 1.20182 1.9704 0
M  V30 3035 C 300.493 0.0858247 1.65878 0
M  V30 3036 O 301.678 0.26 1.8902 0
M  V30 3037 C 298.818 0.922797 3.32533 0
M  V30 3038 C 297.931 2.12284 3.76244 0
M  V30 3039 C 297.066 1.77996 5.00491 0
M  V30 3040 C 296.105 2.94366 5.36671 0
M  V30 3041 N 295.242 2.60223 6.52095 0
M  V30 3042 H 300.082 2.14951 2.06398 0
M  V30 3043 H 297.619 1.06917 1.01031 0
M  V30 3044 H 299.577 0.741548 4.10557 0
M  V30 3045 H 298.207 0.0119227 3.22798 0
M  V30 3046 H 297.259 2.41461 2.9394 0
M  V30 3047 H 298.571 2.99357 3.98982 0
M  V30 3048 H 297.725 1.56377 5.862 0
M  V30 3049 H 296.464 0.881252 4.79672 0
M  V30 3050 H 295.469 3.16625 4.49476 0
M  V30 3051 H 296.694 3.84957 5.59451 0
M  V30 3052 H 294.64 1.72884 6.32809 0
M  V30 3053 H 294.557 3.40827 6.74814 0
M  V30 3054 H 295.825 2.42016 7.40978 0
M  V30 3055 N 300.054 -1.07777 1.14986 0
M  V30 3056 C 301.47 -1.32373 0.891596 0
M  V30 3057 C 301.67 -1.9609 -0.463788 0
M  V30 3058 O 300.726 -2.21801 -1.20667 0
M  V30 3059 C 302.039 -2.21905 2.02925 0
M  V30 3060 C 303.587 -2.35367 2.06329 0
M  V30 3061 C 304.062 -3.28245 3.19405 0
M  V30 3062 N 305.553 -3.35824 3.19024 0
M  V30 3063 C 306.288 -4.07739 4.03158 0
M  V30 3064 N 305.784 -4.82306 4.97346 0
M  V30 3065 N 307.577 -4.03635 3.91197 0
M  V30 3066 H 299.728 -0.648039 2.02273 0
M  V30 3067 H 301.991 -0.348149 0.881757 0
M  V30 3068 H 301.697 -1.82342 3.0074 0
M  V30 3069 H 301.571 -3.22407 1.95789 0
M  V30 3070 H 303.958 -2.74186 1.09116 0
M  V30 3071 H 304.039 -1.34585 2.17533 0
M  V30 3072 H 303.683 -2.90146 4.16867 0
M  V30 3073 H 303.613 -4.28971 3.05437 0
M  V30 3074 H 306.104 -2.8267 2.50811 0
M  V30 3075 H 306.417 -5.34661 5.57994 0
M  V30 3076 H 304.762 -4.81337 5.01338 0
M  V30 3077 H 307.953 -3.44491 3.16928 0
M  V30 3078 H 308.126 -4.59417 4.5699 0
M  V30 3079 N 301.532 -0.945985 -1.26051 0
M  V30 3080 C 302.495 -0.463897 -2.24456 0
M  V30 3081 C 303.495 0.427655 -1.55009 0
M  V30 3082 O 304.685 0.226157 -1.72726 0
M  V30 3083 C 301.817 0.330812 -3.39291 0
M  V30 3084 H 303.01 -1.33357 -2.68619 0
M  V30 3085 H 300.563 -0.728416 -1.38289 0
M  V30 3086 H 301.298 1.21852 -3.00537 0
M  V30 3087 H 301.083 -0.308679 -3.90883 0
M  V30 3088 H 302.573 0.657865 -4.12386 0
M  V30 3089 N 303.011 1.40521 -0.713556 0
M  V30 3090 C 304.26 2.00155 -0.249192 0
M  V30 3091 C 304.573 1.57224 1.16362 0
M  V30 3092 O 305.779 2.09542 1.72639 0
M  V30 3093 C 304.235 3.5773 -0.3946 0
M  V30 3094 C 303.843 4.09635 -1.81392 0
M  V30 3095 C 305.587 4.24499 0.00907364 0
M  V30 3096 C 303.494 5.59707 -1.91003 0
M  V30 3097 H 302.424 0.74868 -0.0894114 0
M  V30 3098 H 305.075 1.60784 -0.884352 0
M  V30 3099 H 303.457 3.94792 0.30911 0
M  V30 3100 H 304.631 3.83955 -2.54785 0
M  V30 3101 H 302.946 3.55456 -2.16888 0
M  V30 3102 H 305.543 5.34683 -0.0420404 0
M  V30 3103 H 305.886 4.02824 1.05065 0
M  V30 3104 H 306.419 3.92536 -0.645007 0
M  V30 3105 H 303.158 5.86234 -2.93275 0
M  V30 3106 H 302.678 5.87258 -1.22019 0
M  V30 3107 H 304.357 6.24776 -1.6812 0
M  V30 3108 N 304.489 0.459591 1.5075 0
M  V30 3109 C 305.714 -0.0996819 2.0716 0
M  V30 3110 C 306.139 -1.33761 1.32249 0
M  V30 3111 O 305.497 -1.77551 0.366786 0
M  V30 3112 C 305.545 -0.378226 3.58611 0
M  V30 3113 O 304.649 -1.46081 3.85661 0
M  V30 3114 H 303.99 0.00791392 0.663953 0
M  V30 3115 H 306.52 0.647329 1.9409 0
M  V30 3116 H 306.53 -0.622135 4.03229 0
M  V30 3117 H 305.205 0.526439 4.12555 0
M  V30 3118 H 303.782 -1.20511 3.5289 0
M  V30 3119 N 305.967 -1.56429 0.191757 0
M  V30 3120 C 307.215 -1.97095 -0.447006 0
M  V30 3121 C 307.536 -1.07967 -1.62383 0
M  V30 3122 O 306.806 -0.150248 -1.95323 0
M  V30 3123 H 305.386 -0.727832 -0.168135 0
M  V30 3124 H 308.048 -1.92911 0.27771 0
M  V30 3125 H 307.144 -3.01848 -0.793371 0
M  V30 3126 N 307.445 0.0818655 -1.57387 0
M  V30 3127 C 308.355 1.11642 -2.06333 0
M  V30 3128 C 309.371 1.43033 -0.99083 0
M  V30 3129 O 310.547 1.53411 -1.30488 0
M  V30 3130 C 307.612 2.41342 -2.48907 0
M  V30 3131 C 306.673 2.17014 -3.7041 0
M  V30 3132 C 305.906 3.4053 -4.10944 0
M  V30 3133 O 306.129 4.4927 -3.51444 0
M  V30 3134 O 305.063 3.29336 -5.03807 0
M  V30 3135 H 308.889 0.730657 -2.9478 0
M  V30 3136 H 306.474 0.295301 -1.46452 0
M  V30 3137 H 308.356 3.17691 -2.76858 0
M  V30 3138 H 307.031 2.79319 -1.63593 0
M  V30 3139 H 305.938 1.38403 -3.47556 0
M  V30 3140 H 307.271 1.83923 -4.56545 0
M  V30 3141 N 308.923 1.53595 0.353017 0
M  V30 3142 C 309.853 1.83902 1.43883 0
M  V30 3143 C 310.834 0.693421 1.55324 0
M  V30 3144 O 312.019 0.944452 1.69687 0
M  V30 3145 C 309.149 2.04016 2.8106 0
M  V30 3146 C 308.103 3.19814 2.84434 0
M  V30 3147 C 307.429 3.25244 4.24406 0
M  V30 3148 C 308.729 4.58133 2.50822 0
M  V30 3149 H 310.423 2.74835 1.1877 0
M  V30 3150 H 307.969 1.32242 0.569917 0
M  V30 3151 H 309.922 2.238 3.57059 0
M  V30 3152 H 308.646 1.09804 3.07588 0
M  V30 3153 H 307.305 2.9987 2.10887 0
M  V30 3154 H 306.953 2.28646 4.48029 0
M  V30 3155 H 306.653 4.03054 4.27576 0
M  V30 3156 H 308.177 3.47228 5.0226 0
M  V30 3157 H 309.591 4.77995 3.16534 0
M  V30 3158 H 307.988 5.38276 2.6529 0
M  V30 3159 H 309.058 4.62387 1.46034 0
M  V30 3160 N 310.401 -0.613514 1.45168 0
M  V30 3161 C 311.678 -1.37263 1.39349 0
M  V30 3162 C 312.058 -2.11012 0.0610848 0
M  V30 3163 O 311.406 -2.07502 -0.956825 0
M  V30 3164 C 311.616 -2.3244 2.60332 0
M  V30 3165 C 312.964 -2.9523 3.05163 0
M  V30 3166 O 313.988 -2.42762 2.60663 0
M  V30 3167 O 312.847 -3.90454 3.82372 0
M  V30 3168 H 309.941 -0.615188 0.552696 0
M  V30 3169 H 312.487 -0.637097 1.57287 0
M  V30 3170 H 311.259 -1.77164 3.48896 0
M  V30 3171 H 310.882 -3.13383 2.44698 0
M  V30 3172 N 311.879 -1.3236 -0.855495 0
M  V30 3173 C 313.109 -1.25688 -1.6397 0
M  V30 3174 C 313.517 0.177592 -1.88365 0
M  V30 3175 O 312.86 1.12485 -1.45234 0
M  V30 3176 C 312.922 -1.94602 -3.02275 0
M  V30 3177 C 312.586 -3.43937 -3.00926 0
M  V30 3178 C 313.583 -4.39435 -2.77835 0
M  V30 3179 C 311.268 -3.85858 -3.21588 0
M  V30 3180 C 313.262 -5.74829 -2.75409 0
M  V30 3181 C 310.949 -5.21361 -3.18789 0
M  V30 3182 C 311.947 -6.15658 -2.95727 0
M  V30 3183 O 311.635 -7.48681 -2.928 0
M  V30 3184 H 311.367 -0.434972 -0.51747 0
M  V30 3185 H 313.921 -1.75023 -1.075 0
M  V30 3186 H 312.151 -1.39836 -3.60531 0
M  V30 3187 H 313.84 -1.81651 -3.62985 0
M  V30 3188 H 314.606 -4.08374 -2.6164 0
M  V30 3189 H 310.485 -3.12883 -3.38564 0
M  V30 3190 H 314.029 -6.48404 -2.57328 0
M  V30 3191 H 309.926 -5.52052 -3.34528 0
M  V30 3192 H 310.694 -7.5803 -3.0876 0
M  V30 3193 N 313.357 1.07166 -1.15556 0
M  V30 3194 C 314.304 2.14417 -0.854055 0
M  V30 3195 C 315.274 1.64965 0.193806 0
M  V30 3196 O 316.459 1.90703 0.0609443 0
M  V30 3197 C 313.599 3.43304 -0.351574 0
M  V30 3198 C 312.712 4.06537 -1.46123 0
M  V30 3199 C 311.847 5.23266 -0.914677 0
M  V30 3200 C 310.886 5.78464 -2.00114 0
M  V30 3201 N 310.023 6.86521 -1.47083 0
M  V30 3202 H 314.863 2.39548 -1.77259 0
M  V30 3203 H 312.4 1.17543 -0.884425 0
M  V30 3204 H 314.358 4.17179 -0.0419409 0
M  V30 3205 H 312.988 3.18419 0.530037 0
M  V30 3206 H 312.04 3.30297 -1.88701 0
M  V30 3207 H 313.352 4.43567 -2.28144 0
M  V30 3208 H 312.506 6.04131 -0.557698 0
M  V30 3209 H 311.245 4.87658 -0.0636583 0
M  V30 3210 H 310.25 4.96243 -2.36692 0
M  V30 3211 H 311.475 6.16126 -2.85597 0
M  V30 3212 H 309.421 6.52849 -0.642198 0
M  V30 3213 H 309.338 7.22446 -2.22729 0
M  V30 3214 H 310.606 7.71087 -1.14215 0
M  V30 3215 N 314.835 0.952656 1.25548 0
M  V30 3216 C 315.798 0.475794 2.24207 0
M  V30 3217 C 316.798 -0.419428 1.55234 0
M  V30 3218 O 317.988 -0.216994 1.72843 0
M  V30 3219 C 315.12 -0.312814 3.39462 0
M  V30 3220 H 316.313 1.34779 2.67908 0
M  V30 3221 H 313.866 0.735739 1.37901 0
M  V30 3222 H 314.601 -1.20257 3.01179 0
M  V30 3223 H 314.386 0.329404 3.90714 0
M  V30 3224 H 315.876 -0.635986 4.12729 0
M  V30 3225 N 316.313 -1.40141 0.720998 0
M  V30 3226 C 317.26 -2.30688 0.071919 0
M  V30 3227 C 318.23 -1.48476 -0.744584 0
M  V30 3228 O 319.415 -1.77201 -0.707423 0
M  V30 3229 C 316.555 -3.34724 -0.839855 0
M  V30 3230 C 315.668 -4.31998 -0.0122438 0
M  V30 3231 C 314.803 -5.23102 -0.923995 0
M  V30 3232 C 313.842 -6.12033 -0.0907969 0
M  V30 3233 N 312.979 -6.95537 -0.957718 0
M  V30 3234 H 317.819 -2.85628 0.849755 0
M  V30 3235 H 315.356 -1.40653 0.430726 0
M  V30 3236 H 317.314 -3.93618 -1.38279 0
M  V30 3237 H 315.944 -2.81274 -1.58381 0
M  V30 3238 H 314.996 -3.74841 0.64794 0
M  V30 3239 H 316.308 -4.94772 0.632595 0
M  V30 3240 H 315.462 -5.86953 -1.53527 0
M  V30 3241 H 314.201 -4.60615 -1.60264 0
M  V30 3242 H 313.206 -5.47207 0.533377 0
M  V30 3243 H 314.431 -6.76581 0.584428 0
M  V30 3244 H 312.377 -6.35633 -1.62192 0
M  V30 3245 H 312.294 -7.55099 -0.36904 0
M  V30 3246 H 313.562 -7.63832 -1.555 0
M  V30 3247 N 317.792 -0.46758 -1.50504 0
M  V30 3248 C 319.208 -0.121533 -1.59137 0
M  V30 3249 C 319.408 1.3717 -1.47603 0
M  V30 3250 O 318.464 2.14464 -1.33272 0
M  V30 3251 C 319.777 -0.6686 -2.93173 0
M  V30 3252 C 321.325 -0.631716 -3.06559 0
M  V30 3253 C 321.8 -1.15627 -4.43164 0
M  V30 3254 N 323.291 -1.11553 -4.49567 0
M  V30 3255 C 324.026 -1.49195 -5.5365 0
M  V30 3256 N 323.522 -1.94269 -6.65005 0
M  V30 3257 N 325.315 -1.4082 -5.44175 0
M  V30 3258 H 317.466 -1.4388 -1.56245 0
M  V30 3259 H 319.729 -0.594784 -0.738198 0
M  V30 3260 H 319.435 -1.71453 -3.07078 0
M  V30 3261 H 319.309 -0.11021 -3.77039 0
M  V30 3262 H 321.696 0.405297 -2.92304 0
M  V30 3263 H 321.777 -1.22687 -2.24458 0
M  V30 3264 H 321.421 -2.1919 -4.58168 0
M  V30 3265 H 321.351 -0.537365 -5.23851 0
M  V30 3266 H 323.842 -0.784895 -3.69659 0
M  V30 3267 H 324.155 -2.21148 -7.40482 0
M  V30 3268 H 322.5 -1.98219 -6.66134 0
M  V30 3269 H 325.691 -1.0545 -4.56068 0
M  V30 3270 H 325.864 -1.70481 -6.25172 0
M  V30 3271 N 319.27 1.56325 -0.20005 0
M  V30 3272 C 320.202 2.16555 0.750771 0
M  V30 3273 C 321.215 1.12871 1.1732 0
M  V30 3274 O 322.404 1.39943 1.10807 0
M  V30 3275 C 319.504 2.71684 2.02586 0
M  V30 3276 C 318.677 4.00321 1.76244 0
M  V30 3277 C 317.736 4.40227 2.88248 0
M  V30 3278 O 316.762 5.07552 2.57642 0
M  V30 3279 N 317.964 4.04138 4.16717 0
M  V30 3280 H 320.729 2.98772 0.235685 0
M  V30 3281 H 318.29 1.6189 -0.0182594 0
M  V30 3282 H 320.282 2.95363 2.76664 0
M  V30 3283 H 318.852 1.93893 2.45202 0
M  V30 3284 H 318.072 3.84723 0.85919 0
M  V30 3285 H 319.36 4.84279 1.56048 0
M  V30 3286 H 318.758 3.49993 4.44434 0
M  V30 3287 H 317.315 4.32756 4.87407 0
M  V30 3288 N 320.748 -0.0735177 1.57428 0
M  V30 3289 C 322.159 -0.625551 1.75908 0
M  V30 3290 C 322.51 -1.78 0.825261 0
M  V30 3291 O 321.635 -2.16398 0.00893964 0
M  V30 3292 C 322.23 -1.14155 3.18989 0
M  V30 3293 C 320.789 -1.63946 3.38819 0
M  V30 3294 C 319.936 -0.558151 2.71625 0
M  V30 3295 H 322.887 0.152647 1.57964 0
M  V30 3296 H 322.908 -2.0104 3.23053 0
M  V30 3297 H 322.42 -0.301116 3.8693 0
M  V30 3298 H 320.521 -2.50321 2.7599 0
M  V30 3299 H 320.634 -1.71759 4.47253 0
M  V30 3300 H 318.998 -1.00278 2.34129 0
M  V30 3301 H 319.781 0.272071 3.4222 0
M  V30 3302 N 322.226 -1.5378 -0.344866 0
M  V30 3303 C 323.173 -1.81676 -1.42346 0
M  V30 3304 C 324.143 -0.662376 -1.52321 0
M  V30 3305 O 325.328 -0.906675 -1.67881 0
M  V30 3306 C 322.468 -2.03087 -2.79015 0
M  V30 3307 C 321.581 -3.30799 -2.77842 0
M  V30 3308 C 320.716 -3.42285 -4.0622 0
M  V30 3309 C 319.755 -4.6395 -3.9927 0
M  V30 3310 N 318.892 -4.72477 -5.19336 0
M  V30 3311 H 323.732 -2.73703 -1.17858 0
M  V30 3312 H 321.269 -1.35568 -0.570949 0
M  V30 3313 H 323.227 -2.1349 -3.58438 0
M  V30 3314 H 321.857 -1.14375 -3.01858 0
M  V30 3315 H 320.909 -3.29244 -1.90533 0
M  V30 3316 H 322.221 -4.20314 -2.68584 0
M  V30 3317 H 321.375 -3.52113 -4.94066 0
M  V30 3318 H 320.114 -2.50823 -4.18258 0
M  V30 3319 H 319.119 -4.54201 -3.09809 0
M  V30 3320 H 320.344 -5.56775 -3.88817 0
M  V30 3321 H 318.29 -3.83924 -5.3192 0
M  V30 3322 H 318.207 -5.55927 -5.12329 0
M  V30 3323 H 319.475 -4.86613 -6.08957 0
M  V30 3324 N 323.704 0.605807 -1.45491 0
M  V30 3325 C 324.634 1.72709 -1.57143 0
M  V30 3326 C 325.615 1.6476 -0.422884 0
M  V30 3327 O 326.8 1.83132 -0.646247 0
M  V30 3328 C 323.93 3.11316 -1.53948 0
M  V30 3329 C 322.884 3.34077 -2.67537 0
M  V30 3330 C 322.21 4.72975 -2.49397 0
M  V30 3331 C 323.51 3.24158 -4.09535 0
M  V30 3332 H 325.204 1.63214 -2.51001 0
M  V30 3333 H 322.75 0.78379 -1.208 0
M  V30 3334 H 324.703 3.89557 -1.60696 0
M  V30 3335 H 323.427 3.21655 -0.566205 0
M  V30 3336 H 322.086 2.58227 -2.6022 0
M  V30 3337 H 321.734 4.8005 -1.50205 0
M  V30 3338 H 321.434 4.8916 -3.25571 0
M  V30 3339 H 322.958 5.53414 -2.58002 0
M  V30 3340 H 324.372 3.92271 -4.18086 0
M  V30 3341 H 322.769 3.51872 -4.86113 0
M  V30 3342 H 323.839 2.2157 -4.31317 0
M  V30 3343 N 325.182 1.32811 0.848464 0
M  V30 3344 C 326.092 1.24278 1.98978 0
M  V30 3345 C 327.108 0.155176 1.73307 0
M  V30 3346 O 328.284 0.376999 1.9784 0
M  V30 3347 C 325.349 0.972444 3.32783 0
M  V30 3348 C 324.41 2.14911 3.71634 0
M  V30 3349 C 323.643 1.89157 4.99054 0
M  V30 3350 O 323.866 0.837165 5.64223 0
M  V30 3351 O 322.8 2.75433 5.35183 0
M  V30 3352 H 326.626 2.20238 2.09115 0
M  V30 3353 H 324.211 1.12762 0.980052 0
M  V30 3354 H 326.093 0.838432 4.12975 0
M  V30 3355 H 324.768 0.043051 3.23671 0
M  V30 3356 H 323.675 2.33862 2.91992 0
M  V30 3357 H 325.008 3.06151 3.85399 0
M  V30 3358 N 326.66 -1.06551 1.16123 0
M  V30 3359 C 327.607 -2.13961 0.865414 0
M  V30 3360 C 328.577 -1.65066 -0.185055 0
M  V30 3361 O 329.762 -1.90732 -0.05083 0
M  V30 3362 C 326.902 -3.43113 0.369776 0
M  V30 3363 C 326.015 -4.05756 1.48276 0
M  V30 3364 C 325.15 -5.22773 0.942414 0
M  V30 3365 C 324.189 -5.77395 2.03179 0
M  V30 3366 N 323.326 -6.85731 1.50721 0
M  V30 3367 H 328.166 -2.38605 1.78527 0
M  V30 3368 H 325.703 -1.17072 0.890646 0
M  V30 3369 H 327.661 -4.17151 0.0640643 0
M  V30 3370 H 326.291 -3.18695 -0.513143 0
M  V30 3371 H 325.343 -3.29292 1.9045 0
M  V30 3372 H 326.655 -4.42351 2.30493 0
M  V30 3373 H 325.809 -6.03827 0.589729 0
M  V30 3374 H 324.548 -4.87618 0.0895191 0
M  V30 3375 H 323.553 -4.94981 2.3932 0
M  V30 3376 H 324.778 -6.14603 2.8886 0
M  V30 3377 H 322.724 -6.52499 0.676811 0
M  V30 3378 H 322.641 -7.21254 2.26557 0
M  V30 3379 H 323.909 -7.7047 1.18303 0
M  V30 3380 N 328.138 -0.959301 -1.25041 0
M  V30 3381 C 329.068 -0.501388 -2.28053 0
M  V30 3382 C 330.049 0.454673 -1.63911 0
M  V30 3383 O 331.234 0.352618 -1.90972 0
M  V30 3384 C 328.364 0.217224 -3.4662 0
M  V30 3385 C 327.318 -0.654034 -4.22973 0
M  V30 3386 C 326.644 0.195589 -5.34342 0
M  V30 3387 C 327.944 -1.93447 -4.85155 0
M  V30 3388 H 329.638 -1.36238 -2.66608 0
M  V30 3389 H 327.184 -0.656534 -1.28163 0
M  V30 3390 H 329.137 0.548732 -4.17812 0
M  V30 3391 H 327.861 1.1125 -3.07068 0
M  V30 3392 H 326.52 -0.968693 -3.5357 0
M  V30 3393 H 326.168 1.09076 -4.91031 0
M  V30 3394 H 325.868 -0.384091 -5.86343 0
M  V30 3395 H 327.392 0.521958 -6.08365 0
M  V30 3396 H 328.806 -1.66908 -5.48466 0
M  V30 3397 H 327.203 -2.46018 -5.47353 0
M  V30 3398 H 328.273 -2.63466 -4.07079 0
M  V30 3399 N 329.616 1.39756 -0.72842 0
M  V30 3400 C 330.563 2.30647 -0.0841519 0
M  V30 3401 C 331.533 1.48869 0.7367 0
M  V30 3402 O 332.718 1.77574 0.698015 0
M  V30 3403 C 329.858 3.35165 0.822091 0
M  V30 3404 C 328.971 4.31999 -0.0106663 0
M  V30 3405 C 328.106 5.23585 0.896241 0
M  V30 3406 C 327.145 6.12072 0.0583381 0
M  V30 3407 N 326.282 6.96035 0.920818 0
M  V30 3408 H 331.122 2.85173 -0.864891 0
M  V30 3409 H 328.659 1.40422 -0.438179 0
M  V30 3410 H 330.617 3.94345 1.36189 0
M  V30 3411 H 329.247 2.8211 1.56888 0
M  V30 3412 H 328.299 3.74492 -0.66781 0
M  V30 3413 H 329.611 4.9443 -0.658825 0
M  V30 3414 H 328.765 5.87759 1.50412 0
M  V30 3415 H 327.504 4.61459 1.57819 0
M  V30 3416 H 326.509 5.46916 -0.562389 0
M  V30 3417 H 327.734 6.76261 -0.6203 0
M  V30 3418 H 325.68 6.36485 1.58818 0
M  V30 3419 H 325.597 7.55284 0.32899 0
M  V30 3420 H 326.865 7.64646 1.51447 0
M  V30 3421 N 331.094 0.475555 1.50254 0
M  V30 3422 C 332.024 -0.30611 2.31485 0
M  V30 3423 C 333.005 -0.986228 1.38591 0
M  V30 3424 O 334.19 -0.982541 1.67511 0
M  V30 3425 C 331.32 -1.38588 3.1845 0
M  V30 3426 C 330.274 -0.827115 4.19932 0
M  V30 3427 C 329.6 -2.00551 4.95665 0
M  V30 3428 C 330.9 0.16463 5.2204 0
M  V30 3429 H 332.594 0.371866 2.97082 0
M  V30 3430 H 330.14 0.180282 1.42867 0
M  V30 3431 H 332.093 -1.94023 3.74076 0
M  V30 3432 H 330.817 -2.09269 2.50747 0
M  V30 3433 H 329.476 -0.294702 3.65414 0
M  V30 3434 H 329.124 -2.6994 4.2443 0
M  V30 3435 H 328.824 -1.63784 5.64313 0
M  V30 3436 H 330.348 -2.56468 5.54127 0
M  V30 3437 H 331.762 -0.300699 5.72511 0
M  V30 3438 H 330.159 0.446813 5.98434 0
M  V30 3439 H 331.229 1.08905 4.72512 0
M  V30 3440 N 332.573 -1.56217 0.208337 0
M  V30 3441 C 333.521 -2.21053 -0.723769 0
M  V30 3442 C 334.515 -1.18578 -1.20978 0
M  V30 3443 O 335.721 -1.36691 -1.17114 0
M  V30 3444 H 332.096 -0.708595 -0.251788 0
M  V30 3445 H 334.067 -2.98006 -0.153365 0
M  V30 3446 C 332.816 -2.89417 -1.927 0
M  V30 3447 H 332.139 -3.68019 -1.56212 0
M  V30 3448 H 333.579 -3.38201 -2.55727 0
M  V30 3449 C 332.038 -1.91166 -2.77411 0
M  V30 3450 O 332.568 -1.42026 -3.75754 0
M  V30 3451 N 330.774 -1.59105 -2.43175 0
M  V30 3452 H 330.321 -1.99259 -1.63259 0
M  V30 3453 H 330.279 -0.936255 -3.00136 0
M  V30 3454 N 334.051 0.0651679 -1.57465 0
M  V30 3455 C 335.014 1.06117 -2.03155 0
M  V30 3456 C 336.014 1.31204 -0.929632 0
M  V30 3457 O 337.204 1.26813 -1.19432 0
M  V30 3458 C 334.336 2.4032 -2.41783 0
M  V30 3459 H 335.529 0.667231 -2.92383 0
M  V30 3460 H 333.082 0.311075 -1.53173 0
M  V30 3461 H 333.817 2.84532 -1.55601 0
M  V30 3462 H 333.602 2.23451 -3.22199 0
M  V30 3463 H 335.092 3.11898 -2.77685 0
M  V30 3464 N 335.529 1.53961 0.336706 0
M  V30 3465 C 336.778 1.70751 1.07363 0
M  V30 3466 C 337.091 0.481061 1.89592 0
M  V30 3467 O 338.297 0.530046 2.66276 0
M  V30 3468 C 336.753 3.01965 1.95818 0
M  V30 3469 C 336.361 4.31971 1.18764 0
M  V30 3470 C 338.105 3.28121 2.69327 0
M  V30 3471 C 336.012 5.54255 2.06289 0
M  V30 3472 H 334.942 0.636292 0.404535 0
M  V30 3473 H 337.593 1.80459 0.332681 0
M  V30 3474 H 335.975 2.86132 2.7376 0
M  V30 3475 H 337.149 4.5853 0.456849 0
M  V30 3476 H 335.464 4.12481 0.569946 0
M  V30 3477 H 338.061 4.16673 3.35094 0
M  V30 3478 H 338.404 2.45426 3.36261 0
M  V30 3479 H 338.937 3.44762 1.98454 0
M  V30 3480 H 335.676 6.39513 1.43885 0
M  V30 3481 H 335.196 5.31935 2.77138 0
M  V30 3482 H 336.875 5.90159 2.65182 0
M  V30 3483 N 337.007 -0.598083 1.45811 0
M  V30 3484 C 337.917 -1.73632 1.57763 0
M  V30 3485 C 338.933 -1.67763 0.461676 0
M  V30 3486 O 340.109 -1.87949 0.723685 0
M  V30 3487 C 337.174 -3.10114 1.55018 0
M  V30 3488 C 336.235 -3.27364 2.77726 0
M  V30 3489 C 335.468 -4.57334 2.75102 0
M  V30 3490 O 335.691 -5.40258 1.8297 0
M  V30 3491 O 334.625 -4.77502 3.66437 0
M  V30 3492 H 338.451 -1.66498 2.53992 0
M  V30 3493 H 336.036 -0.763308 1.28429 0
M  V30 3494 H 337.918 -3.9141 1.56129 0
M  V30 3495 H 336.593 -3.17718 0.619431 0
M  V30 3496 H 335.5 -2.45619 2.82174 0
M  V30 3497 H 336.833 -3.24641 3.69958 0
M  V30 3498 N 338.485 -1.33259 -0.841409 0
M  V30 3499 C 339.417 -1.19136 -1.95804 0
M  V30 3500 C 340.43 -0.122965 -1.62335 0
M  V30 3501 O 341.619 -0.373154 -1.74556 0
M  V30 3502 C 338.719 -0.804268 -3.29218 0
M  V30 3503 C 337.892 -1.96376 -3.90839 0
M  V30 3504 C 336.951 -1.55806 -5.02604 0
M  V30 3505 O 335.977 -2.27203 -5.21888 0
M  V30 3506 N 337.179 -0.461609 -5.78662 0
M  V30 3507 H 339.944 -2.15326 -2.08458 0
M  V30 3508 H 337.505 -1.25971 -1.017 0
M  V30 3509 H 339.497 -0.51501 -4.0141 0
M  V30 3510 H 338.067 0.0668809 -3.12528 0
M  V30 3511 H 337.287 -2.41879 -3.11269 0
M  V30 3512 H 338.575 -2.73966 -4.28742 0
M  V30 3513 H 337.973 0.132343 -5.65545 0
M  V30 3514 H 336.53 -0.232013 -6.51387 0
M  V30 3515 N 339.963 1.05934 -1.16686 0
M  V30 3516 C 340.896 2.1295 -0.820225 0
M  V30 3517 C 341.874 1.61242 0.209722 0
M  V30 3518 O 343.058 1.88271 0.0929688 0
M  V30 3519 C 340.185 3.3797 -0.22223 0
M  V30 3520 C 339.231 4.08488 -1.22637 0
M  V30 3521 S 340.064 4.58015 -2.77457 0
M  V30 3522 C 341.22 5.86292 -2.19117 0
M  V30 3523 H 341.453 2.42025 -1.72659 0
M  V30 3524 H 338.986 1.18423 -0.990722 0
M  V30 3525 H 340.944 4.10335 0.116322 0
M  V30 3526 H 339.605 3.07045 0.66196 0
M  V30 3527 H 338.798 4.98291 -0.756455 0
M  V30 3528 H 338.4 3.42154 -1.51019 0
M  V30 3529 H 340.692 6.59246 -1.56209 0
M  V30 3530 H 341.635 6.38019 -3.07144 0
M  V30 3531 H 342.043 5.40497 -1.62858 0
M  V30 3532 N 341.441 0.965919 1.2453 0
M  V30 3533 C 342.374 0.4393 2.23932 0
M  V30 3534 C 343.352 -0.485615 1.55179 0
M  V30 3535 O 344.536 -0.417402 1.83821 0
M  V30 3536 C 341.663 -0.366042 3.36716 0
M  V30 3537 C 340.709 0.5009 4.23548 0
M  V30 3538 S 341.542 1.94002 4.99123 0
M  V30 3539 C 342.698 1.14342 6.15367 0
M  V30 3540 H 342.931 1.28167 2.68254 0
M  V30 3541 H 340.464 0.770819 1.33782 0
M  V30 3542 H 342.422 -0.824724 4.0213 0
M  V30 3543 H 341.083 -1.18337 2.90956 0
M  V30 3544 H 340.276 -0.117341 5.03863 0
M  V30 3545 H 339.878 0.89524 3.63127 0
M  V30 3546 H 342.17 0.397572 6.76332 0
M  V30 3547 H 343.113 1.92089 6.81548 0
M  V30 3548 H 343.521 0.668579 5.60527 0
M  V30 3549 N 342.919 -1.39368 0.735821 0
M  V30 3550 C 343.882 -2.2896 0.104874 0
M  V30 3551 C 344.882 -1.46347 -0.666274 0
M  V30 3552 O 346.072 -1.67014 -0.49517 0
M  V30 3553 C 343.204 -3.29857 -0.860656 0
M  V30 3554 H 344.397 -2.86259 0.894205 0
M  V30 3555 H 341.95 -1.48029 0.501704 0
M  V30 3556 H 342.685 -2.77615 -1.67631 0
M  V30 3557 H 342.47 -3.9087 -0.310327 0
M  V30 3558 H 343.96 -3.96893 -1.29867 0
M  V30 3559 N 344.397 -0.483516 -1.5 0
M  V30 3560 C 345.644 0.0671597 -2.02389 0
M  V30 3561 C 345.972 1.38597 -1.36459 0
M  V30 3562 O 345.227 1.89634 -0.483458 0
M  V30 3563 C 345.526 0.286226 -3.56252 0
M  V30 3564 C 345.192 -0.952416 -4.40726 0
M  V30 3565 C 343.854 -1.29199 -4.63531 0
M  V30 3566 C 346.206 -1.77655 -4.89988 0
M  V30 3567 C 343.534 -2.45553 -5.32842 0
M  V30 3568 C 345.886 -2.93147 -5.60578 0
M  V30 3569 C 344.55 -3.27505 -5.81633 0
M  V30 3570 H 343.82 0.0245755 -0.740592 0
M  V30 3571 H 346.467 -0.640124 -1.80485 0
M  V30 3572 H 344.772 1.07587 -3.76739 0
M  V30 3573 H 346.469 0.726473 -3.94365 0
M  V30 3574 H 343.059 -0.677881 -4.23205 0
M  V30 3575 H 347.243 -1.52737 -4.72213 0
M  V30 3576 H 342.499 -2.72431 -5.47349 0
M  V30 3577 H 346.673 -3.57344 -5.97727 0
M  V30 3578 H 344.3 -4.1777 -6.35116 0
M  V30 3579 N 345.875 1.56104 -0.216619 0
M  V30 3580 C 346.785 2.23694 0.706982 0
M  V30 3581 C 347.801 1.24295 1.21765 0
M  V30 3582 O 348.977 1.57094 1.2603 0
M  V30 3583 C 346.042 2.8998 1.90033 0
M  V30 3584 C 345.103 4.04708 1.43213 0
M  V30 3585 C 344.336 4.67824 2.56859 0
M  V30 3586 O 344.559 4.29913 3.74874 0
M  V30 3587 O 343.493 5.56905 2.28343 0
M  V30 3588 H 347.319 3.03272 0.161235 0
M  V30 3589 H 344.904 1.49394 0.0136177 0
M  V30 3590 H 346.786 3.31837 2.59735 0
M  V30 3591 H 345.461 2.13365 2.43428 0
M  V30 3592 H 344.368 3.6743 0.70327 0
M  V30 3593 H 345.701 4.83051 0.944615 0
M  V30 3594 N 347.353 -0.0568162 1.57498 0
M  V30 3595 C 348.581 -0.765626 1.92213 0
M  V30 3596 C 348.996 -1.70353 0.813961 0
M  V30 3597 O 348.353 -1.81268 -0.211701 0
M  V30 3598 C 348.404 -1.5465 3.2675 0
M  V30 3599 O 348.125 -0.646278 4.33307 0
M  V30 3600 C 349.626 -2.35497 3.75574 0
M  V30 3601 H 346.846 -0.216835 0.634999 0
M  V30 3602 H 349.39 -0.0226146 2.04487 0
M  V30 3603 H 347.545 -2.24165 3.15957 0
M  V30 3604 H 347.959 -1.19093 5.108 0
M  V30 3605 H 349.433 -2.85722 4.72299 0
M  V30 3606 H 349.91 -3.15692 3.05344 0
M  V30 3607 H 350.516 -1.7111 3.8936 0
M  V30 3608 N 348.832 -1.54138 -0.328536 0
M  V30 3609 C 349.795 -1.82462 -1.38709 0
M  V30 3610 C 350.795 -0.696229 -1.44946 0
M  V30 3611 O 351.985 -0.964535 -1.4506 0
M  V30 3612 C 349.117 -1.98018 -2.77492 0
M  V30 3613 H 350.31 -2.77037 -1.14851 0
M  V30 3614 H 347.863 -1.45779 -0.563751 0
M  V30 3615 H 348.598 -1.05637 -3.06613 0
M  V30 3616 H 348.383 -2.80124 -2.74359 0
M  V30 3617 H 349.873 -2.21396 -3.54081 0
M  V30 3618 N 350.31 0.590341 -1.46126 0
M  V30 3619 C 351.257 1.69994 -1.56111 0
M  V30 3620 C 352.227 1.61065 -0.405867 0
M  V30 3621 O 353.412 1.8039 -0.621613 0
M  V30 3622 C 350.552 3.08326 -1.55013 0
M  V30 3623 C 349.665 3.27936 -2.81215 0
M  V30 3624 C 348.8 4.56473 -2.71673 0
M  V30 3625 C 347.839 4.694 -3.92849 0
M  V30 3626 N 346.976 5.89254 -3.81738 0
M  V30 3627 H 351.816 1.60797 -2.50895 0
M  V30 3628 H 349.353 0.783799 -1.24479 0
M  V30 3629 H 351.311 3.88383 -1.52362 0
M  V30 3630 H 349.941 3.16439 -0.637667 0
M  V30 3631 H 348.993 2.41536 -2.93879 0
M  V30 3632 H 350.305 3.33357 -3.71045 0
M  V30 3633 H 349.459 5.44748 -2.67085 0
M  V30 3634 H 348.198 4.53477 -1.7947 0
M  V30 3635 H 347.203 3.79544 -3.97777 0
M  V30 3636 H 348.428 4.7418 -4.86138 0
M  V30 3637 H 346.374 5.87271 -2.92317 0
M  V30 3638 H 346.291 5.95911 -4.65217 0
M  V30 3639 H 347.559 6.79981 -3.81112 0
M  V30 3640 N 351.788 1.33704 0.83433 0
M  V30 3641 C 353.036 1.25169 1.58673 0
M  V30 3642 C 353.357 -0.18127 1.94156 0
M  V30 3643 O 352.627 -1.11113 1.6134 0
M  V30 3644 H 351.207 0.4603 0.58833 0
M  V30 3645 H 353.869 1.67478 0.996847 0
M  V30 3646 H 352.965 1.84856 2.51465 0
M  V30 3647 N 353.266 -1.05314 1.17247 0
M  V30 3648 C 354.513 -1.78293 0.960091 0
M  V30 3649 C 354.841 -1.87658 -0.51136 0
M  V30 3650 O 354.096 -1.3718 -1.39571 0
M  V30 3651 C 354.395 -3.2229 1.54479 0
M  V30 3652 C 354.061 -3.32987 3.04024 0
M  V30 3653 C 352.723 -3.35613 3.44844 0
M  V30 3654 C 355.075 -3.34102 4.00031 0
M  V30 3655 C 352.403 -3.36982 4.8027 0
M  V30 3656 C 354.755 -3.3701 5.35357 0
M  V30 3657 C 353.419 -3.37923 5.75642 0
M  V30 3658 H 352.689 -0.652422 0.351322 0
M  V30 3659 H 355.336 -1.23782 1.46117 0
M  V30 3660 H 353.641 -3.7972 0.965391 0
M  V30 3661 H 355.338 -3.77376 1.35603 0
M  V30 3662 H 351.928 -3.31655 2.71483 0
M  V30 3663 H 356.112 -3.31276 3.69554 0
M  V30 3664 H 351.368 -3.35999 5.10798 0
M  V30 3665 H 355.542 -3.36822 6.09528 0
M  V30 3666 H 353.169 -3.38738 6.80559 0
M  V30 3667 N 354.744 -0.972509 -1.24016 0
M  V30 3668 C 355.99 -0.637978 -1.92504 0
M  V30 3669 C 356.323 0.825383 -1.75787 0
M  V30 3670 O 355.598 1.59442 -1.11393 0
M  V30 3671 C 355.881 -1.01942 -3.45369 0
M  V30 3672 C 355.734 -2.53983 -3.71231 0
M  V30 3673 C 357.053 -0.55751 -4.36555 0
M  V30 3674 H 354.172 -0.233248 -0.699117 0
M  V30 3675 H 356.814 -1.21238 -1.46292 0
M  V30 3676 H 354.964 -0.530656 -3.84859 0
M  V30 3677 H 356.636 -3.10374 -3.41271 0
M  V30 3678 H 354.879 -2.96968 -3.16216 0
M  V30 3679 H 355.55 -2.75723 -4.78206 0
M  V30 3680 H 358.026 -0.977029 -4.04467 0
M  V30 3681 H 356.902 -0.85292 -5.42233 0
M  V30 3682 H 357.163 0.542328 -4.38761 0
M  V30 3683 N 356.222 1.38976 -0.743202 0
M  V30 3684 C 357.185 2.28901 -0.117014 0
M  V30 3685 C 358.185 1.46698 0.658503 0
M  V30 3686 O 359.375 1.67274 0.486305 0
M  V30 3687 C 356.507 3.30309 0.84315 0
M  V30 3688 H 357.7 2.8578 -0.909373 0
M  V30 3689 H 355.253 1.47761 -0.509547 0
M  V30 3690 H 355.988 2.785 1.66157 0
M  V30 3691 H 355.773 3.91029 0.289594 0
M  V30 3692 H 357.263 3.97577 1.2776 0
M  V30 3693 N 357.7 0.491464 1.49741 0
M  V30 3694 C 358.948 -0.0563141 2.02022 0
M  V30 3695 C 359.269 -1.38363 1.37407 0
M  V30 3696 O 358.539 -1.88702 0.526166 0
M  V30 3697 H 357.119 -0.0238014 0.746621 0
M  V30 3698 H 359.781 0.646533 1.83864 0
M  V30 3699 H 358.877 -0.192967 3.11503 0
M  V30 3700 N 359.178 -1.55987 0.224894 0
M  V30 3701 C 360.11 -2.17722 -0.716224 0
M  V30 3702 C 361.123 -1.14723 -1.15509 0
M  V30 3703 O 362.312 -1.41688 -1.08567 0
M  V30 3704 C 359.412 -2.74873 -1.98238 0
M  V30 3705 C 358.585 -4.03074 -1.69853 0
M  V30 3706 C 357.644 -4.44757 -2.81208 0
M  V30 3707 O 356.67 -5.11587 -2.49534 0
M  V30 3708 N 357.872 -4.10716 -4.10235 0
M  V30 3709 H 360.637 -2.99109 -0.188123 0
M  V30 3710 H 358.198 -1.6184 0.0440123 0
M  V30 3711 H 360.19 -2.99727 -2.7193 0
M  V30 3712 H 358.76 -1.9777 -2.42086 0
M  V30 3713 H 357.98 -3.86041 -0.797875 0
M  V30 3714 H 359.268 -4.86701 -1.48324 0
M  V30 3715 H 358.666 -3.57019 -4.38809 0
M  V30 3716 H 357.223 -4.40455 -4.80461 0
M  V30 3717 N 360.656 0.0484629 -1.57525 0
M  V30 3718 C 361.619 1.03956 -2.04269 0
M  V30 3719 C 362.619 1.30211 -0.943496 0
M  V30 3720 O 363.809 1.25539 -1.20771 0
M  V30 3721 C 360.941 2.37742 -2.44319 0
M  V30 3722 H 362.134 0.636182 -2.93075 0
M  V30 3723 H 359.687 0.294811 -1.53494 0
M  V30 3724 H 360.422 2.82866 -1.5861 0
M  V30 3725 H 360.207 2.20021 -3.24551 0
M  V30 3726 H 361.697 3.08936 -2.80978 0
M  V30 3727 N 362.134 1.5431 0.320358 0
M  V30 3728 C 363.382 1.72327 1.05583 0
M  V30 3729 C 363.703 0.50149 1.88441 0
M  V30 3730 O 362.973 -0.48448 1.89815 0
M  V30 3731 H 361.553 0.635387 0.3928 0
M  V30 3732 H 364.215 1.91621 0.356019 0
M  V30 3733 H 363.311 2.60426 1.72003 0
M  V30 3734 N 363.613 -0.582584 1.46437 0
M  V30 3735 C 365.024 -1.1647 1.45916 0
M  V30 3736 C 365.375 -1.95177 0.200077 0
M  V30 3737 O 364.5 -2.04874 -0.696819 0
M  V30 3738 C 365.095 -2.11885 2.64367 0
M  V30 3739 C 363.654 -2.65421 2.66887 0
M  V30 3740 C 362.801 -1.41294 2.38603 0
M  V30 3741 H 365.752 -0.370514 1.54314 0
M  V30 3742 H 365.773 -2.9535 2.39892 0
M  V30 3743 H 365.285 -1.54573 3.5599 0
M  V30 3744 H 363.386 -3.26602 1.79338 0
M  V30 3745 H 363.499 -3.08147 3.66854 0
M  V30 3746 H 361.863 -1.71109 1.88663 0
M  V30 3747 H 362.646 -0.858125 3.32402 0
M  V30 3748 N 365.091 -1.34144 -0.827227 0
M  V30 3749 C 366.039 -1.25364 -1.95925 0
M  V30 3750 C 367.033 -0.152608 -1.68711 0
M  V30 3751 O 368.239 -0.317311 -1.77181 0
M  V30 3752 H 364.614 -0.389342 -0.643364 0
M  V30 3753 H 366.585 -2.21045 -2.00454 0
M  V30 3754 C 365.334 -1.02158 -3.32354 0
M  V30 3755 H 364.657 -1.86111 -3.5384 0
M  V30 3756 H 366.097 -1.00048 -4.12027 0
M  V30 3757 C 364.556 0.275244 -3.35774 0
M  V30 3758 O 365.086 1.27806 -3.80826 0
M  V30 3759 N 363.292 0.306853 -2.88975 0
M  V30 3760 H 362.839 -0.509777 -2.52506 0
M  V30 3761 H 362.797 1.17432 -2.91646 0
M  V30 3762 N 366.569 1.04691 -1.17803 0
M  V30 3763 C 367.799 1.81183 -0.992788 0
M  V30 3764 C 368.207 1.8347 0.462098 0
M  V30 3765 O 367.55 1.2643 1.33271 0
M  V30 3766 C 367.612 3.28363 -1.46349 0
M  V30 3767 C 367.276 3.49749 -2.94151 0
M  V30 3768 C 368.273 3.41456 -3.92051 0
M  V30 3769 C 365.958 3.76548 -3.32441 0
M  V30 3770 C 367.952 3.59656 -5.26238 0
M  V30 3771 C 365.639 3.94396 -4.66792 0
M  V30 3772 C 366.637 3.8595 -5.635 0
M  V30 3773 O 366.325 4.03294 -6.9542 0
M  V30 3774 H 366.057 0.577622 -0.351182 0
M  V30 3775 H 368.611 1.32876 -1.5663 0
M  V30 3776 H 366.841 3.77609 -0.833574 0
M  V30 3777 H 368.53 3.86395 -1.24313 0
M  V30 3778 H 369.296 3.20723 -3.63815 0
M  V30 3779 H 365.175 3.82224 -2.57732 0
M  V30 3780 H 368.719 3.52979 -6.01707 0
M  V30 3781 H 364.616 4.14622 -4.94731 0
M  V30 3782 H 365.384 4.2049 -7.02232 0
M  V30 3783 N 368.047 0.979072 1.23499 0
M  V30 3784 C 369.458 0.684391 1.73704 0
M  V30 3785 C 369.809 -0.799448 1.79174 0
M  V30 3786 O 368.934 -1.62531 1.42873 0
M  V30 3787 C 369.529 1.23564 3.15464 0
M  V30 3788 C 368.088 0.99063 3.6313 0
M  V30 3789 C 367.235 1.36416 2.41425 0
M  V30 3790 H 370.186 1.15307 1.09041 0
M  V30 3791 H 370.207 0.607417 3.7562 0
M  V30 3792 H 369.719 2.31561 3.1145 0
M  V30 3793 H 367.82 -0.0733136 3.72528 0
M  V30 3794 H 367.933 1.64427 4.5 0
M  V30 3795 H 366.297 0.782616 2.42378 0
M  V30 3796 H 367.08 2.45387 2.40083 0
M  V30 3797 N 369.525 -1.3858 0.750561 0
M  V30 3798 C 370.488 -2.28836 0.129152 0
M  V30 3799 C 371.488 -1.47045 -0.650714 0
M  V30 3800 O 372.678 -1.6753 -0.477428 0
M  V30 3801 C 369.81 -3.30751 -0.825622 0
M  V30 3802 H 371.003 -2.85294 0.924516 0
M  V30 3803 H 368.556 -1.47489 0.517376 0
M  V30 3804 H 369.291 -2.79378 -1.64677 0
M  V30 3805 H 369.076 -3.91177 -0.268852 0
M  V30 3806 H 370.566 -3.98249 -1.2565 0
M  V30 3807 N 371.003 -0.499398 -1.49478 0
M  V30 3808 C 372.414 -0.051215 -1.8663 0
M  V30 3809 C 372.765 1.36238 -1.41186 0
M  V30 3810 O 371.89 2.01502 -0.789051 0
M  V30 3811 C 372.485 -0.0861651 -3.3869 0
M  V30 3812 C 371.044 0.30667 -3.75149 0
M  V30 3813 C 370.191 -0.459397 -2.73468 0
M  V30 3814 H 373.142 -0.712264 -1.41818 0
M  V30 3815 H 373.163 0.709507 -3.73826 0
M  V30 3816 H 372.675 -1.11512 -3.71735 0
M  V30 3817 H 370.776 1.33892 -3.47712 0
M  V30 3818 H 370.889 -0.0116669 -4.79099 0
M  V30 3819 H 369.253 0.0905645 -2.54539 0
M  V30 3820 H 370.036 -1.4884 -3.09357 0
M  V30 3821 N 372.481 1.55866 -0.233164 0
M  V30 3822 C 373.727 1.98897 0.395959 0
M  V30 3823 C 374.06 1.12091 1.58585 0
M  V30 3824 O 373.335 0.181182 1.93654 0
M  V30 3825 C 373.618 3.50658 0.819224 0
M  V30 3826 C 373.471 4.48233 -0.375109 0
M  V30 3827 C 374.79 4.07135 1.67121 0
M  V30 3828 H 371.909 0.723102 0.142451 0
M  V30 3829 H 374.551 1.87082 -0.331725 0
M  V30 3830 H 372.701 3.60857 1.43925 0
M  V30 3831 H 374.373 4.50031 -1.01341 0
M  V30 3832 H 372.616 4.21624 -1.02058 0
M  V30 3833 H 373.287 5.51988 -0.0358328 0
M  V30 3834 H 375.763 3.99952 1.14795 0
M  V30 3835 H 374.639 5.13615 1.93625 0
M  V30 3836 H 374.9 3.54736 2.63846 0
M  V30 3837 N 373.959 -0.0401083 1.57549 0
M  V30 3838 C 374.869 -1.06133 2.0922 0
M  V30 3839 C 375.885 -1.40356 1.0284 0
M  V30 3840 O 377.061 -1.49897 1.34509 0
M  V30 3841 C 374.126 -2.34658 2.55218 0
M  V30 3842 C 373.187 -2.07117 3.76033 0
M  V30 3843 C 372.42 -3.29514 4.19829 0
M  V30 3844 O 372.643 -4.39794 3.63232 0
M  V30 3845 O 371.577 -3.15863 5.12362 0
M  V30 3846 H 375.403 -0.652244 2.96613 0
M  V30 3847 H 372.988 -0.256368 1.47184 0
M  V30 3848 H 374.87 -3.10239 2.85184 0
M  V30 3849 H 373.545 -2.74883 1.70941 0
M  V30 3850 H 372.452 -1.29139 3.51104 0
M  V30 3851 H 373.785 -1.71754 4.61261 0
M  V30 3852 N 375.437 -1.54477 -0.31217 0
M  V30 3853 C 376.4 -1.83923 -1.36766 0
M  V30 3854 C 377.4 -0.711563 -1.44199 0
M  V30 3855 O 378.59 -0.979866 -1.44029 0
M  V30 3856 C 375.722 -2.0095 -2.75376 0
M  V30 3857 H 376.915 -2.78239 -1.11906 0
M  V30 3858 H 374.468 -1.46369 -0.548257 0
M  V30 3859 H 375.203 -1.08883 -3.05475 0
M  V30 3860 H 374.988 -2.83018 -2.71373 0
M  V30 3861 H 376.478 -2.2514 -3.51713 0
M  V30 3862 N 376.915 0.57481 -1.46744 0
M  V30 3863 C 378.164 1.32898 -1.51727 0
M  V30 3864 C 378.477 1.948 -0.176692 0
M  V30 3865 O 379.683 2.71299 -0.104385 0
M  V30 3866 C 378.139 2.40901 -2.67385 0
M  V30 3867 C 377.747 1.85266 -4.07898 0
M  V30 3868 C 379.491 3.17609 -2.81646 0
M  V30 3869 C 377.398 2.90945 -5.14883 0
M  V30 3870 H 376.328 0.499631 -0.564699 0
M  V30 3871 H 378.979 0.612536 -1.72975 0
M  V30 3872 H 377.361 3.15379 -2.39483 0
M  V30 3873 H 378.535 1.17278 -4.45626 0
M  V30 3874 H 376.85 1.21199 -3.98371 0
M  V30 3875 H 379.447 3.96493 -3.58744 0
M  V30 3876 H 379.79 3.70696 -1.89448 0
M  V30 3877 H 380.323 2.50239 -3.09233 0
M  V30 3878 H 377.062 2.42736 -6.089 0
M  V30 3879 H 376.582 3.57398 -4.81691 0
M  V30 3880 H 378.261 3.54755 -5.41071 0
M  V30 3881 N 378.394 1.34581 0.820102 0
M  V30 3882 C 379.341 1.2639 1.93117 0
M  V30 3883 C 380.311 0.138554 1.65521 0
M  V30 3884 O 381.496 0.320004 1.88097 0
M  V30 3885 C 378.636 1.02812 3.29429 0
M  V30 3886 C 377.749 2.24146 3.693 0
M  V30 3887 C 376.884 1.93829 4.94574 0
M  V30 3888 C 375.923 3.1129 5.27034 0
M  V30 3889 N 375.06 2.80838 6.43486 0
M  V30 3890 H 379.9 2.21408 1.99455 0
M  V30 3891 H 377.437 1.10077 0.975784 0
M  V30 3892 H 379.395 0.871788 4.0799 0
M  V30 3893 H 378.025 0.114612 3.22596 0
M  V30 3894 H 377.077 2.50691 2.86109 0
M  V30 3895 H 378.389 3.11899 3.89257 0
M  V30 3896 H 377.543 1.74948 5.80929 0
M  V30 3897 H 376.282 1.03341 4.76626 0
M  V30 3898 H 375.287 3.30764 4.39175 0
M  V30 3899 H 376.512 4.02561 5.4692 0
M  V30 3900 H 374.458 1.92929 6.26988 0
M  V30 3901 H 374.375 3.62123 6.63629 0
M  V30 3902 H 375.643 2.65467 7.32903 0
M  V30 3903 N 379.872 -1.04064 1.18357 0
M  V30 3904 C 381.1 -1.80916 1.00384 0
M  V30 3905 C 381.515 -1.83414 -0.447738 0
M  V30 3906 O 380.872 -1.26962 -1.31099 0
M  V30 3907 C 380.923 -3.26516 1.55144 0
M  V30 3908 O 380.644 -3.2424 2.94618 0
M  V30 3909 C 382.145 -4.20013 1.41789 0
M  V30 3910 H 379.365 -0.569728 0.354474 0
M  V30 3911 H 381.909 -1.31151 1.56906 0
M  V30 3912 H 380.064 -3.73512 1.02798 0
M  V30 3913 H 380.478 -4.15452 3.20156 0
M  V30 3914 H 381.952 -5.20111 1.84901 0
M  V30 3915 H 382.429 -4.37667 0.36661 0
M  V30 3916 H 383.035 -3.78881 1.93207 0
M  V30 3917 N 381.35 -0.985608 -1.22978 0
M  V30 3918 C 382.599 -0.652881 -1.90841 0
M  V30 3919 C 382.912 0.817842 -1.77681 0
M  V30 3920 O 384.118 1.26185 -2.40395 0
M  V30 3921 C 382.574 -1.11717 -3.42122 0
M  V30 3922 C 382.182 -2.6126 -3.63933 0
M  V30 3923 C 383.926 -0.85843 -4.1573 0
M  V30 3924 C 381.833 -3.0133 -5.08876 0
M  V30 3925 H 380.763 -0.240491 -0.714619 0
M  V30 3926 H 383.414 -1.1942 -1.39324 0
M  V30 3927 H 381.796 -0.504027 -3.92779 0
M  V30 3928 H 382.97 -3.27858 -3.23799 0
M  V30 3929 H 381.285 -2.84937 -3.03644 0
M  V30 3930 H 383.882 -1.13359 -5.22546 0
M  V30 3931 H 384.225 0.205461 -4.15793 0
M  V30 3932 H 384.758 -1.43341 -3.71077 0
M  V30 3933 H 381.497 -4.06864 -5.13947 0
M  V30 3934 H 381.017 -2.3943 -5.49939 0
M  V30 3935 H 382.696 -2.92224 -5.77247 0
M  V30 3936 N 382.828 1.3818 -0.7579 0
M  V30 3937 C 383.76 2.2901 -0.0932177 0
M  V30 3938 C 384.773 1.47958 0.679136 0
M  V30 3939 O 385.962 1.70773 0.519514 0
M  V30 3940 C 383.062 3.26953 0.89192 0
M  V30 3941 C 382.235 4.37045 0.176303 0
M  V30 3942 C 381.294 5.15148 1.07281 0
M  V30 3943 O 380.32 5.66616 0.541728 0
M  V30 3944 N 381.522 5.28542 2.40049 0
M  V30 3945 H 384.287 2.86694 -0.873303 0
M  V30 3946 H 381.848 1.50007 -0.609054 0
M  V30 3947 H 383.84 3.76083 1.49479 0
M  V30 3948 H 382.41 2.70136 1.57306 0
M  V30 3949 H 381.63 3.89493 -0.607328 0
M  V30 3950 H 382.918 5.07801 -0.318718 0
M  V30 3951 H 382.316 4.88285 2.85647 0
M  V30 3952 H 380.873 5.8103 2.95376 0
M  V30 3953 N 384.306 0.507319 1.49211 0
M  V30 3954 C 385.253 -0.267728 2.29242 0
M  V30 3955 C 386.223 -0.954609 1.35928 0
M  V30 3956 O 387.408 -0.960046 1.64887 0
M  V30 3957 C 384.548 -1.32243 3.18756 0
M  V30 3958 C 383.661 -0.64669 4.27132 0
M  V30 3959 C 382.796 -1.68238 5.03855 0
M  V30 3960 C 381.835 -0.98885 6.0406 0
M  V30 3961 N 380.972 -1.96903 6.73924 0
M  V30 3962 H 385.812 0.420968 2.95012 0
M  V30 3963 H 383.349 0.219443 1.45454 0
M  V30 3964 H 385.307 -1.94599 3.69036 0
M  V30 3965 H 383.937 -1.97981 2.54958 0
M  V30 3966 H 382.989 0.0902926 3.80293 0
M  V30 3967 H 384.301 -0.101058 4.98698 0
M  V30 3968 H 383.455 -2.38081 5.58034 0
M  V30 3969 H 382.194 -2.26187 4.32077 0
M  V30 3970 H 381.199 -0.276222 5.49106 0
M  V30 3971 H 382.424 -0.415767 6.77826 0
M  V30 3972 H 380.37 -2.53803 6.04913 0
M  V30 3973 H 380.287 -1.47423 7.41487 0
M  V30 3974 H 381.555 -2.66015 7.32705 0
M  V30 3975 N 385.784 -1.5574 0.241426 0
M  V30 3976 C 386.747 -2.19877 -0.647063 0
M  V30 3977 C 387.747 -1.16642 -1.10686 0
M  V30 3978 O 388.937 -1.41757 -1.01245 0
M  V30 3979 C 386.069 -2.83797 -1.88871 0
M  V30 3980 H 387.262 -2.99772 -0.087574 0
M  V30 3981 H 384.815 -1.56298 -0.00813574 0
M  V30 3982 H 385.55 -2.07824 -2.48957 0
M  V30 3983 H 385.335 -3.59414 -1.56728 0
M  V30 3984 H 386.825 -3.32898 -2.52129 0
M  V30 3985 N 387.262 0.0317525 -1.57568 0
M  V30 3986 C 388.225 1.01783 -2.0536 0
M  V30 3987 C 389.225 1.29203 -0.957253 0
M  V30 3988 O 390.415 1.24251 -1.22095 0
M  V30 3989 C 387.547 2.35137 -2.46827 0
M  V30 3990 H 388.74 0.605062 -2.93733 0
M  V30 3991 H 386.293 0.278514 -1.53799 0
M  V30 3992 H 387.028 2.81168 -1.61602 0
M  V30 3993 H 386.813 2.16566 -3.26866 0
M  V30 3994 H 388.303 3.05938 -2.84239 0
M  V30 3995 N 388.74 1.54641 0.303973 0
M  V30 3996 C 389.688 1.86137 1.39484 0
M  V30 3997 C 390.682 0.734854 1.52631 0
M  V30 3998 O 391.888 0.918803 1.54784 0
M  V30 3999 H 388.263 0.590324 0.465856 0
M  V30 4000 H 390.234 2.77324 1.10154 0
M  V30 4001 C 388.983 2.12274 2.75382 0
M  V30 4002 H 388.306 2.98429 2.66046 0
M  V30 4003 H 389.746 2.38254 3.5073 0
M  V30 4004 C 388.205 0.920365 3.24085 0
M  V30 4005 O 388.735 0.139377 4.01458 0
M  V30 4006 N 386.941 0.726566 2.81371 0
M  V30 4007 H 386.488 1.36332 2.18567 0
M  V30 4008 H 386.446 -0.0763799 3.14307 0
M  V30 4009 N 390.218 -0.567019 1.47046 0
M  V30 4010 C 391.465 -1.32462 1.53167 0
M  V30 4011 C 391.793 -1.93571 0.189841 0
M  V30 4012 O 391.048 -1.77865 -0.816243 0
M  V30 4013 C 391.347 -2.4623 2.59047 0
M  V30 4014 C 391.013 -2.03014 4.02612 0
M  V30 4015 C 389.675 -1.90944 4.41694 0
M  V30 4016 C 392.027 -1.69895 4.92732 0
M  V30 4017 C 389.355 -1.44035 5.68745 0
M  V30 4018 C 391.707 -1.2446 6.20236 0
M  V30 4019 C 390.371 -1.10979 6.5821 0
M  V30 4020 H 389.641 -0.484713 0.560477 0
M  V30 4021 H 392.288 -0.636888 1.80599 0
M  V30 4022 H 390.593 -3.20517 2.25335 0
M  V30 4023 H 392.29 -3.04427 2.61008 0
M  V30 4024 H 388.88 -2.13348 3.71726 0
M  V30 4025 H 393.064 -1.78098 4.63244 0
M  V30 4026 H 388.32 -1.32254 5.96925 0
M  V30 4027 H 392.494 -0.978924 6.89485 0
M  V30 4028 H 390.121 -0.744078 7.5655 0
M  V30 4029 N 391.696 -1.35014 -0.812953 0
M  V30 4030 C 392.944 -1.27678 -1.56661 0
M  V30 4031 C 393.265 0.150359 -1.94419 0
M  V30 4032 O 392.535 1.08532 -1.63088 0
M  V30 4033 H 391.115 -0.469602 -0.580933 0
M  V30 4034 H 393.777 -1.69043 -0.970076 0
M  V30 4035 H 392.873 -1.88833 -2.48492 0
M  V30 4036 N 393.175 1.03435 -1.18907 0
M  V30 4037 C 394.591 1.28973 -0.940111 0
M  V30 4038 C 394.791 1.97676 0.390691 0
M  V30 4039 O 393.847 2.26127 1.12352 0
M  V30 4040 C 395.16 2.14221 -2.11021 0
M  V30 4041 C 396.708 2.27547 -2.14922 0
M  V30 4042 C 397.183 3.16164 -3.31367 0
M  V30 4043 N 398.674 3.23752 -3.31269 0
M  V30 4044 C 399.409 3.92495 -4.18014 0
M  V30 4045 N 398.905 4.63515 -5.14904 0
M  V30 4046 N 400.698 3.88838 -4.05908 0
M  V30 4047 H 392.849 0.57252 -2.04538 0
M  V30 4048 H 395.112 0.315184 -0.894071 0
M  V30 4049 H 394.818 1.71054 -3.073 0
M  V30 4050 H 394.692 3.14919 -2.0762 0
M  V30 4051 H 397.079 2.69947 -1.19217 0
M  V30 4052 H 397.16 1.26418 -2.22378 0
M  V30 4053 H 396.804 2.74474 -4.27348 0
M  V30 4054 H 396.734 4.17339 -3.21148 0
M  V30 4055 H 399.225 2.73167 -2.61129 0
M  V30 4056 H 399.538 5.13583 -5.77453 0
M  V30 4057 H 397.883 4.62398 -5.18857 0
M  V30 4058 H 401.074 3.32491 -3.29495 0
M  V30 4059 H 401.247 4.4214 -4.73726 0
M  V30 4060 N 394.653 0.992116 1.22453 0
M  V30 4061 C 395.93 0.583508 1.86694 0
M  V30 4062 C 396.31 -0.9392 1.89056 0
M  V30 4063 O 395.658 -1.82081 1.38053 0
M  V30 4064 C 395.868 1.20304 3.2761 0
M  V30 4065 C 397.216 1.30308 4.0411 0
M  V30 4066 O 398.24 1.15737 3.36873 0
M  V30 4067 O 397.099 1.53615 5.24466 0
M  V30 4068 H 394.193 0.198129 0.802916 0
M  V30 4069 H 396.739 1.08794 1.30238 0
M  V30 4070 H 395.511 2.24461 3.2052 0
M  V30 4071 H 395.134 0.684144 3.9167 0
M  V30 4072 N 396.131 -1.37776 0.765217 0
M  V30 4073 C 397.078 -2.30342 0.145274 0
M  V30 4074 C 398.048 -1.5077 -0.696971 0
M  V30 4075 O 399.233 -1.79362 -0.650689 0
M  V30 4076 C 396.373 -3.37227 -0.732939 0
M  V30 4077 C 395.486 -4.31819 0.125199 0
M  V30 4078 C 394.621 -5.25777 -0.757107 0
M  V30 4079 C 393.66 -6.12012 0.103963 0
M  V30 4080 N 392.797 -6.98232 -0.735953 0
M  V30 4081 H 397.637 -2.8278 0.940195 0
M  V30 4082 H 395.174 -1.39211 0.475255 0
M  V30 4083 H 397.132 -3.97818 -1.25686 0
M  V30 4084 H 395.762 -2.86171 -1.49353 0
M  V30 4085 H 394.814 -3.7259 0.766865 0
M  V30 4086 H 396.126 -4.92509 0.789683 0
M  V30 4087 H 395.28 -5.91541 -1.34776 0
M  V30 4088 H 394.019 -4.65481 -1.45529 0
M  V30 4089 H 393.024 -5.45233 0.707197 0
M  V30 4090 H 394.249 -6.74379 0.799381 0
M  V30 4091 H 392.195 -6.40472 -1.41887 0
M  V30 4092 H 392.112 -7.55891 -0.128624 0
M  V30 4093 H 393.38 -7.68393 -1.31121 0
M  V30 4094 N 397.609 -0.515225 -1.4894 0
M  V30 4095 C 398.572 0.244681 -2.2789 0
M  V30 4096 C 399.572 0.881166 -1.34507 0
M  V30 4097 O 400.762 0.743497 -1.57537 0
M  V30 4098 C 397.894 1.35247 -3.12923 0
M  V30 4099 H 399.087 -0.448289 -2.96531 0
M  V30 4100 H 396.64 -0.270656 -1.53939 0
M  V30 4101 H 397.375 2.07916 -2.48881 0
M  V30 4102 H 397.16 0.901374 -3.81599 0
M  V30 4103 H 398.65 1.88737 -3.72516 0
M  V30 4104 N 399.087 1.5561 -0.249682 0
M  V30 4105 C 400.017 2.24477 0.642826 0
M  V30 4106 C 400.998 1.22601 1.17911 0
M  V30 4107 O 402.183 1.5126 1.21795 0
M  V30 4108 C 399.313 2.94638 1.83863 0
M  V30 4109 C 398.267 4.03227 1.435 0
M  V30 4110 C 397.593 4.60828 2.71186 0
M  V30 4111 C 398.893 5.18796 0.604002 0
M  V30 4112 H 400.587 2.99321 0.0685625 0
M  V30 4113 H 398.133 1.43965 0.0315363 0
M  V30 4114 H 400.086 3.41517 2.46868 0
M  V30 4115 H 398.81 2.17287 2.43832 0
M  V30 4116 H 397.469 3.57121 0.828275 0
M  V30 4117 H 397.117 3.80174 3.29358 0
M  V30 4118 H 396.817 5.34132 2.44901 0
M  V30 4119 H 398.341 5.10442 3.35084 0
M  V30 4120 H 399.755 5.61883 1.13842 0
M  V30 4121 H 398.152 5.98506 0.437097 0
M  V30 4122 H 399.222 4.83384 -0.383147 0
M  V30 4123 N 400.565 -0.0233959 1.57583 0
M  V30 4124 C 401.475 -1.03907 2.10334 0
M  V30 4125 C 402.491 -1.39257 1.04323 0
M  V30 4126 O 403.667 -1.48462 1.36091 0
M  V30 4127 C 400.732 -2.31938 2.57693 0
M  V30 4128 C 399.793 -2.03117 3.78209 0
M  V30 4129 C 399.026 -3.25043 4.233 0
M  V30 4130 O 399.249 -4.35916 3.67876 0
M  V30 4131 O 398.183 -3.10411 5.15683 0
M  V30 4132 H 402.009 -0.620748 2.97288 0
M  V30 4133 H 399.594 -0.240743 1.47448 0
M  V30 4134 H 401.476 -3.07196 2.88458 0
M  V30 4135 H 400.151 -2.73055 1.73847 0
M  V30 4136 H 399.058 -1.25408 3.52454 0
M  V30 4137 H 400.391 -1.66852 4.63056 0
M  V30 4138 N 402.043 -1.548 -0.295768 0
M  V30 4139 C 403.289 -1.74588 -1.03184 0
M  V30 4140 C 403.622 -0.532962 -1.86744 0
M  V30 4141 O 402.897 0.469872 -1.88739 0
M  V30 4142 C 403.18 -3.03791 -1.93347 0
M  V30 4143 C 403.033 -4.35392 -1.12933 0
M  V30 4144 C 404.352 -3.28892 -2.92435 0
M  V30 4145 H 401.471 -0.635221 -0.373715 0
M  V30 4146 H 404.113 -1.87519 -0.30606 0
M  V30 4147 H 402.263 -2.92898 -2.55232 0
M  V30 4148 H 403.935 -4.58211 -0.532943 0
M  V30 4149 H 402.178 -4.31642 -0.432168 0
M  V30 4150 H 402.849 -5.22074 -1.79284 0
M  V30 4151 H 405.325 -3.39429 -2.4068 0
M  V30 4152 H 404.201 -4.20603 -3.52682 0
M  V30 4153 H 404.462 -2.47437 -3.6637 0
M  V30 4154 N 403.521 0.559213 -1.47345 0
M  V30 4155 C 404.431 1.69388 -1.62311 0
M  V30 4156 C 405.447 1.6648 -0.505993 0
M  V30 4157 O 406.623 1.85964 -0.773262 0
M  V30 4158 C 403.688 3.05894 -1.63185 0
M  V30 4159 C 402.749 3.19885 -2.86307 0
M  V30 4160 C 401.982 4.49879 -2.87131 0
M  V30 4161 O 402.205 5.35217 -1.97229 0
M  V30 4162 O 401.139 4.67618 -3.78968 0
M  V30 4163 H 404.965 1.59706 -2.58317 0
M  V30 4164 H 402.55 0.728989 -1.30407 0
M  V30 4165 H 404.432 3.87133 -1.66451 0
M  V30 4166 H 403.107 3.15964 -0.70345 0
M  V30 4167 H 402.014 2.38052 -2.88587 0
M  V30 4168 H 403.347 3.14718 -3.78435 0
M  V30 4169 N 404.999 1.35443 0.805782 0
M  V30 4170 C 405.962 1.28301 1.89925 0
M  V30 4171 C 406.962 0.194285 1.59622 0
M  V30 4172 O 408.152 0.448036 1.6834 0
M  V30 4173 C 405.284 0.984997 3.2636 0
M  V30 4174 H 406.477 2.2553 1.97677 0
M  V30 4175 H 404.03 1.19979 1.00173 0
M  V30 4176 H 404.765 0.016603 3.24296 0
M  V30 4177 H 404.55 1.77269 3.4974 0
M  V30 4178 H 406.04 0.960651 4.064 0
M  V30 4179 N 406.477 -1.02803 1.19454 0
M  V30 4180 C 407.44 -2.09264 0.934955 0
M  V30 4181 C 408.44 -1.60576 -0.0849015 0
M  V30 4182 O 409.63 -1.73554 0.149933 0
M  V30 4183 C 406.762 -3.38482 0.40531 0
M  V30 4184 H 407.955 -2.33726 1.87916 0
M  V30 4185 H 405.508 -1.19426 1.00832 0
M  V30 4186 H 406.243 -3.19689 -0.544899 0
M  V30 4187 H 406.028 -3.75142 1.14065 0
M  V30 4188 H 407.518 -4.16894 0.242806 0
M  V30 4189 N 407.956 -0.998596 -1.21925 0
M  V30 4190 C 409.204 -0.676325 -1.90448 0
M  V30 4191 C 409.525 0.794719 -1.78071 0
M  V30 4192 O 408.795 1.5701 -1.17152 0
M  V30 4193 H 407.375 -0.247165 -0.704925 0
M  V30 4194 H 410.037 -1.26633 -1.48156 0
M  V30 4195 H 409.133 -0.943858 -2.97486 0
M  V30 4196 N 409.434 1.37368 -0.772513 0
M  V30 4197 C 410.681 1.99673 -0.337182 0
M  V30 4198 C 411.009 1.61324 1.0865 0
M  V30 4199 O 410.264 0.851377 1.7621 0
M  V30 4200 C 410.563 3.54817 -0.428876 0
M  V30 4201 C 410.229 4.12936 -1.81092 0
M  V30 4202 C 408.891 4.28523 -2.1891 0
M  V30 4203 C 411.243 4.44801 -2.71664 0
M  V30 4204 C 408.571 4.73277 -3.46735 0
M  V30 4205 C 410.923 4.90981 -3.98899 0
M  V30 4206 C 409.587 5.04773 -4.36761 0
M  V30 4207 H 408.857 0.730656 -0.123384 0
M  V30 4208 H 411.504 1.64124 -0.986686 0
M  V30 4209 H 409.809 3.90618 0.304167 0
M  V30 4210 H 411.506 4.00933 -0.0733334 0
M  V30 4211 H 408.096 4.01233 -1.50699 0
M  V30 4212 H 412.28 4.32344 -2.43706 0
M  V30 4213 H 407.536 4.82142 -3.75964 0
M  V30 4214 H 411.71 5.14603 -4.69208 0
M  V30 4215 H 409.337 5.39211 -5.35868 0
M  V30 4216 N 410.912 0.523116 1.48665 0
M  V30 4217 C 411.875 -0.232592 2.28017 0
M  V30 4218 C 412.875 -0.874021 1.34972 0
M  V30 4219 O 414.065 -0.735132 1.57929 0
M  V30 4220 C 411.197 -1.33586 3.13636 0
M  V30 4221 H 412.39 0.464008 2.96289 0
M  V30 4222 H 409.943 0.278816 1.53793 0
M  V30 4223 H 410.678 -2.06593 2.4998 0
M  V30 4224 H 410.463 -0.881125 3.82071 0
M  V30 4225 H 411.953 -1.86759 3.73511 0
M  V30 4226 N 412.39 -1.55475 0.257931 0
M  V30 4227 C 413.337 -2.21837 -0.636939 0
M  V30 4228 C 414.307 -1.18596 -1.16294 0
M  V30 4229 O 415.492 -1.47081 -1.21539 0
M  V30 4230 C 412.632 -2.9301 -1.82317 0
M  V30 4231 C 411.745 -4.10931 -1.33265 0
M  V30 4232 C 410.88 -4.69791 -2.47931 0
M  V30 4233 C 409.919 -5.7994 -1.95796 0
M  V30 4234 N 409.056 -6.32935 -3.0387 0
M  V30 4235 H 413.896 -2.9793 -0.0643591 0
M  V30 4236 H 411.433 -1.47086 -0.0200031 0
M  V30 4237 H 413.391 -3.3248 -2.52018 0
M  V30 4238 H 412.021 -2.1937 -2.36805 0
M  V30 4239 H 411.073 -3.76699 -0.52931 0
M  V30 4240 H 412.385 -4.90417 -0.910654 0
M  V30 4241 H 411.539 -5.11892 -3.25656 0
M  V30 4242 H 410.278 -3.89545 -2.93438 0
M  V30 4243 H 409.283 -5.37305 -1.16546 0
M  V30 4244 H 410.508 -6.62043 -1.51246 0
M  V30 4245 H 408.454 -5.55591 -3.48791 0
M  V30 4246 H 408.371 -7.07645 -2.66035 0
M  V30 4247 H 409.639 -6.79695 -3.81621 0
M  V30 4248 N 413.868 0.0150385 -1.57593 0
M  V30 4249 C 414.798 1.01047 -2.10503 0
M  V30 4250 C 415.779 1.36816 -1.01071 0
M  V30 4251 O 416.964 1.45455 -1.28672 0
M  V30 4252 C 414.094 2.30708 -2.59598 0
M  V30 4253 C 413.048 2.09142 -3.73421 0
M  V30 4254 C 412.374 3.44685 -4.08774 0
M  V30 4255 C 413.674 1.46619 -5.01298 0
M  V30 4256 H 415.368 0.569978 -2.93925 0
M  V30 4257 H 412.914 0.272724 -1.41394 0
M  V30 4258 H 414.867 3.00687 -2.95238 0
M  V30 4259 H 413.591 2.76843 -1.73279 0
M  V30 4260 H 412.25 1.41592 -3.38153 0
M  V30 4261 H 411.898 3.88495 -3.195 0
M  V30 4262 H 411.598 3.31077 -4.8545 0
M  V30 4263 H 413.122 4.16004 -4.4696 0
M  V30 4264 H 414.536 2.06535 -5.34805 0
M  V30 4265 H 412.933 1.43544 -5.82679 0
M  V30 4266 H 414.003 0.433611 -4.82957 0
M  V30 4267 N 415.346 1.54954 0.287554 0
M  V30 4268 C 416.309 1.86076 1.33823 0
M  V30 4269 C 417.309 0.734414 1.43049 0
M  V30 4270 O 418.499 1.00266 1.42452 0
M  V30 4271 C 415.631 2.05305 2.72144 0
M  V30 4272 H 416.824 2.79984 1.07465 0
M  V30 4273 H 414.377 1.47223 0.524902 0
M  V30 4274 H 415.112 1.1373 3.03704 0
M  V30 4275 H 414.897 2.873 2.66836 0
M  V30 4276 H 416.387 2.30706 3.48087 0
M  V30 4277 N 416.824 -0.551391 1.4764 0
M  V30 4278 C 417.771 -1.65796 1.60563 0
M  V30 4279 C 418.741 -1.59932 0.448428 0
M  V30 4280 O 419.926 -1.78679 0.669222 0
M  V30 4281 C 417.066 -3.04108 1.63133 0
M  V30 4282 C 416.179 -3.20365 2.89811 0
M  V30 4283 C 415.314 -4.49109 2.8368 0
M  V30 4284 C 414.353 -4.58819 4.05156 0
M  V30 4285 N 413.49 -5.78926 3.97227 0
M  V30 4286 H 418.33 -1.54088 2.5507 0
M  V30 4287 H 415.867 -0.75052 1.26513 0
M  V30 4288 H 417.825 -3.84207 1.62606 0
M  V30 4289 H 416.455 -3.14637 0.721341 0
M  V30 4290 H 415.507 -2.33659 3.00179 0
M  V30 4291 H 416.819 -3.23402 3.79753 0
M  V30 4292 H 415.973 -5.37475 2.81434 0
M  V30 4293 H 414.712 -4.4856 1.91431 0
M  V30 4294 H 413.717 -3.68864 4.077 0
M  V30 4295 H 414.942 -4.61124 4.98539 0
M  V30 4296 H 412.888 -5.79314 3.07785 0
M  V30 4297 H 412.805 -5.83367 4.80853 0
M  V30 4298 H 414.073 -6.69637 3.99007 0
M  V30 4299 N 418.302 -1.35869 -0.798587 0
M  V30 4300 C 419.53 -1.32722 -1.58722 0
M  V30 4301 C 419.945 0.0935631 -1.88568 0
M  V30 4302 O 419.302 1.04784 -1.49421 0
M  V30 4303 C 419.353 -2.13974 -2.91371 0
M  V30 4304 O 419.074 -3.50514 -2.62815 0
M  V30 4305 C 420.575 -2.18504 -3.85708 0
M  V30 4306 H 417.795 -0.45562 -0.492596 0
M  V30 4307 H 420.339 -1.78837 -0.991843 0
M  V30 4308 H 418.494 -1.71438 -3.47402 0
M  V30 4309 H 418.908 -3.92806 -3.47568 0
M  V30 4310 H 420.382 -2.79732 -4.75872 0
M  V30 4311 H 420.859 -1.18597 -4.22885 0
M  V30 4312 H 421.465 -2.61236 -3.35612 0
M  V30 4313 N 419.78 1.02168 -1.19998 0
M  V30 4314 C 421.005 1.79833 -1.03319 0
M  V30 4315 C 421.43 1.83504 0.413281 0
M  V30 4316 O 420.788 1.26635 1.29743 0
M  V30 4317 C 420.836 3.22396 -1.61533 0
M  V30 4318 O 419.94 4.03555 -0.849519 0
M  V30 4319 H 419.281 0.554872 -0.364709 0
M  V30 4320 H 421.811 1.28542 -1.59179 0
M  V30 4321 H 421.821 3.73124 -1.65054 0
M  V30 4322 H 420.496 3.19039 -2.66809 0
M  V30 4323 H 419.073 3.62169 -0.888129 0
M  V30 4324 N 421.258 1.00505 1.21394 0
M  V30 4325 C 422.221 0.570459 2.21987 0
M  V30 4326 C 423.221 -0.353211 1.56873 0
M  V30 4327 O 424.411 -0.14349 1.73608 0
M  V30 4328 C 421.543 -0.168555 3.40483 0
M  V30 4329 H 422.736 1.46021 2.6195 0
M  V30 4330 H 420.289 0.793565 1.34656 0
M  V30 4331 H 421.024 -1.07374 3.06009 0
M  V30 4332 H 420.809 0.494823 3.88965 0
M  V30 4333 H 422.299 -0.460362 4.15055 0
M  V30 4334 N 422.737 -1.36956 0.779787 0
M  V30 4335 C 423.962 -2.04283 0.358224 0
M  V30 4336 C 424.387 -1.58422 -1.01411 0
M  V30 4337 O 423.745 -0.748179 -1.65142 0
M  V30 4338 C 423.793 -3.58152 0.419479 0
M  V30 4339 O 422.897 -4.08342 -0.577142 0
M  V30 4340 H 422.238 -0.645967 0.153698 0
M  V30 4341 H 424.768 -1.75108 1.05822 0
M  V30 4342 H 424.778 -4.07041 0.279636 0
M  V30 4343 H 423.453 -3.90886 1.42061 0
M  V30 4344 H 422.03 -3.70751 -0.399755 0
M  V30 4345 N 424.215 -0.530993 -1.48385 0
M  V30 4346 C 425.163 0.244595 -2.3131 0
M  V30 4347 C 426.157 0.93451 -1.41291 0
M  V30 4348 O 427.363 0.85878 -1.58193 0
M  V30 4349 H 423.738 0.0977472 -0.74562 0
M  V30 4350 H 425.709 -0.474369 -2.94605 0
M  V30 4351 C 424.458 1.2779 -3.23365 0
M  V30 4352 H 423.781 0.756439 -3.92579 0
M  V30 4353 H 425.221 1.79198 -3.84271 0
M  V30 4354 C 423.68 2.31205 -2.45042 0
M  V30 4355 O 424.21 3.37661 -2.17596 0
M  V30 4356 N 422.416 2.04446 -2.0652 0
M  V30 4357 H 421.963 1.17891 -2.2904 0
M  V30 4358 H 421.921 2.73861 -1.54427 0
M  V30 4359 N 425.693 1.55336 -0.266172 0
M  V30 4360 C 426.933 2.01303 0.354459 0
M  V30 4361 C 427.297 1.15046 1.53715 0
M  V30 4362 O 428.498 1.50554 2.22681 0
M  V30 4363 C 426.769 3.49748 0.735579 0
M  V30 4364 S 428.328 4.1771 1.34401 0
M  V30 4365 H 425.146 0.702333 0.110674 0
M  V30 4366 H 427.748 1.91653 -0.385916 0
M  V30 4367 H 426.452 4.10181 -0.134196 0
M  V30 4368 H 425.983 3.63364 1.50764 0
M  V30 4369 H 427.998 4.20594 2.63278 0
M  V30 4370 N 427.171 -0.0066808 1.57599 0
M  V30 4371 C 428.101 -0.999296 2.11036 0
M  V30 4372 C 429.082 -1.36278 1.01795 0
M  V30 4373 O 430.267 -1.4477 1.29442 0
M  V30 4374 C 427.397 -2.29328 2.60818 0
M  V30 4375 C 426.351 -2.07159 3.74525 0
M  V30 4376 C 425.677 -3.42512 4.10596 0
M  V30 4377 C 426.977 -1.43959 5.02069 0
M  V30 4378 H 428.671 -0.554382 2.94223 0
M  V30 4379 H 426.217 -0.265221 1.41536 0
M  V30 4380 H 428.17 -2.99117 2.96828 0
M  V30 4381 H 426.894 -2.7592 1.74745 0
M  V30 4382 H 425.553 -1.39797 3.38899 0
M  V30 4383 H 425.201 -3.86795 3.21556 0
M  V30 4384 H 424.901 -3.28498 4.87199 0
M  V30 4385 H 426.425 -4.13628 4.4916 0
M  V30 4386 H 427.839 -2.03696 5.35893 0
M  V30 4387 H 426.236 -1.40452 5.83432 0
M  V30 4388 H 427.306 -0.407992 4.83181 0
M  V30 4389 N 428.649 -1.55105 -0.279332 0
M  V30 4390 C 429.898 -1.74618 -1.00952 0
M  V30 4391 C 430.211 -0.551096 -1.87676 0
M  V30 4392 O 431.417 -0.628507 -2.64125 0
M  V30 4393 C 429.873 -3.09025 -1.84476 0
M  V30 4394 C 429.481 -4.36081 -1.0265 0
M  V30 4395 C 431.225 -3.37891 -2.56963 0
M  V30 4396 C 429.132 -5.6153 -1.85576 0
M  V30 4397 H 428.062 -0.650868 -0.38064 0
M  V30 4398 H 430.713 -1.81569 -0.265475 0
M  V30 4399 H 429.095 -2.96095 -2.62952 0
M  V30 4400 H 430.269 -4.59909 -0.286354 0
M  V30 4401 H 428.584 -4.14312 -0.416464 0
M  V30 4402 H 431.181 -4.28822 -3.19399 0
M  V30 4403 H 431.524 -2.57737 -3.26921 0
M  V30 4404 H 432.057 -3.5189 -1.85522 0
M  V30 4405 H 428.796 -6.44413 -1.2005 0
M  V30 4406 H 428.316 -5.41854 -2.57204 0
M  V30 4407 H 429.995 -5.99594 -2.43096 0
M  V30 4408 N 430.127 0.543554 -1.4793 0
M  V30 4409 C 431.375 1.29752 -1.54948 0
M  V30 4410 C 431.696 1.93764 -0.219242 0
M  V30 4411 O 430.966 1.80639 0.75805 0
M  V30 4412 H 429.546 0.481874 -0.570795 0
M  V30 4413 H 432.208 0.633636 -1.84312 0
M  V30 4414 H 431.304 2.08392 -2.32334 0
M  V30 4415 N 431.605 1.3629 0.791371 0
M  V30 4416 C 432.535 1.33137 1.91825 0
M  V30 4417 C 433.516 0.203168 1.68882 0
M  V30 4418 O 434.701 0.400509 1.90025 0
M  V30 4419 C 431.831 1.11793 3.28816 0
M  V30 4420 C 430.785 2.21417 3.66277 0
M  V30 4421 C 430.111 1.85218 5.01596 0
M  V30 4422 C 431.411 3.63489 3.75064 0
M  V30 4423 H 433.105 2.2743 1.9472 0
M  V30 4424 H 430.651 1.09479 0.935437 0
M  V30 4425 H 432.604 1.08222 4.07266 0
M  V30 4426 H 431.328 0.139501 3.26302 0
M  V30 4427 H 429.987 2.2411 2.90121 0
M  V30 4428 H 429.635 0.859544 4.95602 0
M  V30 4429 H 429.335 2.58611 5.27631 0
M  V30 4430 H 430.859 1.832 5.82469 0
M  V30 4431 H 432.273 3.63034 4.43711 0
M  V30 4432 H 430.67 4.35771 4.12582 0
M  V30 4433 H 431.74 3.98536 2.76219 0
M  V30 4434 N 433.083 -1.0153 1.20538 0
M  V30 4435 C 434.33 -1.75149 1.01633 0
M  V30 4436 C 434.658 -1.89189 -0.451399 0
M  V30 4437 O 433.913 -1.41551 -1.35136 0
M  V30 4438 C 434.212 -3.17213 1.64654 0
M  V30 4439 C 433.878 -3.23146 3.14464 0
M  V30 4440 C 432.54 -3.24472 3.55347 0
M  V30 4441 C 434.892 -3.21207 4.10458 0
M  V30 4442 C 432.22 -3.21532 4.90748 0
M  V30 4443 C 434.572 -3.19808 5.45807 0
M  V30 4444 C 433.236 -3.19439 5.86102 0
M  V30 4445 H 432.506 -0.640914 0.3719 0
M  V30 4446 H 435.153 -1.19071 1.49981 0
M  V30 4447 H 433.458 -3.76457 1.08571 0
M  V30 4448 H 435.155 -3.72871 1.4754 0
M  V30 4449 H 431.745 -3.2285 2.81897 0
M  V30 4450 H 435.929 -3.19351 3.79906 0
M  V30 4451 H 431.185 -3.19578 5.21229 0
M  V30 4452 H 435.359 -3.1726 6.19935 0
M  V30 4453 H 432.986 -3.16915 6.90991 0
M  V30 4454 N 434.561 -1.01147 -1.20859 0
M  V30 4455 C 435.491 -0.597663 -2.25722 0
M  V30 4456 C 436.472 0.384744 -1.65692 0
M  V30 4457 O 437.657 0.271303 -1.92296 0
M  V30 4458 C 434.787 0.0700149 -3.47229 0
M  V30 4459 C 433.741 -0.832843 -4.19819 0
M  V30 4460 C 433.067 -0.0312202 -5.34691 0
M  V30 4461 C 434.367 -2.1385 -4.76514 0
M  V30 4462 H 436.061 -1.47423 -2.60589 0
M  V30 4463 H 433.607 -0.710301 -1.25263 0
M  V30 4464 H 435.56 0.37103 -4.19763 0
M  V30 4465 H 434.284 0.981259 -3.11511 0
M  V30 4466 H 432.943 -1.11778 -3.49144 0
M  V30 4467 H 432.591 0.881515 -4.95215 0
M  V30 4468 H 432.291 -0.632434 -5.84187 0
M  V30 4469 H 433.815 0.26346 -6.10031 0
M  V30 4470 H 435.229 -1.9002 -5.40893 0
M  V30 4471 H 433.626 -2.69012 -5.36426 0
M  V30 4472 H 434.696 -2.80495 -3.95538 0
M  V30 4473 N 436.039 1.36541 -0.78704 0
M  V30 4474 C 436.987 2.31965 -0.171724 0
M  V30 4475 C 437.981 1.55689 0.667631 0
M  V30 4476 O 439.187 1.70969 0.562981 0
M  V30 4477 H 435.562 0.751101 -0.0367545 0
M  V30 4478 H 437.533 2.81428 -0.992017 0
M  V30 4479 C 436.282 3.40968 0.680904 0
M  V30 4480 H 435.605 3.99775 0.0443961 0
M  V30 4481 H 437.045 4.10063 1.07815 0
M  V30 4482 C 435.504 2.82338 1.83813 0
M  V30 4483 O 436.034 2.74311 2.93456 0
M  V30 4484 N 434.24 2.39661 1.6435 0
M  V30 4485 H 433.787 2.46389 0.751668 0
M  V30 4486 H 433.745 2.00779 2.4194 0
M  V30 4487 N 437.518 0.538854 1.48102 0
M  V30 4488 C 438.795 -0.0568108 1.95517 0
M  V30 4489 C 439.175 -1.50408 1.48124 0
M  V30 4490 O 438.523 -2.17133 0.711727 0
M  V30 4491 C 438.733 0.0696262 3.48931 0
M  V30 4492 C 440.081 -0.0851202 4.24515 0
M  V30 4493 O 441.105 -0.0037347 3.562 0
M  V30 4494 O 439.964 -0.257025 5.45895 0
M  V30 4495 H 437.058 -0.0743695 0.823649 0
M  V30 4496 H 439.604 0.604081 1.58584 0
M  V30 4497 H 438.376 1.07744 3.76174 0
M  V30 4498 H 437.999 -0.629714 3.92582 0
M  V30 4499 N 438.996 -1.55193 0.274407 0
M  V30 4500 C 439.928 -2.1989 -0.646595 0
M  V30 4501 C 440.941 -1.1834 -1.11801 0
M  V30 4502 O 442.13 -1.4507 -1.04004 0
M  V30 4503 C 439.23 -2.8104 -1.89393 0
M  V30 4504 C 438.403 -4.08274 -1.56943 0
M  V30 4505 C 437.462 -4.53478 -2.66916 0
M  V30 4506 O 436.488 -5.19267 -2.33132 0
M  V30 4507 N 437.69 -4.2356 -3.9696 0
M  V30 4508 H 440.455 -2.99556 -0.0928686 0
M  V30 4509 H 438.016 -1.61618 0.0954783 0
M  V30 4510 H 440.008 -3.08226 -2.62257 0
M  V30 4511 H 438.578 -2.05372 -2.35672 0
M  V30 4512 H 437.798 -3.88384 -0.674655 0
M  V30 4513 H 439.086 -4.91173 -1.32764 0
M  V30 4514 H 438.484 -3.70799 -4.27229 0
M  V30 4515 H 437.041 -4.55518 -4.66205 0
M  V30 4516 N 440.474 -0.00167713 -1.576 0
M  V30 4517 C 441.384 1.00548 -2.1196 0
M  V30 4518 C 442.4 1.3758 -1.06526 0
M  V30 4519 O 443.576 1.46278 -1.38436 0
M  V30 4520 C 440.641 2.27809 -2.6135 0
M  V30 4521 C 439.702 1.97074 -3.81393 0
M  V30 4522 C 438.935 3.18267 -4.28417 0
M  V30 4523 O 439.158 4.30009 -3.74765 0
M  V30 4524 O 438.092 3.02167 -5.20556 0
M  V30 4525 H 441.918 0.573373 -2.98238 0
M  V30 4526 H 439.503 0.217255 -1.47812 0
M  V30 4527 H 441.385 3.02568 -2.93309 0
M  V30 4528 H 440.06 2.70254 -1.78169 0
M  V30 4529 H 438.967 1.19785 -3.54404 0
M  V30 4530 H 440.3 1.59464 -4.65652 0
M  V30 4531 N 441.952 1.55251 0.271103 0
M  V30 4532 C 442.882 1.9127 1.33933 0
M  V30 4533 C 443.863 0.77478 1.5143 0
M  V30 4534 O 445.048 1.03307 1.64442 0
M  V30 4535 C 442.178 2.18627 2.69851 0
M  V30 4536 C 441.132 3.34442 2.67081 0
M  V30 4537 C 440.458 3.47284 4.06569 0
M  V30 4538 C 441.758 4.70784 2.26185 0
M  V30 4539 H 443.452 2.80744 1.04035 0
M  V30 4540 H 440.998 1.35077 0.499017 0
M  V30 4541 H 442.951 2.42413 3.44694 0
M  V30 4542 H 441.675 1.25955 3.01335 0
M  V30 4543 H 440.334 3.10627 1.94695 0
M  V30 4544 H 439.982 2.52074 4.35279 0
M  V30 4545 H 439.682 4.25152 4.0561 0
M  V30 4546 H 441.206 3.73363 4.83148 0
M  V30 4547 H 442.62 4.94102 2.90751 0
M  V30 4548 H 441.017 5.51582 2.36384 0
M  V30 4549 H 442.087 4.69478 1.21319 0
M  V30 4550 N 443.43 -0.535701 1.48216 0
M  V30 4551 C 444.377 -1.64083 1.62312 0
M  V30 4552 C 445.347 -1.59448 0.465365 0
M  V30 4553 O 446.532 -1.77959 0.688135 0
M  V30 4554 C 443.672 -3.0236 1.66349 0
M  V30 4555 C 442.785 -3.17273 2.93193 0
M  V30 4556 C 441.92 -4.46075 2.88427 0
M  V30 4557 C 440.959 -4.54496 4.1 0
M  V30 4558 N 440.096 -5.7468 4.03345 0
M  V30 4559 H 444.936 -1.51374 2.5669 0
M  V30 4560 H 442.473 -0.737059 1.27302 0
M  V30 4561 H 444.431 -3.82461 1.66672 0
M  V30 4562 H 443.061 -3.13854 0.754672 0
M  V30 4563 H 442.113 -2.30462 3.02641 0
M  V30 4564 H 443.425 -3.19357 3.83162 0
M  V30 4565 H 442.579 -5.3446 2.87119 0
M  V30 4566 H 441.318 -4.46504 1.96177 0
M  V30 4567 H 440.323 -3.64519 4.11589 0
M  V30 4568 H 441.548 -4.5581 5.03402 0
M  V30 4569 H 439.494 -5.76017 3.13912 0
M  V30 4570 H 439.411 -5.78234 4.87013 0
M  V30 4571 H 440.679 -6.65367 4.06087 0
M  V30 4572 N 444.908 -1.36708 -0.784132 0
M  V30 4573 C 445.855 -1.31466 -1.89698 0
M  V30 4574 C 446.825 -0.18239 -1.65096 0
M  V30 4575 O 448.01 -0.369762 -1.87183 0
M  V30 4576 C 445.15 -1.1151 -3.26588 0
M  V30 4577 C 444.263 -2.33859 -3.63227 0
M  V30 4578 C 443.398 -2.06873 -4.89262 0
M  V30 4579 C 442.437 -3.25154 -5.18595 0
M  V30 4580 N 441.574 -2.978 -6.35814 0
M  V30 4581 H 446.414 -2.26619 -1.93515 0
M  V30 4582 H 443.951 -1.12625 -0.946256 0
M  V30 4583 H 445.909 -0.979653 -4.05535 0
M  V30 4584 H 444.539 -0.200103 -3.22179 0
M  V30 4585 H 443.591 -2.58188 -2.79362 0
M  V30 4586 H 444.903 -3.22109 -3.8085 0
M  V30 4587 H 444.057 -1.90289 -5.76086 0
M  V30 4588 H 442.796 -1.15942 -4.73718 0
M  V30 4589 H 441.801 -3.42292 -4.30251 0
M  V30 4590 H 443.026 -4.1692 -5.36055 0
M  V30 4591 H 440.972 -2.09485 -6.21653 0
M  V30 4592 H 440.889 -3.7959 -6.53794 0
M  V30 4593 H 442.157 -2.84805 -7.25607 0
M  V30 4594 N 446.386 1.0089 -1.21074 0
M  V30 4595 C 447.333 2.09588 -0.966512 0
M  V30 4596 C 448.303 1.65761 0.106089 0
M  V30 4597 O 449.488 1.90758 -0.0402287 0
M  V30 4598 C 446.628 3.40958 -0.533058 0
M  V30 4599 C 445.741 3.9822 -1.67467 0
M  V30 4600 C 444.876 5.17682 -1.19076 0
M  V30 4601 C 443.915 5.67043 -2.30496 0
M  V30 4602 N 443.052 6.77759 -1.83267 0
M  V30 4603 H 447.892 2.29815 -1.89708 0
M  V30 4604 H 445.429 1.12689 -0.945489 0
M  V30 4605 H 447.387 4.1637 -0.263019 0
M  V30 4606 H 446.017 3.20781 0.360505 0
M  V30 4607 H 445.069 3.1983 -2.05944 0
M  V30 4608 H 446.381 4.3085 -2.51336 0
M  V30 4609 H 445.535 6.00326 -0.877151 0
M  V30 4610 H 444.274 4.86635 -0.322066 0
M  V30 4611 H 443.279 4.82999 -2.62664 0
M  V30 4612 H 444.504 6.00121 -3.17855 0
M  V30 4613 H 442.45 6.48527 -0.987356 0
M  V30 4614 H 442.367 7.09624 -2.60711 0
M  V30 4615 H 443.635 7.63949 -1.54928 0
M  V30 4616 N 447.864 1.01787 1.20321 0
M  V30 4617 C 448.827 0.593972 2.2137 0
M  V30 4618 C 449.827 -0.336553 1.57239 0
M  V30 4619 O 451.017 -0.125069 1.7375 0
M  V30 4620 C 448.149 -0.132433 3.40643 0
M  V30 4621 H 449.342 1.48791 2.60387 0
M  V30 4622 H 446.895 0.807803 1.33807 0
M  V30 4623 H 447.63 -1.04123 3.0713 0
M  V30 4624 H 447.415 0.53605 3.88418 0
M  V30 4625 H 448.905 -0.416314 4.1552 0
M  V30 4626 N 449.342 -1.36122 0.79427 0
M  V30 4627 C 450.289 -2.29982 0.194101 0
M  V30 4628 C 451.259 -1.52214 -0.664833 0
M  V30 4629 O 452.444 -1.80702 -0.612498 0
M  V30 4630 C 449.584 -3.38706 -0.661244 0
M  V30 4631 C 448.697 -4.31456 0.216766 0
M  V30 4632 C 447.832 -5.27265 -0.645411 0
M  V30 4633 C 446.871 -6.11653 0.233756 0
M  V30 4634 N 446.008 -6.99636 -0.587682 0
M  V30 4635 H 450.848 -2.80722 0.999965 0
M  V30 4636 H 448.385 -1.38172 0.504677 0
M  V30 4637 H 450.343 -4.00394 -1.17219 0
M  V30 4638 H 448.973 -2.89274 -1.43249 0
M  V30 4639 H 448.025 -3.7088 0.845724 0
M  V30 4640 H 449.337 -4.90724 0.893973 0
M  V30 4641 H 448.491 -5.94266 -1.22198 0
M  V30 4642 H 447.23 -4.68463 -1.35623 0
M  V30 4643 H 446.235 -5.4361 0.82269 0
M  V30 4644 H 447.46 -6.72531 0.942247 0
M  V30 4645 H 445.406 -6.43337 -1.2827 0
M  V30 4646 H 445.323 -7.55993 0.0317402 0
M  V30 4647 H 446.591 -7.71001 -1.14792 0
M  V30 4648 N 450.82 -0.546701 -1.47814 0
M  V30 4649 C 452.066 -0.0187684 -2.02791 0
M  V30 4650 C 452.399 1.32338 -1.42128 0
M  V30 4651 O 451.674 1.85867 -0.573023 0
M  V30 4652 C 451.957 0.0854985 -3.59998 0
M  V30 4653 C 451.81 -1.283 -4.31114 0
M  V30 4654 C 453.129 0.80412 -4.32691 0
M  V30 4655 H 450.248 -0.0082946 -0.736953 0
M  V30 4656 H 452.89 -0.706962 -1.76358 0
M  V30 4657 H 451.04 0.671609 -3.82651 0
M  V30 4658 H 452.712 -1.91151 -4.19832 0
M  V30 4659 H 450.955 -1.86049 -3.91878 0
M  V30 4660 H 451.626 -1.16287 -5.39612 0
M  V30 4661 H 454.102 0.306576 -4.14969 0
M  V30 4662 H 452.978 0.846011 -5.42341 0
M  V30 4663 H 453.239 1.85802 -4.01161 0
M  V30 4664 N 452.299 1.55045 -0.282633 0
M  V30 4665 C 453.529 2.03872 0.334635 0
M  V30 4666 C 453.937 1.16018 1.49454 0
M  V30 4667 O 453.28 0.174449 1.8287 0
M  V30 4668 C 453.342 3.48791 0.870905 0
M  V30 4669 C 453.006 4.56715 -0.161338 0
M  V30 4670 C 454.003 5.10513 -0.983466 0
M  V30 4671 C 451.688 5.01417 -0.297745 0
M  V30 4672 C 453.682 6.07538 -1.92811 0
M  V30 4673 C 451.369 5.98265 -1.24586 0
M  V30 4674 C 452.367 6.51208 -2.05954 0
M  V30 4675 O 452.055 7.46162 -2.99162 0
M  V30 4676 H 451.787 0.671324 0.0793742 0
M  V30 4677 H 454.341 2.01169 -0.41473 0
M  V30 4678 H 452.571 3.48758 1.67047 0
M  V30 4679 H 454.26 3.80916 1.40207 0
M  V30 4680 H 455.026 4.76785 -0.888856 0
M  V30 4681 H 450.905 4.59849 0.325604 0
M  V30 4682 H 454.449 6.48787 -2.56363 0
M  V30 4683 H 450.346 6.31412 -1.34126 0
M  V30 4684 H 451.114 7.63903 -2.93929 0
M  V30 4685 N 453.777 0.010035 1.57597 0
M  V30 4686 C 455.054 -0.710296 1.82248 0
M  V30 4687 C 455.434 -1.91426 0.889911 0
M  V30 4688 O 454.782 -2.28424 -0.0590292 0
M  V30 4689 C 454.992 -1.10655 3.30993 0
M  V30 4690 C 456.34 -1.50621 3.96987 0
M  V30 4691 O 457.364 -1.20007 3.35375 0
M  V30 4692 O 456.223 -2.07587 5.05539 0
M  V30 4693 H 453.317 -0.34673 0.750804 0
M  V30 4694 H 455.863 0.0362578 1.69661 0
M  V30 4695 H 454.635 -0.248826 3.90508 0
M  V30 4696 H 454.258 -1.91189 3.48615 0
M  V30 4697 N 455.255 -1.55392 -0.262866 0
M  V30 4698 C 456.202 -1.88966 -1.32516 0
M  V30 4699 C 457.172 -0.742187 -1.48596 0
M  V30 4700 O 458.357 -0.99439 -1.62839 0
M  V30 4701 C 455.497 -2.17592 -2.67858 0
M  V30 4702 C 454.61 -3.45061 -2.59917 0
M  V30 4703 C 453.745 -3.63336 -3.87505 0
M  V30 4704 C 452.784 -4.84462 -3.74116 0
M  V30 4705 N 451.921 -4.99342 -4.93561 0
M  V30 4706 H 456.761 -2.79566 -1.03184 0
M  V30 4707 H 454.298 -1.38404 -0.498285 0
M  V30 4708 H 456.256 -2.3219 -3.46617 0
M  V30 4709 H 454.886 -1.30215 -2.95371 0
M  V30 4710 H 453.938 -3.38881 -1.72812 0
M  V30 4711 H 455.25 -4.3396 -2.45926 0
M  V30 4712 H 454.404 -3.77807 -4.74707 0
M  V30 4713 H 453.143 -2.72641 -4.04374 0
M  V30 4714 H 452.148 -4.69985 -2.85297 0
M  V30 4715 H 453.373 -5.76603 -3.58757 0
M  V30 4716 H 451.319 -4.1158 -5.10821 0
M  V30 4717 H 451.236 -5.82303 -4.82141 0
M  V30 4718 H 452.504 -5.18208 -5.82306 0
M  V30 4719 N 456.733 0.527833 -1.48498 0
M  V30 4720 C 457.982 1.28003 -1.55878 0
M  V30 4721 C 458.295 1.9414 -0.238577 0
M  V30 4722 O 459.501 2.7083 -0.190643 0
M  V30 4723 C 457.957 2.32272 -2.74914 0
M  V30 4724 C 457.565 1.72196 -4.13585 0
M  V30 4725 C 459.309 3.08488 -2.91608 0
M  V30 4726 C 457.216 2.74417 -5.23879 0
M  V30 4727 H 456.146 0.481413 -0.580308 0
M  V30 4728 H 458.797 0.557195 -1.74836 0
M  V30 4729 H 457.179 3.07601 -2.49395 0
M  V30 4730 H 458.353 1.03041 -4.49132 0
M  V30 4731 H 456.668 1.08464 -4.02025 0
M  V30 4732 H 459.265 3.84879 -3.71177 0
M  V30 4733 H 459.608 3.64481 -2.01145 0
M  V30 4734 H 460.141 2.40274 -3.17038 0
M  V30 4735 H 456.88 2.23242 -6.16314 0
M  V30 4736 H 456.4 3.41893 -4.92818 0
M  V30 4737 H 458.079 3.37362 -5.52083 0
M  V30 4738 N 458.211 1.37122 0.776871 0
M  V30 4739 C 459.174 1.32301 1.8716 0
M  V30 4740 C 460.174 0.228099 1.59174 0
M  V30 4741 O 461.364 0.483642 1.67352 0
M  V30 4742 C 458.496 1.054 3.24197 0
M  V30 4743 H 459.689 2.29673 1.92848 0
M  V30 4744 H 457.242 1.22077 0.97606 0
M  V30 4745 H 457.977 0.0853872 3.24188 0
M  V30 4746 H 457.762 1.84648 3.45901 0
M  V30 4747 H 459.252 1.04664 4.04271 0
M  V30 4748 N 459.689 -1.00246 1.21608 0
M  V30 4749 C 460.636 -2.09073 0.977613 0
M  V30 4750 C 461.606 -1.65815 -0.097297 0
M  V30 4751 O 462.791 -1.90734 0.0503445 0
M  V30 4752 C 459.931 -3.40671 0.551133 0
M  V30 4753 C 459.044 -3.97326 1.69576 0
M  V30 4754 C 458.179 -5.17043 1.2182 0
M  V30 4755 C 457.218 -5.65813 2.335 0
M  V30 4756 N 456.355 -6.76778 1.86859 0
M  V30 4757 H 461.195 -2.28806 1.90924 0
M  V30 4758 H 458.732 -1.12186 0.951452 0
M  V30 4759 H 460.69 -4.16225 0.285097 0
M  V30 4760 H 459.32 -3.20967 -0.343489 0
M  V30 4761 H 458.372 -3.18734 2.07637 0
M  V30 4762 H 459.684 -4.29511 2.53617 0
M  V30 4763 H 458.838 -5.99852 0.908975 0
M  V30 4764 H 457.577 -4.86458 0.347869 0
M  V30 4765 H 456.582 -4.81599 2.65222 0
M  V30 4766 H 457.807 -5.98427 3.21033 0
M  V30 4767 H 455.753 -6.47994 1.02174 0
M  V30 4768 H 455.67 -7.08231 2.64471 0
M  V30 4769 H 456.938 -7.63116 1.58978 0
M  V30 4770 N 461.167 -1.02423 -1.1978 0
M  V30 4771 C 462.444 -0.632802 -1.85081 0
M  V30 4772 C 462.824 0.888745 -1.9148 0
M  V30 4773 O 462.172 1.78357 -1.42832 0
M  V30 4774 C 462.382 -1.28947 -3.24305 0
M  V30 4775 C 463.73 -1.40976 -4.00513 0
M  V30 4776 O 464.754 -1.24628 -3.33686 0
M  V30 4777 O 463.613 -1.67467 -5.20209 0
M  V30 4778 H 460.707 -0.219348 -0.79738 0
M  V30 4779 H 463.253 -1.12209 -1.27307 0
M  V30 4780 H 462.025 -2.3288 -3.14456 0
M  V30 4781 H 461.648 -0.787748 -3.89718 0
M  V30 4782 N 462.645 1.35699 -0.801477 0
M  V30 4783 C 463.891 1.99208 -0.380022 0
M  V30 4784 C 464.224 1.63445 1.04878 0
M  V30 4785 O 463.499 0.895223 1.72673 0
M  V30 4786 C 463.782 3.55755 -0.557708 0
M  V30 4787 C 463.635 4.01332 -2.03107 0
M  V30 4788 C 464.954 4.40096 0.0197968 0
M  V30 4789 H 462.073 0.723667 -0.139552 0
M  V30 4790 H 464.715 1.60928 -1.01006 0
M  V30 4791 H 462.865 3.88494 -0.0213741 0
M  V30 4792 H 464.537 3.79026 -2.62939 0
M  V30 4793 H 462.78 3.52429 -2.52936 0
M  V30 4794 H 463.451 5.10234 -2.1063 0
M  V30 4795 H 465.927 4.13786 -0.438179 0
M  V30 4796 H 464.803 5.48735 -0.134477 0
M  V30 4797 H 465.064 4.2786 1.11303 0
M  V30 4798 N 464.123 0.554532 1.47522 0
M  V30 4799 C 465.07 -0.19466 2.29978 0
M  V30 4800 C 466.04 -0.910882 1.38896 0
M  V30 4801 O 467.225 -0.907102 1.67858 0
M  V30 4802 C 464.365 -1.22035 3.22802 0
M  V30 4803 C 463.478 -0.510474 4.28973 0
M  V30 4804 C 462.613 -1.52123 5.08952 0
M  V30 4805 C 461.652 -0.796173 6.069 0
M  V30 4806 N 460.789 -1.75363 6.79847 0
M  V30 4807 H 465.629 0.51461 2.93523 0
M  V30 4808 H 463.166 0.265607 1.44682 0
M  V30 4809 H 465.124 -1.8276 3.7504 0
M  V30 4810 H 463.754 -1.89769 2.61127 0
M  V30 4811 H 462.806 0.211234 3.79813 0
M  V30 4812 H 464.118 0.0576503 4.98767 0
M  V30 4813 H 463.272 -2.20207 5.65326 0
M  V30 4814 H 462.011 -2.12327 4.39054 0
M  V30 4815 H 461.016 -0.101388 5.49707 0
M  V30 4816 H 462.241 -0.199911 6.78806 0
M  V30 4817 H 460.187 -2.3443 6.12682 0
M  V30 4818 H 460.104 -1.23759 7.45801 0
M  V30 4819 H 461.372 -2.4257 7.40797 0
M  V30 4820 N 465.601 -1.54893 0.290851 0
M  V30 4821 C 466.533 -2.20564 -0.623236 0
M  V30 4822 C 467.546 -1.19519 -1.1054 0
M  V30 4823 O 468.735 -1.46165 -1.02459 0
M  V30 4824 C 465.835 -2.83033 -1.86401 0
M  V30 4825 C 465.008 -4.09916 -1.52604 0
M  V30 4826 C 464.067 -4.56284 -2.62091 0
M  V30 4827 O 463.093 -5.2171 -2.27612 0
M  V30 4828 N 464.295 -4.27746 -3.92446 0
M  V30 4829 H 467.06 -2.99638 -0.0610915 0
M  V30 4830 H 464.621 -1.61508 0.112615 0
M  V30 4831 H 466.613 -3.1099 -2.58973 0
M  V30 4832 H 465.183 -2.0786 -2.33481 0
M  V30 4833 H 464.403 -3.89078 -0.633424 0
M  V30 4834 H 465.691 -4.92554 -1.27547 0
M  V30 4835 H 465.089 -3.7531 -4.23272 0
M  V30 4836 H 463.646 -4.60437 -4.61347 0
M  V30 4837 N 467.08 -0.0183926 -1.57589 0
M  V30 4838 C 468.043 0.951986 -2.08494 0
M  V30 4839 C 469.043 1.26092 -0.997874 0
M  V30 4840 O 470.233 1.20304 -1.25987 0
M  V30 4841 C 467.365 2.27165 -2.54182 0
M  V30 4842 H 468.558 0.511307 -2.95509 0
M  V30 4843 H 466.111 0.229444 -1.54607 0
M  V30 4844 H 466.846 2.75884 -1.70465 0
M  V30 4845 H 466.631 2.06057 -3.33591 0
M  V30 4846 H 468.121 2.9674 -2.93828 0
M  V30 4847 N 468.558 1.5553 0.254621 0
M  V30 4848 C 469.521 1.88872 1.29846 0
M  V30 4849 C 470.521 0.764591 1.41459 0
M  V30 4850 O 471.711 1.03265 1.40293 0
M  V30 4851 C 468.843 2.11032 2.67728 0
M  V30 4852 H 470.036 2.82201 1.01502 0
M  V30 4853 H 467.589 1.48303 0.493556 0
M  V30 4854 H 468.324 1.20146 3.01223 0
M  V30 4855 H 468.109 2.92895 2.60682 0
M  V30 4856 H 469.599 2.38038 3.43115 0
M  V30 4857 N 470.036 -0.519951 1.48776 0
M  V30 4858 C 471.282 -1.27711 1.57536 0
M  V30 4859 C 471.615 -1.92547 0.252866 0
M  V30 4860 O 470.89 -1.7979 -0.742021 0
M  V30 4861 C 471.173 -2.35875 2.72094 0
M  V30 4862 C 471.026 -1.75664 4.1408 0
M  V30 4863 C 472.345 -3.37575 2.82367 0
M  V30 4864 H 469.464 -0.462971 0.573434 0
M  V30 4865 H 472.106 -0.578194 1.80989 0
M  V30 4866 H 470.256 -2.95488 2.52228 0
M  V30 4867 H 471.928 -1.20025 4.45412 0
M  V30 4868 H 470.171 -1.06154 4.20611 0
M  V30 4869 H 470.842 -2.54029 4.90075 0
M  V30 4870 H 473.318 -2.87929 3.00393 0
M  V30 4871 H 472.194 -4.1064 3.64233 0
M  V30 4872 H 472.455 -3.98743 1.90936 0
M  V30 4873 N 471.514 -1.37532 -0.769588 0
M  V30 4874 C 472.444 -1.36172 -1.89682 0
M  V30 4875 C 473.425 -0.23001 -1.68538 0
M  V30 4876 O 474.61 -0.43069 -1.89364 0
M  V30 4877 C 471.74 -1.1701 -3.26995 0
M  V30 4878 C 470.694 -2.27216 -3.62708 0
M  V30 4879 C 470.02 -1.93174 -4.98586 0
M  V30 4880 C 471.32 -3.6941 -3.69234 0
M  V30 4881 H 473.014 -2.30499 -1.91078 0
M  V30 4882 H 470.56 -1.10953 -0.917902 0
M  V30 4883 H 472.513 -1.14688 -4.05493 0
M  V30 4884 H 471.237 -0.191395 -3.26039 0
M  V30 4885 H 469.896 -2.28697 -2.86519 0
M  V30 4886 H 469.544 -0.938281 -4.94171 0
M  V30 4887 H 469.244 -2.66973 -5.23449 0
M  V30 4888 H 470.768 -1.92443 -5.79481 0
M  V30 4889 H 472.182 -3.70047 -4.37879 0
M  V30 4890 H 470.579 -4.4228 -4.05597 0
M  V30 4891 H 471.649 -4.0288 -2.69844 0
M  V30 4892 N 472.992 0.995999 -1.22138 0
M  V30 4893 C 474.24 1.73167 -1.042 0
M  V30 4894 C 474.561 1.90329 0.42423 0
M  V30 4895 O 473.831 1.4607 1.30539 0
M  V30 4896 H 472.411 0.641593 -0.38258 0
M  V30 4897 H 475.073 1.19974 -1.53598 0
M  V30 4898 H 474.169 2.72734 -1.51731 0
M  V30 4899 N 474.47 1.03057 1.19235 0
M  V30 4900 C 475.433 0.617418 2.20727 0
M  V30 4901 C 476.433 -0.319856 1.57587 0
M  V30 4902 O 477.623 -0.106633 1.73873 0
M  V30 4903 C 474.755 -0.096296 3.40764 0
M  V30 4904 H 475.948 1.51544 2.58794 0
M  V30 4905 H 473.501 0.821949 1.32942 0
M  V30 4906 H 474.236 -1.00859 3.08217 0
M  V30 4907 H 474.021 0.577217 3.87828 0
M  V30 4908 H 475.511 -0.372219 4.15938 0
M  V30 4909 N 475.948 -1.35272 0.808662 0
M  V30 4910 C 477.196 -1.98316 0.389233 0
M  V30 4911 C 477.517 -1.64465 -1.04767 0
M  V30 4912 O 476.787 -0.928175 -1.72516 0
M  V30 4913 H 475.367 -0.733585 0.140935 0
M  V30 4914 H 478.029 -1.6515 1.03496 0
M  V30 4915 H 477.125 -3.08123 0.496631 0
M  V30 4916 N 477.426 -0.562348 -1.47226 0
M  V30 4917 C 478.675 -0.038041 -2.01664 0
M  V30 4918 C 478.988 1.32199 -1.44162 0
M  V30 4919 O 480.194 1.9365 -1.90294 0
M  V30 4920 C 478.65 -0.0174958 -3.59896 0
M  V30 4921 C 478.258 -1.3746 -4.2639 0
M  V30 4922 C 480.002 0.453934 -4.22066 0
M  V30 4923 C 477.909 -1.31289 -5.76643 0
M  V30 4924 H 476.839 -0.0104511 -0.753928 0
M  V30 4925 H 479.49 -0.710966 -1.69167 0
M  V30 4926 H 477.872 0.721182 -3.89378 0
M  V30 4927 H 479.046 -2.1314 -4.08544 0
M  V30 4928 H 477.361 -1.78438 -3.7623 0
M  V30 4929 H 479.958 0.518584 -5.32179 0
M  V30 4930 H 480.301 1.46706 -3.89594 0
M  V30 4931 H 480.834 -0.230044 -3.97134 0
M  V30 4932 H 477.573 -2.30217 -6.13743 0
M  V30 4933 H 477.093 -0.597973 -5.96812 0
M  V30 4934 H 478.772 -1.01713 -6.38955 0
M  V30 4935 N 478.904 1.54736 -0.299062 0
M  V30 4936 C 479.837 2.1962 0.619851 0
M  V30 4937 C 480.815 1.16496 1.13434 0
M  V30 4938 O 481.999 1.4513 1.2029 0
M  V30 4939 C 479.126 2.8385 1.84788 0
M  V30 4940 C 478.172 4.00484 1.46679 0
M  V30 4941 S 479.005 5.32926 0.524389 0
M  V30 4942 C 480.161 6.00638 1.76026 0
M  V30 4943 H 480.394 2.97221 0.0686177 0
M  V30 4944 H 477.927 1.54176 -0.0832085 0
M  V30 4945 H 479.885 3.21483 2.55263 0
M  V30 4946 H 478.546 2.06099 2.37028 0
M  V30 4947 H 477.739 4.44201 2.38121 0
M  V30 4948 H 477.341 3.64398 0.842008 0
M  V30 4949 H 479.633 6.21327 2.70109 0
M  V30 4950 H 480.576 6.94805 1.36569 0
M  V30 4951 H 480.984 5.3026 1.93609 0
M  V30 4952 N 480.382 0.0267497 1.57577 0
M  V30 4953 C 481.63 -0.651116 1.91324 0
M  V30 4954 C 481.951 -1.72804 0.90353 0
M  V30 4955 O 481.221 -1.95822 -0.0552946 0
M  V30 4956 H 479.801 -0.243491 0.706202 0
M  V30 4957 H 482.463 0.0739935 1.94759 0
M  V30 4958 H 481.559 -1.10536 2.9187 0
M  V30 4959 N 481.861 -1.55662 -0.24637 0
M  V30 4960 C 483.109 -1.77168 -0.972411 0
M  V30 4961 C 483.43 -0.590827 -1.85834 0
M  V30 4962 O 482.7 0.393365 -1.9191 0
M  V30 4963 H 481.28 -0.653405 -0.362038 0
M  V30 4964 H 483.942 -1.93101 -0.264189 0
M  V30 4965 H 483.038 -2.68335 -1.59382 0
M  V30 4966 N 483.339 0.512053 -1.4905 0
M  V30 4967 C 484.587 1.26436 -1.57665 0
M  V30 4968 C 484.908 1.93255 -0.260293 0
M  V30 4969 O 484.178 1.82206 0.719564 0
M  V30 4970 H 482.758 0.469658 -0.580888 0
M  V30 4971 H 485.42 0.594398 -1.85615 0
M  V30 4972 H 484.516 2.03417 -2.36702 0
M  V30 4973 N 484.817 1.37938 0.762283 0
M  V30 4974 C 486.066 1.32989 1.51647 0
M  V30 4975 C 486.379 -0.0802922 1.95435 0
M  V30 4976 O 487.585 -0.252295 2.70325 0
M  V30 4977 C 486.041 2.33485 2.73885 0
M  V30 4978 C 485.649 3.80079 2.37157 0
M  V30 4979 C 487.393 2.37563 3.51801 0
M  V30 4980 C 485.3 4.72283 3.55954 0
M  V30 4981 H 484.23 0.494301 0.56937 0
M  V30 4982 H 486.881 1.63448 0.834083 0
M  V30 4983 H 485.263 1.96056 3.44061 0
M  V30 4984 H 486.437 4.26398 1.74704 0
M  V30 4985 H 484.752 3.79037 1.72395 0
M  V30 4986 H 487.349 3.0365 4.40114 0
M  V30 4987 H 487.692 1.39199 3.92338 0
M  V30 4988 H 488.225 2.73747 2.8863 0
M  V30 4989 H 484.964 5.7181 3.2049 0
M  V30 4990 H 484.484 4.30663 4.1748 0
M  V30 4991 H 486.163 4.89876 4.22647 0
M  V30 4992 N 486.295 -0.989507 1.22664 0
M  V30 4993 C 487.258 -2.06183 1.00106 0
M  V30 4994 C 488.258 -1.60765 -0.0337726 0
M  V30 4995 O 489.448 -1.72989 0.205072 0
M  V30 4996 C 486.58 -3.37021 0.51279 0
M  V30 4997 H 487.773 -2.27629 1.95256 0
M  V30 4998 H 485.326 -1.16158 1.0458 0
M  V30 4999 H 486.061 -3.21261 -0.442917 0
M  V30 5000 H 485.846 -3.71323 1.25942 0
M  V30 5001 H 487.336 -4.1591 0.375315 0
M  V30 5002 N 487.773 -1.03688 -1.18687 0
M  V30 5003 C 489.003 -0.756819 -1.92239 0
M  V30 5004 C 489.411 0.689374 -1.76194 0
M  V30 5005 O 488.754 1.48126 -1.08648 0
M  V30 5006 C 488.816 -1.03851 -3.44173 0
M  V30 5007 C 488.48 -2.47785 -3.83994 0
M  V30 5008 C 489.477 -3.4595 -3.88091 0
M  V30 5009 C 487.162 -2.82397 -4.154 0
M  V30 5010 C 489.156 -4.76779 -4.23038 0
M  V30 5011 C 486.843 -4.13433 -4.50018 0
M  V30 5012 C 487.841 -5.10434 -4.53813 0
M  V30 5013 O 487.529 -6.39122 -4.87625 0
M  V30 5014 H 487.261 -0.275678 -0.617234 0
M  V30 5015 H 489.815 -1.38658 -1.51536 0
M  V30 5016 H 488.045 -0.351612 -3.85098 0
M  V30 5017 H 489.734 -0.746846 -3.9897 0
M  V30 5018 H 490.5 -3.20549 -3.63969 0
M  V30 5019 H 486.379 -2.07568 -4.11627 0
M  V30 5020 H 489.923 -5.52488 -4.25914 0
M  V30 5021 H 485.82 -4.38604 -4.736 0
M  V30 5022 H 486.588 -6.43715 -5.05542 0
M  V30 5023 N 489.251 1.34841 -0.815825 0
M  V30 5024 C 490.183 2.28409 -0.190265 0
M  V30 5025 C 491.196 1.50705 0.615771 0
M  V30 5026 O 492.385 1.72822 0.446616 0
M  V30 5027 C 489.485 3.30441 0.752446 0
M  V30 5028 C 488.658 4.37399 -0.00922152 0
M  V30 5029 C 487.717 5.19234 0.853351 0
M  V30 5030 O 486.743 5.68404 0.300919 0
M  V30 5031 N 487.945 5.38248 2.17416 0
M  V30 5032 H 490.71 2.82732 -0.994114 0
M  V30 5033 H 488.271 1.47289 -0.672129 0
M  V30 5034 H 490.263 3.82084 1.33394 0
M  V30 5035 H 488.833 2.76565 1.45707 0
M  V30 5036 H 488.053 3.86567 -0.771979 0
M  V30 5037 H 489.341 5.05992 -0.533807 0
M  V30 5038 H 488.739 4.99961 2.6468 0
M  V30 5039 H 487.296 5.93035 2.70467 0
M  V30 5040 N 490.729 0.570148 1.46925 0
M  V30 5041 C 491.954 0.0542592 2.07329 0
M  V30 5042 C 492.379 -1.23582 1.41806 0
M  V30 5043 O 491.737 -1.74341 0.497479 0
M  V30 5044 C 491.785 -0.111175 3.60429 0
M  V30 5045 O 490.889 -1.17071 3.95434 0
M  V30 5046 H 490.23 0.0571425 0.661537 0
M  V30 5047 H 492.76 0.789516 1.88753 0
M  V30 5048 H 492.77 -0.321315 4.06733 0
M  V30 5049 H 491.445 0.831012 4.07513 0
M  V30 5050 H 490.022 -0.940029 3.60857 0
M  V30 5051 N 492.207 -1.54576 0.307264 0
M  V30 5052 C 493.17 -2.22423 -0.553224 0
M  V30 5053 C 494.17 -1.21231 -1.05639 0
M  V30 5054 O 495.36 -1.45923 -0.951419 0
M  V30 5055 C 492.492 -2.91552 -1.76664 0
M  V30 5056 H 493.685 -2.99874 0.0396484 0
M  V30 5057 H 491.238 -1.56192 0.0581629 0
M  V30 5058 H 491.973 -2.18196 -2.39918 0
M  V30 5059 H 491.758 -3.65738 -1.41343 0
M  V30 5060 H 493.248 -3.43292 -2.37783 0
M  V30 5061 N 493.685 -0.035106 -1.57561 0
M  V30 5062 C 494.91 0.655802 -1.96759 0
M  V30 5063 C 495.335 1.64523 -0.911809 0
M  V30 5064 O 494.693 1.80857 0.126673 0
M  V30 5065 C 494.741 1.33326 -3.35047 0
M  V30 5066 O 493.845 2.44866 -3.31835 0
M  V30 5067 H 493.186 0.171807 -0.641388 0
M  V30 5068 H 495.716 -0.0987369 -2.04362 0
M  V30 5069 H 495.726 1.68867 -3.71413 0
M  V30 5070 H 494.401 0.608033 -4.11431 0
M  V30 5071 H 492.978 2.11392 -3.07193 0
M  V30 5072 N 495.163 1.55791 0.238111 0
M  V30 5073 C 496.11 1.9105 1.29493 0
M  V30 5074 C 497.08 0.765733 1.47397 0
M  V30 5075 O 498.265 1.02017 1.61236 0
M  V30 5076 C 495.405 2.21826 2.64362 0
M  V30 5077 C 494.518 3.49153 2.54394 0
M  V30 5078 C 493.653 3.69455 3.81676 0
M  V30 5079 C 492.692 4.90353 3.66361 0
M  V30 5080 N 491.829 5.07131 4.85554 0
M  V30 5081 H 496.669 2.81172 0.987233 0
M  V30 5082 H 494.206 1.39179 0.476203 0
M  V30 5083 H 496.164 2.37675 3.4288 0
M  V30 5084 H 494.794 1.34897 2.93262 0
M  V30 5085 H 493.846 3.41587 1.67399 0
M  V30 5086 H 495.158 4.37818 2.38991 0
M  V30 5087 H 494.312 3.85311 4.68636 0
M  V30 5088 H 493.051 2.7904 3.99985 0
M  V30 5089 H 492.056 4.74464 2.77784 0
M  V30 5090 H 493.281 5.82237 3.49538 0
M  V30 5091 H 491.227 4.19654 5.04209 0
M  V30 5092 H 491.144 5.89899 4.72816 0
M  V30 5093 H 492.412 5.27407 5.73988 0
M  V30 5094 N 496.642 -0.504142 1.49319 0
M  V30 5095 C 497.89 -1.25598 1.58334 0
M  V30 5096 C 498.211 -1.93114 0.270538 0
M  V30 5097 O 497.481 -1.82585 -0.709891 0
M  V30 5098 H 496.061 -0.466571 0.58337 0
M  V30 5099 H 498.723 -0.584547 1.85928 0
M  V30 5100 H 497.819 -2.02159 2.37778 0
M  V30 5101 N 498.12 -1.38341 -0.754957 0
M  V30 5102 C 499.348 -1.37704 -1.54419 0
M  V30 5103 C 499.763 0.0335243 -1.8877 0
M  V30 5104 O 499.12 0.999773 -1.52679 0
M  V30 5105 C 499.171 -2.23136 -2.84416 0
M  V30 5106 O 498.892 -3.58697 -2.51531 0
M  V30 5107 C 500.393 -2.30664 -3.78562 0
M  V30 5108 H 497.613 -0.471061 -0.477852 0
M  V30 5109 H 500.157 -1.81902 -0.934446 0
M  V30 5110 H 498.312 -1.82403 -3.41772 0
M  V30 5111 H 498.726 -4.03665 -3.34896 0
M  V30 5112 H 500.2 -2.9473 -4.66732 0
M  V30 5113 H 500.677 -1.3199 -4.18898 0
M  V30 5114 H 501.283 -2.71781 -3.27131 0
M  V30 5115 N 499.598 0.982988 -1.23187 0
M  V30 5116 C 501.009 1.53847 -1.05773 0
M  V30 5117 C 501.36 1.92568 0.375744 0
M  V30 5118 O 500.485 1.75783 1.26211 0
M  V30 5119 C 501.08 2.79567 -1.91384 0
M  V30 5120 C 499.639 3.31524 -1.78238 0
M  V30 5121 C 498.786 2.04534 -1.87246 0
M  V30 5122 H 501.737 0.802962 -1.36888 0
M  V30 5123 H 501.758 3.52317 -1.43711 0
M  V30 5124 H 501.27 2.51353 -2.95708 0
M  V30 5125 H 499.371 3.64623 -0.766875 0
M  V30 5126 H 499.484 4.01457 -2.61475 0
M  V30 5127 H 497.848 2.1855 -1.30797 0
M  V30 5128 H 498.631 1.78706 -2.9312 0
M  V30 5129 N 501.076 1.04316 1.18135 0
M  V30 5130 C 502.325 0.74319 1.87509 0
M  V30 5131 C 502.638 -0.732136 1.81381 0
M  V30 5132 O 503.844 -1.14572 2.46141 0
M  V30 5133 C 502.3 1.27913 3.36402 0
M  V30 5134 C 501.908 2.78326 3.51053 0
M  V30 5135 C 503.652 1.0558 4.11161 0
M  V30 5136 C 501.559 3.25266 4.93919 0
M  V30 5137 H 500.489 0.274313 0.702331 0
M  V30 5138 H 503.14 1.25931 1.33467 0
M  V30 5139 H 501.522 0.690853 3.89927 0
M  V30 5140 H 502.696 3.42933 3.07788 0
M  V30 5141 H 501.011 2.991 2.89704 0
M  V30 5142 H 503.608 1.38161 5.16542 0
M  V30 5143 H 503.951 -0.00684729 4.16299 0
M  V30 5144 H 504.484 1.60882 3.63816 0
M  V30 5145 H 501.223 4.30922 4.9395 0
M  V30 5146 H 500.743 2.65396 5.3789 0
M  V30 5147 H 502.422 3.19433 5.62647 0
M  V30 5148 N 502.554 -1.34406 0.822964 0
M  V30 5149 C 503.484 -2.32052 0.259608 0
M  V30 5150 C 504.465 -1.58243 -0.623961 0
M  V30 5151 O 505.65 -1.86224 -0.55083 0
M  V30 5152 C 502.78 -3.42434 -0.579314 0
M  V30 5153 C 501.734 -4.27499 0.20712 0
M  V30 5154 C 501.06 -5.29349 -0.754547 0
M  V30 5155 C 502.36 -5.02758 1.41533 0
M  V30 5156 H 504.054 -2.79418 1.07545 0
M  V30 5157 H 501.6 -1.34338 0.518593 0
M  V30 5158 H 503.553 -4.0976 -0.983612 0
M  V30 5159 H 502.277 -2.93717 -1.4282 0
M  V30 5160 H 500.936 -3.61776 0.592787 0
M  V30 5161 H 500.584 -4.76895 -1.59939 0
M  V30 5162 H 500.284 -5.8714 -0.232561 0
M  V30 5163 H 501.808 -5.99544 -1.1567 0
M  V30 5164 H 503.222 -5.62938 1.08504 0
M  V30 5165 H 501.619 -5.70123 1.87296 0
M  V30 5166 H 502.689 -4.32451 2.1935 0
M  V30 5167 N 504.032 -0.577932 -1.46621 0
M  V30 5168 C 504.965 0.206312 -2.27265 0
M  V30 5169 C 505.943 0.901306 -1.35334 0
M  V30 5170 O 507.127 0.916151 -1.64739 0
M  V30 5171 C 504.254 1.29563 -3.1294 0
M  V30 5172 C 503.3 0.706981 -4.206 0
M  V30 5173 S 504.133 -0.462459 -5.33499 0
M  V30 5174 C 505.289 0.628171 -6.2274 0
M  V30 5175 H 505.522 -0.477961 -2.93433 0
M  V30 5176 H 503.055 -0.364715 -1.50031 0
M  V30 5177 H 505.013 1.91935 -3.62865 0
M  V30 5178 H 503.674 1.95183 -2.46095 0
M  V30 5179 H 502.867 1.52565 -4.80354 0
M  V30 5180 H 502.469 0.159022 -3.73662 0
M  V30 5181 H 504.761 1.51506 -6.60342 0
M  V30 5182 H 505.704 0.0674961 -7.08068 0
M  V30 5183 H 506.112 0.930167 -5.56784 0
M  V30 5184 N 505.51 1.54411 -0.315457 0
M  V30 5185 C 506.457 2.24048 0.554166 0
M  V30 5186 C 507.427 1.2283 1.11812 0
M  V30 5187 O 508.612 1.51491 1.15997 0
M  V30 5188 C 505.752 2.99574 1.71316 0
M  V30 5189 C 504.865 4.15594 1.17922 0
M  V30 5190 C 504 4.78669 2.30324 0
M  V30 5191 C 503.039 5.86807 1.74137 0
M  V30 5192 N 502.176 6.43777 2.8017 0
M  V30 5193 H 507.016 2.97964 -0.0462602 0
M  V30 5194 H 504.553 1.47059 -0.0346009 0
M  V30 5195 H 506.511 3.41604 2.39505 0
M  V30 5196 H 505.141 2.28008 2.285 0
M  V30 5197 H 504.193 3.78404 0.389136 0
M  V30 5198 H 505.505 4.93459 0.728012 0
M  V30 5199 H 504.659 5.23626 3.06433 0
M  V30 5200 H 503.398 4.00168 2.78778 0
M  V30 5201 H 502.403 5.41261 0.965236 0
M  V30 5202 H 503.628 6.67201 1.2657 0
M  V30 5203 H 501.574 5.68153 3.2793 0
M  V30 5204 H 501.491 7.17031 2.39588 0
M  V30 5205 H 502.759 6.9339 3.56132 0
M  V30 5206 N 506.988 0.0434614 1.5754 0
M  V30 5207 C 508.265 -0.671479 1.83713 0
M  V30 5208 C 508.645 -1.89495 0.930315 0
M  V30 5209 O 507.993 -2.28498 -0.0105639 0
M  V30 5210 C 508.203 -1.0361 3.33266 0
M  V30 5211 C 509.551 -1.42167 4.00092 0
M  V30 5212 O 510.575 -1.12866 3.37846 0
M  V30 5213 O 509.434 -1.96817 5.09829 0
M  V30 5214 H 506.528 -0.330726 0.75799 0
M  V30 5215 H 509.074 0.0722373 1.69546 0
M  V30 5216 H 507.846 -0.165938 3.90948 0
M  V30 5217 H 507.469 -1.83751 3.52592 0
M  V30 5218 N 508.466 -1.55915 -0.229846 0
M  V30 5219 C 509.715 -1.77742 -0.953455 0
M  V30 5220 C 510.028 -0.610524 -1.85828 0
M  V30 5221 O 511.234 -0.712219 -2.61992 0
M  V30 5222 C 509.69 -3.14738 -1.74551 0
M  V30 5223 C 509.298 -4.39126 -0.887242 0
M  V30 5224 C 511.042 -3.45895 -2.46084 0
M  V30 5225 C 508.949 -5.67149 -1.67617 0
M  V30 5226 H 507.879 -0.662648 -0.359741 0
M  V30 5227 H 510.53 -1.82322 -0.207576 0
M  V30 5228 H 508.912 -3.04311 -2.53399 0
M  V30 5229 H 510.086 -4.60588 -0.139892 0
M  V30 5230 H 508.401 -4.15427 -0.284443 0
M  V30 5231 H 510.998 -4.38767 -3.05594 0
M  V30 5232 H 511.341 -2.68007 -3.18556 0
M  V30 5233 H 511.874 -3.57614 -1.74233 0
M  V30 5234 H 508.613 -6.47906 -0.994881 0
M  V30 5235 H 508.133 -5.49763 -2.39836 0
M  V30 5236 H 509.812 -6.07025 -2.23898 0
M  V30 5237 N 509.944 0.496216 -1.49584 0
M  V30 5238 C 510.892 1.61805 -1.67098 0
M  V30 5239 C 511.886 1.60667 -0.536877 0
M  V30 5240 O 513.092 1.65118 -0.716654 0
M  V30 5241 H 509.467 0.53646 -0.526986 0
M  V30 5242 H 511.438 1.44187 -2.61252 0
M  V30 5243 C 510.187 2.99912 -1.75921 0
M  V30 5244 H 509.51 3.01496 -2.62565 0
M  V30 5245 H 510.95 3.77931 -1.92209 0
M  V30 5246 C 509.409 3.33092 -0.505088 0
M  V30 5247 O 509.939 4.00019 0.367085 0
M  V30 5248 N 508.145 2.88278 -0.366599 0
M  V30 5249 H 507.692 2.33989 -1.07735 0
M  V30 5250 H 507.65 3.10846 0.47142 0
M  V30 5251 N 511.423 1.38739 0.74761 0
M  V30 5252 C 512.333 1.38696 1.89211 0
M  V30 5253 C 513.349 0.283303 1.71678 0
M  V30 5254 O 514.525 0.522713 1.94498 0
M  V30 5255 C 511.59 1.21662 3.24653 0
M  V30 5256 C 510.651 2.41886 3.54669 0
M  V30 5257 C 509.884 2.25655 4.83648 0
M  V30 5258 O 510.107 1.25339 5.56459 0
M  V30 5259 O 509.041 3.14372 5.13277 0
M  V30 5260 H 512.867 2.35143 1.92202 0
M  V30 5261 H 510.452 1.19721 0.893708 0
M  V30 5262 H 512.334 1.14246 4.05618 0
M  V30 5263 H 511.009 0.283024 3.2246 0
M  V30 5264 H 509.916 2.54877 2.73841 0
M  V30 5265 H 511.249 3.33895 3.61628 0
M  V30 5266 N 512.901 -0.976442 1.23707 0
M  V30 5267 C 513.851 -2.0544 0.988851 0
M  V30 5268 C 514.835 -1.60762 -0.0665901 0
M  V30 5269 O 516.027 -1.76396 0.14604 0
M  V30 5270 C 513.156 -3.38258 0.586223 0
M  V30 5271 C 512.242 -3.89523 1.67728 0
M  V30 5272 N 512.633 -4.13823 2.90834 0
M  V30 5273 C 510.931 -4.18097 1.55277 0
M  V30 5274 C 511.632 -4.55731 3.61502 0
M  V30 5275 N 510.608 -4.60394 2.8903 0
M  V30 5276 H 514.41 -2.22191 1.92376 0
M  V30 5277 H 511.924 -1.15954 1.13704 0
M  V30 5278 H 513.921 -4.15075 0.389658 0
M  V30 5279 H 512.581 -3.22898 -0.341594 0
M  V30 5280 H 513.592 -4.01529 3.271 0
M  V30 5281 H 510.269 -4.11719 0.692351 0
M  V30 5282 H 511.659 -4.83018 4.67059 0
M  V30 5283 N 514.379 -1.04941 -1.1758 0
M  V30 5284 C 515.627 -0.756492 -1.87408 0
M  V30 5285 C 515.948 0.718478 -1.81281 0
M  V30 5286 O 515.218 1.519 -1.23706 0
M  V30 5287 H 513.798 -0.276841 -0.693807 0
M  V30 5288 H 516.46 -1.32803 -1.42652 0
M  V30 5289 H 515.556 -1.06918 -2.93215 0
M  V30 5290 N 515.857 1.33968 -0.830081 0
M  V30 5291 C 517.106 1.97323 -0.417928 0
M  V30 5292 C 517.419 1.6652 1.02618 0
M  V30 5293 O 518.625 2.2342 1.54259 0
M  V30 5294 C 517.081 3.53099 -0.696359 0
M  V30 5295 C 516.689 3.92788 -2.15457 0
M  V30 5296 C 518.433 4.23049 -0.350724 0
M  V30 5297 C 516.34 5.41506 -2.37751 0
M  V30 5298 H 515.27 0.738409 -0.152541 0
M  V30 5299 H 517.921 1.52711 -1.01744 0
M  V30 5300 H 516.303 3.95991 -0.0265904 0
M  V30 5301 H 517.477 3.6098 -2.86408 0
M  V30 5302 H 515.792 3.35795 -2.46232 0
M  V30 5303 H 518.389 5.32403 -0.495036 0
M  V30 5304 H 518.732 4.10279 0.705476 0
M  V30 5305 H 519.265 3.85657 -0.975362 0
M  V30 5306 H 516.004 5.5927 -3.41903 0
M  V30 5307 H 515.524 5.74804 -1.7135 0
M  V30 5308 H 517.203 6.0828 -2.20465 0
M  V30 5309 N 517.335 0.585699 1.46312 0
M  V30 5310 C 518.245 -0.148236 2.34131 0
M  V30 5311 C 519.261 -0.882972 1.49932 0
M  V30 5312 O 520.437 -0.845484 1.82794 0
M  V30 5313 C 517.502 -1.14714 3.27172 0
M  V30 5314 C 516.563 -0.416746 4.27272 0
M  V30 5315 C 515.796 -1.36806 5.15868 0
M  V30 5316 O 516.019 -2.60475 5.07454 0
M  V30 5317 O 514.953 -0.877018 5.95476 0
M  V30 5318 H 518.779 0.572882 2.98248 0
M  V30 5319 H 516.364 0.346082 1.45336 0
M  V30 5320 H 518.246 -1.72303 3.84564 0
M  V30 5321 H 516.921 -1.84967 2.65648 0
M  V30 5322 H 515.828 0.201061 3.73559 0
M  V30 5323 H 517.161 0.244872 4.9159 0
M  V30 5324 N 518.813 -1.54241 0.323641 0
M  V30 5325 C 519.745 -2.21836 -0.576311 0
M  V30 5326 C 520.758 -1.21837 -1.07979 0
M  V30 5327 O 521.947 -1.48306 -0.99336 0
M  V30 5328 C 519.047 -2.86923 -1.80356 0
M  V30 5329 C 518.22 -4.1306 -1.43875 0
M  V30 5330 C 517.279 -4.6174 -2.52353 0
M  V30 5331 O 516.305 -5.26421 -2.16494 0
M  V30 5332 N 517.507 -4.35974 -3.83284 0
M  V30 5333 H 520.272 -2.997 0.00247987 0
M  V30 5334 H 517.833 -1.61233 0.146848 0
M  V30 5335 H 519.825 -3.16414 -2.52318 0
M  V30 5336 H 518.395 -2.12765 -2.29019 0
M  V30 5337 H 517.615 -3.90334 -0.550752 0
M  V30 5338 H 518.903 -4.95148 -1.17071 0
M  V30 5339 H 518.301 -3.84203 -4.15216 0
M  V30 5340 H 516.858 -4.70119 -4.51477 0
M  V30 5341 N 520.291 -0.0518155 -1.57515 0
M  V30 5342 C 521.539 0.620595 -1.92336 0
M  V30 5343 C 521.86 1.71345 -0.930907 0
M  V30 5344 O 521.13 1.95885 0.0241341 0
M  V30 5345 H 519.71 0.232226 -0.709986 0
M  V30 5346 H 522.372 -0.104969 -1.94617 0
M  V30 5347 H 521.468 1.05879 -2.93592 0
M  V30 5348 N 521.769 1.56035 0.221574 0
M  V30 5349 C 522.699 1.95434 1.2778 0
M  V30 5350 C 523.68 0.822564 1.48889 0
M  V30 5351 O 524.865 1.08486 1.61072 0
M  V30 5352 C 521.995 2.27102 2.62759 0
M  V30 5353 C 520.949 3.4277 2.56306 0
M  V30 5354 C 520.275 3.60043 3.95314 0
M  V30 5355 C 521.575 4.77742 2.11093 0
M  V30 5356 H 523.269 2.83912 0.950504 0
M  V30 5357 H 520.815 1.36596 0.455791 0
M  V30 5358 H 522.768 2.53256 3.36807 0
M  V30 5359 H 521.492 1.35478 2.97176 0
M  V30 5360 H 520.151 3.16664 1.84715 0
M  V30 5361 H 519.799 2.65794 4.27039 0
M  V30 5362 H 519.499 4.37841 3.91879 0
M  V30 5363 H 521.023 3.88545 4.71025 0
M  V30 5364 H 522.437 5.03102 2.74885 0
M  V30 5365 H 520.834 5.58823 2.18716 0
M  V30 5366 H 521.904 4.731 1.06321 0
M  V30 5367 N 523.247 -0.488276 1.49845 0
M  V30 5368 C 524.21 -1.57069 1.66919 0
M  V30 5369 C 525.21 -1.51445 0.540479 0
M  V30 5370 O 526.4 -1.5437 0.807188 0
M  V30 5371 C 523.532 -2.96718 1.67844 0
M  V30 5372 H 524.725 -1.43254 2.63474 0
M  V30 5373 H 522.278 -0.713435 1.39068 0
M  V30 5374 H 523.013 -3.15996 0.7292 0
M  V30 5375 H 522.798 -3.02208 2.49826 0
M  V30 5376 H 524.288 -3.75335 1.83066 0
M  V30 5377 N 524.725 -1.39134 -0.740242 0
M  V30 5378 C 525.635 -1.39697 -1.88473 0
M  V30 5379 C 526.651 -0.292403 -1.71526 0
M  V30 5380 O 527.827 -0.533021 -1.94219 0
M  V30 5381 C 524.892 -1.23382 -3.24003 0
M  V30 5382 C 523.953 -2.43763 -3.53381 0
M  V30 5383 C 523.186 -2.28216 -4.82445 0
M  V30 5384 O 523.409 -1.28288 -5.55786 0
M  V30 5385 O 522.343 -3.1709 -5.11603 0
M  V30 5386 H 526.169 -2.36159 -1.90952 0
M  V30 5387 H 523.754 -1.20194 -0.887346 0
M  V30 5388 H 525.636 -1.16395 -4.05006 0
M  V30 5389 H 524.311 -0.300121 -3.22306 0
M  V30 5390 H 523.218 -2.56325 -2.72485 0
M  V30 5391 H 524.551 -3.35808 -3.59852 0
M  V30 5392 N 526.204 0.969867 -1.24223 0
M  V30 5393 C 527.167 2.04564 -1.03373 0
M  V30 5394 C 528.167 1.60798 0.00819206 0
M  V30 5395 O 529.357 1.72641 -0.232567 0
M  V30 5396 C 526.489 3.36163 -0.566343 0
M  V30 5397 H 527.682 2.24494 -1.98853 0
M  V30 5398 H 525.235 1.1448 -1.06415 0
M  V30 5399 H 525.97 3.21925 0.391751 0
M  V30 5400 H 525.755 3.69273 -1.31834 0
M  V30 5401 H 527.245 4.1526 -0.441435 0
M  V30 5402 N 527.682 1.05563 1.17022 0
M  V30 5403 C 528.645 0.664098 2.19368 0
M  V30 5404 C 529.645 -0.286358 1.5823 0
M  V30 5405 O 530.835 -0.069728 1.7406 0
M  V30 5406 C 527.967 -0.0239932 3.40892 0
M  V30 5407 H 529.16 1.57 2.55521 0
M  V30 5408 H 526.713 0.849964 1.31169 0
M  V30 5409 H 527.448 -0.942988 3.10287 0
M  V30 5410 H 527.233 0.659351 3.86516 0
M  V30 5411 H 528.723 -0.283909 4.16634 0
M  V30 5412 N 529.16 -1.33526 0.837174 0
M  V30 5413 C 530.107 -2.29248 0.267169 0
M  V30 5414 C 531.077 -1.54252 -0.616071 0
M  V30 5415 O 532.262 -1.82559 -0.554699 0
M  V30 5416 C 529.402 -3.40638 -0.553152 0
M  V30 5417 C 528.515 -4.30548 0.353921 0
M  V30 5418 C 527.65 -5.29051 -0.477339 0
M  V30 5419 C 526.689 -6.106 0.42823 0
M  V30 5420 N 525.826 -7.01152 -0.364801 0
M  V30 5421 H 530.666 -2.77398 1.08877 0
M  V30 5422 H 528.203 -1.36496 0.54838 0
M  V30 5423 H 530.161 -4.03921 -1.04422 0
M  V30 5424 H 528.791 -2.93685 -1.33973 0
M  V30 5425 H 527.843 -3.68001 0.963289 0
M  V30 5426 H 529.155 -4.87631 1.04964 0
M  V30 5427 H 528.309 -5.97853 -1.0323 0
M  V30 5428 H 527.048 -4.72541 -1.2065 0
M  V30 5429 H 526.053 -5.40718 0.995219 0
M  V30 5430 H 527.278 -6.69193 1.15573 0
M  V30 5431 H 525.224 -6.47092 -1.07738 0
M  V30 5432 H 525.141 -7.5551 0.272238 0
M  V30 5433 H 526.409 -7.74263 -0.902054 0
M  V30 5434 N 530.638 -0.59345 -1.46 0
M  V30 5435 C 531.568 0.121192 -2.33185 0
M  V30 5436 C 532.549 0.872977 -1.4599 0
M  V30 5437 O 533.734 0.846321 -1.74789 0
M  V30 5438 C 530.864 1.12844 -3.28456 0
M  V30 5439 C 529.818 0.4908 -4.25177 0
M  V30 5440 C 529.144 1.60529 -5.10034 0
M  V30 5441 C 530.444 -0.578949 -5.19081 0
M  V30 5442 H 532.138 -0.606767 -2.93187 0
M  V30 5443 H 529.684 -0.293242 -1.40983 0
M  V30 5444 H 531.637 1.63684 -3.88311 0
M  V30 5445 H 530.361 1.88681 -2.66584 0
M  V30 5446 H 529.02 0.00339328 -3.666 0
M  V30 5447 H 528.668 2.35359 -4.44539 0
M  V30 5448 H 528.368 1.18422 -5.75543 0
M  V30 5449 H 529.892 2.11623 -5.72755 0
M  V30 5450 H 531.306 -0.155199 -5.7309 0
M  V30 5451 H 529.703 -0.920947 -5.92991 0
M  V30 5452 H 530.773 -1.46109 -4.62364 0
M  V30 5453 N 532.116 1.54067 -0.331816 0
M  V30 5454 C 533.046 2.27569 0.522932 0
M  V30 5455 C 534.027 1.28679 1.11247 0
M  V30 5456 O 535.212 1.57504 1.13605 0
M  V30 5457 C 532.342 3.0397 1.67987 0
M  V30 5458 C 531.296 4.10267 1.21924 0
M  V30 5459 C 530.622 4.74555 2.46377 0
M  V30 5460 C 531.922 5.21268 0.32815 0
M  V30 5461 H 533.616 2.99264 -0.0901977 0
M  V30 5462 H 531.162 1.4393 -0.044821 0
M  V30 5463 H 533.115 3.54123 2.28418 0
M  V30 5464 H 531.839 2.29906 2.31971 0
M  V30 5465 H 530.498 3.61009 0.637809 0
M  V30 5466 H 530.146 3.97098 3.08743 0
M  V30 5467 H 529.846 5.46363 2.16243 0
M  V30 5468 H 531.37 5.27487 3.07555 0
M  V30 5469 H 532.784 5.67128 0.838978 0
M  V30 5470 H 531.181 5.99982 0.119228 0
M  V30 5471 H 532.251 4.80673 -0.638839 0
M  V30 5472 N 533.594 0.0601682 1.57485 0
M  V30 5473 C 534.84 -0.612501 1.93329 0
M  V30 5474 C 535.173 -1.6996 0.939526 0
M  V30 5475 O 534.448 -1.94472 -0.0330957 0
M  V30 5476 C 534.731 -1.20025 3.39508 0
M  V30 5477 C 534.584 -0.12059 4.49638 0
M  V30 5478 C 535.903 -2.10923 3.86264 0
M  V30 5479 H 533.022 -0.221185 0.703027 0
M  V30 5480 H 535.664 0.123768 1.89596 0
M  V30 5481 H 533.814 -1.82774 3.42821 0
M  V30 5482 H 535.486 0.51185 4.58452 0
M  V30 5483 H 533.729 0.550251 4.30296 0
M  V30 5484 H 534.4 -0.572019 5.49028 0
M  V30 5485 H 536.876 -1.58124 3.84884 0
M  V30 5486 H 535.752 -2.48987 4.8918 0
M  V30 5487 H 536.013 -3.01292 3.23536 0
M  V30 5488 N 535.072 -1.5615 -0.213296 0
M  V30 5489 C 536.32 -1.79191 -0.934612 0
M  V30 5490 C 536.641 -0.630112 -1.84539 0
M  V30 5491 O 535.911 0.35257 -1.92701 0
M  V30 5492 H 534.491 -0.660937 -0.348097 0
M  V30 5493 H 537.153 -1.93618 -0.22317 0
M  V30 5494 H 536.249 -2.71656 -1.53654 0
M  V30 5495 N 536.55 0.480323 -1.50102 0
M  V30 5496 C 537.966 0.813295 -1.37323 0
M  V30 5497 C 538.166 1.97027 -0.422206 0
M  V30 5498 O 537.222 2.5212 0.138563 0
M  V30 5499 C 538.535 1.13404 -2.78496 0
M  V30 5500 C 540.083 1.24104 -2.87345 0
M  V30 5501 C 540.558 1.59497 -4.29331 0
M  V30 5502 N 542.049 1.66507 -4.32238 0
M  V30 5503 C 542.784 1.95378 -5.39087 0
M  V30 5504 N 542.28 2.22333 -6.56155 0
M  V30 5505 N 544.073 1.96803 -5.26522 0
M  V30 5506 H 536.224 -0.282291 -2.10516 0
M  V30 5507 H 538.487 -0.063752 -0.945854 0
M  V30 5508 H 538.193 0.357064 -3.49883 0
M  V30 5509 H 538.067 2.07251 -3.15162 0
M  V30 5510 H 540.454 2.00871 -2.16183 0
M  V30 5511 H 540.535 0.282593 -2.54234 0
M  V30 5512 H 540.179 0.832736 -5.01027 0
M  V30 5513 H 540.109 2.56477 -4.59921 0
M  V30 5514 H 542.6 1.47753 -3.47818 0
M  V30 5515 H 542.913 2.43611 -7.33399 0
M  V30 5516 H 541.258 2.19745 -6.59346 0
M  V30 5517 H 544.449 1.75235 -4.34062 0
M  V30 5518 H 544.622 2.18969 -6.09883 0
M  V30 5519 N 538.028 1.39524 0.732853 0
M  V30 5520 C 539.274 1.37068 1.49467 0
M  V30 5521 C 539.607 -0.0327166 1.94172 0
M  V30 5522 O 538.882 -0.998071 1.66939 0
M  V30 5523 C 539.165 2.34494 2.73285 0
M  V30 5524 C 539.018 3.83784 2.34585 0
M  V30 5525 C 540.337 2.29717 3.75391 0
M  V30 5526 H 537.456 0.499206 0.542183 0
M  V30 5527 H 540.098 1.70532 0.837783 0
M  V30 5528 H 538.248 2.06087 3.29333 0
M  V30 5529 H 539.92 4.22949 1.84151 0
M  V30 5530 H 538.163 4.00455 1.66787 0
M  V30 5531 H 538.834 4.47444 3.23262 0
M  V30 5532 H 541.31 2.54839 3.28932 0
M  V30 5533 H 540.186 2.99962 4.59689 0
M  V30 5534 H 540.447 1.30291 4.22465 0
M  V30 5535 N 539.506 -0.963266 1.24736 0
M  V30 5536 C 540.783 -1.68248 0.9976 0
M  V30 5537 C 541.163 -2.05599 -0.478776 0
M  V30 5538 O 540.511 -1.7626 -1.45412 0
M  V30 5539 C 540.721 -2.91118 1.92487 0
M  V30 5540 C 542.069 -3.63261 2.19833 0
M  V30 5541 O 543.093 -3.01184 1.90176 0
M  V30 5542 O 541.952 -4.75019 2.7022 0
M  V30 5543 H 539.046 -0.735744 0.377637 0
M  V30 5544 H 541.592 -1.01696 1.35853 0
M  V30 5545 H 540.364 -2.60242 2.92215 0
M  V30 5546 H 539.987 -3.65402 1.56738 0
M  V30 5547 N 540.985 -1.06182 -1.16461 0
M  V30 5548 C 541.932 -0.671613 -2.20812 0
M  V30 5549 C 542.902 0.331186 -1.62765 0
M  V30 5550 O 544.087 0.22033 -1.89524 0
M  V30 5551 C 541.227 -0.063029 -3.45042 0
M  V30 5552 C 540.34 -1.11587 -4.1734 0
M  V30 5553 C 539.475 -0.473546 -5.29085 0
M  V30 5554 C 538.514 -1.51 -5.93182 0
M  V30 5555 N 537.651 -0.891118 -6.96422 0
M  V30 5556 H 542.491 -1.56589 -2.53542 0
M  V30 5557 H 540.028 -0.782951 -1.24532 0
M  V30 5558 H 541.986 0.307344 -4.16066 0
M  V30 5559 H 540.616 0.794663 -3.12866 0
M  V30 5560 H 539.668 -1.60396 -3.44931 0
M  V30 5561 H 540.98 -1.90221 -4.61104 0
M  V30 5562 H 540.134 -0.0501432 -6.06679 0
M  V30 5563 H 538.873 0.344687 -4.8648 0
M  V30 5564 H 537.878 -1.94331 -5.14311 0
M  V30 5565 H 539.103 -2.33031 -6.37866 0
M  V30 5566 H 537.049 -0.0935753 -6.55933 0
M  V30 5567 H 536.966 -1.61486 -7.38551 0
M  V30 5568 H 538.234 -0.492822 -7.77941 0
M  V30 5569 N 542.463 1.3308 -0.844243 0
M  V30 5570 C 543.711 1.97215 -0.441676 0
M  V30 5571 C 544.032 1.67185 1.0037 0
M  V30 5572 O 543.302 0.973588 1.69994 0
M  V30 5573 H 541.882 0.72959 -0.160335 0
M  V30 5574 H 544.544 1.62348 -1.07838 0
M  V30 5575 H 543.64 3.06698 -0.57815 0
M  V30 5576 N 543.941 0.601185 1.45683 0
M  V30 5577 C 545.357 0.264315 1.57396 0
M  V30 5578 C 545.557 -1.23324 1.59353 0
M  V30 5579 O 544.613 -2.01594 1.52039 0
M  V30 5580 C 545.926 0.929839 2.85962 0
M  V30 5581 C 547.474 0.905156 2.99626 0
M  V30 5582 C 547.949 1.55057 4.30954 0
M  V30 5583 N 549.44 1.51576 4.37697 0
M  V30 5584 C 550.175 1.98436 5.37969 0
M  V30 5585 N 549.671 2.53352 6.44813 0
M  V30 5586 N 551.464 1.89242 5.29286 0
M  V30 5587 H 543.615 1.57363 1.42656 0
M  V30 5588 H 545.878 0.658831 0.681649 0
M  V30 5589 H 545.584 1.98404 2.90394 0
M  V30 5590 H 545.458 0.449224 3.74515 0
M  V30 5591 H 547.845 -0.14048 2.94765 0
M  V30 5592 H 547.926 1.42397 2.12501 0
M  V30 5593 H 547.57 2.5955 4.36573 0
M  V30 5594 H 547.5 1.00682 5.16886 0
M  V30 5595 H 549.991 1.11452 3.61091 0
M  V30 5596 H 550.304 2.86918 7.17564 0
M  V30 5597 H 548.649 2.57388 6.45582 0
M  V30 5598 H 551.84 1.46083 4.44722 0
M  V30 5599 H 552.013 2.26075 6.07284 0
M  V30 5600 N 545.419 -1.53889 0.339982 0
M  V30 5601 C 546.352 -2.21187 -0.561405 0
M  V30 5602 C 547.33 -1.19463 -1.10306 0
M  V30 5603 O 548.514 -1.48268 -1.164 0
M  V30 5604 C 545.641 -2.8865 -1.77198 0
M  V30 5605 C 544.687 -4.04232 -1.3601 0
M  V30 5606 S 545.52 -5.34129 -0.382909 0
M  V30 5607 C 546.676 -6.05094 -1.60039 0
M  V30 5608 H 546.909 -2.97298 0.0102092 0
M  V30 5609 H 544.442 -1.53901 0.124056 0
M  V30 5610 H 546.4 -3.28138 -2.4665 0
M  V30 5611 H 545.061 -2.12311 -2.3148 0
M  V30 5612 H 544.254 -4.50358 -2.2626 0
M  V30 5613 H 543.856 -3.66503 -0.745098 0
M  V30 5614 H 546.148 -6.2827 -2.53541 0
M  V30 5615 H 547.091 -6.98182 -1.18099 0
M  V30 5616 H 547.499 -5.35207 -1.79483 0
M  V30 5617 N 546.897 -0.0685191 -1.57451 0
M  V30 5618 C 548.125 0.610462 -1.97689 0
M  V30 5619 C 548.54 1.63346 -0.946758 0
M  V30 5620 O 547.897 1.82377 0.0669868 0
M  V30 5621 C 547.948 1.28196 -3.38006 0
M  V30 5622 O 547.669 0.299906 -4.37072 0
M  V30 5623 C 549.17 2.04907 -3.931 0
M  V30 5624 H 546.39 0.165689 -0.650222 0
M  V30 5625 H 548.934 -0.139953 -2.04021 0
M  V30 5626 H 547.089 1.98348 -3.32771 0
M  V30 5627 H 547.503 0.78126 -5.18649 0
M  V30 5628 H 548.977 2.47287 -4.93511 0
M  V30 5629 H 549.454 2.9043 -3.29465 0
M  V30 5630 H 550.06 1.39629 -4.01726 0
M  V30 5631 N 548.375 1.56261 0.205012 0
M  V30 5632 C 549.786 1.70056 0.770574 0
M  V30 5633 C 550.137 0.673398 1.84282 0
M  V30 5634 O 549.262 -0.172196 2.15714 0
M  V30 5635 C 549.857 3.08316 1.40451 0
M  V30 5636 C 548.416 3.2391 1.91727 0
M  V30 5637 C 547.563 2.66001 0.783516 0
M  V30 5638 H 550.514 1.58688 -0.019911 0
M  V30 5639 H 550.535 3.05094 2.27371 0
M  V30 5640 H 550.047 3.83053 0.623882 0
M  V30 5641 H 548.148 2.54072 2.7254 0
M  V30 5642 H 548.261 4.3131 2.08588 0
M  V30 5643 H 546.625 2.24915 1.19521 0
M  V30 5644 H 547.408 3.43297 0.0152883 0
M  V30 5645 N 549.853 -0.472356 1.50355 0
M  V30 5646 C 550.816 -1.5529 1.68576 0
M  V30 5647 C 551.816 -1.50863 0.556511 0
M  V30 5648 O 553.006 -1.53505 0.823516 0
M  V30 5649 C 550.138 -2.94921 1.70981 0
M  V30 5650 H 551.331 -1.40451 2.64978 0
M  V30 5651 H 548.884 -0.698645 1.39816 0
M  V30 5652 H 549.619 -3.15204 0.762675 0
M  V30 5653 H 549.404 -2.99541 2.53017 0
M  V30 5654 H 550.894 -3.73372 1.87037 0
M  V30 5655 N 551.331 -1.39911 -0.725443 0
M  V30 5656 C 552.278 -1.39393 -1.83952 0
M  V30 5657 C 553.248 -0.252249 -1.64173 0
M  V30 5658 O 554.433 -0.44882 -1.85446 0
M  V30 5659 C 551.573 -1.25262 -3.21564 0
M  V30 5660 C 550.686 -2.49054 -3.52982 0
M  V30 5661 C 549.821 -2.27439 -4.80047 0
M  V30 5662 C 548.86 -3.46857 -5.04338 0
M  V30 5663 N 547.997 -3.24499 -6.22611 0
M  V30 5664 H 552.837 -2.34622 -1.83729 0
M  V30 5665 H 550.374 -1.16537 -0.897636 0
M  V30 5666 H 552.332 -1.15077 -4.01015 0
M  V30 5667 H 550.962 -0.33657 -3.21041 0
M  V30 5668 H 550.014 -2.69805 -2.6816 0
M  V30 5669 H 551.326 -3.37973 -3.66846 0
M  V30 5670 H 550.48 -2.14551 -5.67497 0
M  V30 5671 H 549.219 -1.35929 -4.68374 0
M  V30 5672 H 548.224 -3.60232 -4.15346 0
M  V30 5673 H 549.449 -4.3928 -5.17889 0
M  V30 5674 H 547.395 -2.35663 -6.12208 0
M  V30 5675 H 547.312 -4.06978 -6.37106 0
M  V30 5676 H 548.58 -3.15325 -7.12875 0
M  V30 5677 N 552.809 0.956637 -1.25245 0
M  V30 5678 C 553.742 2.05232 -0.99775 0
M  V30 5679 C 554.72 1.62439 0.0723137 0
M  V30 5680 O 555.904 1.88381 -0.066926 0
M  V30 5681 C 553.031 3.34871 -0.507861 0
M  V30 5682 C 552.077 3.96625 -1.56815 0
M  V30 5683 S 552.91 4.32853 -3.15276 0
M  V30 5684 C 554.066 5.65613 -2.68017 0
M  V30 5685 H 554.299 2.26521 -1.9255 0
M  V30 5686 H 551.832 1.09601 -1.08752 0
M  V30 5687 H 553.79 4.09845 -0.231858 0
M  V30 5688 H 552.451 3.11551 0.399356 0
M  V30 5689 H 551.644 4.90087 -1.17604 0
M  V30 5690 H 551.246 3.28124 -1.79473 0
M  V30 5691 H 553.538 6.43635 -2.11518 0
M  V30 5692 H 554.481 6.09693 -3.60112 0
M  V30 5693 H 554.889 5.24751 -2.0808 0
M  V30 5694 N 554.287 1.06798 1.15896 0
M  V30 5695 C 555.25 0.687328 2.18651 0
M  V30 5696 C 556.25 -0.269559 1.58524 0
M  V30 5697 O 557.44 -0.0512627 1.74125 0
M  V30 5698 C 554.572 0.0121642 3.40898 0
M  V30 5699 H 555.765 1.59701 2.53842 0
M  V30 5700 H 553.318 0.863828 1.3026 0
M  V30 5701 H 554.053 -0.910025 3.1127 0
M  V30 5702 H 553.838 0.700309 3.85795 0
M  V30 5703 H 555.328 -0.239703 4.16911 0
M  V30 5704 N 555.766 -1.3263 0.851289 0
M  V30 5705 C 556.676 -2.32722 0.296268 0
M  V30 5706 C 557.692 -1.63901 -0.584162 0
M  V30 5707 O 558.868 -1.95465 -0.485334 0
M  V30 5708 C 555.933 -3.42942 -0.509103 0
M  V30 5709 C 554.994 -4.2746 0.397069 0
M  V30 5710 C 554.227 -5.32416 -0.36996 0
M  V30 5711 O 554.45 -5.47491 -1.6003 0
M  V30 5712 O 553.384 -6.01327 0.262493 0
M  V30 5713 H 557.21 -2.82078 1.12543 0
M  V30 5714 H 554.795 -1.36194 0.614135 0
M  V30 5715 H 556.677 -4.1017 -0.96634 0
M  V30 5716 H 555.352 -2.95781 -1.31512 0
M  V30 5717 H 554.259 -3.63053 0.902411 0
M  V30 5718 H 555.592 -4.78136 1.16818 0
M  V30 5719 N 557.244 -0.608902 -1.45362 0
M  V30 5720 C 558.49 -0.104762 -2.02529 0
M  V30 5721 C 558.823 1.26191 -1.47613 0
M  V30 5722 O 558.098 1.8327 -0.65134 0
M  V30 5723 C 558.381 -0.0672661 -3.60037 0
M  V30 5724 C 558.234 -1.4647 -4.25284 0
M  V30 5725 C 559.553 0.619877 -4.35713 0
M  V30 5726 H 556.672 -0.0395438 -0.735938 0
M  V30 5727 H 559.314 -0.781126 -1.73201 0
M  V30 5728 H 557.464 0.50871 -3.85155 0
M  V30 5729 H 559.136 -2.08785 -4.11347 0
M  V30 5730 H 557.379 -2.02502 -3.83634 0
M  V30 5731 H 558.05 -1.39069 -5.34195 0
M  V30 5732 H 560.526 0.130297 -4.15896 0
M  V30 5733 H 559.402 0.615224 -5.45441 0
M  V30 5734 H 559.663 1.68621 -4.0868 0
M  V30 5735 N 558.722 1.53707 -0.348139 0
M  V30 5736 C 559.652 2.28111 0.498766 0
M  V30 5737 C 560.633 1.29851 1.09876 0
M  V30 5738 O 561.818 1.587 1.11928 0
M  V30 5739 C 558.948 3.05735 1.64753 0
M  V30 5740 C 557.902 4.11537 1.17565 0
M  V30 5741 C 557.228 4.77142 2.4133 0
M  V30 5742 C 558.528 5.21587 0.272844 0
M  V30 5743 H 560.222 2.99152 -0.121934 0
M  V30 5744 H 557.768 1.43875 -0.0600842 0
M  V30 5745 H 559.721 3.56526 2.24649 0
M  V30 5746 H 558.445 2.32354 2.2952 0
M  V30 5747 H 557.104 3.61665 0.599483 0
M  V30 5748 H 556.752 4.0035 3.04514 0
M  V30 5749 H 556.452 5.48626 2.10436 0
M  V30 5750 H 557.976 5.30719 3.01943 0
M  V30 5751 H 559.39 5.67986 0.778779 0
M  V30 5752 H 557.787 6.00074 0.0555849 0
M  V30 5753 H 558.857 4.79969 -0.689785 0
M  V30 5754 N 560.2 0.0768682 1.57412 0
M  V30 5755 C 561.148 -0.906229 2.1422 0
M  V30 5756 C 562.142 -1.30477 1.08037 0
M  V30 5757 O 563.348 -1.28143 1.2641 0
M  V30 5758 H 559.723 -0.310207 0.685037 0
M  V30 5759 H 561.694 -0.402228 2.95677 0
M  V30 5760 C 560.443 -2.16245 2.72274 0
M  V30 5761 H 559.766 -1.86463 3.53655 0
M  V30 5762 H 561.206 -2.83134 3.15613 0
M  V30 5763 C 559.665 -2.92437 1.67279 0
M  V30 5764 O 560.195 -3.86322 1.10081 0
M  V30 5765 N 558.401 -2.55637 1.38195 0
M  V30 5766 H 557.948 -1.79363 1.84897 0
M  V30 5767 H 557.906 -3.06919 0.681787 0
M  V30 5768 N 561.678 -1.56367 -0.196722 0
M  V30 5769 C 562.926 -1.80172 -0.915554 0
M  V30 5770 C 563.247 -0.649649 -1.8386 0
M  V30 5771 O 562.517 0.332111 -1.93064 0
M  V30 5772 H 561.097 -0.664592 -0.341067 0
M  V30 5773 H 563.759 -1.93844 -0.202622 0
M  V30 5774 H 562.855 -2.7327 -1.50764 0
M  V30 5775 N 563.156 0.464375 -1.50603 0
M  V30 5776 C 564.405 1.21277 -1.61167 0
M  V30 5777 C 564.718 1.92953 -0.320704 0
M  V30 5778 O 565.924 2.69778 -0.30534 0
M  V30 5779 C 564.38 2.20403 -2.84518 0
M  V30 5780 C 563.988 1.54499 -4.20516 0
M  V30 5781 C 565.732 2.95843 -3.0443 0
M  V30 5782 C 563.639 2.51951 -5.35047 0
M  V30 5783 H 562.569 0.456367 -0.600204 0
M  V30 5784 H 565.22 0.48254 -1.77042 0
M  V30 5785 H 563.602 2.96746 -2.62217 0
M  V30 5786 H 564.776 0.83899 -4.53098 0
M  V30 5787 H 563.091 0.913152 -4.06264 0
M  V30 5788 H 565.688 3.6879 -3.87167 0
M  V30 5789 H 566.031 3.55622 -2.16423 0
M  V30 5790 H 566.564 2.26611 -3.26944 0
M  V30 5791 H 563.303 1.96901 -6.25228 0
M  V30 5792 H 562.823 3.20683 -5.06875 0
M  V30 5793 H 564.502 3.13643 -5.65895 0
M  V30 5794 N 564.634 1.40294 0.718013 0
M  V30 5795 C 566.05 1.2227 1.02577 0
M  V30 5796 C 566.25 0.0961976 2.0127 0
M  V30 5797 O 565.306 -0.546695 2.46511 0
M  V30 5798 C 566.619 2.56348 1.57182 0
M  V30 5799 C 568.167 2.6334 1.69178 0
M  V30 5800 C 568.642 3.9768 2.27188 0
M  V30 5801 N 570.133 3.99409 2.34578 0
M  V30 5802 C 570.868 5.00141 2.8044 0
M  V30 5803 N 570.364 6.11268 3.26073 0
M  V30 5804 N 572.157 4.87511 2.79802 0
M  V30 5805 H 564.308 2.12304 0.0637899 0
M  V30 5806 H 566.571 0.943632 0.0909036 0
M  V30 5807 H 566.277 3.3942 0.921262 0
M  V30 5808 H 566.151 2.77266 2.55741 0
M  V30 5809 H 568.538 1.80641 2.33351 0
M  V30 5810 H 568.619 2.46255 0.692247 0
M  V30 5811 H 568.263 4.80817 1.63638 0
M  V30 5812 H 568.193 4.12093 3.27852 0
M  V30 5813 H 570.684 3.19162 2.02346 0
M  V30 5814 H 570.997 6.84023 3.59628 0
M  V30 5815 H 569.342 6.14837 3.24038 0
M  V30 5816 H 572.533 3.9979 2.43487 0
M  V30 5817 H 572.706 5.66158 3.15228 0
M  V30 5818 N 566.112 -0.949982 1.2575 0
M  V30 5819 C 567.523 -1.50989 1.09815 0
M  V30 5820 C 567.874 -1.93497 -0.324556 0
M  V30 5821 O 566.999 -1.79068 -1.21506 0
M  V30 5822 C 567.594 -2.74394 1.98729 0
M  V30 5823 C 566.153 -3.26682 1.86965 0
M  V30 5824 C 565.3 -1.99498 1.92603 0
M  V30 5825 H 568.251 -0.766387 1.38968 0
M  V30 5826 H 568.272 -3.48383 1.53001 0
M  V30 5827 H 567.784 -2.43425 3.02268 0
M  V30 5828 H 565.885 -3.62461 0.863279 0
M  V30 5829 H 565.998 -3.94383 2.72027 0
M  V30 5830 H 564.362 -2.15005 1.36546 0
M  V30 5831 H 565.145 -1.70871 2.97755 0
M  V30 5832 N 567.59 -1.07411 -1.15328 0
M  V30 5833 C 568.818 -0.818782 -1.90009 0
M  V30 5834 C 569.233 0.628072 -1.78047 0
M  V30 5835 O 568.59 1.43085 -1.13282 0
M  V30 5836 C 568.641 -1.21874 -3.40337 0
M  V30 5837 O 568.362 -2.60883 -3.51954 0
M  V30 5838 C 569.863 -0.992796 -4.3204 0
M  V30 5839 H 567.083 -0.296007 -0.60218 0
M  V30 5840 H 569.627 -1.43073 -1.46117 0
M  V30 5841 H 567.782 -0.651103 -3.81889 0
M  V30 5842 H 568.196 -2.77216 -4.45255 0
M  V30 5843 H 569.67 -1.32215 -5.35932 0
M  V30 5844 H 570.147 0.0708331 -4.39143 0
M  V30 5845 H 570.753 -1.54537 -3.9623 0
M  V30 5846 N 569.068 1.32177 -0.85831 0
M  V30 5847 C 569.998 2.31282 -0.321041 0
M  V30 5848 C 570.979 1.59841 0.581786 0
M  V30 5849 O 572.164 1.87619 0.501262 0
M  V30 5850 C 569.294 3.4385 0.48832 0
M  V30 5851 C 568.248 4.26799 -0.320391 0
M  V30 5852 C 567.574 5.31164 0.613934 0
M  V30 5853 C 568.874 4.98829 -1.54813 0
M  V30 5854 H 570.568 2.76469 -1.14915 0
M  V30 5855 H 568.114 1.32916 -0.554028 0
M  V30 5856 H 570.067 4.12224 0.874626 0
M  V30 5857 H 568.791 2.97401 1.34983 0
M  V30 5858 H 567.45 3.60077 -0.688497 0
M  V30 5859 H 567.098 4.80967 1.47239 0
M  V30 5860 H 566.798 5.8755 0.0768097 0
M  V30 5861 H 568.322 6.024 0.997336 0
M  V30 5862 H 569.736 5.59864 -1.23392 0
M  V30 5863 H 568.133 5.64957 -2.02346 0
M  V30 5864 H 569.203 4.26483 -2.30739 0
M  V30 5865 N 570.547 0.616602 1.45037 0
M  V30 5866 C 571.772 0.120192 2.07051 0
M  V30 5867 C 572.197 -1.19008 1.45666 0
M  V30 5868 O 571.555 -1.7267 0.552692 0
M  V30 5869 C 571.603 0.00354901 3.606 0
M  V30 5870 O 570.707 -1.04431 3.98958 0
M  V30 5871 H 570.048 0.0781599 0.659384 0
M  V30 5872 H 572.578 0.849167 1.86146 0
M  V30 5873 H 572.588 -0.191754 4.07549 0
M  V30 5874 H 571.263 0.960239 4.04663 0
M  V30 5875 H 569.84 -0.824749 3.63665 0
M  V30 5876 N 572.025 -1.5352 0.356285 0
M  V30 5877 C 573.255 -2.05236 -0.236983 0
M  V30 5878 C 573.663 -1.23016 -1.43749 0
M  V30 5879 O 573.006 -0.2615 -1.81829 0
M  V30 5880 C 573.068 -3.52549 -0.7035 0
M  V30 5881 C 572.732 -4.55425 0.379059 0
M  V30 5882 C 573.729 -5.0524 1.22592 0
M  V30 5883 C 571.414 -4.99425 0.536638 0
M  V30 5884 C 573.408 -5.97647 2.21578 0
M  V30 5885 C 571.095 -5.9164 1.52988 0
M  V30 5886 C 572.093 -6.4064 2.3679 0
M  V30 5887 O 571.781 -7.31039 3.34421 0
M  V30 5888 H 571.513 -0.674346 -0.047254 0
M  V30 5889 H 574.067 -1.98962 0.510238 0
M  V30 5890 H 572.297 -3.56331 -1.50217 0
M  V30 5891 H 573.986 -3.87171 -1.21873 0
M  V30 5892 H 574.752 -4.72002 1.11532 0
M  V30 5893 H 570.631 -4.60879 -0.105834 0
M  V30 5894 H 574.175 -6.35816 2.87025 0
M  V30 5895 H 570.072 -6.24293 1.64099 0
M  V30 5896 H 570.84 -7.49009 3.30041 0
M  V30 5897 N 573.503 -0.0852151 -1.57369 0
M  V30 5898 C 574.751 0.579658 -1.93609 0
M  V30 5899 C 575.072 1.69332 -0.967043 0
M  V30 5900 O 574.342 1.95892 -0.0174215 0
M  V30 5901 H 572.922 0.217113 -0.714752 0
M  V30 5902 H 575.584 -0.146226 -1.94351 0
M  V30 5903 H 574.68 0.996276 -2.95771 0
M  V30 5904 N 574.981 1.5647 0.188427 0
M  V30 5905 C 576.258 1.71857 0.934058 0
M  V30 5906 C 576.638 0.641867 2.01105 0
M  V30 5907 O 575.986 -0.346098 2.25864 0
M  V30 5908 C 576.196 3.14431 1.5144 0
M  V30 5909 C 577.544 3.74869 1.99396 0
M  V30 5910 O 578.568 3.17601 1.61269 0
M  V30 5911 O 577.427 4.75387 2.69573 0
M  V30 5912 H 574.521 0.701186 0.438483 0
M  V30 5913 H 577.067 1.68768 0.177599 0
M  V30 5914 H 575.839 3.8427 0.738416 0
M  V30 5915 H 575.462 3.21775 2.33552 0
M  V30 5916 N 576.459 -0.456382 1.50847 0
M  V30 5917 C 577.706 -1.20736 1.62571 0
M  V30 5918 C 578.034 -1.9163 0.332904 0
M  V30 5919 O 577.289 -1.8343 -0.682058 0
M  V30 5920 C 577.588 -2.26336 2.76599 0
M  V30 5921 C 577.254 -1.7259 4.16562 0
M  V30 5922 C 575.916 -1.57654 4.54641 0
M  V30 5923 C 578.268 -1.32877 5.03977 0
M  V30 5924 C 575.596 -1.0145 5.77862 0
M  V30 5925 C 577.948 -0.7811 6.27759 0
M  V30 5926 C 576.612 -0.618488 6.64628 0
M  V30 5927 H 575.882 -0.441803 0.594888 0
M  V30 5928 H 578.529 -0.501169 1.84826 0
M  V30 5929 H 576.834 -3.0292 2.48489 0
M  V30 5930 H 578.531 -2.84227 2.82871 0
M  V30 5931 H 575.121 -1.85187 3.86528 0
M  V30 5932 H 579.305 -1.43245 4.75179 0
M  V30 5933 H 574.561 -0.876109 6.0509 0
M  V30 5934 H 578.735 -0.464783 6.94847 0
M  V30 5935 H 576.362 -0.180838 7.59985 0
M  V30 5936 N 577.937 -1.40673 -0.710563 0
M  V30 5937 C 579.185 -1.38947 -1.46759 0
M  V30 5938 C 579.506 0.00572879 -1.94999 0
M  V30 5939 O 578.776 0.961358 -1.70689 0
M  V30 5940 H 577.356 -0.5114 -0.544499 0
M  V30 5941 H 580.018 -1.75773 -0.842012 0
M  V30 5942 H 579.114 -2.06745 -2.33801 0
M  V30 5943 N 579.415 0.9433 -1.26252 0
M  V30 5944 C 580.363 2.06302 -1.07434 0
M  V30 5945 C 581.357 1.694 -0.00189471 0
M  V30 5946 O 582.563 1.79302 -0.158408 0
M  V30 5947 H 578.938 0.675453 -0.330556 0
M  V30 5948 H 580.909 2.19326 -2.02333 0
M  V30 5949 C 579.658 3.40125 -0.721817 0
M  V30 5950 H 578.981 3.68996 -1.5389 0
M  V30 5951 H 580.421 4.19295 -0.629922 0
M  V30 5952 C 578.88 3.31993 0.572902 0
M  V30 5953 O 579.41 3.67945 1.61182 0
M  V30 5954 N 577.616 2.85099 0.562748 0
M  V30 5955 H 577.163 2.5604 -0.283092 0
M  V30 5956 H 577.121 2.80041 1.42915 0
M  V30 5957 N 580.893 1.08022 1.14757 0
M  V30 5958 C 582.139 0.808705 1.85978 0
M  V30 5959 C 582.472 -0.663764 1.82504 0
M  V30 5960 O 581.747 -1.48765 1.25296 0
M  V30 5961 C 582.03 1.32623 3.34788 0
M  V30 5962 C 581.883 2.86375 3.46856 0
M  V30 5963 C 583.202 0.948291 4.29762 0
M  V30 5964 H 580.321 0.295244 0.675278 0
M  V30 5965 H 582.963 1.33917 1.34783 0
M  V30 5966 H 581.113 0.875002 3.78518 0
M  V30 5967 H 582.785 3.39839 3.11941 0
M  V30 5968 H 581.028 3.24232 2.88194 0
M  V30 5969 H 581.699 3.17658 4.51439 0
M  V30 5970 H 584.175 1.33722 3.94028 0
M  V30 5971 H 583.051 1.33765 5.32352 0
M  V30 5972 H 583.312 -0.145094 4.41862 0
M  V30 5973 N 582.371 -1.3172 0.865308 0
M  V30 5974 C 583.648 -1.91574 0.394789 0
M  V30 5975 C 584.028 -1.78769 -1.12271 0
M  V30 5976 O 583.376 -1.19245 -1.94918 0
M  V30 5977 C 583.586 -3.37957 0.870982 0
M  V30 5978 C 584.934 -4.15073 0.894384 0
M  V30 5979 O 585.958 -3.4672 0.816325 0
M  V30 5980 O 584.817 -5.37151 1.00651 0
M  V30 5981 H 581.911 -0.818649 0.117229 0
M  V30 5982 H 584.457 -1.4042 0.952913 0
M  V30 5983 H 583.229 -3.41269 1.91444 0
M  V30 5984 H 582.852 -3.96534 0.290907 0
M  V30 5985 N 583.85 -0.624285 -1.44708 0
M  V30 5986 C 584.779 0.0717025 -2.3339 0
M  V30 5987 C 585.76 0.841814 -1.47809 0
M  V30 5988 O 586.946 0.809056 -1.76544 0
M  V30 5989 C 584.076 1.05852 -3.30776 0
M  V30 5990 C 583.029 0.400503 -4.26122 0
M  V30 5991 C 582.356 1.49674 -5.13324 0
M  V30 5992 C 583.656 -0.688924 -5.17737 0
M  V30 5993 H 585.35 -0.668819 -2.91834 0
M  V30 5994 H 582.896 -0.32308 -1.40329 0
M  V30 5995 H 584.849 1.5541 -3.91696 0
M  V30 5996 H 583.572 1.82984 -2.70526 0
M  V30 5997 H 582.231 -0.0743687 -3.66525 0
M  V30 5998 H 581.88 2.25877 -4.49431 0
M  V30 5999 H 581.58 1.06188 -5.77926 0
M  V30 6000 H 583.104 1.99427 -5.77115 0
M  V30 6001 H 584.518 -0.276724 -5.72632 0
M  V30 6002 H 582.915 -1.04652 -5.90904 0
M  V30 6003 H 583.985 -1.55884 -4.5916 0
M  V30 6004 N 585.328 1.53329 -0.364422 0
M  V30 6005 C 586.574 2.01537 0.225969 0
M  V30 6006 C 586.907 1.25128 1.48515 0
M  V30 6007 O 586.182 0.344653 1.91422 0
M  V30 6008 C 586.465 3.56339 0.519092 0
M  V30 6009 C 586.318 4.43441 -0.753639 0
M  V30 6010 C 587.637 4.19833 1.32015 0
M  V30 6011 H 584.756 0.732573 0.0806548 0
M  V30 6012 H 587.398 1.83597 -0.489084 0
M  V30 6013 H 585.548 3.71756 1.12825 0
M  V30 6014 H 587.22 4.39823 -1.39116 0
M  V30 6015 H 585.463 4.11457 -1.37424 0
M  V30 6016 H 586.134 5.49699 -0.503517 0
M  V30 6017 H 588.61 4.08242 0.804859 0
M  V30 6018 H 587.486 5.28177 1.49399 0
M  V30 6019 H 587.747 3.75821 2.32832 0
M  V30 6020 N 586.806 0.0935595 1.57322 0
M  V30 6021 C 588.052 -0.571355 1.94585 0
M  V30 6022 C 588.385 -1.67929 0.975366 0
M  V30 6023 O 587.66 -1.94498 0.00816206 0
M  V30 6024 C 587.943 -1.12797 3.41978 0
M  V30 6025 C 587.796 -0.0251881 4.49793 0
M  V30 6026 C 589.115 -2.02682 3.90651 0
M  V30 6027 H 586.234 -0.206223 0.70756 0
M  V30 6028 H 588.876 0.163956 1.89291 0
M  V30 6029 H 587.026 -1.75461 3.4662 0
M  V30 6030 H 588.698 0.608979 4.57263 0
M  V30 6031 H 586.941 0.641399 4.29032 0
M  V30 6032 H 587.612 -0.455433 5.50118 0
M  V30 6033 H 590.088 -1.49925 3.88152 0
M  V30 6034 H 588.964 -2.38555 4.94351 0
M  V30 6035 H 589.225 -2.94362 3.29854 0
M  V30 6036 N 588.284 -1.56567 -0.180126 0
M  V30 6037 C 589.194 -1.98947 -1.24327 0
M  V30 6038 C 590.21 -0.899446 -1.4895 0
M  V30 6039 O 591.386 -1.20639 -1.61271 0
M  V30 6040 C 588.451 -2.33328 -2.56435 0
M  V30 6041 C 587.512 -3.56114 -2.39752 0
M  V30 6042 C 586.745 -3.88845 -3.65561 0
M  V30 6043 O 586.968 -3.22662 -4.70368 0
M  V30 6044 O 585.902 -4.82226 -3.60197 0
M  V30 6045 H 589.728 -2.89634 -0.913565 0
M  V30 6046 H 587.313 -1.44319 -0.386306 0
M  V30 6047 H 589.195 -2.5645 -3.34382 0
M  V30 6048 H 587.87 -1.45806 -2.89002 0
M  V30 6049 H 586.777 -3.38221 -1.59866 0
M  V30 6050 H 588.11 -4.4415 -2.12113 0
M  V30 6051 N 589.762 0.448376 -1.51087 0
M  V30 6052 C 590.725 1.52588 -1.71025 0
M  V30 6053 C 591.725 1.49958 -0.580442 0
M  V30 6054 O 592.915 1.52176 -0.847833 0
M  V30 6055 C 590.047 2.92163 -1.75652 0
M  V30 6056 H 591.24 1.36218 -2.67179 0
M  V30 6057 H 588.793 0.676313 -1.4091 0
M  V30 6058 H 589.528 3.13951 -0.812724 0
M  V30 6059 H 589.313 2.95478 -2.57751 0
M  V30 6060 H 590.803 3.70349 -1.92953 0
M  V30 6061 N 591.24 1.41047 0.703093 0
M  V30 6062 C 592.486 1.40207 1.46526 0
M  V30 6063 C 592.819 0.00847763 1.94198 0
M  V30 6064 O 592.094 -0.962437 1.69019 0
M  V30 6065 C 592.377 2.40238 2.6825 0
M  V30 6066 C 592.23 3.88674 2.26391 0
M  V30 6067 C 593.549 2.37627 3.70434 0
M  V30 6068 H 590.668 0.510594 0.531472 0
M  V30 6069 H 593.31 1.72271 0.801422 0
M  V30 6070 H 591.46 2.13026 3.24888 0
M  V30 6071 H 593.132 4.2676 1.75138 0
M  V30 6072 H 591.375 4.03903 1.58255 0
M  V30 6073 H 592.046 4.542 3.13698 0
M  V30 6074 H 594.522 2.61759 3.23452 0
M  V30 6075 H 593.398 3.09645 4.53223 0
M  V30 6076 H 593.659 1.39223 4.19606 0
M  V30 6077 N 592.718 -0.936591 1.26751 0
M  V30 6078 C 593.964 -1.6858 1.12733 0
M  V30 6079 C 594.297 -1.91414 -0.327745 0
M  V30 6080 O 593.572 -1.49812 -1.24043 0
M  V30 6081 C 593.855 -3.05779 1.90187 0
M  V30 6082 C 593.708 -2.90242 3.43627 0
M  V30 6083 C 595.027 -4.0597 1.69931 0
M  V30 6084 H 592.146 -0.61182 0.410908 0
M  V30 6085 H 594.788 -1.08747 1.55801 0
M  V30 6086 H 592.938 -3.56853 1.53584 0
M  V30 6087 H 594.61 -2.46354 3.9001 0
M  V30 6088 H 592.853 -2.2577 3.70419 0
M  V30 6089 H 593.524 -3.87572 3.93055 0
M  V30 6090 H 596 -3.63874 2.0183 0
M  V30 6091 H 594.876 -4.99974 2.26534 0
M  V30 6092 H 595.137 -4.37369 0.64502 0
M  V30 6093 N 594.196 -1.08629 -1.14182 0
M  V30 6094 C 595.106 -0.730126 -2.22949 0
M  V30 6095 C 596.122 0.26436 -1.7198 0
M  V30 6096 O 597.298 0.107742 -2.01112 0
M  V30 6097 C 594.363 -0.147227 -3.46387 0
M  V30 6098 C 593.424 -1.19662 -4.12286 0
M  V30 6099 C 592.657 -0.641437 -5.29831 0
M  V30 6100 O 592.88 0.538351 -5.67854 0
M  V30 6101 O 591.814 -1.39257 -5.85569 0
M  V30 6102 H 595.64 -1.63753 -2.55771 0
M  V30 6103 H 593.225 -0.860118 -1.22157 0
M  V30 6104 H 595.107 0.174923 -4.21037 0
M  V30 6105 H 593.782 0.733304 -3.15285 0
M  V30 6106 H 592.689 -1.57133 -3.395 0
M  V30 6107 H 594.022 -2.0495 -4.475 0
M  V30 6108 N 595.674 1.31259 -0.872281 0
M  V30 6109 C 596.622 2.30404 -0.318897 0
M  V30 6110 C 597.616 1.5962 0.567267 0
M  V30 6111 O 598.822 1.74204 0.453111 0
M  V30 6112 H 595.197 0.747243 -0.0844474 0
M  V30 6113 H 597.168 2.74549 -1.16899 0
M  V30 6114 C 595.917 3.44608 0.462683 0
M  V30 6115 H 595.24 3.99248 -0.209936 0
M  V30 6116 H 596.68 4.1609 0.815187 0
M  V30 6117 C 595.139 2.93456 1.65485 0
M  V30 6118 O 595.669 2.92418 2.75417 0
M  V30 6119 N 593.875 2.49628 1.48776 0
M  V30 6120 H 593.422 2.50671 0.593452 0
M  V30 6121 H 593.38 2.15759 2.28682 0
M  V30 6122 N 597.152 0.631951 1.44375 0
M  V30 6123 C 598.563 0.219036 1.85411 0
M  V30 6124 C 598.914 -1.22974 1.52879 0
M  V30 6125 O 598.039 -1.93579 0.967266 0
M  V30 6126 C 598.634 0.39075 3.36539 0
M  V30 6127 C 597.193 0.0323351 3.76386 0
M  V30 6128 C 596.34 0.703744 2.68221 0
M  V30 6129 H 599.291 0.837056 1.3483 0
M  V30 6130 H 599.312 -0.370056 3.78696 0
M  V30 6131 H 598.824 1.44527 3.60185 0
M  V30 6132 H 596.925 -1.02042 3.58355 0
M  V30 6133 H 597.038 0.442969 4.77048 0
M  V30 6134 H 595.402 0.138974 2.54321 0
M  V30 6135 H 596.185 1.76088 2.947 0
M  V30 6136 N 598.631 -1.53133 0.372548 0
M  V30 6137 C 599.578 -2.25951 -0.470631 0
M  V30 6138 C 600.548 -1.26895 -1.07176 0
M  V30 6139 O 601.733 -1.55691 -1.10294 0
M  V30 6140 C 598.873 -3.05726 -1.6008 0
M  V30 6141 C 597.986 -4.19684 -1.02416 0
M  V30 6142 C 597.121 -4.86888 -2.124 0
M  V30 6143 C 596.16 -5.92866 -1.52238 0
M  V30 6144 N 595.297 -6.53732 -2.56084 0
M  V30 6145 H 600.137 -2.97587 0.156816 0
M  V30 6146 H 597.674 -1.4683 0.0891571 0
M  V30 6147 H 599.632 -3.50258 -2.26661 0
M  V30 6148 H 598.262 -2.36331 -2.1988 0
M  V30 6149 H 597.314 -3.79588 -0.248426 0
M  V30 6150 H 598.626 -4.95821 -0.544366 0
M  V30 6151 H 597.78 -5.34638 -2.86787 0
M  V30 6152 H 596.519 -4.10239 -2.63734 0
M  V30 6153 H 595.524 -5.4447 -0.763685 0
M  V30 6154 H 596.749 -6.71439 -1.0172 0
M  V30 6155 H 594.695 -5.79932 -3.06618 0
M  V30 6156 H 594.612 -7.25429 -2.12811 0
M  V30 6157 H 595.88 -7.0613 -3.30152 0
M  V30 6158 N 600.109 -0.101901 -1.5727 0
M  V30 6159 C 601.355 0.561027 -1.94885 0
M  V30 6160 C 601.688 1.6741 -0.984258 0
M  V30 6161 O 600.963 1.94491 -0.0184767 0
M  V30 6162 C 601.246 1.10982 -3.42571 0
M  V30 6163 C 601.099 0.00133418 -4.498 0
M  V30 6164 C 602.418 2.00608 -3.9172 0
M  V30 6165 H 599.537 0.202467 -0.708644 0
M  V30 6166 H 602.179 -0.173992 -1.89202 0
M  V30 6167 H 600.329 1.73621 -3.47546 0
M  V30 6168 H 602.001 -0.63322 -4.56933 0
M  V30 6169 H 600.244 -0.664143 -4.28686 0
M  V30 6170 H 600.915 0.426253 -5.50352 0
M  V30 6171 H 603.391 1.47864 -3.88941 0
M  V30 6172 H 602.267 2.3593 -4.95609 0
M  V30 6173 H 602.528 2.92608 -3.3141 0
M  V30 6174 N 601.587 1.56661 0.17182 0
M  V30 6175 C 602.534 1.96371 1.21273 0
M  V30 6176 C 603.504 0.82756 1.44016 0
M  V30 6177 O 604.689 1.08764 1.56764 0
M  V30 6178 C 601.829 2.32838 2.54716 0
M  V30 6179 C 600.942 3.59628 2.39356 0
M  V30 6180 C 600.077 3.85311 3.65662 0
M  V30 6181 C 599.116 5.0545 3.45234 0
M  V30 6182 N 598.253 5.27268 4.63608 0
M  V30 6183 H 603.093 2.85106 0.86709 0
M  V30 6184 H 600.63 1.41073 0.416744 0
M  V30 6185 H 602.588 2.52004 3.3249 0
M  V30 6186 H 601.218 1.47214 2.87277 0
M  V30 6187 H 600.27 3.4838 1.52761 0
M  V30 6188 H 601.582 4.4756 2.20207 0
M  V30 6189 H 600.736 4.04841 4.51872 0
M  V30 6190 H 599.475 2.95753 3.8779 0
M  V30 6191 H 598.48 4.85819 2.5741 0
M  V30 6192 H 599.705 5.96538 3.24529 0
M  V30 6193 H 597.651 4.40662 4.85956 0
M  V30 6194 H 597.568 6.09422 4.4737 0
M  V30 6195 H 598.836 5.51277 5.51103 0
M  V30 6196 N 603.065 -0.440357 1.51323 0
M  V30 6197 C 603.997 -1.55254 1.68609 0
M  V30 6198 C 605.01 -1.52614 0.566812 0
M  V30 6199 O 606.199 -1.57445 0.841032 0
M  V30 6200 C 603.299 -2.94169 1.68279 0
M  V30 6201 C 602.472 -3.21346 2.96742 0
M  V30 6202 C 601.531 -4.3997 2.8864 0
M  V30 6203 O 600.557 -4.38771 3.62586 0
M  V30 6204 N 601.759 -5.43367 2.04285 0
M  V30 6205 H 604.524 -1.40831 2.6455 0
M  V30 6206 H 602.085 -0.629251 1.49171 0
M  V30 6207 H 604.077 -3.71543 1.60431 0
M  V30 6208 H 602.647 -3.02205 0.799441 0
M  V30 6209 H 601.867 -2.32299 3.18482 0
M  V30 6210 H 603.155 -3.3633 3.81785 0
M  V30 6211 H 602.553 -5.47176 1.43578 0
M  V30 6212 H 601.11 -6.19605 2.02318 0
M  V30 6213 N 604.543 -1.41418 -0.695603 0
M  V30 6214 C 605.506 -1.42988 -1.79129 0
M  V30 6215 C 606.506 -0.320514 -1.57573 0
M  V30 6216 O 607.696 -0.58039 -1.64247 0
M  V30 6217 C 604.828 -1.24122 -3.175 0
M  V30 6218 H 606.021 -2.40526 -1.7913 0
M  V30 6219 H 603.574 -1.2756 -0.903225 0
M  V30 6220 H 604.309 -0.274253 -3.23138 0
M  V30 6221 H 604.094 -2.045 -3.34547 0
M  V30 6222 H 605.584 -1.28056 -3.97481 0
M  V30 6223 N 606.021 0.929856 -1.27246 0
M  V30 6224 C 607.267 1.6798 -1.13625 0
M  V30 6225 C 607.6 1.91586 0.317589 0
M  V30 6226 O 606.875 1.50467 1.23247 0
M  V30 6227 C 607.158 3.04766 -1.91806 0
M  V30 6228 C 607.011 2.88415 -3.45162 0
M  V30 6229 C 608.33 4.05063 -1.72082 0
M  V30 6230 H 605.449 0.609632 -0.414147 0
M  V30 6231 H 608.091 1.0792 -1.56376 0
M  V30 6232 H 606.241 3.56034 -1.55474 0
M  V30 6233 H 607.913 2.44282 -3.91311 0
M  V30 6234 H 606.156 2.23802 -3.71611 0
M  V30 6235 H 606.827 3.85482 -3.95105 0
M  V30 6236 H 609.303 3.62798 -2.03757 0
M  V30 6237 H 608.179 4.98765 -2.29182 0
M  V30 6238 H 608.44 4.37021 -0.668206 0
M  V30 6239 N 607.499 1.09233 1.13605 0
M  V30 6240 C 608.429 0.751738 2.21068 0
M  V30 6241 C 609.41 -0.269688 1.67948 0
M  V30 6242 O 610.595 -0.13819 1.93708 0
M  V30 6243 C 607.725 0.16935 3.46887 0
M  V30 6244 C 606.679 1.12007 4.13084 0
M  V30 6245 C 606.005 0.399483 5.33206 0
M  V30 6246 C 607.305 2.46168 4.6065 0
M  V30 6247 H 608.999 1.65024 2.49815 0
M  V30 6248 H 606.545 0.794905 1.20072 0
M  V30 6249 H 608.498 -0.0809824 4.21322 0
M  V30 6250 H 607.222 -0.764335 3.1753 0
M  V30 6251 H 605.881 1.35564 3.40614 0
M  V30 6252 H 605.529 -0.538277 5.00112 0
M  V30 6253 H 605.229 1.03337 5.78442 0
M  V30 6254 H 606.753 0.157403 6.10397 0
M  V30 6255 H 608.167 2.26829 5.26518 0
M  V30 6256 H 606.564 3.05326 5.1662 0
M  V30 6257 H 607.634 3.07076 3.75276 0
M  V30 6258 N 608.977 -1.30795 0.87923 0
M  V30 6259 C 609.94 -2.26563 0.346676 0
M  V30 6260 C 610.94 -1.52578 -0.507597 0
M  V30 6261 O 612.13 -1.71318 -0.315575 0
M  V30 6262 C 609.262 -3.37115 -0.506611 0
M  V30 6263 H 610.455 -2.75183 1.19223 0
M  V30 6264 H 608.008 -1.41886 0.655598 0
M  V30 6265 H 608.743 -2.93802 -1.37299 0
M  V30 6266 H 608.528 -3.91959 0.105218 0
M  V30 6267 H 610.018 -4.08412 -0.871192 0
M  V30 6268 N 610.455 -0.639598 -1.44038 0
M  V30 6269 C 611.365 0.0612377 -2.3452 0
M  V30 6270 C 612.381 0.826717 -1.53106 0
M  V30 6271 O 613.557 0.777059 -1.85806 0
M  V30 6272 C 610.622 1.02492 -3.31204 0
M  V30 6273 C 609.683 0.25788 -4.28525 0
M  V30 6274 C 608.916 1.17566 -5.2059 0
M  V30 6275 O 609.139 2.41461 -5.16771 0
M  V30 6276 O 608.073 0.655407 -5.98321 0
M  V30 6277 H 611.899 -0.68318 -2.95916 0
M  V30 6278 H 609.484 -0.399784 -1.43952 0
M  V30 6279 H 611.366 1.57911 -3.90694 0
M  V30 6280 H 610.041 1.7498 -2.7233 0
M  V30 6281 H 608.948 -0.339566 -3.72556 0
M  V30 6282 H 610.281 -0.427154 -4.90343 0
M  V30 6283 N 611.933 1.52934 -0.380664 0
M  V30 6284 C 613.179 2.01765 0.20458 0
M  V30 6285 C 613.512 1.26696 1.47179 0
M  V30 6286 O 612.787 0.364936 1.91046 0
M  V30 6287 C 613.07 3.56869 0.481269 0
M  V30 6288 C 612.923 4.42617 -0.800629 0
M  V30 6289 C 614.242 4.2121 1.27554 0
M  V30 6290 H 611.361 0.733388 0.0728803 0
M  V30 6291 H 614.003 1.83068 -0.50853 0
M  V30 6292 H 612.153 3.72932 1.08875 0
M  V30 6293 H 613.825 4.38323 -1.43773 0
M  V30 6294 H 612.068 4.09977 -1.4178 0
M  V30 6295 H 612.739 5.49134 -0.561791 0
M  V30 6296 H 615.215 4.09072 0.761514 0
M  V30 6297 H 614.091 5.29732 1.43788 0
M  V30 6298 H 614.352 3.78269 2.28833 0
M  V30 6299 N 613.412 0.11024 1.57214 0
M  V30 6300 C 614.322 -0.857077 2.18383 0
M  V30 6301 C 615.338 -1.29915 1.1575 0
M  V30 6302 O 616.514 -1.36394 1.48184 0
M  V30 6303 C 613.579 -2.09264 2.76423 0
M  V30 6304 C 612.64 -1.70333 3.94063 0
M  V30 6305 C 611.873 -2.87999 4.49324 0
M  V30 6306 O 612.096 -4.0317 4.03497 0
M  V30 6307 O 611.03 -2.6559 5.40135 0
M  V30 6308 H 614.856 -0.366561 3.0148 0
M  V30 6309 H 612.441 -0.114914 1.48957 0
M  V30 6310 H 614.323 -2.81644 3.13456 0
M  V30 6311 H 612.998 -2.57339 1.96363 0
M  V30 6312 H 611.905 -0.950864 3.61814 0
M  V30 6313 H 613.238 -1.27007 4.75531 0
M  V30 6314 N 614.89 -1.56749 -0.16351 0
M  V30 6315 C 615.838 -1.97939 -1.22159 0
M  V30 6316 C 616.832 -0.869288 -1.45395 0
M  V30 6317 O 618.038 -1.05443 -1.45883 0
M  V30 6318 H 614.413 -0.629869 -0.410815 0
M  V30 6319 H 616.384 -2.86115 -0.847381 0
M  V30 6320 C 615.133 -2.36206 -2.55151 0
M  V30 6321 H 614.456 -3.2117 -2.38097 0
M  V30 6322 H 615.896 -2.68863 -3.27854 0
M  V30 6323 C 614.355 -1.20841 -3.14482 0
M  V30 6324 O 614.885 -0.500258 -3.98573 0
M  V30 6325 N 613.091 -0.976943 -2.73686 0
M  V30 6326 H 612.638 -1.55457 -2.05404 0
M  V30 6327 H 612.596 -0.206912 -3.13718 0
M  V30 6328 N 616.368 0.432326 -1.51554 0
M  V30 6329 C 617.318 1.52366 -1.69614 0
M  V30 6330 C 618.302 1.51205 -0.550083 0
M  V30 6331 O 619.494 1.57573 -0.806206 0
M  V30 6332 C 616.623 2.90513 -1.82913 0
M  V30 6333 C 615.709 2.9641 -3.03318 0
M  V30 6334 N 616.1 2.72043 -4.26411 0
M  V30 6335 C 614.398 3.27572 -3.02675 0
M  V30 6336 C 615.099 2.83912 -5.07709 0
M  V30 6337 N 614.075 3.15798 -4.42462 0
M  V30 6338 H 617.877 1.32285 -2.62446 0
M  V30 6339 H 615.391 0.639708 -1.4927 0
M  V30 6340 H 617.388 3.69032 -1.93962 0
M  V30 6341 H 616.048 3.1161 -0.912655 0
M  V30 6342 H 617.059 2.46876 -4.55272 0
M  V30 6343 H 613.736 3.54411 -2.20678 0
M  V30 6344 H 615.126 2.68984 -6.15709 0
M  V30 6345 N 617.846 1.41785 0.688094 0
M  V30 6346 C 619.092 1.41753 1.4503 0
M  V30 6347 C 619.425 0.0290745 1.94178 0
M  V30 6348 O 618.7 -0.944456 1.7003 0
M  V30 6349 C 618.983 2.43069 2.65686 0
M  V30 6350 C 618.836 3.91053 2.22256 0
M  V30 6351 C 620.155 2.41543 3.67893 0
M  V30 6352 H 617.274 0.516202 0.526027 0
M  V30 6353 H 619.916 1.73111 0.783105 0
M  V30 6354 H 618.066 2.1646 3.2261 0
M  V30 6355 H 619.738 4.28594 1.70602 0
M  V30 6356 H 617.981 4.05559 1.53963 0
M  V30 6357 H 618.652 4.57501 3.08863 0
M  V30 6358 H 621.128 2.65175 3.20658 0
M  V30 6359 H 620.004 3.14434 4.49914 0
M  V30 6360 H 620.265 1.43666 4.18106 0
M  V30 6361 N 619.324 -0.923095 1.27737 0
M  V30 6362 C 620.74 -1.19985 1.05241 0
M  V30 6363 C 620.94 -2.00391 -0.21113 0
M  V30 6364 O 619.996 -2.35324 -0.915366 0
M  V30 6365 C 621.309 -1.94352 2.29451 0
M  V30 6366 C 622.857 -2.07273 2.34536 0
M  V30 6367 C 623.332 -2.85046 3.58487 0
M  V30 6368 N 624.823 -2.92612 3.59072 0
M  V30 6369 C 625.558 -3.53266 4.51654 0
M  V30 6370 N 625.054 -4.15274 5.54545 0
M  V30 6371 N 626.847 -3.50714 4.39268 0
M  V30 6372 H 618.998 -0.386042 2.08862 0
M  V30 6373 H 621.261 -0.233407 0.918817 0
M  V30 6374 H 620.967 -1.42692 3.21453 0
M  V30 6375 H 620.841 -2.94947 2.3513 0
M  V30 6376 H 623.228 -2.58117 1.43037 0
M  V30 6377 H 623.309 -1.05884 2.32857 0
M  V30 6378 H 622.953 -2.34884 4.50324 0
M  V30 6379 H 622.883 -3.8673 3.57418 0
M  V30 6380 H 625.374 -2.48547 2.84663 0
M  V30 6381 H 625.687 -4.59507 6.21348 0
M  V30 6382 H 624.032 -4.13806 5.58382 0
M  V30 6383 H 627.223 -3.01475 3.58093 0
M  V30 6384 H 627.396 -3.97693 5.1161 0
M  V30 6385 N 620.802 -1.09834 -1.13024 0
M  V30 6386 C 621.712 -0.753731 -2.22162 0
M  V30 6387 C 622.728 0.246105 -1.72251 0
M  V30 6388 O 623.904 0.0864051 -2.01215 0
M  V30 6389 C 620.969 -0.183958 -3.46212 0
M  V30 6390 C 620.03 -1.24028 -4.10993 0
M  V30 6391 C 619.263 -0.697597 -5.29121 0
M  V30 6392 O 619.486 0.478092 -5.68393 0
M  V30 6393 O 618.42 -1.4546 -5.84059 0
M  V30 6394 H 622.246 -1.66456 -2.5402 0
M  V30 6395 H 619.831 -0.873026 -1.21238 0
M  V30 6396 H 621.713 0.130257 -4.21199 0
M  V30 6397 H 620.388 0.699823 -3.16045 0
M  V30 6398 H 619.295 -1.60725 -3.37814 0
M  V30 6399 H 620.628 -2.09685 -4.45301 0
M  V30 6400 N 622.28 1.30327 -0.886154 0
M  V30 6401 C 623.557 1.90922 -0.425217 0
M  V30 6402 C 623.937 1.80533 1.09413 0
M  V30 6403 O 623.285 1.2233 1.92996 0
M  V30 6404 C 623.495 3.36529 -0.924638 0
M  V30 6405 C 624.843 4.13598 -0.960305 0
M  V30 6406 O 625.867 3.45377 -0.871382 0
M  V30 6407 O 624.726 5.35482 -1.09184 0
M  V30 6408 H 621.82 0.81668 -0.130238 0
M  V30 6409 H 624.366 1.38886 -0.975132 0
M  V30 6410 H 623.138 3.38181 -1.96849 0
M  V30 6411 H 622.761 3.96021 -0.353955 0
M  V30 6412 N 623.758 0.647228 1.43697 0
M  V30 6413 C 624.721 -0.0385101 2.29168 0
M  V30 6414 C 625.721 -0.756487 1.41894 0
M  V30 6415 O 626.911 -0.598641 1.63591 0
M  V30 6416 C 624.043 -1.06524 3.23829 0
M  V30 6417 H 625.236 0.713445 2.9129 0
M  V30 6418 H 622.789 0.408153 1.50877 0
M  V30 6419 H 623.524 -1.84664 2.66589 0
M  V30 6420 H 623.309 -0.554147 3.88164 0
M  V30 6421 H 624.799 -1.54432 3.87996 0
M  V30 6422 N 625.236 -1.5273 0.388769 0
M  V30 6423 C 626.485 -2.00757 -0.194833 0
M  V30 6424 C 626.798 -1.27951 -1.47946 0
M  V30 6425 O 628.004 -1.66686 -2.14308 0
M  V30 6426 C 626.46 -3.57695 -0.397762 0
M  V30 6427 C 626.068 -4.394 0.873583 0
M  V30 6428 C 627.812 -4.14012 -0.937759 0
M  V30 6429 C 625.719 -5.87938 0.638962 0
M  V30 6430 H 624.649 -0.750101 -0.0765845 0
M  V30 6431 H 627.3 -1.76239 0.511086 0
M  V30 6432 H 625.682 -3.7846 -1.16552 0
M  V30 6433 H 626.856 -4.30403 1.64591 0
M  V30 6434 H 625.171 -3.94301 1.33849 0
M  V30 6435 H 627.768 -5.22645 -1.12899 0
M  V30 6436 H 628.111 -3.7007 -1.90666 0
M  V30 6437 H 628.644 -3.97137 -0.229588 0
M  V30 6438 H 625.383 -6.36202 1.57885 0
M  V30 6439 H 624.903 -5.99726 -0.094443 0
M  V30 6440 H 626.582 -6.46423 0.273299 0
M  V30 6441 N 626.714 -0.118576 -1.57153 0
M  V30 6442 C 627.644 0.828436 -2.1831 0
M  V30 6443 C 628.625 1.27758 -1.12303 0
M  V30 6444 O 629.81 1.34026 -1.40537 0
M  V30 6445 C 626.94 2.07876 -2.78217 0
M  V30 6446 C 625.894 1.76742 -3.89803 0
M  V30 6447 C 625.22 3.08801 -4.36516 0
M  V30 6448 C 626.52 1.03606 -5.11921 0
M  V30 6449 H 628.214 0.318824 -2.97698 0
M  V30 6450 H 625.76 0.151911 -1.43196 0
M  V30 6451 H 627.713 2.74584 -3.19659 0
M  V30 6452 H 626.437 2.61161 -1.96118 0
M  V30 6453 H 625.096 1.12424 -3.48936 0
M  V30 6454 H 624.744 3.6002 -3.51276 0
M  V30 6455 H 624.444 2.88743 -5.11763 0
M  V30 6456 H 625.968 3.76627 -4.80608 0
M  V30 6457 H 627.382 1.60467 -5.50385 0
M  V30 6458 H 625.779 0.936454 -5.92748 0
M  V30 6459 H 626.849 0.0227421 -4.84895 0
M  V30 6460 N 628.193 1.56834 0.155195 0
M  V30 6461 C 629.156 1.96748 1.17571 0
M  V30 6462 C 630.156 0.853006 1.3631 0
M  V30 6463 O 631.346 1.11978 1.33441 0
M  V30 6464 C 628.478 2.27631 2.53765 0
M  V30 6465 H 629.671 2.88085 0.833498 0
M  V30 6466 H 627.224 1.51141 0.398242 0
M  V30 6467 H 627.959 1.39059 2.92973 0
M  V30 6468 H 627.744 3.0888 2.41527 0
M  V30 6469 H 629.234 2.59377 3.27282 0
M  V30 6470 N 629.671 -0.424282 1.51781 0
M  V30 6471 C 630.896 -1.19928 1.6921 0
M  V30 6472 C 631.321 -1.8392 0.394355 0
M  V30 6473 O 630.679 -1.69371 -0.646778 0
M  V30 6474 C 630.727 -2.24937 2.81843 0
M  V30 6475 O 629.831 -3.3073 2.46356 0
M  V30 6476 H 629.172 -0.35078 0.563781 0
M  V30 6477 H 631.702 -0.499401 1.98412 0
M  V30 6478 H 631.712 -2.69512 3.06312 0
M  V30 6479 H 630.387 -1.77742 3.76006 0
M  V30 6480 H 628.964 -2.9154 2.32505 0
M  V30 6481 N 631.149 -1.42148 -0.680565 0
M  V30 6482 C 632.097 -1.45401 -1.81552 0
M  V30 6483 C 633.091 -0.33036 -1.66147 0
M  V30 6484 O 634.297 -0.503103 -1.72826 0
M  V30 6485 H 630.672 -0.455265 -0.59853 0
M  V30 6486 H 632.643 -2.41024 -1.75926 0
M  V30 6487 C 631.392 -1.36769 -3.19671 0
M  V30 6488 H 630.715 -2.22525 -3.32149 0
M  V30 6489 H 632.155 -1.43106 -3.9912 0
M  V30 6490 C 630.614 -0.0817752 -3.36801 0
M  V30 6491 O 631.144 0.867707 -3.92216 0
M  V30 6492 N 629.35 -0.000799811 -2.906 0
M  V30 6493 H 628.897 -0.774231 -2.4569 0
M  V30 6494 H 628.855 0.858961 -3.02439 0
M  V30 6495 N 632.627 0.916307 -1.28225 0
M  V30 6496 C 633.855 1.69901 -1.18073 0
M  V30 6497 C 634.27 1.86988 0.260968 0
M  V30 6498 O 633.627 1.39505 1.17663 0
M  V30 6499 C 633.678 3.09254 -1.87201 0
M  V30 6500 O 633.399 2.92959 -3.2574 0
M  V30 6501 C 634.9 4.0362 -1.83319 0
M  V30 6502 H 632.12 0.531181 -0.409985 0
M  V30 6503 H 634.664 1.14703 -1.69303 0
M  V30 6504 H 632.819 3.61277 -1.39848 0
M  V30 6505 H 633.233 3.81139 -3.60324 0
M  V30 6506 H 634.707 4.98873 -2.36282 0
M  V30 6507 H 635.184 4.3176 -0.805007 0
M  V30 6508 H 635.79 3.57524 -2.3034 0
M  V30 6509 N 634.105 1.10431 1.1244 0
M  V30 6510 C 635.33 0.869089 1.88313 0
M  V30 6511 C 635.755 -0.574912 1.79099 0
M  V30 6512 O 635.113 -1.40496 1.14589 0
M  V30 6513 C 635.161 1.32208 3.3549 0
M  V30 6514 O 634.265 0.487092 4.09513 0
M  V30 6515 H 633.606 0.313894 0.585121 0
M  V30 6516 H 636.136 1.47111 1.42195 0
M  V30 6517 H 636.146 1.31201 3.86329 0
M  V30 6518 H 634.821 2.37364 3.41513 0
M  V30 6519 H 633.398 0.562372 3.68635 0
M  V30 6520 N 635.583 -1.29855 0.893053 0
M  V30 6521 C 636.811 -1.99976 0.530788 0
M  V30 6522 C 637.226 -1.66889 -0.882799 0
M  V30 6523 O 636.583 -0.910352 -1.58173 0
M  V30 6524 C 636.634 -3.54547 0.705587 0
M  V30 6525 O 636.355 -3.86458 2.06353 0
M  V30 6526 C 637.856 -4.41937 0.347387 0
M  V30 6527 H 635.076 -0.639129 0.204339 0
M  V30 6528 H 637.62 -1.65549 1.20057 0
M  V30 6529 H 635.775 -3.87311 0.0830685 0
M  V30 6530 H 636.189 -4.81146 2.08803 0
M  V30 6531 H 637.663 -5.4954 0.520557 0
M  V30 6532 H 638.14 -4.33339 -0.715139 0
M  V30 6533 H 638.746 -4.14633 0.946567 0
M  V30 6534 N 637.061 -0.65484 -1.43351 0
M  V30 6535 C 638.31 -0.166215 -2.01014 0
M  V30 6536 C 638.623 1.22764 -1.52278 0
M  V30 6537 O 639.829 1.81156 -2.02224 0
M  V30 6538 C 638.285 -0.246341 -3.59056 0
M  V30 6539 C 637.893 -1.64299 -4.16785 0
M  V30 6540 C 639.637 0.184597 -4.24098 0
M  V30 6541 C 637.544 -1.67695 -5.67126 0
M  V30 6542 H 636.474 -0.0583769 -0.751737 0
M  V30 6543 H 639.125 -0.817111 -1.64303 0
M  V30 6544 H 637.507 0.472092 -3.93176 0
M  V30 6545 H 638.681 -2.3869 -3.94162 0
M  V30 6546 H 636.996 -2.02004 -3.6412 0
M  V30 6547 H 639.593 0.179088 -5.344 0
M  V30 6548 H 639.936 1.21632 -3.98135 0
M  V30 6549 H 640.469 -0.482141 -3.94867 0
M  V30 6550 H 637.208 -2.68783 -5.9786 0
M  V30 6551 H 636.728 -0.976313 -5.91801 0
M  V30 6552 H 638.407 -1.42142 -6.31193 0
M  V30 6553 N 638.539 1.52521 -0.396863 0
M  V30 6554 C 639.764 2.06571 0.185258 0
M  V30 6555 C 640.189 1.26605 1.39115 0
M  V30 6556 O 639.547 0.293055 1.78916 0
M  V30 6557 C 639.595 3.5674 0.526189 0
M  V30 6558 O 638.699 3.7929 1.61903 0
M  V30 6559 H 638.04 0.663712 0.0195474 0
M  V30 6560 H 640.57 1.966 -0.566519 0
M  V30 6561 H 640.58 4.00311 0.788338 0
M  V30 6562 H 639.255 4.14379 -0.355397 0
M  V30 6563 H 637.832 3.47605 1.35 0
M  V30 6564 N 640.017 0.126909 1.57088 0
M  V30 6565 C 641.266 -0.529024 1.94639 0
M  V30 6566 C 641.579 -1.67323 1.01304 0
M  V30 6567 O 642.785 -2.39245 1.28352 0
M  V30 6568 C 641.241 -0.992483 3.45945 0
M  V30 6569 C 640.849 0.123691 4.47829 0
M  V30 6570 C 642.593 -1.61934 3.924 0
M  V30 6571 C 640.5 -0.356911 5.90322 0
M  V30 6572 H 639.43 -0.201397 0.726605 0
M  V30 6573 H 642.081 0.208032 1.82317 0
M  V30 6574 H 640.463 -1.7842 3.53528 0
M  V30 6575 H 641.637 0.900168 4.51922 0
M  V30 6576 H 639.952 0.657699 4.11173 0
M  V30 6577 H 642.549 -1.9902 4.96281 0
M  V30 6578 H 642.892 -2.50075 3.32819 0
M  V30 6579 H 643.425 -0.892894 3.8765 0
M  V30 6580 H 640.164 0.488636 6.53676 0
M  V30 6581 H 639.684 -1.0997 5.89633 0
M  V30 6582 H 641.363 -0.815547 6.41839 0
M  V30 6583 N 641.495 -1.56914 -0.146875 0
M  V30 6584 C 642.72 -1.87881 -0.878386 0
M  V30 6585 C 643.145 -0.715945 -1.73942 0
M  V30 6586 O 642.503 0.334447 -1.78189 0
M  V30 6587 C 642.551 -3.17431 -1.71084 0
M  V30 6588 O 641.655 -3.01374 -2.81509 0
M  V30 6589 H 640.996 -0.617289 -0.244644 0
M  V30 6590 H 643.526 -2.04136 -0.137654 0
M  V30 6591 H 643.536 -3.49455 -2.10582 0
M  V30 6592 H 642.211 -4.01671 -1.07856 0
M  V30 6593 H 640.788 -2.80758 -2.45416 0
M  V30 6594 N 642.974 0.416227 -1.52004 0
M  V30 6595 C 643.904 1.51365 -1.77795 0
M  V30 6596 C 644.885 1.58059 -0.628601 0
M  V30 6597 O 646.07 1.73447 -0.873478 0
M  V30 6598 C 643.2 2.89256 -1.92219 0
M  V30 6599 C 642.154 2.97415 -3.0778 0
M  V30 6600 C 641.48 4.37492 -3.07417 0
M  V30 6601 C 642.78 2.69551 -4.47369 0
M  V30 6602 H 644.474 1.30033 -2.69688 0
M  V30 6603 H 642.02 0.624112 -1.29772 0
M  V30 6604 H 643.973 3.66008 -2.08845 0
M  V30 6605 H 642.697 3.11866 -0.969917 0
M  V30 6606 H 641.356 2.23107 -2.90893 0
M  V30 6607 H 641.004 4.571 -2.09925 0
M  V30 6608 H 640.704 4.43877 -3.85029 0
M  V30 6609 H 642.228 5.16188 -3.26162 0
M  V30 6610 H 643.642 3.36028 -4.64497 0
M  V30 6611 H 642.039 2.87321 -5.26846 0
M  V30 6612 H 643.109 1.65029 -4.55953 0
M  V30 6613 N 644.452 1.42507 0.673017 0
M  V30 6614 C 645.382 1.48916 1.79851 0
M  V30 6615 C 646.363 0.345566 1.66553 0
M  V30 6616 O 647.548 0.560116 1.85947 0
M  V30 6617 C 644.678 1.39258 3.18158 0
M  V30 6618 C 643.632 2.51662 3.46194 0
M  V30 6619 C 642.958 2.27062 4.84094 0
M  V30 6620 C 644.258 3.93968 3.42909 0
M  V30 6621 H 645.952 2.43114 1.74745 0
M  V30 6622 H 643.498 1.17013 0.839288 0
M  V30 6623 H 645.451 1.42349 3.96629 0
M  V30 6624 H 644.175 0.415542 3.23946 0
M  V30 6625 H 642.834 2.47891 2.70084 0
M  V30 6626 H 642.482 1.27648 4.86534 0
M  V30 6627 H 642.182 3.02398 5.03815 0
M  V30 6628 H 643.706 2.31905 5.64847 0
M  V30 6629 H 645.12 3.99332 4.11347 0
M  V30 6630 H 643.517 4.6917 3.74165 0
M  V30 6631 H 644.587 4.20512 2.41449 0
M  V30 6632 N 645.93 -0.909495 1.28709 0
M  V30 6633 C 646.893 -1.99399 1.13016 0
M  V30 6634 C 647.893 -1.60654 0.068536 0
M  V30 6635 O 649.083 -1.71334 0.314671 0
M  V30 6636 C 646.215 -3.33078 0.726085 0
M  V30 6637 H 647.408 -2.14751 2.09338 0
M  V30 6638 H 644.961 -1.09272 1.11756 0
M  V30 6639 H 645.696 -3.23428 -0.23771 0
M  V30 6640 H 645.481 -3.62562 1.49302 0
M  V30 6641 H 646.971 -4.12681 0.639058 0
M  V30 6642 N 647.408 -1.11026 -1.11852 0
M  V30 6643 C 648.355 -0.764662 -2.17765 0
M  V30 6644 C 649.325 0.261854 -1.64023 0
M  V30 6645 O 650.51 0.139748 -1.90288 0
M  V30 6646 C 647.65 -0.209317 -3.44465 0
M  V30 6647 C 646.763 -1.29187 -4.12231 0
M  V30 6648 C 645.898 -0.697523 -5.266 0
M  V30 6649 C 644.937 -1.76023 -5.86244 0
M  V30 6650 N 644.074 -1.18569 -6.92016 0
M  V30 6651 H 648.914 -1.67202 -2.46673 0
M  V30 6652 H 646.451 -0.835065 -1.21099 0
M  V30 6653 H 648.409 0.130599 -4.16996 0
M  V30 6654 H 647.039 0.661251 -3.15955 0
M  V30 6655 H 646.091 -1.74881 -3.37818 0
M  V30 6656 H 647.403 -2.09607 -4.52622 0
M  V30 6657 H 646.557 -0.307412 -6.05921 0
M  V30 6658 H 645.296 0.138044 -4.87505 0
M  V30 6659 H 644.301 -2.1597 -5.05606 0
M  V30 6660 H 645.526 -2.59875 -6.27409 0
M  V30 6661 H 643.472 -0.371695 -6.54946 0
M  V30 6662 H 643.389 -1.92666 -7.31038 0
M  V30 6663 H 644.657 -0.82233 -7.7515 0
M  V30 6664 N 648.886 1.2938 -0.899927 0
M  V30 6665 C 649.849 2.25983 -0.382677 0
M  V30 6666 C 650.849 1.53366 0.483259 0
M  V30 6667 O 652.039 1.71798 0.28828 0
M  V30 6668 C 649.171 3.37878 0.452915 0
M  V30 6669 H 650.364 2.73252 -1.23586 0
M  V30 6670 H 647.917 1.40825 -0.678088 0
M  V30 6671 H 648.652 2.95949 1.32608 0
M  V30 6672 H 648.437 3.91742 -0.167562 0
M  V30 6673 H 649.927 4.09746 0.806107 0
M  V30 6674 N 650.364 0.662433 1.43002 0
M  V30 6675 C 651.294 -0.00979809 2.33498 0
M  V30 6676 C 652.275 -0.802329 1.49989 0
M  V30 6677 O 653.46 -0.761964 1.78627 0
M  V30 6678 C 650.59 -0.970446 3.33466 0
M  V30 6679 C 649.544 -0.287383 4.27034 0
M  V30 6680 C 648.87 -1.36012 5.17112 0
M  V30 6681 C 650.17 0.82595 5.15728 0
M  V30 6682 H 651.864 0.745959 2.89958 0
M  V30 6683 H 649.41 0.360172 1.39423 0
M  V30 6684 H 651.363 -1.44971 3.95679 0
M  V30 6685 H 650.087 -1.75748 2.75282 0
M  V30 6686 H 648.746 0.17152 3.66199 0
M  V30 6687 H 648.394 -2.13882 4.55262 0
M  V30 6688 H 648.094 -0.908276 5.80538 0
M  V30 6689 H 649.618 -1.84056 5.82199 0
M  V30 6690 H 651.032 0.42845 5.71697 0
M  V30 6691 H 649.429 1.20282 5.87922 0
M  V30 6692 H 650.499 1.68003 4.54866 0
M  V30 6693 N 651.842 -1.52309 0.404946 0
M  V30 6694 C 652.789 -2.26898 -0.422597 0
M  V30 6695 C 653.759 -1.2914 -1.04461 0
M  V30 6696 O 654.944 -1.57996 -1.06967 0
M  V30 6697 C 652.084 -3.09053 -1.53559 0
M  V30 6698 C 651.197 -4.21762 -0.934908 0
M  V30 6699 C 650.332 -4.91283 -2.02025 0
M  V30 6700 C 649.371 -5.95962 -1.39628 0
M  V30 6701 N 648.508 -6.59017 -2.42159 0
M  V30 6702 H 653.348 -2.97188 0.219903 0
M  V30 6703 H 650.885 -1.46607 0.120282 0
M  V30 6704 H 652.843 -3.54987 -2.19181 0
M  V30 6705 H 651.473 -2.40942 -2.14818 0
M  V30 6706 H 650.525 -3.80029 -0.167854 0
M  V30 6707 H 651.837 -4.96864 -0.439073 0
M  V30 6708 H 650.991 -5.40601 -2.75383 0
M  V30 6709 H 649.73 -4.15741 -2.54973 0
M  V30 6710 H 648.735 -5.45968 -0.648023 0
M  V30 6711 H 649.96 -6.73445 -0.874553 0
M  V30 6712 H 647.906 -5.86306 -2.94247 0
M  V30 6713 H 647.823 -7.2978 -1.97376 0
M  V30 6714 H 649.091 -7.12974 -3.15099 0
M  V30 6715 N 653.32 -0.135238 -1.57019 0
M  V30 6716 C 654.736 0.221262 -1.58059 0
M  V30 6717 C 654.936 1.65538 -1.14889 0
M  V30 6718 O 653.992 2.37985 -0.843751 0
M  V30 6719 C 655.305 -0.0268114 -3.00688 0
M  V30 6720 C 656.853 0.0378206 -3.12977 0
M  V30 6721 C 657.328 -0.182769 -4.57635 0
M  V30 6722 N 658.819 -0.129292 -4.6302 0
M  V30 6723 C 659.554 -0.274648 -5.72742 0
M  V30 6724 N 659.05 -0.477075 -6.91155 0
M  V30 6725 N 660.843 -0.213077 -5.61696 0
M  V30 6726 H 652.994 -1.07177 -1.83376 0
M  V30 6727 H 655.257 -0.423338 -0.848227 0
M  V30 6728 H 654.963 -1.01889 -3.36618 0
M  V30 6729 H 654.837 0.697863 -3.70688 0
M  V30 6730 H 657.224 1.02043 -2.76896 0
M  V30 6731 H 657.305 -0.718996 -2.45487 0
M  V30 6732 H 656.949 -1.16243 -4.94419 0
M  V30 6733 H 656.879 0.59423 -5.23237 0
M  V30 6734 H 659.37 0.0229896 -3.77893 0
M  V30 6735 H 659.683 -0.578413 -7.70632 0
M  V30 6736 H 658.028 -0.513252 -6.93102 0
M  V30 6737 H 661.219 -0.0557796 -4.68067 0
M  V30 6738 H 661.392 -0.329796 -6.4716 0
M  V30 6739 N 654.798 1.5699 0.138552 0
M  V30 6740 C 656.209 1.73171 0.697754 0
M  V30 6741 C 656.56 0.750952 1.8126 0
M  V30 6742 O 655.685 -0.080549 2.1625 0
M  V30 6743 C 656.28 3.13996 1.27248 0
M  V30 6744 C 654.839 3.3175 1.77816 0
M  V30 6745 C 653.986 2.69084 0.669991 0
M  V30 6746 H 656.937 1.5846 -0.0871979 0
M  V30 6747 H 656.958 3.14463 2.14227 0
M  V30 6748 H 656.47 3.85354 0.460855 0
M  V30 6749 H 654.571 2.65403 2.61519 0
M  V30 6750 H 654.684 4.39768 1.90107 0
M  V30 6751 H 653.048 2.29782 1.09874 0
M  V30 6752 H 653.831 3.43053 -0.130329 0
M  V30 6753 N 656.276 -0.40816 1.52223 0
M  V30 6754 C 657.186 -1.52202 1.78526 0
M  V30 6755 C 658.202 -1.60546 0.670892 0
M  V30 6756 O 659.378 -1.77242 0.956404 0
M  V30 6757 C 656.443 -2.87928 1.93128 0
M  V30 6758 C 655.504 -2.89463 3.17033 0
M  V30 6759 C 654.737 -4.18715 3.30929 0
M  V30 6760 O 654.96 -5.12662 2.50067 0
M  V30 6761 O 653.894 -4.27125 4.24084 0
M  V30 6762 H 657.72 -1.32911 2.73072 0
M  V30 6763 H 655.305 -0.594112 1.37079 0
M  V30 6764 H 657.187 -3.68426 2.04549 0
M  V30 6765 H 655.862 -3.07285 1.01772 0
M  V30 6766 H 654.769 -2.07815 3.11069 0
M  V30 6767 H 656.102 -2.75055 4.08174 0
M  V30 6768 N 657.755 -1.42862 -0.66545 0
M  V30 6769 C 658.703 -1.47319 -1.8 0
M  V30 6770 C 659.697 -0.347963 -1.65788 0
M  V30 6771 O 660.903 -0.521406 -1.72283 0
M  V30 6772 H 657.278 -0.461588 -0.593667 0
M  V30 6773 H 659.249 -2.42876 -1.7336 0
M  V30 6774 C 657.998 -1.40152 -3.18203 0
M  V30 6775 H 657.321 -2.26035 -3.2977 0
M  V30 6776 H 658.761 -1.47331 -3.9758 0
M  V30 6777 C 657.22 -0.117493 -3.36695 0
M  V30 6778 O 657.75 0.826058 -3.93115 0
M  V30 6779 N 655.956 -0.0316218 -2.90583 0
M  V30 6780 H 655.503 -0.800247 -2.44855 0
M  V30 6781 H 655.461 0.826835 -3.03333 0
M  V30 6782 N 659.233 0.902656 -1.29189 0
M  V30 6783 C 660.48 1.65287 -1.16989 0
M  V30 6784 C 660.808 1.92485 0.279232 0
M  V30 6785 O 660.063 1.53143 1.21843 0
M  V30 6786 C 660.362 3.011 -1.92545 0
M  V30 6787 C 660.028 2.93521 -3.42281 0
M  V30 6788 C 658.69 2.91161 -3.83117 0
M  V30 6789 C 661.042 2.82947 -4.3771 0
M  V30 6790 C 658.37 2.76043 -5.17704 0
M  V30 6791 C 660.722 2.69368 -5.72384 0
M  V30 6792 C 659.386 2.65373 -6.12482 0
M  V30 6793 H 658.656 0.604828 -0.428094 0
M  V30 6794 H 661.303 1.05084 -1.60092 0
M  V30 6795 H 659.608 3.65153 -1.42024 0
M  V30 6796 H 661.305 3.58073 -1.80512 0
M  V30 6797 H 657.895 2.96158 -3.09819 0
M  V30 6798 H 662.079 2.83849 -4.07116 0
M  V30 6799 H 657.335 2.71352 -5.47885 0
M  V30 6800 H 661.509 2.60156 -6.45981 0
M  V30 6801 H 659.136 2.53415 -7.16718 0
M  V30 6802 N 660.711 1.11618 1.11262 0
M  V30 6803 C 661.957 0.867463 1.83311 0
M  V30 6804 C 662.29 -0.605366 1.84524 0
M  V30 6805 O 661.565 -1.44704 1.29965 0
M  V30 6806 C 661.848 1.43207 3.30399 0
M  V30 6807 C 661.701 2.97265 3.3757 0
M  V30 6808 C 663.02 1.08454 4.26528 0
M  V30 6809 H 660.139 0.316578 0.665543 0
M  V30 6810 H 662.781 1.38137 1.30454 0
M  V30 6811 H 660.931 0.994982 3.75543 0
M  V30 6812 H 662.603 3.49591 3.00971 0
M  V30 6813 H 660.846 3.33237 2.77733 0
M  V30 6814 H 661.517 3.31859 4.41105 0
M  V30 6815 H 663.993 1.4619 3.89574 0
M  V30 6816 H 662.869 1.50633 5.27826 0
M  V30 6817 H 663.13 -0.00444568 4.421 0
M  V30 6818 N 662.189 -1.289 0.906776 0
M  V30 6819 C 663.437 -1.94883 0.535266 0
M  V30 6820 C 663.758 -1.71784 -0.922791 0
M  V30 6821 O 663.028 -1.05359 -1.65156 0
M  V30 6822 H 661.608 -0.721109 0.194962 0
M  V30 6823 H 664.27 -1.57018 1.15461 0
M  V30 6824 H 663.366 -3.03591 0.723821 0
M  V30 6825 N 663.667 -0.670007 -1.42649 0
M  V30 6826 C 664.6 0.0613623 -2.28117 0
M  V30 6827 C 665.578 0.813414 -1.40792 0
M  V30 6828 O 666.762 0.809529 -1.70232 0
M  V30 6829 C 663.889 1.09399 -3.20546 0
M  V30 6830 C 662.935 0.438064 -4.24244 0
M  V30 6831 S 663.768 -0.800808 -5.29478 0
M  V30 6832 C 664.924 0.23086 -6.25474 0
M  V30 6833 H 665.157 -0.663606 -2.89799 0
M  V30 6834 H 662.69 -0.45939 -1.47407 0
M  V30 6835 H 664.648 1.68469 -3.74337 0
M  V30 6836 H 663.309 1.79137 -2.58009 0
M  V30 6837 H 662.502 1.21707 -4.89084 0
M  V30 6838 H 662.104 -0.0789346 -3.73917 0
M  V30 6839 H 664.396 1.09204 -6.68641 0
M  V30 6840 H 665.339 -0.382945 -7.07064 0
M  V30 6841 H 665.747 0.574191 -5.61572 0
M  V30 6842 N 665.145 1.52092 -0.413018 0
M  V30 6843 C 666.095 2.23947 0.427993 0
M  V30 6844 C 667.079 1.25229 1.01027 0
M  V30 6845 O 668.271 1.50448 0.932444 0
M  V30 6846 C 665.4 3.0672 1.542 0
M  V30 6847 C 664.486 4.12851 0.970307 0
M  V30 6848 N 664.877 5.05644 0.125611 0
M  V30 6849 C 663.175 4.28404 1.24042 0
M  V30 6850 C 663.876 5.8138 -0.192876 0
M  V30 6851 N 662.852 5.41996 0.417273 0
M  V30 6852 H 666.654 2.93048 -0.223628 0
M  V30 6853 H 664.168 1.60852 -0.223664 0
M  V30 6854 H 666.165 3.56754 2.15714 0
M  V30 6855 H 664.825 2.39159 2.19621 0
M  V30 6856 H 665.836 5.17348 -0.238995 0
M  V30 6857 H 662.513 3.72071 1.89391 0
M  V30 6858 H 663.903 6.66129 -0.878762 0
M  V30 6859 N 666.623 0.143563 1.56945 0
M  V30 6860 C 667.87 -0.508407 1.96014 0
M  V30 6861 C 668.198 -1.65099 1.02824 0
M  V30 6862 O 667.453 -1.95618 0.0567764 0
M  V30 6863 C 667.752 -1.05885 3.41355 0
M  V30 6864 C 667.418 -0.0350809 4.50886 0
M  V30 6865 C 666.08 0.246362 4.80569 0
M  V30 6866 C 668.432 0.661282 5.16988 0
M  V30 6867 C 665.76 1.23003 5.73661 0
M  V30 6868 C 668.112 1.63375 6.11139 0
M  V30 6869 C 666.776 1.92292 6.39203 0
M  V30 6870 H 666.046 -0.186039 0.717266 0
M  V30 6871 H 668.693 0.229667 1.90118 0
M  V30 6872 H 666.998 -1.87419 3.44066 0
M  V30 6873 H 668.695 -1.57183 3.6891 0
M  V30 6874 H 665.285 -0.264622 4.27782 0
M  V30 6875 H 669.469 0.457038 4.94191 0
M  V30 6876 H 664.725 1.46056 5.93698 0
M  V30 6877 H 668.899 2.17887 6.61436 0
M  V30 6878 H 666.526 2.68666 7.11142 0
M  V30 6879 N 668.101 -1.57061 -0.130224 0
M  V30 6880 C 669.348 -1.84257 -0.839972 0
M  V30 6881 C 669.676 -0.726986 -1.80403 0
M  V30 6882 O 668.931 0.282632 -1.93648 0
M  V30 6883 C 669.23 -3.17878 -1.63365 0
M  V30 6884 C 668.896 -4.43475 -0.814891 0
M  V30 6885 C 667.558 -4.77581 -0.589066 0
M  V30 6886 C 669.91 -5.20631 -0.243437 0
M  V30 6887 C 667.238 -5.86292 0.218648 0
M  V30 6888 C 669.59 -6.30192 0.551408 0
M  V30 6889 C 668.254 -6.62837 0.787653 0
M  V30 6890 H 667.524 -0.674245 -0.307367 0
M  V30 6891 H 670.171 -1.91224 -0.102832 0
M  V30 6892 H 668.476 -3.06437 -2.44138 0
M  V30 6893 H 670.173 -3.3614 -2.18658 0
M  V30 6894 H 666.763 -4.16747 -1.00098 0
M  V30 6895 H 670.947 -4.94644 -0.405145 0
M  V30 6896 H 666.203 -6.10017 0.411016 0
M  V30 6897 H 670.377 -6.89165 1.00126 0
M  V30 6898 H 668.004 -7.46908 1.41537 0
M  V30 6899 N 669.579 0.400081 -1.52437 0
M  V30 6900 C 670.527 1.50851 -1.7705 0
M  V30 6901 C 671.521 1.56928 -0.637969 0
M  V30 6902 O 672.727 1.60226 -0.820212 0
M  V30 6903 H 669.102 0.50186 -0.560036 0
M  V30 6904 H 671.073 1.27281 -2.69893 0
M  V30 6905 C 669.822 2.88117 -1.94638 0
M  V30 6906 H 669.145 2.84187 -2.81208 0
M  V30 6907 H 670.585 3.64942 -2.15855 0
M  V30 6908 C 669.044 3.29206 -0.715899 0
M  V30 6909 O 669.574 4.01544 0.111944 0
M  V30 6910 N 667.78 2.85363 -0.549191 0
M  V30 6911 H 667.327 2.26664 -1.22397 0
M  V30 6912 H 667.285 3.13214 0.27278 0
M  V30 6913 N 671.057 1.43213 0.657864 0
M  V30 6914 C 672.468 1.39669 1.23893 0
M  V30 6915 C 672.819 0.0984217 1.95953 0
M  V30 6916 O 671.944 -0.8023 2.00978 0
M  V30 6917 C 672.539 2.53004 2.25332 0
M  V30 6918 C 671.098 2.5274 2.78926 0
M  V30 6919 C 670.245 2.30941 1.53497 0
M  V30 6920 H 673.196 1.52181 0.450172 0
M  V30 6921 H 673.217 2.24226 3.07413 0
M  V30 6922 H 672.729 3.4748 1.72856 0
M  V30 6923 H 670.83 1.6213 3.35477 0
M  V30 6924 H 670.943 3.50352 3.26787 0
M  V30 6925 H 669.307 1.7952 1.80678 0
M  V30 6926 H 670.09 3.27496 1.02963 0
M  V30 6927 N 672.536 -0.895792 1.29666 0
M  V30 6928 C 673.782 -1.64908 1.18039 0
M  V30 6929 C 674.115 -1.9236 -0.266682 0
M  V30 6930 O 673.39 -1.53682 -1.19214 0
M  V30 6931 C 673.673 -2.99574 1.99819 0
M  V30 6932 C 673.526 -2.79163 3.52687 0
M  V30 6933 C 674.845 -4.00358 1.82761 0
M  V30 6934 H 671.964 -0.598437 0.430165 0
M  V30 6935 H 674.606 -1.03736 1.59182 0
M  V30 6936 H 672.756 -3.51786 1.64859 0
M  V30 6937 H 674.428 -2.33821 3.9765 0
M  V30 6938 H 672.671 -2.13871 3.77414 0
M  V30 6939 H 673.342 -3.74871 4.05186 0
M  V30 6940 H 675.818 -3.57268 2.13304 0
M  V30 6941 H 674.694 -4.92514 2.42325 0
M  V30 6942 H 674.955 -4.35096 0.783839 0
M  V30 6943 N 674.014 -1.12206 -1.10668 0
M  V30 6944 C 674.964 -0.75669 -2.15077 0
M  V30 6945 C 675.948 0.243154 -1.59052 0
M  V30 6946 O 677.14 0.0490268 -1.76932 0
M  V30 6947 C 674.269 -0.210303 -3.42655 0
M  V30 6948 C 673.355 -1.23829 -4.05619 0
M  V30 6949 N 673.746 -2.43513 -4.43323 0
M  V30 6950 C 672.044 -1.08309 -4.32649 0
M  V30 6951 C 672.745 -3.09138 -4.92756 0
M  V30 6952 N 671.721 -2.36593 -4.89413 0
M  V30 6953 H 675.523 -1.66747 -2.42018 0
M  V30 6954 H 673.037 -1.00248 -1.27765 0
M  V30 6955 H 675.034 0.0696287 -4.16842 0
M  V30 6956 H 673.694 0.694967 -3.17176 0
M  V30 6957 H 674.705 -2.80912 -4.35097 0
M  V30 6958 H 671.382 -0.234919 -4.16839 0
M  V30 6959 H 672.772 -4.11049 -5.31496 0
M  V30 6960 N 675.492 1.28418 -0.913599 0
M  V30 6961 C 676.425 2.25557 -0.346328 0
M  V30 6962 C 677.403 1.53038 0.549366 0
M  V30 6963 O 678.587 1.81937 0.493055 0
M  V30 6964 C 675.714 3.34915 0.504961 0
M  V30 6965 C 674.76 4.25257 -0.325334 0
M  V30 6966 S 675.593 5.06718 -1.73198 0
M  V30 6967 C 676.749 6.19569 -0.887988 0
M  V30 6968 H 676.982 2.73325 -1.16965 0
M  V30 6969 H 674.515 1.36855 -0.714841 0
M  V30 6970 H 676.473 3.98376 0.990301 0
M  V30 6971 H 675.134 2.85814 1.30267 0
M  V30 6972 H 674.327 5.02947 0.325589 0
M  V30 6973 H 673.929 3.66519 -0.744321 0
M  V30 6974 H 676.221 6.77398 -0.117568 0
M  V30 6975 H 677.164 6.88908 -1.63742 0
M  V30 6976 H 677.572 5.62812 -0.436228 0
M  V30 6977 N 676.97 0.677563 1.42291 0
M  V30 6978 C 677.903 -0.0492638 2.28147 0
M  V30 6979 C 678.881 -0.805936 1.41221 0
M  V30 6980 O 680.065 -0.80049 1.70659 0
M  V30 6981 C 677.192 -1.07697 3.21122 0
M  V30 6982 C 676.238 -0.41556 4.24471 0
M  V30 6983 S 677.071 0.828876 5.29046 0
M  V30 6984 C 678.227 -0.197687 6.25588 0
M  V30 6985 H 678.46 0.678965 2.89443 0
M  V30 6986 H 675.993 0.467201 1.47162 0
M  V30 6987 H 677.951 -1.66482 3.75225 0
M  V30 6988 H 676.612 -1.77766 2.58956 0
M  V30 6989 H 675.805 -1.19112 4.89723 0
M  V30 6990 H 675.407 0.0987632 3.7387 0
M  V30 6991 H 677.699 -1.05656 6.69211 0
M  V30 6992 H 678.642 0.420437 7.06851 0
M  V30 6993 H 679.05 -0.544401 5.61869 0
M  V30 6994 N 678.448 -1.51871 0.421078 0
M  V30 6995 C 679.859 -1.86644 -0.0457991 0
M  V30 6996 C 680.21 -1.33919 -1.43388 0
M  V30 6997 O 679.335 -0.683316 -2.05328 0
M  V30 6998 C 679.93 -3.38681 -0.0898844 0
M  V30 6999 C 678.489 -3.73049 -0.501127 0
M  V30 7000 C 677.636 -2.75485 0.316723 0
M  V30 7001 H 680.587 -1.45327 0.637635 0
M  V30 7002 H 680.608 -3.69636 -0.902734 0
M  V30 7003 H 680.12 -3.77025 0.920513 0
M  V30 7004 H 678.221 -3.40288 -1.51773 0
M  V30 7005 H 678.334 -4.78512 -0.237217 0
M  V30 7006 H 676.698 -2.53725 -0.222663 0
M  V30 7007 H 677.481 -3.16671 1.32569 0
M  V30 7008 N 679.926 -0.151884 -1.56866 0
M  V30 7009 C 680.856 0.781943 -2.20018 0
M  V30 7010 C 681.837 1.25347 -1.14987 0
M  V30 7011 O 683.022 1.31015 -1.43348 0
M  V30 7012 C 680.152 2.01928 -2.82564 0
M  V30 7013 C 679.106 1.68434 -3.93464 0
M  V30 7014 C 678.432 2.99472 -4.42968 0
M  V30 7015 C 679.732 0.927244 -5.14003 0
M  V30 7016 H 681.426 0.255607 -2.98307 0
M  V30 7017 H 678.972 0.121502 -1.43486 0
M  V30 7018 H 680.925 2.67741 -3.25411 0
M  V30 7019 H 679.649 2.56943 -2.01614 0
M  V30 7020 H 678.308 1.04998 -3.51242 0
M  V30 7021 H 677.956 3.52488 -3.58834 0
M  V30 7022 H 677.656 2.77823 -5.17772 0
M  V30 7023 H 679.18 3.66348 -4.88489 0
M  V30 7024 H 680.594 1.48756 -5.53665 0
M  V30 7025 H 678.991 0.810513 -5.94601 0
M  V30 7026 H 680.061 -0.0801163 -4.84834 0
M  V30 7027 N 681.404 1.57128 0.121893 0
M  V30 7028 C 682.65 1.84974 0.831418 0
M  V30 7029 C 682.983 0.737204 1.79663 0
M  V30 7030 O 682.258 -0.257199 1.92792 0
M  V30 7031 C 682.541 3.23397 1.58386 0
M  V30 7032 C 682.394 4.45246 0.638445 0
M  V30 7033 C 683.713 3.59355 2.54071 0
M  V30 7034 H 680.832 0.67282 0.300803 0
M  V30 7035 H 683.474 1.89759 0.0957587 0
M  V30 7036 H 681.624 3.19449 2.21098 0
M  V30 7037 H 683.296 4.61295 0.0203925 0
M  V30 7038 H 681.539 4.33771 -0.05023 0
M  V30 7039 H 682.21 5.38765 1.20151 0
M  V30 7040 H 684.686 3.64075 2.01465 0
M  V30 7041 H 683.562 4.57193 3.03752 0
M  V30 7042 H 683.823 2.86622 3.36601 0
M  V30 7043 N 682.882 -0.391992 1.52647 0
M  V30 7044 C 683.792 -1.503 1.80131 0
M  V30 7045 C 684.808 -1.59825 0.687882 0
M  V30 7046 O 685.984 -1.76218 0.975149 0
M  V30 7047 C 683.049 -2.85863 1.96171 0
M  V30 7048 C 682.11 -2.86084 3.20085 0
M  V30 7049 C 681.343 -4.15181 3.35351 0
M  V30 7050 O 681.566 -5.09981 2.55491 0
M  V30 7051 O 680.5 -4.22603 4.28591 0
M  V30 7052 H 684.326 -1.30007 2.74466 0
M  V30 7053 H 681.911 -0.579539 1.37701 0
M  V30 7054 H 683.793 -3.66236 2.08445 0
M  V30 7055 H 682.468 -3.06189 1.05025 0
M  V30 7056 H 681.375 -2.04504 3.13256 0
M  V30 7057 H 682.708 -2.7071 4.11068 0
M  V30 7058 N 684.36 -1.4356 -0.65026 0
M  V30 7059 C 685.606 -1.45549 -1.41221 0
M  V30 7060 C 685.939 -0.0805472 -1.94033 0
M  V30 7061 O 685.214 0.899043 -1.72475 0
M  V30 7062 C 685.497 -2.50028 -2.59148 0
M  V30 7063 C 685.35 -3.96808 -2.1181 0
M  V30 7064 C 686.669 -2.51212 -3.61359 0
M  V30 7065 H 683.788 -0.529967 -0.512156 0
M  V30 7066 H 686.43 -1.75127 -0.736933 0
M  V30 7067 H 684.58 -2.24937 -3.16758 0
M  V30 7068 H 686.252 -4.32966 -1.59178 0
M  V30 7069 H 684.495 -4.09498 -1.43156 0
M  V30 7070 H 685.166 -4.6553 -2.96625 0
M  V30 7071 H 687.642 -2.73583 -3.13515 0
M  V30 7072 H 686.518 -3.26252 -4.41419 0
M  V30 7073 H 686.779 -1.54701 -4.1415 0
M  V30 7074 N 685.838 0.888903 -1.30139 0
M  V30 7075 C 687.087 1.63507 -1.18103 0
M  V30 7076 C 687.4 1.93808 0.264141 0
M  V30 7077 O 688.606 2.66744 0.505966 0
M  V30 7078 C 687.062 2.94673 -2.0663 0
M  V30 7079 C 686.67 2.71926 -3.56034 0
M  V30 7080 C 688.414 3.72626 -2.03346 0
M  V30 7081 C 686.321 3.98884 -4.3663 0
M  V30 7082 H 685.251 0.613426 -0.438435 0
M  V30 7083 H 687.902 0.984427 -1.54859 0
M  V30 7084 H 686.284 3.61009 -1.62754 0
M  V30 7085 H 687.458 2.14116 -4.08033 0
M  V30 7086 H 685.773 2.07353 -3.61101 0
M  V30 7087 H 688.37 4.66775 -2.60816 0
M  V30 7088 H 688.713 4.03712 -1.016 0
M  V30 7089 H 689.246 3.13147 -2.45324 0
M  V30 7090 H 685.985 3.72959 -5.39056 0
M  V30 7091 H 685.505 4.56214 -3.89396 0
M  V30 7092 H 687.184 4.66938 -4.47859 0
M  V30 7093 N 687.317 1.12792 1.10072 0
M  V30 7094 C 688.733 0.864745 1.34143 0
M  V30 7095 C 688.933 -0.503201 1.95116 0
M  V30 7096 O 687.989 -1.25111 2.19325 0
M  V30 7097 C 689.302 1.98413 2.25949 0
M  V30 7098 C 690.85 2.01545 2.39476 0
M  V30 7099 C 691.325 3.12727 3.34613 0
M  V30 7100 N 692.816 3.12194 3.42183 0
M  V30 7101 C 693.551 3.94862 4.15779 0
M  V30 7102 N 693.047 4.87528 4.92228 0
M  V30 7103 N 694.84 3.82985 4.11435 0
M  V30 7104 H 686.991 2.00926 0.68866 0
M  V30 7105 H 689.254 0.874564 0.365844 0
M  V30 7106 H 688.96 2.97005 1.88364 0
M  V30 7107 H 688.834 1.89254 3.26287 0
M  V30 7108 H 691.221 1.0357 2.76328 0
M  V30 7109 H 691.302 2.14777 1.3894 0
M  V30 7110 H 690.946 4.10936 2.98486 0
M  V30 7111 H 690.876 2.96732 4.35037 0
M  V30 7112 H 693.367 2.45065 2.87666 0
M  V30 7113 H 693.68 5.47109 5.45794 0
M  V30 7114 H 692.025 4.91539 4.9134 0
M  V30 7115 H 695.216 3.09923 3.50807 0
M  V30 7116 H 695.389 4.47641 4.68531 0
M  V30 7117 N 688.795 -1.27931 0.920396 0
M  V30 7118 C 690.043 -1.94304 0.555906 0
M  V30 7119 C 690.364 -1.72753 -0.904519 0
M  V30 7120 O 689.634 -1.07104 -1.64029 0
M  V30 7121 H 688.214 -0.719001 0.202599 0
M  V30 7122 H 690.876 -1.55785 1.1712 0
M  V30 7123 H 689.972 -3.02806 0.755981 0
M  V30 7124 N 690.273 -0.685099 -1.4193 0
M  V30 7125 C 691.183 -0.013404 -2.34596 0
M  V30 7126 C 692.199 0.777589 -1.55658 0
M  V30 7127 O 693.375 0.717553 -1.88184 0
M  V30 7128 C 690.44 0.919031 -3.34297 0
M  V30 7129 C 689.501 0.121417 -4.29128 0
M  V30 7130 C 688.734 1.00944 -5.24067 0
M  V30 7131 O 688.957 2.24898 -5.24192 0
M  V30 7132 O 687.891 0.464724 -6.00103 0
M  V30 7133 H 691.717 -0.776978 -2.93593 0
M  V30 7134 H 689.302 -0.445379 -1.42607 0
M  V30 7135 H 691.184 1.45402 -3.9552 0
M  V30 7136 H 689.859 1.66228 -2.77759 0
M  V30 7137 H 688.766 -0.45792 -3.71287 0
M  V30 7138 H 690.099 -0.582937 -4.88736 0
M  V30 7139 N 691.751 1.51645 -0.429126 0
M  V30 7140 C 692.698 2.27542 0.386446 0
M  V30 7141 C 693.668 1.30786 1.02393 0
M  V30 7142 O 694.853 1.59678 1.0444 0
M  V30 7143 C 691.993 3.11457 1.48623 0
M  V30 7144 C 691.106 4.23196 0.867691 0
M  V30 7145 C 690.241 4.94435 1.94183 0
M  V30 7146 C 689.28 5.98108 1.30129 0
M  V30 7147 N 688.417 6.62786 2.31644 0
M  V30 7148 H 693.257 2.968 -0.267155 0
M  V30 7149 H 690.794 1.46397 -0.143591 0
M  V30 7150 H 692.752 3.58429 2.13506 0
M  V30 7151 H 691.382 2.44329 2.10957 0
M  V30 7152 H 690.434 3.80248 0.107373 0
M  V30 7153 H 691.746 4.97499 0.35997 0
M  V30 7154 H 690.9 5.44914 2.66747 0
M  V30 7155 H 689.639 4.19744 2.48326 0
M  V30 7156 H 688.644 5.4693 0.561082 0
M  V30 7157 H 689.869 6.74751 0.767303 0
M  V30 7158 H 687.815 5.90913 2.84883 0
M  V30 7159 H 687.732 7.32828 1.85741 0
M  V30 7160 H 689 7.17897 3.03717 0
M  V30 7161 N 693.229 0.160201 1.56784 0
M  V30 7162 C 694.454 -0.497373 2.01348 0
M  V30 7163 C 694.879 -1.56757 1.03966 0
M  V30 7164 O 694.237 -1.81292 0.0174455 0
M  V30 7165 C 694.285 -1.0628 3.44582 0
M  V30 7166 O 693.389 -2.17723 3.50244 0
M  V30 7167 H 692.73 -0.120295 0.653012 0
M  V30 7168 H 695.26 0.260821 2.02931 0
M  V30 7169 H 695.27 -1.38819 3.83658 0
M  V30 7170 H 693.945 -0.279166 4.14962 0
M  V30 7171 H 692.522 -1.86313 3.2302 0
M  V30 7172 N 694.707 -1.5719 -0.113559 0
M  V30 7173 C 695.932 -1.89702 -0.838336 0
M  V30 7174 C 696.357 -0.752679 -1.72384 0
M  V30 7175 O 695.715 0.296575 -1.78858 0
M  V30 7176 C 695.763 -3.20989 -1.64312 0
M  V30 7177 O 694.867 -3.07278 -2.75053 0
M  V30 7178 H 694.208 -0.622339 -0.231496 0
M  V30 7179 H 696.738 -2.04382 -0.0943228 0
M  V30 7180 H 696.748 -3.53843 -2.03123 0
M  V30 7181 H 695.423 -4.03869 -0.993119 0
M  V30 7182 H 694 -2.85901 -2.39406 0
M  V30 7183 N 696.185 0.383891 -1.52853 0
M  V30 7184 C 697.462 1.14296 -1.58732 0
M  V30 7185 C 697.842 2.07585 -0.383611 0
M  V30 7186 O 697.19 2.1971 0.627661 0
M  V30 7187 C 697.4 1.89816 -2.92867 0
M  V30 7188 C 698.748 2.44998 -3.46787 0
M  V30 7189 O 699.772 1.99966 -2.94774 0
M  V30 7190 O 698.631 3.2727 -4.37672 0
M  V30 7191 H 695.725 0.52326 -0.640413 0
M  V30 7192 H 698.271 0.388631 -1.6519 0
M  V30 7193 H 697.043 1.21626 -3.71918 0
M  V30 7194 H 696.666 2.72199 -2.89816 0
M  V30 7195 N 697.663 1.43903 0.642637 0
M  V30 7196 C 698.593 1.52697 1.76652 0
M  V30 7197 C 699.574 0.380816 1.65782 0
M  V30 7198 O 700.759 0.599432 1.84717 0
M  V30 7199 C 697.889 1.45975 3.15133 0
M  V30 7200 C 696.843 2.58949 3.40778 0
M  V30 7201 C 696.169 2.37279 4.79169 0
M  V30 7202 C 697.469 4.01153 3.34475 0
M  V30 7203 H 699.163 2.46766 1.69549 0
M  V30 7204 H 696.709 1.18767 0.814279 0
M  V30 7205 H 698.662 1.5073 3.93521 0
M  V30 7206 H 697.386 0.484162 3.22991 0
M  V30 7207 H 696.045 2.53564 2.64765 0
M  V30 7208 H 695.693 1.37939 4.83717 0
M  V30 7209 H 695.393 3.13016 4.97287 0
M  V30 7210 H 696.917 2.43834 5.59801 0
M  V30 7211 H 698.331 4.07968 4.02784 0
M  V30 7212 H 696.728 4.77001 3.64129 0
M  V30 7213 H 697.798 4.25539 2.32475 0
M  V30 7214 N 699.141 -0.881989 1.30609 0
M  V30 7215 C 700.104 -1.96957 1.1722 0
M  V30 7216 C 701.104 -1.60472 0.102598 0
M  V30 7217 O 702.294 -1.70628 0.350943 0
M  V30 7218 C 699.426 -3.31463 0.796572 0
M  V30 7219 H 700.619 -2.10262 2.13846 0
M  V30 7220 H 698.172 -1.06877 1.14048 0
M  V30 7221 H 698.907 -3.23859 -0.169053 0
M  V30 7222 H 698.692 -3.59314 1.56959 0
M  V30 7223 H 700.182 -4.11233 0.72645 0
M  V30 7224 N 700.619 -1.13374 -1.09472 0
M  V30 7225 C 701.865 -0.896516 -1.81908 0
M  V30 7226 C 702.198 0.575933 -1.85463 0
M  V30 7227 O 701.473 1.42618 -1.32251 0
M  V30 7228 C 701.756 -1.48445 -3.28079 0
M  V30 7229 C 701.609 -3.02598 -3.32798 0
M  V30 7230 C 702.928 -1.15226 -4.24748 0
M  V30 7231 H 700.047 -0.327127 -0.660422 0
M  V30 7232 H 702.689 -1.40195 -1.2824 0
M  V30 7233 H 700.839 -1.0546 -3.73912 0
M  V30 7234 H 702.511 -3.54335 -2.95372 0
M  V30 7235 H 700.754 -3.37613 -2.72397 0
M  V30 7236 H 701.425 -3.38835 -4.3577 0
M  V30 7237 H 703.901 -1.52369 -3.87199 0
M  V30 7238 H 702.777 -1.59012 -5.25363 0
M  V30 7239 H 703.038 -0.0658891 -4.42051 0
M  V30 7240 N 702.098 1.27442 -0.927168 0
M  V30 7241 C 703.061 2.2512 -0.430525 0
M  V30 7242 C 704.061 1.54357 0.450619 0
M  V30 7243 O 705.251 1.72371 0.251774 0
M  V30 7244 C 702.383 3.38763 0.381144 0
M  V30 7245 H 703.576 2.70569 -1.29354 0
M  V30 7246 H 701.129 1.39355 -0.707806 0
M  V30 7247 H 701.864 2.98695 1.263 0
M  V30 7248 H 701.649 3.91298 -0.250618 0
M  V30 7249 H 703.139 4.11364 0.719012 0
M  V30 7250 N 703.576 0.692616 1.41565 0
M  V30 7251 C 704.804 0.231279 2.05603 0
M  V30 7252 C 705.219 -1.11837 1.52111 0
M  V30 7253 O 704.576 -1.6983 0.66813 0
M  V30 7254 C 704.627 0.177125 3.61066 0
M  V30 7255 O 704.348 1.47346 4.12578 0
M  V30 7256 C 705.849 -0.30556 4.42246 0
M  V30 7257 H 703.069 0.108238 0.662213 0
M  V30 7258 H 705.613 0.944369 1.81389 0
M  V30 7259 H 703.768 -0.486769 3.8433 0
M  V30 7260 H 704.182 1.35861 5.06599 0
M  V30 7261 H 705.656 -0.29233 5.51225 0
M  V30 7262 H 706.133 -1.34393 4.18133 0
M  V30 7263 H 706.739 0.327229 4.24039 0
M  V30 7264 N 705.054 -1.51416 0.437162 0
M  V30 7265 C 706.282 -2.06503 -0.128045 0
M  V30 7266 C 706.697 -1.30461 -1.36475 0
M  V30 7267 O 706.054 -0.364127 -1.78831 0
M  V30 7268 C 706.105 -3.58683 -0.450437 0
M  V30 7269 O 705.826 -4.31853 0.737186 0
M  V30 7270 C 707.327 -4.30284 -1.06633 0
M  V30 7271 H 704.547 -0.670952 -0.00800269 0
M  V30 7272 H 707.091 -1.94996 0.616193 0
M  V30 7273 H 705.246 -3.70106 -1.14457 0
M  V30 7274 H 705.66 -5.22467 0.461347 0
M  V30 7275 H 707.134 -5.37848 -1.24191 0
M  V30 7276 H 707.611 -3.88564 -2.0473 0
M  V30 7277 H 708.217 -4.23304 -0.411585 0
M  V30 7278 N 706.532 -0.168513 -1.56696 0
M  V30 7279 C 707.778 0.477865 -1.9709 0
M  V30 7280 C 708.111 1.63084 -1.05438 0
M  V30 7281 O 707.386 1.94238 -0.10095 0
M  V30 7282 C 707.669 0.963521 -3.4697 0
M  V30 7283 C 707.522 -0.189443 -4.49401 0
M  V30 7284 C 708.841 1.83813 -3.99876 0
M  V30 7285 H 705.96 0.172229 -0.716593 0
M  V30 7286 H 708.602 -0.254083 -1.88293 0
M  V30 7287 H 706.752 1.58724 -3.54597 0
M  V30 7288 H 708.424 -0.826451 -4.53836 0
M  V30 7289 H 706.667 -0.845366 -4.25483 0
M  V30 7290 H 707.338 0.192446 -5.51664 0
M  V30 7291 H 709.814 1.31235 -3.94863 0
M  V30 7292 H 708.69 2.14697 -5.0517 0
M  V30 7293 H 708.951 2.78289 -3.43523 0
M  V30 7294 N 708.01 1.57248 0.105221 0
M  V30 7295 C 708.973 2.00388 1.11252 0
M  V30 7296 C 709.973 0.89594 1.33527 0
M  V30 7297 O 711.163 1.16166 1.29811 0
M  V30 7298 C 708.295 2.35589 2.46395 0
M  V30 7299 H 709.488 2.90591 0.741424 0
M  V30 7300 H 707.041 1.52332 0.349956 0
M  V30 7301 H 707.776 1.4831 2.884 0
M  V30 7302 H 707.561 3.16408 2.31578 0
M  V30 7303 H 709.051 2.69658 3.18864 0
M  V30 7304 N 709.488 -0.375779 1.53054 0
M  V30 7305 C 710.718 -1.1387 1.72386 0
M  V30 7306 C 711.126 -1.8382 0.447966 0
M  V30 7307 O 710.469 -1.74027 -0.588244 0
M  V30 7308 C 710.531 -2.22047 2.82728 0
M  V30 7309 C 710.195 -1.71951 4.23417 0
M  V30 7310 C 711.192 -1.18909 5.06119 0
M  V30 7311 C 708.877 -1.77773 4.69789 0
M  V30 7312 C 710.871 -0.723529 6.3328 0
M  V30 7313 C 708.558 -1.30829 5.96931 0
M  V30 7314 C 709.556 -0.782077 6.78508 0
M  V30 7315 O 709.244 -0.319529 8.03265 0
M  V30 7316 H 708.976 -0.346835 0.580242 0
M  V30 7317 H 711.53 -0.443748 2.00549 0
M  V30 7318 H 709.76 -2.95006 2.50017 0
M  V30 7319 H 711.449 -2.83654 2.90336 0
M  V30 7320 H 712.215 -1.13758 4.7147 0
M  V30 7321 H 708.094 -2.17673 4.06373 0
M  V30 7322 H 711.638 -0.312126 6.96901 0
M  V30 7323 H 707.535 -1.3567 6.31081 0
M  V30 7324 H 708.303 -0.439796 8.17318 0
M  V30 7325 N 710.966 -1.44241 -0.634997 0
M  V30 7326 C 711.929 -1.50457 -1.72903 0
M  V30 7327 C 712.929 -0.387058 -1.56072 0
M  V30 7328 O 714.119 -0.649531 -1.61638 0
M  V30 7329 C 711.251 -1.37477 -3.1195 0
M  V30 7330 H 712.444 -2.47907 -1.68767 0
M  V30 7331 H 709.997 -1.31276 -0.84831 0
M  V30 7332 H 710.732 -0.41106 -3.21684 0
M  V30 7333 H 710.517 -2.18506 -3.25573 0
M  V30 7334 H 712.007 -1.44799 -3.91692 0
M  V30 7335 N 712.444 0.87505 -1.31075 0
M  V30 7336 C 713.391 1.98178 -1.18296 0
M  V30 7337 C 714.361 1.65952 -0.0699923 0
M  V30 7338 O 715.546 1.8926 -0.241951 0
M  V30 7339 C 712.686 3.33399 -0.891024 0
M  V30 7340 C 711.799 3.78253 -2.08684 0
M  V30 7341 C 710.934 5.02166 -1.73212 0
M  V30 7342 C 709.973 5.39455 -2.89231 0
M  V30 7343 N 709.11 6.54549 -2.53989 0
M  V30 7344 H 713.95 2.0844 -2.12971 0
M  V30 7345 H 711.487 1.02047 -1.05948 0
M  V30 7346 H 713.445 4.11246 -0.702338 0
M  V30 7347 H 712.075 3.22794 0.0188799 0
M  V30 7348 H 711.127 2.9623 -2.38646 0
M  V30 7349 H 712.439 4.01821 -2.95536 0
M  V30 7350 H 711.593 5.87666 -1.50777 0
M  V30 7351 H 710.332 4.80491 -0.83544 0
M  V30 7352 H 709.337 4.52477 -3.12321 0
M  V30 7353 H 710.562 5.63098 -3.79601 0
M  V30 7354 H 708.508 6.3443 -1.66838 0
M  V30 7355 H 708.425 6.78035 -3.34372 0
M  V30 7356 H 709.693 7.43254 -2.34934 0
M  V30 7357 N 713.922 1.13953 1.08869 0
M  V30 7358 C 714.869 0.82213 2.15661 0
M  V30 7359 C 715.839 -0.218274 1.6466 0
M  V30 7360 O 717.024 -0.0892475 1.90591 0
M  V30 7361 C 714.164 0.300572 3.43789 0
M  V30 7362 C 713.277 1.40071 4.08661 0
M  V30 7363 C 712.412 0.836897 5.24566 0
M  V30 7364 C 711.451 1.91504 5.81371 0
M  V30 7365 N 710.588 1.36875 6.88629 0
M  V30 7366 H 715.428 1.73683 2.42153 0
M  V30 7367 H 712.965 0.866879 1.18843 0
M  V30 7368 H 714.923 -0.0199943 4.17195 0
M  V30 7369 H 713.553 -0.577248 3.17597 0
M  V30 7370 H 712.605 1.83776 3.33062 0
M  V30 7371 H 713.917 2.21534 4.46905 0
M  V30 7372 H 713.071 0.467953 6.04893 0
M  V30 7373 H 711.81 -0.00874207 4.87699 0
M  V30 7374 H 710.815 2.29299 4.99702 0
M  V30 7375 H 712.04 2.76419 6.20298 0
M  V30 7376 H 709.986 0.545211 6.5373 0
M  V30 7377 H 709.903 2.1198 7.25672 0
M  V30 7378 H 711.171 1.02756 7.72698 0
M  V30 7379 N 715.4 -1.26948 0.933913 0
M  V30 7380 C 716.333 -2.24977 0.382169 0
M  V30 7381 C 717.311 -1.53893 -0.524949 0
M  V30 7382 O 718.495 -1.82699 -0.464048 0
M  V30 7383 C 715.622 -3.35676 -0.451615 0
M  V30 7384 C 714.668 -4.24686 0.392947 0
M  V30 7385 S 715.501 -5.03898 1.81237 0
M  V30 7386 C 716.657 -6.18078 0.986443 0
M  V30 7387 H 716.89 -2.71429 1.21299 0
M  V30 7388 H 714.423 -1.35701 0.736523 0
M  V30 7389 H 716.381 -3.99901 -0.926797 0
M  V30 7390 H 715.042 -2.8785 -1.25703 0
M  V30 7391 H 714.235 -5.03402 -0.245533 0
M  V30 7392 H 713.837 -3.65288 0.802537 0
M  V30 7393 H 716.129 -6.77125 0.225321 0
M  V30 7394 H 717.072 -6.86216 1.74682 0
M  V30 7395 H 717.48 -5.62047 0.525711 0
M  V30 7396 N 716.879 -0.700114 -1.41195 0
M  V30 7397 C 718.127 -0.232546 -2.00758 0
M  V30 7398 C 718.448 1.1734 -1.55745 0
M  V30 7399 O 717.718 1.79262 -0.790058 0
M  V30 7400 H 716.298 -0.0829845 -0.742376 0
M  V30 7401 H 718.96 -0.902289 -1.72756 0
M  V30 7402 H 718.056 -0.253521 -3.11069 0
M  V30 7403 N 718.357 1.51182 -0.445186 0
M  V30 7404 C 719.304 2.27939 0.362291 0
M  V30 7405 C 720.274 1.31864 1.01 0
M  V30 7406 O 721.459 1.60776 1.02741 0
M  V30 7407 C 718.599 3.13016 1.45311 0
M  V30 7408 C 717.712 4.24093 0.822757 0
M  V30 7409 C 716.847 4.96467 1.88928 0
M  V30 7410 C 715.886 5.99454 1.23778 0
M  V30 7411 N 715.023 6.65206 2.24602 0
M  V30 7412 H 719.863 2.965 -0.29862 0
M  V30 7413 H 717.4 1.46237 -0.15911 0
M  V30 7414 H 719.358 3.60673 2.09692 0
M  V30 7415 H 717.988 2.46553 2.08354 0
M  V30 7416 H 717.04 3.80341 0.0670364 0
M  V30 7417 H 718.352 4.97853 0.307184 0
M  V30 7418 H 717.506 5.47712 2.60953 0
M  V30 7419 H 716.245 4.22355 2.4386 0
M  V30 7420 H 715.25 5.47494 0.503042 0
M  V30 7421 H 716.475 6.75527 0.695694 0
M  V30 7422 H 714.421 5.93901 2.78599 0
M  V30 7423 H 714.338 7.34756 1.77958 0
M  V30 7424 H 715.606 7.21078 2.96085 0
M  V30 7425 N 719.835 0.176821 1.56605 0
M  V30 7426 C 720.783 -0.768159 2.1955 0
M  V30 7427 C 721.777 -1.23343 1.16116 0
M  V30 7428 O 722.983 -1.19844 1.34303 0
M  V30 7429 H 719.358 -0.266013 0.703378 0
M  V30 7430 H 721.329 -0.213374 2.97636 0
M  V30 7431 C 720.078 -1.98492 2.85475 0
M  V30 7432 H 719.401 -1.63595 3.64797 0
M  V30 7433 H 720.841 -2.62489 3.3298 0
M  V30 7434 C 719.3 -2.81207 1.85538 0
M  V30 7435 O 719.83 -3.7854 1.34427 0
M  V30 7436 N 718.036 -2.46331 1.54173 0
M  V30 7437 H 717.583 -1.67241 1.95929 0
M  V30 7438 H 717.541 -3.01961 0.875595 0
M  V30 7439 N 721.313 -1.57302 -0.09688 0
M  V30 7440 C 722.724 -1.7496 -0.651595 0
M  V30 7441 C 723.075 -0.798746 -1.79205 0
M  V30 7442 O 722.2 0.0231858 -2.16388 0
M  V30 7443 C 722.795 -3.17259 -1.18878 0
M  V30 7444 C 721.354 -3.36348 -1.68958 0
M  V30 7445 C 720.501 -2.70766 -0.598413 0
M  V30 7446 H 723.452 -1.58173 0.12918 0
M  V30 7447 H 723.473 -3.20033 -2.05814 0
M  V30 7448 H 722.985 -3.8644 -0.358523 0
M  V30 7449 H 721.086 -2.72243 -2.5439 0
M  V30 7450 H 721.199 -4.44654 -1.7838 0
M  V30 7451 H 719.563 -2.32615 -1.03743 0
M  V30 7452 H 720.346 -3.42586 0.221238 0
M  V30 7453 N 722.791 0.367657 -1.53252 0
M  V30 7454 C 724.04 1.10782 -1.68554 0
M  V30 7455 C 724.353 1.90523 -0.442765 0
M  V30 7456 O 725.559 2.6729 -0.47629 0
M  V30 7457 C 724.015 2.01863 -2.97959 0
M  V30 7458 C 723.623 1.27443 -4.29491 0
M  V30 7459 C 725.367 2.75883 -3.22628 0
M  V30 7460 C 723.274 2.17414 -5.49987 0
M  V30 7461 H 722.204 0.417272 -0.628013 0
M  V30 7462 H 724.855 0.368971 -1.79752 0
M  V30 7463 H 723.237 2.7947 -2.80558 0
M  V30 7464 H 724.411 0.549138 -4.57516 0
M  V30 7465 H 722.726 0.652935 -4.11249 0
M  V30 7466 H 725.323 3.43421 -4.09837 0
M  V30 7467 H 725.666 3.41138 -2.38601 0
M  V30 7468 H 726.199 2.0536 -3.40693 0
M  V30 7469 H 722.938 1.5674 -6.36485 0
M  V30 7470 H 722.458 2.87799 -5.26243 0
M  V30 7471 H 724.137 2.77019 -5.84696 0
M  V30 7472 N 724.269 1.44576 0.627338 0
M  V30 7473 C 725.515 1.47777 1.38888 0
M  V30 7474 C 725.848 0.111406 1.9388 0
M  V30 7475 O 725.123 -0.87149 1.73883 0
M  V30 7476 C 725.406 2.54119 2.55138 0
M  V30 7477 C 725.259 4.00128 2.0547 0
M  V30 7478 C 726.578 2.56929 3.57317 0
M  V30 7479 H 723.697 0.538048 0.50366 0
M  V30 7480 H 726.339 1.76277 0.708978 0
M  V30 7481 H 724.489 2.29948 3.13139 0
M  V30 7482 H 726.161 4.35444 1.5227 0
M  V30 7483 H 724.404 4.11724 1.36623 0
M  V30 7484 H 725.075 4.7019 2.89181 0
M  V30 7485 H 727.551 2.78536 3.09122 0
M  V30 7486 H 726.427 3.33234 4.36173 0
M  V30 7487 H 726.688 1.6127 4.11636 0
M  V30 7488 N 725.747 -0.868086 1.31537 0
M  V30 7489 C 726.993 -1.62367 1.2151 0
M  V30 7490 C 727.326 -1.92883 -0.225819 0
M  V30 7491 O 726.601 -1.56176 -1.15927 0
M  V30 7492 C 726.884 -2.95268 2.06129 0
M  V30 7493 C 726.737 -2.71619 3.58529 0
M  V30 7494 C 728.056 -3.96391 1.91212 0
M  V30 7495 H 725.175 -0.589178 0.442762 0
M  V30 7496 H 727.817 -1.00336 1.61347 0
M  V30 7497 H 725.967 -3.4821 1.72284 0
M  V30 7498 H 727.639 -2.25334 4.0252 0
M  V30 7499 H 725.882 -2.05817 3.81866 0
M  V30 7500 H 726.553 -3.66192 4.13047 0
M  V30 7501 H 729.029 -3.52663 2.20834 0
M  V30 7502 H 727.905 -4.87263 2.52718 0
M  V30 7503 H 728.166 -4.33335 0.875953 0
M  V30 7504 N 727.225 -1.14528 -1.08264 0
M  V30 7505 C 728.173 -0.829201 -2.17318 0
M  V30 7506 C 729.167 0.193521 -1.68291 0
M  V30 7507 O 730.373 0.0494744 -1.79932 0
M  V30 7508 H 726.748 -0.250435 -0.709074 0
M  V30 7509 H 728.719 -1.75683 -2.41201 0
M  V30 7510 C 727.468 -0.324663 -3.46181 0
M  V30 7511 H 726.791 -1.10299 -3.84284 0
M  V30 7512 H 728.231 -0.142059 -4.23762 0
M  V30 7513 C 726.69 0.952033 -3.23169 0
M  V30 7514 O 727.22 2.02549 -3.46896 0
M  V30 7515 N 725.426 0.887854 -2.76705 0
M  V30 7516 H 724.973 0.0141402 -2.57596 0
M  V30 7517 H 724.931 1.74263 -2.61686 0
M  V30 7518 N 728.703 1.26451 -0.940633 0
M  V30 7519 C 729.98 1.88947 -0.505811 0
M  V30 7520 C 730.36 1.85011 1.01657 0
M  V30 7521 O 729.708 1.30406 1.87634 0
M  V30 7522 C 729.918 3.32304 -1.06654 0
M  V30 7523 C 731.266 4.09153 -1.13486 0
M  V30 7524 O 732.29 3.41371 -1.01708 0
M  V30 7525 O 731.149 5.30369 -1.31797 0
M  V30 7526 H 728.243 0.810422 -0.164759 0
M  V30 7527 H 730.789 1.34625 -1.03316 0
M  V30 7528 H 729.561 3.29527 -2.11015 0
M  V30 7529 H 729.184 3.94164 -0.521603 0
M  V30 7530 N 730.181 0.707592 1.40822 0
M  V30 7531 C 731.421 0.247986 2.0289 0
M  V30 7532 C 731.785 -1.13484 1.54872 0
M  V30 7533 O 732.986 -1.69098 2.08948 0
M  V30 7534 C 731.257 0.316326 3.55997 0
M  V30 7535 S 732.816 -0.0674698 4.38748 0
M  V30 7536 H 729.634 0.09895 0.704081 0
M  V30 7537 H 732.236 0.928039 1.72069 0
M  V30 7538 H 730.94 1.32453 3.88438 0
M  V30 7539 H 730.471 -0.382474 3.91536 0
M  V30 7540 H 732.486 -1.29182 4.79089 0
M  V30 7541 N 731.66 -1.50943 0.453197 0
M  V30 7542 C 733.071 -1.86699 -0.00619892 0
M  V30 7543 C 733.422 -1.3693 -1.40515 0
M  V30 7544 O 732.547 -0.726715 -2.03833 0
M  V30 7545 C 733.142 -3.38795 -0.018025 0
M  V30 7546 C 731.701 -3.74028 -0.421885 0
M  V30 7547 C 730.848 -2.74752 0.375087 0
M  V30 7548 H 733.799 -1.43942 0.668317 0
M  V30 7549 H 733.82 -3.71468 -0.824125 0
M  V30 7550 H 733.332 -3.74988 1.00028 0
M  V30 7551 H 731.433 -3.43431 -1.44521 0
M  V30 7552 H 731.546 -4.78908 -0.135664 0
M  V30 7553 H 729.91 -2.5414 -0.168794 0
M  V30 7554 H 730.693 -3.13787 1.39256 0
M  V30 7555 N 733.138 -0.185124 -1.56509 0
M  V30 7556 C 734.386 0.455357 -1.96903 0
M  V30 7557 C 734.707 1.62839 -1.07277 0
M  V30 7558 O 733.977 1.95385 -0.141966 0
M  V30 7559 H 732.557 0.171218 -0.727113 0
M  V30 7560 H 735.219 -0.26953 -1.93027 0
M  V30 7561 H 734.315 0.80616 -3.01509 0
M  V30 7562 N 734.616 1.57351 0.0885366 0
M  V30 7563 C 735.863 1.86419 0.790824 0
M  V30 7564 C 736.191 0.774561 1.78412 0
M  V30 7565 O 735.446 -0.23119 1.9433 0
M  V30 7566 C 735.745 3.22098 1.5488 0
M  V30 7567 C 735.411 4.4548 0.697025 0
M  V30 7568 C 734.073 4.78975 0.462237 0
M  V30 7569 C 736.425 5.21094 0.105315 0
M  V30 7570 C 733.753 5.85507 -0.374016 0
M  V30 7571 C 736.105 6.28509 -0.718298 0
M  V30 7572 C 734.769 6.60515 -0.963116 0
M  V30 7573 H 734.039 0.682157 0.289383 0
M  V30 7574 H 736.686 1.91429 0.0520961 0
M  V30 7575 H 734.991 3.12803 2.35927 0
M  V30 7576 H 736.688 3.41819 2.09669 0
M  V30 7577 H 733.278 4.19255 0.890137 0
M  V30 7578 H 737.462 4.95544 0.273856 0
M  V30 7579 H 732.718 6.08713 -0.572606 0
M  V30 7580 H 736.892 6.86268 -1.18362 0
M  V30 7581 H 734.519 7.42893 -1.6129 0
M  V30 7582 N 736.094 -0.359525 1.53444 0
M  V30 7583 C 737.024 -1.44662 1.8329 0
M  V30 7584 C 738.005 -1.55617 0.68683 0
M  V30 7585 O 739.19 -1.70086 0.93725 0
M  V30 7586 C 736.32 -2.81923 2.02822 0
M  V30 7587 C 735.274 -2.85787 3.18606 0
M  V30 7588 C 734.6 -4.25781 3.23442 0
M  V30 7589 C 735.9 -2.52762 4.57065 0
M  V30 7590 H 737.594 -1.19934 2.74329 0
M  V30 7591 H 735.14 -0.575517 1.31999 0
M  V30 7592 H 737.093 -3.58005 2.22285 0
M  V30 7593 H 735.817 -3.08051 1.085 0
M  V30 7594 H 734.476 -2.12157 2.98973 0
M  V30 7595 H 734.124 -4.48994 2.26745 0
M  V30 7596 H 733.824 -4.29281 4.01238 0
M  V30 7597 H 735.348 -5.03727 3.45096 0
M  V30 7598 H 736.762 -3.18557 4.76649 0
M  V30 7599 H 735.159 -2.67569 5.37147 0
M  V30 7600 H 736.229 -1.47993 4.61764 0
M  V30 7601 N 737.572 -1.44907 -0.619662 0
M  V30 7602 C 738.818 -1.48512 -1.38102 0
M  V30 7603 C 739.151 -0.121686 -1.93818 0
M  V30 7604 O 738.426 0.862256 -1.74343 0
M  V30 7605 C 738.709 -2.55469 -2.53787 0
M  V30 7606 C 738.562 -4.01212 -2.03345 0
M  V30 7607 C 739.881 -2.58821 -3.55949 0
M  V30 7608 H 737 -0.540712 -0.500799 0
M  V30 7609 H 739.642 -1.7665 -0.69962 0
M  V30 7610 H 737.792 -2.31606 -3.11915 0
M  V30 7611 H 739.464 -4.36245 -1.49959 0
M  V30 7612 H 737.707 -4.12443 -1.34438 0
M  V30 7613 H 738.378 -4.71717 -2.86683 0
M  V30 7614 H 740.854 -2.80172 -3.07641 0
M  V30 7615 H 739.73 -3.35542 -4.34399 0
M  V30 7616 H 739.991 -1.63451 -4.10775 0
M  V30 7617 N 739.05 0.861098 -1.31996 0
M  V30 7618 C 739.998 1.99052 -1.20337 0
M  V30 7619 C 740.992 1.69045 -0.109623 0
M  V30 7620 O 742.198 1.77931 -0.272117 0
M  V30 7621 H 738.573 0.653064 -0.372843 0
M  V30 7622 H 740.544 2.06015 -2.15872 0
M  V30 7623 C 739.293 3.34846 -0.936663 0
M  V30 7624 H 738.616 3.58462 -1.77045 0
M  V30 7625 H 740.056 4.1444 -0.895302 0
M  V30 7626 C 738.515 3.34965 0.360607 0
M  V30 7627 O 739.045 3.7745 1.37456 0
M  V30 7628 N 737.251 2.88101 0.380296 0
M  V30 7629 H 736.798 2.53721 -0.445351 0
M  V30 7630 H 736.756 2.88563 1.24816 0
M  V30 7631 N 740.528 1.15101 1.07655 0
M  V30 7632 C 741.944 0.893004 1.32279 0
M  V30 7633 C 742.144 -0.461701 1.96139 0
M  V30 7634 O 741.2 -1.20431 2.21929 0
M  V30 7635 C 742.513 2.03161 2.21689 0
M  V30 7636 C 744.061 2.06579 2.35147 0
M  V30 7637 C 744.536 3.19754 3.27905 0
M  V30 7638 N 746.027 3.19382 3.35484 0
M  V30 7639 C 746.762 4.03592 4.07309 0
M  V30 7640 N 746.258 4.97859 4.81776 0
M  V30 7641 N 748.051 3.91626 4.03219 0
M  V30 7642 H 740.202 2.02341 0.645886 0
M  V30 7643 H 742.465 0.882127 0.347211 0
M  V30 7644 H 742.171 3.00934 1.82021 0
M  V30 7645 H 742.045 1.96132 3.22199 0
M  V30 7646 H 744.432 1.09408 2.74069 0
M  V30 7647 H 744.513 2.17676 1.34353 0
M  V30 7648 H 744.157 4.17175 2.89702 0
M  V30 7649 H 744.087 3.05893 4.28645 0
M  V30 7650 H 746.578 2.51112 2.82403 0
M  V30 7651 H 746.891 5.58563 5.34067 0
M  V30 7652 H 745.236 5.0185 4.80803 0
M  V30 7653 H 748.427 3.17295 3.44154 0
M  V30 7654 H 748.6 4.57479 4.5893 0
M  V30 7655 N 742.006 -1.2595 0.947325 0
M  V30 7656 C 743.252 -1.9375 0.599064 0
M  V30 7657 C 743.585 -1.74088 -0.860632 0
M  V30 7658 O 742.86 -1.08158 -1.61654 0
M  V30 7659 C 743.143 -3.47353 0.949634 0
M  V30 7660 C 742.996 -3.76273 2.46452 0
M  V30 7661 C 744.315 -4.37589 0.469442 0
M  V30 7662 H 741.434 -0.703674 0.219115 0
M  V30 7663 H 744.076 -1.48705 1.18266 0
M  V30 7664 H 742.226 -3.8585 0.453008 0
M  V30 7665 H 743.898 -3.47455 3.03435 0
M  V30 7666 H 742.141 -3.22135 2.90537 0
M  V30 7667 H 742.812 -4.83664 2.66032 0
M  V30 7668 H 745.288 -4.06353 0.89534 0
M  V30 7669 H 744.164 -5.43841 0.7435 0
M  V30 7670 H 744.425 -4.37579 -0.630618 0
M  V30 7671 N 743.484 -0.715051 -1.40445 0
M  V30 7672 C 744.414 -0.0768699 -2.33373 0
M  V30 7673 C 745.395 0.746109 -1.52863 0
M  V30 7674 O 746.58 0.695142 -1.81332 0
M  V30 7675 C 743.71 0.846014 -3.36838 0
M  V30 7676 C 742.664 0.128694 -4.27806 0
M  V30 7677 C 741.99 1.16726 -5.21804 0
M  V30 7678 C 743.29 -1.01679 -5.12307 0
M  V30 7679 H 744.984 -0.853061 -2.8699 0
M  V30 7680 H 742.53 -0.41167 -1.3799 0
M  V30 7681 H 744.483 1.30185 -4.00786 0
M  V30 7682 H 743.207 1.6541 -2.81615 0
M  V30 7683 H 741.866 -0.307314 -3.6531 0
M  V30 7684 H 741.514 1.96838 -4.62887 0
M  V30 7685 H 741.214 0.692188 -5.83509 0
M  V30 7686 H 742.738 1.62321 -5.88629 0
M  V30 7687 H 744.152 -0.640337 -5.69713 0
M  V30 7688 H 742.549 -1.4202 -5.83053 0
M  V30 7689 H 743.619 -1.84769 -4.48317 0
M  V30 7690 N 744.962 1.50701 -0.461195 0
M  V30 7691 C 746.209 2.02267 0.0971971 0
M  V30 7692 C 746.537 1.34387 1.40608 0
M  V30 7693 O 745.792 0.455254 1.90331 0
M  V30 7694 C 746.091 3.55788 0.33908 0
M  V30 7695 C 745.757 4.42092 -0.886885 0
M  V30 7696 C 744.419 4.65398 -1.22304 0
M  V30 7697 C 746.771 4.92571 -1.70361 0
M  V30 7698 C 744.099 5.36429 -2.37616 0
M  V30 7699 C 746.451 5.64868 -2.84793 0
M  V30 7700 C 745.115 5.86431 -3.18834 0
M  V30 7701 H 744.385 0.740146 0.0355669 0
M  V30 7702 H 747.032 1.81415 -0.61326 0
M  V30 7703 H 745.337 3.751 1.13168 0
M  V30 7704 H 747.034 3.93243 0.784937 0
M  V30 7705 H 743.624 4.24165 -0.614981 0
M  V30 7706 H 747.808 4.74428 -1.4571 0
M  V30 7707 H 743.064 5.51333 -2.64276 0
M  V30 7708 H 747.238 6.02966 -3.48432 0
M  V30 7709 H 744.865 6.41248 -4.08296 0
M  V30 7710 N 746.441 0.193421 1.56409 0
M  V30 7711 C 747.852 -0.319471 1.83946 0
M  V30 7712 C 748.203 -1.61505 1.11403 0
M  V30 7713 O 747.328 -2.13139 0.374289 0
M  V30 7714 C 747.923 -0.586411 3.33686 0
M  V30 7715 C 746.482 -1.04368 3.61641 0
M  V30 7716 C 745.629 -0.0913834 2.77149 0
M  V30 7717 H 748.58 0.417242 1.53117 0
M  V30 7718 H 748.601 -1.43591 3.52366 0
M  V30 7719 H 748.113 0.356701 3.86457 0
M  V30 7720 H 746.214 -2.00113 3.14302 0
M  V30 7721 H 746.327 -0.937549 4.69837 0
M  V30 7722 H 744.691 -0.592954 2.47702 0
M  V30 7723 H 745.474 0.846142 3.32709 0
M  V30 7724 N 747.919 -1.57396 -0.0801906 0
M  V30 7725 C 749.149 -1.90778 -0.792924 0
M  V30 7726 C 749.557 -0.786814 -1.72064 0
M  V30 7727 O 748.9 0.249259 -1.82001 0
M  V30 7728 C 748.962 -3.19552 -1.64702 0
M  V30 7729 C 748.626 -4.48259 -0.889567 0
M  V30 7730 C 749.623 -5.19465 -0.212602 0
M  V30 7731 C 747.308 -4.94896 -0.859229 0
M  V30 7732 C 749.302 -6.35555 0.484566 0
M  V30 7733 C 746.989 -6.10895 -0.158284 0
M  V30 7734 C 747.987 -6.81075 0.512421 0
M  V30 7735 O 747.675 -7.94862 1.20209 0
M  V30 7736 H 747.407 -0.63527 -0.231103 0
M  V30 7737 H 749.961 -2.0532 -0.0573081 0
M  V30 7738 H 748.191 -3.01196 -2.42524 0
M  V30 7739 H 749.88 -3.38649 -2.23767 0
M  V30 7740 H 750.646 -4.84467 -0.227403 0
M  V30 7741 H 746.525 -4.4015 -1.37073 0
M  V30 7742 H 750.069 -6.9027 1.00864 0
M  V30 7743 H 745.966 -6.45345 -0.141381 0
M  V30 7744 H 746.734 -8.10932 1.11051 0
M  V30 7745 N 749.397 0.351382 -1.53633 0
M  V30 7746 C 750.644 1.0925 -1.70502 0
M  V30 7747 C 750.972 1.88881 -0.464123 0
M  V30 7748 O 750.227 1.87693 0.554077 0
M  V30 7749 C 750.526 2.06744 -2.91533 0
M  V30 7750 C 750.192 1.43484 -4.27461 0
M  V30 7751 C 748.854 1.2596 -4.64422 0
M  V30 7752 C 751.206 0.978436 -5.11934 0
M  V30 7753 C 748.534 0.614017 -5.83478 0
M  V30 7754 C 750.886 0.346795 -6.31649 0
M  V30 7755 C 749.55 0.15917 -6.6731 0
M  V30 7756 H 748.82 0.399773 -0.623909 0
M  V30 7757 H 751.467 0.372656 -1.87839 0
M  V30 7758 H 749.772 2.85082 -2.68767 0
M  V30 7759 H 751.469 2.64066 -3.01778 0
M  V30 7760 H 748.059 1.5812 -3.98367 0
M  V30 7761 H 752.243 1.1017 -4.83918 0
M  V30 7762 H 747.499 0.457194 -6.09688 0
M  V30 7763 H 751.673 -0.0149864 -6.96398 0
M  V30 7764 H 749.3 -0.343129 -7.59425 0
M  V30 7765 N 750.875 1.45233 0.611969 0
M  V30 7766 C 752.123 1.48727 1.36838 0
M  V30 7767 C 752.444 0.128616 1.94575 0
M  V30 7768 O 751.714 -0.84149 1.76906 0
M  V30 7769 H 750.294 0.547695 0.507976 0
M  V30 7770 H 752.956 1.81156 0.718925 0
M  V30 7771 H 752.052 2.2236 2.19003 0
M  V30 7772 N 752.353 -0.854086 1.3245 0
M  V30 7773 C 753.601 -1.60513 1.228 0
M  V30 7774 C 753.922 -1.93865 -0.210073 0
M  V30 7775 O 753.192 -1.59673 -1.13496 0
M  V30 7776 H 751.772 -0.595099 0.451516 0
M  V30 7777 H 754.434 -1.0216 1.6598 0
M  V30 7778 H 753.53 -2.54182 1.81102 0
M  V30 7779 N 753.831 -1.1567 -1.07043 0
M  V30 7780 C 755.078 -0.933517 -1.79699 0
M  V30 7781 C 755.406 0.539162 -1.86878 0
M  V30 7782 O 754.661 1.41592 -1.35093 0
M  V30 7783 C 754.96 -1.49677 -3.24548 0
M  V30 7784 C 754.626 -2.99047 -3.37463 0
M  V30 7785 C 753.288 -3.39824 -3.40695 0
M  V30 7786 C 755.64 -3.95027 -3.40004 0
M  V30 7787 C 752.968 -4.75215 -3.44075 0
M  V30 7788 C 755.32 -5.30295 -3.44921 0
M  V30 7789 C 753.984 -5.70562 -3.46432 0
M  V30 7790 H 753.254 -0.341598 -0.657565 0
M  V30 7791 H 755.901 -1.44263 -1.25938 0
M  V30 7792 H 754.206 -0.908915 -3.81111 0
M  V30 7793 H 755.903 -1.29986 -3.79348 0
M  V30 7794 H 752.493 -2.6653 -3.35648 0
M  V30 7795 H 756.677 -3.64596 -3.36725 0
M  V30 7796 H 751.933 -5.05754 -3.43545 0
M  V30 7797 H 756.107 -6.0446 -3.45833 0
M  V30 7798 H 753.734 -6.75456 -3.48803 0
M  V30 7799 N 755.309 1.25446 -0.953992 0
M  V30 7800 C 756.272 2.24156 -0.478179 0
M  V30 7801 C 757.272 1.55278 0.417776 0
M  V30 7802 O 758.462 1.72866 0.215155 0
M  V30 7803 C 755.594 3.39495 0.309202 0
M  V30 7804 H 756.787 2.67764 -1.35064 0
M  V30 7805 H 754.34 1.37822 -0.737206 0
M  V30 7806 H 755.075 3.01307 1.19936 0
M  V30 7807 H 754.86 3.90679 -0.333562 0
M  V30 7808 H 756.35 4.12796 0.631594 0
M  V30 7809 N 756.787 0.722489 1.40064 0
M  V30 7810 C 757.734 0.0743738 2.3068 0
M  V30 7811 C 758.704 -0.743004 1.48555 0
M  V30 7812 O 759.889 -0.705536 1.77276 0
M  V30 7813 C 757.029 -0.836292 3.34814 0
M  V30 7814 C 756.142 -0.00764663 4.31999 0
M  V30 7815 C 755.277 -0.918428 5.232 0
M  V30 7816 C 754.316 -0.0842838 6.12042 0
M  V30 7817 N 753.453 -0.950316 6.95639 0
M  V30 7818 H 758.293 0.852794 2.85537 0
M  V30 7819 H 755.83 0.432222 1.40607 0
M  V30 7820 H 757.788 -1.3786 3.93765 0
M  V30 7821 H 756.418 -1.58082 2.81443 0
M  V30 7822 H 755.47 0.651928 3.74772 0
M  V30 7823 H 756.782 0.63786 4.94705 0
M  V30 7824 H 755.936 -1.52902 5.87116 0
M  V30 7825 H 754.675 -1.59774 4.60786 0
M  V30 7826 H 753.68 0.5392 5.4715 0
M  V30 7827 H 754.905 0.591628 6.76518 0
M  V30 7828 H 752.851 -1.61515 6.35806 0
M  V30 7829 H 752.768 -0.361004 7.55138 0
M  V30 7830 H 754.036 -1.54687 7.63997 0
M  V30 7831 N 758.265 -1.50454 0.469181 0
M  V30 7832 C 759.195 -2.31353 -0.31592 0
M  V30 7833 C 760.176 -1.38172 -0.992094 0
M  V30 7834 O 761.361 -1.67093 -0.989633 0
M  V30 7835 C 758.491 -3.1786 -1.39937 0
M  V30 7836 C 757.445 -4.19578 -0.844909 0
M  V30 7837 C 756.771 -4.9481 -2.0265 0
M  V30 7838 C 758.071 -5.22106 0.142499 0
M  V30 7839 H 759.765 -2.97237 0.359269 0
M  V30 7840 H 757.311 -1.42942 0.174224 0
M  V30 7841 H 759.264 -3.7325 -1.95607 0
M  V30 7842 H 757.988 -2.49858 -2.1033 0
M  V30 7843 H 756.647 -3.65285 -0.310189 0
M  V30 7844 H 756.295 -4.23282 -2.71737 0
M  V30 7845 H 755.995 -5.63613 -1.66174 0
M  V30 7846 H 757.519 -5.53035 -2.58815 0
M  V30 7847 H 758.933 -5.72378 -0.324966 0
M  V30 7848 H 757.33 -5.98618 0.421441 0
M  V30 7849 H 758.4 -4.7297 1.06901 0
M  V30 7850 N 759.743 -0.201713 -1.56304 0
M  V30 7851 C 760.989 0.435952 -1.98059 0
M  V30 7852 C 761.322 1.60811 -1.08873 0
M  V30 7853 O 760.597 1.9398 -0.142128 0
M  V30 7854 C 760.88 0.889706 -3.48936 0
M  V30 7855 C 760.733 -0.284725 -4.48898 0
M  V30 7856 C 762.052 1.7529 -4.03685 0
M  V30 7857 H 759.171 0.15699 -0.720085 0
M  V30 7858 H 761.813 -0.293965 -1.87712 0
M  V30 7859 H 759.963 1.51166 -3.57884 0
M  V30 7860 H 761.635 -0.922531 -4.51981 0
M  V30 7861 H 759.878 -0.935427 -4.23594 0
M  V30 7862 H 760.549 0.0753865 -5.51949 0
M  V30 7863 H 763.025 1.2283 -3.97558 0
M  V30 7864 H 761.901 2.03933 -5.0961 0
M  V30 7865 H 762.162 2.70939 -3.49348 0
M  V30 7866 N 761.222 1.57436 0.0718424 0
M  V30 7867 C 762.447 1.91858 0.787745 0
M  V30 7868 C 762.872 0.798119 1.70328 0
M  V30 7869 O 762.23 -0.24905 1.79581 0
M  V30 7870 C 762.278 3.25232 1.55744 0
M  V30 7871 O 761.382 3.14462 2.6681 0
M  V30 7872 H 760.723 0.628258 0.214914 0
M  V30 7873 H 763.253 2.04561 0.0401012 0
M  V30 7874 H 763.263 3.59105 1.9367 0
M  V30 7875 H 761.938 4.0636 0.885691 0
M  V30 7876 H 760.515 2.92148 2.31741 0
M  V30 7877 N 762.7 -0.34323 1.53817 0
M  V30 7878 C 763.663 -1.40444 1.8113 0
M  V30 7879 C 764.663 -1.45604 0.682366 0
M  V30 7880 O 765.853 -1.45974 0.950649 0
M  V30 7881 C 762.985 -2.79369 1.95361 0
M  V30 7882 H 764.178 -1.17489 2.75928 0
M  V30 7883 H 761.731 -0.577636 1.45234 0
M  V30 7884 H 762.466 -3.07607 1.02707 0
M  V30 7885 H 762.251 -2.7702 2.77493 0
M  V30 7886 H 763.741 -3.56178 2.18008 0
M  V30 7887 N 764.178 -1.45556 -0.604258 0
M  V30 7888 C 765.426 -1.4945 -1.36048 0
M  V30 7889 C 765.747 -0.138933 -1.94504 0
M  V30 7890 O 765.017 0.832097 -1.7735 0
M  V30 7891 H 763.597 -0.550381 -0.505064 0
M  V30 7892 H 766.259 -1.81535 -0.709308 0
M  V30 7893 H 765.355 -2.23519 -2.17821 0
M  V30 7894 N 765.656 0.84705 -1.32902 0
M  V30 7895 C 766.902 1.60414 -1.24078 0
M  V30 7896 C 767.235 1.93217 0.195105 0
M  V30 7897 O 766.51 1.58001 1.13428 0
M  V30 7898 C 766.793 2.91951 -2.108 0
M  V30 7899 C 766.646 2.6588 -3.62805 0
M  V30 7900 C 767.965 3.93299 -1.97494 0
M  V30 7901 H 765.084 0.58206 -0.452079 0
M  V30 7902 H 767.726 0.977562 -1.62922 0
M  V30 7903 H 765.876 3.45425 -1.77802 0
M  V30 7904 H 767.548 2.18902 -4.06054 0
M  V30 7905 H 765.791 1.99716 -3.85092 0
M  V30 7906 H 766.462 3.59574 -4.1882 0
M  V30 7907 H 768.938 3.49105 -2.26417 0
M  V30 7908 H 767.814 4.8318 -2.60438 0
M  V30 7909 H 768.075 4.31887 -0.944782 0
M  V30 7910 N 767.134 1.16236 1.06428 0
M  V30 7911 C 768.411 0.853294 1.76006 0
M  V30 7912 C 768.791 -0.649162 2.00871 0
M  V30 7913 O 768.139 -1.59653 1.63472 0
M  V30 7914 C 768.349 1.67448 3.06206 0
M  V30 7915 C 769.697 1.8866 3.80385 0
M  V30 7916 O 770.721 1.64303 3.16043 0
M  V30 7917 O 769.58 2.29518 4.95968 0
M  V30 7918 H 766.674 0.314737 0.764767 0
M  V30 7919 H 769.22 1.26865 1.12709 0
M  V30 7920 H 767.992 2.69411 2.83784 0
M  V30 7921 H 767.615 1.25608 3.77238 0
M  V30 7922 N 768.612 -1.24939 0.960631 0
M  V30 7923 C 769.859 -1.92818 0.618663 0
M  V30 7924 C 770.187 -1.75177 -0.845173 0
M  V30 7925 O 769.442 -1.09412 -1.62258 0
M  V30 7926 C 769.741 -3.45066 0.930809 0
M  V30 7927 C 769.407 -3.82869 2.38164 0
M  V30 7928 C 768.069 -3.92899 2.7782 0
M  V30 7929 C 770.421 -4.01483 3.32356 0
M  V30 7930 C 767.749 -4.18955 4.10723 0
M  V30 7931 C 770.101 -4.29033 4.6488 0
M  V30 7932 C 768.765 -4.37282 5.04322 0
M  V30 7933 H 768.035 -0.705571 0.226385 0
M  V30 7934 H 770.682 -1.48365 1.21079 0
M  V30 7935 H 768.987 -3.9096 0.256355 0
M  V30 7936 H 770.684 -3.95783 0.644712 0
M  V30 7937 H 767.274 -3.75622 2.06413 0
M  V30 7938 H 771.458 -3.93143 3.02907 0
M  V30 7939 H 766.714 -4.23558 4.40918 0
M  V30 7940 H 770.888 -4.42381 5.3784 0
M  V30 7941 H 768.515 -4.57225 6.0733 0
M  V30 7942 N 770.09 -0.729906 -1.39679 0
M  V30 7943 C 771.336 -0.27603 -2.00913 0
M  V30 7944 C 771.669 1.13227 -1.57776 0
M  V30 7945 O 770.944 1.7709 -0.804319 0
M  V30 7946 C 771.227 -0.372157 -3.58172 0
M  V30 7947 C 771.08 -1.81986 -4.11341 0
M  V30 7948 C 772.399 0.248378 -4.39399 0
M  V30 7949 H 769.518 -0.101773 -0.729939 0
M  V30 7950 H 772.16 -0.925104 -1.65957 0
M  V30 7951 H 770.31 0.180459 -3.88081 0
M  V30 7952 H 771.982 -2.42896 -3.92172 0
M  V30 7953 H 770.225 -2.34287 -3.65092 0
M  V30 7954 H 770.896 -1.83842 -5.20486 0
M  V30 7955 H 773.372 -0.222645 -4.15504 0
M  V30 7956 H 772.248 0.150746 -5.48693 0
M  V30 7957 H 772.509 1.33378 -4.21501 0
M  V30 7958 N 771.568 1.50203 -0.477153 0
M  V30 7959 C 772.984 1.59056 -0.131663 0
M  V30 7960 C 773.184 1.48473 1.36227 0
M  V30 7961 O 772.24 1.34635 2.13611 0
M  V30 7962 C 773.553 2.92741 -0.687254 0
M  V30 7963 C 775.101 3.0615 -0.651223 0
M  V30 7964 C 775.576 4.42419 -1.18446 0
M  V30 7965 N 777.067 4.48847 -1.14413 0
M  V30 7966 C 777.802 5.52689 -1.52717 0
M  V30 7967 N 777.298 6.63754 -1.98499 0
M  V30 7968 N 779.091 5.43267 -1.44282 0
M  V30 7969 H 771.242 1.55325 -1.44872 0
M  V30 7970 H 773.505 0.734395 -0.599473 0
M  V30 7971 H 773.211 3.0598 -1.73405 0
M  V30 7972 H 773.085 3.76961 -0.134215 0
M  V30 7973 H 775.472 2.92556 0.386677 0
M  V30 7974 H 775.553 2.23673 -1.24114 0
M  V30 7975 H 775.197 4.56763 -2.22103 0
M  V30 7976 H 775.127 5.23498 -0.570709 0
M  V30 7977 H 777.618 3.69152 -0.808416 0
M  V30 7978 H 777.931 7.39059 -2.25859 0
M  V30 7979 H 776.276 6.64858 -2.02456 0
M  V30 7980 H 779.467 4.55387 -1.08352 0
M  V30 7981 H 779.64 6.24074 -1.74459 0
M  V30 7982 N 773.046 0.209999 1.56195 0
M  V30 7983 C 774.295 -0.425106 1.97169 0
M  V30 7984 C 774.608 -1.61718 1.10031 0
M  V30 7985 O 775.814 -2.32105 1.40853 0
M  V30 7986 C 774.27 -0.80771 3.50719 0
M  V30 7987 C 773.878 0.360902 4.46544 0
M  V30 7988 C 775.622 -1.40906 4.00432 0
M  V30 7989 C 773.529 -0.0434919 5.91384 0
M  V30 7990 H 772.459 -0.162598 0.736259 0
M  V30 7991 H 775.11 0.304382 1.80958 0
M  V30 7992 H 773.492 -1.59429 3.62489 0
M  V30 7993 H 774.666 1.13846 4.46515 0
M  V30 7994 H 772.981 0.874729 4.07109 0
M  V30 7995 H 775.578 -1.72433 5.06133 0
M  V30 7996 H 775.921 -2.32081 3.45607 0
M  V30 7997 H 776.454 -0.686154 3.91838 0
M  V30 7998 H 773.193 0.834448 6.50167 0
M  V30 7999 H 772.713 -0.785598 5.94633 0
M  V30 8000 H 774.392 -0.474176 6.4526 0
M  V30 8001 N 774.524 -1.57472 -0.0634922 0
M  V30 8002 C 775.801 -1.78736 -0.794538 0
M  V30 8003 C 776.181 -0.799645 -1.95369 0
M  V30 8004 O 775.529 0.165521 -2.279 0
M  V30 8005 C 775.739 -3.25471 -1.25975 0
M  V30 8006 C 777.087 -3.89528 -1.68976 0
M  V30 8007 O 778.111 -3.29412 -1.35521 0
M  V30 8008 O 776.97 -4.95305 -2.30944 0
M  V30 8009 H 774.064 -0.733813 -0.381376 0
M  V30 8010 H 776.61 -1.69646 -0.0429258 0
M  V30 8011 H 775.382 -3.88922 -0.430721 0
M  V30 8012 H 775.005 -3.39317 -2.07243 0
M  V30 8013 N 776.003 0.335068 -1.53997 0
M  V30 8014 C 776.95 1.41187 -1.82579 0
M  V30 8015 C 777.92 1.51897 -0.672061 0
M  V30 8016 O 779.105 1.673 -0.917346 0
M  V30 8017 C 776.245 2.77717 -2.0486 0
M  V30 8018 C 775.358 2.7573 -3.32561 0
M  V30 8019 C 774.493 4.04032 -3.44864 0
M  V30 8020 C 773.532 3.96308 -4.66483 0
M  V30 8021 N 772.669 5.16317 -4.75774 0
M  V30 8022 H 777.509 1.16113 -2.74448 0
M  V30 8023 H 775.046 0.562305 -1.35928 0
M  V30 8024 H 777.004 3.57071 -2.15768 0
M  V30 8025 H 775.634 3.01124 -1.16294 0
M  V30 8026 H 774.686 1.88432 -3.3045 0
M  V30 8027 H 775.998 2.65902 -4.22016 0
M  V30 8028 H 775.152 4.91814 -3.55251 0
M  V30 8029 H 773.891 4.16652 -2.53481 0
M  V30 8030 H 772.896 3.06911 -4.56164 0
M  V30 8031 H 774.121 3.85263 -5.5924 0
M  V30 8032 H 772.067 5.29464 -3.87303 0
M  V30 8033 H 771.984 5.08779 -5.59178 0
M  V30 8034 H 773.252 6.05846 -4.9048 0
M  V30 8035 N 777.481 1.45874 0.596531 0
M  V30 8036 C 778.727 1.5069 1.35722 0
M  V30 8037 C 779.06 0.152506 1.936 0
M  V30 8038 O 778.335 -0.834411 1.75692 0
M  V30 8039 C 778.618 2.59474 2.4969 0
M  V30 8040 C 778.471 4.04396 1.96937 0
M  V30 8041 C 779.79 2.64451 3.51787 0
M  V30 8042 H 776.909 0.548611 0.492133 0
M  V30 8043 H 779.551 1.77741 0.671428 0
M  V30 8044 H 777.701 2.36539 3.08191 0
M  V30 8045 H 779.373 4.38576 1.43 0
M  V30 8046 H 777.616 4.14529 1.27859 0
M  V30 8047 H 778.287 4.76218 2.79143 0
M  V30 8048 H 780.763 2.85031 3.03145 0
M  V30 8049 H 779.639 3.42411 4.29006 0
M  V30 8050 H 779.9 1.69965 4.08123 0
M  V30 8051 N 778.959 -0.83999 1.33349 0
M  V30 8052 C 779.892 -1.95415 1.17848 0
M  V30 8053 C 780.87 -1.6243 0.0742296 0
M  V30 8054 O 782.054 -1.87014 0.23626 0
M  V30 8055 C 779.181 -3.28938 0.807295 0
M  V30 8056 C 778.227 -3.80895 1.91888 0
M  V30 8057 S 779.06 -4.02709 3.52967 0
M  V30 8058 C 780.216 -5.39185 3.17853 0
M  V30 8059 H 780.449 -2.08265 2.12162 0
M  V30 8060 H 777.982 -0.993643 1.18178 0
M  V30 8061 H 779.94 -4.06093 0.599914 0
M  V30 8062 H 778.601 -3.13881 -0.117234 0
M  V30 8063 H 777.794 -4.77508 1.6125 0
M  V30 8064 H 777.396 -3.10633 2.08286 0
M  V30 8065 H 779.688 -6.21978 2.68608 0
M  V30 8066 H 780.631 -5.74795 4.13542 0
M  V30 8067 H 781.039 -5.03885 2.5448 0
M  V30 8068 N 780.437 -1.16799 -1.0581 0
M  V30 8069 C 781.347 -0.893492 -2.16919 0
M  V30 8070 C 782.363 0.136061 -1.73467 0
M  V30 8071 O 783.539 -0.0417348 -2.01357 0
M  V30 8072 C 780.604 -0.403763 -3.44341 0
M  V30 8073 C 779.665 -1.49914 -4.02274 0
M  V30 8074 C 778.898 -1.03269 -5.23614 0
M  V30 8075 O 779.121 0.115647 -5.70283 0
M  V30 8076 O 778.055 -1.8231 -5.73626 0
M  V30 8077 H 781.881 -1.82274 -2.42919 0
M  V30 8078 H 779.466 -0.948361 -1.1544 0
M  V30 8079 H 781.348 -0.137874 -4.21174 0
M  V30 8080 H 780.023 0.497413 -3.19855 0
M  V30 8081 H 778.93 -1.81883 -3.26909 0
M  V30 8082 H 780.263 -2.3758 -4.31064 0
M  V30 8083 N 781.915 1.24427 -0.967243 0
M  V30 8084 C 782.862 2.25398 -0.496419 0
M  V30 8085 C 783.832 1.59667 0.457781 0
M  V30 8086 O 785.017 1.87213 0.368246 0
M  V30 8087 C 782.157 3.44474 0.207693 0
M  V30 8088 C 781.27 4.24804 -0.785221 0
M  V30 8089 C 780.405 5.31169 -0.0572631 0
M  V30 8090 C 779.444 6.03195 -1.04027 0
M  V30 8091 N 778.581 7.01265 -0.34235 0
M  V30 8092 H 783.421 2.65039 -1.36229 0
M  V30 8093 H 780.958 1.30288 -0.682902 0
M  V30 8094 H 782.916 4.12376 0.632612 0
M  V30 8095 H 781.546 3.05672 1.03752 0
M  V30 8096 H 780.598 3.56445 -1.32858 0
M  V30 8097 H 781.91 4.74599 -1.53483 0
M  V30 8098 H 781.064 6.05205 0.425674 0
M  V30 8099 H 779.803 4.8228 0.725047 0
M  V30 8100 H 778.808 5.27964 -1.53409 0
M  V30 8101 H 780.033 6.54173 -1.82302 0
M  V30 8102 H 777.979 6.54648 0.420993 0
M  V30 8103 H 777.896 7.48939 -1.03084 0
M  V30 8104 H 779.164 7.7941 0.118634 0
M  V30 8105 N 783.393 0.737304 1.3929 0
M  V30 8106 C 784.64 0.286257 2.00467 0
M  V30 8107 C 784.968 -1.1272 1.58507 0
M  V30 8108 O 784.223 -1.7832 0.806257 0
M  V30 8109 C 784.522 0.338438 3.55794 0
M  V30 8110 C 784.188 1.70524 4.17411 0
M  V30 8111 C 782.85 2.07934 4.33955 0
M  V30 8112 C 785.202 2.60256 4.51571 0
M  V30 8113 C 782.53 3.34578 4.81948 0
M  V30 8114 C 784.882 3.86275 5.00974 0
M  V30 8115 C 783.546 4.23774 5.15725 0
M  V30 8116 H 782.816 0.104749 0.733559 0
M  V30 8117 H 785.463 0.944598 1.66582 0
M  V30 8118 H 783.768 -0.403478 3.89717 0
M  V30 8119 H 785.465 -0.0287255 4.0099 0
M  V30 8120 H 782.055 1.40439 4.04938 0
M  V30 8121 H 786.239 2.32624 4.38406 0
M  V30 8122 H 781.495 3.63572 4.91554 0
M  V30 8123 H 785.669 4.5596 5.26378 0
M  V30 8124 H 783.296 5.21972 5.52674 0
M  V30 8125 N 784.871 -1.49948 0.485112 0
M  V30 8126 C 786.119 -2.01996 -0.0648775 0
M  V30 8127 C 786.44 -1.36819 -1.38945 0
M  V30 8128 O 785.71 -0.518163 -1.88923 0
M  V30 8129 H 784.29 -0.746513 -0.0269662 0
M  V30 8130 H 786.952 -1.84136 0.638733 0
M  V30 8131 H 786.048 -3.11418 -0.20617 0
M  V30 8132 N 786.349 -0.21828 -1.56081 0
M  V30 8133 C 787.595 0.408181 -1.99262 0
M  V30 8134 C 787.95 1.57618 -1.10337 0
M  V30 8135 O 787.243 1.90991 -0.15263 0
M  V30 8136 C 787.437 0.894782 -3.46018 0
M  V30 8137 C 787.266 -0.224528 -4.49139 0
M  V30 8138 C 786.036 -0.689843 -5.00569 0
M  V30 8139 C 788.234 -1.04165 -5.03641 0
M  V30 8140 N 786.216 -1.78455 -5.8739 0
M  V30 8141 C 787.587 -1.98529 -5.87355 0
M  V30 8142 C 789.642 -1.08146 -4.86013 0
M  V30 8143 C 788.345 -2.96549 -6.55325 0
M  V30 8144 C 790.371 -2.04982 -5.5474 0
M  V30 8145 C 789.733 -2.98086 -6.38219 0
M  V30 8146 H 785.832 0.116127 -0.77333 0
M  V30 8147 H 788.416 -0.3293 -1.91895 0
M  V30 8148 H 786.587 1.60163 -3.53839 0
M  V30 8149 H 788.319 1.49379 -3.76122 0
M  V30 8150 H 785.074 -0.279021 -4.72777 0
M  V30 8151 H 785.498 -2.33381 -6.35502 0
M  V30 8152 H 790.14 -0.375581 -4.21129 0
M  V30 8153 H 787.858 -3.68101 -7.19394 0
M  V30 8154 H 791.444 -2.08732 -5.43067 0
M  V30 8155 H 790.324 -3.71794 -6.90463 0
M  V30 8156 N 787.827 1.57504 0.0551401 0
M  V30 8157 C 789.238 1.76626 0.604979 0
M  V30 8158 C 789.589 0.845978 1.77024 0
M  V30 8159 O 788.714 0.0341936 2.16373 0
M  V30 8160 C 789.309 3.203 1.10425 0
M  V30 8161 C 787.868 3.4071 1.59981 0
M  V30 8162 C 787.015 2.72258 0.526414 0
M  V30 8163 H 789.966 1.57775 -0.171072 0
M  V30 8164 H 789.987 3.25377 1.97256 0
M  V30 8165 H 789.499 3.87255 0.255939 0
M  V30 8166 H 787.6 2.78892 2.47083 0
M  V30 8167 H 787.713 4.49227 1.66528 0
M  V30 8168 H 786.077 2.35283 0.97539 0
M  V30 8169 H 786.86 3.41879 -0.311991 0
M  V30 8170 N 789.305 -0.326896 1.54172 0
M  V30 8171 C 790.238 -1.42591 1.78166 0
M  V30 8172 C 791.216 -1.49837 0.631484 0
M  V30 8173 O 792.4 -1.67298 0.868544 0
M  V30 8174 C 789.527 -2.8071 1.89524 0
M  V30 8175 C 788.573 -2.91012 3.11792 0
M  V30 8176 S 789.406 -2.55763 4.70474 0
M  V30 8177 C 790.562 -3.9596 4.84733 0
M  V30 8178 H 790.795 -1.22024 2.71104 0
M  V30 8179 H 788.328 -0.523539 1.45253 0
M  V30 8180 H 790.286 -3.60276 1.96753 0
M  V30 8181 H 788.947 -2.98562 0.975696 0
M  V30 8182 H 788.14 -3.92258 3.16464 0
M  V30 8183 H 787.742 -2.19414 3.02876 0
M  V30 8184 H 790.034 -4.90676 4.67166 0
M  V30 8185 H 790.977 -3.96273 5.86833 0
M  V30 8186 H 791.385 -3.8476 4.13062 0
M  V30 8187 N 790.784 -1.46188 -0.588786 0
M  V30 8188 C 792.032 -1.50885 -1.34455 0
M  V30 8189 C 792.353 -0.159555 -1.94346 0
M  V30 8190 O 791.623 0.813239 -1.78222 0
M  V30 8191 H 790.203 -0.555707 -0.499198 0
M  V30 8192 H 792.865 -1.82277 -0.690014 0
M  V30 8193 H 791.961 -2.25816 -2.15438 0
M  V30 8194 N 792.262 0.832906 -1.33792 0
M  V30 8195 C 793.673 1.40489 -1.22963 0
M  V30 8196 C 794.024 1.95633 0.149026 0
M  V30 8197 O 793.149 1.8928 1.04891 0
M  V30 8198 C 793.744 2.55387 -2.22627 0
M  V30 8199 C 792.303 3.08522 -2.15618 0
M  V30 8200 C 791.45 1.81347 -2.09782 0
M  V30 8201 H 794.401 0.638156 -1.45304 0
M  V30 8202 H 794.422 3.33193 -1.83746 0
M  V30 8203 H 793.934 2.15222 -3.22957 0
M  V30 8204 H 792.035 3.53217 -1.18611 0
M  V30 8205 H 792.148 3.6829 -3.0643 0
M  V30 8206 H 790.512 2.01839 -1.55349 0
M  V30 8207 H 791.295 1.43369 -3.1193 0
M  V30 8208 N 793.74 1.17359 1.05189 0
M  V30 8209 C 794.703 0.892604 2.11105 0
M  V30 8210 C 795.703 -0.117236 1.60372 0
M  V30 8211 O 796.893 0.114936 1.7382 0
M  V30 8212 C 794.025 0.337032 3.3923 0
M  V30 8213 H 795.218 1.83169 2.37464 0
M  V30 8214 H 792.771 0.984051 1.21434 0
M  V30 8215 H 793.506 -0.609198 3.18527 0
M  V30 8216 H 793.291 1.06484 3.77364 0
M  V30 8217 H 794.781 0.158763 4.17298 0
M  V30 8218 N 795.218 -1.23913 0.973828 0
M  V30 8219 C 796.448 -1.95911 0.655938 0
M  V30 8220 C 796.856 -1.72375 -0.779967 0
M  V30 8221 O 796.199 -1.00807 -1.5357 0
M  V30 8222 C 796.261 -3.49103 0.858324 0
M  V30 8223 C 795.925 -3.96347 2.27504 0
M  V30 8224 C 796.922 -4.05537 3.25324 0
M  V30 8225 C 794.607 -4.29509 2.60437 0
M  V30 8226 C 796.601 -4.47233 4.5416 0
M  V30 8227 C 794.288 -4.70887 3.89498 0
M  V30 8228 C 795.286 -4.79714 4.86172 0
M  V30 8229 O 794.974 -5.20166 6.1293 0
M  V30 8230 H 794.706 -0.630721 0.243244 0
M  V30 8231 H 797.26 -1.58534 1.30599 0
M  V30 8232 H 795.49 -3.86405 0.151097 0
M  V30 8233 H 797.179 -4.02311 0.538592 0
M  V30 8234 H 797.945 -3.80128 3.0121 0
M  V30 8235 H 793.824 -4.21853 1.85906 0
M  V30 8236 H 797.368 -4.54038 5.29618 0
M  V30 8237 H 793.265 -4.95744 4.1341 0
M  V30 8238 H 794.033 -5.38298 6.16586 0
M  V30 8239 N 796.696 -0.74468 -1.38897 0
M  V30 8240 C 797.626 -0.126355 -2.33158 0
M  V30 8241 C 798.607 0.713517 -1.54412 0
M  V30 8242 O 799.792 0.656523 -1.82766 0
M  V30 8243 C 796.922 0.774375 -3.38557 0
M  V30 8244 C 795.876 0.0379214 -4.27983 0
M  V30 8245 C 795.202 1.05631 -5.24162 0
M  V30 8246 C 796.502 -1.12523 -5.10035 0
M  V30 8247 H 798.196 -0.913744 -2.85116 0
M  V30 8248 H 795.742 -0.440847 -1.37086 0
M  V30 8249 H 797.695 1.21655 -4.03458 0
M  V30 8250 H 796.419 1.59399 -2.85061 0
M  V30 8251 H 795.078 -0.384733 -3.64576 0
M  V30 8252 H 794.726 1.86975 -4.66958 0
M  V30 8253 H 794.426 0.568261 -5.84846 0
M  V30 8254 H 795.95 1.49799 -5.9194 0
M  V30 8255 H 797.364 -0.761037 -5.68226 0
M  V30 8256 H 795.761 -1.54355 -5.79909 0
M  V30 8257 H 796.831 -1.94237 -4.44297 0
M  V30 8258 N 798.174 1.49689 -0.493057 0
M  V30 8259 C 799.107 2.25712 0.336062 0
M  V30 8260 C 800.085 1.29953 0.977294 0
M  V30 8261 O 801.269 1.59225 1.00895 0
M  V30 8262 C 798.396 3.0501 1.47263 0
M  V30 8263 C 797.442 4.15863 0.946575 0
M  V30 8264 S 798.275 5.35272 -0.156323 0
M  V30 8265 C 799.431 6.18123 0.983601 0
M  V30 8266 H 799.664 2.95688 -0.309215 0
M  V30 8267 H 797.197 1.51872 -0.278238 0
M  V30 8268 H 799.155 3.51284 2.12391 0
M  V30 8269 H 797.816 2.34519 2.08949 0
M  V30 8270 H 797.009 4.70834 1.7981 0
M  V30 8271 H 796.611 3.72139 0.372647 0
M  V30 8272 H 798.903 6.50588 1.89056 0
M  V30 8273 H 799.846 7.06521 0.472687 0
M  V30 8274 H 800.254 5.50547 1.24735 0
M  V30 8275 N 799.652 0.226554 1.55963 0
M  V30 8276 C 800.929 -0.453058 1.90281 0
M  V30 8277 C 801.309 -1.77377 1.14458 0
M  V30 8278 O 800.657 -2.27067 0.255496 0
M  V30 8279 C 800.867 -0.641108 3.43061 0
M  V30 8280 C 802.215 -0.946265 4.13921 0
M  V30 8281 O 803.239 -0.727713 3.48687 0
M  V30 8282 O 802.098 -1.36131 5.29274 0
M  V30 8283 H 799.192 -0.240242 0.791336 0
M  V30 8284 H 801.738 0.26911 1.67553 0
M  V30 8285 H 800.51 0.290283 3.90222 0
M  V30 8286 H 800.133 -1.41458 3.71585 0
M  V30 8287 N 801.13 -1.57531 -0.0467866 0
M  V30 8288 C 802.376 -1.8873 -0.742218 0
M  V30 8289 C 802.709 -0.822084 -1.75941 0
M  V30 8290 O 801.984 0.164922 -1.938 0
M  V30 8291 C 802.267 -3.30586 -1.42776 0
M  V30 8292 C 802.12 -4.47785 -0.425285 0
M  V30 8293 C 803.439 -3.71068 -2.36636 0
M  V30 8294 H 800.558 -0.686406 -0.268359 0
M  V30 8295 H 803.2 -1.89999 -0.00511341 0
M  V30 8296 H 801.35 -3.29634 -2.05605 0
M  V30 8297 H 803.022 -4.60867 0.199721 0
M  V30 8298 H 801.265 -4.33037 0.25713 0
M  V30 8299 H 801.936 -5.43884 -0.943086 0
M  V30 8300 H 804.412 -3.73273 -1.83866 0
M  V30 8301 H 803.288 -4.71165 -2.81593 0
M  V30 8302 H 803.549 -3.02355 -3.22542 0
M  V30 8303 N 802.608 0.318715 -1.54344 0
M  V30 8304 C 803.854 1.05765 -1.73037 0
M  V30 8305 C 804.187 1.87514 -0.505181 0
M  V30 8306 O 803.462 1.88021 0.497838 0
M  V30 8307 C 803.745 1.97836 -3.00887 0
M  V30 8308 C 803.598 1.19384 -4.33668 0
M  V30 8309 C 804.917 2.97285 -3.24514 0
M  V30 8310 H 802.036 0.383104 -0.629603 0
M  V30 8311 H 804.678 0.333864 -1.87044 0
M  V30 8312 H 802.828 2.59552 -2.89076 0
M  V30 8313 H 804.5 0.600906 -4.57369 0
M  V30 8314 H 802.743 0.496198 -4.30953 0
M  V30 8315 H 803.414 1.87014 -5.19355 0
M  V30 8316 H 805.89 2.45693 -3.35819 0
M  V30 8317 H 804.766 3.58887 -4.15321 0
M  V30 8318 H 805.027 3.70003 -2.41971 0
M  V30 8319 N 804.086 1.46499 0.581025 0
M  V30 8320 C 805.334 1.51596 1.33653 0
M  V30 8321 C 805.655 0.169859 1.94259 0
M  V30 8322 O 804.925 -0.803776 1.78651 0
M  V30 8323 H 803.505 0.558346 0.496244 0
M  V30 8324 H 806.167 1.8264 0.680338 0
M  V30 8325 H 805.263 2.26956 2.14237 0
M  V30 8326 N 805.565 -0.825799 1.34232 0
M  V30 8327 C 806.814 -1.57686 1.2577 0
M  V30 8328 C 807.127 -1.94848 -0.171372 0
M  V30 8329 O 808.333 -2.68854 -0.378123 0
M  V30 8330 C 806.789 -2.84478 2.20454 0
M  V30 8331 C 806.397 -2.54629 3.68603 0
M  V30 8332 C 808.141 -3.625 2.20893 0
M  V30 8333 C 806.048 -3.77597 4.55164 0
M  V30 8334 H 804.978 -0.591809 0.467203 0
M  V30 8335 H 807.629 -0.909421 1.59379 0
M  V30 8336 H 806.011 -3.52832 1.79793 0
M  V30 8337 H 807.185 -1.94404 4.17784 0
M  V30 8338 H 805.5 -1.89888 3.70582 0
M  V30 8339 H 808.097 -4.538 2.82789 0
M  V30 8340 H 808.44 -3.98404 1.20746 0
M  V30 8341 H 808.973 -3.01086 2.59985 0
M  V30 8342 H 805.712 -3.46815 5.56237 0
M  V30 8343 H 805.232 -4.37116 4.10719 0
M  V30 8344 H 806.911 -4.45039 4.69627 0
M  V30 8345 N 807.043 -1.17915 -1.04565 0
M  V30 8346 C 808.32 -0.881187 -1.74627 0
M  V30 8347 C 808.7 0.617123 -2.01878 0
M  V30 8348 O 808.048 1.57032 -1.65991 0
M  V30 8349 C 808.258 -1.72299 -3.03503 0
M  V30 8350 C 809.606 -1.94688 -3.77335 0
M  V30 8351 O 810.63 -1.6931 -3.13389 0
M  V30 8352 O 809.489 -2.37379 -4.92253 0
M  V30 8353 H 806.583 -0.326864 -0.759664 0
M  V30 8354 H 809.129 -1.28642 -1.10676 0
M  V30 8355 H 807.901 -2.73891 -2.79462 0
M  V30 8356 H 807.524 -1.31593 -3.75192 0
M  V30 8357 N 808.521 1.23394 -0.980386 0
M  V30 8358 C 809.749 1.95844 -0.667286 0
M  V30 8359 C 810.164 1.72574 0.765735 0
M  V30 8360 O 809.521 1.01715 1.51526 0
M  V30 8361 C 809.572 3.48844 -0.948151 0
M  V30 8362 O 809.293 3.71325 -2.32485 0
M  V30 8363 C 810.794 4.38494 -0.651002 0
M  V30 8364 H 808.014 0.623535 -0.247882 0
M  V30 8365 H 810.558 1.56885 -1.31176 0
M  V30 8366 H 808.713 3.85819 -0.349681 0
M  V30 8367 H 809.127 4.65619 -2.41452 0
M  V30 8368 H 810.601 5.44648 -0.897887 0
M  V30 8369 H 811.078 4.37236 0.414922 0
M  V30 8370 H 811.684 4.07127 -1.22995 0
M  V30 8371 N 809.999 0.752036 1.385 0
M  V30 8372 C 811.247 0.306895 1.99756 0
M  V30 8373 C 811.568 -1.11478 1.59992 0
M  V30 8374 O 810.838 -1.76206 0.856045 0
M  V30 8375 H 809.418 0.11048 0.738785 0
M  V30 8376 H 812.08 0.965785 1.69289 0
M  V30 8377 H 811.176 0.368797 3.09913 0
M  V30 8378 N 811.477 -1.49425 0.500989 0
M  V30 8379 C 812.427 -2.26061 -0.296698 0
M  V30 8380 C 813.411 -1.30906 -0.935541 0
M  V30 8381 O 814.603 -1.55628 -0.843142 0
M  V30 8382 C 811.732 -3.15189 -1.36055 0
M  V30 8383 C 810.818 -4.17806 -0.727952 0
M  V30 8384 N 811.209 -5.05516 0.169408 0
M  V30 8385 C 809.507 -4.34907 -0.988535 0
M  V30 8386 C 810.208 -5.79267 0.531509 0
M  V30 8387 N 809.184 -5.43507 -0.100564 0
M  V30 8388 H 812.986 -2.91246 0.394103 0
M  V30 8389 H 810.5 -1.59275 0.317065 0
M  V30 8390 H 812.497 -3.68724 -1.94547 0
M  V30 8391 H 811.157 -2.51556 -2.05303 0
M  V30 8392 H 812.168 -5.15075 0.540218 0
M  V30 8393 H 808.845 -3.82481 -1.67376 0
M  V30 8394 H 810.235 -6.59872 1.26564 0
M  V30 8395 N 812.955 -0.234822 -1.55841 0
M  V30 8396 C 813.905 0.68346 -2.17515 0
M  V30 8397 C 814.889 1.14798 -1.1274 0
M  V30 8398 O 816.081 1.09976 -1.38688 0
M  V30 8399 C 813.21 1.88551 -2.86886 0
M  V30 8400 C 812.296 1.44006 -3.98903 0
M  V30 8401 N 812.687 0.708034 -5.0082 0
M  V30 8402 C 810.985 1.7263 -4.11236 0
M  V30 8403 C 811.686 0.479036 -5.79724 0
M  V30 8404 N 810.662 1.03968 -5.33565 0
M  V30 8405 H 814.464 0.115897 -2.93671 0
M  V30 8406 H 811.978 -0.0366273 -1.62359 0
M  V30 8407 H 813.975 2.55425 -3.2949 0
M  V30 8408 H 812.635 2.45742 -2.12229 0
M  V30 8409 H 813.646 0.359363 -5.16652 0
M  V30 8410 H 810.323 2.31046 -3.47741 0
M  V30 8411 H 811.713 -0.104514 -6.71819 0
M  V30 8412 N 814.433 1.57553 0.0384317 0
M  V30 8413 C 815.681 1.88468 0.729672 0
M  V30 8414 C 816.002 0.831302 1.76393 0
M  V30 8415 O 815.272 -0.13622 1.95426 0
M  V30 8416 H 813.852 0.695529 0.272485 0
M  V30 8417 H 816.514 1.94899 0.0066032 0
M  V30 8418 H 815.61 2.8705 1.22511 0
M  V30 8419 N 815.911 -0.310526 1.54511 0
M  V30 8420 C 817.327 -0.655637 1.45511 0
M  V30 8421 C 817.527 -1.91114 0.638564 0
M  V30 8422 O 816.583 -2.52098 0.142497 0
M  V30 8423 C 817.896 -0.817501 2.89374 0
M  V30 8424 C 819.444 -0.914003 2.99358 0
M  V30 8425 C 819.919 -1.10794 4.44397 0
M  V30 8426 N 821.41 -1.17437 4.48066 0
M  V30 8427 C 822.145 -1.34255 5.57461 0
M  V30 8428 N 821.641 -1.48032 6.768 0
M  V30 8429 N 823.434 -1.37067 5.45132 0
M  V30 8430 H 815.585 0.514506 2.06074 0
M  V30 8431 H 817.848 0.168478 0.932909 0
M  V30 8432 H 817.554 0.034003 3.51684 0
M  V30 8433 H 817.428 -1.7094 3.36243 0
M  V30 8434 H 819.815 -1.756 2.37168 0
M  V30 8435 H 819.896 0.00170958 2.558 0
M  V30 8436 H 819.54 -0.270743 5.07178 0
M  V30 8437 H 819.47 -2.03773 4.85576 0
M  V30 8438 H 821.961 -1.08181 3.62084 0
M  V30 8439 H 822.274 -1.60593 7.5593 0
M  V30 8440 H 820.619 -1.45105 6.79683 0
M  V30 8441 H 823.81 -1.25909 4.50849 0
M  V30 8442 H 823.983 -1.49831 6.3044 0
M  V30 8443 N 817.389 -1.46805 -0.573248 0
M  V30 8444 C 818.666 -1.43082 -1.33368 0
M  V30 8445 C 819.046 -0.119252 -2.10763 0
M  V30 8446 O 818.394 0.899239 -2.10062 0
M  V30 8447 C 818.604 -2.66643 -2.25172 0
M  V30 8448 C 819.952 -3.13188 -2.86702 0
M  V30 8449 O 820.976 -2.67258 -2.35482 0
M  V30 8450 O 819.835 -3.92994 -3.79761 0
M  V30 8451 H 816.929 -0.569451 -0.599712 0
M  V30 8452 H 819.475 -1.58984 -0.59348 0
M  V30 8453 H 818.247 -3.53649 -1.67475 0
M  V30 8454 H 817.87 -2.53247 -3.06516 0
M  V30 8455 N 818.867 0.818669 -1.34668 0
M  V30 8456 C 820.113 1.57746 -1.27453 0
M  V30 8457 C 820.446 1.93588 0.154077 0
M  V30 8458 O 819.721 1.60371 1.10051 0
M  V30 8459 C 820.004 2.87414 -2.16945 0
M  V30 8460 C 819.857 2.58125 -3.68363 0
M  V30 8461 C 821.176 3.89021 -2.05792 0
M  V30 8462 H 818.295 0.572339 -0.464324 0
M  V30 8463 H 820.937 0.942784 -1.64959 0
M  V30 8464 H 819.087 3.41576 -1.85089 0
M  V30 8465 H 820.759 2.10239 -4.10606 0
M  V30 8466 H 819.002 1.91503 -3.89242 0
M  V30 8467 H 819.673 3.5061 -4.26353 0
M  V30 8468 H 822.149 3.44224 -2.33771 0
M  V30 8469 H 821.025 4.77548 -2.70628 0
M  V30 8470 H 821.286 4.29786 -1.03618 0
M  V30 8471 N 820.346 1.18468 1.03938 0
M  V30 8472 C 821.279 0.856251 2.11527 0
M  V30 8473 C 822.257 -0.182323 1.61575 0
M  V30 8474 O 823.441 -0.061 1.88401 0
M  V30 8475 C 820.568 0.279562 3.37544 0
M  V30 8476 C 819.614 1.29552 4.06348 0
M  V30 8477 S 820.447 2.85191 4.5324 0
M  V30 8478 C 821.603 2.29037 5.82489 0
M  V30 8479 H 821.836 1.76742 2.39059 0
M  V30 8480 H 819.369 1.01068 1.16725 0
M  V30 8481 H 821.327 -0.0466579 4.10473 0
M  V30 8482 H 819.988 -0.60975 3.08125 0
M  V30 8483 H 819.181 0.840922 4.96935 0
M  V30 8484 H 818.783 1.56804 3.39541 0
M  V30 8485 H 821.075 1.67376 6.565 0
M  V30 8486 H 822.018 3.17929 6.32714 0
M  V30 8487 H 822.426 1.72009 5.37655 0
M  V30 8488 N 821.824 -1.22873 0.986916 0
M  V30 8489 C 822.787 -2.2281 0.537442 0
M  V30 8490 C 823.787 -1.56331 -0.37646 0
M  V30 8491 O 824.977 -1.73376 -0.169247 0
M  V30 8492 C 822.109 -3.40195 -0.219082 0
M  V30 8493 H 823.302 -2.64089 1.42116 0
M  V30 8494 H 820.855 -1.35819 0.773488 0
M  V30 8495 H 821.59 -3.04381 -1.11905 0
M  V30 8496 H 821.375 -3.89657 0.437026 0
M  V30 8497 H 822.865 -4.14326 -0.521926 0
M  V30 8498 N 823.302 -0.75937 -1.38099 0
M  V30 8499 C 824.212 -0.13774 -2.34195 0
M  V30 8500 C 825.228 0.693985 -1.59561 0
M  V30 8501 O 826.404 0.616792 -1.91723 0
M  V30 8502 C 823.469 0.740535 -3.38699 0
M  V30 8503 C 822.53 -0.106225 -4.29169 0
M  V30 8504 C 821.763 0.730225 -5.28681 0
M  V30 8505 O 821.986 1.96796 -5.35376 0
M  V30 8506 O 820.92 0.145969 -6.01723 0
M  V30 8507 H 824.746 -0.931512 -2.89061 0
M  V30 8508 H 822.331 -0.520345 -1.40046 0
M  V30 8509 H 824.213 1.24232 -4.02672 0
M  V30 8510 H 822.888 1.51271 -2.8618 0
M  V30 8511 H 821.795 -0.654088 -3.68337 0
M  V30 8512 H 823.128 -0.841186 -4.84959 0
M  V30 8513 N 824.78 1.49157 -0.508906 0
M  V30 8514 C 826.028 2.02073 0.0327335 0
M  V30 8515 C 826.349 1.39012 1.3675 0
M  V30 8516 O 825.619 0.548153 1.88075 0
M  V30 8517 H 824.199 0.746848 0.0150864 0
M  V30 8518 H 826.861 1.83097 -0.667946 0
M  V30 8519 H 825.957 3.11707 0.1566 0
M  V30 8520 N 826.258 0.243083 1.55714 0
M  V30 8521 C 827.505 -0.38272 1.9885 0
M  V30 8522 C 827.833 -1.58225 1.13115 0
M  V30 8523 O 827.088 -1.94861 0.181067 0
M  V30 8524 C 827.387 -0.839621 3.47398 0
M  V30 8525 C 827.053 0.251737 4.50197 0
M  V30 8526 C 825.715 0.551487 4.78029 0
M  V30 8527 C 828.067 0.988728 5.11736 0
M  V30 8528 C 825.395 1.59237 5.64677 0
M  V30 8529 C 827.747 2.0191 5.99512 0
M  V30 8530 C 826.411 2.32554 6.2568 0
M  V30 8531 H 825.681 -0.140047 0.727645 0
M  V30 8532 H 828.328 0.35011 1.88272 0
M  V30 8533 H 826.633 -1.65159 3.55288 0
M  V30 8534 H 828.33 -1.33404 3.78159 0
M  V30 8535 H 824.92 0.00796741 4.28599 0
M  V30 8536 H 829.104 0.7704 4.90284 0
M  V30 8537 H 824.36 1.83517 5.83208 0
M  V30 8538 H 828.534 2.59511 6.46241 0
M  V30 8539 H 826.161 3.13349 6.92616 0
M  V30 8540 N 827.736 -1.57571 -0.0300757 0
M  V30 8541 C 829.147 -1.77567 -0.576802 0
M  V30 8542 C 829.498 -0.874034 -1.75656 0
M  V30 8543 O 828.623 -0.0686124 -2.16291 0
M  V30 8544 C 829.218 -3.22016 -1.05315 0
M  V30 8545 C 827.777 -3.43212 -1.5454 0
M  V30 8546 C 826.924 -2.73061 -0.483033 0
M  V30 8547 H 829.875 -1.57483 0.196151 0
M  V30 8548 H 829.896 -3.28474 -1.92055 0
M  V30 8549 H 829.408 -3.87613 -0.194298 0
M  V30 8550 H 827.509 -2.82788 -2.42615 0
M  V30 8551 H 827.622 -4.5182 -1.5936 0
M  V30 8552 H 825.986 -2.36805 -0.937835 0
M  V30 8553 H 826.769 -3.4134 0.366341 0
M  V30 8554 N 829.214 0.302327 -1.54673 0
M  V30 8555 C 830.491 1.05721 -1.64567 0
M  V30 8556 C 830.871 2.0526 -0.493108 0
M  V30 8557 O 830.219 2.22729 0.510315 0
M  V30 8558 C 830.429 1.74025 -3.02517 0
M  V30 8559 C 831.777 2.26271 -3.59286 0
M  V30 8560 O 832.801 1.8406 -3.0496 0
M  V30 8561 O 831.66 3.0361 -4.54404 0
M  V30 8562 H 828.754 0.488577 -0.667249 0
M  V30 8563 H 831.3 0.300521 -1.67018 0
M  V30 8564 H 830.072 1.0174 -3.77842 0
M  V30 8565 H 829.695 2.56454 -3.03838 0
M  V30 8566 N 830.692 1.47107 0.565454 0
M  V30 8567 C 832.108 1.32443 0.890566 0
M  V30 8568 C 832.308 0.308735 1.99121 0
M  V30 8569 O 831.364 -0.28265 2.50913 0
M  V30 8570 C 832.677 2.71548 1.2916 0
M  V30 8571 C 834.225 2.7977 1.40349 0
M  V30 8572 C 834.7 4.19497 1.83811 0
M  V30 8573 N 836.191 4.21998 1.90975 0
M  V30 8574 C 836.926 5.2702 2.25916 0
M  V30 8575 N 836.422 6.42353 2.59527 0
M  V30 8576 N 838.215 5.14393 2.26619 0
M  V30 8577 H 830.366 2.11786 -0.161328 0
M  V30 8578 H 832.629 0.947952 -0.00950631 0
M  V30 8579 H 832.335 3.47265 0.556753 0
M  V30 8580 H 832.209 3.02782 2.24951 0
M  V30 8581 H 834.596 2.0433 2.12916 0
M  V30 8582 H 834.677 2.522 0.427655 0
M  V30 8583 H 834.321 4.95439 1.11816 0
M  V30 8584 H 834.251 4.44486 2.82382 0
M  V30 8585 H 836.742 3.38791 1.6742 0
M  V30 8586 H 837.055 7.18252 2.85191 0
M  V30 8587 H 835.4 6.45687 2.57126 0
M  V30 8588 H 838.591 4.2332 1.99794 0
M  V30 8589 H 838.764 5.96349 2.5352 0
M  V30 8590 N 832.17 -0.811516 1.35101 0
M  V30 8591 C 833.103 -1.92872 1.21966 0
M  V30 8592 C 834.081 -1.62236 0.108667 0
M  V30 8593 O 835.265 -1.8647 0.275875 0
M  V30 8594 C 832.392 -3.27152 0.876886 0
M  V30 8595 C 831.438 -3.7674 1.99924 0
M  V30 8596 S 832.271 -3.95132 3.61429 0
M  V30 8597 C 833.427 -5.32322 3.29218 0
M  V30 8598 H 833.66 -2.03718 2.16532 0
M  V30 8599 H 831.193 -0.968352 1.20259 0
M  V30 8600 H 833.151 -4.04729 0.685917 0
M  V30 8601 H 831.812 -3.14059 -0.0506289 0
M  V30 8602 H 831.005 -4.73981 1.71343 0
M  V30 8603 H 830.607 -3.06145 2.14829 0
M  V30 8604 H 832.899 -6.1614 2.8174 0
M  V30 8605 H 833.842 -5.65893 4.25641 0
M  V30 8606 H 834.25 -4.98374 2.65111 0
M  V30 8607 N 833.648 -1.19017 -1.03309 0
M  V30 8608 C 834.595 -0.924088 -2.11493 0
M  V30 8609 C 835.565 0.139464 -1.65513 0
M  V30 8610 O 836.75 -0.00178761 -1.908 0
M  V30 8611 C 833.89 -0.464255 -3.41963 0
M  V30 8612 C 833.003 -1.5941 -4.01513 0
M  V30 8613 C 832.138 -1.08622 -5.19976 0
M  V30 8614 C 831.177 -2.19024 -5.71572 0
M  V30 8615 N 830.314 -1.69575 -6.81314 0
M  V30 8616 H 835.154 -1.85039 -2.33591 0
M  V30 8617 H 832.691 -0.922593 -1.14572 0
M  V30 8618 H 834.649 -0.179078 -4.16815 0
M  V30 8619 H 833.279 0.425062 -3.19989 0
M  V30 8620 H 832.331 -1.99458 -3.23915 0
M  V30 8621 H 833.643 -2.42604 -4.35826 0
M  V30 8622 H 832.797 -0.756022 -6.01971 0
M  V30 8623 H 831.536 -0.223955 -4.87186 0
M  V30 8624 H 830.541 -2.5288 -4.88193 0
M  V30 8625 H 831.766 -3.05699 -6.06403 0
M  V30 8626 H 829.712 -0.856494 -6.50385 0
M  V30 8627 H 829.629 -2.46361 -7.14732 0
M  V30 8628 H 830.897 -1.39505 -7.66915 0
M  V30 8629 N 835.127 1.22348 -0.993418 0
M  V30 8630 C 836.404 1.86632 -0.585495 0
M  V30 8631 C 836.784 1.89156 0.937187 0
M  V30 8632 O 836.132 1.38247 1.81934 0
M  V30 8633 C 836.342 3.27481 -1.20652 0
M  V30 8634 C 837.69 4.03971 -1.30738 0
M  V30 8635 O 838.714 3.3675 -1.16096 0
M  V30 8636 O 837.573 5.24302 -1.54173 0
M  V30 8637 H 834.667 0.802704 -0.198984 0
M  V30 8638 H 837.213 1.30122 -1.08933 0
M  V30 8639 H 835.985 3.20281 -2.24802 0
M  V30 8640 H 835.608 3.91597 -0.688312 0
M  V30 8641 N 836.605 0.766683 1.37694 0
M  V30 8642 C 837.882 0.25366 1.93948 0
M  V30 8643 C 838.262 -1.25041 1.70082 0
M  V30 8644 O 837.61 -2.03115 1.04674 0
M  V30 8645 C 837.82 0.621549 3.43421 0
M  V30 8646 C 839.168 0.588504 4.20502 0
M  V30 8647 O 840.192 0.560632 3.5176 0
M  V30 8648 O 839.051 0.61107 5.43073 0
M  V30 8649 H 836.145 0.0570586 0.825029 0
M  V30 8650 H 838.691 0.847693 1.47011 0
M  V30 8651 H 837.463 1.65979 3.54354 0
M  V30 8652 H 837.086 0.000197027 3.976 0
M  V30 8653 N 838.083 -1.48885 0.516809 0
M  V30 8654 C 839.499 -1.58651 0.173788 0
M  V30 8655 C 839.699 -1.52033 -1.32243 0
M  V30 8656 O 838.755 -1.40251 -2.09967 0
M  V30 8657 C 840.068 -2.90816 0.764628 0
M  V30 8658 C 841.616 -3.04316 0.732164 0
M  V30 8659 C 842.091 -4.39123 1.30135 0
M  V30 8660 N 843.582 -4.45656 1.26273 0
M  V30 8661 C 844.317 -5.48446 1.67317 0
M  V30 8662 N 843.813 -6.58258 2.16028 0
M  V30 8663 N 845.606 -5.39251 1.58635 0
M  V30 8664 H 837.757 -1.5143 1.48939 0
M  V30 8665 H 840.02 -0.718243 0.618733 0
M  V30 8666 H 839.726 -3.01275 1.81456 0
M  V30 8667 H 839.6 -3.76473 0.234113 0
M  V30 8668 H 841.987 -2.93478 -0.308975 0
M  V30 8669 H 842.068 -2.20303 1.3 0
M  V30 8670 H 841.712 -4.50714 2.34135 0
M  V30 8671 H 841.642 -5.21801 0.709305 0
M  V30 8672 H 844.133 -3.66879 0.906006 0
M  V30 8673 H 844.446 -7.32811 2.45374 0
M  V30 8674 H 842.791 -6.59257 2.20013 0
M  V30 8675 H 845.982 -4.52354 1.20387 0
M  V30 8676 H 846.155 -6.19229 1.90944 0
M  V30 8677 N 839.561 -0.251338 -1.55583 0
M  V30 8678 C 840.977 0.103409 -1.59265 0
M  V30 8679 C 841.177 1.56559 -1.26852 0
M  V30 8680 O 840.233 2.31071 -1.01796 0
M  V30 8681 C 841.546 -0.249781 -2.99661 0
M  V30 8682 C 843.094 -0.194442 -3.12395 0
M  V30 8683 C 843.569 -0.521728 -4.55019 0
M  V30 8684 N 845.06 -0.472393 -4.60785 0
M  V30 8685 C 845.795 -0.698737 -5.69127 0
M  V30 8686 N 845.291 -0.988443 -6.85713 0
M  V30 8687 N 847.084 -0.629143 -5.58568 0
M  V30 8688 H 839.235 -1.20484 -1.74921 0
M  V30 8689 H 841.498 -0.485092 -0.814488 0
M  V30 8690 H 841.204 -1.26577 -3.28133 0
M  V30 8691 H 841.078 0.420973 -3.74844 0
M  V30 8692 H 843.465 0.812229 -2.83702 0
M  V30 8693 H 843.546 -0.899111 -2.39478 0
M  V30 8694 H 843.19 -1.52597 -4.84434 0
M  V30 8695 H 843.12 0.204468 -5.26203 0
M  V30 8696 H 845.611 -0.257386 -3.77022 0
M  V30 8697 H 845.924 -1.14846 -7.64219 0
M  V30 8698 H 844.269 -1.02596 -6.87386 0
M  V30 8699 H 847.46 -0.402826 -4.66364 0
M  V30 8700 H 847.633 -0.808935 -6.42931 0
M  V30 8701 N 841.039 1.57585 0.0217189 0
M  V30 8702 C 842.264 1.94267 0.726309 0
M  V30 8703 C 842.689 0.851904 1.67703 0
M  V30 8704 O 842.047 -0.191792 1.80283 0
M  V30 8705 C 842.095 3.30023 1.45318 0
M  V30 8706 O 841.199 3.22791 2.5667 0
M  V30 8707 H 840.54 0.634777 0.194818 0
M  V30 8708 H 843.07 2.04585 -0.0249985 0
M  V30 8709 H 843.08 3.65084 1.82147 0
M  V30 8710 H 841.755 4.08972 0.755962 0
M  V30 8711 H 840.332 2.99373 2.2233 0
M  V30 8712 N 842.517 -0.29412 1.54831 0
M  V30 8713 C 843.48 -1.3461 1.85507 0
M  V30 8714 C 844.48 -1.43359 0.728343 0
M  V30 8715 O 845.67 -1.42875 0.996609 0
M  V30 8716 C 842.802 -2.73012 2.0415 0
M  V30 8717 H 843.995 -1.08651 2.79526 0
M  V30 8718 H 841.548 -0.531138 1.46999 0
M  V30 8719 H 842.283 -3.04183 1.12441 0
M  V30 8720 H 842.068 -2.68051 2.86166 0
M  V30 8721 H 843.558 -3.49061 2.29229 0
M  V30 8722 N 843.995 -1.47404 -0.557645 0
M  V30 8723 C 845.244 -1.53268 -1.31118 0
M  V30 8724 C 845.557 -0.199414 -1.94581 0
M  V30 8725 O 846.763 -0.136039 -2.71159 0
M  V30 8726 C 845.219 -2.70178 -2.37764 0
M  V30 8727 C 844.827 -4.10032 -1.80493 0
M  V30 8728 C 846.571 -2.85334 -3.14301 0
M  V30 8729 C 844.478 -5.18244 -2.84916 0
M  V30 8730 H 843.408 -0.570491 -0.493007 0
M  V30 8731 H 846.059 -1.73678 -0.592308 0
M  V30 8732 H 844.441 -2.43147 -3.12563 0
M  V30 8733 H 845.615 -4.46964 -1.12069 0
M  V30 8734 H 843.93 -3.99759 -1.16542 0
M  V30 8735 H 846.527 -3.63347 -3.92279 0
M  V30 8736 H 846.87 -1.93761 -3.68459 0
M  V30 8737 H 847.403 -3.12133 -2.46613 0
M  V30 8738 H 844.142 -6.11691 -2.35614 0
M  V30 8739 H 843.662 -4.85829 -3.51753 0
M  V30 8740 H 845.341 -5.45174 -3.48417 0
M  V30 8741 N 845.473 0.80434 -1.35529 0
M  V30 8742 C 846.75 1.5486 -1.1949 0
M  V30 8743 C 847.13 2.09897 0.22506 0
M  V30 8744 O 846.478 1.92643 1.22886 0
M  V30 8745 C 846.688 2.65535 -2.26478 0
M  V30 8746 C 848.036 3.33814 -2.62399 0
M  V30 8747 O 849.06 2.75807 -2.25409 0
M  V30 8748 O 847.919 4.38612 -3.26009 0
M  V30 8749 H 845.013 0.68433 -0.464351 0
M  V30 8750 H 847.559 0.844107 -1.47217 0
M  V30 8751 H 846.331 2.22754 -3.21709 0
M  V30 8752 H 845.954 3.43617 -2.00033 0
M  V30 8753 N 846.951 1.19563 1.02676 0
M  V30 8754 C 847.914 0.937182 2.09164 0
M  V30 8755 C 848.914 -0.0831927 1.60585 0
M  V30 8756 O 850.104 0.15178 1.73538 0
M  V30 8757 C 847.236 0.408912 3.38439 0
M  V30 8758 H 848.429 1.88164 2.33526 0
M  V30 8759 H 845.982 1.00959 1.19319 0
M  V30 8760 H 846.717 -0.541497 3.19747 0
M  V30 8761 H 846.502 1.14464 3.7502 0
M  V30 8762 H 847.992 0.247242 4.16867 0
M  V30 8763 N 848.429 -1.21819 0.999893 0
M  V30 8764 C 849.359 -2.26282 0.576096 0
M  V30 8765 C 850.34 -1.65317 -0.400537 0
M  V30 8766 O 851.525 -1.92028 -0.28964 0
M  V30 8767 C 848.655 -3.47147 -0.103145 0
M  V30 8768 C 847.609 -4.20594 0.792745 0
M  V30 8769 C 846.935 -5.34696 -0.0198026 0
M  V30 8770 C 848.235 -4.78533 2.09293 0
M  V30 8771 H 849.929 -2.61984 1.4493 0
M  V30 8772 H 847.475 -1.25935 0.698316 0
M  V30 8773 H 849.428 -4.1939 -0.411068 0
M  V30 8774 H 848.152 -3.1056 -1.01094 0
M  V30 8775 H 846.811 -3.50194 1.08442 0
M  V30 8776 H 846.459 -4.94352 -0.928729 0
M  V30 8777 H 846.159 -5.84764 0.576661 0
M  V30 8778 H 847.683 -6.09752 -0.321659 0
M  V30 8779 H 849.097 -5.42682 1.8485 0
M  V30 8780 H 847.494 -5.38968 2.63881 0
M  V30 8781 H 848.564 -3.98197 2.76708 0
M  V30 8782 N 849.908 -0.773975 -1.37286 0
M  V30 8783 C 851.138 -0.350249 -2.03609 0
M  V30 8784 C 851.546 1.03313 -1.58502 0
M  V30 8785 O 850.889 1.67118 -0.7627 0
M  V30 8786 C 850.951 -0.317215 -3.58098 0
M  V30 8787 C 850.615 -1.64556 -4.26345 0
M  V30 8788 C 851.612 -2.59839 -4.50311 0
M  V30 8789 C 849.297 -1.92061 -4.64131 0
M  V30 8790 C 851.291 -3.80833 -5.11122 0
M  V30 8791 C 848.978 -3.13325 -5.24663 0
M  V30 8792 C 849.976 -4.0753 -5.48095 0
M  V30 8793 O 849.664 -5.26658 -6.0736 0
M  V30 8794 H 849.396 -0.144456 -0.660385 0
M  V30 8795 H 851.95 -1.0496 -1.76557 0
M  V30 8796 H 850.18 0.438528 -3.84205 0
M  V30 8797 H 851.869 0.0797428 -4.05822 0
M  V30 8798 H 852.635 -2.39872 -4.21529 0
M  V30 8799 H 848.514 -1.19562 -4.45226 0
M  V30 8800 H 852.058 -4.54377 -5.29327 0
M  V30 8801 H 847.955 -3.33177 -5.52869 0
M  V30 8802 H 848.723 -5.27513 -6.25837 0
M  V30 8803 N 851.386 1.48609 -0.524698 0
M  V30 8804 C 852.296 2.33318 0.244923 0
M  V30 8805 C 853.312 1.46153 0.944214 0
M  V30 8806 O 854.488 1.79141 0.920347 0
M  V30 8807 C 851.553 3.22149 1.28144 0
M  V30 8808 C 850.614 4.25184 0.593068 0
M  V30 8809 C 849.847 5.0977 1.5802 0
M  V30 8810 O 850.07 4.96249 2.81235 0
M  V30 8811 O 849.004 5.9134 1.1225 0
M  V30 8812 H 852.83 3.00362 -0.449066 0
M  V30 8813 H 850.415 1.46643 -0.285689 0
M  V30 8814 H 852.297 3.77111 1.88057 0
M  V30 8815 H 850.972 2.57772 1.95793 0
M  V30 8816 H 849.879 3.74071 -0.0464214 0
M  V30 8817 H 851.212 4.92183 -0.0413893 0
M  V30 8818 N 852.864 0.259585 1.55447 0
M  V30 8819 C 853.827 -0.621359 2.20617 0
M  V30 8820 C 854.827 -1.09317 1.17925 0
M  V30 8821 O 856.017 -0.995842 1.42929 0
M  V30 8822 C 853.149 -1.85546 2.85982 0
M  V30 8823 H 854.342 -0.0525833 2.99854 0
M  V30 8824 H 851.895 0.0101055 1.56297 0
M  V30 8825 H 852.63 -2.46515 2.10715 0
M  V30 8826 H 852.415 -1.52523 3.61219 0
M  V30 8827 H 853.905 -2.48227 3.35817 0
M  V30 8828 N 854.342 -1.57594 -0.0133615 0
M  V30 8829 C 855.289 -2.07574 -1.00905 0
M  V30 8830 C 856.259 -0.968231 -1.34961 0
M  V30 8831 O 857.444 -1.23981 -1.45028 0
M  V30 8832 C 854.584 -2.5728 -2.30002 0
M  V30 8833 C 853.697 -3.81881 -2.01967 0
M  V30 8834 C 852.832 -4.20139 -3.25049 0
M  V30 8835 C 851.871 -5.37614 -2.92639 0
M  V30 8836 N 851.008 -5.71229 -4.08218 0
M  V30 8837 H 855.848 -2.92382 -0.575899 0
M  V30 8838 H 853.385 -1.4455 -0.272722 0
M  V30 8839 H 855.343 -2.84171 -3.05454 0
M  V30 8840 H 853.973 -1.75365 -2.71011 0
M  V30 8841 H 853.025 -3.61979 -1.16942 0
M  V30 8842 H 854.337 -4.67441 -1.74069 0
M  V30 8843 H 853.491 -4.48242 -4.08857 0
M  V30 8844 H 852.23 -3.33262 -3.56073 0
M  V30 8845 H 851.235 -5.09248 -2.07235 0
M  V30 8846 H 852.46 -6.26157 -2.62876 0
M  V30 8847 H 850.406 -4.8731 -4.39164 0
M  V30 8848 H 850.323 -6.51333 -3.83799 0
M  V30 8849 H 851.591 -6.03917 -4.92854 0
M  V30 8850 N 855.82 0.285905 -1.54985 0
M  V30 8851 C 857.236 0.632405 -1.46536 0
M  V30 8852 C 857.436 1.90074 -0.668888 0
M  V30 8853 O 856.492 2.51839 -0.182586 0
M  V30 8854 C 857.805 0.771361 -2.90638 0
M  V30 8855 C 859.353 0.866262 -3.00774 0
M  V30 8856 C 859.828 1.0371 -4.46103 0
M  V30 8857 N 861.319 1.10294 -4.49877 0
M  V30 8858 C 862.054 1.25369 -5.59527 0
M  V30 8859 N 861.55 1.37246 -6.7907 0
M  V30 8860 N 863.343 1.28377 -5.47244 0
M  V30 8861 H 855.494 -0.547226 -2.0523 0
M  V30 8862 H 857.757 -0.183298 -0.930111 0
M  V30 8863 H 857.463 -0.0899485 -3.51585 0
M  V30 8864 H 857.337 1.65569 -3.3892 0
M  V30 8865 H 859.724 1.71805 -2.39931 0
M  V30 8866 H 859.805 -0.0424049 -2.55765 0
M  V30 8867 H 859.449 0.190021 -5.07544 0
M  V30 8868 H 859.379 1.96022 -4.88757 0
M  V30 8869 H 861.87 1.02407 -3.6376 0
M  V30 8870 H 862.183 1.48546 -7.58389 0
M  V30 8871 H 860.528 1.34274 -6.81906 0
M  V30 8872 H 863.719 1.1872 -4.52795 0
M  V30 8873 H 863.892 1.39782 -6.32744 0
M  V30 8874 N 857.298 1.47698 0.54982 0
M  V30 8875 C 858.228 1.63622 1.66583 0
M  V30 8876 C 859.209 0.485477 1.63025 0
M  V30 8877 O 860.394 0.715692 1.80531 0
M  V30 8878 C 857.524 1.65721 3.05211 0
M  V30 8879 C 856.478 2.80097 3.2362 0
M  V30 8880 C 855.804 2.67272 4.63109 0
M  V30 8881 C 857.104 4.21612 3.08286 0
M  V30 8882 H 858.798 2.57049 1.53512 0
M  V30 8883 H 856.344 1.23705 0.737099 0
M  V30 8884 H 858.297 1.75451 3.83138 0
M  V30 8885 H 857.021 0.688593 3.19258 0
M  V30 8886 H 855.68 2.69889 2.48104 0
M  V30 8887 H 855.328 1.68422 4.73965 0
M  V30 8888 H 855.028 3.44008 4.76374 0
M  V30 8889 H 856.552 2.78942 5.43161 0
M  V30 8890 H 857.966 4.32758 3.76024 0
M  V30 8891 H 856.363 4.99193 3.33057 0
M  V30 8892 H 857.433 4.39462 2.04942 0
M  V30 8893 N 858.776 -0.797141 1.35954 0
M  V30 8894 C 860.024 -1.55161 1.29497 0
M  V30 8895 C 860.345 -1.94582 -0.127659 0
M  V30 8896 O 859.615 -1.64343 -1.06622 0
M  V30 8897 H 858.195 -0.575413 0.47635 0
M  V30 8898 H 860.857 -0.950282 1.70164 0
M  V30 8899 H 859.953 -2.46272 1.9172 0
M  V30 8900 N 860.254 -1.20106 -1.0204 0
M  V30 8901 C 861.186 -0.904236 -2.10609 0
M  V30 8902 C 862.199 0.106487 -1.62451 0
M  V30 8903 O 863.388 -0.124035 -1.78069 0
M  V30 8904 C 860.488 -0.333423 -3.37256 0
M  V30 8905 C 859.661 -1.39476 -4.14566 0
M  V30 8906 C 858.72 -0.835961 -5.19517 0
M  V30 8907 O 857.746 -1.51573 -5.48648 0
M  V30 8908 N 858.948 0.356531 -5.79404 0
M  V30 8909 H 861.713 -1.8388 -2.36661 0
M  V30 8910 H 859.274 -1.10422 -1.184 0
M  V30 8911 H 861.266 0.0544571 -4.04663 0
M  V30 8912 H 859.836 0.505608 -3.08484 0
M  V30 8913 H 859.056 -1.95714 -3.42184 0
M  V30 8914 H 860.344 -2.10967 -4.63001 0
M  V30 8915 H 859.742 0.926143 -5.58067 0
M  V30 8916 H 858.299 0.686093 -6.48179 0
M  V30 8917 N 861.732 1.21287 -1.00634 0
M  V30 8918 C 862.679 2.23705 -0.567876 0
M  V30 8919 C 863.649 1.61043 0.406753 0
M  V30 8920 O 864.834 1.88289 0.308499 0
M  V30 8921 C 861.974 3.44961 0.097996 0
M  V30 8922 C 861.087 4.22091 -0.919972 0
M  V30 8923 C 860.222 5.30718 -0.226222 0
M  V30 8924 C 859.261 5.99581 -1.23165 0
M  V30 8925 N 858.398 6.99821 -0.565278 0
M  V30 8926 H 863.238 2.60571 -1.44592 0
M  V30 8927 H 860.775 1.28049 -0.724006 0
M  V30 8928 H 862.733 4.1418 0.501097 0
M  V30 8929 H 861.363 3.08818 0.939744 0
M  V30 8930 H 860.415 3.52038 -1.44131 0
M  V30 8931 H 861.727 4.69476 -1.68505 0
M  V30 8932 H 860.881 6.06253 0.232917 0
M  V30 8933 H 859.62 4.84343 0.571247 0
M  V30 8934 H 858.625 5.22816 -1.70128 0
M  V30 8935 H 859.85 6.48042 -2.03022 0
M  V30 8936 H 857.796 6.55656 0.212508 0
M  V30 8937 H 857.713 7.4528 -1.26858 0
M  V30 8938 H 858.981 7.79393 -0.129389 0
M  V30 8939 N 863.21 0.781244 1.36873 0
M  V30 8940 C 864.158 0.161889 2.32036 0
M  V30 8941 C 865.152 -0.674225 1.55405 0
M  V30 8942 O 866.358 -0.570223 1.70729 0
M  V30 8943 H 862.733 0.0335702 0.75125 0
M  V30 8944 H 864.704 0.980078 2.81846 0
M  V30 8945 C 863.453 -0.695352 3.40676 0
M  V30 8946 H 862.776 -0.0613425 3.99753 0
M  V30 8947 H 864.216 -1.09553 4.09602 0
M  V30 8948 C 862.675 -1.85008 2.81556 0
M  V30 8949 O 863.205 -2.94616 2.73065 0
M  V30 8950 N 861.411 -1.65364 2.38962 0
M  V30 8951 H 860.958 -0.762106 2.46068 0
M  V30 8952 H 860.916 -2.42789 1.99752 0
M  V30 8953 N 864.689 -1.48329 0.532571 0
M  V30 8954 C 865.937 -2.021 -0.000581206 0
M  V30 8955 C 866.258 -1.4117 -1.34522 0
M  V30 8956 O 865.528 -0.578005 -1.87179 0
M  V30 8957 H 864.108 -0.746993 -0.00320281 0
M  V30 8958 H 866.77 -1.82011 0.696991 0
M  V30 8959 H 865.866 -3.11917 -0.106991 0
M  V30 8960 N 866.167 -0.267825 -1.55308 0
M  V30 8961 C 867.114 0.6228 -2.22238 0
M  V30 8962 C 868.084 1.15536 -1.19334 0
M  V30 8963 O 869.269 1.206 -1.47852 0
M  V30 8964 C 866.409 1.80447 -2.94164 0
M  V30 8965 C 865.522 1.30646 -4.11771 0
M  V30 8966 C 864.657 2.44935 -4.7136 0
M  V30 8967 C 863.696 1.92099 -5.81175 0
M  V30 8968 N 862.833 2.99834 -6.34857 0
M  V30 8969 H 867.673 0.0453874 -2.97965 0
M  V30 8970 H 865.21 0.0106371 -1.47096 0
M  V30 8971 H 867.168 2.49896 -3.34078 0
M  V30 8972 H 865.798 2.35403 -2.20874 0
M  V30 8973 H 864.85 0.505314 -3.77029 0
M  V30 8974 H 866.162 0.879409 -4.90987 0
M  V30 8975 H 865.316 3.2239 -5.13955 0
M  V30 8976 H 864.055 2.90951 -3.91406 0
M  V30 8977 H 863.06 1.13122 -5.38037 0
M  V30 8978 H 864.285 1.47027 -6.62993 0
M  V30 8979 H 862.231 3.45246 -5.578 0
M  V30 8980 H 862.148 2.61524 -7.09324 0
M  V30 8981 H 863.416 3.77286 -6.82111 0
M  V30 8982 N 867.645 1.57599 0.00500368 0
M  V30 8983 C 868.893 1.89973 0.68953 0
M  V30 8984 C 869.214 0.868531 1.7459 0
M  V30 8985 O 868.484 -0.0947367 1.95671 0
M  V30 8986 H 867.064 0.701153 0.25767 0
M  V30 8987 H 869.726 1.94869 -0.0347392 0
M  V30 8988 H 868.822 2.89584 1.16394 0
M  V30 8989 N 869.123 -0.277682 1.55134 0
M  V30 8990 C 870.37 -1.0099 1.7552 0
M  V30 8991 C 870.698 -1.86452 0.553712 0
M  V30 8992 O 869.953 -1.90122 -0.463896 0
M  V30 8993 C 870.252 -1.92599 3.01065 0
M  V30 8994 C 869.918 -1.22926 4.3382 0
M  V30 8995 C 868.58 -1.03659 4.69902 0
M  V30 8996 C 870.932 -0.733071 5.16019 0
M  V30 8997 C 868.26 -0.334933 5.85743 0
M  V30 8998 C 870.612 -0.0450319 6.32584 0
M  V30 8999 C 869.276 0.159393 6.6731 0
M  V30 9000 H 868.546 -0.36955 0.642273 0
M  V30 9001 H 871.193 -0.282611 1.89403 0
M  V30 9002 H 869.498 -2.71934 2.82062 0
M  V30 9003 H 871.195 -2.49367 3.14034 0
M  V30 9004 H 867.785 -1.38933 4.05457 0
M  V30 9005 H 871.969 -0.869565 4.88623 0
M  V30 9006 H 867.225 -0.165783 6.11175 0
M  V30 9007 H 871.399 0.34723 6.95534 0
M  V30 9008 H 869.026 0.70507 7.56923 0
M  V30 9009 N 870.601 -1.47988 -0.541979 0
M  V30 9010 C 871.831 -1.58804 -1.32155 0
M  V30 9011 C 872.239 -0.242893 -1.87634 0
M  V30 9012 O 871.582 0.776239 -1.66494 0
M  V30 9013 C 871.644 -2.56567 -2.51821 0
M  V30 9014 C 871.308 -4.01915 -2.17517 0
M  V30 9015 C 872.305 -4.89954 -1.73901 0
M  V30 9016 C 869.99 -4.47365 -2.28408 0
M  V30 9017 C 871.984 -6.21467 -1.41625 0
M  V30 9018 C 869.671 -5.78902 -1.95745 0
M  V30 9019 C 870.669 -6.65775 -1.52423 0
M  V30 9020 O 870.357 -7.94866 -1.20183 0
M  V30 9021 H 870.089 -0.538536 -0.408601 0
M  V30 9022 H 872.643 -1.94446 -0.661818 0
M  V30 9023 H 870.873 -2.16023 -3.20735 0
M  V30 9024 H 872.562 -2.57347 -3.13891 0
M  V30 9025 H 873.328 -4.56082 -1.64966 0
M  V30 9026 H 869.207 -3.79942 -2.61084 0
M  V30 9027 H 872.751 -6.8923 -1.07738 0
M  V30 9028 H 868.648 -6.12311 -2.04316 0
M  V30 9029 H 869.416 -8.07509 -1.33683 0
M  V30 9030 N 872.079 0.78992 -1.36375 0
M  V30 9031 C 873.042 1.88414 -1.30509 0
M  V30 9032 C 874.042 1.59384 -0.2129 0
M  V30 9033 O 875.232 1.67805 -0.467651 0
M  V30 9034 C 872.364 3.25188 -1.02302 0
M  V30 9035 H 873.557 1.95031 -2.27822 0
M  V30 9036 H 871.11 0.987664 -1.2114 0
M  V30 9037 H 871.845 3.24254 -0.0544486 0
M  V30 9038 H 871.63 3.47647 -1.81338 0
M  V30 9039 H 873.12 4.05252 -1.00801 0
M  V30 9040 N 873.557 1.20646 1.01402 0
M  V30 9041 C 874.787 1.04238 1.78376 0
M  V30 9042 C 875.195 -0.411327 1.84675 0
M  V30 9043 O 874.538 -1.29734 1.30057 0
M  V30 9044 C 874.6 1.55349 3.24202 0
M  V30 9045 C 874.264 3.03684 3.41504 0
M  V30 9046 C 875.261 4.01318 3.30514 0
M  V30 9047 C 872.946 3.42698 3.67237 0
M  V30 9048 C 874.94 5.35956 3.45007 0
M  V30 9049 C 872.627 4.77491 3.81373 0
M  V30 9050 C 873.625 5.73929 3.70263 0
M  V30 9051 O 873.313 7.06277 3.83963 0
M  V30 9052 H 873.045 0.366978 0.567718 0
M  V30 9053 H 875.599 1.60235 1.28506 0
M  V30 9054 H 873.829 0.93739 3.75166 0
M  V30 9055 H 875.518 1.34921 3.8282 0
M  V30 9056 H 876.284 3.72522 3.10568 0
M  V30 9057 H 872.163 2.68175 3.74971 0
M  V30 9058 H 875.707 6.11212 3.36252 0
M  V30 9059 H 871.604 5.05977 4.00821 0
M  V30 9060 H 872.372 7.13561 4.00965 0
M  V30 9061 N 875.035 -1.20752 1.01276 0
M  V30 9062 C 875.945 -2.27079 0.589277 0
M  V30 9063 C 876.961 -1.6999 -0.371389 0
M  V30 9064 O 878.137 -2.00044 -0.233294 0
M  V30 9065 C 875.202 -3.4663 -0.0696715 0
M  V30 9066 C 874.263 -4.18962 0.936454 0
M  V30 9067 C 873.496 -5.32806 0.308856 0
M  V30 9068 O 873.719 -5.63376 -0.8924 0
M  V30 9069 O 872.653 -5.93131 1.02367 0
M  V30 9070 H 876.479 -2.6551 1.47438 0
M  V30 9071 H 874.064 -1.27297 0.782045 0
M  V30 9072 H 875.946 -4.19119 -0.437873 0
M  V30 9073 H 874.621 -3.10082 -0.929029 0
M  V30 9074 H 873.528 -3.48661 1.35595 0
M  V30 9075 H 874.861 -4.59441 1.76565 0
M  V30 9076 N 876.513 -0.788492 -1.36457 0
M  V30 9077 C 877.476 -0.192209 -2.28393 0
M  V30 9078 C 878.476 0.609916 -1.48784 0
M  V30 9079 O 879.666 0.431046 -1.68783 0
M  V30 9080 C 876.798 0.734096 -3.32902 0
M  V30 9081 H 877.991 -1.00284 -2.82636 0
M  V30 9082 H 875.544 -0.557852 -1.46006 0
M  V30 9083 H 876.279 1.5691 -2.83813 0
M  V30 9084 H 876.064 0.160875 -3.9177 0
M  V30 9085 H 877.554 1.1462 -4.01562 0
M  V30 9086 N 877.991 1.48044 -0.54043 0
M  V30 9087 C 879.268 1.95523 0.0547302 0
M  V30 9088 C 879.648 1.48284 1.5025 0
M  V30 9089 O 878.996 0.714037 2.17057 0
M  V30 9090 C 879.206 3.48923 -0.0733393 0
M  V30 9091 C 880.554 4.24523 0.0806026 0
M  V30 9092 O 881.578 3.562 -5.58687e-05 0
M  V30 9093 O 880.437 5.45922 0.251216 0
M  V30 9094 H 877.531 0.823728 0.073493 0
M  V30 9095 H 880.077 1.5852 -0.605768 0
M  V30 9096 H 878.849 3.76059 -1.08144 0
M  V30 9097 H 878.472 3.92648 0.625536 0
M  V30 9098 N 879.47 0.276058 1.55163 0
M  V30 9099 C 880.417 -0.611006 2.22565 0
M  V30 9100 C 881.387 -1.14902 1.19945 0
M  V30 9101 O 882.572 -1.19815 1.48489 0
M  V30 9102 C 879.712 -1.78885 2.95117 0
M  V30 9103 C 878.825 -1.2846 4.12458 0
M  V30 9104 C 877.96 -2.42432 4.72652 0
M  V30 9105 C 876.999 -1.89015 5.82185 0
M  V30 9106 N 876.136 -2.96463 6.36439 0
M  V30 9107 H 880.976 -0.0295849 2.97985 0
M  V30 9108 H 878.513 -0.00283607 1.471 0
M  V30 9109 H 880.471 -2.48121 3.35398 0
M  V30 9110 H 879.101 -2.34229 2.22119 0
M  V30 9111 H 878.153 -0.485312 3.77292 0
M  V30 9112 H 879.465 -0.853358 4.91446 0
M  V30 9113 H 878.619 -3.19659 5.15658 0
M  V30 9114 H 877.358 -2.88872 3.92943 0
M  V30 9115 H 876.363 -1.10267 5.38629 0
M  V30 9116 H 877.588 -1.43509 6.63763 0
M  V30 9117 H 875.534 -3.42283 5.59623 0
M  V30 9118 H 875.451 -2.57759 7.10701 0
M  V30 9119 H 876.719 -3.73663 6.84103 0
M  V30 9120 N 880.948 -1.576 0.00335426 0
M  V30 9121 C 881.895 -2.08632 -0.986975 0
M  V30 9122 C 882.865 -0.982491 -1.33927 0
M  V30 9123 O 884.05 -1.25513 -1.43705 0
M  V30 9124 C 881.19 -2.59705 -2.27261 0
M  V30 9125 C 880.303 -3.84002 -1.97905 0
M  V30 9126 C 879.438 -4.23563 -3.20574 0
M  V30 9127 C 878.477 -5.40688 -2.8692 0
M  V30 9128 N 877.614 -5.75526 -4.02136 0
M  V30 9129 H 882.454 -2.92977 -0.544855 0
M  V30 9130 H 879.991 -1.44831 -0.257376 0
M  V30 9131 H 881.949 -2.87395 -3.02423 0
M  V30 9132 H 880.579 -1.7823 -2.69136 0
M  V30 9133 H 879.631 -3.63199 -1.13096 0
M  V30 9134 H 880.943 -4.69261 -1.69102 0
M  V30 9135 H 880.097 -4.52554 -4.04079 0
M  V30 9136 H 878.836 -3.37019 -3.52518 0
M  V30 9137 H 877.841 -5.11417 -2.01822 0
M  V30 9138 H 879.066 -6.2891 -2.5622 0
M  V30 9139 H 877.012 -4.9194 -4.33971 0
M  V30 9140 H 876.929 -6.55367 -3.76869 0
M  V30 9141 H 878.197 -6.0911 -4.8642 0
M  V30 9142 N 882.426 0.269451 -1.5528 0
M  V30 9143 C 883.674 0.998604 -1.75705 0
M  V30 9144 C 883.995 1.86691 -0.563175 0
M  V30 9145 O 883.265 1.91305 0.421811 0
M  V30 9146 H 881.845 0.371698 -0.647958 0
M  V30 9147 H 884.507 0.292826 -1.92688 0
M  V30 9148 H 883.603 1.63348 -2.6594 0
M  V30 9149 N 883.904 1.48273 0.534124 0
M  V30 9150 C 884.851 1.62487 1.6391 0
M  V30 9151 C 885.821 0.467062 1.59398 0
M  V30 9152 O 887.006 0.690029 1.77885 0
M  V30 9153 C 884.146 1.66671 3.02183 0
M  V30 9154 C 883.259 2.9353 3.16961 0
M  V30 9155 C 882.394 2.88902 4.45768 0
M  V30 9156 C 881.433 4.10483 4.54059 0
M  V30 9157 N 880.57 4.03956 5.74251 0
M  V30 9158 H 885.41 2.56851 1.51101 0
M  V30 9159 H 882.947 1.27381 0.735704 0
M  V30 9160 H 884.905 1.67079 3.82283 0
M  V30 9161 H 883.535 0.758011 3.13774 0
M  V30 9162 H 882.587 3.02886 2.3014 0
M  V30 9163 H 883.899 3.83501 3.18949 0
M  V30 9164 H 883.053 2.87688 5.34154 0
M  V30 9165 H 881.792 1.96652 4.46295 0
M  V30 9166 H 880.797 4.11977 3.64081 0
M  V30 9167 H 882.022 5.03887 4.55274 0
M  V30 9168 H 879.968 3.14525 5.75682 0
M  V30 9169 H 879.885 4.87628 5.77715 0
M  V30 9170 H 881.153 4.06795 6.64935 0
M  V30 9171 N 885.382 -0.782676 1.36792 0
M  V30 9172 C 886.314 -1.9044 1.27536 0
M  V30 9173 C 887.327 -1.61647 0.193426 0
M  V30 9174 O 888.516 -1.72769 0.448692 0
M  V30 9175 C 885.616 -3.2541 0.946641 0
M  V30 9176 C 884.789 -3.81932 2.13183 0
M  V30 9177 C 883.848 -4.95355 1.7751 0
M  V30 9178 O 882.874 -5.11517 2.49678 0
M  V30 9179 N 884.076 -5.76108 0.712755 0
M  V30 9180 H 886.841 -1.98899 2.24186 0
M  V30 9181 H 884.402 -0.96127 1.30274 0
M  V30 9182 H 886.394 -3.98791 0.689043 0
M  V30 9183 H 884.964 -3.12524 0.0690591 0
M  V30 9184 H 884.184 -3.00459 2.55183 0
M  V30 9185 H 885.472 -4.16426 2.92347 0
M  V30 9186 H 884.87 -5.65586 0.113662 0
M  V30 9187 H 883.427 -6.49762 0.514995 0
M  V30 9188 N 886.86 -1.21182 -1.00761 0
M  V30 9189 C 887.807 -0.968741 -2.09485 0
M  V30 9190 C 888.777 0.104325 -1.65772 0
M  V30 9191 O 889.962 -0.0422587 -1.90753 0
M  V30 9192 C 887.102 -0.536686 -3.40901 0
M  V30 9193 C 886.215 -1.6789 -3.98041 0
M  V30 9194 C 885.35 -1.19627 -5.17555 0
M  V30 9195 C 884.389 -2.31099 -5.66798 0
M  V30 9196 N 883.526 -1.83988 -6.77564 0
M  V30 9197 H 888.366 -1.89952 -2.29613 0
M  V30 9198 H 885.903 -0.946688 -1.12589 0
M  V30 9199 H 887.861 -0.26745 -4.16342 0
M  V30 9200 H 886.491 0.357092 -3.20819 0
M  V30 9201 H 885.543 -2.06284 -3.19611 0
M  V30 9202 H 886.855 -2.51794 -4.30582 0
M  V30 9203 H 886.009 -0.883539 -6.00232 0
M  V30 9204 H 884.748 -0.327244 -4.86601 0
M  V30 9205 H 883.753 -2.63178 -4.82719 0
M  V30 9206 H 884.978 -3.18493 -5.99782 0
M  V30 9207 H 882.924 -0.994257 -6.48422 0
M  V30 9208 H 882.841 -2.61466 -7.09346 0
M  V30 9209 H 884.109 -1.55741 -7.63783 0
M  V30 9210 N 888.338 1.20213 -1.01915 0
M  V30 9211 C 889.285 2.2309 -0.591571 0
M  V30 9212 C 890.255 1.61465 0.389649 0
M  V30 9213 O 891.44 1.88606 0.288511 0
M  V30 9214 C 888.58 3.45045 0.0614028 0
M  V30 9215 C 887.693 4.21091 -0.964688 0
M  V30 9216 C 886.828 5.30448 -0.282499 0
M  V30 9217 C 885.867 5.98241 -1.29517 0
M  V30 9218 N 885.004 6.99182 -0.639472 0
M  V30 9219 H 889.844 2.59023 -1.47347 0
M  V30 9220 H 887.381 1.27274 -0.737547 0
M  V30 9221 H 889.339 4.14688 0.45714 0
M  V30 9222 H 887.969 3.09797 0.906937 0
M  V30 9223 H 887.021 3.50489 -1.47857 0
M  V30 9224 H 888.333 4.67662 -1.73475 0
M  V30 9225 H 887.487 6.06466 0.168603 0
M  V30 9226 H 886.226 4.84922 0.519843 0
M  V30 9227 H 885.231 5.20982 -1.75663 0
M  V30 9228 H 886.456 6.45853 -2.09884 0
M  V30 9229 H 884.402 6.55844 0.142955 0
M  V30 9230 H 884.319 7.43893 -1.34756 0
M  V30 9231 H 885.587 7.79212 -0.212047 0
M  V30 9232 N 889.816 0.795718 1.36037 0
M  V30 9233 C 890.746 0.212803 2.32528 0
M  V30 9234 C 891.727 -0.655716 1.56953 0
M  V30 9235 O 892.912 -0.588238 1.85077 0
M  V30 9236 C 890.042 -0.648189 3.41198 0
M  V30 9237 C 888.996 0.120948 4.27829 0
M  V30 9238 C 888.322 -0.861044 5.27722 0
M  V30 9239 C 889.622 1.31375 5.05508 0
M  V30 9240 H 891.316 1.01893 2.81528 0
M  V30 9241 H 888.862 0.491422 1.35355 0
M  V30 9242 H 890.815 -1.06597 4.07695 0
M  V30 9243 H 889.539 -1.48709 2.9078 0
M  V30 9244 H 888.198 0.519777 3.62897 0
M  V30 9245 H 887.846 -1.69515 4.73575 0
M  V30 9246 H 887.546 -0.350808 5.86552 0
M  V30 9247 H 889.07 -1.27726 5.97092 0
M  V30 9248 H 890.484 0.971406 5.6501 0
M  V30 9249 H 888.881 1.75772 5.73781 0
M  V30 9250 H 889.951 2.10593 4.36782 0
M  V30 9251 N 891.294 -1.47756 0.548274 0
M  V30 9252 C 892.54 -2.02789 0.0209265 0
M  V30 9253 C 892.873 -1.42268 -1.32187 0
M  V30 9254 O 892.148 -0.575001 -1.85806 0
M  V30 9255 C 892.431 -3.60007 -0.0816674 0
M  V30 9256 C 892.284 -4.30977 1.28759 0
M  V30 9257 C 893.603 -4.32777 -0.799515 0
M  V30 9258 H 890.722 -0.736944 0.00907884 0
M  V30 9259 H 893.364 -1.76282 0.708839 0
M  V30 9260 H 891.514 -3.82722 -0.667537 0
M  V30 9261 H 893.186 -4.19629 1.91597 0
M  V30 9262 H 891.429 -3.9168 1.86466 0
M  V30 9263 H 892.1 -5.39488 1.16861 0
M  V30 9264 H 894.576 -4.15001 -0.30216 0
M  V30 9265 H 893.452 -5.42431 -0.840239 0
M  V30 9266 H 893.713 -4.01358 -1.85375 0
M  V30 9267 N 892.772 -0.284283 -1.55015 0
M  V30 9268 C 894.049 0.382125 -1.91831 0
M  V30 9269 C 894.429 1.73007 -1.20962 0
M  V30 9270 O 893.777 2.25962 -0.339594 0
M  V30 9271 C 893.987 0.513341 -3.45204 0
M  V30 9272 C 895.335 0.791989 -4.17148 0
M  V30 9273 O 896.359 0.597799 -3.51148 0
M  V30 9274 O 895.218 1.16394 -5.33961 0
M  V30 9275 H 892.312 0.210707 -0.799707 0
M  V30 9276 H 894.858 -0.331111 -1.66438 0
M  V30 9277 H 893.63 -0.434911 -3.88876 0
M  V30 9278 H 893.253 1.27569 -3.76579 0
M  V30 9279 N 894.251 1.57596 -0.0117121 0
M  V30 9280 C 895.476 1.95764 0.684938 0
M  V30 9281 C 895.901 0.887285 1.65858 0
M  V30 9282 O 895.259 -0.153508 1.80649 0
M  V30 9283 C 895.307 3.33031 1.38285 0
M  V30 9284 O 894.411 3.28163 2.49765 0
M  V30 9285 H 893.752 0.638767 0.181309 0
M  V30 9286 H 896.282 2.04486 -0.0683883 0
M  V30 9287 H 896.292 3.68866 1.74362 0
M  V30 9288 H 894.967 4.10483 0.669043 0
M  V30 9289 H 893.544 3.04021 2.15929 0
M  V30 9290 N 895.729 -0.261212 1.5542 0
M  V30 9291 C 896.954 -1.01341 1.80955 0
M  V30 9292 C 897.379 -1.78711 0.586849 0
M  V30 9293 O 896.737 -1.75266 -0.463837 0
M  V30 9294 C 896.785 -1.93835 3.04073 0
M  V30 9295 O 895.889 -3.02791 2.79985 0
M  V30 9296 H 895.23 -0.289123 0.597749 0
M  V30 9297 H 897.76 -0.286543 2.02584 0
M  V30 9298 H 897.77 -2.3557 3.33123 0
M  V30 9299 H 896.445 -1.36936 3.9271 0
M  V30 9300 H 895.022 -2.65287 2.62063 0
M  V30 9301 N 897.207 -1.48554 -0.526253 0
M  V30 9302 C 898.453 -1.56994 -1.28378 0
M  V30 9303 C 898.786 -0.244701 -1.92652 0
M  V30 9304 O 898.061 0.749636 -1.79473 0
M  V30 9305 C 898.344 -2.71092 -2.37026 0
M  V30 9306 C 898.197 -4.13331 -1.77418 0
M  V30 9307 C 899.516 -2.80934 -3.38769 0
M  V30 9308 H 896.635 -0.571466 -0.465398 0
M  V30 9309 H 899.277 -1.80742 -0.585861 0
M  V30 9310 H 897.427 -2.50973 -2.96555 0
M  V30 9311 H 899.099 -4.44899 -1.21912 0
M  V30 9312 H 897.342 -4.20158 -1.07936 0
M  V30 9313 H 898.013 -4.88994 -2.56104 0
M  V30 9314 H 900.489 -2.9917 -2.892 0
M  V30 9315 H 899.365 -3.62489 -4.12181 0
M  V30 9316 H 899.626 -1.89244 -3.99549 0
M  V30 9317 N 898.685 0.775411 -1.37205 0
M  V30 9318 C 899.615 1.90258 -1.35367 0
M  V30 9319 C 900.596 1.68634 -0.222864 0
M  V30 9320 O 901.781 1.89545 -0.422659 0
M  V30 9321 C 898.911 3.27488 -1.15623 0
M  V30 9322 C 897.865 3.63668 -2.25676 0
M  V30 9323 C 897.191 4.994 -1.91059 0
M  V30 9324 C 898.491 3.70797 -3.67841 0
M  V30 9325 H 900.185 1.92053 -2.29687 0
M  V30 9326 H 897.731 0.922597 -1.10563 0
M  V30 9327 H 899.684 4.05976 -1.12968 0
M  V30 9328 H 898.408 3.26117 -0.177573 0
M  V30 9329 H 897.067 2.87486 -2.2748 0
M  V30 9330 H 896.715 4.94565 -0.917324 0
M  V30 9331 H 896.415 5.24576 -2.64751 0
M  V30 9332 H 897.939 5.80291 -1.89985 0
M  V30 9333 H 899.353 4.39444 -3.68187 0
M  V30 9334 H 897.75 4.07468 -4.40556 0
M  V30 9335 H 898.82 2.71549 -4.01732 0
M  V30 9336 N 900.163 1.21714 1.00117 0
M  V30 9337 C 901.073 0.99597 2.12409 0
M  V30 9338 C 902.089 -0.0531431 1.73919 0
M  V30 9339 O 903.265 0.137757 2.00928 0
M  V30 9340 C 900.33 0.567593 3.42022 0
M  V30 9341 C 899.391 1.68936 3.94663 0
M  V30 9342 C 898.624 1.28133 5.1809 0
M  V30 9343 O 898.847 0.156574 5.70185 0
M  V30 9344 O 897.781 2.0947 5.64275 0
M  V30 9345 H 901.607 1.93657 2.33946 0
M  V30 9346 H 899.192 1.00236 1.10784 0
M  V30 9347 H 901.074 0.338664 4.20037 0
M  V30 9348 H 899.749 -0.34424 3.21864 0
M  V30 9349 H 898.656 1.97274 3.17858 0
M  V30 9350 H 899.989 2.57876 4.19238 0
M  V30 9351 N 901.641 -1.19671 1.02551 0
M  V30 9352 C 902.887 -1.89548 0.721069 0
M  V30 9353 C 903.22 -1.79209 -0.748176 0
M  V30 9354 O 902.495 -1.1822 -1.54448 0
M  V30 9355 C 902.778 -3.4061 1.16861 0
M  V30 9356 C 902.631 -3.59838 2.69883 0
M  V30 9357 C 903.95 -4.33718 0.746782 0
M  V30 9358 H 901.069 -0.688315 0.263422 0
M  V30 9359 H 903.711 -1.40883 1.27483 0
M  V30 9360 H 901.861 -3.82188 0.697477 0
M  V30 9361 H 903.533 -3.27454 3.24917 0
M  V30 9362 H 901.776 -3.03005 3.10435 0
M  V30 9363 H 902.447 -4.65766 2.96253 0
M  V30 9364 H 904.923 -3.99837 1.15195 0
M  V30 9365 H 903.799 -5.38012 1.08786 0
M  V30 9366 H 904.06 -4.40704 -0.351057 0
M  V30 9367 N 903.119 -0.802921 -1.35613 0
M  V30 9368 C 904.049 -0.225131 -2.32412 0
M  V30 9369 C 905.03 0.647383 -1.57299 0
M  V30 9370 O 906.215 0.578414 -1.85386 0
M  V30 9371 C 903.345 0.630085 -3.41537 0
M  V30 9372 C 902.299 -0.143635 -4.27759 0
M  V30 9373 C 901.625 0.833046 -5.28171 0
M  V30 9374 C 902.925 -1.34054 -5.04804 0
M  V30 9375 H 904.619 -1.03385 -2.80984 0
M  V30 9376 H 902.165 -0.498593 -1.35093 0
M  V30 9377 H 904.118 1.04433 -4.08254 0
M  V30 9378 H 902.842 1.47165 -2.91565 0
M  V30 9379 H 901.501 -0.539015 -3.62616 0
M  V30 9380 H 901.149 1.67001 -4.74468 0
M  V30 9381 H 900.849 0.319697 -5.8673 0
M  V30 9382 H 902.373 1.24558 -5.97761 0
M  V30 9383 H 903.787 -1.00136 -5.64487 0
M  V30 9384 H 902.184 -1.78812 -5.72841 0
M  V30 9385 H 903.254 -2.12906 -4.35659 0
M  V30 9386 N 904.597 1.47463 -0.556102 0
M  V30 9387 C 905.544 2.29998 0.192213 0
M  V30 9388 C 906.514 1.38993 0.909403 0
M  V30 9389 O 907.699 1.67954 0.905316 0
M  V30 9390 C 904.839 3.22932 1.21692 0
M  V30 9391 C 903.952 4.29027 0.505908 0
M  V30 9392 C 903.087 5.09114 1.51581 0
M  V30 9393 C 902.126 6.06984 0.789714 0
M  V30 9394 N 901.263 6.80033 1.74639 0
M  V30 9395 H 906.103 2.93468 -0.517734 0
M  V30 9396 H 903.64 1.44654 -0.267147 0
M  V30 9397 H 905.598 3.75234 1.8236 0
M  V30 9398 H 904.228 2.61329 1.89491 0
M  V30 9399 H 903.28 3.7979 -0.215276 0
M  V30 9400 H 904.592 4.9876 -0.062958 0
M  V30 9401 H 903.746 5.6556 2.19606 0
M  V30 9402 H 902.485 4.3928 2.11859 0
M  V30 9403 H 901.49 5.49717 0.0955382 0
M  V30 9404 H 902.715 6.78827 0.192688 0
M  V30 9405 H 900.661 6.12931 2.33777 0
M  V30 9406 H 900.578 7.45933 1.22965 0
M  V30 9407 H 901.846 7.41054 2.41782 0
M  V30 9408 N 906.075 0.2925 1.54862 0
M  V30 9409 C 907.486 -0.201841 1.85606 0
M  V30 9410 C 907.837 -1.54093 1.21449 0
M  V30 9411 O 906.962 -2.10327 0.509079 0
M  V30 9412 C 907.557 -0.373011 3.3674 0
M  V30 9413 C 906.116 -0.811574 3.67547 0
M  V30 9414 C 905.263 0.0850583 2.7717 0
M  V30 9415 H 908.214 0.513774 1.50153 0
M  V30 9416 H 908.235 -1.20892 3.60785 0
M  V30 9417 H 907.747 0.601751 3.83407 0
M  V30 9418 H 905.848 -1.79719 3.26392 0
M  V30 9419 H 905.961 -0.636853 4.74848 0
M  V30 9420 H 904.325 -0.434224 2.50971 0
M  V30 9421 H 905.108 1.05602 3.26654 0
M  V30 9422 N 907.553 -1.57587 0.0200696 0
M  V30 9423 C 908.802 -1.90602 -0.659822 0
M  V30 9424 C 909.115 -0.897216 -1.73808 0
M  V30 9425 O 910.321 -1.11829 -2.47399 0
M  V30 9426 C 908.777 -3.38416 -1.22484 0
M  V30 9427 C 908.385 -4.47637 -0.180339 0
M  V30 9428 C 910.129 -3.80513 -1.88176 0
M  V30 9429 C 908.036 -5.86542 -0.756482 0
M  V30 9430 H 906.966 -0.711272 -0.250216 0
M  V30 9431 H 909.617 -1.83308 0.0838942 0
M  V30 9432 H 907.999 -3.40613 -2.01987 0
M  V30 9433 H 909.173 -4.56987 0.591573 0
M  V30 9434 H 907.488 -4.14687 0.377302 0
M  V30 9435 H 910.085 -4.8164 -2.32222 0
M  V30 9436 H 910.428 -3.15091 -2.72073 0
M  V30 9437 H 910.961 -3.80701 -1.15377 0
M  V30 9438 H 907.7 -6.55485 0.0441468 0
M  V30 9439 H 907.22 -5.80816 -1.49709 0
M  V30 9440 H 908.899 -6.3483 -1.249 0
M  V30 9441 N 909.032 0.252966 -1.55557 0
M  V30 9442 C 910.278 0.983306 -1.77367 0
M  V30 9443 C 910.611 1.85203 -0.584258 0
M  V30 9444 O 909.886 1.89963 0.417644 0
M  V30 9445 C 910.169 1.84896 -3.09007 0
M  V30 9446 C 910.022 1.00883 -4.38341 0
M  V30 9447 C 911.341 2.83254 -3.36831 0
M  V30 9448 H 908.46 0.356056 -0.645286 0
M  V30 9449 H 911.102 0.254232 -1.88291 0
M  V30 9450 H 909.252 2.47058 -2.99825 0
M  V30 9451 H 910.924 0.40638 -4.59507 0
M  V30 9452 H 909.167 0.31297 -4.3267 0
M  V30 9453 H 909.838 1.64818 -5.2682 0
M  V30 9454 H 912.314 2.31228 -3.45937 0
M  V30 9455 H 911.19 3.40949 -4.30169 0
M  V30 9456 H 911.451 3.59407 -2.57447 0
M  V30 9457 N 910.51 1.48831 0.518367 0
M  V30 9458 C 911.74 1.60886 1.29612 0
M  V30 9459 C 912.148 0.272713 1.87224 0
M  V30 9460 O 911.491 -0.749653 1.67708 0
M  V30 9461 C 911.553 2.60541 2.47707 0
M  V30 9462 C 911.217 4.05324 2.11095 0
M  V30 9463 C 912.214 4.92658 1.66084 0
M  V30 9464 C 909.899 4.50942 2.21262 0
M  V30 9465 C 911.893 6.23641 1.3172 0
M  V30 9466 C 909.58 5.81943 1.8651 0
M  V30 9467 C 910.578 6.68116 1.41812 0
M  V30 9468 O 910.266 7.96677 1.07522 0
M  V30 9469 H 909.998 0.544968 0.399982 0
M  V30 9470 H 912.552 1.95474 0.630799 0
M  V30 9471 H 910.782 2.21098 3.17258 0
M  V30 9472 H 912.471 2.62308 3.09757 0
M  V30 9473 H 913.237 4.58649 1.5769 0
M  V30 9474 H 909.116 3.84048 2.55007 0
M  V30 9475 H 912.66 6.90857 0.967598 0
M  V30 9476 H 908.557 6.15484 1.94549 0
M  V30 9477 H 909.325 8.09534 1.2082 0
M  V30 9478 N 911.988 -0.768124 1.37614 0
M  V30 9479 C 912.898 -1.91249 1.35871 0
M  V30 9480 C 913.914 -1.7208 0.257786 0
M  V30 9481 O 915.09 -1.95253 0.493782 0
M  V30 9482 C 912.155 -3.26423 1.16829 0
M  V30 9483 C 911.216 -3.5822 2.36594 0
M  V30 9484 C 910.449 -4.86945 2.1845 0
M  V30 9485 O 910.672 -5.58258 1.17064 0
M  V30 9486 O 909.606 -5.17888 3.06718 0
M  V30 9487 H 913.432 -1.95671 2.32264 0
M  V30 9488 H 911.017 -0.911382 1.18382 0
M  V30 9489 H 912.899 -4.07269 1.08212 0
M  V30 9490 H 911.574 -3.22845 0.235123 0
M  V30 9491 H 910.481 -2.77594 2.50783 0
M  V30 9492 H 911.814 -3.66545 3.2849 0
M  V30 9493 N 913.466 -1.22244 -0.994698 0
M  V30 9494 C 914.398 -0.948706 -2.08644 0
M  V30 9495 C 915.411 0.0720049 -1.62641 0
M  V30 9496 O 916.6 -0.161778 -1.77765 0
M  V30 9497 C 913.7 -0.404885 -3.36473 0
M  V30 9498 C 912.873 -1.48239 -4.11514 0
M  V30 9499 C 911.932 -0.94597 -5.17627 0
M  V30 9500 O 910.958 -1.63177 -5.45309 0
M  V30 9501 N 912.16 0.23355 -5.8003 0
M  V30 9502 H 914.925 -1.88858 -2.32707 0
M  V30 9503 H 912.486 -1.12908 -1.16032 0
M  V30 9504 H 914.478 -0.0313903 -4.04688 0
M  V30 9505 H 913.048 0.440061 -3.09487 0
M  V30 9506 H 912.268 -2.02928 -3.37955 0
M  V30 9507 H 913.556 -2.20741 -4.58422 0
M  V30 9508 H 912.954 0.80756 -5.59906 0
M  V30 9509 H 911.511 0.54845 -6.49488 0
M  V30 9510 N 914.944 1.19125 -1.03184 0
M  V30 9511 C 916.36 1.40909 -0.749447 0
M  V30 9512 C 916.56 1.9022 0.664729 0
M  V30 9513 O 915.616 2.08085 1.43028 0
M  V30 9514 C 916.929 2.41761 -1.78807 0
M  V30 9515 C 918.477 2.55503 -1.80796 0
M  V30 9516 C 918.952 3.59612 -2.83626 0
M  V30 9517 N 920.443 3.6711 -2.82461 0
M  V30 9518 C 921.178 4.47366 -3.5868 0
M  V30 9519 N 920.674 5.31302 -4.44623 0
M  V30 9520 N 922.467 4.42044 -3.47208 0
M  V30 9521 H 914.618 0.854399 -1.94458 0
M  V30 9522 H 916.881 0.437753 -0.840878 0
M  V30 9523 H 916.587 2.12559 -2.80199 0
M  V30 9524 H 916.461 3.40981 -1.61283 0
M  V30 9525 H 918.848 2.84027 -0.800803 0
M  V30 9526 H 918.929 1.56427 -2.02396 0
M  V30 9527 H 918.573 3.3183 -3.84515 0
M  V30 9528 H 918.503 4.58345 -2.59283 0
M  V30 9529 H 920.994 3.07166 -2.2013 0
M  V30 9530 H 921.307 5.89667 -4.99512 0
M  V30 9531 H 919.652 5.30753 -4.48694 0
M  V30 9532 H 922.843 3.75513 -2.79477 0
M  V30 9533 H 923.016 5.0435 -4.06859 0
M  V30 9534 N 916.422 0.810101 1.35185 0
M  V30 9535 C 917.699 0.315235 1.93043 0
M  V30 9536 C 918.079 -1.19567 1.73974 0
M  V30 9537 O 917.427 -1.99682 1.11083 0
M  V30 9538 C 917.637 0.730492 3.41269 0
M  V30 9539 C 918.985 0.721985 4.18417 0
M  V30 9540 O 920.009 0.672258 3.49799 0
M  V30 9541 O 918.868 0.783535 5.40854 0
M  V30 9542 H 915.962 0.0832774 0.822796 0
M  V30 9543 H 918.508 0.894034 1.4424 0
M  V30 9544 H 917.28 1.77169 3.48894 0
M  V30 9545 H 916.903 0.12669 3.97398 0
M  V30 9546 N 917.9 -1.47166 0.563914 0
M  V30 9547 C 919.146 -2.02756 0.0424338 0
M  V30 9548 C 919.479 -1.43662 -1.3067 0
M  V30 9549 O 918.754 -0.594676 -1.85186 0
M  V30 9550 C 919.037 -3.60074 -0.0434793 0
M  V30 9551 C 918.89 -4.29587 1.33323 0
M  V30 9552 C 920.209 -4.336 -0.753568 0
M  V30 9553 H 917.328 -0.736806 0.0168946 0
M  V30 9554 H 919.97 -1.75521 0.727496 0
M  V30 9555 H 918.12 -3.83409 -0.626906 0
M  V30 9556 H 919.792 -4.17573 1.96037 0
M  V30 9557 H 918.035 -3.8968 1.9061 0
M  V30 9558 H 918.706 -5.38218 1.22576 0
M  V30 9559 H 921.182 -4.15299 -0.258126 0
M  V30 9560 H 920.058 -5.43291 -0.782659 0
M  V30 9561 H 920.319 -4.03302 -1.81108 0
M  V30 9562 N 919.378 -0.300708 -1.54705 0
M  V30 9563 C 920.606 0.31127 -2.04545 0
M  V30 9564 C 921.021 1.47542 -1.178 0
M  V30 9565 O 920.378 1.81361 -0.203571 0
M  V30 9566 C 920.429 0.767783 -3.53253 0
M  V30 9567 O 920.15 -0.350027 -4.36699 0
M  V30 9568 C 921.651 1.44494 -4.1909 0
M  V30 9569 H 918.871 0.067668 -0.667579 0
M  V30 9570 H 921.415 -0.440254 -1.99705 0
M  V30 9571 H 919.57 1.46933 -3.58454 0
M  V30 9572 H 919.984 0.00534038 -5.245 0
M  V30 9573 H 921.458 1.71553 -5.24665 0
M  V30 9574 H 921.935 2.3849 -3.68808 0
M  V30 9575 H 922.541 0.786581 -4.17963 0
M  V30 9576 N 920.856 1.57574 -0.0284266 0
M  V30 9577 C 922.133 1.83064 0.688979 0
M  V30 9578 C 922.513 0.91219 1.90374 0
M  V30 9579 O 921.861 -0.0323672 2.28477 0
M  V30 9580 C 922.071 3.32262 1.06785 0
M  V30 9581 C 923.419 3.98717 1.45978 0
M  V30 9582 O 924.443 3.36753 1.16085 0
M  V30 9583 O 923.302 5.07927 2.01673 0
M  V30 9584 H 920.396 0.7548 0.337944 0
M  V30 9585 H 922.942 1.69607 -0.0560555 0
M  V30 9586 H 921.714 3.90772 0.203235 0
M  V30 9587 H 921.337 3.50823 1.87107 0
M  V30 9588 N 922.334 -0.244713 1.55689 0
M  V30 9589 C 923.244 -1.32447 1.93636 0
M  V30 9590 C 924.26 -1.52541 0.837086 0
M  V30 9591 O 925.436 -1.66121 1.13867 0
M  V30 9592 C 922.501 -2.65864 2.22525 0
M  V30 9593 C 921.562 -2.54273 3.45896 0
M  V30 9594 C 920.795 -3.81327 3.73397 0
M  V30 9595 O 921.018 -4.83307 3.02936 0
M  V30 9596 O 919.952 -3.79829 4.66919 0
M  V30 9597 H 923.778 -1.03255 2.85608 0
M  V30 9598 H 921.363 -0.445652 1.42598 0
M  V30 9599 H 923.245 -3.447 2.42404 0
M  V30 9600 H 921.92 -2.94784 1.33731 0
M  V30 9601 H 920.827 -1.73715 3.31321 0
M  V30 9602 H 922.16 -2.30297 4.34999 0
M  V30 9603 N 923.813 -1.49104 -0.510467 0
M  V30 9604 C 925.09 -1.48609 -1.27179 0
M  V30 9605 C 925.47 -0.208537 -2.10067 0
M  V30 9606 O 924.818 0.809335 -2.13687 0
M  V30 9607 C 925.028 -2.75953 -2.1366 0
M  V30 9608 C 926.376 -3.25067 -2.73161 0
M  V30 9609 O 927.4 -2.77005 -2.23934 0
M  V30 9610 O 926.259 -4.08747 -3.62751 0
M  V30 9611 H 923.353 -0.594374 -0.57502 0
M  V30 9612 H 925.899 -1.61358 -0.525515 0
M  V30 9613 H 924.671 -3.60434 -1.52325 0
M  V30 9614 H 924.294 -2.66019 -2.95499 0
M  V30 9615 N 925.291 0.760815 -1.38019 0
M  V30 9616 C 926.54 1.51506 -1.3315 0
M  V30 9617 C 926.853 1.95444 0.0782124 0
M  V30 9618 O 928.059 2.70352 0.249418 0
M  V30 9619 C 926.515 2.73636 -2.33776 0
M  V30 9620 C 926.123 2.36753 -3.80332 0
M  V30 9621 C 927.867 3.51548 -2.37937 0
M  V30 9622 C 925.774 3.55451 -4.72661 0
M  V30 9623 H 924.704 0.568844 -0.494907 0
M  V30 9624 H 927.355 0.832343 -1.63537 0
M  V30 9625 H 925.737 3.43852 -1.96422 0
M  V30 9626 H 926.911 1.7425 -4.26584 0
M  V30 9627 H 925.226 1.71991 -3.7922 0
M  V30 9628 H 927.823 4.39791 -3.04119 0
M  V30 9629 H 928.166 3.9219 -1.39617 0
M  V30 9630 H 928.699 2.88339 -2.74054 0
M  V30 9631 H 925.438 3.19882 -5.7215 0
M  V30 9632 H 924.958 4.17022 -4.31107 0
M  V30 9633 H 926.637 4.22125 -4.90326 0
M  V30 9634 N 926.769 1.22769 0.988202 0
M  V30 9635 C 928.018 1.0492 1.72263 0
M  V30 9636 C 928.331 -0.415282 1.91141 0
M  V30 9637 O 929.537 -0.713547 2.61956 0
M  V30 9638 C 927.993 1.82891 3.09966 0
M  V30 9639 C 927.601 3.33618 2.99003 0
M  V30 9640 C 929.345 1.73505 3.87423 0
M  V30 9641 C 927.252 4.04012 4.3189 0
M  V30 9642 H 926.182 0.38899 0.645912 0
M  V30 9643 H 928.833 1.46664 1.10281 0
M  V30 9644 H 927.215 1.33948 3.72658 0
M  V30 9645 H 928.389 3.8999 2.45448 0
M  V30 9646 H 926.704 3.43732 2.35027 0
M  V30 9647 H 929.301 2.23416 4.85787 0
M  V30 9648 H 929.644 0.696344 4.10435 0
M  V30 9649 H 930.177 2.20016 3.31418 0
M  V30 9650 H 926.916 5.08155 4.14075 0
M  V30 9651 H 926.436 3.52428 4.8534 0
M  V30 9652 H 928.115 4.0987 5.00615 0
M  V30 9653 N 928.247 -1.18576 1.03814 0
M  V30 9654 C 929.195 -2.24166 0.620678 0
M  V30 9655 C 930.189 -1.65718 -0.351282 0
M  V30 9656 O 931.395 -1.78665 -0.218848 0
M  V30 9657 H 927.77 -0.729522 0.182487 0
M  V30 9658 H 929.741 -2.56686 1.52166 0
M  V30 9659 C 928.49 -3.477 -0.00307331 0
M  V30 9660 H 927.813 -3.92969 0.735874 0
M  V30 9661 H 929.253 -4.23214 -0.257988 0
M  V30 9662 C 927.712 -3.12757 -1.2524 0
M  V30 9663 O 928.242 -3.26261 -2.34344 0
M  V30 9664 N 926.448 -2.67104 -1.14471 0
M  V30 9665 H 925.995 -2.56316 -0.256873 0
M  V30 9666 H 925.953 -2.44096 -1.98153 0
M  V30 9667 N 929.725 -0.817259 -1.34754 0
M  V30 9668 C 930.971 -0.412407 -1.99175 0
M  V30 9669 C 931.326 1.01192 -1.6364 0
M  V30 9670 O 930.619 1.69417 -0.894897 0
M  V30 9671 C 930.813 -0.5453 -3.53216 0
M  V30 9672 C 930.642 -1.981 -4.03716 0
M  V30 9673 C 929.412 -2.61167 -4.32574 0
M  V30 9674 C 931.61 -2.94698 -4.21494 0
M  V30 9675 N 929.592 -3.96035 -4.69073 0
M  V30 9676 C 930.963 -4.14462 -4.61109 0
M  V30 9677 C 933.018 -2.9139 -4.03728 0
M  V30 9678 C 931.721 -5.31363 -4.84815 0
M  V30 9679 C 933.747 -4.07502 -4.28598 0
M  V30 9680 C 933.109 -5.26016 -4.68494 0
M  V30 9681 H 929.208 -0.198899 -0.756282 0
M  V30 9682 H 931.792 -1.06076 -1.63266 0
M  V30 9683 H 929.963 0.073122 -3.88331 0
M  V30 9684 H 931.695 -0.113999 -4.04539 0
M  V30 9685 H 928.45 -2.12446 -4.23277 0
M  V30 9686 H 928.874 -4.65502 -4.91566 0
M  V30 9687 H 933.516 -2.00908 -3.72016 0
M  V30 9688 H 931.234 -6.22408 -5.15397 0
M  V30 9689 H 934.82 -4.06335 -4.16393 0
M  V30 9690 H 933.7 -6.14369 -4.87361 0
M  V30 9691 N 931.203 1.46865 -0.571711 0
M  V30 9692 C 932.136 2.27176 0.215944 0
M  V30 9693 C 933.114 1.34951 0.907035 0
M  V30 9694 O 934.298 1.64349 0.923127 0
M  V30 9695 C 931.425 3.12388 1.30888 0
M  V30 9696 C 930.471 4.20296 0.724804 0
M  V30 9697 S 931.304 5.33691 -0.439839 0
M  V30 9698 C 932.46 6.22468 0.654564 0
M  V30 9699 H 932.693 2.93633 -0.465518 0
M  V30 9700 H 930.226 1.50184 -0.358351 0
M  V30 9701 H 932.184 3.62049 1.93471 0
M  V30 9702 H 930.845 2.45265 1.96224 0
M  V30 9703 H 930.038 4.79703 1.54599 0
M  V30 9704 H 929.64 3.73591 0.174861 0
M  V30 9705 H 931.932 6.59694 1.54304 0
M  V30 9706 H 932.875 7.08033 0.0975111 0
M  V30 9707 H 933.283 5.56384 0.953762 0
M  V30 9708 N 932.681 0.308908 1.54543 0
M  V30 9709 C 933.614 -0.605854 2.20011 0
M  V30 9710 C 934.592 -1.1269 1.17216 0
M  V30 9711 O 935.776 -1.19363 1.45893 0
M  V30 9712 C 932.903 -1.82977 2.85021 0
M  V30 9713 C 931.949 -1.44126 4.0141 0
M  V30 9714 S 932.782 -0.490445 5.33249 0
M  V30 9715 C 933.938 -1.72198 6.01746 0
M  V30 9716 H 934.171 -0.0496911 2.97258 0
M  V30 9717 H 931.704 0.0930238 1.5412 0
M  V30 9718 H 933.662 -2.53211 3.23102 0
M  V30 9719 H 932.323 -2.35711 2.07604 0
M  V30 9720 H 931.516 -2.35288 4.45708 0
M  V30 9721 H 931.118 -0.818788 3.64927 0
M  V30 9722 H 933.41 -2.66147 6.23034 0
M  V30 9723 H 934.353 -1.32142 6.95661 0
M  V30 9724 H 934.761 -1.90229 5.31482 0
M  V30 9725 N 934.159 -1.57557 0.0367827 0
M  V30 9726 C 935.408 -1.91291 -0.639569 0
M  V30 9727 C 935.721 -0.915601 -1.72847 0
M  V30 9728 O 936.927 -1.14447 -2.46199 0
M  V30 9729 C 935.383 -3.39697 -1.18888 0
M  V30 9730 C 934.991 -4.47803 -0.132851 0
M  V30 9731 C 936.735 -3.82487 -1.8413 0
M  V30 9732 C 934.642 -5.87311 -0.694229 0
M  V30 9733 H 933.572 -0.713886 -0.242658 0
M  V30 9734 H 936.223 -1.83209 0.103332 0
M  V30 9735 H 934.605 -3.42736 -1.98363 0
M  V30 9736 H 935.779 -4.56334 0.640009 0
M  V30 9737 H 934.094 -4.14264 0.421264 0
M  V30 9738 H 936.691 -4.84076 -2.27101 0
M  V30 9739 H 937.034 -3.17959 -2.68716 0
M  V30 9740 H 937.567 -3.81903 -1.11332 0
M  V30 9741 H 934.306 -6.55401 0.113667 0
M  V30 9742 H 933.826 -5.82371 -1.4354 0
M  V30 9743 H 935.505 -6.36119 -1.1816 0
M  V30 9744 N 935.637 0.236453 -1.55816 0
M  V30 9745 C 937.048 0.80468 -1.68469 0
M  V30 9746 C 937.399 1.85601 -0.636133 0
M  V30 9747 O 936.524 2.15323 0.215622 0
M  V30 9748 C 937.119 1.46634 -3.05424 0
M  V30 9749 C 935.678 1.98214 -3.19981 0
M  V30 9750 C 934.825 0.83695 -2.64368 0
M  V30 9751 H 937.776 0.0120647 -1.58695 0
M  V30 9752 H 937.797 2.33472 -3.00451 0
M  V30 9753 H 937.309 0.700931 -3.81718 0
M  V30 9754 H 935.41 2.77604 -2.4853 0
M  V30 9755 H 935.523 2.17235 -4.2702 0
M  V30 9756 H 933.887 1.24028 -2.22462 0
M  V30 9757 H 934.67 0.084451 -3.43196 0
M  V30 9758 N 937.115 1.49373 0.502552 0
M  V30 9759 C 938.045 1.68839 1.61294 0
M  V30 9760 C 939.026 0.537096 1.61398 0
M  V30 9761 O 940.211 0.772764 1.78163 0
M  V30 9762 C 937.341 1.75347 2.99784 0
M  V30 9763 C 936.295 2.90251 3.14545 0
M  V30 9764 C 935.621 2.8187 4.54371 0
M  V30 9765 C 936.921 4.31207 2.94717 0
M  V30 9766 H 938.615 2.61803 1.45257 0
M  V30 9767 H 936.161 1.25987 0.697371 0
M  V30 9768 H 938.114 1.87552 3.77362 0
M  V30 9769 H 936.838 0.789814 3.16906 0
M  V30 9770 H 935.497 2.77646 2.39392 0
M  V30 9771 H 935.145 1.83416 4.68367 0
M  V30 9772 H 934.845 3.5899 4.65188 0
M  V30 9773 H 936.369 2.96081 5.34012 0
M  V30 9774 H 937.783 4.44501 3.62065 0
M  V30 9775 H 936.18 5.09536 3.17007 0
M  V30 9776 H 937.25 4.45759 1.90857 0
M  V30 9777 N 938.594 -0.753485 1.38421 0
M  V30 9778 C 939.834 -1.52544 1.3605 0
M  V30 9779 C 940.198 -1.91937 -0.0493257 0
M  V30 9780 O 941.399 -2.6807 -0.197908 0
M  V30 9781 C 939.67 -2.74432 2.28958 0
M  V30 9782 S 941.229 -3.64297 2.44607 0
M  V30 9783 H 938.047 -0.522017 0.48272 0
M  V30 9784 H 940.649 -0.884503 1.74347 0
M  V30 9785 H 939.353 -2.43602 3.30282 0
M  V30 9786 H 938.884 -3.43471 1.91811 0
M  V30 9787 H 940.899 -4.67245 1.67022 0
M  V30 9788 N 940.072 -1.23292 -0.981677 0
M  V30 9789 C 941.002 -1.03738 -2.09191 0
M  V30 9790 C 941.983 0.0453041 -1.7004 0
M  V30 9791 O 943.168 -0.119092 -1.93834 0
M  V30 9792 C 940.298 -0.626426 -3.41604 0
M  V30 9793 C 939.252 -1.65631 -3.94652 0
M  V30 9794 C 938.578 -1.10084 -5.23245 0
M  V30 9795 C 939.878 -3.04903 -4.24066 0
M  V30 9796 H 941.572 -1.966 -2.25807 0
M  V30 9797 H 939.118 -0.946656 -1.0851 0
M  V30 9798 H 941.071 -0.476689 -4.18695 0
M  V30 9799 H 939.795 0.337873 -3.24848 0
M  V30 9800 H 938.454 -1.79402 -3.19704 0
M  V30 9801 H 938.102 -0.127562 -5.02838 0
M  V30 9802 H 937.802 -1.78896 -5.59705 0
M  V30 9803 H 939.326 -0.962928 -6.02959 0
M  V30 9804 H 940.74 -2.94441 -4.91912 0
M  V30 9805 H 939.137 -3.70941 -4.71724 0
M  V30 9806 H 940.207 -3.53991 -3.31389 0
M  V30 9807 N 941.55 1.18024 -1.04442 0
M  V30 9808 C 942.46 2.25436 -0.649276 0
M  V30 9809 C 943.476 1.70915 0.326189 0
M  V30 9810 O 944.652 2.00592 0.180174 0
M  V30 9811 C 941.717 3.46693 -0.0222558 0
M  V30 9812 C 940.778 4.16332 -1.0472 0
M  V30 9813 C 940.011 5.31799 -0.450011 0
M  V30 9814 O 940.234 5.65544 0.742717 0
M  V30 9815 O 939.168 5.90209 -1.18056 0
M  V30 9816 H 942.994 2.61508 -1.54426 0
M  V30 9817 H 940.579 1.25178 -0.81552 0
M  V30 9818 H 942.461 4.20132 0.326597 0
M  V30 9819 H 941.136 3.12436 0.84649 0
M  V30 9820 H 940.043 3.44944 -1.44792 0
M  V30 9821 H 941.376 4.54598 -1.88684 0
M  V30 9822 N 943.028 0.824394 1.34319 0
M  V30 9823 C 944.256 0.426194 2.02463 0
M  V30 9824 C 944.671 -0.968298 1.62078 0
M  V30 9825 O 944.028 -1.62689 0.82696 0
M  V30 9826 C 944.079 0.520465 3.57734 0
M  V30 9827 O 943.8 1.86 3.96656 0
M  V30 9828 C 945.301 0.117353 4.43145 0
M  V30 9829 H 942.521 0.170864 0.648881 0
M  V30 9830 H 945.065 1.11296 1.71562 0
M  V30 9831 H 943.22 -0.118233 3.8722 0
M  V30 9832 H 943.634 1.83528 4.91343 0
M  V30 9833 H 945.108 0.234395 5.51502 0
M  V30 9834 H 945.585 -0.939271 4.29039 0
M  V30 9835 H 946.191 0.729908 4.1899 0
M  V30 9836 N 944.506 -1.46559 0.579492 0
M  V30 9837 C 945.752 -2.02699 0.0639363 0
M  V30 9838 C 946.085 -1.4504 -1.29139 0
M  V30 9839 O 945.36 -0.614284 -1.84545 0
M  V30 9840 C 945.643 -3.601 -0.00528618 0
M  V30 9841 C 945.496 -4.28149 1.37871 0
M  V30 9842 C 946.815 -4.34375 -0.707537 0
M  V30 9843 H 943.934 -0.736586 0.0247085 0
M  V30 9844 H 946.576 -1.74739 0.746071 0
M  V30 9845 H 944.726 -3.84052 -0.586206 0
M  V30 9846 H 946.398 -4.1547 2.00455 0
M  V30 9847 H 944.641 -3.87636 1.94732 0
M  V30 9848 H 945.312 -5.36888 1.28278 0
M  V30 9849 H 947.788 -4.15549 -0.214064 0
M  V30 9850 H 946.664 -5.44091 -0.724992 0
M  V30 9851 H 946.925 -4.052 -1.7682 0
M  V30 9852 N 945.984 -0.3171 -1.54377 0
M  V30 9853 C 947.4 0.035766 -1.5956 0
M  V30 9854 C 947.6 1.51038 -1.33378 0
M  V30 9855 O 946.656 2.26546 -1.11505 0
M  V30 9856 C 947.969 -0.376652 -2.98332 0
M  V30 9857 C 949.517 -0.326765 -3.1129 0
M  V30 9858 C 949.992 -0.714247 -4.52396 0
M  V30 9859 N 951.483 -0.667402 -4.58367 0
M  V30 9860 C 952.218 -0.939494 -5.65651 0
M  V30 9861 N 951.714 -1.27839 -6.80903 0
M  V30 9862 N 953.507 -0.865484 -5.55397 0
M  V30 9863 H 945.658 -1.27794 -1.69654 0
M  V30 9864 H 947.921 -0.5192 -0.79318 0
M  V30 9865 H 947.627 -1.40381 -3.22469 0
M  V30 9866 H 947.501 0.261611 -3.76292 0
M  V30 9867 H 949.888 0.69117 -2.86892 0
M  V30 9868 H 949.969 -0.999873 -2.35449 0
M  V30 9869 H 949.613 -1.73007 -4.77526 0
M  V30 9870 H 949.543 -0.0188962 -5.26597 0
M  V30 9871 H 952.034 -0.417062 -3.75592 0
M  V30 9872 H 952.347 -1.47155 -7.5866 0
M  V30 9873 H 950.692 -1.31658 -6.82416 0
M  V30 9874 H 953.883 -0.600265 -4.64235 0
M  V30 9875 H 954.056 -1.0809 -6.38921 0
M  V30 9876 N 947.462 1.57535 -0.0451378 0
M  V30 9877 C 948.702 1.9432 0.633955 0
M  V30 9878 C 949.066 0.922924 1.68363 0
M  V30 9879 O 950.267 1.17751 2.41636 0
M  V30 9880 C 948.538 3.35933 1.21999 0
M  V30 9881 S 950.097 3.94666 1.91793 0
M  V30 9882 H 946.915 0.679798 0.208318 0
M  V30 9883 H 949.517 1.95175 -0.112633 0
M  V30 9884 H 948.221 4.07993 0.443821 0
M  V30 9885 H 947.752 3.38559 2.00353 0
M  V30 9886 H 949.767 3.79401 3.19796 0
M  V30 9887 N 948.94 -0.228186 1.55939 0
M  V30 9888 C 949.87 -1.28607 1.94891 0
M  V30 9889 C 950.851 -1.49236 0.816245 0
M  V30 9890 O 952.036 -1.61531 1.07803 0
M  V30 9891 C 949.166 -2.63719 2.25986 0
M  V30 9892 C 948.12 -2.57757 3.4168 0
M  V30 9893 C 947.446 -3.96837 3.58364 0
M  V30 9894 C 948.746 -2.13116 4.76843 0
M  V30 9895 H 950.44 -0.962531 2.83506 0
M  V30 9896 H 947.986 -0.461577 1.36402 0
M  V30 9897 H 949.939 -3.37878 2.51826 0
M  V30 9898 H 948.663 -2.97747 1.34217 0
M  V30 9899 H 947.322 -1.86055 3.15878 0
M  V30 9900 H 946.97 -4.28162 2.63982 0
M  V30 9901 H 946.67 -3.93731 4.36176 0
M  V30 9902 H 948.194 -4.72668 3.86545 0
M  V30 9903 H 949.608 -2.77015 5.01932 0
M  V30 9904 H 948.005 -2.21083 5.57891 0
M  V30 9905 H 949.075 -1.08326 4.72645 0
M  V30 9906 N 950.418 -1.49637 -0.494624 0
M  V30 9907 C 951.328 -1.69522 -1.62172 0
M  V30 9908 C 952.344 -0.577894 -1.64123 0
M  V30 9909 O 953.52 -0.853382 -1.82426 0
M  V30 9910 C 950.585 -1.7633 -2.9851 0
M  V30 9911 C 949.646 -2.99944 -3.07135 0
M  V30 9912 C 948.879 -3.06419 -4.36971 0
M  V30 9913 O 949.102 -2.20312 -5.26136 0
M  V30 9914 O 948.036 -3.9894 -4.507 0
M  V30 9915 H 951.862 -2.65017 -1.48324 0
M  V30 9916 H 949.447 -1.33454 -0.671603 0
M  V30 9917 H 951.329 -1.83125 -3.7953 0
M  V30 9918 H 950.004 -0.840155 -3.12607 0
M  V30 9919 H 948.911 -2.98664 -2.2528 0
M  V30 9920 H 950.244 -3.9176 -2.97968 0
M  V30 9921 N 951.896 0.746133 -1.38819 0
M  V30 9922 C 953.173 1.49652 -1.25951 0
M  V30 9923 C 953.553 2.10663 0.135833 0
M  V30 9924 O 952.901 1.97682 1.14604 0
M  V30 9925 C 953.111 2.5569 -2.37537 0
M  V30 9926 C 954.459 3.22385 -2.76321 0
M  V30 9927 O 955.483 2.65998 -2.36904 0
M  V30 9928 O 954.342 4.2439 -3.44319 0
M  V30 9929 H 951.436 0.664019 -0.492958 0
M  V30 9930 H 953.982 0.780908 -1.50665 0
M  V30 9931 H 952.754 2.08908 -3.30867 0
M  V30 9932 H 952.377 3.34823 -2.14427 0
M  V30 9933 N 953.375 1.23811 0.975125 0
M  V30 9934 C 954.623 1.07124 1.71373 0
M  V30 9935 C 954.944 -0.391864 1.91022 0
M  V30 9936 O 954.214 -1.28041 1.48265 0
M  V30 9937 H 952.794 0.393415 0.635007 0
M  V30 9938 H 955.456 1.55612 1.17349 0
M  V30 9939 H 954.552 1.56338 2.7012 0
M  V30 9940 N 954.853 -1.17469 1.05066 0
M  V30 9941 C 956.102 -1.87032 0.755114 0
M  V30 9942 C 956.415 -1.81844 -0.720572 0
M  V30 9943 O 957.621 -2.46866 -1.13002 0
M  V30 9944 C 956.077 -3.35581 1.30052 0
M  V30 9945 C 955.685 -3.49274 2.80556 0
M  V30 9946 C 957.429 -4.1048 1.08196 0
M  V30 9947 C 955.336 -4.91838 3.28404 0
M  V30 9948 H 954.266 -0.70057 0.278779 0
M  V30 9949 H 956.917 -1.32663 1.26779 0
M  V30 9950 H 955.299 -3.89479 0.715667 0
M  V30 9951 H 956.473 -3.05598 3.44886 0
M  V30 9952 H 954.788 -2.87793 3.00939 0
M  V30 9953 H 957.385 -5.15652 1.41447 0
M  V30 9954 H 957.728 -4.16295 0.0196603 0
M  V30 9955 H 958.261 -3.62784 1.63195 0
M  V30 9956 H 955 -4.91196 4.34058 0
M  V30 9957 H 954.52 -5.36189 2.68815 0
M  V30 9958 H 956.199 -5.60602 3.23009 0
M  V30 9959 N 956.331 -0.831506 -1.3388 0
M  V30 9960 C 957.577 -0.424302 -1.98312 0
M  V30 9961 C 957.91 1.01211 -1.65741 0
M  V30 9962 O 957.185 1.70636 -0.933464 0
M  V30 9963 C 957.468 -0.636815 -3.54424 0
M  V30 9964 C 957.321 -2.11997 -3.96708 0
M  V30 9965 C 958.64 -0.0782411 -4.4003 0
M  V30 9966 H 955.759 -0.155637 -0.720379 0
M  V30 9967 H 958.401 -1.04566 -1.58638 0
M  V30 9968 H 956.551 -0.107907 -3.8835 0
M  V30 9969 H 958.223 -2.71317 -3.73075 0
M  V30 9970 H 956.466 -2.60723 -3.46707 0
M  V30 9971 H 957.137 -2.21944 -5.05416 0
M  V30 9972 H 959.613 -0.530243 -4.12708 0
M  V30 9973 H 958.489 -0.256676 -5.483 0
M  V30 9974 H 958.75 1.01745 -4.30233 0
M  V30 9975 N 957.809 1.4625 -0.587256 0
M  V30 9976 C 958.719 2.34147 0.145744 0
M  V30 9977 C 959.735 1.50026 0.881376 0
M  V30 9978 O 960.911 1.82884 0.843539 0
M  V30 9979 C 957.976 3.27294 1.14366 0
M  V30 9980 C 957.037 4.27317 0.412199 0
M  V30 9981 C 956.27 5.16013 1.36257 0
M  V30 9982 O 956.493 5.0773 2.59934 0
M  V30 9983 O 955.427 5.95569 0.870681 0
M  V30 9984 H 959.253 2.98187 -0.576055 0
M  V30 9985 H 956.838 1.45299 -0.347628 0
M  V30 9986 H 958.72 3.84747 1.71894 0
M  V30 9987 H 957.395 2.65845 1.84684 0
M  V30 9988 H 956.302 3.73538 -0.205036 0
M  V30 9989 H 957.635 4.91564 -0.250104 0
M  V30 9990 N 959.287 0.325282 1.54207 0
M  V30 9991 C 960.515 -0.27869 2.05014 0
M  V30 9992 C 960.93 -1.45649 1.20133 0
M  V30 9993 O 960.287 -1.81014 0.232398 0
M  V30 9994 C 960.338 -0.711486 3.54429 0
M  V30 9995 O 960.059 0.419458 4.36087 0
M  V30 9996 C 961.56 -1.37809 4.21336 0
M  V30 9997 H 958.78 -0.0570388 0.668571 0
M  V30 9998 H 961.324 0.47197 1.98979 0
M  V30 9999 H 959.479 -1.41212 3.60746 0
M  V30 10000 H 959.893 0.0781037 5.24442 0
M  V30 10001 H 961.367 -1.63184 5.27328 0
M  V30 10002 H 961.844 -2.32593 3.72555 0
M  V30 10003 H 962.45 -0.719987 4.19161 0
M  V30 10004 N 960.765 -1.57509 0.0534917 0
M  V30 10005 C 961.728 -2.10563 -0.905307 0
M  V30 10006 C 962.728 -1.02571 -1.23838 0
M  V30 10007 O 963.918 -1.28635 -1.17468 0
M  V30 10008 C 961.05 -2.5918 -2.21447 0
M  V30 10009 H 962.243 -2.96575 -0.445354 0
M  V30 10010 H 959.796 -1.55079 -0.194947 0
M  V30 10011 H 960.531 -1.76568 -2.72019 0
M  V30 10012 H 960.316 -3.38098 -1.98575 0
M  V30 10013 H 961.806 -3.00365 -2.90122 0
M  V30 10014 N 962.243 0.219913 -1.56058 0
M  V30 10015 C 963.206 1.25606 -1.91718 0
M  V30 10016 C 964.206 1.39721 -0.795912 0
M  V30 10017 O 965.396 1.37958 -1.06364 0
M  V30 10018 C 962.528 2.62961 -2.16943 0
M  V30 10019 H 963.721 0.951909 -2.84392 0
M  V30 10020 H 961.274 0.460398 -1.49365 0
M  V30 10021 H 962.009 2.98472 -1.26826 0
M  V30 10022 H 961.794 2.54093 -2.98629 0
M  V30 10023 H 963.284 3.37727 -2.45622 0
M  V30 10024 N 963.721 1.49897 0.486681 0
M  V30 10025 C 964.631 1.70379 1.6127 0
M  V30 10026 C 965.647 0.58659 1.63814 0
M  V30 10027 O 966.823 0.863044 1.81971 0
M  V30 10028 C 963.888 1.77911 2.97571 0
M  V30 10029 C 962.949 3.01569 3.0554 0
M  V30 10030 C 962.182 3.08732 4.35339 0
M  V30 10031 O 962.405 2.23099 5.2496 0
M  V30 10032 O 961.339 4.01325 4.48578 0
M  V30 10033 H 965.165 2.65799 1.46916 0
M  V30 10034 H 962.75 1.33808 0.664516 0
M  V30 10035 H 964.632 1.85135 3.78554 0
M  V30 10036 H 963.307 0.856722 3.12157 0
M  V30 10037 H 962.214 2.99854 2.23693 0
M  V30 10038 H 963.547 3.93335 2.95886 0
M  V30 10039 N 965.199 -0.738761 1.39212 0
M  V30 10040 C 966.162 -1.83441 1.37412 0
M  V30 10041 C 967.162 -1.58484 0.271908 0
M  V30 10042 O 968.352 -1.65954 0.529609 0
M  V30 10043 C 965.484 -3.21167 1.143 0
M  V30 10044 H 966.677 -1.86441 2.34904 0
M  V30 10045 H 964.23 -0.942023 1.24722 0
M  V30 10046 H 964.965 -3.23829 0.174756 0
M  V30 10047 H 964.75 -3.40678 1.94116 0
M  V30 10048 H 966.24 -4.01231 1.15773 0
M  V30 10049 N 966.677 -1.24326 -0.968545 0
M  V30 10050 C 967.954 -0.990459 -1.68669 0
M  V30 10051 C 968.334 0.487487 -2.05394 0
M  V30 10052 O 967.682 1.46158 -1.75642 0
M  V30 10053 C 967.892 -1.91251 -2.91931 0
M  V30 10054 C 969.24 -2.18291 -3.6419 0
M  V30 10055 O 970.264 -1.88897 -3.01987 0
M  V30 10056 O 969.123 -2.68204 -4.76161 0
M  V30 10057 H 966.217 -0.374515 -0.737338 0
M  V30 10058 H 968.763 -1.35421 -1.02271 0
M  V30 10059 H 967.535 -2.9111 -2.61478 0
M  V30 10060 H 967.158 -1.55188 -3.66064 0
M  V30 10061 N 968.156 1.1691 -1.05688 0
M  V30 10062 C 969.089 2.19992 -0.606539 0
M  V30 10063 C 970.067 1.58393 0.367483 0
M  V30 10064 O 971.251 1.8644 0.277914 0
M  V30 10065 C 968.378 3.38516 0.111663 0
M  V30 10066 C 967.424 4.18579 -0.818153 0
M  V30 10067 S 968.257 4.83111 -2.31006 0
M  V30 10068 C 969.413 6.0502 -1.60317 0
M  V30 10069 H 969.646 2.57851 -1.47987 0
M  V30 10070 H 967.179 1.27604 -0.869291 0
M  V30 10071 H 969.137 4.07195 0.519829 0
M  V30 10072 H 967.798 2.99034 0.961103 0
M  V30 10073 H 966.991 5.03318 -0.262092 0
M  V30 10074 H 966.593 3.55362 -1.16592 0
M  V30 10075 H 968.885 6.71424 -0.905309 0
M  V30 10076 H 969.828 6.65164 -2.42823 0
M  V30 10077 H 970.236 5.53908 -1.08842 0
M  V30 10078 N 969.634 0.838594 1.33437 0
M  V30 10079 C 970.882 0.433312 1.974 0
M  V30 10080 C 971.203 -1.01078 1.66758 0
M  V30 10081 O 970.473 -1.70406 0.966373 0
M  V30 10082 H 969.053 0.15724 0.730263 0
M  V30 10083 H 971.715 1.07149 1.62804 0
M  V30 10084 H 970.811 0.565144 3.06941 0
M  V30 10085 N 971.112 -1.45937 0.595003 0
M  V30 10086 C 972.042 -2.33198 -0.11871 0
M  V30 10087 C 973.023 -1.46083 -0.871423 0
M  V30 10088 O 974.208 -1.74879 -0.844461 0
M  V30 10089 C 971.338 -3.28576 -1.12495 0
M  V30 10090 C 970.292 -4.25229 -0.486275 0
M  V30 10091 C 969.618 -5.10204 -1.59986 0
M  V30 10092 C 970.918 -5.19019 0.584473 0
M  V30 10093 H 972.612 -2.93122 0.609886 0
M  V30 10094 H 970.158 -1.40951 0.294742 0
M  V30 10095 H 972.111 -3.88485 -1.6327 0
M  V30 10096 H 970.835 -2.66784 -1.88398 0
M  V30 10097 H 969.494 -3.666 0.000507962 0
M  V30 10098 H 969.142 -4.44789 -2.34886 0
M  V30 10099 H 968.842 -5.75669 -1.1781 0
M  V30 10100 H 970.366 -5.7298 -2.11014 0
M  V30 10101 H 971.78 -5.73073 0.161297 0
M  V30 10102 H 970.177 -5.92893 0.927256 0
M  V30 10103 H 971.247 -4.62208 1.46601 0
M  V30 10104 N 972.59 -0.333456 -1.54032 0
M  V30 10105 C 973.836 0.266527 -2.01041 0
M  V30 10106 C 974.169 1.51006 -1.2211 0
M  V30 10107 O 973.444 1.92078 -0.306016 0
M  V30 10108 C 973.727 0.59078 -3.55221 0
M  V30 10109 C 973.58 -0.664143 -4.4487 0
M  V30 10110 C 974.899 1.40447 -4.17088 0
M  V30 10111 H 972.018 0.0953979 -0.7308 0
M  V30 10112 H 974.66 -0.451995 -1.84545 0
M  V30 10113 H 972.81 1.20292 -3.69408 0
M  V30 10114 H 974.482 -1.30227 -4.42537 0
M  V30 10115 H 972.725 -1.29106 -4.14143 0
M  V30 10116 H 973.396 -0.392664 -5.50602 0
M  V30 10117 H 975.872 0.886946 -4.06537 0
M  V30 10118 H 974.748 1.6001 -5.2506 0
M  V30 10119 H 975.009 2.40357 -3.71054 0
M  V30 10120 N 974.068 1.57479 -0.061844 0
M  V30 10121 C 975.298 1.97142 0.61794 0
M  V30 10122 C 975.706 0.938533 1.64281 0
M  V30 10123 O 975.049 -0.084385 1.83506 0
M  V30 10124 C 975.111 3.33083 1.35263 0
M  V30 10125 C 974.775 4.54447 0.482372 0
M  V30 10126 C 975.772 5.1927 -0.255954 0
M  V30 10127 C 973.457 5.00623 0.410167 0
M  V30 10128 C 975.451 6.28612 -1.05481 0
M  V30 10129 C 973.138 6.09839 -0.392369 0
M  V30 10130 C 974.136 6.73696 -1.12354 0
M  V30 10131 O 973.824 7.80811 -1.91285 0
M  V30 10132 H 973.556 0.653497 0.172969 0
M  V30 10133 H 976.11 2.05002 -0.127781 0
M  V30 10134 H 974.34 3.21808 2.14421 0
M  V30 10135 H 976.029 3.5742 1.92368 0
M  V30 10136 H 976.795 4.84546 -0.209703 0
M  V30 10137 H 972.674 4.50704 0.968883 0
M  V30 10138 H 976.218 6.78385 -1.62602 0
M  V30 10139 H 972.115 6.43997 -0.44022 0
M  V30 10140 H 972.883 7.9764 -1.83611 0
M  V30 10141 N 975.546 -0.211634 1.56173 0
M  V30 10142 C 976.794 -0.932704 1.7929 0
M  V30 10143 C 977.115 -1.84472 0.632076 0
M  V30 10144 O 976.385 -1.92739 -0.350519 0
M  V30 10145 H 974.965 -0.347393 0.661307 0
M  V30 10146 H 977.627 -0.22111 1.93642 0
M  V30 10147 H 976.723 -1.53365 2.71819 0
M  V30 10148 N 977.024 -1.50153 -0.478725 0
M  V30 10149 C 978.273 -1.60002 -1.22809 0
M  V30 10150 C 978.586 -0.302277 -1.9325 0
M  V30 10151 O 979.792 -0.279583 -2.70057 0
M  V30 10152 C 978.248 -2.82402 -2.23108 0
M  V30 10153 C 977.856 -4.19023 -1.58505 0
M  V30 10154 C 979.6 -3.01593 -2.98734 0
M  V30 10155 C 977.507 -5.32618 -2.57045 0
M  V30 10156 H 976.437 -0.595822 -0.462073 0
M  V30 10157 H 979.088 -1.76573 -0.499412 0
M  V30 10158 H 977.47 -2.59373 -2.99235 0
M  V30 10159 H 978.644 -4.52277 -0.882187 0
M  V30 10160 H 976.959 -4.05374 -0.951877 0
M  V30 10161 H 979.556 -3.8363 -3.72468 0
M  V30 10162 H 979.899 -2.1302 -3.57671 0
M  V30 10163 H 980.432 -3.24766 -2.29721 0
M  V30 10164 H 977.171 -6.23321 -2.02858 0
M  V30 10165 H 976.691 -5.03792 -3.25505 0
M  V30 10166 H 978.37 -5.62877 -3.19028 0
M  V30 10167 N 978.502 0.731368 -1.39602 0
M  V30 10168 C 979.75 1.48805 -1.36753 0
M  V30 10169 C 980.071 1.94969 0.034676 0
M  V30 10170 O 979.341 1.69243 0.986591 0
M  V30 10171 H 977.921 0.55203 -0.503261 0
M  V30 10172 H 980.583 0.868013 -1.74504 0
M  V30 10173 H 979.679 2.36844 -2.03252 0
M  V30 10174 N 979.98 1.24838 0.961938 0
M  V30 10175 C 981.227 1.09151 1.70564 0
M  V30 10176 C 981.555 -0.368719 1.90973 0
M  V30 10177 O 980.81 -1.28854 1.47293 0
M  V30 10178 C 981.109 1.78289 3.09754 0
M  V30 10179 C 980.775 3.28216 3.09169 0
M  V30 10180 C 979.437 3.69118 3.08716 0
M  V30 10181 C 981.789 4.24035 3.03058 0
M  V30 10182 C 979.117 5.04263 2.99892 0
M  V30 10183 C 981.469 5.59195 2.95776 0
M  V30 10184 C 980.133 5.99436 2.93655 0
M  V30 10185 H 979.403 0.399414 0.624139 0
M  V30 10186 H 982.05 1.55016 1.12438 0
M  V30 10187 H 980.355 1.24835 3.7138 0
M  V30 10188 H 982.052 1.63612 3.66104 0
M  V30 10189 H 978.642 2.95667 3.10289 0
M  V30 10190 H 982.826 3.93431 3.02532 0
M  V30 10191 H 978.082 5.3463 2.96615 0
M  V30 10192 H 982.256 6.33142 2.90007 0
M  V30 10193 H 979.883 7.04116 2.86573 0
M  V30 10194 N 981.458 -1.16348 1.06306 0
M  V30 10195 C 982.869 -1.68491 0.80422 0
M  V30 10196 C 983.22 -1.84327 -0.672159 0
M  V30 10197 O 982.345 -1.53892 -1.52139 0
M  V30 10198 C 982.94 -3.06048 1.45328 0
M  V30 10199 C 981.499 -3.55311 1.24221 0
M  V30 10200 C 980.646 -2.31291 1.5297 0
M  V30 10201 H 983.597 -1.00708 1.22652 0
M  V30 10202 H 983.618 -3.70451 0.868674 0
M  V30 10203 H 983.13 -2.9449 2.52779 0
M  V30 10204 H 981.231 -3.72128 0.187447 0
M  V30 10205 H 981.344 -4.37397 1.95502 0
M  V30 10206 H 979.708 -2.3631 0.950241 0
M  V30 10207 H 980.491 -2.22331 2.6158 0
M  V30 10208 N 982.937 -0.845659 -1.3299 0
M  V30 10209 C 983.867 -0.298957 -2.31578 0
M  V30 10210 C 984.848 0.597012 -1.59279 0
M  V30 10211 O 986.033 0.519142 -1.87132 0
M  V30 10212 C 983.163 0.521109 -3.43368 0
M  V30 10213 C 982.117 -0.279651 -4.27085 0
M  V30 10214 C 981.443 0.664591 -5.30554 0
M  V30 10215 C 982.743 -1.50046 -5.00283 0
M  V30 10216 H 984.437 -1.12272 -2.77552 0
M  V30 10217 H 981.983 -0.54132 -1.33438 0
M  V30 10218 H 983.936 0.913921 -4.1137 0
M  V30 10219 H 982.66 1.37815 -2.96099 0
M  V30 10220 H 981.319 -0.654106 -3.60717 0
M  V30 10221 H 980.967 1.51822 -4.79541 0
M  V30 10222 H 980.667 0.132871 -5.8745 0
M  V30 10223 H 982.191 1.05477 -6.01421 0
M  V30 10224 H 983.605 -1.18044 -5.61016 0
M  V30 10225 H 982.002 -1.96946 -5.66862 0
M  V30 10226 H 983.072 -2.26659 -4.28665 0
M  V30 10227 N 984.415 1.45619 -0.602734 0
M  V30 10228 C 985.662 2.02272 -0.0960337 0
M  V30 10229 C 985.99 1.47177 1.27159 0
M  V30 10230 O 985.245 0.634593 1.85125 0
M  V30 10231 C 985.544 3.574 -0.00157909 0
M  V30 10232 C 985.21 4.31626 -1.30422 0
M  V30 10233 C 983.872 4.51622 -1.66106 0
M  V30 10234 C 986.224 4.74091 -2.16535 0
M  V30 10235 C 983.552 5.11338 -2.87663 0
M  V30 10236 C 985.904 5.35151 -3.37336 0
M  V30 10237 C 984.568 5.53371 -3.73278 0
M  V30 10238 H 983.838 0.740166 -0.0351412 0
M  V30 10239 H 986.485 1.74744 -0.783382 0
M  V30 10240 H 984.79 3.84179 0.769008 0
M  V30 10241 H 986.487 3.98934 0.406549 0
M  V30 10242 H 983.077 4.16372 -1.01647 0
M  V30 10243 H 987.261 4.5838 -1.90266 0
M  V30 10244 H 982.517 5.23634 -3.15622 0
M  V30 10245 H 986.691 5.67011 -4.04316 0
M  V30 10246 H 984.318 5.99412 -4.67556 0
M  V30 10247 N 985.893 0.34162 1.53853 0
M  V30 10248 C 987.309 -0.0103769 1.59597 0
M  V30 10249 C 987.509 -1.48897 1.35764 0
M  V30 10250 O 986.565 -2.24743 1.15095 0
M  V30 10251 C 987.878 0.424067 2.97695 0
M  V30 10252 C 989.426 0.376247 3.1073 0
M  V30 10253 C 989.901 0.786129 4.51203 0
M  V30 10254 N 991.392 0.74024 4.57247 0
M  V30 10255 C 992.127 1.02937 5.64085 0
M  V30 10256 N 991.623 1.38655 6.78783 0
M  V30 10257 N 993.416 0.953734 5.5395 0
M  V30 10258 H 985.567 1.30477 1.67599 0
M  V30 10259 H 987.83 0.531753 0.78482 0
M  V30 10260 H 987.536 1.45493 3.20195 0
M  V30 10261 H 987.41 -0.201713 3.7666 0
M  V30 10262 H 989.797 -0.645441 2.87955 0
M  V30 10263 H 989.878 1.0372 2.33828 0
M  V30 10264 H 989.522 1.80582 4.74713 0
M  V30 10265 H 989.452 0.102671 5.265 0
M  V30 10266 H 991.943 0.476763 3.7488 0
M  V30 10267 H 992.256 1.59206 7.56223 0
M  V30 10268 H 990.601 1.42498 6.80235 0
M  V30 10269 H 993.792 0.674044 4.63222 0
M  V30 10270 H 993.965 1.18241 6.37121 0
M  V30 10271 N 987.371 -1.57444 0.0701946 0
M  V30 10272 C 988.619 -1.93047 -0.598106 0
M  V30 10273 C 988.94 -0.950841 -1.70247 0
M  V30 10274 O 988.21 0.00127177 -1.959 0
M  V30 10275 H 986.79 -0.712648 -0.223924 0
M  V30 10276 H 989.452 -1.94481 0.127674 0
M  V30 10277 H 988.548 -2.94807 -1.02445 0
M  V30 10278 N 988.849 0.203349 -1.56283 0
M  V30 10279 C 990.097 0.923183 -1.79782 0
M  V30 10280 C 990.418 1.84134 -0.64185 0
M  V30 10281 O 989.688 1.92922 0.340292 0
M  V30 10282 H 988.268 0.343881 -0.66314 0
M  V30 10283 H 990.93 0.210837 -1.93756 0
M  V30 10284 H 990.026 1.51921 -2.72629 0
M  V30 10285 N 990.327 1.50405 0.470755 0
M  V30 10286 C 991.29 1.68741 1.5511 0
M  V30 10287 C 992.29 0.558116 1.50804 0
M  V30 10288 O 993.48 0.825149 1.53418 0
M  V30 10289 C 990.612 1.71295 2.94739 0
M  V30 10290 H 991.805 2.65127 1.40169 0
M  V30 10291 H 989.358 1.39891 0.697156 0
M  V30 10292 H 990.093 0.766029 3.15123 0
M  V30 10293 H 989.878 2.53336 2.99271 0
M  V30 10294 H 991.368 1.87434 3.73173 0
M  V30 10295 N 991.805 -0.723954 1.39988 0
M  V30 10296 C 992.735 -1.85103 1.42335 0
M  V30 10297 C 993.716 -1.6769 0.285297 0
M  V30 10298 O 994.901 -1.87846 0.492716 0
M  V30 10299 C 992.031 -3.22972 1.27697 0
M  V30 10300 C 990.985 -3.55041 2.39018 0
M  V30 10301 C 990.311 -4.91965 2.09462 0
M  V30 10302 C 991.611 -3.56889 3.8135 0
M  V30 10303 H 993.305 -1.83396 2.36656 0
M  V30 10304 H 990.851 -0.880926 1.13911 0
M  V30 10305 H 992.804 -4.01503 1.27958 0
M  V30 10306 H 991.528 -3.25233 0.298487 0
M  V30 10307 H 990.187 -2.78845 2.37993 0
M  V30 10308 H 989.835 -4.90819 1.10025 0
M  V30 10309 H 989.535 -5.14389 2.84038 0
M  V30 10310 H 991.059 -5.7284 2.11391 0
M  V30 10311 H 992.473 -4.25476 3.84243 0
M  V30 10312 H 990.87 -3.90836 4.55376 0
M  V30 10313 H 991.94 -2.56452 4.11534 0
M  V30 10314 N 993.283 -1.25346 -0.955304 0
M  V30 10315 C 994.699 -1.02154 -1.22625 0
M  V30 10316 C 994.899 0.26206 -1.99789 0
M  V30 10317 O 993.955 0.974958 -2.32918 0
M  V30 10318 C 995.268 -2.2443 -2.00129 0
M  V30 10319 C 996.816 -2.29185 -2.13174 0
M  V30 10320 C 997.291 -3.51117 -2.94077 0
M  V30 10321 N 998.782 -3.51509 -3.01655 0
M  V30 10322 C 999.517 -4.42517 -3.64645 0
M  V30 10323 N 999.013 -5.43796 -4.29252 0
M  V30 10324 N 1000.81 -4.302 -3.61779 0
M  V30 10325 H 992.957 -2.07812 -0.439071 0
M  V30 10326 H 995.22 -0.91258 -0.256715 0
M  V30 10327 H 994.926 -3.17717 -1.50827 0
M  V30 10328 H 994.8 -2.27548 -3.00835 0
M  V30 10329 H 997.187 -1.36422 -2.61674 0
M  V30 10330 H 997.268 -2.30087 -1.11775 0
M  V30 10331 H 996.912 -4.44201 -2.46268 0
M  V30 10332 H 996.842 -3.4746 -3.95701 0
M  V30 10333 H 999.333 -2.78245 -2.55711 0
M  V30 10334 H 999.646 -6.09453 -4.75171 0
M  V30 10335 H 997.991 -5.4767 -4.27882 0
M  V30 10336 H 1001.18 -3.50304 -3.10491 0
M  V30 10337 H 1001.36 -5.01323 -4.10584 0
M  V30 10338 N 994.761 1.15782 -1.06922 0
M  V30 10339 C 995.991 1.90079 -0.809545 0
M  V30 10340 C 996.399 1.78028 0.640523 0
M  V30 10341 O 995.742 1.12692 1.45073 0
M  V30 10342 C 995.804 3.41179 -1.13302 0
M  V30 10343 C 995.468 3.77015 -2.5828 0
M  V30 10344 C 996.465 3.78403 -3.56521 0
M  V30 10345 C 994.15 4.07455 -2.93745 0
M  V30 10346 C 996.144 4.09729 -4.88264 0
M  V30 10347 C 993.831 4.38446 -4.25686 0
M  V30 10348 C 994.829 4.39564 -5.22755 0
M  V30 10349 O 994.517 4.69814 -6.52326 0
M  V30 10350 H 994.249 0.609397 -0.292595 0
M  V30 10351 H 996.803 1.47654 -1.42784 0
M  V30 10352 H 995.033 3.83982 -0.457676 0
M  V30 10353 H 996.722 3.96759 -0.856586 0
M  V30 10354 H 997.488 3.54991 -3.30464 0
M  V30 10355 H 993.367 4.05746 -2.1884 0
M  V30 10356 H 996.911 4.10516 -5.64023 0
M  V30 10357 H 992.808 4.61325 -4.51497 0
M  V30 10358 H 993.576 4.87598 -6.57412 0
M  V30 10359 N 996.239 0.8527 1.3254 0
M  V30 10360 C 997.488 0.45136 1.96585 0
M  V30 10361 C 997.801 -0.997773 1.68237 0
M  V30 10362 O 999.007 -1.50445 2.26006 0
M  V30 10363 C 997.463 0.75619 3.51866 0
M  V30 10364 C 997.071 2.22092 3.89075 0
M  V30 10365 C 998.815 0.422478 4.22392 0
M  V30 10366 C 996.722 2.46908 5.37392 0
M  V30 10367 H 995.652 0.165052 0.735713 0
M  V30 10368 H 998.303 1.04321 1.50962 0
M  V30 10369 H 996.685 0.0937988 3.95889 0
M  V30 10370 H 997.859 2.92494 3.56067 0
M  V30 10371 H 996.174 2.51896 3.31568 0
M  V30 10372 H 998.771 0.58533 5.31487 0
M  V30 10373 H 999.114 -0.635737 4.11417 0
M  V30 10374 H 999.647 1.04068 3.83946 0
M  V30 10375 H 996.386 3.51346 5.53386 0
M  V30 10376 H 995.906 1.81082 5.71812 0
M  V30 10377 H 997.585 2.30758 6.0445 0
M  V30 10378 N 997.718 -1.45297 0.610449 0
M  V30 10379 C 998.995 -1.95562 0.0386189 0
M  V30 10380 C 999.375 -1.55284 -1.43004 0
M  V30 10381 O 998.723 -0.816785 -2.13403 0
M  V30 10382 C 998.933 -3.48176 0.239731 0
M  V30 10383 C 1000.28 -4.24425 0.122035 0
M  V30 10384 O 1001.3 -3.55794 0.170003 0
M  V30 10385 O 1000.16 -5.46499 0.00953695 0
M  V30 10386 H 997.258 -0.826296 -0.0341081 0
M  V30 10387 H 999.804 -1.55449 0.68071 0
M  V30 10388 H 998.576 -3.70471 1.25963 0
M  V30 10389 H 998.199 -3.95186 -0.437486 0
M  V30 10390 N 999.196 -0.349774 -1.5367 0
M  V30 10391 C 1000.42 0.248692 -2.05904 0
M  V30 10392 C 1000.85 1.42942 -1.22267 0
M  V30 10393 O 1000.2 1.79732 -0.237899 0
M  V30 10394 C 1000.25 0.635639 -3.54953 0
M  V30 10395 O 999.356 1.7349 -3.74132 0
M  V30 10396 H 998.697 0.0399477 -0.662797 0
M  V30 10397 H 1001.23 -0.505795 -1.9825 0
M  V30 10398 H 1001.24 0.911064 -3.97698 0
M  V30 10399 H 999.912 -0.227805 -4.15276 0
M  V30 10400 H 998.489 1.45626 -3.43289 0
M  V30 10401 N 1000.67 1.57404 -0.0785433 0
M  V30 10402 C 1001.92 1.9292 0.588626 0
M  V30 10403 C 1002.24 0.961106 1.70359 0
M  V30 10404 O 1003.44 1.20934 2.43079 0
M  V30 10405 C 1001.9 3.42729 1.09839 0
M  V30 10406 C 1001.51 4.47998 0.0140773 0
M  V30 10407 C 1003.25 3.87235 1.73924 0
M  V30 10408 C 1001.16 5.88945 0.538269 0
M  V30 10409 H 1000.09 0.720069 0.223645 0
M  V30 10410 H 1002.74 1.8287 -0.15187 0
M  V30 10411 H 1001.12 3.47875 1.89207 0
M  V30 10412 H 1002.29 4.54476 -0.760773 0
M  V30 10413 H 1000.61 4.13001 -0.53095 0
M  V30 10414 H 1003.21 4.89927 2.14186 0
M  V30 10415 H 1003.55 3.24971 2.60191 0
M  V30 10416 H 1004.08 3.84721 1.01168 0
M  V30 10417 H 1000.82 6.5487 -0.287395 0
M  V30 10418 H 1000.34 5.85972 1.28049 0
M  V30 10419 H 1002.02 6.39028 1.01253 0
M  V30 10420 N 1002.15 -0.195058 1.56388 0
M  V30 10421 C 1003.4 -0.913636 1.8027 0
M  V30 10422 C 1003.72 -1.83791 0.651606 0
M  V30 10423 O 1002.99 -1.931 -0.330057 0
M  V30 10424 H 1001.57 -0.34036 0.664954 0
M  V30 10425 H 1004.23 -0.200559 1.93865 0
M  V30 10426 H 1003.33 -1.50473 2.7343 0
M  V30 10427 N 1003.63 -1.50653 -0.462772 0
M  V30 10428 C 1004.88 -1.62297 -1.21603 0
M  V30 10429 C 1005.21 -0.326191 -1.91441 0
M  V30 10430 O 1004.48 0.67284 -1.82491 0
M  V30 10431 C 1004.77 -2.80901 -2.25315 0
M  V30 10432 C 1004.62 -4.20484 -1.59728 0
M  V30 10433 C 1005.94 -2.95049 -3.26549 0
M  V30 10434 H 1003.06 -0.590691 -0.440741 0
M  V30 10435 H 1005.7 -1.83064 -0.508675 0
M  V30 10436 H 1003.85 -2.63325 -2.85643 0
M  V30 10437 H 1005.52 -4.49669 -1.02932 0
M  V30 10438 H 1003.76 -4.24357 -0.900181 0
M  V30 10439 H 1004.44 -4.99416 -2.35133 0
M  V30 10440 H 1006.91 -3.11166 -2.76251 0
M  V30 10441 H 1005.79 -3.79645 -3.96435 0
M  V30 10442 H 1006.05 -2.06019 -3.91163 0
M  V30 10443 N 1005.11 0.71652 -1.4037 0
M  V30 10444 C 1006.07 1.81231 -1.40313 0
M  V30 10445 C 1007.07 1.58032 -0.297087 0
M  V30 10446 O 1008.26 1.65091 -0.555944 0
M  V30 10447 C 1005.39 3.19308 -1.19395 0
M  V30 10448 H 1006.59 1.8268 -2.3784 0
M  V30 10449 H 1004.14 0.922062 -1.26205 0
M  V30 10450 H 1004.87 3.2351 -0.226252 0
M  V30 10451 H 1004.66 3.37546 -1.99512 0
M  V30 10452 H 1006.15 3.99339 -1.22141 0
M  V30 10453 N 1006.59 1.25851 0.948643 0
M  V30 10454 C 1007.5 1.08516 2.07994 0
M  V30 10455 C 1008.51 0.0206696 1.73988 0
M  V30 10456 O 1009.69 0.222854 2.00163 0
M  V30 10457 C 1006.75 0.712145 3.39307 0
M  V30 10458 C 1005.81 1.85523 3.87143 0
M  V30 10459 C 1005.05 1.49992 5.1219 0
M  V30 10460 O 1005.27 0.398268 5.69008 0
M  V30 10461 O 1004.2 2.33215 5.54882 0
M  V30 10462 H 1008.03 2.03405 2.25522 0
M  V30 10463 H 1005.62 1.04844 1.06433 0
M  V30 10464 H 1007.5 0.516512 4.18223 0
M  V30 10465 H 1006.17 -0.207416 3.23035 0
M  V30 10466 H 1005.08 2.10578 3.09205 0
M  V30 10467 H 1006.41 2.75425 4.07924 0
M  V30 10468 N 1008.06 -1.15214 1.07534 0
M  V30 10469 C 1009.31 -1.86043 0.799629 0
M  V30 10470 C 1009.64 -1.82435 -0.674356 0
M  V30 10471 O 1008.89 -1.24379 -1.51091 0
M  V30 10472 C 1009.19 -3.34623 1.25547 0
M  V30 10473 C 1008.86 -3.58425 2.73573 0
M  V30 10474 C 1007.52 -3.6463 3.14004 0
M  V30 10475 C 1009.87 -3.67977 3.6911 0
M  V30 10476 C 1007.2 -3.779 4.48786 0
M  V30 10477 C 1009.55 -3.82771 5.03656 0
M  V30 10478 C 1008.22 -3.87222 5.43705 0
M  V30 10479 H 1007.49 -0.680781 0.292605 0
M  V30 10480 H 1010.13 -1.36149 1.34669 0
M  V30 10481 H 1008.44 -3.86737 0.627828 0
M  V30 10482 H 1010.14 -3.87836 1.01901 0
M  V30 10483 H 1006.73 -3.54238 2.41275 0
M  V30 10484 H 1010.91 -3.62482 3.39 0
M  V30 10485 H 1006.17 -3.79604 4.79281 0
M  V30 10486 H 1010.34 -3.89104 5.77556 0
M  V30 10487 H 1007.97 -3.97256 6.48145 0
M  V30 10488 N 1009.54 -0.859717 -1.32086 0
M  V30 10489 C 1010.79 -0.466271 -1.97367 0
M  V30 10490 C 1011.12 0.976728 -1.6785 0
M  V30 10491 O 1010.4 1.68618 -0.969449 0
M  V30 10492 C 1010.68 -0.711851 -3.52994 0
M  V30 10493 C 1010.53 -2.20364 -3.92122 0
M  V30 10494 C 1011.85 -0.17156 -4.39765 0
M  V30 10495 H 1008.97 -0.170883 -0.716916 0
M  V30 10496 H 1011.61 -1.07907 -1.56384 0
M  V30 10497 H 1009.76 -0.190258 -3.88034 0
M  V30 10498 H 1011.43 -2.7917 -3.67236 0
M  V30 10499 H 1009.68 -2.68019 -3.41099 0
M  V30 10500 H 1010.35 -2.32615 -5.00594 0
M  V30 10501 H 1012.82 -0.617665 -4.1149 0
M  V30 10502 H 1011.7 -0.372921 -5.47632 0
M  V30 10503 H 1011.96 0.925959 -4.32294 0
M  V30 10504 N 1011.02 1.44971 -0.618145 0
M  V30 10505 C 1011.98 2.29044 0.0846739 0
M  V30 10506 C 1012.98 1.40341 0.784921 0
M  V30 10507 O 1014.17 1.62351 0.631479 0
M  V30 10508 C 1011.31 3.21617 1.13027 0
M  V30 10509 H 1012.5 2.92668 -0.654612 0
M  V30 10510 H 1010.05 1.51668 -0.377672 0
M  V30 10511 H 1010.79 2.62815 1.89997 0
M  V30 10512 H 1010.57 3.86969 0.63224 0
M  V30 10513 H 1012.06 3.84805 1.62218 0
M  V30 10514 N 1012.5 0.357919 1.53482 0
M  V30 10515 C 1013.43 -0.484231 2.28424 0
M  V30 10516 C 1014.41 -1.09046 1.30548 0
M  V30 10517 O 1015.59 -1.10916 1.59409 0
M  V30 10518 C 1012.72 -1.62803 3.06778 0
M  V30 10519 C 1011.68 -1.14943 4.12277 0
M  V30 10520 C 1011 -2.38287 4.78669 0
M  V30 10521 C 1012.3 -0.239627 5.2175 0
M  V30 10522 H 1014 0.140979 2.99068 0
M  V30 10523 H 1011.54 0.069244 1.43833 0
M  V30 10524 H 1013.5 -2.22374 3.57949 0
M  V30 10525 H 1012.22 -2.28036 2.3381 0
M  V30 10526 H 1010.88 -0.576442 3.6204 0
M  V30 10527 H 1010.53 -3.01959 4.02281 0
M  V30 10528 H 1010.23 -2.06939 5.49955 0
M  V30 10529 H 1011.75 -2.98558 5.32631 0
M  V30 10530 H 1013.17 -0.742597 5.6847 0
M  V30 10531 H 1011.56 -0.0173747 6.00097 0
M  V30 10532 H 1012.63 0.720333 4.7952 0
M  V30 10533 N 1013.98 -1.5736 0.0868897 0
M  V30 10534 C 1014.94 -2.12436 -0.860439 0
M  V30 10535 C 1015.94 -1.05175 -1.21634 0
M  V30 10536 O 1017.13 -1.31098 -1.14713 0
M  V30 10537 C 1014.26 -2.63818 -2.159 0
M  V30 10538 H 1015.45 -2.97453 -0.382346 0
M  V30 10539 H 1013.01 -1.55458 -0.162009 0
M  V30 10540 H 1013.74 -1.82298 -2.68212 0
M  V30 10541 H 1013.53 -3.42234 -1.91359 0
M  V30 10542 H 1015.02 -3.06452 -2.83685 0
M  V30 10543 N 1015.45 0.186762 -1.56489 0
M  V30 10544 C 1016.73 0.932229 -1.71956 0
M  V30 10545 C 1017.11 2.01037 -0.644006 0
M  V30 10546 O 1016.46 2.259 0.343694 0
M  V30 10547 C 1016.67 1.51106 -3.14592 0
M  V30 10548 C 1018.02 1.98997 -3.75081 0
M  V30 10549 O 1019.04 1.60931 -3.17773 0
M  V30 10550 O 1017.9 2.69067 -4.75673 0
M  V30 10551 H 1014.99 0.437736 -0.701652 0
M  V30 10552 H 1017.54 0.175803 -1.68787 0
M  V30 10553 H 1016.31 0.734327 -3.84348 0
M  V30 10554 H 1015.94 2.33209 -3.22024 0
M  V30 10555 N 1016.93 1.50896 0.454776 0
M  V30 10556 C 1017.86 1.6712 1.56855 0
M  V30 10557 C 1018.88 0.552223 1.53148 0
M  V30 10558 O 1020.07 0.825969 1.5824 0
M  V30 10559 C 1017.17 1.65464 2.95762 0
M  V30 10560 C 1016.34 2.93662 3.24163 0
M  V30 10561 C 1015.4 2.84428 4.42704 0
M  V30 10562 O 1014.42 3.58382 4.42211 0
M  V30 10563 N 1015.63 1.9909 5.45292 0
M  V30 10564 H 1018.39 2.63194 1.43349 0
M  V30 10565 H 1015.95 1.48564 0.643457 0
M  V30 10566 H 1017.94 1.56878 3.73057 0
M  V30 10567 H 1016.51 0.770568 3.02954 0
M  V30 10568 H 1015.73 3.16251 2.35328 0
M  V30 10569 H 1017.02 3.78558 3.39957 0
M  V30 10570 H 1016.42 1.3835 5.48521 0
M  V30 10571 H 1014.98 1.96396 6.21508 0
M  V30 10572 N 1018.41 -0.709066 1.40748 0
M  V30 10573 C 1019.64 -1.49591 1.425 0
M  V30 10574 C 1020.05 -1.89184 0.0248343 0
M  V30 10575 O 1019.39 -1.56429 -0.963109 0
M  V30 10576 C 1019.45 -2.79735 2.25807 0
M  V30 10577 C 1019.12 -2.62426 3.74141 0
M  V30 10578 C 1020.11 -2.29256 4.66624 0
M  V30 10579 C 1017.8 -2.78487 4.18032 0
M  V30 10580 C 1019.79 -2.12366 6.00982 0
M  V30 10581 C 1017.48 -2.61215 5.52458 0
M  V30 10582 C 1018.48 -2.28203 6.43749 0
M  V30 10583 O 1018.17 -2.11069 7.75697 0
M  V30 10584 H 1017.9 -0.467994 0.487809 0
M  V30 10585 H 1020.45 -0.881694 1.85514 0
M  V30 10586 H 1018.68 -3.43513 1.77584 0
M  V30 10587 H 1020.37 -3.41481 2.19421 0
M  V30 10588 H 1021.14 -2.16474 4.34009 0
M  V30 10589 H 1017.02 -3.03168 3.4729 0
M  V30 10590 H 1020.56 -1.86522 6.72202 0
M  V30 10591 H 1016.46 -2.73582 5.84656 0
M  V30 10592 H 1017.23 -2.25938 7.86698 0
M  V30 10593 N 1019.89 -1.26353 -0.941956 0
M  V30 10594 C 1020.85 -1.07904 -2.02211 0
M  V30 10595 C 1021.85 -0.0276283 -1.60776 0
M  V30 10596 O 1023.04 -0.270965 -1.7208 0
M  V30 10597 C 1020.17 -0.641084 -3.34818 0
M  V30 10598 H 1021.37 -2.03804 -2.20009 0
M  V30 10599 H 1018.92 -1.08939 -1.12081 0
M  V30 10600 H 1019.66 0.319943 -3.22718 0
M  V30 10601 H 1019.44 -1.40027 -3.66244 0
M  V30 10602 H 1020.93 -0.533826 -4.14174 0
M  V30 10603 N 1021.37 1.14642 -1.08144 0
M  V30 10604 C 1022.28 2.23257 -0.720668 0
M  V30 10605 C 1023.29 1.71866 0.271648 0
M  V30 10606 O 1024.47 2.01064 0.116266 0
M  V30 10607 C 1021.53 3.46447 -0.132542 0
M  V30 10608 C 1020.6 4.12789 -1.17913 0
M  V30 10609 C 1019.83 5.30099 -0.618971 0
M  V30 10610 O 1020.05 5.6762 0.562418 0
M  V30 10611 O 1018.99 5.86154 -1.36774 0
M  V30 10612 H 1022.81 2.56463 -1.62667 0
M  V30 10613 H 1020.4 1.22521 -0.854932 0
M  V30 10614 H 1022.28 4.20959 0.19277 0
M  V30 10615 H 1020.95 3.14971 0.746662 0
M  V30 10616 H 1019.86 3.40163 -1.55693 0
M  V30 10617 H 1021.19 4.48365 -2.03051 0
M  V30 10618 N 1022.85 0.866709 1.31628 0
M  V30 10619 C 1023.78 0.335762 2.31073 0
M  V30 10620 C 1024.76 -0.571597 1.60209 0
M  V30 10621 O 1025.94 -0.489306 1.87935 0
M  V30 10622 C 1023.07 -0.466416 3.44154 0
M  V30 10623 C 1022.03 0.347561 4.26586 0
M  V30 10624 C 1021.35 -0.5801 5.31544 0
M  V30 10625 C 1022.65 1.57986 4.97833 0
M  V30 10626 H 1024.35 1.16673 2.75731 0
M  V30 10627 H 1021.89 0.56248 1.3256 0
M  V30 10628 H 1023.84 -0.84836 4.12772 0
M  V30 10629 H 1022.57 -1.33086 2.98254 0
M  V30 10630 H 1021.23 0.71141 3.59631 0
M  V30 10631 H 1020.88 -1.44174 4.81895 0
M  V30 10632 H 1020.58 -0.0393965 5.87587 0
M  V30 10633 H 1022.1 -0.958958 6.03023 0
M  V30 10634 H 1023.51 1.26954 5.59067 0
M  V30 10635 H 1021.91 2.05939 5.63657 0
M  V30 10636 H 1022.98 2.3345 4.25005 0
M  V30 10637 N 1024.32 -1.44642 0.625825 0
M  V30 10638 C 1025.57 -2.01695 0.127948 0
M  V30 10639 C 1025.89 -1.49439 -1.25271 0
M  V30 10640 O 1025.16 -0.695873 -1.83124 0
M  V30 10641 H 1023.74 -0.745685 0.0443096 0
M  V30 10642 H 1026.4 -1.7721 0.811332 0
M  V30 10643 H 1025.5 -3.11966 0.0915933 0
M  V30 10644 N 1025.8 -0.366053 -1.5329 0
M  V30 10645 C 1026.76 0.467904 -2.24373 0
M  V30 10646 C 1027.76 1.00934 -1.25176 0
M  V30 10647 O 1028.95 0.895015 -1.49449 0
M  V30 10648 C 1026.09 1.65405 -2.98084 0
M  V30 10649 H 1027.28 -0.154105 -2.99504 0
M  V30 10650 H 1024.83 -0.117751 -1.55856 0
M  V30 10651 H 1025.57 2.31413 -2.27197 0
M  V30 10652 H 1025.35 1.27277 -3.70868 0
M  V30 10653 H 1026.84 2.24503 -3.52119 0
M  V30 10654 N 1027.28 1.57312 -0.0952337 0
M  V30 10655 C 1028.21 2.17056 0.860753 0
M  V30 10656 C 1029.19 1.10394 1.29411 0
M  V30 10657 O 1030.38 1.38532 1.36098 0
M  V30 10658 C 1027.51 2.751 2.11984 0
M  V30 10659 C 1026.46 3.87136 1.8251 0
M  V30 10660 C 1025.79 4.31883 3.15247 0
M  V30 10661 C 1027.09 5.10326 1.11194 0
M  V30 10662 H 1028.78 2.97192 0.362983 0
M  V30 10663 H 1026.33 1.42955 0.173151 0
M  V30 10664 H 1028.28 3.15547 2.79299 0
M  V30 10665 H 1027 1.92219 2.64044 0
M  V30 10666 H 1025.66 3.47229 1.17592 0
M  V30 10667 H 1025.31 3.45893 3.65195 0
M  V30 10668 H 1025.01 5.0742 2.96309 0
M  V30 10669 H 1026.53 4.74964 3.83721 0
M  V30 10670 H 1027.95 5.47942 1.6862 0
M  V30 10671 H 1026.34 5.91293 1.02435 0
M  V30 10672 H 1027.41 4.84807 0.0947227 0
M  V30 10673 N 1028.76 -0.17846 1.56586 0
M  V30 10674 C 1029.99 -0.910674 1.85446 0
M  V30 10675 C 1030.4 -1.76647 0.677675 0
M  V30 10676 O 1029.74 -1.80086 -0.362584 0
M  V30 10677 C 1029.8 -1.84363 3.08627 0
M  V30 10678 C 1029.46 -1.16814 4.41818 0
M  V30 10679 C 1030.46 -0.53703 5.17119 0
M  V30 10680 C 1028.15 -1.16703 4.88555 0
M  V30 10681 C 1030.14 0.0861778 6.37342 0
M  V30 10682 C 1027.83 -0.539992 6.0871 0
M  V30 10683 C 1028.83 0.0855135 6.82946 0
M  V30 10684 O 1028.51 0.70268 8.00823 0
M  V30 10685 H 1028.25 -0.270377 0.619574 0
M  V30 10686 H 1030.8 -0.185591 2.0456 0
M  V30 10687 H 1029.03 -2.60884 2.85441 0
M  V30 10688 H 1030.72 -2.44506 3.23993 0
M  V30 10689 H 1031.48 -0.529915 4.82096 0
M  V30 10690 H 1027.36 -1.64329 4.30717 0
M  V30 10691 H 1030.91 0.575011 6.95226 0
M  V30 10692 H 1026.8 -0.544666 6.43198 0
M  V30 10693 H 1027.57 0.601224 8.16289 0
M  V30 10694 N 1030.24 -1.51135 -0.446768 0
M  V30 10695 C 1031.19 -1.68152 -1.53977 0
M  V30 10696 C 1032.17 -0.53563 -1.51723 0
M  V30 10697 O 1033.36 -0.791134 -1.58335 0
M  V30 10698 C 1030.49 -1.80133 -2.92245 0
M  V30 10699 C 1029.58 -3.00476 -2.99291 0
M  V30 10700 N 1029.97 -4.23796 -2.76099 0
M  V30 10701 C 1028.27 -2.99536 -3.30445 0
M  V30 10702 C 1028.97 -5.04977 -2.88744 0
M  V30 10703 N 1027.94 -4.39428 -3.20006 0
M  V30 10704 H 1031.74 -2.61172 -1.34784 0
M  V30 10705 H 1029.26 -1.48653 -0.653923 0
M  V30 10706 H 1031.26 -1.90432 -3.70866 0
M  V30 10707 H 1029.92 -0.882879 -3.12467 0
M  V30 10708 H 1030.93 -4.52896 -2.51209 0
M  V30 10709 H 1027.6 -2.17286 -3.56501 0
M  V30 10710 H 1028.99 -6.13114 -2.74847 0
M  V30 10711 N 1031.71 0.701592 -1.41122 0
M  V30 10712 C 1033.12 1.28129 -1.35793 0
M  V30 10713 C 1033.48 1.96163 -0.0381185 0
M  V30 10714 O 1032.6 1.98416 0.863723 0
M  V30 10715 C 1033.2 2.33005 -2.45955 0
M  V30 10716 C 1031.75 2.86566 -2.44043 0
M  V30 10717 C 1030.9 1.60526 -2.26112 0
M  V30 10718 H 1033.85 0.496756 -1.50725 0
M  V30 10719 H 1033.87 3.14163 -2.14667 0
M  V30 10720 H 1033.39 1.8346 -3.42 0
M  V30 10721 H 1031.49 3.40304 -1.51737 0
M  V30 10722 H 1031.6 3.37406 -3.40138 0
M  V30 10723 H 1029.96 1.86113 -1.7388 0
M  V30 10724 H 1030.75 1.12985 -3.24175 0
M  V30 10725 N 1033.19 1.2685 0.935242 0
M  V30 10726 C 1034.42 1.15538 1.71635 0
M  V30 10727 C 1034.83 -0.288698 1.8658 0
M  V30 10728 O 1034.19 -1.19721 1.37743 0
M  V30 10729 C 1034.24 1.8259 3.11999 0
M  V30 10730 O 1033.96 3.21355 2.97763 0
M  V30 10731 C 1035.46 1.77307 4.06297 0
M  V30 10732 H 1032.68 0.402055 0.537208 0
M  V30 10733 H 1035.23 1.67582 1.17203 0
M  V30 10734 H 1033.38 1.3447 3.63313 0
M  V30 10735 H 1033.8 3.54626 3.86446 0
M  V30 10736 H 1035.27 2.28851 5.02326 0
M  V30 10737 H 1035.75 0.740823 4.32907 0
M  V30 10738 H 1036.35 2.25007 3.60904 0
M  V30 10739 N 1034.67 -1.14067 1.0875 0
M  V30 10740 C 1035.63 -2.17453 0.724341 0
M  V30 10741 C 1036.63 -1.58959 -0.242614 0
M  V30 10742 O 1037.82 -1.74186 -0.0217008 0
M  V30 10743 C 1034.96 -3.40828 0.0700236 0
M  V30 10744 H 1036.15 -2.51094 1.63987 0
M  V30 10745 H 1033.7 -1.28775 0.885813 0
M  V30 10746 H 1034.44 -3.1277 -0.857061 0
M  V30 10747 H 1034.22 -3.84551 0.76569 0
M  V30 10748 H 1035.71 -4.17258 -0.168905 0
M  V30 10749 N 1036.15 -0.873678 -1.31166 0
M  V30 10750 C 1037.1 -0.330288 -2.28424 0
M  V30 10751 C 1038.07 0.573299 -1.55893 0
M  V30 10752 O 1039.25 0.504143 -1.84019 0
M  V30 10753 C 1036.39 0.459004 -3.42034 0
M  V30 10754 C 1035.5 -0.472519 -4.29408 0
M  V30 10755 C 1034.64 0.331261 -5.30166 0
M  V30 10756 C 1033.68 -0.596453 -6.09187 0
M  V30 10757 N 1032.81 0.171305 -7.01891 0
M  V30 10758 H 1037.65 -1.16485 -2.7429 0
M  V30 10759 H 1035.19 -0.585813 -1.34932 0
M  V30 10760 H 1037.15 0.932432 -4.06647 0
M  V30 10761 H 1035.78 1.25824 -2.97268 0
M  V30 10762 H 1034.83 -1.06441 -3.65205 0
M  V30 10763 H 1036.14 -1.18372 -4.84551 0
M  V30 10764 H 1035.3 0.867038 -6.00473 0
M  V30 10765 H 1034.04 1.07573 -4.75688 0
M  V30 10766 H 1033.04 -1.14395 -5.37767 0
M  V30 10767 H 1034.27 -1.33983 -6.65752 0
M  V30 10768 H 1032.21 0.89852 -6.49817 0
M  V30 10769 H 1032.13 -0.480481 -7.54472 0
M  V30 10770 H 1033.4 0.688192 -7.76456 0
M  V30 10771 N 1037.63 1.44308 -0.633487 0
M  V30 10772 C 1038.56 2.33431 0.0568402 0
M  V30 10773 C 1039.54 1.48342 0.832386 0
M  V30 10774 O 1040.72 1.77056 0.797798 0
M  V30 10775 C 1037.85 3.31443 1.03743 0
M  V30 10776 C 1036.81 4.26368 0.373362 0
M  V30 10777 C 1036.13 5.14267 1.46403 0
M  V30 10778 C 1037.43 5.17287 -0.721876 0
M  V30 10779 H 1039.13 2.91402 -0.687388 0
M  V30 10780 H 1036.67 1.4012 -0.332009 0
M  V30 10781 H 1038.63 3.92677 1.52913 0
M  V30 10782 H 1037.35 2.71686 1.81258 0
M  V30 10783 H 1036.01 3.6647 -0.0977053 0
M  V30 10784 H 1035.66 4.50861 2.23011 0
M  V30 10785 H 1035.36 5.7859 1.02506 0
M  V30 10786 H 1036.88 5.78373 1.95748 0
M  V30 10787 H 1038.29 5.72444 -0.313181 0
M  V30 10788 H 1036.69 5.90226 -1.08413 0
M  V30 10789 H 1037.76 4.58159 -1.58804 0
M  V30 10790 N 1039.1 0.374177 1.53094 0
M  V30 10791 C 1040.52 0.0234783 1.59583 0
M  V30 10792 C 1040.72 -1.45984 1.38892 0
M  V30 10793 O 1039.78 -2.22251 1.19836 0
M  V30 10794 C 1041.09 0.487117 2.96728 0
M  V30 10795 C 1042.64 0.442073 3.09862 0
M  V30 10796 C 1043.11 0.881659 4.49434 0
M  V30 10797 N 1044.6 0.837062 4.55574 0
M  V30 10798 C 1045.34 1.14878 5.61774 0
M  V30 10799 N 1044.83 1.53022 6.75689 0
M  V30 10800 N 1046.63 1.07102 5.51802 0
M  V30 10801 H 1038.78 1.34003 1.64794 0
M  V30 10802 H 1041.04 0.548281 0.773364 0
M  V30 10803 H 1040.75 1.52252 3.17037 0
M  V30 10804 H 1040.62 -0.121772 3.77003 0
M  V30 10805 H 1043.01 -0.584216 2.89259 0
M  V30 10806 H 1043.09 1.08657 2.31576 0
M  V30 10807 H 1042.73 1.90611 4.70776 0
M  V30 10808 H 1042.66 0.214326 5.26164 0
M  V30 10809 H 1045.15 0.556173 3.73785 0
M  V30 10810 H 1045.47 1.75211 7.52676 0
M  V30 10811 H 1043.81 1.56895 6.77059 0
M  V30 10812 H 1047 0.772149 4.61688 0
M  V30 10813 H 1047.18 1.31728 6.3447 0
M  V30 10814 N 1040.58 -1.57259 0.103575 0
M  V30 10815 C 1041.49 -2.18018 -0.866327 0
M  V30 10816 C 1042.51 -1.15198 -1.30404 0
M  V30 10817 O 1043.68 -1.47605 -1.37021 0
M  V30 10818 C 1040.75 -2.75533 -2.10434 0
M  V30 10819 C 1039.81 -3.93337 -1.72002 0
M  V30 10820 C 1039.04 -4.481 -2.89901 0
M  V30 10821 O 1039.27 -4.01784 -4.04877 0
M  V30 10822 O 1038.2 -5.39004 -2.67877 0
M  V30 10823 H 1042.03 -3.01322 -0.379338 0
M  V30 10824 H 1039.61 -1.48907 -0.121228 0
M  V30 10825 H 1041.49 -3.12259 -2.8297 0
M  V30 10826 H 1040.17 -1.9527 -2.58169 0
M  V30 10827 H 1039.08 -3.61408 -0.966193 0
M  V30 10828 H 1040.41 -4.74989 -1.29022 0
M  V30 10829 N 1042.06 0.170153 -1.56679 0
M  V30 10830 C 1042.99 1.23945 -1.91606 0
M  V30 10831 C 1043.97 1.42725 -0.779004 0
M  V30 10832 O 1045.16 1.57712 -1.03243 0
M  V30 10833 C 1042.28 2.60222 -2.168 0
M  V30 10834 C 1041.33 2.58172 -3.39484 0
M  V30 10835 S 1042.16 2.0714 -4.93815 0
M  V30 10836 C 1043.32 3.45192 -5.22105 0
M  V30 10837 H 1043.55 0.941345 -2.82004 0
M  V30 10838 H 1041.08 0.374771 -1.49783 0
M  V30 10839 H 1043.04 3.38656 -2.31996 0
M  V30 10840 H 1041.7 2.87232 -1.27107 0
M  V30 10841 H 1040.9 3.58435 -3.54317 0
M  V30 10842 H 1040.5 1.87834 -3.2341 0
M  V30 10843 H 1042.79 4.41194 -5.14154 0
M  V30 10844 H 1043.73 3.35233 -6.23718 0
M  V30 10845 H 1044.14 3.41257 -4.49671 0
M  V30 10846 N 1043.54 1.5137 0.438746 0
M  V30 10847 C 1044.5 1.71993 1.51496 0
M  V30 10848 C 1045.5 0.589978 1.49586 0
M  V30 10849 O 1046.69 0.857505 1.51633 0
M  V30 10850 C 1043.82 1.77508 2.91039 0
M  V30 10851 H 1045.02 2.68041 1.34514 0
M  V30 10852 H 1042.57 1.41338 0.667326 0
M  V30 10853 H 1043.3 0.832698 3.13427 0
M  V30 10854 H 1043.09 2.59627 2.9383 0
M  V30 10855 H 1044.58 1.95308 3.69113 0
M  V30 10856 N 1045.02 -0.694098 1.41492 0
M  V30 10857 C 1045.96 -1.80801 1.43456 0
M  V30 10858 C 1046.93 -1.63571 0.288757 0
M  V30 10859 O 1048.12 -1.844 0.490017 0
M  V30 10860 C 1045.26 -3.18694 1.32394 0
M  V30 10861 C 1044.37 -3.47346 2.56855 0
M  V30 10862 C 1043.51 -4.74862 2.38075 0
M  V30 10863 C 1042.55 -4.96486 3.58005 0
M  V30 10864 N 1041.68 -6.15229 3.38287 0
M  V30 10865 H 1046.52 -1.78457 2.38657 0
M  V30 10866 H 1044.06 -0.871455 1.18508 0
M  V30 10867 H 1046.02 -3.98352 1.23982 0
M  V30 10868 H 1044.65 -3.20211 0.407999 0
M  V30 10869 H 1043.7 -2.62083 2.75711 0
M  V30 10870 H 1045.01 -3.59226 3.4606 0
M  V30 10871 H 1044.17 -5.62577 2.27139 0
M  V30 10872 H 1042.9 -4.6523 1.46329 0
M  V30 10873 H 1041.91 -4.07219 3.69395 0
M  V30 10874 H 1043.13 -5.07976 4.50708 0
M  V30 10875 H 1041.08 -6.06807 2.49242 0
M  V30 10876 H 1041 -6.27883 4.21069 0
M  V30 10877 H 1042.27 -7.05674 3.31126 0
M  V30 10878 N 1046.49 -1.27344 -0.928501 0
M  V30 10879 C 1047.44 -1.09835 -2.05034 0
M  V30 10880 C 1048.44 -0.0216643 -1.69386 0
M  V30 10881 O 1049.64 -0.179323 -1.79105 0
M  V30 10882 H 1046.02 -0.338416 -0.671549 0
M  V30 10883 H 1047.99 -2.04879 -2.1695 0
M  V30 10884 C 1046.74 -0.761462 -3.3926 0
M  V30 10885 H 1046.06 -1.58186 -3.67175 0
M  V30 10886 H 1047.5 -0.678812 -4.18531 0
M  V30 10887 C 1045.96 0.534118 -3.32639 0
M  V30 10888 O 1046.49 1.56877 -3.69801 0
M  V30 10889 N 1044.7 0.529437 -2.85736 0
M  V30 10890 H 1044.24 -0.312954 -2.55692 0
M  V30 10891 H 1044.2 1.39637 -2.81689 0
M  V30 10892 N 1047.97 1.13488 -1.09353 0
M  V30 10893 C 1049.22 1.84383 -0.827488 0
M  V30 10894 C 1049.54 1.83892 0.648745 0
M  V30 10895 O 1048.81 1.29415 1.47066 0
M  V30 10896 H 1047.39 0.682732 -0.303127 0
M  V30 10897 H 1050.05 1.37477 -1.38152 0
M  V30 10898 H 1049.15 2.88919 -1.18035 0
M  V30 10899 N 1049.45 0.880621 1.30701 0
M  V30 10900 C 1050.38 0.301443 2.27209 0
M  V30 10901 C 1051.4 -0.541533 1.53529 0
M  V30 10902 O 1052.59 -0.361791 1.74795 0
M  V30 10903 C 1049.69 -0.59038 3.33718 0
M  V30 10904 C 1048.86 0.222549 4.36833 0
M  V30 10905 C 1047.92 -0.599083 5.22779 0
M  V30 10906 O 1046.94 -0.0233267 5.69195 0
M  V30 10907 N 1048.15 -1.90904 5.48211 0
M  V30 10908 H 1050.91 1.13083 2.77547 0
M  V30 10909 H 1048.47 0.743168 1.43835 0
M  V30 10910 H 1050.46 -1.14599 3.88135 0
M  V30 10911 H 1049.03 -1.32044 2.83343 0
M  V30 10912 H 1048.25 0.959606 3.82342 0
M  V30 10913 H 1049.54 0.779965 5.02786 0
M  V30 10914 H 1048.94 -2.3998 5.12275 0
M  V30 10915 H 1047.5 -2.4122 6.05521 0
M  V30 10916 N 1050.93 -1.4397 0.641131 0
M  V30 10917 C 1052.15 -2.06818 0.155318 0
M  V30 10918 C 1052.58 -1.47665 -1.16519 0
M  V30 10919 O 1051.94 -0.58192 -1.71707 0
M  V30 10920 C 1051.99 -3.60542 0.0647537 0
M  V30 10921 O 1051.09 -4.00674 -0.976447 0
M  V30 10922 H 1050.43 -0.657962 0.0893404 0
M  V30 10923 H 1052.96 -1.84678 0.88064 0
M  V30 10924 H 1052.97 -4.07816 -0.122552 0
M  V30 10925 H 1051.65 -4.02975 1.02878 0
M  V30 10926 H 1050.22 -3.65013 -0.762905 0
M  V30 10927 N 1052.41 -0.382291 -1.52893 0
M  V30 10928 C 1053.65 0.202133 -2.01489 0
M  V30 10929 C 1053.98 1.47399 -1.26901 0
M  V30 10930 O 1053.24 1.92439 -0.355771 0
M  V30 10931 C 1053.54 0.523437 -3.53546 0
M  V30 10932 C 1053.2 -0.656042 -4.46102 0
M  V30 10933 C 1051.86 -0.979633 -4.71123 0
M  V30 10934 C 1054.22 -1.44545 -5.00756 0
M  V30 10935 C 1051.54 -2.0943 -5.48047 0
M  V30 10936 C 1053.9 -2.55066 -5.78899 0
M  V30 10937 C 1052.56 -2.87942 -6.02201 0
M  V30 10938 H 1051.83 0.0739659 -0.737299 0
M  V30 10939 H 1054.48 -0.518196 -1.84356 0
M  V30 10940 H 1052.78 1.325 -3.68715 0
M  V30 10941 H 1054.48 0.988148 -3.88634 0
M  V30 10942 H 1051.07 -0.393818 -4.26787 0
M  V30 10943 H 1055.25 -1.20869 -4.81357 0
M  V30 10944 H 1050.51 -2.3528 -5.64317 0
M  V30 10945 H 1054.68 -3.1664 -6.20252 0
M  V30 10946 H 1052.31 -3.74435 -6.61591 0
M  V30 10947 N 1053.89 1.57202 -0.111913 0
M  V30 10948 C 1055.13 1.9495 0.547795 0
M  V30 10949 C 1055.46 0.994763 1.67137 0
M  V30 10950 O 1054.72 0.0173528 1.95692 0
M  V30 10951 C 1055.01 3.39152 1.12741 0
M  V30 10952 C 1054.68 4.50724 0.125916 0
M  V30 10953 C 1053.34 4.80968 -0.149489 0
M  V30 10954 C 1055.69 5.18215 -0.556987 0
M  V30 10955 C 1053.02 5.76023 -1.1142 0
M  V30 10956 C 1055.37 6.14307 -1.51029 0
M  V30 10957 C 1054.04 6.42947 -1.79375 0
M  V30 10958 H 1053.31 0.713372 0.200453 0
M  V30 10959 H 1055.96 1.90542 -0.191316 0
M  V30 10960 H 1054.26 3.4022 1.94313 0
M  V30 10961 H 1055.96 3.65668 1.64584 0
M  V30 10962 H 1052.55 4.27162 0.350756 0
M  V30 10963 H 1056.73 4.95012 -0.357378 0
M  V30 10964 H 1051.99 5.9652 -1.34064 0
M  V30 10965 H 1056.16 6.65692 -2.04516 0
M  V30 10966 H 1053.79 7.1641 -2.54284 0
M  V30 10967 N 1055.36 -0.161842 1.56767 0
M  V30 10968 C 1056.61 -0.875192 1.82167 0
M  V30 10969 C 1056.93 -1.82367 0.690444 0
M  V30 10970 O 1056.2 -1.93756 -0.289023 0
M  V30 10971 H 1054.78 -0.326178 0.672024 0
M  V30 10972 H 1057.44 -0.159392 1.94247 0
M  V30 10973 H 1056.54 -1.44639 2.76561 0
M  V30 10974 O 1056.88 -1.58561 -0.306714 0
M  V30 10975 H 1057.57 -1.68568 -0.954169 0
M  V30 END ATOM
M  V30 BEGIN BOND
M  V30 END BOND
M  V30 END CTAB
M  END
$$$$
