drugbank_target|P28790 3-ketoacyl-CoA thiolase (DB08249)
 OpenBabel12092120503D

  0  0  0     0  0            999 V3000
M  V30 BEGIN CTAB
M  V30 COUNTS 5816 5864 0 0 0
M  V30 BEGIN ATOM
M  V30 1 H -0.908 1.98254 -0.117106 0
M  V30 2 N 0 1.576 0 0
M  V30 3 C 0.933 2.03868 1.02534 0
M  V30 4 C 1.911 0.928543 1.3348 0
M  V30 5 O 3.095 1.19667 1.45644 0
M  V30 6 C 0.222 2.43627 2.35294 0
M  V30 7 C -0.732 3.65373 2.2001 0
M  V30 8 S 0.101 5.13292 1.52614 0
M  V30 9 C 1.257 5.56322 2.86805 0
M  V30 10 H 1.49 2.90518 0.631377 0
M  V30 11 H -0.977 1.52953 0.210867 0
M  V30 12 H 0.981 2.67203 3.11629 0
M  V30 13 H -0.358 1.57376 2.7183 0
M  V30 14 H -1.165 3.90944 3.18086 0
M  V30 15 H -1.563 3.418 1.51819 0
M  V30 16 H 0.729 5.58782 3.83104 0
M  V30 17 H 1.672 6.56266 2.65933 0
M  V30 18 H 2.08 4.83886 2.90714 0
M  V30 19 N 1.4781 -0.272755 1.55222 0
M  V30 20 C 2.7031 -1.02683 1.80197 0
M  V30 21 C 3.1281 -1.79142 0.573551 0
M  V30 22 O 2.4861 -1.74917 -0.476849 0
M  V30 23 C 2.5341 -1.9609 3.02624 0
M  V30 24 O 1.6381 -3.04863 2.77727 0
M  V30 25 H 0.9791 -0.293557 0.595584 0
M  V30 26 H 3.5091 -0.30159 2.02365 0
M  V30 27 H 3.5191 -2.38039 3.31363 0
M  V30 28 H 2.1941 -1.39851 3.91682 0
M  V30 29 H 0.7711 -2.67228 2.60084 0
M  V30 30 N 2.9562 -1.48159 -0.537278 0
M  V30 31 C 3.8862 -1.65029 -1.6519 0
M  V30 32 C 4.8672 -0.499281 -1.62607 0
M  V30 33 O 6.0522 -0.730972 -1.79918 0
M  V30 34 C 3.1822 -1.68303 -3.03795 0
M  V30 35 C 2.1362 -2.8283 -3.21234 0
M  V30 36 C 1.4622 -2.71189 -4.60826 0
M  V30 37 C 2.7622 -4.24211 -3.04701 0
M  V30 38 H 4.4562 -2.58341 -1.51328 0
M  V30 39 H 2.0022 -1.24325 -0.726585 0
M  V30 40 H 3.9552 -1.78693 -3.81637 0
M  V30 41 H 2.6792 -0.715635 -3.18663 0
M  V30 42 H 1.3382 -2.71983 -2.45807 0
M  V30 43 H 0.9862 -1.72435 -4.7252 0
M  V30 44 H 0.6862 -3.48035 -4.7344 0
M  V30 45 H 2.2102 -2.83537 -5.40777 0
M  V30 46 H 3.6242 -4.3593 -3.72341 0
M  V30 47 H 2.0212 -5.01998 -3.28813 0
M  V30 48 H 3.0912 -4.41184 -2.01209 0
M  V30 49 N 4.4343 0.785586 -1.36625 0
M  V30 50 C 5.3823 1.91978 -1.31329 0
M  V30 51 C 6.3763 1.68162 -0.204416 0
M  V30 52 O 7.5823 1.76122 -0.371645 0
M  V30 53 H 3.9573 0.631087 -0.408942 0
M  V30 54 H 5.9283 1.93562 -2.27104 0
M  V30 55 C 4.6773 3.29055 -1.12329 0
M  V30 56 H 4.0003 3.4795 -1.96903 0
M  V30 57 H 5.4403 4.08756 -1.12671 0
M  V30 58 C 3.8993 3.36461 0.171861 0
M  V30 59 O 4.4293 3.84576 1.16035 0
M  V30 60 N 2.6353 2.89782 0.217846 0
M  V30 61 H 2.1823 2.50819 -0.587183 0
M  V30 62 H 2.1403 2.95119 1.08408 0
M  V30 63 N 5.9124 1.20967 1.01018 0
M  V30 64 C 7.3234 1.02319 1.56165 0
M  V30 65 C 7.6744 -0.418546 1.91684 0
M  V30 66 O 6.7994 -1.30096 1.72928 0
M  V30 67 C 7.3944 1.85109 2.8376 0
M  V30 68 C 5.9534 1.70809 3.35412 0
M  V30 69 C 5.1004 1.82643 2.08655 0
M  V30 70 H 8.0514 1.35065 0.833255 0
M  V30 71 H 8.0724 1.35827 3.55431 0
M  V30 72 H 7.5844 2.90035 2.57878 0
M  V30 73 H 5.6854 0.685464 3.66241 0
M  V30 74 H 5.7984 2.52467 4.07182 0
M  V30 75 H 4.1624 1.25896 2.21409 0
M  V30 76 H 4.9454 2.89066 1.85191 0
M  V30 77 N 7.3905 -1.2043 1.01659 0
M  V30 78 C 8.8065 -1.41852 0.731442 0
M  V30 79 C 9.0065 -1.89358 -0.688898 0
M  V30 80 O 8.0625 -2.06247 -1.45666 0
M  V30 81 C 9.3755 -2.44019 1.75714 0
M  V30 82 C 10.9235 -2.57785 1.77527 0
M  V30 83 C 11.3985 -3.63194 2.79023 0
M  V30 84 N 12.8895 -3.70678 2.77763 0
M  V30 85 C 13.6245 -4.51897 3.52954 0
M  V30 86 N 13.1205 -5.36921 4.37821 0
M  V30 87 N 14.9135 -4.4643 3.41551 0
M  V30 88 H 7.0645 -0.879093 1.93354 0
M  V30 89 H 9.3275 -0.448425 0.835236 0
M  V30 90 H 9.0335 -2.1611 2.77469 0
M  V30 91 H 8.9075 -3.43007 1.56927 0
M  V30 92 H 11.2945 -2.85023 0.764569 0
M  V30 93 H 11.3755 -1.58992 2.00387 0
M  V30 94 H 11.0195 -3.36699 3.80258 0
M  V30 95 H 10.9495 -4.61609 2.53425 0
M  V30 96 H 13.4405 -3.09944 2.16201 0
M  V30 97 H 13.7535 -5.95981 4.91962 0
M  V30 98 H 12.0985 -5.36424 4.41899 0
M  V30 99 H 15.2895 -3.79042 2.74672 0
M  V30 100 H 15.4625 -5.09491 4.00404 0
M  V30 101 N 8.8686 -0.792821 -1.36206 0
M  V30 102 C 10.1456 -0.290627 -1.93429 0
M  V30 103 C 10.5256 1.21773 -1.72437 0
M  V30 104 O 9.8736 2.0108 -1.08531 0
M  V30 105 C 10.0836 -0.686973 -3.42172 0
M  V30 106 C 11.4316 -0.668643 -4.19302 0
M  V30 107 O 12.4556 -0.627658 -3.50626 0
M  V30 108 O 11.3146 -0.714597 -5.41808 0
M  V30 109 H 8.4086 -0.0727927 -0.82379 0
M  V30 110 H 10.9546 -0.875593 -1.45367 0
M  V30 111 H 9.7266 -1.72711 -3.51122 0
M  V30 112 H 9.3496 -0.0760733 -3.97527 0
M  V30 113 N 10.3467 1.47872 -0.545128 0
M  V30 114 C 11.5927 2.02793 -0.0166104 0
M  V30 115 C 11.9257 1.41987 1.32489 0
M  V30 116 O 11.2007 0.571045 1.85928 0
M  V30 117 C 11.4837 3.59989 0.0893294 0
M  V30 118 C 11.3367 4.3125 -1.27841 0
M  V30 119 C 12.6557 4.32606 0.808724 0
M  V30 120 H 9.7747 0.736962 -0.00751035 0
M  V30 121 H 12.4167 1.76433 -0.705085 0
M  V30 122 H 10.5667 3.82579 0.675681 0
M  V30 123 H 12.2387 4.20035 -1.90704 0
M  V30 124 H 10.4817 3.92076 -1.85632 0
M  V30 125 H 11.1527 5.39736 -1.15713 0
M  V30 126 H 13.6287 4.14936 0.310992 0
M  V30 127 H 12.5047 5.42251 0.851782 0
M  V30 128 H 12.7657 4.00963 1.86229 0
M  V30 129 N 11.8248 0.280983 1.55075 0
M  V30 130 C 13.0708 -0.33461 2.00021 0
M  V30 131 C 13.4038 -1.55063 1.16915 0
M  V30 132 O 12.6788 -1.93006 0.240646 0
M  V30 133 C 12.9618 -0.711007 3.53011 0
M  V30 134 C 12.8148 0.512766 4.46868 0
M  V30 135 C 14.1338 -1.54522 4.12081 0
M  V30 136 H 11.2528 -0.120147 0.727141 0
M  V30 137 H 13.8948 0.389097 1.85973 0
M  V30 138 H 12.0448 -1.32761 3.65112 0
M  V30 139 H 13.7168 1.15131 4.46702 0
M  V30 140 H 11.9598 1.14975 4.18286 0
M  V30 141 H 12.6308 0.205556 5.51617 0
M  V30 142 H 15.1068 -1.02442 4.03293 0
M  V30 143 H 13.9828 -1.77739 5.19327 0
M  V30 144 H 14.2438 -2.52813 3.62682 0
M  V30 145 N 13.3029 -1.57598 0.00835791 0
M  V30 146 C 14.5519 -1.90107 -0.673968 0
M  V30 147 C 14.8649 -0.884275 -1.7447 0
M  V30 148 O 16.0709 -1.09987 -2.48224 0
M  V30 149 C 14.5269 -3.37497 -1.24995 0
M  V30 150 C 14.1349 -4.47491 -0.2136 0
M  V30 151 C 15.8789 -3.79104 -1.90999 0
M  V30 152 C 13.7859 -5.85963 -0.80005 0
M  V30 153 H 12.7159 -0.709393 -0.255495 0
M  V30 154 H 15.3669 -1.83365 0.0702693 0
M  V30 155 H 13.7489 -3.39102 -2.04513 0
M  V30 156 H 14.9229 -4.57414 0.557596 0
M  V30 157 H 13.2379 -4.14956 0.346474 0
M  V30 158 H 15.8349 -4.79901 -2.35795 0
M  V30 159 H 16.1779 -3.1306 -2.74407 0
M  V30 160 H 16.7109 -3.79833 -1.18203 0
M  V30 161 H 13.4499 -6.555 -0.00456708 0
M  V30 162 H 12.9699 -5.79687 -1.54021 0
M  V30 163 H 14.6489 -6.33884 -1.29615 0
M  V30 164 N 14.781 0.264519 -1.55364 0
M  V30 165 C 16.027 0.99646 -1.76631 0
M  V30 166 C 16.36 1.85632 -0.570478 0
M  V30 167 O 15.635 1.89647 0.43175 0
M  V30 168 C 15.918 1.87187 -3.07625 0
M  V30 169 C 15.771 1.04138 -4.37579 0
M  V30 170 C 17.09 2.85749 -3.34717 0
M  V30 171 H 14.209 0.360841 -0.642622 0
M  V30 172 H 16.851 0.268218 -1.88097 0
M  V30 173 H 15.001 2.49279 -2.9798 0
M  V30 174 H 16.673 0.440517 -4.59192 0
M  V30 175 H 14.916 0.345115 -4.32425 0
M  V30 176 H 15.587 1.68729 -5.2558 0
M  V30 177 H 18.063 2.33793 -3.4421 0
M  V30 178 H 16.939 3.44136 -4.27623 0
M  V30 179 H 17.2 3.61311 -2.54768 0
M  V30 180 N 16.2591 1.48442 0.529413 0
M  V30 181 C 17.5361 1.46978 1.29062 0
M  V30 182 C 17.9161 0.181769 2.10316 0
M  V30 183 O 17.2641 -0.836481 2.12639 0
M  V30 184 C 17.4741 2.7321 2.17157 0
M  V30 185 C 18.8221 3.21562 2.77278 0
M  V30 186 O 19.8461 2.74131 2.27444 0
M  V30 187 O 18.7051 4.04094 3.67927 0
M  V30 188 H 15.7991 0.587003 0.582543 0
M  V30 189 H 18.3451 1.60676 0.546021 0
M  V30 190 H 17.1171 3.58465 1.56903 0
M  V30 191 H 16.7401 2.62235 2.98862 0
M  V30 192 N 17.7372 -0.778329 1.37039 0
M  V30 193 C 18.9842 -1.53665 1.31884 0
M  V30 194 C 19.3122 -1.9425 -0.0986303 0
M  V30 195 O 18.5672 -1.63832 -1.07041 0
M  V30 196 C 18.8662 -2.81845 2.19768 0
M  V30 197 C 18.5322 -2.60345 3.68146 0
M  V30 198 C 17.1942 -2.5419 4.08584 0
M  V30 199 C 19.5462 -2.40923 4.62175 0
M  V30 200 C 16.8742 -2.26594 5.41177 0
M  V30 201 C 19.2262 -2.14852 5.94997 0
M  V30 202 C 17.8902 -2.07137 6.34547 0
M  V30 203 H 17.1602 -0.562299 0.482598 0
M  V30 204 H 19.8072 -0.897069 1.69189 0
M  V30 205 H 18.1122 -3.50328 1.75436 0
M  V30 206 H 19.8092 -3.39692 2.13097 0
M  V30 207 H 16.3992 -2.65996 3.36072 0
M  V30 208 H 20.5832 -2.44673 4.31797 0
M  V30 209 H 15.8392 -2.19111 5.70789 0
M  V30 210 H 20.0132 -1.98822 6.67415 0
M  V30 211 H 17.6402 -1.85518 7.37216 0
M  V30 212 N 19.2153 -1.21501 -1.00376 0
M  V30 213 C 20.4633 -1.03095 -1.73827 0
M  V30 214 C 20.7843 0.436341 -1.90055 0
M  V30 215 O 20.0543 1.31466 -1.45236 0
M  V30 216 H 18.6343 -0.378487 -0.644016 0
M  V30 217 H 21.2963 -1.52831 -1.20949 0
M  V30 218 H 20.3923 -1.49991 -2.73695 0
M  V30 219 N 20.6934 1.19889 -1.02296 0
M  V30 220 C 22.1094 1.41462 -0.738954 0
M  V30 221 C 22.3094 1.89721 0.678846 0
M  V30 222 O 21.3654 2.07016 1.4457 0
M  V30 223 C 22.6784 2.43083 -1.77005 0
M  V30 224 C 24.2264 2.5684 -1.78892 0
M  V30 225 C 24.7014 3.61709 -2.80945 0
M  V30 226 N 26.1924 3.69199 -2.79725 0
M  V30 227 C 26.9274 4.50019 -3.55345 0
M  V30 228 N 26.4234 5.34592 -4.40662 0
M  V30 229 N 28.2164 4.44612 -3.43914 0
M  V30 230 H 20.3674 0.868827 -1.93817 0
M  V30 231 H 22.6304 0.44399 -0.837602 0
M  V30 232 H 22.3364 2.14636 -2.78612 0
M  V30 233 H 22.2104 3.4217 -1.58744 0
M  V30 234 H 24.5974 2.84614 -0.779674 0
M  V30 235 H 24.6784 1.57927 -2.01228 0
M  V30 236 H 24.3224 3.34678 -3.82038 0
M  V30 237 H 24.2524 4.60259 -2.5587 0
M  V30 238 H 26.7434 3.08794 -2.17842 0
M  V30 239 H 27.0564 5.93363 -4.95116 0
M  V30 240 H 25.4014 5.34073 -4.44737 0
M  V30 241 H 28.5924 3.7758 -2.76679 0
M  V30 242 H 28.7654 5.0736 -4.031 0
M  V30 243 N 22.1715 0.800033 1.35784 0
M  V30 244 C 23.3995 0.389606 2.03199 0
M  V30 245 C 23.8145 -0.997375 1.60306 0
M  V30 246 O 23.1715 -1.64154 0.797481 0
M  V30 247 C 23.2225 0.455855 3.58614 0
M  V30 248 O 22.9435 1.78815 3.99946 0
M  V30 249 C 24.4445 0.0374032 4.43284 0
M  V30 250 H 21.6645 0.159132 0.651857 0
M  V30 251 H 24.2085 1.08183 1.73541 0
M  V30 252 H 22.3635 -0.188057 3.86943 0
M  V30 253 H 22.7775 1.74636 4.94573 0
M  V30 254 H 24.2515 0.134882 5.51835 0
M  V30 255 H 24.7285 -1.01651 4.27275 0
M  V30 256 H 25.3345 0.654215 4.20238 0
M  V30 257 N 23.6496 -1.47581 0.552962 0
M  V30 258 C 25.0606 -1.86324 0.118463 0
M  V30 259 C 25.4116 -1.46006 -1.3106 0
M  V30 260 O 24.5366 -0.861182 -1.98526 0
M  V30 261 C 25.1316 -3.3816 0.20821 0
M  V30 262 C 23.6906 -3.7601 -0.171226 0
M  V30 263 C 22.8376 -2.71634 0.557686 0
M  V30 264 H 25.7886 -1.39159 0.762928 0
M  V30 265 H 25.8096 -3.76141 -0.574278 0
M  V30 266 H 25.3216 -3.67473 1.24841 0
M  V30 267 H 23.4226 -3.52313 -1.21269 0
M  V30 268 H 23.5356 -4.78745 0.184379 0
M  V30 269 H 21.8996 -2.547 0.00125792 0
M  V30 270 H 22.6826 -3.0379 1.59896 0
M  V30 271 N 25.1277 -0.289203 -1.54924 0
M  V30 272 C 26.0607 0.633823 -2.19221 0
M  V30 273 C 27.0387 1.14174 -1.15772 0
M  V30 274 O 28.2227 1.21211 -1.44361 0
M  V30 275 C 25.3497 1.86592 -2.82668 0
M  V30 276 C 24.3957 1.49227 -3.99542 0
M  V30 277 S 25.2287 0.558312 -5.32582 0
M  V30 278 C 26.3847 1.79847 -5.99505 0
M  V30 279 H 26.6177 0.0875416 -2.97171 0
M  V30 280 H 24.1507 -0.0733899 -1.54225 0
M  V30 281 H 26.1087 2.57305 -3.19851 0
M  V30 282 H 24.7697 2.38335 -2.04585 0
M  V30 283 H 23.9627 2.40945 -4.42676 0
M  V30 284 H 23.5647 0.865193 -3.63855 0
M  V30 285 H 25.8567 2.7406 -6.19595 0
M  V30 286 H 26.7997 1.4099 -6.93922 0
M  V30 287 H 27.2077 1.96982 -5.29016 0
M  V30 288 N 26.6058 1.57591 -0.0167156 0
M  V30 289 C 27.8538 1.90906 0.663285 0
M  V30 290 C 28.1748 0.892509 1.73376 0
M  V30 291 O 27.4448 -0.0677623 1.95783 0
M  V30 292 H 26.0248 0.704637 0.247983 0
M  V30 293 H 28.6868 1.94803 -0.0615909 0
M  V30 294 H 27.7828 2.9116 1.12393 0
M  V30 295 N 28.0839 -0.256276 1.55502 0
M  V30 296 C 29.4999 -0.604325 1.47716 0
M  V30 297 C 29.6999 -1.88763 0.705039 0
M  V30 298 O 28.7559 -2.51445 0.230613 0
M  V30 299 C 30.0689 -0.715756 2.92057 0
M  V30 300 C 31.6169 -0.808706 3.02372 0
M  V30 301 C 32.0919 -0.951777 4.48001 0
M  V30 302 N 33.5829 -1.01688 4.519 0
M  V30 303 C 34.3179 -1.14668 5.61817 0
M  V30 304 N 33.8139 -1.24261 6.81565 0
M  V30 305 N 35.6069 -1.1791 5.49594 0
M  V30 306 H 27.7579 0.586291 2.04148 0
M  V30 307 H 30.0209 0.201015 0.926443 0
M  V30 308 H 29.7269 0.157027 3.51349 0
M  V30 309 H 29.6009 -1.59071 3.42018 0
M  V30 310 H 31.9879 -1.67195 2.43166 0
M  V30 311 H 32.0689 0.0912063 2.55637 0
M  V30 312 H 31.7129 -0.0931291 5.07815 0
M  V30 313 H 31.6429 -1.86659 4.92408 0
M  V30 314 H 34.1339 -0.954468 3.65648 0
M  V30 315 H 34.4469 -1.34046 7.61086 0
M  V30 316 H 32.7919 -1.21236 6.84344 0
M  V30 317 H 35.9829 -1.10057 4.54978 0
M  V30 318 H 36.1559 -1.27681 6.35296 0
M  V30 319 N 29.562 -1.4872 -0.521534 0
M  V30 320 C 30.787 -1.61101 -1.30618 0
M  V30 321 C 31.212 -0.274611 -1.86085 0
M  V30 322 O 30.57 0.754937 -1.64834 0
M  V30 323 C 30.618 -2.66709 -2.4269 0
M  V30 324 O 29.722 -2.24456 -3.45967 0
M  V30 325 H 29.063 -0.539921 -0.386499 0
M  V30 326 H 31.593 -1.94767 -0.626645 0
M  V30 327 H 31.603 -2.88245 -2.88754 0
M  V30 328 H 30.278 -3.63727 -2.01682 0
M  V30 329 H 28.855 -2.13168 -3.05964 0
M  V30 330 N 31.0401 0.771051 -1.3745 0
M  V30 331 C 31.9871 1.88435 -1.3327 0
M  V30 332 C 32.9571 1.64914 -0.198136 0
M  V30 333 O 34.1421 1.86821 -0.387606 0
M  V30 334 C 31.2821 3.25509 -1.14622 0
M  V30 335 C 30.3951 3.60979 -2.37314 0
M  V30 336 C 29.5301 4.87265 -2.11533 0
M  V30 337 C 28.5691 5.15469 -3.30088 0
M  V30 338 N 27.7061 6.32944 -3.03853 0
M  V30 339 H 32.5461 1.91344 -2.28455 0
M  V30 340 H 30.0831 0.935466 -1.13523 0
M  V30 341 H 32.0411 4.04582 -1.01831 0
M  V30 342 H 30.6711 3.21974 -0.230837 0
M  V30 343 H 29.7231 2.76885 -2.60842 0
M  V30 344 H 31.0351 3.77759 -3.25729 0
M  V30 345 H 30.1891 5.74244 -1.95777 0
M  V30 346 H 28.9281 4.7259 -1.20457 0
M  V30 347 H 27.9331 4.26966 -3.46382 0
M  V30 348 H 29.1581 5.32052 -4.22016 0
M  V30 349 H 27.1041 6.19625 -2.15407 0
M  V30 350 H 27.0211 6.50143 -3.85812 0
M  V30 351 H 28.2891 7.22857 -2.91716 0
M  V30 352 N 32.5182 1.22032 0.997298 0
M  V30 353 C 33.7662 1.04016 1.73278 0
M  V30 354 C 34.0872 -0.426255 1.90284 0
M  V30 355 O 33.3572 -1.30694 1.45931 0
M  V30 356 H 31.9372 0.381897 0.642 0
M  V30 357 H 34.5992 1.5347 1.20137 0
M  V30 358 H 33.6952 1.51441 2.72896 0
M  V30 359 N 33.9963 -1.19345 1.0293 0
M  V30 360 C 35.2443 -1.88665 0.724574 0
M  V30 361 C 35.5653 -1.80036 -0.749144 0
M  V30 362 O 34.8353 -1.2111 -1.53978 0
M  V30 363 H 33.4153 -0.698406 0.265025 0
M  V30 364 H 36.0773 -1.44885 1.30362 0
M  V30 365 H 35.1733 -2.94987 1.01926 0
M  V30 366 N 35.4744 -0.807222 -1.35358 0
M  V30 367 C 36.4074 -0.163572 -2.27613 0
M  V30 368 C 37.3854 0.670817 -1.48118 0
M  V30 369 O 38.5694 0.63796 -1.77376 0
M  V30 370 C 35.6964 0.773015 -3.29761 0
M  V30 371 C 34.7424 0.0181653 -4.26496 0
M  V30 372 S 35.5754 -1.31831 -5.19019 0
M  V30 373 C 36.7314 -0.38619 -6.24707 0
M  V30 374 H 36.9644 -0.945757 -2.81856 0
M  V30 375 H 34.4974 -0.602315 -1.42167 0
M  V30 376 H 36.4554 1.30788 -3.89108 0
M  V30 377 H 35.1164 1.52859 -2.74396 0
M  V30 378 H 34.3094 0.729534 -4.98692 0
M  V30 379 H 33.9114 -0.446761 -3.71322 0
M  V30 380 H 36.2034 0.428295 -6.76145 0
M  V30 381 H 37.1464 -1.07736 -6.99856 0
M  V30 382 H 37.5544 0.018398 -5.64497 0
M  V30 383 N 36.9525 1.47285 -0.560781 0
M  V30 384 C 37.9025 2.27073 0.205384 0
M  V30 385 C 38.8865 1.34569 0.882044 0
M  V30 386 O 40.0785 1.58899 0.77976 0
M  V30 387 C 37.2075 3.20414 1.23247 0
M  V30 388 C 36.2935 4.20399 0.559041 0
M  V30 389 N 36.6845 5.04423 -0.372927 0
M  V30 390 C 34.9825 4.38536 0.812522 0
M  V30 391 C 35.6835 5.76655 -0.764446 0
M  V30 392 N 34.6595 5.43471 -0.11848 0
M  V30 393 H 38.4615 2.89422 -0.511117 0
M  V30 394 H 35.9755 1.57868 -0.380975 0
M  V30 395 H 37.9725 3.76262 1.79534 0
M  V30 396 H 36.6325 2.59623 1.95002 0
M  V30 397 H 37.6435 5.1248 -0.747287 0
M  V30 398 H 34.3205 3.88913 1.51832 0
M  V30 399 H 35.7105 6.54238 -1.53045 0
M  V30 400 N 38.4306 0.297415 1.54768 0
M  V30 401 C 39.8466 -0.0560823 1.59501 0
M  V30 402 C 40.0466 -1.52725 1.31444 0
M  V30 403 O 39.1026 -2.27947 1.08611 0
M  V30 404 C 40.4156 0.338631 2.98787 0
M  V30 405 C 41.9636 0.287097 3.11681 0
M  V30 406 C 42.4386 0.656579 4.53269 0
M  V30 407 N 43.9296 0.608977 4.59179 0
M  V30 408 C 44.6646 0.867385 5.66802 0
M  V30 409 N 44.1606 1.19157 6.82476 0
M  V30 410 N 45.9536 0.794687 5.56454 0
M  V30 411 H 38.1046 1.25624 1.71267 0
M  V30 412 H 40.3676 0.509057 0.799728 0
M  V30 413 H 40.0736 1.36263 3.2423 0
M  V30 414 H 39.9476 -0.309508 3.75928 0
M  V30 415 H 42.3346 -0.727649 2.85988 0
M  V30 416 H 42.4156 0.969809 2.36703 0
M  V30 417 H 42.0596 1.66912 4.7969 0
M  V30 418 H 41.9896 -0.0481649 5.26578 0
M  V30 419 H 44.4806 0.369198 3.76092 0
M  V30 420 H 44.7936 1.37482 7.60473 0
M  V30 421 H 43.1386 1.22958 6.84037 0
M  V30 422 H 46.3296 0.541098 4.64962 0
M  V30 423 H 46.5026 0.999445 6.40246 0
M  V30 424 N 39.9087 -1.5758 0.0250728 0
M  V30 425 C 40.8567 -2.11125 -0.97617 0
M  V30 426 C 41.8507 -1.03689 -1.33959 0
M  V30 427 O 43.0567 -1.22128 -1.3223 0
M  V30 428 H 39.4317 -0.674468 -0.332561 0
M  V30 429 H 41.4027 -2.94194 -0.499223 0
M  V30 430 C 40.1517 -2.65017 -2.2508 0
M  V30 431 H 39.4747 -3.47333 -1.9799 0
M  V30 432 H 40.9147 -3.06133 -2.93357 0
M  V30 433 C 39.3737 -1.57574 -2.97779 0
M  V30 434 O 39.9037 -0.973203 -3.89733 0
M  V30 435 N 38.1097 -1.29716 -2.60043 0
M  V30 436 H 37.6567 -1.789 -1.85345 0
M  V30 437 H 37.6147 -0.58051 -3.08994 0
M  V30 438 N 41.3868 0.248026 -1.55636 0
M  V30 439 C 42.6148 0.993808 -1.81469 0
M  V30 440 C 43.0298 1.78991 -0.60064 0
M  V30 441 O 42.3868 1.77345 0.430682 0
M  V30 442 C 42.4378 1.93258 -3.05506 0
M  V30 443 O 42.1588 1.16869 -4.22224 0
M  V30 444 C 43.6598 2.79444 -3.4413 0
M  V30 445 H 40.8798 0.292486 -0.603898 0
M  V30 446 H 43.4238 0.271253 -2.02693 0
M  V30 447 H 41.5788 2.60943 -2.86335 0
M  V30 448 H 41.9928 1.80359 -4.92515 0
M  V30 449 H 43.4668 3.41066 -4.34026 0
M  V30 450 H 43.9438 3.50499 -2.64665 0
M  V30 451 H 44.5498 2.17214 -3.65648 0
M  V30 452 N 42.8649 1.48995 0.513639 0
M  V30 453 C 44.2809 1.35478 0.843682 0
M  V30 454 C 44.4809 0.378213 1.97919 0
M  V30 455 O 43.5369 -0.194689 2.51748 0
M  V30 456 C 44.8499 2.75901 1.1958 0
M  V30 457 C 46.3979 2.84509 1.30474 0
M  V30 458 C 46.8729 4.25671 1.69021 0
M  V30 459 N 48.3639 4.28422 1.76094 0
M  V30 460 C 49.0989 5.34601 2.07338 0
M  V30 461 N 48.5949 6.5104 2.36894 0
M  V30 462 N 50.3879 5.22007 2.08483 0
M  V30 463 H 42.5389 2.11092 -0.235328 0
M  V30 464 H 44.8019 0.947039 -0.0426669 0
M  V30 465 H 44.5079 3.49001 0.434913 0
M  V30 466 H 44.3819 3.10467 2.1422 0
M  V30 467 H 46.7689 2.11655 2.05637 0
M  V30 468 H 46.8499 2.53542 0.339155 0
M  V30 469 H 46.4939 4.99048 0.944135 0
M  V30 470 H 46.4239 4.54094 2.66658 0
M  V30 471 H 48.9149 3.44441 1.55464 0
M  V30 472 H 49.2279 7.2779 2.59887 0
M  V30 473 H 47.5729 6.54287 2.34378 0
M  V30 474 H 50.7639 4.30051 1.84861 0
M  V30 475 H 50.9369 6.04854 2.325 0
M  V30 476 N 44.343 -0.763751 1.37857 0
M  V30 477 C 45.306 -1.85889 1.34081 0
M  V30 478 C 46.306 -1.58949 0.243277 0
M  V30 479 O 47.496 -1.66882 0.499589 0
M  V30 480 C 44.628 -3.23176 1.08489 0
M  V30 481 H 45.821 -1.90648 2.31502 0
M  V30 482 H 43.374 -0.964367 1.23003 0
M  V30 483 H 44.109 -3.24091 0.116318 0
M  V30 484 H 43.894 -3.44124 1.8794 0
M  V30 485 H 45.384 -4.03254 1.08517 0
M  V30 486 N 45.8211 -1.22559 -0.990812 0
M  V30 487 C 46.7311 -1.01394 -2.11557 0
M  V30 488 C 47.7471 0.0383962 -1.73958 0
M  V30 489 O 48.9231 -0.154787 -2.00804 0
M  V30 490 C 45.9881 -0.596569 -3.41529 0
M  V30 491 C 45.0491 -1.72276 -3.93217 0
M  V30 492 C 44.2821 -1.32521 -5.16985 0
M  V30 493 O 44.5051 -0.204909 -5.70032 0
M  V30 494 O 43.4391 -2.14247 -5.62478 0
M  V30 495 H 47.2651 -1.95633 -2.32296 0
M  V30 496 H 44.8501 -1.01172 -1.0993 0
M  V30 497 H 46.7321 -0.374263 -4.19735 0
M  V30 498 H 45.4071 0.316939 -3.22145 0
M  V30 499 H 44.3141 -1.99961 -3.16174 0
M  V30 500 H 45.6471 -2.61421 -4.17037 0
M  V30 501 N 47.2992 1.18797 -1.03562 0
M  V30 502 C 48.5762 1.84469 -0.650434 0
M  V30 503 C 48.9562 1.92319 0.870433 0
M  V30 504 O 48.3042 1.44528 1.76986 0
M  V30 505 C 48.5142 3.2306 -1.32036 0
M  V30 506 C 49.8622 3.9915 -1.44792 0
M  V30 507 O 50.8862 3.32481 -1.27806 0
M  V30 508 O 49.7452 5.18587 -1.72423 0
M  V30 509 H 46.8392 0.795251 -0.226946 0
M  V30 510 H 49.3852 1.26231 -1.13419 0
M  V30 511 H 48.1572 3.1222 -2.3587 0
M  V30 512 H 47.7802 3.88949 -0.8249 0
M  V30 513 N 48.7773 0.814389 1.34928 0
M  V30 514 C 49.7103 0.175641 2.27523 0
M  V30 515 C 50.6883 -0.662953 1.48471 0
M  V30 516 O 51.8723 -0.628545 1.77712 0
M  V30 517 C 48.9993 -0.755516 3.30166 0
M  V30 518 C 48.0453 0.00445305 4.265 0
M  V30 519 S 48.8783 1.34582 5.18313 0
M  V30 520 C 50.0343 0.419315 6.24494 0
M  V30 521 H 50.2673 0.960691 2.8135 0
M  V30 522 H 47.8003 0.609846 1.41846 0
M  V30 523 H 49.7583 -1.28723 3.89796 0
M  V30 524 H 48.4193 -1.51402 2.75202 0
M  V30 525 H 47.6123 -0.703077 4.99072 0
M  V30 526 H 47.2143 0.466447 3.7108 0
M  V30 527 H 49.5063 -0.392432 6.76362 0
M  V30 528 H 50.4493 1.11446 6.99275 0
M  V30 529 H 50.8573 0.0115389 5.64499 0
M  V30 530 N 50.2554 -1.46986 0.568584 0
M  V30 531 C 51.4804 -2.07335 0.0520528 0
M  V30 532 C 51.9054 -1.41675 -1.23733 0
M  V30 533 O 51.2634 -0.495623 -1.74394 0
M  V30 534 C 51.3114 -3.60417 -0.11501 0
M  V30 535 O 50.4154 -3.95309 -1.17492 0
M  V30 536 H 49.7564 -0.661597 0.0564385 0
M  V30 537 H 52.2864 -1.88837 0.787507 0
M  V30 538 H 52.2964 -4.06698 -0.325644 0
M  V30 539 H 50.9714 -4.07601 0.826675 0
M  V30 540 H 49.5484 -3.60757 -0.943869 0
M  V30 541 N 51.7335 -0.305618 -1.54608 0
M  V30 542 C 52.6965 0.555591 -2.22364 0
M  V30 543 C 53.6965 1.05768 -1.21119 0
M  V30 544 O 54.8865 0.952972 -1.45822 0
M  V30 545 C 52.0185 1.76974 -2.91364 0
M  V30 546 H 53.2115 -0.0364572 -2.99878 0
M  V30 547 H 50.7645 -0.0565007 -1.56198 0
M  V30 548 H 51.4995 2.40151 -2.17941 0
M  V30 549 H 51.2845 1.41732 -3.65588 0
M  V30 550 H 52.7745 2.38148 -3.43038 0
M  V30 551 N 53.2116 1.57565 -0.0334293 0
M  V30 552 C 54.1616 2.06978 0.956237 0
M  V30 553 C 55.1456 0.971193 1.28283 0
M  V30 554 O 56.3376 1.23471 1.26822 0
M  V30 555 C 53.4666 2.60393 2.23719 0
M  V30 556 C 52.5526 3.7719 1.93877 0
M  V30 557 N 52.9436 4.87639 1.34321 0
M  V30 558 C 51.2416 3.85758 2.23845 0
M  V30 559 C 51.9426 5.68825 1.21709 0
M  V30 560 N 50.9186 5.1587 1.71404 0
M  V30 561 H 54.7206 2.89773 0.490815 0
M  V30 562 H 52.2346 1.61492 0.171478 0
M  V30 563 H 54.2316 2.94088 2.95496 0
M  V30 564 H 52.8916 1.79031 2.70884 0
M  V30 565 H 53.9026 5.07803 1.01767 0
M  V30 566 H 50.5796 3.1531 2.73653 0
M  V30 567 H 51.9696 6.67631 0.75621 0
M  V30 568 N 54.6897 -0.239769 1.55765 0
M  V30 569 C 55.6197 -1.30052 1.9393 0
M  V30 570 C 56.6007 -1.49839 0.805132 0
M  V30 571 O 57.7857 -1.62328 1.06599 0
M  V30 572 C 54.9157 -2.65391 2.2402 0
M  V30 573 C 53.8697 -2.60289 3.39755 0
M  V30 574 C 53.1957 -3.99489 3.55405 0
M  V30 575 C 54.4957 -2.16654 4.75246 0
M  V30 576 H 56.1897 -0.983573 2.82783 0
M  V30 577 H 53.7357 -0.471701 1.36055 0
M  V30 578 H 55.6887 -3.3974 2.49308 0
M  V30 579 H 54.4127 -2.98736 1.32 0
M  V30 580 H 53.0717 -1.88398 3.14487 0
M  V30 581 H 52.7197 -4.30112 2.60793 0
M  V30 582 H 52.4197 -3.96962 4.33238 0
M  V30 583 H 53.9437 -4.75528 3.83022 0
M  V30 584 H 55.3577 -2.80737 4.99859 0
M  V30 585 H 53.7547 -2.25223 5.56232 0
M  V30 586 H 54.8247 -1.11835 4.71827 0
M  V30 587 N 56.1678 -1.49265 -0.50573 0
M  V30 588 C 57.4168 -1.57761 -1.25675 0
M  V30 589 C 57.7298 -0.267371 -1.93764 0
M  V30 590 O 58.9358 -0.230827 -2.70517 0
M  V30 591 C 57.3918 -2.78332 -2.28165 0
M  V30 592 C 56.9998 -4.16096 -1.66037 0
M  V30 593 C 58.7438 -2.96155 -3.04125 0
M  V30 594 C 56.6508 -5.27895 -2.6661 0
M  V30 595 H 55.5808 -0.587391 -0.472745 0
M  V30 596 H 58.2318 -1.75644 -0.53118 0
M  V30 597 H 56.6138 -2.53934 -3.03865 0
M  V30 598 H 57.7878 -4.50612 -0.963622 0
M  V30 599 H 56.1028 -4.03591 -1.02484 0
M  V30 600 H 58.6998 -3.76849 -3.79327 0
M  V30 601 H 59.0428 -2.06534 -3.61455 0
M  V30 602 H 59.5758 -3.2057 -2.35541 0
M  V30 603 H 56.3148 -6.1956 -2.14068 0
M  V30 604 H 55.8348 -4.97839 -3.34539 0
M  V30 605 H 57.5138 -5.57031 -3.29129 0
M  V30 606 N 57.6459 0.756429 -1.3826 0
M  V30 607 C 58.8709 1.55077 -1.37717 0
M  V30 608 C 59.2959 1.88073 0.03164 0
M  V30 609 O 58.6539 1.50364 1.01293 0
M  V30 610 C 58.7019 2.8283 -2.23695 0
M  V30 611 O 57.8059 3.77862 -1.6521 0
M  V30 612 H 57.1469 0.469152 -0.469885 0
M  V30 613 H 59.6769 0.935019 -1.81985 0
M  V30 614 H 59.6869 3.31783 -2.37453 0
M  V30 615 H 58.3619 2.58144 -3.2609 0
M  V30 616 H 56.9389 3.36555 -1.60578 0
M  V30 617 N 59.124 1.23083 0.984299 0
M  V30 618 C 60.071 1.00854 2.07598 0
M  V30 619 C 61.041 -0.0726709 1.65941 0
M  V30 620 O 62.226 0.0786535 1.90638 0
M  V30 621 C 59.366 0.601645 3.39815 0
M  V30 622 C 58.479 1.75456 3.94765 0
M  V30 623 C 57.614 1.29482 5.15177 0
M  V30 624 C 56.653 2.41873 5.62284 0
M  V30 625 N 55.79 1.96885 6.73929 0
M  V30 626 H 60.63 1.943 2.25946 0
M  V30 627 H 58.167 0.968001 1.10762 0
M  V30 628 H 60.125 0.346854 4.15756 0
M  V30 629 H 58.755 -0.295803 3.21442 0
M  V30 630 H 57.807 2.12346 3.15616 0
M  V30 631 H 59.119 2.59965 4.25699 0
M  V30 632 H 58.273 0.997923 5.98437 0
M  V30 633 H 57.012 0.420046 4.85888 0
M  V30 634 H 56.017 2.72342 4.77608 0
M  V30 635 H 57.242 3.29881 5.93595 0
M  V30 636 H 55.188 1.11782 6.46406 0
M  V30 637 H 55.105 2.74956 7.04227 0
M  V30 638 H 56.373 1.70289 7.60672 0
M  V30 639 N 60.6021 -1.18246 1.0419 0
M  V30 640 C 61.8481 -1.88536 0.747122 0
M  V30 641 C 62.1811 -1.80223 -0.723409 0
M  V30 642 O 61.4561 -1.20337 -1.52804 0
M  V30 643 C 61.7391 -3.38968 1.21544 0
M  V30 644 C 61.5921 -3.56084 2.74816 0
M  V30 645 C 62.9111 -4.32648 0.806482 0
M  V30 646 H 60.0301 -0.684619 0.272883 0
M  V30 647 H 62.6721 -1.39113 1.29413 0
M  V30 648 H 60.8221 -3.8119 0.750081 0
M  V30 649 H 62.4941 -3.22946 3.29399 0
M  V30 650 H 60.7371 -2.98699 3.14582 0
M  V30 651 H 61.4081 -4.61639 3.02644 0
M  V30 652 H 63.8841 -3.98211 1.20695 0
M  V30 653 H 62.7601 -5.36462 1.1619 0
M  V30 654 H 63.0211 -4.41146 -0.29029 0
M  V30 655 N 62.0802 -0.821533 -1.34494 0
M  V30 656 C 63.0102 -0.257138 -2.3208 0
M  V30 657 C 63.9912 0.625645 -1.58176 0
M  V30 658 O 65.1762 0.552811 -1.86166 0
M  V30 659 C 62.3062 0.582958 -3.42372 0
M  V30 660 C 61.2602 -0.202571 -4.2752 0
M  V30 661 C 60.5862 0.760179 -5.29269 0
M  V30 662 C 61.8862 -1.40998 -5.02908 0
M  V30 663 H 63.5802 -1.07247 -2.79532 0
M  V30 664 H 61.1262 -0.517163 -1.34393 0
M  V30 665 H 63.0792 0.987972 -4.09655 0
M  V30 666 H 61.8032 1.43133 -2.93565 0
M  V30 667 H 60.4622 -0.588936 -3.61838 0
M  V30 668 H 60.1102 1.60447 -4.76724 0
M  V30 669 H 59.8102 0.238809 -5.87115 0
M  V30 670 H 61.3342 1.16308 -5.9942 0
M  V30 671 H 62.7482 -1.07905 -5.63054 0
M  V30 672 H 61.1452 -1.86689 -5.70322 0
M  V30 673 H 62.2152 -2.1889 -4.32684 0
M  V30 674 N 63.5583 1.46682 -0.576371 0
M  V30 675 C 64.4683 2.34032 0.163141 0
M  V30 676 C 65.4843 1.49367 0.892501 0
M  V30 677 O 66.6603 1.82252 0.857106 0
M  V30 678 C 63.7253 3.26435 1.16795 0
M  V30 679 C 62.7863 4.26998 0.443944 0
M  V30 680 C 62.0193 5.14986 1.40088 0
M  V30 681 O 62.2423 5.05785 2.637 0
M  V30 682 O 61.1763 5.94906 0.914917 0
M  V30 683 H 65.0023 2.98607 -0.55388 0
M  V30 684 H 62.5873 1.45554 -0.336821 0
M  V30 685 H 64.4693 3.83459 1.74748 0
M  V30 686 H 63.1443 2.64465 1.86655 0
M  V30 687 H 62.0513 3.7368 -0.177271 0
M  V30 688 H 63.3843 4.91736 -0.213566 0
M  V30 689 N 65.0364 0.313813 1.54444 0
M  V30 690 C 66.4524 -0.0391619 1.59552 0
M  V30 691 C 66.6524 -1.51322 1.33056 0
M  V30 692 O 65.7084 -2.26782 1.11022 0
M  V30 693 C 67.0214 0.370302 2.98411 0
M  V30 694 C 68.5694 0.320139 3.11358 0
M  V30 695 C 69.0444 0.704617 4.52547 0
M  V30 696 N 70.5354 0.657645 4.58508 0
M  V30 697 C 71.2704 0.927453 5.6585 0
M  V30 698 N 70.7664 1.26389 6.81174 0
M  V30 699 N 72.5594 0.853662 5.5558 0
M  V30 700 H 64.7104 1.27433 1.69925 0
M  V30 701 H 66.9734 0.517511 0.794284 0
M  V30 702 H 66.6794 1.39694 3.22767 0
M  V30 703 H 66.5534 -0.269619 3.76235 0
M  V30 704 H 68.9404 -0.697275 2.86744 0
M  V30 705 H 69.0214 0.99486 2.35661 0
M  V30 706 H 68.6654 1.7199 4.77893 0
M  V30 707 H 68.5954 0.00768843 5.26599 0
M  V30 708 H 71.0864 0.409067 3.75679 0
M  V30 709 H 71.3994 1.4554 7.58972 0
M  V30 710 H 69.7444 1.30206 6.82694 0
M  V30 711 H 72.9354 0.590383 4.64362 0
M  V30 712 H 73.1084 1.0673 6.3915 0
M  V30 713 N 66.5145 -1.57545 0.0417849 0
M  V30 714 C 67.4625 -2.12148 -0.953723 0
M  V30 715 C 68.4565 -1.05104 -1.32852 0
M  V30 716 O 69.6625 -1.23524 -1.30927 0
M  V30 717 H 66.0375 -0.677957 -0.325389 0
M  V30 718 H 68.0085 -2.94707 -0.467991 0
M  V30 719 C 66.7575 -2.6739 -2.22257 0
M  V30 720 H 66.0805 -3.49413 -1.94295 0
M  V30 721 H 67.5205 -3.09227 -2.90094 0
M  V30 722 C 65.9795 -1.60723 -2.96091 0
M  V30 723 O 66.5095 -1.01449 -3.88679 0
M  V30 724 N 64.7155 -1.32466 -2.58652 0
M  V30 725 H 64.2625 -1.80856 -1.83437 0
M  V30 726 H 64.2205 -0.61325 -3.08361 0
M  V30 727 N 67.9926 0.231505 -1.5589 0
M  V30 728 C 69.2176 0.978689 -1.82856 0
M  V30 729 C 69.6426 1.77559 -0.620846 0
M  V30 730 O 69.0006 1.76119 0.430305 0
M  V30 731 C 69.0486 1.87997 -3.07716 0
M  V30 732 O 68.1526 2.97393 -2.85712 0
M  V30 733 H 67.4936 0.277663 -0.603158 0
M  V30 734 H 70.0236 0.24783 -2.03093 0
M  V30 735 H 70.0336 2.2917 -3.37558 0
M  V30 736 H 68.7086 1.29417 -3.95252 0
M  V30 737 H 67.2856 2.60238 -2.67078 0
M  V30 738 N 69.4707 1.49531 0.497807 0
M  V30 739 C 70.4177 1.66436 1.59899 0
M  V30 740 C 71.3877 0.505793 1.58212 0
M  V30 741 O 72.5727 0.733202 1.7615 0
M  V30 742 C 69.7127 1.7399 2.98029 0
M  V30 743 C 68.8257 3.01172 3.09708 0
M  V30 744 C 67.9607 2.99686 4.38591 0
M  V30 745 C 66.9997 4.21434 4.43914 0
M  V30 746 N 66.1367 4.1784 5.64229 0
M  V30 747 H 70.9767 2.60459 1.44793 0
M  V30 748 H 68.5137 1.29137 0.704423 0
M  V30 749 H 70.4717 1.76352 3.78095 0
M  V30 750 H 69.1017 0.834301 3.11832 0
M  V30 751 H 68.1537 3.08408 2.22685 0
M  V30 752 H 69.4657 3.91165 3.09502 0
M  V30 753 H 68.6197 3.00628 5.2698 0
M  V30 754 H 67.3587 2.07477 4.41367 0
M  V30 755 H 66.3637 4.20733 3.53926 0
M  V30 756 H 67.5887 5.14839 4.42851 0
M  V30 757 H 65.5347 3.28469 5.67841 0
M  V30 758 H 65.4517 5.01571 5.65652 0
M  V30 759 H 66.7197 4.22889 6.54817 0
M  V30 760 N 70.9488 -0.749086 1.3866 0
M  V30 761 C 72.1948 -1.51056 1.35314 0
M  V30 762 C 72.5278 -1.94121 -0.0553751 0
M  V30 763 O 71.8028 -1.65763 -1.01749 0
M  V30 764 C 72.0858 -2.76003 2.31288 0
M  V30 765 C 71.9388 -2.39047 3.8102 0
M  V30 766 C 73.2578 -3.78046 2.2532 0
M  V30 767 H 70.3768 -0.547972 0.492844 0
M  V30 768 H 73.0188 -0.857628 1.69543 0
M  V30 769 H 71.1688 -3.31716 2.02229 0
M  V30 770 H 72.8408 -1.89074 4.20771 0
M  V30 771 H 71.0838 -1.71449 3.98482 0
M  V30 772 H 71.7548 -3.28462 4.4364 0
M  V30 773 H 74.2308 -3.31884 2.50983 0
M  V30 774 H 73.1068 -4.63159 2.94576 0
M  V30 775 H 73.3678 -4.23957 1.25352 0
M  V30 776 N 72.4269 -1.23603 -0.977757 0
M  V30 777 C 73.7039 -0.977897 -1.69401 0
M  V30 778 C 74.0839 0.502738 -2.05026 0
M  V30 779 O 73.4319 1.47459 -1.74551 0
M  V30 780 C 73.6419 -1.89077 -2.93345 0
M  V30 781 C 74.9899 -2.15579 -3.65802 0
M  V30 782 O 76.0139 -1.86648 -3.03383 0
M  V30 783 O 74.8729 -2.64658 -4.78141 0
M  V30 784 H 71.9669 -0.369025 -0.740101 0
M  V30 785 H 74.5129 -1.34657 -1.03274 0
M  V30 786 H 73.2849 -2.89158 -2.63634 0
M  V30 787 H 72.9079 -1.52463 -3.67207 0
M  V30 788 N 73.905 1.17692 -1.04816 0
M  V30 789 C 75.316 1.69501 -0.782698 0
M  V30 790 C 75.667 1.83456 0.695577 0
M  V30 791 O 74.792 1.51942 1.54086 0
M  V30 792 C 75.387 3.07874 -1.41419 0
M  V30 793 C 73.946 3.56864 -1.19686 0
M  V30 794 C 73.093 2.3322 -1.50012 0
M  V30 795 H 76.044 1.02262 -1.2136 0
M  V30 796 H 76.065 3.71528 -0.821428 0
M  V30 797 H 75.577 2.97685 -2.49009 0
M  V30 798 H 73.678 3.72337 -0.140043 0
M  V30 799 H 73.791 4.39851 -1.89916 0
M  V30 800 H 72.155 2.37501 -0.920071 0
M  V30 801 H 72.938 2.25644 -2.58727 0
M  V30 802 N 75.3831 0.828654 1.34056 0
M  V30 803 C 76.6311 0.41863 1.97717 0
M  V30 804 C 76.9521 -1.02314 1.66002 0
M  V30 805 O 76.2221 -1.71119 0.953683 0
M  V30 806 H 74.8021 0.151809 0.731412 0
M  V30 807 H 77.4641 1.05936 1.63596 0
M  V30 808 H 76.5601 0.542318 3.07352 0
M  V30 809 N 76.8612 -1.46375 0.584142 0
M  V30 810 C 77.7712 -2.34115 -0.150728 0
M  V30 811 C 78.7872 -1.49838 -0.884567 0
M  V30 812 O 79.9632 -1.82704 -0.847429 0
M  V30 813 C 77.0282 -3.2705 -1.15062 0
M  V30 814 C 76.0892 -4.27228 -0.421293 0
M  V30 815 C 75.3222 -5.15722 -1.37355 0
M  V30 816 O 75.5452 -5.07176 -2.61014 0
M  V30 817 O 74.4792 -5.95383 -0.883355 0
M  V30 818 H 78.3052 -2.98309 0.569708 0
M  V30 819 H 75.8902 -1.45373 0.344535 0
M  V30 820 H 77.7722 -3.84381 -1.72712 0
M  V30 821 H 76.4472 -2.65451 -1.8525 0
M  V30 822 H 75.3542 -3.7358 0.197085 0
M  V30 823 H 76.6872 -4.91616 0.239641 0
M  V30 824 N 78.3393 -0.321999 -1.54275 0
M  V30 825 C 79.5853 0.281461 -2.00837 0
M  V30 826 C 79.9183 1.51909 -1.20985 0
M  V30 827 O 79.1933 1.923 -0.291733 0
M  V30 828 C 79.4763 0.617162 -3.54772 0
M  V30 829 C 79.3293 -0.631064 -4.45351 0
M  V30 830 C 80.6483 1.43542 -4.16033 0
M  V30 831 H 77.7673 0.100826 -0.730071 0
M  V30 832 H 80.4093 -0.438268 -1.84876 0
M  V30 833 H 78.5593 1.23034 -3.68504 0
M  V30 834 H 80.2313 -1.26934 -4.43492 0
M  V30 835 H 78.4743 -1.26025 -4.15091 0
M  V30 836 H 79.1453 -0.351735 -5.50878 0
M  V30 837 H 81.6213 0.917134 -4.05867 0
M  V30 838 H 80.4973 1.63907 -5.23856 0
M  V30 839 H 80.7583 2.43108 -3.69257 0
M  V30 840 N 79.8174 1.5752 -0.0501392 0
M  V30 841 C 80.7274 2.14952 0.939827 0
M  V30 842 C 81.7434 1.10706 1.34239 0
M  V30 843 O 82.9194 1.42869 1.41952 0
M  V30 844 C 79.9844 2.68232 2.19665 0
M  V30 845 C 79.0454 3.87272 1.85253 0
M  V30 846 C 78.2784 4.38002 3.04943 0
M  V30 847 O 78.5014 3.87811 4.18281 0
M  V30 848 O 77.4354 5.29602 2.86017 0
M  V30 849 H 81.2614 2.9986 0.481392 0
M  V30 850 H 78.8464 1.4841 0.171699 0
M  V30 851 H 80.7284 3.02475 2.93406 0
M  V30 852 H 79.4034 1.86395 2.64648 0
M  V30 853 H 78.3104 3.5792 1.0883 0
M  V30 854 H 79.6434 4.70336 1.4507 0
M  V30 855 N 81.2955 -0.223234 1.56011 0
M  V30 856 C 82.5725 -0.972108 1.69733 0
M  V30 857 C 82.9525 -2.02485 0.59691 0
M  V30 858 O 82.3005 -2.25037 -0.396324 0
M  V30 859 C 82.5105 -1.58407 3.10979 0
M  V30 860 C 83.8585 -2.07696 3.70334 0
M  V30 861 O 84.8825 -1.68304 3.1393 0
M  V30 862 O 83.7415 -2.80096 4.69264 0
M  V30 863 H 80.8355 -0.453993 0.691245 0
M  V30 864 H 83.3815 -0.215149 1.68331 0
M  V30 865 H 82.1535 -0.823831 3.82529 0
M  V30 866 H 81.7765 -2.40661 3.16493 0
M  V30 867 N 82.7736 -1.49793 -0.48987 0
M  V30 868 C 84.0196 -1.60078 -1.24511 0
M  V30 869 C 84.3526 -0.291608 -1.91998 0
M  V30 870 O 83.6276 0.705647 -1.81248 0
M  V30 871 C 83.9106 -2.76791 -2.30345 0
M  V30 872 C 83.7636 -4.17535 -1.67286 0
M  V30 873 C 85.0826 -2.89111 -3.31817 0
M  V30 874 H 82.2016 -0.582645 -0.451324 0
M  V30 875 H 84.8436 -1.82117 -0.541612 0
M  V30 876 H 82.9936 -2.5813 -2.90346 0
M  V30 877 H 84.6656 -4.4774 -1.11026 0
M  V30 878 H 82.9086 -4.22665 -0.976577 0
M  V30 879 H 83.5796 -4.95094 -2.44103 0
M  V30 880 H 86.0556 -3.06133 -2.81819 0
M  V30 881 H 84.9316 -3.72433 -4.03219 0
M  V30 882 H 85.1926 -1.9893 -3.94815 0
M  V30 883 N 84.2517 0.741722 -1.39055 0
M  V30 884 C 85.5007 1.49656 -1.35225 0
M  V30 885 C 85.8137 1.95533 0.0512708 0
M  V30 886 O 87.0197 2.7067 0.212138 0
M  V30 887 C 85.4757 2.70389 -2.37525 0
M  V30 888 C 85.0837 2.31489 -3.83558 0
M  V30 889 C 86.8277 3.48236 -2.42759 0
M  V30 890 C 84.7347 3.48903 -4.77515 0
M  V30 891 H 83.6647 0.56197 -0.502699 0
M  V30 892 H 86.3157 0.809727 -1.64668 0
M  V30 893 H 84.6977 3.41113 -2.01142 0
M  V30 894 H 85.8717 1.68354 -4.28945 0
M  V30 895 H 84.1867 1.66749 -3.81554 0
M  V30 896 H 86.7837 4.35558 -3.1015 0
M  V30 897 H 87.1267 3.90229 -1.45008 0
M  V30 898 H 87.6597 2.84535 -2.78002 0
M  V30 899 H 84.3987 3.11966 -5.76504 0
M  V30 900 H 83.9187 4.11041 -4.36813 0
M  V30 901 H 85.5977 4.15328 -4.96096 0
M  V30 902 N 85.7298 1.2412 0.971189 0
M  V30 903 C 86.9758 1.09048 1.71698 0
M  V30 904 C 87.3308 -0.367442 1.88859 0
M  V30 905 O 86.6238 -1.26792 1.43646 0
M  V30 906 C 86.8178 1.75983 3.11071 0
M  V30 907 C 86.6468 3.28133 3.07504 0
M  V30 908 C 85.4168 3.97331 3.1218 0
M  V30 909 C 87.6148 4.24773 2.89952 0
M  V30 910 N 85.5968 5.3639 2.98596 0
M  V30 911 C 86.9678 5.50806 2.84627 0
M  V30 912 C 89.0228 4.15392 2.74506 0
M  V30 913 C 87.7258 6.68533 2.65437 0
M  V30 914 C 89.7518 5.32793 2.56682 0
M  V30 915 C 89.1138 6.57756 2.52063 0
M  V30 916 H 85.2128 0.453632 0.636979 0
M  V30 917 H 87.7968 1.56983 1.15171 0
M  V30 918 H 85.9678 1.30566 3.65796 0
M  V30 919 H 87.6998 1.53803 3.74335 0
M  V30 920 H 84.4548 3.48473 3.20724 0
M  V30 921 H 84.8788 6.09321 2.95054 0
M  V30 922 H 89.5208 3.19543 2.76861 0
M  V30 923 H 87.2388 7.64509 2.61825 0
M  V30 924 H 90.8248 5.27383 2.4568 0
M  V30 925 H 89.7048 7.4707 2.38446 0
M  V30 926 N 87.2079 -1.17134 1.05439 0
M  V30 927 C 88.4559 -1.87085 0.764429 0
M  V30 928 C 88.7769 -1.81584 -0.710787 0
M  V30 929 O 88.0469 -1.24349 -1.51374 0
M  V30 930 H 86.6269 -0.692627 0.279779 0
M  V30 931 H 89.2889 -1.42087 1.33406 0
M  V30 932 H 88.3849 -2.92759 1.0816 0
M  V30 933 N 88.686 -0.835752 -1.33615 0
M  V30 934 C 89.926 -0.43599 -1.99696 0
M  V30 935 C 90.29 0.98557 -1.64774 0
M  V30 936 O 91.491 1.48889 -2.23798 0
M  V30 937 C 89.762 -0.646721 -3.515 0
M  V30 938 S 91.321 -0.341715 -4.37467 0
M  V30 939 H 88.139 -0.164136 -0.691795 0
M  V30 940 H 90.741 -1.08436 -1.62671 0
M  V30 941 H 89.445 -1.68077 -3.74404 0
M  V30 942 H 88.976 0.0159173 -3.93397 0
M  V30 943 H 90.991 0.839708 -4.89043 0
M  V30 944 N 90.1641 1.46063 -0.591896 0
M  V30 945 C 91.4101 2.02638 -0.0811191 0
M  V30 946 C 91.7431 1.4613 1.27905 0
M  V30 947 O 91.0181 0.629908 1.84017 0
M  V30 948 C 91.3011 3.60091 -0.0252436 0
M  V30 949 C 91.1541 4.26965 -1.41496 0
M  V30 950 C 92.4731 4.3496 0.670685 0
M  V30 951 H 89.5921 0.73635 -0.0309524 0
M  V30 952 H 92.2341 1.741 -0.760859 0
M  V30 953 H 90.3841 3.84535 0.553624 0
M  V30 954 H 92.0561 4.13756 -2.0397 0
M  V30 955 H 90.2991 3.85971 -1.98011 0
M  V30 956 H 90.9701 5.35781 -1.32825 0
M  V30 957 H 93.4461 4.15716 0.178825 0
M  V30 958 H 92.3221 5.44686 0.678837 0
M  V30 959 H 92.5831 4.06685 1.73379 0
M  V30 960 N 91.6422 0.330177 1.54103 0
M  V30 961 C 92.5902 -0.548226 2.26047 0
M  V30 962 C 93.5842 -1.11309 1.27698 0
M  V30 963 O 94.7902 -1.06036 1.45452 0
M  V30 964 H 91.1652 -0.195456 0.726155 0
M  V30 965 H 93.1362 0.0807567 2.98291 0
M  V30 966 C 91.8852 -1.69415 3.03634 0
M  V30 967 H 91.2082 -1.26876 3.79134 0
M  V30 968 H 92.6482 -2.28423 3.5721 0
M  V30 969 C 91.1072 -2.61569 2.12328 0
M  V30 970 O 91.6372 -3.63462 1.7105 0
M  V30 971 N 89.8432 -2.29952 1.77681 0
M  V30 972 H 89.3902 -1.47134 2.11446 0
M  V30 973 H 89.3482 -2.91871 1.16869 0
M  V30 974 N 93.1203 -1.57491 0.0584922 0
M  V30 975 C 94.0523 -2.08916 -0.942694 0
M  V30 976 C 95.0653 -1.0185 -1.27006 0
M  V30 977 O 96.2543 -1.29398 -1.22957 0
M  V30 978 C 93.3543 -2.52341 -2.26224 0
M  V30 979 C 92.5273 -3.82827 -2.1157 0
M  V30 980 C 91.5863 -4.12487 -3.26712 0
M  V30 981 O 90.6123 -4.82295 -3.02292 0
M  V30 982 N 91.8143 -3.64978 -4.5141 0
M  V30 983 H 94.5793 -2.95437 -0.503722 0
M  V30 984 H 92.1403 -1.61397 -0.12757 0
M  V30 985 H 94.1323 -2.69254 -3.02133 0
M  V30 986 H 92.7023 -1.7103 -2.61663 0
M  V30 987 H 91.9223 -3.75425 -1.20208 0
M  V30 988 H 93.2103 -4.68263 -1.99015 0
M  V30 989 H 92.6083 -3.08558 -4.7414 0
M  V30 990 H 91.1653 -3.87115 -5.2439 0
M  V30 991 N 94.5984 0.214957 -1.56127 0
M  V30 992 C 95.8264 0.955092 -1.83536 0
M  V30 993 C 96.2414 1.77677 -0.638472 0
M  V30 994 O 95.5984 1.78219 0.392968 0
M  V30 995 C 95.6494 1.86734 -3.09536 0
M  V30 996 O 95.3704 1.07887 -4.24608 0
M  V30 997 C 96.8714 2.72082 -3.4998 0
M  V30 998 H 94.0914 0.279611 -0.609966 0
M  V30 999 H 96.6354 0.228197 -2.03223 0
M  V30 1000 H 94.7904 2.5481 -2.91806 0
M  V30 1001 H 95.2044 1.69872 -4.9623 0
M  V30 1002 H 96.6784 3.31782 -4.41163 0
M  V30 1003 H 97.1554 3.44806 -2.7204 0
M  V30 1004 H 97.7614 2.09409 -3.70173 0
M  V30 1005 N 96.0765 1.50051 0.48192 0
M  V30 1006 C 97.0065 1.71046 1.58951 0
M  V30 1007 C 97.9875 0.559288 1.60642 0
M  V30 1008 O 99.1725 0.797243 1.77081 0
M  V30 1009 C 96.3025 1.79462 2.97339 0
M  V30 1010 C 95.2565 2.94558 3.10515 0
M  V30 1011 C 94.5825 2.88105 4.50444 0
M  V30 1012 C 95.8825 4.35227 2.88747 0
M  V30 1013 H 97.5765 2.6378 1.41635 0
M  V30 1014 H 95.1225 1.26936 0.679942 0
M  V30 1015 H 97.0755 1.92734 3.74742 0
M  V30 1016 H 95.7995 0.833412 3.15788 0
M  V30 1017 H 94.4585 2.80918 2.35543 0
M  V30 1018 H 94.1065 1.89853 4.65795 0
M  V30 1019 H 93.8065 3.65366 4.60197 0
M  V30 1020 H 95.3305 3.03412 5.29881 0
M  V30 1021 H 96.7445 4.49449 3.55905 0
M  V30 1022 H 95.1415 5.13856 3.09955 0
M  V30 1023 H 96.2115 4.48347 1.84696 0
M  V30 1024 N 97.5546 -0.734337 1.39446 0
M  V30 1025 C 98.4646 -1.87879 1.40495 0
M  V30 1026 C 99.4806 -1.714 0.299672 0
M  V30 1027 O 100.657 -1.93991 0.541249 0
M  V30 1028 C 97.7216 -3.23477 1.24754 0
M  V30 1029 C 96.7826 -3.52344 2.45259 0
M  V30 1030 C 96.0156 -4.81473 2.30259 0
M  V30 1031 O 96.2386 -5.55237 1.30643 0
M  V30 1032 O 95.1726 -5.10254 3.19256 0
M  V30 1033 H 98.9986 -1.89949 2.36966 0
M  V30 1034 H 96.5836 -0.882243 1.20569 0
M  V30 1035 H 98.4656 -4.04509 1.18111 0
M  V30 1036 H 97.1406 -3.22176 0.313781 0
M  V30 1037 H 96.0476 -2.71396 2.57478 0
M  V30 1038 H 97.3806 -3.58426 3.37331 0
M  V30 1039 N 99.0327 -1.24633 -0.964593 0
M  V30 1040 C 99.9647 -0.999302 -2.06268 0
M  V30 1041 C 100.978 0.0323226 -1.62768 0
M  V30 1042 O 102.167 -0.205079 -1.77318 0
M  V30 1043 C 99.2667 -0.486816 -3.35385 0
M  V30 1044 C 98.4397 -1.5823 -4.07777 0
M  V30 1045 C 97.4987 -1.07191 -5.15166 0
M  V30 1046 O 96.5247 -1.76426 -5.41168 0
M  V30 1047 N 97.7267 0.0920373 -5.80427 0
M  V30 1048 H 100.492 -1.94477 -2.28033 0
M  V30 1049 H 98.0527 -1.15704 -1.13244 0
M  V30 1050 H 100.045 -0.130066 -4.04491 0
M  V30 1051 H 98.6147 0.364459 -3.10468 0
M  V30 1052 H 97.8347 -2.11109 -3.32906 0
M  V30 1053 H 99.1227 -2.31854 -4.52903 0
M  V30 1054 H 98.5207 0.670784 -5.61709 0
M  V30 1055 H 97.0777 0.389905 -6.50633 0
M  V30 1056 N 100.511 1.16574 -1.06058 0
M  V30 1057 C 101.759 1.86677 -0.77434 0
M  V30 1058 C 102.08 1.81959 0.701147 0
M  V30 1059 O 101.35 1.2515 1.50713 0
M  V30 1060 H 99.9298 0.691134 -0.283449 0
M  V30 1061 H 102.592 1.41378 -1.34158 0
M  V30 1062 H 101.688 2.92181 -1.09711 0
M  V30 1063 N 101.989 0.842826 1.3317 0
M  V30 1064 C 103.235 0.450342 1.98352 0
M  V30 1065 C 103.59 -0.980508 1.65541 0
M  V30 1066 O 102.883 -1.67678 0.927065 0
M  V30 1067 C 103.077 0.612607 3.52111 0
M  V30 1068 C 102.906 2.05768 3.99862 0
M  V30 1069 C 101.676 2.69374 4.27511 0
M  V30 1070 C 103.874 3.02688 4.15794 0
M  V30 1071 N 101.856 4.04915 4.61429 0
M  V30 1072 C 103.227 4.23186 4.53115 0
M  V30 1073 C 105.282 2.99041 3.98094 0
M  V30 1074 C 103.985 5.40518 4.74587 0
M  V30 1075 C 106.011 4.15607 4.20743 0
M  V30 1076 C 105.373 5.3486 4.58371 0
M  V30 1077 H 101.472 0.213296 0.752349 0
M  V30 1078 H 104.056 1.09173 1.61212 0
M  V30 1079 H 102.227 0.000998822 3.884 0
M  V30 1080 H 103.959 0.191179 4.04248 0
M  V30 1081 H 100.714 2.20485 4.19146 0
M  V30 1082 H 101.138 4.74798 4.82593 0
M  V30 1083 H 105.78 2.0797 3.68114 0
M  V30 1084 H 103.498 6.3213 5.03425 0
M  V30 1085 H 107.084 4.14207 4.08563 0
M  V30 1086 H 105.964 6.23558 4.75547 0
M  V30 1087 N 103.467 -1.45747 0.599634 0
M  V30 1088 C 104.415 -2.322 -0.136426 0
M  V30 1089 C 105.409 -1.45497 -0.867583 0
M  V30 1090 O 106.615 -1.62027 -0.78405 0
M  V30 1091 H 102.99 -0.749368 -0.0628588 0
M  V30 1092 H 104.961 -2.92072 0.611281 0
M  V30 1093 C 103.71 -3.28974 -1.12567 0
M  V30 1094 H 103.033 -3.9568 -0.572484 0
M  V30 1095 H 104.473 -3.92212 -1.61077 0
M  V30 1096 C 102.932 -2.55561 -2.19523 0
M  V30 1097 O 103.462 -2.33111 -3.27143 0
M  V30 1098 N 101.668 -2.15832 -1.94589 0
M  V30 1099 H 101.215 -2.3429 -1.07078 0
M  V30 1100 H 101.173 -1.67034 -2.66359 0
M  V30 1101 N 104.945 -0.338344 -1.53925 0
M  V30 1102 C 106.194 0.260732 -2.00008 0
M  V30 1103 C 106.507 1.52073 -1.23017 0
M  V30 1104 O 107.713 2.19672 -1.5955 0
M  V30 1105 C 106.169 0.51515 -3.56194 0
M  V30 1106 C 105.777 -0.728645 -4.42035 0
M  V30 1107 C 107.521 1.07337 -4.10706 0
M  V30 1108 C 105.428 -0.445315 -5.89721 0
M  V30 1109 H 104.358 0.101205 -0.747177 0
M  V30 1110 H 107.009 -0.452866 -1.77824 0
M  V30 1111 H 105.391 1.28932 -3.74423 0
M  V30 1112 H 106.565 -1.50352 -4.35581 0
M  V30 1113 H 104.88 -1.20813 -3.98489 0
M  V30 1114 H 107.477 1.30022 -5.18651 0
M  V30 1115 H 107.82 2.0273 -3.63602 0
M  V30 1116 H 108.353 0.360034 -3.96167 0
M  V30 1117 H 105.092 -1.36883 -6.41049 0
M  V30 1118 H 104.612 0.291569 -5.99091 0
M  V30 1119 H 106.291 -0.0606218 -6.46972 0
M  V30 1120 N 106.423 1.57458 -0.0668435 0
M  V30 1121 C 107.386 2.11323 0.887422 0
M  V30 1122 C 108.386 1.03618 1.22964 0
M  V30 1123 O 109.576 1.29626 1.16373 0
M  V30 1124 C 106.708 2.61048 2.19242 0
M  V30 1125 H 107.901 2.96942 0.420194 0
M  V30 1126 H 105.454 1.55239 0.181793 0
M  V30 1127 H 106.189 1.78868 2.70512 0
M  V30 1128 H 105.974 3.39769 1.95702 0
M  V30 1129 H 107.464 3.02814 2.87565 0
M  V30 1130 N 107.901 -0.206675 1.56239 0
M  V30 1131 C 109.317 -0.557025 1.49564 0
M  V30 1132 C 109.517 -1.86424 0.764735 0
M  V30 1133 O 108.573 -2.50584 0.310491 0
M  V30 1134 C 109.886 -0.622478 2.94186 0
M  V30 1135 C 111.434 -0.712099 3.04792 0
M  V30 1136 C 111.909 -0.808767 4.50803 0
M  V30 1137 N 113.4 -0.8726 4.54907 0
M  V30 1138 C 114.135 -0.967365 5.65181 0
M  V30 1139 N 113.631 -1.02515 6.85173 0
M  V30 1140 N 115.424 -1.00366 5.53067 0
M  V30 1141 H 107.575 0.650943 2.02179 0
M  V30 1142 H 109.838 0.230387 0.919579 0
M  V30 1143 H 109.544 0.268727 3.50672 0
M  V30 1144 H 109.418 -1.4811 3.46905 0
M  V30 1145 H 111.805 -1.59374 2.48363 0
M  V30 1146 H 111.886 0.172489 2.55218 0
M  V30 1147 H 111.53 0.0684754 5.07854 0
M  V30 1148 H 111.46 -1.70899 4.98098 0
M  V30 1149 H 113.951 -0.837657 3.68499 0
M  V30 1150 H 114.264 -1.09765 7.64965 0
M  V30 1151 H 112.609 -0.994026 6.87855 0
M  V30 1152 H 115.8 -0.95527 4.58249 0
M  V30 1153 H 115.973 -1.07405 6.39037 0
M  V30 1154 N 109.379 -1.50304 -0.473955 0
M  V30 1155 C 110.312 -1.63595 -1.59097 0
M  V30 1156 C 111.29 -0.484142 -1.55225 0
M  V30 1157 O 112.474 -0.703271 -1.7489 0
M  V30 1158 C 109.601 -1.61589 -2.97669 0
M  V30 1159 C 108.647 -2.82295 -3.19705 0
M  V30 1160 S 109.48 -4.43635 -2.99913 0
M  V30 1161 C 110.636 -4.44317 -4.40832 0
M  V30 1162 H 110.869 -2.58082 -1.47583 0
M  V30 1163 H 108.402 -1.39531 -0.661087 0
M  V30 1164 H 110.36 -1.61116 -3.7756 0
M  V30 1165 H 109.021 -0.683421 -3.06575 0
M  V30 1166 H 108.214 -2.77188 -4.20931 0
M  V30 1167 H 107.816 -2.8032 -2.47582 0
M  V30 1168 H 110.108 -4.17703 -5.33414 0
M  V30 1169 H 111.051 -5.45911 -4.50984 0
M  V30 1170 H 111.459 -3.74059 -4.22777 0
M  V30 1171 N 110.857 0.726932 -1.39834 0
M  V30 1172 C 111.82 1.82269 -1.38962 0
M  V30 1173 C 112.82 1.58248 -0.285334 0
M  V30 1174 O 114.01 1.65499 -0.54366 0
M  V30 1175 C 111.142 3.20186 -1.17019 0
M  V30 1176 H 112.335 1.84443 -2.36476 0
M  V30 1177 H 109.888 0.931416 -1.25516 0
M  V30 1178 H 110.623 3.23669 -0.202204 0
M  V30 1179 H 110.408 3.3902 -1.96998 0
M  V30 1180 H 111.898 4.00235 -1.1917 0
M  V30 1181 N 112.336 1.25143 0.95797 0
M  V30 1182 C 113.561 1.12521 1.74223 0
M  V30 1183 C 113.986 -0.317402 1.85403 0
M  V30 1184 O 113.344 -1.2299 1.33204 0
M  V30 1185 C 113.392 1.78062 3.1357 0
M  V30 1186 O 112.496 1.058 3.98598 0
M  V30 1187 H 111.837 0.39304 0.535178 0
M  V30 1188 H 114.367 1.65641 1.201 0
M  V30 1189 H 114.377 1.84213 3.64046 0
M  V30 1190 H 113.052 2.83021 3.04749 0
M  V30 1191 H 111.629 1.07506 3.57067 0
M  V30 1192 N 113.814 -1.1601 1.06675 0
M  V30 1193 C 114.744 -2.22688 0.702307 0
M  V30 1194 C 115.725 -1.67306 -0.307032 0
M  V30 1195 O 116.91 -1.93352 -0.181305 0
M  V30 1196 C 114.04 -3.47178 0.092038 0
M  V30 1197 C 112.994 -4.15477 1.02777 0
M  V30 1198 C 112.32 -5.33963 0.28061 0
M  V30 1199 C 113.62 -4.66019 2.35846 0
M  V30 1200 H 115.314 -2.53429 1.59419 0
M  V30 1201 H 112.86 -1.21813 0.767961 0
M  V30 1202 H 114.813 -4.21037 -0.174814 0
M  V30 1203 H 113.537 -3.15749 -0.834877 0
M  V30 1204 H 112.196 -3.43549 1.27944 0
M  V30 1205 H 111.844 -4.98788 -0.649545 0
M  V30 1206 H 111.544 -5.806 0.904258 0
M  V30 1207 H 113.068 -6.10596 0.021396 0
M  V30 1208 H 114.482 -5.3144 2.15045 0
M  V30 1209 H 112.879 -5.23293 2.93743 0
M  V30 1210 H 113.949 -3.82023 2.98641 0
M  V30 1211 N 115.292 -0.849877 -1.32721 0
M  V30 1212 C 116.225 -0.235903 -2.26977 0
M  V30 1213 C 117.203 0.623355 -1.50177 0
M  V30 1214 O 118.387 0.581207 -1.79316 0
M  V30 1215 C 115.514 0.667712 -3.32053 0
M  V30 1216 C 114.56 -0.11753 -4.26338 0
M  V30 1217 S 115.393 -1.48277 -5.14562 0
M  V30 1218 C 116.549 -0.584741 -6.23163 0
M  V30 1219 H 116.782 -1.03495 -2.78704 0
M  V30 1220 H 114.315 -0.64724 -1.40179 0
M  V30 1221 H 116.273 1.18343 -3.93072 0
M  V30 1222 H 114.934 1.44052 -2.7912 0
M  V30 1223 H 114.127 0.57051 -5.00761 0
M  V30 1224 H 113.729 -0.564668 -3.69713 0
M  V30 1225 H 116.021 0.212968 -6.77165 0
M  V30 1226 H 116.964 -1.29947 -6.96074 0
M  V30 1227 H 117.372 -0.161202 -5.6427 0
M  V30 1228 N 116.77 1.45427 -0.607355 0
M  V30 1229 C 117.998 2.06614 -0.108814 0
M  V30 1230 C 118.413 1.45204 1.2067 0
M  V30 1231 O 117.77 0.566132 1.73497 0
M  V30 1232 C 117.821 3.61481 0.0375347 0
M  V30 1233 O 117.542 4.20598 -1.22593 0
M  V30 1234 C 119.043 4.39652 0.567561 0
M  V30 1235 H 116.263 0.66747 -0.0687351 0
M  V30 1236 H 118.807 1.86675 -0.835022 0
M  V30 1237 H 116.962 3.80762 0.714068 0
M  V30 1238 H 117.376 5.1377 -1.05547 0
M  V30 1239 H 118.85 5.48518 0.61905 0
M  V30 1240 H 119.327 4.09417 1.58978 0
M  V30 1241 H 119.933 4.25234 -0.0749202 0
M  V30 1242 N 118.248 0.346503 1.53744 0
M  V30 1243 C 119.18 -0.543316 2.22667 0
M  V30 1244 C 120.193 -1.06159 1.23427 0
M  V30 1245 O 121.382 -0.971235 1.49764 0
M  V30 1246 C 118.482 -1.76076 2.89569 0
M  V30 1247 C 117.655 -1.37727 4.15151 0
M  V30 1248 C 116.714 -2.45471 4.65436 0
M  V30 1249 O 115.74 -2.08655 5.29577 0
M  V30 1250 N 116.942 -3.7677 4.41616 0
M  V30 1251 H 119.707 0.0469703 2.99663 0
M  V30 1252 H 117.268 0.170766 1.60997 0
M  V30 1253 H 119.26 -2.47593 3.20125 0
M  V30 1254 H 117.83 -2.25835 2.16142 0
M  V30 1255 H 117.05 -0.492746 3.91108 0
M  V30 1256 H 118.338 -1.09708 4.96832 0
M  V30 1257 H 117.736 -4.09467 3.90325 0
M  V30 1258 H 116.293 -4.44448 4.7677 0
M  V30 1259 N 119.726 -1.57421 0.075193 0
M  V30 1260 C 120.975 -1.92794 -0.592731 0
M  V30 1261 C 121.288 -0.957478 -1.70563 0
M  V30 1262 O 122.494 -1.20417 -2.43335 0
M  V30 1263 C 120.95 -3.42495 -1.10569 0
M  V30 1264 C 120.558 -4.47994 -0.0236121 0
M  V30 1265 C 122.302 -3.86864 -1.74748 0
M  V30 1266 C 120.209 -5.88829 -0.550803 0
M  V30 1267 H 119.139 -0.719591 -0.225177 0
M  V30 1268 H 121.79 -1.82902 0.147978 0
M  V30 1269 H 120.172 -3.47471 -1.89947 0
M  V30 1270 H 121.346 -4.54637 0.751099 0
M  V30 1271 H 119.661 -4.13113 0.522159 0
M  V30 1272 H 122.258 -4.8947 -2.15229 0
M  V30 1273 H 122.601 -3.24417 -2.60882 0
M  V30 1274 H 123.134 -3.84504 -1.01986 0
M  V30 1275 H 119.873 -6.54929 0.273457 0
M  V30 1276 H 119.393 -5.85698 -1.29296 0
M  V30 1277 H 121.072 -6.38811 -1.02613 0
M  V30 1278 N 121.204 0.198386 -1.56346 0
M  V30 1279 C 122.615 0.763358 -1.70381 0
M  V30 1280 C 122.966 1.83995 -0.681203 0
M  V30 1281 O 122.091 2.15785 0.16305 0
M  V30 1282 C 122.686 1.39143 -3.08909 0
M  V30 1283 C 121.245 1.90352 -3.2472 0
M  V30 1284 C 120.392 0.772233 -2.6633 0
M  V30 1285 H 123.343 -0.0266377 -1.58678 0
M  V30 1286 H 123.364 2.26076 -3.06055 0
M  V30 1287 H 122.876 0.607638 -3.83314 0
M  V30 1288 H 120.977 2.71461 -2.55225 0
M  V30 1289 H 121.09 2.06757 -4.3219 0
M  V30 1290 H 119.454 1.18566 -2.2542 0
M  V30 1291 H 120.237 0.00073556 -3.433 0
M  V30 1292 N 122.682 1.50554 0.465978 0
M  V30 1293 C 123.632 1.66177 1.56106 0
M  V30 1294 C 124.616 0.516265 1.52393 0
M  V30 1295 O 125.808 0.770906 1.5933 0
M  V30 1296 C 122.937 1.76396 2.94515 0
M  V30 1297 C 122.023 2.9664 3.03093 0
M  V30 1298 N 122.414 4.20245 2.81474 0
M  V30 1299 C 120.712 2.95304 3.34233 0
M  V30 1300 C 121.413 5.01259 2.95151 0
M  V30 1301 N 120.389 4.35318 3.25576 0
M  V30 1302 H 124.191 2.59434 1.38099 0
M  V30 1303 H 121.705 1.47808 0.6728 0
M  V30 1304 H 123.702 1.85694 3.73261 0
M  V30 1305 H 122.362 0.843017 3.13565 0
M  V30 1306 H 123.373 4.4966 2.56956 0
M  V30 1307 H 120.05 2.12729 3.59239 0
M  V30 1308 H 121.44 6.09564 2.82632 0
M  V30 1309 N 124.16 -0.719506 1.40217 0
M  V30 1310 C 125.388 -1.50864 1.41589 0
M  V30 1311 C 125.803 -1.88794 0.0145275 0
M  V30 1312 O 125.16 -1.55174 -0.960594 0
M  V30 1313 C 125.211 -2.78646 2.30302 0
M  V30 1314 O 124.932 -2.42321 3.64983 0
M  V30 1315 C 126.433 -3.72569 2.40224 0
M  V30 1316 H 123.653 -0.465709 0.48307 0
M  V30 1317 H 126.197 -0.88785 1.84221 0
M  V30 1318 H 124.352 -3.37019 1.91042 0
M  V30 1319 H 124.766 -3.24514 4.12057 0
M  V30 1320 H 126.24 -4.5908 3.06512 0
M  V30 1321 H 126.717 -4.15403 1.42608 0
M  V30 1322 H 127.323 -3.20109 2.80019 0
M  V30 1323 N 125.638 -1.25649 -0.95132 0
M  V30 1324 C 126.863 -1.13443 -1.73624 0
M  V30 1325 C 127.288 0.307565 -1.85568 0
M  V30 1326 O 126.646 1.22282 -1.33854 0
M  V30 1327 C 126.694 -1.79723 -3.12621 0
M  V30 1328 O 125.798 -1.07912 -3.98031 0
M  V30 1329 H 125.139 -0.395872 -0.533086 0
M  V30 1330 H 127.669 -1.66276 -1.1922 0
M  V30 1331 H 127.679 -1.86141 -3.63064 0
M  V30 1332 H 126.354 -2.84633 -3.03244 0
M  V30 1333 H 124.931 -1.09398 -3.56492 0
M  V30 1334 N 127.117 1.15442 -1.07289 0
M  V30 1335 C 128.08 2.18358 -0.696591 0
M  V30 1336 C 129.08 1.58637 0.262837 0
M  V30 1337 O 130.27 1.74145 0.0438809 0
M  V30 1338 C 127.402 3.4089 -0.0266151 0
M  V30 1339 H 128.595 2.53162 -1.60776 0
M  V30 1340 H 126.148 1.29893 -0.869342 0
M  V30 1341 H 126.883 3.11653 0.896822 0
M  V30 1342 H 126.668 3.85495 -0.716657 0
M  V30 1343 H 128.158 4.17009 0.222028 0
M  V30 1344 N 128.595 0.856903 1.32268 0
M  V30 1345 C 129.558 0.308171 2.27119 0
M  V30 1346 C 130.558 -0.533421 1.51695 0
M  V30 1347 O 131.748 -0.344607 1.70757 0
M  V30 1348 C 128.88 -0.563757 3.36206 0
M  V30 1349 H 130.073 1.14535 2.77167 0
M  V30 1350 H 127.626 0.631421 1.42978 0
M  V30 1351 H 128.361 -1.42266 2.91429 0
M  V30 1352 H 128.146 0.0386749 3.92081 0
M  V30 1353 H 129.636 -0.940386 4.06874 0
M  V30 1354 N 130.073 -1.45103 0.615059 0
M  V30 1355 C 131.005 -2.28786 -0.13762 0
M  V30 1356 C 132.018 -1.40376 -0.824525 0
M  V30 1357 O 133.207 -1.64681 -0.688662 0
M  V30 1358 C 130.307 -3.16322 -1.21628 0
M  V30 1359 C 129.48 -4.33054 -0.615039 0
M  V30 1360 C 128.539 -5.01743 -1.58556 0
M  V30 1361 O 127.565 -5.58293 -1.10895 0
M  V30 1362 N 128.767 -5.01714 -2.91998 0
M  V30 1363 H 131.532 -2.94025 0.580483 0
M  V30 1364 H 129.093 -1.55373 0.45507 0
M  V30 1365 H 131.085 -3.59139 -1.86552 0
M  V30 1366 H 129.655 -2.52943 -1.83681 0
M  V30 1367 H 128.875 -3.93627 0.21245 0
M  V30 1368 H 130.163 -5.08431 -0.193704 0
M  V30 1369 H 129.561 -4.57075 -3.33316 0
M  V30 1370 H 128.118 -5.48371 -3.52325 0
M  V30 1371 N 131.551 -0.354651 -1.53558 0
M  V30 1372 C 132.779 0.239515 -2.05509 0
M  V30 1373 C 133.194 1.4333 -1.2289 0
M  V30 1374 O 132.551 1.80538 -0.266899 0
M  V30 1375 C 132.602 0.643719 -3.55723 0
M  V30 1376 O 132.323 -0.502602 -4.35207 0
M  V30 1377 C 133.824 1.29743 -4.23889 0
M  V30 1378 H 131.044 0.0442697 -0.669538 0
M  V30 1379 H 133.588 -0.509856 -1.98042 0
M  V30 1380 H 131.743 1.34302 -3.63376 0
M  V30 1381 H 132.157 -0.178172 -5.24197 0
M  V30 1382 H 133.631 1.53091 -5.30346 0
M  V30 1383 H 134.108 2.25441 -3.76926 0
M  V30 1384 H 134.714 0.639865 -4.20459 0
M  V30 1385 N 133.029 1.57378 -0.0835403 0
M  V30 1386 C 134.275 1.94217 0.583733 0
M  V30 1387 C 134.608 0.964653 1.68547 0
M  V30 1388 O 133.883 -0.00422258 1.945 0
M  V30 1389 C 134.166 3.41253 1.14972 0
M  V30 1390 C 134.019 4.49768 0.0538277 0
M  V30 1391 C 135.338 3.89352 2.05166 0
M  V30 1392 H 132.457 0.706233 0.210724 0
M  V30 1393 H 135.099 1.89392 -0.1519 0
M  V30 1394 H 133.249 3.45496 1.77665 0
M  V30 1395 H 134.921 4.57641 -0.579851 0
M  V30 1396 H 133.164 4.29432 -0.614068 0
M  V30 1397 H 133.835 5.49817 0.490452 0
M  V30 1398 H 136.311 3.87189 1.52393 0
M  V30 1399 H 135.187 4.92822 2.41698 0
M  V30 1400 H 135.448 3.27973 2.96456 0
M  V30 1401 N 134.507 -0.190092 1.56449 0
M  V30 1402 C 135.732 -0.929864 1.85387 0
M  V30 1403 C 136.157 -1.7585 0.667704 0
M  V30 1404 O 135.515 -1.77198 -0.383459 0
M  V30 1405 C 135.563 -1.79773 3.12593 0
M  V30 1406 O 134.667 -2.89713 2.93496 0
M  V30 1407 H 134.008 -0.261574 0.610307 0
M  V30 1408 H 136.538 -0.193896 2.03679 0
M  V30 1409 H 136.548 -2.20139 3.43515 0
M  V30 1410 H 135.223 -1.18892 3.98544 0
M  V30 1411 H 133.8 -2.53065 2.73884 0
M  V30 1412 N 135.985 -1.50799 -0.457987 0
M  V30 1413 C 137.401 -1.38515 -0.792819 0
M  V30 1414 C 137.601 -0.451409 -1.96379 0
M  V30 1415 O 136.657 0.10112 -2.52297 0
M  V30 1416 C 137.97 -2.80149 -1.09258 0
M  V30 1417 C 139.518 -2.89156 -1.19825 0
M  V30 1418 C 139.993 -4.31651 -1.53106 0
M  V30 1419 N 141.484 -4.34662 -1.60072 0
M  V30 1420 C 142.219 -5.41928 -1.87354 0
M  V30 1421 N 141.715 -6.59384 -2.12568 0
M  V30 1422 N 143.508 -5.29385 -1.88965 0
M  V30 1423 H 135.659 -2.10073 0.313511 0
M  V30 1424 H 137.922 -0.944803 0.0777862 0
M  V30 1425 H 137.628 -3.50374 -0.305084 0
M  V30 1426 H 137.502 -3.18204 -2.02549 0
M  V30 1427 H 139.889 -2.19141 -1.97639 0
M  V30 1428 H 139.97 -2.54626 -0.244821 0
M  V30 1429 H 139.614 -5.02208 -0.758266 0
M  V30 1430 H 139.544 -4.63678 -2.49621 0
M  V30 1431 H 142.035 -3.49973 -1.42573 0
M  V30 1432 H 142.348 -7.36934 -2.32696 0
M  V30 1433 H 140.693 -6.62535 -2.09933 0
M  V30 1434 H 143.884 -4.36616 -1.68772 0
M  V30 1435 H 144.057 -6.13066 -2.09891 0
M  V30 1436 N 137.463 0.71206 -1.40597 0
M  V30 1437 C 138.393 1.83889 -1.43899 0
M  V30 1438 C 139.374 1.67442 -0.299504 0
M  V30 1439 O 140.559 1.87421 -0.508624 0
M  V30 1440 C 137.689 3.21877 -1.30431 0
M  V30 1441 C 136.643 3.53002 -2.42019 0
M  V30 1442 C 135.969 4.90172 -2.13626 0
M  V30 1443 C 137.269 3.53643 -3.84362 0
M  V30 1444 H 138.963 1.81383 -2.38203 0
M  V30 1445 H 136.509 0.871237 -1.14654 0
M  V30 1446 H 138.462 4.00404 -1.31357 0
M  V30 1447 H 137.186 3.24968 -0.326049 0
M  V30 1448 H 135.845 2.76818 -2.40349 0
M  V30 1449 H 135.493 4.89869 -1.14182 0
M  V30 1450 H 135.193 5.11962 -2.88389 0
M  V30 1451 H 136.717 5.71028 -2.1624 0
M  V30 1452 H 138.131 4.22203 -3.87837 0
M  V30 1453 H 136.528 3.86961 -4.58673 0
M  V30 1454 H 137.598 2.52954 -4.13693 0
M  V30 1455 N 138.941 1.26152 0.944643 0
M  V30 1456 C 140.181 1.12708 1.70517 0
M  V30 1457 C 140.545 -0.324727 1.89234 0
M  V30 1458 O 141.746 -0.581211 2.62441 0
M  V30 1459 C 140.017 1.8713 3.04495 0
M  V30 1460 S 141.576 1.89698 3.95677 0
M  V30 1461 H 138.394 0.402665 0.585988 0
M  V30 1462 H 140.996 1.59821 1.12594 0
M  V30 1463 H 139.7 2.91833 2.88551 0
M  V30 1464 H 139.231 1.40444 3.67477 0
M  V30 1465 H 141.246 0.981198 4.86402 0
M  V30 1466 N 140.419 -1.14872 1.07899 0
M  V30 1467 C 141.667 -1.85422 0.803941 0
M  V30 1468 C 141.988 -1.83051 -0.67211 0
M  V30 1469 O 141.258 -1.27532 -1.48703 0
M  V30 1470 H 139.838 -0.686537 0.294408 0
M  V30 1471 H 142.5 -1.39226 1.3639 0
M  V30 1472 H 141.596 -2.90399 1.14346 0
M  V30 1473 N 141.898 -0.863906 -1.31812 0
M  V30 1474 C 143.123 -0.48527 -2.01643 0
M  V30 1475 C 143.548 0.913058 -1.64453 0
M  V30 1476 O 142.906 1.6014 -0.849985 0
M  V30 1477 C 142.954 -0.642625 -3.54828 0
M  V30 1478 O 142.058 0.320659 -4.11151 0
M  V30 1479 H 141.399 -0.193793 -0.635091 0
M  V30 1480 H 143.929 -1.16565 -1.68148 0
M  V30 1481 H 143.939 -0.533628 -4.04495 0
M  V30 1482 H 142.614 -1.66227 -3.81237 0
M  V30 1483 H 141.191 0.167126 -3.72525 0
M  V30 1484 N 143.376 1.44774 -0.622745 0
M  V30 1485 C 144.601 2.06999 -0.128968 0
M  V30 1486 C 145.026 1.4617 1.1839 0
M  V30 1487 O 144.384 0.560007 1.72434 0
M  V30 1488 C 144.432 3.60595 -0.0188351 0
M  V30 1489 O 143.536 3.99398 1.02739 0
M  V30 1490 H 142.877 0.659047 -0.0809544 0
M  V30 1491 H 145.407 1.85784 -0.85705 0
M  V30 1492 H 145.417 4.07627 0.174476 0
M  V30 1493 H 144.092 4.04252 -0.977384 0
M  V30 1494 H 142.669 3.64011 0.809326 0
M  V30 1495 N 144.854 0.36279 1.53368 0
M  V30 1496 C 145.787 -0.528507 2.21996 0
M  V30 1497 C 146.765 -1.0852 1.21087 0
M  V30 1498 O 147.949 -1.14186 1.4998 0
M  V30 1499 C 145.076 -1.72893 2.91249 0
M  V30 1500 C 144.122 -1.29994 4.06207 0
M  V30 1501 S 144.955 -0.303575 5.34639 0
M  V30 1502 C 146.111 -1.51039 6.07403 0
M  V30 1503 H 146.344 0.0543423 2.9725 0
M  V30 1504 H 143.877 0.146889 1.537 0
M  V30 1505 H 145.835 -2.41751 3.31763 0
M  V30 1506 H 144.496 -2.28303 2.15724 0
M  V30 1507 H 143.689 -2.19549 4.53667 0
M  V30 1508 H 143.291 -0.690608 3.67569 0
M  V30 1509 H 145.583 -2.44186 6.31965 0
M  V30 1510 H 146.526 -1.07721 6.99858 0
M  V30 1511 H 146.934 -1.71518 5.37812 0
M  V30 1512 N 146.332 -1.57332 0.0918853 0
M  V30 1513 C 147.557 -1.98995 -0.584442 0
M  V30 1514 C 147.982 -0.970528 -1.61128 0
M  V30 1515 O 147.34 0.0613904 -1.81196 0
M  V30 1516 C 147.388 -3.39636 -1.21161 0
M  V30 1517 O 146.492 -3.40447 -2.32744 0
M  V30 1518 H 145.833 -0.647165 -0.148572 0
M  V30 1519 H 148.363 -2.03873 0.172347 0
M  V30 1520 H 148.373 -3.7726 -1.55367 0
M  V30 1521 H 147.048 -4.13356 -0.459313 0
M  V30 1522 H 145.625 -3.14614 -2.0018 0
M  V30 1523 N 147.81 0.181792 -1.56548 0
M  V30 1524 C 148.773 1.20894 -1.94724 0
M  V30 1525 C 149.773 1.37738 -0.829747 0
M  V30 1526 O 150.963 1.35323 -1.09697 0
M  V30 1527 C 148.095 2.57593 -2.23291 0
M  V30 1528 H 149.288 0.882275 -2.86629 0
M  V30 1529 H 146.841 0.423838 -1.50444 0
M  V30 1530 H 147.576 2.95291 -1.34067 0
M  V30 1531 H 147.361 2.46735 -3.04736 0
M  V30 1532 H 148.851 3.31637 -2.53785 0
M  V30 1533 N 149.288 1.51039 0.449983 0
M  V30 1534 C 150.218 1.74379 1.55288 0
M  V30 1535 C 151.199 0.593236 1.5942 0
M  V30 1536 O 152.384 0.834625 1.7535 0
M  V30 1537 C 149.514 1.85728 2.93466 0
M  V30 1538 C 148.468 3.01078 3.04197 0
M  V30 1539 C 147.794 2.97595 4.44231 0
M  V30 1540 C 149.094 4.41254 2.7945 0
M  V30 1541 H 150.788 2.66725 1.36008 0
M  V30 1542 H 148.334 1.2835 0.652864 0
M  V30 1543 H 150.287 2.0064 3.70569 0
M  V30 1544 H 149.011 0.900207 3.13949 0
M  V30 1545 H 147.67 2.85851 2.29531 0
M  V30 1546 H 147.318 1.99691 4.61663 0
M  V30 1547 H 147.018 3.75046 4.52343 0
M  V30 1548 H 148.542 3.14583 5.23326 0
M  V30 1549 H 149.956 4.56897 3.46292 0
M  V30 1550 H 148.353 5.20315 2.98985 0
M  V30 1551 H 149.423 4.52164 1.75144 0
M  V30 1552 N 150.766 -0.704594 1.40972 0
M  V30 1553 C 151.716 -1.81051 1.38581 0
M  V30 1554 C 152.7 -1.58759 0.261585 0
M  V30 1555 O 153.892 -1.69745 0.501556 0
M  V30 1556 C 151.021 -3.19279 1.26157 0
M  V30 1557 C 150.107 -3.47296 2.43405 0
M  V30 1558 N 150.498 -3.46064 3.68881 0
M  V30 1559 C 148.796 -3.77804 2.37023 0
M  V30 1560 C 149.497 -3.72733 4.46592 0
M  V30 1561 N 148.473 -3.9203 3.76581 0
M  V30 1562 H 152.275 -1.78448 2.33525 0
M  V30 1563 H 149.789 -0.904198 1.349 0
M  V30 1564 H 151.786 -3.98488 1.22526 0
M  V30 1565 H 150.446 -3.231 0.321902 0
M  V30 1566 H 151.457 -3.26656 4.01891 0
M  V30 1567 H 148.134 -3.8905 1.51481 0
M  V30 1568 H 149.524 -3.77993 5.55492 0
M  V30 1569 N 152.244 -1.26651 -0.937939 0
M  V30 1570 C 153.472 -1.15173 -1.7188 0
M  V30 1571 C 153.887 0.292668 -1.86518 0
M  V30 1572 O 153.244 1.20014 -1.37488 0
M  V30 1573 C 153.295 -1.81925 -3.12387 0
M  V30 1574 O 153.016 -3.2072 -2.98446 0
M  V30 1575 C 154.517 -1.76442 -4.06673 0
M  V30 1576 H 151.737 -0.400911 -0.538063 0
M  V30 1577 H 154.281 -1.67332 -1.1756 0
M  V30 1578 H 152.436 -1.33696 -3.63599 0
M  V30 1579 H 152.85 -3.53802 -3.872 0
M  V30 1580 H 154.324 -2.27781 -5.02812 0
M  V30 1581 H 154.801 -0.731608 -4.33064 0
M  V30 1582 H 155.407 -2.24238 -3.61382 0
M  V30 1583 N 153.722 1.14298 -1.08507 0
M  V30 1584 C 154.685 2.17607 -0.719711 0
M  V30 1585 C 155.685 1.58907 0.245997 0
M  V30 1586 O 156.875 1.74181 0.0254081 0
M  V30 1587 C 154.007 3.40842 -0.0627695 0
M  V30 1588 H 155.2 2.51443 -1.63452 0
M  V30 1589 H 152.753 1.28963 -0.88307 0
M  V30 1590 H 153.488 3.12587 0.863716 0
M  V30 1591 H 153.273 3.84713 -0.757504 0
M  V30 1592 H 154.763 4.17221 0.177786 0
M  V30 1593 N 155.201 0.870884 1.31352 0
M  V30 1594 C 156.164 0.332243 2.26779 0
M  V30 1595 C 157.164 -0.517302 1.52252 0
M  V30 1596 O 158.354 -0.326477 1.71113 0
M  V30 1597 C 155.486 -0.528066 3.36785 0
M  V30 1598 H 156.679 1.17469 2.75937 0
M  V30 1599 H 154.232 0.64655 1.423 0
M  V30 1600 H 154.967 -1.39167 2.92922 0
M  V30 1601 H 154.752 0.0802582 3.92018 0
M  V30 1602 H 156.242 -0.897179 4.07849 0
M  V30 1603 N 156.679 -1.44442 0.630414 0
M  V30 1604 C 157.611 -2.2892 -0.113347 0
M  V30 1605 C 158.624 -1.41243 -0.80959 0
M  V30 1606 O 159.813 -1.65402 -0.671156 0
M  V30 1607 C 156.913 -3.17594 -1.18266 0
M  V30 1608 C 156.086 -4.33682 -0.569073 0
M  V30 1609 C 155.145 -5.03397 -1.53226 0
M  V30 1610 O 154.171 -5.59438 -1.04967 0
M  V30 1611 N 155.373 -5.04783 -2.86661 0
M  V30 1612 H 158.138 -2.93392 0.611636 0
M  V30 1613 H 155.699 -1.54881 0.471523 0
M  V30 1614 H 157.691 -3.61097 -1.82732 0
M  V30 1615 H 156.261 -2.54876 -1.80988 0
M  V30 1616 H 155.481 -3.9338 0.254187 0
M  V30 1617 H 156.769 -5.08608 -0.139767 0
M  V30 1618 H 156.167 -4.60584 -3.28449 0
M  V30 1619 H 154.724 -5.52077 -3.46489 0
M  V30 1620 N 158.157 -0.370918 -1.53173 0
M  V30 1621 C 159.12 0.460778 -2.24521 0
M  V30 1622 C 160.12 1.00536 -1.25496 0
M  V30 1623 O 161.31 0.890266 -1.49733 0
M  V30 1624 C 158.442 1.64457 -2.98608 0
M  V30 1625 H 159.635 -0.163613 -2.99453 0
M  V30 1626 H 157.188 -0.122699 -1.55818 0
M  V30 1627 H 157.923 2.30691 -2.2793 0
M  V30 1628 H 157.708 1.26099 -3.7127 0
M  V30 1629 H 159.198 2.23384 -3.5283 0
M  V30 1630 N 159.635 1.57281 -0.100228 0
M  V30 1631 C 160.884 1.93713 0.561984 0
M  V30 1632 C 161.197 0.984492 1.69018 0
M  V30 1633 O 162.403 1.24273 2.41389 0
M  V30 1634 C 160.859 3.4421 1.05106 0
M  V30 1635 C 160.467 4.47975 -0.0476628 0
M  V30 1636 C 162.211 3.89595 1.68571 0
M  V30 1637 C 160.118 5.89631 0.457055 0
M  V30 1638 H 159.048 0.723082 0.2137 0
M  V30 1639 H 161.699 1.82644 -0.177057 0
M  V30 1640 H 160.081 3.50449 1.84395 0
M  V30 1641 H 161.255 4.53385 -0.823333 0
M  V30 1642 H 159.57 4.1223 -0.587816 0
M  V30 1643 H 162.167 4.92832 2.07414 0
M  V30 1644 H 162.51 3.28526 2.55688 0
M  V30 1645 H 163.043 3.86078 0.958562 0
M  V30 1646 H 159.782 6.54411 -0.377616 0
M  V30 1647 H 159.302 5.87681 1.19962 0
M  V30 1648 H 160.981 6.40363 0.92437 0
M  V30 1649 N 161.113 -0.173488 1.56642 0
M  V30 1650 C 162.046 -1.24353 1.91342 0
M  V30 1651 C 163.024 -1.4289 0.775965 0
M  V30 1652 O 164.208 -1.57932 1.02907 0
M  V30 1653 C 161.335 -2.60683 2.16245 0
M  V30 1654 C 160.381 -2.58894 3.38934 0
M  V30 1655 S 161.214 -2.0819 4.93373 0
M  V30 1656 C 162.37 -3.46302 5.21369 0
M  V30 1657 H 162.603 -0.947345 2.81803 0
M  V30 1658 H 160.136 -0.377958 1.49703 0
M  V30 1659 H 162.094 -3.39149 2.31275 0
M  V30 1660 H 160.755 -2.87502 1.26496 0
M  V30 1661 H 159.948 -3.59188 3.53553 0
M  V30 1662 H 159.55 -1.88522 3.2301 0
M  V30 1663 H 161.842 -4.42287 5.13214 0
M  V30 1664 H 162.785 -3.3656 6.23003 0
M  V30 1665 H 163.193 -3.42214 4.48943 0
M  V30 1666 N 162.591 -1.51276 -0.441967 0
M  V30 1667 C 163.819 -1.67516 -1.21434 0
M  V30 1668 C 164.234 -0.37055 -1.85128 0
M  V30 1669 O 163.591 0.650498 -1.70513 0
M  V30 1670 C 163.642 -2.78748 -2.30177 0
M  V30 1671 O 163.363 -4.04154 -1.69089 0
M  V30 1672 C 164.864 -3.06217 -3.20541 0
M  V30 1673 H 162.084 -0.562276 -0.366178 0
M  V30 1674 H 164.628 -1.97666 -0.524244 0
M  V30 1675 H 162.783 -2.5121 -2.94911 0
M  V30 1676 H 163.197 -4.65894 -2.40922 0
M  V30 1677 H 164.671 -3.8764 -3.92987 0
M  V30 1678 H 165.148 -2.18439 -3.81026 0
M  V30 1679 H 165.754 -3.35397 -2.61513 0
M  V30 1680 N 164.069 0.697108 -1.41344 0
M  V30 1681 C 165.317 1.45426 -1.40341 0
M  V30 1682 C 165.638 1.94996 -0.0128787 0
M  V30 1683 O 164.908 1.71599 0.945027 0
M  V30 1684 H 163.488 0.539594 -0.516573 0
M  V30 1685 H 166.15 0.825201 -1.76569 0
M  V30 1686 H 165.246 2.31817 -2.08967 0
M  V30 1687 N 165.547 1.27147 0.931209 0
M  V30 1688 C 166.495 1.09398 2.05268 0
M  V30 1689 C 167.489 0.0180591 1.6939 0
M  V30 1690 O 168.695 0.17551 1.79142 0
M  V30 1691 H 165.07 0.336986 0.672268 0
M  V30 1692 H 167.041 2.04416 2.17386 0
M  V30 1693 C 165.79 0.75424 3.39421 0
M  V30 1694 H 165.113 1.57404 3.67511 0
M  V30 1695 H 166.553 0.669903 4.18674 0
M  V30 1696 C 165.012 -0.541197 3.32525 0
M  V30 1697 O 165.542 -1.57664 3.69466 0
M  V30 1698 N 163.748 -0.535517 2.85623 0
M  V30 1699 H 163.295 0.307511 2.55758 0
M  V30 1700 H 163.253 -1.40236 2.81392 0
M  V30 1701 N 167.025 -1.13721 1.09112 0
M  V30 1702 C 168.273 -1.84559 0.823562 0
M  V30 1703 C 168.594 -1.83754 -0.652658 0
M  V30 1704 O 167.864 -1.29102 -1.47342 0
M  V30 1705 H 166.444 -0.683376 0.301673 0
M  V30 1706 H 169.106 -1.37771 1.37859 0
M  V30 1707 H 168.202 -2.8917 1.17419 0
M  V30 1708 N 168.503 -0.877838 -1.30888 0
M  V30 1709 C 169.78 -0.413052 -1.91189 0
M  V30 1710 C 170.16 1.1056 -1.79832 0
M  V30 1711 O 169.508 1.93771 -1.21099 0
M  V30 1712 C 169.718 -0.903191 -3.3711 0
M  V30 1713 C 171.066 -0.93395 -4.14201 0
M  V30 1714 O 172.09 -0.849373 -3.45925 0
M  V30 1715 O 170.949 -1.05772 -5.36167 0
M  V30 1716 H 168.043 -0.125035 -0.817493 0
M  V30 1717 H 170.589 -0.966269 -1.39504 0
M  V30 1718 H 169.361 -1.94692 -3.39427 0
M  V30 1719 H 168.984 -0.328732 -3.96239 0
M  V30 1720 N 169.982 1.44106 -0.638065 0
M  V30 1721 C 171.228 2.02277 -0.145546 0
M  V30 1722 C 171.561 1.50125 1.23191 0
M  V30 1723 O 170.836 0.688133 1.8192 0
M  V30 1724 C 171.119 3.59829 -0.139791 0
M  V30 1725 C 170.972 4.22247 -1.55008 0
M  V30 1726 C 172.291 4.36873 0.531966 0
M  V30 1727 H 169.41 0.734992 -0.0543632 0
M  V30 1728 H 172.052 1.71592 -0.815863 0
M  V30 1729 H 170.202 3.86102 0.431007 0
M  V30 1730 H 171.874 4.07057 -2.1703 0
M  V30 1731 H 170.117 3.79476 -2.10191 0
M  V30 1732 H 170.788 5.31284 -1.49804 0
M  V30 1733 H 173.264 4.16074 0.0464781 0
M  V30 1734 H 172.14 5.4657 0.505206 0
M  V30 1735 H 172.401 4.11995 1.60352 0
M  V30 1736 N 171.46 0.379036 1.52974 0
M  V30 1737 C 172.707 -0.206421 2.01445 0
M  V30 1738 C 173.035 -1.47668 1.26587 0
M  V30 1739 O 172.29 -1.92514 0.351675 0
M  V30 1740 C 172.589 -0.53096 3.53434 0
M  V30 1741 C 172.255 0.646546 4.46241 0
M  V30 1742 C 170.917 0.969604 4.7133 0
M  V30 1743 C 173.269 1.43479 5.01062 0
M  V30 1744 C 170.597 2.08263 5.48492 0
M  V30 1745 C 172.949 2.53834 5.7944 0
M  V30 1746 C 171.613 2.86659 6.02812 0
M  V30 1747 H 170.883 -0.0755349 0.73714 0
M  V30 1748 H 173.53 0.514271 1.84465 0
M  V30 1749 H 171.835 -1.33285 3.68432 0
M  V30 1750 H 173.532 -0.996417 3.88423 0
M  V30 1751 H 170.122 0.384734 4.2687 0
M  V30 1752 H 174.306 1.19844 4.81613 0
M  V30 1753 H 169.562 2.34078 5.64816 0
M  V30 1754 H 173.736 3.15319 6.20924 0
M  V30 1755 H 171.363 3.73026 6.62387 0
M  V30 1756 N 172.938 -1.57226 0.108567 0
M  V30 1757 C 174.184 -1.95121 -0.552761 0
M  V30 1758 C 174.517 -0.991345 -1.66991 0
M  V30 1759 O 173.792 -0.0267211 -1.94482 0
M  V30 1760 C 174.075 -3.43039 -1.09528 0
M  V30 1761 C 173.928 -4.49797 0.0177332 0
M  V30 1762 C 175.247 -3.92567 -1.98945 0
M  V30 1763 H 172.366 -0.709496 -0.199461 0
M  V30 1764 H 175.008 -1.89126 0.182011 0
M  V30 1765 H 173.158 -3.48279 -1.72146 0
M  V30 1766 H 174.83 -4.56661 0.652584 0
M  V30 1767 H 173.073 -4.284 0.682309 0
M  V30 1768 H 173.744 -5.50528 -0.402919 0
M  V30 1769 H 176.22 -3.89565 -1.46214 0
M  V30 1770 H 175.096 -4.96605 -2.33827 0
M  V30 1771 H 175.357 -3.32648 -2.91201 0
M  V30 1772 N 174.416 0.165178 -1.56732 0
M  V30 1773 C 175.662 0.882112 -1.82611 0
M  V30 1774 C 175.995 1.81628 -0.687378 0
M  V30 1775 O 175.27 1.92009 0.310267 0
M  V30 1776 C 175.553 1.67245 -3.18906 0
M  V30 1777 C 175.406 0.760987 -4.43316 0
M  V30 1778 C 176.725 2.63884 -3.52212 0
M  V30 1779 H 173.844 0.319242 -0.664269 0
M  V30 1780 H 176.486 0.148052 -1.89422 0
M  V30 1781 H 174.636 2.29824 -3.1323 0
M  V30 1782 H 176.308 0.147596 -4.61064 0
M  V30 1783 H 174.551 0.0694102 -4.33744 0
M  V30 1784 H 175.222 1.34962 -5.35247 0
M  V30 1785 H 177.698 2.11429 -3.58381 0
M  V30 1786 H 176.574 3.16245 -4.48643 0
M  V30 1787 H 176.835 3.44377 -2.77231 0
M  V30 1788 N 175.894 1.51508 0.433938 0
M  V30 1789 C 177.142 1.6402 1.18075 0
M  V30 1790 C 177.463 0.360328 1.91642 0
M  V30 1791 O 176.733 -0.623945 1.85698 0
M  V30 1792 H 175.313 0.6045 0.43885 0
M  V30 1793 H 177.975 1.88452 0.497178 0
M  V30 1794 H 177.071 2.46949 1.90847 0
M  V30 1795 N 177.372 -0.689602 1.41712 0
M  V30 1796 C 178.62 -1.4468 1.4111 0
M  V30 1797 C 178.941 -1.94986 0.0232196 0
M  V30 1798 O 178.211 -1.72097 -0.935913 0
M  V30 1799 H 176.791 -0.536847 0.519427 0
M  V30 1800 H 179.453 -0.815825 1.77004 0
M  V30 1801 H 178.549 -2.30706 2.10193 0
M  V30 1802 N 178.85 -1.27639 -0.924453 0
M  V30 1803 C 180.096 -1.14336 -1.67497 0
M  V30 1804 C 180.429 0.309465 -1.91718 0
M  V30 1805 O 179.704 1.22608 -1.50989 0
M  V30 1806 C 179.987 -1.93096 -3.0395 0
M  V30 1807 C 179.84 -3.46381 -2.8695 0
M  V30 1808 C 181.159 -1.73798 -4.0433 0
M  V30 1809 H 178.278 -0.416728 -0.607871 0
M  V30 1810 H 180.92 -1.56832 -1.07256 0
M  V30 1811 H 179.07 -1.56982 -3.55372 0
M  V30 1812 H 180.742 -3.92343 -2.42621 0
M  V30 1813 H 178.985 -3.72557 -2.22225 0
M  V30 1814 H 179.656 -3.96735 -3.83804 0
M  V30 1815 H 182.132 -2.05293 -3.61931 0
M  V30 1816 H 181.008 -2.31294 -4.97789 0
M  V30 1817 H 181.269 -0.686725 -4.36734 0
M  V30 1818 N 180.328 1.1314 -1.09713 0
M  V30 1819 C 181.238 2.22242 -0.751367 0
M  V30 1820 C 182.254 1.72224 0.247938 0
M  V30 1821 O 183.43 2.01205 0.0885463 0
M  V30 1822 C 180.495 3.46231 -0.180274 0
M  V30 1823 C 179.556 4.11125 -1.2359 0
M  V30 1824 C 178.789 5.29195 -0.691966 0
M  V30 1825 O 179.012 5.68342 0.48414 0
M  V30 1826 O 177.946 5.84214 -1.44838 0
M  V30 1827 H 181.772 2.54197 -1.66186 0
M  V30 1828 H 179.357 1.21331 -0.871735 0
M  V30 1829 H 181.239 4.21185 0.134739 0
M  V30 1830 H 179.914 3.1597 0.703185 0
M  V30 1831 H 178.821 3.37985 -1.60366 0
M  V30 1832 H 180.154 4.45524 -2.09211 0
M  V30 1833 N 181.806 0.884767 1.30421 0
M  V30 1834 C 182.756 0.322846 2.25703 0
M  V30 1835 C 183.74 -0.548582 1.51259 0
M  V30 1836 O 184.932 -0.39304 1.72581 0
M  V30 1837 C 182.061 -0.461787 3.4018 0
M  V30 1838 C 181.147 0.423717 4.21978 0
M  V30 1839 N 181.538 1.52408 4.82292 0
M  V30 1840 C 179.836 0.218795 4.45463 0
M  V30 1841 C 180.537 2.07136 5.43571 0
M  V30 1842 N 179.513 1.36635 5.26148 0
M  V30 1843 H 183.315 1.16363 2.69883 0
M  V30 1844 H 180.829 0.73415 1.44859 0
M  V30 1845 H 182.826 -0.880985 4.07485 0
M  V30 1846 H 181.486 -1.30001 2.9754 0
M  V30 1847 H 182.497 1.90693 4.81515 0
M  V30 1848 H 179.174 -0.582275 4.1342 0
M  V30 1849 H 180.564 2.99538 6.01437 0
M  V30 1850 N 183.284 -1.43765 0.645699 0
M  V30 1851 C 184.217 -2.2798 -0.100072 0
M  V30 1852 C 185.195 -1.39391 -0.837194 0
M  V30 1853 O 186.379 -1.68833 -0.838306 0
M  V30 1854 C 183.506 -3.18643 -1.14823 0
M  V30 1855 C 182.552 -4.2344 -0.510009 0
M  V30 1856 S 183.385 -5.30761 0.710824 0
M  V30 1857 C 184.541 -6.24992 -0.33699 0
M  V30 1858 H 184.774 -2.90884 0.614322 0
M  V30 1859 H 182.307 -1.48166 0.434304 0
M  V30 1860 H 184.265 -3.71424 -1.74799 0
M  V30 1861 H 182.926 -2.54932 -1.8349 0
M  V30 1862 H 182.119 -4.86948 -1.29991 0
M  V30 1863 H 181.721 -3.73997 0.0154577 0
M  V30 1864 H 184.013 -6.66691 -1.20537 0
M  V30 1865 H 184.956 -7.07612 0.262879 0
M  V30 1866 H 185.364 -5.60517 -0.669425 0
M  V30 1867 N 184.763 -0.387143 -1.52771 0
M  V30 1868 C 186.011 0.195349 -2.01154 0
M  V30 1869 C 186.332 1.475 -1.27549 0
M  V30 1870 O 185.602 1.91878 -0.394924 0
M  V30 1871 H 184.182 0.075178 -0.743207 0
M  V30 1872 H 186.844 -0.518337 -1.87881 0
M  V30 1873 H 185.94 0.407096 -3.09434 0
M  V30 1874 N 186.241 1.57166 -0.116904 0
M  V30 1875 C 187.191 2.11756 0.845178 0
M  V30 1876 C 188.175 1.03783 1.22955 0
M  V30 1877 O 189.367 1.3002 1.20099 0
M  V30 1878 C 186.496 2.71886 2.09602 0
M  V30 1879 C 185.582 3.86937 1.7361 0
M  V30 1880 N 185.973 4.94073 1.08284 0
M  V30 1881 C 184.271 3.97082 2.03082 0
M  V30 1882 C 184.972 5.74477 0.913855 0
M  V30 1883 N 183.948 5.2423 1.43818 0
M  V30 1884 H 187.75 2.91967 0.336523 0
M  V30 1885 H 185.264 1.62174 0.0856332 0
M  V30 1886 H 187.261 3.09338 2.79492 0
M  V30 1887 H 185.921 1.93138 2.61013 0
M  V30 1888 H 186.932 5.12483 0.747067 0
M  V30 1889 H 183.609 3.29372 2.56554 0
M  V30 1890 H 184.999 6.70701 0.40125 0
M  V30 1891 N 187.719 -0.156864 1.56817 0
M  V30 1892 C 188.965 -0.872416 1.83076 0
M  V30 1893 C 189.298 -1.81261 0.697001 0
M  V30 1894 O 188.573 -1.92171 -0.30008 0
M  V30 1895 C 188.856 -1.65551 3.19789 0
M  V30 1896 C 188.709 -0.737467 4.43713 0
M  V30 1897 C 190.028 -2.62012 3.53606 0
M  V30 1898 H 187.147 -0.315715 0.665953 0
M  V30 1899 H 189.789 -0.138004 1.89498 0
M  V30 1900 H 187.939 -2.28159 3.14445 0
M  V30 1901 H 189.611 -0.123143 4.61136 0
M  V30 1902 H 187.854 -0.0464067 4.33775 0
M  V30 1903 H 188.525 -1.32122 5.35955 0
M  V30 1904 H 191.001 -2.09525 3.59497 0
M  V30 1905 H 189.877 -3.13861 4.50314 0
M  V30 1906 H 190.138 -3.42902 2.79053 0
M  V30 1907 N 189.197 -1.51736 -0.425897 0
M  V30 1908 C 190.422 -1.69082 -1.20108 0
M  V30 1909 C 190.847 -0.392398 -1.83962 0
M  V30 1910 O 190.205 0.64858 -1.69302 0
M  V30 1911 C 190.253 -2.81604 -2.25237 0
M  V30 1912 O 189.357 -2.46004 -3.30992 0
M  V30 1913 H 188.698 -0.563408 -0.35138 0
M  V30 1914 H 191.228 -1.98358 -0.501512 0
M  V30 1915 H 191.238 -3.06025 -2.69838 0
M  V30 1916 H 189.913 -3.75817 -1.78142 0
M  V30 1917 H 188.49 -2.32195 -2.91787 0
M  V30 1918 N 190.675 0.682077 -1.42076 0
M  V30 1919 C 191.608 1.80666 -1.3941 0
M  V30 1920 C 192.586 1.60518 -0.25939 0
M  V30 1921 O 193.77 1.83088 -0.448456 0
M  V30 1922 C 190.897 3.17556 -1.17796 0
M  V30 1923 C 189.943 3.56468 -2.34164 0
M  V30 1924 S 190.776 3.59729 -3.96681 0
M  V30 1925 C 191.932 4.99323 -3.77395 0
M  V30 1926 H 192.165 1.82652 -2.34575 0
M  V30 1927 H 189.698 0.852062 -1.2876 0
M  V30 1928 H 191.656 3.96575 -1.06012 0
M  V30 1929 H 190.317 3.13164 -0.242279 0
M  V30 1930 H 189.51 4.5595 -2.1477 0
M  V30 1931 H 189.112 2.84792 -2.42425 0
M  V30 1932 H 191.404 5.87202 -3.37935 0
M  V30 1933 H 192.347 5.23763 -4.76527 0
M  V30 1934 H 192.755 4.71498 -3.10403 0
M  V30 1935 N 192.153 1.28127 0.917671 0
M  V30 1936 C 193.086 1.06039 2.02067 0
M  V30 1937 C 194.064 -0.0223285 1.62585 0
M  V30 1938 O 195.248 0.124823 1.88086 0
M  V30 1939 C 192.375 0.610596 3.33151 0
M  V30 1940 C 191.421 1.68937 3.91615 0
M  V30 1941 S 192.254 3.28437 4.22953 0
M  V30 1942 C 193.41 2.85283 5.57103 0
M  V30 1943 H 193.643 1.99425 2.20493 0
M  V30 1944 H 191.176 1.12071 1.06205 0
M  V30 1945 H 193.134 0.357778 4.08938 0
M  V30 1946 H 191.795 -0.303364 3.12632 0
M  V30 1947 H 190.988 1.32619 4.86239 0
M  V30 1948 H 190.59 1.89478 3.2245 0
M  V30 1949 H 192.882 2.3121 6.36827 0
M  V30 1950 H 193.825 3.7869 5.98331 0
M  V30 1951 H 194.233 2.24118 5.18104 0
M  V30 1952 N 193.631 -1.12557 1.10312 0
M  V30 1953 C 194.581 -2.16331 0.720076 0
M  V30 1954 C 195.565 -1.58616 -0.270115 0
M  V30 1955 O 196.757 -1.76823 -0.0790507 0
M  V30 1956 C 193.886 -3.42963 0.152113 0
M  V30 1957 C 192.972 -4.07663 1.16927 0
M  V30 1958 N 193.363 -4.47392 2.35953 0
M  V30 1959 C 191.661 -4.34425 1.0095 0
M  V30 1960 C 192.362 -4.97932 3.0073 0
M  V30 1961 N 191.338 -4.93358 2.28252 0
M  V30 1962 H 195.14 -2.44813 1.62616 0
M  V30 1963 H 192.654 -1.29449 0.980654 0
M  V30 1964 H 194.651 -4.16664 -0.14037 0
M  V30 1965 H 193.311 -3.1595 -0.748701 0
M  V30 1966 H 194.322 -4.39802 2.73486 0
M  V30 1967 H 190.999 -4.17177 0.164134 0
M  V30 1968 H 192.389 -5.38397 4.01969 0
M  V30 1969 N 195.109 -0.891671 -1.2995 0
M  V30 1970 C 196.357 -0.512486 -1.95494 0
M  V30 1971 C 196.678 0.942776 -1.70695 0
M  V30 1972 O 195.948 1.66374 -1.03424 0
M  V30 1973 H 194.528 -0.186533 -0.723336 0
M  V30 1974 H 197.19 -1.13621 -1.58355 0
M  V30 1975 H 196.286 -0.688342 -3.04415 0
M  V30 1976 N 196.587 1.43421 -0.653314 0
M  V30 1977 C 197.833 2.02111 -0.166992 0
M  V30 1978 C 198.166 1.51423 1.21592 0
M  V30 1979 O 197.441 0.707389 1.8118 0
M  V30 1980 C 197.724 3.5966 -0.177948 0
M  V30 1981 C 197.577 4.20579 -1.59478 0
M  V30 1982 C 198.896 4.37413 0.4856 0
M  V30 1983 H 196.015 0.734374 -0.0621557 0
M  V30 1984 H 198.657 1.70717 -0.834016 0
M  V30 1985 H 196.807 3.86537 0.390032 0
M  V30 1986 H 198.479 4.04732 -2.21336 0
M  V30 1987 H 196.722 3.77226 -2.14204 0
M  V30 1988 H 197.393 5.29665 -1.5543 0
M  V30 1989 H 199.869 4.161 0.00234528 0
M  V30 1990 H 198.745 5.47075 0.447207 0
M  V30 1991 H 199.006 4.13672 1.55974 0
M  V30 1992 N 198.065 0.39524 1.52563 0
M  V30 1993 C 199.342 -0.242908 1.94086 0
M  V30 1994 C 199.722 -1.63841 1.33114 0
M  V30 1995 O 199.07 -2.22928 0.501529 0
M  V30 1996 C 199.28 -0.26327 3.48006 0
M  V30 1997 C 200.628 -0.489354 4.21771 0
M  V30 1998 O 201.652 -0.343226 3.54543 0
M  V30 1999 O 200.511 -0.776169 5.4096 0
M  V30 2000 H 197.605 -0.152536 0.812811 0
M  V30 2001 H 200.151 0.450178 1.6362 0
M  V30 2002 H 198.923 0.713985 3.84731 0
M  V30 2003 H 198.546 -1.00103 3.84792 0
M  V30 2004 N 199.544 -1.57102 0.125237 0
M  V30 2005 C 200.955 -1.82384 -0.399142 0
M  V30 2006 C 201.306 -1.04276 -1.66195 0
M  V30 2007 O 200.431 -0.281269 -2.14564 0
M  V30 2008 C 201.026 -3.30821 -0.730932 0
M  V30 2009 C 199.585 -3.56762 -1.19992 0
M  V30 2010 C 198.732 -2.7649 -0.211792 0
M  V30 2011 H 201.683 -1.54786 0.350277 0
M  V30 2012 H 201.704 -3.4579 -1.58775 0
M  V30 2013 H 201.216 -3.87643 0.188345 0
M  V30 2014 H 199.317 -3.05305 -2.13588 0
M  V30 2015 H 199.43 -4.65317 -1.14093 0
M  V30 2016 H 197.794 -2.4489 -0.700085 0
M  V30 2017 H 198.577 -3.36073 0.700691 0
M  V30 2018 N 201.022 0.148545 -1.56898 0
M  V30 2019 C 201.97 1.20265 -1.99096 0
M  V30 2020 C 202.964 1.44559 -0.883123 0
M  V30 2021 O 204.17 1.4487 -1.0683 0
M  V30 2022 H 200.545 0.404786 -0.63376 0
M  V30 2023 H 202.516 0.82004 -2.86911 0
M  V30 2024 C 201.265 2.52886 -2.3863 0
M  V30 2025 H 200.588 2.35021 -3.23427 0
M  V30 2026 H 202.028 3.25274 -2.7198 0
M  V30 2027 C 200.487 3.13315 -1.23837 0
M  V30 2028 O 201.017 3.98077 -0.538268 0
M  V30 2029 N 199.223 2.72742 -1.00301 0
M  V30 2030 H 198.77 2.03912 -1.5741 0
M  V30 2031 H 198.728 3.13507 -0.236838 0
M  V30 2032 N 202.5 1.5196 0.417844 0
M  V30 2033 C 203.911 1.57851 0.997 0
M  V30 2034 C 204.262 0.413714 1.91789 0
M  V30 2035 O 203.387 -0.467057 2.113 0
M  V30 2036 C 203.982 2.86085 1.81496 0
M  V30 2037 C 202.541 2.94483 2.34428 0
M  V30 2038 C 201.688 2.52707 1.14169 0
M  V30 2039 H 204.639 1.57455 0.198392 0
M  V30 2040 H 204.66 2.70947 2.67148 0
M  V30 2041 H 204.172 3.70842 1.14446 0
M  V30 2042 H 202.273 2.142 3.04875 0
M  V30 2043 H 202.386 3.98546 2.65891 0
M  V30 2044 H 200.75 2.06353 1.49301 0
M  V30 2045 H 201.533 3.39828 0.486999 0
M  V30 2046 N 203.978 -0.674533 1.42435 0
M  V30 2047 C 204.928 -1.7807 1.4239 0
M  V30 2048 C 205.912 -1.58169 0.295202 0
M  V30 2049 O 207.104 -1.68643 0.537449 0
M  V30 2050 C 204.233 -3.16532 1.32901 0
M  V30 2051 C 203.319 -3.42055 2.50717 0
M  V30 2052 N 203.71 -3.38162 3.76139 0
M  V30 2053 C 202.008 -3.72692 2.44983 0
M  V30 2054 C 202.709 -3.63177 4.54398 0
M  V30 2055 N 201.685 -3.83954 3.84812 0
M  V30 2056 H 205.487 -1.73454 2.37257 0
M  V30 2057 H 203.001 -0.875381 1.36788 0
M  V30 2058 H 204.998 -3.958 1.30951 0
M  V30 2059 H 203.658 -3.22345 0.390363 0
M  V30 2060 H 204.669 -3.18057 4.0873 0
M  V30 2061 H 201.346 -3.85749 1.59699 0
M  V30 2062 H 202.736 -3.66125 5.63384 0
M  V30 2063 N 205.456 -1.28612 -0.910864 0
M  V30 2064 C 206.389 -1.07109 -2.01502 0
M  V30 2065 C 207.367 0.013706 -1.62594 0
M  V30 2066 O 208.551 -0.134796 -1.88017 0
M  V30 2067 C 205.678 -0.628255 -3.32822 0
M  V30 2068 C 204.724 -1.71012 -3.90714 0
M  V30 2069 S 205.557 -3.30676 -4.21205 0
M  V30 2070 C 206.713 -2.88234 -5.55583 0
M  V30 2071 H 206.946 -2.00591 -2.19432 0
M  V30 2072 H 204.479 -1.12633 -1.05609 0
M  V30 2073 H 206.437 -0.37946 -4.08742 0
M  V30 2074 H 205.098 0.28678 -3.12788 0
M  V30 2075 H 204.291 -1.35195 -4.85529 0
M  V30 2076 H 203.893 -1.91186 -3.21441 0
M  V30 2077 H 206.185 -2.34584 -6.35591 0
M  V30 2078 H 207.128 -3.81857 -5.96314 0
M  V30 2079 H 207.536 -2.26862 -5.16908 0
M  V30 2080 N 206.934 1.1197 -1.10907 0
M  V30 2081 C 208.159 1.87942 -0.877064 0
M  V30 2082 C 208.584 1.79341 0.567314 0
M  V30 2083 O 207.942 1.15184 1.40009 0
M  V30 2084 C 207.99 3.34926 -1.33629 0
M  V30 2085 O 207.094 4.09303 -0.504447 0
M  V30 2086 H 206.435 0.583785 -0.316371 0
M  V30 2087 H 208.965 1.4157 -1.47712 0
M  V30 2088 H 208.975 3.8577 -1.32837 0
M  V30 2089 H 207.65 3.40504 -2.3881 0
M  V30 2090 H 206.227 3.68393 -0.577993 0
M  V30 2091 N 208.412 0.89855 1.29475 0
M  V30 2092 C 209.342 0.39201 2.30186 0
M  V30 2093 C 210.323 -0.532359 1.61555 0
M  V30 2094 O 211.508 -0.443331 1.89072 0
M  V30 2095 C 208.638 -0.382353 3.45189 0
M  V30 2096 C 207.592 0.451483 4.25612 0
M  V30 2097 C 206.918 -0.450307 5.328 0
M  V30 2098 C 208.218 1.70079 4.93832 0
M  V30 2099 H 209.912 1.23362 2.72804 0
M  V30 2100 H 207.458 0.594638 1.31149 0
M  V30 2101 H 209.411 -0.747451 4.14718 0
M  V30 2102 H 208.135 -1.25774 3.01411 0
M  V30 2103 H 206.794 0.798897 3.57789 0
M  V30 2104 H 206.442 -1.32379 4.85268 0
M  V30 2105 H 206.142 0.103902 5.87508 0
M  V30 2106 H 207.666 -0.811623 6.05182 0
M  V30 2107 H 209.08 1.40549 5.55805 0
M  V30 2108 H 207.477 2.19623 5.58467 0
M  V30 2109 H 208.547 2.43744 4.19186 0
M  V30 2110 N 209.89 -1.43072 0.660911 0
M  V30 2111 C 211.12 -2.05769 0.185153 0
M  V30 2112 C 211.528 -1.49668 -1.15742 0
M  V30 2113 O 210.871 -0.625649 -1.72717 0
M  V30 2114 C 210.933 -3.59489 0.0278237 0
M  V30 2115 C 210.597 -4.38212 1.2969 0
M  V30 2116 C 211.594 -4.69772 2.22734 0
M  V30 2117 C 209.279 -4.7809 1.54063 0
M  V30 2118 C 211.273 -5.40129 3.38437 0
M  V30 2119 C 208.96 -5.4819 2.70058 0
M  V30 2120 C 209.958 -5.79132 3.62071 0
M  V30 2121 O 209.646 -6.47798 4.76039 0
M  V30 2122 H 209.378 -0.669873 0.0908086 0
M  V30 2123 H 211.932 -1.84436 0.90402 0
M  V30 2124 H 210.162 -3.79426 -0.746489 0
M  V30 2125 H 211.851 -4.03862 -0.406275 0
M  V30 2126 H 212.617 -4.39476 2.05149 0
M  V30 2127 H 208.496 -4.53408 0.833215 0
M  V30 2128 H 212.04 -5.64198 4.10277 0
M  V30 2129 H 207.937 -5.77902 2.87574 0
M  V30 2130 H 208.705 -6.66283 4.75404 0
M  V30 2131 N 211.368 -0.403325 -1.52352 0
M  V30 2132 C 212.331 0.413051 -2.25447 0
M  V30 2133 C 213.331 0.978513 -1.276 0
M  V30 2134 O 214.521 0.858305 -1.51587 0
M  V30 2135 C 211.653 1.58087 -3.02029 0
M  V30 2136 H 212.846 -0.227094 -2.99039 0
M  V30 2137 H 210.399 -0.155722 -1.55522 0
M  V30 2138 H 211.134 2.25804 -2.32772 0
M  V30 2139 H 210.919 1.18195 -3.73861 0
M  V30 2140 H 212.409 2.1585 -3.57489 0
M  V30 2141 N 212.846 1.57033 -0.133567 0
M  V30 2142 C 213.809 2.14897 0.796995 0
M  V30 2143 C 214.809 1.0874 1.18458 0
M  V30 2144 O 215.999 1.34446 1.1077 0
M  V30 2145 C 213.131 2.70112 2.07973 0
M  V30 2146 H 214.324 2.98457 0.293873 0
M  V30 2147 H 211.877 1.55871 0.115787 0
M  V30 2148 H 212.612 1.9018 2.62682 0
M  V30 2149 H 212.397 3.47764 1.81115 0
M  V30 2150 H 213.887 3.14738 2.74462 0
M  V30 2151 N 214.325 -0.140222 1.56975 0
M  V30 2152 C 215.272 -1.17292 1.98774 0
M  V30 2153 C 216.242 -1.4232 0.856408 0
M  V30 2154 O 217.427 -1.54541 1.119 0
M  V30 2155 C 214.567 -2.49973 2.37923 0
M  V30 2156 C 213.68 -2.32062 3.64378 0
M  V30 2157 C 212.815 -3.57825 3.926 0
M  V30 2158 C 211.854 -3.3498 5.12303 0
M  V30 2159 N 210.991 -4.52891 5.36502 0
M  V30 2160 H 215.831 -0.809472 2.86795 0
M  V30 2161 H 213.368 -0.388237 1.41884 0
M  V30 2162 H 215.326 -3.27346 2.58652 0
M  V30 2163 H 213.956 -2.84252 1.52972 0
M  V30 2164 H 213.008 -1.45711 3.51387 0
M  V30 2165 H 214.32 -2.11145 4.51906 0
M  V30 2166 H 213.474 -4.43624 4.13863 0
M  V30 2167 H 212.213 -3.81753 3.03506 0
M  V30 2168 H 211.218 -2.4757 4.90906 0
M  V30 2169 H 212.443 -3.12444 6.02956 0
M  V30 2170 H 210.389 -4.76979 4.50363 0
M  V30 2171 H 210.306 -4.35001 6.18312 0
M  V30 2172 H 211.574 -5.39884 5.62268 0
M  V30 2173 N 215.803 -1.52179 -0.40978 0
M  V30 2174 C 216.766 -1.74853 -1.48186 0
M  V30 2175 C 217.766 -0.618417 -1.48433 0
M  V30 2176 O 218.956 -0.886286 -1.49969 0
M  V30 2177 C 216.088 -1.8303 -2.87598 0
M  V30 2178 H 217.281 -2.70559 -1.29374 0
M  V30 2179 H 214.834 -1.42586 -0.640233 0
M  V30 2180 H 215.569 -0.89236 -3.11781 0
M  V30 2181 H 215.354 -2.65187 -2.88822 0
M  V30 2182 H 216.844 -2.02316 -3.65319 0
M  V30 2183 N 217.281 0.66697 -1.42791 0
M  V30 2184 C 218.506 1.46004 -1.47301 0
M  V30 2185 C 218.931 1.87894 -0.0880317 0
M  V30 2186 O 218.289 1.56502 0.915253 0
M  V30 2187 C 218.337 2.68031 -2.41229 0
M  V30 2188 O 217.441 3.6659 -1.88906 0
M  V30 2189 H 216.782 0.43832 -0.49877 0
M  V30 2190 H 219.312 0.817391 -1.87563 0
M  V30 2191 H 219.322 3.1601 -2.58073 0
M  V30 2192 H 217.997 2.36883 -3.41847 0
M  V30 2193 H 216.574 3.25661 -1.81656 0
M  V30 2194 N 218.759 1.29093 0.90403 0
M  V30 2195 C 220.007 1.16583 1.65085 0
M  V30 2196 C 220.328 -0.283933 1.92922 0
M  V30 2197 O 219.598 -1.19509 1.55224 0
M  V30 2198 H 218.178 0.428467 0.611903 0
M  V30 2199 H 220.84 1.61959 1.08422 0
M  V30 2200 H 219.936 1.71266 2.6091 0
M  V30 2201 N 220.237 -1.11381 1.11499 0
M  V30 2202 C 221.17 -2.16621 0.71769 0
M  V30 2203 C 222.148 -1.60058 -0.286413 0
M  V30 2204 O 223.332 -1.87613 -0.182689 0
M  V30 2205 C 220.459 -3.38646 0.0607265 0
M  V30 2206 C 219.505 -4.13874 1.03008 0
M  V30 2207 S 220.338 -4.70731 2.55289 0
M  V30 2208 C 221.494 -5.96079 1.90895 0
M  V30 2209 H 221.727 -2.49987 1.60915 0
M  V30 2210 H 219.26 -1.23015 0.933092 0
M  V30 2211 H 221.218 -4.09313 -0.311965 0
M  V30 2212 H 219.879 -3.03537 -0.807702 0
M  V30 2213 H 219.072 -5.01333 0.517853 0
M  V30 2214 H 218.674 -3.4897 1.34522 0
M  V30 2215 H 220.966 -6.65948 1.24577 0
M  V30 2216 H 221.909 -6.51946 2.76354 0
M  V30 2217 H 222.317 -5.47652 1.36885 0
M  V30 2218 N 221.715 -0.905404 -1.28997 0
M  V30 2219 C 222.648 -0.331959 -2.25773 0
M  V30 2220 C 223.626 0.559099 -1.52685 0
M  V30 2221 O 224.81 0.50463 -1.8162 0
M  V30 2222 C 221.937 0.526276 -3.34586 0
M  V30 2223 C 220.983 -0.298249 -4.25456 0
M  V30 2224 S 221.816 -1.69968 -5.0781 0
M  V30 2225 C 222.972 -0.848519 -6.20122 0
M  V30 2226 H 223.205 -1.15222 -2.74064 0
M  V30 2227 H 220.738 -0.706112 -1.37308 0
M  V30 2228 H 222.696 1.01565 -3.97737 0
M  V30 2229 H 221.357 1.32084 -2.84978 0
M  V30 2230 H 220.55 0.357607 -5.0273 0
M  V30 2231 H 220.152 -0.720968 -3.66985 0
M  V30 2232 H 222.444 -0.0744325 -6.77459 0
M  V30 2233 H 223.387 -1.59353 -6.89937 0
M  V30 2234 H 223.795 -0.400383 -5.63078 0
M  V30 2235 N 223.193 1.4272 -0.668489 0
M  V30 2236 C 224.441 2.01226 -0.187769 0
M  V30 2237 C 224.762 1.53092 1.2078 0
M  V30 2238 O 224.032 0.74993 1.80977 0
M  V30 2239 H 222.612 0.744041 -0.0664272 0
M  V30 2240 H 225.274 1.74723 -0.863583 0
M  V30 2241 H 224.37 3.11556 -0.184166 0
M  V30 2242 N 224.671 0.411399 1.52136 0
M  V30 2243 C 225.601 -0.404015 2.29978 0
M  V30 2244 C 226.582 -1.04412 1.34284 0
M  V30 2245 O 227.767 -1.0527 1.63192 0
M  V30 2246 C 224.897 -1.5197 3.12286 0
M  V30 2247 C 223.851 -1.00448 4.16046 0
M  V30 2248 C 223.177 -2.21393 4.86712 0
M  V30 2249 C 224.477 -0.0569336 5.22269 0
M  V30 2250 H 226.171 0.245529 2.98392 0
M  V30 2251 H 223.717 0.119525 1.43503 0
M  V30 2252 H 225.67 -2.09715 3.6551 0
M  V30 2253 H 224.394 -2.19716 2.41646 0
M  V30 2254 H 223.053 -0.449421 3.63835 0
M  V30 2255 H 222.701 -2.87699 4.12599 0
M  V30 2256 H 222.401 -1.87571 5.56858 0
M  V30 2257 H 223.925 -2.7974 5.4275 0
M  V30 2258 H 225.339 -0.54325 5.7072 0
M  V30 2259 H 223.736 0.192594 5.99791 0
M  V30 2260 H 224.806 0.887663 4.76706 0
M  V30 2261 N 226.149 -1.5696 0.141893 0
M  V30 2262 C 227.377 -2.00322 -0.517579 0
M  V30 2263 C 227.792 -1.02193 -1.58752 0
M  V30 2264 O 227.149 -0.0181619 -1.82491 0
M  V30 2265 C 227.2 -3.43618 -1.12289 0
M  V30 2266 O 226.921 -4.37995 -0.0956929 0
M  V30 2267 C 228.422 -4.02231 -1.86347 0
M  V30 2268 H 225.642 -0.657243 -0.135177 0
M  V30 2269 H 228.186 -2.03146 0.234973 0
M  V30 2270 H 226.341 -3.41662 -1.82609 0
M  V30 2271 H 226.755 -5.21729 -0.538469 0
M  V30 2272 H 228.229 -5.04509 -2.23997 0
M  V30 2273 H 228.706 -3.42655 -2.74744 0
M  V30 2274 H 229.312 -4.07802 -1.20737 0
M  V30 2275 N 227.627 0.131896 -1.57047 0
M  V30 2276 C 228.59 1.14638 -1.98471 0
M  V30 2277 C 229.59 1.35029 -0.873148 0
M  V30 2278 O 230.78 1.31764 -1.13946 0
M  V30 2279 C 227.912 2.50358 -2.31373 0
M  V30 2280 H 229.105 0.79064 -2.8929 0
M  V30 2281 H 226.658 0.375761 -1.51716 0
M  V30 2282 H 227.393 2.90876 -1.43393 0
M  V30 2283 H 227.178 2.36915 -3.12432 0
M  V30 2284 H 228.668 3.23395 -2.64207 0
M  V30 2285 N 229.106 1.52395 0.401703 0
M  V30 2286 C 230.016 1.7917 1.51444 0
M  V30 2287 C 231.032 0.677691 1.6026 0
M  V30 2288 O 232.208 0.963909 1.76835 0
M  V30 2289 C 229.273 1.94347 2.87107 0
M  V30 2290 C 228.334 3.18257 2.88116 0
M  V30 2291 C 227.567 3.32701 4.17308 0
M  V30 2292 O 227.79 2.52238 5.11598 0
M  V30 2293 O 226.724 4.25891 4.25324 0
M  V30 2294 H 230.55 2.73633 1.31752 0
M  V30 2295 H 228.135 1.3733 0.588296 0
M  V30 2296 H 230.017 2.06109 3.67555 0
M  V30 2297 H 228.692 1.03073 3.06851 0
M  V30 2298 H 227.599 3.11947 2.06494 0
M  V30 2299 H 228.932 4.09336 2.73322 0
M  V30 2300 N 230.584 -0.659388 1.43143 0
M  V30 2301 C 231.517 -1.78425 1.42267 0
M  V30 2302 C 232.495 -1.60085 0.284894 0
M  V30 2303 O 233.679 -1.82351 0.477527 0
M  V30 2304 C 230.806 -3.15642 1.22833 0
M  V30 2305 C 229.852 -3.52698 2.39806 0
M  V30 2306 S 230.685 -3.53372 4.02353 0
M  V30 2307 C 231.841 -4.93256 3.85291 0
M  V30 2308 H 232.074 -1.78897 2.37452 0
M  V30 2309 H 229.607 -0.831469 1.301 0
M  V30 2310 H 231.565 -3.94838 1.12308 0
M  V30 2311 H 230.226 -3.12739 0.29207 0
M  V30 2312 H 229.419 -4.52475 2.21996 0
M  V30 2313 H 229.021 -2.80899 2.46925 0
M  V30 2314 H 231.313 -5.81751 3.47235 0
M  V30 2315 H 232.256 -5.16115 4.84799 0
M  V30 2316 H 232.664 -4.665 3.17865 0
M  V30 2317 N 232.062 -1.29571 -0.897171 0
M  V30 2318 C 232.992 -1.17473 -2.01798 0
M  V30 2319 C 233.973 -0.068323 -1.69963 0
M  V30 2320 O 235.158 -0.248239 -1.92607 0
M  V30 2321 C 232.288 -0.853099 -3.36659 0
M  V30 2322 C 231.242 -1.9161 -3.82713 0
M  V30 2323 C 230.568 -1.44773 -5.14728 0
M  V30 2324 C 231.868 -3.32535 -4.02763 0
M  V30 2325 H 233.562 -2.11237 -2.12177 0
M  V30 2326 H 231.108 -1.01699 -1.01948 0
M  V30 2327 H 233.061 -0.755165 -4.14578 0
M  V30 2328 H 231.785 0.120236 -3.26379 0
M  V30 2329 H 230.444 -2.00346 -3.07013 0
M  V30 2330 H 230.092 -0.462995 -5.00865 0
M  V30 2331 H 229.792 -2.15865 -5.46513 0
M  V30 2332 H 231.316 -1.36334 -5.95185 0
M  V30 2333 H 232.73 -3.26626 -4.71156 0
M  V30 2334 H 231.127 -4.01607 -4.45905 0
M  V30 2335 H 232.197 -3.75326 -3.07016 0
M  V30 2336 N 233.54 1.10788 -1.12088 0
M  V30 2337 C 234.788 1.8231 -0.872205 0
M  V30 2338 C 235.109 1.85419 0.603709 0
M  V30 2339 O 234.379 1.32963 1.43867 0
M  V30 2340 H 232.959 0.675137 -0.319686 0
M  V30 2341 H 235.621 1.34068 -1.41463 0
M  V30 2342 H 234.717 2.85955 -1.25045 0
M  V30 2343 N 235.018 0.912232 1.28515 0
M  V30 2344 C 235.965 0.397954 2.27343 0
M  V30 2345 C 236.935 -0.526766 1.57526 0
M  V30 2346 O 238.12 -0.449292 1.85435 0
M  V30 2347 C 235.26 -0.357263 3.43246 0
M  V30 2348 C 234.373 0.599788 4.27816 0
M  V30 2349 C 233.508 -0.173725 5.30916 0
M  V30 2350 C 232.547 0.777039 6.07148 0
M  V30 2351 N 231.684 0.0371398 7.0209 0
M  V30 2352 H 236.524 1.24577 2.70711 0
M  V30 2353 H 234.061 0.625612 1.33133 0
M  V30 2354 H 236.019 -0.8113 4.09236 0
M  V30 2355 H 234.649 -1.16943 3.00872 0
M  V30 2356 H 233.701 1.17235 3.61884 0
M  V30 2357 H 235.013 1.32704 4.80823 0
M  V30 2358 H 234.167 -0.688394 6.02782 0
M  V30 2359 H 232.906 -0.934041 4.78672 0
M  V30 2360 H 231.911 1.3031 5.34134 0
M  V30 2361 H 233.136 1.53689 6.61481 0
M  V30 2362 H 231.082 -0.705213 6.52198 0
M  V30 2363 H 230.999 0.704249 7.52713 0
M  V30 2364 H 232.267 -0.457383 7.78157 0
M  V30 2365 N 236.496 -1.42363 0.676048 0
M  V30 2366 C 237.429 -2.28141 -0.0516916 0
M  V30 2367 C 238.407 -1.41135 -0.807439 0
M  V30 2368 O 239.591 -1.70573 -0.802305 0
M  V30 2369 C 236.718 -3.21007 -1.08039 0
M  V30 2370 C 235.764 -4.24426 -0.420076 0
M  V30 2371 S 236.597 -5.29134 0.823246 0
M  V30 2372 C 237.753 -6.25566 -0.204344 0
M  V30 2373 H 237.986 -2.89515 0.675884 0
M  V30 2374 H 235.519 -1.47211 0.465635 0
M  V30 2375 H 237.477 -3.75048 -1.66881 0
M  V30 2376 H 236.138 -2.58766 -1.78042 0
M  V30 2377 H 235.331 -4.89596 -1.19633 0
M  V30 2378 H 234.933 -3.7388 0.0947845 0
M  V30 2379 H 237.225 -6.69098 -1.06369 0
M  V30 2380 H 238.168 -7.06895 0.412915 0
M  V30 2381 H 238.576 -5.61811 -0.55038 0
M  V30 2382 N 237.974 -0.419461 -1.51915 0
M  V30 2383 C 238.924 0.418496 -2.24126 0
M  V30 2384 C 239.908 1.00495 -1.25656 0
M  V30 2385 O 241.1 0.926058 -1.50842 0
M  V30 2386 C 238.229 1.52899 -3.07371 0
M  V30 2387 C 237.315 0.952797 -4.13258 0
M  V30 2388 N 237.706 0.104175 -5.05693 0
M  V30 2389 C 236.004 1.22224 -4.28926 0
M  V30 2390 C 236.705 -0.21752 -5.81293 0
M  V30 2391 N 235.681 0.394293 -5.42168 0
M  V30 2392 H 239.483 -0.236048 -2.92951 0
M  V30 2393 H 236.997 -0.230481 -1.60756 0
M  V30 2394 H 238.994 2.14199 -3.57665 0
M  V30 2395 H 237.654 2.18605 -2.40088 0
M  V30 2396 H 238.665 -0.260924 -5.17242 0
M  V30 2397 H 235.342 1.87812 -3.72871 0
M  V30 2398 H 236.732 -0.906992 -6.6575 0
M  V30 2399 N 239.452 1.56882 -0.150215 0
M  V30 2400 C 240.7 1.9584 0.499105 0
M  V30 2401 C 241.021 1.03623 1.65188 0
M  V30 2402 O 240.291 0.0984084 1.95653 0
M  V30 2403 H 238.871 0.723119 0.187373 0
M  V30 2404 H 241.533 1.9358 -0.226466 0
M  V30 2405 H 240.629 2.99638 0.873122 0
M  V30 2406 N 240.93 -0.123565 1.57115 0
M  V30 2407 C 242.179 -0.830704 1.83799 0
M  V30 2408 C 242.492 -1.81259 0.735158 0
M  V30 2409 O 243.698 -2.56558 0.888278 0
M  V30 2410 C 242.154 -1.52802 3.25852 0
M  V30 2411 C 241.762 -0.587356 4.44133 0
M  V30 2412 C 243.506 -2.22056 3.61789 0
M  V30 2413 C 241.413 -1.28764 5.77212 0
M  V30 2414 H 240.343 -0.313967 0.685522 0
M  V30 2415 H 242.994 -0.0834359 1.8331 0
M  V30 2416 H 241.376 -2.32175 3.20797 0
M  V30 2417 H 242.55 0.172829 4.60476 0
M  V30 2418 H 240.865 -0.00201892 4.164 0
M  V30 2419 H 243.462 -2.75131 4.58483 0
M  V30 2420 H 243.805 -2.99644 2.88997 0
M  V30 2421 H 244.338 -1.49576 3.68608 0
M  V30 2422 H 241.077 -0.55314 6.53162 0
M  V30 2423 H 240.597 -2.01995 5.64764 0
M  V30 2424 H 242.276 -1.8221 6.20813 0
M  V30 2425 N 242.408 -1.52605 -0.393616 0
M  V30 2426 C 243.633 -1.71592 -1.16495 0
M  V30 2427 C 244.058 -0.43133 -1.83088 0
M  V30 2428 O 243.416 0.612523 -1.7064 0
M  V30 2429 C 243.464 -2.86318 -2.19213 0
M  V30 2430 O 242.568 -2.52969 -3.257 0
M  V30 2431 H 241.909 -0.570734 -0.33935 0
M  V30 2432 H 244.439 -1.99377 -0.459324 0
M  V30 2433 H 244.449 -3.1168 -2.63286 0
M  V30 2434 H 243.124 -3.79511 -1.7013 0
M  V30 2435 H 241.701 -2.38332 -2.86797 0
M  V30 2436 N 243.887 0.651787 -1.4349 0
M  V30 2437 C 245.303 0.96762 -1.26922 0
M  V30 2438 C 245.503 2.00602 -0.189982 0
M  V30 2439 O 244.559 2.48793 0.431107 0
M  V30 2440 C 245.872 1.45052 -2.63401 0
M  V30 2441 C 247.42 1.5671 -2.70945 0
M  V30 2442 C 247.895 2.0839 -4.07845 0
M  V30 2443 N 249.386 2.1569 -4.09917 0
M  V30 2444 C 250.121 2.56804 -5.12679 0
M  V30 2445 N 249.617 2.97203 -6.25813 0
M  V30 2446 N 251.41 2.56756 -5.00033 0
M  V30 2447 H 243.561 -0.0353158 -2.12371 0
M  V30 2448 H 245.824 0.0467858 -0.946845 0
M  V30 2449 H 245.53 0.761926 -3.43348 0
M  V30 2450 H 245.404 2.42529 -2.88894 0
M  V30 2451 H 247.791 2.2467 -1.9133 0
M  V30 2452 H 247.872 0.57662 -2.49216 0
M  V30 2453 H 247.516 1.41031 -4.87927 0
M  V30 2454 H 247.446 3.08271 -4.26938 0
M  V30 2455 H 249.937 1.87237 -3.28254 0
M  V30 2456 H 250.25 3.27328 -7.00055 0
M  V30 2457 H 248.595 2.95004 -6.29283 0
M  V30 2458 H 251.786 2.24572 -4.10713 0
M  V30 2459 H 251.959 2.88475 -5.80247 0
M  V30 2460 N 245.365 1.30045 0.890287 0
M  V30 2461 C 246.275 1.17885 2.02831 0
M  V30 2462 C 247.291 0.0999609 1.73713 0
M  V30 2463 O 248.467 0.313867 1.98939 0
M  V30 2464 C 245.532 0.866079 3.35708 0
M  V30 2465 C 244.593 2.02979 3.78283 0
M  V30 2466 C 243.826 1.73184 5.0482 0
M  V30 2467 O 244.049 0.657237 5.66601 0
M  V30 2468 O 242.983 2.58267 5.43674 0
M  V30 2469 H 246.809 2.13474 2.16015 0
M  V30 2470 H 244.394 1.09587 1.01543 0
M  V30 2471 H 246.276 0.706623 4.15433 0
M  V30 2472 H 244.951 -0.0599443 3.23644 0
M  V30 2473 H 243.858 2.24454 2.99285 0
M  V30 2474 H 245.191 2.93734 3.94944 0
M  V30 2475 N 246.843 -1.10192 1.12674 0
M  V30 2476 C 247.775 -2.16418 0.754701 0
M  V30 2477 C 248.788 -1.61309 -0.21986 0
M  V30 2478 O 249.977 -1.785 -0.000826841 0
M  V30 2479 C 247.077 -3.38762 0.096698 0
M  V30 2480 C 246.25 -4.23307 1.10136 0
M  V30 2481 C 245.309 -5.24092 0.470513 0
M  V30 2482 O 244.335 -5.57906 1.12824 0
M  V30 2483 N 245.537 -5.75491 -0.760948 0
M  V30 2484 H 248.302 -2.48943 1.66875 0
M  V30 2485 H 245.863 -1.25834 1.01869 0
M  V30 2486 H 247.855 -4.03291 -0.337384 0
M  V30 2487 H 246.425 -3.04192 -0.720153 0
M  V30 2488 H 245.645 -3.55036 1.71299 0
M  V30 2489 H 246.933 -4.76624 1.78064 0
M  V30 2490 H 246.331 -5.50222 -1.31424 0
M  V30 2491 H 244.888 -6.41792 -1.13781 0
M  V30 2492 N 248.321 -0.919034 -1.28029 0
M  V30 2493 C 249.253 -0.368762 -2.26214 0
M  V30 2494 C 250.266 0.495716 -1.55069 0
M  V30 2495 O 251.455 0.30974 -1.75792 0
M  V30 2496 C 248.555 0.491049 -3.35324 0
M  V30 2497 C 247.728 -0.352133 -4.3598 0
M  V30 2498 C 246.787 0.443622 -5.24327 0
M  V30 2499 O 245.813 -0.14566 -5.69014 0
M  V30 2500 N 247.015 1.74545 -5.53637 0
M  V30 2501 H 249.78 -1.21273 -2.74068 0
M  V30 2502 H 247.341 -0.785541 -1.41566 0
M  V30 2503 H 249.333 1.03026 -3.91366 0
M  V30 2504 H 247.903 1.23574 -2.87138 0
M  V30 2505 H 247.123 -1.07269 -3.79324 0
M  V30 2506 H 248.411 -0.928883 -5.00249 0
M  V30 2507 H 247.809 2.24666 -5.19174 0
M  V30 2508 H 246.366 2.23138 -6.12416 0
M  V30 2509 N 249.799 1.42003 -0.683588 0
M  V30 2510 C 251.076 1.95112 -0.138075 0
M  V30 2511 C 251.456 1.62359 1.34918 0
M  V30 2512 O 250.804 0.924311 2.08971 0
M  V30 2513 C 251.014 3.46505 -0.416581 0
M  V30 2514 C 252.362 4.23254 -0.337834 0
M  V30 2515 O 253.386 3.54468 -0.35082 0
M  V30 2516 O 252.245 5.45743 -0.287596 0
M  V30 2517 H 249.339 0.826961 -0.00797996 0
M  V30 2518 H 251.885 1.51784 -0.758924 0
M  V30 2519 H 250.657 3.63582 -1.4465 0
M  V30 2520 H 250.28 3.969 0.235839 0
M  V30 2521 N 251.277 0.427512 1.51691 0
M  V30 2522 C 252.24 -0.377132 2.26076 0
M  V30 2523 C 253.24 -0.958089 1.29141 0
M  V30 2524 O 254.43 -0.83408 1.52934 0
M  V30 2525 C 251.562 -1.53262 3.04506 0
M  V30 2526 H 252.755 0.27464 2.9864 0
M  V30 2527 H 250.308 0.180445 1.55255 0
M  V30 2528 H 251.043 -2.22072 2.36335 0
M  V30 2529 H 250.828 -1.12232 3.75694 0
M  V30 2530 H 252.318 -2.10135 3.60878 0
M  V30 2531 N 252.755 -1.56801 0.158532 0
M  V30 2532 C 254.002 -1.9649 -0.489679 0
M  V30 2533 C 254.33 -1.04394 -1.6411 0
M  V30 2534 O 253.585 -0.0754401 -1.95555 0
M  V30 2535 C 253.884 -3.4235 -1.02623 0
M  V30 2536 C 253.55 -4.50899 0.00794526 0
M  V30 2537 C 252.212 -4.80312 0.292207 0
M  V30 2538 C 254.564 -5.16333 0.710584 0
M  V30 2539 C 251.892 -5.72461 1.28472 0
M  V30 2540 C 254.244 -6.09553 1.69199 0
M  V30 2541 C 252.908 -6.37339 1.98383 0
M  V30 2542 H 252.178 -0.719009 -0.179186 0
M  V30 2543 H 254.825 -1.8989 0.247798 0
M  V30 2544 H 253.13 -3.45838 -1.84128 0
M  V30 2545 H 254.827 -3.70393 -1.53656 0
M  V30 2546 H 251.417 -4.28015 -0.22379 0
M  V30 2547 H 255.601 -4.93732 0.504174 0
M  V30 2548 H 250.857 -5.92278 1.51714 0
M  V30 2549 H 255.031 -6.59327 2.24189 0
M  V30 2550 H 252.658 -7.08546 2.7544 0
M  V30 2551 N 254.233 0.115231 -1.57178 0
M  V30 2552 C 255.196 1.12526 -1.99676 0
M  V30 2553 C 256.196 1.34095 -0.88742 0
M  V30 2554 O 257.386 1.30548 -1.15337 0
M  V30 2555 C 254.518 2.4789 -2.34015 0
M  V30 2556 H 255.711 0.759912 -2.90113 0
M  V30 2557 H 253.264 0.359648 -1.52106 0
M  V30 2558 H 253.999 2.89339 -1.4647 0
M  V30 2559 H 253.784 2.33588 -3.14927 0
M  V30 2560 H 255.274 3.20575 -2.67622 0
M  V30 2561 N 255.711 1.52812 0.385517 0
M  V30 2562 C 256.957 1.68275 1.13188 0
M  V30 2563 C 257.29 0.423179 1.89533 0
M  V30 2564 O 256.565 -0.579113 1.85679 0
M  V30 2565 C 256.848 2.92001 2.1073 0
M  V30 2566 C 256.701 4.28067 1.38125 0
M  V30 2567 C 258.02 3.11283 3.11113 0
M  V30 2568 H 255.139 0.612352 0.410115 0
M  V30 2569 H 257.781 1.85415 0.414869 0
M  V30 2570 H 255.931 2.77519 2.71874 0
M  V30 2571 H 257.603 4.54324 0.799187 0
M  V30 2572 H 255.846 4.28388 0.683092 0
M  V30 2573 H 256.517 5.10733 2.09417 0
M  V30 2574 H 258.993 3.2482 2.6006 0
M  V30 2575 H 257.869 3.99325 3.76605 0
M  V30 2576 H 258.13 2.25656 3.80173 0
M  V30 2577 N 257.189 -0.644168 1.43834 0
M  V30 2578 C 258.605 -0.960875 1.27434 0
M  V30 2579 C 258.805 -2.00499 0.200618 0
M  V30 2580 O 257.861 -2.49018 -0.417906 0
M  V30 2581 C 259.174 -1.43653 2.64167 0
M  V30 2582 C 260.722 -1.55271 2.71772 0
M  V30 2583 C 261.197 -2.06224 4.08944 0
M  V30 2584 N 262.688 -2.13513 4.11055 0
M  V30 2585 C 263.423 -2.54081 5.14033 0
M  V30 2586 N 262.919 -2.9388 6.27381 0
M  V30 2587 N 264.712 -2.54101 5.01387 0
M  V30 2588 H 256.863 0.0465779 2.12349 0
M  V30 2589 H 259.126 -0.0417638 0.94708 0
M  V30 2590 H 258.832 -0.743706 3.43747 0
M  V30 2591 H 258.706 -2.40993 2.90176 0
M  V30 2592 H 261.093 -2.23653 1.92519 0
M  V30 2593 H 261.174 -0.563395 2.49519 0
M  V30 2594 H 260.818 -1.38441 4.88668 0
M  V30 2595 H 260.748 -3.06003 4.28567 0
M  V30 2596 H 263.239 -1.85493 3.29242 0
M  V30 2597 H 263.552 -3.2361 7.01781 0
M  V30 2598 H 261.897 -2.91663 6.30839 0
M  V30 2599 H 265.088 -2.22391 4.11898 0
M  V30 2600 H 265.261 -2.85394 5.81768 0
M  V30 2601 N 258.668 -1.30515 -0.883378 0
M  V30 2602 C 259.893 -1.22487 -1.67367 0
M  V30 2603 C 260.318 0.208767 -1.86938 0
M  V30 2604 O 259.676 1.15015 -1.40148 0
M  V30 2605 C 259.724 -1.96041 -3.02655 0
M  V30 2606 O 258.828 -1.28859 -3.91751 0
M  V30 2607 H 258.169 -0.423573 -0.511353 0
M  V30 2608 H 260.699 -1.72362 -1.10239 0
M  V30 2609 H 260.709 -2.05124 -3.52687 0
M  V30 2610 H 259.384 -3.00307 -2.8773 0
M  V30 2611 H 257.961 -1.28141 -3.50192 0
M  V30 2612 N 260.146 1.09593 -1.13257 0
M  V30 2613 C 261.096 2.14345 -0.777179 0
M  V30 2614 C 262.08 1.59277 0.227966 0
M  V30 2615 O 263.272 1.76971 0.0321413 0
M  V30 2616 C 260.401 3.42439 -0.242991 0
M  V30 2617 C 259.487 4.04419 -1.27694 0
M  V30 2618 N 259.878 4.40979 -2.47732 0
M  V30 2619 C 258.176 4.31596 -1.12432 0
M  V30 2620 C 258.877 4.89784 -3.13826 0
M  V30 2621 N 257.853 4.87133 -2.41252 0
M  V30 2622 H 261.655 2.40415 -1.69049 0
M  V30 2623 H 259.169 1.26803 -1.01463 0
M  V30 2624 H 261.166 4.16889 0.0298496 0
M  V30 2625 H 259.826 3.17824 0.66467 0
M  V30 2626 H 260.837 4.32396 -2.85051 0
M  V30 2627 H 257.514 4.16595 -0.274684 0
M  V30 2628 H 258.904 5.2755 -4.16102 0
M  V30 2629 N 261.624 0.925811 1.2754 0
M  V30 2630 C 262.556 0.380753 2.26015 0
M  V30 2631 C 263.569 -0.487485 1.5533 0
M  V30 2632 O 264.758 -0.300413 1.75954 0
M  V30 2633 C 261.858 -0.473259 3.35579 0
M  V30 2634 C 261.031 0.375249 4.35787 0
M  V30 2635 C 260.09 -0.415809 5.24555 0
M  V30 2636 O 259.116 0.175834 5.68928 0
M  V30 2637 N 260.318 -1.71607 5.54555 0
M  V30 2638 H 263.083 1.22725 2.73421 0
M  V30 2639 H 260.644 0.793037 1.41147 0
M  V30 2640 H 262.636 -1.00949 3.91907 0
M  V30 2641 H 261.206 -1.2205 2.87789 0
M  V30 2642 H 260.426 1.09279 3.7875 0
M  V30 2643 H 261.714 0.955399 4.99749 0
M  V30 2644 H 261.112 -2.2191 5.20358 0
M  V30 2645 H 259.669 -2.19887 6.1359 0
M  V30 2646 N 263.102 -1.41638 0.69111 0
M  V30 2647 C 264.032 -2.3347 0.037248 0
M  V30 2648 C 265.013 -1.51575 -0.771947 0
M  V30 2649 O 266.198 -1.80126 -0.72582 0
M  V30 2650 C 263.328 -3.35354 -0.903064 0
M  V30 2651 C 262.282 -4.27526 -0.201288 0
M  V30 2652 C 261.608 -5.19747 -1.25565 0
M  V30 2653 C 262.908 -5.13959 0.929689 0
M  V30 2654 H 264.602 -2.88397 0.804227 0
M  V30 2655 H 262.148 -1.38669 0.388189 0
M  V30 2656 H 264.101 -3.98519 -1.36969 0
M  V30 2657 H 262.825 -2.78767 -1.70166 0
M  V30 2658 H 261.484 -3.65779 0.245265 0
M  V30 2659 H 261.132 -4.59479 -2.04666 0
M  V30 2660 H 260.832 -5.8225 -0.791128 0
M  V30 2661 H 262.356 -5.85789 -1.72288 0
M  V30 2662 H 263.77 -5.70718 0.543546 0
M  V30 2663 H 262.167 -5.85379 1.32103 0
M  V30 2664 H 263.237 -4.51389 1.77133 0
M  V30 2665 N 264.58 -0.43555 -1.51462 0
M  V30 2666 C 265.543 0.365137 -2.26273 0
M  V30 2667 C 266.543 0.951227 -1.29647 0
M  V30 2668 O 267.733 0.825958 -1.53374 0
M  V30 2669 C 264.865 1.51645 -3.05314 0
M  V30 2670 H 266.058 -0.290474 -2.9849 0
M  V30 2671 H 263.611 -0.188676 -1.55157 0
M  V30 2672 H 264.346 2.20816 -2.3751 0
M  V30 2673 H 264.131 1.10238 -3.76284 0
M  V30 2674 H 265.621 2.08218 -3.61987 0
M  V30 2675 N 266.058 1.56714 -0.166846 0
M  V30 2676 C 267.008 2.14338 0.777382 0
M  V30 2677 C 267.992 1.07642 1.19591 0
M  V30 2678 O 269.184 1.33775 1.15902 0
M  V30 2679 C 266.313 2.78417 2.00846 0
M  V30 2680 C 265.399 3.92264 1.61212 0
M  V30 2681 N 265.79 4.97268 0.925104 0
M  V30 2682 C 264.088 4.03342 1.90346 0
M  V30 2683 C 264.789 5.77093 0.730627 0
M  V30 2684 N 263.765 5.2854 1.27067 0
M  V30 2685 H 267.567 2.9289 0.243466 0
M  V30 2686 H 265.081 1.62364 0.0339954 0
M  V30 2687 H 267.078 3.18073 2.69509 0
M  V30 2688 H 265.738 2.01344 2.54736 0
M  V30 2689 H 266.749 5.14601 0.583646 0
M  V30 2690 H 263.426 3.37368 2.45946 0
M  V30 2691 H 264.816 6.71638 0.187668 0
M  V30 2692 N 267.536 -0.106894 1.57237 0
M  V30 2693 C 268.483 -1.13049 2.01217 0
M  V30 2694 C 269.453 -1.40471 0.886403 0
M  V30 2695 O 270.638 -1.52133 1.15153 0
M  V30 2696 C 267.778 -2.4487 2.43172 0
M  V30 2697 C 266.891 -2.24281 3.69218 0
M  V30 2698 C 266.026 -3.49417 4.00101 0
M  V30 2699 C 265.065 -3.24038 5.19294 0
M  V30 2700 N 264.202 -4.41409 5.45988 0
M  V30 2701 H 269.042 -0.748456 2.88448 0
M  V30 2702 H 266.579 -0.358054 1.42676 0
M  V30 2703 H 268.537 -3.21786 2.65537 0
M  V30 2704 H 267.167 -2.80944 1.58967 0
M  V30 2705 H 266.219 -1.38224 3.54398 0
M  V30 2706 H 267.531 -2.01512 4.56283 0
M  V30 2707 H 266.685 -4.34746 4.2318 0
M  V30 2708 H 265.424 -3.75229 3.11535 0
M  V30 2709 H 264.429 -2.37102 4.96047 0
M  V30 2710 H 265.654 -2.99584 6.09447 0
M  V30 2711 H 263.6 -4.67319 4.60379 0
M  V30 2712 H 263.517 -4.21788 6.274 0
M  V30 2713 H 264.785 -5.27836 5.73593 0
M  V30 2714 N 269.014 -1.53014 -0.377408 0
M  V30 2715 C 269.977 -1.77957 -1.44444 0
M  V30 2716 C 270.977 -0.649763 -1.47087 0
M  V30 2717 O 272.167 -0.917897 -1.48055 0
M  V30 2718 C 269.299 -1.89089 -2.83651 0
M  V30 2719 H 270.492 -2.73243 -1.23606 0
M  V30 2720 H 268.045 -1.43912 -0.609844 0
M  V30 2721 H 268.78 -0.958293 -3.09818 0
M  V30 2722 H 268.565 -2.71254 -2.83132 0
M  V30 2723 H 270.055 -2.1002 -3.60945 0
M  V30 2724 N 270.492 0.636531 -1.44174 0
M  V30 2725 C 271.72 1.42353 -1.50144 0
M  V30 2726 C 272.135 1.88389 -0.124575 0
M  V30 2727 O 271.492 1.6051 0.868489 0
M  V30 2728 C 271.543 2.64744 -2.46156 0
M  V30 2729 O 271.264 2.20629 -3.7849 0
M  V30 2730 C 272.765 3.57929 -2.61537 0
M  V30 2731 H 269.985 0.436752 -0.5094 0
M  V30 2732 H 272.529 0.778933 -1.89084 0
M  V30 2733 H 270.684 3.25307 -2.10366 0
M  V30 2734 H 271.098 2.99938 -4.30276 0
M  V30 2735 H 272.572 4.40428 -3.32757 0
M  V30 2736 H 273.049 4.06382 -1.66585 0
M  V30 2737 H 273.655 3.03238 -2.98206 0
M  V30 2738 N 271.97 1.30982 0.876444 0
M  V30 2739 C 273.216 1.20474 1.63138 0
M  V30 2740 C 273.549 -0.238096 1.92735 0
M  V30 2741 O 272.824 -1.1692 1.55435 0
M  V30 2742 C 273.107 2.04244 2.96574 0
M  V30 2743 C 272.96 3.56793 2.73896 0
M  V30 2744 C 274.279 1.88684 3.97601 0
M  V30 2745 H 271.398 0.439001 0.591985 0
M  V30 2746 H 274.04 1.60704 1.01361 0
M  V30 2747 H 272.19 1.70063 3.493 0
M  V30 2748 H 273.862 4.01077 2.27892 0
M  V30 2749 H 272.105 3.80548 2.08245 0
M  V30 2750 H 272.776 4.10706 3.68815 0
M  V30 2751 H 275.252 2.18584 3.54062 0
M  V30 2752 H 274.128 2.4961 4.88862 0
M  V30 2753 H 274.389 0.848343 4.33884 0
M  V30 2754 N 273.449 -1.08991 1.13837 0
M  V30 2755 C 274.359 -2.19301 0.833333 0
M  V30 2756 C 275.375 -1.73026 -0.183847 0
M  V30 2757 O 276.551 -2.01395 -0.0138092 0
M  V30 2758 C 273.616 -3.45323 0.308651 0
M  V30 2759 C 272.677 -4.06255 1.38764 0
M  V30 2760 C 271.91 -5.26262 0.887896 0
M  V30 2761 O 272.133 -5.69747 -0.27287 0
M  V30 2762 O 271.067 -5.78435 1.66421 0
M  V30 2763 H 274.893 -2.47854 1.75506 0
M  V30 2764 H 272.478 -1.18012 0.916166 0
M  V30 2765 H 274.36 -4.21394 0.0216739 0
M  V30 2766 H 273.035 -3.18362 -0.585431 0
M  V30 2767 H 271.942 -3.318 1.72799 0
M  V30 2768 H 273.275 -4.37452 2.25602 0
M  V30 2769 N 274.927 -0.932562 -1.27047 0
M  V30 2770 C 276.175 -0.574422 -1.93765 0
M  V30 2771 C 276.496 0.887993 -1.73608 0
M  V30 2772 O 275.766 1.62999 -1.08665 0
M  V30 2773 H 274.346 -0.209451 -0.717035 0
M  V30 2774 H 277.008 -1.18601 -1.5466 0
M  V30 2775 H 276.104 -0.784841 -3.02071 0
M  V30 2776 N 276.405 1.4127 -0.698611 0
M  V30 2777 C 277.352 2.30773 -0.0352094 0
M  V30 2778 C 278.322 1.47273 0.768111 0
M  V30 2779 O 279.507 1.76053 0.735524 0
M  V30 2780 C 276.647 3.33346 0.893 0
M  V30 2781 C 275.76 4.31924 0.0809695 0
M  V30 2782 C 274.895 5.21566 1.0071 0
M  V30 2783 C 273.934 6.11811 0.188155 0
M  V30 2784 N 273.071 6.93926 1.06825 0
M  V30 2785 H 277.911 2.86943 -0.804207 0
M  V30 2786 H 275.448 1.4132 -0.408294 0
M  V30 2787 H 277.406 3.91368 1.44523 0
M  V30 2788 H 276.036 2.78719 1.62836 0
M  V30 2789 H 275.088 3.75825 -0.588224 0
M  V30 2790 H 276.4 4.95716 -0.553801 0
M  V30 2791 H 275.554 5.84437 1.62845 0
M  V30 2792 H 274.293 4.58008 1.67572 0
M  V30 2793 H 273.298 5.47986 -0.446254 0
M  V30 2794 H 274.523 6.77425 -0.476716 0
M  V30 2795 H 272.469 6.32973 1.72283 0
M  V30 2796 H 272.386 7.54416 0.489123 0
M  V30 2797 H 273.654 7.61262 1.67632 0
M  V30 2798 N 277.883 0.443576 1.51229 0
M  V30 2799 C 279.13 -0.120796 2.02139 0
M  V30 2800 C 279.458 -1.42166 1.32736 0
M  V30 2801 O 278.713 -1.90849 0.43301 0
M  V30 2802 C 279.012 -0.380579 3.55368 0
M  V30 2803 C 278.678 0.83523 4.43097 0
M  V30 2804 C 277.34 1.16864 4.66794 0
M  V30 2805 C 279.692 1.64601 4.94526 0
M  V30 2806 C 277.02 2.31339 5.39165 0
M  V30 2807 C 279.372 2.78181 5.68153 0
M  V30 2808 C 278.036 3.11969 5.90112 0
M  V30 2809 H 277.306 -0.0442023 0.73968 0
M  V30 2810 H 279.953 0.592046 1.82118 0
M  V30 2811 H 278.258 -1.17538 3.73754 0
M  V30 2812 H 279.955 -0.830777 3.923 0
M  V30 2813 H 276.545 0.565437 4.24854 0
M  V30 2814 H 280.729 1.40163 4.76097 0
M  V30 2815 H 275.985 2.57823 5.5438 0
M  V30 2816 H 280.159 3.41371 6.06992 0
M  V30 2817 H 277.786 4.00784 6.45969 0
M  V30 2818 N 279.361 -1.56624 0.175154 0
M  V30 2819 C 280.308 -2.18149 -0.753634 0
M  V30 2820 C 281.278 -1.12265 -1.22417 0
M  V30 2821 O 282.463 -1.40432 -1.29165 0
M  V30 2822 C 279.603 -2.82933 -1.97592 0
M  V30 2823 C 278.716 -4.03289 -1.5486 0
M  V30 2824 C 277.851 -4.55988 -2.72485 0
M  V30 2825 C 276.89 -5.68746 -2.26262 0
M  V30 2826 N 276.027 -6.15938 -3.36994 0
M  V30 2827 H 280.867 -2.9717 -0.222195 0
M  V30 2828 H 278.404 -1.46774 -0.0979422 0
M  V30 2829 H 280.362 -3.18653 -2.69288 0
M  V30 2830 H 278.992 -2.06509 -2.481 0
M  V30 2831 H 278.044 -3.73364 -0.728246 0
M  V30 2832 H 279.356 -4.849 -1.16933 0
M  V30 2833 H 278.51 -4.9391 -3.52332 0
M  V30 2834 H 277.249 -3.73443 -3.13674 0
M  V30 2835 H 276.254 -5.30372 -1.44863 0
M  V30 2836 H 277.479 -6.53095 -1.86127 0
M  V30 2837 H 275.425 -5.36321 -3.77751 0
M  V30 2838 H 275.342 -6.92548 -3.03172 0
M  V30 2839 H 276.61 -6.58511 -4.17114 0
M  V30 2840 N 280.839 0.0985539 -1.57292 0
M  V30 2841 C 282.116 0.834155 -1.76921 0
M  V30 2842 C 282.496 1.97101 -0.755928 0
M  V30 2843 O 281.844 2.27474 0.216245 0
M  V30 2844 C 282.054 1.33194 -3.22584 0
M  V30 2845 C 283.402 1.77611 -3.85668 0
M  V30 2846 O 284.426 1.42825 -3.26312 0
M  V30 2847 O 283.285 2.4192 -4.90038 0
M  V30 2848 H 280.379 0.397628 -0.725135 0
M  V30 2849 H 282.925 0.0807044 -1.69508 0
M  V30 2850 H 281.697 0.517248 -3.87866 0
M  V30 2851 H 281.32 2.1475 -3.34616 0
M  V30 2852 N 282.317 1.53212 0.369288 0
M  V30 2853 C 283.227 1.82342 1.47609 0
M  V30 2854 C 284.243 0.711532 1.58787 0
M  V30 2855 O 285.419 1.0012 1.74751 0
M  V30 2856 C 282.484 2.00393 2.8292 0
M  V30 2857 C 281.545 3.24297 2.81301 0
M  V30 2858 C 280.778 3.41478 4.10157 0
M  V30 2859 O 281.001 2.63033 5.06132 0
M  V30 2860 O 279.935 4.34817 4.16194 0
M  V30 2861 H 283.761 2.76366 1.25918 0
M  V30 2862 H 281.346 1.38547 0.559034 0
M  V30 2863 H 283.228 2.13859 3.63101 0
M  V30 2864 H 281.903 1.09559 3.04596 0
M  V30 2865 H 280.81 3.16257 1.99831 0
M  V30 2866 H 282.143 4.15041 2.64578 0
M  V30 2867 N 283.795 -0.628877 1.44509 0
M  V30 2868 C 285.044 -1.38437 1.4669 0
M  V30 2869 C 285.357 -1.95322 0.104272 0
M  V30 2870 O 286.563 -2.715 0.00362163 0
M  V30 2871 C 285.019 -2.50659 2.5826 0
M  V30 2872 C 284.627 -2.00277 4.0074 0
M  V30 2873 C 286.371 -3.27844 2.69664 0
M  V30 2874 C 284.278 -3.09854 5.0373 0
M  V30 2875 H 283.208 -0.520245 0.545766 0
M  V30 2876 H 285.859 -0.676313 1.70582 0
M  V30 2877 H 284.241 -3.2405 2.27612 0
M  V30 2878 H 285.415 -1.33736 4.40966 0
M  V30 2879 H 283.73 -1.35901 3.93599 0
M  V30 2880 H 286.327 -4.09534 3.43781 0
M  V30 2881 H 286.67 -3.77471 1.75559 0
M  V30 2882 H 287.203 -2.61543 2.99733 0
M  V30 2883 H 283.942 -2.65168 5.99472 0
M  V30 2884 H 283.462 -3.7503 4.68095 0
M  V30 2885 H 285.141 -3.74592 5.27532 0
M  V30 2886 N 285.273 -1.31445 -0.869486 0
M  V30 2887 C 286.522 -1.20517 -1.61736 0
M  V30 2888 C 286.835 0.235341 -1.94179 0
M  V30 2889 O 288.041 0.466312 -2.67465 0
M  V30 2890 C 286.497 -2.10982 -2.91573 0
M  V30 2891 C 286.105 -3.60032 -2.66611 0
M  V30 2892 C 287.849 -2.08856 -3.69567 0
M  V30 2893 C 285.756 -4.42503 -3.92358 0
M  V30 2894 H 284.686 -0.447493 -0.606849 0
M  V30 2895 H 287.337 -1.56303 -0.96133 0
M  V30 2896 H 285.719 -1.68095 -3.58553 0
M  V30 2897 H 286.893 -4.11167 -2.08035 0
M  V30 2898 H 285.208 -3.64139 -2.0197 0
M  V30 2899 H 287.805 -2.67716 -4.62852 0
M  V30 2900 H 288.148 -1.07582 -4.02159 0
M  V30 2901 H 288.681 -2.49945 -3.09471 0
M  V30 2902 H 285.42 -5.44533 -3.64916 0
M  V30 2903 H 284.94 -3.96125 -4.50383 0
M  V30 2904 H 286.619 -4.54741 -4.60238 0
M  V30 2905 N 286.751 1.08385 -1.14413 0
M  V30 2906 C 288.162 1.62258 -0.923535 0
M  V30 2907 C 288.513 1.88691 0.537595 0
M  V30 2908 O 287.638 1.64454 1.40655 0
M  V30 2909 C 288.233 2.94781 -1.67002 0
M  V30 2910 C 286.792 3.45437 -1.495 0
M  V30 2911 C 285.939 2.19668 -1.69238 0
M  V30 2912 H 288.89 0.916086 -1.2959 0
M  V30 2913 H 288.911 3.63229 -1.13334 0
M  V30 2914 H 288.423 2.7551 -2.73342 0
M  V30 2915 H 286.524 3.6981 -0.455097 0
M  V30 2916 H 286.637 4.22173 -2.2651 0
M  V30 2917 H 285.001 2.28849 -1.11804 0
M  V30 2918 H 285.784 2.02905 -2.7692 0
M  V30 2919 N 288.23 0.939286 1.26551 0
M  V30 2920 C 289.163 0.391702 2.24813 0
M  V30 2921 C 290.141 -0.518421 1.54114 0
M  V30 2922 O 291.325 -0.456299 1.82894 0
M  V30 2923 C 288.452 -0.437382 3.35864 0
M  V30 2924 C 287.498 0.410946 4.24516 0
M  V30 2925 S 288.331 1.83372 5.03125 0
M  V30 2926 C 289.487 1.01264 6.17654 0
M  V30 2927 H 289.72 1.22448 2.70913 0
M  V30 2928 H 287.253 0.742269 1.35387 0
M  V30 2929 H 289.211 -0.909837 4.0029 0
M  V30 2930 H 287.872 -1.24482 2.8838 0
M  V30 2931 H 287.065 -0.224191 5.03501 0
M  V30 2932 H 286.667 0.818014 3.64945 0
M  V30 2933 H 288.959 0.254023 6.77024 0
M  V30 2934 H 289.902 1.77589 6.85469 0
M  V30 2935 H 290.31 0.549532 5.61819 0
M  V30 2936 N 289.708 -1.40897 0.706093 0
M  V30 2937 C 290.64 -2.29199 0.00815776 0
M  V30 2938 C 291.653 -1.45336 -0.733582 0
M  V30 2939 O 292.842 -1.68727 -0.582537 0
M  V30 2940 C 289.942 -3.23417 -1.01265 0
M  V30 2941 C 289.115 -4.36089 -0.338387 0
M  V30 2942 C 288.174 -5.10811 -1.26326 0
M  V30 2943 O 287.2 -5.64215 -0.751651 0
M  V30 2944 N 288.402 -5.19269 -2.595 0
M  V30 2945 H 291.167 -2.89738 0.766297 0
M  V30 2946 H 288.728 -1.52164 0.55296 0
M  V30 2947 H 290.72 -3.70276 -1.63334 0
M  V30 2948 H 289.29 -2.64112 -1.67223 0
M  V30 2949 H 288.51 -3.91479 0.462352 0
M  V30 2950 H 289.798 -5.08634 0.130031 0
M  V30 2951 H 289.196 -4.77347 -3.03573 0
M  V30 2952 H 287.753 -5.69667 -3.16737 0
M  V30 2953 N 291.186 -0.45159 -1.50991 0
M  V30 2954 C 292.434 0.109857 -2.01801 0
M  V30 2955 C 292.755 1.41958 -1.3369 0
M  V30 2956 O 292.025 1.9003 -0.475951 0
M  V30 2957 H 290.605 0.0435884 -0.745727 0
M  V30 2958 H 293.267 -0.597557 -1.85514 0
M  V30 2959 H 292.363 0.275489 -3.10882 0
M  V30 2960 N 292.664 1.56529 -0.183458 0
M  V30 2961 C 293.894 2.01331 0.463612 0
M  V30 2962 C 294.302 1.06278 1.5653 0
M  V30 2963 O 293.645 0.0577976 1.83609 0
M  V30 2964 C 293.707 3.42547 1.09096 0
M  V30 2965 C 293.371 4.56817 0.129442 0
M  V30 2966 C 294.368 5.15734 -0.656807 0
M  V30 2967 C 292.053 5.02295 0.02174 0
M  V30 2968 C 294.047 6.1857 -1.53784 0
M  V30 2969 C 291.734 6.04978 -0.862864 0
M  V30 2970 C 292.732 6.62988 -1.64123 0
M  V30 2971 O 292.42 7.63677 -2.51103 0
M  V30 2972 H 292.152 0.664917 0.121907 0
M  V30 2973 H 294.706 2.034 -0.285954 0
M  V30 2974 H 292.936 3.37428 1.88889 0
M  V30 2975 H 294.625 3.71228 1.64148 0
M  V30 2976 H 295.391 4.81473 -0.583839 0
M  V30 2977 H 291.27 4.56847 0.617392 0
M  V30 2978 H 294.814 6.63777 -2.14583 0
M  V30 2979 H 290.711 6.38663 -0.93699 0
M  V30 2980 H 291.479 7.81049 -2.44753 0
M  V30 2981 N 294.142 -0.090211 1.57342 0
M  V30 2982 C 295.419 -0.824761 1.77361 0
M  V30 2983 C 295.799 -1.96698 0.76637 0
M  V30 2984 O 295.147 -2.27586 -0.204179 0
M  V30 2985 C 295.357 -1.31481 3.23286 0
M  V30 2986 C 296.705 -1.75563 3.86604 0
M  V30 2987 O 297.729 -1.41093 3.27065 0
M  V30 2988 O 296.588 -2.39317 4.91314 0
M  V30 2989 H 293.682 -0.393776 0.727234 0
M  V30 2990 H 296.228 -0.0717138 1.69548 0
M  V30 2991 H 295 -0.496671 3.88135 0
M  V30 2992 H 294.623 -2.12973 3.35751 0
M  V30 2993 N 295.62 -1.53406 -0.361157 0
M  V30 2994 C 296.53 -1.83122 -1.4664 0
M  V30 2995 C 297.546 -0.719943 -1.58407 0
M  V30 2996 O 298.722 -1.01046 -1.74218 0
M  V30 2997 C 295.787 -2.01891 -2.81853 0
M  V30 2998 C 294.848 -3.25784 -2.79577 0
M  V30 2999 C 294.081 -3.43648 -4.0834 0
M  V30 3000 O 294.304 -2.65714 -5.0473 0
M  V30 3001 O 293.238 -4.37018 -4.13883 0
M  V30 3002 H 297.064 -2.7703 -1.24451 0
M  V30 3003 H 294.649 -1.38841 -0.551678 0
M  V30 3004 H 296.531 -2.15782 -3.61962 0
M  V30 3005 H 295.206 -1.11173 -3.0401 0
M  V30 3006 H 294.113 -3.17312 -1.98151 0
M  V30 3007 H 295.446 -4.16439 -2.62373 0
M  V30 3008 N 297.098 0.621204 -1.44841 0
M  V30 3009 C 298.046 1.75385 -1.52784 0
M  V30 3010 C 299.04 1.64639 -0.398779 0
M  V30 3011 O 300.246 1.70598 -0.574137 0
M  V30 3012 H 296.621 0.579193 -0.479625 0
M  V30 3013 H 298.592 1.6581 -2.48092 0
M  V30 3014 C 297.341 3.13742 -1.4987 0
M  V30 3015 H 296.664 3.22663 -2.36069 0
M  V30 3016 H 298.104 3.92861 -1.59487 0
M  V30 3017 C 296.563 3.36175 -0.220973 0
M  V30 3018 O 297.093 3.95469 0.704782 0
M  V30 3019 N 295.299 2.90348 -0.120963 0
M  V30 3020 H 294.846 2.42278 -0.875162 0
M  V30 3021 H 294.804 3.05732 0.733168 0
M  V30 3022 N 298.576 1.31904 0.862503 0
M  V30 3023 C 299.824 1.21776 1.61292 0
M  V30 3024 C 300.145 -0.222413 1.93727 0
M  V30 3025 O 299.415 -1.1451 1.58947 0
M  V30 3026 H 297.995 0.447717 0.597962 0
M  V30 3027 H 300.657 1.65326 1.03215 0
M  V30 3028 H 299.753 1.7948 2.5533 0
M  V30 3029 N 300.054 -1.07777 1.14986 0
M  V30 3030 C 301.301 -1.8029 0.922056 0
M  V30 3031 C 301.629 -1.86531 -0.55105 0
M  V30 3032 O 300.884 -1.34189 -1.42449 0
M  V30 3033 C 301.183 -3.25495 1.47608 0
M  V30 3034 C 300.849 -3.39361 2.96893 0
M  V30 3035 C 299.511 -3.42852 3.37647 0
M  V30 3036 C 301.863 -3.42512 3.92854 0
M  V30 3037 C 299.191 -3.47094 4.73015 0
M  V30 3038 C 301.543 -3.4829 5.28088 0
M  V30 3039 C 300.207 -3.50058 5.68345 0
M  V30 3040 H 299.477 -0.659727 0.337404 0
M  V30 3041 H 302.124 -1.26854 1.43459 0
M  V30 3042 H 300.429 -3.81683 0.88463 0
M  V30 3043 H 302.126 -3.80168 1.27568 0
M  V30 3044 H 298.716 -3.37339 2.64387 0
M  V30 3045 H 302.9 -3.3904 3.62444 0
M  V30 3046 H 298.156 -3.46758 5.03556 0
M  V30 3047 H 302.33 -3.49675 6.02246 0
M  V30 3048 H 299.957 -3.53097 6.73221 0
M  V30 3049 N 301.532 -0.945985 -1.26051 0
M  V30 3050 C 302.462 -0.477172 -2.28572 0
M  V30 3051 C 303.443 0.472032 -1.63419 0
M  V30 3052 O 304.628 0.372853 -1.90587 0
M  V30 3053 C 301.758 0.253975 -3.4637 0
M  V30 3054 C 300.712 -0.609135 -4.23643 0
M  V30 3055 C 300.038 0.252252 -5.34105 0
M  V30 3056 C 301.338 -1.8829 -4.8718 0
M  V30 3057 H 303.032 -1.33402 -2.68038 0
M  V30 3058 H 300.578 -0.642904 -1.28852 0
M  V30 3059 H 302.531 0.593016 -4.17207 0
M  V30 3060 H 301.255 1.145 -3.05871 0
M  V30 3061 H 299.914 -0.931138 -3.54578 0
M  V30 3062 H 299.562 1.14278 -4.89846 0
M  V30 3063 H 299.262 -0.32188 -5.86718 0
M  V30 3064 H 300.786 0.586454 -6.07777 0
M  V30 3065 H 302.2 -1.61081 -5.50205 0
M  V30 3066 H 300.597 -2.40199 -5.49931 0
M  V30 3067 H 301.667 -2.59134 -4.09851 0
M  V30 3068 N 303.011 1.40521 -0.713556 0
M  V30 3069 C 303.958 2.30723 -0.059684 0
M  V30 3070 C 304.928 1.48079 0.752448 0
M  V30 3071 O 306.113 1.76823 0.71681 0
M  V30 3072 C 303.253 3.34274 0.857594 0
M  V30 3073 C 302.366 4.31986 0.0351536 0
M  V30 3074 C 301.501 5.22605 0.951724 0
M  V30 3075 C 300.54 6.11976 0.123253 0
M  V30 3076 N 299.677 6.9502 0.99459 0
M  V30 3077 H 304.517 2.86074 -0.834596 0
M  V30 3078 H 302.054 1.40879 -0.42326 0
M  V30 3079 H 304.012 3.92879 1.40364 0
M  V30 3080 H 302.642 2.8043 1.59871 0
M  V30 3081 H 301.694 3.7518 -0.628052 0
M  V30 3082 H 303.006 4.95101 -0.606347 0
M  V30 3083 H 302.16 5.86131 1.56638 0
M  V30 3084 H 300.899 4.59759 1.62705 0
M  V30 3085 H 299.904 5.47482 -0.50435 0
M  V30 3086 H 301.129 6.76881 -0.548539 0
M  V30 3087 H 299.075 6.34764 1.6556 0
M  V30 3088 H 298.992 7.54892 0.40908 0
M  V30 3089 H 300.26 7.62997 1.59549 0
M  V30 3090 N 304.489 0.459591 1.5075 0
M  V30 3091 C 305.738 -0.100971 2.01447 0
M  V30 3092 C 306.051 -1.41816 1.34713 0
M  V30 3093 O 307.257 -2.06299 1.76502 0
M  V30 3094 C 305.713 -0.23047 3.59161 0
M  V30 3095 C 305.321 1.0776 4.34847 0
M  V30 3096 C 307.065 -0.743608 4.17936 0
M  V30 3097 C 304.972 0.91253 5.84317 0
M  V30 3098 H 303.902 -0.0415102 0.752856 0
M  V30 3099 H 306.553 0.592742 1.73663 0
M  V30 3100 H 304.935 -0.987703 3.83485 0
M  V30 3101 H 306.109 1.8449 4.22256 0
M  V30 3102 H 304.424 1.52097 3.87628 0
M  V30 3103 H 307.021 -0.883959 5.27343 0
M  V30 3104 H 307.364 -1.73196 3.78562 0
M  V30 3105 H 307.897 -0.04408 3.97776 0
M  V30 3106 H 304.636 1.87391 6.28144 0
M  V30 3107 H 304.156 0.185422 5.99513 0
M  V30 3108 H 305.835 0.574547 6.44444 0
M  V30 3109 N 305.967 -1.56429 0.191757 0
M  V30 3110 C 307.214 -1.97485 -0.447891 0
M  V30 3111 C 307.542 -1.07852 -1.61859 0
M  V30 3112 O 306.797 -0.116903 -1.95351 0
M  V30 3113 C 307.096 -3.44449 -0.953384 0
M  V30 3114 C 306.762 -4.50781 0.103586 0
M  V30 3115 C 305.424 -4.79584 0.394023 0
M  V30 3116 C 307.776 -5.1471 0.819946 0
M  V30 3117 C 305.104 -5.69607 1.40585 0
M  V30 3118 C 307.456 -6.05827 1.8209 0
M  V30 3119 C 306.12 -6.32987 2.11857 0
M  V30 3120 H 305.39 -0.722648 -0.163895 0
M  V30 3121 H 308.037 -1.89322 0.28802 0
M  V30 3122 H 306.342 -3.49666 -1.76751 0
M  V30 3123 H 308.039 -3.73569 -1.45765 0
M  V30 3124 H 304.629 -4.28394 -0.132951 0
M  V30 3125 H 308.813 -4.92552 0.608789 0
M  V30 3126 H 304.069 -5.88926 1.64243 0
M  V30 3127 H 308.243 -6.54424 2.38123 0
M  V30 3128 H 305.87 -7.02544 2.90407 0
M  V30 3129 N 307.445 0.0818655 -1.57387 0
M  V30 3130 C 308.722 0.815343 -1.77796 0
M  V30 3131 C 309.102 1.96289 -0.77679 0
M  V30 3132 O 308.45 2.27691 0.192106 0
M  V30 3133 C 308.66 1.29765 -3.23978 0
M  V30 3134 C 310.008 1.7351 -3.8753 0
M  V30 3135 O 311.032 1.39356 -3.27808 0
M  V30 3136 O 309.891 2.36708 -4.92576 0
M  V30 3137 H 306.985 0.389914 -0.729312 0
M  V30 3138 H 309.531 0.0627213 -1.69584 0
M  V30 3139 H 308.303 0.47608 -3.88393 0
M  V30 3140 H 307.926 2.11189 -3.36875 0
M  V30 3141 N 308.923 1.53595 0.353017 0
M  V30 3142 C 310.153 1.74058 1.11299 0
M  V30 3143 C 310.561 0.475205 1.83135 0
M  V30 3144 O 309.904 -0.562344 1.74881 0
M  V30 3145 C 309.966 2.85994 2.17825 0
M  V30 3146 C 309.63 4.25923 1.65647 0
M  V30 3147 C 310.627 5.07829 1.11383 0
M  V30 3148 C 308.312 4.72377 1.7078 0
M  V30 3149 C 310.306 6.34285 0.629439 0
M  V30 3150 C 307.993 5.98808 1.21953 0
M  V30 3151 C 308.991 6.79594 0.681265 0
M  V30 3152 O 308.679 8.03651 0.200248 0
M  V30 3153 H 308.411 0.585327 0.338183 0
M  V30 3154 H 310.965 2.01186 0.413927 0
M  V30 3155 H 309.195 2.54368 2.91262 0
M  V30 3156 H 310.884 2.94515 2.79313 0
M  V30 3157 H 311.65 4.73107 1.06746 0
M  V30 3158 H 307.529 4.0956 2.11617 0
M  V30 3159 H 311.073 6.97288 0.208636 0
M  V30 3160 H 306.97 6.33026 1.26287 0
M  V30 3161 H 307.738 8.1788 0.318416 0
M  V30 3162 N 310.401 -0.613514 1.45168 0
M  V30 3163 C 311.678 -1.37263 1.39349 0
M  V30 3164 C 312.058 -2.11012 0.0610848 0
M  V30 3165 O 311.406 -2.07502 -0.956825 0
M  V30 3166 C 311.616 -2.3244 2.60332 0
M  V30 3167 C 312.964 -2.9523 3.05163 0
M  V30 3168 O 313.988 -2.42762 2.60663 0
M  V30 3169 O 312.847 -3.90454 3.82372 0
M  V30 3170 H 309.941 -0.615188 0.552696 0
M  V30 3171 H 312.487 -0.637097 1.57287 0
M  V30 3172 H 311.259 -1.77164 3.48896 0
M  V30 3173 H 310.882 -3.13383 2.44698 0
M  V30 3174 N 311.879 -1.3236 -0.855495 0
M  V30 3175 C 312.789 -1.23221 -1.99634 0
M  V30 3176 C 313.805 -0.145983 -1.73387 0
M  V30 3177 O 314.981 -0.366502 -1.98037 0
M  V30 3178 C 312.046 -0.954782 -3.33294 0
M  V30 3179 C 311.107 -2.12937 -3.72769 0
M  V30 3180 C 310.34 -1.86508 -5.00051 0
M  V30 3181 O 310.563 -0.807231 -5.64659 0
M  V30 3182 O 309.497 -2.72591 -5.36636 0
M  V30 3183 H 313.323 -2.19126 -2.1028 0
M  V30 3184 H 310.908 -1.12241 -0.986018 0
M  V30 3185 H 312.79 -0.816519 -4.13414 0
M  V30 3186 H 311.465 -0.0258854 -3.2369 0
M  V30 3187 H 310.372 -2.3231 -2.93228 0
M  V30 3188 H 311.705 -3.04102 -3.87018 0
M  V30 3189 N 313.357 1.07166 -1.15556 0
M  V30 3190 C 314.585 1.83514 -0.955519 0
M  V30 3191 C 315 1.82163 0.49621 0
M  V30 3192 O 314.357 1.23441 1.34419 0
M  V30 3193 C 314.408 3.30515 -1.46432 0
M  V30 3194 O 314.129 3.31937 -2.85918 0
M  V30 3195 C 315.63 4.23625 -1.30603 0
M  V30 3196 H 312.85 0.578926 -0.339244 0
M  V30 3197 H 315.394 1.35265 -1.53374 0
M  V30 3198 H 313.549 3.76106 -0.928584 0
M  V30 3199 H 313.963 4.23794 -3.09029 0
M  V30 3200 H 315.437 5.24831 -1.71047 0
M  V30 3201 H 315.914 4.38485 -0.250441 0
M  V30 3202 H 316.52 3.83871 -1.83094 0
M  V30 3203 N 314.835 0.952656 1.25548 0
M  V30 3204 C 316.084 0.602053 1.92505 0
M  V30 3205 C 316.397 -0.864663 1.75451 0
M  V30 3206 O 317.603 -1.32514 2.36965 0
M  V30 3207 C 316.059 1.02607 3.44963 0
M  V30 3208 C 315.667 2.51519 3.70732 0
M  V30 3209 C 317.411 0.747905 4.1786 0
M  V30 3210 C 315.318 2.87732 5.16686 0
M  V30 3211 H 314.248 0.22146 0.720744 0
M  V30 3212 H 316.899 1.15684 1.42441 0
M  V30 3213 H 315.281 0.399712 3.93978 0
M  V30 3214 H 316.455 3.19157 3.32378 0
M  V30 3215 H 314.77 2.76786 3.11092 0
M  V30 3216 H 317.367 0.994647 5.25367 0
M  V30 3217 H 317.71 -0.315629 4.15102 0
M  V30 3218 H 318.243 1.33452 3.74747 0
M  V30 3219 H 314.982 3.93095 5.24554 0
M  V30 3220 H 314.502 2.24765 5.56094 0
M  V30 3221 H 316.181 2.76817 5.84792 0
M  V30 3222 N 316.313 -1.40141 0.720998 0
M  V30 3223 C 317.729 -1.54632 0.395113 0
M  V30 3224 C 317.929 -1.69115 -1.09555 0
M  V30 3225 O 316.985 -1.68377 -1.88163 0
M  V30 3226 C 318.298 -2.77177 1.1659 0
M  V30 3227 C 319.846 -2.91 1.15274 0
M  V30 3228 C 320.321 -4.16465 1.90579 0
M  V30 3229 N 321.812 -4.23476 1.87675 0
M  V30 3230 C 322.547 -5.19475 2.42762 0
M  V30 3231 N 322.043 -6.21348 3.06428 0
M  V30 3232 N 323.836 -5.11592 2.32874 0
M  V30 3233 H 315.987 -1.28986 1.68749 0
M  V30 3234 H 318.25 -0.62412 0.713567 0
M  V30 3235 H 317.956 -2.72771 2.22011 0
M  V30 3236 H 317.83 -3.69442 0.76108 0
M  V30 3237 H 320.217 -2.94907 0.106702 0
M  V30 3238 H 320.298 -1.99838 1.59682 0
M  V30 3239 H 319.942 -4.1332 2.95176 0
M  V30 3240 H 319.872 -5.06646 1.43587 0
M  V30 3241 H 322.363 -3.50497 1.41281 0
M  V30 3242 H 322.676 -6.91034 3.45965 0
M  V30 3243 H 321.021 -6.21777 3.10514 0
M  V30 3244 H 324.212 -4.30936 1.82789 0
M  V30 3245 H 324.385 -5.86233 2.76106 0
M  V30 3246 N 317.792 -0.46758 -1.50504 0
M  V30 3247 C 319.203 -0.0116166 -1.86696 0
M  V30 3248 C 319.554 1.39202 -1.38265 0
M  V30 3249 O 318.679 2.0313 -0.746132 0
M  V30 3250 C 319.274 -0.0143044 -3.38797 0
M  V30 3251 C 317.833 0.386175 -3.74414 0
M  V30 3252 C 316.98 -0.401287 -2.74381 0
M  V30 3253 H 319.931 -0.682022 -1.43297 0
M  V30 3254 H 319.952 0.788641 -3.72237 0
M  V30 3255 H 319.464 -1.03602 -3.74016 0
M  V30 3256 H 317.565 1.41237 -3.44794 0
M  V30 3257 H 317.678 0.0899596 -4.79016 0
M  V30 3258 H 316.042 0.144536 -2.5429 0
M  V30 3259 H 316.825 -1.42244 -3.12444 0
M  V30 3260 N 319.27 1.56325 -0.20005 0
M  V30 3261 C 320.547 1.89484 0.48529 0
M  V30 3262 C 320.927 1.1143 1.79294 0
M  V30 3263 O 320.275 0.216919 2.27468 0
M  V30 3264 C 320.485 3.41923 0.699243 0
M  V30 3265 C 321.833 4.12256 1.01638 0
M  V30 3266 O 322.857 3.47402 0.786792 0
M  V30 3267 O 321.716 5.26887 1.45095 0
M  V30 3268 H 318.81 0.787144 0.253639 0
M  V30 3269 H 321.356 1.67985 -0.240633 0
M  V30 3270 H 320.128 3.90658 -0.224008 0
M  V30 3271 H 319.751 3.69131 1.47744 0
M  V30 3272 N 320.748 -0.0735177 1.57428 0
M  V30 3273 C 321.976 -0.785969 1.9139 0
M  V30 3274 C 322.391 -1.71207 0.795847 0
M  V30 3275 O 321.748 -1.81033 -0.230915 0
M  V30 3276 C 321.799 -1.58107 3.25091 0
M  V30 3277 O 321.52 -0.6922 4.32597 0
M  V30 3278 C 323.021 -2.39467 3.73055 0
M  V30 3279 H 320.241 -0.223558 0.632663 0
M  V30 3280 H 322.785 -0.044302 2.04452 0
M  V30 3281 H 320.94 -2.27503 3.13562 0
M  V30 3282 H 321.354 -1.24504 5.09508 0
M  V30 3283 H 322.828 -2.90716 4.69242 0
M  V30 3284 H 323.305 -3.18913 3.01979 0
M  V30 3285 H 323.911 -1.7523 3.87523 0
M  V30 3286 N 322.226 -1.5378 -0.344866 0
M  V30 3287 C 323.454 -1.74899 -1.10534 0
M  V30 3288 C 323.869 -0.487534 -1.82397 0
M  V30 3289 O 323.226 0.540741 -1.74305 0
M  V30 3290 C 323.277 -2.92822 -2.11984 0
M  V30 3291 O 322.998 -4.14089 -1.43044 0
M  V30 3292 C 324.499 -3.25982 -3.00417 0
M  V30 3293 H 321.719 -0.584426 -0.329678 0
M  V30 3294 H 324.263 -2.006 -0.397474 0
M  V30 3295 H 322.418 -2.69457 -2.78338 0
M  V30 3296 H 322.832 -4.80272 -2.10805 0
M  V30 3297 H 324.306 -4.11848 -3.67539 0
M  V30 3298 H 324.783 -2.42228 -3.66363 0
M  V30 3299 H 325.389 -3.51349 -2.39654 0
M  V30 3300 N 323.704 0.605807 -1.45491 0
M  V30 3301 C 324.634 1.72709 -1.57143 0
M  V30 3302 C 325.615 1.6476 -0.422884 0
M  V30 3303 O 326.8 1.83132 -0.646247 0
M  V30 3304 C 323.93 3.11316 -1.53948 0
M  V30 3305 C 322.884 3.34077 -2.67537 0
M  V30 3306 C 322.21 4.72975 -2.49397 0
M  V30 3307 C 323.51 3.24158 -4.09535 0
M  V30 3308 H 325.204 1.63214 -2.51001 0
M  V30 3309 H 322.75 0.78379 -1.208 0
M  V30 3310 H 324.703 3.89557 -1.60696 0
M  V30 3311 H 323.427 3.21655 -0.566205 0
M  V30 3312 H 322.086 2.58227 -2.6022 0
M  V30 3313 H 321.734 4.8005 -1.50205 0
M  V30 3314 H 321.434 4.8916 -3.25571 0
M  V30 3315 H 322.958 5.53414 -2.58002 0
M  V30 3316 H 324.372 3.92271 -4.18086 0
M  V30 3317 H 322.769 3.51872 -4.86113 0
M  V30 3318 H 323.839 2.2157 -4.31317 0
M  V30 3319 N 325.182 1.32811 0.848464 0
M  V30 3320 C 326.092 1.24278 1.98978 0
M  V30 3321 C 327.108 0.155176 1.73307 0
M  V30 3322 O 328.284 0.376999 1.9784 0
M  V30 3323 C 325.349 0.972444 3.32783 0
M  V30 3324 C 324.41 2.14911 3.71634 0
M  V30 3325 C 323.643 1.89157 4.99054 0
M  V30 3326 O 323.866 0.837165 5.64223 0
M  V30 3327 O 322.8 2.75433 5.35183 0
M  V30 3328 H 326.626 2.20238 2.09115 0
M  V30 3329 H 324.211 1.12762 0.980052 0
M  V30 3330 H 326.093 0.838432 4.12975 0
M  V30 3331 H 324.768 0.043051 3.23671 0
M  V30 3332 H 323.675 2.33862 2.91992 0
M  V30 3333 H 325.008 3.06151 3.85399 0
M  V30 3334 N 326.66 -1.06551 1.16123 0
M  V30 3335 C 327.885 -1.83544 0.965735 0
M  V30 3336 C 328.31 -1.81843 -0.481102 0
M  V30 3337 O 327.668 -1.21732 -1.34354 0
M  V30 3338 C 327.716 -3.28169 1.49457 0
M  V30 3339 O 326.82 -4.0643 0.699157 0
M  V30 3340 H 326.161 -0.568026 0.343864 0
M  V30 3341 H 328.691 -1.34362 1.54299 0
M  V30 3342 H 328.701 -3.78992 1.51092 0
M  V30 3343 H 327.376 -3.28722 2.54784 0
M  V30 3344 H 325.953 -3.65216 0.7531 0
M  V30 3345 N 328.138 -0.959301 -1.25041 0
M  V30 3346 C 329.068 -0.501388 -2.28053 0
M  V30 3347 C 330.049 0.454673 -1.63911 0
M  V30 3348 O 331.234 0.352618 -1.90972 0
M  V30 3349 C 328.364 0.217224 -3.4662 0
M  V30 3350 C 327.318 -0.654034 -4.22973 0
M  V30 3351 C 326.644 0.195589 -5.34342 0
M  V30 3352 C 327.944 -1.93447 -4.85155 0
M  V30 3353 H 329.638 -1.36238 -2.66608 0
M  V30 3354 H 327.184 -0.656534 -1.28163 0
M  V30 3355 H 329.137 0.548732 -4.17812 0
M  V30 3356 H 327.861 1.1125 -3.07068 0
M  V30 3357 H 326.52 -0.968693 -3.5357 0
M  V30 3358 H 326.168 1.09076 -4.91031 0
M  V30 3359 H 325.868 -0.384091 -5.86343 0
M  V30 3360 H 327.392 0.521958 -6.08365 0
M  V30 3361 H 328.806 -1.66908 -5.48466 0
M  V30 3362 H 327.203 -2.46018 -5.47353 0
M  V30 3363 H 328.273 -2.63466 -4.07079 0
M  V30 3364 N 329.616 1.39756 -0.72842 0
M  V30 3365 C 330.579 2.29012 -0.0927297 0
M  V30 3366 C 331.579 1.45992 0.674025 0
M  V30 3367 O 332.769 1.66749 0.50402 0
M  V30 3368 C 329.901 3.29396 0.878137 0
M  V30 3369 H 331.094 2.86729 -0.879011 0
M  V30 3370 H 328.647 1.48293 -0.493847 0
M  V30 3371 H 329.382 2.76722 1.69101 0
M  V30 3372 H 329.167 3.907 0.331051 0
M  V30 3373 H 330.657 3.96199 1.3197 0
M  V30 3374 N 331.094 0.475555 1.50254 0
M  V30 3375 C 332.057 -0.305016 2.27161 0
M  V30 3376 C 333.057 -0.916519 1.32123 0
M  V30 3377 O 334.247 -0.785003 1.5551 0
M  V30 3378 C 331.379 -1.43496 3.09227 0
M  V30 3379 H 332.572 0.369511 2.97615 0
M  V30 3380 H 330.125 0.229747 1.54602 0
M  V30 3381 H 330.86 -2.14441 2.43281 0
M  V30 3382 H 330.645 -1.00223 3.79075 0
M  V30 3383 H 332.135 -1.98548 3.67381 0
M  V30 3384 N 332.573 -1.56217 0.208337 0
M  V30 3385 C 333.503 -2.22694 -0.702116 0
M  V30 3386 C 334.484 -1.19432 -1.2112 0
M  V30 3387 O 335.669 -1.47978 -1.25762 0
M  V30 3388 C 332.799 -2.8966 -1.9161 0
M  V30 3389 C 331.753 -3.9928 -1.5414 0
M  V30 3390 C 331.079 -4.53476 -2.83308 0
M  V30 3391 C 332.379 -5.17012 -0.741339 0
M  V30 3392 H 334.073 -2.99034 -0.147898 0
M  V30 3393 H 331.619 -1.43831 -0.0696951 0
M  V30 3394 H 333.572 -3.34852 -2.55836 0
M  V30 3395 H 332.296 -2.10746 -2.49507 0
M  V30 3396 H 330.955 -3.54799 -0.922668 0
M  V30 3397 H 330.603 -3.71308 -3.39322 0
M  V30 3398 H 330.303 -5.27451 -2.58976 0
M  V30 3399 H 331.827 -5.01378 -3.485 0
M  V30 3400 H 333.241 -5.58667 -1.28699 0
M  V30 3401 H 331.638 -5.97137 -0.595627 0
M  V30 3402 H 332.708 -4.8423 0.254851 0
M  V30 3403 N 334.051 0.0651679 -1.57465 0
M  V30 3404 C 334.998 1.07675 -2.04144 0
M  V30 3405 C 335.968 1.38071 -0.923335 0
M  V30 3406 O 337.153 1.49026 -1.19146 0
M  V30 3407 C 334.293 2.38337 -2.49579 0
M  V30 3408 C 333.406 2.14413 -3.75035 0
M  V30 3409 C 332.541 3.38686 -4.09225 0
M  V30 3410 C 331.58 3.10156 -5.27702 0
M  V30 3411 N 330.717 4.26778 -5.57499 0
M  V30 3412 H 335.557 0.671716 -2.90331 0
M  V30 3413 H 333.094 0.3201 -1.43575 0
M  V30 3414 H 335.052 3.14632 -2.73975 0
M  V30 3415 H 333.682 2.7663 -1.6636 0
M  V30 3416 H 332.734 1.2878 -3.57939 0
M  V30 3417 H 334.046 1.89344 -4.61466 0
M  V30 3418 H 333.2 4.23373 -4.34558 0
M  V30 3419 H 331.939 3.66837 -3.21374 0
M  V30 3420 H 330.944 2.23866 -5.02159 0
M  V30 3421 H 332.169 2.8332 -6.17176 0
M  V30 3422 H 330.115 4.54948 -4.72608 0
M  V30 3423 H 330.032 4.05005 -6.38362 0
M  V30 3424 H 331.3 5.12443 -5.87386 0
M  V30 3425 N 335.529 1.53961 0.336706 0
M  V30 3426 C 336.94 1.62914 0.911925 0
M  V30 3427 C 337.291 0.514795 1.89326 0
M  V30 3428 O 336.416 -0.354395 2.13478 0
M  V30 3429 C 337.011 2.95304 1.66076 0
M  V30 3430 C 335.57 3.06496 2.18489 0
M  V30 3431 C 334.717 2.58403 1.00613 0
M  V30 3432 H 337.668 1.58285 0.114649 0
M  V30 3433 H 337.689 2.84727 2.5241 0
M  V30 3434 H 337.201 3.76387 0.946276 0
M  V30 3435 H 335.302 2.3006 2.93092 0
M  V30 3436 H 335.415 4.1208 2.44391 0
M  V30 3437 H 333.779 2.13977 1.38152 0
M  V30 3438 H 334.562 3.41932 0.306179 0
M  V30 3439 N 337.007 -0.598083 1.45811 0
M  V30 3440 C 337.97 -1.69018 1.54808 0
M  V30 3441 C 338.97 -1.55037 0.426652 0
M  V30 3442 O 340.16 -1.59932 0.690456 0
M  V30 3443 C 337.292 -3.0835 1.45371 0
M  V30 3444 H 338.485 -1.62403 2.52121 0
M  V30 3445 H 336.038 -0.814626 1.33392 0
M  V30 3446 H 336.773 -3.20534 0.492793 0
M  V30 3447 H 336.558 -3.19907 2.26721 0
M  V30 3448 H 338.048 -3.8788 1.54721 0
M  V30 3449 N 338.485 -1.33259 -0.841409 0
M  V30 3450 C 339.732 -1.24572 -1.5965 0
M  V30 3451 C 340.06 0.189137 -1.93578 0
M  V30 3452 O 339.315 1.14566 -1.5866 0
M  V30 3453 C 339.614 -2.06381 -2.9179 0
M  V30 3454 C 339.28 -3.556 -2.77235 0
M  V30 3455 C 337.942 -3.96282 -2.72973 0
M  V30 3456 C 340.294 -4.50433 -2.62221 0
M  V30 3457 C 337.622 -5.30017 -2.51592 0
M  V30 3458 C 339.974 -5.84327 -2.42374 0
M  V30 3459 C 338.638 -6.24194 -2.36512 0
M  V30 3460 H 337.908 -0.455842 -0.5842 0
M  V30 3461 H 340.555 -1.6482 -0.975016 0
M  V30 3462 H 338.86 -1.58903 -3.5813 0
M  V30 3463 H 340.557 -1.97019 -3.49263 0
M  V30 3464 H 337.147 -3.23298 -2.81384 0
M  V30 3465 H 341.331 -4.19914 -2.64549 0
M  V30 3466 H 336.587 -5.59947 -2.45499 0
M  V30 3467 H 340.761 -6.57414 -2.29739 0
M  V30 3468 H 338.388 -7.27759 -2.19706 0
M  V30 3469 N 339.963 1.05934 -1.16686 0
M  V30 3470 C 340.911 2.15603 -0.872817 0
M  V30 3471 C 341.905 1.68647 0.159576 0
M  V30 3472 O 343.111 1.79995 0.0132125 0
M  V30 3473 H 339.486 0.703885 -0.264671 0
M  V30 3474 H 341.457 2.37613 -1.80507 0
M  V30 3475 C 340.206 3.45457 -0.394344 0
M  V30 3476 H 339.529 3.81984 -1.18019 0
M  V30 3477 H 340.969 4.2339 -0.227408 0
M  V30 3478 C 339.428 3.25021 0.88673 0
M  V30 3479 O 339.958 3.50906 1.95519 0
M  V30 3480 N 338.164 2.78437 0.831925 0
M  V30 3481 H 337.711 2.57572 -0.0377619 0
M  V30 3482 H 337.669 2.65144 1.68956 0
M  V30 3483 N 341.441 0.965919 1.2453 0
M  V30 3484 C 342.852 0.665929 1.7442 0
M  V30 3485 C 343.203 -0.818407 1.78316 0
M  V30 3486 O 342.328 -1.64037 1.41141 0
M  V30 3487 C 342.923 1.20211 3.16757 0
M  V30 3488 C 341.482 0.952059 3.6416 0
M  V30 3489 C 340.629 1.33848 2.42858 0
M  V30 3490 H 343.58 1.14144 1.10258 0
M  V30 3491 H 343.601 0.567544 3.76244 0
M  V30 3492 H 343.113 2.28244 3.13889 0
M  V30 3493 H 341.214 -0.112821 3.72429 0
M  V30 3494 H 341.327 1.59645 4.51719 0
M  V30 3495 H 339.691 0.756864 2.43195 0
M  V30 3496 H 340.474 2.42827 2.42673 0
M  V30 3497 N 342.919 -1.39368 0.735821 0
M  V30 3498 C 343.866 -2.30599 0.0963825 0
M  V30 3499 C 344.836 -1.49257 -0.728794 0
M  V30 3500 O 346.021 -1.77941 -0.688588 0
M  V30 3501 C 343.161 -3.35596 -0.804305 0
M  V30 3502 C 342.274 -4.31987 0.0335761 0
M  V30 3503 C 341.409 -5.24053 -0.868461 0
M  V30 3504 C 340.448 -6.12095 -0.0258776 0
M  V30 3505 N 339.585 -6.96514 -0.883893 0
M  V30 3506 H 344.425 -2.8471 0.880002 0
M  V30 3507 H 341.962 -1.40188 0.445619 0
M  V30 3508 H 343.92 -3.95062 -1.34096 0
M  V30 3509 H 342.55 -2.82938 -1.55389 0
M  V30 3510 H 341.602 -3.74133 0.68766 0
M  V30 3511 H 342.914 -4.94074 0.685036 0
M  V30 3512 H 342.068 -5.88549 -1.47293 0
M  V30 3513 H 340.807 -4.62289 -1.5537 0
M  V30 3514 H 339.812 -5.4661 0.591386 0
M  V30 3515 H 341.037 -6.75923 0.656156 0
M  V30 3516 H 338.983 -6.37318 -1.55441 0
M  V30 3517 H 338.9 -7.55448 -0.288931 0
M  V30 3518 H 340.168 -7.65439 -1.4739 0
M  V30 3519 N 344.397 -0.483516 -1.5 0
M  V30 3520 C 345.645 0.067027 -2.01989 0
M  V30 3521 C 345.966 1.3909 -1.36671 0
M  V30 3522 O 345.236 1.88978 -0.516152 0
M  V30 3523 H 343.816 0.0277606 -0.746484 0
M  V30 3524 H 346.478 -0.636773 -1.84204 0
M  V30 3525 H 345.574 0.209484 -3.11396 0
M  V30 3526 N 345.875 1.56104 -0.216619 0
M  V30 3527 C 347.123 1.97781 0.415593 0
M  V30 3528 C 347.444 1.10536 1.60645 0
M  V30 3529 O 346.714 0.181303 1.95059 0
M  V30 3530 H 345.294 0.730415 0.156534 0
M  V30 3531 H 347.956 1.92445 -0.308366 0
M  V30 3532 H 347.052 3.03072 0.74525 0
M  V30 3533 N 347.353 -0.0568162 1.57498 0
M  V30 3534 C 348.581 -0.765626 1.92213 0
M  V30 3535 C 348.996 -1.70353 0.813961 0
M  V30 3536 O 348.353 -1.81268 -0.211701 0
M  V30 3537 C 348.404 -1.5465 3.2675 0
M  V30 3538 O 348.125 -0.646278 4.33307 0
M  V30 3539 C 349.626 -2.35497 3.75574 0
M  V30 3540 H 346.846 -0.216835 0.634999 0
M  V30 3541 H 349.39 -0.0226146 2.04487 0
M  V30 3542 H 347.545 -2.24165 3.15957 0
M  V30 3543 H 347.959 -1.19093 5.108 0
M  V30 3544 H 349.433 -2.85722 4.72299 0
M  V30 3545 H 349.91 -3.15692 3.05344 0
M  V30 3546 H 350.516 -1.7111 3.8936 0
M  V30 3547 N 348.832 -1.54138 -0.328536 0
M  V30 3548 C 350.078 -1.7236 -1.06865 0
M  V30 3549 C 350.411 -0.493231 -1.87832 0
M  V30 3550 O 349.686 0.5098 -1.877 0
M  V30 3551 C 349.969 -2.99621 -1.99747 0
M  V30 3552 C 349.822 -4.32899 -1.22143 0
M  V30 3553 C 351.141 -3.22615 -2.99345 0
M  V30 3554 H 348.26 -0.627151 -0.387105 0
M  V30 3555 H 350.902 -1.86827 -0.345767 0
M  V30 3556 H 349.052 -2.87418 -2.61387 0
M  V30 3557 H 350.724 -4.56978 -0.630017 0
M  V30 3558 H 348.967 -4.30628 -0.523628 0
M  V30 3559 H 349.638 -5.18154 -1.90318 0
M  V30 3560 H 352.114 -3.34248 -2.47826 0
M  V30 3561 H 350.99 -4.13027 -3.61524 0
M  V30 3562 H 351.251 -2.3961 -3.71536 0
M  V30 3563 N 350.31 0.590341 -1.46126 0
M  V30 3564 C 351.538 1.37504 -1.54597 0
M  V30 3565 C 351.953 1.87897 -0.184447 0
M  V30 3566 O 351.31 1.63192 0.816984 0
M  V30 3567 C 351.361 2.56779 -2.54454 0
M  V30 3568 O 351.082 2.08476 -3.85317 0
M  V30 3569 C 352.583 3.49427 -2.72792 0
M  V30 3570 H 349.803 0.420325 -0.523037 0
M  V30 3571 H 352.347 0.718383 -1.91467 0
M  V30 3572 H 350.502 3.1845 -2.20609 0
M  V30 3573 H 350.916 2.86097 -4.396 0
M  V30 3574 H 352.39 4.29619 -3.466 0
M  V30 3575 H 352.867 4.00876 -1.79429 0
M  V30 3576 H 353.473 2.93598 -3.07702 0
M  V30 3577 N 351.788 1.33704 0.83433 0
M  V30 3578 C 352.751 1.24244 1.92603 0
M  V30 3579 C 353.751 0.160383 1.59998 0
M  V30 3580 O 354.941 0.412228 1.69252 0
M  V30 3581 C 352.073 0.91555 3.28376 0
M  V30 3582 H 353.266 2.21287 2.02416 0
M  V30 3583 H 350.819 1.17827 1.02696 0
M  V30 3584 H 351.554 -0.0521886 3.24258 0
M  V30 3585 H 351.339 1.69811 3.53422 0
M  V30 3586 H 352.829 0.874231 4.08347 0
M  V30 3587 N 353.266 -1.05314 1.17247 0
M  V30 3588 C 354.514 -1.77941 0.958194 0
M  V30 3589 C 354.835 -1.88089 -0.514556 0
M  V30 3590 O 354.105 -1.39676 -1.37359 0
M  V30 3591 H 352.685 -0.659116 0.351533 0
M  V30 3592 H 355.347 -1.27166 1.47699 0
M  V30 3593 H 354.443 -2.79663 1.38546 0
M  V30 3594 N 354.744 -0.972509 -1.24016 0
M  V30 3595 C 355.972 -0.654803 -1.96265 0
M  V30 3596 C 356.387 0.776708 -1.72083 0
M  V30 3597 O 355.744 1.52171 -1.00748 0
M  V30 3598 C 355.795 -0.92592 -3.49441 0
M  V30 3599 O 355.516 -2.30116 -3.72798 0
M  V30 3600 C 357.017 -0.623068 -4.38899 0
M  V30 3601 H 354.237 -0.243907 -0.6251 0
M  V30 3602 H 356.781 -1.30175 -1.57717 0
M  V30 3603 H 354.936 -0.325108 -3.86033 0
M  V30 3604 H 355.35 -2.38483 -4.67147 0
M  V30 3605 H 356.824 -0.863189 -5.45209 0
M  V30 3606 H 357.301 0.442754 -4.36963 0
M  V30 3607 H 357.907 -1.204 -4.07902 0
M  V30 3608 N 356.222 1.38976 -0.743202 0
M  V30 3609 C 357.447 2.05161 -0.303936 0
M  V30 3610 C 357.872 1.55677 1.05576 0
M  V30 3611 O 357.23 0.704131 1.67068 0
M  V30 3612 C 357.278 3.59138 -0.324373 0
M  V30 3613 O 356.382 4.06668 0.685204 0
M  V30 3614 H 355.723 0.649815 -0.136518 0
M  V30 3615 H 358.253 1.77852 -1.01142 0
M  V30 3616 H 358.263 4.07639 -0.171618 0
M  V30 3617 H 356.938 3.94515 -1.31647 0
M  V30 3618 H 355.515 3.69561 0.497913 0
M  V30 3619 N 357.7 0.491464 1.49741 0
M  V30 3620 C 358.925 -0.0557177 2.07325 0
M  V30 3621 C 359.35 -1.30925 1.35056 0
M  V30 3622 O 358.708 -1.76733 0.404365 0
M  V30 3623 C 358.756 -0.302074 3.59333 0
M  V30 3624 O 357.86 -1.37868 3.88672 0
M  V30 3625 H 357.201 0.0219956 0.663636 0
M  V30 3626 H 359.731 0.688352 1.92673 0
M  V30 3627 H 359.741 -0.536464 4.04458 0
M  V30 3628 H 358.416 0.61383 4.11345 0
M  V30 3629 H 356.993 -1.12999 3.55367 0
M  V30 3630 N 359.178 -1.55987 0.224894 0
M  V30 3631 C 360.11 -2.17722 -0.716224 0
M  V30 3632 C 361.123 -1.14723 -1.15509 0
M  V30 3633 O 362.312 -1.41688 -1.08567 0
M  V30 3634 C 359.412 -2.74873 -1.98238 0
M  V30 3635 C 358.585 -4.03074 -1.69853 0
M  V30 3636 C 357.644 -4.44757 -2.81208 0
M  V30 3637 O 356.67 -5.11587 -2.49534 0
M  V30 3638 N 357.872 -4.10716 -4.10235 0
M  V30 3639 H 360.637 -2.99109 -0.188123 0
M  V30 3640 H 358.198 -1.6184 0.0440123 0
M  V30 3641 H 360.19 -2.99727 -2.7193 0
M  V30 3642 H 358.76 -1.9777 -2.42086 0
M  V30 3643 H 357.98 -3.86041 -0.797875 0
M  V30 3644 H 359.268 -4.86701 -1.48324 0
M  V30 3645 H 358.666 -3.57019 -4.38809 0
M  V30 3646 H 357.223 -4.40455 -4.80461 0
M  V30 3647 N 360.656 0.0484629 -1.57525 0
M  V30 3648 C 361.905 0.742065 -1.87553 0
M  V30 3649 C 362.218 1.77545 -0.820802 0
M  V30 3650 O 363.424 2.52027 -1.00967 0
M  V30 3651 C 361.88 1.37081 -3.32771 0
M  V30 3652 C 361.488 0.374786 -4.4643 0
M  V30 3653 C 363.232 2.04542 -3.71972 0
M  V30 3654 C 361.139 1.01077 -5.82698 0
M  V30 3655 H 360.069 0.280903 -0.699721 0
M  V30 3656 H 362.72 -0.00411877 -1.835 0
M  V30 3657 H 361.102 2.16605 -3.31509 0
M  V30 3658 H 362.276 -0.392331 -4.59127 0
M  V30 3659 H 360.591 -0.196653 -4.15935 0
M  V30 3660 H 363.188 2.52943 -4.71088 0
M  V30 3661 H 363.531 2.85515 -3.02964 0
M  V30 3662 H 364.064 1.31819 -3.75325 0
M  V30 3663 H 360.803 0.240878 -6.55057 0
M  V30 3664 H 360.323 1.74819 -5.73758 0
M  V30 3665 H 362.002 1.52383 -6.28799 0
M  V30 3666 N 362.134 1.5431 0.320358 0
M  V30 3667 C 363.362 1.76636 1.07738 0
M  V30 3668 C 363.777 0.51649 1.81598 0
M  V30 3669 O 363.134 -0.512942 1.75143 0
M  V30 3670 C 363.185 2.96158 2.07299 0
M  V30 3671 O 362.906 4.16313 1.36438 0
M  V30 3672 C 364.407 3.3072 2.95193 0
M  V30 3673 H 361.627 0.589597 0.320339 0
M  V30 3674 H 364.171 2.01207 0.36551 0
M  V30 3675 H 362.326 2.73851 2.74016 0
M  V30 3676 H 362.74 4.83565 2.03138 0
M  V30 3677 H 364.214 4.17643 3.60941 0
M  V30 3678 H 364.691 2.48026 3.62463 0
M  V30 3679 H 365.297 3.55117 2.34034 0
M  V30 3680 N 363.613 -0.582584 1.46437 0
M  V30 3681 C 364.89 -1.34276 1.4223 0
M  V30 3682 C 365.27 -2.10835 0.10583 0
M  V30 3683 O 364.618 -2.09485 -0.912596 0
M  V30 3684 C 364.828 -2.26865 2.65204 0
M  V30 3685 C 366.176 -2.88691 3.11356 0
M  V30 3686 O 367.2 -2.37178 2.65753 0
M  V30 3687 O 366.059 -3.82255 3.90568 0
M  V30 3688 H 363.153 -0.603326 0.565621 0
M  V30 3689 H 365.699 -0.603591 1.58603 0
M  V30 3690 H 364.471 -1.69724 3.52576 0
M  V30 3691 H 364.094 -3.08122 2.5129 0
M  V30 3692 N 365.091 -1.34144 -0.827227 0
M  V30 3693 C 366.339 -1.26009 -1.58007 0
M  V30 3694 C 366.66 0.170971 -1.94249 0
M  V30 3695 O 365.93 1.10256 -1.61927 0
M  V30 3696 H 364.51 -0.463414 -0.585881 0
M  V30 3697 H 367.172 -1.68005 -0.987951 0
M  V30 3698 H 366.268 -1.86187 -2.50481 0
M  V30 3699 N 366.569 1.04691 -1.17803 0
M  V30 3700 C 367.532 2.10724 -0.901545 0
M  V30 3701 C 368.532 1.6042 0.110437 0
M  V30 3702 O 369.722 1.7377 -0.122303 0
M  V30 3703 C 366.854 3.39084 -0.351409 0
M  V30 3704 H 368.047 2.36686 -1.84174 0
M  V30 3705 H 365.6 1.21015 -0.98919 0
M  V30 3706 H 366.335 3.18782 0.59569 0
M  V30 3707 H 366.12 3.76909 -1.08083 0
M  V30 3708 H 367.61 4.17227 -0.176451 0
M  V30 3709 N 368.047 0.979072 1.23499 0
M  V30 3710 C 369.272 0.664845 1.96455 0
M  V30 3711 C 369.697 -0.761287 1.72006 0
M  V30 3712 O 369.055 -1.51837 0.990713 0
M  V30 3713 C 369.103 0.959479 3.47601 0
M  V30 3714 O 368.207 0.0508168 4.12369 0
M  V30 3715 H 367.548 0.250185 0.615064 0
M  V30 3716 H 370.078 1.31231 1.5697 0
M  V30 3717 H 370.088 0.895642 3.98048 0
M  V30 3718 H 368.763 1.99876 3.64723 0
M  V30 3719 H 367.34 0.16895 3.72517 0
M  V30 3720 N 369.525 -1.3858 0.750561 0
M  V30 3721 C 370.765 -2.02032 0.310258 0
M  V30 3722 C 371.129 -1.58288 -1.08668 0
M  V30 3723 O 372.33 -2.14049 -1.62593 0
M  V30 3724 C 370.601 -3.54856 0.425647 0
M  V30 3725 S 372.16 -4.38748 0.0674797 0
M  V30 3726 H 368.978 -0.700705 0.120554 0
M  V30 3727 H 371.58 -1.69134 0.980512 0
M  V30 3728 H 370.284 -3.84182 1.44335 0
M  V30 3729 H 369.815 -3.92527 -0.261894 0
M  V30 3730 H 371.83 -4.82835 -1.14388 0
M  V30 3731 N 371.003 -0.499398 -1.49478 0
M  V30 3732 C 371.936 0.326491 -2.25852 0
M  V30 3733 C 372.914 0.971776 -1.30366 0
M  V30 3734 O 374.098 1.00219 -1.59651 0
M  V30 3735 C 371.225 1.45969 -3.05632 0
M  V30 3736 C 370.271 0.928938 -4.16261 0
M  V30 3737 S 371.104 -0.179012 -5.35201 0
M  V30 3738 C 372.26 0.957389 -6.18534 0
M  V30 3739 H 372.493 -0.321746 -2.95554 0
M  V30 3740 H 370.026 -0.284674 -1.51753 0
M  V30 3741 H 371.984 2.109 -3.52181 0
M  V30 3742 H 370.645 2.07953 -2.35402 0
M  V30 3743 H 369.838 1.77813 -4.71592 0
M  V30 3744 H 369.44 0.356869 -3.72293 0
M  V30 3745 H 371.732 1.86296 -6.51383 0
M  V30 3746 H 372.675 0.442733 -7.06715 0
M  V30 3747 H 373.083 1.224 -5.5107 0
M  V30 3748 N 372.481 1.55866 -0.233164 0
M  V30 3749 C 373.73 1.97779 0.39579 0
M  V30 3750 C 374.043 1.12419 1.60066 0
M  V30 3751 O 375.249 1.44283 2.29988 0
M  V30 3752 C 373.705 3.5188 0.755556 0
M  V30 3753 C 373.313 4.45959 -0.427152 0
M  V30 3754 C 375.057 4.02479 1.34946 0
M  V30 3755 C 372.964 5.91383 -0.0443043 0
M  V30 3756 H 371.894 0.738592 0.15165 0
M  V30 3757 H 374.545 1.80486 -0.331212 0
M  V30 3758 H 372.927 3.64816 1.5403 0
M  V30 3759 H 374.101 4.44776 -1.20462 0
M  V30 3760 H 372.416 4.05765 -0.935068 0
M  V30 3761 H 375.013 5.08637 1.649 0
M  V30 3762 H 375.356 3.49014 2.26925 0
M  V30 3763 H 375.889 3.92813 0.62791 0
M  V30 3764 H 372.628 6.48857 -0.930874 0
M  V30 3765 H 372.148 5.95734 0.697238 0
M  V30 3766 H 373.827 6.45893 0.378334 0
M  V30 3767 N 373.959 -0.0401083 1.57549 0
M  V30 3768 C 375.205 -0.734211 1.89043 0
M  V30 3769 C 375.538 -1.75591 0.829535 0
M  V30 3770 O 374.813 -1.93868 -0.156706 0
M  V30 3771 C 375.096 -1.41374 3.31188 0
M  V30 3772 C 374.949 -0.406299 4.47961 0
M  V30 3773 C 376.268 -2.35061 3.72068 0
M  V30 3774 H 373.387 -0.265447 0.687537 0
M  V30 3775 H 376.029 0.00294087 1.9 0
M  V30 3776 H 374.179 -2.04206 3.30503 0
M  V30 3777 H 375.851 0.219255 4.60779 0
M  V30 3778 H 374.094 0.275485 4.32924 0
M  V30 3779 H 374.765 -0.920022 5.44279 0
M  V30 3780 H 377.241 -1.82282 3.74049 0
M  V30 3781 H 376.117 -2.79593 4.72355 0
M  V30 3782 H 376.378 -3.21258 3.0372 0
M  V30 3783 N 375.437 -1.54477 -0.31217 0
M  V30 3784 C 376.37 -1.79519 -1.40884 0
M  V30 3785 C 377.348 -0.645753 -1.49227 0
M  V30 3786 O 378.532 -0.884468 -1.66461 0
M  V30 3787 C 375.659 -1.92194 -2.78889 0
M  V30 3788 C 374.705 -3.14555 -2.88023 0
M  V30 3789 S 375.538 -4.72893 -2.51262 0
M  V30 3790 C 376.694 -4.8849 -3.91317 0
M  V30 3791 H 376.927 -2.72256 -1.19432 0
M  V30 3792 H 374.46 -1.45746 -0.509654 0
M  V30 3793 H 376.418 -2.00182 -3.58382 0
M  V30 3794 H 375.079 -1.00414 -2.97617 0
M  V30 3795 H 374.272 -3.20193 -3.89221 0
M  V30 3796 H 373.874 -3.04955 -2.16514 0
M  V30 3797 H 376.166 -4.71826 -4.86196 0
M  V30 3798 H 377.109 -5.90588 -3.90656 0
M  V30 3799 H 377.517 -4.16715 -3.80801 0
M  V30 3800 N 376.915 0.57481 -1.46744 0
M  V30 3801 C 378.14 1.36341 -1.56288 0
M  V30 3802 C 378.565 1.86954 -0.207347 0
M  V30 3803 O 377.923 1.62006 0.813871 0
M  V30 3804 C 377.971 2.52147 -2.57787 0
M  V30 3805 O 377.075 3.53834 -2.11838 0
M  V30 3806 H 376.416 0.405713 -0.525636 0
M  V30 3807 H 378.946 0.696453 -1.92382 0
M  V30 3808 H 378.956 2.98958 -2.77648 0
M  V30 3809 H 377.631 2.14663 -3.5622 0
M  V30 3810 H 376.208 3.1345 -2.01999 0
M  V30 3811 N 378.394 1.34581 0.820102 0
M  V30 3812 C 379.357 1.2628 1.91275 0
M  V30 3813 C 380.357 0.177344 1.59819 0
M  V30 3814 O 381.547 0.430156 1.68806 0
M  V30 3815 C 378.679 0.950327 3.27386 0
M  V30 3816 H 379.872 2.23421 2.00057 0
M  V30 3817 H 377.425 1.1891 1.0144 0
M  V30 3818 H 378.16 -0.0177938 3.24295 0
M  V30 3819 H 377.945 1.73549 3.51601 0
M  V30 3820 H 379.435 0.917492 4.07396 0
M  V30 3821 N 379.872 -1.04064 1.18357 0
M  V30 3822 C 380.804 -2.12114 0.868358 0
M  V30 3823 C 381.817 -1.62247 -0.134045 0
M  V30 3824 O 383.006 -1.78253 0.0937933 0
M  V30 3825 C 380.106 -3.37773 0.276132 0
M  V30 3826 C 379.279 -4.16874 1.3242 0
M  V30 3827 C 378.338 -5.20861 0.747662 0
M  V30 3828 O 377.364 -5.51141 1.42239 0
M  V30 3829 N 378.566 -5.78715 -0.454823 0
M  V30 3830 H 381.331 -2.39748 1.79836 0
M  V30 3831 H 378.892 -1.20258 1.08396 0
M  V30 3832 H 380.884 -4.04513 -0.123133 0
M  V30 3833 H 379.454 -3.07581 -0.557895 0
M  V30 3834 H 378.674 -3.45456 1.89878 0
M  V30 3835 H 379.962 -4.66516 2.03078 0
M  V30 3836 H 379.36 -5.56415 -1.02073 0
M  V30 3837 H 377.917 -6.46921 -0.79601 0
M  V30 3838 N 381.35 -0.985608 -1.22978 0
M  V30 3839 C 382.766 -0.695104 -1.43668 0
M  V30 3840 C 382.966 0.736866 -1.87543 0
M  V30 3841 O 382.022 1.50868 -2.02473 0
M  V30 3842 C 383.335 -1.69447 -2.48412 0
M  V30 3843 C 384.883 -1.70909 -2.62219 0
M  V30 3844 C 385.358 -2.6969 -3.70178 0
M  V30 3845 N 386.849 -2.6824 -3.77626 0
M  V30 3846 C 387.584 -3.41339 -4.60733 0
M  V30 3847 N 387.08 -4.24015 -5.4789 0
M  V30 3848 N 388.873 -3.30079 -4.54977 0
M  V30 3849 H 381.024 -1.91054 -0.928016 0
M  V30 3850 H 383.287 -0.823553 -0.469536 0
M  V30 3851 H 382.993 -2.7188 -2.23102 0
M  V30 3852 H 382.867 -1.48147 -3.46889 0
M  V30 3853 H 385.254 -0.691785 -2.86877 0
M  V30 3854 H 385.335 -1.96276 -1.6404 0
M  V30 3855 H 384.979 -3.71566 -3.46268 0
M  V30 3856 H 384.909 -2.41595 -4.67909 0
M  V30 3857 H 387.4 -2.08243 -3.15346 0
M  V30 3858 H 387.713 -4.76636 -6.08308 0
M  V30 3859 H 386.058 -4.28104 -5.47496 0
M  V30 3860 H 389.249 -2.64937 -3.85909 0
M  V30 3861 H 389.422 -3.87308 -5.19516 0
M  V30 3862 N 382.828 1.3818 -0.7579 0
M  V30 3863 C 383.791 2.28764 -0.141286 0
M  V30 3864 C 384.791 1.47388 0.642907 0
M  V30 3865 O 385.981 1.67781 0.468536 0
M  V30 3866 C 383.113 3.31184 0.808069 0
M  V30 3867 H 384.306 2.848 -0.939633 0
M  V30 3868 H 381.859 1.47212 -0.525191 0
M  V30 3869 H 382.594 2.80247 1.63193 0
M  V30 3870 H 382.379 3.91314 0.248104 0
M  V30 3871 H 383.869 3.98909 1.23536 0
M  V30 3872 N 384.306 0.507319 1.49211 0
M  V30 3873 C 385.253 -0.267728 2.29242 0
M  V30 3874 C 386.223 -0.954609 1.35928 0
M  V30 3875 O 387.408 -0.960046 1.64887 0
M  V30 3876 C 384.548 -1.32243 3.18756 0
M  V30 3877 C 383.661 -0.64669 4.27132 0
M  V30 3878 C 382.796 -1.68238 5.03855 0
M  V30 3879 C 381.835 -0.98885 6.0406 0
M  V30 3880 N 380.972 -1.96903 6.73924 0
M  V30 3881 H 385.812 0.420968 2.95012 0
M  V30 3882 H 383.349 0.219443 1.45454 0
M  V30 3883 H 385.307 -1.94599 3.69036 0
M  V30 3884 H 383.937 -1.97981 2.54958 0
M  V30 3885 H 382.989 0.0902926 3.80293 0
M  V30 3886 H 384.301 -0.101058 4.98698 0
M  V30 3887 H 383.455 -2.38081 5.58034 0
M  V30 3888 H 382.194 -2.26187 4.32077 0
M  V30 3889 H 381.199 -0.276222 5.49106 0
M  V30 3890 H 382.424 -0.415767 6.77826 0
M  V30 3891 H 380.37 -2.53803 6.04913 0
M  V30 3892 H 380.287 -1.47423 7.41487 0
M  V30 3893 H 381.555 -2.66015 7.32705 0
M  V30 3894 N 385.784 -1.5574 0.241426 0
M  V30 3895 C 387.061 -1.90704 -0.434881 0
M  V30 3896 C 387.441 -1.16145 -1.76277 0
M  V30 3897 O 386.789 -0.277152 -2.26813 0
M  V30 3898 C 386.999 -3.43657 -0.608343 0
M  V30 3899 C 388.347 -4.14806 -0.906725 0
M  V30 3900 O 389.371 -3.49366 -0.694408 0
M  V30 3901 O 388.23 -5.30548 -1.31075 0
M  V30 3902 H 385.324 -0.793592 -0.23268 0
M  V30 3903 H 387.87 -1.67288 0.285086 0
M  V30 3904 H 386.642 -3.89927 0.327505 0
M  V30 3905 H 386.265 -3.72918 -1.37906 0
M  V30 3906 N 387.262 0.0317525 -1.57568 0
M  V30 3907 C 388.192 1.03274 -2.0942 0
M  V30 3908 C 389.173 1.3788 -0.996143 0
M  V30 3909 O 390.358 1.46811 -1.27122 0
M  V30 3910 C 387.488 2.33448 -2.57137 0
M  V30 3911 C 386.442 2.13091 -3.71182 0
M  V30 3912 C 385.768 3.49001 -4.05095 0
M  V30 3913 C 387.068 1.51928 -4.99715 0
M  V30 3914 H 388.762 0.60112 -2.93303 0
M  V30 3915 H 386.308 0.287705 -1.41097 0
M  V30 3916 H 388.261 3.03802 -2.92032 0
M  V30 3917 H 386.985 2.78665 -1.70333 0
M  V30 3918 H 385.644 1.45171 -3.36632 0
M  V30 3919 H 385.292 3.91862 -3.15362 0
M  V30 3920 H 384.992 3.36207 -4.81911 0
M  V30 3921 H 386.516 4.20721 -4.42522 0
M  V30 3922 H 387.93 2.12196 -5.32584 0
M  V30 3923 H 386.327 1.49716 -5.81124 0
M  V30 3924 H 387.397 0.484811 -4.8247 0
M  V30 3925 N 388.74 1.54641 0.303973 0
M  V30 3926 C 389.988 1.73437 1.0375 0
M  V30 3927 C 390.309 0.521449 1.87899 0
M  V30 3928 O 389.579 -0.46432 1.90318 0
M  V30 3929 H 388.159 0.639518 0.386039 0
M  V30 3930 H 390.821 1.91988 0.335675 0
M  V30 3931 H 389.917 2.62235 1.69231 0
M  V30 3932 N 390.218 -0.567019 1.47046 0
M  V30 3933 C 391.148 -1.68482 1.61667 0
M  V30 3934 C 392.129 -1.6358 0.466418 0
M  V30 3935 O 393.314 -1.81354 0.694574 0
M  V30 3936 C 390.444 -3.07124 1.62148 0
M  V30 3937 C 389.398 -3.26867 2.76301 0
M  V30 3938 C 388.724 -4.66196 2.61849 0
M  V30 3939 C 390.024 -3.13186 4.17986 0
M  V30 3940 H 391.718 -1.56502 2.5524 0
M  V30 3941 H 389.264 -0.751486 1.22836 0
M  V30 3942 H 391.217 -3.8516 1.70968 0
M  V30 3943 H 389.941 -3.2004 0.651287 0
M  V30 3944 H 388.6 -2.51237 2.66975 0
M  V30 3945 H 388.248 -4.75898 1.62879 0
M  V30 3946 H 387.948 -4.80356 3.38425 0
M  V30 3947 H 389.472 -5.46379 2.72584 0
M  V30 3948 H 390.886 -3.81049 4.2834 0
M  V30 3949 H 389.283 -3.3886 4.95272 0
M  V30 3950 H 390.353 -2.10057 4.3704 0
M  V30 3951 N 391.696 -1.35014 -0.812953 0
M  V30 3952 C 392.606 -1.2951 -1.95613 0
M  V30 3953 C 393.622 -0.20107 -1.72834 0
M  V30 3954 O 394.798 -0.42932 -1.96771 0
M  V30 3955 C 391.863 -1.06033 -3.30088 0
M  V30 3956 C 390.924 -2.24688 -3.65805 0
M  V30 3957 C 390.157 -2.02322 -4.93864 0
M  V30 3958 O 390.38 -0.986464 -5.61805 0
M  V30 3959 O 389.314 -2.89525 -5.27692 0
M  V30 3960 H 393.14 -2.25705 -2.03202 0
M  V30 3961 H 390.725 -1.15321 -0.949811 0
M  V30 3962 H 392.607 -0.94763 -4.10607 0
M  V30 3963 H 391.282 -0.128852 -3.23443 0
M  V30 3964 H 390.189 -2.41521 -2.85689 0
M  V30 3965 H 391.522 -3.16261 -3.77147 0
M  V30 3966 N 393.175 1.03435 -1.18907 0
M  V30 3967 C 394.586 1.58195 -0.991523 0
M  V30 3968 C 394.937 1.90801 0.457081 0
M  V30 3969 O 394.062 1.70272 1.33553 0
M  V30 3970 C 394.657 2.87432 -1.79355 0
M  V30 3971 C 393.216 3.38785 -1.64017 0
M  V30 3972 C 392.363 2.12292 -1.78402 0
M  V30 3973 H 395.314 0.860299 -1.33359 0
M  V30 3974 H 395.335 3.58096 -1.28638 0
M  V30 3975 H 394.847 2.63669 -2.84781 0
M  V30 3976 H 392.948 3.67547 -0.611536 0
M  V30 3977 H 393.061 4.12186 -2.44212 0
M  V30 3978 H 391.425 2.23901 -1.2141 0
M  V30 3979 H 392.208 1.90977 -2.85277 0
M  V30 3980 N 394.653 0.992116 1.22453 0
M  V30 3981 C 395.583 0.561677 2.26644 0
M  V30 3982 C 396.564 -0.411055 1.65059 0
M  V30 3983 O 397.749 -0.301861 1.9184 0
M  V30 3984 C 394.879 -0.125247 3.47074 0
M  V30 3985 C 393.833 0.765948 4.21091 0
M  V30 3986 C 393.159 -0.0538484 5.34673 0
M  V30 3987 C 394.459 2.06242 4.79856 0
M  V30 3988 H 396.153 1.43259 2.62902 0
M  V30 3989 H 393.699 0.690283 1.26377 0
M  V30 3990 H 395.652 -0.437764 4.1912 0
M  V30 3991 H 394.376 -1.03069 3.0991 0
M  V30 3992 H 393.035 1.0621 3.50878 0
M  V30 3993 H 392.683 -0.960188 4.9375 0
M  V30 3994 H 392.383 0.539415 5.85119 0
M  V30 3995 H 393.907 -0.360477 6.09535 0
M  V30 3996 H 395.321 1.8139 5.43848 0
M  V30 3997 H 393.718 2.60444 5.40638 0
M  V30 3998 H 394.788 2.74167 3.99951 0
M  V30 3999 N 396.131 -1.37776 0.765217 0
M  V30 4000 C 397.094 -2.28686 0.153416 0
M  V30 4001 C 398.094 -1.47727 -0.635081 0
M  V30 4002 O 399.284 -1.68027 -0.459632 0
M  V30 4003 C 396.416 -3.31608 -0.790495 0
M  V30 4004 H 397.609 -2.84297 0.954723 0
M  V30 4005 H 395.162 -1.46932 0.53299 0
M  V30 4006 H 395.897 -2.81109 -1.61705 0
M  V30 4007 H 395.682 -3.9144 -0.227348 0
M  V30 4008 H 397.172 -3.99559 -1.21419 0
M  V30 4009 N 397.609 -0.515225 -1.4894 0
M  V30 4010 C 398.855 0.0242508 -2.02785 0
M  V30 4011 C 399.188 1.35323 -1.39289 0
M  V30 4012 O 398.463 1.87041 -0.533469 0
M  V30 4013 C 398.746 0.16184 -3.59736 0
M  V30 4014 C 398.599 -1.19127 -4.33738 0
M  V30 4015 C 399.918 0.895719 -4.30888 0
M  V30 4016 H 397.037 0.00733914 -0.736963 0
M  V30 4017 H 399.679 -0.669395 -1.77818 0
M  V30 4018 H 397.829 0.752624 -3.8114 0
M  V30 4019 H 399.501 -1.82202 -4.23792 0
M  V30 4020 H 397.744 -1.77695 -3.95736 0
M  V30 4021 H 398.415 -1.04815 -5.41957 0
M  V30 4022 H 400.891 0.394528 -4.14225 0
M  V30 4023 H 399.767 0.960859 -5.40425 0
M  V30 4024 H 400.028 1.9427 -3.97129 0
M  V30 4025 N 399.087 1.5561 -0.249682 0
M  V30 4026 C 400.336 1.98187 0.37479 0
M  V30 4027 C 400.649 1.14111 1.58865 0
M  V30 4028 O 401.855 1.46714 2.28445 0
M  V30 4029 C 400.311 3.52661 0.718192 0
M  V30 4030 C 399.919 4.45481 -0.474428 0
M  V30 4031 C 401.663 4.03888 1.3067 0
M  V30 4032 C 399.57 5.91303 -0.107026 0
M  V30 4033 H 398.5 0.740159 0.143808 0
M  V30 4034 H 401.151 1.80125 -0.350336 0
M  V30 4035 H 399.533 3.66429 1.50152 0
M  V30 4036 H 400.707 4.43473 -1.25172 0
M  V30 4037 H 399.022 4.04751 -0.978052 0
M  V30 4038 H 401.619 5.10358 1.59496 0
M  V30 4039 H 401.962 3.51401 2.23211 0
M  V30 4040 H 402.495 3.93457 0.586211 0
M  V30 4041 H 399.234 6.47833 -0.999642 0
M  V30 4042 H 398.754 5.9644 0.634013 0
M  V30 4043 H 400.433 6.46258 0.309807 0
M  V30 4044 N 400.565 -0.0233959 1.57583 0
M  V30 4045 C 401.981 -0.379134 1.55031 0
M  V30 4046 C 402.181 -1.76255 0.976548 0
M  V30 4047 O 401.237 -2.45266 0.600078 0
M  V30 4048 C 402.55 -0.275792 2.99433 0
M  V30 4049 C 404.098 -0.352458 3.11009 0
M  V30 4050 C 404.573 -0.278501 4.57152 0
M  V30 4051 N 406.064 -0.337123 4.61972 0
M  V30 4052 C 406.799 -0.302876 5.726 0
M  V30 4053 N 406.295 -0.220589 6.92449 0
M  V30 4054 N 408.088 -0.353023 5.6099 0
M  V30 4055 H 400.239 0.881869 1.93227 0
M  V30 4056 H 402.502 0.335867 0.886509 0
M  V30 4057 H 402.208 0.675108 3.4516 0
M  V30 4058 H 402.082 -1.06721 3.61788 0
M  V30 4059 H 404.469 -1.29379 2.65226 0
M  V30 4060 H 404.55 0.468409 2.51475 0
M  V30 4061 H 404.194 0.659189 5.03604 0
M  V30 4062 H 404.124 -1.11755 5.14605 0
M  V30 4063 H 406.615 -0.403002 3.75745 0
M  V30 4064 H 406.928 -0.199713 7.72542 0
M  V30 4065 H 405.273 -0.186555 6.9475 0
M  V30 4066 H 408.464 -0.415339 4.66254 0
M  V30 4067 H 408.637 -0.322866 6.47195 0
M  V30 4068 N 402.043 -1.548 -0.295768 0
M  V30 4069 C 403.268 -1.78653 -1.05346 0
M  V30 4070 C 403.693 -0.546894 -1.79974 0
M  V30 4071 O 403.051 0.502763 -1.7419 0
M  V30 4072 C 403.099 -2.99679 -2.00561 0
M  V30 4073 O 402.203 -2.7317 -3.08953 0
M  V30 4074 H 401.544 -0.59116 -0.302367 0
M  V30 4075 H 404.074 -2.01895 -0.331598 0
M  V30 4076 H 404.084 -3.27793 -2.42932 0
M  V30 4077 H 402.759 -3.89562 -1.4565 0
M  V30 4078 H 401.336 -2.56089 -2.71059 0
M  V30 4079 N 403.521 0.559213 -1.47345 0
M  V30 4080 C 404.454 1.68201 -1.5422 0
M  V30 4081 C 405.432 1.57742 -0.394497 0
M  V30 4082 O 406.616 1.78628 -0.60201 0
M  V30 4083 C 403.743 3.0643 -1.44285 0
M  V30 4084 C 402.789 3.3534 -2.63532 0
M  V30 4085 S 403.622 3.24816 -4.25741 0
M  V30 4086 C 404.778 4.65542 -4.18355 0
M  V30 4087 H 405.011 1.62114 -2.49211 0
M  V30 4088 H 402.544 0.739871 -1.35519 0
M  V30 4089 H 404.502 3.86164 -1.3924 0
M  V30 4090 H 403.163 3.09984 -0.506816 0
M  V30 4091 H 402.356 4.36107 -2.52639 0
M  V30 4092 H 401.958 2.63221 -2.65689 0
M  V30 4093 H 404.25 5.56449 -3.86485 0
M  V30 4094 H 405.193 4.81493 -5.19202 0
M  V30 4095 H 405.601 4.43495 -3.49246 0
M  V30 4096 N 404.999 1.35443 0.805782 0
M  V30 4097 C 405.962 1.28301 1.89925 0
M  V30 4098 C 406.962 0.194285 1.59622 0
M  V30 4099 O 408.152 0.448036 1.6834 0
M  V30 4100 C 405.284 0.984997 3.2636 0
M  V30 4101 H 406.477 2.2553 1.97677 0
M  V30 4102 H 404.03 1.19979 1.00173 0
M  V30 4103 H 404.765 0.016603 3.24296 0
M  V30 4104 H 404.55 1.77269 3.4974 0
M  V30 4105 H 406.04 0.960651 4.064 0
M  V30 4106 N 406.477 -1.02803 1.19454 0
M  V30 4107 C 407.723 -1.76478 0.999171 0
M  V30 4108 C 408.056 -1.88456 -0.468828 0
M  V30 4109 O 407.331 -1.40198 -1.34814 0
M  V30 4110 C 407.614 -3.19044 1.66981 0
M  V30 4111 C 407.467 -3.14932 3.21151 0
M  V30 4112 C 408.786 -4.17456 1.39349 0
M  V30 4113 H 405.905 -0.640614 0.364393 0
M  V30 4114 H 408.547 -1.20005 1.47305 0
M  V30 4115 H 406.697 -3.67263 1.2669 0
M  V30 4116 H 408.369 -2.74605 3.70661 0
M  V30 4117 H 406.612 -2.52625 3.52652 0
M  V30 4118 H 407.283 -4.1566 3.63223 0
M  V30 4119 H 409.759 -3.77842 1.74283 0
M  V30 4120 H 408.635 -5.154 1.88823 0
M  V30 4121 H 408.896 -4.40949 0.318813 0
M  V30 4122 N 407.956 -0.998596 -1.21925 0
M  V30 4123 C 408.919 -0.558679 -2.22287 0
M  V30 4124 C 409.919 0.361525 -1.56683 0
M  V30 4125 O 411.109 0.152695 -1.73529 0
M  V30 4126 C 408.241 0.18661 -3.40389 0
M  V30 4127 H 409.434 -1.4463 -2.62721 0
M  V30 4128 H 406.987 -0.786413 -1.35075 0
M  V30 4129 H 407.722 1.08996 -3.05435 0
M  V30 4130 H 407.507 -0.474188 -3.89222 0
M  V30 4131 H 408.997 0.482367 -4.14805 0
M  V30 4132 N 409.434 1.37368 -0.772513 0
M  V30 4133 C 410.682 1.99279 -0.336516 0
M  V30 4134 C 411.003 1.6163 1.09091 0
M  V30 4135 O 410.273 0.882109 1.74916 0
M  V30 4136 H 408.853 0.737063 -0.121435 0
M  V30 4137 H 411.515 1.67836 -0.990809 0
M  V30 4138 H 410.611 3.09332 -0.414763 0
M  V30 4139 N 410.912 0.523116 1.48665 0
M  V30 4140 C 412.158 -0.0134963 2.02796 0
M  V30 4141 C 412.491 -1.34582 1.40004 0
M  V30 4142 O 411.766 -1.86756 0.543381 0
M  V30 4143 C 412.049 -0.14276 3.59817 0
M  V30 4144 C 411.902 1.21425 4.331 0
M  V30 4145 C 413.221 -0.872856 4.31357 0
M  V30 4146 H 410.34 -0.00343074 0.736992 0
M  V30 4147 H 412.982 0.678816 1.7746 0
M  V30 4148 H 411.132 -0.732401 3.81534 0
M  V30 4149 H 412.804 1.84447 4.2282 0
M  V30 4150 H 411.047 1.79791 3.94788 0
M  V30 4151 H 411.718 1.07687 5.41394 0
M  V30 4152 H 414.194 -0.372555 4.14429 0
M  V30 4153 H 413.07 -0.932185 5.40927 0
M  V30 4154 H 413.331 -1.92161 3.98154 0
M  V30 4155 N 412.39 -1.55475 0.257931 0
M  V30 4156 C 413.667 -1.91155 -0.414629 0
M  V30 4157 C 414.047 -1.18008 -1.75035 0
M  V30 4158 O 413.395 -0.301193 -2.26506 0
M  V30 4159 C 413.605 -3.44283 -0.571859 0
M  V30 4160 C 414.953 -4.15744 -0.862678 0
M  V30 4161 O 415.977 -3.50083 -0.657314 0
M  V30 4162 O 414.836 -5.31909 -1.2544 0
M  V30 4163 H 411.93 -0.796016 -0.22425 0
M  V30 4164 H 414.476 -1.66976 0.302814 0
M  V30 4165 H 413.248 -3.89558 0.368844 0
M  V30 4166 H 412.871 -3.7436 -1.33943 0
M  V30 4167 N 413.868 0.0150385 -1.57593 0
M  V30 4168 C 415.279 0.559832 -1.78109 0
M  V30 4169 C 415.63 1.74814 -0.890756 0
M  V30 4170 O 414.755 2.16216 -0.0892482 0
M  V30 4171 C 415.35 1.02238 -3.23006 0
M  V30 4172 C 413.909 1.51258 -3.44671 0
M  V30 4173 C 413.056 0.456955 -2.73509 0
M  V30 4174 H 416.007 -0.211169 -1.57289 0
M  V30 4175 H 416.028 1.88912 -3.30292 0
M  V30 4176 H 415.54 0.157302 -3.87781 0
M  V30 4177 H 413.641 2.39905 -2.8509 0
M  V30 4178 H 413.754 1.55042 -4.5332 0
M  V30 4179 H 412.118 0.915196 -2.37689 0
M  V30 4180 H 412.901 -0.398896 -3.40975 0
M  V30 4181 N 415.346 1.54954 0.287554 0
M  V30 4182 C 416.309 1.86076 1.33823 0
M  V30 4183 C 417.309 0.734414 1.43049 0
M  V30 4184 O 418.499 1.00266 1.42452 0
M  V30 4185 C 415.631 2.05305 2.72144 0
M  V30 4186 H 416.824 2.79984 1.07465 0
M  V30 4187 H 414.377 1.47223 0.524902 0
M  V30 4188 H 415.112 1.1373 3.03704 0
M  V30 4189 H 414.897 2.873 2.66836 0
M  V30 4190 H 416.387 2.30706 3.48087 0
M  V30 4191 N 416.824 -0.551391 1.4764 0
M  V30 4192 C 418.073 -1.30467 1.53822 0
M  V30 4193 C 418.386 -1.94495 0.207661 0
M  V30 4194 O 419.592 -2.71099 0.147533 0
M  V30 4195 C 418.048 -2.36616 2.71184 0
M  V30 4196 C 417.656 -1.78754 4.10793 0
M  V30 4197 C 419.4 -3.13088 2.86663 0
M  V30 4198 C 417.307 -2.82717 5.19447 0
M  V30 4199 H 416.237 -0.490584 0.572576 0
M  V30 4200 H 418.888 -0.58494 1.73927 0
M  V30 4201 H 417.27 -3.11529 2.4447 0
M  V30 4202 H 418.444 -1.10173 4.47435 0
M  V30 4203 H 416.759 -1.14846 4.00249 0
M  V30 4204 H 419.356 -3.90736 3.65007 0
M  V30 4205 H 419.699 -3.67635 1.95321 0
M  V30 4206 H 420.232 -2.45288 3.13175 0
M  V30 4207 H 416.971 -2.33018 6.12685 0
M  V30 4208 H 416.491 -3.4969 4.87316 0
M  V30 4209 H 418.17 -3.46102 5.46646 0
M  V30 4210 N 418.302 -1.35869 -0.798587 0
M  V30 4211 C 419.235 -1.23801 -1.91699 0
M  V30 4212 C 420.213 -0.124143 -1.62125 0
M  V30 4213 O 421.397 -0.293656 -1.86199 0
M  V30 4214 C 418.524 -0.908063 -3.263 0
M  V30 4215 C 417.57 -2.0351 -3.74815 0
M  V30 4216 S 418.403 -3.65183 -3.91665 0
M  V30 4217 C 419.559 -3.34283 -5.29156 0
M  V30 4218 H 419.792 -2.18466 -2.01643 0
M  V30 4219 H 417.325 -1.21178 -0.956833 0
M  V30 4220 H 419.283 -0.724506 -4.04056 0
M  V30 4221 H 417.944 0.0206584 -3.14093 0
M  V30 4222 H 417.137 -1.75858 -4.72324 0
M  V30 4223 H 416.739 -2.1774 -3.04081 0
M  V30 4224 H 419.031 -2.87607 -6.13424 0
M  V30 4225 H 419.974 -4.31022 -5.61806 0
M  V30 4226 H 420.382 -2.69854 -4.95822 0
M  V30 4227 N 419.78 1.02168 -1.19998 0
M  V30 4228 C 421.028 1.75338 -1.00504 0
M  V30 4229 C 421.349 1.89387 0.464506 0
M  V30 4230 O 420.619 1.43268 1.33608 0
M  V30 4231 H 419.199 0.649564 -0.368885 0
M  V30 4232 H 421.861 1.23205 -1.51018 0
M  V30 4233 H 420.957 2.75892 -1.45912 0
M  V30 4234 N 421.258 1.00505 1.21394 0
M  V30 4235 C 422.488 0.705584 1.94178 0
M  V30 4236 C 422.896 -0.735846 1.74304 0
M  V30 4237 O 422.239 -1.50954 1.04683 0
M  V30 4238 C 422.301 0.94689 3.46806 0
M  V30 4239 C 421.965 2.37517 3.90429 0
M  V30 4240 C 422.962 3.35539 3.97127 0
M  V30 4241 C 420.647 2.71284 4.22742 0
M  V30 4242 C 422.641 4.65395 4.3553 0
M  V30 4243 C 420.328 4.01356 4.60822 0
M  V30 4244 C 421.326 4.98223 4.67186 0
M  V30 4245 O 421.014 6.25969 5.04399 0
M  V30 4246 H 420.746 0.259216 0.624326 0
M  V30 4247 H 423.3 1.34592 1.55159 0
M  V30 4248 H 421.53 0.249386 3.85895 0
M  V30 4249 H 423.219 0.640804 4.0081 0
M  V30 4250 H 423.985 3.10786 3.7234 0
M  V30 4251 H 419.864 1.96581 4.16985 0
M  V30 4252 H 423.408 5.41002 4.40412 0
M  V30 4253 H 419.305 4.25893 4.85063 0
M  V30 4254 H 420.073 6.30085 5.22431 0
M  V30 4255 N 422.737 -1.36956 0.779787 0
M  V30 4256 C 423.985 -1.99097 0.347079 0
M  V30 4257 C 424.306 -1.62206 -1.08232 0
M  V30 4258 O 423.576 -0.891373 -1.74446 0
M  V30 4259 H 422.156 -0.736409 0.125342 0
M  V30 4260 H 424.818 -1.67308 0.999696 0
M  V30 4261 H 423.914 -3.09107 0.431162 0
M  V30 4262 N 424.215 -0.530993 -1.48385 0
M  V30 4263 C 425.626 -0.0907905 -1.86479 0
M  V30 4264 C 425.977 1.33213 -1.44044 0
M  V30 4265 O 425.102 1.99783 -0.831615 0
M  V30 4266 C 425.697 -0.157987 -3.38431 0
M  V30 4267 C 424.256 0.227026 -3.75715 0
M  V30 4268 C 423.403 -0.5173 -2.72432 0
M  V30 4269 H 426.354 -0.742186 -1.40276 0
M  V30 4270 H 426.375 0.630053 -3.75247 0
M  V30 4271 H 425.887 -1.19372 -3.69286 0
M  V30 4272 H 423.988 1.26486 -3.50474 0
M  V30 4273 H 424.101 -0.113288 -4.78966 0
M  V30 4274 H 422.465 0.0365527 -2.54674 0
M  V30 4275 H 423.248 -1.55368 -3.0613 0
M  V30 4276 N 425.693 1.55336 -0.266172 0
M  V30 4277 C 426.939 1.99692 0.353681 0
M  V30 4278 C 427.272 1.1543 1.56172 0
M  V30 4279 O 426.547 0.222218 1.93226 0
M  V30 4280 C 426.83 3.52316 0.74466 0
M  V30 4281 C 426.683 4.47337 -0.470101 0
M  V30 4282 C 428.002 4.10588 1.58447 0
M  V30 4283 H 425.121 0.725961 0.12708 0
M  V30 4284 H 427.763 1.86336 -0.371333 0
M  V30 4285 H 425.913 3.63829 1.36239 0
M  V30 4286 H 427.585 4.4778 -1.10864 0
M  V30 4287 H 425.828 4.19364 -1.10978 0
M  V30 4288 H 426.499 5.51788 -0.15291 0
M  V30 4289 H 428.975 4.02297 1.06286 0
M  V30 4290 H 427.851 5.17607 1.82686 0
M  V30 4291 H 428.112 3.60253 2.56262 0
M  V30 4292 N 427.171 -0.0066808 1.57599 0
M  V30 4293 C 428.582 -0.550379 1.78403 0
M  V30 4294 C 428.933 -1.74339 0.900014 0
M  V30 4295 O 428.058 -2.16166 0.100713 0
M  V30 4296 C 428.653 -1.00523 3.23544 0
M  V30 4297 C 427.212 -1.49428 3.45468 0
M  V30 4298 C 426.359 -0.442444 2.73748 0
M  V30 4299 H 429.31 0.219508 1.57175 0
M  V30 4300 H 429.331 -1.87157 3.31289 0
M  V30 4301 H 428.843 -0.136735 3.87859 0
M  V30 4302 H 426.944 -2.3839 2.86358 0
M  V30 4303 H 427.057 -1.52635 4.54136 0
M  V30 4304 H 425.421 -0.902578 2.38171 0
M  V30 4305 H 426.204 0.416973 3.40758 0
M  V30 4306 N 428.649 -1.55105 -0.279332 0
M  V30 4307 C 429.612 -1.86783 -1.32834 0
M  V30 4308 C 430.612 -0.74199 -1.42657 0
M  V30 4309 O 431.802 -1.0102 -1.41918 0
M  V30 4310 C 428.934 -2.06746 -2.71052 0
M  V30 4311 H 430.127 -2.8055 -1.05979 0
M  V30 4312 H 427.68 -1.47499 -0.517087 0
M  V30 4313 H 428.415 -1.15339 -3.03097 0
M  V30 4314 H 428.2 -2.88711 -2.65309 0
M  V30 4315 H 429.69 -2.32549 -3.46858 0
M  V30 4316 N 430.127 0.543554 -1.4793 0
M  V30 4317 C 431.355 1.32516 -1.58894 0
M  V30 4318 C 431.77 1.87215 -0.244131 0
M  V30 4319 O 431.127 1.65709 0.764652 0
M  V30 4320 C 431.178 2.48554 -2.62494 0
M  V30 4321 O 430.899 1.96112 -3.91755 0
M  V30 4322 C 432.4 3.40572 -2.8377 0
M  V30 4323 H 429.62 0.403472 -0.536145 0
M  V30 4324 H 432.164 0.657106 -1.93655 0
M  V30 4325 H 430.319 3.1127 -2.30629 0
M  V30 4326 H 430.733 2.71967 -4.4848 0
M  V30 4327 H 432.207 4.18375 -3.60093 0
M  V30 4328 H 432.684 3.94965 -1.92092 0
M  V30 4329 H 433.29 2.8366 -3.16887 0
M  V30 4330 N 431.605 1.3629 0.791371 0
M  V30 4331 C 432.537 1.26321 1.91248 0
M  V30 4332 C 433.55 0.18313 1.61767 0
M  V30 4333 O 434.739 0.437682 1.73051 0
M  V30 4334 C 431.839 0.925901 3.26007 0
M  V30 4335 C 431.012 2.10746 3.83281 0
M  V30 4336 C 430.071 1.74352 4.96475 0
M  V30 4337 O 429.097 2.46416 5.13096 0
M  V30 4338 N 430.299 0.676058 5.7655 0
M  V30 4339 H 433.064 2.22915 2.00323 0
M  V30 4340 H 430.625 1.29659 0.969546 0
M  V30 4341 H 432.617 0.663636 3.99222 0
M  V30 4342 H 431.187 0.0491581 3.12561 0
M  V30 4343 H 430.407 2.53264 3.02077 0
M  V30 4344 H 431.695 2.8969 4.18279 0
M  V30 4345 H 431.093 0.0776467 5.65647 0
M  V30 4346 H 429.65 0.473612 6.50077 0
M  V30 4347 N 433.083 -1.0153 1.20538 0
M  V30 4348 C 434.03 -2.10098 0.955383 0
M  V30 4349 C 435 -1.65702 -0.114878 0
M  V30 4350 O 436.185 -1.90776 0.0301118 0
M  V30 4351 C 433.325 -3.41236 0.514969 0
M  V30 4352 C 432.438 -3.99102 1.65353 0
M  V30 4353 C 431.573 -5.18306 1.16329 0
M  V30 4354 C 430.612 -5.68258 2.27485 0
M  V30 4355 N 429.749 -6.78722 1.7967 0
M  V30 4356 H 434.589 -2.30818 1.88486 0
M  V30 4357 H 432.126 -1.13189 0.939499 0
M  V30 4358 H 434.084 -4.16504 0.240935 0
M  V30 4359 H 432.714 -3.20585 -0.377512 0
M  V30 4360 H 431.766 -3.20918 2.04245 0
M  V30 4361 H 433.078 -4.32177 2.49047 0
M  V30 4362 H 432.232 -6.00782 0.845302 0
M  V30 4363 H 430.971 -4.86799 0.296254 0
M  V30 4364 H 429.976 -4.84385 2.60099 0
M  V30 4365 H 431.201 -6.01798 3.14667 0
M  V30 4366 H 429.147 -6.49042 0.95295 0
M  V30 4367 H 429.064 -7.10996 2.56944 0
M  V30 4368 H 430.332 -7.64759 1.50875 0
M  V30 4369 N 434.561 -1.01147 -1.20859 0
M  V30 4370 C 435.524 -0.582224 -2.21682 0
M  V30 4371 C 436.524 0.344887 -1.57058 0
M  V30 4372 O 437.714 0.134281 -1.73682 0
M  V30 4373 C 434.846 0.150496 -3.40568 0
M  V30 4374 H 436.039 -1.47408 -2.61172 0
M  V30 4375 H 433.592 -0.800695 -1.34233 0
M  V30 4376 H 434.327 1.0575 -3.06574 0
M  V30 4377 H 434.112 -0.515444 -3.88697 0
M  V30 4378 H 435.602 0.438344 -4.15293 0
M  V30 4379 N 436.039 1.36541 -0.78704 0
M  V30 4380 C 436.969 2.32659 -0.197992 0
M  V30 4381 C 437.95 1.56533 0.665697 0
M  V30 4382 O 439.135 1.84698 0.60001 0
M  V30 4383 C 436.265 3.40778 0.669901 0
M  V30 4384 C 435.219 4.27897 -0.0937039 0
M  V30 4385 C 434.545 5.27163 0.894629 0
M  V30 4386 C 435.845 5.06334 -1.28154 0
M  V30 4387 H 437.539 2.82171 -1.00099 0
M  V30 4388 H 435.085 1.35665 -0.482793 0
M  V30 4389 H 437.038 4.07008 1.09191 0
M  V30 4390 H 435.762 2.89827 1.50558 0
M  V30 4391 H 434.421 3.6322 -0.49666 0
M  V30 4392 H 434.069 4.72486 1.72527 0
M  V30 4393 H 433.769 5.86317 0.388149 0
M  V30 4394 H 435.293 5.96266 1.31525 0
M  V30 4395 H 436.707 5.65617 -0.93541 0
M  V30 4396 H 435.104 5.74888 -1.72115 0
M  V30 4397 H 436.174 4.38114 -2.07807 0
M  V30 4398 N 437.518 0.538854 1.48102 0
M  V30 4399 C 438.465 -0.219042 2.29758 0
M  V30 4400 C 439.435 -0.925562 1.37922 0
M  V30 4401 O 440.62 -0.924855 1.66886 0
M  V30 4402 C 437.76 -1.25452 3.2149 0
M  V30 4403 C 436.873 -0.555943 4.28408 0
M  V30 4404 C 436.008 -1.57512 5.0731 0
M  V30 4405 C 435.047 -0.860498 6.06021 0
M  V30 4406 N 434.184 -1.82564 6.77949 0
M  V30 4407 H 439.024 0.483449 2.94052 0
M  V30 4408 H 436.561 0.250247 1.44956 0
M  V30 4409 H 438.519 -1.86727 3.7308 0
M  V30 4410 H 437.149 -1.92528 2.591 0
M  V30 4411 H 436.201 0.170938 3.80016 0
M  V30 4412 H 437.513 0.00474616 4.988 0
M  V30 4413 H 436.667 -2.26191 5.62959 0
M  V30 4414 H 435.406 -2.16972 4.36778 0
M  V30 4415 H 434.411 -0.159686 5.49568 0
M  V30 4416 H 435.636 -0.271897 6.78555 0
M  V30 4417 H 433.582 -2.40915 6.10161 0
M  V30 4418 H 433.499 -1.31662 7.44447 0
M  V30 4419 H 434.767 -2.50414 7.38182 0
M  V30 4420 N 438.996 -1.55193 0.274407 0
M  V30 4421 C 440.412 -1.59401 -0.0797543 0
M  V30 4422 C 440.612 -1.29162 -1.54659 0
M  V30 4423 O 439.668 -1.05215 -2.29534 0
M  V30 4424 C 440.981 -2.99257 0.294238 0
M  V30 4425 C 442.529 -3.12072 0.240796 0
M  V30 4426 C 443.004 -4.54194 0.589218 0
M  V30 4427 N 444.495 -4.60033 0.540744 0
M  V30 4428 C 445.23 -5.68027 0.783147 0
M  V30 4429 N 444.726 -6.8417 1.09013 0
M  V30 4430 N 446.519 -5.57572 0.711993 0
M  V30 4431 H 438.67 -1.73113 1.23067 0
M  V30 4432 H 440.933 -0.807197 0.497129 0
M  V30 4433 H 440.639 -3.26217 1.31435 0
M  V30 4434 H 440.513 -3.75427 -0.365281 0
M  V30 4435 H 442.9 -2.84877 -0.770024 0
M  V30 4436 H 442.981 -2.38117 0.934563 0
M  V30 4437 H 442.625 -4.82115 1.59772 0
M  V30 4438 H 442.555 -5.26448 -0.126331 0
M  V30 4439 H 445.046 -3.76599 0.313327 0
M  V30 4440 H 445.359 -7.6243 1.26178 0
M  V30 4441 H 443.704 -6.85787 1.12789 0
M  V30 4442 H 446.895 -4.65714 0.472014 0
M  V30 4443 H 447.068 -6.41659 0.90429 0
M  V30 4444 N 440.474 -0.00167713 -1.576 0
M  V30 4445 C 441.437 0.974046 -2.07473 0
M  V30 4446 C 442.437 1.27143 -0.984444 0
M  V30 4447 O 443.627 1.21633 -1.24703 0
M  V30 4448 C 440.759 2.29849 -2.51759 0
M  V30 4449 H 441.952 0.54262 -2.9495 0
M  V30 4450 H 439.505 0.245829 -1.54355 0
M  V30 4451 H 440.24 2.77677 -1.67529 0
M  V30 4452 H 440.025 2.09584 -3.31386 0
M  V30 4453 H 441.515 2.9984 -2.90664 0
M  V30 4454 N 441.952 1.55251 0.271103 0
M  V30 4455 C 443.2 1.75599 1.00047 0
M  V30 4456 C 443.521 0.561188 1.8675 0
M  V30 4457 O 442.791 -0.423846 1.9126 0
M  V30 4458 H 441.371 0.647562 0.372387 0
M  V30 4459 H 444.033 1.92656 0.294876 0
M  V30 4460 H 443.129 2.65766 1.6363 0
M  V30 4461 N 443.43 -0.535701 1.48216 0
M  V30 4462 C 444.36 -1.65014 1.65204 0
M  V30 4463 C 445.341 -1.62554 0.501011 0
M  V30 4464 O 446.526 -1.7984 0.732886 0
M  V30 4465 C 443.656 -3.03616 1.68626 0
M  V30 4466 C 442.61 -3.20932 2.83172 0
M  V30 4467 C 441.936 -4.60537 2.71679 0
M  V30 4468 C 443.236 -3.04249 4.24535 0
M  V30 4469 H 444.93 -1.51053 2.58502 0
M  V30 4470 H 442.476 -0.725262 1.24402 0
M  V30 4471 H 444.429 -3.81446 1.79099 0
M  V30 4472 H 443.153 -3.18587 0.719026 0
M  V30 4473 H 441.812 -2.45517 2.72244 0
M  V30 4474 H 441.46 -4.72336 1.72937 0
M  V30 4475 H 441.16 -4.73069 3.48538 0
M  V30 4476 H 442.684 -5.40475 2.84112 0
M  V30 4477 H 444.098 -3.71877 4.36326 0
M  V30 4478 H 442.495 -3.28278 5.02348 0
M  V30 4479 H 443.565 -2.00739 4.41397 0
M  V30 4480 N 444.908 -1.36708 -0.784132 0
M  V30 4481 C 445.856 -1.31533 -1.91838 0
M  V30 4482 C 446.85 -0.206205 -1.6814 0
M  V30 4483 O 448.056 -0.373519 -1.76082 0
M  V30 4484 H 444.431 -0.409613 -0.630651 0
M  V30 4485 H 446.402 -2.2731 -1.9332 0
M  V30 4486 C 445.151 -1.12679 -3.28936 0
M  V30 4487 H 444.474 -1.97274 -3.4774 0
M  V30 4488 H 445.914 -1.13106 -4.08636 0
M  V30 4489 C 444.373 0.168281 -3.36479 0
M  V30 4490 O 444.903 1.15625 -3.84699 0
M  V30 4491 N 443.109 0.214762 -2.89805 0
M  V30 4492 H 442.656 -0.589852 -2.50756 0
M  V30 4493 H 442.614 1.08094 -2.95234 0
M  V30 4494 N 446.386 1.0089 -1.21074 0
M  V30 4495 C 447.319 2.09279 -0.909806 0
M  V30 4496 C 448.297 1.61986 0.141145 0
M  V30 4497 O 449.481 1.88495 0.0130332 0
M  V30 4498 C 446.608 3.36723 -0.365374 0
M  V30 4499 C 445.654 4.02919 -1.39852 0
M  V30 4500 S 446.487 4.45835 -2.96633 0
M  V30 4501 C 447.643 5.76471 -2.43786 0
M  V30 4502 H 447.876 2.34484 -1.82769 0
M  V30 4503 H 445.409 1.14115 -1.04006 0
M  V30 4504 H 447.367 4.10459 -0.0578203 0
M  V30 4505 H 446.028 3.09577 0.531136 0
M  V30 4506 H 445.221 4.94634 -0.967117 0
M  V30 4507 H 444.823 3.35441 -1.65395 0
M  V30 4508 H 447.115 6.52027 -1.84029 0
M  V30 4509 H 448.058 6.24418 -3.33928 0
M  V30 4510 H 448.466 5.33104 -1.85636 0
M  V30 4511 N 447.864 1.01787 1.20321 0
M  V30 4512 C 448.827 0.593972 2.2137 0
M  V30 4513 C 449.827 -0.336553 1.57239 0
M  V30 4514 O 451.017 -0.125069 1.7375 0
M  V30 4515 C 448.149 -0.132433 3.40643 0
M  V30 4516 H 449.342 1.48791 2.60387 0
M  V30 4517 H 446.895 0.807803 1.33807 0
M  V30 4518 H 447.63 -1.04123 3.0713 0
M  V30 4519 H 447.415 0.53605 3.88418 0
M  V30 4520 H 448.905 -0.416314 4.1552 0
M  V30 4521 N 449.342 -1.36122 0.79427 0
M  V30 4522 C 450.619 -1.93398 0.292685 0
M  V30 4523 C 450.999 -1.72567 -1.21589 0
M  V30 4524 O 450.347 -1.08745 -2.00965 0
M  V30 4525 C 450.557 -3.42099 0.690614 0
M  V30 4526 C 451.905 -4.19231 0.673105 0
M  V30 4527 O 452.929 -3.50559 0.631389 0
M  V30 4528 O 451.788 -5.41732 0.720362 0
M  V30 4529 H 448.882 -0.823712 0.0736693 0
M  V30 4530 H 451.428 -1.45273 0.87714 0
M  V30 4531 H 450.2 -3.50938 1.73085 0
M  V30 4532 H 449.823 -3.97519 0.0803036 0
M  V30 4533 N 450.82 -0.546701 -1.47814 0
M  V30 4534 C 452.069 -0.0166497 -2.01693 0
M  V30 4535 C 452.382 1.33721 -1.42752 0
M  V30 4536 O 453.588 1.95658 -1.8823 0
M  V30 4537 C 452.044 0.0206769 -3.59894 0
M  V30 4538 C 451.652 -1.3293 -4.27824 0
M  V30 4539 C 453.396 0.498674 -4.21561 0
M  V30 4540 C 451.303 -1.25165 -5.78003 0
M  V30 4541 H 450.233 -0.0024541 -0.753996 0
M  V30 4542 H 452.884 -0.692984 -1.69912 0
M  V30 4543 H 451.266 0.76244 -3.88591 0
M  V30 4544 H 452.44 -2.08795 -4.10781 0
M  V30 4545 H 450.755 -1.74438 -3.78101 0
M  V30 4546 H 453.352 0.575 -5.31599 0
M  V30 4547 H 453.695 1.5083 -3.88016 0
M  V30 4548 H 454.228 -0.18791 -3.97356 0
M  V30 4549 H 450.967 -2.23695 -6.1615 0
M  V30 4550 H 450.487 -0.53464 -5.97412 0
M  V30 4551 H 452.166 -0.949299 -6.39998 0
M  V30 4552 N 452.299 1.55045 -0.282633 0
M  V30 4553 C 453.576 1.9179 0.384166 0
M  V30 4554 C 453.956 1.20778 1.73136 0
M  V30 4555 O 453.304 0.33719 2.25998 0
M  V30 4556 C 453.514 3.45149 0.517014 0
M  V30 4557 C 454.862 4.17064 0.796427 0
M  V30 4558 O 455.886 3.51084 0.601535 0
M  V30 4559 O 454.745 5.33837 1.16962 0
M  V30 4560 H 451.839 0.799483 0.211558 0
M  V30 4561 H 454.385 1.66474 -0.32934 0
M  V30 4562 H 453.157 3.88922 -0.430772 0
M  V30 4563 H 452.78 3.76443 1.2797 0
M  V30 4564 N 453.777 0.010035 1.57597 0
M  V30 4565 C 455.024 -0.6727 1.91 0
M  V30 4566 C 455.352 -1.73219 0.884614 0
M  V30 4567 O 454.607 -1.95395 -0.109215 0
M  V30 4568 C 454.906 -1.34434 3.31153 0
M  V30 4569 C 454.572 -0.417083 4.48967 0
M  V30 4570 C 453.234 -0.161809 4.80928 0
M  V30 4571 C 455.586 0.220753 5.20732 0
M  V30 4572 C 452.914 0.739426 5.82022 0
M  V30 4573 C 455.266 1.10993 6.22787 0
M  V30 4574 C 453.93 1.37428 6.532 0
M  V30 4575 H 453.2 -0.246158 0.698918 0
M  V30 4576 H 455.847 0.0677145 1.9138 0
M  V30 4577 H 454.152 -2.15905 3.26944 0
M  V30 4578 H 455.849 -1.87883 3.54261 0
M  V30 4579 H 452.439 -0.626217 4.24001 0
M  V30 4580 H 456.623 0.0365643 4.96287 0
M  V30 4581 H 451.879 0.952139 6.03941 0
M  V30 4582 H 456.053 1.61046 6.77523 0
M  V30 4583 H 453.68 2.0743 7.31353 0
M  V30 4584 N 455.255 -1.55392 -0.262866 0
M  V30 4585 C 456.504 -1.75679 -0.990943 0
M  V30 4586 C 456.817 -0.57097 -1.87081 0
M  V30 4587 O 458.023 -0.656486 -2.63444 0
M  V30 4588 C 456.479 -3.10964 -1.81188 0
M  V30 4589 C 456.087 -4.37146 -0.980188 0
M  V30 4590 C 457.831 -3.40597 -2.53365 0
M  V30 4591 C 455.738 -5.63466 -1.7961 0
M  V30 4592 H 454.668 -0.654868 -0.373716 0
M  V30 4593 H 457.319 -1.81841 -0.246203 0
M  V30 4594 H 455.701 -2.98867 -2.59797 0
M  V30 4595 H 456.875 -4.60187 -0.237558 0
M  V30 4596 H 455.19 -4.14731 -0.372497 0
M  V30 4597 H 457.787 -4.32186 -3.14833 0
M  V30 4598 H 458.13 -2.6119 -3.24169 0
M  V30 4599 H 458.663 -3.53838 -1.81779 0
M  V30 4600 H 455.402 -6.4565 -1.13209 0
M  V30 4601 H 454.922 -5.44552 -2.51443 0
M  V30 4602 H 456.601 -6.02139 -2.36723 0
M  V30 4603 N 456.733 0.527833 -1.48498 0
M  V30 4604 C 457.643 1.65907 -1.65867 0
M  V30 4605 C 458.659 1.6537 -0.541192 0
M  V30 4606 O 459.835 1.84282 -0.812534 0
M  V30 4607 C 456.9 3.02364 -1.69637 0
M  V30 4608 C 455.961 3.1374 -2.93028 0
M  V30 4609 C 455.194 4.43688 -2.96609 0
M  V30 4610 O 455.417 5.30913 -2.08538 0
M  V30 4611 O 454.351 4.59475 -3.88802 0
M  V30 4612 H 458.177 1.5419 -2.61647 0
M  V30 4613 H 455.762 0.701163 -1.31924 0
M  V30 4614 H 457.644 3.83515 -1.74625 0
M  V30 4615 H 456.319 3.14401 -0.770312 0
M  V30 4616 H 455.226 2.31877 -2.93571 0
M  V30 4617 H 456.559 3.06621 -3.85026 0
M  V30 4618 N 458.211 1.37122 0.776871 0
M  V30 4619 C 459.141 1.35164 1.90402 0
M  V30 4620 C 460.122 0.221069 1.68657 0
M  V30 4621 O 461.307 0.420642 1.8959 0
M  V30 4622 C 458.437 1.15274 3.27611 0
M  V30 4623 C 457.391 2.25289 3.63908 0
M  V30 4624 C 456.717 1.90527 4.99603 0
M  V30 4625 C 458.017 3.67446 3.71188 0
M  V30 4626 H 459.711 2.29482 1.92297 0
M  V30 4627 H 457.257 1.10465 0.923773 0
M  V30 4628 H 459.21 1.12536 4.06096 0
M  V30 4629 H 457.934 0.174102 3.26136 0
M  V30 4630 H 456.593 2.27174 2.87728 0
M  V30 4631 H 456.241 0.91206 4.94662 0
M  V30 4632 H 455.941 2.64193 5.24858 0
M  V30 4633 H 457.465 1.89367 5.80493 0
M  V30 4634 H 458.879 3.67719 4.39836 0
M  V30 4635 H 457.276 4.40123 4.07936 0
M  V30 4636 H 458.346 4.01443 2.71977 0
M  V30 4637 N 459.689 -1.00246 1.21608 0
M  V30 4638 C 460.637 -2.11193 0.97469 0
M  V30 4639 C 461.631 -1.69216 -0.0789303 0
M  V30 4640 O 462.837 -1.79853 0.0726806 0
M  V30 4641 H 459.212 -0.690455 0.297953 0
M  V30 4642 H 461.183 -2.2873 1.91638 0
M  V30 4643 C 459.932 -3.43182 0.558717 0
M  V30 4644 H 459.255 -3.75918 1.3611 0
M  V30 4645 H 460.695 -4.21823 0.429154 0
M  V30 4646 C 459.154 -3.28882 -0.730648 0
M  V30 4647 O 459.684 -3.59835 -1.78554 0
M  V30 4648 N 457.89 -2.8209 -0.698131 0
M  V30 4649 H 457.437 -2.57099 0.16061 0
M  V30 4650 H 457.395 -2.72903 -1.56113 0
M  V30 4651 N 461.167 -1.02423 -1.1978 0
M  V30 4652 C 462.077 -0.610919 -2.26506 0
M  V30 4653 C 463.093 0.355152 -1.70337 0
M  V30 4654 O 464.269 0.214195 -2.00258 0
M  V30 4655 C 461.334 0.0365921 -3.46681 0
M  V30 4656 C 460.395 -0.976389 -4.18049 0
M  V30 4657 C 459.628 -0.359683 -5.32487 0
M  V30 4658 O 459.851 0.838601 -5.64202 0
M  V30 4659 O 458.785 -1.08022 -5.92127 0
M  V30 4660 H 462.611 -1.49965 -2.64091 0
M  V30 4661 H 460.196 -0.794156 -1.26545 0
M  V30 4662 H 462.078 0.39786 -4.19518 0
M  V30 4663 H 460.753 0.899398 -3.10954 0
M  V30 4664 H 459.66 -1.38916 -3.47352 0
M  V30 4665 H 460.993 -1.80941 -4.57735 0
M  V30 4666 N 462.645 1.35699 -0.801477 0
M  V30 4667 C 463.608 2.28199 -0.213994 0
M  V30 4668 C 464.608 1.49359 0.595691 0
M  V30 4669 O 465.798 1.69186 0.414921 0
M  V30 4670 C 462.93 3.33587 0.702297 0
M  V30 4671 H 464.123 2.81666 -1.02976 0
M  V30 4672 H 461.676 1.45467 -0.571759 0
M  V30 4673 H 462.411 2.85297 1.54195 0
M  V30 4674 H 462.196 3.91906 0.123484 0
M  V30 4675 H 463.686 4.02638 1.10783 0
M  V30 4676 N 464.123 0.554532 1.47522 0
M  V30 4677 C 465.37 0.029479 2.02479 0
M  V30 4678 C 465.698 -1.31929 1.42916 0
M  V30 4679 O 464.953 -1.87112 0.573385 0
M  V30 4680 C 465.252 -0.115927 3.57212 0
M  V30 4681 C 464.918 1.16161 4.3568 0
M  V30 4682 C 463.58 1.51168 4.56839 0
M  V30 4683 C 465.932 2.0083 4.80954 0
M  V30 4684 C 463.26 2.70696 5.2052 0
M  V30 4685 C 465.612 3.19559 5.45953 0
M  V30 4686 C 464.276 3.54882 5.65345 0
M  V30 4687 H 463.546 0.0107871 0.740921 0
M  V30 4688 H 466.193 0.725506 1.77225 0
M  V30 4689 H 464.498 -0.894902 3.81443 0
M  V30 4690 H 466.195 -0.53749 3.97381 0
M  V30 4691 H 462.785 0.879026 4.19489 0
M  V30 4692 H 466.969 1.75093 4.64388 0
M  V30 4693 H 462.225 2.98236 5.33728 0
M  V30 4694 H 466.399 3.85456 5.79997 0
M  V30 4695 H 464.026 4.47596 6.1446 0
M  V30 4696 N 465.601 -1.54893 0.290851 0
M  V30 4697 C 466.564 -2.21824 -0.576784 0
M  V30 4698 C 467.564 -1.20104 -1.06919 0
M  V30 4699 O 468.754 -1.44906 -0.966843 0
M  V30 4700 C 465.886 -2.89662 -1.79747 0
M  V30 4701 H 467.079 -2.99899 0.00784051 0
M  V30 4702 H 464.632 -1.56245 0.0415934 0
M  V30 4703 H 465.367 -2.15639 -2.42219 0
M  V30 4704 H 465.152 -3.64219 -1.45214 0
M  V30 4705 H 466.642 -3.4075 -2.4141 0
M  V30 4706 N 467.08 -0.0183926 -1.57589 0
M  V30 4707 C 468.043 0.951986 -2.08494 0
M  V30 4708 C 469.043 1.26092 -0.997874 0
M  V30 4709 O 470.233 1.20304 -1.25987 0
M  V30 4710 C 467.365 2.27165 -2.54182 0
M  V30 4711 H 468.558 0.511307 -2.95509 0
M  V30 4712 H 466.111 0.229444 -1.54607 0
M  V30 4713 H 466.846 2.75884 -1.70465 0
M  V30 4714 H 466.631 2.06057 -3.33591 0
M  V30 4715 H 468.121 2.9674 -2.93828 0
M  V30 4716 N 468.558 1.5553 0.254621 0
M  V30 4717 C 469.49 1.86104 1.33783 0
M  V30 4718 C 470.503 0.746752 1.44663 0
M  V30 4719 O 471.692 1.0248 1.46151 0
M  V30 4720 C 468.792 2.02532 2.71724 0
M  V30 4721 C 467.965 3.33335 2.83208 0
M  V30 4722 C 467.024 3.396 4.01943 0
M  V30 4723 O 466.05 4.12862 3.91834 0
M  V30 4724 N 467.252 2.68332 5.1476 0
M  V30 4725 H 470.017 2.79605 1.07893 0
M  V30 4726 H 467.578 1.55672 0.444732 0
M  V30 4727 H 469.57 2.04074 3.4948 0
M  V30 4728 H 468.14 1.15811 2.90356 0
M  V30 4729 H 467.36 3.44176 1.92189 0
M  V30 4730 H 468.648 4.19565 2.87824 0
M  V30 4731 H 468.046 2.08528 5.25864 0
M  V30 4732 H 466.603 2.75575 5.90679 0
M  V30 4733 N 470.036 -0.519951 1.48776 0
M  V30 4734 C 470.999 -1.60574 1.6355 0
M  V30 4735 C 471.999 -1.52557 0.508234 0
M  V30 4736 O 473.189 -1.56047 0.774262 0
M  V30 4737 C 470.321 -3.00211 1.61512 0
M  V30 4738 H 471.514 -1.4881 2.60376 0
M  V30 4739 H 469.067 -0.742772 1.37523 0
M  V30 4740 H 469.802 -3.17471 0.662009 0
M  V30 4741 H 469.587 -3.07439 2.43359 0
M  V30 4742 H 471.077 -3.79134 1.75064 0
M  V30 4743 N 471.514 -1.37532 -0.769588 0
M  V30 4744 C 472.444 -1.36172 -1.89682 0
M  V30 4745 C 473.425 -0.23001 -1.68538 0
M  V30 4746 O 474.61 -0.43069 -1.89364 0
M  V30 4747 C 471.74 -1.1701 -3.26995 0
M  V30 4748 C 470.694 -2.27216 -3.62708 0
M  V30 4749 C 470.02 -1.93174 -4.98586 0
M  V30 4750 C 471.32 -3.6941 -3.69234 0
M  V30 4751 H 473.014 -2.30499 -1.91078 0
M  V30 4752 H 470.56 -1.10953 -0.917902 0
M  V30 4753 H 472.513 -1.14688 -4.05493 0
M  V30 4754 H 471.237 -0.191395 -3.26039 0
M  V30 4755 H 469.896 -2.28697 -2.86519 0
M  V30 4756 H 469.544 -0.938281 -4.94171 0
M  V30 4757 H 469.244 -2.66973 -5.23449 0
M  V30 4758 H 470.768 -1.92443 -5.79481 0
M  V30 4759 H 472.182 -3.70047 -4.37879 0
M  V30 4760 H 470.579 -4.4228 -4.05597 0
M  V30 4761 H 471.649 -4.0288 -2.69844 0
M  V30 4762 N 472.992 0.995999 -1.22138 0
M  V30 4763 C 474.403 1.54961 -1.04135 0
M  V30 4764 C 474.754 1.92159 0.396147 0
M  V30 4765 O 473.879 1.74435 1.28069 0
M  V30 4766 C 474.474 2.81581 -1.88408 0
M  V30 4767 C 473.033 3.33396 -1.74712 0
M  V30 4768 C 472.18 2.06509 -1.85066 0
M  V30 4769 H 475.131 0.817436 -1.36028 0
M  V30 4770 H 475.152 3.53822 -1.39966 0
M  V30 4771 H 474.664 2.54476 -2.93025 0
M  V30 4772 H 472.765 3.65416 -0.728159 0
M  V30 4773 H 472.878 4.04208 -2.57202 0
M  V30 4774 H 471.242 2.19925 -1.28472 0
M  V30 4775 H 472.025 1.81804 -2.91208 0
M  V30 4776 N 474.47 1.03057 1.19235 0
M  V30 4777 C 475.716 0.729098 1.89241 0
M  V30 4778 C 476.049 -0.740573 1.79525 0
M  V30 4779 O 475.324 -1.53946 1.18874 0
M  V30 4780 C 475.607 1.18304 3.40112 0
M  V30 4781 C 475.46 2.71406 3.5869 0
M  V30 4782 C 476.779 0.765161 4.33397 0
M  V30 4783 H 473.898 0.266338 0.687192 0
M  V30 4784 H 476.54 1.28079 1.40341 0
M  V30 4785 H 474.69 0.713672 3.81889 0
M  V30 4786 H 476.362 3.26303 3.26074 0
M  V30 4787 H 474.605 3.11717 3.01687 0
M  V30 4788 H 475.276 2.98225 4.64506 0
M  V30 4789 H 477.752 1.16889 3.99345 0
M  V30 4790 H 476.628 1.11065 5.37546 0
M  V30 4791 H 476.889 -0.332372 4.40849 0
M  V30 4792 N 475.948 -1.35272 0.808662 0
M  V30 4793 C 476.878 -2.32315 0.234981 0
M  V30 4794 C 477.859 -1.57572 -0.64071 0
M  V30 4795 O 479.044 -1.8563 -0.570551 0
M  V30 4796 C 476.174 -3.41801 -0.615601 0
M  V30 4797 C 475.128 -4.27694 0.161767 0
M  V30 4798 C 474.454 -5.28519 -0.810649 0
M  V30 4799 C 475.754 -5.04231 1.36193 0
M  V30 4800 H 477.448 -2.80543 1.04575 0
M  V30 4801 H 474.994 -1.3488 0.504315 0
M  V30 4802 H 476.947 -4.08693 -1.02702 0
M  V30 4803 H 475.671 -2.92186 -1.45928 0
M  V30 4804 H 474.33 -3.62384 0.554382 0
M  V30 4805 H 473.978 -4.75171 -1.64988 0
M  V30 4806 H 473.678 -5.8686 -0.294822 0
M  V30 4807 H 475.202 -5.98283 -1.22023 0
M  V30 4808 H 476.616 -5.64058 1.02528 0
M  V30 4809 H 475.013 -5.72077 1.81239 0
M  V30 4810 H 476.083 -4.34753 2.14751 0
M  V30 4811 N 477.426 -0.562348 -1.47226 0
M  V30 4812 C 478.373 0.182461 -2.30078 0
M  V30 4813 C 479.343 0.903503 -1.39377 0
M  V30 4814 O 480.528 0.898188 -1.68337 0
M  V30 4815 C 477.668 1.20322 -3.23445 0
M  V30 4816 C 476.781 0.487717 -4.29238 0
M  V30 4817 C 475.916 1.49422 -5.09752 0
M  V30 4818 C 474.955 0.763976 -6.07314 0
M  V30 4819 N 474.092 1.71755 -6.80768 0
M  V30 4820 H 478.932 -0.530169 -2.93246 0
M  V30 4821 H 476.469 -0.273276 -1.44539 0
M  V30 4822 H 478.427 1.80768 -3.76004 0
M  V30 4823 H 477.057 1.88382 -2.6213 0
M  V30 4824 H 476.109 -0.231374 -3.79696 0
M  V30 4825 H 477.421 -0.0841003 -4.98729 0
M  V30 4826 H 476.575 2.17206 -5.66486 0
M  V30 4827 H 475.314 2.09995 -4.40174 0
M  V30 4828 H 474.319 0.0722344 -5.49753 0
M  V30 4829 H 475.544 0.16391 -6.78902 0
M  V30 4830 H 473.49 2.31177 -6.13916 0
M  V30 4831 H 473.407 1.19802 -7.46447 0
M  V30 4832 H 474.675 2.38638 -7.42073 0
M  V30 4833 N 478.904 1.54736 -0.299062 0
M  V30 4834 C 480.181 1.92187 0.363802 0
M  V30 4835 C 480.561 1.22607 1.71845 0
M  V30 4836 O 479.909 0.361141 2.25628 0
M  V30 4837 C 480.119 3.45678 0.480377 0
M  V30 4838 C 481.467 4.17885 0.752147 0
M  V30 4839 O 482.491 3.51702 0.564264 0
M  V30 4840 O 481.35 5.35048 1.11294 0
M  V30 4841 H 478.444 0.801681 0.203066 0
M  V30 4842 H 480.99 1.66115 -0.346978 0
M  V30 4843 H 479.762 3.88443 -0.471999 0
M  V30 4844 H 479.385 3.77779 1.2397 0
M  V30 4845 N 480.382 0.0267497 1.57577 0
M  V30 4846 C 481.312 -0.954308 2.13108 0
M  V30 4847 C 482.293 -1.34088 1.04663 0
M  V30 4848 O 483.478 -1.41992 1.32484 0
M  V30 4849 C 480.608 -2.23744 2.65624 0
M  V30 4850 C 479.562 -1.99168 3.78835 0
M  V30 4851 C 478.888 -3.33726 4.17769 0
M  V30 4852 C 480.188 -1.33277 5.0501 0
M  V30 4853 H 481.882 -0.491848 2.95332 0
M  V30 4854 H 479.428 -0.23514 1.42067 0
M  V30 4855 H 481.381 -2.92754 3.03106 0
M  V30 4856 H 480.105 -2.72151 1.80558 0
M  V30 4857 H 478.764 -1.32577 3.41788 0
M  V30 4858 H 478.412 -3.79888 3.29688 0
M  V30 4859 H 478.112 -3.18089 4.94058 0
M  V30 4860 H 479.636 -4.04008 4.57832 0
M  V30 4861 H 481.05 -1.92283 5.40093 0
M  V30 4862 H 479.447 -1.28045 5.8628 0
M  V30 4863 H 480.517 -0.305411 4.83937 0
M  V30 4864 N 481.861 -1.55662 -0.24637 0
M  V30 4865 C 482.808 -1.90361 -1.30504 0
M  V30 4866 C 483.778 -0.757905 -1.47801 0
M  V30 4867 O 484.963 -1.01161 -1.61775 0
M  V30 4868 C 482.103 -2.2042 -2.65535 0
M  V30 4869 C 481.216 -3.47799 -2.56242 0
M  V30 4870 C 480.351 -3.67426 -3.8363 0
M  V30 4871 C 479.39 -4.88403 -3.68956 0
M  V30 4872 N 478.527 -5.04548 -4.88237 0
M  V30 4873 H 483.367 -2.80645 -1.00213 0
M  V30 4874 H 480.904 -1.38924 -0.483577 0
M  V30 4875 H 482.862 -2.35853 -3.44135 0
M  V30 4876 H 481.492 -1.3334 -2.93973 0
M  V30 4877 H 480.544 -3.40694 -1.69208 0
M  V30 4878 H 481.856 -4.36544 -2.4131 0
M  V30 4879 H 481.01 -3.82821 -4.70673 0
M  V30 4880 H 479.749 -2.76914 -4.01459 0
M  V30 4881 H 478.754 -4.72984 -2.80296 0
M  V30 4882 H 479.979 -5.80375 -3.52621 0
M  V30 4883 H 477.925 -4.16974 -5.06427 0
M  V30 4884 H 477.842 -5.87384 -4.75937 0
M  V30 4885 H 479.11 -5.24355 -5.76777 0
M  V30 4886 N 483.339 0.512053 -1.4905 0
M  V30 4887 C 484.585 1.26874 -1.58212 0
M  V30 4888 C 484.918 1.9241 -0.263073 0
M  V30 4889 O 484.193 1.80181 0.732476 0
M  V30 4890 C 484.476 2.34428 -2.73341 0
M  V30 4891 C 484.329 1.73466 -4.15006 0
M  V30 4892 C 485.648 3.36073 -2.84154 0
M  V30 4893 H 482.767 0.459924 -0.575881 0
M  V30 4894 H 485.409 0.568587 -1.81293 0
M  V30 4895 H 483.559 2.94146 -2.53792 0
M  V30 4896 H 485.231 1.17661 -4.46042 0
M  V30 4897 H 483.474 1.03921 -4.21168 0
M  V30 4898 H 484.145 2.51426 -4.91415 0
M  V30 4899 H 486.621 2.86332 -3.01916 0
M  V30 4900 H 485.497 4.08703 -3.66406 0
M  V30 4901 H 485.758 3.97725 -1.93048 0
M  V30 4902 N 484.817 1.37938 0.762283 0
M  V30 4903 C 485.747 1.37176 1.88958 0
M  V30 4904 C 486.728 0.238945 1.68413 0
M  V30 4905 O 487.913 0.440726 1.89133 0
M  V30 4906 C 485.043 1.18742 3.2637 0
M  V30 4907 C 483.997 2.29136 3.61498 0
M  V30 4908 C 483.323 1.95816 4.97554 0
M  V30 4909 C 484.623 3.71363 3.6727 0
M  V30 4910 H 486.317 2.31509 1.89853 0
M  V30 4911 H 483.863 1.11438 0.912005 0
M  V30 4912 H 485.816 1.16837 4.04879 0
M  V30 4913 H 484.54 0.208683 3.25933 0
M  V30 4914 H 483.199 2.30213 2.85303 0
M  V30 4915 H 482.847 0.964475 4.93667 0
M  V30 4916 H 482.547 2.69745 5.22026 0
M  V30 4917 H 484.071 1.95513 5.78452 0
M  V30 4918 H 485.485 3.72364 4.35911 0
M  V30 4919 H 483.882 4.44425 4.03245 0
M  V30 4920 H 484.952 4.04305 2.67704 0
M  V30 4921 N 486.295 -0.989507 1.22664 0
M  V30 4922 C 487.572 -1.70326 0.961688 0
M  V30 4923 C 487.952 -2.04537 -0.522279 0
M  V30 4924 O 487.3 -1.73136 -1.49118 0
M  V30 4925 C 487.51 -2.95135 1.86269 0
M  V30 4926 C 488.858 -3.67842 2.12078 0
M  V30 4927 O 489.882 -3.0515 1.83745 0
M  V30 4928 O 488.741 -4.80644 2.60083 0
M  V30 4929 H 485.835 -0.743589 0.361946 0
M  V30 4930 H 488.381 -1.04555 1.33665 0
M  V30 4931 H 487.153 -2.66382 2.8663 0
M  V30 4932 H 486.776 -3.68645 1.48952 0
M  V30 4933 N 487.773 -1.03688 -1.18687 0
M  V30 4934 C 488.72 -0.624624 -2.22187 0
M  V30 4935 C 489.69 0.365636 -1.62026 0
M  V30 4936 O 490.875 0.260481 -1.89014 0
M  V30 4937 C 488.015 0.0101738 -3.45099 0
M  V30 4938 C 487.128 -1.02709 -4.19613 0
M  V30 4939 C 486.263 -0.361213 -5.2997 0
M  V30 4940 C 485.302 -1.38384 -5.96252 0
M  V30 4941 N 484.439 -0.743196 -6.98155 0
M  V30 4942 H 489.279 -1.51176 -2.56807 0
M  V30 4943 H 486.816 -0.75636 -1.26165 0
M  V30 4944 H 488.774 0.395528 -4.15321 0
M  V30 4945 H 487.404 0.860848 -3.1111 0
M  V30 4946 H 486.456 -1.53043 -3.48256 0
M  V30 4947 H 487.768 -1.80398 -4.65036 0
M  V30 4948 H 486.922 0.0785537 -6.06649 0
M  V30 4949 H 485.661 0.447799 -4.8564 0
M  V30 4950 H 484.666 -1.83378 -5.18317 0
M  V30 4951 H 485.891 -2.19448 -6.42666 0
M  V30 4952 H 483.837 0.0455789 -6.55984 0
M  V30 4953 H 483.754 -1.45784 -7.41811 0
M  V30 4954 H 485.022 -0.327698 -7.78811 0
M  V30 4955 N 489.251 1.34841 -0.815825 0
M  V30 4956 C 490.184 2.27504 -0.178062 0
M  V30 4957 C 491.162 1.48542 0.661373 0
M  V30 4958 O 492.346 1.77779 0.626653 0
M  V30 4959 C 489.473 3.30246 0.752002 0
M  V30 4960 C 488.519 4.26499 -0.00899172 0
M  V30 4961 S 489.352 5.18169 -1.35134 0
M  V30 4962 C 490.508 6.24449 -0.42596 0
M  V30 4963 H 490.741 2.81248 -0.963684 0
M  V30 4964 H 488.274 1.41781 -0.611355 0
M  V30 4965 H 490.232 3.89933 1.28308 0
M  V30 4966 H 488.893 2.75363 1.51109 0
M  V30 4967 H 488.086 4.99146 0.697766 0
M  V30 4968 H 487.688 3.7103 -0.470396 0
M  V30 4969 H 489.98 6.76404 0.385234 0
M  V30 4970 H 490.923 6.99156 -1.1219 0
M  V30 4971 H 491.331 5.64497 -0.0175461 0
M  V30 4972 N 490.729 0.570148 1.46925 0
M  V30 4973 C 491.677 -0.183181 2.31878 0
M  V30 4974 C 492.671 -0.896721 1.43719 0
M  V30 4975 O 493.877 -0.816536 1.60414 0
M  V30 4976 H 490.252 -0.077944 0.74795 0
M  V30 4977 H 492.223 0.552312 2.93244 0
M  V30 4978 C 490.972 -1.19172 3.2664 0
M  V30 4979 H 490.295 -0.652088 3.94446 0
M  V30 4980 H 491.735 -1.68946 3.88887 0
M  V30 4981 C 490.194 -2.24627 2.51086 0
M  V30 4982 O 490.724 -3.31773 2.26472 0
M  V30 4983 N 488.93 -1.98898 2.11867 0
M  V30 4984 H 488.477 -1.11777 2.32086 0
M  V30 4985 H 488.435 -2.6967 1.61634 0
M  V30 4986 N 492.207 -1.54576 0.307264 0
M  V30 4987 C 493.117 -2.27435 -0.57536 0
M  V30 4988 C 494.133 -1.31183 -1.14311 0
M  V30 4989 O 495.309 -1.64175 -1.16656 0
M  V30 4990 C 492.374 -3.00566 -1.72803 0
M  V30 4991 C 491.435 -4.12369 -1.19373 0
M  V30 4992 C 490.668 -4.82003 -2.29147 0
M  V30 4993 O 490.891 -4.51038 -3.49171 0
M  V30 4994 O 489.825 -5.69271 -1.95485 0
M  V30 4995 H 493.651 -3.03696 0.0158558 0
M  V30 4996 H 491.236 -1.49219 0.0735064 0
M  V30 4997 H 493.118 -3.46416 -2.39946 0
M  V30 4998 H 491.793 -2.27195 -2.30574 0
M  V30 4999 H 490.7 -3.70905 -0.487851 0
M  V30 5000 H 492.033 -4.87736 -0.661376 0
M  V30 5001 N 493.685 -0.035106 -1.57561 0
M  V30 5002 C 494.632 0.94474 -2.10578 0
M  V30 5003 C 495.602 1.3192 -1.00927 0
M  V30 5004 O 496.787 1.41147 -1.28382 0
M  V30 5005 C 493.927 2.21982 -2.64231 0
M  V30 5006 C 493.04 1.90128 -3.87911 0
M  V30 5007 C 492.175 3.11975 -4.29936 0
M  V30 5008 C 491.214 2.75968 -5.46359 0
M  V30 5009 N 490.351 3.90459 -5.83512 0
M  V30 5010 H 495.191 0.485717 -2.94015 0
M  V30 5011 H 492.728 0.228143 -1.4532 0
M  V30 5012 H 494.686 2.96572 -2.9343 0
M  V30 5013 H 493.316 2.6549 -1.83616 0
M  V30 5014 H 492.368 1.05755 -3.65404 0
M  V30 5015 H 493.68 1.59613 -4.72573 0
M  V30 5016 H 492.834 3.9488 -4.60603 0
M  V30 5017 H 491.573 3.45657 -3.44053 0
M  V30 5018 H 490.578 1.91478 -5.1538 0
M  V30 5019 H 491.803 2.43497 -6.33945 0
M  V30 5020 H 489.749 4.23971 -5.00584 0
M  V30 5021 H 489.666 3.63588 -6.62827 0
M  V30 5022 H 490.934 4.7405 -6.18787 0
M  V30 5023 N 495.163 1.55791 0.238111 0
M  V30 5024 C 496.409 1.78297 0.966337 0
M  V30 5025 C 496.742 0.601903 1.84637 0
M  V30 5026 O 496.017 -0.399499 1.90353 0
M  V30 5027 C 496.3 3.10758 1.81939 0
M  V30 5028 C 496.153 4.39283 0.966958 0
M  V30 5029 C 497.472 3.39519 2.80027 0
M  V30 5030 H 494.591 0.648654 0.349882 0
M  V30 5031 H 497.233 1.88525 0.236253 0
M  V30 5032 H 495.383 3.02168 2.44185 0
M  V30 5033 H 497.055 4.59873 0.362514 0
M  V30 5034 H 495.298 4.32948 0.271669 0
M  V30 5035 H 495.969 5.28368 1.59784 0
M  V30 5036 H 498.445 3.48128 2.27917 0
M  V30 5037 H 497.321 4.33402 3.36829 0
M  V30 5038 H 497.582 2.60864 3.56934 0
M  V30 5039 N 496.642 -0.504142 1.49319 0
M  V30 5040 C 497.59 -1.62689 1.66238 0
M  V30 5041 C 498.584 -1.6095 0.528349 0
M  V30 5042 O 499.79 -1.65496 0.707887 0
M  V30 5043 H 496.165 -0.539247 0.524134 0
M  V30 5044 H 498.136 -1.45571 2.60484 0
M  V30 5045 C 496.885 -3.00841 1.74328 0
M  V30 5046 H 496.208 -3.02884 2.60963 0
M  V30 5047 H 497.648 -3.78945 1.90202 0
M  V30 5048 C 496.107 -3.33355 0.487416 0
M  V30 5049 O 496.637 -3.99819 -0.388294 0
M  V30 5050 N 494.843 -2.88469 0.351306 0
M  V30 5051 H 494.39 -2.34557 1.06492 0
M  V30 5052 H 494.348 -3.10591 -0.487899 0
M  V30 5053 N 498.12 -1.38341 -0.754957 0
M  V30 5054 C 499.05 -1.38176 -1.88227 0
M  V30 5055 C 500.031 -0.247873 -1.68284 0
M  V30 5056 O 501.216 -0.45075 -1.88896 0
M  V30 5057 C 498.346 -1.20471 -3.25736 0
M  V30 5058 C 497.3 -2.3105 -3.60278 0
M  V30 5059 C 496.626 -1.98452 -4.96509 0
M  V30 5060 C 497.926 -3.73305 -3.65295 0
M  V30 5061 H 499.62 -2.32512 -1.88622 0
M  V30 5062 H 497.166 -1.1192 -0.906082 0
M  V30 5063 H 499.119 -1.18982 -4.04254 0
M  V30 5064 H 497.843 -0.225965 -3.25817 0
M  V30 5065 H 496.502 -2.31723 -2.84078 0
M  V30 5066 H 496.15 -0.990641 -4.93148 0
M  V30 5067 H 495.85 -2.7251 -5.20588 0
M  V30 5068 H 497.374 -1.98578 -5.77407 0
M  V30 5069 H 498.788 -3.7467 -4.3393 0
M  V30 5070 H 497.185 -4.46557 -4.00883 0
M  V30 5071 H 498.255 -4.05719 -2.65556 0
M  V30 5072 N 499.598 0.982988 -1.23187 0
M  V30 5073 C 500.548 2.05962 -0.977942 0
M  V30 5074 C 501.532 1.60725 0.0751148 0
M  V30 5075 O 502.724 1.76471 -0.136683 0
M  V30 5076 C 499.853 3.38564 -0.568276 0
M  V30 5077 C 498.939 3.90407 -1.6566 0
M  V30 5078 N 499.33 4.15359 -2.88635 0
M  V30 5079 C 497.628 4.18915 -1.53058 0
M  V30 5080 C 498.329 4.57642 -3.5908 0
M  V30 5081 N 497.305 4.6192 -2.86584 0
M  V30 5082 H 501.107 2.23208 -1.91195 0
M  V30 5083 H 498.621 1.16555 -1.13087 0
M  V30 5084 H 500.618 4.15276 -0.36764 0
M  V30 5085 H 499.278 3.22712 0.358713 0
M  V30 5086 H 500.289 4.03258 -3.24966 0
M  V30 5087 H 496.966 4.12081 -0.670506 0
M  V30 5088 H 498.356 4.85488 -4.6449 0
M  V30 5089 N 501.076 1.04316 1.18135 0
M  V30 5090 C 502.324 0.746542 1.87806 0
M  V30 5091 C 502.645 -0.728082 1.80898 0
M  V30 5092 O 501.915 -1.52554 1.22899 0
M  V30 5093 H 500.495 0.273157 0.695265 0
M  V30 5094 H 503.157 1.32044 1.43354 0
M  V30 5095 H 502.253 1.05362 2.93778 0
M  V30 5096 N 502.554 -1.34406 0.822964 0
M  V30 5097 C 503.802 -1.97892 0.410245 0
M  V30 5098 C 504.123 -1.65567 -1.03017 0
M  V30 5099 O 503.393 -0.94642 -1.71522 0
M  V30 5100 H 501.973 -0.732049 0.148707 0
M  V30 5101 H 504.635 -1.64043 1.05242 0
M  V30 5102 H 503.731 -3.07579 0.529284 0
M  V30 5103 N 504.032 -0.577932 -1.46621 0
M  V30 5104 C 504.995 0.147805 -2.28723 0
M  V30 5105 C 505.995 0.823325 -1.38123 0
M  V30 5106 O 507.185 0.676011 -1.60548 0
M  V30 5107 C 504.317 1.21853 -3.18378 0
M  V30 5108 H 505.51 -0.573654 -2.94362 0
M  V30 5109 H 503.063 -0.335703 -1.52652 0
M  V30 5110 H 503.798 1.97173 -2.57475 0
M  V30 5111 H 503.583 0.738714 -3.85078 0
M  V30 5112 H 505.073 1.72768 -3.80186 0
M  V30 5113 N 505.51 1.54411 -0.315457 0
M  V30 5114 C 506.759 1.99599 0.290395 0
M  V30 5115 C 507.072 1.20746 1.53882 0
M  V30 5116 O 508.278 1.56272 2.22017 0
M  V30 5117 C 506.734 3.5539 0.56797 0
M  V30 5118 C 506.342 4.43068 -0.662945 0
M  V30 5119 C 508.086 4.09067 1.13422 0
M  V30 5120 C 505.993 5.90317 -0.357722 0
M  V30 5121 H 504.923 0.745592 0.112286 0
M  V30 5122 H 507.574 1.78477 -0.426418 0
M  V30 5123 H 505.956 3.72468 1.34476 0
M  V30 5124 H 507.13 4.37765 -1.43869 0
M  V30 5125 H 505.445 4.00238 -1.14884 0
M  V30 5126 H 508.042 5.16663 1.37707 0
M  V30 5127 H 508.385 3.60552 2.08106 0
M  V30 5128 H 508.918 3.95589 0.418805 0
M  V30 5129 H 505.657 6.4301 -1.27351 0
M  V30 5130 H 505.177 5.98592 0.380472 0
M  V30 5131 H 506.856 6.4699 0.0354284 0
M  V30 5132 N 506.988 0.0434614 1.5754 0
M  V30 5133 C 507.951 -0.918696 2.09982 0
M  V30 5134 C 508.951 -1.24488 1.01781 0
M  V30 5135 O 510.141 -1.18284 1.27885 0
M  V30 5136 C 507.273 -2.23093 2.57764 0
M  V30 5137 H 508.466 -0.464229 2.96285 0
M  V30 5138 H 506.019 -0.204818 1.54952 0
M  V30 5139 H 506.754 -2.73137 1.74832 0
M  V30 5140 H 506.539 -2.00724 3.36827 0
M  V30 5141 H 508.029 -2.92028 2.98512 0
M  V30 5142 N 508.466 -1.55915 -0.229846 0
M  V30 5143 C 509.396 -1.94754 -1.28815 0
M  V30 5144 C 510.377 -0.814657 -1.49323 0
M  V30 5145 O 511.562 -1.07631 -1.61645 0
M  V30 5146 C 508.692 -2.25705 -2.63959 0
M  V30 5147 C 507.646 -3.41406 -2.5812 0
M  V30 5148 C 506.972 -3.57941 -3.97218 0
M  V30 5149 C 508.272 -4.76616 -2.13623 0
M  V30 5150 H 509.966 -2.83404 -0.965547 0
M  V30 5151 H 507.512 -1.36353 -0.463028 0
M  V30 5152 H 509.465 -2.51467 -3.38146 0
M  V30 5153 H 508.189 -1.339 -2.9789 0
M  V30 5154 H 506.848 -3.1568 -1.86391 0
M  V30 5155 H 506.496 -2.63526 -4.28443 0
M  V30 5156 H 506.196 -4.35757 -3.94195 0
M  V30 5157 H 507.72 -3.86042 -4.73079 0
M  V30 5158 H 509.134 -5.01637 -2.77549 0
M  V30 5159 H 507.531 -5.57655 -2.21677 0
M  V30 5160 H 508.601 -4.7253 -1.08829 0
M  V30 5161 N 509.944 0.496216 -1.49584 0
M  V30 5162 C 511.192 1.24756 -1.58998 0
M  V30 5163 C 511.513 1.92968 -0.280775 0
M  V30 5164 O 510.783 1.82959 0.700198 0
M  V30 5165 H 509.363 0.463471 -0.585836 0
M  V30 5166 H 512.025 0.574678 -1.86235 0
M  V30 5167 H 511.121 2.00895 -2.38847 0
M  V30 5168 N 511.423 1.38739 0.74761 0
M  V30 5169 C 512.373 1.32948 1.85226 0
M  V30 5170 C 513.357 0.212642 1.59489 0
M  V30 5171 O 514.549 0.449121 1.71207 0
M  V30 5172 C 511.678 1.16279 3.23008 0
M  V30 5173 C 510.764 2.32611 3.54617 0
M  V30 5174 N 511.155 3.58065 3.57244 0
M  V30 5175 C 509.453 2.25293 3.84914 0
M  V30 5176 C 510.154 4.34919 3.8629 0
M  V30 5177 N 509.13 3.64348 4.03425 0
M  V30 5178 H 512.932 2.27927 1.85544 0
M  V30 5179 H 510.446 1.32056 0.945253 0
M  V30 5180 H 512.443 1.10214 4.02068 0
M  V30 5181 H 511.103 0.222394 3.23937 0
M  V30 5182 H 512.114 3.91656 3.3886 0
M  V30 5183 H 508.791 1.39446 3.93524 0
M  V30 5184 H 510.181 5.43605 3.94896 0
M  V30 5185 N 512.901 -0.976442 1.23707 0
M  V30 5186 C 514.312 -1.53284 1.06587 0
M  V30 5187 C 514.663 -1.92765 -0.365526 0
M  V30 5188 O 513.788 -1.7645 -1.25277 0
M  V30 5189 C 514.383 -2.78548 1.92864 0
M  V30 5190 C 512.942 -3.30574 1.79994 0
M  V30 5191 C 512.089 -2.03538 1.88328 0
M  V30 5192 H 515.04 -0.795692 1.37311 0
M  V30 5193 H 515.061 -3.5155 1.45577 0
M  V30 5194 H 514.573 -2.49782 2.97037 0
M  V30 5195 H 512.674 -3.64211 0.786202 0
M  V30 5196 H 512.787 -4.00065 2.636 0
M  V30 5197 H 511.151 -2.17853 1.31954 0
M  V30 5198 H 511.934 -1.77149 2.94063 0
M  V30 5199 N 514.379 -1.04941 -1.1758 0
M  V30 5200 C 515.626 -0.757989 -1.87779 0
M  V30 5201 C 515.954 0.714827 -1.80888 0
M  V30 5202 O 515.209 1.53824 -1.20982 0
M  V30 5203 C 515.508 -1.18062 -3.37337 0
M  V30 5204 C 515.174 -2.65521 -3.6443 0
M  V30 5205 C 513.836 -3.05804 -3.71534 0
M  V30 5206 C 516.188 -3.60822 -3.76108 0
M  V30 5207 C 513.516 -4.40256 -3.87803 0
M  V30 5208 C 515.868 -4.95005 -3.93895 0
M  V30 5209 C 514.532 -5.34945 -3.99237 0
M  V30 5210 H 513.802 -0.277368 -0.68713 0
M  V30 5211 H 516.449 -1.31603 -1.39115 0
M  V30 5212 H 514.754 -0.541525 -3.8804 0
M  V30 5213 H 516.451 -0.932368 -3.9001 0
M  V30 5214 H 513.041 -2.33324 -3.59524 0
M  V30 5215 H 517.225 -3.30841 -3.69943 0
M  V30 5216 H 512.481 -4.70707 -3.90186 0
M  V30 5217 H 516.655 -5.68746 -4.01872 0
M  V30 5218 H 514.282 -6.39135 -4.11596 0
M  V30 5219 N 515.857 1.33968 -0.830081 0
M  V30 5220 C 517.105 1.97672 -0.420734 0
M  V30 5221 C 517.426 1.66111 1.02138 0
M  V30 5222 O 516.696 0.955503 1.71017 0
M  V30 5223 H 515.276 0.73125 -0.152587 0
M  V30 5224 H 517.938 1.63483 -1.0611 0
M  V30 5225 H 517.034 3.07294 -0.545588 0
M  V30 5226 N 517.335 0.585699 1.46312 0
M  V30 5227 C 518.575 0.0751432 2.04262 0
M  V30 5228 C 518.939 -1.26201 1.44697 0
M  V30 5229 O 520.14 -1.86198 1.93865 0
M  V30 5230 C 518.411 0.013478 3.57397 0
M  V30 5231 S 519.97 -0.439068 4.36598 0
M  V30 5232 H 516.788 0.0389228 0.709934 0
M  V30 5233 H 519.39 0.778871 1.79315 0
M  V30 5234 H 518.094 0.990558 3.98266 0
M  V30 5235 H 517.625 -0.712927 3.86886 0
M  V30 5236 H 519.64 -1.6932 4.66417 0
M  V30 5237 N 518.813 -1.54241 0.323641 0
M  V30 5238 C 520.038 -2.05452 -0.283605 0
M  V30 5239 C 520.463 -1.19823 -1.44997 0
M  V30 5240 O 519.821 -0.207358 -1.8011 0
M  V30 5241 C 519.869 -3.53823 -0.695795 0
M  V30 5242 O 518.973 -3.71134 -1.79815 0
M  V30 5243 H 518.314 -0.662024 -0.0511917 0
M  V30 5244 H 520.844 -1.99079 0.472073 0
M  V30 5245 H 520.854 -3.96094 -0.978434 0
M  V30 5246 H 519.529 -4.15602 0.157287 0
M  V30 5247 H 518.106 -3.40768 -1.51431 0
M  V30 5248 N 520.291 -0.0518155 -1.57515 0
M  V30 5249 C 521.539 0.620595 -1.92336 0
M  V30 5250 C 521.86 1.71345 -0.930907 0
M  V30 5251 O 521.13 1.95885 0.0241341 0
M  V30 5252 H 519.71 0.232226 -0.709986 0
M  V30 5253 H 522.372 -0.104969 -1.94617 0
M  V30 5254 H 521.468 1.05879 -2.93592 0
M  V30 5255 N 521.769 1.56035 0.221574 0
M  V30 5256 C 522.732 1.91584 1.2581 0
M  V30 5257 C 523.732 0.794425 1.39805 0
M  V30 5258 O 524.922 1.06217 1.38071 0
M  V30 5259 C 522.054 2.16663 2.63192 0
M  V30 5260 H 523.247 2.8429 0.954935 0
M  V30 5261 H 520.8 1.49316 0.461988 0
M  V30 5262 H 521.535 1.26508 2.98607 0
M  V30 5263 H 521.32 2.98358 2.5441 0
M  V30 5264 H 522.81 2.45262 3.37988 0
M  V30 5265 N 523.247 -0.488276 1.49845 0
M  V30 5266 C 524.663 -0.820566 1.3689 0
M  V30 5267 C 524.863 -1.97248 0.411752 0
M  V30 5268 O 523.919 -2.52042 -0.151931 0
M  V30 5269 C 525.232 -1.1488 2.77891 0
M  V30 5270 C 526.78 -1.25626 2.86683 0
M  V30 5271 C 527.255 -1.61772 4.28479 0
M  V30 5272 N 528.746 -1.68797 4.31349 0
M  V30 5273 C 529.481 -1.98235 5.38043 0
M  V30 5274 N 528.977 -2.2581 6.54967 0
M  V30 5275 N 530.77 -1.99593 5.2547 0
M  V30 5276 H 522.921 0.271123 2.10662 0
M  V30 5277 H 525.184 0.058735 0.946179 0
M  V30 5278 H 524.89 -0.375614 3.49688 0
M  V30 5279 H 524.764 -2.08919 3.14058 0
M  V30 5280 H 527.151 -2.02014 2.15114 0
M  V30 5281 H 527.232 -0.296072 2.54081 0
M  V30 5282 H 526.876 -0.859295 5.00578 0
M  V30 5283 H 526.806 -2.58912 4.58554 0
M  V30 5284 H 529.297 -1.49595 3.4703 0
M  V30 5285 H 529.61 -2.47497 7.32096 0
M  V30 5286 H 527.955 -2.23239 6.58171 0
M  V30 5287 H 531.146 -1.77535 4.33127 0
M  V30 5288 H 531.319 -2.222 6.08713 0
M  V30 5289 N 524.725 -1.39134 -0.740242 0
M  V30 5290 C 525.974 -1.35384 -1.49512 0
M  V30 5291 C 526.287 0.04919 -1.95538 0
M  V30 5292 O 527.493 0.209257 -2.70692 0
M  V30 5293 C 525.949 -2.37812 -2.70136 0
M  V30 5294 C 525.557 -3.83804 -2.31081 0
M  V30 5295 C 527.301 -2.4313 -3.47977 0
M  V30 5296 C 525.208 -4.77886 -3.48395 0
M  V30 5297 H 524.138 -0.503297 -0.561434 0
M  V30 5298 H 526.789 -1.64754 -0.807974 0
M  V30 5299 H 525.171 -2.01505 -3.40899 0
M  V30 5300 H 526.345 -4.29123 -1.67898 0
M  V30 5301 H 524.66 -3.81732 -1.66343 0
M  V30 5302 H 527.257 -3.10614 -4.35228 0
M  V30 5303 H 527.6 -1.45423 -3.90074 0
M  V30 5304 H 528.133 -2.78304 -2.84239 0
M  V30 5305 H 524.872 -5.76836 -3.11353 0
M  V30 5306 H 524.392 -4.3725 -4.10576 0
M  V30 5307 H 526.071 -4.96538 -4.148 0
M  V30 5308 N 526.204 0.969867 -1.24223 0
M  V30 5309 C 527.429 1.75289 -1.10853 0
M  V30 5310 C 527.854 1.85091 0.335079 0
M  V30 5311 O 527.212 1.32024 1.24255 0
M  V30 5312 C 527.26 3.15255 -1.75062 0
M  V30 5313 O 526.364 3.99589 -1.01992 0
M  V30 5314 H 525.705 0.538904 -0.387915 0
M  V30 5315 H 528.235 1.21675 -1.64488 0
M  V30 5316 H 528.245 3.65787 -1.80731 0
M  V30 5317 H 526.92 3.07436 -2.801 0
M  V30 5318 H 525.497 3.58077 -1.04094 0
M  V30 5319 N 527.682 1.05563 1.17022 0
M  V30 5320 C 528.93 0.76642 1.87004 0
M  V30 5321 C 529.251 -0.708854 1.8166 0
M  V30 5322 O 528.521 -1.51242 1.2451 0
M  V30 5323 H 527.101 0.280516 0.692329 0
M  V30 5324 H 529.763 1.33557 1.41945 0
M  V30 5325 H 528.859 1.08472 2.92644 0
M  V30 5326 N 529.16 -1.33526 0.837174 0
M  V30 5327 C 530.388 -2.02047 0.445494 0
M  V30 5328 C 530.803 -1.62995 -0.952788 0
M  V30 5329 O 530.16 -0.842447 -1.61892 0
M  V30 5330 C 530.211 -3.57221 0.554577 0
M  V30 5331 O 529.932 -3.94863 1.89776 0
M  V30 5332 C 531.433 -4.43012 0.159634 0
M  V30 5333 H 528.653 -0.647221 0.177048 0
M  V30 5334 H 531.197 -1.70492 1.12928 0
M  V30 5335 H 529.352 -3.87315 -0.0812781 0
M  V30 5336 H 529.766 -4.89569 1.88208 0
M  V30 5337 H 531.24 -5.51253 0.28701 0
M  V30 5338 H 531.717 -4.29916 -0.898289 0
M  V30 5339 H 532.323 -4.18274 0.769855 0
M  V30 5340 N 530.638 -0.59345 -1.46 0
M  V30 5341 C 531.568 0.121192 -2.33185 0
M  V30 5342 C 532.549 0.872977 -1.4599 0
M  V30 5343 O 533.734 0.846321 -1.74789 0
M  V30 5344 C 530.864 1.12844 -3.28456 0
M  V30 5345 C 529.818 0.4908 -4.25177 0
M  V30 5346 C 529.144 1.60529 -5.10034 0
M  V30 5347 C 530.444 -0.578949 -5.19081 0
M  V30 5348 H 532.138 -0.606767 -2.93187 0
M  V30 5349 H 529.684 -0.293242 -1.40983 0
M  V30 5350 H 531.637 1.63684 -3.88311 0
M  V30 5351 H 530.361 1.88681 -2.66584 0
M  V30 5352 H 529.02 0.00339328 -3.666 0
M  V30 5353 H 528.668 2.35359 -4.44539 0
M  V30 5354 H 528.368 1.18422 -5.75543 0
M  V30 5355 H 529.892 2.11623 -5.72755 0
M  V30 5356 H 531.306 -0.155199 -5.7309 0
M  V30 5357 H 529.703 -0.920947 -5.92991 0
M  V30 5358 H 530.773 -1.46109 -4.62364 0
M  V30 5359 N 532.116 1.54067 -0.331816 0
M  V30 5360 C 533.046 2.27569 0.522932 0
M  V30 5361 C 534.027 1.28679 1.11247 0
M  V30 5362 O 535.212 1.57504 1.13605 0
M  V30 5363 C 532.342 3.0397 1.67987 0
M  V30 5364 C 531.296 4.10267 1.21924 0
M  V30 5365 C 530.622 4.74555 2.46377 0
M  V30 5366 C 531.922 5.21268 0.32815 0
M  V30 5367 H 533.616 2.99264 -0.0901977 0
M  V30 5368 H 531.162 1.4393 -0.044821 0
M  V30 5369 H 533.115 3.54123 2.28418 0
M  V30 5370 H 531.839 2.29906 2.31971 0
M  V30 5371 H 530.498 3.61009 0.637809 0
M  V30 5372 H 530.146 3.97098 3.08743 0
M  V30 5373 H 529.846 5.46363 2.16243 0
M  V30 5374 H 531.37 5.27487 3.07555 0
M  V30 5375 H 532.784 5.67128 0.838978 0
M  V30 5376 H 531.181 5.99982 0.119228 0
M  V30 5377 H 532.251 4.80673 -0.638839 0
M  V30 5378 N 533.594 0.0601682 1.57485 0
M  V30 5379 C 534.542 -0.928899 2.13247 0
M  V30 5380 C 535.536 -1.31616 1.06647 0
M  V30 5381 O 536.742 -1.29476 1.25043 0
M  V30 5382 H 533.117 -0.317455 0.681708 0
M  V30 5383 H 535.088 -0.433566 2.95233 0
M  V30 5384 C 533.837 -2.19121 2.69965 0
M  V30 5385 H 533.16 -1.90204 3.51657 0
M  V30 5386 H 534.6 -2.86465 3.12592 0
M  V30 5387 C 533.059 -2.94195 1.64168 0
M  V30 5388 O 533.589 -3.87468 1.05978 0
M  V30 5389 N 531.795 -2.57089 1.35476 0
M  V30 5390 H 531.342 -1.81314 1.82984 0
M  V30 5391 H 531.3 -3.07624 0.649196 0
M  V30 5392 N 535.072 -1.5615 -0.213296 0
M  V30 5393 C 536.318 -1.79812 -0.937849 0
M  V30 5394 C 536.651 -0.631201 -1.83656 0
M  V30 5395 O 535.926 0.369165 -1.90964 0
M  V30 5396 C 536.209 -3.13613 -1.76972 0
M  V30 5397 C 536.062 -4.40766 -0.89695 0
M  V30 5398 C 537.381 -3.43931 -2.7459 0
M  V30 5399 H 534.5 -0.654138 -0.339518 0
M  V30 5400 H 537.142 -1.88877 -0.20623 0
M  V30 5401 H 535.292 -3.06015 -2.39347 0
M  V30 5402 H 536.964 -4.60392 -0.289306 0
M  V30 5403 H 535.207 -4.33326 -0.202756 0
M  V30 5404 H 535.878 -5.30843 -1.51358 0
M  V30 5405 H 538.354 -3.5171 -2.22349 0
M  V30 5406 H 537.23 -4.38706 -3.29891 0
M  V30 5407 H 537.491 -2.6651 -3.52739 0
M  V30 5408 N 536.55 0.480323 -1.50102 0
M  V30 5409 C 537.483 1.59789 -1.62919 0
M  V30 5410 C 538.461 1.55429 -0.477557 0
M  V30 5411 O 539.645 1.75186 -0.695851 0
M  V30 5412 C 536.772 2.98351 -1.60325 0
M  V30 5413 C 535.818 3.20899 -2.80938 0
M  V30 5414 S 536.651 3.01791 -4.4236 0
M  V30 5415 C 537.807 4.42712 -4.42444 0
M  V30 5416 H 538.04 1.48676 -2.57454 0
M  V30 5417 H 535.573 0.666996 -1.3925 0
M  V30 5418 H 537.531 3.7824 -1.59514 0
M  V30 5419 H 536.192 3.06862 -0.670419 0
M  V30 5420 H 535.385 4.22102 -2.75401 0
M  V30 5421 H 534.987 2.48768 -2.79268 0
M  V30 5422 H 537.279 5.3518 -4.15438 0
M  V30 5423 H 538.222 4.53294 -5.43995 0
M  V30 5424 H 538.63 4.24359 -3.72263 0
M  V30 5425 N 538.028 1.39524 0.732853 0
M  V30 5426 C 538.975 1.38416 1.84688 0
M  V30 5427 C 539.945 0.243539 1.64305 0
M  V30 5428 O 541.13 0.438979 1.85681 0
M  V30 5429 C 538.27 1.23555 3.22224 0
M  V30 5430 C 537.383 2.47179 3.54298 0
M  V30 5431 C 536.518 2.2489 4.81246 0
M  V30 5432 C 535.557 3.44178 5.0617 0
M  V30 5433 N 534.694 3.21192 6.24323 0
M  V30 5434 H 539.534 2.33645 1.84971 0
M  V30 5435 H 537.071 1.16059 0.903804 0
M  V30 5436 H 539.029 1.12949 4.0162 0
M  V30 5437 H 537.659 0.31954 3.21215 0
M  V30 5438 H 536.711 2.68379 2.69587 0
M  V30 5439 H 538.023 3.36022 3.68633 0
M  V30 5440 H 537.177 2.11538 5.68627 0
M  V30 5441 H 535.916 1.33443 4.69089 0
M  V30 5442 H 534.921 3.58025 4.17251 0
M  V30 5443 H 536.146 4.36528 5.20212 0
M  V30 5444 H 534.092 2.32413 6.1345 0
M  V30 5445 H 534.009 4.03594 6.39256 0
M  V30 5446 H 535.277 3.1154 7.14537 0
M  V30 5447 N 539.506 -0.963266 1.24736 0
M  V30 5448 C 540.438 -2.06162 1.0015 0
M  V30 5449 C 541.451 -1.62771 -0.0305905 0
M  V30 5450 O 542.64 -1.77296 0.206966 0
M  V30 5451 C 539.74 -3.35333 0.490385 0
M  V30 5452 C 538.913 -4.07609 1.58663 0
M  V30 5453 C 537.972 -5.15052 1.0774 0
M  V30 5454 O 536.998 -5.4098 1.77002 0
M  V30 5455 N 538.2 -5.80436 -0.0858605 0
M  V30 5456 H 540.965 -2.27825 1.94719 0
M  V30 5457 H 538.526 -1.13121 1.15825 0
M  V30 5458 H 540.518 -4.04477 0.134371 0
M  V30 5459 H 539.088 -3.10507 -0.361155 0
M  V30 5460 H 538.308 -3.32681 2.11463 0
M  V30 5461 H 539.596 -4.52656 2.32336 0
M  V30 5462 H 538.994 -5.6178 -0.664806 0
M  V30 5463 H 537.551 -6.50674 -0.382981 0
M  V30 5464 N 540.985 -1.06182 -1.16461 0
M  V30 5465 C 541.933 -0.665716 -2.2287 0
M  V30 5466 C 542.927 0.317822 -1.66392 0
M  V30 5467 O 544.133 0.182807 -1.79069 0
M  V30 5468 H 540.508 -0.197148 -0.725697 0
M  V30 5469 H 542.479 -1.57307 -2.53569 0
M  V30 5470 C 541.228 -0.0669803 -3.47635 0
M  V30 5471 H 540.551 -0.814899 -3.91407 0
M  V30 5472 H 541.991 0.172669 -4.23648 0
M  V30 5473 C 540.45 1.18913 -3.15216 0
M  V30 5474 O 540.98 2.27723 -3.30916 0
M  V30 5475 N 539.186 1.09066 -2.69357 0
M  V30 5476 H 538.733 0.20518 -2.56782 0
M  V30 5477 H 538.691 1.93195 -2.48039 0
M  V30 5478 N 542.463 1.3308 -0.844243 0
M  V30 5479 C 543.711 1.97215 -0.441676 0
M  V30 5480 C 544.032 1.67185 1.0037 0
M  V30 5481 O 543.302 0.973588 1.69994 0
M  V30 5482 H 541.882 0.72959 -0.160335 0
M  V30 5483 H 544.544 1.62348 -1.07838 0
M  V30 5484 H 543.64 3.06698 -0.57815 0
M  V30 5485 N 543.941 0.601185 1.45683 0
M  V30 5486 C 545.189 0.0936957 2.01883 0
M  V30 5487 C 545.51 -1.2779 1.47291 0
M  V30 5488 O 544.78 -1.84279 0.664691 0
M  V30 5489 H 543.36 0.0316466 0.746329 0
M  V30 5490 H 546.022 0.781137 1.78562 0
M  V30 5491 H 545.118 0.0386297 3.12076 0
M  V30 5492 N 545.419 -1.53889 0.339982 0
M  V30 5493 C 546.647 -2.05271 -0.259114 0
M  V30 5494 C 547.062 -1.21517 -1.44496 0
M  V30 5495 O 546.419 -0.24966 -1.80784 0
M  V30 5496 C 546.47 -3.55092 -0.677634 0
M  V30 5497 O 546.191 -4.35667 0.461051 0
M  V30 5498 C 547.692 -4.22631 -1.33782 0
M  V30 5499 H 544.912 -0.669085 -0.0506566 0
M  V30 5500 H 547.456 -1.9852 0.490935 0
M  V30 5501 H 545.611 -3.62077 -1.37763 0
M  V30 5502 H 546.025 -5.24343 0.128144 0
M  V30 5503 H 547.499 -5.28861 -1.58145 0
M  V30 5504 H 547.976 -3.74758 -2.29027 0
M  V30 5505 H 548.582 -4.19829 -0.679957 0
M  V30 5506 N 546.897 -0.0685191 -1.57451 0
M  V30 5507 C 548.144 0.601348 -1.93365 0
M  V30 5508 C 548.472 1.69816 -0.948294 0
M  V30 5509 O 547.727 1.95666 0.0366199 0
M  V30 5510 C 548.026 1.22051 -3.35914 0
M  V30 5511 C 547.692 0.250165 -4.50205 0
M  V30 5512 C 546.354 -0.0167954 -4.81197 0
M  V30 5513 C 548.706 -0.413867 -5.19554 0
M  V30 5514 C 546.034 -0.95493 -5.78876 0
M  V30 5515 C 548.386 -1.3403 -6.18238 0
M  V30 5516 C 547.05 -1.61576 -6.47649 0
M  V30 5517 H 546.32 0.220049 -0.707573 0
M  V30 5518 H 548.967 -0.138697 -1.90997 0
M  V30 5519 H 547.272 2.03622 -3.34732 0
M  V30 5520 H 548.969 1.74605 -3.6099 0
M  V30 5521 H 545.559 0.468421 -4.26033 0
M  V30 5522 H 549.743 -0.220733 -4.95809 0
M  V30 5523 H 544.999 -1.17563 -5.99991 0
M  V30 5524 H 549.173 -1.86081 -6.71079 0
M  V30 5525 H 546.8 -2.34431 -7.2315 0
M  V30 5526 N 548.375 1.56261 0.205012 0
M  V30 5527 C 549.623 1.79684 0.925096 0
M  V30 5528 C 549.944 0.63989 1.84202 0
M  V30 5529 O 549.214 -0.342345 1.92885 0
M  V30 5530 H 547.794 0.662774 0.344587 0
M  V30 5531 H 550.456 1.93734 0.212899 0
M  V30 5532 H 549.552 2.72467 1.52211 0
M  V30 5533 N 549.853 -0.472356 1.50355 0
M  V30 5534 C 550.783 -1.57859 1.72055 0
M  V30 5535 C 551.764 -1.60283 0.569505 0
M  V30 5536 O 552.949 -1.7657 0.808503 0
M  V30 5537 C 550.079 -2.96191 1.81351 0
M  V30 5538 C 549.033 -3.08633 2.96529 0
M  V30 5539 C 548.359 -4.486 2.90968 0
M  V30 5540 C 549.659 -2.85969 4.37057 0
M  V30 5541 H 551.353 -1.39953 2.64676 0
M  V30 5542 H 548.899 -0.671846 1.27367 0
M  V30 5543 H 550.852 -3.73507 1.95117 0
M  V30 5544 H 549.576 -3.15251 0.853502 0
M  V30 5545 H 548.235 -2.33749 2.82413 0
M  V30 5546 H 547.883 -4.64577 1.92815 0
M  V30 5547 H 547.583 -4.57861 3.68289 0
M  V30 5548 H 549.107 -5.27938 3.0678 0
M  V30 5549 H 550.521 -3.53036 4.51706 0
M  V30 5550 H 548.918 -3.06677 5.15819 0
M  V30 5551 H 549.988 -1.81838 4.49514 0
M  V30 5552 N 551.331 -1.39911 -0.725443 0
M  V30 5553 C 552.556 -1.41137 -1.5197 0
M  V30 5554 C 552.981 -0.010262 -1.88097 0
M  V30 5555 O 552.339 0.979184 -1.52583 0
M  V30 5556 C 552.387 -2.2994 -2.77777 0
M  V30 5557 O 551.491 -1.73586 -3.74088 0
M  V30 5558 H 550.832 -0.480219 -0.458569 0
M  V30 5559 H 553.362 -1.84023 -0.894249 0
M  V30 5560 H 553.372 -2.44785 -3.26411 0
M  V30 5561 H 552.047 -3.31759 -2.50816 0
M  V30 5562 H 550.624 -1.68035 -3.32894 0
M  V30 5563 N 552.809 0.956637 -1.25245 0
M  V30 5564 C 554.037 1.73571 -1.12608 0
M  V30 5565 C 554.452 1.86063 0.320324 0
M  V30 5566 O 553.809 1.35691 1.22042 0
M  V30 5567 C 553.86 3.15053 -1.77268 0
M  V30 5568 O 553.581 3.03174 -3.16255 0
M  V30 5569 C 555.082 4.09248 -1.70386 0
M  V30 5570 H 552.302 0.543955 -0.392879 0
M  V30 5571 H 554.846 1.20031 -1.65568 0
M  V30 5572 H 553.001 3.65543 -1.28284 0
M  V30 5573 H 553.415 3.9241 -3.48015 0
M  V30 5574 H 554.889 5.06138 -2.20291 0
M  V30 5575 H 555.366 4.34102 -0.667239 0
M  V30 5576 H 555.972 3.64672 -2.18849 0
M  V30 5577 N 554.287 1.06798 1.15896 0
M  V30 5578 C 555.22 0.627503 2.19403 0
M  V30 5579 C 556.198 -0.352352 1.58736 0
M  V30 5580 O 557.382 -0.260111 1.86697 0
M  V30 5581 C 554.509 -0.079356 3.38607 0
M  V30 5582 C 553.555 0.858057 4.17779 0
M  V30 5583 S 554.388 2.35605 4.80885 0
M  V30 5584 C 555.544 1.66083 6.03463 0
M  V30 5585 H 555.777 1.50441 2.56427 0
M  V30 5586 H 553.31 0.881427 1.26768 0
M  V30 5587 H 555.268 -0.48095 4.07673 0
M  V30 5588 H 553.929 -0.932524 2.99938 0
M  V30 5589 H 553.122 0.310108 5.03045 0
M  V30 5590 H 552.724 1.19977 3.54234 0
M  V30 5591 H 555.016 0.969337 6.7053 0
M  V30 5592 H 555.959 2.49159 6.62816 0
M  V30 5593 H 556.367 1.14122 5.52844 0
M  V30 5594 N 555.766 -1.3263 0.851289 0
M  V30 5595 C 557.006 -1.99174 0.459266 0
M  V30 5596 C 557.37 -1.65913 -0.966273 0
M  V30 5597 O 558.571 -2.2552 -1.46267 0
M  V30 5598 C 556.842 -3.50721 0.687698 0
M  V30 5599 S 558.401 -4.37039 0.392746 0
M  V30 5600 H 555.219 -0.689832 0.172199 0
M  V30 5601 H 557.821 -1.61395 1.10327 0
M  V30 5602 H 556.525 -3.72417 1.72435 0
M  V30 5603 H 556.056 -3.93389 0.0299949 0
M  V30 5604 H 558.071 -4.8999 -0.782578 0
M  V30 5605 N 557.244 -0.608902 -1.45362 0
M  V30 5606 C 558.493 -0.10218 -2.01441 0
M  V30 5607 C 558.806 1.27546 -1.48295 0
M  V30 5608 O 560.012 1.87498 -1.96359 0
M  V30 5609 C 558.468 -0.131985 -3.59658 0
M  V30 5610 C 558.076 -1.50956 -4.21801 0
M  V30 5611 C 559.82 0.319427 -4.23296 0
M  V30 5612 C 557.727 -1.49568 -5.72174 0
M  V30 5613 H 556.657 -0.0344314 -0.753213 0
M  V30 5614 H 559.308 -0.764426 -1.6682 0
M  V30 5615 H 557.69 0.596939 -3.91475 0
M  V30 5616 H 558.864 -2.26029 -4.01556 0
M  V30 5617 H 557.179 -1.90318 -3.70362 0
M  V30 5618 H 559.776 0.349013 -5.3356 0
M  V30 5619 H 560.119 1.34237 -3.94064 0
M  V30 5620 H 560.652 -0.356273 -3.96201 0
M  V30 5621 H 557.391 -2.49626 -6.06108 0
M  V30 5622 H 556.911 -0.787542 -5.94607 0
M  V30 5623 H 558.59 -1.21989 -6.35396 0
M  V30 5624 N 558.722 1.53707 -0.348139 0
M  V30 5625 C 559.97 2.00591 0.246478 0
M  V30 5626 C 560.291 1.23753 1.50699 0
M  V30 5627 O 559.561 0.345964 1.92821 0
M  V30 5628 H 558.141 0.741053 0.0940679 0
M  V30 5629 H 560.803 1.89139 -0.470354 0
M  V30 5630 H 559.899 3.08297 0.485714 0
M  V30 5631 N 560.2 0.0768682 1.57412 0
M  V30 5632 C 561.13 -0.886026 2.16037 0
M  V30 5633 C 562.111 -1.30691 1.08876 0
M  V30 5634 O 563.296 -1.37705 1.36934 0
M  V30 5635 C 560.426 -2.1518 2.72608 0
M  V30 5636 C 559.38 -1.87015 3.8498 0
M  V30 5637 C 558.706 -3.20266 4.28175 0
M  V30 5638 C 560.006 -1.17143 5.08994 0
M  V30 5639 H 561.7 -0.397642 2.96748 0
M  V30 5640 H 559.246 -0.189823 1.42743 0
M  V30 5641 H 561.199 -2.82962 3.12266 0
M  V30 5642 H 559.923 -2.66269 1.89125 0
M  V30 5643 H 558.582 -1.21636 3.45833 0
M  V30 5644 H 558.23 -3.69207 3.41607 0
M  V30 5645 H 557.93 -3.0221 5.03927 0
M  V30 5646 H 559.454 -3.89237 4.70454 0
M  V30 5647 H 560.868 -1.75003 5.45937 0
M  V30 5648 H 559.265 -1.09328 5.90057 0
M  V30 5649 H 560.335 -0.151295 4.84664 0
M  V30 5650 N 561.678 -1.56367 -0.196722 0
M  V30 5651 C 562.926 -1.80172 -0.915554 0
M  V30 5652 C 563.247 -0.649649 -1.8386 0
M  V30 5653 O 562.517 0.332111 -1.93064 0
M  V30 5654 H 561.097 -0.664592 -0.341067 0
M  V30 5655 H 563.759 -1.93844 -0.202622 0
M  V30 5656 H 562.855 -2.7327 -1.50764 0
M  V30 5657 N 563.156 0.464375 -1.50603 0
M  V30 5658 C 564.088 1.57916 -1.66118 0
M  V30 5659 C 565.101 1.53497 -0.54246 0
M  V30 5660 O 566.29 1.58763 -0.815877 0
M  V30 5661 C 563.39 2.96809 -1.63577 0
M  V30 5662 C 562.563 3.26026 -2.91592 0
M  V30 5663 C 561.622 4.44506 -2.81604 0
M  V30 5664 O 560.648 4.44484 -3.55559 0
M  V30 5665 N 561.85 5.46549 -1.95614 0
M  V30 5666 H 564.615 1.45022 -2.62276 0
M  V30 5667 H 562.176 0.652903 -1.48151 0
M  V30 5668 H 564.168 3.74048 -1.54499 0
M  V30 5669 H 562.738 3.03438 -0.751262 0
M  V30 5670 H 561.958 2.37337 -3.14746 0
M  V30 5671 H 563.246 3.42361 -3.76386 0
M  V30 5672 H 562.644 5.49391 -1.34854 0
M  V30 5673 H 561.201 6.22746 -1.92435 0
M  V30 5674 N 564.634 1.40294 0.718013 0
M  V30 5675 C 565.882 1.38167 1.47494 0
M  V30 5676 C 566.203 -0.01607 1.94993 0
M  V30 5677 O 565.473 -0.970396 1.70177 0
M  V30 5678 H 564.053 0.508505 0.547203 0
M  V30 5679 H 566.715 1.75324 0.851322 0
M  V30 5680 H 565.811 2.05503 2.34894 0
M  V30 5681 N 566.112 -0.949982 1.2575 0
M  V30 5682 C 567.361 -1.68956 1.10168 0
M  V30 5683 C 567.674 -1.92327 -0.356309 0
M  V30 5684 O 568.88 -2.64026 -0.632657 0
M  V30 5685 C 567.336 -3.04196 1.92336 0
M  V30 5686 C 566.944 -2.88603 3.42655 0
M  V30 5687 C 568.688 -3.81904 1.85336 0
M  V30 5688 C 566.595 -4.19262 4.17101 0
M  V30 5689 H 565.525 -0.633645 0.408668 0
M  V30 5690 H 568.176 -1.05719 1.49986 0
M  V30 5691 H 566.558 -3.68363 1.45344 0
M  V30 5692 H 567.732 -2.3334 3.97353 0
M  V30 5693 H 566.047 -2.24345 3.50796 0
M  V30 5694 H 568.644 -4.78688 2.38248 0
M  V30 5695 H 568.987 -4.08099 0.822226 0
M  V30 5696 H 569.52 -3.24495 2.30104 0
M  V30 5697 H 566.259 -3.98254 5.20648 0
M  V30 5698 H 565.779 -4.74273 3.67186 0
M  V30 5699 H 567.458 -4.87775 4.25071 0
M  V30 5700 N 567.59 -1.07411 -1.15328 0
M  V30 5701 C 568.553 -0.698914 -2.18284 0
M  V30 5702 C 569.553 0.261149 -1.58665 0
M  V30 5703 O 570.743 0.0420277 -1.74149 0
M  V30 5704 C 567.875 -0.0302427 -3.40887 0
M  V30 5705 H 569.068 -1.61045 -2.52991 0
M  V30 5706 H 566.621 -0.870724 -1.298 0
M  V30 5707 H 567.356 0.893505 -3.11748 0
M  V30 5708 H 567.141 -0.720759 -3.85419 0
M  V30 5709 H 568.631 0.21759 -4.17033 0
M  V30 5710 N 569.068 1.32177 -0.85831 0
M  V30 5711 C 570.296 2.01313 -0.477582 0
M  V30 5712 C 570.711 1.6449 0.926736 0
M  V30 5713 O 570.068 0.868096 1.60531 0
M  V30 5714 C 570.119 3.56293 -0.611337 0
M  V30 5715 O 569.84 3.91794 -1.96034 0
M  V30 5716 C 571.341 4.42702 -0.230093 0
M  V30 5717 H 568.561 0.644323 -0.187322 0
M  V30 5718 H 571.105 1.68674 -1.15626 0
M  V30 5719 H 569.26 3.87395 0.0196494 0
M  V30 5720 H 569.674 4.86513 -1.95973 0
M  V30 5721 H 571.148 5.50727 -0.374674 0
M  V30 5722 H 571.625 4.3129 0.829779 0
M  V30 5723 H 572.231 4.16997 -0.836302 0
M  V30 5724 N 570.547 0.616602 1.45037 0
M  V30 5725 C 571.793 0.115501 2.02471 0
M  V30 5726 C 572.126 -1.25406 1.4828 0
M  V30 5727 O 571.401 -1.82922 0.661051 0
M  V30 5728 C 571.684 0.0863588 3.59996 0
M  V30 5729 C 571.537 1.48723 4.24501 0
M  V30 5730 C 572.856 -0.596762 4.36035 0
M  V30 5731 H 569.975 0.0434461 0.735718 0
M  V30 5732 H 572.617 0.7903 1.72784 0
M  V30 5733 H 570.767 -0.488277 3.85419 0
M  V30 5734 H 572.439 2.10964 4.10234 0
M  V30 5735 H 570.682 2.04534 3.82555 0
M  V30 5736 H 571.353 1.419 5.3345 0
M  V30 5737 H 573.829 -0.10824 4.15959 0
M  V30 5738 H 572.705 -0.586289 5.4576 0
M  V30 5739 H 572.966 -1.66451 4.09569 0
M  V30 5740 N 572.025 -1.5352 0.356285 0
M  V30 5741 C 573.272 -2.01117 -0.236303 0
M  V30 5742 C 573.6 -1.24381 -1.49531 0
M  V30 5743 O 572.855 -0.323057 -1.93015 0
M  V30 5744 C 573.154 -3.52607 -0.583369 0
M  V30 5745 C 572.82 -4.47151 0.58023 0
M  V30 5746 C 571.482 -4.72718 0.899528 0
M  V30 5747 C 573.834 -5.03137 1.36024 0
M  V30 5748 C 571.162 -5.51523 2.00098 0
M  V30 5749 C 573.514 -5.83145 2.45204 0
M  V30 5750 C 572.178 -6.07001 2.77679 0
M  V30 5751 H 571.448 -0.735938 -0.0864695 0
M  V30 5752 H 574.095 -1.85209 0.48683 0
M  V30 5753 H 572.4 -3.66413 -1.38739 0
M  V30 5754 H 574.097 -3.86901 -1.05397 0
M  V30 5755 H 570.687 -4.27394 0.321322 0
M  V30 5756 H 574.871 -4.83339 1.12682 0
M  V30 5757 H 570.127 -5.68229 2.25668 0
M  V30 5758 H 574.301 -6.25537 3.06067 0
M  V30 5759 H 571.928 -6.67851 3.63151 0
M  V30 5760 N 573.503 -0.0852151 -1.57369 0
M  V30 5761 C 574.413 0.891712 -2.16992 0
M  V30 5762 C 575.429 1.3174 -1.13669 0
M  V30 5763 O 576.605 1.38735 -1.45995 0
M  V30 5764 C 573.67 2.13635 -2.73059 0
M  V30 5765 C 572.731 1.7658 -3.91303 0
M  V30 5766 C 571.964 2.95111 -4.44686 0
M  V30 5767 O 572.187 4.09539 -3.97032 0
M  V30 5768 O 571.121 2.74149 -5.35841 0
M  V30 5769 H 574.947 0.414477 -3.00858 0
M  V30 5770 H 572.532 0.138598 -1.48756 0
M  V30 5771 H 574.414 2.86595 -3.08935 0
M  V30 5772 H 573.089 2.6043 -1.92244 0
M  V30 5773 H 571.996 1.00831 -3.60255 0
M  V30 5774 H 573.329 1.34557 -4.7345 0
M  V30 5775 N 574.981 1.5647 0.188427 0
M  V30 5776 C 576.397 1.50204 0.539532 0
M  V30 5777 C 576.597 0.78644 1.85519 0
M  V30 5778 O 575.653 0.339714 2.50204 0
M  V30 5779 C 576.966 2.94893 0.588103 0
M  V30 5780 C 578.514 3.05602 0.67648 0
M  V30 5781 C 578.989 4.51716 0.756101 0
M  V30 5782 N 580.48 4.55894 0.819451 0
M  V30 5783 C 581.215 5.66272 0.90134 0
M  V30 5784 N 580.711 6.86323 0.945118 0
M  V30 5785 N 582.504 5.54201 0.939043 0
M  V30 5786 H 574.655 2.01406 -0.674493 0
M  V30 5787 H 576.918 0.916828 -0.241103 0
M  V30 5788 H 576.624 3.50334 -0.309633 0
M  V30 5789 H 576.498 3.4861 1.44051 0
M  V30 5790 H 578.885 2.50206 1.56465 0
M  V30 5791 H 578.966 2.54999 -0.202262 0
M  V30 5792 H 578.61 5.07739 -0.12774 0
M  V30 5793 H 578.54 5.00058 1.65074 0
M  V30 5794 H 581.031 3.69452 0.794594 0
M  V30 5795 H 581.344 7.66194 1.0083 0
M  V30 5796 H 579.689 6.88968 0.913683 0
M  V30 5797 H 582.88 4.59333 0.901725 0
M  V30 5798 H 583.053 6.40247 0.999402 0
M  V30 5799 N 576.459 -0.456382 1.50847 0
M  V30 5800 C 577.705 -1.20914 1.62811 0
M  V30 5801 C 578.038 -1.91301 0.334304 0
M  V30 5802 O 577.313 -1.82775 -0.665098 0
M  V30 5803 C 577.596 -2.24122 2.81853 0
M  V30 5804 C 577.449 -1.57944 4.21158 0
M  V30 5805 C 578.768 -3.25295 2.96431 0
M  V30 5806 H 575.887 -0.438233 0.592554 0
M  V30 5807 H 578.529 -0.50091 1.83278 0
M  V30 5808 H 576.679 -2.84524 2.64534 0
M  V30 5809 H 578.351 -1.01025 4.50102 0
M  V30 5810 H 576.594 -0.882185 4.24735 0
M  V30 5811 H 577.265 -2.33014 5.00408 0
M  V30 5812 H 579.741 -2.7493 3.12335 0
M  V30 5813 H 578.617 -3.94822 3.81322 0
M  V30 5814 H 578.878 -3.90286 2.07676 0
M  V30 5815 O 577.976 -1.4986 -0.602026 0
M  V30 5816 H 578.667 -1.47399 -1.25671 0
M  V30 END ATOM
M  V30 BEGIN BOND
M  V30 END BOND
M  V30 END CTAB
M  END
$$$$
