drugbank_target|P28861 Ferredoxin--NADP reductase (DB03147)
 OpenBabel12092120263D

  0  0  0     0  0            999 V3000
M  V30 BEGIN CTAB
M  V30 COUNTS 3918 3961 0 0 0
M  V30 BEGIN ATOM
M  V30 1 H -0.908 1.98254 -0.117106 0
M  V30 2 N 0 1.576 0 0
M  V30 3 C 0.933 2.03868 1.02534 0
M  V30 4 C 1.911 0.928543 1.3348 0
M  V30 5 O 3.095 1.19667 1.45644 0
M  V30 6 C 0.222 2.43627 2.35294 0
M  V30 7 C -0.732 3.65373 2.2001 0
M  V30 8 S 0.101 5.13292 1.52614 0
M  V30 9 C 1.257 5.56322 2.86805 0
M  V30 10 H 1.49 2.90518 0.631377 0
M  V30 11 H -0.977 1.52953 0.210867 0
M  V30 12 H 0.981 2.67203 3.11629 0
M  V30 13 H -0.358 1.57376 2.7183 0
M  V30 14 H -1.165 3.90944 3.18086 0
M  V30 15 H -1.563 3.418 1.51819 0
M  V30 16 H 0.729 5.58782 3.83104 0
M  V30 17 H 1.672 6.56266 2.65933 0
M  V30 18 H 2.08 4.83886 2.90714 0
M  V30 19 N 1.4781 -0.272755 1.55222 0
M  V30 20 C 2.4411 -1.32041 1.87344 0
M  V30 21 C 3.4411 -1.42342 0.74803 0
M  V30 22 O 4.6311 -1.41488 1.0162 0
M  V30 23 C 1.7631 -2.70173 2.07893 0
M  V30 24 H 2.9561 -1.04789 2.80997 0
M  V30 25 H 0.5091 -0.51083 1.47717 0
M  V30 26 H 1.2441 -3.02605 1.16622 0
M  V30 27 H 1.0291 -2.64082 2.89833 0
M  V30 28 H 2.5191 -3.45869 2.34017 0
M  V30 29 N 2.9562 -1.48159 -0.537278 0
M  V30 30 C 4.2332 -1.46291 -1.29839 0
M  V30 31 C 4.6132 -0.170613 -2.10409 0
M  V30 32 O 3.9612 0.847746 -2.12192 0
M  V30 33 C 4.1712 -2.72055 -2.18603 0
M  V30 34 C 5.5192 -3.20087 -2.7898 0
M  V30 35 O 6.5432 -2.72921 -2.28894 0
M  V30 36 O 5.4022 -4.02138 -3.70064 0
M  V30 37 H 2.4962 -0.583906 -0.585647 0
M  V30 38 H 5.0422 -1.60384 -0.554534 0
M  V30 39 H 3.8142 -3.57628 -1.58801 0
M  V30 40 H 3.4372 -2.60646 -3.00249 0
M  V30 41 N 4.4343 0.785586 -1.36625 0
M  V30 42 C 5.6803 1.5452 -1.32269 0
M  V30 43 C 6.0353 1.92159 0.0962266 0
M  V30 44 O 5.3283 1.60158 1.05167 0
M  V30 45 C 5.5223 2.83007 -2.1827 0
M  V30 46 C 5.3513 2.57925 -3.68382 0
M  V30 47 C 4.1213 2.52752 -4.37544 0
M  V30 48 C 6.3193 2.26861 -4.61561 0
M  V30 49 N 4.3013 2.19608 -5.73276 0
M  V30 50 C 5.6723 2.03738 -5.85569 0
M  V30 51 C 7.7273 2.129 -4.50087 0
M  V30 52 C 6.4303 1.68065 -6.9939 0
M  V30 53 C 8.4563 1.78626 -5.63779 0
M  V30 54 C 7.8183 1.56353 -6.86828 0
M  V30 55 H 3.9173 0.566301 -0.539283 0
M  V30 56 H 6.5013 0.917736 -1.71714 0
M  V30 57 H 4.6723 3.43614 -1.81063 0
M  V30 58 H 6.4043 3.48775 -2.05275 0
M  V30 59 H 3.1593 2.6813 -3.90389 0
M  V30 60 H 3.5833 2.05771 -6.44971 0
M  V30 61 H 8.2253 2.28808 -3.55537 0
M  V30 62 H 5.9433 1.50895 -7.93887 0
M  V30 63 H 9.5293 1.68502 -5.56865 0
M  V30 64 H 8.4093 1.30223 -7.73312 0
M  V30 65 N 5.9124 1.20967 1.01018 0
M  V30 66 C 7.1584 1.02526 1.74975 0
M  V30 67 C 7.4914 -0.4408 1.89131 0
M  V30 68 O 6.7664 -1.32718 1.42184 0
M  V30 69 C 7.0494 1.71699 3.1653 0
M  V30 70 C 6.9024 3.25791 3.10129 0
M  V30 71 C 8.2214 1.45531 4.15342 0
M  V30 72 H 5.3404 0.373863 0.635134 0
M  V30 73 H 7.9824 1.49071 1.17805 0
M  V30 74 H 6.1324 1.32128 3.65341 0
M  V30 75 H 7.8044 3.74697 2.69072 0
M  V30 76 H 6.0474 3.56363 2.47362 0
M  V30 77 H 6.7184 3.69353 4.10222 0
M  V30 78 H 9.1944 1.79872 3.75213 0
M  V30 79 H 8.0704 1.96453 5.1254 0
M  V30 80 H 8.3314 0.384237 4.40427 0
M  V30 81 N 7.3905 -1.2043 1.01659 0
M  V30 82 C 8.6185 -1.93777 0.725132 0
M  V30 83 C 9.0335 -1.74772 -0.714166 0
M  V30 84 O 8.3905 -1.06169 -1.4844 0
M  V30 85 C 8.4415 -3.45876 1.05129 0
M  V30 86 O 8.1625 -3.6426 2.43406 0
M  V30 87 C 9.6635 -4.36368 0.780891 0
M  V30 88 H 6.8835 -0.615901 0.266284 0
M  V30 89 H 9.4275 -1.52922 1.35776 0
M  V30 90 H 7.5825 -3.8461 0.464065 0
M  V30 91 H 7.9965 -4.58246 2.55169 0
M  V30 92 H 9.4705 -5.41743 1.05918 0
M  V30 93 H 9.9475 -4.38275 -0.284937 0
M  V30 94 H 10.5535 -4.03296 1.35027 0
M  V30 95 N 8.8686 -0.792821 -1.36206 0
M  V30 96 C 10.1166 -0.366062 -1.98757 0
M  V30 97 C 10.4376 1.0668 -1.63231 0
M  V30 98 O 9.7076 1.73587 -0.907978 0
M  V30 99 H 8.2876 -0.132364 -0.735179 0
M  V30 100 H 10.9496 -1.01562 -1.66347 0
M  V30 101 H 10.0456 -0.460638 -3.08682 0
M  V30 102 N 10.3467 1.47872 -0.545128 0
M  V30 103 C 11.2937 2.29849 0.2093 0
M  V30 104 C 12.2637 1.38313 0.919707 0
M  V30 105 O 13.4487 1.67277 0.917772 0
M  V30 106 C 10.5887 3.22019 1.24088 0
M  V30 107 C 9.7017 4.2864 0.537778 0
M  V30 108 C 8.8367 5.07973 1.5536 0
M  V30 109 C 7.8757 6.06381 0.8348 0
M  V30 110 N 7.0127 6.78717 1.79688 0
M  V30 111 H 11.8527 2.93845 -0.49591 0
M  V30 112 H 9.3897 1.44848 -0.256389 0
M  V30 113 H 11.3477 3.73868 1.85144 0
M  V30 114 H 9.9777 2.59914 1.91428 0
M  V30 115 H 9.0297 3.7994 -0.187046 0
M  V30 116 H 10.3417 4.98793 -0.0258907 0
M  V30 117 H 9.4957 5.63912 2.23803 0
M  V30 118 H 8.2347 4.37693 2.15118 0
M  V30 119 H 7.2397 5.49631 0.136388 0
M  V30 120 H 8.4647 6.78665 0.24313 0
M  V30 121 H 6.4107 6.11177 2.38326 0
M  V30 122 H 6.3277 7.44998 1.28505 0
M  V30 123 H 7.5957 7.39237 2.47282 0
M  V30 124 N 11.8248 0.280983 1.55075 0
M  V30 125 C 13.0708 -0.33461 2.00021 0
M  V30 126 C 13.4038 -1.55063 1.16915 0
M  V30 127 O 12.6788 -1.93006 0.240646 0
M  V30 128 C 12.9618 -0.711007 3.53011 0
M  V30 129 C 12.8148 0.512766 4.46868 0
M  V30 130 C 14.1338 -1.54522 4.12081 0
M  V30 131 H 11.2528 -0.120147 0.727141 0
M  V30 132 H 13.8948 0.389097 1.85973 0
M  V30 133 H 12.0448 -1.32761 3.65112 0
M  V30 134 H 13.7168 1.15131 4.46702 0
M  V30 135 H 11.9598 1.14975 4.18286 0
M  V30 136 H 12.6308 0.205556 5.51617 0
M  V30 137 H 15.1068 -1.02442 4.03293 0
M  V30 138 H 13.9828 -1.77739 5.19327 0
M  V30 139 H 14.2438 -2.52813 3.62682 0
M  V30 140 N 13.3029 -1.57598 0.00835791 0
M  V30 141 C 14.5309 -1.95214 -0.68549 0
M  V30 142 C 14.9459 -0.883706 -1.66841 0
M  V30 143 O 14.3029 0.136565 -1.81988 0
M  V30 144 C 14.3539 -3.32865 -1.41007 0
M  V30 145 O 14.0749 -4.35609 -0.466552 0
M  V30 146 C 15.5759 -3.84991 -2.19765 0
M  V30 147 H 12.7959 -0.643422 -0.190392 0
M  V30 148 H 15.3399 -2.04406 0.0619607 0
M  V30 149 H 13.4949 -3.24956 -2.10908 0
M  V30 150 H 13.9089 -5.15288 -0.978699 0
M  V30 151 H 15.3829 -4.8371 -2.65948 0
M  V30 152 H 15.8599 -3.18137 -3.02796 0
M  V30 153 H 16.4659 -3.96103 -1.54864 0
M  V30 154 N 14.781 0.264519 -1.55364 0
M  V30 155 C 15.728 1.32717 -1.88825 0
M  V30 156 C 16.698 1.48675 -0.740605 0
M  V30 157 O 17.883 1.62945 -0.992657 0
M  V30 158 C 15.023 2.68089 -2.17307 0
M  V30 159 C 14.136 2.60284 -3.44785 0
M  V30 160 C 13.271 3.87892 -3.62924 0
M  V30 161 C 12.31 3.74631 -4.84064 0
M  V30 162 N 11.447 4.94092 -4.98816 0
M  V30 163 H 16.287 1.03481 -2.79456 0
M  V30 164 H 13.824 0.499757 -1.3835 0
M  V30 165 H 15.782 3.46864 -2.31821 0
M  V30 166 H 14.412 2.95509 -1.299 0
M  V30 167 H 13.464 1.73173 -3.38697 0
M  V30 168 H 14.776 2.46388 -4.33698 0
M  V30 169 H 13.93 4.75109 -3.77302 0
M  V30 170 H 12.669 4.04664 -2.7221 0
M  V30 171 H 11.674 2.85797 -4.69681 0
M  V30 172 H 12.899 3.5937 -5.76221 0
M  V30 173 H 10.845 5.11259 -4.11036 0
M  V30 174 H 10.762 4.8276 -5.81789 0
M  V30 175 H 12.03 5.82857 -5.17588 0
M  V30 176 N 16.2591 1.48442 0.529413 0
M  V30 177 C 17.5051 1.5672 1.28711 0
M  V30 178 C 17.8381 0.2406 1.92704 0
M  V30 179 O 17.1131 -0.753454 1.79313 0
M  V30 180 C 17.3961 2.70587 2.37603 0
M  V30 181 C 17.2491 4.12953 1.78297 0
M  V30 182 C 18.5681 2.80212 3.39366 0
M  V30 183 H 15.6871 0.570474 0.466613 0
M  V30 184 H 18.3291 1.80617 0.589706 0
M  V30 185 H 16.4791 2.50342 2.97088 0
M  V30 186 H 18.1511 4.44639 1.22858 0
M  V30 187 H 16.3941 4.19927 1.0883 0
M  V30 188 H 17.0651 4.88448 2.57144 0
M  V30 189 H 19.5411 2.98553 2.89836 0
M  V30 190 H 18.4171 3.61611 4.12951 0
M  V30 191 H 18.6781 1.88393 3.99951 0
M  V30 192 N 17.7372 -0.778329 1.37039 0
M  V30 193 C 18.6692 -1.90034 1.2814 0
M  V30 194 C 19.6822 -1.61585 0.198558 0
M  V30 195 O 20.8712 -1.72625 0.454175 0
M  V30 196 C 17.9712 -3.25108 0.956968 0
M  V30 197 C 17.1442 -3.81253 2.14394 0
M  V30 198 C 16.2032 -4.94789 1.79082 0
M  V30 199 O 15.2292 -5.10721 2.51301 0
M  V30 200 N 16.4312 -5.75878 0.731043 0
M  V30 201 H 19.1962 -1.98186 2.24816 0
M  V30 202 H 16.7572 -0.957129 1.30578 0
M  V30 203 H 18.7492 -3.9857 0.701701 0
M  V30 204 H 17.3192 -3.125 0.0789812 0
M  V30 205 H 16.5392 -2.99647 2.56135 0
M  V30 206 H 17.8272 -4.15495 2.93668 0
M  V30 207 H 17.2252 -5.65547 0.131618 0
M  V30 208 H 15.7822 -6.49596 0.535622 0
M  V30 209 N 19.2153 -1.21501 -1.00376 0
M  V30 210 C 20.1633 -0.972442 -2.11297 0
M  V30 211 C 21.1573 0.080731 -1.69208 0
M  V30 212 O 22.3633 -0.0707666 -1.79861 0
M  V30 213 H 18.7383 -0.297218 -0.690772 0
M  V30 214 H 20.7093 -1.91394 -2.28934 0
M  V30 215 C 19.4583 -0.555065 -3.43241 0
M  V30 216 H 18.7813 -1.35709 -3.76062 0
M  V30 217 H 20.2213 -0.424664 -4.21868 0
M  V30 218 C 18.6803 0.734147 -3.28804 0
M  V30 219 O 19.2103 1.78937 -3.59645 0
M  V30 220 N 17.4163 0.701133 -2.82015 0
M  V30 221 H 16.9633 -0.157874 -2.57116 0
M  V30 222 H 16.9213 1.56403 -2.72737 0
M  V30 223 N 20.6934 1.19889 -1.02296 0
M  V30 224 C 21.9394 1.89973 -0.726759 0
M  V30 225 C 22.2944 1.7776 0.73614 0
M  V30 226 O 21.5874 1.15523 1.52856 0
M  V30 227 C 21.7814 3.39883 -1.10518 0
M  V30 228 C 21.6104 3.66684 -2.60332 0
M  V30 229 C 20.3804 3.85045 -3.27213 0
M  V30 230 C 22.5784 3.68727 -3.58532 0
M  V30 231 N 20.5604 3.99422 -4.66192 0
M  V30 232 C 21.9314 3.88604 -4.83101 0
M  V30 233 C 23.9864 3.51722 -3.52414 0
M  V30 234 C 22.6894 3.9324 -6.02292 0
M  V30 235 C 24.7154 3.57632 -4.71013 0
M  V30 236 C 24.0774 3.77988 -5.94394 0
M  V30 237 H 20.1764 0.714551 -0.317712 0
M  V30 238 H 22.7604 1.44123 -1.30907 0
M  V30 239 H 20.9314 3.8447 -0.551142 0
M  V30 240 H 22.6634 3.97464 -0.761853 0
M  V30 241 H 19.4184 3.83689 -2.77632 0
M  V30 242 H 19.8424 4.10473 -5.38368 0
M  V30 243 H 24.4844 3.34945 -2.58015 0
M  V30 244 H 22.2024 4.08811 -6.97065 0
M  V30 245 H 25.7884 3.45773 -4.67902 0
M  V30 246 H 24.6684 3.82428 -6.8463 0
M  V30 247 N 22.1715 0.800033 1.35784 0
M  V30 248 C 23.3995 0.389606 2.03199 0
M  V30 249 C 23.8145 -0.997375 1.60306 0
M  V30 250 O 23.1715 -1.64154 0.797481 0
M  V30 251 C 23.2225 0.455855 3.58614 0
M  V30 252 O 22.9435 1.78815 3.99946 0
M  V30 253 C 24.4445 0.0374032 4.43284 0
M  V30 254 H 21.6645 0.159132 0.651857 0
M  V30 255 H 24.2085 1.08183 1.73541 0
M  V30 256 H 22.3635 -0.188057 3.86943 0
M  V30 257 H 22.7775 1.74636 4.94573 0
M  V30 258 H 24.2515 0.134882 5.51835 0
M  V30 259 H 24.7285 -1.01651 4.27275 0
M  V30 260 H 25.3345 0.654215 4.20238 0
M  V30 261 N 23.6496 -1.47581 0.552962 0
M  V30 262 C 24.9266 -1.95563 -0.0381515 0
M  V30 263 C 25.3066 -1.49552 -1.48988 0
M  V30 264 O 24.6546 -0.732414 -2.16444 0
M  V30 265 C 24.8646 -3.48848 0.102919 0
M  V30 266 C 26.2126 -4.24577 -0.0446082 0
M  V30 267 O 27.2366 -3.56187 0.0302548 0
M  V30 268 O 26.0956 -5.46116 -0.204923 0
M  V30 269 H 23.1896 -0.824321 -0.0665067 0
M  V30 270 H 25.7356 -1.58001 0.619186 0
M  V30 271 H 24.5076 -3.75129 1.11328 0
M  V30 272 H 24.1306 -3.93165 -0.592224 0
M  V30 273 N 25.1277 -0.289203 -1.54924 0
M  V30 274 C 26.0907 0.579144 -2.21762 0
M  V30 275 C 27.0907 1.07047 -1.1999 0
M  V30 276 O 28.2807 0.968384 -1.44803 0
M  V30 277 C 25.4127 1.80055 -2.8947 0
M  V30 278 H 26.6057 -0.00464908 -2.999 0
M  V30 279 H 24.1587 -0.0399306 -1.56249 0
M  V30 280 H 24.8937 2.42449 -2.15381 0
M  V30 281 H 24.6787 1.45602 -3.64064 0
M  V30 282 H 26.1687 2.41773 -3.40493 0
M  V30 283 N 26.6058 1.57591 -0.0167156 0
M  V30 284 C 27.5358 2.12496 0.967858 0
M  V30 285 C 28.5168 1.03807 1.34752 0
M  V30 286 O 29.7018 1.31577 1.42833 0
M  V30 287 C 26.8318 2.64194 2.25431 0
M  V30 288 C 25.7858 3.77559 2.01576 0
M  V30 289 C 25.1118 4.15636 3.36379 0
M  V30 290 C 26.4118 5.04151 1.36489 0
M  V30 291 H 28.1058 2.95013 0.510643 0
M  V30 292 H 25.6518 1.41915 0.244181 0
M  V30 293 H 27.6048 3.01236 2.94678 0
M  V30 294 H 26.3288 1.78821 2.73296 0
M  V30 295 H 24.9878 3.40937 1.34751 0
M  V30 296 H 24.6358 3.27263 3.81979 0
M  V30 297 H 24.3358 4.92022 3.21229 0
M  V30 298 H 25.8598 4.5525 4.06915 0
M  V30 299 H 27.2738 5.38857 1.95718 0
M  V30 300 H 25.6708 5.85453 1.31776 0
M  V30 301 H 26.7408 4.83733 0.336219 0
M  V30 302 N 28.0839 -0.256276 1.55502 0
M  V30 303 C 29.3309 -0.985619 1.76895 0
M  V30 304 C 29.6589 -1.85671 0.579355 0
M  V30 305 O 28.9139 -1.90744 -0.437651 0
M  V30 306 C 29.2129 -1.88432 3.03691 0
M  V30 307 C 28.8789 -1.16936 4.35473 0
M  V30 308 C 27.5409 -0.97173 4.71286 0
M  V30 309 C 29.8929 -0.661889 5.1698 0
M  V30 310 C 27.2209 -0.254179 5.86149 0
M  V30 311 C 29.5729 0.042149 6.32586 0
M  V30 312 C 28.2369 0.25134 6.67027 0
M  V30 313 H 27.5069 -0.360663 0.647304 0
M  V30 314 H 30.1539 -0.256483 1.89775 0
M  V30 315 H 28.4589 -2.68021 2.85783 0
M  V30 316 H 30.1559 -2.45015 3.1744 0
M  V30 317 H 26.7459 -1.33332 4.07333 0
M  V30 318 H 30.9299 -0.802145 4.89775 0
M  V30 319 H 26.1859 -0.0815408 6.11346 0
M  V30 320 H 30.3599 0.443049 6.94989 0
M  V30 321 H 27.9869 0.809314 7.5588 0
M  V30 322 N 29.562 -1.4872 -0.521534 0
M  V30 323 C 30.787 -1.61101 -1.30618 0
M  V30 324 C 31.212 -0.274611 -1.86085 0
M  V30 325 O 30.57 0.754937 -1.64834 0
M  V30 326 C 30.618 -2.66709 -2.4269 0
M  V30 327 O 29.722 -2.24456 -3.45967 0
M  V30 328 H 29.063 -0.539921 -0.386499 0
M  V30 329 H 31.593 -1.94767 -0.626645 0
M  V30 330 H 31.603 -2.88245 -2.88754 0
M  V30 331 H 30.278 -3.63727 -2.01682 0
M  V30 332 H 28.855 -2.13168 -3.05964 0
M  V30 333 N 31.0401 0.771051 -1.3745 0
M  V30 334 C 31.9701 1.89827 -1.3597 0
M  V30 335 C 32.9511 1.68562 -0.228216 0
M  V30 336 O 34.1361 1.8941 -0.428675 0
M  V30 337 C 31.2661 3.2712 -1.16662 0
M  V30 338 C 30.2201 3.6295 -2.2683 0
M  V30 339 C 29.5461 4.98791 -1.92644 0
M  V30 340 C 30.8461 3.69627 -3.69017 0
M  V30 341 H 32.5401 1.91323 -2.30295 0
M  V30 342 H 30.0861 0.919082 -1.10855 0
M  V30 343 H 32.0391 4.05615 -1.14256 0
M  V30 344 H 30.7631 3.26059 -0.187926 0
M  V30 345 H 29.4221 2.86763 -2.28392 0
M  V30 346 H 29.0701 4.94271 -0.933021 0
M  V30 347 H 28.7701 5.23733 -2.66416 0
M  V30 348 H 30.2941 5.79685 -1.91826 0
M  V30 349 H 31.7081 4.38273 -3.69581 0
M  V30 350 H 30.1051 4.06067 -4.41848 0
M  V30 351 H 31.1751 2.70273 -4.02592 0
M  V30 352 N 32.5182 1.22032 0.997298 0
M  V30 353 C 33.7462 1.06841 1.7718 0
M  V30 354 C 34.1612 -0.381325 1.84909 0
M  V30 355 O 33.5182 -1.26437 1.31605 0
M  V30 356 C 33.5692 1.66814 3.20711 0
M  V30 357 O 33.2902 3.06116 3.13408 0
M  V30 358 C 34.7912 1.56838 4.14628 0
M  V30 359 H 32.0112 0.374782 0.556578 0
M  V30 360 H 34.5552 1.61532 1.2541 0
M  V30 361 H 32.7102 1.16196 3.69564 0
M  V30 362 H 33.1242 3.34926 4.0364 0
M  V30 363 H 34.5982 2.03532 5.13107 0
M  V30 364 H 35.0752 0.524155 4.36061 0
M  V30 365 H 35.6812 2.06741 3.7167 0
M  V30 366 N 33.9963 -1.19345 1.0293 0
M  V30 367 C 35.2423 -1.89318 0.727083 0
M  V30 368 C 35.5753 -1.79446 -0.742483 0
M  V30 369 O 34.8503 -1.1871 -1.54072 0
M  V30 370 C 35.1333 -3.40238 1.17942 0
M  V30 371 C 34.9863 -3.58979 2.71024 0
M  V30 372 C 36.3053 -4.33479 0.760548 0
M  V30 373 H 33.4243 -0.687475 0.265606 0
M  V30 374 H 36.0663 -1.40477 1.2793 0
M  V30 375 H 34.2163 -3.81964 0.709608 0
M  V30 376 H 35.8883 -3.26421 3.25955 0
M  V30 377 H 34.1313 -3.02018 3.11396 0
M  V30 378 H 34.8023 -4.64823 2.9773 0
M  V30 379 H 37.2783 -3.99469 1.16464 0
M  V30 380 H 36.1543 -5.37664 1.10493 0
M  V30 381 H 36.4153 -4.40813 -0.337063 0
M  V30 382 N 35.4744 -0.807222 -1.35358 0
M  V30 383 C 36.4244 -0.190706 -2.27201 0
M  V30 384 C 37.4084 0.635838 -1.47804 0
M  V30 385 O 38.6004 0.492991 -1.69996 0
M  V30 386 C 35.7294 0.659337 -3.36909 0
M  V30 387 C 34.8154 -0.176971 -4.23731 0
M  V30 388 N 35.2064 -1.24029 -4.90357 0
M  V30 389 C 33.5044 0.0412953 -4.45981 0
M  V30 390 C 34.2054 -1.75092 -5.54723 0
M  V30 391 N 33.1814 -1.05727 -5.33219 0
M  V30 392 H 36.9834 -1.0043 -2.76208 0
M  V30 393 H 34.4974 -0.648445 -1.48892 0
M  V30 394 H 36.4944 1.11706 -4.01656 0
M  V30 395 H 35.1544 1.47127 -2.89454 0
M  V30 396 H 36.1654 -1.62295 -4.91814 0
M  V30 397 H 32.8424 0.82232 -4.09322 0
M  V30 398 H 34.2324 -2.63963 -6.17878 0
M  V30 399 N 36.9525 1.47285 -0.560781 0
M  V30 400 C 37.9155 2.28535 0.174488 0
M  V30 401 C 38.9155 1.37153 0.839388 0
M  V30 402 O 40.1055 1.59748 0.694702 0
M  V30 403 C 37.2375 3.16934 1.25561 0
M  V30 404 H 38.4305 2.95012 -0.539262 0
M  V30 405 H 35.9835 1.53034 -0.317865 0
M  V30 406 H 36.7185 2.55157 2.00164 0
M  V30 407 H 36.5035 3.8419 0.783604 0
M  V30 408 H 37.9935 3.78143 1.77193 0
M  V30 409 N 38.4306 0.297415 1.54768 0
M  V30 410 C 39.8416 -0.195947 1.85669 0
M  V30 411 C 40.1926 -1.53707 1.21937 0
M  V30 412 O 39.3176 -2.10164 0.515754 0
M  V30 413 C 39.9126 -0.362318 3.36857 0
M  V30 414 C 38.4716 -0.799901 3.67802 0
M  V30 415 C 37.6186 0.0938578 2.77141 0
M  V30 416 H 40.5696 0.518538 1.4999 0
M  V30 417 H 40.5906 -1.19745 3.61167 0
M  V30 418 H 40.1026 0.613921 3.83214 0
M  V30 419 H 38.2036 -1.78682 3.26961 0
M  V30 420 H 38.3166 -0.621773 4.75048 0
M  V30 421 H 36.6806 -0.426254 2.51108 0
M  V30 422 H 37.4636 1.06639 3.26318 0
M  V30 423 N 39.9087 -1.5758 0.0250728 0
M  V30 424 C 41.1547 -1.91917 -0.655413 0
M  V30 425 C 41.4877 -0.901433 -1.72011 0
M  V30 426 O 40.7627 0.0764069 -1.9435 0
M  V30 427 C 41.0457 -3.36751 -1.27558 0
M  V30 428 C 40.8987 -4.49258 -0.220719 0
M  V30 429 C 42.2177 -3.81469 -2.19475 0
M  V30 430 H 39.3367 -0.697925 -0.23679 0
M  V30 431 H 41.9787 -1.89825 0.0815036 0
M  V30 432 H 40.1287 -3.38664 -1.90365 0
M  V30 433 H 41.8007 -4.59478 0.409601 0
M  V30 434 H 40.0437 -4.31415 0.454264 0
M  V30 435 H 40.7147 -5.47618 -0.694175 0
M  V30 436 H 43.1907 -3.81266 -1.66659 0
M  V30 437 H 42.0667 -4.83512 -2.59822 0
M  V30 438 H 42.3277 -3.16744 -3.08424 0
M  V30 439 N 41.3868 0.248026 -1.55636 0
M  V30 440 C 42.3168 1.31079 -1.93237 0
M  V30 441 C 43.2978 1.50264 -0.797174 0
M  V30 442 O 44.4828 1.62891 -1.05737 0
M  V30 443 C 41.6128 2.66575 -2.22609 0
M  V30 444 C 40.5668 2.62087 -3.3837 0
M  V30 445 C 39.8928 4.01369 -3.53281 0
M  V30 446 C 41.1928 2.19171 -4.7409 0
M  V30 447 H 42.8868 0.998556 -2.82257 0
M  V30 448 H 40.4328 0.47891 -1.35803 0
M  V30 449 H 42.3858 3.41057 -2.47503 0
M  V30 450 H 41.1098 2.99432 -1.30414 0
M  V30 451 H 39.7688 1.90063 -3.13483 0
M  V30 452 H 39.4168 4.31489 -2.58508 0
M  V30 453 H 39.1168 3.99254 -4.31127 0
M  V30 454 H 40.6408 4.77552 -3.80495 0
M  V30 455 H 42.0548 2.83384 -4.98363 0
M  V30 456 H 40.4518 2.2817 -5.5503 0
M  V30 457 H 41.5218 1.14336 -4.71227 0
M  V30 458 N 42.8649 1.48995 0.513639 0
M  V30 459 C 44.2759 1.5119 1.09537 0
M  V30 460 C 44.6269 0.290906 1.94031 0
M  V30 461 O 43.7519 -0.60049 2.07902 0
M  V30 462 C 44.3469 2.73964 1.99322 0
M  V30 463 C 42.9059 2.78978 2.52682 0
M  V30 464 C 42.0529 2.44934 1.30009 0
M  V30 465 H 45.0039 1.55875 0.298125 0
M  V30 466 H 45.0249 2.53409 2.83838 0
M  V30 467 H 44.5369 3.62813 1.37799 0
M  V30 468 H 42.6379 1.94378 3.1788 0
M  V30 469 H 42.7509 3.8083 2.90698 0
M  V30 470 H 41.1149 1.9644 1.62122 0
M  V30 471 H 41.8979 3.36043 0.702131 0
M  V30 472 N 44.343 -0.763751 1.37857 0
M  V30 473 C 45.59 -1.52257 1.33506 0
M  V30 474 C 45.918 -1.94343 -0.078022 0
M  V30 475 O 45.173 -1.64958 -1.05297 0
M  V30 476 C 45.472 -2.79499 2.22745 0
M  V30 477 C 45.138 -2.56426 3.70886 0
M  V30 478 C 43.8 -2.49842 4.11257 0
M  V30 479 C 46.152 -2.36008 4.64704 0
M  V30 480 C 43.48 -2.20841 5.43549 0
M  V30 481 C 45.832 -2.0853 5.97242 0
M  V30 482 C 44.496 -2.00396 6.36709 0
M  V30 483 H 43.766 -0.557149 0.488534 0
M  V30 484 H 46.413 -0.879073 1.70131 0
M  V30 485 H 44.718 -3.48447 1.79142 0
M  V30 486 H 46.415 -3.37413 2.16688 0
M  V30 487 H 43.005 -2.62416 3.38874 0
M  V30 488 H 47.189 -2.40079 4.34368 0
M  V30 489 H 42.445 -2.13045 5.73081 0
M  V30 490 H 46.619 -1.91732 6.69486 0
M  V30 491 H 44.246 -1.77688 7.39142 0
M  V30 492 N 45.8211 -1.22559 -0.990812 0
M  V30 493 C 47.0491 -1.07779 -1.76611 0
M  V30 494 C 47.4641 0.371513 -1.85109 0
M  V30 495 O 46.8211 1.25737 -1.32274 0
M  V30 496 C 46.8721 -1.68512 -3.19822 0
M  V30 497 O 46.5931 -3.07774 -3.1178 0
M  V30 498 C 48.0941 -1.59035 -4.13791 0
M  V30 499 H 45.3141 -0.377729 -0.554583 0
M  V30 500 H 47.8581 -1.62195 -1.24551 0
M  V30 501 H 46.0131 -1.18154 -3.68942 0
M  V30 502 H 46.4271 -3.37062 -4.01858 0
M  V30 503 H 47.9011 -2.0625 -5.1202 0
M  V30 504 H 48.3781 -0.547273 -4.35777 0
M  V30 505 H 48.9841 -2.08709 -3.70568 0
M  V30 506 N 47.2992 1.18797 -1.03562 0
M  V30 507 C 48.2622 2.20464 -0.626769 0
M  V30 508 C 49.2622 1.57721 0.313173 0
M  V30 509 O 50.4522 1.73917 0.0992615 0
M  V30 510 C 47.5842 3.40802 0.0818498 0
M  V30 511 H 48.7772 2.58149 -1.5264 0
M  V30 512 H 46.3302 1.32593 -0.827578 0
M  V30 513 H 47.0652 3.08642 0.995518 0
M  V30 514 H 46.8502 3.8758 -0.593652 0
M  V30 515 H 48.3402 4.16092 0.354584 0
M  V30 516 N 48.7773 0.814389 1.34928 0
M  V30 517 C 50.0253 0.397636 1.9815 0
M  V30 518 C 50.3463 -1.04069 1.64908 0
M  V30 519 O 49.6163 -1.72121 0.93548 0
M  V30 520 H 48.1963 0.144043 0.732981 0
M  V30 521 H 50.8583 1.04195 1.6471 0
M  V30 522 H 49.9543 0.509688 3.0791 0
M  V30 523 N 50.2554 -1.46986 0.568584 0
M  V30 524 C 51.1874 -2.28233 -0.210337 0
M  V30 525 C 52.2004 -1.37682 -0.868767 0
M  V30 526 O 53.3894 -1.62406 -0.740705 0
M  V30 527 C 50.4894 -3.12293 -1.3163 0
M  V30 528 C 49.6624 -4.30878 -0.7525 0
M  V30 529 C 48.7214 -4.96445 -1.74439 0
M  V30 530 O 47.7474 -5.54482 -1.286 0
M  V30 531 N 48.9494 -4.92171 -3.07812 0
M  V30 532 H 51.7144 -2.95723 0.486648 0
M  V30 533 H 49.2754 -1.56742 0.405409 0
M  V30 534 H 51.2674 -3.53022 -1.97883 0
M  V30 535 H 49.8374 -2.46971 -1.91636 0
M  V30 536 H 49.0574 -3.94104 0.0871128 0
M  V30 537 H 50.3454 -5.07558 -0.35536 0
M  V30 538 H 49.7434 -4.46239 -3.47688 0
M  V30 539 H 48.3004 -5.36884 -3.69592 0
M  V30 540 N 51.7335 -0.305618 -1.54608 0
M  V30 541 C 52.9805 0.302298 -2.00231 0
M  V30 542 C 53.3085 1.5354 -1.19398 0
M  V30 543 O 52.5635 1.93973 -0.259423 0
M  V30 544 C 52.8625 0.698983 -3.50498 0
M  V30 545 C 52.5285 -0.432903 -4.48817 0
M  V30 546 C 51.1905 -0.743622 -4.75419 0
M  V30 547 C 53.5425 -1.19409 -5.07337 0
M  V30 548 C 50.8705 -1.81857 -5.57804 0
M  V30 549 C 53.2225 -2.25899 -5.90891 0
M  V30 550 C 51.8865 -2.57572 -6.15803 0
M  V30 551 H 51.1565 0.110619 -0.732697 0
M  V30 552 H 53.8035 -0.425674 -1.86709 0
M  V30 553 H 52.1085 1.50711 -3.61654 0
M  V30 554 H 53.8055 1.1806 -3.83227 0
M  V30 555 H 50.3955 -0.18063 -4.28219 0
M  V30 556 H 54.5795 -0.967295 -4.86782 0
M  V30 557 H 49.8355 -2.06864 -5.75341 0
M  V30 558 H 54.0095 -2.85335 -6.35261 0
M  V30 559 H 51.6365 -3.40998 -6.7943 0
M  V30 560 N 53.2116 1.57565 -0.0334293 0
M  V30 561 C 54.4396 1.9628 0.654347 0
M  V30 562 C 54.8546 0.910138 1.65414 0
M  V30 563 O 54.2116 -0.107595 1.82183 0
M  V30 564 C 54.2626 3.35067 1.35693 0
M  V30 565 O 53.9836 4.36296 0.397191 0
M  V30 566 C 55.4846 3.88439 2.13613 0
M  V30 567 H 52.7046 0.646369 0.180132 0
M  V30 568 H 55.2486 2.04282 -0.0944721 0
M  V30 569 H 53.4036 3.2827 2.05712 0
M  V30 570 H 53.8176 5.1678 0.896597 0
M  V30 571 H 55.2916 4.8788 2.58219 0
M  V30 572 H 55.7686 3.22914 2.97696 0
M  V30 573 H 56.3746 3.98516 1.48543 0
M  V30 574 N 54.6897 -0.239769 1.55765 0
M  V30 575 C 55.6367 -1.29696 1.90913 0
M  V30 576 C 56.6067 -1.47478 0.764164 0
M  V30 577 O 57.7917 -1.61345 1.01845 0
M  V30 578 C 54.9317 -2.64598 2.21544 0
M  V30 579 C 54.0447 -2.54765 3.48882 0
M  V30 580 C 53.1797 -3.82069 3.69049 0
M  V30 581 C 52.2187 -3.66883 4.89963 0
M  V30 582 N 51.3557 -4.86094 5.06614 0
M  V30 583 H 56.1957 -0.990224 2.81067 0
M  V30 584 H 53.7327 -0.477684 1.39128 0
M  V30 585 H 55.6907 -3.43132 2.3731 0
M  V30 586 H 54.3207 -2.93405 1.34585 0
M  V30 587 H 53.3727 -1.67763 3.41409 0
M  V30 588 H 54.6847 -2.39457 4.37563 0
M  V30 589 H 53.8387 -4.69046 3.84812 0
M  V30 590 H 52.5777 -4.00282 2.78614 0
M  V30 591 H 51.5827 -2.78289 4.74168 0
M  V30 592 H 52.8077 -3.50157 5.81865 0
M  V30 593 H 50.7537 -5.04655 4.19117 0
M  V30 594 H 50.6707 -4.73443 5.89396 0
M  V30 595 H 51.9387 -5.74549 5.26795 0
M  V30 596 N 56.1678 -1.49265 -0.50573 0
M  V30 597 C 57.0978 -1.68495 -1.61653 0
M  V30 598 C 58.0788 -0.53366 -1.61512 0
M  V30 599 O 59.2638 -0.76897 -1.78327 0
M  V30 600 C 56.3938 -1.74709 -3.00157 0
M  V30 601 C 55.3478 -2.89581 -3.15162 0
M  V30 602 C 54.6738 -2.80903 -4.5497 0
M  V30 603 C 55.9738 -4.30578 -2.95634 0
M  V30 604 H 57.6678 -2.61493 -1.45814 0
M  V30 605 H 55.2138 -1.25838 -0.70005 0
M  V30 606 H 57.1668 -1.86748 -3.77761 0
M  V30 607 H 55.8908 -0.783067 -3.17074 0
M  V30 608 H 54.5498 -2.77136 -2.39982 0
M  V30 609 H 54.1978 -1.82419 -4.68756 0
M  V30 610 H 53.8978 -3.57999 -4.65951 0
M  V30 611 H 55.4218 -2.94944 -5.34641 0
M  V30 612 H 56.8358 -4.4373 -3.63011 0
M  V30 613 H 55.2328 -5.0886 -3.18091 0
M  V30 614 H 56.3028 -4.45352 -1.91806 0
M  V30 615 N 57.6459 0.756429 -1.3826 0
M  V30 616 C 58.8939 1.51248 -1.34047 0
M  V30 617 C 59.2149 1.94875 0.0698372 0
M  V30 618 O 58.4849 1.67436 1.01696 0
M  V30 619 H 57.0649 0.561018 -0.493222 0
M  V30 620 H 59.7269 0.899347 -1.7291 0
M  V30 621 H 58.8229 2.40472 -1.98947 0
M  V30 622 N 59.124 1.23083 0.984299 0
M  V30 623 C 60.054 1.03292 2.09411 0
M  V30 624 C 61.035 -0.048923 1.7003 0
M  V30 625 O 62.22 0.114967 1.93859 0
M  V30 626 C 59.35 0.619155 3.41736 0
M  V30 627 C 58.304 1.64791 3.95004 0
M  V30 628 C 57.63 1.0897 5.23478 0
M  V30 629 C 58.93 3.03999 4.24714 0
M  V30 630 H 60.624 1.96119 2.26225 0
M  V30 631 H 58.17 0.944344 1.08711 0
M  V30 632 H 60.123 0.467777 4.18796 0
M  V30 633 H 58.847 -0.344786 3.24775 0
M  V30 634 H 57.506 1.78721 3.20085 0
M  V30 635 H 57.154 0.11686 5.02864 0
M  V30 636 H 56.854 1.77704 5.60085 0
M  V30 637 H 58.378 0.950093 6.03163 0
M  V30 638 H 59.792 2.93393 4.92538 0
M  V30 639 H 58.189 3.69936 4.72512 0
M  V30 640 H 59.259 3.53285 3.32142 0
M  V30 641 N 60.6021 -1.18246 1.0419 0
M  V30 642 C 61.5121 -2.25574 0.644476 0
M  V30 643 C 62.5281 -1.70845 -0.329826 0
M  V30 644 O 63.7041 -2.00554 -0.184443 0
M  V30 645 C 60.7691 -3.46697 0.014877 0
M  V30 646 C 59.8301 -4.16554 1.03834 0
M  V30 647 C 59.0631 -5.31894 0.438692 0
M  V30 648 O 59.2861 -5.65385 -0.754752 0
M  V30 649 O 58.2201 -5.90459 1.168 0
M  V30 650 H 62.0461 -2.61836 1.53869 0
M  V30 651 H 59.6311 -1.25352 0.812854 0
M  V30 652 H 61.5131 -4.20062 -0.335538 0
M  V30 653 H 60.1881 -3.12255 -0.853138 0
M  V30 654 H 59.0951 -3.45251 1.44057 0
M  V30 655 H 60.4281 -4.54998 1.87716 0
M  V30 656 N 62.0802 -0.821533 -1.34494 0
M  V30 657 C 63.3292 -0.405355 -1.97585 0
M  V30 658 C 63.6422 1.03677 -1.65863 0
M  V30 659 O 64.8482 1.55679 -2.22433 0
M  V30 660 C 63.3042 -0.673861 -3.53535 0
M  V30 661 C 62.9122 -2.12951 -3.94152 0
M  V30 662 C 64.6562 -0.32378 -4.23263 0
M  V30 663 C 62.5632 -2.34298 -5.43009 0
M  V30 664 H 61.4932 -0.147836 -0.739365 0
M  V30 665 H 64.1442 -1.00769 -1.53355 0
M  V30 666 H 62.5262 -0.00137554 -3.96 0
M  V30 667 H 63.7002 -2.84104 -3.62797 0
M  V30 668 H 62.0152 -2.44089 -3.37356 0
M  V30 669 H 64.6122 -0.461126 -5.32708 0
M  V30 670 H 64.9552 0.731586 -4.09821 0
M  V30 671 H 65.4882 -0.950786 -3.8627 0
M  V30 672 H 62.2272 -3.38335 -5.61435 0
M  V30 673 H 61.7472 -1.67687 -5.75883 0
M  V30 674 H 63.4262 -2.16588 -6.09671 0
M  V30 675 N 63.5583 1.46682 -0.576371 0
M  V30 676 C 64.8353 1.95599 0.00703437 0
M  V30 677 C 65.2153 1.51904 1.46589 0
M  V30 678 O 64.5633 0.766755 2.15251 0
M  V30 679 C 64.7733 3.4864 -0.158404 0
M  V30 680 C 66.1213 4.24594 -0.0229439 0
M  V30 681 O 67.1453 3.56094 -0.0869173 0
M  V30 682 O 66.0043 5.46373 0.118015 0
M  V30 683 H 63.0983 0.825275 0.053384 0
M  V30 684 H 65.6443 1.56996 -0.644244 0
M  V30 685 H 64.4163 3.7331 -1.17282 0
M  V30 686 H 64.0393 3.94057 0.5296 0
M  V30 687 N 65.0364 0.313813 1.54444 0
M  V30 688 C 66.2844 -0.291099 1.99993 0
M  V30 689 C 66.6054 -1.53418 1.20366 0
M  V30 690 O 65.8754 -1.93544 0.302927 0
M  V30 691 H 64.4554 -0.110552 0.738774 0
M  V30 692 H 67.1174 0.428106 1.9014 0
M  V30 693 H 66.2134 -0.554268 3.07139 0
M  V30 694 N 66.5145 -1.57545 0.0417849 0
M  V30 695 C 67.4245 -2.14451 -0.951213 0
M  V30 696 C 68.4405 -1.09992 -1.34825 0
M  V30 697 O 69.6165 -1.42114 -1.42708 0
M  V30 698 C 66.6815 -2.67063 -2.21084 0
M  V30 699 C 65.7425 -3.86284 -1.87304 0
M  V30 700 C 64.9755 -4.36378 -3.07261 0
M  V30 701 O 65.1985 -3.85587 -4.20332 0
M  V30 702 O 64.1325 -5.28077 -2.88822 0
M  V30 703 H 67.9585 -2.99601 -0.497287 0
M  V30 704 H 65.5435 -1.48317 -0.179567 0
M  V30 705 H 67.4255 -3.00914 -2.95006 0
M  V30 706 H 66.1005 -1.84989 -2.65633 0
M  V30 707 H 65.0075 -3.57338 -1.10727 0
M  V30 708 H 66.3405 -4.6956 -1.47562 0
M  V30 709 N 67.9926 0.231505 -1.5589 0
M  V30 710 C 69.4086 0.580748 -1.48659 0
M  V30 711 C 69.6086 1.87617 -0.73498 0
M  V30 712 O 68.6646 2.51046 -0.270586 0
M  V30 713 C 69.9776 0.669202 -2.93159 0
M  V30 714 C 71.5256 0.760499 -3.03621 0
M  V30 715 C 72.0006 0.880383 -4.49459 0
M  V30 716 N 73.4916 0.944861 -4.53461 0
M  V30 717 C 74.2266 1.05716 -5.63571 0
M  V30 718 N 73.7226 1.13403 -6.83456 0
M  V30 719 N 75.5156 1.09152 -5.514 0
M  V30 720 H 67.6666 -0.618695 -2.03189 0
M  V30 721 H 69.9296 -0.215728 -0.923128 0
M  V30 722 H 69.6356 -0.212904 -3.51055 0
M  V30 723 H 69.5096 1.5361 -3.44505 0
M  V30 724 H 71.8966 1.63305 -2.45796 0
M  V30 725 H 71.9776 -0.131864 -2.5546 0
M  V30 726 H 71.6216 0.0123284 -5.07899 0
M  V30 727 H 71.5516 1.78802 -4.95316 0
M  V30 728 H 74.0426 0.896176 -3.6712 0
M  V30 729 H 74.3556 1.21921 -7.63122 0
M  V30 730 H 72.7006 1.10333 -6.86186 0
M  V30 731 H 75.8916 1.02805 -4.56671 0
M  V30 732 H 76.0646 1.17558 -6.37247 0
M  V30 733 N 69.4707 1.49531 0.497807 0
M  V30 734 C 70.7167 1.59415 1.25358 0
M  V30 735 C 71.0497 0.281422 1.9215 0
M  V30 736 O 70.3247 -0.715249 1.80871 0
M  V30 737 C 70.6077 2.75566 2.3181 0
M  V30 738 C 70.4607 4.16642 1.69498 0
M  V30 739 C 71.7797 2.87347 3.33346 0
M  V30 740 H 68.8987 0.580244 0.454408 0
M  V30 741 H 71.5407 1.81827 0.551262 0
M  V30 742 H 69.6907 2.56587 2.91711 0
M  V30 743 H 71.3627 4.47145 1.13399 0
M  V30 744 H 69.6057 4.22141 0.998978 0
M  V30 745 H 70.2767 4.93792 2.46725 0
M  V30 746 H 72.7527 3.04634 2.83438 0
M  V30 747 H 71.6287 3.70289 4.05188 0
M  V30 748 H 71.8897 1.96834 3.95865 0
M  V30 749 N 70.9488 -0.749086 1.3866 0
M  V30 750 C 71.8808 -1.87273 1.32142 0
M  V30 751 C 72.8938 -1.61127 0.232787 0
M  V30 752 O 74.0828 -1.71623 0.49069 0
M  V30 753 C 71.1828 -3.23005 1.02571 0
M  V30 754 C 70.3558 -3.7662 2.22433 0
M  V30 755 C 69.4148 -4.90879 1.89537 0
M  V30 756 O 68.4408 -5.05276 2.62078 0
M  V30 757 N 69.6428 -5.74198 0.853031 0
M  V30 758 H 72.4078 -1.93373 2.28969 0
M  V30 759 H 69.9688 -0.929216 1.32579 0
M  V30 760 H 71.9608 -3.96992 0.786085 0
M  V30 761 H 70.5308 -3.12262 0.145249 0
M  V30 762 H 69.7508 -2.94147 2.62434 0
M  V30 763 H 71.0388 -4.09173 3.02415 0
M  V30 764 H 70.4368 -5.6514 0.25155 0
M  V30 765 H 68.9938 -6.48313 0.67329 0
M  V30 766 N 72.4269 -1.23603 -0.977757 0
M  V30 767 C 73.8429 -0.999251 -1.24447 0
M  V30 768 C 74.0429 0.298053 -1.99283 0
M  V30 769 O 73.0989 1.01681 -2.31122 0
M  V30 770 C 74.4119 -2.20784 -2.04144 0
M  V30 771 C 75.9599 -2.25303 -2.17273 0
M  V30 772 C 76.4349 -3.45755 -3.00362 0
M  V30 773 N 77.9259 -3.4601 -3.07947 0
M  V30 774 C 78.6609 -4.35868 -3.72568 0
M  V30 775 N 78.1569 -5.35966 -4.38991 0
M  V30 776 N 79.9499 -4.23605 -3.6948 0
M  V30 777 H 72.1009 -2.06986 -0.476483 0
M  V30 778 H 74.3639 -0.907801 -0.273134 0
M  V30 779 H 74.0699 -3.14945 -1.56533 0
M  V30 780 H 73.9439 -2.22085 -3.04891 0
M  V30 781 H 76.3309 -1.3168 -2.64092 0
M  V30 782 H 76.4119 -2.28033 -1.15907 0
M  V30 783 H 76.0559 -4.39687 -2.5424 0
M  V30 784 H 75.9859 -3.40266 -4.01904 0
M  V30 785 H 78.4769 -2.73588 -2.60688 0
M  V30 786 H 78.7899 -6.00783 -4.86086 0
M  V30 787 H 77.1349 -5.39863 -4.37691 0
M  V30 788 H 80.3259 -3.44647 -3.16759 0
M  V30 789 H 80.4989 -4.93836 -4.1956 0
M  V30 790 N 73.905 1.17692 -1.04816 0
M  V30 791 C 74.868 2.19787 -0.650117 0
M  V30 792 C 75.868 1.58044 0.296427 0
M  V30 793 O 77.058 1.74012 0.0808097 0
M  V30 794 C 74.19 3.40869 0.0456987 0
M  V30 795 H 75.383 2.56516 -1.5537 0
M  V30 796 H 72.936 1.31708 -0.841594 0
M  V30 797 H 73.671 3.09681 0.962726 0
M  V30 798 H 73.456 3.86928 -0.634727 0
M  V30 799 H 74.946 4.16445 0.310432 0
M  V30 800 N 75.3831 0.828654 1.34056 0
M  V30 801 C 76.6131 0.431993 2.02033 0
M  V30 802 C 77.0211 -0.96844 1.62536 0
M  V30 803 O 76.3641 -1.6391 0.829408 0
M  V30 804 C 76.4261 0.461224 3.56529 0
M  V30 805 C 76.0901 1.81599 4.1937 0
M  V30 806 C 77.0871 2.7777 4.39477 0
M  V30 807 C 74.7721 2.10604 4.56017 0
M  V30 808 C 76.7661 4.01115 4.95364 0
M  V30 809 C 74.4531 3.34207 5.11614 0
M  V30 810 C 75.4511 4.2928 5.31232 0
M  V30 811 O 75.1391 5.50699 5.8565 0
M  V30 812 H 74.8711 0.170943 0.654029 0
M  V30 813 H 77.4251 1.11988 1.72185 0
M  V30 814 H 75.6551 -0.283388 3.8566 0
M  V30 815 H 77.3441 0.0838149 4.05813 0
M  V30 816 H 78.1101 2.56659 4.11523 0
M  V30 817 H 73.9891 1.37402 4.40047 0
M  V30 818 H 77.5331 4.75333 5.10592 0
M  V30 819 H 73.4301 3.55179 5.38997 0
M  V30 820 H 74.1981 5.52298 6.04077 0
M  V30 821 N 76.8612 -1.46375 0.584142 0
M  V30 822 C 78.0862 -2.07268 0.0740405 0
M  V30 823 C 78.5112 -1.42979 -1.22223 0
M  V30 824 O 77.8692 -0.514092 -1.73859 0
M  V30 825 C 77.9172 -3.60518 -0.0767769 0
M  V30 826 O 77.0212 -3.96533 -1.13292 0
M  V30 827 H 76.3622 -0.660961 0.0634524 0
M  V30 828 H 78.8922 -1.87991 0.807492 0
M  V30 829 H 78.9022 -4.07021 -0.282489 0
M  V30 830 H 77.5772 -4.06702 0.86986 0
M  V30 831 H 76.1542 -3.61738 -0.905553 0
M  V30 832 N 78.3393 -0.321999 -1.54275 0
M  V30 833 C 79.5693 0.282642 -2.04658 0
M  V30 834 C 79.9773 1.46453 -1.19784 0
M  V30 835 O 79.3203 1.82367 -0.220932 0
M  V30 836 C 79.3823 0.781857 -3.50895 0
M  V30 837 C 79.0463 -0.277517 -4.56157 0
M  V30 838 C 80.0433 -1.11307 -5.07845 0
M  V30 839 C 77.7283 -0.425256 -5.00497 0
M  V30 840 C 79.7223 -2.08211 -6.02434 0
M  V30 841 C 77.4093 -1.39771 -5.94901 0
M  V30 842 C 78.4073 -2.2246 -6.45756 0
M  V30 843 O 78.0953 -3.18054 -7.38307 0
M  V30 844 H 77.8273 0.0622636 -0.673126 0
M  V30 845 H 80.3813 -0.465792 -2.00049 0
M  V30 846 H 78.6113 1.58118 -3.52896 0
M  V30 847 H 80.3003 1.30467 -3.84361 0
M  V30 848 H 81.0663 -1.00991 -4.74369 0
M  V30 849 H 76.9453 0.20847 -4.60528 0
M  V30 850 H 80.4893 -2.72791 -6.42052 0
M  V30 851 H 76.3863 -1.50152 -6.27794 0
M  V30 852 H 77.1543 -3.13275 -7.56175 0
M  V30 853 N 79.8174 1.5752 -0.0501392 0
M  V30 854 C 81.0634 1.92936 0.624798 0
M  V30 855 C 81.3964 0.928685 1.70555 0
M  V30 856 O 80.6714 -0.0454779 1.94447 0
M  V30 857 C 80.9544 3.38737 1.22185 0
M  V30 858 C 80.8074 4.49552 0.149218 0
M  V30 859 C 82.1264 3.84913 2.13378 0
M  V30 860 H 79.2454 0.701604 0.225657 0
M  V30 861 H 81.8874 1.89671 -0.111693 0
M  V30 862 H 80.0374 3.4165 1.84953 0
M  V30 863 H 81.7094 4.58768 -0.482648 0
M  V30 864 H 79.9524 4.30638 -0.522841 0
M  V30 865 H 80.6234 5.48653 0.606966 0
M  V30 866 H 83.0994 3.8387 1.60572 0
M  V30 867 H 81.9754 4.87584 2.52097 0
M  V30 868 H 82.2364 3.21611 3.03346 0
M  V30 869 N 81.2955 -0.223234 1.56011 0
M  V30 870 C 82.2435 -1.29627 1.93131 0
M  V30 871 C 83.2375 -1.48608 0.813146 0
M  V30 872 O 84.4435 -1.49802 0.997966 0
M  V30 873 H 80.8185 -0.434563 0.613726 0
M  V30 874 H 82.7895 -0.955995 2.82672 0
M  V30 875 C 81.5385 -2.63983 2.26292 0
M  V30 876 H 80.8615 -2.50185 3.11846 0
M  V30 877 H 82.3015 -3.3788 2.56151 0
M  V30 878 C 80.7605 -3.18866 1.08747 0
M  V30 879 O 81.2905 -4.00192 0.347727 0
M  V30 880 N 79.4965 -2.77217 0.871743 0
M  V30 881 H 79.0435 -2.1119 1.47501 0
M  V30 882 H 79.0015 -3.1428 0.0869905 0
M  V30 883 N 82.7736 -1.49793 -0.48987 0
M  V30 884 C 83.9986 -1.63836 -1.27172 0
M  V30 885 C 84.4236 -0.31402 -1.8546 0
M  V30 886 O 83.7816 0.719803 -1.66399 0
M  V30 887 C 83.8296 -2.71797 -2.36978 0
M  V30 888 O 82.9336 -2.31744 -3.41128 0
M  V30 889 H 82.2746 -0.547997 -0.37496 0
M  V30 890 H 84.8046 -1.96053 -0.585191 0
M  V30 891 H 84.8146 -2.94305 -2.82575 0
M  V30 892 H 83.4896 -3.67923 -1.93921 0
M  V30 893 H 82.0666 -2.1961 -3.01373 0
M  V30 894 N 84.2517 0.741722 -1.39055 0
M  V30 895 C 85.6627 1.31966 -1.32068 0
M  V30 896 C 86.0137 1.96192 0.0180797 0
M  V30 897 O 85.1387 1.95861 0.920196 0
M  V30 898 C 85.7337 2.39954 -2.39181 0
M  V30 899 C 84.2927 2.93438 -2.35735 0
M  V30 900 C 83.4397 1.66936 -2.21422 0
M  V30 901 H 86.3907 0.539721 -1.4924 0
M  V30 902 H 86.4117 3.20182 -2.05581 0
M  V30 903 H 85.9237 1.9318 -3.36605 0
M  V30 904 H 84.0247 3.4451 -1.41929 0
M  V30 905 H 84.1377 3.4701 -3.30335 0
M  V30 906 H 82.5017 1.91016 -1.68478 0
M  V30 907 H 83.2847 1.22224 -3.20806 0
M  V30 908 N 85.7298 1.2412 0.971189 0
M  V30 909 C 87.0068 0.986867 1.6888 0
M  V30 910 C 87.3868 -0.491857 2.0529 0
M  V30 911 O 86.7348 -1.46531 1.75331 0
M  V30 912 C 86.9448 1.9063 2.92338 0
M  V30 913 C 88.2928 2.17515 3.64654 0
M  V30 914 O 89.3168 1.88254 3.02388 0
M  V30 915 O 88.1758 2.6719 4.7673 0
M  V30 916 H 85.2698 0.372944 0.738134 0
M  V30 917 H 87.8158 1.35203 1.02559 0
M  V30 918 H 86.5878 2.90552 2.62097 0
M  V30 919 H 86.2108 1.54408 3.66393 0
M  V30 920 N 87.2079 -1.17134 1.05439 0
M  V30 921 C 88.1559 -2.23289 0.651511 0
M  V30 922 C 89.1499 -1.66186 -0.328411 0
M  V30 923 O 90.3559 -1.78949 -0.194206 0
M  V30 924 H 86.7309 -0.726938 0.192523 0
M  V30 925 H 88.7019 -2.54565 1.55689 0
M  V30 926 C 87.4509 -3.47671 0.0448436 0
M  V30 927 H 86.7739 -3.91918 0.78996 0
M  V30 928 H 88.2139 -4.2353 -0.19964 0
M  V30 929 C 86.6729 -3.14453 -1.20918 0
M  V30 930 O 87.2029 -3.29459 -2.29825 0
M  V30 931 N 85.4089 -2.68657 -1.10779 0
M  V30 932 H 84.9559 -2.56646 -0.221526 0
M  V30 933 H 84.9139 -2.46804 -1.9477 0
M  V30 934 N 88.686 -0.835752 -1.33615 0
M  V30 935 C 90.097 -0.487099 -1.80234 0
M  V30 936 C 90.448 0.993627 -1.69179 0
M  V30 937 O 89.573 1.77403 -1.23924 0
M  V30 938 C 90.168 -0.877385 -3.27242 0
M  V30 939 C 88.727 -0.580915 -3.7189 0
M  V30 940 C 87.874 -1.0874 -2.5509 0
M  V30 941 H 90.825 -1.02474 -1.2118 0
M  V30 942 H 90.846 -0.186195 -3.80044 0
M  V30 943 H 90.358 -1.95512 -3.35256 0
M  V30 944 H 88.459 0.486881 -3.69405 0
M  V30 945 H 88.572 -1.13396 -4.65487 0
M  V30 946 H 86.936 -0.508392 -2.49575 0
M  V30 947 H 87.719 -2.17184 -2.65868 0
M  V30 948 N 90.1641 1.46063 -0.591896 0
M  V30 949 C 91.4411 1.95595 -0.0137119 0
M  V30 950 C 91.8211 1.5345 1.4497 0
M  V30 951 O 91.1691 0.789543 2.14426 0
M  V30 952 C 91.3791 3.48453 -0.195373 0
M  V30 953 C 92.7271 4.24546 -0.0679765 0
M  V30 954 O 93.7511 3.55982 -0.124681 0
M  V30 955 O 92.6101 5.46467 0.0600579 0
M  V30 956 H 89.7041 0.825795 0.0446279 0
M  V30 957 H 92.2501 1.56303 -0.660859 0
M  V30 958 H 91.0221 3.72045 -1.21235 0
M  V30 959 H 90.6451 3.94597 0.487775 0
M  V30 960 N 91.6422 0.330177 1.54103 0
M  V30 961 C 92.5722 -0.525353 2.27513 0
M  V30 962 C 93.5532 -1.11383 1.2856 0
M  V30 963 O 94.7382 -1.13773 1.57383 0
M  V30 964 C 91.8682 -1.6831 3.03791 0
M  V30 965 C 90.8222 -1.2236 4.10137 0
M  V30 966 C 90.1482 -2.46882 4.74293 0
M  V30 967 C 91.4482 -0.333697 5.21233 0
M  V30 968 H 93.1422 0.087013 2.99274 0
M  V30 969 H 90.6882 0.0432893 1.43935 0
M  V30 970 H 92.6412 -2.28795 3.5388 0
M  V30 971 H 91.3652 -2.32216 2.29659 0
M  V30 972 H 90.0242 -0.64165 3.60941 0
M  V30 973 H 89.6722 -3.09165 3.96769 0
M  V30 974 H 89.3722 -2.16825 5.46133 0
M  V30 975 H 90.8962 -3.08117 5.27159 0
M  V30 976 H 92.3102 -0.845013 5.67038 0
M  V30 977 H 90.7072 -0.125612 5.99969 0
M  V30 978 H 91.7772 0.633724 4.80741 0
M  V30 979 N 93.1203 -1.57491 0.0584922 0
M  V30 980 C 94.0303 -2.15448 -0.928414 0
M  V30 981 C 95.0463 -1.11416 -1.3365 0
M  V30 982 O 96.2223 -1.4362 -1.41193 0
M  V30 983 C 93.2873 -2.69393 -2.18239 0
M  V30 984 C 92.3483 -3.88249 -1.83196 0
M  V30 985 C 91.5813 -4.39613 -3.02616 0
M  V30 986 O 91.8043 -3.90023 -4.16219 0
M  V30 987 O 90.7383 -5.31111 -2.83204 0
M  V30 988 H 94.5643 -3.00112 -0.465483 0
M  V30 989 H 92.1493 -1.48499 -0.163826 0
M  V30 990 H 94.0313 -3.04026 -2.91798 0
M  V30 991 H 92.7063 -1.87796 -2.63656 0
M  V30 992 H 91.6133 -3.58492 -1.06931 0
M  V30 993 H 92.9463 -4.71098 -1.42573 0
M  V30 994 N 94.5984 0.214957 -1.56127 0
M  V30 995 C 95.8454 0.938372 -1.79446 0
M  V30 996 C 96.1734 1.8407 -0.628378 0
M  V30 997 O 95.4284 1.91837 0.386925 0
M  V30 998 C 95.7274 1.80314 -3.0858 0
M  V30 999 C 95.3934 1.05349 -4.3842 0
M  V30 1000 C 94.0554 0.846435 -4.73697 0
M  V30 1001 C 96.4074 0.524588 -5.18553 0
M  V30 1002 C 93.7354 0.098683 -5.86617 0
M  V30 1003 C 96.0874 -0.209853 -6.32252 0
M  V30 1004 C 94.7514 -0.428102 -6.66126 0
M  V30 1005 H 94.0214 0.343375 -0.656639 0
M  V30 1006 H 96.6684 0.206077 -1.90388 0
M  V30 1007 H 94.9734 2.6035 -2.92789 0
M  V30 1008 H 96.6704 2.36513 -3.23825 0
M  V30 1009 H 93.2604 1.22486 -4.10725 0
M  V30 1010 H 97.4444 0.672008 -4.91729 0
M  V30 1011 H 92.7004 -0.0805753 -6.11347 0
M  V30 1012 H 96.8744 -0.627157 -6.9357 0
M  V30 1013 H 94.5014 -1.00944 -7.53468 0
M  V30 1014 N 96.0765 1.50051 0.48192 0
M  V30 1015 C 97.3065 1.63999 1.2565 0
M  V30 1016 C 97.7145 0.318288 1.86504 0
M  V30 1017 O 97.0575 -0.708534 1.69486 0
M  V30 1018 C 97.1195 2.66504 2.4128 0
M  V30 1019 C 96.7835 4.10352 2.01148 0
M  V30 1020 C 97.7805 4.96562 1.54021 0
M  V30 1021 C 95.4655 4.56203 2.10199 0
M  V30 1022 C 97.4595 6.26668 1.16473 0
M  V30 1023 C 95.1465 5.86318 1.72264 0
M  V30 1024 C 96.1445 6.71375 1.25477 0
M  V30 1025 O 95.8325 7.99062 0.880626 0
M  V30 1026 H 95.5645 0.55456 0.386574 0
M  V30 1027 H 98.1185 1.96954 0.582944 0
M  V30 1028 H 96.3485 2.28769 3.11772 0
M  V30 1029 H 98.0375 2.69783 3.03268 0
M  V30 1030 H 98.8035 4.62358 1.46458 0
M  V30 1031 H 94.6825 3.90152 2.45566 0
M  V30 1032 H 98.2265 6.93011 0.798841 0
M  V30 1033 H 94.1235 6.20046 1.79482 0
M  V30 1034 H 94.8915 8.12239 1.01043 0
M  V30 1035 N 97.5546 -0.734337 1.39446 0
M  V30 1036 C 98.4846 -1.86155 1.40955 0
M  V30 1037 C 99.4656 -1.67898 0.272827 0
M  V30 1038 O 100.651 -1.88207 0.478743 0
M  V30 1039 C 97.7806 -3.23912 1.25294 0
M  V30 1040 C 96.7346 -3.56808 2.36373 0
M  V30 1041 C 96.0606 -4.93508 2.058 0
M  V30 1042 C 97.3606 -3.59713 3.78687 0
M  V30 1043 H 99.0546 -1.8515 2.35287 0
M  V30 1044 H 96.6006 -0.889367 1.13253 0
M  V30 1045 H 98.5536 -4.02443 1.2497 0
M  V30 1046 H 97.2776 -3.25446 0.274308 0
M  V30 1047 H 95.9366 -2.80606 2.35914 0
M  V30 1048 H 95.5846 -4.91623 1.06374 0
M  V30 1049 H 95.2846 -5.16486 2.80208 0
M  V30 1050 H 96.8086 -5.74396 2.07128 0
M  V30 1051 H 98.2226 -4.2832 3.81071 0
M  V30 1052 H 96.6196 -3.94209 4.52459 0
M  V30 1053 H 97.6896 -2.59504 4.09617 0
M  V30 1054 N 99.0327 -1.24633 -0.964593 0
M  V30 1055 C 100.279 -1.08949 -1.71049 0
M  V30 1056 C 100.612 0.370302 -1.90637 0
M  V30 1057 O 99.8867 1.27349 -1.47011 0
M  V30 1058 C 100.17 -1.83329 -3.0994 0
M  V30 1059 C 100.023 -3.37077 -2.97824 0
M  V30 1060 C 101.342 -1.60846 -4.09654 0
M  V30 1061 H 98.4607 -0.397178 -0.620821 0
M  V30 1062 H 101.103 -1.5334 -1.12191 0
M  V30 1063 H 99.2527 -1.45597 -3.60186 0
M  V30 1064 H 100.925 -3.84425 -2.5498 0
M  V30 1065 H 99.1677 -3.65298 -2.33965 0
M  V30 1066 H 99.8387 -3.84324 -3.96231 0
M  V30 1067 H 102.315 -1.93674 -3.68279 0
M  V30 1068 H 101.191 -2.1534 -5.04896 0
M  V30 1069 H 101.452 -0.547434 -4.38698 0
M  V30 1070 N 100.511 1.16574 -1.06058 0
M  V30 1071 C 101.739 1.90952 -0.796552 0
M  V30 1072 C 102.154 1.77302 0.648808 0
M  V30 1073 O 101.511 1.11605 1.44397 0
M  V30 1074 C 101.562 3.41736 -1.17894 0
M  V30 1075 O 101.283 3.54975 -2.56758 0
M  V30 1076 C 102.784 4.33169 -0.942308 0
M  V30 1077 H 100.004 0.605594 -0.288959 0
M  V30 1078 H 102.548 1.47777 -1.41358 0
M  V30 1079 H 100.703 3.82623 -0.606491 0
M  V30 1080 H 101.117 4.4846 -2.72 0
M  V30 1081 H 102.591 5.37439 -1.25952 0
M  V30 1082 H 103.068 4.3903 0.122078 0
M  V30 1083 H 103.674 3.98007 -1.49902 0
M  V30 1084 N 101.989 0.842826 1.3317 0
M  V30 1085 C 103.235 0.441099 1.97945 0
M  V30 1086 C 103.568 -0.998024 1.66593 0
M  V30 1087 O 102.843 -1.69839 0.947898 0
M  V30 1088 C 103.126 0.666841 3.53872 0
M  V30 1089 C 102.979 2.15352 3.94897 0
M  V30 1090 C 104.298 0.115544 4.39948 0
M  V30 1091 H 101.417 0.161739 0.719034 0
M  V30 1092 H 104.059 1.05907 1.57746 0
M  V30 1093 H 102.209 0.140828 3.88245 0
M  V30 1094 H 103.881 2.7447 3.70761 0
M  V30 1095 H 102.124 2.63653 3.44484 0
M  V30 1096 H 102.795 2.26221 5.03516 0
M  V30 1097 H 105.271 0.565213 4.12243 0
M  V30 1098 H 104.147 0.303152 5.48062 0
M  V30 1099 H 104.408 -0.980935 4.3108 0
M  V30 1100 N 103.467 -1.45747 0.599634 0
M  V30 1101 C 104.878 -1.85853 0.177681 0
M  V30 1102 C 105.229 -1.50102 -1.26348 0
M  V30 1103 O 104.354 -0.923905 -1.95686 0
M  V30 1104 C 104.949 -3.37326 0.315688 0
M  V30 1105 C 103.508 -3.76365 -0.0515144 0
M  V30 1106 C 102.655 -2.69722 0.643822 0
M  V30 1107 H 105.606 -1.36661 0.806814 0
M  V30 1108 H 105.627 -3.77778 -0.454321 0
M  V30 1109 H 105.139 -3.63315 1.36468 0
M  V30 1110 H 103.24 -3.55993 -1.09999 0
M  V30 1111 H 103.353 -4.77916 0.336594 0
M  V30 1112 H 101.717 -2.54567 0.0822881 0
M  V30 1113 H 102.5 -2.98549 1.6948 0
M  V30 1114 N 104.945 -0.338344 -1.53925 0
M  V30 1115 C 106.222 0.314774 -1.93051 0
M  V30 1116 C 106.602 1.68669 -1.26941 0
M  V30 1117 O 105.95 2.24636 -0.418445 0
M  V30 1118 C 106.16 0.392249 -3.46789 0
M  V30 1119 C 107.508 0.645554 -4.19664 0
M  V30 1120 O 108.532 0.474575 -3.53024 0
M  V30 1121 O 107.391 0.976408 -5.37707 0
M  V30 1122 H 104.485 0.182598 -0.80659 0
M  V30 1123 H 107.031 -0.389141 -1.65178 0
M  V30 1124 H 105.803 -0.570702 -3.87116 0
M  V30 1125 H 105.426 1.14316 -3.80812 0
M  V30 1126 N 106.423 1.57458 -0.0668435 0
M  V30 1127 C 107.671 1.92919 0.602214 0
M  V30 1128 C 107.992 0.947215 1.70449 0
M  V30 1129 O 107.262 -0.00544117 1.95899 0
M  V30 1130 H 105.842 0.71217 0.22544 0
M  V30 1131 H 108.504 1.94508 -0.123535 0
M  V30 1132 H 107.6 2.94589 1.03073 0
M  V30 1133 N 107.901 -0.206675 1.56239 0
M  V30 1134 C 108.848 -1.25617 1.93621 0
M  V30 1135 C 109.818 -1.45824 0.795274 0
M  V30 1136 O 111.003 -1.59148 1.05245 0
M  V30 1137 C 108.143 -2.59839 2.27107 0
M  V30 1138 C 107.256 -2.47308 3.54207 0
M  V30 1139 C 106.391 -3.74155 3.7707 0
M  V30 1140 C 105.43 -3.56407 4.97635 0
M  V30 1141 N 104.567 -4.75238 5.1681 0
M  V30 1142 H 109.407 -0.930383 2.83104 0
M  V30 1143 H 106.944 -0.448065 1.4011 0
M  V30 1144 H 108.902 -3.38021 2.44535 0
M  V30 1145 H 107.532 -2.90485 1.40778 0
M  V30 1146 H 106.584 -1.60483 3.4489 0
M  V30 1147 H 107.896 -2.30122 4.42544 0
M  V30 1148 H 107.05 -4.60778 3.94675 0
M  V30 1149 H 105.789 -3.94282 2.87042 0
M  V30 1150 H 104.794 -2.68168 4.79964 0
M  V30 1151 H 106.019 -3.37736 5.89161 0
M  V30 1152 H 103.965 -4.95651 4.29728 0
M  V30 1153 H 103.882 -4.60835 5.99306 0
M  V30 1154 H 105.15 -5.63246 5.38864 0
M  V30 1155 N 109.379 -1.50304 -0.473955 0
M  V30 1156 C 110.309 -1.71886 -1.58042 0
M  V30 1157 C 111.29 -0.567799 -1.60344 0
M  V30 1158 O 112.475 -0.806623 -1.76656 0
M  V30 1159 C 109.605 -1.81036 -2.96384 0
M  V30 1160 C 108.559 -2.962 -3.08949 0
M  V30 1161 C 107.885 -2.9049 -4.48909 0
M  V30 1162 C 109.185 -4.36752 -2.86434 0
M  V30 1163 H 110.879 -2.64527 -1.40234 0
M  V30 1164 H 108.425 -1.27295 -0.673201 0
M  V30 1165 H 110.378 -1.94719 -3.73714 0
M  V30 1166 H 109.102 -0.850147 -3.15341 0
M  V30 1167 H 107.761 -2.82164 -2.3405 0
M  V30 1168 H 107.409 -1.92321 -4.64781 0
M  V30 1169 H 107.109 -3.67802 -4.58253 0
M  V30 1170 H 108.633 -3.06218 -5.28264 0
M  V30 1171 H 110.047 -4.5133 -3.53517 0
M  V30 1172 H 108.444 -5.15493 -3.07225 0
M  V30 1173 H 109.514 -4.49321 -1.82316 0
M  V30 1174 N 110.857 0.726932 -1.39834 0
M  V30 1175 C 112.082 1.52121 -1.40976 0
M  V30 1176 C 112.507 1.88098 -0.00826029 0
M  V30 1177 O 111.865 1.52479 0.980807 0
M  V30 1178 C 111.913 2.78021 -2.29644 0
M  V30 1179 O 111.017 3.74272 -1.73188 0
M  V30 1180 H 110.358 0.45908 -0.479731 0
M  V30 1181 H 112.888 0.896207 -1.83927 0
M  V30 1182 H 112.898 3.26671 -2.44438 0
M  V30 1183 H 111.573 2.51169 -3.31492 0
M  V30 1184 H 110.15 3.33073 -1.6768 0
M  V30 1185 N 112.336 1.25143 0.95797 0
M  V30 1186 C 113.747 1.08851 1.51685 0
M  V30 1187 C 114.098 -0.33687 1.93286 0
M  V30 1188 O 113.223 -1.22644 1.7829 0
M  V30 1189 C 113.818 1.96978 2.75654 0
M  V30 1190 C 112.377 1.84881 3.27866 0
M  V30 1191 C 111.524 1.91329 2.0072 0
M  V30 1192 H 114.475 1.38478 0.77522 0
M  V30 1193 H 114.496 1.5078 3.4935 0
M  V30 1194 H 114.008 3.00712 2.45345 0
M  V30 1195 H 112.109 0.840182 3.63004 0
M  V30 1196 H 112.222 2.6951 3.96107 0
M  V30 1197 H 110.586 1.35174 2.15871 0
M  V30 1198 H 111.369 2.96661 1.72764 0
M  V30 1199 N 113.814 -1.1601 1.06675 0
M  V30 1200 C 115.23 -1.38622 0.790948 0
M  V30 1201 C 115.43 -1.92109 -0.607965 0
M  V30 1202 O 114.486 -2.12239 -1.36787 0
M  V30 1203 C 115.799 -2.36347 1.85905 0
M  V30 1204 C 117.347 -2.50023 1.88301 0
M  V30 1205 C 117.822 -3.51033 2.94176 0
M  V30 1206 N 119.313 -3.58563 2.93235 0
M  V30 1207 C 120.048 -4.36521 3.71803 0
M  V30 1208 N 119.544 -5.17869 4.602 0
M  V30 1209 N 121.337 -4.31541 3.60178 0
M  V30 1210 H 113.488 -0.796294 1.96908 0
M  V30 1211 H 115.751 -0.412597 0.853503 0
M  V30 1212 H 115.457 -2.04147 2.86386 0
M  V30 1213 H 115.331 -3.36042 1.71334 0
M  V30 1214 H 117.718 -2.81524 0.884769 0
M  V30 1215 H 117.799 -1.5035 2.06951 0
M  V30 1216 H 117.443 -3.20268 3.94196 0
M  V30 1217 H 117.373 -4.50445 2.72776 0
M  V30 1218 H 119.864 -3.00496 2.29152 0
M  V30 1219 H 120.177 -5.74578 5.16797 0
M  V30 1220 H 118.522 -5.17199 4.64253 0
M  V30 1221 H 121.713 -3.67051 2.90502 0
M  V30 1222 H 121.886 -4.9205 4.21653 0
M  V30 1223 N 115.292 -0.849877 -1.32721 0
M  V30 1224 C 116.222 -0.306308 -2.31482 0
M  V30 1225 C 117.203 0.591952 -1.59468 0
M  V30 1226 O 118.388 0.513199 -1.87296 0
M  V30 1227 C 115.518 0.510204 -3.43532 0
M  V30 1228 C 114.472 -0.293209 -4.26994 0
M  V30 1229 C 113.798 0.647743 -5.30762 0
M  V30 1230 C 115.098 -1.51634 -4.99804 0
M  V30 1231 H 116.792 -1.13153 -2.77195 0
M  V30 1232 H 114.338 -0.545553 -1.33266 0
M  V30 1233 H 116.291 0.900856 -4.11658 0
M  V30 1234 H 115.015 1.36874 -2.96535 0
M  V30 1235 H 113.674 -0.665555 -3.60508 0
M  V30 1236 H 113.322 1.50299 -4.8002 0
M  V30 1237 H 113.022 0.11422 -5.87489 0
M  V30 1238 H 114.546 1.03567 -6.01753 0
M  V30 1239 H 115.96 -1.19824 -5.60638 0
M  V30 1240 H 114.357 -1.98745 -5.66234 0
M  V30 1241 H 115.427 -2.28018 -4.27943 0
M  V30 1242 N 116.77 1.45427 -0.607355 0
M  V30 1243 C 117.733 2.28974 0.101693 0
M  V30 1244 C 118.733 1.39754 0.795329 0
M  V30 1245 O 119.923 1.61878 0.643527 0
M  V30 1246 C 117.055 3.20768 1.15414 0
M  V30 1247 H 118.248 2.93147 -0.632844 0
M  V30 1248 H 115.801 1.51945 -0.366391 0
M  V30 1249 H 116.536 2.61395 1.91945 0
M  V30 1250 H 116.321 3.86489 0.66098 0
M  V30 1251 H 117.811 3.83589 1.65073 0
M  V30 1252 N 118.248 0.346503 1.53744 0
M  V30 1253 C 119.211 -0.496439 2.23759 0
M  V30 1254 C 120.211 -1.0252 1.2388 0
M  V30 1255 O 121.401 -0.913974 1.48297 0
M  V30 1256 C 118.533 -1.69187 2.95954 0
M  V30 1257 H 119.726 0.115952 2.99676 0
M  V30 1258 H 117.279 0.0978939 1.55993 0
M  V30 1259 H 118.014 -2.34288 2.24231 0
M  V30 1260 H 117.799 -1.31989 3.69217 0
M  V30 1261 H 119.289 -2.28969 3.49232 0
M  V30 1262 N 119.726 -1.57421 0.075193 0
M  V30 1263 C 120.656 -2.15942 -0.888324 0
M  V30 1264 C 121.637 -1.08737 -1.30806 0
M  V30 1265 O 122.822 -1.36787 -1.37851 0
M  V30 1266 C 119.952 -2.72379 -2.1547 0
M  V30 1267 C 118.906 -3.8478 -1.87425 0
M  V30 1268 C 118.232 -4.27834 -3.20721 0
M  V30 1269 C 119.532 -5.08869 -1.17684 0
M  V30 1270 H 121.226 -2.96705 -0.400799 0
M  V30 1271 H 118.772 -1.42723 -0.191342 0
M  V30 1272 H 120.725 -3.11965 -2.83295 0
M  V30 1273 H 119.449 -1.88841 -2.6647 0
M  V30 1274 H 118.108 -3.45703 -1.22004 0
M  V30 1275 H 117.756 -3.41214 -3.6957 0
M  V30 1276 H 117.456 -5.03605 -3.02746 0
M  V30 1277 H 118.98 -4.70039 -3.89738 0
M  V30 1278 H 120.394 -5.4575 -1.75584 0
M  V30 1279 H 118.791 -5.8994 -1.09956 0
M  V30 1280 H 119.861 -4.84648 -0.156453 0
M  V30 1281 N 121.204 0.198386 -1.56346 0
M  V30 1282 C 122.151 1.24589 -1.94284 0
M  V30 1283 C 123.121 1.454 -0.802997 0
M  V30 1284 O 124.306 1.58588 -1.06087 0
M  V30 1285 C 121.446 2.58631 -2.28482 0
M  V30 1286 C 120.559 2.45426 -3.55514 0
M  V30 1287 C 119.694 3.7215 -3.79049 0
M  V30 1288 C 118.733 3.53763 -4.99518 0
M  V30 1289 N 117.87 4.72491 -5.19323 0
M  V30 1290 H 122.71 0.915356 -2.83593 0
M  V30 1291 H 120.247 0.440629 -1.40346 0
M  V30 1292 H 122.205 3.3672 -2.46324 0
M  V30 1293 H 120.835 2.89734 -1.42317 0
M  V30 1294 H 119.887 1.58652 -3.45737 0
M  V30 1295 H 121.199 2.27772 -4.43758 0
M  V30 1296 H 120.353 4.58679 -3.97113 0
M  V30 1297 H 119.092 3.92754 -2.89129 0
M  V30 1298 H 118.097 2.65619 -4.8138 0
M  V30 1299 H 119.322 3.34607 -5.90944 0
M  V30 1300 H 117.268 4.93365 -4.3235 0
M  V30 1301 H 117.185 4.5765 -6.01741 0
M  V30 1302 H 118.453 5.6038 -5.41843 0
M  V30 1303 N 122.682 1.50554 0.465978 0
M  V30 1304 C 124.093 1.54599 1.04671 0
M  V30 1305 C 124.444 0.352488 1.93008 0
M  V30 1306 O 123.569 -0.534044 2.09707 0
M  V30 1307 C 124.164 2.80166 1.90505 0
M  V30 1308 C 122.723 2.86876 2.43678 0
M  V30 1309 C 121.87 2.48947 1.22151 0
M  V30 1310 H 124.821 1.56744 0.248384 0
M  V30 1311 H 124.842 2.62311 2.75633 0
M  V30 1312 H 124.354 3.67013 1.26186 0
M  V30 1313 H 122.455 2.04393 3.11536 0
M  V30 1314 H 122.568 3.89885 2.78436 0
M  V30 1315 H 120.932 2.01498 1.5579 0
M  V30 1316 H 121.715 3.38107 0.594866 0
M  V30 1317 N 124.16 -0.719506 1.40217 0
M  V30 1318 C 125.408 -1.47641 1.3801 0
M  V30 1319 C 125.729 -1.94992 -0.018145 0
M  V30 1320 O 124.999 -1.70073 -0.972207 0
M  V30 1321 H 123.579 -0.547744 0.507923 0
M  V30 1322 H 126.241 -0.853187 1.75233 0
M  V30 1323 H 125.337 -2.35112 2.05253 0
M  V30 1324 N 125.638 -1.25649 -0.95132 0
M  V30 1325 C 126.915 -1.01361 -1.67288 0
M  V30 1326 C 127.295 0.459135 -2.06046 0
M  V30 1327 O 126.643 1.43723 -1.7764 0
M  V30 1328 C 126.853 -1.95256 -2.89268 0
M  V30 1329 C 128.201 -2.23289 -3.61147 0
M  V30 1330 O 129.225 -1.93041 -2.99355 0
M  V30 1331 O 128.084 -2.74741 -4.72419 0
M  V30 1332 H 125.178 -0.38464 -0.732107 0
M  V30 1333 H 127.724 -1.36817 -1.00395 0
M  V30 1334 H 126.496 -2.94685 -2.57442 0
M  V30 1335 H 126.119 -1.60218 -3.6389 0
M  V30 1336 N 127.117 1.15442 -1.07289 0
M  V30 1337 C 128.027 2.23786 -0.704057 0
M  V30 1338 C 129.043 1.7166 0.284413 0
M  V30 1339 O 130.219 2.00972 0.131205 0
M  V30 1340 C 127.284 3.46535 -0.106792 0
M  V30 1341 C 126.345 4.13654 -1.14842 0
M  V30 1342 C 125.578 5.30544 -0.57956 0
M  V30 1343 O 125.801 5.67187 0.604585 0
M  V30 1344 O 124.735 5.87154 -1.32414 0
M  V30 1345 H 128.561 2.57664 -1.60757 0
M  V30 1346 H 126.146 1.23152 -0.845803 0
M  V30 1347 H 128.028 4.20804 0.224048 0
M  V30 1348 H 126.703 3.14407 0.770049 0
M  V30 1349 H 125.61 3.4131 -1.5316 0
M  V30 1350 H 126.943 4.49861 -1.99714 0
M  V30 1351 N 128.595 0.856903 1.32268 0
M  V30 1352 C 129.841 0.462069 1.97466 0
M  V30 1353 C 130.174 -0.980298 1.67642 0
M  V30 1354 O 129.449 -1.68824 0.965858 0
M  V30 1355 C 129.732 0.704336 3.53145 0
M  V30 1356 C 129.585 2.19529 3.9259 0
M  V30 1357 C 130.904 0.1622 4.39801 0
M  V30 1358 H 128.023 0.169357 0.717278 0
M  V30 1359 H 130.665 1.07574 1.56614 0
M  V30 1360 H 128.815 0.181999 3.88073 0
M  V30 1361 H 130.487 2.78387 3.67829 0
M  V30 1362 H 128.73 2.67292 3.41668 0
M  V30 1363 H 129.401 2.31549 5.01088 0
M  V30 1364 H 131.877 0.608905 4.11621 0
M  V30 1365 H 130.753 0.361265 5.4771 0
M  V30 1366 H 131.014 -0.935158 4.32096 0
M  V30 1367 N 130.073 -1.45103 0.615059 0
M  V30 1368 C 131.005 -2.28786 -0.13762 0
M  V30 1369 C 132.018 -1.40376 -0.824525 0
M  V30 1370 O 133.207 -1.64681 -0.688662 0
M  V30 1371 C 130.307 -3.16322 -1.21628 0
M  V30 1372 C 129.48 -4.33054 -0.615039 0
M  V30 1373 C 128.539 -5.01743 -1.58556 0
M  V30 1374 O 127.565 -5.58293 -1.10895 0
M  V30 1375 N 128.767 -5.01714 -2.91998 0
M  V30 1376 H 131.532 -2.94025 0.580483 0
M  V30 1377 H 129.093 -1.55373 0.45507 0
M  V30 1378 H 131.085 -3.59139 -1.86552 0
M  V30 1379 H 129.655 -2.52943 -1.83681 0
M  V30 1380 H 128.875 -3.93627 0.21245 0
M  V30 1381 H 130.163 -5.08431 -0.193704 0
M  V30 1382 H 129.561 -4.57075 -3.33316 0
M  V30 1383 H 128.118 -5.48371 -3.52325 0
M  V30 1384 N 131.551 -0.354651 -1.53558 0
M  V30 1385 C 132.797 0.238797 -2.01389 0
M  V30 1386 C 133.13 1.49309 -1.2418 0
M  V30 1387 O 132.405 1.91638 -0.332457 0
M  V30 1388 C 132.688 0.541771 -3.56001 0
M  V30 1389 C 132.541 -0.725388 -4.43912 0
M  V30 1390 C 133.86 1.34685 -4.18984 0
M  V30 1391 H 130.979 0.0853177 -0.732045 0
M  V30 1392 H 133.621 -0.477384 -1.83905 0
M  V30 1393 H 131.771 1.15189 -3.71031 0
M  V30 1394 H 133.443 -1.36313 -4.407 0
M  V30 1395 H 131.686 -1.34801 -4.12324 0
M  V30 1396 H 132.357 -0.468505 -5.50008 0
M  V30 1397 H 134.833 0.830837 -4.07721 0
M  V30 1398 H 133.709 1.52759 -5.27215 0
M  V30 1399 H 133.97 2.35221 -3.74331 0
M  V30 1400 N 133.029 1.57378 -0.0835403 0
M  V30 1401 C 134.275 1.94217 0.583733 0
M  V30 1402 C 134.608 0.964653 1.68547 0
M  V30 1403 O 133.883 -0.00422258 1.945 0
M  V30 1404 C 134.166 3.41253 1.14972 0
M  V30 1405 C 134.019 4.49768 0.0538277 0
M  V30 1406 C 135.338 3.89352 2.05166 0
M  V30 1407 H 132.457 0.706233 0.210724 0
M  V30 1408 H 135.099 1.89392 -0.1519 0
M  V30 1409 H 133.249 3.45496 1.77665 0
M  V30 1410 H 134.921 4.57641 -0.579851 0
M  V30 1411 H 133.164 4.29432 -0.614068 0
M  V30 1412 H 133.835 5.49817 0.490452 0
M  V30 1413 H 136.311 3.87189 1.52393 0
M  V30 1414 H 135.187 4.92822 2.41698 0
M  V30 1415 H 135.448 3.27973 2.96456 0
M  V30 1416 N 134.507 -0.190092 1.56449 0
M  V30 1417 C 135.732 -0.929864 1.85387 0
M  V30 1418 C 136.157 -1.7585 0.667704 0
M  V30 1419 O 135.515 -1.77198 -0.383459 0
M  V30 1420 C 135.563 -1.79773 3.12593 0
M  V30 1421 O 134.667 -2.89713 2.93496 0
M  V30 1422 H 134.008 -0.261574 0.610307 0
M  V30 1423 H 136.538 -0.193896 2.03679 0
M  V30 1424 H 136.548 -2.20139 3.43515 0
M  V30 1425 H 135.223 -1.18892 3.98544 0
M  V30 1426 H 133.8 -2.53065 2.73884 0
M  V30 1427 N 135.985 -1.50799 -0.457987 0
M  V30 1428 C 136.895 -1.73426 -1.57989 0
M  V30 1429 C 137.911 -0.617745 -1.62665 0
M  V30 1430 O 139.087 -0.897614 -1.80291 0
M  V30 1431 C 136.152 -1.83557 -2.94122 0
M  V30 1432 C 135.213 -3.07345 -2.99729 0
M  V30 1433 C 134.446 -3.16983 -4.29368 0
M  V30 1434 O 134.669 -2.33077 -5.20607 0
M  V30 1435 O 133.603 -4.09812 -4.40837 0
M  V30 1436 H 137.429 -2.68555 -1.41817 0
M  V30 1437 H 135.014 -1.35052 -0.638859 0
M  V30 1438 H 136.896 -1.92326 -3.74952 0
M  V30 1439 H 135.571 -0.916137 -3.10465 0
M  V30 1440 H 134.478 -3.04068 -2.1793 0
M  V30 1441 H 135.811 -3.9891 -2.88326 0
M  V30 1442 N 137.463 0.71206 -1.40597 0
M  V30 1443 C 138.426 1.80785 -1.40888 0
M  V30 1444 C 139.426 1.57937 -0.302103 0
M  V30 1445 O 140.616 1.64913 -0.561182 0
M  V30 1446 C 137.748 3.18927 -1.20409 0
M  V30 1447 H 138.941 1.81924 -2.38419 0
M  V30 1448 H 136.494 0.91805 -1.26497 0
M  V30 1449 H 137.229 3.23436 -0.236522 0
M  V30 1450 H 137.014 3.36911 -2.00582 0
M  V30 1451 H 138.504 3.98949 -1.23408 0
M  V30 1452 N 138.941 1.26152 0.944643 0
M  V30 1453 C 139.904 1.07474 2.0244 0
M  V30 1454 C 140.904 0.0242064 1.60782 0
M  V30 1455 O 142.094 0.267302 1.72137 0
M  V30 1456 C 139.226 0.633956 3.34953 0
M  V30 1457 H 140.419 2.03336 2.20442 0
M  V30 1458 H 137.972 1.087 1.12312 0
M  V30 1459 H 138.707 -0.326811 3.22649 0
M  V30 1460 H 138.492 1.39247 3.66542 0
M  V30 1461 H 139.982 0.52501 4.14287 0
M  V30 1462 N 140.419 -1.14872 1.07899 0
M  V30 1463 C 141.667 -1.85422 0.803941 0
M  V30 1464 C 141.988 -1.83051 -0.67211 0
M  V30 1465 O 141.258 -1.27532 -1.48703 0
M  V30 1466 H 139.838 -0.686537 0.294408 0
M  V30 1467 H 142.5 -1.39226 1.3639 0
M  V30 1468 H 141.596 -2.90399 1.14346 0
M  V30 1469 N 141.898 -0.863906 -1.31812 0
M  V30 1470 C 143.145 -0.471836 -1.96926 0
M  V30 1471 C 143.473 0.974578 -1.68322 0
M  V30 1472 O 142.728 1.7003 -0.968933 0
M  V30 1473 C 143.027 -0.668547 -3.51091 0
M  V30 1474 C 142.693 -2.08683 -3.99703 0
M  V30 1475 C 141.355 -2.47471 -4.12688 0
M  V30 1476 C 143.707 -3.01207 -4.25351 0
M  V30 1477 C 141.035 -3.78037 -4.4867 0
M  V30 1478 C 143.387 -4.31282 -4.62794 0
M  V30 1479 C 142.051 -4.69992 -4.73987 0
M  V30 1480 H 141.321 -0.172657 -0.720604 0
M  V30 1481 H 143.968 -1.09573 -1.57054 0
M  V30 1482 H 142.273 0.0385252 -3.91781 0
M  V30 1483 H 143.97 -0.345102 -3.99512 0
M  V30 1484 H 140.56 -1.77566 -3.90087 0
M  V30 1485 H 144.744 -2.72469 -4.14819 0
M  V30 1486 H 140 -4.078 -4.55532 0
M  V30 1487 H 144.174 -5.03031 -4.81594 0
M  V30 1488 H 141.801 -5.71207 -5.01624 0
M  V30 1489 N 143.376 1.44774 -0.622745 0
M  V30 1490 C 144.623 2.02121 -0.1239 0
M  V30 1491 C 144.951 1.48915 1.25118 0
M  V30 1492 O 144.206 0.660045 1.84233 0
M  V30 1493 C 144.505 3.57364 -0.0508323 0
M  V30 1494 C 144.171 4.29787 -1.36358 0
M  V30 1495 C 142.833 4.4929 -1.72314 0
M  V30 1496 C 145.185 4.71062 -2.23048 0
M  V30 1497 C 142.513 5.07325 -2.94682 0
M  V30 1498 C 144.865 5.30452 -3.44679 0
M  V30 1499 C 143.529 5.48175 -3.80868 0
M  V30 1500 H 142.799 0.739612 -0.0453381 0
M  V30 1501 H 145.446 1.73648 -0.807389 0
M  V30 1502 H 143.751 3.85202 0.715991 0
M  V30 1503 H 145.448 3.99456 0.351533 0
M  V30 1504 H 142.038 4.14932 -1.07375 0
M  V30 1505 H 146.222 4.55715 -1.96565 0
M  V30 1506 H 141.478 5.19235 -3.22809 0
M  V30 1507 H 145.652 5.61385 -4.12092 0
M  V30 1508 H 143.279 5.92912 -4.75773 0
M  V30 1509 N 144.854 0.36279 1.53368 0
M  V30 1510 C 146.1 -0.228113 2.01513 0
M  V30 1511 C 146.433 -1.48648 1.2497 0
M  V30 1512 O 145.708 -1.91459 0.342616 0
M  V30 1513 C 145.991 -0.522884 3.56284 0
M  V30 1514 C 145.844 0.74892 4.43521 0
M  V30 1515 C 147.163 -1.32461 4.19693 0
M  V30 1516 H 144.282 -0.0814343 0.732487 0
M  V30 1517 H 146.924 0.48713 1.83649 0
M  V30 1518 H 145.074 -1.1322 3.71636 0
M  V30 1519 H 146.746 1.38648 4.39971 0
M  V30 1520 H 144.989 1.36986 4.11603 0
M  V30 1521 H 145.66 0.497667 5.49752 0
M  V30 1522 H 148.136 -0.809203 4.08156 0
M  V30 1523 H 147.012 -1.49961 5.28018 0
M  V30 1524 H 147.273 -2.33232 3.75573 0
M  V30 1525 N 146.332 -1.57332 0.0918853 0
M  V30 1526 C 147.262 -2.16872 -0.865371 0
M  V30 1527 C 148.243 -1.10118 -1.29646 0
M  V30 1528 O 149.428 -1.38242 -1.36392 0
M  V30 1529 C 146.558 -2.74649 -2.12569 0
M  V30 1530 C 145.512 -3.86747 -1.83333 0
M  V30 1531 C 144.838 -4.31212 -3.16166 0
M  V30 1532 C 146.138 -5.10089 -1.1228 0
M  V30 1533 H 147.832 -2.97114 -0.369307 0
M  V30 1534 H 145.378 -1.42918 -0.176194 0
M  V30 1535 H 147.331 -3.14952 -2.7997 0
M  V30 1536 H 146.055 -1.91657 -2.64452 0
M  V30 1537 H 144.714 -3.46978 -1.18331 0
M  V30 1538 H 144.362 -3.45115 -3.6593 0
M  V30 1539 H 144.062 -5.06788 -2.97388 0
M  V30 1540 H 145.586 -4.74146 -3.84731 0
M  V30 1541 H 147 -5.47582 -1.69785 0
M  V30 1542 H 145.397 -5.91073 -1.03693 0
M  V30 1543 H 146.467 -4.84786 -0.105041 0
M  V30 1544 N 147.81 0.181792 -1.56548 0
M  V30 1545 C 149.087 0.926765 -1.72251 0
M  V30 1546 C 149.467 2.00831 -0.650386 0
M  V30 1547 O 148.815 2.26008 0.336521 0
M  V30 1548 C 149.025 1.50106 -3.1507 0
M  V30 1549 C 150.373 1.97805 -3.75711 0
M  V30 1550 O 151.397 1.59922 -3.18282 0
M  V30 1551 O 150.256 2.67555 -4.76525 0
M  V30 1552 H 147.35 0.435506 -0.703039 0
M  V30 1553 H 149.896 0.170443 -1.68842 0
M  V30 1554 H 148.668 0.72212 -3.84579 0
M  V30 1555 H 148.291 2.32186 -3.22763 0
M  V30 1556 N 149.288 1.51039 0.449983 0
M  V30 1557 C 150.198 1.74261 1.57067 0
M  V30 1558 C 151.214 0.626363 1.62335 0
M  V30 1559 O 152.39 0.907162 1.79812 0
M  V30 1560 C 149.455 1.85114 2.93144 0
M  V30 1561 C 148.516 3.0893 2.98095 0
M  V30 1562 C 147.749 3.19256 4.27681 0
M  V30 1563 O 147.972 2.35835 5.19363 0
M  V30 1564 O 146.906 4.12144 4.38658 0
M  V30 1565 H 150.732 2.69303 1.40391 0
M  V30 1566 H 148.317 1.35389 0.631688 0
M  V30 1567 H 150.199 1.94311 3.73926 0
M  V30 1568 H 148.874 0.932588 3.09975 0
M  V30 1569 H 147.781 3.0522 2.16314 0
M  V30 1570 H 149.114 4.00433 2.86206 0
M  V30 1571 N 150.766 -0.704594 1.40972 0
M  V30 1572 C 152.012 -1.46675 1.40051 0
M  V30 1573 C 152.345 -1.94199 0.00641102 0
M  V30 1574 O 151.62 -1.68916 -0.964235 0
M  V30 1575 C 151.903 -2.68505 2.39952 0
M  V30 1576 C 151.756 -2.26805 3.88432 0
M  V30 1577 C 153.075 -3.70686 2.37233 0
M  V30 1578 H 150.194 -0.532015 0.510028 0
M  V30 1579 H 152.836 -0.803255 1.72185 0
M  V30 1580 H 150.986 -3.25114 2.1268 0
M  V30 1581 H 152.658 -1.75592 4.26574 0
M  V30 1582 H 150.901 -1.58685 4.03734 0
M  V30 1583 H 151.572 -3.14181 4.53866 0
M  V30 1584 H 154.048 -3.23731 2.61415 0
M  V30 1585 H 152.924 -4.53553 3.09162 0
M  V30 1586 H 153.185 -4.19754 1.38777 0
M  V30 1587 N 152.244 -1.26651 -0.937939 0
M  V30 1588 C 153.655 -1.1125 -1.49934 0
M  V30 1589 C 154.006 0.306077 -1.93798 0
M  V30 1590 O 153.131 1.19792 -1.80219 0
M  V30 1591 C 153.726 -2.01339 -2.72485 0
M  V30 1592 C 152.285 -1.90074 -3.24883 0
M  V30 1593 C 151.432 -1.94498 -1.97651 0
M  V30 1594 H 154.383 -1.39693 -0.753091 0
M  V30 1595 H 154.404 -1.56319 -3.46907 0
M  V30 1596 H 153.916 -3.04577 -2.40529 0
M  V30 1597 H 152.017 -0.897827 -3.61621 0
M  V30 1598 H 152.13 -2.75778 -3.9177 0
M  V30 1599 H 150.494 -1.38591 -2.13693 0
M  V30 1600 H 151.277 -2.99372 -1.68022 0
M  V30 1601 N 153.722 1.14298 -1.08507 0
M  V30 1602 C 154.672 2.17449 -0.685569 0
M  V30 1603 C 155.656 1.58167 0.295315 0
M  V30 1604 O 156.848 1.76675 0.107172 0
M  V30 1605 C 153.977 3.43161 -0.0975318 0
M  V30 1606 C 153.063 4.09471 -1.10426 0
M  V30 1607 N 153.454 4.51089 -2.28806 0
M  V30 1608 C 151.752 4.35976 -0.940258 0
M  V30 1609 C 152.453 5.02654 -2.9277 0
M  V30 1610 N 151.429 4.96927 -2.20374 0
M  V30 1611 H 155.231 2.47369 -1.587 0
M  V30 1612 H 152.745 1.30992 -0.959936 0
M  V30 1613 H 154.742 4.16388 0.20664 0
M  V30 1614 H 153.402 3.14719 0.798872 0
M  V30 1615 H 154.413 4.44097 -2.66455 0
M  V30 1616 H 151.09 4.17386 -0.0977441 0
M  V30 1617 H 152.48 5.44723 -3.93352 0
M  V30 1618 N 155.201 0.870884 1.31352 0
M  V30 1619 C 156.441 0.488783 1.9847 0
M  V30 1620 C 156.805 -0.941536 1.67329 0
M  V30 1621 O 158.006 -1.42903 2.27667 0
M  V30 1622 C 156.277 0.739688 3.49662 0
M  V30 1623 S 157.836 0.457582 4.36408 0
M  V30 1624 H 154.654 0.18242 0.6872 0
M  V30 1625 H 157.256 1.12711 1.59739 0
M  V30 1626 H 155.96 1.77944 3.69816 0
M  V30 1627 H 155.491 0.0883905 3.93301 0
M  V30 1628 H 157.506 -0.709752 4.91098 0
M  V30 1629 N 156.679 -1.44442 0.630414 0
M  V30 1630 C 157.589 -2.34476 -0.0761693 0
M  V30 1631 C 158.605 -1.52576 -0.836449 0
M  V30 1632 O 159.781 -1.85307 -0.788874 0
M  V30 1633 C 156.846 -3.30545 -1.04599 0
M  V30 1634 C 155.907 -4.28352 -0.28516 0
M  V30 1635 C 155.14 -5.19831 -1.20878 0
M  V30 1636 O 155.363 -5.15223 -2.44747 0
M  V30 1637 O 154.297 -5.97892 -0.693491 0
M  V30 1638 H 158.123 -2.96345 0.664324 0
M  V30 1639 H 155.708 -1.44203 0.39061 0
M  V30 1640 H 157.59 -3.89681 -1.60396 0
M  V30 1641 H 156.265 -2.7121 -1.76711 0
M  V30 1642 H 155.172 -3.72764 0.315837 0
M  V30 1643 H 156.505 -4.90605 0.395924 0
M  V30 1644 N 158.157 -0.370918 -1.53173 0
M  V30 1645 C 159.385 0.217704 -2.05751 0
M  V30 1646 C 159.8 1.42018 -1.24404 0
M  V30 1647 O 159.157 1.80245 -0.286033 0
M  V30 1648 C 159.208 0.605954 -3.56385 0
M  V30 1649 O 158.929 -0.548734 -4.3465 0
M  V30 1650 C 160.43 1.2524 -4.25241 0
M  V30 1651 H 157.65 0.0371659 -0.66997 0
M  V30 1652 H 160.194 -0.530832 -1.9749 0
M  V30 1653 H 158.349 1.3044 -3.6478 0
M  V30 1654 H 158.763 -0.23376 -5.23979 0
M  V30 1655 H 160.237 1.47458 -5.3194 0
M  V30 1656 H 160.714 2.2143 -3.79296 0
M  V30 1657 H 161.32 0.595233 -4.21114 0
M  V30 1658 N 159.635 1.57281 -0.100228 0
M  V30 1659 C 160.565 2.17328 0.853857 0
M  V30 1660 C 161.546 1.10804 1.2906 0
M  V30 1661 O 162.731 1.38963 1.35657 0
M  V30 1662 C 159.861 2.75772 2.11109 0
M  V30 1663 C 158.815 3.87713 1.81279 0
M  V30 1664 C 158.141 4.32882 3.13874 0
M  V30 1665 C 159.441 5.10677 1.09574 0
M  V30 1666 H 161.135 2.97305 0.353545 0
M  V30 1667 H 158.681 1.43009 0.168612 0
M  V30 1668 H 160.634 3.16433 2.78296 0
M  V30 1669 H 159.358 1.93057 2.63432 0
M  V30 1670 H 158.017 3.476 1.16489 0
M  V30 1671 H 157.665 3.47051 3.64095 0
M  V30 1672 H 157.365 5.08358 2.94696 0
M  V30 1673 H 158.889 4.7618 3.82211 0
M  V30 1674 H 160.303 5.48474 1.66879 0
M  V30 1675 H 158.7 5.91615 1.00557 0
M  V30 1676 H 159.77 4.84835 0.0793299 0
M  V30 1677 N 161.113 -0.173488 1.56642 0
M  V30 1678 C 162.359 -0.887108 1.83035 0
M  V30 1679 C 162.714 -1.79965 0.680461 0
M  V30 1680 O 162.007 -1.88854 -0.323225 0
M  V30 1681 C 162.201 -1.72069 3.13252 0
M  V30 1682 C 162.03 -0.89035 4.40798 0
M  V30 1683 C 160.8 -0.566282 5.02117 0
M  V30 1684 C 162.998 -0.232921 5.13772 0
M  V30 1685 N 160.98 0.280427 6.13259 0
M  V30 1686 C 162.351 0.475046 6.18177 0
M  V30 1687 C 164.406 -0.150863 4.97671 0
M  V30 1688 C 163.109 1.25729 7.08227 0
M  V30 1689 C 165.135 0.618039 5.88162 0
M  V30 1690 C 164.497 1.31438 6.92029 0
M  V30 1691 H 160.596 -0.303303 0.720785 0
M  V30 1692 H 163.18 -0.154244 1.94088 0
M  V30 1693 H 161.351 -2.42499 3.03395 0
M  V30 1694 H 163.083 -2.37545 3.2765 0
M  V30 1695 H 159.838 -0.895852 4.6505 0
M  V30 1696 H 160.262 0.694027 6.73433 0
M  V30 1697 H 164.904 -0.674868 4.17379 0
M  V30 1698 H 162.622 1.79265 7.87966 0
M  V30 1699 H 166.208 0.683173 5.77775 0
M  V30 1700 H 165.088 1.89981 7.6084 0
M  V30 1701 N 162.591 -1.51276 -0.441967 0
M  V30 1702 C 163.524 -1.66933 -1.55591 0
M  V30 1703 C 164.502 -0.516958 -1.54163 0
M  V30 1704 O 165.686 -0.740209 -1.73358 0
M  V30 1705 C 162.813 -1.67866 -2.94174 0
M  V30 1706 C 161.859 -2.89013 -3.13646 0
M  V30 1707 S 162.692 -4.49897 -2.90436 0
M  V30 1708 C 163.848 -4.53568 -4.31308 0
M  V30 1709 H 164.081 -2.61155 -1.42076 0
M  V30 1710 H 161.614 -1.40902 -0.631341 0
M  V30 1711 H 163.572 -1.69089 -3.74058 0
M  V30 1712 H 162.233 -0.748296 -3.05056 0
M  V30 1713 H 161.426 -2.86054 -4.14957 0
M  V30 1714 H 161.028 -2.85509 -2.4158 0
M  V30 1715 H 163.32 -4.28924 -5.24434 0
M  V30 1716 H 164.263 -5.55355 -4.39303 0
M  V30 1717 H 164.671 -3.82943 -4.14747 0
M  V30 1718 N 164.069 0.697108 -1.41344 0
M  V30 1719 C 164.999 1.82353 -1.45841 0
M  V30 1720 C 165.98 1.67115 -0.317247 0
M  V30 1721 O 167.165 1.86871 -0.528474 0
M  V30 1722 C 164.295 3.20476 -1.33838 0
M  V30 1723 C 163.249 3.50415 -2.4575 0
M  V30 1724 C 162.575 4.87878 -2.18813 0
M  V30 1725 C 163.875 3.49546 -3.88091 0
M  V30 1726 H 165.569 1.78846 -2.40113 0
M  V30 1727 H 163.115 0.859028 -1.15571 0
M  V30 1728 H 165.068 3.98988 -1.35596 0
M  V30 1729 H 163.792 3.24604 -0.360498 0
M  V30 1730 H 162.451 2.74253 -2.43271 0
M  V30 1731 H 162.099 4.8863 -1.19371 0
M  V30 1732 H 161.799 5.08875 -2.93803 0
M  V30 1733 H 163.323 5.68702 -2.22284 0
M  V30 1734 H 164.737 4.18066 -3.92293 0
M  V30 1735 H 163.134 3.82075 -4.62751 0
M  V30 1736 H 164.204 2.48552 -4.16353 0
M  V30 1737 N 165.547 1.27147 0.931209 0
M  V30 1738 C 166.51 1.09615 2.01289 0
M  V30 1739 C 167.51 0.0412581 1.60747 0
M  V30 1740 O 168.7 0.285545 1.71844 0
M  V30 1741 C 165.832 0.669447 3.34262 0
M  V30 1742 H 167.025 2.05662 2.18273 0
M  V30 1743 H 164.578 1.09885 1.11153 0
M  V30 1744 H 165.313 -0.292572 3.22978 0
M  V30 1745 H 165.098 1.43127 3.65044 0
M  V30 1746 H 166.588 0.568921 4.13706 0
M  V30 1747 N 167.025 -1.13721 1.09112 0
M  V30 1748 C 168.253 -1.88773 0.846899 0
M  V30 1749 C 168.668 -1.7896 -0.601572 0
M  V30 1750 O 168.025 -1.15394 -1.41388 0
M  V30 1751 C 168.076 -3.3849 1.26913 0
M  V30 1752 O 167.797 -3.48043 2.66079 0
M  V30 1753 C 169.298 -4.30518 1.05682 0
M  V30 1754 H 166.518 -0.59772 0.304914 0
M  V30 1755 H 169.062 -1.43977 1.45227 0
M  V30 1756 H 167.217 -3.80881 0.707723 0
M  V30 1757 H 167.631 -4.4109 2.83795 0
M  V30 1758 H 169.105 -5.3391 1.40156 0
M  V30 1759 H 169.582 -4.392 -0.00563416 0
M  V30 1760 H 170.188 -3.93893 1.60402 0
M  V30 1761 N 168.503 -0.877838 -1.30888 0
M  V30 1762 C 169.751 -0.491723 -1.96027 0
M  V30 1763 C 170.072 0.960827 -1.69685 0
M  V30 1764 O 169.342 1.67462 -1.01654 0
M  V30 1765 H 167.922 -0.17885 -0.725273 0
M  V30 1766 H 170.584 -1.11935 -1.59551 0
M  V30 1767 H 169.68 -0.656016 -3.05128 0
M  V30 1768 N 169.982 1.44106 -0.638065 0
M  V30 1769 C 171.21 2.06336 -0.152615 0
M  V30 1770 C 171.625 1.47731 1.17563 0
M  V30 1771 O 170.982 0.602806 1.72257 0
M  V30 1772 C 171.033 3.61479 -0.0391491 0
M  V30 1773 O 170.754 4.17903 -1.31487 0
M  V30 1774 C 172.255 4.40757 0.474176 0
M  V30 1775 H 169.475 0.665862 -0.0828776 0
M  V30 1776 H 172.019 1.84862 -0.87443 0
M  V30 1777 H 170.174 3.82191 0.633142 0
M  V30 1778 H 170.588 5.11416 -1.16421 0
M  V30 1779 H 172.062 5.49707 0.502562 0
M  V30 1780 H 172.539 4.12697 1.50258 0
M  V30 1781 H 173.145 4.24979 -0.165102 0
M  V30 1782 N 171.46 0.379036 1.52974 0
M  V30 1783 C 172.423 -0.448865 2.24762 0
M  V30 1784 C 173.423 -0.998689 1.26027 0
M  V30 1785 O 174.613 -0.882313 1.50203 0
M  V30 1786 C 171.745 -1.62872 2.99476 0
M  V30 1787 H 172.938 0.179491 2.99362 0
M  V30 1788 H 170.491 0.13096 1.5575 0
M  V30 1789 H 171.226 -2.29479 2.29151 0
M  V30 1790 H 171.011 -1.24128 3.71934 0
M  V30 1791 H 172.501 -2.2151 3.5401 0
M  V30 1792 N 172.938 -1.57226 0.108567 0
M  V30 1793 C 174.187 -1.94008 -0.551703 0
M  V30 1794 C 174.5 -0.993442 -1.68494 0
M  V30 1795 O 175.706 -1.25551 -2.40726 0
M  V30 1796 C 174.162 -3.44763 -1.03279 0
M  V30 1797 C 173.77 -4.47943 0.0714193 0
M  V30 1798 C 175.514 -3.90483 -1.66503 0
M  V30 1799 C 173.421 -5.89865 -0.425779 0
M  V30 1800 H 172.351 -0.724206 -0.209863 0
M  V30 1801 H 175.002 -1.82547 0.186741 0
M  V30 1802 H 173.384 -3.51422 -1.82533 0
M  V30 1803 H 174.558 -4.52942 0.847365 0
M  V30 1804 H 172.873 -4.11913 0.609669 0
M  V30 1805 H 175.47 -4.93925 -2.04798 0
M  V30 1806 H 175.813 -3.29877 -2.53942 0
M  V30 1807 H 176.346 -3.86581 -0.938074 0
M  V30 1808 H 173.085 -6.54202 0.412316 0
M  V30 1809 H 172.605 -5.88309 -1.16843 0
M  V30 1810 H 174.284 -6.40844 -0.890397 0
M  V30 1811 N 174.416 0.165178 -1.56732 0
M  V30 1812 C 175.664 0.879068 -1.8198 0
M  V30 1813 C 175.985 1.82514 -0.686561 0
M  V30 1814 O 175.255 1.93694 0.293146 0
M  V30 1815 H 173.835 0.327608 -0.671329 0
M  V30 1816 H 176.497 0.163526 -1.94213 0
M  V30 1817 H 175.593 1.45228 -2.76252 0
M  V30 1818 N 175.894 1.51508 0.433938 0
M  V30 1819 C 177.305 1.56784 1.01369 0
M  V30 1820 C 177.656 0.393349 1.92217 0
M  V30 1821 O 176.781 -0.489441 2.10792 0
M  V30 1822 C 177.376 2.84144 1.8452 0
M  V30 1823 C 175.935 2.9198 2.37539 0
M  V30 1824 C 175.082 2.51482 1.16843 0
M  V30 1825 H 178.033 1.57236 0.215081 0
M  V30 1826 H 178.054 2.68098 2.70007 0
M  V30 1827 H 177.566 3.69607 1.18373 0
M  V30 1828 H 175.667 2.10955 3.0713 0
M  V30 1829 H 175.78 3.95704 2.70103 0
M  V30 1830 H 174.144 2.04758 1.51481 0
M  V30 1831 H 174.927 3.39293 0.523015 0
M  V30 1832 N 177.372 -0.689602 1.41712 0
M  V30 1833 C 178.602 -1.47613 1.44548 0
M  V30 1834 C 179.01 -1.89132 0.0509034 0
M  V30 1835 O 178.353 -1.57741 -0.94146 0
M  V30 1836 C 178.415 -2.76596 2.2964 0
M  V30 1837 C 178.079 -2.57245 3.77722 0
M  V30 1838 C 179.076 -2.22804 4.69739 0
M  V30 1839 C 176.761 -2.727 4.2183 0
M  V30 1840 C 178.755 -2.04064 6.03851 0
M  V30 1841 C 176.442 -2.53576 5.56006 0
M  V30 1842 C 177.44 -2.1931 6.46832 0
M  V30 1843 O 177.128 -2.00359 7.78532 0
M  V30 1844 H 176.86 -0.461227 0.494212 0
M  V30 1845 H 179.414 -0.856045 1.86711 0
M  V30 1846 H 177.644 -3.41033 1.82301 0
M  V30 1847 H 179.333 -3.38424 2.24107 0
M  V30 1848 H 180.099 -2.10473 4.36951 0
M  V30 1849 H 175.978 -2.98353 3.51435 0
M  V30 1850 H 179.522 -1.77241 6.74708 0
M  V30 1851 H 175.419 -2.65499 5.88371 0
M  V30 1852 H 176.187 -2.15075 7.89737 0
M  V30 1853 N 178.85 -1.27639 -0.924453 0
M  V30 1854 C 179.78 -1.13166 -2.04244 0
M  V30 1855 C 180.761 -0.032256 -1.70069 0
M  V30 1856 O 181.946 -0.207328 -1.9309 0
M  V30 1857 C 179.076 -0.781496 -3.38393 0
M  V30 1858 C 178.03 -1.83449 -3.86692 0
M  V30 1859 C 177.356 -1.33822 -5.17683 0
M  V30 1860 C 178.656 -3.23917 -4.09726 0
M  V30 1861 H 180.35 -2.06689 -2.1661 0
M  V30 1862 H 177.896 -0.995136 -1.04082 0
M  V30 1863 H 179.849 -0.667057 -4.16087 0
M  V30 1864 H 178.573 0.189439 -3.2605 0
M  V30 1865 H 177.232 -1.93789 -3.11193 0
M  V30 1866 H 176.88 -0.35665 -5.01734 0
M  V30 1867 H 176.58 -2.04224 -5.50968 0
M  V30 1868 H 178.104 -1.23679 -5.97943 0
M  V30 1869 H 179.518 -3.16559 -4.77978 0
M  V30 1870 H 177.915 -3.92059 -4.54324 0
M  V30 1871 H 178.985 -3.68729 -3.14908 0
M  V30 1872 N 180.328 1.1314 -1.09713 0
M  V30 1873 C 181.553 1.88862 -0.857081 0
M  V30 1874 C 181.978 1.78729 0.586304 0
M  V30 1875 O 181.336 1.13692 1.41222 0
M  V30 1876 C 181.384 3.36325 -1.30069 0
M  V30 1877 O 180.488 4.09815 -0.461007 0
M  V30 1878 H 179.829 0.587108 -0.310162 0
M  V30 1879 H 182.359 1.43129 -1.46203 0
M  V30 1880 H 182.369 3.87157 -1.28738 0
M  V30 1881 H 181.044 3.43017 -2.35185 0
M  V30 1882 H 179.621 3.68986 -0.538888 0
M  V30 1883 N 181.806 0.884767 1.30421 0
M  V30 1884 C 183.055 0.499164 1.95426 0
M  V30 1885 C 183.368 -0.95645 1.70621 0
M  V30 1886 O 184.574 -1.44889 2.29607 0
M  V30 1887 C 183.03 0.84177 3.49917 0
M  V30 1888 C 182.638 2.31514 3.83543 0
M  V30 1889 C 184.382 0.525355 4.21237 0
M  V30 1890 C 182.289 2.59939 5.31212 0
M  V30 1891 H 181.219 0.182944 0.73147 0
M  V30 1892 H 183.87 1.07971 1.48373 0
M  V30 1893 H 182.252 0.190311 3.95542 0
M  V30 1894 H 183.426 3.0109 3.48829 0
M  V30 1895 H 181.741 2.59907 3.25326 0
M  V30 1896 H 184.338 0.714762 5.29901 0
M  V30 1897 H 184.681 -0.535222 4.12845 0
M  V30 1898 H 185.214 1.134 3.81294 0
M  V30 1899 H 181.953 3.64736 5.44654 0
M  V30 1900 H 181.473 1.94972 5.67227 0
M  V30 1901 H 183.152 2.45429 5.98643 0
M  V30 1902 N 183.284 -1.43765 0.645699 0
M  V30 1903 C 184.214 -2.33471 -0.0370477 0
M  V30 1904 C 185.195 -1.49042 -0.819779 0
M  V30 1905 O 186.38 -1.77726 -0.782758 0
M  V30 1906 C 183.51 -3.32311 -1.0093 0
M  V30 1907 C 182.464 -4.2667 -0.337201 0
M  V30 1908 C 181.79 -5.1549 -1.42037 0
M  V30 1909 C 183.09 -5.16657 0.765706 0
M  V30 1910 H 184.784 -2.90809 0.712069 0
M  V30 1911 H 182.33 -1.39834 0.343876 0
M  V30 1912 H 184.283 -3.9396 -1.49578 0
M  V30 1913 H 183.007 -2.73213 -1.78948 0
M  V30 1914 H 181.666 -3.66374 0.128771 0
M  V30 1915 H 181.314 -4.52735 -2.1918 0
M  V30 1916 H 181.014 -5.79438 -0.975966 0
M  V30 1917 H 182.538 -5.80012 -1.90838 0
M  V30 1918 H 183.952 -5.72158 0.361702 0
M  V30 1919 H 182.349 -5.89286 1.13413 0
M  V30 1920 H 183.419 -4.56796 1.62683 0
M  V30 1921 N 184.763 -0.387143 -1.52771 0
M  V30 1922 C 185.695 0.484089 -2.2403 0
M  V30 1923 C 186.708 1.02849 -1.26198 0
M  V30 1924 O 187.897 0.931186 -1.52286 0
M  V30 1925 C 184.997 1.68337 -2.94136 0
M  V30 1926 C 184.17 1.26672 -4.18656 0
M  V30 1927 C 183.229 2.33045 -4.7178 0
M  V30 1928 O 182.255 1.94541 -5.34923 0
M  V30 1929 N 183.457 3.64929 -4.5145 0
M  V30 1930 H 186.222 -0.126404 -2.99433 0
M  V30 1931 H 183.783 -0.213392 -1.60488 0
M  V30 1932 H 185.775 2.39019 -3.26577 0
M  V30 1933 H 184.345 2.20025 -2.22053 0
M  V30 1934 H 183.565 0.388878 -3.92277 0
M  V30 1935 H 184.853 0.964964 -4.99566 0
M  V30 1936 H 184.251 3.98974 -4.01044 0
M  V30 1937 H 182.808 4.31651 -4.88386 0
M  V30 1938 N 186.241 1.57166 -0.116904 0
M  V30 1939 C 187.171 2.18222 0.830759 0
M  V30 1940 C 188.152 1.12167 1.27877 0
M  V30 1941 O 189.337 1.40394 1.34176 0
M  V30 1942 C 186.467 2.77996 2.08172 0
M  V30 1943 C 185.421 3.89614 1.77157 0
M  V30 1944 C 184.747 4.36187 3.09265 0
M  V30 1945 C 186.047 5.1181 1.04151 0
M  V30 1946 H 187.741 2.97664 0.321992 0
M  V30 1947 H 185.287 1.4318 0.153434 0
M  V30 1948 H 187.24 3.19366 2.74924 0
M  V30 1949 H 185.964 1.9584 2.6137 0
M  V30 1950 H 184.623 3.48816 1.12796 0
M  V30 1951 H 184.271 3.50893 3.60393 0
M  V30 1952 H 183.971 5.11455 2.89288 0
M  V30 1953 H 185.495 4.80207 3.77139 0
M  V30 1954 H 186.909 5.50214 1.61052 0
M  V30 1955 H 185.306 5.92648 0.942762 0
M  V30 1956 H 186.376 4.84892 0.0279022 0
M  V30 1957 N 187.719 -0.156864 1.56817 0
M  V30 1958 C 188.967 -0.869404 1.82444 0
M  V30 1959 C 189.288 -1.82147 0.69623 0
M  V30 1960 O 188.558 -1.93847 -0.28287 0
M  V30 1961 H 187.138 -0.324043 0.673056 0
M  V30 1962 H 189.8 -0.153224 1.94297 0
M  V30 1963 H 188.896 -1.43761 2.77019 0
M  V30 1964 N 189.197 -1.51736 -0.425897 0
M  V30 1965 C 190.144 -1.73875 -1.51776 0
M  V30 1966 C 191.114 -0.580702 -1.55618 0
M  V30 1967 O 192.299 -0.81641 -1.72451 0
M  V30 1968 C 189.439 -1.88012 -2.89388 0
M  V30 1969 C 188.552 -3.15606 -2.94986 0
M  V30 1970 C 187.687 -3.20271 -4.23793 0
M  V30 1971 C 186.726 -4.42134 -4.23302 0
M  V30 1972 N 185.863 -4.44284 -5.43651 0
M  V30 1973 H 190.703 -2.67071 -1.32201 0
M  V30 1974 H 188.24 -1.32351 -0.642008 0
M  V30 1975 H 190.198 -1.9419 -3.69251 0
M  V30 1976 H 188.828 -0.98213 -3.07496 0
M  V30 1977 H 187.88 -3.18681 -2.07717 0
M  V30 1978 H 189.192 -4.05486 -2.90486 0
M  V30 1979 H 188.346 -3.25428 -5.12036 0
M  V30 1980 H 187.085 -2.28299 -4.30965 0
M  V30 1981 H 186.09 -4.3714 -3.3345 0
M  V30 1982 H 187.315 -5.35382 -4.17783 0
M  V30 1983 H 185.261 -3.55188 -5.51523 0
M  V30 1984 H 185.178 -5.27988 -5.41078 0
M  V30 1985 H 186.446 -4.53649 -6.33895 0
M  V30 1986 N 190.675 0.682077 -1.42076 0
M  V30 1987 C 191.952 1.43755 -1.32642 0
M  V30 1988 C 192.332 2.11063 0.0396611 0
M  V30 1989 O 191.68 2.02701 1.05474 0
M  V30 1990 C 191.89 2.44596 -2.48946 0
M  V30 1991 C 193.238 3.09454 -2.9073 0
M  V30 1992 O 194.262 2.54922 -2.48783 0
M  V30 1993 O 193.121 4.08253 -3.63307 0
M  V30 1994 H 190.215 0.640857 -0.522715 0
M  V30 1995 H 192.761 0.711415 -1.54068 0
M  V30 1996 H 191.533 1.93609 -3.40046 0
M  V30 1997 H 191.156 3.24701 -2.29467 0
M  V30 1998 N 192.153 1.28127 0.917671 0
M  V30 1999 C 193.083 1.14248 2.03641 0
M  V30 2000 C 194.064 0.0412748 1.7005 0
M  V30 2001 O 195.249 0.217566 1.92977 0
M  V30 2002 C 192.379 0.799431 3.37974 0
M  V30 2003 C 191.333 1.85497 3.85713 0
M  V30 2004 C 190.659 1.36565 5.16966 0
M  V30 2005 C 191.959 3.26085 4.08002 0
M  V30 2006 H 193.653 2.07835 2.15511 0
M  V30 2007 H 191.199 1.00064 1.03553 0
M  V30 2008 H 193.152 0.689114 4.15727 0
M  V30 2009 H 191.876 -0.172145 3.26146 0
M  V30 2010 H 190.535 1.95437 3.10161 0
M  V30 2011 H 190.183 0.383253 5.01538 0
M  V30 2012 H 189.883 2.07143 5.49878 0
M  V30 2013 H 191.407 1.26848 5.97279 0
M  V30 2014 H 192.821 3.19089 4.76293 0
M  V30 2015 H 191.218 3.94462 4.52238 0
M  V30 2016 H 192.288 3.70394 3.12948 0
M  V30 2017 N 193.631 -1.12557 1.10312 0
M  V30 2018 C 194.908 -1.80363 0.756878 0
M  V30 2019 C 195.288 -1.97067 -0.756824 0
M  V30 2020 O 194.636 -1.54601 -1.68259 0
M  V30 2021 C 194.846 -3.14812 1.50647 0
M  V30 2022 C 196.194 -3.90029 1.67817 0
M  V30 2023 O 197.218 -3.24464 1.46974 0
M  V30 2024 O 196.077 -5.07652 2.02365 0
M  V30 2025 H 193.171 -0.780667 0.272926 0
M  V30 2026 H 195.717 -1.19404 1.20586 0
M  V30 2027 H 194.489 -2.97936 2.53672 0
M  V30 2028 H 194.112 -3.83478 1.05026 0
M  V30 2029 N 195.109 -0.891671 -1.2995 0
M  V30 2030 C 196.525 -0.58662 -1.48428 0
M  V30 2031 C 196.725 0.873951 -1.81561 0
M  V30 2032 O 195.781 1.65471 -1.90724 0
M  V30 2033 C 197.094 -1.50553 -2.60296 0
M  V30 2034 C 198.642 -1.50988 -2.74175 0
M  V30 2035 C 199.117 -2.41488 -3.89163 0
M  V30 2036 N 200.608 -2.39489 -3.96483 0
M  V30 2037 C 201.343 -3.06223 -4.84784 0
M  V30 2038 N 200.839 -3.82206 -5.77833 0
M  V30 2039 N 202.632 -2.95421 -4.78208 0
M  V30 2040 H 194.783 -1.83644 -1.06718 0
M  V30 2041 H 197.046 -0.786455 -0.529332 0
M  V30 2042 H 196.752 -2.54581 -2.42654 0
M  V30 2043 H 196.626 -1.22008 -3.56923 0
M  V30 2044 H 199.013 -0.47708 -2.91218 0
M  V30 2045 H 199.094 -1.83567 -1.78148 0
M  V30 2046 H 198.738 -3.44857 -3.72876 0
M  V30 2047 H 198.668 -2.06222 -4.84541 0
M  V30 2048 H 201.159 -1.84278 -3.29924 0
M  V30 2049 H 201.472 -4.302 -6.41988 0
M  V30 2050 H 199.817 -3.86313 -5.77743 0
M  V30 2051 H 203.008 -2.35581 -4.04499 0
M  V30 2052 H 203.181 -3.47704 -5.46814 0
M  V30 2053 N 196.587 1.43421 -0.653314 0
M  V30 2054 C 197.834 2.01812 -0.166745 0
M  V30 2055 C 198.162 1.51535 1.21931 0
M  V30 2056 O 197.417 0.698975 1.82792 0
M  V30 2057 C 197.716 3.57176 -0.126623 0
M  V30 2058 C 197.382 4.26798 -1.45444 0
M  V30 2059 C 196.044 4.45534 -1.81805 0
M  V30 2060 C 198.396 4.66225 -2.32989 0
M  V30 2061 C 195.724 5.00961 -3.05377 0
M  V30 2062 C 198.076 5.23021 -3.55853 0
M  V30 2063 C 196.74 5.39973 -3.9241 0
M  V30 2064 H 196.01 0.738484 -0.0610162 0
M  V30 2065 H 198.657 1.71896 -0.84404 0
M  V30 2066 H 196.962 3.86634 0.634123 0
M  V30 2067 H 198.659 4.00112 0.266723 0
M  V30 2068 H 195.249 4.12561 -1.16153 0
M  V30 2069 H 199.433 4.51443 -2.06187 0
M  V30 2070 H 194.689 5.12271 -3.3375 0
M  V30 2071 H 198.863 5.52518 -4.23907 0
M  V30 2072 H 196.49 5.82687 -4.88242 0
M  V30 2073 N 198.065 0.39524 1.52563 0
M  V30 2074 C 199.012 -0.437036 2.26624 0
M  V30 2075 C 199.982 -1.05281 1.28472 0
M  V30 2076 O 201.167 -1.07971 1.57311 0
M  V30 2077 C 198.307 -1.55524 3.08069 0
M  V30 2078 C 197.42 -0.961745 4.21158 0
M  V30 2079 C 196.555 -2.05149 4.89987 0
M  V30 2080 C 195.594 -1.4342 5.95061 0
M  V30 2081 N 194.731 -2.46351 6.57462 0
M  V30 2082 H 199.571 0.200976 2.97322 0
M  V30 2083 H 197.108 0.110944 1.46681 0
M  V30 2084 H 199.066 -2.21437 3.53584 0
M  V30 2085 H 197.696 -2.16348 2.3957 0
M  V30 2086 H 196.748 -0.192048 3.79915 0
M  V30 2087 H 198.06 -0.470701 4.96574 0
M  V30 2088 H 197.214 -2.78819 5.38837 0
M  V30 2089 H 195.953 -2.57615 4.14109 0
M  V30 2090 H 194.958 -0.682774 5.45544 0
M  V30 2091 H 196.183 -0.917416 6.72875 0
M  V30 2092 H 194.129 -2.97975 5.8442 0
M  V30 2093 H 194.046 -2.02019 7.28508 0
M  V30 2094 H 195.314 -3.19633 7.10954 0
M  V30 2095 N 199.544 -1.57102 0.125237 0
M  V30 2096 C 200.492 -2.16905 -0.839927 0
M  V30 2097 C 201.486 -1.11998 -1.27094 0
M  V30 2098 O 202.692 -1.3029 -1.24195 0
M  V30 2099 H 199.067 -0.694252 -0.288995 0
M  V30 2100 H 201.038 -2.96774 -0.311115 0
M  V30 2101 C 199.787 -2.78795 -2.07771 0
M  V30 2102 H 199.11 -3.59221 -1.755 0
M  V30 2103 H 200.55 -3.2417 -2.73295 0
M  V30 2104 C 199.009 -1.76193 -2.87155 0
M  V30 2105 O 199.539 -1.21909 -3.82755 0
M  V30 2106 N 197.745 -1.45991 -2.51267 0
M  V30 2107 H 197.292 -1.90325 -1.73592 0
M  V30 2108 H 197.25 -0.775844 -3.04677 0
M  V30 2109 N 201.022 0.148545 -1.56898 0
M  V30 2110 C 201.952 1.18524 -2.01182 0
M  V30 2111 C 202.933 1.4489 -0.891123 0
M  V30 2112 O 204.118 1.55836 -1.15882 0
M  V30 2113 C 201.248 2.51879 -2.39112 0
M  V30 2114 C 200.202 2.40038 -3.54353 0
M  V30 2115 C 199.528 3.78089 -3.78091 0
M  V30 2116 C 200.828 1.88577 -4.87069 0
M  V30 2117 H 202.522 0.817029 -2.88036 0
M  V30 2118 H 200.068 0.391575 -1.38574 0
M  V30 2119 H 202.021 3.24627 -2.68692 0
M  V30 2120 H 200.745 2.90532 -1.49193 0
M  V30 2121 H 199.404 1.69742 -3.24936 0
M  V30 2122 H 199.052 4.14175 -2.85426 0
M  V30 2123 H 198.752 3.71028 -4.55645 0
M  V30 2124 H 200.276 4.52387 -4.10095 0
M  V30 2125 H 201.69 2.51117 -5.15377 0
M  V30 2126 H 200.087 1.9241 -5.68417 0
M  V30 2127 H 201.157 0.84136 -4.77545 0
M  V30 2128 N 202.5 1.5196 0.417844 0
M  V30 2129 C 203.746 1.65836 1.16732 0
M  V30 2130 C 204.079 0.382881 1.90388 0
M  V30 2131 O 203.354 -0.618368 1.84408 0
M  V30 2132 C 203.637 2.87466 2.16876 0
M  V30 2133 C 203.49 4.25041 1.47174 0
M  V30 2134 C 204.809 3.04613 3.17646 0
M  V30 2135 H 201.928 0.603515 0.423011 0
M  V30 2136 H 204.57 1.84494 0.454105 0
M  V30 2137 H 202.72 2.71689 2.777 0
M  V30 2138 H 204.392 4.52527 0.895376 0
M  V30 2139 H 202.635 4.26843 0.773806 0
M  V30 2140 H 203.306 5.06176 2.20204 0
M  V30 2141 H 205.782 3.1923 2.66892 0
M  V30 2142 H 204.658 3.91247 3.8499 0
M  V30 2143 H 204.919 2.17541 3.84874 0
M  V30 2144 N 203.978 -0.674533 1.42435 0
M  V30 2145 C 204.908 -1.80009 1.48724 0
M  V30 2146 C 205.889 -1.6659 0.343793 0
M  V30 2147 O 207.074 -1.86007 0.558137 0
M  V30 2148 C 204.204 -3.18306 1.38919 0
M  V30 2149 C 203.158 -3.46461 2.51294 0
M  V30 2150 C 202.484 -4.84335 2.26547 0
M  V30 2151 C 203.784 -3.43328 3.93603 0
M  V30 2152 H 205.478 -1.75004 2.42928 0
M  V30 2153 H 203.024 -0.840533 1.16923 0
M  V30 2154 H 204.977 -3.9678 1.41927 0
M  V30 2155 H 203.701 -3.2399 0.412094 0
M  V30 2156 H 202.36 -2.70348 2.47604 0
M  V30 2157 H 202.008 -4.86669 1.2713 0
M  V30 2158 H 201.708 -5.04136 3.01861 0
M  V30 2159 H 203.232 -5.65094 2.31304 0
M  V30 2160 H 204.646 -4.11772 3.98894 0
M  V30 2161 H 203.043 -3.74664 4.68771 0
M  V30 2162 H 204.113 -2.41897 4.20255 0
M  V30 2163 N 205.456 -1.28612 -0.910864 0
M  V30 2164 C 206.702 -1.16106 -1.66274 0
M  V30 2165 C 207.035 0.289113 -1.92036 0
M  V30 2166 O 206.31 1.21 -1.52281 0
M  V30 2167 C 206.593 -1.96309 -3.01885 0
M  V30 2168 C 206.446 -3.49405 -2.8326 0
M  V30 2169 C 207.765 -1.78076 -4.02463 0
M  V30 2170 H 204.884 -0.423152 -0.603417 0
M  V30 2171 H 207.526 -1.57961 -1.05586 0
M  V30 2172 H 205.676 -1.60742 -3.53687 0
M  V30 2173 H 207.348 -3.94894 -2.38446 0
M  V30 2174 H 205.591 -3.74893 -2.18261 0
M  V30 2175 H 206.262 -4.00784 -3.79574 0
M  V30 2176 H 208.738 -2.0912 -3.59733 0
M  V30 2177 H 207.614 -2.36561 -4.95308 0
M  V30 2178 H 207.875 -0.733008 -4.35981 0
M  V30 2179 N 206.934 1.1197 -1.10907 0
M  V30 2180 C 207.884 2.15946 -0.731538 0
M  V30 2181 C 208.868 1.58758 0.261699 0
M  V30 2182 O 210.06 1.76863 0.0696722 0
M  V30 2183 C 207.189 3.42877 -0.170299 0
M  V30 2184 C 206.275 4.07037 -1.19087 0
M  V30 2185 N 206.666 4.46135 -2.38322 0
M  V30 2186 C 204.964 4.33884 -1.03252 0
M  V30 2187 C 205.665 4.96331 -3.03366 0
M  V30 2188 N 204.641 4.9214 -2.30865 0
M  V30 2189 H 208.443 2.43947 -1.63912 0
M  V30 2190 H 205.957 1.28927 -0.987505 0
M  V30 2191 H 207.954 4.16732 0.118271 0
M  V30 2192 H 206.614 3.16343 0.731935 0
M  V30 2193 H 207.625 4.38345 -2.75815 0
M  V30 2194 H 204.302 4.17084 -0.186256 0
M  V30 2195 H 205.692 5.36257 -4.04818 0
M  V30 2196 N 208.412 0.89855 1.29475 0
M  V30 2197 C 209.375 0.380272 2.26023 0
M  V30 2198 C 210.375 -0.484891 1.53315 0
M  V30 2199 O 211.565 -0.290108 1.71767 0
M  V30 2200 C 208.697 -0.45651 3.3783 0
M  V30 2201 H 209.89 1.23295 2.73383 0
M  V30 2202 H 207.443 0.676589 1.40897 0
M  V30 2203 H 208.178 -1.32922 2.95808 0
M  V30 2204 H 207.963 0.163393 3.91759 0
M  V30 2205 H 209.453 -0.810466 4.0966 0
M  V30 2206 N 209.89 -1.43072 0.660911 0
M  V30 2207 C 210.853 -2.29194 -0.0166406 0
M  V30 2208 C 211.853 -1.42609 -0.742912 0
M  V30 2209 O 213.043 -1.64155 -0.583004 0
M  V30 2210 C 210.175 -3.24831 -1.0343 0
M  V30 2211 H 211.368 -2.90596 0.741208 0
M  V30 2212 H 208.921 -1.5048 0.422532 0
M  V30 2213 H 209.656 -2.68339 -1.82111 0
M  V30 2214 H 209.441 -3.88676 -0.517082 0
M  V30 2215 H 210.931 -3.89451 -1.50723 0
M  V30 2216 N 211.368 -0.403325 -1.52352 0
M  V30 2217 C 212.784 -0.0539281 -1.59509 0
M  V30 2218 C 212.984 1.43307 -1.41652 0
M  V30 2219 O 212.04 2.19924 -1.24056 0
M  V30 2220 C 213.353 -0.543654 -2.95745 0
M  V30 2221 C 214.901 -0.501125 -3.08962 0
M  V30 2222 C 215.376 -0.967267 -4.47669 0
M  V30 2223 N 216.867 -0.923849 -4.53893 0
M  V30 2224 C 217.602 -1.25578 -5.5948 0
M  V30 2225 N 217.098 -1.65889 -6.72646 0
M  V30 2226 N 218.891 -1.17613 -5.49658 0
M  V30 2227 H 211.042 -1.37123 -1.62206 0
M  V30 2228 H 213.305 -0.56294 -0.76276 0
M  V30 2229 H 213.011 -1.58275 -3.14073 0
M  V30 2230 H 212.885 0.0498042 -3.77167 0
M  V30 2231 H 215.272 0.528909 -2.90321 0
M  V30 2232 H 215.353 -1.13056 -2.2946 0
M  V30 2233 H 214.997 -1.9956 -4.67053 0
M  V30 2234 H 214.927 -0.314698 -5.25659 0
M  V30 2235 H 217.418 -0.627403 -3.72655 0
M  V30 2236 H 217.731 -1.89543 -7.49195 0
M  V30 2237 H 216.076 -1.69787 -6.73942 0
M  V30 2238 H 219.267 -0.860115 -4.6013 0
M  V30 2239 H 219.44 -1.43812 -6.3184 0
M  V30 2240 N 212.846 1.57033 -0.133567 0
M  V30 2241 C 214.076 1.99754 0.527429 0
M  V30 2242 C 214.484 1.01245 1.59832 0
M  V30 2243 O 213.827 -0.000645496 1.837 0
M  V30 2244 C 213.889 3.38903 1.19939 0
M  V30 2245 C 213.553 4.56174 0.274709 0
M  V30 2246 C 214.55 5.17563 -0.492398 0
M  V30 2247 C 212.235 5.01972 0.18153 0
M  V30 2248 C 214.229 6.2315 -1.34027 0
M  V30 2249 C 211.916 6.07416 -0.669958 0
M  V30 2250 C 212.914 6.67874 -1.42947 0
M  V30 2251 O 212.602 7.71279 -2.2668 0
M  V30 2252 H 212.334 0.660702 0.142999 0
M  V30 2253 H 214.888 2.04207 -0.221099 0
M  V30 2254 H 213.118 3.31248 1.99528 0
M  V30 2255 H 214.807 3.65818 1.75875 0
M  V30 2256 H 215.573 4.83087 -0.430367 0
M  V30 2257 H 211.452 4.54652 0.762422 0
M  V30 2258 H 214.996 6.70268 -1.93357 0
M  V30 2259 H 210.893 6.41321 -0.73333 0
M  V30 2260 H 211.661 7.88441 -2.1978 0
M  V30 2261 N 214.325 -0.140222 1.56975 0
M  V30 2262 C 215.288 -1.15689 1.97861 0
M  V30 2263 C 216.288 -1.3549 0.865974 0
M  V30 2264 O 217.478 -1.32367 1.13246 0
M  V30 2265 C 214.61 -2.51582 2.30042 0
M  V30 2266 H 215.803 -0.805971 2.88867 0
M  V30 2267 H 213.356 -0.383801 1.51515 0
M  V30 2268 H 214.091 -2.91632 1.41849 0
M  V30 2269 H 213.876 -2.38569 3.11171 0
M  V30 2270 H 215.366 -3.24792 2.62488 0
M  V30 2271 N 215.803 -1.52179 -0.40978 0
M  V30 2272 C 216.766 -1.74853 -1.48186 0
M  V30 2273 C 217.766 -0.618417 -1.48433 0
M  V30 2274 O 218.956 -0.886286 -1.49969 0
M  V30 2275 C 216.088 -1.8303 -2.87598 0
M  V30 2276 H 217.281 -2.70559 -1.29374 0
M  V30 2277 H 214.834 -1.42586 -0.640233 0
M  V30 2278 H 215.569 -0.89236 -3.11781 0
M  V30 2279 H 215.354 -2.65187 -2.88822 0
M  V30 2280 H 216.844 -2.02316 -3.65319 0
M  V30 2281 N 217.281 0.66697 -1.42791 0
M  V30 2282 C 218.558 1.4234 -1.34159 0
M  V30 2283 C 218.938 2.11093 0.0172729 0
M  V30 2284 O 218.286 2.03808 1.03318 0
M  V30 2285 C 218.496 2.41942 -2.51526 0
M  V30 2286 C 219.844 3.06353 -2.93995 0
M  V30 2287 O 220.868 2.52269 -2.51473 0
M  V30 2288 O 219.727 4.04376 -3.67617 0
M  V30 2289 H 216.821 0.635277 -0.529483 0
M  V30 2290 H 219.367 0.695034 -1.54814 0
M  V30 2291 H 218.139 1.89991 -3.42081 0
M  V30 2292 H 217.762 3.22249 -2.32898 0
M  V30 2293 N 218.759 1.29093 0.90403 0
M  V30 2294 C 219.689 1.16401 2.02418 0
M  V30 2295 C 220.67 0.0593085 1.69997 0
M  V30 2296 O 221.855 0.238021 1.92736 0
M  V30 2297 C 218.985 0.835233 3.37107 0
M  V30 2298 C 217.939 1.89578 3.83724 0
M  V30 2299 C 217.265 1.42041 5.15489 0
M  V30 2300 C 218.565 3.30394 4.04521 0
M  V30 2301 H 220.259 2.10109 2.13295 0
M  V30 2302 H 217.805 1.01157 1.02486 0
M  V30 2303 H 219.758 0.733169 4.14973 0
M  V30 2304 H 218.482 -0.137543 3.2631 0
M  V30 2305 H 217.141 1.98715 3.08071 0
M  V30 2306 H 216.789 0.436426 5.01103 0
M  V30 2307 H 216.489 2.12964 5.4765 0
M  V30 2308 H 218.013 1.33176 5.959 0
M  V30 2309 H 219.427 3.24123 4.72882 0
M  V30 2310 H 217.824 3.99237 4.48029 0
M  V30 2311 H 218.894 3.73692 3.09002 0
M  V30 2312 N 220.237 -1.11381 1.11499 0
M  V30 2313 C 221.462 -1.87475 0.887019 0
M  V30 2314 C 221.887 -1.79639 -0.557796 0
M  V30 2315 O 221.245 -1.15924 -1.39396 0
M  V30 2316 C 221.293 -3.34213 1.35403 0
M  V30 2317 O 220.397 -4.0903 0.526146 0
M  V30 2318 H 219.738 -0.582099 0.319463 0
M  V30 2319 H 222.268 -1.40785 1.48461 0
M  V30 2320 H 222.278 -3.8506 1.34881 0
M  V30 2321 H 220.953 -3.39232 2.40612 0
M  V30 2322 H 219.53 -3.68082 0.597522 0
M  V30 2323 N 221.715 -0.905404 -1.28997 0
M  V30 2324 C 222.945 -0.549049 -1.99171 0
M  V30 2325 C 223.353 0.87203 -1.67906 0
M  V30 2326 O 222.696 1.58796 -0.923561 0
M  V30 2327 C 222.758 -0.668306 -3.53234 0
M  V30 2328 C 222.422 -2.0574 -4.08069 0
M  V30 2329 C 223.419 -3.0292 -4.22534 0
M  V30 2330 C 221.104 -2.36833 -4.42962 0
M  V30 2331 C 223.098 -4.29314 -4.71135 0
M  V30 2332 C 220.785 -3.63467 -4.91258 0
M  V30 2333 C 221.783 -4.59522 -5.053 0
M  V30 2334 O 221.471 -5.83907 -5.52546 0
M  V30 2335 H 221.203 -0.208784 -0.64295 0
M  V30 2336 H 223.757 -1.21836 -1.65363 0
M  V30 2337 H 221.987 0.0580547 -3.86656 0
M  V30 2338 H 223.676 -0.320273 -4.04634 0
M  V30 2339 H 224.442 -2.80216 -3.95859 0
M  V30 2340 H 220.321 -1.62824 -4.31288 0
M  V30 2341 H 223.865 -5.04293 -4.8201 0
M  V30 2342 H 219.762 -3.86 -5.17372 0
M  V30 2343 H 220.53 -5.86578 -5.70849 0
M  V30 2344 N 223.193 1.4272 -0.668489 0
M  V30 2345 C 224.123 2.335 -0.000100175 0
M  V30 2346 C 225.104 1.50328 0.795964 0
M  V30 2347 O 226.289 1.78949 0.754385 0
M  V30 2348 C 223.419 3.33874 0.956302 0
M  V30 2349 C 222.373 4.27152 0.269278 0
M  V30 2350 C 221.699 5.17684 1.33818 0
M  V30 2351 C 222.999 5.15373 -0.847805 0
M  V30 2352 H 224.693 2.89639 -0.758244 0
M  V30 2353 H 222.239 1.39269 -0.366079 0
M  V30 2354 H 224.192 3.9629 1.43292 0
M  V30 2355 H 222.916 2.76025 1.74579 0
M  V30 2356 H 221.575 3.66123 -0.187042 0
M  V30 2357 H 221.223 4.56165 2.1195 0
M  V30 2358 H 220.923 5.80918 0.883659 0
M  V30 2359 H 222.447 5.82974 1.81586 0
M  V30 2360 H 223.861 5.7151 -0.452681 0
M  V30 2361 H 222.258 5.87407 -1.22773 0
M  V30 2362 H 223.328 4.5415 -1.69929 0
M  V30 2363 N 224.671 0.411399 1.52136 0
M  V30 2364 C 226.082 -0.0576826 1.86611 0
M  V30 2365 C 226.433 -1.44238 1.33003 0
M  V30 2366 O 225.558 -2.05759 0.670228 0
M  V30 2367 C 226.153 -0.111448 3.38617 0
M  V30 2368 C 224.712 -0.52487 3.72723 0
M  V30 2369 C 223.859 0.299176 2.75681 0
M  V30 2370 H 226.81 0.628368 1.4573 0
M  V30 2371 H 226.831 -0.926252 3.69054 0
M  V30 2372 H 226.343 0.896488 3.77604 0
M  V30 2373 H 224.444 -1.53936 3.39315 0
M  V30 2374 H 224.557 -0.267681 4.78352 0
M  V30 2375 H 222.921 -0.238814 2.53578 0
M  V30 2376 H 223.704 1.3055 3.17508 0
M  V30 2377 N 226.149 -1.5696 0.141893 0
M  V30 2378 C 227.079 -2.19516 -0.795936 0
M  V30 2379 C 228.06 -1.14187 -1.26077 0
M  V30 2380 O 229.245 -1.42511 -1.31925 0
M  V30 2381 C 226.375 -2.81272 -2.03723 0
M  V30 2382 C 225.329 -3.92384 -1.70936 0
M  V30 2383 C 224.655 -4.41052 -3.02287 0
M  V30 2384 C 225.955 -5.13403 -0.959954 0
M  V30 2385 H 227.649 -2.98138 -0.274596 0
M  V30 2386 H 225.195 -1.43406 -0.130636 0
M  V30 2387 H 227.148 -3.237 -2.69808 0
M  V30 2388 H 225.872 -1.99973 -2.58221 0
M  V30 2389 H 224.531 -3.50566 -1.07232 0
M  V30 2390 H 224.179 -3.56582 -3.54765 0
M  V30 2391 H 223.879 -5.15993 -2.81114 0
M  V30 2392 H 225.403 -4.86146 -3.69451 0
M  V30 2393 H 226.817 -5.52706 -1.52279 0
M  V30 2394 H 225.214 -5.94073 -0.848357 0
M  V30 2395 H 226.284 -4.84875 0.0492434 0
M  V30 2396 N 227.627 0.131896 -1.57047 0
M  V30 2397 C 228.56 1.19236 -1.94571 0
M  V30 2398 C 229.538 1.40782 -0.813576 0
M  V30 2399 O 230.722 1.55148 -1.07058 0
M  V30 2400 C 227.849 2.54858 -2.23081 0
M  V30 2401 C 226.895 2.49817 -3.45679 0
M  V30 2402 S 227.728 1.95036 -4.98719 0
M  V30 2403 C 228.884 3.32357 -5.30367 0
M  V30 2404 H 229.117 0.872297 -2.84215 0
M  V30 2405 H 226.65 0.338134 -1.50652 0
M  V30 2406 H 228.608 3.32898 -2.40185 0
M  V30 2407 H 227.269 2.84047 -1.34074 0
M  V30 2408 H 226.462 3.49688 -3.62952 0
M  V30 2409 H 226.064 1.79892 -3.27895 0
M  V30 2410 H 228.356 4.28525 -5.2476 0
M  V30 2411 H 229.299 3.19923 -6.31708 0
M  V30 2412 H 229.707 3.3019 -4.57859 0
M  V30 2413 N 229.106 1.52395 0.401703 0
M  V30 2414 C 230.038 1.72505 1.50912 0
M  V30 2415 C 231.051 0.605468 1.51122 0
M  V30 2416 O 232.24 0.880828 1.55254 0
M  V30 2417 C 229.34 1.75711 2.89791 0
M  V30 2418 C 228.513 3.04824 3.1369 0
M  V30 2419 C 227.572 2.99743 4.32482 0
M  V30 2420 O 226.598 3.73635 4.29402 0
M  V30 2421 N 227.8 2.18047 5.37992 0
M  V30 2422 H 230.565 2.68049 1.34052 0
M  V30 2423 H 228.126 1.50724 0.591084 0
M  V30 2424 H 230.118 1.69834 3.6734 0
M  V30 2425 H 228.688 0.876092 3.00072 0
M  V30 2426 H 227.908 3.2429 2.24119 0
M  V30 2427 H 229.196 3.90221 3.26504 0
M  V30 2428 H 228.594 1.57456 5.43345 0
M  V30 2429 H 227.151 2.18021 6.14256 0
M  V30 2430 N 230.584 -0.659388 1.43143 0
M  V30 2431 C 231.494 -1.80167 1.50256 0
M  V30 2432 C 232.51 -1.69571 0.390106 0
M  V30 2433 O 233.686 -1.90849 0.643319 0
M  V30 2434 C 230.751 -3.16409 1.41725 0
M  V30 2435 C 229.812 -3.38848 2.63591 0
M  V30 2436 C 229.045 -4.68591 2.55458 0
M  V30 2437 O 229.268 -5.47532 1.59891 0
M  V30 2438 O 228.202 -4.92614 3.45854 0
M  V30 2439 H 232.028 -1.77121 2.46702 0
M  V30 2440 H 229.613 -0.817092 1.25076 0
M  V30 2441 H 231.495 -3.9768 1.39387 0
M  V30 2442 H 230.17 -3.20059 0.484118 0
M  V30 2443 H 229.077 -2.57366 2.71502 0
M  V30 2444 H 230.41 -3.4004 3.55856 0
M  V30 2445 N 232.062 -1.29571 -0.897171 0
M  V30 2446 C 232.992 -1.17473 -2.01798 0
M  V30 2447 C 233.973 -0.068323 -1.69963 0
M  V30 2448 O 235.158 -0.248239 -1.92607 0
M  V30 2449 C 232.288 -0.853099 -3.36659 0
M  V30 2450 C 231.242 -1.9161 -3.82713 0
M  V30 2451 C 230.568 -1.44773 -5.14728 0
M  V30 2452 C 231.868 -3.32535 -4.02763 0
M  V30 2453 H 233.562 -2.11237 -2.12177 0
M  V30 2454 H 231.108 -1.01699 -1.01948 0
M  V30 2455 H 233.061 -0.755165 -4.14578 0
M  V30 2456 H 231.785 0.120236 -3.26379 0
M  V30 2457 H 230.444 -2.00346 -3.07013 0
M  V30 2458 H 230.092 -0.462995 -5.00865 0
M  V30 2459 H 229.792 -2.15865 -5.46513 0
M  V30 2460 H 231.316 -1.36334 -5.95185 0
M  V30 2461 H 232.73 -3.26626 -4.71156 0
M  V30 2462 H 231.127 -4.01607 -4.45905 0
M  V30 2463 H 232.197 -3.75326 -3.07016 0
M  V30 2464 N 233.54 1.10788 -1.12088 0
M  V30 2465 C 234.45 2.20599 -0.798338 0
M  V30 2466 C 235.466 1.72712 0.21135 0
M  V30 2467 O 236.642 2.01348 0.0458477 0
M  V30 2468 C 233.707 3.45771 -0.253674 0
M  V30 2469 C 232.768 4.08411 -1.32283 0
M  V30 2470 C 232.001 5.27608 -0.80406 0
M  V30 2471 O 232.224 5.69241 0.363478 0
M  V30 2472 O 231.158 5.8101 -1.57198 0
M  V30 2473 H 234.984 2.50614 -1.7154 0
M  V30 2474 H 232.569 1.19454 -0.897275 0
M  V30 2475 H 234.451 4.21376 0.0453691 0
M  V30 2476 H 233.126 3.1739 0.636005 0
M  V30 2477 H 232.033 3.34507 -1.67499 0
M  V30 2478 H 233.366 4.40986 -2.18614 0
M  V30 2479 N 235.018 0.912232 1.28515 0
M  V30 2480 C 235.965 0.397954 2.27343 0
M  V30 2481 C 236.935 -0.526766 1.57526 0
M  V30 2482 O 238.12 -0.449292 1.85435 0
M  V30 2483 C 235.26 -0.357263 3.43246 0
M  V30 2484 C 234.373 0.599788 4.27816 0
M  V30 2485 C 233.508 -0.173725 5.30916 0
M  V30 2486 C 232.547 0.777039 6.07148 0
M  V30 2487 N 231.684 0.0371398 7.0209 0
M  V30 2488 H 236.524 1.24577 2.70711 0
M  V30 2489 H 234.061 0.625612 1.33133 0
M  V30 2490 H 236.019 -0.8113 4.09236 0
M  V30 2491 H 234.649 -1.16943 3.00872 0
M  V30 2492 H 233.701 1.17235 3.61884 0
M  V30 2493 H 235.013 1.32704 4.80823 0
M  V30 2494 H 234.167 -0.688394 6.02782 0
M  V30 2495 H 232.906 -0.934041 4.78672 0
M  V30 2496 H 231.911 1.3031 5.34134 0
M  V30 2497 H 233.136 1.53689 6.61481 0
M  V30 2498 H 231.082 -0.705213 6.52198 0
M  V30 2499 H 230.999 0.704249 7.52713 0
M  V30 2500 H 232.267 -0.457383 7.78157 0
M  V30 2501 N 236.496 -1.42363 0.676048 0
M  V30 2502 C 237.912 -1.55811 0.345718 0
M  V30 2503 C 238.112 -1.65544 -1.14879 0
M  V30 2504 O 237.168 -1.62306 -1.93424 0
M  V30 2505 C 238.481 -2.80746 1.07713 0
M  V30 2506 C 240.029 -2.9452 1.05958 0
M  V30 2507 C 240.504 -4.22318 1.77233 0
M  V30 2508 N 241.995 -4.29233 1.74108 0
M  V30 2509 C 242.73 -5.26935 2.26113 0
M  V30 2510 N 242.226 -6.30783 2.86505 0
M  V30 2511 N 244.019 -5.18741 2.1648 0
M  V30 2512 H 236.17 -1.34289 1.6456 0
M  V30 2513 H 238.433 -0.646506 0.69335 0
M  V30 2514 H 238.139 -2.79696 2.13221 0
M  V30 2515 H 238.013 -3.71676 0.64316 0
M  V30 2516 H 240.4 -2.95097 0.0128255 0
M  V30 2517 H 240.481 -2.04817 1.53244 0
M  V30 2518 H 240.125 -4.22502 2.81877 0
M  V30 2519 H 240.055 -5.10958 1.27396 0
M  V30 2520 H 242.546 -3.54814 1.30059 0
M  V30 2521 H 242.859 -7.01691 3.23805 0
M  V30 2522 H 241.204 -6.31341 2.90575 0
M  V30 2523 H 244.395 -4.36533 1.68987 0
M  V30 2524 H 244.568 -5.94721 2.57316 0
M  V30 2525 N 237.974 -0.419461 -1.51915 0
M  V30 2526 C 239.204 0.151915 -2.06041 0
M  V30 2527 C 239.612 1.38539 -1.28855 0
M  V30 2528 O 238.955 1.80592 -0.336463 0
M  V30 2529 C 239.017 0.557119 -3.55157 0
M  V30 2530 C 238.681 -0.567054 -4.53468 0
M  V30 2531 C 239.678 -1.43379 -4.99738 0
M  V30 2532 C 237.363 -0.742693 -4.96779 0
M  V30 2533 C 239.357 -2.46102 -5.87973 0
M  V30 2534 C 237.044 -1.77322 -5.84808 0
M  V30 2535 C 238.042 -2.63078 -6.30301 0
M  V30 2536 O 237.73 -3.64364 -7.16585 0
M  V30 2537 H 237.462 0.0193293 -0.675724 0
M  V30 2538 H 240.016 -0.592073 -1.96682 0
M  V30 2539 H 238.246 1.35355 -3.62238 0
M  V30 2540 H 239.935 1.05759 -3.9188 0
M  V30 2541 H 240.701 -1.30954 -4.66986 0
M  V30 2542 H 236.58 -0.0848307 -4.60922 0
M  V30 2543 H 240.124 -3.13071 -6.23404 0
M  V30 2544 H 236.021 -1.89773 -6.16974 0
M  V30 2545 H 236.789 -3.60731 -7.34721 0
M  V30 2546 N 239.452 1.56882 -0.150215 0
M  V30 2547 C 240.362 2.20494 0.801222 0
M  V30 2548 C 241.378 1.19019 1.26927 0
M  V30 2549 O 242.554 1.51607 1.32579 0
M  V30 2550 C 239.619 2.81659 2.02161 0
M  V30 2551 C 238.68 3.9827 1.60249 0
M  V30 2552 C 237.913 4.56508 2.7647 0
M  V30 2553 O 238.136 4.13627 3.92771 0
M  V30 2554 O 237.07 5.46719 2.51757 0
M  V30 2555 H 240.896 3.02315 0.289717 0
M  V30 2556 H 238.481 1.49202 0.0769684 0
M  V30 2557 H 240.363 3.20522 2.73576 0
M  V30 2558 H 239.038 2.02849 2.52258 0
M  V30 2559 H 237.945 3.64117 0.858477 0
M  V30 2560 H 239.278 4.78609 1.14864 0
M  V30 2561 N 240.93 -0.123565 1.57115 0
M  V30 2562 C 242.178 -0.83051 1.84247 0
M  V30 2563 C 242.499 -1.80629 0.73471 0
M  V30 2564 O 241.769 -1.94403 -0.241688 0
M  V30 2565 H 240.349 -0.309694 0.679778 0
M  V30 2566 H 243.011 -0.111976 1.94578 0
M  V30 2567 H 242.107 -1.37852 2.80006 0
M  V30 2568 N 242.408 -1.52605 -0.393616 0
M  V30 2569 C 243.355 -1.77055 -1.48054 0
M  V30 2570 C 244.325 -0.61358 -1.54352 0
M  V30 2571 O 245.51 -0.852806 -1.70681 0
M  V30 2572 C 242.65 -1.94108 -2.85335 0
M  V30 2573 C 241.763 -3.21792 -2.88226 0
M  V30 2574 C 240.898 -3.29188 -4.16904 0
M  V30 2575 C 239.937 -4.51013 -4.13828 0
M  V30 2576 N 239.074 -4.55716 -5.34105 0
M  V30 2577 H 243.914 -2.69815 -1.26506 0
M  V30 2578 H 241.451 -1.33683 -0.61379 0
M  V30 2579 H 243.409 -2.01979 -3.65049 0
M  V30 2580 H 242.039 -1.04713 -3.05344 0
M  V30 2581 H 241.091 -3.23015 -2.00911 0
M  V30 2582 H 242.403 -4.11557 -2.8182 0
M  V30 2583 H 241.557 -3.36216 -5.05018 0
M  V30 2584 H 240.296 -2.37389 -4.26026 0
M  V30 2585 H 239.301 -4.44115 -3.24102 0
M  V30 2586 H 240.526 -5.44123 -4.06333 0
M  V30 2587 H 238.472 -3.66807 -5.43865 0
M  V30 2588 H 238.389 -5.39346 -5.29756 0
M  V30 2589 H 239.657 -4.66993 -6.2413 0
M  V30 2590 N 243.887 0.651787 -1.4349 0
M  V30 2591 C 244.817 1.77621 -1.51569 0
M  V30 2592 C 245.798 1.66022 -0.370253 0
M  V30 2593 O 246.983 1.85095 -0.587658 0
M  V30 2594 C 244.113 3.16056 -1.43966 0
M  V30 2595 C 243.067 3.4242 -2.56774 0
M  V30 2596 C 242.393 4.8067 -2.34223 0
M  V30 2597 C 243.693 3.37023 -3.99015 0
M  V30 2598 H 245.387 1.71117 -2.45681 0
M  V30 2599 H 242.933 0.821825 -1.18246 0
M  V30 2600 H 244.886 3.94472 -1.48221 0
M  V30 2601 H 243.61 3.23293 -0.463586 0
M  V30 2602 H 242.269 2.66375 -2.51873 0
M  V30 2603 H 241.917 4.84585 -1.34856 0
M  V30 2604 H 241.617 4.9927 -3.09844 0
M  V30 2605 H 243.141 5.61342 -2.40265 0
M  V30 2606 H 244.555 4.05374 -4.05395 0
M  V30 2607 H 242.952 3.67159 -4.74673 0
M  V30 2608 H 244.022 2.3518 -4.2405 0
M  V30 2609 N 245.365 1.30045 0.890287 0
M  V30 2610 C 246.781 1.08261 1.17268 0
M  V30 2611 C 246.981 -0.160063 2.00863 0
M  V30 2612 O 246.037 -0.855181 2.37577 0
M  V30 2613 C 247.35 2.34323 1.8845 0
M  V30 2614 C 248.898 2.39735 2.01237 0
M  V30 2615 C 249.373 3.65625 2.7583 0
M  V30 2616 N 250.864 3.66402 2.83379 0
M  V30 2617 C 251.599 4.60498 3.41657 0
M  V30 2618 N 251.095 5.64933 4.01026 0
M  V30 2619 N 252.888 4.48051 3.39421 0
M  V30 2620 H 245.039 2.09777 0.332762 0
M  V30 2621 H 247.302 0.92446 0.209948 0
M  V30 2622 H 247.008 3.2498 1.34465 0
M  V30 2623 H 246.882 2.4256 2.88867 0
M  V30 2624 H 249.269 1.4956 2.54393 0
M  V30 2625 H 249.35 2.35476 0.999232 0
M  V30 2626 H 248.994 4.56156 2.23347 0
M  V30 2627 H 248.924 3.67144 3.77509 0
M  V30 2628 H 251.415 2.90896 2.41222 0
M  V30 2629 H 251.728 6.32841 4.43545 0
M  V30 2630 H 250.073 5.68732 3.99461 0
M  V30 2631 H 253.264 3.65649 2.92264 0
M  V30 2632 H 253.437 5.21565 3.84544 0
M  V30 2633 N 246.843 -1.10192 1.12674 0
M  V30 2634 C 248.092 -1.81573 0.8783 0
M  V30 2635 C 248.405 -1.86249 -0.597557 0
M  V30 2636 O 249.611 -2.5386 -0.962681 0
M  V30 2637 C 248.067 -3.26149 1.52167 0
M  V30 2638 C 247.675 -3.29763 3.03249 0
M  V30 2639 C 249.419 -4.0234 1.3536 0
M  V30 2640 C 247.326 -4.68815 3.60508 0
M  V30 2641 H 246.256 -0.680394 0.324931 0
M  V30 2642 H 248.907 -1.23902 1.35353 0
M  V30 2643 H 247.289 -3.83832 0.974104 0
M  V30 2644 H 248.463 -2.8189 3.6452 0
M  V30 2645 H 246.778 -2.67059 3.19481 0
M  V30 2646 H 249.375 -5.05058 1.75559 0
M  V30 2647 H 249.718 -4.15235 0.297554 0
M  V30 2648 H 250.251 -3.51079 1.87052 0
M  V30 2649 H 246.99 -4.61121 4.65884 0
M  V30 2650 H 246.51 -5.17045 3.04014 0
M  V30 2651 H 248.189 -5.37785 3.59717 0
M  V30 2652 N 248.321 -0.919034 -1.28029 0
M  V30 2653 C 249.253 -0.368762 -2.26214 0
M  V30 2654 C 250.266 0.495716 -1.55069 0
M  V30 2655 O 251.455 0.30974 -1.75792 0
M  V30 2656 C 248.555 0.491049 -3.35324 0
M  V30 2657 C 247.728 -0.352133 -4.3598 0
M  V30 2658 C 246.787 0.443622 -5.24327 0
M  V30 2659 O 245.813 -0.14566 -5.69014 0
M  V30 2660 N 247.015 1.74545 -5.53637 0
M  V30 2661 H 249.78 -1.21273 -2.74068 0
M  V30 2662 H 247.341 -0.785541 -1.41566 0
M  V30 2663 H 249.333 1.03026 -3.91366 0
M  V30 2664 H 247.903 1.23574 -2.87138 0
M  V30 2665 H 247.123 -1.07269 -3.79324 0
M  V30 2666 H 248.411 -0.928883 -5.00249 0
M  V30 2667 H 247.809 2.24666 -5.19174 0
M  V30 2668 H 246.366 2.23138 -6.12416 0
M  V30 2669 N 249.799 1.42003 -0.683588 0
M  V30 2670 C 251.027 2.05746 -0.218182 0
M  V30 2671 C 251.442 1.51396 1.12804 0
M  V30 2672 O 250.799 0.657303 1.70252 0
M  V30 2673 C 250.85 3.61171 -0.154131 0
M  V30 2674 O 250.571 4.13508 -1.44716 0
M  V30 2675 C 252.072 4.42042 0.333713 0
M  V30 2676 H 249.292 0.662888 -0.10402 0
M  V30 2677 H 251.836 1.81987 -0.9328 0
M  V30 2678 H 249.991 3.84012 0.511231 0
M  V30 2679 H 250.405 5.07453 -1.32632 0
M  V30 2680 H 251.879 5.51028 0.327423 0
M  V30 2681 H 252.356 4.17269 1.37053 0
M  V30 2682 H 252.962 4.24239 -0.300222 0
M  V30 2683 N 251.277 0.427512 1.51691 0
M  V30 2684 C 252.523 -0.142439 2.02299 0
M  V30 2685 C 252.856 -1.43214 1.31162 0
M  V30 2686 O 252.131 -1.89833 0.423511 0
M  V30 2687 C 252.414 -0.371301 3.58181 0
M  V30 2688 C 252.267 0.936358 4.39946 0
M  V30 2689 C 253.586 -1.14542 4.24933 0
M  V30 2690 H 250.705 -0.0502937 0.735282 0
M  V30 2691 H 253.347 0.564584 1.81418 0
M  V30 2692 H 251.497 -0.973559 3.76104 0
M  V30 2693 H 253.169 1.57184 4.33694 0
M  V30 2694 H 251.412 1.5432 4.05423 0
M  V30 2695 H 252.083 0.730388 5.47147 0
M  V30 2696 H 254.559 -0.635362 4.11221 0
M  V30 2697 H 253.435 -1.27431 5.33903 0
M  V30 2698 H 253.696 -2.17093 3.85127 0
M  V30 2699 N 252.755 -1.56801 0.158532 0
M  V30 2700 C 254.001 -1.96781 -0.490405 0
M  V30 2701 C 254.334 -1.04397 -1.63753 0
M  V30 2702 O 253.609 -0.0885805 -1.94298 0
M  V30 2703 C 253.892 -3.4635 -0.985594 0
M  V30 2704 C 253.745 -4.49512 0.160824 0
M  V30 2705 C 255.064 -3.98697 -1.86355 0
M  V30 2706 H 252.183 -0.715482 -0.176788 0
M  V30 2707 H 254.825 -1.88451 0.242088 0
M  V30 2708 H 252.975 -3.53579 -1.60978 0
M  V30 2709 H 254.647 -4.54353 0.797537 0
M  V30 2710 H 252.89 -4.26013 0.818256 0
M  V30 2711 H 253.561 -5.51531 -0.227569 0
M  V30 2712 H 256.037 -3.94019 -1.33746 0
M  V30 2713 H 254.913 -5.03792 -2.17909 0
M  V30 2714 H 255.174 -3.41744 -2.8047 0
M  V30 2715 N 254.233 0.115231 -1.57178 0
M  V30 2716 C 255.458 0.840354 -1.89612 0
M  V30 2717 C 255.883 1.72464 -0.750845 0
M  V30 2718 O 255.241 1.78826 0.298478 0
M  V30 2719 C 255.289 1.64654 -3.20814 0
M  V30 2720 O 254.393 2.7538 -3.06985 0
M  V30 2721 H 253.734 0.232158 -0.622092 0
M  V30 2722 H 256.264 0.0964977 -2.04372 0
M  V30 2723 H 256.274 2.03499 -3.53627 0
M  V30 2724 H 254.949 0.997416 -4.03763 0
M  V30 2725 H 253.526 2.3971 -2.85646 0
M  V30 2726 N 255.711 1.52812 0.385517 0
M  V30 2727 C 257.127 1.4214 0.725829 0
M  V30 2728 C 257.327 0.544589 1.94001 0
M  V30 2729 O 256.383 0.0193693 2.52493 0
M  V30 2730 C 257.696 2.85042 0.957668 0
M  V30 2731 C 259.244 2.94543 1.05892 0
M  V30 2732 C 259.719 4.38464 1.32337 0
M  V30 2733 N 261.21 4.41804 1.39151 0
M  V30 2734 C 261.945 5.5025 1.61285 0
M  V30 2735 N 261.441 6.68775 1.80866 0
M  V30 2736 N 263.234 5.37798 1.63492 0
M  V30 2737 H 255.385 2.08338 -0.413383 0
M  V30 2738 H 257.648 0.940016 -0.122775 0
M  V30 2739 H 257.354 3.51431 0.137568 0
M  V30 2740 H 257.228 3.27505 1.87137 0
M  V30 2741 H 259.615 2.28321 1.86959 0
M  V30 2742 H 259.696 2.55504 0.123057 0
M  V30 2743 H 259.34 5.05254 0.517793 0
M  V30 2744 H 259.27 4.75059 2.27214 0
M  V30 2745 H 261.761 3.56377 1.25713 0
M  V30 2746 H 262.074 7.47197 1.97271 0
M  V30 2747 H 260.419 6.71797 1.78083 0
M  V30 2748 H 263.61 4.44171 1.47749 0
M  V30 2749 H 263.783 6.22382 1.80402 0
M  V30 2750 N 257.189 -0.644168 1.43834 0
M  V30 2751 C 258.099 -1.78563 1.52159 0
M  V30 2752 C 259.115 -1.69147 0.408069 0
M  V30 2753 O 260.291 -1.90156 0.663524 0
M  V30 2754 C 257.356 -3.14888 1.45073 0
M  V30 2755 C 256.417 -3.36034 2.6717 0
M  V30 2756 C 255.65 -4.65855 2.60413 0
M  V30 2757 O 255.873 -5.45805 1.65689 0
M  V30 2758 O 254.807 -4.88918 3.5106 0
M  V30 2759 H 258.633 -1.74494 2.48567 0
M  V30 2760 H 256.218 -0.80378 1.25935 0
M  V30 2761 H 258.1 -3.96179 1.43597 0
M  V30 2762 H 256.775 -3.19528 0.518037 0
M  V30 2763 H 255.682 -2.54472 2.74217 0
M  V30 2764 H 257.015 -3.36247 3.59442 0
M  V30 2765 N 258.668 -1.30515 -0.883378 0
M  V30 2766 C 259.896 -1.22359 -1.66841 0
M  V30 2767 C 260.311 0.213296 -1.87591 0
M  V30 2768 O 259.668 1.14075 -1.42454 0
M  V30 2769 C 259.719 -1.95011 -3.04389 0
M  V30 2770 O 259.44 -3.3309 -2.84575 0
M  V30 2771 C 260.941 -1.93532 -3.98824 0
M  V30 2772 H 258.161 -0.423371 -0.520575 0
M  V30 2773 H 260.705 -1.72167 -1.10357 0
M  V30 2774 H 258.86 -1.48997 -3.57601 0
M  V30 2775 H 259.274 -3.69907 -3.71846 0
M  V30 2776 H 260.748 -2.48902 -4.92699 0
M  V30 2777 H 261.225 -0.914627 -4.29571 0
M  V30 2778 H 261.831 -2.39364 -3.51547 0
M  V30 2779 N 260.146 1.09593 -1.13257 0
M  V30 2780 C 261.109 2.14359 -0.811358 0
M  V30 2781 C 262.109 1.59808 0.178377 0
M  V30 2782 O 263.299 1.74132 -0.0484911 0
M  V30 2783 C 260.431 3.40269 -0.207276 0
M  V30 2784 H 261.624 2.44284 -1.73969 0
M  V30 2785 H 259.177 1.25102 -0.936973 0
M  V30 2786 H 259.912 3.15969 0.73036 0
M  V30 2787 H 259.697 3.81154 -0.919992 0
M  V30 2788 H 261.187 4.176 0.000667944 0
M  V30 2789 N 261.624 0.925811 1.2754 0
M  V30 2790 C 262.587 0.428129 2.25166 0
M  V30 2791 C 263.587 -0.452261 1.54309 0
M  V30 2792 O 264.777 -0.253608 1.72344 0
M  V30 2793 C 261.909 -0.384749 3.38722 0
M  V30 2794 H 263.102 1.29066 2.70706 0
M  V30 2795 H 260.655 0.706323 1.3943 0
M  V30 2796 H 261.39 -1.26618 2.98561 0
M  V30 2797 H 261.175 0.246454 3.91325 0
M  V30 2798 H 262.665 -0.723389 4.11287 0
M  V30 2799 N 263.102 -1.41638 0.69111 0
M  V30 2800 C 264.35 -2.00902 0.219758 0
M  V30 2801 C 264.671 -1.54994 -1.18329 0
M  V30 2802 O 263.941 -0.778628 -1.79762 0
M  V30 2803 H 262.521 -0.74289 0.0782558 0
M  V30 2804 H 265.183 -1.73327 0.891271 0
M  V30 2805 H 264.279 -3.11224 0.233708 0
M  V30 2806 N 264.58 -0.43555 -1.51462 0
M  V30 2807 C 265.805 0.132627 -2.06976 0
M  V30 2808 C 266.23 1.35848 -1.30104 0
M  V30 2809 O 265.588 1.78112 -0.338493 0
M  V30 2810 C 265.636 0.43523 -3.57964 0
M  V30 2811 O 264.74 1.52198 -3.83288 0
M  V30 2812 H 264.081 0.00265 -0.663995 0
M  V30 2813 H 266.611 -0.616369 -1.95095 0
M  V30 2814 H 266.621 0.686206 -4.02188 0
M  V30 2815 H 265.296 -0.460739 -4.1334 0
M  V30 2816 H 263.873 1.2611 -3.50928 0
M  V30 2817 N 266.058 1.56714 -0.166846 0
M  V30 2818 C 266.988 2.20754 0.760913 0
M  V30 2819 C 267.969 1.16178 1.24244 0
M  V30 2820 O 269.154 1.44592 1.29641 0
M  V30 2821 C 266.284 2.84478 1.99223 0
M  V30 2822 C 265.238 3.95053 1.64672 0
M  V30 2823 C 264.564 4.45805 2.95232 0
M  V30 2824 C 265.864 5.14865 0.878155 0
M  V30 2825 H 267.558 2.98537 0.22713 0
M  V30 2826 H 265.104 1.43596 0.107805 0
M  V30 2827 H 267.057 3.27951 2.64624 0
M  V30 2828 H 265.781 2.04056 2.55007 0
M  V30 2829 H 264.44 3.52228 1.01641 0
M  V30 2830 H 264.088 3.62181 3.49047 0
M  V30 2831 H 263.788 5.204 2.7287 0
M  V30 2832 H 265.312 4.91962 3.6167 0
M  V30 2833 H 266.726 5.55059 1.43466 0
M  V30 2834 H 265.123 5.95348 0.753738 0
M  V30 2835 H 266.193 4.84735 -0.126377 0
M  V30 2836 N 267.536 -0.106894 1.57237 0
M  V30 2837 C 268.764 -0.826389 1.8968 0
M  V30 2838 C 269.179 -1.72856 0.759353 0
M  V30 2839 O 268.536 -1.80503 -0.269263 0
M  V30 2840 C 268.587 -1.64967 3.21665 0
M  V30 2841 O 268.308 -0.783804 4.31031 0
M  V30 2842 C 269.809 -2.47326 3.67892 0
M  V30 2843 H 267.029 -0.236927 0.627779 0
M  V30 2844 H 269.573 -0.0876593 2.04312 0
M  V30 2845 H 267.728 -2.34103 3.08666 0
M  V30 2846 H 268.142 -1.35284 5.06753 0
M  V30 2847 H 269.616 -3.00604 4.6297 0
M  V30 2848 H 270.093 -3.25247 2.95146 0
M  V30 2849 H 270.699 -1.83411 3.83719 0
M  V30 2850 N 269.014 -1.53014 -0.377408 0
M  V30 2851 C 270.262 -1.6829 -1.11906 0
M  V30 2852 C 270.583 -0.431206 -1.90173 0
M  V30 2853 O 269.853 0.554595 -1.87886 0
M  V30 2854 H 268.433 -0.620371 -0.416112 0
M  V30 2855 H 271.095 -1.90167 -0.426893 0
M  V30 2856 H 270.191 -2.53862 -1.8155 0
M  V30 2857 N 270.492 0.636531 -1.44174 0
M  V30 2858 C 271.908 0.954104 -1.27941 0
M  V30 2859 C 272.108 2.0039 -0.211248 0
M  V30 2860 O 271.164 2.49236 0.404695 0
M  V30 2861 C 272.477 1.4225 -2.64925 0
M  V30 2862 C 274.025 1.53827 -2.72592 0
M  V30 2863 C 274.5 2.04053 -4.10032 0
M  V30 2864 N 275.991 2.11331 -4.12182 0
M  V30 2865 C 276.726 2.51352 -5.15374 0
M  V30 2866 N 276.222 2.90549 -6.2893 0
M  V30 2867 N 278.015 2.51438 -5.02728 0
M  V30 2868 H 270.166 -0.0578386 -2.12321 0
M  V30 2869 H 272.429 0.0367406 -0.947288 0
M  V30 2870 H 272.135 0.725466 -3.44136 0
M  V30 2871 H 272.009 2.39451 -2.9145 0
M  V30 2872 H 274.396 2.22628 -1.93702 0
M  V30 2873 H 274.477 0.550154 -2.49814 0
M  V30 2874 H 274.121 1.35848 -4.89395 0
M  V30 2875 H 274.051 3.03726 -4.30184 0
M  V30 2876 H 276.542 1.83745 -3.30222 0
M  V30 2877 H 276.855 3.19884 -7.03487 0
M  V30 2878 H 275.2 2.88313 -6.32377 0
M  V30 2879 H 278.391 2.20203 -4.13072 0
M  V30 2880 H 278.564 2.82304 -5.83274 0
M  V30 2881 N 271.97 1.30982 0.876444 0
M  V30 2882 C 273.219 1.19658 1.62373 0
M  V30 2883 C 273.532 -0.245636 1.94052 0
M  V30 2884 O 274.738 -0.48049 2.67214 0
M  V30 2885 C 273.194 2.09433 2.92687 0
M  V30 2886 C 272.802 3.58613 2.68516 0
M  V30 2887 C 274.546 2.06893 3.70669 0
M  V30 2888 C 272.453 4.40416 3.94699 0
M  V30 2889 H 271.383 0.444268 0.609214 0
M  V30 2890 H 274.034 1.55791 0.969605 0
M  V30 2891 H 272.416 1.66191 3.59439 0
M  V30 2892 H 273.59 4.10058 2.10212 0
M  V30 2893 H 271.905 3.63063 2.03898 0
M  V30 2894 H 274.502 2.65258 4.64265 0
M  V30 2895 H 274.845 1.05448 4.02724 0
M  V30 2896 H 275.378 2.48301 3.10792 0
M  V30 2897 H 272.117 5.42591 3.67798 0
M  V30 2898 H 271.637 3.93731 4.52477 0
M  V30 2899 H 273.316 4.52294 4.62644 0
M  V30 2900 N 273.449 -1.08991 1.13837 0
M  V30 2901 C 274.86 -1.62746 0.914917 0
M  V30 2902 C 275.211 -1.88403 -0.547594 0
M  V30 2903 O 274.336 -1.63706 -1.41525 0
M  V30 2904 C 274.931 -2.95662 1.65437 0
M  V30 2905 C 273.49 -3.46225 1.47666 0
M  V30 2906 C 272.637 -2.20562 1.6807 0
M  V30 2907 H 275.588 -0.922946 1.29102 0
M  V30 2908 H 275.609 -3.63825 1.11407 0
M  V30 2909 H 275.121 -2.76956 2.71877 0
M  V30 2910 H 273.222 -3.70046 0.435478 0
M  V30 2911 H 273.335 -4.23368 2.24268 0
M  V30 2912 H 271.699 -2.29439 1.10589 0
M  V30 2913 H 272.482 -2.0437 2.7584 0
M  V30 2914 N 274.927 -0.932562 -1.27047 0
M  V30 2915 C 275.89 -0.440064 -2.24936 0
M  V30 2916 C 276.89 0.444071 -1.54547 0
M  V30 2917 O 278.08 0.244465 -1.72476 0
M  V30 2918 C 275.212 0.36678 -3.38921 0
M  V30 2919 H 276.405 -1.305 -2.70018 0
M  V30 2920 H 273.958 -0.713707 -1.39054 0
M  V30 2921 H 274.693 1.25033 -2.99228 0
M  V30 2922 H 274.478 -0.267204 -3.91188 0
M  V30 2923 H 275.968 0.701567 -4.11665 0
M  V30 2924 N 276.405 1.4127 -0.698611 0
M  V30 2925 C 277.335 2.33447 -0.049629 0
M  V30 2926 C 278.316 1.51982 0.763898 0
M  V30 2927 O 279.501 1.80509 0.716257 0
M  V30 2928 C 276.631 3.35828 0.885267 0
M  V30 2929 C 275.585 4.27627 0.178613 0
M  V30 2930 C 274.911 5.20406 1.22807 0
M  V30 2931 C 276.211 5.13459 -0.956933 0
M  V30 2932 H 277.905 2.87966 -0.81951 0
M  V30 2933 H 275.451 1.38461 -0.395538 0
M  V30 2934 H 277.404 3.9924 1.34854 0
M  V30 2935 H 276.128 2.79666 1.68685 0
M  V30 2936 H 274.787 3.65643 -0.26466 0
M  V30 2937 H 274.435 4.60558 2.02226 0
M  V30 2938 H 274.135 5.82661 0.760239 0
M  V30 2939 H 275.659 5.86695 1.69179 0
M  V30 2940 H 277.073 5.70421 -0.573805 0
M  V30 2941 H 275.47 5.8467 -1.35205 0
M  V30 2942 H 276.54 4.50443 -1.79524 0
M  V30 2943 N 277.883 0.443576 1.51229 0
M  V30 2944 C 279.132 -0.122332 2.01329 0
M  V30 2945 C 279.445 -1.43237 1.33201 0
M  V30 2946 O 280.651 -2.0816 1.74304 0
M  V30 2947 C 279.107 -0.268551 3.58897 0
M  V30 2948 C 278.715 1.03142 4.35965 0
M  V30 2949 C 280.459 -0.787894 4.17124 0
M  V30 2950 C 278.366 0.850504 5.85252 0
M  V30 2951 H 277.296 -0.0494929 0.752374 0
M  V30 2952 H 279.947 0.574289 1.74282 0
M  V30 2953 H 278.329 -1.02832 3.82415 0
M  V30 2954 H 279.503 1.80001 4.24189 0
M  V30 2955 H 277.818 1.47977 3.89219 0
M  V30 2956 H 280.415 -0.939841 5.26375 0
M  V30 2957 H 280.758 -1.77201 3.76703 0
M  V30 2958 H 281.291 -0.0862669 3.97706 0
M  V30 2959 H 278.03 1.80718 6.30096 0
M  V30 2960 H 277.55 0.121825 5.99676 0
M  V30 2961 H 279.229 0.506163 6.45017 0
M  V30 2962 N 279.361 -1.56624 0.175154 0
M  V30 2963 C 280.271 -2.21741 -0.766042 0
M  V30 2964 C 281.287 -1.21023 -1.25018 0
M  V30 2965 O 282.463 -1.53697 -1.3015 0
M  V30 2966 C 279.528 -2.84839 -1.97655 0
M  V30 2967 C 278.589 -4.00769 -1.53892 0
M  V30 2968 C 277.822 -4.60849 -2.69173 0
M  V30 2969 O 278.045 -4.19823 -3.86141 0
M  V30 2970 O 276.979 -5.50655 -2.43028 0
M  V30 2971 H 280.805 -3.02738 -0.241585 0
M  V30 2972 H 278.39 -1.49305 -0.053222 0
M  V30 2973 H 280.272 -3.24834 -2.68442 0
M  V30 2974 H 278.947 -2.06836 -2.48999 0
M  V30 2975 H 277.854 -3.65436 -0.80044 0
M  V30 2976 H 279.187 -4.80376 -1.07236 0
M  V30 2977 N 280.839 0.0985539 -1.57292 0
M  V30 2978 C 282.064 0.820196 -1.90493 0
M  V30 2979 C 282.489 1.71658 -0.769094 0
M  V30 2980 O 281.847 1.79133 0.279495 0
M  V30 2981 C 281.895 1.61242 -3.22542 0
M  V30 2982 O 280.999 2.72108 -3.09888 0
M  V30 2983 H 280.34 0.225547 -0.62452 0
M  V30 2984 H 282.87 0.0748159 -2.04463 0
M  V30 2985 H 282.88 1.99737 -3.55766 0
M  V30 2986 H 281.555 0.954535 -4.04798 0
M  V30 2987 H 280.132 2.36667 -2.88172 0
M  V30 2988 N 282.317 1.53212 0.369288 0
M  V30 2989 C 283.565 1.68881 1.11012 0
M  V30 2990 C 283.886 0.441285 1.89941 0
M  V30 2991 O 283.156 -0.544623 1.88177 0
M  V30 2992 H 281.736 0.622569 0.412816 0
M  V30 2993 H 284.398 1.90391 0.416802 0
M  V30 2994 H 283.494 2.54822 1.80201 0
M  V30 2995 N 283.795 -0.628877 1.44509 0
M  V30 2996 C 284.705 -1.7694 1.54044 0
M  V30 2997 C 285.721 -1.68705 0.425987 0
M  V30 2998 O 286.897 -1.89442 0.683656 0
M  V30 2999 C 283.962 -3.13332 1.48405 0
M  V30 3000 C 283.023 -3.33181 2.70719 0
M  V30 3001 C 282.256 -4.63067 2.6534 0
M  V30 3002 O 282.479 -5.44017 1.71469 0
M  V30 3003 O 281.413 -4.85167 3.56226 0
M  V30 3004 H 285.239 -1.71848 2.50403 0
M  V30 3005 H 282.824 -0.790378 1.26781 0
M  V30 3006 H 284.706 -3.94634 1.47791 0
M  V30 3007 H 283.381 -3.1896 0.551898 0
M  V30 3008 H 282.288 -2.51549 2.769 0
M  V30 3009 H 283.621 -3.32416 3.62988 0
M  V30 3010 N 285.273 -1.31445 -0.869486 0
M  V30 3011 C 286.203 -1.21727 -1.99261 0
M  V30 3012 C 287.184 -0.104359 -1.6978 0
M  V30 3013 O 288.369 -0.289038 -1.92037 0
M  V30 3014 C 285.499 -0.924317 -3.34774 0
M  V30 3015 C 284.453 -1.99685 -3.78563 0
M  V30 3016 C 283.779 -1.55658 -5.11541 0
M  V30 3017 C 285.079 -3.41003 -3.95619 0
M  V30 3018 H 286.773 -2.1569 -2.07649 0
M  V30 3019 H 284.319 -1.03839 -0.997675 0
M  V30 3020 H 286.272 -0.842934 -4.12883 0
M  V30 3021 H 284.996 0.0509793 -3.2656 0
M  V30 3022 H 283.655 -2.06813 -3.02694 0
M  V30 3023 H 283.303 -0.569132 -4.9977 0
M  V30 3024 H 283.003 -2.27409 -5.41811 0
M  V30 3025 H 284.527 -1.48928 -5.92159 0
M  V30 3026 H 285.941 -3.36547 -4.64122 0
M  V30 3027 H 284.338 -4.10975 -4.37286 0
M  V30 3028 H 285.408 -3.81754 -2.98985 0
M  V30 3029 N 286.751 1.08385 -1.14413 0
M  V30 3030 C 287.661 2.18856 -0.844951 0
M  V30 3031 C 288.677 1.73121 0.174668 0
M  V30 3032 O 289.853 2.014 0.00312857 0
M  V30 3033 C 286.918 3.45155 -0.32696 0
M  V30 3034 C 285.979 4.05513 -1.40916 0
M  V30 3035 C 285.212 5.25784 -0.915793 0
M  V30 3036 O 285.435 5.69884 0.242651 0
M  V30 3037 O 284.369 5.77545 -1.69487 0
M  V30 3038 H 288.195 2.46919 -1.76818 0
M  V30 3039 H 285.78 1.17524 -0.922411 0
M  V30 3040 H 287.662 4.21377 -0.0440211 0
M  V30 3041 H 286.337 3.18668 0.568539 0
M  V30 3042 H 285.244 3.30879 -1.74556 0
M  V30 3043 H 286.577 4.3625 -2.27919 0
M  V30 3044 N 288.23 0.939286 1.26551 0
M  V30 3045 C 289.455 0.602008 1.98471 0
M  V30 3046 C 289.88 -0.815624 1.69497 0
M  V30 3047 O 289.238 -1.54912 0.941905 0
M  V30 3048 C 289.286 0.848407 3.50477 0
M  V30 3049 O 288.39 -0.0804009 4.12322 0
M  V30 3050 H 287.731 0.23049 0.622712 0
M  V30 3051 H 290.261 1.2617 1.61066 0
M  V30 3052 H 290.271 0.768553 4.00696 0
M  V30 3053 H 288.946 1.88171 3.70897 0
M  V30 3054 H 287.523 0.0503508 3.72866 0
M  V30 3055 N 289.708 -1.40897 0.706093 0
M  V30 3056 C 290.936 -2.05373 0.250887 0
M  V30 3057 C 291.351 -1.53172 -1.10381 0
M  V30 3058 O 290.708 -0.684305 -1.69185 0
M  V30 3059 C 290.759 -3.6088 0.211571 0
M  V30 3060 O 290.48 -4.11153 1.51276 0
M  V30 3061 C 291.981 -4.42517 -0.263346 0
M  V30 3062 H 289.201 -0.66115 0.114552 0
M  V30 3063 H 291.745 -1.80479 0.961635 0
M  V30 3064 H 289.9 -3.84777 -0.450073 0
M  V30 3065 H 290.314 -5.05279 1.40689 0
M  V30 3066 H 291.788 -5.51479 -0.239718 0
M  V30 3067 H 292.265 -4.19396 -1.30397 0
M  V30 3068 H 292.871 -4.23708 0.367677 0
M  V30 3069 N 291.186 -0.45159 -1.50991 0
M  V30 3070 C 292.435 0.111653 -2.01391 0
M  V30 3071 C 292.748 1.42529 -1.33959 0
M  V30 3072 O 293.954 2.07232 -1.75405 0
M  V30 3073 C 292.41 0.249514 -3.59034 0
M  V30 3074 C 292.018 -1.05453 -4.35412 0
M  V30 3075 C 293.762 0.765762 -4.17536 0
M  V30 3076 C 291.669 -0.881529 -5.84793 0
M  V30 3077 H 290.599 0.0455022 -0.752626 0
M  V30 3078 H 293.25 -0.583524 -1.73975 0
M  V30 3079 H 291.632 1.00803 -3.82955 0
M  V30 3080 H 292.806 -1.82248 -4.23229 0
M  V30 3081 H 291.121 -1.50039 -3.88429 0
M  V30 3082 H 293.718 0.911913 -5.26866 0
M  V30 3083 H 294.061 1.75201 -3.77638 0
M  V30 3084 H 294.594 0.0651744 -3.97747 0
M  V30 3085 H 291.333 -1.84057 -6.29129 0
M  V30 3086 H 290.853 -0.153625 -5.99603 0
M  V30 3087 H 292.532 -0.540363 -6.4474 0
M  V30 3088 N 292.664 1.56529 -0.183458 0
M  V30 3089 C 293.912 1.96855 0.457452 0
M  V30 3090 C 294.233 1.07104 1.62953 0
M  V30 3091 O 293.503 0.139887 1.954 0
M  V30 3092 H 292.083 0.72693 0.171992 0
M  V30 3093 H 294.745 1.93056 -0.267476 0
M  V30 3094 H 293.841 3.01423 0.809368 0
M  V30 3095 N 294.142 -0.090211 1.57342 0
M  V30 3096 C 295.072 -1.10976 2.05443 0
M  V30 3097 C 296.053 -1.41482 0.944284 0
M  V30 3098 O 297.238 -1.51428 1.21586 0
M  V30 3099 C 294.368 -2.42831 2.48295 0
M  V30 3100 C 293.322 -2.26721 3.63018 0
M  V30 3101 C 292.648 -3.63796 3.91863 0
M  V30 3102 C 293.948 -1.7037 4.93732 0
M  V30 3103 H 295.642 -0.709564 2.9087 0
M  V30 3104 H 293.188 -0.339874 1.39932 0
M  V30 3105 H 295.141 -3.14431 2.80555 0
M  V30 3106 H 293.865 -2.84795 1.59873 0
M  V30 3107 H 292.524 -1.57565 3.31012 0
M  V30 3108 H 292.172 -4.03297 3.00601 0
M  V30 3109 H 291.872 -3.53861 4.69101 0
M  V30 3110 H 293.396 -4.36855 4.26603 0
M  V30 3111 H 294.81 -2.31816 5.24342 0
M  V30 3112 H 293.207 -1.71181 5.75167 0
M  V30 3113 H 294.277 -0.663542 4.80339 0
M  V30 3114 N 295.62 -1.53406 -0.361157 0
M  V30 3115 C 297.031 -1.61442 -0.937728 0
M  V30 3116 C 297.382 -0.48461 -1.90121 0
M  V30 3117 O 296.507 0.388312 -2.12888 0
M  V30 3118 C 297.102 -2.92624 -1.70753 0
M  V30 3119 C 295.661 -3.02981 -2.23337 0
M  V30 3120 C 294.808 -2.5677 -1.04712 0
M  V30 3121 H 297.759 -1.58083 -0.139816 0
M  V30 3122 H 297.78 -2.80675 -2.56908 0
M  V30 3123 H 297.292 -3.74834 -1.00604 0
M  V30 3124 H 295.393 -2.25368 -2.96715 0
M  V30 3125 H 295.506 -4.0814 -2.50916 0
M  V30 3126 H 293.87 -2.11752 -1.41539 0
M  V30 3127 H 294.653 -3.41402 -0.360539 0
M  V30 3128 N 297.098 0.621204 -1.44841 0
M  V30 3129 C 298.031 1.7459 -1.46947 0
M  V30 3130 C 299.009 1.59273 -0.327238 0
M  V30 3131 O 300.193 1.81021 -0.525706 0
M  V30 3132 C 297.32 3.12274 -1.31159 0
M  V30 3133 C 296.366 3.46216 -2.49072 0
M  V30 3134 S 297.199 3.4258 -4.11581 0
M  V30 3135 C 298.355 4.82867 -3.98233 0
M  V30 3136 H 298.588 1.72538 -2.42111 0
M  V30 3137 H 296.121 0.796683 -1.32259 0
M  V30 3138 H 298.079 3.91722 -1.22737 0
M  V30 3139 H 296.74 3.11855 -0.374885 0
M  V30 3140 H 295.933 4.4643 -2.33915 0
M  V30 3141 H 295.535 2.74253 -2.54286 0
M  V30 3142 H 297.827 5.7234 -3.62537 0
M  V30 3143 H 298.77 5.0308 -4.98313 0
M  V30 3144 H 299.178 4.57908 -3.30121 0
M  V30 3145 N 298.576 1.31904 0.862503 0
M  V30 3146 C 299.524 1.20125 1.9918 0
M  V30 3147 C 300.518 0.107824 1.69056 0
M  V30 3148 O 301.724 0.270223 1.7796 0
M  V30 3149 H 298.099 0.372148 0.65346 0
M  V30 3150 H 300.07 2.15652 2.06244 0
M  V30 3151 C 298.819 0.933099 3.34946 0
M  V30 3152 H 298.142 1.76664 3.5865 0
M  V30 3153 H 299.582 0.890892 4.14535 0
M  V30 3154 C 298.041 -0.364172 3.34926 0
M  V30 3155 O 298.571 -1.37858 3.77304 0
M  V30 3156 N 296.777 -0.383362 2.8806 0
M  V30 3157 H 296.324 0.442651 2.53768 0
M  V30 3158 H 296.282 -1.25123 2.8843 0
M  V30 3159 N 300.054 -1.07777 1.14986 0
M  V30 3160 C 301.001 -2.14867 0.842672 0
M  V30 3161 C 301.971 -1.6486 -0.202552 0
M  V30 3162 O 303.156 -1.90668 -0.0710568 0
M  V30 3163 C 300.296 -3.43486 0.333363 0
M  V30 3164 C 299.409 -4.07306 1.43965 0
M  V30 3165 C 298.544 -5.23744 0.886914 0
M  V30 3166 C 297.583 -5.79517 1.97043 0
M  V30 3167 N 296.72 -6.87291 1.4344 0
M  V30 3168 H 301.56 -2.40485 1.75986 0
M  V30 3169 H 299.097 -1.1801 0.878179 0
M  V30 3170 H 301.055 -4.17195 0.0198163 0
M  V30 3171 H 299.685 -3.18133 -0.546916 0
M  V30 3172 H 298.737 -3.31293 1.86946 0
M  V30 3173 H 300.049 -4.44771 2.25788 0
M  V30 3174 H 299.203 -6.04419 0.525651 0
M  V30 3175 H 297.942 -4.87685 0.0377957 0
M  V30 3176 H 296.947 -4.97491 2.34057 0
M  V30 3177 H 298.172 -6.17632 2.82325 0
M  V30 3178 H 296.118 -6.5318 0.607567 0
M  V30 3179 H 296.035 -7.23617 2.18895 0
M  V30 3180 H 297.303 -7.71682 1.10124 0
M  V30 3181 N 301.532 -0.945985 -1.26051 0
M  V30 3182 C 302.442 -0.465633 -2.29933 0
M  V30 3183 C 303.458 0.462761 -1.67733 0
M  V30 3184 O 304.634 0.341118 -1.9849 0
M  V30 3185 C 301.699 0.256994 -3.45746 0
M  V30 3186 C 300.76 -0.708549 -4.23412 0
M  V30 3187 C 299.993 -0.0203135 -5.33696 0
M  V30 3188 O 300.216 1.19571 -5.57726 0
M  V30 3189 O 299.15 -0.701459 -5.97799 0
M  V30 3190 H 302.976 -1.32866 -2.73094 0
M  V30 3191 H 300.561 -0.712071 -1.31339 0
M  V30 3192 H 302.443 0.663852 -4.16138 0
M  V30 3193 H 301.118 1.09533 -3.04605 0
M  V30 3194 H 300.025 -1.16545 -3.55483 0
M  V30 3195 H 301.358 -1.51465 -4.68315 0
M  V30 3196 N 303.011 1.40521 -0.713556 0
M  V30 3197 C 304.239 2.05237 -0.261775 0
M  V30 3198 C 304.654 1.53755 1.09567 0
M  V30 3199 O 304.011 0.693268 1.6882 0
M  V30 3200 C 304.062 3.60763 -0.230706 0
M  V30 3201 O 303.783 4.10345 -1.53455 0
M  V30 3202 C 305.284 4.42651 0.239874 0
M  V30 3203 H 302.504 0.660533 -0.118057 0
M  V30 3204 H 305.048 1.79967 -0.971192 0
M  V30 3205 H 303.203 3.8501 0.429661 0
M  V30 3206 H 303.617 5.04526 -1.43366 0
M  V30 3207 H 305.091 5.51599 0.210468 0
M  V30 3208 H 305.568 4.20082 1.28171 0
M  V30 3209 H 306.174 4.23507 -0.390142 0
M  V30 3210 N 304.489 0.459591 1.5075 0
M  V30 3211 C 305.714 -0.0996819 2.0716 0
M  V30 3212 C 306.139 -1.33761 1.32249 0
M  V30 3213 O 305.497 -1.77551 0.366786 0
M  V30 3214 C 305.545 -0.378226 3.58611 0
M  V30 3215 O 304.649 -1.46081 3.85661 0
M  V30 3216 H 303.99 0.00791392 0.663953 0
M  V30 3217 H 306.52 0.647329 1.9409 0
M  V30 3218 H 306.53 -0.622135 4.03229 0
M  V30 3219 H 305.205 0.526439 4.12555 0
M  V30 3220 H 303.782 -1.20511 3.5289 0
M  V30 3221 N 305.967 -1.56429 0.191757 0
M  V30 3222 C 306.917 -2.15548 -0.743184 0
M  V30 3223 C 307.901 -1.09531 -1.17863 0
M  V30 3224 O 309.093 -1.35602 -1.13759 0
M  V30 3225 C 306.222 -2.81577 -1.96391 0
M  V30 3226 C 305.308 -3.9478 -1.54951 0
M  V30 3227 N 305.699 -4.98677 -0.845876 0
M  V30 3228 C 303.997 -4.06319 -1.83905 0
M  V30 3229 C 304.698 -5.78183 -0.638724 0
M  V30 3230 N 303.674 -5.30495 -1.18643 0
M  V30 3231 H 307.476 -2.9324 -0.196839 0
M  V30 3232 H 304.99 -1.62398 -0.0081603 0
M  V30 3233 H 306.987 -3.22321 -2.64415 0
M  V30 3234 H 305.647 -2.05371 -2.51501 0
M  V30 3235 H 306.658 -5.15464 -0.501704 0
M  V30 3236 H 303.335 -3.41238 -2.40548 0
M  V30 3237 H 304.725 -6.71851 -0.0807929 0
M  V30 3238 N 307.445 0.0818655 -1.57387 0
M  V30 3239 C 308.691 0.784074 -1.8703 0
M  V30 3240 C 309.024 1.77729 -0.782689 0
M  V30 3241 O 308.299 1.93384 0.208051 0
M  V30 3242 C 308.582 1.50105 -3.27323 0
M  V30 3243 C 308.435 0.524925 -4.46727 0
M  V30 3244 C 309.754 2.44843 -3.65705 0
M  V30 3245 H 306.873 0.283582 -0.680257 0
M  V30 3246 H 309.515 0.0474352 -1.89941 0
M  V30 3247 H 307.665 2.12897 -3.24972 0
M  V30 3248 H 309.337 -0.0970111 -4.61198 0
M  V30 3249 H 307.58 -0.160606 -4.33503 0
M  V30 3250 H 308.251 1.064 -5.41648 0
M  V30 3251 H 310.727 1.92135 -3.69085 0
M  V30 3252 H 309.603 2.92018 -4.64776 0
M  V30 3253 H 309.864 3.29197 -2.95096 0
M  V30 3254 N 308.923 1.53595 0.353017 0
M  V30 3255 C 309.856 1.7572 1.45594 0
M  V30 3256 C 310.834 0.605961 1.50887 0
M  V30 3257 O 312.018 0.840023 1.68748 0
M  V30 3258 C 309.145 1.84732 2.83887 0
M  V30 3259 C 308.191 3.06808 2.96262 0
M  V30 3260 S 309.024 4.66065 2.63711 0
M  V30 3261 C 310.18 4.77943 4.04131 0
M  V30 3262 H 310.413 2.68994 1.26608 0
M  V30 3263 H 307.946 1.44343 0.548117 0
M  V30 3264 H 309.904 1.9061 3.63563 0
M  V30 3265 H 308.565 0.92488 3.00175 0
M  V30 3266 H 307.758 3.09761 3.97573 0
M  V30 3267 H 307.36 2.99108 2.24523 0
M  V30 3268 H 309.652 4.5877 4.98534 0
M  V30 3269 H 310.595 5.80022 4.06177 0
M  V30 3270 H 311.003 4.06472 3.91715 0
M  V30 3271 N 310.401 -0.613514 1.45168 0
M  V30 3272 C 311.331 -1.7354 1.56225 0
M  V30 3273 C 312.312 -1.64981 0.41414 0
M  V30 3274 O 313.497 -1.83472 0.636526 0
M  V30 3275 C 310.627 -3.12128 1.52295 0
M  V30 3276 C 309.581 -3.35491 2.65762 0
M  V30 3277 C 308.907 -4.74291 2.46885 0
M  V30 3278 C 310.207 -3.26325 4.0781 0
M  V30 3279 H 311.901 -1.64543 2.50132 0
M  V30 3280 H 309.447 -0.790185 1.20383 0
M  V30 3281 H 311.4 -3.90404 1.58628 0
M  V30 3282 H 310.124 -3.2195 0.549139 0
M  V30 3283 H 308.783 -2.59603 2.58847 0
M  V30 3284 H 308.431 -4.80839 1.47657 0
M  V30 3285 H 308.131 -4.9088 3.22972 0
M  V30 3286 H 309.655 -5.54775 2.55063 0
M  V30 3287 H 311.069 -3.94483 4.16 0
M  V30 3288 H 309.466 -3.54445 4.8424 0
M  V30 3289 H 310.536 -2.23855 4.30136 0
M  V30 3290 N 311.879 -1.3236 -0.855495 0
M  V30 3291 C 313.119 -1.24187 -1.62348 0
M  V30 3292 C 313.483 0.193597 -1.91021 0
M  V30 3293 O 314.684 0.39904 -2.65822 0
M  V30 3294 C 312.955 -2.07661 -2.90881 0
M  V30 3295 S 314.514 -2.16505 -3.81669 0
M  V30 3296 H 311.332 -0.442076 -0.556857 0
M  V30 3297 H 313.934 -1.67198 -1.01317 0
M  V30 3298 H 312.638 -3.11018 -2.67761 0
M  V30 3299 H 312.169 -1.65425 -3.56929 0
M  V30 3300 H 314.184 -1.31394 -4.78487 0
M  V30 3301 N 313.357 1.07166 -1.15556 0
M  V30 3302 C 314.605 1.79443 -0.929764 0
M  V30 3303 C 314.926 1.87246 0.544414 0
M  V30 3304 O 314.196 1.37473 1.39564 0
M  V30 3305 H 312.776 0.664625 -0.341003 0
M  V30 3306 H 315.438 1.29499 -1.45657 0
M  V30 3307 H 314.534 2.81832 -1.34079 0
M  V30 3308 N 314.835 0.952656 1.25548 0
M  V30 3309 C 315.783 0.462354 2.27958 0
M  V30 3310 C 316.777 -0.46634 1.62855 0
M  V30 3311 O 317.983 -0.343287 1.76696 0
M  V30 3312 H 314.358 0.13101 0.7405 0
M  V30 3313 H 316.329 1.33839 2.66702 0
M  V30 3314 C 315.078 -0.24628 3.46827 0
M  V30 3315 H 314.401 0.459192 3.97154 0
M  V30 3316 H 315.841 -0.553393 4.20373 0
M  V30 3317 C 314.3 -1.4681 3.0323 0
M  V30 3318 O 314.83 -2.56591 3.09069 0
M  V30 3319 N 313.036 -1.32874 2.58443 0
M  V30 3320 H 312.583 -0.435536 2.53891 0
M  V30 3321 H 312.541 -2.14742 2.29637 0
M  V30 3322 N 316.313 -1.40141 0.720998 0
M  V30 3323 C 317.724 -1.83678 0.334553 0
M  V30 3324 C 318.075 -1.6027 -1.13173 0
M  V30 3325 O 317.2 -1.08643 -1.87152 0
M  V30 3326 C 317.795 -3.33437 0.600437 0
M  V30 3327 C 316.354 -3.75447 0.267642 0
M  V30 3328 C 315.501 -2.63296 0.870097 0
M  V30 3329 H 318.452 -1.29331 0.919732 0
M  V30 3330 H 318.473 -3.80269 -0.132517 0
M  V30 3331 H 317.985 -3.50442 1.66768 0
M  V30 3332 H 316.086 -3.64035 -0.794329 0
M  V30 3333 H 316.199 -4.73344 0.74042 0
M  V30 3334 H 314.563 -2.52954 0.297739 0
M  V30 3335 H 315.346 -2.83112 1.94172 0
M  V30 3336 N 317.792 -0.46758 -1.50504 0
M  V30 3337 C 318.724 0.364655 -2.26281 0
M  V30 3338 C 319.737 0.960151 -1.31472 0
M  V30 3339 O 320.926 0.849153 -1.57008 0
M  V30 3340 C 318.026 1.52509 -3.02645 0
M  V30 3341 C 317.199 1.04302 -4.24782 0
M  V30 3342 C 316.258 2.07709 -4.8347 0
M  V30 3343 O 315.284 1.65913 -5.44483 0
M  V30 3344 N 316.486 3.40485 -4.70159 0
M  V30 3345 H 319.251 -0.28495 -2.98342 0
M  V30 3346 H 316.812 -0.298163 -1.59131 0
M  V30 3347 H 318.804 2.21371 -3.38787 0
M  V30 3348 H 317.374 2.07945 -2.33404 0
M  V30 3349 H 316.594 0.180393 -3.93787 0
M  V30 3350 H 317.882 0.698798 -5.03978 0
M  V30 3351 H 317.28 3.77155 -4.21629 0
M  V30 3352 H 315.837 4.05156 -5.1058 0
M  V30 3353 N 319.27 1.56325 -0.20005 0
M  V30 3354 C 320.203 2.15234 0.758267 0
M  V30 3355 C 321.181 1.09046 1.20614 0
M  V30 3356 O 322.365 1.37186 1.29276 0
M  V30 3357 C 319.492 2.71524 2.02466 0
M  V30 3358 C 318.538 3.90345 1.71852 0
M  V30 3359 S 319.371 5.28513 0.862249 0
M  V30 3360 C 320.527 5.88227 2.13868 0
M  V30 3361 H 320.76 2.96183 0.2575 0
M  V30 3362 H 318.293 1.54393 0.0150099 0
M  V30 3363 H 320.251 3.04598 2.75191 0
M  V30 3364 H 318.912 1.90607 2.49655 0
M  V30 3365 H 318.105 4.28158 2.65888 0
M  V30 3366 H 317.707 3.58306 1.07205 0
M  V30 3367 H 319.999 6.02891 3.09076 0
M  V30 3368 H 320.942 6.84714 1.80479 0
M  V30 3369 H 321.35 5.16874 2.2694 0
M  V30 3370 N 320.748 -0.0735177 1.57428 0
M  V30 3371 C 321.994 -0.774145 1.87443 0
M  V30 3372 C 322.327 -1.77311 0.792103 0
M  V30 3373 O 321.602 -1.93492 -0.197793 0
M  V30 3374 C 321.885 -1.48367 3.28115 0
M  V30 3375 C 321.738 -0.501227 4.46999 0
M  V30 3376 C 323.057 -2.429 3.66998 0
M  V30 3377 H 320.176 -0.279971 0.681752 0
M  V30 3378 H 322.818 -0.0373616 1.89963 0
M  V30 3379 H 320.968 -2.11171 3.26097 0
M  V30 3380 H 322.64 0.121468 4.6114 0
M  V30 3381 H 320.883 0.183593 4.33411 0
M  V30 3382 H 321.554 -1.03526 5.42205 0
M  V30 3383 H 324.03 -1.90175 3.70098 0
M  V30 3384 H 322.906 -2.89549 4.66318 0
M  V30 3385 H 323.167 -3.27628 2.96837 0
M  V30 3386 N 322.226 -1.5378 -0.344866 0
M  V30 3387 C 323.642 -1.44015 -0.687888 0
M  V30 3388 C 323.842 -0.595834 -1.92489 0
M  V30 3389 O 322.898 -0.0863064 -2.52352 0
M  V30 3390 C 324.211 -2.87481 -0.881758 0
M  V30 3391 C 325.759 -2.97247 -0.980459 0
M  V30 3392 C 326.234 -4.41819 -1.20665 0
M  V30 3393 N 327.725 -4.45339 -1.27389 0
M  V30 3394 C 328.46 -5.54333 -1.46639 0
M  V30 3395 N 327.956 -6.73335 -1.63071 0
M  V30 3396 N 329.749 -5.41944 -1.49176 0
M  V30 3397 H 321.9 -2.07169 0.468475 0
M  V30 3398 H 324.163 -0.93643 0.147655 0
M  V30 3399 H 323.869 -3.51672 -0.0443444 0
M  V30 3400 H 323.743 -3.32352 -1.78388 0
M  V30 3401 H 326.13 -2.33197 -1.8084 0
M  V30 3402 H 326.211 -2.5574 -0.0552713 0
M  V30 3403 H 325.855 -5.06449 -0.383652 0
M  V30 3404 H 325.785 -4.80917 -2.14539 0
M  V30 3405 H 328.276 -3.59585 -1.1622 0
M  V30 3406 H 328.589 -7.52165 -1.77391 0
M  V30 3407 H 326.934 -6.76282 -1.60209 0
M  V30 3408 H 330.125 -4.47932 -1.3592 0
M  V30 3409 H 330.298 -6.26946 -1.63837 0
M  V30 3410 N 323.704 0.605807 -1.45491 0
M  V30 3411 C 324.981 1.36522 -1.40075 0
M  V30 3412 C 325.361 2.10976 -0.0722744 0
M  V30 3413 O 324.709 2.08007 0.945808 0
M  V30 3414 C 324.919 2.31056 -2.61561 0
M  V30 3415 C 326.267 2.93608 -3.06724 0
M  V30 3416 O 327.291 2.41376 -2.61946 0
M  V30 3417 O 326.15 3.88421 -3.84437 0
M  V30 3418 H 323.244 0.612248 -0.555951 0
M  V30 3419 H 325.79 0.628747 -1.57623 0
M  V30 3420 H 324.562 1.75311 -3.49831 0
M  V30 3421 H 324.185 3.12081 -2.46356 0
M  V30 3422 N 325.182 1.32811 0.848464 0
M  V30 3423 C 326.41 1.26739 1.63538 0
M  V30 3424 C 326.825 -0.163484 1.88091 0
M  V30 3425 O 326.182 -1.10258 1.45429 0
M  V30 3426 C 326.233 2.03013 2.99112 0
M  V30 3427 O 325.954 3.40518 2.75643 0
M  V30 3428 C 327.455 2.04038 3.93552 0
M  V30 3429 H 324.675 0.437024 0.509167 0
M  V30 3430 H 327.219 1.75033 1.05753 0
M  V30 3431 H 325.374 1.58426 3.53525 0
M  V30 3432 H 325.788 3.79635 3.61908 0
M  V30 3433 H 327.262 2.61877 4.85926 0
M  V30 3434 H 327.739 1.0282 4.26995 0
M  V30 3435 H 328.345 2.486 3.45077 0
M  V30 3436 N 326.66 -1.06551 1.16123 0
M  V30 3437 C 327.592 -2.13908 0.823171 0
M  V30 3438 C 328.605 -1.61926 -0.16843 0
M  V30 3439 O 329.794 -1.78412 0.055962 0
M  V30 3440 C 326.894 -3.38283 0.204424 0
M  V30 3441 C 326.067 -4.19589 1.23548 0
M  V30 3442 C 325.126 -5.2233 0.637011 0
M  V30 3443 O 324.152 -5.54034 1.30516 0
M  V30 3444 N 325.354 -5.77621 -0.577474 0
M  V30 3445 H 328.119 -2.43508 1.74711 0
M  V30 3446 H 325.68 -1.2253 1.05821 0
M  V30 3447 H 327.672 -4.0416 -0.208909 0
M  V30 3448 H 326.242 -3.06329 -0.623012 0
M  V30 3449 H 325.462 -3.49406 1.82507 0
M  V30 3450 H 326.75 -4.70718 1.93137 0
M  V30 3451 H 326.148 -5.54125 -1.13853 0
M  V30 3452 H 324.705 -6.45087 -0.933053 0
M  V30 3453 N 328.138 -0.959301 -1.25041 0
M  V30 3454 C 329.07 -0.440543 -2.24926 0
M  V30 3455 C 330.083 0.446131 -1.56568 0
M  V30 3456 O 331.272 0.253657 -1.76689 0
M  V30 3457 C 328.372 0.38412 -3.36716 0
M  V30 3458 C 327.545 -0.490658 -4.34639 0
M  V30 3459 C 326.604 0.276587 -5.25473 0
M  V30 3460 O 325.63 -0.326614 -5.68262 0
M  V30 3461 N 326.832 1.56844 -5.5891 0
M  V30 3462 H 329.597 -1.29931 -2.70071 0
M  V30 3463 H 327.158 -0.830181 -1.38995 0
M  V30 3464 H 329.15 0.905228 -3.94446 0
M  V30 3465 H 327.72 1.14377 -2.90924 0
M  V30 3466 H 326.94 -1.19282 -3.7572 0
M  V30 3467 H 328.228 -1.08756 -4.97041 0
M  V30 3468 H 327.626 2.08036 -5.26059 0
M  V30 3469 H 326.183 2.03541 -6.19205 0
M  V30 3470 N 329.616 1.39756 -0.72842 0
M  V30 3471 C 330.546 2.33289 -0.0991354 0
M  V30 3472 C 331.527 1.53568 0.731489 0
M  V30 3473 O 332.712 1.81987 0.677807 0
M  V30 3474 C 329.842 3.3763 0.813834 0
M  V30 3475 C 328.796 4.2791 0.0878663 0
M  V30 3476 C 328.122 5.22894 1.11741 0
M  V30 3477 C 329.422 5.11314 -1.06563 0
M  V30 3478 H 331.116 2.86163 -0.880408 0
M  V30 3479 H 328.662 1.37591 -0.424819 0
M  V30 3480 H 330.615 4.0201 1.26355 0
M  V30 3481 H 329.339 2.83181 1.62715 0
M  V30 3482 H 327.998 3.65 -0.342159 0
M  V30 3483 H 327.646 4.64744 1.92412 0
M  V30 3484 H 327.346 5.84143 0.636477 0
M  V30 3485 H 328.87 5.90151 1.56697 0
M  V30 3486 H 330.284 5.69076 -0.694671 0
M  V30 3487 H 328.681 5.81671 -1.47577 0
M  V30 3488 H 329.751 4.46534 -1.89038 0
M  V30 3489 N 331.094 0.475555 1.50254 0
M  V30 3490 C 332.024 -0.30611 2.31485 0
M  V30 3491 C 333.005 -0.986228 1.38591 0
M  V30 3492 O 334.19 -0.982541 1.67511 0
M  V30 3493 C 331.32 -1.38588 3.1845 0
M  V30 3494 C 330.274 -0.827115 4.19932 0
M  V30 3495 C 329.6 -2.00551 4.95665 0
M  V30 3496 C 330.9 0.16463 5.2204 0
M  V30 3497 H 332.594 0.371866 2.97082 0
M  V30 3498 H 330.14 0.180282 1.42867 0
M  V30 3499 H 332.093 -1.94023 3.74076 0
M  V30 3500 H 330.817 -2.09269 2.50747 0
M  V30 3501 H 329.476 -0.294702 3.65414 0
M  V30 3502 H 329.124 -2.6994 4.2443 0
M  V30 3503 H 328.824 -1.63784 5.64313 0
M  V30 3504 H 330.348 -2.56468 5.54127 0
M  V30 3505 H 331.762 -0.300699 5.72511 0
M  V30 3506 H 330.159 0.446813 5.98434 0
M  V30 3507 H 331.229 1.08905 4.72512 0
M  V30 3508 N 332.573 -1.56217 0.208337 0
M  V30 3509 C 333.52 -2.19699 -0.707192 0
M  V30 3510 C 334.49 -1.14836 -1.20008 0
M  V30 3511 O 335.675 -1.4314 -1.26157 0
M  V30 3512 C 332.815 -2.87061 -1.91546 0
M  V30 3513 C 331.928 -4.06483 -1.46271 0
M  V30 3514 C 331.063 -4.61665 -2.62752 0
M  V30 3515 C 330.102 -5.73417 -2.14147 0
M  V30 3516 N 329.239 -6.22948 -3.23853 0
M  V30 3517 H 334.079 -2.97575 -0.159111 0
M  V30 3518 H 331.616 -1.46948 -0.0667874 0
M  V30 3519 H 333.574 -3.24294 -2.62468 0
M  V30 3520 H 332.204 -2.11725 -2.43664 0
M  V30 3521 H 331.256 -3.74825 -0.648886 0
M  V30 3522 H 332.568 -4.87271 -1.06622 0
M  V30 3523 H 331.722 -5.01272 -3.41776 0
M  V30 3524 H 330.461 -3.80013 -3.05682 0
M  V30 3525 H 329.466 -5.33326 -1.33581 0
M  V30 3526 H 330.691 -6.56897 -1.72232 0
M  V30 3527 H 328.637 -5.44213 -3.6629 0
M  V30 3528 H 328.554 -6.98823 -2.88414 0
M  V30 3529 H 329.822 -6.6721 -4.03052 0
M  V30 3530 N 334.051 0.0651679 -1.57465 0
M  V30 3531 C 334.961 1.09448 -2.07505 0
M  V30 3532 C 335.977 1.41974 -1.00595 0
M  V30 3533 O 337.153 1.52018 -1.32107 0
M  V30 3534 C 334.218 2.38689 -2.51453 0
M  V30 3535 C 333.279 2.13073 -3.72691 0
M  V30 3536 C 332.512 3.36152 -4.14533 0
M  V30 3537 O 332.735 4.45517 -3.56189 0
M  V30 3538 O 331.669 3.23974 -5.07272 0
M  V30 3539 H 335.495 0.69935 -2.95538 0
M  V30 3540 H 333.08 0.279752 -1.46757 0
M  V30 3541 H 334.962 3.14736 -2.80212 0
M  V30 3542 H 333.637 2.77568 -1.66546 0
M  V30 3543 H 332.544 1.34709 -3.49005 0
M  V30 3544 H 333.877 1.79071 -4.5847 0
M  V30 3545 N 335.529 1.53961 0.336706 0
M  V30 3546 C 336.757 1.75483 1.09605 0
M  V30 3547 C 337.172 0.4972 1.82136 0
M  V30 3548 O 336.529 -0.53149 1.74589 0
M  V30 3549 C 336.58 2.93943 2.10428 0
M  V30 3550 O 336.301 4.14842 1.40846 0
M  V30 3551 C 337.802 3.27571 2.98684 0
M  V30 3552 H 335.022 0.586166 0.326574 0
M  V30 3553 H 337.566 2.00808 0.38683 0
M  V30 3554 H 335.721 2.70929 2.76905 0
M  V30 3555 H 336.135 4.81383 2.08255 0
M  V30 3556 H 337.609 4.13791 3.6535 0
M  V30 3557 H 338.086 2.44168 3.65074 0
M  V30 3558 H 338.692 3.52615 2.37787 0
M  V30 3559 N 337.007 -0.598083 1.45811 0
M  V30 3560 C 338.423 -0.919847 1.30426 0
M  V30 3561 C 338.623 -1.99759 0.264303 0
M  V30 3562 O 337.679 -2.50221 -0.338472 0
M  V30 3563 C 338.992 -1.35176 2.68603 0
M  V30 3564 C 340.54 -1.46546 2.76574 0
M  V30 3565 C 341.015 -1.9311 4.15298 0
M  V30 3566 N 342.506 -2.00328 4.1764 0
M  V30 3567 C 343.241 -2.37599 5.21856 0
M  V30 3568 N 342.737 -2.73771 6.36413 0
M  V30 3569 N 344.53 -2.38021 5.09218 0
M  V30 3570 H 336.681 0.114111 2.12093 0
M  V30 3571 H 338.944 -0.0116121 0.947929 0
M  V30 3572 H 338.65 -0.633969 3.45939 0
M  V30 3573 H 338.524 -2.3164 2.97696 0
M  V30 3574 H 340.911 -2.17415 1.99537 0
M  V30 3575 H 340.992 -0.483727 2.51185 0
M  V30 3576 H 340.636 -1.22824 4.92825 0
M  V30 3577 H 340.566 -2.92213 4.38086 0
M  V30 3578 H 343.057 -1.74925 3.34977 0
M  V30 3579 H 343.37 -3.0112 7.11721 0
M  V30 3580 H 341.715 -2.71445 6.39799 0
M  V30 3581 H 344.906 -2.09174 4.18765 0
M  V30 3582 H 345.079 -2.66741 5.90554 0
M  V30 3583 N 338.485 -1.33259 -0.841409 0
M  V30 3584 C 339.417 -1.19136 -1.95804 0
M  V30 3585 C 340.43 -0.122965 -1.62335 0
M  V30 3586 O 341.619 -0.373154 -1.74556 0
M  V30 3587 C 338.719 -0.804268 -3.29218 0
M  V30 3588 C 337.892 -1.96376 -3.90839 0
M  V30 3589 C 336.951 -1.55806 -5.02604 0
M  V30 3590 O 335.977 -2.27203 -5.21888 0
M  V30 3591 N 337.179 -0.461609 -5.78662 0
M  V30 3592 H 339.944 -2.15326 -2.08458 0
M  V30 3593 H 337.505 -1.25971 -1.017 0
M  V30 3594 H 339.497 -0.51501 -4.0141 0
M  V30 3595 H 338.067 0.0668809 -3.12528 0
M  V30 3596 H 337.287 -2.41879 -3.11269 0
M  V30 3597 H 338.575 -2.73966 -4.28742 0
M  V30 3598 H 337.973 0.132343 -5.65545 0
M  V30 3599 H 336.53 -0.232013 -6.51387 0
M  V30 3600 N 339.963 1.05934 -1.16686 0
M  V30 3601 C 340.896 2.1295 -0.820225 0
M  V30 3602 C 341.874 1.61242 0.209722 0
M  V30 3603 O 343.058 1.88271 0.0929688 0
M  V30 3604 C 340.185 3.3797 -0.22223 0
M  V30 3605 C 339.231 4.08488 -1.22637 0
M  V30 3606 S 340.064 4.58015 -2.77457 0
M  V30 3607 C 341.22 5.86292 -2.19117 0
M  V30 3608 H 341.453 2.42025 -1.72659 0
M  V30 3609 H 338.986 1.18423 -0.990722 0
M  V30 3610 H 340.944 4.10335 0.116322 0
M  V30 3611 H 339.605 3.07045 0.66196 0
M  V30 3612 H 338.798 4.98291 -0.756455 0
M  V30 3613 H 338.4 3.42154 -1.51019 0
M  V30 3614 H 340.692 6.59246 -1.56209 0
M  V30 3615 H 341.635 6.38019 -3.07144 0
M  V30 3616 H 342.043 5.40497 -1.62858 0
M  V30 3617 N 341.441 0.965919 1.2453 0
M  V30 3618 C 342.669 0.644385 1.96609 0
M  V30 3619 C 343.084 -0.785823 1.71669 0
M  V30 3620 O 342.441 -1.52703 0.999399 0
M  V30 3621 C 342.492 0.907375 3.49927 0
M  V30 3622 O 342.213 2.28136 3.74013 0
M  V30 3623 C 343.714 0.599784 4.39224 0
M  V30 3624 H 340.934 0.240588 0.626385 0
M  V30 3625 H 343.478 1.29337 1.58405 0
M  V30 3626 H 341.633 0.304631 3.862 0
M  V30 3627 H 342.047 2.36002 4.68405 0
M  V30 3628 H 343.521 0.834263 5.45659 0
M  V30 3629 H 343.998 -0.465921 4.36722 0
M  V30 3630 H 344.604 1.18235 4.08535 0
M  V30 3631 N 342.919 -1.39368 0.735821 0
M  V30 3632 C 343.866 -2.30599 0.0963825 0
M  V30 3633 C 344.836 -1.49257 -0.728794 0
M  V30 3634 O 346.021 -1.77941 -0.688588 0
M  V30 3635 C 343.161 -3.35596 -0.804305 0
M  V30 3636 C 342.274 -4.31987 0.0335761 0
M  V30 3637 C 341.409 -5.24053 -0.868461 0
M  V30 3638 C 340.448 -6.12095 -0.0258776 0
M  V30 3639 N 339.585 -6.96514 -0.883893 0
M  V30 3640 H 344.425 -2.8471 0.880002 0
M  V30 3641 H 341.962 -1.40188 0.445619 0
M  V30 3642 H 343.92 -3.95062 -1.34096 0
M  V30 3643 H 342.55 -2.82938 -1.55389 0
M  V30 3644 H 341.602 -3.74133 0.68766 0
M  V30 3645 H 342.914 -4.94074 0.685036 0
M  V30 3646 H 342.068 -5.88549 -1.47293 0
M  V30 3647 H 340.807 -4.62289 -1.5537 0
M  V30 3648 H 339.812 -5.4661 0.591386 0
M  V30 3649 H 341.037 -6.75923 0.656156 0
M  V30 3650 H 338.983 -6.37318 -1.55441 0
M  V30 3651 H 338.9 -7.55448 -0.288931 0
M  V30 3652 H 340.168 -7.65439 -1.4739 0
M  V30 3653 N 344.397 -0.483516 -1.5 0
M  V30 3654 C 345.347 0.32306 -2.257 0
M  V30 3655 C 346.331 0.950755 -1.29805 0
M  V30 3656 O 347.523 0.861247 -1.54634 0
M  V30 3657 C 344.652 1.39724 -3.13579 0
M  V30 3658 C 343.738 0.776663 -4.16928 0
M  V30 3659 N 344.129 -0.1104 -5.0568 0
M  V30 3660 C 342.427 1.03922 -4.33724 0
M  V30 3661 C 343.128 -0.46387 -5.79848 0
M  V30 3662 N 342.104 0.163987 -5.43353 0
M  V30 3663 H 345.906 -0.360086 -2.91686 0
M  V30 3664 H 343.42 -0.298456 -1.59634 0
M  V30 3665 H 345.417 1.98837 -3.66428 0
M  V30 3666 H 344.077 2.08225 -2.49143 0
M  V30 3667 H 345.088 -0.480069 -5.1567 0
M  V30 3668 H 341.765 1.71829 -3.80501 0
M  V30 3669 H 343.155 -1.18854 -6.61304 0
M  V30 3670 N 345.875 1.56104 -0.216619 0
M  V30 3671 C 346.805 2.23063 0.690296 0
M  V30 3672 C 347.786 1.20072 1.20485 0
M  V30 3673 O 348.971 1.48643 1.24976 0
M  V30 3674 C 346.101 2.90672 1.90072 0
M  V30 3675 C 345.055 4.00092 1.5202 0
M  V30 3676 C 344.381 4.54972 2.80899 0
M  V30 3677 C 345.681 5.17398 0.71391 0
M  V30 3678 H 347.375 2.99109 0.132038 0
M  V30 3679 H 344.921 1.43866 0.0620664 0
M  V30 3680 H 346.874 3.36204 2.54057 0
M  V30 3681 H 345.598 2.12066 2.48386 0
M  V30 3682 H 344.257 3.55283 0.903839 0
M  V30 3683 H 343.905 3.73102 3.37348 0
M  V30 3684 H 343.605 5.28817 2.56176 0
M  V30 3685 H 345.129 5.0322 3.45836 0
M  V30 3686 H 346.543 5.59342 1.25735 0
M  V30 3687 H 344.94 5.97444 0.563951 0
M  V30 3688 H 346.01 4.84088 -0.280527 0
M  V30 3689 N 347.353 -0.0568162 1.57498 0
M  V30 3690 C 348.769 -0.411933 1.54192 0
M  V30 3691 C 348.969 -1.78287 0.938942 0
M  V30 3692 O 348.025 -2.46483 0.547919 0
M  V30 3693 C 349.338 -0.339244 2.9878 0
M  V30 3694 C 350.886 -0.418348 3.10192 0
M  V30 3695 C 351.361 -0.375407 4.56459 0
M  V30 3696 N 352.852 -0.435038 4.61153 0
M  V30 3697 C 353.587 -0.424265 5.71828 0
M  V30 3698 N 353.083 -0.367418 6.91825 0
M  V30 3699 N 354.876 -0.471938 5.60115 0
M  V30 3700 H 347.027 0.840684 1.95055 0
M  V30 3701 H 349.29 0.316987 0.893433 0
M  V30 3702 H 348.996 0.601742 3.46514 0
M  V30 3703 H 348.87 -1.14371 3.59443 0
M  V30 3704 H 351.257 -1.34976 2.62422 0
M  V30 3705 H 351.338 0.414962 2.52412 0
M  V30 3706 H 350.982 0.552219 5.04889 0
M  V30 3707 H 350.912 -1.22645 5.12119 0
M  V30 3708 H 353.403 -0.482612 3.74806 0
M  V30 3709 H 353.716 -0.363535 7.71944 0
M  V30 3710 H 352.061 -0.333879 6.94198 0
M  V30 3711 H 355.252 -0.514145 4.65268 0
M  V30 3712 H 355.425 -0.460073 6.46365 0
M  V30 3713 N 348.832 -1.54138 -0.328536 0
M  V30 3714 C 350.248 -1.44736 -0.672574 0
M  V30 3715 C 350.448 -0.616217 -1.91846 0
M  V30 3716 O 349.504 -0.113067 -2.52247 0
M  V30 3717 C 350.817 -2.884 -0.851217 0
M  V30 3718 C 352.365 -2.98271 -0.948877 0
M  V30 3719 C 352.84 -4.43074 -1.15973 0
M  V30 3720 N 354.331 -4.46665 -1.22658 0
M  V30 3721 C 355.066 -5.55857 -1.40751 0
M  V30 3722 N 354.562 -6.75026 -1.5592 0
M  V30 3723 N 356.355 -5.43495 -1.4342 0
M  V30 3724 H 348.506 -2.06661 0.490421 0
M  V30 3725 H 350.769 -0.934812 0.157579 0
M  V30 3726 H 350.475 -3.51699 -0.00704236 0
M  V30 3727 H 350.349 -3.34225 -1.74853 0
M  V30 3728 H 352.736 -2.35102 -1.78356 0
M  V30 3729 H 352.817 -2.55785 -0.0281435 0
M  V30 3730 H 352.461 -5.06827 -0.329915 0
M  V30 3731 H 352.391 -4.83165 -2.09426 0
M  V30 3732 H 354.882 -3.60797 -1.124 0
M  V30 3733 H 355.195 -7.54004 -1.69404 0
M  V30 3734 H 353.54 -6.77944 -1.53027 0
M  V30 3735 H 356.731 -4.49349 -1.31162 0
M  V30 3736 H 356.904 -6.28649 -1.57178 0
M  V30 3737 N 350.31 0.590341 -1.46126 0
M  V30 3738 C 351.726 0.912917 -1.30912 0
M  V30 3739 C 351.926 1.99616 -0.274893 0
M  V30 3740 O 350.982 2.50397 0.325197 0
M  V30 3741 C 352.295 1.3375 -2.69317 0
M  V30 3742 C 353.843 1.45077 -2.77348 0
M  V30 3743 C 354.318 1.90904 -4.16317 0
M  V30 3744 N 355.809 1.9811 -4.18696 0
M  V30 3745 C 356.544 2.34828 -5.23109 0
M  V30 3746 N 356.04 2.70393 -6.37856 0
M  V30 3747 N 357.833 2.35317 -5.10473 0
M  V30 3748 H 349.984 -0.125358 -2.1203 0
M  V30 3749 H 352.247 0.00658481 -0.947977 0
M  V30 3750 H 351.953 0.615614 -3.4627 0
M  V30 3751 H 351.827 2.30058 -2.9892 0
M  V30 3752 H 354.214 2.16353 -2.00687 0
M  V30 3753 H 354.295 0.4704 -2.51438 0
M  V30 3754 H 353.939 1.20209 -4.9347 0
M  V30 3755 H 353.869 2.89886 -4.39629 0
M  V30 3756 H 356.36 1.73146 -3.359 0
M  V30 3757 H 356.673 2.97341 -7.13308 0
M  V30 3758 H 355.018 2.68048 -6.41229 0
M  V30 3759 H 358.209 2.0695 -4.19868 0
M  V30 3760 H 358.382 2.63605 -5.9196 0
M  V30 3761 N 351.788 1.33704 0.83433 0
M  V30 3762 C 353.199 1.22813 1.4062 0
M  V30 3763 C 353.55 -0.151107 1.95617 0
M  V30 3764 O 352.675 -1.05092 1.89168 0
M  V30 3765 C 353.27 2.22355 2.55624 0
M  V30 3766 C 351.829 2.1529 3.08751 0
M  V30 3767 C 350.976 2.09589 1.8157 0
M  V30 3768 H 353.927 1.45236 0.639702 0
M  V30 3769 H 353.948 1.83391 3.33389 0
M  V30 3770 H 353.46 3.22728 2.15566 0
M  V30 3771 H 351.561 1.18235 3.53343 0
M  V30 3772 H 351.674 3.06038 3.68616 0
M  V30 3773 H 350.038 1.55134 2.02004 0
M  V30 3774 H 350.821 3.11777 1.43701 0
M  V30 3775 N 353.266 -1.05314 1.17247 0
M  V30 3776 C 354.514 -1.77941 0.958194 0
M  V30 3777 C 354.835 -1.88089 -0.514556 0
M  V30 3778 O 354.105 -1.39676 -1.37359 0
M  V30 3779 H 352.685 -0.659116 0.351533 0
M  V30 3780 H 355.347 -1.27166 1.47699 0
M  V30 3781 H 354.443 -2.79663 1.38546 0
M  V30 3782 N 354.744 -0.972509 -1.24016 0
M  V30 3783 C 355.694 -0.477561 -2.22942 0
M  V30 3784 C 356.678 0.44308 -1.54679 0
M  V30 3785 O 357.87 0.273219 -1.74879 0
M  V30 3786 C 354.999 0.226348 -3.42553 0
M  V30 3787 C 354.085 -0.713403 -4.18057 0
M  V30 3788 N 354.476 -1.8527 -4.70647 0
M  V30 3789 C 352.774 -0.525145 -4.42898 0
M  V30 3790 C 353.475 -2.44089 -5.28011 0
M  V30 3791 N 352.451 -1.72556 -5.15486 0
M  V30 3792 H 356.253 -1.34678 -2.61226 0
M  V30 3793 H 353.767 -0.832196 -1.39457 0
M  V30 3794 H 355.764 0.598184 -4.12586 0
M  V30 3795 H 354.424 1.09195 -3.05788 0
M  V30 3796 H 355.435 -2.2341 -4.67235 0
M  V30 3797 H 352.112 0.296096 -4.16449 0
M  V30 3798 H 353.502 -3.40259 -5.79374 0
M  V30 3799 N 356.222 1.38976 -0.743202 0
M  V30 3800 C 357.155 2.28128 -0.0572165 0
M  V30 3801 C 358.133 1.44827 0.739182 0
M  V30 3802 O 359.317 1.74207 0.720009 0
M  V30 3803 C 356.444 3.25796 0.926001 0
M  V30 3804 C 355.49 4.25947 0.217099 0
M  V30 3805 S 356.323 5.24604 -1.07477 0
M  V30 3806 C 357.479 6.25829 -0.0943545 0
M  V30 3807 H 357.712 2.85961 -0.813246 0
M  V30 3808 H 355.245 1.44822 -0.535341 0
M  V30 3809 H 357.203 3.82583 1.48797 0
M  V30 3810 H 355.864 2.66966 1.65493 0
M  V30 3811 H 355.057 4.94746 0.961372 0
M  V30 3812 H 354.659 3.73002 -0.273059 0
M  V30 3813 H 356.951 6.73411 0.743239 0
M  V30 3814 H 357.894 7.0412 -0.749713 0
M  V30 3815 H 358.302 5.63797 0.281706 0
M  V30 3816 N 357.7 0.491464 1.49741 0
M  V30 3817 C 358.928 -0.0535151 2.06831 0
M  V30 3818 C 359.343 -1.31683 1.35296 0
M  V30 3819 O 358.7 -1.77402 0.42836 0
M  V30 3820 C 358.751 -0.320835 3.60073 0
M  V30 3821 O 358.472 0.892394 4.28915 0
M  V30 3822 C 359.973 -0.910519 4.33848 0
M  V30 3823 H 357.193 0.0161909 0.670805 0
M  V30 3824 H 359.737 0.68609 1.92647 0
M  V30 3825 H 357.892 -1.0104 3.73991 0
M  V30 3826 H 358.306 0.649401 5.20464 0
M  V30 3827 H 359.78 -1.04721 5.41976 0
M  V30 3828 H 360.257 -1.90589 3.95692 0
M  V30 3829 H 360.863 -0.258712 4.24512 0
M  V30 3830 N 359.178 -1.55987 0.224894 0
M  V30 3831 C 360.141 -2.19178 -0.670348 0
M  V30 3832 C 361.141 -1.15461 -1.11917 0
M  V30 3833 O 362.331 -1.40675 -1.02743 0
M  V30 3834 C 359.463 -2.81777 -1.9187 0
M  V30 3835 H 360.656 -2.99662 -0.119364 0
M  V30 3836 H 358.209 -1.5628 -0.0247128 0
M  V30 3837 H 358.944 -2.05172 -2.51147 0
M  V30 3838 H 358.729 -3.57732 -1.60531 0
M  V30 3839 H 360.219 -3.30205 -2.55645 0
M  V30 3840 N 360.656 0.0484629 -1.57525 0
M  V30 3841 C 361.566 1.07241 -2.08654 0
M  V30 3842 C 362.582 1.409 -1.02095 0
M  V30 3843 O 363.758 1.50609 -1.33712 0
M  V30 3844 C 360.823 2.36008 -2.5397 0
M  V30 3845 C 359.884 2.09108 -3.7493 0
M  V30 3846 C 359.117 3.31736 -4.18075 0
M  V30 3847 O 359.34 4.41714 -3.60895 0
M  V30 3848 O 358.274 3.18576 -5.10679 0
M  V30 3849 H 362.1 0.667965 -2.96263 0
M  V30 3850 H 359.685 0.26417 -1.47046 0
M  V30 3851 H 361.567 3.11747 -2.83535 0
M  V30 3852 H 360.242 2.75786 -1.69481 0
M  V30 3853 H 359.149 1.31 -3.50414 0
M  V30 3854 H 360.482 1.74198 -4.60343 0
M  V30 3855 N 362.134 1.5431 0.320358 0
M  V30 3856 C 363.084 1.803 1.39556 0
M  V30 3857 C 364.068 0.659166 1.46778 0
M  V30 3858 O 365.26 0.91926 1.51257 0
M  V30 3859 C 362.389 2.03665 2.76361 0
M  V30 3860 C 361.475 3.24178 2.73439 0
M  V30 3861 N 361.866 4.4516 2.40137 0
M  V30 3862 C 360.164 3.25816 3.04565 0
M  V30 3863 C 360.865 5.27109 2.4603 0
M  V30 3864 N 359.841 4.64368 2.82601 0
M  V30 3865 H 363.643 2.71416 1.12742 0
M  V30 3866 H 361.157 1.53548 0.528856 0
M  V30 3867 H 363.154 2.20425 3.53862 0
M  V30 3868 H 361.814 1.13805 3.04103 0
M  V30 3869 H 362.825 4.72104 2.12927 0
M  V30 3870 H 359.502 2.46001 3.37328 0
M  V30 3871 H 360.892 6.33728 2.23246 0
M  V30 3872 N 363.613 -0.582584 1.46437 0
M  V30 3873 C 364.843 -1.36484 1.55099 0
M  V30 3874 C 365.251 -1.88233 0.191056 0
M  V30 3875 O 364.594 -1.6429 -0.821858 0
M  V30 3876 C 364.656 -2.588 2.49525 0
M  V30 3877 C 364.32 -2.28517 3.95764 0
M  V30 3878 C 365.317 -1.87346 4.84972 0
M  V30 3879 C 363.002 -2.40658 4.40896 0
M  V30 3880 C 364.996 -1.5871 6.17325 0
M  V30 3881 C 362.683 -2.11635 5.73284 0
M  V30 3882 C 363.681 -1.70725 6.61318 0
M  V30 3883 O 363.369 -1.42057 7.91249 0
M  V30 3884 H 363.101 -0.423297 0.527063 0
M  V30 3885 H 365.655 -0.715188 1.92547 0
M  V30 3886 H 363.885 -3.26571 2.07095 0
M  V30 3887 H 365.574 -3.20868 2.48593 0
M  V30 3888 H 366.34 -1.77481 4.5136 0
M  V30 3889 H 362.219 -2.71463 3.72598 0
M  V30 3890 H 365.763 -1.26704 6.85997 0
M  V30 3891 H 361.66 -2.21124 6.06444 0
M  V30 3892 H 362.428 -1.55901 8.03515 0
M  V30 3893 N 365.091 -1.34144 -0.827227 0
M  V30 3894 C 366.337 -1.27455 -1.58515 0
M  V30 3895 C 366.692 0.155271 -1.91772 0
M  V30 3896 O 365.985 1.10042 -1.56848 0
M  V30 3897 C 366.179 -2.09464 -2.89585 0
M  V30 3898 C 366.008 -3.60276 -2.69131 0
M  V30 3899 C 364.778 -4.29565 -2.66087 0
M  V30 3900 C 366.976 -4.54367 -2.40947 0
M  V30 3901 N 364.958 -5.66252 -2.37132 0
M  V30 3902 C 366.329 -5.79027 -2.21648 0
M  V30 3903 C 368.384 -4.43327 -2.26639 0
M  V30 3904 C 367.087 -6.93891 -1.89492 0
M  V30 3905 C 369.113 -5.58019 -1.95878 0
M  V30 3906 C 368.475 -6.81695 -1.774 0
M  V30 3907 H 364.574 -0.521614 -0.582617 0
M  V30 3908 H 367.158 -1.68811 -0.970105 0
M  V30 3909 H 365.329 -1.70411 -3.49019 0
M  V30 3910 H 367.061 -1.94453 -3.54923 0
M  V30 3911 H 363.816 -3.81959 -2.80008 0
M  V30 3912 H 364.24 -6.38338 -2.25507 0
M  V30 3913 H 368.882 -3.48333 -2.39633 0
M  V30 3914 H 366.6 -7.88871 -1.75236 0
M  V30 3915 H 370.186 -5.5142 -1.85546 0
M  V30 3916 H 369.066 -7.68942 -1.53941 0
M  V30 3917 O 366.608 0.965494 -1.29462 0
M  V30 3918 H 367.299 1.59208 -1.10329 0
M  V30 END ATOM
M  V30 BEGIN BOND
M  V30 END BOND
M  V30 END CTAB
M  END
$$$$
