drugbank_target|P28907 ADP-ribosyl cyclase/cyclic ADP-ribose hydrolase 1 (DB09331; DB14811; DB16370)
 OpenBabel12092121023D

  0  0  0     0  0            999 V3000
M  V30 BEGIN CTAB
M  V30 COUNTS 4790 4845 0 0 0
M  V30 BEGIN ATOM
M  V30 1 H -0.908 1.98254 -0.117106 0
M  V30 2 N 0 1.576 0 0
M  V30 3 C 0.933 2.03868 1.02534 0
M  V30 4 C 1.911 0.928543 1.3348 0
M  V30 5 O 3.095 1.19667 1.45644 0
M  V30 6 C 0.222 2.43627 2.35294 0
M  V30 7 C -0.732 3.65373 2.2001 0
M  V30 8 S 0.101 5.13292 1.52614 0
M  V30 9 C 1.257 5.56322 2.86805 0
M  V30 10 H 1.49 2.90518 0.631377 0
M  V30 11 H -0.977 1.52953 0.210867 0
M  V30 12 H 0.981 2.67203 3.11629 0
M  V30 13 H -0.358 1.57376 2.7183 0
M  V30 14 H -1.165 3.90944 3.18086 0
M  V30 15 H -1.563 3.418 1.51819 0
M  V30 16 H 0.729 5.58782 3.83104 0
M  V30 17 H 1.672 6.56266 2.65933 0
M  V30 18 H 2.08 4.83886 2.90714 0
M  V30 19 N 1.4781 -0.272755 1.55222 0
M  V30 20 C 2.4411 -1.32041 1.87344 0
M  V30 21 C 3.4411 -1.42342 0.74803 0
M  V30 22 O 4.6311 -1.41488 1.0162 0
M  V30 23 C 1.7631 -2.70173 2.07893 0
M  V30 24 H 2.9561 -1.04789 2.80997 0
M  V30 25 H 0.5091 -0.51083 1.47717 0
M  V30 26 H 1.2441 -3.02605 1.16622 0
M  V30 27 H 1.0291 -2.64082 2.89833 0
M  V30 28 H 2.5191 -3.45869 2.34017 0
M  V30 29 N 2.9562 -1.48159 -0.537278 0
M  V30 30 C 3.9042 -1.62573 -1.66352 0
M  V30 31 C 4.8982 -0.492366 -1.62087 0
M  V30 32 O 6.1042 -0.670847 -1.67032 0
M  V30 33 H 2.4792 -0.511992 -0.550789 0
M  V30 34 H 4.4502 -2.57176 -1.51337 0
M  V30 35 C 3.1992 -1.67583 -3.04649 0
M  V30 36 H 2.5222 -2.54151 -3.08622 0
M  V30 37 H 3.9622 -1.81713 -3.83088 0
M  V30 38 C 2.4212 -0.413039 -3.34358 0
M  V30 39 O 2.9512 0.477259 -3.98855 0
M  V30 40 N 1.1572 -0.286961 -2.8918 0
M  V30 41 H 0.7042 -1.01241 -2.36871 0
M  V30 42 H 0.6622 0.556963 -3.09427 0
M  V30 43 N 4.4343 0.785586 -1.36625 0
M  V30 44 C 5.6743 1.55678 -1.32453 0
M  V30 45 C 6.0383 1.91769 0.0941089 0
M  V30 46 O 7.2393 2.67536 0.26042 0
M  V30 47 C 5.5103 2.79701 -2.22491 0
M  V30 48 S 7.0693 3.69907 -2.36038 0
M  V30 49 H 3.8873 0.533141 -0.470405 0
M  V30 50 H 6.4893 0.924953 -1.72235 0
M  V30 51 H 5.1933 2.51244 -3.24507 0
M  V30 52 H 4.7243 3.47854 -1.83742 0
M  V30 53 H 6.7393 4.71016 -1.56072 0
M  V30 54 N 5.9124 1.20967 1.01018 0
M  V30 55 C 6.8224 0.980157 2.13143 0
M  V30 56 C 7.8384 -0.0660665 1.73875 0
M  V30 57 O 9.0144 0.122821 2.01025 0
M  V30 58 C 6.0794 0.54216 3.42435 0
M  V30 59 C 5.1404 1.65999 3.95908 0
M  V30 60 C 4.3734 1.2428 5.19028 0
M  V30 61 O 4.5964 0.114196 5.70286 0
M  V30 62 O 3.5304 2.05271 5.65816 0
M  V30 63 H 7.3564 1.91913 2.35379 0
M  V30 64 H 4.9414 0.994099 1.11526 0
M  V30 65 H 6.8234 0.30744 4.20277 0
M  V30 66 H 5.4984 -0.36815 3.216 0
M  V30 67 H 4.4054 1.94906 3.19316 0
M  V30 68 H 5.7384 2.54753 4.21143 0
M  V30 69 N 7.3905 -1.2043 1.01659 0
M  V30 70 C 8.6375 -1.89797 0.705917 0
M  V30 71 C 8.9655 -1.78848 -0.764439 0
M  V30 72 O 8.2205 -1.16694 -1.57102 0
M  V30 73 C 8.5195 -3.40464 1.08714 0
M  V30 74 C 8.1855 -3.71614 2.5537 0
M  V30 75 C 6.8475 -3.79826 2.95441 0
M  V30 76 C 9.1995 -3.85915 3.50313 0
M  V30 77 C 6.5275 -3.99797 4.29394 0
M  V30 78 C 8.8795 -4.07396 4.83954 0
M  V30 79 C 7.5435 -4.13837 5.23732 0
M  V30 80 H 6.8135 -0.694518 0.258313 0
M  V30 81 H 9.4605 -1.42691 1.27717 0
M  V30 82 H 7.7655 -3.89385 0.434309 0
M  V30 83 H 9.4625 -3.92433 0.824461 0
M  V30 84 H 6.0525 -3.65822 2.23321 0
M  V30 85 H 10.2365 -3.78926 3.20513 0
M  V30 86 H 5.4925 -4.03018 4.59768 0
M  V30 87 H 9.6665 -4.17404 5.57447 0
M  V30 88 H 7.2935 -4.29064 6.27541 0
M  V30 89 N 8.8686 -0.792821 -1.36206 0
M  V30 90 C 10.0936 -0.377701 -2.03932 0
M  V30 91 C 10.5186 0.998947 -1.59382 0
M  V30 92 O 9.8766 1.64421 -0.763903 0
M  V30 93 C 9.9246 -0.453635 -3.57735 0
M  V30 94 O 9.0286 0.538151 -4.08874 0
M  V30 95 H 8.3696 -0.159855 -0.644471 0
M  V30 96 H 10.8996 -1.07488 -1.7409 0
M  V30 97 H 10.9096 -0.318464 -4.06755 0
M  V30 98 H 9.5846 -1.45784 -3.89512 0
M  V30 99 H 8.1616 0.364359 -3.71116 0
M  V30 100 N 10.3467 1.47872 -0.545128 0
M  V30 101 C 11.7577 1.86384 -0.108581 0
M  V30 102 C 12.1087 1.45309 1.31832 0
M  V30 103 O 11.2337 0.850641 1.9898 0
M  V30 104 C 11.8287 3.38265 -0.190274 0
M  V30 105 C 10.3877 3.75914 0.191164 0
M  V30 106 C 9.5347 2.71926 -0.543273 0
M  V30 107 H 12.4857 1.39561 -0.755537 0
M  V30 108 H 12.5067 3.75831 0.594217 0
M  V30 109 H 12.0187 3.6813 -1.2289 0
M  V30 110 H 10.1197 3.51665 1.23136 0
M  V30 111 H 10.2327 4.78836 -0.158987 0
M  V30 112 H 8.5967 2.54697 0.0122495 0
M  V30 113 H 9.3797 3.04634 -1.58282 0
M  V30 114 N 11.8248 0.280983 1.55075 0
M  V30 115 C 13.0708 -0.33461 2.00021 0
M  V30 116 C 13.4038 -1.55063 1.16915 0
M  V30 117 O 12.6788 -1.93006 0.240646 0
M  V30 118 C 12.9618 -0.711007 3.53011 0
M  V30 119 C 12.8148 0.512766 4.46868 0
M  V30 120 C 14.1338 -1.54522 4.12081 0
M  V30 121 H 11.2528 -0.120147 0.727141 0
M  V30 122 H 13.8948 0.389097 1.85973 0
M  V30 123 H 12.0448 -1.32761 3.65112 0
M  V30 124 H 13.7168 1.15131 4.46702 0
M  V30 125 H 11.9598 1.14975 4.18286 0
M  V30 126 H 12.6308 0.205556 5.51617 0
M  V30 127 H 15.1068 -1.02442 4.03293 0
M  V30 128 H 13.9828 -1.77739 5.19327 0
M  V30 129 H 14.2438 -2.52813 3.62682 0
M  V30 130 N 13.3029 -1.57598 0.00835791 0
M  V30 131 C 14.5279 -1.95617 -0.689103 0
M  V30 132 C 14.9529 -0.883753 -1.66046 0
M  V30 133 O 14.3109 0.157352 -1.80616 0
M  V30 134 C 14.3589 -3.32736 -1.38994 0
M  V30 135 O 13.4629 -3.27631 -2.50463 0
M  V30 136 H 12.8039 -0.638379 -0.182668 0
M  V30 137 H 15.3339 -2.045 0.064036 0
M  V30 138 H 15.3439 -3.68494 -1.75147 0
M  V30 139 H 14.0189 -4.1034 -0.677778 0
M  V30 140 H 12.5959 -3.03561 -2.16576 0
M  V30 141 N 14.781 0.264519 -1.55364 0
M  V30 142 C 16.029 0.993021 -1.76021 0
M  V30 143 C 16.35 1.86511 -0.569099 0
M  V30 144 O 15.62 1.91438 0.415735 0
M  V30 145 H 14.2 0.369639 -0.649135 0
M  V30 146 H 16.862 0.286707 -1.9278 0
M  V30 147 H 15.958 1.62502 -2.66457 0
M  V30 148 N 16.2591 1.48442 0.529413 0
M  V30 149 C 17.5361 1.46978 1.29062 0
M  V30 150 C 17.9161 0.181769 2.10316 0
M  V30 151 O 17.2641 -0.836481 2.12639 0
M  V30 152 C 17.4741 2.7321 2.17157 0
M  V30 153 C 18.8221 3.21562 2.77278 0
M  V30 154 O 19.8461 2.74131 2.27444 0
M  V30 155 O 18.7051 4.04094 3.67927 0
M  V30 156 H 15.7991 0.587003 0.582543 0
M  V30 157 H 18.3451 1.60676 0.546021 0
M  V30 158 H 17.1171 3.58465 1.56903 0
M  V30 159 H 16.7401 2.62235 2.98862 0
M  V30 160 N 17.7372 -0.778329 1.37039 0
M  V30 161 C 18.6842 -1.89139 1.32269 0
M  V30 162 C 19.6542 -1.65017 0.189387 0
M  V30 163 O 20.8392 -1.87024 0.377693 0
M  V30 164 C 17.9792 -3.26112 1.12894 0
M  V30 165 C 17.0922 -3.62233 2.35396 0
M  V30 166 C 16.2272 -4.8838 2.08946 0
M  V30 167 C 15.2662 -5.17212 3.2735 0
M  V30 168 N 14.4032 -6.34546 3.00492 0
M  V30 169 H 19.2432 -1.92552 2.27437 0
M  V30 170 H 16.7802 -0.941473 1.13025 0
M  V30 171 H 18.7382 -4.05116 0.996835 0
M  V30 172 H 17.3682 -3.22091 0.213758 0
M  V30 173 H 16.4202 -2.78265 2.5937 0
M  V30 174 H 17.7322 -3.79481 3.23721 0
M  V30 175 H 16.8862 -5.75274 1.92729 0
M  V30 176 H 15.6252 -4.73222 1.17949 0
M  V30 177 H 14.6302 -4.28796 3.44113 0
M  V30 178 H 15.8552 -5.34283 4.19188 0
M  V30 179 H 13.8012 -6.20759 2.12118 0
M  V30 180 H 13.7182 -6.52179 3.82358 0
M  V30 181 H 14.9862 -7.24394 2.87879 0
M  V30 182 N 19.2153 -1.21501 -1.00376 0
M  V30 183 C 20.6263 -1.03146 -1.55621 0
M  V30 184 C 20.9773 0.408375 -1.91903 0
M  V30 185 O 20.1023 1.29177 -1.73616 0
M  V30 186 C 20.6973 -1.86612 -2.82775 0
M  V30 187 C 19.2563 -1.72586 -3.34501 0
M  V30 188 C 18.4033 -1.83747 -2.07683 0
M  V30 189 H 21.3543 -1.35505 -0.826081 0
M  V30 190 H 21.3753 -1.3771 -3.54706 0
M  V30 191 H 20.8873 -2.91399 -2.56336 0
M  V30 192 H 18.9883 -0.704877 -3.65872 0
M  V30 193 H 19.1013 -2.54623 -4.05837 0
M  V30 194 H 17.4653 -1.27069 -2.20739 0
M  V30 195 H 18.2483 -2.90044 -1.83655 0
M  V30 196 N 20.6934 1.19889 -1.02296 0
M  V30 197 C 21.9334 1.91125 -0.724602 0
M  V30 198 C 22.2974 1.77464 0.732835 0
M  V30 199 O 23.4984 2.43241 1.144 0
M  V30 200 C 21.7694 3.38187 -1.15604 0
M  V30 201 S 23.3284 4.27702 -0.980621 0
M  V30 202 H 20.1464 0.66018 -0.263976 0
M  V30 203 H 22.7484 1.44978 -1.31155 0
M  V30 204 H 21.4524 3.45653 -2.21251 0
M  V30 205 H 20.9834 3.89363 -0.562131 0
M  V30 206 H 22.9984 4.96073 0.112225 0
M  V30 207 N 22.1715 0.800033 1.35784 0
M  V30 208 C 23.4115 0.382891 2.00782 0
M  V30 209 C 23.7755 -1.02891 1.62103 0
M  V30 210 O 24.9765 -1.54771 2.19771 0
M  V30 211 C 23.2475 0.553299 3.53091 0
M  V30 212 S 24.8065 0.225608 4.3822 0
M  V30 213 H 21.6245 0.145737 0.695904 0
M  V30 214 H 24.2265 1.04085 1.65489 0
M  V30 215 H 22.9305 1.58091 3.78729 0
M  V30 216 H 22.4615 -0.120214 3.93216 0
M  V30 217 H 24.4765 -0.969074 4.86645 0
M  V30 218 N 23.6496 -1.47581 0.552962 0
M  V30 219 C 25.0656 -1.5818 0.212424 0
M  V30 220 C 25.2656 -1.55213 -1.28496 0
M  V30 221 O 24.3216 -1.45329 -2.06484 0
M  V30 222 C 25.6346 -2.88865 0.835318 0
M  V30 223 C 27.1826 -3.0244 0.806156 0
M  V30 224 C 27.6576 -4.35819 1.40804 0
M  V30 225 N 29.1486 -4.42444 1.37103 0
M  V30 226 C 29.8836 -5.44202 1.80641 0
M  V30 227 N 29.3796 -6.52795 2.32015 0
M  V30 228 N 31.1726 -5.35222 1.71738 0
M  V30 229 H 23.3236 -1.47753 1.52587 0
M  V30 230 H 25.5866 -0.702941 0.636064 0
M  V30 231 H 25.2926 -2.9676 1.88749 0
M  V30 232 H 25.1666 -3.7579 0.325848 0
M  V30 233 H 27.5536 -2.94144 -0.237317 0
M  V30 234 H 27.6346 -2.17068 1.35334 0
M  V30 235 H 27.2786 -4.44871 2.45056 0
M  V30 236 H 27.2086 -5.19916 0.836338 0
M  V30 237 H 29.6996 -3.6456 0.995202 0
M  V30 238 H 30.0126 -7.26609 2.63171 0
M  V30 239 H 28.3576 -6.53696 2.36023 0
M  V30 240 H 31.5486 -4.49284 1.31382 0
M  V30 241 H 31.7216 -6.14389 2.05987 0
M  V30 242 N 25.1277 -0.289203 -1.54924 0
M  V30 243 C 26.0577 0.58549 -2.2604 0
M  V30 244 C 27.0387 1.14753 -1.25562 0
M  V30 245 O 28.2237 1.17906 -1.54311 0
M  V30 246 C 25.3537 1.76305 -2.99222 0
M  V30 247 C 24.3077 1.33191 -4.06748 0
M  V30 248 C 23.6337 2.5937 -4.6758 0
M  V30 249 C 24.9337 0.471775 -5.20165 0
M  V30 250 H 26.6277 -0.00763532 -2.99399 0
M  V30 251 H 24.1737 -0.00511229 -1.43999 0
M  V30 252 H 26.1267 2.38097 -3.47689 0
M  V30 253 H 24.8507 2.38223 -2.23422 0
M  V30 254 H 23.5097 0.737121 -3.59113 0
M  V30 255 H 23.1577 3.19576 -3.88433 0
M  V30 256 H 22.8577 2.31228 -5.40192 0
M  V30 257 H 24.3817 3.21985 -5.18804 0
M  V30 258 H 25.7957 0.995056 -5.64599 0
M  V30 259 H 24.1927 0.284639 -5.99425 0
M  V30 260 H 25.2627 -0.506041 -4.82252 0
M  V30 261 N 26.6058 1.57591 -0.0167156 0
M  V30 262 C 27.8308 1.9598 0.67872 0
M  V30 263 C 28.2558 0.892546 1.65575 0
M  V30 264 O 27.6138 -0.147772 1.80697 0
M  V30 265 C 27.6618 3.33468 1.37227 0
M  V30 266 O 26.7658 3.28954 2.48722 0
M  V30 267 H 26.1068 0.639339 0.17928 0
M  V30 268 H 28.6368 2.04463 -0.0748802 0
M  V30 269 H 28.6468 3.69417 1.7319 0
M  V30 270 H 27.3218 4.10694 0.656007 0
M  V30 271 H 25.8988 3.04705 2.14963 0
M  V30 272 N 28.0839 -0.256276 1.55502 0
M  V30 273 C 29.4999 -0.604325 1.47716 0
M  V30 274 C 29.6999 -1.88763 0.705039 0
M  V30 275 O 28.7559 -2.51445 0.230613 0
M  V30 276 C 30.0689 -0.715756 2.92057 0
M  V30 277 C 31.6169 -0.808706 3.02372 0
M  V30 278 C 32.0919 -0.951777 4.48001 0
M  V30 279 N 33.5829 -1.01688 4.519 0
M  V30 280 C 34.3179 -1.14668 5.61817 0
M  V30 281 N 33.8139 -1.24261 6.81565 0
M  V30 282 N 35.6069 -1.1791 5.49594 0
M  V30 283 H 27.7579 0.586291 2.04148 0
M  V30 284 H 30.0209 0.201015 0.926443 0
M  V30 285 H 29.7269 0.157027 3.51349 0
M  V30 286 H 29.6009 -1.59071 3.42018 0
M  V30 287 H 31.9879 -1.67195 2.43166 0
M  V30 288 H 32.0689 0.0912063 2.55637 0
M  V30 289 H 31.7129 -0.0931291 5.07815 0
M  V30 290 H 31.6429 -1.86659 4.92408 0
M  V30 291 H 34.1339 -0.954468 3.65648 0
M  V30 292 H 34.4469 -1.34046 7.61086 0
M  V30 293 H 32.7919 -1.21236 6.84344 0
M  V30 294 H 35.9829 -1.10057 4.54978 0
M  V30 295 H 36.1559 -1.27681 6.35296 0
M  V30 296 N 29.562 -1.4872 -0.521534 0
M  V30 297 C 30.978 -1.35028 -0.850855 0
M  V30 298 C 31.178 -0.367712 -1.98116 0
M  V30 299 O 30.234 0.208037 -2.51642 0
M  V30 300 C 31.547 -2.75263 -1.21041 0
M  V30 301 C 33.095 -2.83813 -1.31981 0
M  V30 302 C 33.57 -4.24769 -1.71276 0
M  V30 303 N 35.061 -4.27482 -1.78363 0
M  V30 304 C 35.796 -5.33494 -2.1017 0
M  V30 305 N 35.292 -6.49775 -2.40343 0
M  V30 306 N 37.085 -5.20894 -2.11248 0
M  V30 307 H 29.236 -2.11214 0.22413 0
M  V30 308 H 31.499 -0.947252 0.0376439 0
M  V30 309 H 31.205 -3.48765 -0.453415 0
M  V30 310 H 31.079 -3.09327 -2.15863 0
M  V30 311 H 33.466 -2.10561 -2.06756 0
M  V30 312 H 33.547 -2.53358 -0.352596 0
M  V30 313 H 33.191 -4.9854 -0.970588 0
M  V30 314 H 33.121 -4.52673 -2.69062 0
M  V30 315 H 35.612 -3.43611 -1.57288 0
M  V30 316 H 35.925 -7.26402 -2.63743 0
M  V30 317 H 34.27 -6.53035 -2.37844 0
M  V30 318 H 37.461 -4.29065 -1.87139 0
M  V30 319 H 37.634 -6.03612 -2.35704 0
M  V30 320 N 31.0401 0.771051 -1.3745 0
M  V30 321 C 32.0031 1.86598 -1.33093 0
M  V30 322 C 33.0031 1.59076 -0.234845 0
M  V30 323 O 34.1931 1.67145 -0.490732 0
M  V30 324 C 31.3251 3.23747 -1.06773 0
M  V30 325 H 32.5181 1.91873 -2.30488 0
M  V30 326 H 30.0711 0.970876 -1.2249 0
M  V30 327 H 30.8061 3.24148 -0.099129 0
M  V30 328 H 30.5911 3.45115 -1.86112 0
M  V30 329 H 32.0811 4.03824 -1.06377 0
M  V30 330 N 32.5182 1.22032 0.997298 0
M  V30 331 C 33.4502 0.944263 2.08845 0
M  V30 332 C 34.4632 -0.0754663 1.62625 0
M  V30 333 O 35.6522 0.157994 1.77799 0
M  V30 334 C 32.7522 0.397723 3.36558 0
M  V30 335 C 31.9252 1.47362 4.11829 0
M  V30 336 C 30.9842 0.934951 5.17827 0
M  V30 337 O 30.0102 1.62016 5.45655 0
M  V30 338 N 31.2122 -0.245895 5.79979 0
M  V30 339 H 33.9772 1.88363 2.33109 0
M  V30 340 H 31.5382 1.12661 1.16272 0
M  V30 341 H 33.5302 0.0227771 4.04694 0
M  V30 342 H 32.1002 -0.446646 3.09393 0
M  V30 343 H 31.3202 2.02208 3.38386 0
M  V30 344 H 32.6082 2.19764 4.58891 0
M  V30 345 H 32.0062 -0.819475 5.59733 0
M  V30 346 H 30.5632 -0.562272 6.4937 0
M  V30 347 N 33.9963 -1.19345 1.0293 0
M  V30 348 C 34.9263 -2.2481 0.631105 0
M  V30 349 C 35.9073 -1.66245 -0.360104 0
M  V30 350 O 37.0923 -1.92677 -0.242726 0
M  V30 351 C 34.2223 -3.47295 -0.0184607 0
M  V30 352 C 33.1763 -4.18536 0.895073 0
M  V30 353 C 32.5023 -5.34586 0.110592 0
M  V30 354 C 33.8023 -4.73287 2.209 0
M  V30 355 H 35.4963 -2.58372 1.51275 0
M  V30 356 H 33.0423 -1.24194 0.728818 0
M  V30 357 H 34.9953 -4.20268 -0.308675 0
M  V30 358 H 33.7193 -3.12933 -0.934907 0
M  V30 359 H 32.3783 -3.47446 1.16949 0
M  V30 360 H 32.0263 -4.96469 -0.807902 0
M  V30 361 H 31.7263 -5.83183 0.719087 0
M  V30 362 H 33.2503 -6.10355 -0.172871 0
M  V30 363 H 34.6643 -5.38013 1.98028 0
M  V30 364 H 33.0613 -5.32373 2.76946 0
M  V30 365 H 34.1313 -3.91331 2.86336 0
M  V30 366 N 35.4744 -0.807222 -1.35358 0
M  V30 367 C 36.7144 -0.393534 -2.00576 0
M  V30 368 C 37.0784 1.0203 -1.62647 0
M  V30 369 O 38.2794 1.53603 -2.20589 0
M  V30 370 C 36.5504 -0.572017 -3.52793 0
M  V30 371 S 38.1094 -0.248845 -4.38094 0
M  V30 372 H 34.9274 -0.149425 -0.695121 0
M  V30 373 H 37.5294 -1.04961 -1.64935 0
M  V30 374 H 36.2334 -1.60097 -3.77885 0
M  V30 375 H 35.7644 0.099359 -3.93275 0
M  V30 376 H 37.7794 0.943253 -4.87152 0
M  V30 377 N 36.9525 1.47285 -0.560781 0
M  V30 378 C 37.8825 2.32857 0.173105 0
M  V30 379 C 38.8635 1.44009 0.905281 0
M  V30 380 O 40.0485 1.7286 0.885046 0
M  V30 381 C 37.1785 3.25861 1.20133 0
M  V30 382 C 36.1325 4.23978 0.585388 0
M  V30 383 C 35.4585 5.06332 1.7185 0
M  V30 384 C 36.7585 5.20242 -0.463178 0
M  V30 385 H 38.4525 2.94466 -0.541307 0
M  V30 386 H 35.9985 1.41601 -0.261764 0
M  V30 387 H 37.9515 3.84569 1.72293 0
M  V30 388 H 36.6755 2.62315 1.94573 0
M  V30 389 H 35.3345 3.66501 0.085054 0
M  V30 390 H 34.9825 4.39186 2.45203 0
M  V30 391 H 34.6825 5.72762 1.31213 0
M  V30 392 H 36.2065 5.67899 2.24329 0
M  V30 393 H 37.6205 5.73293 -0.027502 0
M  V30 394 H 36.0175 5.94896 -0.788627 0
M  V30 395 H 37.0875 4.65504 -1.35773 0
M  V30 396 N 38.4306 0.297415 1.54768 0
M  V30 397 C 39.6786 -0.312295 1.99673 0
M  V30 398 C 39.9996 -1.54686 1.18732 0
M  V30 399 O 39.2696 -1.93854 0.282382 0
M  V30 400 H 37.8496 -0.118381 0.73756 0
M  V30 401 H 40.5116 0.407915 1.90583 0
M  V30 402 H 39.6076 -0.586813 3.06534 0
M  V30 403 N 39.9087 -1.5758 0.0250728 0
M  V30 404 C 41.1547 -1.91917 -0.655413 0
M  V30 405 C 41.4877 -0.901433 -1.72011 0
M  V30 406 O 40.7627 0.0764069 -1.9435 0
M  V30 407 C 41.0457 -3.36751 -1.27558 0
M  V30 408 C 40.8987 -4.49258 -0.220719 0
M  V30 409 C 42.2177 -3.81469 -2.19475 0
M  V30 410 H 39.3367 -0.697925 -0.23679 0
M  V30 411 H 41.9787 -1.89825 0.0815036 0
M  V30 412 H 40.1287 -3.38664 -1.90365 0
M  V30 413 H 41.8007 -4.59478 0.409601 0
M  V30 414 H 40.0437 -4.31415 0.454264 0
M  V30 415 H 40.7147 -5.47618 -0.694175 0
M  V30 416 H 43.1907 -3.81266 -1.66659 0
M  V30 417 H 42.0667 -4.83512 -2.59822 0
M  V30 418 H 42.3277 -3.16744 -3.08424 0
M  V30 419 N 41.3868 0.248026 -1.55636 0
M  V30 420 C 42.6118 0.998028 -1.81808 0
M  V30 421 C 43.0368 1.78207 -0.601979 0
M  V30 422 O 42.3948 1.75653 0.448961 0
M  V30 423 C 42.4428 1.9125 -3.05705 0
M  V30 424 O 41.5468 3.00406 -2.82542 0
M  V30 425 H 40.8878 0.284045 -0.600179 0
M  V30 426 H 43.4178 0.269357 -2.02819 0
M  V30 427 H 43.4278 2.32737 -3.35108 0
M  V30 428 H 42.1028 1.33602 -3.93857 0
M  V30 429 H 40.6798 2.63056 -2.64303 0
M  V30 430 N 42.8649 1.48995 0.513639 0
M  V30 431 C 44.1139 1.57093 1.2651 0
M  V30 432 C 44.4269 0.257091 1.93903 0
M  V30 433 O 45.6329 0.216478 2.70636 0
M  V30 434 C 44.0889 2.77118 2.29638 0
M  V30 435 C 43.6969 4.15209 1.68241 0
M  V30 436 C 45.4409 2.94538 3.05692 0
M  V30 437 C 43.3479 5.26474 2.69406 0
M  V30 438 H 42.2779 0.584876 0.475854 0
M  V30 439 H 44.9289 1.7536 0.540487 0
M  V30 440 H 43.3109 2.52319 3.05207 0
M  V30 441 H 44.4849 4.50094 0.987505 0
M  V30 442 H 42.7999 4.03042 1.04623 0
M  V30 443 H 45.3969 3.74832 3.8132 0
M  V30 444 H 45.7399 2.04614 3.62545 0
M  V30 445 H 46.2729 3.19316 2.37238 0
M  V30 446 H 43.0119 6.18417 2.17351 0
M  V30 447 H 42.5319 4.96058 3.37175 0
M  V30 448 H 44.2109 5.55277 3.32078 0
M  V30 449 N 44.343 -0.763751 1.37857 0
M  V30 450 C 45.273 -1.89103 1.36975 0
M  V30 451 C 46.254 -1.68439 0.237152 0
M  V30 452 O 47.439 -1.8918 0.438713 0
M  V30 453 C 44.569 -3.26496 1.18395 0
M  V30 454 C 43.523 -3.61741 2.28751 0
M  V30 455 C 42.849 -4.97762 1.95286 0
M  V30 456 C 44.149 -3.67665 3.70972 0
M  V30 457 H 45.843 -1.90099 2.31307 0
M  V30 458 H 43.389 -0.91319 1.11341 0
M  V30 459 H 45.342 -4.05003 1.16406 0
M  V30 460 H 44.066 -3.25955 0.205215 0
M  V30 461 H 42.725 -2.85547 2.29909 0
M  V30 462 H 42.373 -4.93769 0.959221 0
M  V30 463 H 42.073 -5.22313 2.69189 0
M  V30 464 H 43.597 -5.7866 1.94898 0
M  V30 465 H 45.011 -4.36307 3.719 0
M  V30 466 H 43.408 -4.03718 4.43995 0
M  V30 467 H 44.478 -2.68134 4.0402 0
M  V30 468 N 45.8211 -1.22559 -0.990812 0
M  V30 469 C 47.0671 -1.05297 -1.73322 0
M  V30 470 C 47.4001 0.410655 -1.89808 0
M  V30 471 O 46.6751 1.30439 -1.44277 0
M  V30 472 C 46.9581 -1.76713 -3.13759 0
M  V30 473 C 46.8111 -3.30684 -3.04907 0
M  V30 474 C 48.1301 -1.52121 -4.12974 0
M  V30 475 H 45.2491 -0.38392 -0.629106 0
M  V30 476 H 47.8911 -1.50926 -1.15418 0
M  V30 477 H 46.0411 -1.37924 -3.63193 0
M  V30 478 H 47.7131 -3.7893 -2.63077 0
M  V30 479 H 45.9561 -3.60253 -2.41661 0
M  V30 480 H 46.6271 -3.75833 -4.04294 0
M  V30 481 H 49.1031 -1.85819 -3.72304 0
M  V30 482 H 47.9791 -2.04582 -5.0935 0
M  V30 483 H 48.2401 -0.454257 -4.3976 0
M  V30 484 N 47.2992 1.18797 -1.03562 0
M  V30 485 C 48.2292 2.24472 -0.643019 0
M  V30 486 C 49.2102 1.66433 0.351283 0
M  V30 487 O 50.3952 1.92803 0.232505 0
M  V30 488 C 47.5252 3.473 4.24935e-05 0
M  V30 489 C 46.4792 4.18055 -0.917257 0
M  V30 490 C 45.8052 5.34519 -0.138941 0
M  V30 491 C 47.1052 4.72109 -2.23407 0
M  V30 492 H 48.7992 2.57566 -1.52643 0
M  V30 493 H 46.3452 1.23806 -0.735394 0
M  V30 494 H 48.2982 4.20426 0.286383 0
M  V30 495 H 47.0222 3.13424 0.918299 0
M  V30 496 H 45.6812 3.46821 -1.1879 0
M  V30 497 H 45.3292 4.96891 0.781562 0
M  V30 498 H 45.0292 5.82794 -0.750005 0
M  V30 499 H 46.5532 6.10438 0.1405 0
M  V30 500 H 47.9672 5.36955 -2.00879 0
M  V30 501 H 46.3642 5.30897 -2.79765 0
M  V30 502 H 47.4342 3.89807 -2.88407 0
M  V30 503 N 48.7773 0.814389 1.34928 0
M  V30 504 C 50.0263 0.394871 1.97797 0
M  V30 505 C 50.3393 -1.04555 1.65311 0
M  V30 506 O 51.5453 -1.56856 2.21604 0
M  V30 507 C 50.0013 0.655103 3.53888 0
M  V30 508 C 49.6093 2.10858 3.95276 0
M  V30 509 C 51.3533 0.301329 4.23429 0
M  V30 510 C 49.2603 2.31415 5.44244 0
M  V30 511 H 48.1903 0.143913 0.740139 0
M  V30 512 H 50.8413 0.999544 1.53888 0
M  V30 513 H 49.2233 -0.0196253 3.95995 0
M  V30 514 H 50.3973 2.82176 3.64298 0
M  V30 515 H 48.7123 2.42297 3.38646 0
M  V30 516 H 51.3093 0.432869 5.32945 0
M  V30 517 H 51.6523 -0.75331 4.09428 0
M  V30 518 H 52.1853 0.930288 3.86769 0
M  V30 519 H 48.9243 3.35353 5.63222 0
M  V30 520 H 48.4443 1.6463 5.76764 0
M  V30 521 H 50.1233 2.13352 6.10811 0
M  V30 522 N 50.2554 -1.46986 0.568584 0
M  V30 523 C 51.1854 -2.32946 -0.160753 0
M  V30 524 C 52.1664 -1.44487 -0.897631 0
M  V30 525 O 53.3514 -1.73327 -0.875867 0
M  V30 526 C 50.4814 -3.26494 -1.18403 0
M  V30 527 C 49.4354 -4.24282 -0.562895 0
M  V30 528 C 48.7614 -5.07236 -1.69163 0
M  V30 529 C 50.0614 -5.19989 0.490761 0
M  V30 530 H 51.7554 -2.94175 0.556916 0
M  V30 531 H 49.3014 -1.4146 0.26927 0
M  V30 532 H 51.2544 -3.85477 -1.70251 0
M  V30 533 H 49.9784 -2.63343 -1.93179 0
M  V30 534 H 48.6374 -3.66541 -0.0656164 0
M  V30 535 H 48.2854 -4.4048 -2.42871 0
M  V30 536 H 47.9854 -5.7345 -1.28174 0
M  V30 537 H 49.5094 -5.6908 -2.21314 0
M  V30 538 H 50.9234 -5.73271 0.0579047 0
M  V30 539 H 49.3204 -5.94469 0.820165 0
M  V30 540 H 50.3904 -4.64777 1.3824 0
M  V30 541 N 51.7335 -0.305618 -1.54608 0
M  V30 542 C 52.9795 0.302746 -2.00528 0
M  V30 543 C 53.3125 1.53184 -1.19367 0
M  V30 544 O 52.5875 1.92598 -0.271321 0
M  V30 545 C 52.8705 0.654756 -3.54097 0
M  V30 546 C 52.7235 -0.583793 -4.45995 0
M  V30 547 C 54.0425 1.47947 -4.14487 0
M  V30 548 H 51.1615 0.108564 -0.72896 0
M  V30 549 H 53.8035 -0.418634 -1.85331 0
M  V30 550 H 51.9535 1.26935 -3.67178 0
M  V30 551 H 53.6255 -1.22224 -4.44814 0
M  V30 552 H 51.8685 -1.21615 -4.16404 0
M  V30 553 H 52.5395 -0.293287 -5.5122 0
M  V30 554 H 55.0155 0.96013 -4.04871 0
M  V30 555 H 53.8915 1.69454 -5.22088 0
M  V30 556 H 54.1525 2.47011 -3.66658 0
M  V30 557 N 53.2116 1.57565 -0.0334293 0
M  V30 558 C 54.4576 1.92262 0.645226 0
M  V30 559 C 54.7906 0.910543 1.71531 0
M  V30 560 O 54.0656 -0.066099 1.94388 0
M  V30 561 C 54.3486 3.37422 1.2577 0
M  V30 562 C 54.2016 4.49369 0.196891 0
M  V30 563 C 55.5206 3.82628 2.17449 0
M  V30 564 H 52.6396 0.699171 0.233085 0
M  V30 565 H 55.2816 1.89779 -0.0915694 0
M  V30 566 H 53.4316 3.39669 1.88566 0
M  V30 567 H 55.1036 4.59254 -0.433962 0
M  V30 568 H 53.3466 4.31168 -0.477137 0
M  V30 569 H 54.0176 5.47978 0.665124 0
M  V30 570 H 56.4936 3.82145 1.64634 0
M  V30 571 H 55.3696 4.84883 2.57254 0
M  V30 572 H 55.6306 3.18376 3.0674 0
M  V30 573 N 54.6897 -0.239769 1.55765 0
M  V30 574 C 55.9357 -0.968234 1.78194 0
M  V30 575 C 56.2687 -1.84701 0.599938 0
M  V30 576 O 55.5437 -1.9031 -0.401524 0
M  V30 577 C 55.8267 -1.8227 3.10564 0
M  V30 578 C 55.6797 -0.971633 4.3918 0
M  V30 579 C 56.9987 -2.80388 3.39221 0
M  V30 580 H 54.1177 -0.350572 0.648281 0
M  V30 581 H 56.7597 -0.238259 1.885 0
M  V30 582 H 54.9097 -2.44507 3.01908 0
M  V30 583 H 56.5817 -0.367408 4.59835 0
M  V30 584 H 54.8247 -0.276276 4.32919 0
M  V30 585 H 55.4957 -1.60346 5.28198 0
M  V30 586 H 57.9717 -2.28287 3.47885 0
M  V30 587 H 56.8477 -3.3729 4.33044 0
M  V30 588 H 57.1087 -3.57212 2.60484 0
M  V30 589 N 56.1678 -1.49265 -0.50573 0
M  V30 590 C 57.0978 -1.68495 -1.61653 0
M  V30 591 C 58.0788 -0.53366 -1.61512 0
M  V30 592 O 59.2638 -0.76897 -1.78327 0
M  V30 593 C 56.3938 -1.74709 -3.00157 0
M  V30 594 C 55.3478 -2.89581 -3.15162 0
M  V30 595 C 54.6738 -2.80903 -4.5497 0
M  V30 596 C 55.9738 -4.30578 -2.95634 0
M  V30 597 H 57.6678 -2.61493 -1.45814 0
M  V30 598 H 55.2138 -1.25838 -0.70005 0
M  V30 599 H 57.1668 -1.86748 -3.77761 0
M  V30 600 H 55.8908 -0.783067 -3.17074 0
M  V30 601 H 54.5498 -2.77136 -2.39982 0
M  V30 602 H 54.1978 -1.82419 -4.68756 0
M  V30 603 H 53.8978 -3.57999 -4.65951 0
M  V30 604 H 55.4218 -2.94944 -5.34641 0
M  V30 605 H 56.8358 -4.4373 -3.63011 0
M  V30 606 H 55.2328 -5.0886 -3.18091 0
M  V30 607 H 56.3028 -4.45352 -1.91806 0
M  V30 608 N 57.6459 0.756429 -1.3826 0
M  V30 609 C 58.6089 1.85176 -1.35065 0
M  V30 610 C 59.6089 1.58818 -0.251703 0
M  V30 611 O 60.7989 1.66615 -0.508433 0
M  V30 612 C 57.9309 3.22596 -1.10201 0
M  V30 613 H 59.1239 1.89417 -2.3251 0
M  V30 614 H 56.6769 0.95783 -1.23512 0
M  V30 615 H 57.4119 3.24025 -0.133504 0
M  V30 616 H 57.1969 3.43122 -1.89762 0
M  V30 617 H 58.6869 4.02673 -1.10654 0
M  V30 618 N 59.124 1.23083 0.984299 0
M  V30 619 C 60.37 1.06214 1.72761 0
M  V30 620 C 60.703 -0.400584 1.90024 0
M  V30 621 O 59.978 -1.29672 1.44967 0
M  V30 622 C 60.261 1.78375 3.12817 0
M  V30 623 C 60.114 3.32296 3.03149 0
M  V30 624 C 61.433 1.54309 4.12161 0
M  V30 625 H 58.552 0.387251 0.627061 0
M  V30 626 H 61.194 1.51536 1.14616 0
M  V30 627 H 59.344 1.39848 3.62457 0
M  V30 628 H 61.016 3.8032 2.61064 0
M  V30 629 H 59.259 3.6153 2.39747 0
M  V30 630 H 59.93 3.77972 4.02295 0
M  V30 631 H 62.406 1.87791 3.71314 0
M  V30 632 H 61.282 2.07281 5.08258 0
M  V30 633 H 61.543 0.477572 4.39513 0
M  V30 634 N 60.6021 -1.18246 1.0419 0
M  V30 635 C 61.8481 -1.88536 0.747122 0
M  V30 636 C 62.1811 -1.80223 -0.723409 0
M  V30 637 O 61.4561 -1.20337 -1.52804 0
M  V30 638 C 61.7391 -3.38968 1.21544 0
M  V30 639 C 61.5921 -3.56084 2.74816 0
M  V30 640 C 62.9111 -4.32648 0.806482 0
M  V30 641 H 60.0301 -0.684619 0.272883 0
M  V30 642 H 62.6721 -1.39113 1.29413 0
M  V30 643 H 60.8221 -3.8119 0.750081 0
M  V30 644 H 62.4941 -3.22946 3.29399 0
M  V30 645 H 60.7371 -2.98699 3.14582 0
M  V30 646 H 61.4081 -4.61639 3.02644 0
M  V30 647 H 63.8841 -3.98211 1.20695 0
M  V30 648 H 62.7601 -5.36462 1.1619 0
M  V30 649 H 63.0211 -4.41146 -0.29029 0
M  V30 650 N 62.0802 -0.821533 -1.34494 0
M  V30 651 C 63.3262 -0.409552 -1.98622 0
M  V30 652 C 63.6592 1.0244 -1.64984 0
M  V30 653 O 62.9342 1.71325 -0.920758 0
M  V30 654 C 63.2172 -0.610458 -3.54888 0
M  V30 655 C 63.0702 -2.09043 -3.98273 0
M  V30 656 C 64.3892 -0.0455379 -4.40076 0
M  V30 657 H 61.5082 -0.15028 -0.721516 0
M  V30 658 H 64.1502 -1.03384 -1.59411 0
M  V30 659 H 62.3002 -0.079044 -3.8842 0
M  V30 660 H 63.9722 -2.68537 -3.75081 0
M  V30 661 H 62.2152 -2.58139 -3.48635 0
M  V30 662 H 62.8862 -2.18182 -5.07051 0
M  V30 663 H 65.3622 -0.499557 -4.1309 0
M  V30 664 H 64.2382 -0.215922 -5.48475 0
M  V30 665 H 64.4992 1.04939 -4.29465 0
M  V30 666 N 63.5583 1.46682 -0.576371 0
M  V30 667 C 64.9693 1.86112 -0.148091 0
M  V30 668 C 65.3203 1.48073 1.2872 0
M  V30 669 O 64.4453 0.892656 1.97131 0
M  V30 670 C 65.0403 3.37786 -0.261982 0
M  V30 671 C 63.5993 3.76235 0.111384 0
M  V30 672 C 62.7463 2.70713 -0.60083 0
M  V30 673 H 65.6973 1.37927 -0.78497 0
M  V30 674 H 65.7183 3.77007 0.514364 0
M  V30 675 H 65.2303 3.6544 -1.30671 0
M  V30 676 H 63.3313 3.54198 1.15649 0
M  V30 677 H 63.4443 4.78391 -0.26052 0
M  V30 678 H 61.8083 2.54666 -0.0417783 0
M  V30 679 H 62.5913 3.01208 -1.64708 0
M  V30 680 N 65.0364 0.313813 1.54444 0
M  V30 681 C 66.4524 -0.0391619 1.59552 0
M  V30 682 C 66.6524 -1.51322 1.33056 0
M  V30 683 O 65.7084 -2.26782 1.11022 0
M  V30 684 C 67.0214 0.370302 2.98411 0
M  V30 685 C 68.5694 0.320139 3.11358 0
M  V30 686 C 69.0444 0.704617 4.52547 0
M  V30 687 N 70.5354 0.657645 4.58508 0
M  V30 688 C 71.2704 0.927453 5.6585 0
M  V30 689 N 70.7664 1.26389 6.81174 0
M  V30 690 N 72.5594 0.853662 5.5558 0
M  V30 691 H 64.7104 1.27433 1.69925 0
M  V30 692 H 66.9734 0.517511 0.794284 0
M  V30 693 H 66.6794 1.39694 3.22767 0
M  V30 694 H 66.5534 -0.269619 3.76235 0
M  V30 695 H 68.9404 -0.697275 2.86744 0
M  V30 696 H 69.0214 0.99486 2.35661 0
M  V30 697 H 68.6654 1.7199 4.77893 0
M  V30 698 H 68.5954 0.00768843 5.26599 0
M  V30 699 H 71.0864 0.409067 3.75679 0
M  V30 700 H 71.3994 1.4554 7.58972 0
M  V30 701 H 69.7444 1.30206 6.82694 0
M  V30 702 H 72.9354 0.590383 4.64362 0
M  V30 703 H 73.1084 1.0673 6.3915 0
M  V30 704 N 66.5145 -1.57545 0.0417849 0
M  V30 705 C 67.7605 -1.93424 -0.629168 0
M  V30 706 C 68.1155 -0.919564 -1.69002 0
M  V30 707 O 67.4085 0.0626178 -1.91498 0
M  V30 708 C 67.6025 -3.33794 -1.27735 0
M  V30 709 C 67.4315 -4.48822 -0.280806 0
M  V30 710 C 66.2015 -5.05148 0.123869 0
M  V30 711 C 68.3995 -5.12148 0.470012 0
M  V30 712 N 66.3815 -6.03703 1.11426 0
M  V30 713 C 67.7525 -6.05921 1.31377 0
M  V30 714 C 69.8075 -4.95078 0.529343 0
M  V30 715 C 68.5105 -6.84459 2.21152 0
M  V30 716 C 70.5365 -5.74235 1.41448 0
M  V30 717 C 69.8985 -6.67634 2.24598 0
M  V30 718 H 65.9975 -0.755418 -0.202158 0
M  V30 719 H 68.5815 -1.94378 0.111923 0
M  V30 720 H 66.7525 -3.33635 -1.98852 0
M  V30 721 H 68.4845 -3.56988 -1.90635 0
M  V30 722 H 65.2395 -4.72923 -0.253178 0
M  V30 723 H 65.6635 -6.57674 1.60607 0
M  V30 724 H 70.3055 -4.22683 -0.0992798 0
M  V30 725 H 68.0235 -7.56151 2.85063 0
M  V30 726 H 71.6095 -5.63057 1.46484 0
M  V30 727 H 70.4895 -7.27817 2.9198 0
M  V30 728 N 67.9926 0.231505 -1.5589 0
M  V30 729 C 69.4086 0.580748 -1.48659 0
M  V30 730 C 69.6086 1.87617 -0.73498 0
M  V30 731 O 68.6646 2.51046 -0.270586 0
M  V30 732 C 69.9776 0.669202 -2.93159 0
M  V30 733 C 71.5256 0.760499 -3.03621 0
M  V30 734 C 72.0006 0.880383 -4.49459 0
M  V30 735 N 73.4916 0.944861 -4.53461 0
M  V30 736 C 74.2266 1.05716 -5.63571 0
M  V30 737 N 73.7226 1.13403 -6.83456 0
M  V30 738 N 75.5156 1.09152 -5.514 0
M  V30 739 H 67.6666 -0.618695 -2.03189 0
M  V30 740 H 69.9296 -0.215728 -0.923128 0
M  V30 741 H 69.6356 -0.212904 -3.51055 0
M  V30 742 H 69.5096 1.5361 -3.44505 0
M  V30 743 H 71.8966 1.63305 -2.45796 0
M  V30 744 H 71.9776 -0.131864 -2.5546 0
M  V30 745 H 71.6216 0.0123284 -5.07899 0
M  V30 746 H 71.5516 1.78802 -4.95316 0
M  V30 747 H 74.0426 0.896176 -3.6712 0
M  V30 748 H 74.3556 1.21921 -7.63122 0
M  V30 749 H 72.7006 1.10333 -6.86186 0
M  V30 750 H 75.8916 1.02805 -4.56671 0
M  V30 751 H 76.0646 1.17558 -6.37247 0
M  V30 752 N 69.4707 1.49531 0.497807 0
M  V30 753 C 70.4027 1.62559 1.61578 0
M  V30 754 C 71.4157 0.508134 1.54667 0
M  V30 755 O 72.6047 0.780309 1.60541 0
M  V30 756 C 69.7047 1.56925 3.00379 0
M  V30 757 C 68.8777 2.84257 3.3244 0
M  V30 758 C 67.9367 2.71632 4.50669 0
M  V30 759 O 66.9627 3.4557 4.52294 0
M  V30 760 N 68.1647 1.83391 5.5077 0
M  V30 761 H 70.9297 2.58981 1.50828 0
M  V30 762 H 68.4907 1.4666 0.685743 0
M  V30 763 H 70.4827 1.46129 3.77397 0
M  V30 764 H 69.0527 0.683483 3.05037 0
M  V30 765 H 68.2727 3.09381 2.44289 0
M  V30 766 H 69.5607 3.68666 3.5066 0
M  V30 767 H 68.9587 1.22583 5.52259 0
M  V30 768 H 67.5157 1.78515 6.26878 0
M  V30 769 N 70.9488 -0.749086 1.3866 0
M  V30 770 C 71.8808 -1.87273 1.32142 0
M  V30 771 C 72.8938 -1.61127 0.232787 0
M  V30 772 O 74.0828 -1.71623 0.49069 0
M  V30 773 C 71.1828 -3.23005 1.02571 0
M  V30 774 C 70.3558 -3.7662 2.22433 0
M  V30 775 C 69.4148 -4.90879 1.89537 0
M  V30 776 O 68.4408 -5.05276 2.62078 0
M  V30 777 N 69.6428 -5.74198 0.853031 0
M  V30 778 H 72.4078 -1.93373 2.28969 0
M  V30 779 H 69.9688 -0.929216 1.32579 0
M  V30 780 H 71.9608 -3.96992 0.786085 0
M  V30 781 H 70.5308 -3.12262 0.145249 0
M  V30 782 H 69.7508 -2.94147 2.62434 0
M  V30 783 H 71.0388 -4.09173 3.02415 0
M  V30 784 H 70.4368 -5.6514 0.25155 0
M  V30 785 H 68.9938 -6.48313 0.67329 0
M  V30 786 N 72.4269 -1.23603 -0.977757 0
M  V30 787 C 73.6729 -1.08136 -1.72274 0
M  V30 788 C 74.0279 0.377453 -1.88661 0
M  V30 789 O 73.3209 1.27552 -1.42972 0
M  V30 790 C 73.5149 -1.7433 -3.11999 0
M  V30 791 C 73.3439 -3.26498 -3.0924 0
M  V30 792 C 72.1139 -3.9567 -3.14282 0
M  V30 793 C 74.3119 -4.2323 -2.92201 0
M  V30 794 N 72.2939 -5.34799 -3.01436 0
M  V30 795 C 73.6649 -5.49289 -2.87544 0
M  V30 796 C 75.7199 -4.13931 -2.76705 0
M  V30 797 C 74.4229 -6.67116 -2.68978 0
M  V30 798 C 76.4489 -5.31424 -2.59504 0
M  V30 799 C 75.8109 -6.5641 -2.55548 0
M  V30 800 H 71.9099 -0.450247 -0.639376 0
M  V30 801 H 74.4939 -1.5637 -1.16002 0
M  V30 802 H 72.6649 -1.28624 -3.66484 0
M  V30 803 H 74.3969 -1.51815 -3.75146 0
M  V30 804 H 71.1519 -3.46767 -3.22567 0
M  V30 805 H 71.5759 -6.07748 -2.98281 0
M  V30 806 H 76.2179 -3.1807 -2.78552 0
M  V30 807 H 73.9359 -7.63109 -2.65876 0
M  V30 808 H 77.5219 -5.26072 -2.48474 0
M  V30 809 H 76.4019 -7.45795 -2.42405 0
M  V30 810 N 73.905 1.17692 -1.04816 0
M  V30 811 C 75.13 1.92327 -0.776207 0
M  V30 812 C 75.555 1.76082 0.661581 0
M  V30 813 O 74.913 1.076 1.45917 0
M  V30 814 C 74.961 3.41539 -1.15687 0
M  V30 815 O 74.065 4.11402 -0.286775 0
M  V30 816 H 73.406 0.599735 -0.284981 0
M  V30 817 H 75.936 1.49201 -1.4 0
M  V30 818 H 75.946 3.92269 -1.12202 0
M  V30 819 H 74.621 3.52684 -2.20425 0
M  V30 820 H 73.198 3.70939 -0.381903 0
M  V30 821 N 75.3831 0.828654 1.34056 0
M  V30 822 C 76.6311 0.41863 1.97717 0
M  V30 823 C 76.9521 -1.02314 1.66002 0
M  V30 824 O 76.2221 -1.71119 0.953683 0
M  V30 825 H 74.8021 0.151809 0.731412 0
M  V30 826 H 77.4641 1.05936 1.63596 0
M  V30 827 H 76.5601 0.542318 3.07352 0
M  V30 828 N 76.8612 -1.46375 0.584142 0
M  V30 829 C 78.2722 -1.86031 0.157959 0
M  V30 830 C 78.6232 -1.48753 -1.27933 0
M  V30 831 O 77.7482 -0.903098 -1.96655 0
M  V30 832 C 78.3432 -3.37642 0.279892 0
M  V30 833 C 76.9022 -3.76289 -0.09143 0
M  V30 834 C 76.0492 -2.7039 0.615178 0
M  V30 835 H 79.0002 -1.37509 0.792274 0
M  V30 836 H 79.0212 -3.77275 -0.494364 0
M  V30 837 H 78.5332 -3.64742 1.32607 0
M  V30 838 H 76.6342 -3.54806 -1.13769 0
M  V30 839 H 76.7472 -4.78246 0.285886 0
M  V30 840 H 75.1112 -2.5464 0.0552833 0
M  V30 841 H 75.8942 -3.0033 1.66303 0
M  V30 842 N 78.3393 -0.321999 -1.54275 0
M  V30 843 C 79.5873 0.280489 -2.00144 0
M  V30 844 C 79.9083 1.52777 -1.21178 0
M  V30 845 O 79.1783 1.9338 -0.313187 0
M  V30 846 H 77.7583 0.106632 -0.73935 0
M  V30 847 H 80.4203 -0.438184 -1.8991 0
M  V30 848 H 79.5163 0.537972 -3.07428 0
M  V30 849 N 79.8174 1.5752 -0.0501392 0
M  V30 850 C 81.0454 1.96963 0.633492 0
M  V30 851 C 81.4604 0.927631 1.6444 0
M  V30 852 O 80.8174 -0.0882665 1.82286 0
M  V30 853 C 80.8684 3.36487 1.32132 0
M  V30 854 O 80.5894 4.36693 0.350894 0
M  V30 855 C 82.0904 3.90682 2.09481 0
M  V30 856 H 79.3104 0.648244 0.173266 0
M  V30 857 H 81.8544 2.0417 -0.116134 0
M  V30 858 H 80.0094 3.30434 2.02218 0
M  V30 859 H 80.4234 5.17702 0.841735 0
M  V30 860 H 81.8974 4.90591 2.5303 0
M  V30 861 H 82.3744 3.26053 2.94255 0
M  V30 862 H 82.9804 4.00069 1.44307 0
M  V30 863 N 81.2955 -0.223234 1.56011 0
M  V30 864 C 82.5235 -0.964812 1.83027 0
M  V30 865 C 82.9385 -1.78013 0.62904 0
M  V30 866 O 82.2955 -1.78008 -0.402414 0
M  V30 867 C 82.3465 -1.88373 3.08542 0
M  V30 868 O 82.0675 -1.10137 4.2403 0
M  V30 869 C 83.5685 -2.73934 3.48533 0
M  V30 870 H 80.7885 -0.282842 0.608475 0
M  V30 871 H 83.3325 -0.238971 2.03099 0
M  V30 872 H 81.4875 -2.56354 2.9045 0
M  V30 873 H 81.9015 -1.72501 4.95322 0
M  V30 874 H 83.3755 -3.34117 4.39397 0
M  V30 875 H 83.8525 -3.46244 2.70207 0
M  V30 876 H 84.4585 -2.11369 3.69057 0
M  V30 877 N 82.7736 -1.49793 -0.48987 0
M  V30 878 C 83.7206 -1.67281 -1.59014 0
M  V30 879 C 84.6906 -0.514177 -1.57941 0
M  V30 880 O 85.8756 -0.742533 -1.75759 0
M  V30 881 C 83.0156 -1.75569 -2.97102 0
M  V30 882 C 82.1286 -3.0281 -3.08107 0
M  V30 883 C 81.2636 -3.02008 -4.36995 0
M  V30 884 C 80.3026 -4.23782 -4.41673 0
M  V30 885 N 79.4396 -4.20826 -5.62005 0
M  V30 886 H 84.2796 -2.61224 -1.43409 0
M  V30 887 H 81.8166 -1.29508 -0.697565 0
M  V30 888 H 83.7746 -1.78354 -3.77155 0
M  V30 889 H 82.4046 -0.850827 -3.11385 0
M  V30 890 H 81.4566 -3.09584 -2.21047 0
M  V30 891 H 82.7686 -3.92801 -3.07423 0
M  V30 892 H 81.9226 -3.03418 -5.25378 0
M  V30 893 H 80.6616 -2.09815 -4.4026 0
M  V30 894 H 79.6666 -4.22604 -3.5169 0
M  V30 895 H 80.8916 -5.17181 -4.40115 0
M  V30 896 H 78.8376 -3.31476 -5.66091 0
M  V30 897 H 78.7546 -5.04564 -5.62984 0
M  V30 898 H 80.0226 -4.26355 -6.52565 0
M  V30 899 N 84.2517 0.741722 -1.39055 0
M  V30 900 C 85.6677 1.04638 -1.20512 0
M  V30 901 C 85.8677 2.01405 -0.0620218 0
M  V30 902 O 84.9237 2.45547 0.588457 0
M  V30 903 C 86.2367 1.6151 -2.53643 0
M  V30 904 C 87.7847 1.73623 -2.6043 0
M  V30 905 C 88.2597 2.33906 -3.93767 0
M  V30 906 N 89.7507 2.41323 -3.9537 0
M  V30 907 C 90.4857 2.88888 -4.95309 0
M  V30 908 N 89.9817 3.36401 -6.05645 0
M  V30 909 N 91.7747 2.88037 -4.82692 0
M  V30 910 H 83.9257 0.0998155 -2.12165 0
M  V30 911 H 86.1887 0.106907 -0.941953 0
M  V30 912 H 85.8947 0.978739 -3.37807 0
M  V30 913 H 85.7687 2.60411 -2.72885 0
M  V30 914 H 88.1557 2.36384 -1.76655 0
M  V30 915 H 88.2367 0.733945 -2.45045 0
M  V30 916 H 87.8807 1.71776 -4.7797 0
M  V30 917 H 87.8107 3.34799 -4.06469 0
M  V30 918 H 90.3017 2.07734 -3.15682 0
M  V30 919 H 90.6147 3.71186 -6.77821 0
M  V30 920 H 88.9597 3.34427 -6.09248 0
M  V30 921 H 92.1507 2.50237 -3.95599 0
M  V30 922 H 92.3237 3.24792 -5.60726 0
M  V30 923 N 85.7298 1.2412 0.971189 0
M  V30 924 C 86.9768 1.07881 1.71371 0
M  V30 925 C 87.3048 -0.382901 1.90694 0
M  V30 926 O 86.5598 -1.29945 1.46331 0
M  V30 927 C 86.8588 1.75983 3.11071 0
M  V30 928 C 86.5248 3.25909 3.11599 0
M  V30 929 C 85.1868 3.66813 3.11451 0
M  V30 930 C 87.5388 4.21771 3.062 0
M  V30 931 C 84.8668 5.02021 3.03631 0
M  V30 932 C 87.2188 5.56982 2.99923 0
M  V30 933 C 85.8828 5.97237 2.98102 0
M  V30 934 H 85.1528 0.394764 0.62709 0
M  V30 935 H 87.7998 1.54176 1.13587 0
M  V30 936 H 86.1048 1.22072 3.72298 0
M  V30 937 H 87.8018 1.60887 3.6731 0
M  V30 938 H 84.3918 2.93353 3.12477 0
M  V30 939 H 88.5758 3.91172 3.05447 0
M  V30 940 H 83.8318 5.32411 3.0058 0
M  V30 941 H 88.0058 6.30969 2.94704 0
M  V30 942 H 85.6328 7.01967 2.91798 0
M  V30 943 N 87.2079 -1.17134 1.05439 0
M  V30 944 C 88.6189 -1.69084 0.791676 0
M  V30 945 C 88.9699 -1.83822 -0.685839 0
M  V30 946 O 88.0949 -1.52757 -1.53278 0
M  V30 947 C 88.6899 -3.07119 1.4305 0
M  V30 948 C 87.2489 -3.56225 1.21577 0
M  V30 949 C 86.3959 -2.32421 1.51247 0
M  V30 950 H 89.3469 -1.01617 1.219 0
M  V30 951 H 89.3679 -3.71087 0.84112 0
M  V30 952 H 88.8799 -2.9636 2.50584 0
M  V30 953 H 86.9809 -3.72257 0.159787 0
M  V30 954 H 87.0939 -4.38837 1.92246 0
M  V30 955 H 85.4579 -2.3701 0.932653 0
M  V30 956 H 86.2409 -2.24268 2.5992 0
M  V30 957 N 88.686 -0.835752 -1.33615 0
M  V30 958 C 89.596 -0.269088 -2.33052 0
M  V30 959 C 90.612 0.603251 -1.63208 0
M  V30 960 O 91.788 0.508112 -1.94885 0
M  V30 961 C 88.853 0.549091 -3.42324 0
M  V30 962 C 87.914 -0.347156 -4.27894 0
M  V30 963 C 87.147 0.43207 -5.31948 0
M  V30 964 O 87.37 1.66409 -5.45586 0
M  V30 965 O 86.304 -0.192298 -6.01593 0
M  V30 966 H 90.13 -1.09243 -2.83372 0
M  V30 967 H 87.715 -0.598198 -1.36901 0
M  V30 968 H 89.597 1.01414 -4.09015 0
M  V30 969 H 88.272 1.34955 -2.94226 0
M  V30 970 H 87.179 -0.859979 -3.64081 0
M  V30 971 H 88.512 -1.1123 -4.79467 0
M  V30 972 N 90.1641 1.46063 -0.591896 0
M  V30 973 C 91.3921 2.06717 -0.0868936 0
M  V30 974 C 91.8071 1.43916 1.22203 0
M  V30 975 O 91.1641 0.547698 1.74088 0
M  V30 976 C 91.2151 3.6142 0.0758725 0
M  V30 977 O 90.9361 4.21874 -1.18126 0
M  V30 978 C 92.4371 4.39025 0.61416 0
M  V30 979 H 89.6571 0.668162 -0.0616518 0
M  V30 980 H 92.2011 1.8755 -0.815175 0
M  V30 981 H 90.3561 3.79983 0.754413 0
M  V30 982 H 90.7701 5.14861 -1.00092 0
M  V30 983 H 92.2441 5.4783 0.677193 0
M  V30 984 H 92.7211 4.07708 1.63312 0
M  V30 985 H 93.3271 4.2529 -0.0298142 0
M  V30 986 N 91.6422 0.330177 1.54103 0
M  V30 987 C 92.8882 -0.270806 2.00984 0
M  V30 988 C 93.2212 -1.51265 1.21789 0
M  V30 989 O 92.4962 -1.92142 0.301927 0
M  V30 990 C 92.7792 -0.598339 3.55094 0
M  V30 991 C 92.6322 0.654674 4.4501 0
M  V30 992 C 93.9512 -1.41334 4.16789 0
M  V30 993 H 91.0702 -0.0969531 0.730595 0
M  V30 994 H 93.7122 0.448066 1.84641 0
M  V30 995 H 91.8622 -1.21078 3.69151 0
M  V30 996 H 93.5342 1.29285 4.42813 0
M  V30 997 H 91.7772 1.28224 4.14416 0
M  V30 998 H 92.4482 0.380944 5.50684 0
M  V30 999 H 94.9242 -0.895597 4.06347 0
M  V30 1000 H 93.8002 -1.61127 5.24718 0
M  V30 1001 H 94.0612 -2.41146 3.70541 0
M  V30 1002 N 93.1203 -1.57491 0.0584922 0
M  V30 1003 C 94.0503 -2.14988 -0.911178 0
M  V30 1004 C 95.0313 -1.07343 -1.31952 0
M  V30 1005 O 96.2163 -1.35318 -1.39294 0
M  V30 1006 C 93.3463 -2.70078 -2.18347 0
M  V30 1007 C 92.3003 -3.82771 -1.91495 0
M  V30 1008 C 91.6263 -4.24408 -3.25241 0
M  V30 1009 C 92.9263 -5.07592 -1.23075 0
M  V30 1010 H 94.6203 -2.96263 -0.432246 0
M  V30 1011 H 92.1663 -1.42512 -0.206469 0
M  V30 1012 H 94.1193 -3.08943 -2.86587 0
M  V30 1013 H 92.8433 -1.86005 -2.68458 0
M  V30 1014 H 91.5023 -3.44389 -1.25664 0
M  V30 1015 H 91.1503 -3.37275 -3.73168 0
M  V30 1016 H 90.8503 -5.00366 -3.08071 0
M  V30 1017 H 92.3743 -4.65879 -3.94701 0
M  V30 1018 H 93.7883 -5.43857 -1.81362 0
M  V30 1019 H 92.1853 -5.88741 -1.16207 0
M  V30 1020 H 93.2553 -4.84454 -0.207847 0
M  V30 1021 N 94.5984 0.214957 -1.56127 0
M  V30 1022 C 95.5614 1.24997 -1.92116 0
M  V30 1023 C 96.5614 1.39467 -0.800344 0
M  V30 1024 O 97.7514 1.37619 -1.06802 0
M  V30 1025 C 94.8834 2.62271 -2.17777 0
M  V30 1026 H 96.0764 0.942875 -2.84693 0
M  V30 1027 H 93.6294 0.455654 -1.49511 0
M  V30 1028 H 94.3644 2.98068 -1.27773 0
M  V30 1029 H 94.1494 2.53143 -2.99434 0
M  V30 1030 H 95.6394 3.36946 -2.46693 0
M  V30 1031 N 96.0765 1.50051 0.48192 0
M  V30 1032 C 97.4925 1.37237 0.814756 0
M  V30 1033 C 97.6925 0.420109 1.97072 0
M  V30 1034 O 96.7485 -0.141246 2.52105 0
M  V30 1035 C 98.0615 2.78375 1.13701 0
M  V30 1036 C 99.6095 2.87213 1.2441 0
M  V30 1037 C 100.084 4.29161 1.59954 0
M  V30 1038 N 101.575 4.32061 1.66967 0
M  V30 1039 C 102.31 5.38879 1.95952 0
M  V30 1040 N 101.806 6.55918 2.23031 0
M  V30 1041 N 103.599 5.26312 1.97363 0
M  V30 1042 H 95.7505 2.10546 -0.28005 0
M  V30 1043 H 98.0135 0.945921 -0.0627454 0
M  V30 1044 H 97.7195 3.49845 0.360787 0
M  V30 1045 H 97.5935 3.14941 2.07586 0
M  V30 1046 H 99.9805 2.15969 2.01101 0
M  V30 1047 H 100.061 2.54204 0.285299 0
M  V30 1048 H 99.7055 5.00938 0.838067 0
M  V30 1049 H 99.6355 4.59648 2.56966 0
M  V30 1050 H 102.126 3.47661 1.48123 0
M  V30 1051 H 102.439 7.33139 2.44391 0
M  V30 1052 H 100.784 6.59112 2.20447 0
M  V30 1053 H 103.975 4.33876 1.75697 0
M  V30 1054 H 104.148 6.09649 2.19618 0
M  V30 1055 N 97.5546 -0.734337 1.39446 0
M  V30 1056 C 98.7946 -1.50655 1.38139 0
M  V30 1057 C 99.1586 -1.91986 -0.0228701 0
M  V30 1058 O 100.36 -2.68318 -0.160947 0
M  V30 1059 C 98.6306 -2.71251 2.32718 0
M  V30 1060 S 100.19 -3.60892 2.49605 0
M  V30 1061 H 97.0076 -0.515315 0.489869 0
M  V30 1062 H 99.6096 -0.860392 1.75549 0
M  V30 1063 H 98.3136 -2.39027 3.33608 0
M  V30 1064 H 97.8446 -3.40795 1.96526 0
M  V30 1065 H 99.8596 -4.64899 1.73446 0
M  V30 1066 N 99.0327 -1.24633 -0.964593 0
M  V30 1067 C 100.279 -1.08949 -1.71049 0
M  V30 1068 C 100.612 0.370302 -1.90637 0
M  V30 1069 O 99.8867 1.27349 -1.47011 0
M  V30 1070 C 100.17 -1.83329 -3.0994 0
M  V30 1071 C 100.023 -3.37077 -2.97824 0
M  V30 1072 C 101.342 -1.60846 -4.09654 0
M  V30 1073 H 98.4607 -0.397178 -0.620821 0
M  V30 1074 H 101.103 -1.5334 -1.12191 0
M  V30 1075 H 99.2527 -1.45597 -3.60186 0
M  V30 1076 H 100.925 -3.84425 -2.5498 0
M  V30 1077 H 99.1677 -3.65298 -2.33965 0
M  V30 1078 H 99.8387 -3.84324 -3.96231 0
M  V30 1079 H 102.315 -1.93674 -3.68279 0
M  V30 1080 H 101.191 -2.1534 -5.04896 0
M  V30 1081 H 101.452 -0.547434 -4.38698 0
M  V30 1082 N 100.511 1.16574 -1.06058 0
M  V30 1083 C 101.458 2.20883 -0.669263 0
M  V30 1084 C 102.428 1.62729 0.332918 0
M  V30 1085 O 103.613 1.895 0.222346 0
M  V30 1086 C 100.753 3.45049 -0.0593572 0
M  V30 1087 C 99.8658 4.17458 -1.11143 0
M  V30 1088 C 99.0008 5.29135 -0.467916 0
M  V30 1089 C 98.0398 5.93343 -1.50369 0
M  V30 1090 N 97.1768 6.96516 -0.883706 0
M  V30 1091 H 102.017 2.53709 -1.5632 0
M  V30 1092 H 99.5538 1.24616 -0.781625 0
M  V30 1093 H 101.512 4.16033 0.311771 0
M  V30 1094 H 100.142 3.12781 0.797992 0
M  V30 1095 H 99.1938 3.45101 -1.60029 0
M  V30 1096 H 100.506 4.61307 -1.89731 0
M  V30 1097 H 99.6598 6.06684 -0.0436871 0
M  V30 1098 H 98.3988 4.86443 0.349864 0
M  V30 1099 H 97.4038 5.14517 -1.93784 0
M  V30 1100 H 98.6288 6.38114 -2.32352 0
M  V30 1101 H 96.5748 6.55943 -0.086595 0
M  V30 1102 H 96.4918 7.38723 -1.607 0
M  V30 1103 H 97.7598 7.77993 -0.484543 0
M  V30 1104 N 101.989 0.842826 1.3317 0
M  V30 1105 C 103.219 0.453397 2.01564 0
M  V30 1106 C 103.627 -0.951147 1.63554 0
M  V30 1107 O 102.97 -1.63021 0.846746 0
M  V30 1108 C 103.032 0.499013 3.5602 0
M  V30 1109 C 102.696 1.86037 4.1742 0
M  V30 1110 C 103.693 2.82416 4.36506 0
M  V30 1111 C 101.378 2.15428 4.53757 0
M  V30 1112 C 103.372 4.06346 4.91082 0
M  V30 1113 C 101.059 3.39615 5.0804 0
M  V30 1114 C 102.057 4.3489 5.26649 0
M  V30 1115 O 101.745 5.5688 5.79776 0
M  V30 1116 H 101.477 0.177871 0.652179 0
M  V30 1117 H 104.031 1.13808 1.70988 0
M  V30 1118 H 102.261 -0.242467 3.85939 0
M  V30 1119 H 103.95 0.126852 4.05702 0
M  V30 1120 H 104.716 2.6101 4.08777 0
M  V30 1121 H 100.595 1.42061 4.38565 0
M  V30 1122 H 104.139 4.80722 5.05522 0
M  V30 1123 H 100.036 3.60876 5.352 0
M  V30 1124 H 100.804 5.58674 5.98185 0
M  V30 1125 N 103.467 -1.45747 0.599634 0
M  V30 1126 C 104.695 -2.06668 0.0978551 0
M  V30 1127 C 105.11 -1.44562 -1.21439 0
M  V30 1128 O 104.467 -0.556923 -1.73795 0
M  V30 1129 C 104.518 -3.61456 -0.0567044 0
M  V30 1130 O 104.239 -4.21242 1.20361 0
M  V30 1131 C 105.74 -4.39345 -0.590869 0
M  V30 1132 H 102.96 -0.667825 0.0651943 0
M  V30 1133 H 105.504 -1.87115 0.82511 0
M  V30 1134 H 103.659 -3.80378 -0.734251 0
M  V30 1135 H 104.073 -5.14323 1.02821 0
M  V30 1136 H 105.547 -5.48182 -0.648131 0
M  V30 1137 H 106.024 -4.08568 -1.61147 0
M  V30 1138 H 106.63 -4.25268 0.0523679 0
M  V30 1139 N 104.945 -0.338344 -1.53925 0
M  V30 1140 C 105.855 0.529421 -2.28548 0
M  V30 1141 C 106.871 1.11645 -1.3346 0
M  V30 1142 O 108.047 1.13325 -1.66492 0
M  V30 1143 C 105.112 1.66713 -3.03987 0
M  V30 1144 C 104.173 1.11041 -4.14691 0
M  V30 1145 C 103.406 2.19389 -4.86522 0
M  V30 1146 O 103.629 3.40013 -4.57982 0
M  V30 1147 O 102.563 1.83976 -5.73094 0
M  V30 1148 H 106.389 -0.0770399 -3.03602 0
M  V30 1149 H 103.974 -0.103555 -1.49041 0
M  V30 1150 H 105.856 2.32918 -3.5118 0
M  V30 1151 H 104.531 2.25949 -2.31794 0
M  V30 1152 H 103.438 0.413024 -3.71813 0
M  V30 1153 H 104.771 0.562975 -4.8897 0
M  V30 1154 N 106.423 1.57458 -0.0668435 0
M  V30 1155 C 107.672 1.92477 0.602947 0
M  V30 1156 C 107.985 0.948419 1.71068 0
M  V30 1157 O 109.191 1.19124 2.43971 0
M  V30 1158 C 107.647 3.41903 1.12383 0
M  V30 1159 C 107.255 4.47975 0.04737 0
M  V30 1160 C 108.999 3.85931 1.76797 0
M  V30 1161 C 106.906 5.88529 0.582022 0
M  V30 1162 H 105.836 0.718387 0.22899 0
M  V30 1163 H 108.487 1.82978 -0.138276 0
M  V30 1164 H 106.869 3.46459 1.91787 0
M  V30 1165 H 108.043 4.55029 -0.726978 0
M  V30 1166 H 106.358 4.13384 -0.500243 0
M  V30 1167 H 108.955 4.88322 2.17821 0
M  V30 1168 H 109.298 3.23029 2.62599 0
M  V30 1169 H 109.831 3.83958 1.04024 0
M  V30 1170 H 106.57 6.55065 -0.238721 0
M  V30 1171 H 106.09 5.85004 1.324 0
M  V30 1172 H 107.769 6.38258 1.05999 0
M  V30 1173 N 107.901 -0.206675 1.56239 0
M  V30 1174 C 108.851 -1.26 1.90021 0
M  V30 1175 C 109.835 -1.41566 0.764721 0
M  V30 1176 O 111.027 -1.44131 1.02739 0
M  V30 1177 C 108.156 -2.6073 2.23326 0
M  V30 1178 C 107.242 -2.49005 3.43304 0
M  V30 1179 N 107.633 -2.06946 4.61527 0
M  V30 1180 C 105.931 -2.79927 3.47213 0
M  V30 1181 C 106.632 -2.06832 5.43687 0
M  V30 1182 N 105.608 -2.47892 4.83788 0
M  V30 1183 H 109.41 -0.925955 2.78932 0
M  V30 1184 H 106.924 -0.415172 1.57003 0
M  V30 1185 H 108.921 -3.36798 2.45708 0
M  V30 1186 H 107.581 -2.94968 1.35735 0
M  V30 1187 H 108.592 -1.77839 4.86409 0
M  V30 1188 H 105.269 -3.18438 2.70006 0
M  V30 1189 H 106.659 -1.76312 6.48354 0
M  V30 1190 N 109.379 -1.50304 -0.473955 0
M  V30 1191 C 110.79 -1.54042 -1.0549 0
M  V30 1192 C 111.141 -0.342248 -1.93192 0
M  V30 1193 O 110.266 0.545157 -2.09421 0
M  V30 1194 C 110.861 -2.79152 -1.91989 0
M  V30 1195 C 109.42 -2.8558 -2.45196 0
M  V30 1196 C 108.567 -2.48295 -1.2347 0
M  V30 1197 H 111.518 -1.5661 -0.256693 0
M  V30 1198 H 111.539 -2.60845 -2.7702 0
M  V30 1199 H 111.051 -3.66339 -1.28131 0
M  V30 1200 H 109.152 -2.02738 -3.12615 0
M  V30 1201 H 109.265 -3.88403 -2.80499 0
M  V30 1202 H 107.629 -2.00669 -1.56856 0
M  V30 1203 H 108.412 -3.37787 -0.612789 0
M  V30 1204 N 110.857 0.726932 -1.39834 0
M  V30 1205 C 111.767 1.87131 -1.41489 0
M  V30 1206 C 112.783 1.71239 -0.308757 0
M  V30 1207 O 113.959 1.93701 -0.551529 0
M  V30 1208 C 111.024 3.22811 -1.26468 0
M  V30 1209 C 110.085 3.51039 -2.47124 0
M  V30 1210 C 109.318 4.80245 -2.3281 0
M  V30 1211 O 109.541 5.54537 -1.33585 0
M  V30 1212 O 108.475 5.08554 -3.21957 0
M  V30 1213 H 112.301 1.8869 -2.3797 0
M  V30 1214 H 109.886 0.875837 -1.21035 0
M  V30 1215 H 111.768 4.03877 -1.20255 0
M  V30 1216 H 110.443 3.22005 -0.330862 0
M  V30 1217 H 109.35 2.70027 -2.58914 0
M  V30 1218 H 110.683 3.56632 -3.39227 0
M  V30 1219 N 112.336 1.25143 0.95797 0
M  V30 1220 C 113.269 0.995565 2.05338 0
M  V30 1221 C 114.247 -0.0740423 1.62431 0
M  V30 1222 O 115.431 0.0649212 1.88388 0
M  V30 1223 C 112.558 0.504298 3.34925 0
M  V30 1224 C 111.604 1.56393 3.96792 0
M  V30 1225 S 112.437 3.14815 4.33188 0
M  V30 1226 C 113.593 2.67415 5.65898 0
M  V30 1227 H 113.826 1.92309 2.26726 0
M  V30 1228 H 111.359 1.08635 1.09716 0
M  V30 1229 H 113.317 0.227497 4.09869 0
M  V30 1230 H 111.978 -0.402671 3.11508 0
M  V30 1231 H 111.171 1.17082 4.90212 0
M  V30 1232 H 110.773 1.79124 3.28315 0
M  V30 1233 H 113.065 2.10833 6.4386 0
M  V30 1234 H 114.008 3.59463 6.10076 0
M  V30 1235 H 114.416 2.07521 5.24972 0
M  V30 1236 N 113.814 -1.1601 1.06675 0
M  V30 1237 C 115.23 -1.38622 0.790948 0
M  V30 1238 C 115.43 -1.92109 -0.607965 0
M  V30 1239 O 114.486 -2.12239 -1.36787 0
M  V30 1240 C 115.799 -2.36347 1.85905 0
M  V30 1241 C 117.347 -2.50023 1.88301 0
M  V30 1242 C 117.822 -3.51033 2.94176 0
M  V30 1243 N 119.313 -3.58563 2.93235 0
M  V30 1244 C 120.048 -4.36521 3.71803 0
M  V30 1245 N 119.544 -5.17869 4.602 0
M  V30 1246 N 121.337 -4.31541 3.60178 0
M  V30 1247 H 113.488 -0.796294 1.96908 0
M  V30 1248 H 115.751 -0.412597 0.853503 0
M  V30 1249 H 115.457 -2.04147 2.86386 0
M  V30 1250 H 115.331 -3.36042 1.71334 0
M  V30 1251 H 117.718 -2.81524 0.884769 0
M  V30 1252 H 117.799 -1.5035 2.06951 0
M  V30 1253 H 117.443 -3.20268 3.94196 0
M  V30 1254 H 117.373 -4.50445 2.72776 0
M  V30 1255 H 119.864 -3.00496 2.29152 0
M  V30 1256 H 120.177 -5.74578 5.16797 0
M  V30 1257 H 118.522 -5.17199 4.64253 0
M  V30 1258 H 121.713 -3.67051 2.90502 0
M  V30 1259 H 121.886 -4.9205 4.21653 0
M  V30 1260 N 115.292 -0.849877 -1.32721 0
M  V30 1261 C 116.242 -0.262892 -2.26479 0
M  V30 1262 C 117.226 0.588493 -1.49752 0
M  V30 1263 O 118.418 0.438659 -1.71478 0
M  V30 1264 C 115.547 0.551818 -3.38836 0
M  V30 1265 C 114.633 -0.311689 -4.22953 0
M  V30 1266 N 115.024 -1.39567 -4.86163 0
M  V30 1267 C 113.322 -0.100611 -4.45887 0
M  V30 1268 C 114.023 -1.92651 -5.48872 0
M  V30 1269 N 112.999 -1.22637 -5.29586 0
M  V30 1270 H 116.801 -1.09166 -2.72873 0
M  V30 1271 H 114.315 -0.695486 -1.46754 0
M  V30 1272 H 116.312 0.988713 -4.05006 0
M  V30 1273 H 114.972 1.37844 -2.93988 0
M  V30 1274 H 115.983 -1.77859 -4.86402 0
M  V30 1275 H 112.66 0.691681 -4.11731 0
M  V30 1276 H 114.05 -2.83487 -6.09167 0
M  V30 1277 N 116.77 1.45427 -0.607355 0
M  V30 1278 C 118.016 2.0254 -0.102607 0
M  V30 1279 C 118.349 1.47478 1.26348 0
M  V30 1280 O 117.624 0.64939 1.83339 0
M  V30 1281 C 117.907 3.60044 -0.0634347 0
M  V30 1282 C 117.76 4.2544 -1.46017 0
M  V30 1283 C 119.079 4.35646 0.624514 0
M  V30 1284 H 116.198 0.73598 -0.0387607 0
M  V30 1285 H 118.84 1.73284 -0.779282 0
M  V30 1286 H 116.99 3.85101 0.512808 0
M  V30 1287 H 118.662 4.11569 -2.08347 0
M  V30 1288 H 116.905 3.83849 -2.02094 0
M  V30 1289 H 117.576 5.34342 -1.385 0
M  V30 1290 H 120.052 4.15882 0.134723 0
M  V30 1291 H 118.928 5.45376 0.621028 0
M  V30 1292 H 119.189 4.08501 1.69055 0
M  V30 1293 N 118.248 0.346503 1.53744 0
M  V30 1294 C 119.525 -0.304532 1.93215 0
M  V30 1295 C 119.905 -1.67993 1.27834 0
M  V30 1296 O 119.253 -2.24411 0.430352 0
M  V30 1297 C 119.463 -0.373852 3.46992 0
M  V30 1298 C 120.811 -0.62329 4.2 0
M  V30 1299 O 121.835 -0.455847 3.53271 0
M  V30 1300 O 120.694 -0.947879 5.38217 0
M  V30 1301 H 117.788 -0.178318 0.807547 0
M  V30 1302 H 120.334 0.397895 1.64969 0
M  V30 1303 H 119.106 0.591224 3.86808 0
M  V30 1304 H 118.729 -1.12294 3.81413 0
M  V30 1305 N 119.726 -1.57421 0.075193 0
M  V30 1306 C 120.966 -1.95495 -0.596757 0
M  V30 1307 C 121.33 -0.954886 -1.66571 0
M  V30 1308 O 122.531 -1.22341 -2.39345 0
M  V30 1309 C 120.802 -3.382 -1.15566 0
M  V30 1310 S 122.361 -3.98254 -1.84226 0
M  V30 1311 H 119.179 -0.683649 -0.195307 0
M  V30 1312 H 121.781 -1.94925 0.149859 0
M  V30 1313 H 120.485 -4.08766 -0.36588 0
M  V30 1314 H 120.016 -3.42321 -1.93856 0
M  V30 1315 H 122.031 -3.85435 -3.12497 0
M  V30 1316 N 121.204 0.198386 -1.56346 0
M  V30 1317 C 122.136 1.26987 -1.90806 0
M  V30 1318 C 123.149 1.41877 -0.798419 0
M  V30 1319 O 124.338 1.42362 -1.07682 0
M  V30 1320 C 121.438 2.64246 -2.12196 0
M  V30 1321 C 120.611 2.71007 -3.43328 0
M  V30 1322 C 119.67 3.89439 -3.5387 0
M  V30 1323 O 118.696 3.76695 -4.26719 0
M  V30 1324 N 119.898 5.04752 -2.86715 0
M  V30 1325 H 122.663 0.977433 -2.83313 0
M  V30 1326 H 120.224 0.388322 -1.57174 0
M  V30 1327 H 122.216 3.41896 -2.1654 0
M  V30 1328 H 120.786 2.85992 -1.26204 0
M  V30 1329 H 120.006 1.79657 -3.50881 0
M  V30 1330 H 121.294 2.72512 -4.29668 0
M  V30 1331 H 120.692 5.18004 -2.2735 0
M  V30 1332 H 119.249 5.8036 -2.96691 0
M  V30 1333 N 122.682 1.50554 0.465978 0
M  V30 1334 C 123.907 1.65838 1.24549 0
M  V30 1335 C 124.332 0.343486 1.84937 0
M  V30 1336 O 123.69 -0.69324 1.67523 0
M  V30 1337 C 123.738 2.75533 2.32624 0
M  V30 1338 O 122.842 2.37142 3.37398 0
M  V30 1339 H 122.183 0.553893 0.366194 0
M  V30 1340 H 124.713 1.96959 0.553927 0
M  V30 1341 H 124.723 2.98763 2.77857 0
M  V30 1342 H 123.398 3.70962 1.88043 0
M  V30 1343 H 121.975 2.24377 2.97841 0
M  V30 1344 N 124.16 -0.719506 1.40217 0
M  V30 1345 C 125.406 -1.48152 1.38488 0
M  V30 1346 C 125.739 -1.94195 -0.0141867 0
M  V30 1347 O 125.014 -1.67884 -0.982096 0
M  V30 1348 C 125.297 -2.71035 2.37091 0
M  V30 1349 C 125.15 -2.30912 3.86005 0
M  V30 1350 C 126.469 -3.73182 2.33288 0
M  V30 1351 H 123.588 -0.537395 0.504357 0
M  V30 1352 H 126.23 -0.821472 1.71324 0
M  V30 1353 H 124.38 -3.27352 2.0922 0
M  V30 1354 H 126.052 -1.80107 4.24687 0
M  V30 1355 H 124.295 -1.62958 4.02029 0
M  V30 1356 H 124.966 -3.18978 4.50508 0
M  V30 1357 H 127.442 -3.26485 2.57966 0
M  V30 1358 H 126.318 -4.56806 3.04334 0
M  V30 1359 H 126.579 -4.21202 1.34317 0
M  V30 1360 N 125.638 -1.25649 -0.95132 0
M  V30 1361 C 126.884 -1.11766 -1.69941 0
M  V30 1362 C 127.239 0.33735 -1.89419 0
M  V30 1363 O 126.532 1.24491 -1.45645 0
M  V30 1364 C 126.726 -1.80909 -3.08231 0
M  V30 1365 C 126.555 -3.32984 -3.02245 0
M  V30 1366 C 125.325 -4.02247 -3.05819 0
M  V30 1367 C 127.523 -4.29332 -2.83157 0
M  V30 1368 N 125.505 -5.41072 -2.90024 0
M  V30 1369 C 126.876 -5.55265 -2.75828 0
M  V30 1370 C 128.931 -4.19707 -2.67863 0
M  V30 1371 C 127.634 -6.72671 -2.54767 0
M  V30 1372 C 129.66 -5.36809 -2.48173 0
M  V30 1373 C 129.022 -6.61683 -2.41567 0
M  V30 1374 H 125.121 -0.463708 -0.629682 0
M  V30 1375 H 127.705 -1.58796 -1.12659 0
M  V30 1376 H 125.876 -1.36369 -3.63673 0
M  V30 1377 H 127.608 -1.59739 -3.71841 0
M  V30 1378 H 124.363 -3.53531 -3.15139 0
M  V30 1379 H 124.787 -6.13938 -2.85323 0
M  V30 1380 H 129.429 -3.23907 -2.71743 0
M  V30 1381 H 127.147 -7.68577 -2.49629 0
M  V30 1382 H 130.733 -5.31224 -2.37259 0
M  V30 1383 H 129.613 -7.50768 -2.26531 0
M  V30 1384 N 127.117 1.15442 -1.07289 0
M  V30 1385 C 128.394 1.82306 -0.708792 0
M  V30 1386 C 128.774 1.94991 0.808807 0
M  V30 1387 O 128.122 1.50085 1.72298 0
M  V30 1388 C 128.332 3.18695 -1.42247 0
M  V30 1389 C 129.68 3.94341 -1.57417 0
M  V30 1390 O 130.704 3.28247 -1.38319 0
M  V30 1391 O 129.563 5.12839 -1.88834 0
M  V30 1392 H 126.657 0.787628 -0.252132 0
M  V30 1393 H 129.203 1.22559 -1.17377 0
M  V30 1394 H 127.975 3.04557 -2.45684 0
M  V30 1395 H 127.598 3.86128 -0.948223 0
M  V30 1396 N 128.595 0.856903 1.32268 0
M  V30 1397 C 129.558 0.308171 2.27119 0
M  V30 1398 C 130.558 -0.533421 1.51695 0
M  V30 1399 O 131.748 -0.344607 1.70757 0
M  V30 1400 C 128.88 -0.563757 3.36206 0
M  V30 1401 H 130.073 1.14535 2.77167 0
M  V30 1402 H 127.626 0.631421 1.42978 0
M  V30 1403 H 128.361 -1.42266 2.91429 0
M  V30 1404 H 128.146 0.0386749 3.92081 0
M  V30 1405 H 129.636 -0.940386 4.06874 0
M  V30 1406 N 130.073 -1.45103 0.615059 0
M  V30 1407 C 131.32 -2.02183 0.113179 0
M  V30 1408 C 131.648 -1.48249 -1.25906 0
M  V30 1409 O 130.903 -0.650265 -1.84581 0
M  V30 1410 C 131.202 -3.57386 0.0318797 0
M  V30 1411 C 130.868 -4.30505 1.34077 0
M  V30 1412 C 129.53 -4.50197 1.69929 0
M  V30 1413 C 131.882 -4.72238 2.20546 0
M  V30 1414 C 129.21 -5.08881 2.91988 0
M  V30 1415 C 131.562 -5.32272 3.41861 0
M  V30 1416 C 130.226 -5.50187 3.77956 0
M  V30 1417 H 129.496 -0.739842 0.0414151 0
M  V30 1418 H 132.143 -1.74073 0.798168 0
M  V30 1419 H 130.448 -3.84817 -0.736409 0
M  V30 1420 H 132.145 -3.99264 -0.372712 0
M  V30 1421 H 128.735 -4.15496 1.05173 0
M  V30 1422 H 132.919 -4.56751 1.94146 0
M  V30 1423 H 128.175 -5.20939 3.2005 0
M  V30 1424 H 132.349 -5.63563 4.09109 0
M  V30 1425 H 129.976 -5.95427 4.72622 0
M  V30 1426 N 131.551 -0.354651 -1.53558 0
M  V30 1427 C 132.498 0.496968 -2.25386 0
M  V30 1428 C 133.468 1.0865 -1.25636 0
M  V30 1429 O 134.653 1.12104 -1.54394 0
M  V30 1430 C 131.793 1.63637 -3.03837 0
M  V30 1431 C 130.906 1.07307 -4.18461 0
M  V30 1432 C 130.041 2.18068 -4.84376 0
M  V30 1433 C 129.08 1.59147 -5.91049 0
M  V30 1434 N 128.217 2.63695 -6.50699 0
M  V30 1435 H 133.057 -0.122075 -2.9775 0
M  V30 1436 H 130.594 -0.0720154 -1.46924 0
M  V30 1437 H 132.552 2.30734 -3.47589 0
M  V30 1438 H 131.182 2.22623 -2.33749 0
M  V30 1439 H 130.234 0.292708 -3.79272 0
M  V30 1440 H 131.546 0.602193 -4.95152 0
M  V30 1441 H 130.7 2.93007 -5.31255 0
M  V30 1442 H 129.439 2.68504 -4.07133 0
M  V30 1443 H 128.444 0.827175 -5.43542 0
M  V30 1444 H 129.669 1.09549 -6.70206 0
M  V30 1445 H 127.615 3.13365 -5.76315 0
M  V30 1446 H 127.532 2.21263 -7.22896 0
M  V30 1447 H 128.8 3.3837 -7.02229 0
M  V30 1448 N 133.029 1.57378 -0.0835403 0
M  V30 1449 C 134.277 1.93547 0.581718 0
M  V30 1450 C 134.598 0.96524 1.69435 0
M  V30 1451 O 133.868 0.0153369 1.95894 0
M  V30 1452 H 132.448 0.714521 0.217874 0
M  V30 1453 H 135.11 1.94366 -0.144158 0
M  V30 1454 H 134.206 2.95665 0.999423 0
M  V30 1455 N 134.507 -0.190092 1.56449 0
M  V30 1456 C 135.47 -1.21925 1.9408 0
M  V30 1457 C 136.47 -1.38176 0.822431 0
M  V30 1458 O 137.66 -1.35903 1.08977 0
M  V30 1459 C 134.792 -2.58773 2.21922 0
M  V30 1460 H 135.985 -0.897464 2.86157 0
M  V30 1461 H 133.538 -0.43181 1.50217 0
M  V30 1462 H 134.273 -2.95998 1.32499 0
M  V30 1463 H 134.058 -2.48348 3.03424 0
M  V30 1464 H 135.548 -3.32978 2.52022 0
M  V30 1465 N 135.985 -1.50799 -0.457987 0
M  V30 1466 C 137.232 -1.62442 -1.20908 0
M  V30 1467 C 137.56 -0.330865 -1.91665 0
M  V30 1468 O 136.815 0.68401 -1.83357 0
M  V30 1469 C 137.114 -2.76358 -2.2663 0
M  V30 1470 C 136.78 -4.16378 -1.73033 0
M  V30 1471 C 135.442 -4.54473 -1.58138 0
M  V30 1472 C 137.794 -5.03836 -1.33413 0
M  V30 1473 C 135.122 -5.77754 -1.02065 0
M  V30 1474 C 137.474 -6.27676 -0.78778 0
M  V30 1475 C 136.138 -6.64562 -0.625561 0
M  V30 1476 H 135.408 -0.594417 -0.442435 0
M  V30 1477 H 138.055 -1.84772 -0.503136 0
M  V30 1478 H 136.36 -2.48167 -3.03184 0
M  V30 1479 H 138.057 -2.82568 -2.84528 0
M  V30 1480 H 134.647 -3.86331 -1.85598 0
M  V30 1481 H 138.831 -4.75026 -1.4375 0
M  V30 1482 H 134.087 -6.04997 -0.882547 0
M  V30 1483 H 138.261 -6.94797 -0.472177 0
M  V30 1484 H 135.888 -7.59965 -0.188926 0
M  V30 1485 N 137.463 0.71206 -1.40597 0
M  V30 1486 C 138.712 1.46754 -1.38369 0
M  V30 1487 C 139.025 1.95598 0.0097839 0
M  V30 1488 O 140.231 2.71059 0.154677 0
M  V30 1489 C 138.687 2.65289 -2.43207 0
M  V30 1490 C 138.295 2.23301 -3.88382 0
M  V30 1491 C 140.039 3.43008 -2.50091 0
M  V30 1492 C 137.946 3.38696 -4.84808 0
M  V30 1493 H 136.876 0.55118 -0.514506 0
M  V30 1494 H 139.527 0.774616 -1.66349 0
M  V30 1495 H 137.909 3.36769 -2.08332 0
M  V30 1496 H 139.083 1.59218 -4.32419 0
M  V30 1497 H 137.398 1.58618 -3.85006 0
M  V30 1498 H 139.995 4.28881 -3.1932 0
M  V30 1499 H 140.338 3.87065 -1.53253 0
M  V30 1500 H 140.871 2.78574 -2.83974 0
M  V30 1501 H 137.61 2.99668 -5.82992 0
M  V30 1502 H 137.13 4.01683 -4.45433 0
M  V30 1503 H 138.809 4.04712 -5.04794 0
M  V30 1504 N 138.941 1.26152 0.944643 0
M  V30 1505 C 140.166 1.14363 1.7302 0
M  V30 1506 C 140.591 -0.29772 1.85729 0
M  V30 1507 O 139.949 -1.2157 1.34501 0
M  V30 1508 C 139.997 1.81378 3.11664 0
M  V30 1509 O 139.101 1.10022 3.97453 0
M  V30 1510 H 138.442 0.398694 0.53098 0
M  V30 1511 H 140.972 1.66906 1.18337 0
M  V30 1512 H 140.982 1.88064 3.62072 0
M  V30 1513 H 139.657 2.86237 3.0173 0
M  V30 1514 H 138.234 1.11287 3.55907 0
M  V30 1515 N 140.419 -1.14872 1.07899 0
M  V30 1516 C 141.366 -2.19791 0.704319 0
M  V30 1517 C 142.336 -1.63238 -0.306987 0
M  V30 1518 O 143.521 -1.8983 -0.192171 0
M  V30 1519 C 140.661 -3.44911 0.114244 0
M  V30 1520 C 139.774 -4.15637 1.1777 0
M  V30 1521 C 138.909 -5.28324 0.552037 0
M  V30 1522 C 137.948 -5.90875 1.59789 0
M  V30 1523 N 137.085 -6.95022 0.994404 0
M  V30 1524 H 141.925 -2.5119 1.60336 0
M  V30 1525 H 139.462 -1.23356 0.801352 0
M  V30 1526 H 141.42 -4.16477 -0.245544 0
M  V30 1527 H 140.05 -3.14011 -0.74813 0
M  V30 1528 H 139.102 -3.42512 1.65499 0
M  V30 1529 H 140.414 -4.5823 1.97046 0
M  V30 1530 H 139.568 -6.06538 0.1402 0
M  V30 1531 H 138.307 -4.86939 -0.272431 0
M  V30 1532 H 137.312 -5.11369 2.01945 0
M  V30 1533 H 138.537 -6.34337 2.42474 0
M  V30 1534 H 136.483 -6.55722 0.190939 0
M  V30 1535 H 136.4 -7.36073 1.72432 0
M  V30 1536 H 137.668 -7.77123 0.608253 0
M  V30 1537 N 141.898 -0.863906 -1.31812 0
M  V30 1538 C 142.848 -0.286898 -2.26188 0
M  V30 1539 C 143.832 0.572577 -1.50367 0
M  V30 1540 O 145.024 0.420447 -1.71934 0
M  V30 1541 C 142.153 0.515849 -3.39402 0
M  V30 1542 C 141.239 -0.356531 -4.22599 0
M  V30 1543 N 141.63 -1.44716 -4.84656 0
M  V30 1544 C 139.928 -0.147898 -4.45755 0
M  V30 1545 C 140.629 -1.98462 -5.46798 0
M  V30 1546 N 139.605 -1.28247 -5.28255 0
M  V30 1547 H 143.407 -1.12055 -2.717 0
M  V30 1548 H 140.921 -0.711012 -1.46008 0
M  V30 1549 H 142.918 0.945701 -4.06032 0
M  V30 1550 H 141.578 1.34718 -2.95434 0
M  V30 1551 H 142.589 -1.83008 -4.84488 0
M  V30 1552 H 139.266 0.647973 -4.12441 0
M  V30 1553 H 140.656 -2.89932 -6.06126 0
M  V30 1554 N 143.376 1.44774 -0.622745 0
M  V30 1555 C 144.787 1.85546 -0.207226 0
M  V30 1556 C 145.138 1.52093 1.23944 0
M  V30 1557 O 144.263 0.95492 1.94191 0
M  V30 1558 C 144.858 3.36781 -0.369313 0
M  V30 1559 C 143.417 3.76399 -0.00836847 0
M  V30 1560 C 142.564 2.68664 -0.686651 0
M  V30 1561 H 145.515 1.3536 -0.828454 0
M  V30 1562 H 145.536 3.78453 0.394162 0
M  V30 1563 H 145.048 3.61098 -1.42231 0
M  V30 1564 H 143.149 3.57698 1.04322 0
M  V30 1565 H 143.262 4.7732 -0.412584 0
M  V30 1566 H 141.626 2.54404 -0.122777 0
M  V30 1567 H 142.409 2.95815 -1.74208 0
M  V30 1568 N 144.854 0.36279 1.53368 0
M  V30 1569 C 146.094 -0.227882 2.03126 0
M  V30 1570 C 146.458 -1.4622 1.24434 0
M  V30 1571 O 147.659 -2.12831 1.64184 0
M  V30 1572 C 145.93 -0.515427 3.53664 0
M  V30 1573 S 147.489 -1.08017 4.25297 0
M  V30 1574 H 144.307 -0.0665377 0.70788 0
M  V30 1575 H 146.909 0.50501 1.88865 0
M  V30 1576 H 145.613 0.390436 4.08539 0
M  V30 1577 H 145.144 -1.27747 3.72081 0
M  V30 1578 H 147.159 -2.36462 4.36234 0
M  V30 1579 N 146.332 -1.57332 0.0918853 0
M  V30 1580 C 147.28 -2.15075 -0.885747 0
M  V30 1581 C 148.274 -1.09277 -1.29441 0
M  V30 1582 O 149.48 -1.27627 -1.26931 0
M  V30 1583 H 145.855 -0.687966 -0.303656 0
M  V30 1584 H 147.826 -2.96047 -0.373995 0
M  V30 1585 C 146.575 -2.74325 -2.13638 0
M  V30 1586 H 145.898 -3.55418 -1.8308 0
M  V30 1587 H 147.338 -3.183 -2.80109 0
M  V30 1588 C 145.797 -1.70062 -2.90827 0
M  V30 1589 O 146.327 -1.13763 -3.85254 0
M  V30 1590 N 144.533 -1.40628 -2.54307 0
M  V30 1591 H 144.08 -1.866 -1.7759 0
M  V30 1592 H 144.038 -0.711043 -3.06254 0
M  V30 1593 N 147.81 0.181792 -1.56548 0
M  V30 1594 C 149.059 0.898348 -1.8059 0
M  V30 1595 C 149.372 1.83862 -0.667379 0
M  V30 1596 O 150.578 2.59678 -0.792446 0
M  V30 1597 C 149.034 1.64791 -3.19956 0
M  V30 1598 C 148.642 0.751789 -4.41647 0
M  V30 1599 C 150.386 2.35331 -3.53298 0
M  V30 1600 C 148.293 1.50098 -5.72035 0
M  V30 1601 H 147.223 0.339194 -0.673397 0
M  V30 1602 H 149.874 0.151413 -1.82874 0
M  V30 1603 H 148.256 2.43921 -3.11959 0
M  V30 1604 H 149.43 -0.0018076 -4.608 0
M  V30 1605 H 147.745 0.156562 -4.16106 0
M  V30 1606 H 150.342 2.91958 -4.47956 0
M  V30 1607 H 150.685 3.10164 -2.77676 0
M  V30 1608 H 151.218 1.63154 -3.62803 0
M  V30 1609 H 147.957 0.795175 -6.50659 0
M  V30 1610 H 147.477 2.22817 -5.56878 0
M  V30 1611 H 149.156 2.05125 -6.13622 0
M  V30 1612 N 149.288 1.51039 0.449983 0
M  V30 1613 C 150.516 1.66869 1.2232 0
M  V30 1614 C 150.931 0.360727 1.85322 0
M  V30 1615 O 150.288 -0.659531 1.70166 0
M  V30 1616 C 150.339 2.77524 2.31652 0
M  V30 1617 O 150.06 4.03252 1.7123 0
M  V30 1618 C 151.561 3.04512 3.2216 0
M  V30 1619 H 148.781 0.560326 0.369155 0
M  V30 1620 H 151.325 1.97385 0.534719 0
M  V30 1621 H 149.48 2.49642 2.96239 0
M  V30 1622 H 149.894 4.64609 2.43389 0
M  V30 1623 H 151.368 3.85551 3.95038 0
M  V30 1624 H 151.845 2.16415 3.8218 0
M  V30 1625 H 152.451 3.34005 2.63288 0
M  V30 1626 N 150.766 -0.704594 1.40972 0
M  V30 1627 C 151.676 -1.84856 1.44448 0
M  V30 1628 C 152.692 -1.70726 0.335961 0
M  V30 1629 O 153.868 -1.92799 0.582276 0
M  V30 1630 C 150.933 -3.20758 1.31587 0
M  V30 1631 C 149.994 -3.47063 2.52677 0
M  V30 1632 C 149.227 -4.76481 2.4042 0
M  V30 1633 O 149.45 -5.52341 1.42391 0
M  V30 1634 O 148.384 -5.03367 3.30007 0
M  V30 1635 H 152.21 -1.8488 2.40942 0
M  V30 1636 H 149.795 -0.85647 1.22413 0
M  V30 1637 H 151.677 -4.01913 1.26665 0
M  V30 1638 H 150.352 -3.21438 0.382049 0
M  V30 1639 H 149.259 -2.65873 2.63177 0
M  V30 1640 H 150.592 -3.5119 3.44858 0
M  V30 1641 N 152.244 -1.26651 -0.937939 0
M  V30 1642 C 153.154 -1.10276 -2.07066 0
M  V30 1643 C 154.17 -0.0354197 -1.73964 0
M  V30 1644 O 155.346 -0.239816 -1.99967 0
M  V30 1645 C 152.411 -0.740887 -3.38691 0
M  V30 1646 C 151.472 -1.88799 -3.85556 0
M  V30 1647 C 150.705 -1.54329 -5.10899 0
M  V30 1648 O 150.928 -0.446494 -5.6865 0
M  V30 1649 O 149.862 -2.37911 -5.52885 0
M  V30 1650 H 153.688 -2.05309 -2.23789 0
M  V30 1651 H 151.273 -1.05743 -1.0554 0
M  V30 1652 H 153.155 -0.55195 -4.1777 0
M  V30 1653 H 151.83 0.180022 -3.23199 0
M  V30 1654 H 150.737 -2.13191 -3.07409 0
M  V30 1655 H 152.07 -2.78874 -4.05574 0
M  V30 1656 N 153.722 1.14298 -1.08507 0
M  V30 1657 C 154.999 1.81544 -0.728088 0
M  V30 1658 C 155.379 1.95838 0.78808 0
M  V30 1659 O 154.727 1.51904 1.70697 0
M  V30 1660 C 154.937 3.17169 -1.45619 0
M  V30 1661 C 156.285 3.9265 -1.61591 0
M  V30 1662 O 157.309 3.26762 -1.41793 0
M  V30 1663 O 156.168 5.10807 -1.94263 0
M  V30 1664 H 153.262 0.78491 -0.260471 0
M  V30 1665 H 155.808 1.21307 -1.18671 0
M  V30 1666 H 154.58 3.01934 -2.489 0
M  V30 1667 H 154.203 3.851 -0.989124 0
M  V30 1668 N 155.201 0.870884 1.31352 0
M  V30 1669 C 156.431 0.496049 2.00557 0
M  V30 1670 C 156.839 -0.916241 1.65534 0
M  V30 1671 O 156.182 -1.61188 0.881134 0
M  V30 1672 C 156.244 0.574418 3.54881 0
M  V30 1673 C 155.908 1.94849 4.1338 0
M  V30 1674 C 156.905 2.91611 4.30417 0
M  V30 1675 C 154.59 2.25005 4.49086 0
M  V30 1676 C 156.584 4.16672 4.82352 0
M  V30 1677 C 154.271 3.50315 5.00722 0
M  V30 1678 C 155.269 4.45964 5.17306 0
M  V30 1679 O 154.957 5.69052 5.67833 0
M  V30 1680 H 154.689 0.191664 0.64826 0
M  V30 1681 H 157.243 1.17409 1.68536 0
M  V30 1682 H 155.473 -0.160549 3.86367 0
M  V30 1683 H 157.162 0.212879 4.05341 0
M  V30 1684 H 157.928 2.69622 4.03149 0
M  V30 1685 H 153.807 1.51332 4.35453 0
M  V30 1686 H 157.351 4.91336 4.95211 0
M  V30 1687 H 153.248 3.72147 5.27424 0
M  V30 1688 H 154.016 5.71236 5.86201 0
M  V30 1689 N 156.679 -1.44442 0.630414 0
M  V30 1690 C 157.611 -2.2892 -0.113347 0
M  V30 1691 C 158.624 -1.41243 -0.80959 0
M  V30 1692 O 159.813 -1.65402 -0.671156 0
M  V30 1693 C 156.913 -3.17594 -1.18266 0
M  V30 1694 C 156.086 -4.33682 -0.569073 0
M  V30 1695 C 155.145 -5.03397 -1.53226 0
M  V30 1696 O 154.171 -5.59438 -1.04967 0
M  V30 1697 N 155.373 -5.04783 -2.86661 0
M  V30 1698 H 158.138 -2.93392 0.611636 0
M  V30 1699 H 155.699 -1.54881 0.471523 0
M  V30 1700 H 157.691 -3.61097 -1.82732 0
M  V30 1701 H 156.261 -2.54876 -1.80988 0
M  V30 1702 H 155.481 -3.9338 0.254187 0
M  V30 1703 H 156.769 -5.08608 -0.139767 0
M  V30 1704 H 156.167 -4.60584 -3.28449 0
M  V30 1705 H 154.724 -5.52077 -3.46489 0
M  V30 1706 N 158.157 -0.370918 -1.53173 0
M  V30 1707 C 159.568 0.107139 -1.86392 0
M  V30 1708 C 159.919 1.47714 -1.29132 0
M  V30 1709 O 159.044 2.07464 -0.615439 0
M  V30 1710 C 159.639 0.201187 -3.38202 0
M  V30 1711 C 158.198 0.623507 -3.712 0
M  V30 1712 C 157.345 -0.225978 -2.76378 0
M  V30 1713 H 160.296 -0.58951 -1.47345 0
M  V30 1714 H 160.317 1.02377 -3.66468 0
M  V30 1715 H 159.829 -0.796058 -3.79848 0
M  V30 1716 H 157.93 1.62879 -3.35114 0
M  V30 1717 H 158.043 0.394414 -4.77474 0
M  V30 1718 H 156.407 0.305962 -2.52856 0
M  V30 1719 H 157.19 -1.22086 -3.20858 0
M  V30 1720 N 159.635 1.57281 -0.100228 0
M  V30 1721 C 160.565 2.17328 0.853857 0
M  V30 1722 C 161.546 1.10804 1.2906 0
M  V30 1723 O 162.731 1.38963 1.35657 0
M  V30 1724 C 159.861 2.75772 2.11109 0
M  V30 1725 C 158.815 3.87713 1.81279 0
M  V30 1726 C 158.141 4.32882 3.13874 0
M  V30 1727 C 159.441 5.10677 1.09574 0
M  V30 1728 H 161.135 2.97305 0.353545 0
M  V30 1729 H 158.681 1.43009 0.168612 0
M  V30 1730 H 160.634 3.16433 2.78296 0
M  V30 1731 H 159.358 1.93057 2.63432 0
M  V30 1732 H 158.017 3.476 1.16489 0
M  V30 1733 H 157.665 3.47051 3.64095 0
M  V30 1734 H 157.365 5.08358 2.94696 0
M  V30 1735 H 158.889 4.7618 3.82211 0
M  V30 1736 H 160.303 5.48474 1.66879 0
M  V30 1737 H 158.7 5.91615 1.00557 0
M  V30 1738 H 159.77 4.84835 0.0793299 0
M  V30 1739 N 161.113 -0.173488 1.56642 0
M  V30 1740 C 162.046 -1.24353 1.91342 0
M  V30 1741 C 163.024 -1.4289 0.775965 0
M  V30 1742 O 164.208 -1.57932 1.02907 0
M  V30 1743 C 161.335 -2.60683 2.16245 0
M  V30 1744 C 160.381 -2.58894 3.38934 0
M  V30 1745 S 161.214 -2.0819 4.93373 0
M  V30 1746 C 162.37 -3.46302 5.21369 0
M  V30 1747 H 162.603 -0.947345 2.81803 0
M  V30 1748 H 160.136 -0.377958 1.49703 0
M  V30 1749 H 162.094 -3.39149 2.31275 0
M  V30 1750 H 160.755 -2.87502 1.26496 0
M  V30 1751 H 159.948 -3.59188 3.53553 0
M  V30 1752 H 159.55 -1.88522 3.2301 0
M  V30 1753 H 161.842 -4.42287 5.13214 0
M  V30 1754 H 162.785 -3.3656 6.23003 0
M  V30 1755 H 163.193 -3.42214 4.48943 0
M  V30 1756 N 162.591 -1.51276 -0.441967 0
M  V30 1757 C 163.538 -1.72256 -1.53612 0
M  V30 1758 C 164.508 -0.564164 -1.56225 0
M  V30 1759 O 165.693 -0.798074 -1.73307 0
M  V30 1760 C 162.833 -1.84932 -2.91366 0
M  V30 1761 C 161.946 -3.12459 -2.98317 0
M  V30 1762 C 161.081 -3.15758 -4.27166 0
M  V30 1763 C 160.12 -4.37619 -4.27967 0
M  V30 1764 N 159.257 -4.38493 -5.48333 0
M  V30 1765 H 164.097 -2.65654 -1.35026 0
M  V30 1766 H 161.634 -1.31662 -0.656009 0
M  V30 1767 H 163.592 -1.90263 -3.7129 0
M  V30 1768 H 162.222 -0.949461 -3.08521 0
M  V30 1769 H 161.274 -3.1646 -2.11086 0
M  V30 1770 H 162.586 -4.02382 -2.94771 0
M  V30 1771 H 161.74 -3.19979 -5.15459 0
M  V30 1772 H 160.479 -2.23715 -4.33362 0
M  V30 1773 H 159.484 -4.33579 -3.38067 0
M  V30 1774 H 160.709 -5.30921 -4.23438 0
M  V30 1775 H 158.655 -3.49318 -5.55259 0
M  V30 1776 H 158.572 -5.22219 -5.46647 0
M  V30 1777 H 159.84 -4.469 -6.38671 0
M  V30 1778 N 164.069 0.697108 -1.41344 0
M  V30 1779 C 164.999 1.82353 -1.45841 0
M  V30 1780 C 165.98 1.67115 -0.317247 0
M  V30 1781 O 167.165 1.86871 -0.528474 0
M  V30 1782 C 164.295 3.20476 -1.33838 0
M  V30 1783 C 163.249 3.50415 -2.4575 0
M  V30 1784 C 162.575 4.87878 -2.18813 0
M  V30 1785 C 163.875 3.49546 -3.88091 0
M  V30 1786 H 165.569 1.78846 -2.40113 0
M  V30 1787 H 163.115 0.859028 -1.15571 0
M  V30 1788 H 165.068 3.98988 -1.35596 0
M  V30 1789 H 163.792 3.24604 -0.360498 0
M  V30 1790 H 162.451 2.74253 -2.43271 0
M  V30 1791 H 162.099 4.8863 -1.19371 0
M  V30 1792 H 161.799 5.08875 -2.93803 0
M  V30 1793 H 163.323 5.68702 -2.22284 0
M  V30 1794 H 164.737 4.18066 -3.92293 0
M  V30 1795 H 163.134 3.82075 -4.62751 0
M  V30 1796 H 164.204 2.48552 -4.16353 0
M  V30 1797 N 165.547 1.27147 0.931209 0
M  V30 1798 C 166.795 1.13055 1.6752 0
M  V30 1799 C 167.116 -0.324791 1.92276 0
M  V30 1800 O 166.386 -1.22775 1.52654 0
M  V30 1801 H 164.966 0.415391 0.620854 0
M  V30 1802 H 167.628 1.59623 1.11833 0
M  V30 1803 H 166.724 1.65694 2.64485 0
M  V30 1804 N 167.025 -1.13721 1.09112 0
M  V30 1805 C 168.253 -1.88773 0.846899 0
M  V30 1806 C 168.668 -1.7896 -0.601572 0
M  V30 1807 O 168.025 -1.15394 -1.41388 0
M  V30 1808 C 168.076 -3.3849 1.26913 0
M  V30 1809 O 167.797 -3.48043 2.66079 0
M  V30 1810 C 169.298 -4.30518 1.05682 0
M  V30 1811 H 166.518 -0.59772 0.304914 0
M  V30 1812 H 169.062 -1.43977 1.45227 0
M  V30 1813 H 167.217 -3.80881 0.707723 0
M  V30 1814 H 167.631 -4.4109 2.83795 0
M  V30 1815 H 169.105 -5.3391 1.40156 0
M  V30 1816 H 169.582 -4.392 -0.00563416 0
M  V30 1817 H 170.188 -3.93893 1.60402 0
M  V30 1818 N 168.503 -0.877838 -1.30888 0
M  V30 1819 C 169.435 -0.296607 -2.27273 0
M  V30 1820 C 170.448 0.544799 -1.53414 0
M  V30 1821 O 171.637 0.365511 -1.74718 0
M  V30 1822 C 168.737 0.597481 -3.33592 0
M  V30 1823 C 167.91 -0.213251 -4.3688 0
M  V30 1824 C 166.969 0.610208 -5.2265 0
M  V30 1825 O 165.995 0.035441 -5.69189 0
M  V30 1826 N 167.197 1.92071 -5.47804 0
M  V30 1827 H 169.962 -1.12492 -2.77787 0
M  V30 1828 H 167.523 -0.740105 -1.43993 0
M  V30 1829 H 169.515 1.15425 -3.87891 0
M  V30 1830 H 168.085 1.32647 -2.83061 0
M  V30 1831 H 167.305 -0.951466 -3.82545 0
M  V30 1832 H 168.593 -0.769262 -5.02951 0
M  V30 1833 H 167.991 2.4107 -5.11763 0
M  V30 1834 H 166.548 2.42508 -6.05007 0
M  V30 1835 N 169.982 1.44106 -0.638065 0
M  V30 1836 C 171.21 2.06336 -0.152615 0
M  V30 1837 C 171.625 1.47731 1.17563 0
M  V30 1838 O 170.982 0.602806 1.72257 0
M  V30 1839 C 171.033 3.61479 -0.0391491 0
M  V30 1840 O 170.754 4.17903 -1.31487 0
M  V30 1841 C 172.255 4.40757 0.474176 0
M  V30 1842 H 169.475 0.665862 -0.0828776 0
M  V30 1843 H 172.019 1.84862 -0.87443 0
M  V30 1844 H 170.174 3.82191 0.633142 0
M  V30 1845 H 170.588 5.11416 -1.16421 0
M  V30 1846 H 172.062 5.49707 0.502562 0
M  V30 1847 H 172.539 4.12697 1.50258 0
M  V30 1848 H 173.145 4.24979 -0.165102 0
M  V30 1849 N 171.46 0.379036 1.52974 0
M  V30 1850 C 172.706 -0.206727 2.01744 0
M  V30 1851 C 173.039 -1.47314 1.26539 0
M  V30 1852 O 172.314 -1.91084 0.362903 0
M  V30 1853 C 172.597 -0.485066 3.56818 0
M  V30 1854 C 172.45 0.795919 4.42702 0
M  V30 1855 C 173.769 -1.28003 4.21074 0
M  V30 1856 H 170.888 -0.0736607 0.73331 0
M  V30 1857 H 173.53 0.506581 1.83122 0
M  V30 1858 H 171.68 -1.09272 3.72816 0
M  V30 1859 H 173.352 1.43307 4.38476 0
M  V30 1860 H 171.595 1.41344 4.10127 0
M  V30 1861 H 172.266 0.555947 5.49193 0
M  V30 1862 H 174.742 -0.765867 4.08991 0
M  V30 1863 H 173.618 -1.44352 5.29579 0
M  V30 1864 H 173.879 -2.29236 3.78026 0
M  V30 1865 N 172.938 -1.57226 0.108567 0
M  V30 1866 C 174.349 -1.8195 -0.418464 0
M  V30 1867 C 174.7 -1.02508 -1.67292 0
M  V30 1868 O 173.825 -0.258496 -2.14851 0
M  V30 1869 C 174.42 -3.30028 -0.765979 0
M  V30 1870 C 172.979 -3.55469 -1.23769 0
M  V30 1871 C 172.126 -2.7625 -0.241106 0
M  V30 1872 H 175.077 -1.55149 0.33384 0
M  V30 1873 H 175.098 -3.44086 -1.62434 0
M  V30 1874 H 174.61 -3.87821 0.147219 0
M  V30 1875 H 172.711 -3.03022 -2.16814 0
M  V30 1876 H 172.824 -4.6408 -1.19022 0
M  V30 1877 H 171.188 -2.44133 -0.72602 0
M  V30 1878 H 171.971 -3.36797 0.665007 0
M  V30 1879 N 174.416 0.165178 -1.56732 0
M  V30 1880 C 175.656 0.887231 -1.8414 0
M  V30 1881 C 176.02 1.79159 -0.690353 0
M  V30 1882 O 177.221 2.55172 -0.845032 0
M  V30 1883 C 175.492 1.65674 -3.16681 0
M  V30 1884 S 177.051 2.42671 -3.6559 0
M  V30 1885 H 173.869 0.297042 -0.645978 0
M  V30 1886 H 176.471 0.148439 -1.94936 0
M  V30 1887 H 175.175 0.983507 -3.98441 0
M  V30 1888 H 174.706 2.43679 -3.08843 0
M  V30 1889 H 176.721 3.67499 -3.33406 0
M  V30 1890 N 175.894 1.51508 0.433938 0
M  V30 1891 C 176.842 1.73646 1.54757 0
M  V30 1892 C 177.836 0.602854 1.5831 0
M  V30 1893 O 179.042 0.784318 1.62014 0
M  V30 1894 H 175.417 0.548718 0.51421 0
M  V30 1895 H 177.388 2.66991 1.33261 0
M  V30 1896 C 176.137 1.88172 2.92381 0
M  V30 1897 H 175.46 2.74808 2.90381 0
M  V30 1898 H 176.9 2.07672 3.6966 0
M  V30 1899 C 175.359 0.64239 3.30719 0
M  V30 1900 O 175.889 -0.201362 4.01195 0
M  V30 1901 N 174.095 0.485489 2.86516 0
M  V30 1902 H 173.642 1.17318 2.29334 0
M  V30 1903 H 173.6 -0.342482 3.12529 0
M  V30 1904 N 177.372 -0.689602 1.41712 0
M  V30 1905 C 178.319 -1.80345 1.44029 0
M  V30 1906 C 179.289 -1.63478 0.293948 0
M  V30 1907 O 180.474 -1.84244 0.495869 0
M  V30 1908 C 177.614 -3.18272 1.33405 0
M  V30 1909 C 176.727 -3.46529 2.57956 0
M  V30 1910 C 175.862 -4.74103 2.39582 0
M  V30 1911 C 174.901 -4.95347 3.5958 0
M  V30 1912 N 174.038 -6.14151 3.40239 0
M  V30 1913 H 178.878 -1.77698 2.39222 0
M  V30 1914 H 176.415 -0.867688 1.18784 0
M  V30 1915 H 178.373 -3.97956 1.25246 0
M  V30 1916 H 177.003 -3.2008 0.418164 0
M  V30 1917 H 176.055 -2.61207 2.76542 0
M  V30 1918 H 177.367 -3.58126 3.47199 0
M  V30 1919 H 176.521 -5.61853 2.28924 0
M  V30 1920 H 175.26 -4.64763 1.47805 0
M  V30 1921 H 174.265 -4.06044 3.70686 0
M  V30 1922 H 175.49 -5.06542 4.52318 0
M  V30 1923 H 173.436 -6.06013 2.51167 0
M  V30 1924 H 173.353 -6.26543 4.23061 0
M  V30 1925 H 174.621 -7.04619 3.33365 0
M  V30 1926 N 178.85 -1.27639 -0.924453 0
M  V30 1927 C 180.099 -1.13549 -1.66702 0
M  V30 1928 C 180.412 0.317487 -1.93006 0
M  V30 1929 O 181.618 0.579333 -2.65247 0
M  V30 1930 C 180.074 -1.98426 -3.00259 0
M  V30 1931 C 179.682 -3.484 -2.81641 0
M  V30 1932 C 181.426 -1.92993 -3.78092 0
M  V30 1933 C 179.333 -4.25464 -4.10773 0
M  V30 1934 H 178.263 -0.421351 -0.625283 0
M  V30 1935 H 180.914 -1.52085 -1.02676 0
M  V30 1936 H 179.296 -1.52736 -3.6536 0
M  V30 1937 H 180.47 -4.01973 -2.25287 0
M  V30 1938 H 178.785 -3.55245 -2.17232 0
M  V30 1939 H 181.382 -2.47844 -4.7379 0
M  V30 1940 H 181.725 -0.904281 -4.0636 0
M  V30 1941 H 182.258 -2.36595 -3.19793 0
M  V30 1942 H 178.997 -5.28566 -3.87683 0
M  V30 1943 H 178.517 -3.76667 -4.66779 0
M  V30 1944 H 180.196 -4.34812 -4.79111 0
M  V30 1945 N 180.328 1.1314 -1.09713 0
M  V30 1946 C 181.258 2.20748 -0.761102 0
M  V30 1947 C 182.239 1.68061 0.262566 0
M  V30 1948 O 183.424 1.93765 0.129977 0
M  V30 1949 C 180.554 3.46812 -0.184054 0
M  V30 1950 C 179.508 4.12606 -1.13757 0
M  V30 1951 C 178.834 5.33031 -0.422083 0
M  V30 1952 C 180.134 4.59603 -2.48118 0
M  V30 1953 H 181.828 2.49113 -1.66082 0
M  V30 1954 H 179.374 1.19734 -0.799987 0
M  V30 1955 H 181.327 4.21353 0.0631215 0
M  V30 1956 H 180.051 3.17851 0.750868 0
M  V30 1957 H 178.71 3.40036 -1.37007 0
M  V30 1958 H 178.358 5.00335 0.517072 0
M  V30 1959 H 178.058 5.77999 -1.05788 0
M  V30 1960 H 179.582 6.10325 -0.183277 0
M  V30 1961 H 180.996 5.25552 -2.29059 0
M  V30 1962 H 179.393 5.15321 -3.07514 0
M  V30 1963 H 180.463 3.73971 -3.08665 0
M  V30 1964 N 181.806 0.884767 1.30421 0
M  V30 1965 C 182.736 0.367574 2.30589 0
M  V30 1966 C 183.717 -0.549464 1.60981 0
M  V30 1967 O 184.902 -0.46336 1.88591 0
M  V30 1968 C 182.032 -0.418944 3.44764 0
M  V30 1969 C 180.986 0.406316 4.26067 0
M  V30 1970 C 180.312 -0.506793 5.32293 0
M  V30 1971 C 181.612 1.64832 4.95608 0
M  V30 1972 H 183.306 1.20462 2.74097 0
M  V30 1973 H 180.852 0.580695 1.31772 0
M  V30 1974 H 182.805 -0.791395 4.13902 0
M  V30 1975 H 181.529 -1.28964 3.0006 0
M  V30 1976 H 180.188 0.760903 3.58617 0
M  V30 1977 H 179.836 -1.37519 4.83836 0
M  V30 1978 H 179.536 0.0415828 5.87585 0
M  V30 1979 H 181.06 -0.875764 6.04287 0
M  V30 1980 H 182.474 1.34646 5.57264 0
M  V30 1981 H 180.871 2.13688 5.60765 0
M  V30 1982 H 181.941 2.39284 4.21748 0
M  V30 1983 N 183.284 -1.43765 0.645699 0
M  V30 1984 C 184.53 -2.02731 0.164844 0
M  V30 1985 C 184.885 -1.49983 -1.2051 0
M  V30 1986 O 184.178 -0.680208 -1.79119 0
M  V30 1987 C 184.372 -3.57238 0.107679 0
M  V30 1988 C 184.201 -4.24977 1.47054 0
M  V30 1989 C 182.971 -4.61356 2.06103 0
M  V30 1990 C 185.169 -4.54476 2.40741 0
M  V30 1991 N 183.151 -5.14132 3.35473 0
M  V30 1992 C 184.522 -5.08489 3.54737 0
M  V30 1993 C 186.577 -4.36438 2.39637 0
M  V30 1994 C 185.28 -5.46364 4.67845 0
M  V30 1995 C 187.306 -4.7537 3.5182 0
M  V30 1996 C 186.668 -5.2951 4.64541 0
M  V30 1997 H 182.767 -0.774976 0.104578 0
M  V30 1998 H 185.351 -1.75051 0.852367 0
M  V30 1999 H 183.522 -3.84498 -0.549165 0
M  V30 2000 H 185.254 -4.0288 -0.383351 0
M  V30 2001 H 182.009 -4.46151 1.58892 0
M  V30 2002 H 182.433 -5.4498 4.01654 0
M  V30 2003 H 187.075 -3.93861 1.53731 0
M  V30 2004 H 184.793 -5.87888 5.54448 0
M  V30 2005 H 188.379 -4.63115 3.52159 0
M  V30 2006 H 187.259 -5.59077 5.49911 0
M  V30 2007 N 184.763 -0.387143 -1.52771 0
M  V30 2008 C 185.988 0.198407 -2.06449 0
M  V30 2009 C 186.413 1.39918 -1.25716 0
M  V30 2010 O 185.771 1.79099 -0.281657 0
M  V30 2011 C 185.819 0.548893 -3.56398 0
M  V30 2012 O 184.923 1.64315 -3.78252 0
M  V30 2013 H 184.264 0.0237731 -0.663574 0
M  V30 2014 H 186.794 -0.553989 -1.96957 0
M  V30 2015 H 186.804 0.813812 -3.99801 0
M  V30 2016 H 185.479 -0.329005 -4.14597 0
M  V30 2017 H 184.056 1.37211 -3.46738 0
M  V30 2018 N 186.241 1.57166 -0.116904 0
M  V30 2019 C 187.657 1.5779 0.239693 0
M  V30 2020 C 187.857 1.1295 1.66867 0
M  V30 2021 O 186.913 0.81592 2.38954 0
M  V30 2022 C 188.226 3.00699 0.00828202 0
M  V30 2023 C 189.774 3.12912 0.0743438 0
M  V30 2024 C 190.249 4.57817 -0.129348 0
M  V30 2025 N 191.74 4.63139 -0.075247 0
M  V30 2026 C 192.475 5.73023 -0.207788 0
M  V30 2027 N 191.971 6.91665 -0.396382 0
M  V30 2028 N 193.764 5.61906 -0.14751 0
M  V30 2029 H 185.915 1.84615 -1.05029 0
M  V30 2030 H 188.178 0.85311 -0.41341 0
M  V30 2031 H 187.884 3.37784 -0.979531 0
M  V30 2032 H 187.758 3.69848 0.741077 0
M  V30 2033 H 190.145 2.75686 1.05268 0
M  V30 2034 H 190.226 2.4631 -0.690297 0
M  V30 2035 H 189.87 4.95742 -1.10465 0
M  V30 2036 H 189.8 5.22507 0.655253 0
M  V30 2037 H 192.291 3.7784 0.0670898 0
M  V30 2038 H 192.604 7.71255 -0.488437 0
M  V30 2039 H 190.949 6.93654 -0.432329 0
M  V30 2040 H 194.14 4.681 -0.00115036 0
M  V30 2041 H 194.313 6.47501 -0.254247 0
M  V30 2042 N 187.719 -0.156864 1.56817 0
M  V30 2043 C 188.968 -0.869504 1.81996 0
M  V30 2044 C 189.281 -1.82777 0.696545 0
M  V30 2045 O 190.487 -2.58384 0.833658 0
M  V30 2046 C 188.943 -1.59679 3.22538 0
M  V30 2047 C 188.551 -0.681431 4.42787 0
M  V30 2048 C 190.295 -2.2968 3.56997 0
M  V30 2049 C 188.202 -1.40978 5.74351 0
M  V30 2050 H 187.132 -0.328438 0.678708 0
M  V30 2051 H 189.783 -0.1223 1.83092 0
M  V30 2052 H 188.165 -2.38927 3.158 0
M  V30 2053 H 189.339 0.0751166 4.60739 0
M  V30 2054 H 187.654 -0.0903431 4.16302 0
M  V30 2055 H 190.251 -2.84794 4.52544 0
M  V30 2056 H 190.594 -3.05707 2.82576 0
M  V30 2057 H 191.127 -1.57361 3.65352 0
M  V30 2058 H 187.866 -0.691561 6.51842 0
M  V30 2059 H 187.386 -2.13929 5.60352 0
M  V30 2060 H 189.065 -1.95337 6.16808 0
M  V30 2061 N 189.197 -1.51736 -0.425897 0
M  V30 2062 C 190.144 -1.73875 -1.51776 0
M  V30 2063 C 191.114 -0.580702 -1.55618 0
M  V30 2064 O 192.299 -0.81641 -1.72451 0
M  V30 2065 C 189.439 -1.88012 -2.89388 0
M  V30 2066 C 188.552 -3.15606 -2.94986 0
M  V30 2067 C 187.687 -3.20271 -4.23793 0
M  V30 2068 C 186.726 -4.42134 -4.23302 0
M  V30 2069 N 185.863 -4.44284 -5.43651 0
M  V30 2070 H 190.703 -2.67071 -1.32201 0
M  V30 2071 H 188.24 -1.32351 -0.642008 0
M  V30 2072 H 190.198 -1.9419 -3.69251 0
M  V30 2073 H 188.828 -0.98213 -3.07496 0
M  V30 2074 H 187.88 -3.18681 -2.07717 0
M  V30 2075 H 189.192 -4.05486 -2.90486 0
M  V30 2076 H 188.346 -3.25428 -5.12036 0
M  V30 2077 H 187.085 -2.28299 -4.30965 0
M  V30 2078 H 186.09 -4.3714 -3.3345 0
M  V30 2079 H 187.315 -5.35382 -4.17783 0
M  V30 2080 H 185.261 -3.55188 -5.51523 0
M  V30 2081 H 185.178 -5.27988 -5.41078 0
M  V30 2082 H 186.446 -4.53649 -6.33895 0
M  V30 2083 N 190.675 0.682077 -1.42076 0
M  V30 2084 C 191.952 1.43755 -1.32642 0
M  V30 2085 C 192.332 2.11063 0.0396611 0
M  V30 2086 O 191.68 2.02701 1.05474 0
M  V30 2087 C 191.89 2.44596 -2.48946 0
M  V30 2088 C 193.238 3.09454 -2.9073 0
M  V30 2089 O 194.262 2.54922 -2.48783 0
M  V30 2090 O 193.121 4.08253 -3.63307 0
M  V30 2091 H 190.215 0.640857 -0.522715 0
M  V30 2092 H 192.761 0.711415 -1.54068 0
M  V30 2093 H 191.533 1.93609 -3.40046 0
M  V30 2094 H 191.156 3.24701 -2.29467 0
M  V30 2095 N 192.153 1.28127 0.917671 0
M  V30 2096 C 193.083 1.14248 2.03641 0
M  V30 2097 C 194.064 0.0412748 1.7005 0
M  V30 2098 O 195.249 0.217566 1.92977 0
M  V30 2099 C 192.379 0.799431 3.37974 0
M  V30 2100 C 191.333 1.85497 3.85713 0
M  V30 2101 C 190.659 1.36565 5.16966 0
M  V30 2102 C 191.959 3.26085 4.08002 0
M  V30 2103 H 193.653 2.07835 2.15511 0
M  V30 2104 H 191.199 1.00064 1.03553 0
M  V30 2105 H 193.152 0.689114 4.15727 0
M  V30 2106 H 191.876 -0.172145 3.26146 0
M  V30 2107 H 190.535 1.95437 3.10161 0
M  V30 2108 H 190.183 0.383253 5.01538 0
M  V30 2109 H 189.883 2.07143 5.49878 0
M  V30 2110 H 191.407 1.26848 5.97279 0
M  V30 2111 H 192.821 3.19089 4.76293 0
M  V30 2112 H 191.218 3.94462 4.52238 0
M  V30 2113 H 192.288 3.70394 3.12948 0
M  V30 2114 N 193.631 -1.12557 1.10312 0
M  V30 2115 C 194.594 -2.16434 0.75424 0
M  V30 2116 C 195.594 -1.59278 -0.220685 0
M  V30 2117 O 196.784 -1.742 0.00230591 0
M  V30 2118 C 193.916 -3.40699 0.116987 0
M  V30 2119 H 195.109 -2.48811 1.67431 0
M  V30 2120 H 192.662 -1.27542 0.903475 0
M  V30 2121 H 193.397 -3.13921 -0.813877 0
M  V30 2122 H 193.182 -3.83459 0.818613 0
M  V30 2123 H 194.672 -4.17451 -0.111387 0
M  V30 2124 N 195.109 -0.891671 -1.2995 0
M  V30 2125 C 196.059 -0.334811 -2.25528 0
M  V30 2126 C 197.043 0.540553 -1.51548 0
M  V30 2127 O 198.235 0.383882 -1.72787 0
M  V30 2128 C 195.364 0.44374 -3.4042 0
M  V30 2129 C 194.45 -0.44609 -4.21747 0
M  V30 2130 N 194.841 -1.54963 -4.81477 0
M  V30 2131 C 193.139 -0.242415 -4.45341 0
M  V30 2132 C 193.84 -2.10015 -5.42465 0
M  V30 2133 N 192.816 -1.39423 -5.25416 0
M  V30 2134 H 196.618 -1.17792 -2.69262 0
M  V30 2135 H 194.132 -0.741822 -1.44467 0
M  V30 2136 H 196.129 0.859362 -4.07947 0
M  V30 2137 H 194.789 1.28421 -2.98225 0
M  V30 2138 H 195.8 -1.93244 -4.80497 0
M  V30 2139 H 192.477 0.560342 -4.13723 0
M  V30 2140 H 193.867 -3.02724 -5.9984 0
M  V30 2141 N 196.587 1.43421 -0.653314 0
M  V30 2142 C 197.519 2.29071 0.0769134 0
M  V30 2143 C 198.532 1.42513 0.787017 0
M  V30 2144 O 199.721 1.66449 0.644757 0
M  V30 2145 C 196.821 3.19436 1.13199 0
M  V30 2146 C 195.994 4.34533 0.500006 0
M  V30 2147 C 195.053 5.05771 1.45198 0
M  V30 2148 O 194.079 5.61037 0.960538 0
M  V30 2149 N 195.281 5.0928 2.78594 0
M  V30 2150 H 198.046 2.92382 -0.658235 0
M  V30 2151 H 195.607 1.54112 -0.496104 0
M  V30 2152 H 197.599 3.63958 1.76964 0
M  V30 2153 H 196.169 2.57724 1.7691 0
M  V30 2154 H 195.389 3.92925 -0.316738 0
M  V30 2155 H 196.677 5.08766 0.0588345 0
M  V30 2156 H 196.075 4.65751 3.2108 0
M  V30 2157 H 194.632 5.57519 3.37662 0
M  V30 2158 N 198.065 0.39524 1.52563 0
M  V30 2159 C 199.312 -0.185044 2.01653 0
M  V30 2160 C 199.64 -1.46317 1.28146 0
M  V30 2161 O 198.895 -1.9213 0.372074 0
M  V30 2162 C 199.194 -0.493444 3.53977 0
M  V30 2163 C 198.86 0.69384 4.4553 0
M  V30 2164 C 197.522 1.01954 4.70275 0
M  V30 2165 C 199.874 1.48785 4.99512 0
M  V30 2166 C 197.202 2.14069 5.46252 0
M  V30 2167 C 199.554 2.59965 5.76716 0
M  V30 2168 C 198.218 2.93037 5.99738 0
M  V30 2169 H 197.488 -0.0677123 0.7379 0
M  V30 2170 H 200.135 0.533807 1.8391 0
M  V30 2171 H 198.44 -1.29369 3.69825 0
M  V30 2172 H 200.137 -0.955163 3.89458 0
M  V30 2173 H 196.727 0.429987 4.26438 0
M  V30 2174 H 200.911 1.24946 4.80315 0
M  V30 2175 H 196.167 2.40056 5.62302 0
M  V30 2176 H 200.341 3.21887 6.17545 0
M  V30 2177 H 197.968 3.8003 6.58393 0
M  V30 2178 N 199.544 -1.57102 0.125237 0
M  V30 2179 C 200.772 -1.99761 -0.538797 0
M  V30 2180 C 201.187 -1.00503 -1.59827 0
M  V30 2181 O 200.544 0.00119474 -1.825 0
M  V30 2182 C 200.595 -3.42408 -1.15927 0
M  V30 2183 O 200.316 -4.37869 -0.142143 0
M  V30 2184 C 201.817 -4.00232 -1.90602 0
M  V30 2185 H 199.037 -0.655772 -0.14214 0
M  V30 2186 H 201.581 -2.03383 0.213413 0
M  V30 2187 H 199.736 -3.39706 -1.86223 0
M  V30 2188 H 200.15 -5.21128 -0.593775 0
M  V30 2189 H 201.624 -5.02105 -2.29335 0
M  V30 2190 H 202.101 -3.39721 -2.78363 0
M  V30 2191 H 202.707 -4.06499 -1.25055 0
M  V30 2192 N 201.022 0.148545 -1.56898 0
M  V30 2193 C 201.954 1.20852 -1.9475 0
M  V30 2194 C 202.967 1.39265 -0.843152 0
M  V30 2195 O 204.156 1.38864 -1.12156 0
M  V30 2196 C 201.256 2.57362 -2.20495 0
M  V30 2197 C 200.429 2.59947 -3.51776 0
M  V30 2198 C 199.488 3.77984 -3.6608 0
M  V30 2199 O 198.514 3.62929 -4.38487 0
M  V30 2200 N 199.716 4.95375 -3.02629 0
M  V30 2201 H 202.481 0.886804 -2.86279 0
M  V30 2202 H 200.042 0.338121 -1.5833 0
M  V30 2203 H 202.034 3.34833 -2.27307 0
M  V30 2204 H 200.604 2.81832 -1.35238 0
M  V30 2205 H 199.824 1.68403 -3.56419 0
M  V30 2206 H 201.112 2.58704 -4.38121 0
M  V30 2207 H 200.51 5.10509 -2.43715 0
M  V30 2208 H 199.067 5.70627 -3.15004 0
M  V30 2209 N 202.5 1.5196 0.417844 0
M  V30 2210 C 203.746 1.65836 1.16732 0
M  V30 2211 C 204.079 0.382881 1.90388 0
M  V30 2212 O 203.354 -0.618368 1.84408 0
M  V30 2213 C 203.637 2.87466 2.16876 0
M  V30 2214 C 203.49 4.25041 1.47174 0
M  V30 2215 C 204.809 3.04613 3.17646 0
M  V30 2216 H 201.928 0.603515 0.423011 0
M  V30 2217 H 204.57 1.84494 0.454105 0
M  V30 2218 H 202.72 2.71689 2.777 0
M  V30 2219 H 204.392 4.52527 0.895376 0
M  V30 2220 H 202.635 4.26843 0.773806 0
M  V30 2221 H 203.306 5.06176 2.20204 0
M  V30 2222 H 205.782 3.1923 2.66892 0
M  V30 2223 H 204.658 3.91247 3.8499 0
M  V30 2224 H 204.919 2.17541 3.84874 0
M  V30 2225 N 203.978 -0.674533 1.42435 0
M  V30 2226 C 204.91 -1.80005 1.41883 0
M  V30 2227 C 205.923 -1.59667 0.31787 0
M  V30 2228 O 207.112 -1.68781 0.580973 0
M  V30 2229 C 204.212 -3.17114 1.19549 0
M  V30 2230 C 203.385 -3.64299 2.42084 0
M  V30 2231 C 202.444 -4.80142 2.15291 0
M  V30 2232 O 201.47 -4.90673 2.88493 0
M  V30 2233 N 202.672 -5.68869 1.1562 0
M  V30 2234 H 205.437 -1.80964 2.38898 0
M  V30 2235 H 202.998 -0.857633 1.37318 0
M  V30 2236 H 204.99 -3.92267 0.995417 0
M  V30 2237 H 203.56 -3.11053 0.310569 0
M  V30 2238 H 202.78 -2.79822 2.77657 0
M  V30 2239 H 204.068 -3.92567 3.23679 0
M  V30 2240 H 203.466 -5.63012 0.550765 0
M  V30 2241 H 202.023 -6.43833 1.016 0
M  V30 2242 N 205.456 -1.28612 -0.910864 0
M  V30 2243 C 206.872 -1.06381 -1.18976 0
M  V30 2244 C 207.072 0.191998 -2.00583 0
M  V30 2245 O 206.128 0.892869 -2.36187 0
M  V30 2246 C 207.441 -2.31295 -1.92154 0
M  V30 2247 C 208.989 -2.36503 -2.05025 0
M  V30 2248 C 209.464 -3.61191 -2.81612 0
M  V30 2249 N 210.955 -3.61847 -2.89172 0
M  V30 2250 C 211.69 -4.55004 -3.4894 0
M  V30 2251 N 211.186 -5.58482 -4.09963 0
M  V30 2252 N 212.979 -4.42594 -3.46506 0
M  V30 2253 H 205.13 -2.09221 -0.366094 0
M  V30 2254 H 207.393 -0.921003 -0.224629 0
M  V30 2255 H 207.099 -3.228 -1.39618 0
M  V30 2256 H 206.973 -2.37934 -2.9269 0
M  V30 2257 H 209.36 -1.45494 -2.5674 0
M  V30 2258 H 209.441 -2.33857 -1.03657 0
M  V30 2259 H 209.085 -4.52545 -2.30576 0
M  V30 2260 H 209.015 -3.61092 -3.83302 0
M  V30 2261 H 211.506 -2.87022 -2.45819 0
M  V30 2262 H 211.819 -6.25704 -4.53557 0
M  V30 2263 H 210.164 -5.62305 -4.08459 0
M  V30 2264 H 213.355 -3.60953 -2.98045 0
M  V30 2265 H 213.528 -5.15381 -3.92793 0
M  V30 2266 N 206.934 1.1197 -1.10907 0
M  V30 2267 C 208.211 1.79959 -0.766432 0
M  V30 2268 C 208.591 1.97466 0.746363 0
M  V30 2269 O 207.939 1.55491 1.67436 0
M  V30 2270 C 208.149 3.14009 -1.52314 0
M  V30 2271 C 209.497 3.89134 -1.69883 0
M  V30 2272 O 210.521 3.2368 -1.48692 0
M  V30 2273 O 209.38 5.06572 -2.05054 0
M  V30 2274 H 206.474 0.779208 -0.277062 0
M  V30 2275 H 209.02 1.18762 -1.21217 0
M  V30 2276 H 207.792 2.96587 -2.55249 0
M  V30 2277 H 207.415 3.82915 -1.07059 0
M  V30 2278 N 208.412 0.89855 1.29475 0
M  V30 2279 C 209.345 0.319981 2.25945 0
M  V30 2280 C 210.323 -0.567189 1.52387 0
M  V30 2281 O 211.507 -0.514254 1.8135 0
M  V30 2282 C 208.634 -0.544013 3.34303 0
M  V30 2283 C 207.68 0.275682 4.25608 0
M  V30 2284 S 208.513 1.67272 5.08704 0
M  V30 2285 C 209.669 0.815621 6.20563 0
M  V30 2286 H 209.902 1.13767 2.74671 0
M  V30 2287 H 207.435 0.69882 1.3768 0
M  V30 2288 H 209.393 -1.03673 3.97193 0
M  V30 2289 H 208.054 -1.33593 2.84274 0
M  V30 2290 H 207.247 -0.384263 5.02533 0
M  V30 2291 H 206.849 0.701496 3.67362 0
M  V30 2292 H 209.141 0.0385042 6.77489 0
M  V30 2293 H 210.084 1.55691 6.90772 0
M  V30 2294 H 210.492 0.370516 5.63283 0
M  V30 2295 N 209.89 -1.43072 0.660911 0
M  V30 2296 C 211.137 -2.01721 0.177445 0
M  V30 2297 C 211.465 -1.5218 -1.21126 0
M  V30 2298 O 210.72 -0.708659 -1.82419 0
M  V30 2299 C 211.019 -3.57103 0.145563 0
M  V30 2300 C 210.685 -4.26021 1.47705 0
M  V30 2301 C 209.347 -4.44563 1.84165 0
M  V30 2302 C 211.699 -4.64983 2.35458 0
M  V30 2303 C 209.027 -4.99334 3.0803 0
M  V30 2304 C 211.379 -5.21127 3.58622 0
M  V30 2305 C 210.043 -5.37884 3.95268 0
M  V30 2306 H 209.313 -0.73815 0.0649317 0
M  V30 2307 H 211.96 -1.71446 0.853144 0
M  V30 2308 H 210.265 -3.86965 -0.61361 0
M  V30 2309 H 211.962 -4.00248 -0.2455 0
M  V30 2310 H 208.552 -4.11939 1.18339 0
M  V30 2311 H 212.736 -4.50343 2.08579 0
M  V30 2312 H 207.992 -5.10493 3.36462 0
M  V30 2313 H 212.166 -5.50262 4.26831 0
M  V30 2314 H 209.793 -5.80089 4.91325 0
M  V30 2315 N 211.368 -0.403325 -1.52352 0
M  V30 2316 C 212.596 0.174012 -2.06167 0
M  V30 2317 C 213.011 1.39347 -1.27388 0
M  V30 2318 O 212.368 1.79597 -0.324201 0
M  V30 2319 C 212.419 0.530223 -3.5759 0
M  V30 2320 O 212.14 -0.640806 -4.33388 0
M  V30 2321 C 213.641 1.16192 -4.27802 0
M  V30 2322 H 210.861 0.0229464 -0.670608 0
M  V30 2323 H 213.405 -0.572604 -1.9632 0
M  V30 2324 H 211.56 1.22673 -3.67464 0
M  V30 2325 H 211.974 -0.344851 -5.23365 0
M  V30 2326 H 213.448 1.36141 -5.34948 0
M  V30 2327 H 213.925 2.13335 -3.83907 0
M  V30 2328 H 214.531 0.505775 -4.22282 0
M  V30 2329 N 212.846 1.57033 -0.133567 0
M  V30 2330 C 213.776 2.1909 0.807567 0
M  V30 2331 C 214.757 1.13517 1.26681 0
M  V30 2332 O 215.942 1.41809 1.32679 0
M  V30 2333 C 213.072 2.80188 2.05212 0
M  V30 2334 C 212.026 3.91471 1.73015 0
M  V30 2335 C 211.352 4.39443 3.04622 0
M  V30 2336 C 212.652 5.12886 0.987168 0
M  V30 2337 H 214.346 2.97988 0.290403 0
M  V30 2338 H 211.892 1.43335 0.138239 0
M  V30 2339 H 213.845 3.22264 2.71521 0
M  V30 2340 H 212.569 1.98601 2.59278 0
M  V30 2341 H 211.228 3.49993 1.0909 0
M  V30 2342 H 210.876 3.54695 3.56651 0
M  V30 2343 H 210.576 5.14495 2.83847 0
M  V30 2344 H 212.1 4.8418 3.72024 0
M  V30 2345 H 213.514 5.51891 1.55208 0
M  V30 2346 H 211.911 5.93615 0.87985 0
M  V30 2347 H 212.981 4.84894 -0.0235286 0
M  V30 2348 N 214.325 -0.140222 1.56975 0
M  V30 2349 C 215.235 -1.19223 2.02047 0
M  V30 2350 C 216.251 -1.46612 0.937062 0
M  V30 2351 O 217.427 -1.58148 1.24704 0
M  V30 2352 C 214.492 -2.50414 2.39778 0
M  V30 2353 C 213.553 -2.30612 3.621 0
M  V30 2354 C 212.786 -3.55547 3.98023 0
M  V30 2355 O 213.009 -4.62004 3.34528 0
M  V30 2356 O 211.943 -3.47808 4.91237 0
M  V30 2357 H 215.769 -0.839559 2.91865 0
M  V30 2358 H 213.354 -0.349453 1.45256 0
M  V30 2359 H 215.236 -3.27747 2.64877 0
M  V30 2360 H 213.911 -2.85198 1.53114 0
M  V30 2361 H 212.818 -1.51207 3.4218 0
M  V30 2362 H 214.151 -2.00741 4.49404 0
M  V30 2363 N 215.803 -1.52179 -0.40978 0
M  V30 2364 C 217.08 -1.56769 -1.16974 0
M  V30 2365 C 217.46 -0.348322 -2.08206 0
M  V30 2366 O 216.808 0.664862 -2.18613 0
M  V30 2367 C 217.018 -2.89603 -1.9476 0
M  V30 2368 C 218.366 -3.42579 -2.50849 0
M  V30 2369 O 219.39 -2.91338 -2.04941 0
M  V30 2370 O 218.249 -4.32054 -3.34652 0
M  V30 2371 H 215.343 -0.631439 -0.534054 0
M  V30 2372 H 217.889 -1.64507 -0.416613 0
M  V30 2373 H 216.661 -3.698 -1.27921 0
M  V30 2374 H 216.284 -2.85155 -2.77079 0
M  V30 2375 N 217.281 0.66697 -1.42791 0
M  V30 2376 C 218.509 1.45505 -1.47091 0
M  V30 2377 C 218.924 1.8861 -0.0845873 0
M  V30 2378 O 218.281 1.58632 0.90234 0
M  V30 2379 C 218.332 2.69906 -2.40485 0
M  V30 2380 O 218.053 2.28608 -3.73725 0
M  V30 2381 C 219.554 3.63396 -2.53886 0
M  V30 2382 H 216.774 0.447459 -0.500022 0
M  V30 2383 H 219.318 0.818866 -1.8739 0
M  V30 2384 H 217.473 3.29696 -2.03419 0
M  V30 2385 H 217.887 3.08997 -4.23817 0
M  V30 2386 H 219.361 4.47387 -3.2334 0
M  V30 2387 H 219.838 4.09824 -1.57927 0
M  V30 2388 H 220.444 3.09495 -2.91706 0
M  V30 2389 N 218.759 1.29093 0.90403 0
M  V30 2390 C 219.689 1.16401 2.02418 0
M  V30 2391 C 220.67 0.0593085 1.69997 0
M  V30 2392 O 221.855 0.238021 1.92736 0
M  V30 2393 C 218.985 0.835233 3.37107 0
M  V30 2394 C 217.939 1.89578 3.83724 0
M  V30 2395 C 217.265 1.42041 5.15489 0
M  V30 2396 C 218.565 3.30394 4.04521 0
M  V30 2397 H 220.259 2.10109 2.13295 0
M  V30 2398 H 217.805 1.01157 1.02486 0
M  V30 2399 H 219.758 0.733169 4.14973 0
M  V30 2400 H 218.482 -0.137543 3.2631 0
M  V30 2401 H 217.141 1.98715 3.08071 0
M  V30 2402 H 216.789 0.436426 5.01103 0
M  V30 2403 H 216.489 2.12964 5.4765 0
M  V30 2404 H 218.013 1.33176 5.959 0
M  V30 2405 H 219.427 3.24123 4.72882 0
M  V30 2406 H 217.824 3.99237 4.48029 0
M  V30 2407 H 218.894 3.73692 3.09002 0
M  V30 2408 N 220.237 -1.11381 1.11499 0
M  V30 2409 C 221.167 -2.19509 0.796125 0
M  V30 2410 C 222.148 -1.68458 -0.235796 0
M  V30 2411 O 223.333 -1.93947 -0.0991344 0
M  V30 2412 C 220.463 -3.46475 0.239205 0
M  V30 2413 C 219.417 -4.10744 1.20307 0
M  V30 2414 C 218.743 -5.32293 0.50683 0
M  V30 2415 C 220.043 -4.55597 2.55399 0
M  V30 2416 H 221.737 -2.46439 1.70024 0
M  V30 2417 H 219.283 -1.18446 0.818935 0
M  V30 2418 H 221.236 -4.214 0.00392006 0
M  V30 2419 H 219.96 -3.19006 -0.700206 0
M  V30 2420 H 218.619 -3.37813 1.42399 0
M  V30 2421 H 218.267 -5.01095 -0.437408 0
M  V30 2422 H 217.967 -5.76243 1.1497 0
M  V30 2423 H 219.491 -6.09956 0.280351 0
M  V30 2424 H 220.905 -5.21841 2.37391 0
M  V30 2425 H 219.302 -5.10363 3.15673 0
M  V30 2426 H 220.372 -3.69013 3.14575 0
M  V30 2427 N 221.715 -0.905404 -1.28997 0
M  V30 2428 C 222.963 -0.533192 -1.9494 0
M  V30 2429 C 223.284 0.924618 -1.71685 0
M  V30 2430 O 222.554 1.65268 -1.05183 0
M  V30 2431 H 221.134 -0.194194 -0.721317 0
M  V30 2432 H 223.796 -1.15294 -1.57141 0
M  V30 2433 H 222.892 -0.72059 -3.03667 0
M  V30 2434 N 223.193 1.4272 -0.668489 0
M  V30 2435 C 224.423 2.05668 -0.196063 0
M  V30 2436 C 224.831 1.5028 1.14946 0
M  V30 2437 O 224.174 0.6348 1.72383 0
M  V30 2438 C 224.236 3.59469 -0.0468879 0
M  V30 2439 C 223.9 4.37518 -1.32012 0
M  V30 2440 C 224.897 4.68584 -2.25222 0
M  V30 2441 C 222.582 4.77266 -1.56596 0
M  V30 2442 C 224.576 5.38326 -3.41297 0
M  V30 2443 C 222.263 5.4675 -2.72962 0
M  V30 2444 C 223.261 5.77204 -3.65137 0
M  V30 2445 O 222.949 6.45264 -4.79468 0
M  V30 2446 H 222.681 0.669382 -0.0943599 0
M  V30 2447 H 225.235 1.83954 -0.913788 0
M  V30 2448 H 223.465 3.79817 0.726357 0
M  V30 2449 H 225.154 4.04071 0.384852 0
M  V30 2450 H 225.92 4.38382 -2.07477 0
M  V30 2451 H 221.799 4.52959 -0.857249 0
M  V30 2452 H 225.343 5.62014 -4.13263 0
M  V30 2453 H 221.24 5.76369 -2.90635 0
M  V30 2454 H 222.008 6.63753 -4.78931 0
M  V30 2455 N 224.671 0.411399 1.52136 0
M  V30 2456 C 225.601 -0.404015 2.29978 0
M  V30 2457 C 226.582 -1.04412 1.34284 0
M  V30 2458 O 227.767 -1.0527 1.63192 0
M  V30 2459 C 224.897 -1.5197 3.12286 0
M  V30 2460 C 223.851 -1.00448 4.16046 0
M  V30 2461 C 223.177 -2.21393 4.86712 0
M  V30 2462 C 224.477 -0.0569336 5.22269 0
M  V30 2463 H 226.171 0.245529 2.98392 0
M  V30 2464 H 223.717 0.119525 1.43503 0
M  V30 2465 H 225.67 -2.09715 3.6551 0
M  V30 2466 H 224.394 -2.19716 2.41646 0
M  V30 2467 H 223.053 -0.449421 3.63835 0
M  V30 2468 H 222.701 -2.87699 4.12599 0
M  V30 2469 H 222.401 -1.87571 5.56858 0
M  V30 2470 H 223.925 -2.7974 5.4275 0
M  V30 2471 H 225.339 -0.54325 5.7072 0
M  V30 2472 H 223.736 0.192594 5.99791 0
M  V30 2473 H 224.806 0.887663 4.76706 0
M  V30 2474 N 226.149 -1.5696 0.141893 0
M  V30 2475 C 227.112 -2.15316 -0.785587 0
M  V30 2476 C 228.112 -1.09366 -1.1788 0
M  V30 2477 O 229.302 -1.35031 -1.10056 0
M  V30 2478 C 226.434 -2.71211 -2.06537 0
M  V30 2479 H 227.627 -2.98608 -0.278041 0
M  V30 2480 H 225.18 -1.5593 -0.107519 0
M  V30 2481 H 225.915 -1.91571 -2.6167 0
M  V30 2482 H 225.7 -3.4872 -1.79268 0
M  V30 2483 H 227.19 -3.16189 -2.72789 0
M  V30 2484 N 227.627 0.131896 -1.57047 0
M  V30 2485 C 228.904 0.871495 -1.75112 0
M  V30 2486 C 229.284 1.9866 -0.713949 0
M  V30 2487 O 228.632 2.26965 0.264447 0
M  V30 2488 C 228.842 1.40007 -3.19686 0
M  V30 2489 C 230.19 1.85752 -3.81813 0
M  V30 2490 O 231.214 1.49715 -3.23209 0
M  V30 2491 O 230.073 2.5226 -4.84796 0
M  V30 2492 H 227.167 0.412919 -0.716538 0
M  V30 2493 H 229.713 0.116641 -1.69299 0
M  V30 2494 H 228.485 0.599404 -3.86682 0
M  V30 2495 H 228.108 2.218 -3.29986 0
M  V30 2496 N 229.106 1.52395 0.401703 0
M  V30 2497 C 230.383 1.57387 1.16141 0
M  V30 2498 C 230.763 0.359359 2.08019 0
M  V30 2499 O 230.111 -0.65326 2.18963 0
M  V30 2500 C 230.321 2.90631 1.93221 0
M  V30 2501 C 231.669 3.43904 2.49028 0
M  V30 2502 O 232.693 2.92421 2.03393 0
M  V30 2503 O 231.552 4.33823 3.32356 0
M  V30 2504 H 228.646 0.634262 0.530698 0
M  V30 2505 H 231.192 1.64725 0.407883 0
M  V30 2506 H 229.964 3.70473 1.25958 0
M  V30 2507 H 229.587 2.8662 2.75563 0
M  V30 2508 N 230.584 -0.659388 1.43143 0
M  V30 2509 C 231.514 -1.78422 1.50625 0
M  V30 2510 C 232.495 -1.66216 0.361443 0
M  V30 2511 O 233.68 -1.85404 0.577834 0
M  V30 2512 C 230.81 -3.16815 1.42287 0
M  V30 2513 C 229.764 -3.43777 2.54954 0
M  V30 2514 C 229.09 -4.81905 2.31671 0
M  V30 2515 C 230.39 -3.39134 3.97222 0
M  V30 2516 H 232.084 -1.72417 2.44771 0
M  V30 2517 H 229.63 -0.828084 1.17808 0
M  V30 2518 H 231.583 -3.95253 1.46127 0
M  V30 2519 H 230.307 -3.23534 0.446435 0
M  V30 2520 H 228.966 -2.67707 2.50457 0
M  V30 2521 H 228.614 -4.85294 1.32284 0
M  V30 2522 H 228.314 -5.00906 3.07192 0
M  V30 2523 H 229.838 -5.62609 2.37284 0
M  V30 2524 H 231.252 -4.07518 4.03239 0
M  V30 2525 H 229.649 -3.69671 4.72719 0
M  V30 2526 H 230.719 -2.37426 4.22797 0
M  V30 2527 N 232.062 -1.29571 -0.897171 0
M  V30 2528 C 233.29 -1.20583 -1.68129 0
M  V30 2529 C 233.705 0.233181 -1.87354 0
M  V30 2530 O 233.062 1.15579 -1.41236 0
M  V30 2531 C 233.113 -1.91772 -3.06441 0
M  V30 2532 O 232.834 -3.30053 -2.88091 0
M  V30 2533 C 234.335 -1.89291 -4.00854 0
M  V30 2534 H 231.555 -0.417826 -0.525036 0
M  V30 2535 H 234.099 -1.70987 -1.12177 0
M  V30 2536 H 232.254 -1.45196 -3.59161 0
M  V30 2537 H 232.668 -3.65942 -3.75748 0
M  V30 2538 H 234.142 -2.43662 -4.95311 0
M  V30 2539 H 234.619 -0.869014 -4.30517 0
M  V30 2540 H 235.225 -2.35622 -3.54066 0
M  V30 2541 N 233.54 1.10788 -1.12088 0
M  V30 2542 C 234.786 1.8313 -0.885148 0
M  V30 2543 C 235.141 1.8336 0.582839 0
M  V30 2544 O 234.434 1.28062 1.42516 0
M  V30 2545 C 234.628 3.29294 -1.38926 0
M  V30 2546 C 234.457 3.43302 -2.90472 0
M  V30 2547 C 233.227 3.55928 -3.58669 0
M  V30 2548 C 235.425 3.37014 -3.88492 0
M  V30 2549 N 233.407 3.58475 -4.98366 0
M  V30 2550 C 234.778 3.46263 -5.14298 0
M  V30 2551 C 236.833 3.20589 -3.80955 0
M  V30 2552 C 235.536 3.4078 -6.33452 0
M  V30 2553 C 237.562 3.16427 -4.99628 0
M  V30 2554 C 236.924 3.26253 -6.2429 0
M  V30 2555 H 233.023 0.685054 -0.377128 0
M  V30 2556 H 235.607 1.3251 -1.4265 0
M  V30 2557 H 233.778 3.78416 -0.874999 0
M  V30 2558 H 235.51 3.89578 -1.09596 0
M  V30 2559 H 232.265 3.58779 -3.09151 0
M  V30 2560 H 232.689 3.6337 -5.71219 0
M  V30 2561 H 237.331 3.11873 -2.85474 0
M  V30 2562 H 235.049 3.48263 -7.29204 0
M  V30 2563 H 238.635 3.04874 -4.95523 0
M  V30 2564 H 237.515 3.2303 -7.14578 0
M  V30 2565 N 235.018 0.912232 1.28515 0
M  V30 2566 C 236.258 0.551677 1.96814 0
M  V30 2567 C 236.622 -0.887825 1.7024 0
M  V30 2568 O 237.823 -1.35588 2.32098 0
M  V30 2569 C 236.094 0.850555 3.47132 0
M  V30 2570 S 237.653 0.59619 4.34731 0
M  V30 2571 H 234.471 0.204191 0.681049 0
M  V30 2572 H 237.073 1.17736 1.56072 0
M  V30 2573 H 235.777 1.8962 3.63968 0
M  V30 2574 H 235.308 0.213471 3.9282 0
M  V30 2575 H 237.323 -0.553154 4.93107 0
M  V30 2576 N 236.496 -1.42363 0.676048 0
M  V30 2577 C 237.744 -2.01123 0.198437 0
M  V30 2578 C 238.065 -1.53731 -1.19966 0
M  V30 2579 O 237.335 -0.759518 -1.80577 0
M  V30 2580 H 235.915 -0.743678 0.0703721 0
M  V30 2581 H 238.577 -1.74263 0.872837 0
M  V30 2582 H 237.673 -3.11454 0.200686 0
M  V30 2583 N 237.974 -0.419461 -1.51915 0
M  V30 2584 C 238.884 0.407528 -2.31033 0
M  V30 2585 C 239.9 1.04413 -1.3919 0
M  V30 2586 O 241.076 1.0434 -1.72265 0
M  V30 2587 C 238.141 1.50365 -3.12396 0
M  V30 2588 C 237.202 0.889029 -4.19994 0
M  V30 2589 C 236.435 1.93291 -4.97468 0
M  V30 2590 O 236.658 3.15259 -4.75361 0
M  V30 2591 O 235.592 1.53339 -5.8204 0
M  V30 2592 H 239.418 -0.237865 -3.02767 0
M  V30 2593 H 237.003 -0.182413 -1.48282 0
M  V30 2594 H 238.885 2.13975 -3.63032 0
M  V30 2595 H 237.56 2.13345 -2.43445 0
M  V30 2596 H 236.467 0.215353 -3.7348 0
M  V30 2597 H 237.8 0.302991 -4.91267 0
M  V30 2598 N 239.452 1.56882 -0.150215 0
M  V30 2599 C 240.699 1.96228 0.500093 0
M  V30 2600 C 241.027 1.03522 1.64661 0
M  V30 2601 O 240.282 0.0650683 1.95592 0
M  V30 2602 C 240.581 3.41801 1.04437 0
M  V30 2603 C 240.247 4.50897 0.0159671 0
M  V30 2604 C 238.909 4.8046 -0.266731 0
M  V30 2605 C 241.261 5.16703 -0.683192 0
M  V30 2606 C 238.589 5.73135 -1.25434 0
M  V30 2607 C 240.941 6.10441 -1.65964 0
M  V30 2608 C 239.605 6.38382 -1.95 0
M  V30 2609 H 238.875 0.718048 0.182997 0
M  V30 2610 H 241.522 1.90019 -0.237724 0
M  V30 2611 H 239.827 3.44857 1.85959 0
M  V30 2612 H 241.524 3.69573 1.55618 0
M  V30 2613 H 238.114 4.27891 0.246485 0
M  V30 2614 H 242.298 4.93993 -0.477983 0
M  V30 2615 H 237.554 5.93074 -1.48571 0
M  V30 2616 H 241.728 6.60507 -2.20689 0
M  V30 2617 H 239.355 7.09996 -2.71679 0
M  V30 2618 N 240.93 -0.123565 1.57115 0
M  V30 2619 C 241.878 -1.17082 2.00984 0
M  V30 2620 C 242.872 -1.43136 0.906009 0
M  V30 2621 O 244.078 -1.43152 1.09121 0
M  V30 2622 H 240.453 -0.394653 0.64012 0
M  V30 2623 H 242.424 -0.774292 2.88179 0
M  V30 2624 C 241.173 -2.49057 2.42623 0
M  V30 2625 H 240.496 -2.29846 3.27125 0
M  V30 2626 H 241.936 -3.20906 2.7712 0
M  V30 2627 C 240.395 -3.11305 1.28805 0
M  V30 2628 O 240.925 -3.97171 0.60153 0
M  V30 2629 N 239.131 -2.71111 1.04628 0
M  V30 2630 H 238.678 -2.01382 1.60634 0
M  V30 2631 H 238.636 -3.1309 0.286685 0
M  V30 2632 N 242.408 -1.52605 -0.393616 0
M  V30 2633 C 243.636 -1.71294 -1.16043 0
M  V30 2634 C 244.051 -0.429259 -1.83855 0
M  V30 2635 O 243.408 0.595921 -1.72496 0
M  V30 2636 C 243.459 -2.8593 -2.21193 0
M  V30 2637 O 243.18 -4.09329 -1.56146 0
M  V30 2638 C 244.681 -3.16259 -3.10636 0
M  V30 2639 H 241.901 -0.573641 -0.348104 0
M  V30 2640 H 244.445 -1.99234 -0.461092 0
M  V30 2641 H 242.6 -2.60465 -2.86769 0
M  V30 2642 H 243.014 -4.73323 -2.25978 0
M  V30 2643 H 244.488 -3.99946 -3.80456 0
M  V30 2644 H 244.965 -2.3045 -3.73884 0
M  V30 2645 H 245.571 -3.43547 -2.50711 0
M  V30 2646 N 243.887 0.651787 -1.4349 0
M  V30 2647 C 245.112 1.44434 -1.48841 0
M  V30 2648 C 245.537 1.8779 -0.107955 0
M  V30 2649 O 244.895 1.57464 0.898602 0
M  V30 2650 C 244.943 2.65458 -2.44059 0
M  V30 2651 O 244.047 3.64566 -1.92784 0
M  V30 2652 H 243.388 0.433005 -0.503391 0
M  V30 2653 H 245.918 0.797451 -1.88419 0
M  V30 2654 H 245.928 3.13255 -2.6141 0
M  V30 2655 H 244.603 2.33244 -3.4434 0
M  V30 2656 H 243.18 3.23716 -1.851 0
M  V30 2657 N 245.365 1.30045 0.890287 0
M  V30 2658 C 246.312 1.15976 1.99545 0
M  V30 2659 C 247.282 0.0506202 1.66023 0
M  V30 2660 O 248.467 0.219847 1.89529 0
M  V30 2661 C 245.607 0.852054 3.34416 0
M  V30 2662 C 244.72 2.04255 3.80662 0
M  V30 2663 C 243.855 1.6734 5.04154 0
M  V30 2664 C 242.894 2.82916 5.42794 0
M  V30 2665 N 242.031 2.46333 6.57468 0
M  V30 2666 H 246.871 2.10524 2.10911 0
M  V30 2667 H 244.408 1.04749 1.03276 0
M  V30 2668 H 246.366 0.654296 4.12037 0
M  V30 2669 H 244.996 -0.0565502 3.2275 0
M  V30 2670 H 244.048 2.35172 2.98995 0
M  V30 2671 H 245.36 2.90826 4.05242 0
M  V30 2672 H 244.514 1.43908 5.89386 0
M  V30 2673 H 243.253 0.779308 4.81433 0
M  V30 2674 H 242.258 3.0702 4.56091 0
M  V30 2675 H 243.483 3.73004 5.6749 0
M  V30 2676 H 241.429 1.59423 6.36334 0
M  V30 2677 H 241.346 3.26436 6.81891 0
M  V30 2678 H 242.614 2.26244 7.45945 0
M  V30 2679 N 246.843 -1.10192 1.12674 0
M  V30 2680 C 248.092 -1.81573 0.8783 0
M  V30 2681 C 248.405 -1.86249 -0.597557 0
M  V30 2682 O 249.611 -2.5386 -0.962681 0
M  V30 2683 C 248.067 -3.26149 1.52167 0
M  V30 2684 C 247.675 -3.29763 3.03249 0
M  V30 2685 C 249.419 -4.0234 1.3536 0
M  V30 2686 C 247.326 -4.68815 3.60508 0
M  V30 2687 H 246.256 -0.680394 0.324931 0
M  V30 2688 H 248.907 -1.23902 1.35353 0
M  V30 2689 H 247.289 -3.83832 0.974104 0
M  V30 2690 H 248.463 -2.8189 3.6452 0
M  V30 2691 H 246.778 -2.67059 3.19481 0
M  V30 2692 H 249.375 -5.05058 1.75559 0
M  V30 2693 H 249.718 -4.15235 0.297554 0
M  V30 2694 H 250.251 -3.51079 1.87052 0
M  V30 2695 H 246.99 -4.61121 4.65884 0
M  V30 2696 H 246.51 -5.17045 3.04014 0
M  V30 2697 H 248.189 -5.37785 3.59717 0
M  V30 2698 N 248.321 -0.919034 -1.28029 0
M  V30 2699 C 249.269 -0.401753 -2.29104 0
M  V30 2700 C 250.263 0.509354 -1.61561 0
M  V30 2701 O 251.469 0.390014 -1.75724 0
M  V30 2702 H 247.844 -0.111331 -0.743713 0
M  V30 2703 H 249.815 -1.2672 -2.70156 0
M  V30 2704 C 248.564 0.338148 -3.46052 0
M  V30 2705 H 247.887 -0.353732 -3.98232 0
M  V30 2706 H 249.327 0.664653 -4.18758 0
M  V30 2707 C 247.786 1.54798 -2.99231 0
M  V30 2708 O 248.316 2.64696 -3.02157 0
M  V30 2709 N 246.522 1.3968 -2.54829 0
M  V30 2710 H 246.069 0.502698 -2.52647 0
M  V30 2711 H 246.027 2.20755 -2.23863 0
M  V30 2712 N 249.799 1.42003 -0.683588 0
M  V30 2713 C 251.029 2.05448 -0.217866 0
M  V30 2714 C 251.437 1.51491 1.13346 0
M  V30 2715 O 250.78 0.653048 1.717 0
M  V30 2716 C 250.842 3.59399 -0.0850118 0
M  V30 2717 C 250.506 4.36093 -1.36645 0
M  V30 2718 C 251.503 4.66169 -2.30179 0
M  V30 2719 C 249.188 4.75578 -1.61649 0
M  V30 2720 C 251.182 5.34676 -3.46988 0
M  V30 2721 C 248.869 5.43824 -2.78745 0
M  V30 2722 C 249.867 5.73299 -3.71238 0
M  V30 2723 O 249.555 6.40142 -4.86285 0
M  V30 2724 H 249.287 0.668344 -0.101454 0
M  V30 2725 H 251.841 1.82974 -0.933248 0
M  V30 2726 H 250.071 3.80566 0.686031 0
M  V30 2727 H 251.76 4.04457 0.341973 0
M  V30 2728 H 252.526 4.36156 -2.12115 0
M  V30 2729 H 248.405 4.52025 -0.905243 0
M  V30 2730 H 251.949 5.57599 -4.19201 0
M  V30 2731 H 247.846 5.73254 -2.96732 0
M  V30 2732 H 248.614 6.58636 -4.85944 0
M  V30 2733 N 251.277 0.427512 1.51691 0
M  V30 2734 C 252.209 -0.424521 2.25234 0
M  V30 2735 C 253.222 -0.994671 1.2888 0
M  V30 2736 O 254.411 -0.890483 1.54702 0
M  V30 2737 C 251.511 -1.60479 2.98496 0
M  V30 2738 C 250.684 -1.15527 4.21868 0
M  V30 2739 C 249.743 -2.20454 4.77793 0
M  V30 2740 O 248.769 -1.8029 5.39893 0
M  V30 2741 N 249.971 -3.52831 4.60967 0
M  V30 2742 H 252.736 0.205749 2.98993 0
M  V30 2743 H 250.297 0.255867 1.59865 0
M  V30 2744 H 252.289 -2.30276 3.32799 0
M  V30 2745 H 250.859 -2.14061 2.27809 0
M  V30 2746 H 250.079 -0.284736 3.9317 0
M  V30 2747 H 251.367 -0.832173 5.01949 0
M  V30 2748 H 250.765 -3.88201 4.11481 0
M  V30 2749 H 249.322 -4.18551 4.99658 0
M  V30 2750 N 252.755 -1.56801 0.158532 0
M  V30 2751 C 253.98 -2.01295 -0.499516 0
M  V30 2752 C 254.405 -1.03799 -1.56867 0
M  V30 2753 O 253.763 -0.0155162 -1.81293 0
M  V30 2754 C 253.811 -3.44469 -1.06647 0
M  V30 2755 O 252.915 -3.50012 -2.18095 0
M  V30 2756 H 252.256 -0.652884 -0.12099 0
M  V30 2757 H 254.786 -2.02958 0.258661 0
M  V30 2758 H 254.796 -3.8351 -1.39227 0
M  V30 2759 H 253.471 -4.14932 -0.283581 0
M  V30 2760 H 252.048 -3.22822 -1.86656 0
M  V30 2761 N 254.233 0.115231 -1.57178 0
M  V30 2762 C 255.473 0.828199 -1.8687 0
M  V30 2763 C 255.837 1.76873 -0.747002 0
M  V30 2764 O 257.038 2.52354 -0.925785 0
M  V30 2765 C 255.309 1.55515 -3.21792 0
M  V30 2766 S 256.868 2.30917 -3.73125 0
M  V30 2767 H 253.686 0.27634 -0.655101 0
M  V30 2768 H 256.288 0.0863469 -1.95309 0
M  V30 2769 H 254.992 0.856248 -4.01368 0
M  V30 2770 H 254.523 2.3373 -3.16439 0
M  V30 2771 H 256.538 3.56705 -3.44929 0
M  V30 2772 N 255.711 1.52812 0.385517 0
M  V30 2773 C 257.122 1.5993 0.963293 0
M  V30 2774 C 257.473 0.454302 1.90868 0
M  V30 2775 O 256.598 -0.422132 2.12243 0
M  V30 2776 C 257.193 2.89871 1.75387 0
M  V30 2777 C 255.752 2.99389 2.28129 0
M  V30 2778 C 254.899 2.55071 1.08783 0
M  V30 2779 H 257.85 1.5784 0.164948 0
M  V30 2780 H 257.871 2.76553 2.61341 0
M  V30 2781 H 257.383 3.73186 1.06554 0
M  V30 2782 H 255.484 2.20619 3.00263 0
M  V30 2783 H 255.597 4.04096 2.57377 0
M  V30 2784 H 253.961 2.09473 1.4489 0
M  V30 2785 H 254.744 3.40785 0.414807 0
M  V30 2786 N 257.189 -0.644168 1.43834 0
M  V30 2787 C 258.466 -1.40188 1.36406 0
M  V30 2788 C 258.846 -2.11094 0.0163124 0
M  V30 2789 O 258.194 -2.05426 -1.00062 0
M  V30 2790 C 258.404 -2.3791 2.55343 0
M  V30 2791 C 259.752 -3.01637 2.98832 0
M  V30 2792 O 260.776 -2.48237 2.55455 0
M  V30 2793 O 259.635 -3.98477 3.74003 0
M  V30 2794 H 256.729 -0.626773 0.539523 0
M  V30 2795 H 259.275 -0.670317 1.559 0
M  V30 2796 H 258.047 -1.84525 3.4506 0
M  V30 2797 H 257.67 -3.18503 2.37995 0
M  V30 2798 N 258.668 -1.30515 -0.883378 0
M  V30 2799 C 259.914 -1.20617 -1.63778 0
M  V30 2800 C 260.269 0.236469 -1.90941 0
M  V30 2801 O 259.562 1.16596 -1.52039 0
M  V30 2802 C 259.756 -1.96994 -2.98209 0
M  V30 2803 C 259.585 -3.48537 -2.84169 0
M  V30 2804 C 258.355 -4.17893 -2.84067 0
M  V30 2805 C 260.553 -4.43738 -2.60001 0
M  V30 2806 N 258.535 -5.55685 -2.60936 0
M  V30 2807 C 259.906 -5.69105 -2.46007 0
M  V30 2808 C 261.961 -4.33316 -2.45239 0
M  V30 2809 C 260.664 -6.8523 -2.18752 0
M  V30 2810 C 262.69 -5.4921 -2.19369 0
M  V30 2811 C 262.052 -6.73558 -2.06153 0
M  V30 2812 H 258.151 -0.496434 -0.604216 0
M  V30 2813 H 260.735 -1.64544 -1.04083 0
M  V30 2814 H 258.906 -1.55455 -3.55933 0
M  V30 2815 H 260.638 -1.79225 -3.62851 0
M  V30 2816 H 257.393 -3.69739 -2.95956 0
M  V30 2817 H 257.817 -6.28199 -2.52378 0
M  V30 2818 H 262.459 -3.37856 -2.54191 0
M  V30 2819 H 260.177 -7.80729 -2.08537 0
M  V30 2820 H 263.763 -5.43054 -2.08766 0
M  V30 2821 H 262.643 -7.61721 -1.86416 0
M  V30 2822 N 260.146 1.09593 -1.13257 0
M  V30 2823 C 261.562 1.33775 -0.870423 0
M  V30 2824 C 261.762 1.95327 0.494926 0
M  V30 2825 O 260.818 2.19853 1.2418 0
M  V30 2826 C 262.131 2.25106 -1.99369 0
M  V30 2827 C 263.679 2.3862 -2.02558 0
M  V30 2828 C 264.154 3.33285 -3.14142 0
M  V30 2829 N 265.645 3.40857 -3.13641 0
M  V30 2830 C 266.38 4.14101 -3.96621 0
M  V30 2831 N 265.876 4.90157 -4.8961 0
M  V30 2832 N 267.669 4.09808 -3.84726 0
M  V30 2833 H 259.82 0.680136 -2.01216 0
M  V30 2834 H 262.083 0.362133 -0.876107 0
M  V30 2835 H 261.789 1.87103 -2.97801 0
M  V30 2836 H 261.663 3.25481 -1.90635 0
M  V30 2837 H 264.05 2.75887 -1.0474 0
M  V30 2838 H 264.131 1.38028 -2.15364 0
M  V30 2839 H 263.775 2.96741 -4.12198 0
M  V30 2840 H 263.705 4.33776 -2.98574 0
M  V30 2841 H 266.196 2.86624 -2.46282 0
M  V30 2842 H 266.509 5.4347 -5.49418 0
M  V30 2843 H 264.854 4.89251 -4.93617 0
M  V30 2844 H 268.045 3.4949 -3.11408 0
M  V30 2845 H 268.218 4.66629 -4.49623 0
M  V30 2846 N 261.624 0.925811 1.2754 0
M  V30 2847 C 262.571 0.422045 2.26908 0
M  V30 2848 C 263.541 -0.510029 1.58076 0
M  V30 2849 O 264.726 -0.429599 1.85901 0
M  V30 2850 C 261.866 -0.320837 3.43605 0
M  V30 2851 C 260.979 0.64513 4.27156 0
M  V30 2852 C 260.114 -0.117405 5.3107 0
M  V30 2853 C 259.153 0.841391 6.0629 0
M  V30 2854 N 258.29 0.111604 7.02011 0
M  V30 2855 H 263.13 1.27441 2.69375 0
M  V30 2856 H 260.667 0.639697 1.32462 0
M  V30 2857 H 262.625 -0.76785 4.10073 0
M  V30 2858 H 261.255 -1.13745 3.02096 0
M  V30 2859 H 260.307 1.21067 3.6062 0
M  V30 2860 H 261.619 1.37797 4.79389 0
M  V30 2861 H 260.773 -0.624422 6.03478 0
M  V30 2862 H 259.512 -0.883219 4.79636 0
M  V30 2863 H 258.517 1.35967 5.32722 0
M  V30 2864 H 259.742 1.60696 6.59813 0
M  V30 2865 H 257.688 -0.635999 6.5291 0
M  V30 2866 H 257.605 0.784044 7.51923 0
M  V30 2867 H 258.873 -0.374823 7.78598 0
M  V30 2868 N 263.102 -1.41638 0.69111 0
M  V30 2869 C 264.379 -1.95036 0.148421 0
M  V30 2870 C 264.759 -1.63072 -1.34055 0
M  V30 2871 O 264.107 -0.93538 -2.08478 0
M  V30 2872 C 264.317 -3.46279 0.434951 0
M  V30 2873 C 265.665 -4.23069 0.360275 0
M  V30 2874 O 266.689 -3.54277 0.369613 0
M  V30 2875 O 265.548 -5.45583 0.316534 0
M  V30 2876 H 262.642 -0.826908 0.0123654 0
M  V30 2877 H 265.188 -1.5138 0.766963 0
M  V30 2878 H 263.96 -3.6281 1.46576 0
M  V30 2879 H 263.583 -3.97019 -0.214787 0
M  V30 2880 N 264.58 -0.43555 -1.51462 0
M  V30 2881 C 265.82 0.130708 -2.03982 0
M  V30 2882 C 266.184 1.40117 -1.31268 0
M  V30 2883 O 267.385 2.04755 -1.74152 0
M  V30 2884 C 265.656 0.346102 -3.5572 0
M  V30 2885 S 267.215 0.876022 -4.29967 0
M  V30 2886 H 264.033 0.0326881 -0.710248 0
M  V30 2887 H 266.635 -0.594544 -1.8624 0
M  V30 2888 H 265.339 -0.584911 -4.0621 0
M  V30 2889 H 264.87 1.09849 -3.77752 0
M  V30 2890 H 266.885 2.15379 -4.47019 0
M  V30 2891 N 266.058 1.56714 -0.166846 0
M  V30 2892 C 267.283 2.01557 0.488833 0
M  V30 2893 C 267.708 1.0463 1.56314 0
M  V30 2894 O 267.066 0.0251304 1.81283 0
M  V30 2895 C 267.114 3.4503 1.04818 0
M  V30 2896 O 266.218 3.51163 2.16236 0
M  V30 2897 H 265.559 0.653516 0.117526 0
M  V30 2898 H 268.089 2.02818 -0.269421 0
M  V30 2899 H 268.099 3.84243 1.37191 0
M  V30 2900 H 266.774 4.15077 0.261572 0
M  V30 2901 H 265.351 3.23807 1.84942 0
M  V30 2902 N 267.536 -0.106894 1.57237 0
M  V30 2903 C 268.484 -1.14944 2.02215 0
M  V30 2904 C 269.478 -1.42167 0.92114 0
M  V30 2905 O 270.684 -1.41987 1.10634 0
M  V30 2906 H 267.059 -0.387841 0.64427 0
M  V30 2907 H 269.03 -0.743683 2.88984 0
M  V30 2908 C 267.779 -2.4647 2.4525 0
M  V30 2909 H 267.102 -2.26363 3.29545 0
M  V30 2910 H 268.542 -3.17948 2.80508 0
M  V30 2911 C 267.001 -3.09921 1.321 0
M  V30 2912 O 267.531 -3.9651 0.643622 0
M  V30 2913 N 265.737 -2.69986 1.07497 0
M  V30 2914 H 265.284 -1.99667 1.62761 0
M  V30 2915 H 265.242 -3.12769 0.319876 0
M  V30 2916 N 269.014 -1.53014 -0.377408 0
M  V30 2917 C 269.962 -1.7927 -1.48206 0
M  V30 2918 C 270.956 -0.661195 -1.55963 0
M  V30 2919 O 272.162 -0.843908 -1.58991 0
M  V30 2920 H 268.537 -0.567425 -0.493491 0
M  V30 2921 H 270.508 -2.71753 -1.2326 0
M  V30 2922 C 269.257 -1.98894 -2.85196 0
M  V30 2923 H 268.58 -2.85395 -2.79981 0
M  V30 2924 H 270.02 -2.21249 -3.61698 0
M  V30 2925 C 268.479 -0.764691 -3.28107 0
M  V30 2926 O 269.009 0.0523226 -4.01666 0
M  V30 2927 N 267.215 -0.591493 -2.84517 0
M  V30 2928 H 266.762 -1.25749 -2.24822 0
M  V30 2929 H 266.72 0.226253 -3.13585 0
M  V30 2930 N 270.492 0.636531 -1.44174 0
M  V30 2931 C 271.903 1.21806 -1.41493 0
M  V30 2932 C 272.254 1.95785 -0.1275 0
M  V30 2933 O 271.379 2.02147 0.772376 0
M  V30 2934 C 271.974 2.21551 -2.56321 0
M  V30 2935 C 270.533 2.75143 -2.56853 0
M  V30 2936 C 269.68 1.50052 -2.33195 0
M  V30 2937 H 272.631 0.427531 -1.52833 0
M  V30 2938 H 272.652 3.0405 -2.28765 0
M  V30 2939 H 272.164 1.67679 -3.50008 0
M  V30 2940 H 270.265 3.33033 -1.67093 0
M  V30 2941 H 270.378 3.2155 -3.55165 0
M  V30 2942 H 268.742 1.77993 -1.82183 0
M  V30 2943 H 269.525 0.980903 -3.28988 0
M  V30 2944 N 271.97 1.30982 0.876444 0
M  V30 2945 C 273.216 1.20474 1.63138 0
M  V30 2946 C 273.549 -0.238096 1.92735 0
M  V30 2947 O 272.824 -1.1692 1.55435 0
M  V30 2948 C 273.107 2.04244 2.96574 0
M  V30 2949 C 272.96 3.56793 2.73896 0
M  V30 2950 C 274.279 1.88684 3.97601 0
M  V30 2951 H 271.398 0.439001 0.591985 0
M  V30 2952 H 274.04 1.60704 1.01361 0
M  V30 2953 H 272.19 1.70063 3.493 0
M  V30 2954 H 273.862 4.01077 2.27892 0
M  V30 2955 H 272.105 3.80548 2.08245 0
M  V30 2956 H 272.776 4.10706 3.68815 0
M  V30 2957 H 275.252 2.18584 3.54062 0
M  V30 2958 H 274.128 2.4961 4.88862 0
M  V30 2959 H 274.389 0.848343 4.33884 0
M  V30 2960 N 273.449 -1.08991 1.13837 0
M  V30 2961 C 274.674 -1.85551 0.926585 0
M  V30 2962 C 275.099 -1.80782 -0.519566 0
M  V30 2963 O 274.457 -1.18855 -1.36906 0
M  V30 2964 C 274.505 -3.31266 1.42462 0
M  V30 2965 O 273.609 -4.07822 0.612789 0
M  V30 2966 H 272.95 -0.575192 0.331738 0
M  V30 2967 H 275.48 -1.37604 1.51414 0
M  V30 2968 H 275.49 -3.82112 1.43019 0
M  V30 2969 H 274.165 -3.34052 2.47754 0
M  V30 2970 H 272.742 -3.66731 0.675463 0
M  V30 2971 N 274.927 -0.932562 -1.27047 0
M  V30 2972 C 276.173 -0.576412 -1.94436 0
M  V30 2973 C 276.506 0.880891 -1.73072 0
M  V30 2974 O 275.781 1.62905 -1.06264 0
M  V30 2975 C 276.064 -0.909031 -3.48437 0
M  V30 2976 C 275.917 -2.42044 -3.79123 0
M  V30 2977 C 277.236 -0.418341 -4.38107 0
M  V30 2978 H 274.355 -0.210888 -0.706184 0
M  V30 2979 H 276.997 -1.16522 -1.50075 0
M  V30 2980 H 275.147 -0.407947 -3.86352 0
M  V30 2981 H 276.819 -2.99359 -3.50973 0
M  V30 2982 H 275.062 -2.86758 -3.25503 0
M  V30 2983 H 275.733 -2.6037 -4.86736 0
M  V30 2984 H 278.209 -0.847856 -4.0737 0
M  V30 2985 H 277.085 -0.679981 -5.44672 0
M  V30 2986 H 277.346 0.681642 -4.36814 0
M  V30 2987 N 276.405 1.4127 -0.698611 0
M  V30 2988 C 277.652 2.0118 -0.230865 0
M  V30 2989 C 277.98 1.55338 1.17049 0
M  V30 2990 O 277.235 0.756775 1.80475 0
M  V30 2991 C 277.534 3.56592 -0.240192 0
M  V30 2992 C 277.2 4.21955 -1.58948 0
M  V30 2993 C 275.862 4.39524 -1.95887 0
M  V30 2994 C 278.214 4.58576 -2.47704 0
M  V30 2995 C 275.542 4.90992 -3.2116 0
M  V30 2996 C 277.894 5.11435 -3.72313 0
M  V30 2997 C 276.558 5.27215 -4.0939 0
M  V30 2998 H 275.828 0.736169 -0.0844796 0
M  V30 2999 H 278.475 1.69124 -0.8983 0
M  V30 3000 H 276.78 3.88456 0.510797 0
M  V30 3001 H 278.477 4.00758 0.139296 0
M  V30 3002 H 275.067 4.08657 -1.29219 0
M  V30 3003 H 279.251 4.44654 -2.20445 0
M  V30 3004 H 274.507 5.01393 -3.49878 0
M  V30 3005 H 278.681 5.38752 -4.4127 0
M  V30 3006 H 276.308 5.66859 -5.06533 0
M  V30 3007 N 277.883 0.443576 1.51229 0
M  V30 3008 C 279.129 -0.11321 2.03085 0
M  V30 3009 C 279.484 -1.39841 1.32145 0
M  V30 3010 O 278.777 -1.86723 0.429542 0
M  V30 3011 C 278.971 -0.380579 3.55368 0
M  V30 3012 C 278.8 0.877157 4.41062 0
M  V30 3013 C 277.57 1.4125 4.85156 0
M  V30 3014 C 279.768 1.76503 4.83064 0
M  V30 3015 N 277.75 2.62213 5.55083 0
M  V30 3016 C 279.121 2.82067 5.52122 0
M  V30 3017 C 281.176 1.7787 4.65045 0
M  V30 3018 C 279.879 3.88952 6.05069 0
M  V30 3019 C 281.905 2.83694 5.18914 0
M  V30 3020 C 281.267 3.87978 5.87922 0
M  V30 3021 H 277.366 -0.00210178 0.781997 0
M  V30 3022 H 279.95 0.605641 1.85041 0
M  V30 3023 H 278.121 -1.06847 3.73414 0
M  V30 3024 H 279.853 -0.929274 3.93887 0
M  V30 3025 H 276.608 0.965542 4.63653 0
M  V30 3026 H 277.032 3.23568 5.9467 0
M  V30 3027 H 281.674 0.985744 4.11148 0
M  V30 3028 H 279.392 4.69082 6.58018 0
M  V30 3029 H 282.978 2.85702 5.06819 0
M  V30 3030 H 281.858 4.68517 6.28857 0
M  V30 3031 N 279.361 -1.56624 0.175154 0
M  V30 3032 C 280.308 -2.18149 -0.753634 0
M  V30 3033 C 281.278 -1.12265 -1.22417 0
M  V30 3034 O 282.463 -1.40432 -1.29165 0
M  V30 3035 C 279.603 -2.82933 -1.97592 0
M  V30 3036 C 278.716 -4.03289 -1.5486 0
M  V30 3037 C 277.851 -4.55988 -2.72485 0
M  V30 3038 C 276.89 -5.68746 -2.26262 0
M  V30 3039 N 276.027 -6.15938 -3.36994 0
M  V30 3040 H 280.867 -2.9717 -0.222195 0
M  V30 3041 H 278.404 -1.46774 -0.0979422 0
M  V30 3042 H 280.362 -3.18653 -2.69288 0
M  V30 3043 H 278.992 -2.06509 -2.481 0
M  V30 3044 H 278.044 -3.73364 -0.728246 0
M  V30 3045 H 279.356 -4.849 -1.16933 0
M  V30 3046 H 278.51 -4.9391 -3.52332 0
M  V30 3047 H 277.249 -3.73443 -3.13674 0
M  V30 3048 H 276.254 -5.30372 -1.44863 0
M  V30 3049 H 277.479 -6.53095 -1.86127 0
M  V30 3050 H 275.425 -5.36321 -3.77751 0
M  V30 3051 H 275.342 -6.92548 -3.03172 0
M  V30 3052 H 276.61 -6.58511 -4.17114 0
M  V30 3053 N 280.839 0.0985539 -1.57292 0
M  V30 3054 C 282.067 0.816318 -1.90115 0
M  V30 3055 C 282.482 1.72451 -0.768509 0
M  V30 3056 O 281.839 1.80643 0.259687 0
M  V30 3057 C 281.89 1.63259 -3.22535 0
M  V30 3058 O 281.611 0.760934 -4.31441 0
M  V30 3059 C 283.112 2.45372 -3.69199 0
M  V30 3060 H 280.332 0.233595 -0.629027 0
M  V30 3061 H 282.876 0.0768229 -2.04356 0
M  V30 3062 H 281.031 2.32463 -3.09903 0
M  V30 3063 H 281.445 1.32595 -5.07463 0
M  V30 3064 H 282.919 2.98144 -4.64558 0
M  V30 3065 H 283.396 3.23677 -2.96867 0
M  V30 3066 H 284.002 1.81373 -3.84687 0
M  V30 3067 N 282.317 1.53212 0.369288 0
M  V30 3068 C 283.563 1.69466 1.11397 0
M  V30 3069 C 283.896 0.443257 1.89074 0
M  V30 3070 O 283.171 -0.559386 1.86282 0
M  V30 3071 C 283.454 2.9422 2.07621 0
M  V30 3072 C 283.307 4.29508 1.33577 0
M  V30 3073 C 284.626 3.14565 3.07794 0
M  V30 3074 H 281.745 0.616667 0.403597 0
M  V30 3075 H 284.387 1.85845 0.395179 0
M  V30 3076 H 282.537 2.80387 2.68916 0
M  V30 3077 H 284.209 4.55147 0.750955 0
M  V30 3078 H 282.452 4.29088 0.637618 0
M  V30 3079 H 283.123 5.12926 2.03989 0
M  V30 3080 H 285.599 3.2756 2.56601 0
M  V30 3081 H 284.475 4.03297 3.72348 0
M  V30 3082 H 284.736 2.29675 3.77759 0
M  V30 3083 N 283.795 -0.628877 1.44509 0
M  V30 3084 C 285.02 -1.42048 1.5112 0
M  V30 3085 C 285.445 -1.87594 0.137818 0
M  V30 3086 O 284.803 -1.58873 -0.873437 0
M  V30 3087 C 284.851 -2.61541 2.48251 0
M  V30 3088 O 283.955 -3.61453 1.98559 0
M  V30 3089 H 283.296 -0.424942 0.510216 0
M  V30 3090 H 285.826 -0.767374 1.89664 0
M  V30 3091 H 285.836 -3.09057 2.66361 0
M  V30 3092 H 284.511 -2.27736 3.48007 0
M  V30 3093 H 283.088 -3.20731 1.90227 0
M  V30 3094 N 285.273 -1.31445 -0.869486 0
M  V30 3095 C 286.689 -1.10113 -1.15531 0
M  V30 3096 C 286.889 0.128087 -2.01092 0
M  V30 3097 O 285.945 0.817276 -2.38908 0
M  V30 3098 C 287.258 -2.37291 -1.84698 0
M  V30 3099 C 288.806 -2.42906 -1.97397 0
M  V30 3100 C 289.281 -3.69967 -2.69979 0
M  V30 3101 N 290.772 -3.70864 -2.77514 0
M  V30 3102 C 291.507 -4.65875 -3.34287 0
M  V30 3103 N 291.003 -5.71242 -3.91988 0
M  V30 3104 N 292.796 -4.53394 -3.3225 0
M  V30 3105 H 284.947 -2.1028 -0.299347 0
M  V30 3106 H 287.21 -0.927683 -0.195214 0
M  V30 3107 H 286.916 -3.27078 -1.29278 0
M  V30 3108 H 286.79 -2.47125 -2.84972 0
M  V30 3109 H 289.177 -1.53588 -2.51982 0
M  V30 3110 H 289.258 -2.37036 -0.961643 0
M  V30 3111 H 288.902 -4.59652 -2.16062 0
M  V30 3112 H 288.832 -3.73103 -3.7162 0
M  V30 3113 H 291.323 -2.94697 -2.36563 0
M  V30 3114 H 291.636 -6.39817 -4.33421 0
M  V30 3115 H 289.981 -5.75015 -3.90362 0
M  V30 3116 H 293.172 -3.70252 -2.8641 0
M  V30 3117 H 293.345 -5.27617 -3.76197 0
M  V30 3118 N 286.751 1.08385 -1.14413 0
M  V30 3119 C 288.167 1.32844 -0.884563 0
M  V30 3120 C 288.367 1.95841 0.474181 0
M  V30 3121 O 287.423 2.21158 1.21842 0
M  V30 3122 C 288.736 2.22978 -2.01745 0
M  V30 3123 C 290.284 2.36458 -2.05077 0
M  V30 3124 C 290.759 3.29934 -3.1766 0
M  V30 3125 N 292.25 3.37511 -3.17239 0
M  V30 3126 C 292.985 4.09871 -4.0099 0
M  V30 3127 N 292.481 4.84936 -4.94781 0
M  V30 3128 N 294.274 4.05704 -3.89051 0
M  V30 3129 H 286.425 0.658756 -2.01926 0
M  V30 3130 H 288.688 0.352821 -0.879899 0
M  V30 3131 H 288.394 1.83934 -2.99769 0
M  V30 3132 H 288.268 3.23441 -1.94077 0
M  V30 3133 H 290.655 2.7476 -1.0766 0
M  V30 3134 H 290.736 1.35736 -2.16816 0
M  V30 3135 H 290.38 2.92352 -4.15322 0
M  V30 3136 H 290.31 4.30584 -3.03158 0
M  V30 3137 H 292.801 2.83996 -2.49308 0
M  V30 3138 H 293.114 5.37612 -5.55151 0
M  V30 3139 H 291.459 4.83988 -4.98779 0
M  V30 3140 H 294.65 3.46167 -3.15097 0
M  V30 3141 H 294.823 4.61834 -4.54547 0
M  V30 3142 N 288.23 0.939286 1.26551 0
M  V30 3143 C 289.477 0.585847 1.9384 0
M  V30 3144 C 289.805 -0.874784 1.73718 0
M  V30 3145 O 289.06 -1.64092 1.06642 0
M  V30 3146 C 289.359 0.872106 3.46596 0
M  V30 3147 C 289.025 2.31632 3.86856 0
M  V30 3148 C 287.687 2.71111 3.97558 0
M  V30 3149 C 290.039 3.25494 4.07066 0
M  V30 3150 C 287.367 4.03553 4.25866 0
M  V30 3151 C 289.719 4.57531 4.36862 0
M  V30 3152 C 288.383 4.96828 4.45778 0
M  V30 3153 H 287.653 0.214377 0.709312 0
M  V30 3154 H 290.3 1.18544 1.50398 0
M  V30 3155 H 288.605 0.18996 3.91339 0
M  V30 3156 H 290.302 0.577442 3.96821 0
M  V30 3157 H 286.892 2.00008 3.79071 0
M  V30 3158 H 291.076 2.9619 3.98227 0
M  V30 3159 H 286.332 4.33665 4.30981 0
M  V30 3160 H 290.506 5.30254 4.51446 0
M  V30 3161 H 288.133 5.99482 4.67468 0
M  V30 3162 N 289.708 -1.40897 0.706093 0
M  V30 3163 C 290.671 -2.29131 0.0562841 0
M  V30 3164 C 291.671 -1.44901 -0.697166 0
M  V30 3165 O 292.861 -1.65926 -0.530484 0
M  V30 3166 C 289.993 -3.27957 -0.93043 0
M  V30 3167 H 291.186 -2.88091 0.833284 0
M  V30 3168 H 288.739 -1.4906 0.470192 0
M  V30 3169 H 289.474 -2.73997 -1.73482 0
M  V30 3170 H 289.259 -3.90124 -0.393166 0
M  V30 3171 H 290.749 -3.94049 -1.38256 0
M  V30 3172 N 291.186 -0.45159 -1.50991 0
M  V30 3173 C 292.096 0.358431 -2.31846 0
M  V30 3174 C 293.112 1.01438 -1.41373 0
M  V30 3175 O 294.288 1.00663 -1.74439 0
M  V30 3176 C 291.353 1.43704 -3.15515 0
M  V30 3177 C 290.414 0.799742 -4.21785 0
M  V30 3178 C 289.647 1.82696 -5.01456 0
M  V30 3179 O 289.87 3.05105 -4.81941 0
M  V30 3180 O 288.804 1.40958 -5.85162 0
M  V30 3181 H 292.63 -0.302032 -3.02194 0
M  V30 3182 H 290.215 -0.213825 -1.47862 0
M  V30 3183 H 292.097 2.06227 -3.67489 0
M  V30 3184 H 290.772 2.08133 -2.47916 0
M  V30 3185 H 289.679 0.136084 -3.73852 0
M  V30 3186 H 291.012 0.198718 -4.91799 0
M  V30 3187 N 292.664 1.56529 -0.183458 0
M  V30 3188 C 293.627 2.17324 0.728223 0
M  V30 3189 C 294.627 1.12453 1.14939 0
M  V30 3190 O 295.817 1.37902 1.06437 0
M  V30 3191 C 292.949 2.76591 1.99274 0
M  V30 3192 H 294.142 2.99241 0.198772 0
M  V30 3193 H 291.695 1.5616 0.0661391 0
M  V30 3194 H 292.43 1.98441 2.56499 0
M  V30 3195 H 292.215 3.5335 1.69959 0
M  V30 3196 H 293.705 3.23311 2.6431 0
M  V30 3197 N 294.142 -0.090211 1.57342 0
M  V30 3198 C 295.105 -1.09335 2.01441 0
M  V30 3199 C 296.105 -1.32666 0.908641 0
M  V30 3200 O 297.295 -1.28697 1.174 0
M  V30 3201 C 294.427 -2.44136 2.3793 0
M  V30 3202 H 295.62 -0.713662 2.91285 0
M  V30 3203 H 293.173 -0.335404 1.52659 0
M  V30 3204 H 293.908 -2.86972 1.51055 0
M  V30 3205 H 293.693 -2.28548 3.18603 0
M  V30 3206 H 295.183 -3.16277 2.72688 0
M  V30 3207 N 295.62 -1.53406 -0.361157 0
M  V30 3208 C 296.86 -1.71507 -1.11197 0
M  V30 3209 C 297.224 -0.459337 -1.86425 0
M  V30 3210 O 298.425 -0.517102 -2.63779 0
M  V30 3211 C 296.696 -2.93307 -2.0422 0
M  V30 3212 S 298.255 -3.32135 -2.86761 0
M  V30 3213 H 295.073 -0.603448 -0.375995 0
M  V30 3214 H 297.675 -1.91516 -0.392642 0
M  V30 3215 H 296.379 -3.82891 -1.47724 0
M  V30 3216 H 295.91 -2.75712 -2.80618 0
M  V30 3217 H 297.925 -2.84493 -4.06544 0
M  V30 3218 N 297.098 0.621204 -1.44841 0
M  V30 3219 C 298.375 1.38 -1.38619 0
M  V30 3220 C 298.755 2.11041 -0.0498935 0
M  V30 3221 O 298.103 2.06992 0.967816 0
M  V30 3222 C 298.313 2.33817 -2.59096 0
M  V30 3223 C 299.661 2.96844 -3.03593 0
M  V30 3224 O 300.685 2.44141 -2.59371 0
M  V30 3225 O 299.544 3.92476 -3.80296 0
M  V30 3226 H 296.638 0.61811 -0.549426 0
M  V30 3227 H 299.184 0.645429 -1.56947 0
M  V30 3228 H 297.956 1.79012 -3.47952 0
M  V30 3229 H 297.579 3.14676 -2.43032 0
M  V30 3230 N 298.576 1.31904 0.862503 0
M  V30 3231 C 299.822 1.22197 1.61851 0
M  V30 3232 C 300.155 -0.217641 1.92977 0
M  V30 3233 O 299.43 -1.15264 1.56666 0
M  V30 3234 C 299.713 2.07378 2.94391 0
M  V30 3235 C 299.566 3.59678 2.70096 0
M  V30 3236 C 300.885 1.92891 3.95577 0
M  V30 3237 H 298.004 0.445255 0.587296 0
M  V30 3238 H 300.646 1.6177 0.99651 0
M  V30 3239 H 298.796 1.73758 3.47477 0
M  V30 3240 H 300.468 4.03472 2.23625 0
M  V30 3241 H 298.711 3.82735 2.04197 0
M  V30 3242 H 299.382 4.14595 3.64438 0
M  V30 3243 H 301.858 2.22327 3.51724 0
M  V30 3244 H 300.734 2.54781 4.86187 0
M  V30 3245 H 300.995 0.894315 4.3296 0
M  V30 3246 N 300.054 -1.07777 1.14986 0
M  V30 3247 C 301.3 -1.80557 0.923422 0
M  V30 3248 C 301.633 -1.86298 -0.548337 0
M  V30 3249 O 300.908 -1.34354 -1.40639 0
M  V30 3250 C 301.191 -3.25839 1.53299 0
M  V30 3251 C 301.044 -3.28269 3.07505 0
M  V30 3252 C 302.363 -4.22991 1.21518 0
M  V30 3253 H 299.482 -0.655493 0.336894 0
M  V30 3254 H 302.124 -1.26144 1.42083 0
M  V30 3255 H 300.274 -3.72306 1.10999 0
M  V30 3256 H 301.946 -2.90079 3.58681 0
M  V30 3257 H 300.189 -2.67355 3.4162 0
M  V30 3258 H 300.86 -4.30691 3.45266 0
M  V30 3259 H 303.336 -3.84894 1.581 0
M  V30 3260 H 302.212 -5.22945 1.66793 0
M  V30 3261 H 302.473 -4.41904 0.131505 0
M  V30 3262 N 301.532 -0.945985 -1.26051 0
M  V30 3263 C 302.482 -0.430164 -2.23905 0
M  V30 3264 C 303.466 0.47579 -1.53704 0
M  V30 3265 O 304.658 0.310252 -1.7426 0
M  V30 3266 C 301.787 0.298957 -3.41996 0
M  V30 3267 C 300.873 -0.624566 -4.19476 0
M  V30 3268 N 301.264 -1.75245 -4.74471 0
M  V30 3269 C 299.562 -0.431082 -4.43912 0
M  V30 3270 C 300.263 -2.32834 -5.3307 0
M  V30 3271 N 299.239 -1.61583 -5.1903 0
M  V30 3272 H 303.041 -1.29107 -2.64024 0
M  V30 3273 H 300.555 -0.802428 -1.41191 0
M  V30 3274 H 302.552 0.685565 -4.11225 0
M  V30 3275 H 301.212 1.15657 -3.03403 0
M  V30 3276 H 302.223 -2.13449 -4.71868 0
M  V30 3277 H 298.9 0.384364 -4.15727 0
M  V30 3278 H 300.29 -3.27893 -5.86461 0
M  V30 3279 N 303.011 1.40521 -0.713556 0
M  V30 3280 C 304.257 2.01221 -0.252564 0
M  V30 3281 C 304.59 1.56444 1.1506 0
M  V30 3282 O 303.865 0.783597 1.78017 0
M  V30 3283 C 304.148 3.58582 -0.330332 0
M  V30 3284 C 304.001 4.13437 -1.77173 0
M  V30 3285 C 305.32 4.39079 0.299641 0
M  V30 3286 H 302.439 0.731077 -0.0932471 0
M  V30 3287 H 305.081 1.67026 -0.905673 0
M  V30 3288 H 303.231 3.87844 0.225737 0
M  V30 3289 H 304.903 3.9498 -2.38303 0
M  V30 3290 H 303.146 3.67801 -2.3001 0
M  V30 3291 H 303.817 5.22597 -1.77755 0
M  V30 3292 H 306.293 4.15735 -0.174139 0
M  V30 3293 H 305.169 5.4848 0.214771 0
M  V30 3294 H 305.43 4.19915 1.38288 0
M  V30 3295 N 304.489 0.459591 1.5075 0
M  V30 3296 C 305.422 -0.386257 2.24907 0
M  V30 3297 C 306.4 -1.006 1.27744 0
M  V30 3298 O 307.584 -1.04416 1.56938 0
M  V30 3299 C 304.711 -1.54021 3.01654 0
M  V30 3300 C 303.757 -1.03898 4.13651 0
M  V30 3301 S 304.59 0.0370501 5.35487 0
M  V30 3302 C 305.746 -1.12105 6.15779 0
M  V30 3303 H 305.979 0.243272 2.96303 0
M  V30 3304 H 303.512 0.244339 1.52454 0
M  V30 3305 H 305.47 -2.20163 3.46466 0
M  V30 3306 H 304.131 -2.14121 2.29806 0
M  V30 3307 H 303.324 -1.90254 4.66711 0
M  V30 3308 H 302.926 -0.45545 3.71216 0
M  V30 3309 H 305.218 -2.03501 6.46215 0
M  V30 3310 H 306.161 -0.62995 7.05292 0
M  V30 3311 H 306.569 -1.36967 5.47631 0
M  V30 3312 N 305.967 -1.56429 0.191757 0
M  V30 3313 C 306.897 -2.21937 -0.725696 0
M  V30 3314 C 307.878 -1.1814 -1.2238 0
M  V30 3315 O 309.063 -1.46636 -1.27325 0
M  V30 3316 C 306.193 -2.87611 -1.94672 0
M  V30 3317 C 305.147 -3.97623 -1.58366 0
M  V30 3318 C 304.473 -4.50446 -2.88102 0
M  V30 3319 C 305.773 -5.16197 -0.796133 0
M  V30 3320 H 307.467 -2.98861 -0.179606 0
M  V30 3321 H 305.013 -1.43749 -0.0849464 0
M  V30 3322 H 306.966 -3.3212 -2.59373 0
M  V30 3323 H 305.69 -2.08087 -2.51728 0
M  V30 3324 H 304.349 -3.53801 -0.960247 0
M  V30 3325 H 303.997 -3.67688 -3.43241 0
M  V30 3326 H 303.697 -5.24675 -2.64556 0
M  V30 3327 H 305.221 -4.97654 -3.53798 0
M  V30 3328 H 306.635 -5.57271 -1.34618 0
M  V30 3329 H 305.032 -5.96471 -0.658928 0
M  V30 3330 H 306.102 -4.84473 0.203478 0
M  V30 3331 N 307.445 0.0818655 -1.57387 0
M  V30 3332 C 308.393 1.11712 -2.04018 0
M  V30 3333 C 309.387 1.40683 -0.94364 0
M  V30 3334 O 310.593 1.40209 -1.12878 0
M  V30 3335 H 306.968 0.377542 -0.650358 0
M  V30 3336 H 308.939 0.697614 -2.90131 0
M  V30 3337 C 307.688 2.42537 -2.49141 0
M  V30 3338 H 307.011 2.21092 -3.33104 0
M  V30 3339 H 308.451 3.13446 -2.85531 0
M  V30 3340 C 306.91 3.0778 -1.37014 0
M  V30 3341 O 307.44 3.95436 -0.706621 0
M  V30 3342 N 305.646 2.68242 -1.11779 0
M  V30 3343 H 305.193 1.97052 -1.65917 0
M  V30 3344 H 305.151 3.1222 -0.369594 0
M  V30 3345 N 308.923 1.53595 0.353017 0
M  V30 3346 C 310.171 1.70049 1.09215 0
M  V30 3347 C 310.492 0.461406 1.89463 0
M  V30 3348 O 309.762 -0.524633 1.88744 0
M  V30 3349 H 308.342 0.626912 0.40619 0
M  V30 3350 H 311.004 1.90822 0.396585 0
M  V30 3351 H 310.1 2.56718 1.77488 0
M  V30 3352 N 310.401 -0.613514 1.45168 0
M  V30 3353 C 311.626 -1.40437 1.52618 0
M  V30 3354 C 312.051 -1.87438 0.157707 0
M  V30 3355 O 311.409 -1.59791 -0.856537 0
M  V30 3356 C 311.457 -2.58894 2.51011 0
M  V30 3357 O 310.561 -3.59326 2.02382 0
M  V30 3358 H 309.902 -0.419506 0.514695 0
M  V30 3359 H 312.432 -0.747215 1.90467 0
M  V30 3360 H 312.442 -3.06214 2.69624 0
M  V30 3361 H 311.117 -2.24032 3.50403 0
M  V30 3362 H 309.694 -3.18695 1.93618 0
M  V30 3363 N 311.879 -1.3236 -0.855495 0
M  V30 3364 C 313.295 -1.11332 -1.14356 0
M  V30 3365 C 313.495 0.106751 -2.01217 0
M  V30 3366 O 312.551 0.791891 -2.39761 0
M  V30 3367 C 313.864 -2.39237 -1.82171 0
M  V30 3368 C 315.412 -2.44986 -1.9481 0
M  V30 3369 C 315.887 -3.7281 -2.66039 0
M  V30 3370 N 317.378 -3.73787 -2.73565 0
M  V30 3371 C 318.113 -4.69394 -3.29327 0
M  V30 3372 N 317.609 -5.75367 -3.85907 0
M  V30 3373 N 319.402 -4.56893 -3.27423 0
M  V30 3374 H 311.553 -2.10586 -0.277027 0
M  V30 3375 H 313.816 -0.929701 -0.185364 0
M  V30 3376 H 313.522 -3.28431 -1.25802 0
M  V30 3377 H 313.396 -2.50134 -2.82335 0
M  V30 3378 H 315.783 -1.56252 -2.50338 0
M  V30 3379 H 315.864 -2.38043 -0.936448 0
M  V30 3380 H 315.508 -4.61918 -2.11174 0
M  V30 3381 H 315.438 -3.77024 -3.67642 0
M  V30 3382 H 317.929 -2.97189 -2.33424 0
M  V30 3383 H 318.242 -6.44378 -4.26611 0
M  V30 3384 H 316.587 -5.79123 -3.84242 0
M  V30 3385 H 319.778 -3.73269 -2.82467 0
M  V30 3386 H 319.951 -5.31577 -3.7058 0
M  V30 3387 N 313.357 1.07166 -1.15556 0
M  V30 3388 C 314.582 1.84053 -0.955988 0
M  V30 3389 C 315.007 1.81586 0.490739 0
M  V30 3390 O 314.365 1.21018 1.34997 0
M  V30 3391 C 314.413 3.28957 -1.47714 0
M  V30 3392 O 313.517 4.06795 -0.677593 0
M  V30 3393 H 312.858 0.569842 -0.340847 0
M  V30 3394 H 315.388 1.35178 -1.53584 0
M  V30 3395 H 315.398 3.79788 -1.4908 0
M  V30 3396 H 314.073 3.30068 -2.53037 0
M  V30 3397 H 312.65 3.6561 -0.733721 0
M  V30 3398 N 314.835 0.952656 1.25548 0
M  V30 3399 C 315.782 0.47008 2.25962 0
M  V30 3400 C 316.752 -0.476384 1.59122 0
M  V30 3401 O 317.937 -0.39007 1.8677 0
M  V30 3402 C 315.077 -0.247881 3.44209 0
M  V30 3403 C 314.19 0.735591 4.25691 0
M  V30 3404 C 313.325 -0.0047306 5.312 0
M  V30 3405 C 312.364 0.969805 6.04368 0
M  V30 3406 N 311.501 0.260486 7.01617 0
M  V30 3407 H 316.341 1.33126 2.66611 0
M  V30 3408 H 313.878 0.66765 1.31076 0
M  V30 3409 H 315.836 -0.680695 4.1161 0
M  V30 3410 H 314.466 -1.07312 3.0444 0
M  V30 3411 H 313.518 1.28689 3.57971 0
M  V30 3412 H 314.83 1.47934 4.76358 0
M  V30 3413 H 313.984 -0.496275 6.04667 0
M  V30 3414 H 312.723 -0.781282 4.81401 0
M  V30 3415 H 311.728 1.47237 5.29718 0
M  V30 3416 H 312.953 1.74655 6.56256 0
M  V30 3417 H 310.899 -0.497364 6.54112 0
M  V30 3418 H 310.816 0.943362 7.50091 0
M  V30 3419 H 312.084 -0.209587 7.79218 0
M  V30 3420 N 316.313 -1.40141 0.720998 0
M  V30 3421 C 317.562 -2.0002 0.259804 0
M  V30 3422 C 317.875 -1.57839 -1.15526 0
M  V30 3423 O 319.081 -2.10455 -1.71525 0
M  V30 3424 C 317.537 -3.57516 0.413566 0
M  V30 3425 C 317.145 -4.08667 1.83562 0
M  V30 3426 C 318.889 -4.24498 0.0134387 0
M  V30 3427 C 316.796 -5.58686 1.93968 0
M  V30 3428 H 315.726 -0.748195 0.0933806 0
M  V30 3429 H 318.377 -1.60313 0.892866 0
M  V30 3430 H 316.759 -3.9495 -0.288169 0
M  V30 3431 H 317.933 -3.82598 2.56817 0
M  V30 3432 H 316.248 -3.543 2.1877 0
M  V30 3433 H 318.845 -5.34654 0.0703954 0
M  V30 3434 H 319.188 -4.03375 -1.02927 0
M  V30 3435 H 319.721 -3.92188 0.665815 0
M  V30 3436 H 316.46 -5.8467 2.96379 0
M  V30 3437 H 315.98 -5.86602 1.25131 0
M  V30 3438 H 317.659 -6.23875 1.71431 0
M  V30 3439 N 317.792 -0.46758 -1.50504 0
M  V30 3440 C 319.039 0.0886219 -2.02306 0
M  V30 3441 C 319.367 1.40037 -1.34981 0
M  V30 3442 O 318.622 1.90136 -0.463318 0
M  V30 3443 C 318.921 0.323995 -3.55928 0
M  V30 3444 C 318.587 -0.905618 -4.41712 0
M  V30 3445 C 317.249 -1.24275 -4.64875 0
M  V30 3446 C 319.601 -1.72448 -4.91845 0
M  V30 3447 C 316.929 -2.39888 -5.35417 0
M  V30 3448 C 319.281 -2.87185 -5.63656 0
M  V30 3449 C 317.945 -3.21317 -5.85074 0
M  V30 3450 H 317.215 0.0324291 -0.74029 0
M  V30 3451 H 319.862 -0.620945 -1.81153 0
M  V30 3452 H 318.167 1.11577 -3.75577 0
M  V30 3453 H 319.864 0.76826 -3.93572 0
M  V30 3454 H 316.454 -0.632956 -4.239 0
M  V30 3455 H 320.638 -1.4772 -4.73806 0
M  V30 3456 H 315.894 -2.66611 -5.50208 0
M  V30 3457 H 320.068 -3.50985 -6.01484 0
M  V30 3458 H 317.695 -4.1101 -6.39511 0
M  V30 3459 N 319.27 1.56325 -0.20005 0
M  V30 3460 C 320.547 1.89484 0.48529 0
M  V30 3461 C 320.927 1.1143 1.79294 0
M  V30 3462 O 320.275 0.216919 2.27468 0
M  V30 3463 C 320.485 3.41923 0.699243 0
M  V30 3464 C 321.833 4.12256 1.01638 0
M  V30 3465 O 322.857 3.47402 0.786792 0
M  V30 3466 O 321.716 5.26887 1.45095 0
M  V30 3467 H 318.81 0.787144 0.253639 0
M  V30 3468 H 321.356 1.67985 -0.240633 0
M  V30 3469 H 320.128 3.90658 -0.224008 0
M  V30 3470 H 319.751 3.69131 1.47744 0
M  V30 3471 N 320.748 -0.0735177 1.57428 0
M  V30 3472 C 321.695 -1.08756 2.0357 0
M  V30 3473 C 322.665 -1.38559 0.916 0
M  V30 3474 O 323.85 -1.49656 1.18354 0
M  V30 3475 C 320.99 -2.39657 2.48311 0
M  V30 3476 C 320.103 -2.16399 3.73892 0
M  V30 3477 C 319.238 -3.40852 4.07423 0
M  V30 3478 C 318.277 -3.1295 5.2605 0
M  V30 3479 N 317.414 -4.29729 5.55228 0
M  V30 3480 H 322.254 -0.687104 2.8997 0
M  V30 3481 H 319.791 -0.327709 1.43403 0
M  V30 3482 H 321.749 -3.16081 2.72303 0
M  V30 3483 H 320.379 -2.77508 1.64891 0
M  V30 3484 H 319.431 -1.30676 3.57251 0
M  V30 3485 H 320.743 -1.91788 4.60455 0
M  V30 3486 H 319.897 -4.25671 4.32306 0
M  V30 3487 H 318.636 -3.68537 3.19425 0
M  V30 3488 H 317.641 -2.26526 5.00965 0
M  V30 3489 H 318.866 -2.86589 6.15665 0
M  V30 3490 H 316.812 -4.57448 4.70188 0
M  V30 3491 H 316.729 -4.08385 6.36206 0
M  V30 3492 H 317.997 -5.1555 5.84661 0
M  V30 3493 N 322.226 -1.5378 -0.344866 0
M  V30 3494 C 323.174 -1.82373 -1.4437 0
M  V30 3495 C 324.168 -0.694128 -1.54526 0
M  V30 3496 O 325.374 -0.877442 -1.57165 0
M  V30 3497 H 321.749 -0.577765 -0.481344 0
M  V30 3498 H 323.72 -2.74306 -1.17468 0
M  V30 3499 C 322.469 -2.04898 -2.80913 0
M  V30 3500 H 321.792 -2.9127 -2.73865 0
M  V30 3501 H 323.232 -2.28871 -3.56923 0
M  V30 3502 C 321.691 -0.834116 -3.26411 0
M  V30 3503 O 322.221 -0.0328885 -4.01687 0
M  V30 3504 N 320.427 -0.65171 -2.83198 0
M  V30 3505 H 319.974 -1.30489 -2.22104 0
M  V30 3506 H 319.932 0.159686 -3.13994 0
M  V30 3507 N 323.704 0.605807 -1.45491 0
M  V30 3508 C 324.929 1.39625 -1.53361 0
M  V30 3509 C 325.354 1.87351 -0.167645 0
M  V30 3510 O 324.712 1.60243 0.848051 0
M  V30 3511 C 324.76 2.57559 -2.5238 0
M  V30 3512 O 323.864 3.58248 -2.04285 0
M  V30 3513 H 323.205 0.416771 -0.516912 0
M  V30 3514 H 325.735 0.737103 -1.90861 0
M  V30 3515 H 325.745 3.0478 -2.71244 0
M  V30 3516 H 324.42 2.22171 -3.51586 0
M  V30 3517 H 322.997 3.17664 -1.95305 0
M  V30 3518 N 325.182 1.32811 0.848464 0
M  V30 3519 C 326.41 1.26739 1.63538 0
M  V30 3520 C 326.825 -0.163484 1.88091 0
M  V30 3521 O 326.182 -1.10258 1.45429 0
M  V30 3522 C 326.233 2.03013 2.99112 0
M  V30 3523 O 325.954 3.40518 2.75643 0
M  V30 3524 C 327.455 2.04038 3.93552 0
M  V30 3525 H 324.675 0.437024 0.509167 0
M  V30 3526 H 327.219 1.75033 1.05753 0
M  V30 3527 H 325.374 1.58426 3.53525 0
M  V30 3528 H 325.788 3.79635 3.61908 0
M  V30 3529 H 327.262 2.61877 4.85926 0
M  V30 3530 H 327.739 1.0282 4.26995 0
M  V30 3531 H 328.345 2.486 3.45077 0
M  V30 3532 N 326.66 -1.06551 1.16123 0
M  V30 3533 C 327.907 -1.79302 0.941126 0
M  V30 3534 C 328.235 -1.87105 -0.531235 0
M  V30 3535 O 327.49 -1.35692 -1.41018 0
M  V30 3536 C 327.789 -3.23911 1.51052 0
M  V30 3537 C 327.455 -3.36193 3.00475 0
M  V30 3538 C 326.117 -3.39252 3.41265 0
M  V30 3539 C 328.469 -3.38326 3.96465 0
M  V30 3540 C 325.797 -3.42057 4.76669 0
M  V30 3541 C 328.149 -3.4267 5.31752 0
M  V30 3542 C 326.813 -3.4401 5.72026 0
M  V30 3543 H 326.083 -0.656111 0.344382 0
M  V30 3544 H 328.73 -1.25325 1.44796 0
M  V30 3545 H 327.035 -3.80723 0.925063 0
M  V30 3546 H 328.732 -3.78793 1.31593 0
M  V30 3547 H 325.322 -3.34516 2.6795 0
M  V30 3548 H 329.506 -3.35176 3.6602 0
M  V30 3549 H 324.762 -3.41398 5.07206 0
M  V30 3550 H 328.936 -3.43268 6.05921 0
M  V30 3551 H 326.563 -3.45937 6.76928 0
M  V30 3552 N 328.138 -0.959301 -1.25041 0
M  V30 3553 C 329.386 -0.615393 -1.92503 0
M  V30 3554 C 329.707 0.850969 -1.75452 0
M  V30 3555 O 328.977 1.60658 -1.12098 0
M  V30 3556 H 327.557 -0.224613 -0.712431 0
M  V30 3557 H 330.219 -1.21855 -1.5211 0
M  V30 3558 H 329.315 -0.848738 -3.00338 0
M  V30 3559 N 329.616 1.39756 -0.72842 0
M  V30 3560 C 330.841 2.05472 -0.282159 0
M  V30 3561 C 331.266 1.54549 1.07221 0
M  V30 3562 O 330.624 0.686372 1.67805 0
M  V30 3563 C 330.672 3.59462 -0.286264 0
M  V30 3564 O 329.776 4.05918 0.728298 0
M  V30 3565 H 329.117 0.651226 -0.129618 0
M  V30 3566 H 331.647 1.78915 -0.992499 0
M  V30 3567 H 331.657 4.07798 -0.128373 0
M  V30 3568 H 330.332 3.95889 -1.27456 0
M  V30 3569 H 328.909 3.69012 0.537081 0
M  V30 3570 N 331.094 0.475555 1.50254 0
M  V30 3571 C 332.34 -0.0780073 2.0265 0
M  V30 3572 C 332.673 -1.38968 1.35652 0
M  V30 3573 O 331.948 -1.8839 0.483691 0
M  V30 3574 C 332.231 -0.257161 3.59181 0
M  V30 3575 C 332.084 1.07585 4.36744 0
M  V30 3576 C 333.403 -1.00965 4.28362 0
M  V30 3577 H 330.522 -0.0268758 0.73651 0
M  V30 3578 H 333.164 0.622015 1.7953 0
M  V30 3579 H 331.314 -0.853412 3.79011 0
M  V30 3580 H 332.986 1.70902 4.28474 0
M  V30 3581 H 331.229 1.6714 4.00308 0
M  V30 3582 H 331.9 0.904088 5.44546 0
M  V30 3583 H 334.376 -0.504214 4.13034 0
M  V30 3584 H 333.252 -1.10381 5.37687 0
M  V30 3585 H 333.513 -2.04731 3.91839 0
M  V30 3586 N 332.573 -1.56217 0.208337 0
M  V30 3587 C 333.483 -2.23316 -0.718836 0
M  V30 3588 C 334.499 -1.23648 -1.22422 0
M  V30 3589 O 335.675 -1.56423 -1.26861 0
M  V30 3590 C 332.74 -2.88968 -1.91568 0
M  V30 3591 C 331.801 -4.03943 -1.45357 0
M  V30 3592 C 331.034 -4.66455 -2.59337 0
M  V30 3593 O 331.257 -4.27919 -3.77149 0
M  V30 3594 O 330.191 -5.55686 -2.31293 0
M  V30 3595 H 334.017 -3.03182 -0.177315 0
M  V30 3596 H 331.602 -1.49384 -0.0215402 0
M  V30 3597 H 333.484 -3.30455 -2.61491 0
M  V30 3598 H 332.159 -2.12071 -2.44556 0
M  V30 3599 H 331.066 -3.67052 -0.722746 0
M  V30 3600 H 332.399 -4.82543 -0.970219 0
M  V30 3601 N 334.051 0.0651679 -1.57465 0
M  V30 3602 C 335.297 0.764193 -1.87851 0
M  V30 3603 C 335.63 1.76889 -0.801495 0
M  V30 3604 O 334.905 1.93594 0.187528 0
M  V30 3605 C 335.188 1.46625 -3.28897 0
M  V30 3606 C 335.041 0.477515 -4.47258 0
M  V30 3607 C 336.36 2.4095 -3.68281 0
M  V30 3608 H 333.479 0.276351 -0.683227 0
M  V30 3609 H 336.121 0.0272868 -1.8998 0
M  V30 3610 H 334.271 2.09438 -3.27212 0
M  V30 3611 H 335.943 -0.145922 -4.61069 0
M  V30 3612 H 334.186 -0.206576 -4.33308 0
M  V30 3613 H 334.857 1.0065 -5.42746 0
M  V30 3614 H 337.333 1.88209 -3.71102 0
M  V30 3615 H 336.209 2.87072 -4.67847 0
M  V30 3616 H 336.47 3.26049 -2.98571 0
M  V30 3617 N 335.529 1.53961 0.336706 0
M  V30 3618 C 336.479 1.7881 1.41461 0
M  V30 3619 C 337.463 0.643561 1.47469 0
M  V30 3620 O 338.655 0.903166 1.52223 0
M  V30 3621 C 335.784 2.00722 2.78506 0
M  V30 3622 C 334.87 3.2126 2.76862 0
M  V30 3623 N 335.261 4.42588 2.44845 0
M  V30 3624 C 333.559 3.22568 3.08004 0
M  V30 3625 C 334.26 5.2447 2.51607 0
M  V30 3626 N 333.236 4.61344 2.87511 0
M  V30 3627 H 337.038 2.70205 1.15615 0
M  V30 3628 H 334.552 1.52978 0.545112 0
M  V30 3629 H 336.549 2.1666 3.5618 0
M  V30 3630 H 335.209 1.10573 3.05293 0
M  V30 3631 H 336.22 4.69819 2.17922 0
M  V30 3632 H 332.897 2.42409 3.39918 0
M  V30 3633 H 334.287 6.31324 2.29955 0
M  V30 3634 N 337.007 -0.598083 1.45811 0
M  V30 3635 C 337.955 -1.72932 1.55555 0
M  V30 3636 C 338.949 -1.63984 0.424921 0
M  V30 3637 O 340.155 -1.69663 0.601205 0
M  V30 3638 H 336.53 -0.571489 0.488779 0
M  V30 3639 H 338.501 -1.61842 2.50699 0
M  V30 3640 C 337.25 -3.11318 1.54843 0
M  V30 3641 H 336.573 -3.18867 2.41172 0
M  V30 3642 H 338.013 -3.90274 1.65717 0
M  V30 3643 C 336.472 -3.3578 0.274427 0
M  V30 3644 O 337.002 -3.9654 -0.641778 0
M  V30 3645 N 335.208 -2.90119 0.167139 0
M  V30 3646 H 334.755 -2.40855 0.913596 0
M  V30 3647 H 334.713 -3.0686 -0.684435 0
M  V30 3648 N 338.485 -1.33259 -0.841409 0
M  V30 3649 C 339.415 -1.25926 -1.96634 0
M  V30 3650 C 340.396 -0.140349 -1.6952 0
M  V30 3651 O 341.581 -0.329707 -1.91381 0
M  V30 3652 C 338.711 -0.99512 -3.32738 0
M  V30 3653 C 337.665 -2.0767 -3.74242 0
M  V30 3654 C 336.991 -1.66474 -5.08125 0
M  V30 3655 C 338.291 -3.49318 -3.88297 0
M  V30 3656 H 339.985 -2.20046 -2.03027 0
M  V30 3657 H 337.531 -1.05931 -0.975425 0
M  V30 3658 H 339.484 -0.930323 -4.11002 0
M  V30 3659 H 338.208 -0.0183004 -3.26595 0
M  V30 3660 H 336.867 -2.13187 -2.98239 0
M  V30 3661 H 336.515 -0.675012 -4.9845 0
M  V30 3662 H 336.215 -2.3885 -5.36865 0
M  V30 3663 H 337.739 -1.61455 -5.88867 0
M  V30 3664 H 339.153 -3.46316 -4.56879 0
M  V30 3665 H 337.55 -4.20158 -4.28471 0
M  V30 3666 H 338.62 -3.8801 -2.9082 0
M  V30 3667 N 339.963 1.05934 -1.16686 0
M  V30 3668 C 340.895 2.13468 -0.834503 0
M  V30 3669 C 341.908 1.62013 0.15984 0
M  V30 3670 O 343.097 1.7838 -0.0654228 0
M  V30 3671 C 340.197 3.3817 -0.222361 0
M  V30 3672 C 339.37 4.18928 -1.25771 0
M  V30 3673 C 338.429 5.21985 -0.664703 0
M  V30 3674 O 337.455 5.53334 -1.33453 0
M  V30 3675 N 338.657 5.77919 0.546834 0
M  V30 3676 H 341.422 2.42578 -1.75999 0
M  V30 3677 H 338.983 1.21967 -1.06469 0
M  V30 3678 H 340.975 4.04266 0.187472 0
M  V30 3679 H 339.545 3.06655 0.606758 0
M  V30 3680 H 338.765 3.48433 -1.84358 0
M  V30 3681 H 340.053 4.69687 -1.95631 0
M  V30 3682 H 339.451 5.54721 1.10912 0
M  V30 3683 H 338.008 6.45573 0.898829 0
M  V30 3684 N 341.441 0.965919 1.2453 0
M  V30 3685 C 342.852 0.665929 1.7442 0
M  V30 3686 C 343.203 -0.818407 1.78316 0
M  V30 3687 O 342.328 -1.64037 1.41141 0
M  V30 3688 C 342.923 1.20211 3.16757 0
M  V30 3689 C 341.482 0.952059 3.6416 0
M  V30 3690 C 340.629 1.33848 2.42858 0
M  V30 3691 H 343.58 1.14144 1.10258 0
M  V30 3692 H 343.601 0.567544 3.76244 0
M  V30 3693 H 343.113 2.28244 3.13889 0
M  V30 3694 H 341.214 -0.112821 3.72429 0
M  V30 3695 H 341.327 1.59645 4.51719 0
M  V30 3696 H 339.691 0.756864 2.43195 0
M  V30 3697 H 340.474 2.42827 2.42673 0
M  V30 3698 N 342.919 -1.39368 0.735821 0
M  V30 3699 C 343.829 -2.34395 0.0979693 0
M  V30 3700 C 344.845 -1.58361 -0.720968 0
M  V30 3701 O 346.021 -1.90648 -0.649245 0
M  V30 3702 C 343.086 -3.37393 -0.797916 0
M  V30 3703 C 342.147 -4.29287 0.0333662 0
M  V30 3704 C 341.38 -5.27365 -0.819854 0
M  V30 3705 O 341.603 -5.31959 -2.05855 0
M  V30 3706 O 340.537 -6.01389 -0.248079 0
M  V30 3707 H 344.363 -2.90601 0.882315 0
M  V30 3708 H 341.948 -1.40909 0.4965 0
M  V30 3709 H 343.83 -4.00505 -1.31048 0
M  V30 3710 H 342.505 -2.83571 -1.56106 0
M  V30 3711 H 341.412 -3.69395 0.591475 0
M  V30 3712 H 342.745 -4.86317 0.758752 0
M  V30 3713 N 344.397 -0.483516 -1.5 0
M  V30 3714 C 345.344 0.304164 -2.28787 0
M  V30 3715 C 346.314 0.976114 -1.34392 0
M  V30 3716 O 347.499 0.986156 -1.63339 0
M  V30 3717 C 344.639 1.37298 -3.16612 0
M  V30 3718 C 343.752 0.714561 -4.26049 0
M  V30 3719 C 342.887 1.76232 -5.01114 0
M  V30 3720 C 341.926 1.08483 -6.0241 0
M  V30 3721 N 341.063 2.076 -6.70706 0
M  V30 3722 H 345.903 -0.373981 -2.95644 0
M  V30 3723 H 343.44 -0.196275 -1.45785 0
M  V30 3724 H 345.398 2.00445 -3.65893 0
M  V30 3725 H 344.028 2.02012 -2.51776 0
M  V30 3726 H 343.08 -0.0297798 -3.80388 0
M  V30 3727 H 344.392 0.180383 -4.98474 0
M  V30 3728 H 343.546 2.46929 -5.54176 0
M  V30 3729 H 342.285 2.33033 -4.28424 0
M  V30 3730 H 341.29 0.363545 -5.48597 0
M  V30 3731 H 342.515 0.523551 -6.77079 0
M  V30 3732 H 340.461 2.63394 -6.00799 0
M  V30 3733 H 340.378 1.59201 -7.39047 0
M  V30 3734 H 341.646 2.77639 -7.2838 0
M  V30 3735 N 345.875 1.56104 -0.216619 0
M  V30 3736 C 347.121 1.98466 0.417033 0
M  V30 3737 C 347.454 1.10403 1.59765 0
M  V30 3738 O 346.729 0.160632 1.93836 0
M  V30 3739 C 347.012 3.49769 0.85637 0
M  V30 3740 C 346.865 4.48606 -0.327546 0
M  V30 3741 C 348.184 4.05339 1.7143 0
M  V30 3742 H 345.303 0.721551 0.150112 0
M  V30 3743 H 347.945 1.87423 -0.311864 0
M  V30 3744 H 346.095 3.5931 1.47745 0
M  V30 3745 H 347.767 4.5108 -0.965618 0
M  V30 3746 H 346.01 4.22682 -0.975805 0
M  V30 3747 H 346.681 5.51995 0.0227149 0
M  V30 3748 H 349.157 3.98712 1.19031 0
M  V30 3749 H 348.033 5.11533 1.99061 0
M  V30 3750 H 348.294 3.51918 2.67593 0
M  V30 3751 N 347.353 -0.0568162 1.57498 0
M  V30 3752 C 348.285 -1.09292 2.01464 0
M  V30 3753 C 349.298 -1.34112 0.922913 0
M  V30 3754 O 350.487 -1.32089 1.20062 0
M  V30 3755 C 347.587 -2.44068 2.35125 0
M  V30 3756 C 346.76 -2.38995 3.66333 0
M  V30 3757 C 345.819 -3.55997 3.87495 0
M  V30 3758 O 344.845 -3.36746 4.58901 0
M  V30 3759 N 346.047 -4.76888 3.30996 0
M  V30 3760 H 348.812 -0.718386 2.90963 0
M  V30 3761 H 346.373 -0.245235 1.60032 0
M  V30 3762 H 348.365 -3.21011 2.46443 0
M  V30 3763 H 346.935 -2.73468 1.5144 0
M  V30 3764 H 346.155 -1.47336 3.65631 0
M  V30 3765 H 347.443 -2.3272 4.52458 0
M  V30 3766 H 346.841 -4.95431 2.73065 0
M  V30 3767 H 345.398 -5.51291 3.47738 0
M  V30 3768 N 348.832 -1.54138 -0.328536 0
M  V30 3769 C 350.06 -1.76062 -1.08673 0
M  V30 3770 C 350.475 -0.506852 -1.81869 0
M  V30 3771 O 349.832 0.522223 -1.74869 0
M  V30 3772 C 349.883 -2.95054 -2.08866 0
M  V30 3773 O 349.604 -4.15583 -1.38644 0
M  V30 3774 C 351.105 -3.2915 -2.96943 0
M  V30 3775 H 348.325 -0.587889 -0.323461 0
M  V30 3776 H 350.869 -2.0101 -0.376175 0
M  V30 3777 H 349.024 -2.72394 -2.75464 0
M  V30 3778 H 349.438 -4.82481 -2.05699 0
M  V30 3779 H 350.912 -4.15723 -3.63151 0
M  V30 3780 H 351.389 -2.461 -3.63774 0
M  V30 3781 H 351.995 -3.53871 -2.35914 0
M  V30 3782 N 350.31 0.590341 -1.46126 0
M  V30 3783 C 351.24 1.71032 -1.58966 0
M  V30 3784 C 352.221 1.64302 -0.440335 0
M  V30 3785 O 353.406 1.82436 -0.665634 0
M  V30 3786 C 350.536 3.09665 -1.57241 0
M  V30 3787 C 349.49 3.31221 -2.71066 0
M  V30 3788 C 348.816 4.70303 -2.54399 0
M  V30 3789 C 350.116 3.19796 -4.1295 0
M  V30 3790 H 351.81 1.60543 -2.52718 0
M  V30 3791 H 349.356 0.770933 -1.21625 0
M  V30 3792 H 351.309 3.87831 -1.64819 0
M  V30 3793 H 350.033 3.21036 -0.600289 0
M  V30 3794 H 348.692 2.55452 -2.62944 0
M  V30 3795 H 348.34 4.78429 -1.55288 0
M  V30 3796 H 348.04 4.85679 -3.30741 0
M  V30 3797 H 349.564 5.50647 -2.63857 0
M  V30 3798 H 350.978 3.87815 -4.22223 0
M  V30 3799 H 349.375 3.46696 -4.89818 0
M  V30 3800 H 350.445 2.16983 -4.33643 0
M  V30 3801 N 351.788 1.33704 0.83433 0
M  V30 3802 C 352.698 1.26382 1.97648 0
M  V30 3803 C 353.714 0.173548 1.73132 0
M  V30 3804 O 354.89 0.397962 1.97429 0
M  V30 3805 C 351.955 1.00769 3.31733 0
M  V30 3806 C 351.016 2.1884 3.69334 0
M  V30 3807 C 350.249 1.9444 4.9702 0
M  V30 3808 O 350.472 0.896961 5.63303 0
M  V30 3809 O 349.406 2.81093 5.32231 0
M  V30 3810 H 353.232 2.22444 2.06767 0
M  V30 3811 H 350.817 1.13795 0.968037 0
M  V30 3812 H 352.699 0.882186 4.12062 0
M  V30 3813 H 351.374 0.0773783 3.23608 0
M  V30 3814 H 350.281 2.36946 2.89495 0
M  V30 3815 H 351.614 3.10221 3.82131 0
M  V30 3816 N 353.266 -1.05314 1.17247 0
M  V30 3817 C 354.229 -2.112 0.890357 0
M  V30 3818 C 355.229 -1.60359 -0.118943 0
M  V30 3819 O 356.419 -1.73833 0.113086 0
M  V30 3820 C 353.551 -3.39266 0.333422 0
M  V30 3821 H 354.744 -2.37659 1.82916 0
M  V30 3822 H 352.297 -1.21538 0.982758 0
M  V30 3823 H 353.032 -3.18462 -0.612587 0
M  V30 3824 H 352.817 -3.77477 1.06082 0
M  V30 3825 H 354.307 -4.17315 0.154322 0
M  V30 3826 N 354.744 -0.972509 -1.24016 0
M  V30 3827 C 355.99 -0.647583 -1.92816 0
M  V30 3828 C 356.345 0.809015 -1.74564 0
M  V30 3829 O 355.638 1.57502 -1.09103 0
M  V30 3830 C 355.832 -0.963694 -3.44162 0
M  V30 3831 C 355.661 -2.44947 -3.77135 0
M  V30 3832 C 354.431 -3.11012 -3.98246 0
M  V30 3833 C 356.629 -3.42978 -3.83237 0
M  V30 3834 N 354.611 -4.49277 -4.18358 0
M  V30 3835 C 355.982 -4.66619 -4.08248 0
M  V30 3836 C 358.037 -3.37569 -3.65994 0
M  V30 3837 C 356.74 -5.85516 -4.17808 0
M  V30 3838 C 358.766 -4.55822 -3.76802 0
M  V30 3839 C 358.128 -5.78256 -4.02243 0
M  V30 3840 H 354.227 -0.287894 -0.727077 0
M  V30 3841 H 356.811 -1.24835 -1.49413 0
M  V30 3842 H 354.982 -0.391692 -3.8642 0
M  V30 3843 H 356.714 -0.596849 -4.00275 0
M  V30 3844 H 353.469 -2.61529 -3.94841 0
M  V30 3845 H 353.893 -5.20935 -4.32384 0
M  V30 3846 H 358.535 -2.43945 -3.45327 0
M  V30 3847 H 356.253 -6.79564 -4.37285 0
M  V30 3848 H 359.839 -4.53204 -3.64825 0
M  V30 3849 H 358.719 -6.68231 -4.10411 0
M  V30 3850 N 356.222 1.38976 -0.743202 0
M  V30 3851 C 357.468 2.0064 -0.295189 0
M  V30 3852 C 357.801 1.5885 1.11716 0
M  V30 3853 O 357.076 0.821181 1.76315 0
M  V30 3854 C 357.359 3.578 -0.406318 0
M  V30 3855 C 357.212 4.09586 -1.85903 0
M  V30 3856 C 358.531 4.39616 0.206439 0
M  V30 3857 H 355.65 0.728935 -0.108733 0
M  V30 3858 H 358.292 1.65067 -0.940897 0
M  V30 3859 H 356.442 3.88235 0.143419 0
M  V30 3860 H 358.114 3.89837 -2.46627 0
M  V30 3861 H 356.357 3.6284 -2.3776 0
M  V30 3862 H 357.028 5.18708 -1.888 0
M  V30 3863 H 359.504 4.15273 -0.262283 0
M  V30 3864 H 358.38 5.48812 0.0983819 0
M  V30 3865 H 358.641 4.22754 1.2935 0
M  V30 3866 N 357.7 0.491464 1.49741 0
M  V30 3867 C 358.949 -0.0582189 2.01616 0
M  V30 3868 C 359.262 -1.38927 1.3769 0
M  V30 3869 O 360.468 -2.02509 1.80838 0
M  V30 3870 C 358.924 -0.154235 3.59569 0
M  V30 3871 C 358.532 1.1696 4.32463 0
M  V30 3872 C 360.276 -0.65479 4.1942 0
M  V30 3873 C 358.183 1.03627 5.8225 0
M  V30 3874 H 357.113 -0.0255317 0.753568 0
M  V30 3875 H 359.764 0.629445 1.72367 0
M  V30 3876 H 358.146 -0.906138 3.85493 0
M  V30 3877 H 359.32 1.93405 4.18248 0
M  V30 3878 H 357.635 1.60285 3.84315 0
M  V30 3879 H 360.232 -0.771903 5.29099 0
M  V30 3880 H 360.575 -1.65127 3.8215 0
M  V30 3881 H 361.108 0.040304 3.9778 0
M  V30 3882 H 357.847 2.00672 6.24028 0
M  V30 3883 H 357.367 0.312546 5.98985 0
M  V30 3884 H 359.046 0.711114 6.4308 0
M  V30 3885 N 359.178 -1.55987 0.224894 0
M  V30 3886 C 360.128 -2.17076 -0.697296 0
M  V30 3887 C 361.112 -1.12006 -1.15514 0
M  V30 3888 O 362.304 -1.37985 -1.10857 0
M  V30 3889 C 359.433 -2.85679 -1.90374 0
M  V30 3890 C 358.519 -3.97977 -1.46543 0
M  V30 3891 N 358.91 -5.00359 -0.739909 0
M  V30 3892 C 357.208 -4.10128 -1.75245 0
M  V30 3893 C 357.909 -5.79407 -0.515939 0
M  V30 3894 N 356.885 -5.32892 -1.07364 0
M  V30 3895 H 360.687 -2.93592 -0.134594 0
M  V30 3896 H 358.201 -1.62379 0.0262885 0
M  V30 3897 H 360.198 -3.27857 -2.57518 0
M  V30 3898 H 358.858 -2.1066 -2.47088 0
M  V30 3899 H 359.869 -5.16412 -0.392253 0
M  V30 3900 H 356.546 -3.46263 -2.33255 0
M  V30 3901 H 357.936 -6.71872 0.0617349 0
M  V30 3902 N 360.656 0.0484629 -1.57525 0
M  V30 3903 C 361.904 0.741657 -1.88 0
M  V30 3904 C 362.225 1.76918 -0.820054 0
M  V30 3905 O 361.495 1.95335 0.148661 0
M  V30 3906 H 360.075 0.276908 -0.69378 0
M  V30 3907 H 362.737 0.019013 -1.94891 0
M  V30 3908 H 361.833 1.24336 -2.86264 0
M  V30 3909 N 362.134 1.5431 0.320358 0
M  V30 3910 C 363.382 1.72327 1.05583 0
M  V30 3911 C 363.703 0.50149 1.88441 0
M  V30 3912 O 362.973 -0.48448 1.89815 0
M  V30 3913 H 361.553 0.635387 0.3928 0
M  V30 3914 H 364.215 1.91621 0.356019 0
M  V30 3915 H 363.311 2.60426 1.72003 0
M  V30 3916 N 363.613 -0.582584 1.46437 0
M  V30 3917 C 365.029 -0.905962 1.31394 0
M  V30 3918 C 365.229 -1.99468 0.285476 0
M  V30 3919 O 364.285 -2.50566 -0.311914 0
M  V30 3920 C 365.598 -1.3232 2.70022 0
M  V30 3921 C 367.146 -1.43604 2.78113 0
M  V30 3922 C 367.621 -1.88694 4.17323 0
M  V30 3923 N 369.112 -1.95887 4.19741 0
M  V30 3924 C 369.847 -2.32051 5.24347 0
M  V30 3925 N 369.343 -2.67006 6.39281 0
M  V30 3926 N 371.136 -2.32606 5.11713 0
M  V30 3927 H 363.287 0.1366 2.1196 0
M  V30 3928 H 365.55 -0.00155736 0.947999 0
M  V30 3929 H 365.256 -0.597242 3.46592 0
M  V30 3930 H 365.13 -2.28469 3.00136 0
M  V30 3931 H 367.517 -2.15286 2.01832 0
M  V30 3932 H 367.598 -0.457059 2.51684 0
M  V30 3933 H 367.242 -1.1759 4.941 0
M  V30 3934 H 367.172 -2.8755 4.4116 0
M  V30 3935 H 369.663 -1.71362 3.36814 0
M  V30 3936 H 369.976 -2.93554 7.14875 0
M  V30 3937 H 368.321 -2.64644 6.42642 0
M  V30 3938 H 371.512 -2.04721 4.2096 0
M  V30 3939 H 371.685 -2.60462 5.93349 0
M  V30 3940 N 365.091 -1.34144 -0.827227 0
M  V30 3941 C 366.001 -1.27428 -1.96975 0
M  V30 3942 C 367.017 -0.182728 -1.73038 0
M  V30 3943 O 368.193 -0.408426 -1.97215 0
M  V30 3944 C 365.258 -1.02526 -3.31194 0
M  V30 3945 C 364.319 -2.20796 -3.68168 0
M  V30 3946 C 363.552 -1.97073 -4.95982 0
M  V30 3947 O 363.775 -0.926822 -5.6282 0
M  V30 3948 O 362.709 -2.83912 -5.30733 0
M  V30 3949 H 366.535 -2.23537 -2.05584 0
M  V30 3950 H 364.12 -1.14307 -0.961989 0
M  V30 3951 H 366.002 -0.904026 -4.11589 0
M  V30 3952 H 364.677 -0.0945389 -3.23562 0
M  V30 3953 H 363.584 -2.38477 -2.88235 0
M  V30 3954 H 364.917 -3.12243 -3.8048 0
M  V30 3955 N 366.569 1.04691 -1.17803 0
M  V30 3956 C 367.846 1.7472 -0.879328 0
M  V30 3957 C 368.226 2.01812 0.619271 0
M  V30 3958 O 367.574 1.65824 1.57209 0
M  V30 3959 C 367.784 3.03686 -1.71976 0
M  V30 3960 C 369.132 3.77542 -1.94286 0
M  V30 3961 O 370.156 3.13569 -1.68976 0
M  V30 3962 O 369.015 4.92506 -2.36855 0
M  V30 3963 H 366.109 0.760011 -0.326056 0
M  V30 3964 H 368.655 1.10813 -1.28525 0
M  V30 3965 H 367.427 2.79754 -2.73594 0
M  V30 3966 H 367.05 3.75332 -1.31194 0
M  V30 3967 N 368.047 0.979072 1.23499 0
M  V30 3968 C 369.272 0.664845 1.96455 0
M  V30 3969 C 369.697 -0.761287 1.72006 0
M  V30 3970 O 369.055 -1.51837 0.990713 0
M  V30 3971 C 369.103 0.959479 3.47601 0
M  V30 3972 O 368.207 0.0508168 4.12369 0
M  V30 3973 H 367.548 0.250185 0.615064 0
M  V30 3974 H 370.078 1.31231 1.5697 0
M  V30 3975 H 370.088 0.895642 3.98048 0
M  V30 3976 H 368.763 1.99876 3.64723 0
M  V30 3977 H 367.34 0.16895 3.72517 0
M  V30 3978 N 369.525 -1.3858 0.750561 0
M  V30 3979 C 370.941 -1.53759 0.427824 0
M  V30 3980 C 371.141 -1.71401 -1.05943 0
M  V30 3981 O 370.197 -1.72331 -1.84549 0
M  V30 3982 C 371.51 -2.74642 1.22443 0
M  V30 3983 C 373.058 -2.88489 1.2142 0
M  V30 3984 C 373.533 -4.12329 1.9937 0
M  V30 3985 N 375.024 -4.194 1.96616 0
M  V30 3986 C 375.759 -5.14209 2.53727 0
M  V30 3987 N 375.255 -6.14709 3.19539 0
M  V30 3988 N 377.048 -5.06537 2.43673 0
M  V30 3989 H 369.199 -1.25377 1.71447 0
M  V30 3990 H 371.462 -0.608844 0.726645 0
M  V30 3991 H 371.168 -2.68 2.27747 0
M  V30 3992 H 371.042 -3.67745 0.839273 0
M  V30 3993 H 373.429 -2.94614 0.169232 0
M  V30 3994 H 373.51 -1.96406 1.63885 0
M  V30 3995 H 373.154 -4.06966 3.03877 0
M  V30 3996 H 373.084 -5.03486 1.54302 0
M  V30 3997 H 375.575 -3.47421 1.48684 0
M  V30 3998 H 375.888 -6.8354 3.60545 0
M  V30 3999 H 374.233 -6.1505 3.23633 0
M  V30 4000 H 377.424 -4.26962 1.91889 0
M  V30 4001 H 377.597 -5.80245 2.88479 0
M  V30 4002 N 371.003 -0.499398 -1.49478 0
M  V30 4003 C 372.28 0.108629 -1.95298 0
M  V30 4004 C 372.66 1.54282 -1.44084 0
M  V30 4005 O 372.008 2.18944 -0.653908 0
M  V30 4006 C 372.218 0.0229111 -3.48992 0
M  V30 4007 C 373.566 0.197643 -4.2414 0
M  V30 4008 O 374.59 0.0981735 -3.56065 0
M  V30 4009 O 373.449 0.401669 -5.45022 0
M  V30 4010 H 370.543 0.096181 -0.821388 0
M  V30 4011 H 373.089 -0.561822 -1.6013 0
M  V30 4012 H 371.861 -0.977321 -3.78899 0
M  V30 4013 H 371.484 0.733579 -3.90774 0
M  V30 4014 N 372.481 1.55866 -0.233164 0
M  V30 4015 C 373.411 2.23783 0.666599 0
M  V30 4016 C 374.392 1.21343 1.19205 0
M  V30 4017 O 375.577 1.4996 1.23392 0
M  V30 4018 C 372.707 2.92671 1.86978 0
M  V30 4019 C 371.661 4.01682 1.47768 0
M  V30 4020 C 370.987 4.57926 2.76058 0
M  V30 4021 C 372.287 5.18126 0.658993 0
M  V30 4022 H 373.981 2.99232 0.100306 0
M  V30 4023 H 371.527 1.43924 0.046804 0
M  V30 4024 H 373.48 3.3888 2.50476 0
M  V30 4025 H 372.204 2.14688 2.46123 0
M  V30 4026 H 370.863 3.56222 0.866106 0
M  V30 4027 H 370.511 3.76659 3.33372 0
M  V30 4028 H 370.211 5.31505 2.50552 0
M  V30 4029 H 371.735 5.06859 3.40479 0
M  V30 4030 H 373.149 5.60644 1.19795 0
M  V30 4031 H 371.546 5.98009 0.500552 0
M  V30 4032 H 372.616 4.83763 -0.331856 0
M  V30 4033 N 373.959 -0.0401083 1.57549 0
M  V30 4034 C 375.199 -0.738098 1.90608 0
M  V30 4035 C 375.563 -1.73107 0.830539 0
M  V30 4036 O 376.764 -2.4765 1.04513 0
M  V30 4037 C 375.035 -1.39985 3.28845 0
M  V30 4038 S 376.594 -2.12852 3.83718 0
M  V30 4039 H 373.412 -0.24477 0.667539 0
M  V30 4040 H 376.014 0.00693599 1.95499 0
M  V30 4041 H 374.718 -0.663775 4.04997 0
M  V30 4042 H 374.249 -2.18366 3.2723 0
M  V30 4043 H 376.264 -3.39842 3.61555 0
M  V30 4044 N 375.437 -1.54477 -0.31217 0
M  V30 4045 C 376.369 -1.81011 -1.40598 0
M  V30 4046 C 377.382 -0.692546 -1.47335 0
M  V30 4047 O 378.571 -0.969847 -1.49854 0
M  V30 4048 C 375.671 -1.92307 -2.79054 0
M  V30 4049 C 374.844 -3.22594 -2.95384 0
M  V30 4050 C 373.903 -3.24448 -4.1427 0
M  V30 4051 O 372.929 -3.98035 -4.06887 0
M  V30 4052 N 374.131 -2.49042 -5.24365 0
M  V30 4053 H 376.896 -2.75408 -1.18196 0
M  V30 4054 H 374.457 -1.53914 -0.502202 0
M  V30 4055 H 376.449 -1.90962 -3.56813 0
M  V30 4056 H 375.019 -1.04955 -2.94454 0
M  V30 4057 H 374.239 -3.36806 -2.04831 0
M  V30 4058 H 375.527 -4.08593 -3.03198 0
M  V30 4059 H 374.925 -1.88867 -5.33241 0
M  V30 4060 H 373.482 -2.53463 -6.005 0
M  V30 4061 N 376.915 0.57481 -1.46744 0
M  V30 4062 C 378.192 1.3352 -1.4294 0
M  V30 4063 C 378.572 2.10775 -0.117009 0
M  V30 4064 O 377.92 2.09966 0.901474 0
M  V30 4065 C 378.13 2.25456 -2.66403 0
M  V30 4066 C 379.478 2.87035 -3.12883 0
M  V30 4067 O 380.502 2.35766 -2.67007 0
M  V30 4068 O 379.361 3.80179 -3.92589 0
M  V30 4069 H 376.455 0.600318 -0.568812 0
M  V30 4070 H 379.001 0.595171 -1.58921 0
M  V30 4071 H 377.773 1.67851 -3.53471 0
M  V30 4072 H 377.396 3.06785 -2.52921 0
M  V30 4073 N 378.394 1.34581 0.820102 0
M  V30 4074 C 379.805 1.24298 1.39309 0
M  V30 4075 C 380.156 -0.130351 1.95767 0
M  V30 4076 O 379.281 -1.0308 1.90272 0
M  V30 4077 C 379.876 2.25054 2.53251 0
M  V30 4078 C 378.435 2.18552 3.0645 0
M  V30 4079 C 377.582 2.11503 1.79337 0
M  V30 4080 H 380.533 1.45906 0.624262 0
M  V30 4081 H 380.554 1.86917 3.31425 0
M  V30 4082 H 380.066 3.24996 2.1213 0
M  V30 4083 H 378.167 1.21976 3.52069 0
M  V30 4084 H 378.28 3.0993 3.65349 0
M  V30 4085 H 376.644 1.57268 2.00347 0
M  V30 4086 H 377.427 3.13284 1.40386 0
M  V30 4087 N 379.872 -1.04064 1.18357 0
M  V30 4088 C 381.1 -1.80916 1.00384 0
M  V30 4089 C 381.515 -1.83414 -0.447738 0
M  V30 4090 O 380.872 -1.26962 -1.31099 0
M  V30 4091 C 380.923 -3.26516 1.55144 0
M  V30 4092 O 380.644 -3.2424 2.94618 0
M  V30 4093 C 382.145 -4.20013 1.41789 0
M  V30 4094 H 379.365 -0.569728 0.354474 0
M  V30 4095 H 381.909 -1.31151 1.56906 0
M  V30 4096 H 380.064 -3.73512 1.02798 0
M  V30 4097 H 380.478 -4.15452 3.20156 0
M  V30 4098 H 381.952 -5.20111 1.84901 0
M  V30 4099 H 382.429 -4.37667 0.36661 0
M  V30 4100 H 383.035 -3.78881 1.93207 0
M  V30 4101 N 381.35 -0.985608 -1.22978 0
M  V30 4102 C 382.599 -0.652881 -1.90841 0
M  V30 4103 C 382.912 0.817842 -1.77681 0
M  V30 4104 O 384.118 1.26185 -2.40395 0
M  V30 4105 C 382.574 -1.11717 -3.42122 0
M  V30 4106 C 382.182 -2.6126 -3.63933 0
M  V30 4107 C 383.926 -0.85843 -4.1573 0
M  V30 4108 C 381.833 -3.0133 -5.08876 0
M  V30 4109 H 380.763 -0.240491 -0.714619 0
M  V30 4110 H 383.414 -1.1942 -1.39324 0
M  V30 4111 H 381.796 -0.504027 -3.92779 0
M  V30 4112 H 382.97 -3.27858 -3.23799 0
M  V30 4113 H 381.285 -2.84937 -3.03644 0
M  V30 4114 H 383.882 -1.13359 -5.22546 0
M  V30 4115 H 384.225 0.205461 -4.15793 0
M  V30 4116 H 384.758 -1.43341 -3.71077 0
M  V30 4117 H 381.497 -4.06864 -5.13947 0
M  V30 4118 H 381.017 -2.3943 -5.49939 0
M  V30 4119 H 382.696 -2.92224 -5.77247 0
M  V30 4120 N 382.828 1.3818 -0.7579 0
M  V30 4121 C 383.775 2.30416 -0.133057 0
M  V30 4122 C 384.745 1.50398 0.704957 0
M  V30 4123 O 385.93 1.79014 0.660192 0
M  V30 4124 C 383.07 3.36834 0.750813 0
M  V30 4125 C 382.183 4.31879 -0.102297 0
M  V30 4126 C 381.318 5.25368 0.784979 0
M  V30 4127 C 380.357 6.12058 -0.0715046 0
M  V30 4128 N 379.494 6.97832 0.772972 0
M  V30 4129 H 384.334 2.83274 -0.925186 0
M  V30 4130 H 381.871 1.39461 -0.467866 0
M  V30 4131 H 383.829 3.97145 1.27794 0
M  V30 4132 H 382.459 2.85374 1.50868 0
M  V30 4133 H 381.511 3.72991 -0.747095 0
M  V30 4134 H 382.823 4.92921 -0.763552 0
M  V30 4135 H 381.977 5.90818 1.37911 0
M  V30 4136 H 380.716 4.64703 1.47996 0
M  V30 4137 H 379.721 5.456 -0.678272 0
M  V30 4138 H 380.946 6.74793 -0.763606 0
M  V30 4139 H 378.892 6.3971 1.45282 0
M  V30 4140 H 378.809 7.55812 0.168709 0
M  V30 4141 H 380.077 7.67687 1.35194 0
M  V30 4142 N 384.306 0.507319 1.49211 0
M  V30 4143 C 385.216 -0.272136 2.33016 0
M  V30 4144 C 386.232 -0.961206 1.45041 0
M  V30 4145 O 387.408 -0.941191 1.78055 0
M  V30 4146 C 384.473 -1.31895 3.20631 0
M  V30 4147 C 383.534 -0.642648 4.24463 0
M  V30 4148 C 382.767 -1.63959 5.07891 0
M  V30 4149 O 382.99 -2.87007 4.92933 0
M  V30 4150 O 381.924 -1.19143 5.8999 0
M  V30 4151 H 385.75 0.413982 3.00865 0
M  V30 4152 H 383.335 0.268556 1.46966 0
M  V30 4153 H 385.217 -1.92446 3.7489 0
M  V30 4154 H 383.892 -1.98788 2.5547 0
M  V30 4155 H 382.799 0.00276252 3.741 0
M  V30 4156 H 384.132 -0.0160534 4.92197 0
M  V30 4157 N 385.784 -1.5574 0.241426 0
M  V30 4158 C 386.714 -2.24133 -0.654722 0
M  V30 4159 C 387.695 -1.21974 -1.1856 0
M  V30 4160 O 388.88 -1.50612 -1.22595 0
M  V30 4161 C 386.01 -2.93659 -1.85423 0
M  V30 4162 C 384.964 -4.0246 -1.45636 0
M  V30 4163 C 384.29 -4.59383 -2.73626 0
M  V30 4164 C 385.59 -5.18468 -0.631506 0
M  V30 4165 H 387.284 -2.99281 -0.0844353 0
M  V30 4166 H 384.83 -1.43947 -0.0391707 0
M  V30 4167 H 386.783 -3.40203 -2.48676 0
M  V30 4168 H 385.507 -2.15991 -2.44981 0
M  V30 4169 H 384.166 -3.56676 -0.847202 0
M  V30 4170 H 383.814 -3.78422 -3.3137 0
M  V30 4171 H 383.514 -5.32826 -2.4773 0
M  V30 4172 H 385.038 -5.08658 -3.37786 0
M  V30 4173 H 386.452 -5.61272 -1.1682 0
M  V30 4174 H 384.849 -5.98266 -0.468831 0
M  V30 4175 H 385.919 -4.8358 0.357506 0
M  V30 4176 N 387.262 0.0317525 -1.57568 0
M  V30 4177 C 388.172 1.05021 -2.0978 0
M  V30 4178 C 389.188 1.39809 -1.03583 0
M  V30 4179 O 390.364 1.49182 -1.35302 0
M  V30 4180 C 387.429 2.33301 -2.56459 0
M  V30 4181 C 386.49 2.0512 -3.77127 0
M  V30 4182 C 385.723 3.27283 -4.2157 0
M  V30 4183 O 385.946 4.37861 -3.65559 0
M  V30 4184 O 384.88 3.13141 -5.14029 0
M  V30 4185 H 388.706 0.636505 -2.96955 0
M  V30 4186 H 386.291 0.248559 -1.47318 0
M  V30 4187 H 388.173 3.08722 -2.86825 0
M  V30 4188 H 386.848 2.73973 -1.72397 0
M  V30 4189 H 385.755 1.27276 -3.51784 0
M  V30 4190 H 387.088 1.69305 -4.62165 0
M  V30 4191 N 388.74 1.54641 0.303973 0
M  V30 4192 C 389.965 1.78092 1.06292 0
M  V30 4193 C 390.39 0.537342 1.80262 0
M  V30 4194 O 389.748 -0.511993 1.7392 0
M  V30 4195 C 389.796 2.98612 2.02147 0
M  V30 4196 O 388.9 2.71528 3.10397 0
M  V30 4197 H 388.241 0.589548 0.305497 0
M  V30 4198 H 390.771 2.01716 0.3423 0
M  V30 4199 H 390.781 3.265 2.44667 0
M  V30 4200 H 389.456 3.88785 1.47714 0
M  V30 4201 H 388.033 2.54648 2.72413 0
M  V30 4202 N 390.218 -0.567019 1.47046 0
M  V30 4203 C 391.467 -1.32091 1.5243 0
M  V30 4204 C 391.78 -1.94704 0.187021 0
M  V30 4205 O 392.986 -2.7124 0.118771 0
M  V30 4206 C 391.442 -2.39479 2.68659 0
M  V30 4207 C 391.05 -1.831 4.08874 0
M  V30 4208 C 392.794 -3.16111 2.83327 0
M  V30 4209 C 390.701 -2.8821 5.16419 0
M  V30 4210 H 389.631 -0.496629 0.56734 0
M  V30 4211 H 392.282 -0.603354 1.73297 0
M  V30 4212 H 390.664 -3.14105 2.41152 0
M  V30 4213 H 391.838 -1.14913 4.46242 0
M  V30 4214 H 390.153 -1.19085 3.99008 0
M  V30 4215 H 392.75 -3.94585 3.60842 0
M  V30 4216 H 393.093 -3.69686 1.91411 0
M  V30 4217 H 393.626 -2.48595 3.10556 0
M  V30 4218 H 390.365 -2.39504 6.10179 0
M  V30 4219 H 389.885 -3.54839 4.8358 0
M  V30 4220 H 391.564 -3.51881 5.42945 0
M  V30 4221 N 391.696 -1.35014 -0.812953 0
M  V30 4222 C 392.945 -1.27269 -1.56479 0
M  V30 4223 C 393.258 0.152771 -1.95002 0
M  V30 4224 O 394.464 0.352451 -2.69203 0
M  V30 4225 C 392.92 -2.23159 -2.82362 0
M  V30 4226 C 392.528 -3.71016 -2.511 0
M  V30 4227 C 394.272 -2.24342 -3.60376 0
M  V30 4228 C 392.179 -4.58746 -3.73237 0
M  V30 4229 H 391.109 -0.472829 -0.587324 0
M  V30 4230 H 393.76 -1.6024 -0.894171 0
M  V30 4231 H 392.142 -1.83151 -3.51101 0
M  V30 4232 H 393.316 -4.1962 -1.90409 0
M  V30 4233 H 391.631 -3.72378 -1.86343 0
M  V30 4234 H 394.228 -2.87107 -4.51081 0
M  V30 4235 H 394.571 -1.24542 -3.97234 0
M  V30 4236 H 395.104 -2.62846 -2.98591 0
M  V30 4237 H 391.843 -5.59521 -3.41492 0
M  V30 4238 H 391.363 -4.14871 -4.33176 0
M  V30 4239 H 393.042 -4.73852 -4.40537 0
M  V30 4240 N 393.175 1.03435 -1.18907 0
M  V30 4241 C 394.4 1.80919 -1.01406 0
M  V30 4242 C 394.825 1.83055 0.432721 0
M  V30 4243 O 394.183 1.25252 1.31079 0
M  V30 4244 C 394.231 3.24091 -1.58105 0
M  V30 4245 O 393.335 4.04434 -0.806669 0
M  V30 4246 H 392.676 0.558709 -0.358803 0
M  V30 4247 H 395.206 1.30223 -1.57807 0
M  V30 4248 H 395.216 3.74853 -1.61087 0
M  V30 4249 H 393.891 3.21851 -2.6341 0
M  V30 4250 H 392.468 3.63091 -0.849666 0
M  V30 4251 N 394.653 0.992116 1.22453 0
M  V30 4252 C 395.6 0.541731 2.24352 0
M  V30 4253 C 396.57 -0.425519 1.60557 0
M  V30 4254 O 397.755 -0.330453 1.87917 0
M  V30 4255 C 394.895 -0.138248 3.44823 0
M  V30 4256 C 394.008 0.870649 4.23136 0
M  V30 4257 C 393.143 0.164269 5.30946 0
M  V30 4258 C 392.182 1.16159 6.00977 0
M  V30 4259 N 391.319 0.483568 7.00433 0
M  V30 4260 H 396.159 1.41541 2.62241 0
M  V30 4261 H 393.696 0.709013 1.28885 0
M  V30 4262 H 395.654 -0.5494 4.13567 0
M  V30 4263 H 394.284 -0.975721 3.077 0
M  V30 4264 H 393.336 1.40013 3.53696 0
M  V30 4265 H 394.648 1.63014 4.7141 0
M  V30 4266 H 393.802 -0.303653 6.0594 0
M  V30 4267 H 392.541 -0.627733 4.83643 0
M  V30 4268 H 391.546 1.64015 5.24766 0
M  V30 4269 H 392.771 1.95445 6.50368 0
M  V30 4270 H 390.717 -0.289012 6.55363 0
M  V30 4271 H 390.634 1.18152 7.4671 0
M  V30 4272 H 391.902 0.0384219 7.79491 0
M  V30 4273 N 396.131 -1.37776 0.765217 0
M  V30 4274 C 397.547 -1.53297 0.444108 0
M  V30 4275 C 397.747 -1.72515 -1.04119 0
M  V30 4276 O 396.803 -1.74278 -1.82711 0
M  V30 4277 C 398.116 -2.73328 1.25349 0
M  V30 4278 C 399.664 -2.87185 1.24473 0
M  V30 4279 C 400.139 -4.10191 2.03733 0
M  V30 4280 N 401.63 -4.17291 2.01053 0
M  V30 4281 C 402.365 -5.11488 2.59166 0
M  V30 4282 N 401.861 -6.11285 3.26041 0
M  V30 4283 N 403.654 -5.03924 2.49032 0
M  V30 4284 H 395.805 -1.23552 1.72768 0
M  V30 4285 H 398.068 -0.601103 0.733062 0
M  V30 4286 H 397.774 -2.6557 2.30577 0
M  V30 4287 H 397.648 -3.66834 0.87823 0
M  V30 4288 H 400.035 -2.94418 0.20047 0
M  V30 4289 H 400.116 -1.94657 1.65959 0
M  V30 4290 H 399.76 -4.0372 3.08176 0
M  V30 4291 H 399.69 -5.01821 1.59633 0
M  V30 4292 H 402.181 -3.45825 1.5236 0
M  V30 4293 H 402.494 -6.79678 3.67774 0
M  V30 4294 H 400.839 -6.11583 3.30138 0
M  V30 4295 H 404.03 -4.24902 1.96407 0
M  V30 4296 H 404.203 -5.77152 2.94617 0
M  V30 4297 N 397.609 -0.515225 -1.4894 0
M  V30 4298 C 398.557 0.269115 -2.31038 0
M  V30 4299 C 399.551 0.949443 -1.40292 0
M  V30 4300 O 400.757 0.87551 -1.57273 0
M  V30 4301 H 397.132 0.10565 -0.744542 0
M  V30 4302 H 399.103 -0.443096 -2.95092 0
M  V30 4303 C 397.852 1.31213 -3.21991 0
M  V30 4304 H 397.175 0.798034 -3.91754 0
M  V30 4305 H 398.615 1.83263 -3.82349 0
M  V30 4306 C 397.074 2.33791 -2.42576 0
M  V30 4307 O 397.604 3.3995 -2.14003 0
M  V30 4308 N 395.81 2.06625 -2.0434 0
M  V30 4309 H 395.357 1.20314 -2.27777 0
M  V30 4310 H 395.315 2.75483 -1.51514 0
M  V30 4311 N 399.087 1.5561 -0.249682 0
M  V30 4312 C 400.336 1.98187 0.37479 0
M  V30 4313 C 400.649 1.14111 1.58865 0
M  V30 4314 O 401.855 1.46714 2.28445 0
M  V30 4315 C 400.311 3.52661 0.718192 0
M  V30 4316 C 399.919 4.45481 -0.474428 0
M  V30 4317 C 401.663 4.03888 1.3067 0
M  V30 4318 C 399.57 5.91303 -0.107026 0
M  V30 4319 H 398.5 0.740159 0.143808 0
M  V30 4320 H 401.151 1.80125 -0.350336 0
M  V30 4321 H 399.533 3.66429 1.50152 0
M  V30 4322 H 400.707 4.43473 -1.25172 0
M  V30 4323 H 399.022 4.04751 -0.978052 0
M  V30 4324 H 401.619 5.10358 1.59496 0
M  V30 4325 H 401.962 3.51401 2.23211 0
M  V30 4326 H 402.495 3.93457 0.586211 0
M  V30 4327 H 399.234 6.47833 -0.999642 0
M  V30 4328 H 398.754 5.9644 0.634013 0
M  V30 4329 H 400.433 6.46258 0.309807 0
M  V30 4330 N 400.565 -0.0233959 1.57583 0
M  V30 4331 C 401.497 -1.04994 2.03737 0
M  V30 4332 C 402.51 -1.32125 0.951152 0
M  V30 4333 O 403.699 -1.29512 1.22837 0
M  V30 4334 C 400.799 -2.39026 2.40249 0
M  V30 4335 C 399.972 -2.31171 3.7132 0
M  V30 4336 C 399.031 -3.47698 3.94959 0
M  V30 4337 O 398.057 -3.26937 4.65941 0
M  V30 4338 N 399.259 -4.6976 3.41037 0
M  V30 4339 H 402.024 -0.656507 2.92421 0
M  V30 4340 H 399.585 -0.211235 1.60516 0
M  V30 4341 H 401.577 -3.15712 2.53196 0
M  V30 4342 H 400.147 -2.70194 1.57207 0
M  V30 4343 H 399.367 -1.39547 3.68674 0
M  V30 4344 H 400.655 -2.23071 4.57293 0
M  V30 4345 H 400.053 -4.89528 2.83512 0
M  V30 4346 H 398.61 -5.43791 3.59353 0
M  V30 4347 N 402.043 -1.548 -0.295768 0
M  V30 4348 C 403.29 -1.74329 -1.03032 0
M  V30 4349 C 403.618 -0.531915 -1.87085 0
M  V30 4350 O 402.873 0.486052 -1.89568 0
M  V30 4351 C 403.172 -2.98797 -1.961 0
M  V30 4352 C 402.838 -4.32356 -1.2798 0
M  V30 4353 C 401.5 -4.68661 -1.09135 0
M  V30 4354 C 403.852 -5.15128 -0.793243 0
M  V30 4355 C 401.18 -5.85312 -0.403269 0
M  V30 4356 C 403.532 -6.32488 -0.118854 0
M  V30 4357 C 402.196 -6.6745 0.0815043 0
M  V30 4358 H 401.466 -0.637916 -0.37702 0
M  V30 4359 H 404.113 -1.8906 -0.304696 0
M  V30 4360 H 402.418 -2.78869 -2.75207 0
M  V30 4361 H 404.115 -3.11102 -2.53015 0
M  V30 4362 H 400.705 -4.03808 -1.43655 0
M  V30 4363 H 404.889 -4.87575 -0.92653 0
M  V30 4364 H 400.145 -6.1094 -0.237098 0
M  V30 4365 H 404.319 -6.95892 0.266035 0
M  V30 4366 H 401.946 -7.57695 0.616685 0
M  V30 4367 N 403.521 0.559213 -1.47345 0
M  V30 4368 C 404.746 1.34676 -1.57725 0
M  V30 4369 C 405.171 1.86723 -0.227164 0
M  V30 4370 O 404.529 1.6286 0.796642 0
M  V30 4371 C 404.577 2.49399 -2.60447 0
M  V30 4372 O 403.681 3.51567 -2.15578 0
M  V30 4373 H 403.022 0.400115 -0.52991 0
M  V30 4374 H 405.552 0.676009 -1.93109 0
M  V30 4375 H 405.562 2.95996 -2.80803 0
M  V30 4376 H 404.237 2.10873 -3.58477 0
M  V30 4377 H 402.814 3.11289 -2.05313 0
M  V30 4378 N 404.999 1.35443 0.805782 0
M  V30 4379 C 406.239 1.30127 1.57627 0
M  V30 4380 C 406.603 -0.122567 1.91608 0
M  V30 4381 O 407.804 -0.300107 2.67119 0
M  V30 4382 C 406.075 2.18314 2.82973 0
M  V30 4383 S 407.634 2.30521 3.7337 0
M  V30 4384 H 404.452 0.462439 0.540066 0
M  V30 4385 H 407.054 1.70843 0.95042 0
M  V30 4386 H 405.758 3.20741 2.56034 0
M  V30 4387 H 405.289 1.78558 3.50543 0
M  V30 4388 H 407.304 1.49062 4.73281 0
M  V30 4389 N 406.477 -1.02803 1.19454 0
M  V30 4390 C 407.424 -2.11099 0.933046 0
M  V30 4391 C 408.394 -1.65571 -0.132447 0
M  V30 4392 O 409.579 -1.90797 0.00987576 0
M  V30 4393 C 406.719 -3.41763 0.478747 0
M  V30 4394 C 405.832 -4.00833 1.6111 0
M  V30 4395 C 404.967 -5.19511 1.10825 0
M  V30 4396 C 404.006 -5.70639 2.21445 0
M  V30 4397 N 403.143 -6.80589 1.72461 0
M  V30 4398 H 407.983 -2.32804 1.86028 0
M  V30 4399 H 405.52 -1.14179 0.927441 0
M  V30 4400 H 407.478 -4.16736 0.196745 0
M  V30 4401 H 406.108 -3.20166 -0.411493 0
M  V30 4402 H 405.16 -3.23066 2.00829 0
M  V30 4403 H 406.472 -4.34794 2.4445 0
M  V30 4404 H 405.626 -6.01645 0.781533 0
M  V30 4405 H 404.365 -4.87086 0.244606 0
M  V30 4406 H 403.37 -4.87116 2.54947 0
M  V30 4407 H 404.595 -6.05102 3.08267 0
M  V30 4408 H 402.541 -6.50016 0.884056 0
M  V30 4409 H 402.458 -7.13681 2.49389 0
M  V30 4410 H 403.726 -7.66317 1.42755 0
M  V30 4411 N 407.956 -0.998596 -1.21925 0
M  V30 4412 C 408.904 -0.546641 -2.26085 0
M  V30 4413 C 409.898 0.405576 -1.64473 0
M  V30 4414 O 411.104 0.277471 -1.77849 0
M  V30 4415 H 407.479 -0.158403 -0.735127 0
M  V30 4416 H 409.45 -1.43645 -2.61551 0
M  V30 4417 C 408.199 0.117388 -3.47502 0
M  V30 4418 H 407.522 -0.606277 -3.95176 0
M  V30 4419 H 408.962 0.396993 -4.22137 0
M  V30 4420 C 407.421 1.35455 -3.0847 0
M  V30 4421 O 407.951 2.44944 -3.18379 0
M  V30 4422 N 406.157 1.23191 -2.63196 0
M  V30 4423 H 405.704 0.341006 -2.55333 0
M  V30 4424 H 405.662 2.06071 -2.37449 0
M  V30 4425 N 409.434 1.37368 -0.772513 0
M  V30 4426 C 410.683 1.98918 -0.333861 0
M  V30 4427 C 410.996 1.62017 1.09589 0
M  V30 4428 O 412.202 2.16676 1.63596 0
M  V30 4429 C 410.658 3.55735 -0.545971 0
M  V30 4430 C 410.266 4.01573 -1.98603 0
M  V30 4431 C 412.01 4.24156 -0.170979 0
M  V30 4432 C 409.917 5.51102 -2.1457 0
M  V30 4433 H 408.847 0.744214 -0.121085 0
M  V30 4434 H 411.498 1.56888 -0.95175 0
M  V30 4435 H 409.88 3.95748 0.141387 0
M  V30 4436 H 411.054 3.72803 -2.7084 0
M  V30 4437 H 409.369 3.45937 -2.31769 0
M  V30 4438 H 411.966 5.34024 -0.26878 0
M  V30 4439 H 412.309 4.06917 0.878855 0
M  V30 4440 H 412.842 3.89447 -0.810914 0
M  V30 4441 H 409.581 5.73268 -3.17875 0
M  V30 4442 H 409.101 5.81554 -1.46817 0
M  V30 4443 H 410.78 6.17083 -1.94468 0
M  V30 4444 N 410.912 0.523116 1.48665 0
M  V30 4445 C 412.142 -0.00961724 2.06598 0
M  V30 4446 C 412.55 -1.29333 1.38093 0
M  V30 4447 O 411.893 -1.77846 0.46007 0
M  V30 4448 C 411.955 -0.311135 3.58151 0
M  V30 4449 C 411.619 0.878092 4.48485 0
M  V30 4450 C 412.616 1.77464 4.88674 0
M  V30 4451 C 410.301 1.08315 4.90483 0
M  V30 4452 C 412.295 2.86021 5.69623 0
M  V30 4453 C 409.982 2.17187 5.71203 0
M  V30 4454 C 410.98 3.05873 6.10681 0
M  V30 4455 O 410.668 4.12862 6.89783 0
M  V30 4456 H 410.4 0.0272658 0.67545 0
M  V30 4457 H 412.954 0.726156 1.92136 0
M  V30 4458 H 411.184 -1.10079 3.70701 0
M  V30 4459 H 412.873 -0.785125 3.98234 0
M  V30 4460 H 413.639 1.62813 4.56855 0
M  V30 4461 H 409.518 0.402149 4.59243 0
M  V30 4462 H 413.062 3.55272 6.00356 0
M  V30 4463 H 408.959 2.31824 6.02435 0
M  V30 4464 H 409.727 4.10487 7.08126 0
M  V30 4465 N 412.39 -1.55475 0.257931 0
M  V30 4466 C 413.806 -1.59307 -0.0966563 0
M  V30 4467 C 414.006 -1.27514 -1.5602 0
M  V30 4468 O 413.062 -1.02774 -2.30637 0
M  V30 4469 C 414.375 -2.99552 0.262481 0
M  V30 4470 C 415.923 -3.1231 0.207683 0
M  V30 4471 C 416.398 -4.54793 0.541012 0
M  V30 4472 N 417.889 -4.6058 0.491921 0
M  V30 4473 C 418.624 -5.68825 0.722857 0
M  V30 4474 N 418.12 -6.85287 1.0175 0
M  V30 4475 N 419.913 -5.58296 0.652815 0
M  V30 4476 H 412.064 -1.74409 1.21224 0
M  V30 4477 H 414.327 -0.812424 0.48854 0
M  V30 4478 H 414.033 -3.27593 1.27967 0
M  V30 4479 H 413.907 -3.75019 -0.40508 0
M  V30 4480 H 416.294 -2.84044 -0.800195 0
M  V30 4481 H 416.375 -2.39095 0.909255 0
M  V30 4482 H 416.019 -4.83783 1.5465 0
M  V30 4483 H 415.949 -5.26285 -0.18216 0
M  V30 4484 H 418.44 -3.7691 0.273366 0
M  V30 4485 H 418.753 -7.63725 1.18084 0
M  V30 4486 H 417.098 -6.86945 1.05509 0
M  V30 4487 H 420.289 -4.66189 0.422592 0
M  V30 4488 H 420.462 -6.42582 0.836182 0
M  V30 4489 N 413.868 0.0150385 -1.57593 0
M  V30 4490 C 415.279 0.559832 -1.78109 0
M  V30 4491 C 415.63 1.74814 -0.890756 0
M  V30 4492 O 414.755 2.16216 -0.0892482 0
M  V30 4493 C 415.35 1.02238 -3.23006 0
M  V30 4494 C 413.909 1.51258 -3.44671 0
M  V30 4495 C 413.056 0.456955 -2.73509 0
M  V30 4496 H 416.007 -0.211169 -1.57289 0
M  V30 4497 H 416.028 1.88912 -3.30292 0
M  V30 4498 H 415.54 0.157302 -3.87781 0
M  V30 4499 H 413.641 2.39905 -2.8509 0
M  V30 4500 H 413.754 1.55042 -4.5332 0
M  V30 4501 H 412.118 0.915196 -2.37689 0
M  V30 4502 H 412.901 -0.398896 -3.40975 0
M  V30 4503 N 415.346 1.54954 0.287554 0
M  V30 4504 C 416.623 1.65569 1.04146 0
M  V30 4505 C 417.003 0.512672 2.0478 0
M  V30 4506 O 416.351 -0.489038 2.23205 0
M  V30 4507 C 416.561 3.04163 1.71131 0
M  V30 4508 C 417.909 3.61429 2.22832 0
M  V30 4509 O 418.933 3.06702 1.81141 0
M  V30 4510 O 417.792 4.57281 2.9926 0
M  V30 4511 H 414.886 0.671881 0.482188 0
M  V30 4512 H 417.432 1.67297 0.28457 0
M  V30 4513 H 416.204 3.78796 0.981303 0
M  V30 4514 H 415.827 3.06271 2.53543 0
M  V30 4515 N 416.824 -0.551391 1.4764 0
M  V30 4516 C 417.771 -1.65796 1.60563 0
M  V30 4517 C 418.741 -1.59932 0.448428 0
M  V30 4518 O 419.926 -1.78679 0.669222 0
M  V30 4519 C 417.066 -3.04108 1.63133 0
M  V30 4520 C 416.179 -3.20365 2.89811 0
M  V30 4521 C 415.314 -4.49109 2.8368 0
M  V30 4522 C 414.353 -4.58819 4.05156 0
M  V30 4523 N 413.49 -5.78926 3.97227 0
M  V30 4524 H 418.33 -1.54088 2.5507 0
M  V30 4525 H 415.867 -0.75052 1.26513 0
M  V30 4526 H 417.825 -3.84207 1.62606 0
M  V30 4527 H 416.455 -3.14637 0.721341 0
M  V30 4528 H 415.507 -2.33659 3.00179 0
M  V30 4529 H 416.819 -3.23402 3.79753 0
M  V30 4530 H 415.973 -5.37475 2.81434 0
M  V30 4531 H 414.712 -4.4856 1.91431 0
M  V30 4532 H 413.717 -3.68864 4.077 0
M  V30 4533 H 414.942 -4.61124 4.98539 0
M  V30 4534 H 412.888 -5.79314 3.07785 0
M  V30 4535 H 412.805 -5.83367 4.80853 0
M  V30 4536 H 414.073 -6.69637 3.99007 0
M  V30 4537 N 418.302 -1.35869 -0.798587 0
M  V30 4538 C 419.549 -1.29588 -1.55606 0
M  V30 4539 C 419.877 0.127456 -1.94082 0
M  V30 4540 O 419.132 1.09461 -1.62225 0
M  V30 4541 C 419.431 -2.1556 -2.85077 0
M  V30 4542 C 419.097 -3.6424 -2.65781 0
M  V30 4543 C 417.759 -4.04766 -2.60227 0
M  V30 4544 C 420.111 -4.58547 -2.47758 0
M  V30 4545 C 417.439 -5.37753 -2.34603 0
M  V30 4546 C 419.791 -5.91742 -2.23662 0
M  V30 4547 C 418.455 -6.31402 -2.16534 0
M  V30 4548 H 417.725 -0.474197 -0.569402 0
M  V30 4549 H 420.372 -1.67839 -0.922086 0
M  V30 4550 H 418.677 -1.70216 -3.52893 0
M  V30 4551 H 420.374 -2.08031 -3.42818 0
M  V30 4552 H 416.964 -3.32086 -2.70956 0
M  V30 4553 H 421.148 -4.28117 -2.51056 0
M  V30 4554 H 416.404 -5.67474 -2.2756 0
M  V30 4555 H 420.578 -6.6439 -2.08708 0
M  V30 4556 H 418.205 -7.34381 -1.96441 0
M  V30 4557 N 419.78 1.02168 -1.19998 0
M  V30 4558 C 420.71 2.12488 -0.96804 0
M  V30 4559 C 421.691 1.69799 0.101185 0
M  V30 4560 O 422.876 1.94121 -0.0552993 0
M  V30 4561 C 420.006 3.43479 -0.513776 0
M  V30 4562 C 418.96 3.99884 -1.52566 0
M  V30 4563 C 418.286 5.26582 -0.928214 0
M  V30 4564 C 419.586 4.33861 -2.90795 0
M  V30 4565 H 421.28 2.32149 -1.89069 0
M  V30 4566 H 418.826 1.11564 -0.910468 0
M  V30 4567 H 420.779 4.20036 -0.338774 0
M  V30 4568 H 419.503 3.23561 0.444493 0
M  V30 4569 H 418.162 3.25429 -1.68794 0
M  V30 4570 H 417.81 5.02986 0.0378289 0
M  V30 4571 H 417.51 5.65284 -1.60397 0
M  V30 4572 H 419.034 6.05799 -0.764167 0
M  V30 4573 H 420.448 5.01327 -2.78109 0
M  V30 4574 H 418.845 4.83664 -3.55231 0
M  V30 4575 H 419.915 3.42848 -3.42904 0
M  V30 4576 N 421.258 1.00505 1.21394 0
M  V30 4577 C 422.19 0.52372 2.23136 0
M  V30 4578 C 423.203 -0.387714 1.58116 0
M  V30 4579 O 424.392 -0.187905 1.77508 0
M  V30 4580 C 421.492 -0.258885 3.3791 0
M  V30 4581 C 420.665 0.651634 4.32519 0
M  V30 4582 C 419.724 -0.0813705 5.26137 0
M  V30 4583 O 418.75 0.537295 5.66658 0
M  V30 4584 N 419.952 -1.35992 5.64346 0
M  V30 4585 H 422.717 1.39865 2.65062 0
M  V30 4586 H 420.278 0.881196 1.35818 0
M  V30 4587 H 422.27 -0.758208 3.97534 0
M  V30 4588 H 420.84 -1.035 2.94968 0
M  V30 4589 H 420.06 1.33145 3.71034 0
M  V30 4590 H 421.348 1.27129 4.92662 0
M  V30 4591 H 420.746 -1.88368 5.33417 0
M  V30 4592 H 419.303 -1.8042 6.26332 0
M  V30 4593 N 422.737 -1.36956 0.779787 0
M  V30 4594 C 423.977 -2.01328 0.353043 0
M  V30 4595 C 424.341 -1.60558 -1.05286 0
M  V30 4596 O 425.542 -2.1745 -1.58016 0
M  V30 4597 C 423.813 -3.53874 0.500822 0
M  V30 4598 S 425.372 -4.38506 0.16053 0
M  V30 4599 H 422.19 -0.69799 0.13539 0
M  V30 4600 H 424.792 -1.67016 1.01617 0
M  V30 4601 H 423.496 -3.81034 1.52451 0
M  V30 4602 H 423.027 -3.92994 -0.178574 0
M  V30 4603 H 425.042 -4.85153 -1.04121 0
M  V30 4604 N 424.215 -0.530993 -1.48385 0
M  V30 4605 C 425.461 0.00274135 -2.028 0
M  V30 4606 C 425.794 1.33838 -1.40716 0
M  V30 4607 O 425.069 1.86465 -0.553277 0
M  V30 4608 C 425.352 0.123676 -3.59888 0
M  V30 4609 C 425.205 -1.2372 -4.3245 0
M  V30 4610 C 426.524 0.849967 -4.31814 0
M  V30 4611 H 423.643 -0.000477758 -0.737 0
M  V30 4612 H 426.285 -0.688217 -1.77098 0
M  V30 4613 H 424.435 0.712157 -3.81917 0
M  V30 4614 H 426.107 -1.86687 -4.21836 0
M  V30 4615 H 424.35 -1.81882 -3.93829 0
M  V30 4616 H 425.021 -1.10557 -5.40815 0
M  V30 4617 H 427.497 0.350572 -4.14621 0
M  V30 4618 H 426.373 0.903486 -5.41413 0
M  V30 4619 H 426.634 1.90047 -3.99167 0
M  V30 4620 N 425.693 1.55336 -0.266172 0
M  V30 4621 C 426.64 2.22172 0.625165 0
M  V30 4622 C 427.61 1.19211 1.15663 0
M  V30 4623 O 428.795 1.47723 1.20758 0
M  V30 4624 C 425.935 2.93972 1.8076 0
M  V30 4625 C 425.048 4.11632 1.31084 0
M  V30 4626 C 424.183 4.71099 2.45436 0
M  V30 4627 C 423.222 5.8097 1.92718 0
M  V30 4628 N 422.359 6.34538 3.00509 0
M  V30 4629 H 427.199 2.9796 0.0485582 0
M  V30 4630 H 424.736 1.47095 0.0122024 0
M  V30 4631 H 426.694 3.33811 2.50251 0
M  V30 4632 H 425.324 2.20623 2.35638 0
M  V30 4633 H 424.376 3.76975 0.509326 0
M  V30 4634 H 425.688 4.90893 0.884633 0
M  V30 4635 H 424.842 5.13612 3.22936 0
M  V30 4636 H 423.581 3.91096 2.91368 0
M  V30 4637 H 422.586 5.37916 1.13695 0
M  V30 4638 H 423.811 6.62836 1.47733 0
M  V30 4639 H 421.757 5.57433 3.45839 0
M  V30 4640 H 421.674 7.09046 2.62279 0
M  V30 4641 H 422.942 6.81709 3.78011 0
M  V30 4642 N 427.171 -0.0066808 1.57599 0
M  V30 4643 C 428.119 -1.01851 2.09115 0
M  V30 4644 C 429.113 -1.36021 1.00969 0
M  V30 4645 O 430.319 -1.34663 1.19439 0
M  V30 4646 H 426.694 -0.346083 0.667631 0
M  V30 4647 H 428.665 -0.558394 2.93129 0
M  V30 4648 C 427.414 -2.30374 2.60429 0
M  V30 4649 H 426.737 -2.04947 3.43273 0
M  V30 4650 H 428.177 -2.99466 3.00161 0
M  V30 4651 C 426.636 -3.00893 1.51542 0
M  V30 4652 O 427.166 -3.91614 0.894484 0
M  V30 4653 N 425.372 -2.62603 1.2445 0
M  V30 4654 H 424.919 -1.88911 1.75129 0
M  V30 4655 H 424.877 -3.10101 0.518137 0
M  V30 4656 N 428.649 -1.55105 -0.279332 0
M  V30 4657 C 430.06 -1.66186 -0.850832 0
M  V30 4658 C 430.411 -0.584707 -1.87285 0
M  V30 4659 O 429.536 0.274919 -2.14647 0
M  V30 4660 C 430.131 -3.01264 -1.55001 0
M  V30 4661 C 428.69 -3.14394 -2.06963 0
M  V30 4662 C 427.837 -2.61959 -0.909536 0
M  V30 4663 H 430.788 -1.58602 -0.0558235 0
M  V30 4664 H 430.809 -2.93899 -2.41669 0
M  V30 4665 H 430.321 -3.7964 -0.805931 0
M  V30 4666 H 428.422 -2.4078 -2.84352 0
M  V30 4667 H 428.535 -4.20867 -2.28928 0
M  V30 4668 H 426.899 -2.18957 -1.30116 0
M  V30 4669 H 427.682 -3.42833 -0.179062 0
M  V30 4670 N 430.127 0.543554 -1.4793 0
M  V30 4671 C 431.037 1.67657 -1.64098 0
M  V30 4672 C 432.053 1.65934 -0.523622 0
M  V30 4673 O 433.229 1.85133 -0.792943 0
M  V30 4674 C 430.294 3.04146 -1.66421 0
M  V30 4675 C 429.355 3.16831 -2.89684 0
M  V30 4676 C 428.588 4.46809 -2.91886 0
M  V30 4677 O 428.811 5.33095 -2.02895 0
M  V30 4678 O 427.745 4.63573 -3.83906 0
M  V30 4679 H 431.571 1.56957 -2.59997 0
M  V30 4680 H 429.156 0.715116 -1.31173 0
M  V30 4681 H 431.038 3.85346 -1.70548 0
M  V30 4682 H 429.713 3.152 -0.736923 0
M  V30 4683 H 428.62 2.34977 -2.91095 0
M  V30 4684 H 429.953 3.10687 -3.81752 0
M  V30 4685 N 431.605 1.3629 0.791371 0
M  V30 4686 C 432.882 1.20962 1.53712 0
M  V30 4687 C 433.262 -0.205021 2.10102 0
M  V30 4688 O 432.61 -1.21042 1.93807 0
M  V30 4689 C 432.82 2.29002 2.63361 0
M  V30 4690 C 434.168 2.65572 3.31295 0
M  V30 4691 O 435.192 2.2803 2.73643 0
M  V30 4692 O 434.051 3.3018 4.35481 0
M  V30 4693 H 431.145 0.47086 0.679867 0
M  V30 4694 H 433.691 1.48016 0.830021 0
M  V30 4695 H 432.463 3.2382 2.19674 0
M  V30 4696 H 432.086 2.03303 3.41692 0
M  V30 4697 N 433.083 -1.0153 1.20538 0
M  V30 4698 C 434.308 -1.79283 1.04271 0
M  V30 4699 C 434.733 -1.8372 -0.403544 0
M  V30 4700 O 434.091 -1.27321 -1.2907 0
M  V30 4701 C 434.139 -3.21535 1.63241 0
M  V30 4702 O 433.243 -4.03099 0.870908 0
M  V30 4703 H 432.584 -0.55293 0.367647 0
M  V30 4704 H 435.114 -1.27696 1.59859 0
M  V30 4705 H 435.124 -3.72243 1.6703 0
M  V30 4706 H 433.799 -3.1762 2.68497 0
M  V30 4707 H 432.376 -3.61693 0.907323 0
M  V30 4708 N 434.561 -1.01147 -1.20859 0
M  V30 4709 C 435.786 -0.716698 -1.94623 0
M  V30 4710 C 436.211 0.715415 -1.73964 0
M  V30 4711 O 435.569 1.49157 -1.03062 0
M  V30 4712 C 435.617 -1.0513 -3.44935 0
M  V30 4713 O 434.721 -0.160131 -4.12089 0
M  V30 4714 H 434.062 -0.266404 -0.608214 0
M  V30 4715 H 436.592 -1.35346 -1.53436 0
M  V30 4716 H 436.602 -1.00086 -3.95533 0
M  V30 4717 H 435.277 -2.09475 -3.59295 0
M  V30 4718 H 433.854 -0.267657 -3.71938 0
M  V30 4719 N 436.039 1.36541 -0.78704 0
M  V30 4720 C 437.279 2.01138 -0.363714 0
M  V30 4721 C 437.643 1.61114 1.04433 0
M  V30 4722 O 438.844 2.18285 1.56861 0
M  V30 4723 C 437.115 3.53603 -0.519582 0
M  V30 4724 S 438.674 4.38415 -0.183782 0
M  V30 4725 H 435.492 0.697263 -0.13909 0
M  V30 4726 H 438.094 1.66475 -1.02501 0
M  V30 4727 H 436.798 3.8022 -1.5447 0
M  V30 4728 H 436.329 3.93084 0.15773 0
M  V30 4729 H 438.344 4.85698 1.01547 0
M  V30 4730 N 437.518 0.538854 1.48102 0
M  V30 4731 C 438.746 0.0123136 2.06896 0
M  V30 4732 C 439.161 -1.27312 1.39417 0
M  V30 4733 O 438.518 -1.75949 0.484582 0
M  V30 4734 C 438.569 -0.206118 3.60912 0
M  V30 4735 O 438.29 1.0284 4.25859 0
M  V30 4736 C 439.791 -0.772033 4.36526 0
M  V30 4737 H 437.011 0.0375239 0.66995 0
M  V30 4738 H 439.555 0.747032 1.90367 0
M  V30 4739 H 437.71 -0.89091 3.77017 0
M  V30 4740 H 438.124 0.814654 5.18135 0
M  V30 4741 H 439.598 -0.874251 5.45033 0
M  V30 4742 H 440.075 -1.77904 4.01555 0
M  V30 4743 H 440.681 -0.123526 4.25121 0
M  V30 4744 N 438.996 -1.55193 0.274407 0
M  V30 4745 C 440.221 -2.04446 -0.348824 0
M  V30 4746 C 440.646 -1.15149 -1.48735 0
M  V30 4747 O 440.004 -0.149952 -1.80679 0
M  V30 4748 C 440.052 -3.51431 -0.808009 0
M  V30 4749 O 439.156 -3.65225 -1.91531 0
M  V30 4750 H 438.497 -0.66006 -0.0722276 0
M  V30 4751 H 441.027 -2.00481 0.408498 0
M  V30 4752 H 441.037 -3.92781 -1.10395 0
M  V30 4753 H 439.712 -4.15892 0.0249865 0
M  V30 4754 H 438.289 -3.35778 -1.62196 0
M  V30 4755 N 440.474 -0.00167713 -1.576 0
M  V30 4756 C 441.384 1.00548 -2.1196 0
M  V30 4757 C 442.4 1.3758 -1.06526 0
M  V30 4758 O 443.576 1.46278 -1.38436 0
M  V30 4759 C 440.641 2.27809 -2.6135 0
M  V30 4760 C 439.702 1.97074 -3.81393 0
M  V30 4761 C 438.935 3.18267 -4.28417 0
M  V30 4762 O 439.158 4.30009 -3.74765 0
M  V30 4763 O 438.092 3.02167 -5.20556 0
M  V30 4764 H 441.918 0.573373 -2.98238 0
M  V30 4765 H 439.503 0.217255 -1.47812 0
M  V30 4766 H 441.385 3.02568 -2.93309 0
M  V30 4767 H 440.06 2.70254 -1.78169 0
M  V30 4768 H 438.967 1.19785 -3.54404 0
M  V30 4769 H 440.3 1.59464 -4.65652 0
M  V30 4770 N 441.952 1.55251 0.271103 0
M  V30 4771 C 443.201 1.75151 1.00025 0
M  V30 4772 C 443.514 0.561041 1.87381 0
M  V30 4773 O 444.72 0.642506 2.63788 0
M  V30 4774 C 443.176 3.09999 1.82835 0
M  V30 4775 C 442.784 4.3662 1.00336 0
M  V30 4776 C 444.528 3.39249 2.55168 0
M  V30 4777 C 442.435 5.62506 1.82595 0
M  V30 4778 H 441.365 0.652877 0.377183 0
M  V30 4779 H 444.016 1.81708 0.255843 0
M  V30 4780 H 442.398 2.97485 2.61378 0
M  V30 4781 H 443.572 4.60055 0.261959 0
M  V30 4782 H 441.887 4.14527 0.394486 0
M  V30 4783 H 444.484 4.3051 3.1712 0
M  V30 4784 H 444.827 2.59467 3.2555 0
M  V30 4785 H 445.36 3.52869 1.83653 0
M  V30 4786 H 442.099 6.45041 1.16631 0
M  V30 4787 H 441.619 5.43211 2.54327 0
M  V30 4788 H 443.298 6.00875 2.39913 0
M  V30 4789 O 443.469 -0.416875 1.56027 0
M  V30 4790 H 444.16 -1.06974 1.61481 0
M  V30 END ATOM
M  V30 BEGIN BOND
M  V30 END BOND
M  V30 END CTAB
M  END
$$$$
