drugbank_target|P28908 Tumor necrosis factor receptor superfamily member 8 (DB06324; DB08870)
 OpenBabel12092120333D

  0  0  0     0  0            999 V3000
M  V30 BEGIN CTAB
M  V30 COUNTS 8777 8881 0 0 0
M  V30 BEGIN ATOM
M  V30 1 H -0.908 1.98254 -0.117106 0
M  V30 2 N 0 1.576 0 0
M  V30 3 C 0.933 2.03868 1.02534 0
M  V30 4 C 1.911 0.928543 1.3348 0
M  V30 5 O 3.095 1.19667 1.45644 0
M  V30 6 C 0.222 2.43627 2.35294 0
M  V30 7 C -0.732 3.65373 2.2001 0
M  V30 8 S 0.101 5.13292 1.52614 0
M  V30 9 C 1.257 5.56322 2.86805 0
M  V30 10 H 1.49 2.90518 0.631377 0
M  V30 11 H -0.977 1.52953 0.210867 0
M  V30 12 H 0.981 2.67203 3.11629 0
M  V30 13 H -0.358 1.57376 2.7183 0
M  V30 14 H -1.165 3.90944 3.18086 0
M  V30 15 H -1.563 3.418 1.51819 0
M  V30 16 H 0.729 5.58782 3.83104 0
M  V30 17 H 1.672 6.56266 2.65933 0
M  V30 18 H 2.08 4.83886 2.90714 0
M  V30 19 N 1.4781 -0.272755 1.55222 0
M  V30 20 C 2.8941 -0.619959 1.47067 0
M  V30 21 C 3.0941 -1.895 0.684978 0
M  V30 22 O 2.1501 -2.51675 0.203931 0
M  V30 23 C 3.4631 -0.746693 2.91282 0
M  V30 24 C 5.0111 -0.840731 3.01497 0
M  V30 25 C 5.4861 -0.99924 4.46967 0
M  V30 26 N 6.9771 -1.06476 4.50796 0
M  V30 27 C 7.7121 -1.20621 5.6057 0
M  V30 28 N 7.2081 -1.31483 6.80209 0
M  V30 29 N 9.0011 -1.23733 5.48312 0
M  V30 30 H 1.1521 0.564606 2.04758 0
M  V30 31 H 3.4151 0.191177 0.928523 0
M  V30 32 H 3.1211 0.119753 3.51496 0
M  V30 33 H 2.9951 -1.6269 3.40311 0
M  V30 34 H 5.3821 -1.69764 2.41379 0
M  V30 35 H 5.4631 0.0640874 2.5572 0
M  V30 36 H 5.1071 -0.146984 5.07687 0
M  V30 37 H 5.0371 -1.91871 4.90401 0
M  V30 38 H 7.5281 -0.993196 3.64615 0
M  V30 39 H 7.8411 -1.42111 7.59621 0
M  V30 40 H 6.1861 -1.28487 6.8302 0
M  V30 41 H 9.3771 -1.14877 4.53785 0
M  V30 42 H 9.5501 -1.34412 6.33906 0
M  V30 43 N 2.9562 -1.48159 -0.537278 0
M  V30 44 C 4.2022 -1.56035 -1.29541 0
M  V30 45 C 4.5352 -0.230377 -1.92829 0
M  V30 46 O 3.8102 0.762952 -1.78911 0
M  V30 47 C 4.0932 -2.69323 -2.39034 0
M  V30 48 C 3.9462 -4.12002 -1.80485 0
M  V30 49 C 5.2652 -2.78408 -3.40847 0
M  V30 50 H 2.3842 -0.567992 -0.469632 0
M  V30 51 H 5.0262 -1.80302 -0.599277 0
M  V30 52 H 3.1762 -2.48763 -2.98412 0
M  V30 53 H 4.8482 -4.43981 -1.25215 0
M  V30 54 H 3.0912 -4.19344 -1.11055 0
M  V30 55 H 3.7622 -4.87077 -2.59731 0
M  V30 56 H 6.2382 -2.97012 -2.91416 0
M  V30 57 H 5.1142 -3.59416 -4.14863 0
M  V30 58 H 5.3752 -1.86269 -4.00944 0
M  V30 59 N 4.4343 0.785586 -1.36625 0
M  V30 60 C 5.3643 1.91259 -1.33949 0
M  V30 61 C 6.3453 1.68795 -0.210325 0
M  V30 62 O 7.5303 1.89854 -0.408561 0
M  V30 63 C 4.6603 3.28339 -1.13186 0
M  V30 64 C 3.6143 3.65335 -2.22967 0
M  V30 65 C 2.9403 5.00806 -1.87342 0
M  V30 66 C 4.2403 3.7352 -3.65075 0
M  V30 67 H 5.9343 1.93755 -2.28253 0
M  V30 68 H 3.4803 0.930788 -1.09874 0
M  V30 69 H 5.4333 4.06804 -1.09948 0
M  V30 70 H 4.1573 3.2624 -0.153332 0
M  V30 71 H 2.8163 2.89169 -2.25337 0
M  V30 72 H 2.4643 4.95233 -0.880545 0
M  V30 73 H 2.1643 5.26529 -2.60846 0
M  V30 74 H 3.6883 5.81687 -1.85667 0
M  V30 75 H 5.1023 4.42168 -3.64911 0
M  V30 76 H 3.4993 4.10731 -4.37516 0
M  V30 77 H 4.5693 2.74527 -3.99703 0
M  V30 78 N 5.9124 1.20967 1.01018 0
M  V30 79 C 6.8424 0.988272 2.11555 0
M  V30 80 C 7.8234 -0.0849778 1.69888 0
M  V30 81 O 9.0084 0.0738202 1.9406 0
M  V30 82 C 6.1384 0.546528 3.42973 0
M  V30 83 C 5.0924 1.56375 3.9841 0
M  V30 84 C 4.4184 0.97842 5.25672 0
M  V30 85 C 5.7184 2.94922 4.31066 0
M  V30 86 H 7.4124 1.91276 2.30334 0
M  V30 87 H 4.9584 0.921073 1.1069 0
M  V30 88 H 6.9114 0.378839 4.19694 0
M  V30 89 H 5.6354 -0.413598 3.23971 0
M  V30 90 H 4.2944 1.71891 3.23804 0
M  V30 91 H 3.9424 0.0101688 5.02999 0
M  V30 92 H 3.6424 1.65784 5.63728 0
M  V30 93 H 5.1664 0.821939 6.05043 0
M  V30 94 H 6.5804 2.8288 4.9865 0
M  V30 95 H 4.9774 3.5983 4.80253 0
M  V30 96 H 6.0474 3.4616 3.39561 0
M  V30 97 N 7.3905 -1.2043 1.01659 0
M  V30 98 C 8.3535 -2.21433 0.591616 0
M  V30 99 C 9.3535 -1.57203 -0.338226 0
M  V30 100 O 10.5435 -1.73737 -0.126918 0
M  V30 101 C 7.6755 -3.40628 -0.136058 0
M  V30 102 H 8.8685 -2.60545 1.48514 0
M  V30 103 H 6.4215 -1.33893 0.806379 0
M  V30 104 H 7.1565 -3.07019 -1.04449 0
M  V30 105 H 6.9415 -3.88475 0.531917 0
M  V30 106 H 8.4315 -4.15475 -0.420735 0
M  V30 107 N 8.8686 -0.792821 -1.36206 0
M  V30 108 C 9.8316 -0.199459 -2.2833 0
M  V30 109 C 10.8316 0.605189 -1.48977 0
M  V30 110 O 12.0216 0.425685 -1.68919 0
M  V30 111 C 9.1536 0.723523 -3.33134 0
M  V30 112 H 10.3466 -1.01181 -2.82316 0
M  V30 113 H 7.8996 -0.562485 -1.45828 0
M  V30 114 H 8.6346 1.56008 -2.84309 0
M  V30 115 H 8.4196 0.148436 -3.91819 0
M  V30 116 H 9.9096 1.13344 -4.01924 0
M  V30 117 N 10.3467 1.47872 -0.545128 0
M  V30 118 C 11.2767 2.32661 0.197793 0
M  V30 119 C 12.2577 1.43041 0.920504 0
M  V30 120 O 13.4427 1.71912 0.90333 0
M  V30 121 C 10.5727 3.24569 1.23582 0
M  V30 122 C 9.5267 4.23333 0.630323 0
M  V30 123 C 8.8527 5.0448 1.77211 0
M  V30 124 C 10.1527 5.20704 -0.407974 0
M  V30 125 H 11.8467 2.95024 -0.510045 0
M  V30 126 H 9.3927 1.4187 -0.246731 0
M  V30 127 H 11.3457 3.8272 1.76362 0
M  V30 128 H 10.0697 2.60236 1.97344 0
M  V30 129 H 8.7287 3.6639 0.123922 0
M  V30 130 H 8.3767 4.36561 2.49847 0
M  V30 131 H 8.0767 5.71339 1.37281 0
M  V30 132 H 9.6007 5.65487 2.3034 0
M  V30 133 H 11.0147 5.7329 0.033305 0
M  V30 134 H 9.4117 5.95699 -0.725486 0
M  V30 135 H 10.4817 4.66917 -1.30828 0
M  V30 136 N 11.8248 0.280983 1.55075 0
M  V30 137 C 13.0728 -0.333455 1.9933 0
M  V30 138 C 13.3938 -1.55937 1.17085 0
M  V30 139 O 12.6638 -1.94143 0.261805 0
M  V30 140 H 11.2438 -0.126197 0.736263 0
M  V30 141 H 13.9058 0.387678 1.91005 0
M  V30 142 H 13.0018 -0.619292 3.05894 0
M  V30 143 N 13.3029 -1.57598 0.00835791 0
M  V30 144 C 14.2329 -2.1198 -0.979113 0
M  V30 145 C 15.2139 -1.03091 -1.35301 0
M  V30 146 O 16.3989 -1.30818 -1.43528 0
M  V30 147 C 13.5289 -2.62995 -2.26828 0
M  V30 148 C 12.4829 -3.76485 -2.03576 0
M  V30 149 C 11.8089 -4.13846 -3.38579 0
M  V30 150 C 13.1089 -5.0342 -1.39161 0
M  V30 151 H 14.8029 -2.94738 -0.526281 0
M  V30 152 H 12.3489 -1.41783 -0.251704 0
M  V30 153 H 14.3019 -2.99669 -2.96271 0
M  V30 154 H 13.0259 -1.7737 -2.7424 0
M  V30 155 H 11.6849 -3.40217 -1.36557 0
M  V30 156 H 11.3329 -3.25232 -3.83709 0
M  V30 157 H 11.0329 -4.90312 -3.23834 0
M  V30 158 H 12.5569 -4.53086 -4.09323 0
M  V30 159 H 13.9709 -5.37812 -1.98573 0
M  V30 160 H 12.3679 -5.84746 -1.34878 0
M  V30 161 H 13.4379 -4.83548 -0.361868 0
M  V30 162 N 14.781 0.264519 -1.55364 0
M  V30 163 C 15.711 1.33121 -1.91836 0
M  V30 164 C 16.692 1.51101 -0.781192 0
M  V30 165 O 17.877 1.64003 -1.04003 0
M  V30 166 C 15.007 2.68921 -2.19769 0
M  V30 167 C 13.961 2.65661 -3.35571 0
M  V30 168 C 13.287 4.05093 -3.49004 0
M  V30 169 C 14.587 2.24187 -4.71739 0
M  V30 170 H 16.281 1.02844 -2.81182 0
M  V30 171 H 13.827 0.493286 -1.35287 0
M  V30 172 H 15.78 3.43663 -2.43872 0
M  V30 173 H 14.504 3.00799 -1.27231 0
M  V30 174 H 13.163 1.93377 -3.1145 0
M  V30 175 H 12.811 4.34206 -2.53917 0
M  V30 176 H 12.511 4.03804 -4.26868 0
M  V30 177 H 14.035 4.81561 -3.75408 0
M  V30 178 H 15.449 2.88654 -4.9533 0
M  V30 179 H 13.846 2.34044 -5.52579 0
M  V30 180 H 14.916 1.19327 -4.69988 0
M  V30 181 N 16.2591 1.48442 0.529413 0
M  V30 182 C 17.5061 1.56488 1.28521 0
M  V30 183 C 17.8341 0.239042 1.93025 0
M  V30 184 O 17.0891 -0.770713 1.79885 0
M  V30 185 C 17.3881 2.6523 2.39558 0
M  V30 186 C 17.0541 4.07648 1.92702 0
M  V30 187 C 15.7161 4.46411 1.79641 0
M  V30 188 C 18.0681 4.96896 1.573 0
M  V30 189 C 15.3961 5.72226 1.29514 0
M  V30 190 C 17.7481 6.23202 1.08636 0
M  V30 191 C 16.4121 6.60821 0.941919 0
M  V30 192 H 15.6821 0.572631 0.470292 0
M  V30 193 H 18.3291 1.82161 0.59072 0
M  V30 194 H 16.6341 2.33419 3.14679 0
M  V30 195 H 18.3311 2.68671 2.97686 0
M  V30 196 H 14.9211 3.77036 2.03819 0
M  V30 197 H 19.1051 4.67626 1.66251 0
M  V30 198 H 14.3611 6.00097 1.17019 0
M  V30 199 H 18.5351 6.91753 0.803136 0
M  V30 200 H 16.1621 7.58198 0.5513 0
M  V30 201 N 17.7372 -0.778329 1.37039 0
M  V30 202 C 18.6672 -1.90546 1.34962 0
M  V30 203 C 19.6482 -1.68681 0.219274 0
M  V30 204 O 20.8332 -1.89634 0.418624 0
M  V30 205 C 17.9632 -3.27734 1.14925 0
M  V30 206 C 16.9172 -3.64147 2.24902 0
M  V30 207 C 16.2432 -4.99806 1.89996 0
M  V30 208 C 17.5432 -3.71579 3.67051 0
M  V30 209 H 19.2372 -1.92541 2.29277 0
M  V30 210 H 16.7832 -0.924948 1.10366 0
M  V30 211 H 18.7362 -4.06215 1.12104 0
M  V30 212 H 17.4602 -3.26154 0.170631 0
M  V30 213 H 16.1192 -2.8797 2.26868 0
M  V30 214 H 15.7672 -4.94759 0.906796 0
M  V30 215 H 15.4672 -5.25139 2.63634 0
M  V30 216 H 16.9912 -5.80694 1.88749 0
M  V30 217 H 18.4052 -4.40227 3.67251 0
M  V30 218 H 16.8022 -4.08405 4.39688 0
M  V30 219 H 17.8722 -2.72404 4.01154 0
M  V30 220 N 19.2153 -1.21501 -1.00376 0
M  V30 221 C 20.4633 -1.03095 -1.73827 0
M  V30 222 C 20.7843 0.436341 -1.90055 0
M  V30 223 O 20.0543 1.31466 -1.45236 0
M  V30 224 H 18.6343 -0.378487 -0.644016 0
M  V30 225 H 21.2963 -1.52831 -1.20949 0
M  V30 226 H 20.3923 -1.49991 -2.73695 0
M  V30 227 N 20.6934 1.19889 -1.02296 0
M  V30 228 C 21.6564 2.21116 -0.603351 0
M  V30 229 C 22.6564 1.5738 0.329884 0
M  V30 230 O 23.8464 1.73802 0.117702 0
M  V30 231 C 20.9784 3.40696 0.117992 0
M  V30 232 H 22.1714 2.59754 -1.49893 0
M  V30 233 H 19.7244 1.33463 -0.813468 0
M  V30 234 H 20.4594 3.07569 1.0282 0
M  V30 235 H 20.2444 3.88188 -0.552511 0
M  V30 236 H 21.7344 4.15692 0.398696 0
M  V30 237 N 22.1715 0.800033 1.35784 0
M  V30 238 C 23.1015 0.220184 2.3246 0
M  V30 239 C 24.0825 -0.65073 1.57161 0
M  V30 240 O 25.2675 -0.582359 1.85263 0
M  V30 241 C 22.3975 -0.637353 3.41402 0
M  V30 242 C 21.3515 0.134531 4.27789 0
M  V30 243 C 20.6775 -0.844285 5.27992 0
M  V30 244 C 21.9775 1.32979 5.05088 0
M  V30 245 H 23.6715 1.02787 2.81203 0
M  V30 246 H 21.2175 0.495717 1.35199 0
M  V30 247 H 23.1705 -1.05302 4.08031 0
M  V30 248 H 21.8945 -1.47785 2.91251 0
M  V30 249 H 20.5535 0.531296 3.6273 0
M  V30 250 H 20.2015 -1.68011 4.74111 0
M  V30 251 H 19.9015 -0.332184 5.8666 0
M  V30 252 H 21.4255 -1.2583 5.97494 0
M  V30 253 H 22.8395 0.98934 5.64699 0
M  V30 254 H 21.2365 1.77593 5.7322 0
M  V30 255 H 22.3065 2.11978 4.36111 0
M  V30 256 N 23.6496 -1.47581 0.552962 0
M  V30 257 C 25.0656 -1.5818 0.212424 0
M  V30 258 C 25.2656 -1.55213 -1.28496 0
M  V30 259 O 24.3216 -1.45329 -2.06484 0
M  V30 260 C 25.6346 -2.88865 0.835318 0
M  V30 261 C 27.1826 -3.0244 0.806156 0
M  V30 262 C 27.6576 -4.35819 1.40804 0
M  V30 263 N 29.1486 -4.42444 1.37103 0
M  V30 264 C 29.8836 -5.44202 1.80641 0
M  V30 265 N 29.3796 -6.52795 2.32015 0
M  V30 266 N 31.1726 -5.35222 1.71738 0
M  V30 267 H 23.3236 -1.47753 1.52587 0
M  V30 268 H 25.5866 -0.702941 0.636064 0
M  V30 269 H 25.2926 -2.9676 1.88749 0
M  V30 270 H 25.1666 -3.7579 0.325848 0
M  V30 271 H 27.5536 -2.94144 -0.237317 0
M  V30 272 H 27.6346 -2.17068 1.35334 0
M  V30 273 H 27.2786 -4.44871 2.45056 0
M  V30 274 H 27.2086 -5.19916 0.836338 0
M  V30 275 H 29.6996 -3.6456 0.995202 0
M  V30 276 H 30.0126 -7.26609 2.63171 0
M  V30 277 H 28.3576 -6.53696 2.36023 0
M  V30 278 H 31.5486 -4.49284 1.31382 0
M  V30 279 H 31.7216 -6.14389 2.05987 0
M  V30 280 N 25.1277 -0.289203 -1.54924 0
M  V30 281 C 26.0907 0.579144 -2.21762 0
M  V30 282 C 27.0907 1.07047 -1.1999 0
M  V30 283 O 28.2807 0.968384 -1.44803 0
M  V30 284 C 25.4127 1.80055 -2.8947 0
M  V30 285 H 26.6057 -0.00464908 -2.999 0
M  V30 286 H 24.1587 -0.0399306 -1.56249 0
M  V30 287 H 24.8937 2.42449 -2.15381 0
M  V30 288 H 24.6787 1.45602 -3.64064 0
M  V30 289 H 26.1687 2.41773 -3.40493 0
M  V30 290 N 26.6058 1.57591 -0.0167156 0
M  V30 291 C 27.8528 1.91283 0.664597 0
M  V30 292 C 28.1808 0.891949 1.72842 0
M  V30 293 O 27.4358 -0.100931 1.9544 0
M  V30 294 C 27.7348 3.3172 1.33029 0
M  V30 295 C 27.4008 4.4914 0.398047 0
M  V30 296 C 26.0628 4.80992 0.141421 0
M  V30 297 C 28.4148 5.20634 -0.242825 0
M  V30 298 C 25.7428 5.81703 -0.764092 0
M  V30 299 C 28.0948 6.22311 -1.13632 0
M  V30 300 C 26.7588 6.52611 -1.40196 0
M  V30 301 H 26.0288 0.699956 0.243193 0
M  V30 302 H 28.6758 1.9135 -0.0758267 0
M  V30 303 H 26.9808 3.27856 2.14517 0
M  V30 304 H 28.6778 3.55055 1.86379 0
M  V30 305 H 25.2678 4.24262 0.608238 0
M  V30 306 H 29.4518 4.96267 -0.0576019 0
M  V30 307 H 24.7078 6.03532 -0.977732 0
M  V30 308 H 28.8818 6.76834 -1.63917 0
M  V30 309 H 26.5088 7.30467 -2.10529 0
M  V30 310 N 28.0839 -0.256276 1.55502 0
M  V30 311 C 29.4949 -0.826068 1.67431 0
M  V30 312 C 29.8459 -1.86396 0.612446 0
M  V30 313 O 28.9709 -2.15031 -0.243025 0
M  V30 314 C 29.5659 -1.50512 3.03532 0
M  V30 315 C 28.1249 -2.02273 3.17431 0
M  V30 316 C 27.2719 -0.870548 2.63281 0
M  V30 317 H 30.2229 -0.0322728 1.58667 0
M  V30 318 H 30.2439 -2.37279 2.97454 0
M  V30 319 H 29.7559 -0.749484 3.80794 0
M  V30 320 H 27.8569 -2.80746 2.44974 0
M  V30 321 H 27.9699 -2.22655 4.24219 0
M  V30 322 H 26.3339 -1.26851 2.20864 0
M  V30 323 H 27.1169 -0.128149 3.43061 0
M  V30 324 N 29.562 -1.4872 -0.521534 0
M  V30 325 C 30.494 -1.59968 -1.64143 0
M  V30 326 C 31.507 -0.483463 -1.55456 0
M  V30 327 O 32.696 -0.75467 -1.61762 0
M  V30 328 C 29.796 -1.52127 -3.02838 0
M  V30 329 C 28.969 -2.78932 -3.36921 0
M  V30 330 C 28.028 -2.64428 -4.54933 0
M  V30 331 O 27.054 -3.38331 -4.57735 0
M  V30 332 N 28.256 -1.74606 -5.53618 0
M  V30 333 H 31.021 -2.56548 -1.54929 0
M  V30 334 H 28.582 -1.45551 -0.708988 0
M  V30 335 H 30.574 -1.40106 -3.79674 0
M  V30 336 H 29.144 -0.634868 -3.06085 0
M  V30 337 H 28.364 -3.05455 -2.4918 0
M  V30 338 H 29.652 -3.63041 -3.56481 0
M  V30 339 H 29.05 -1.13782 -5.54139 0
M  V30 340 H 27.607 -1.6852 -6.29638 0
M  V30 341 N 31.0401 0.771051 -1.3745 0
M  V30 342 C 32.3171 1.519 -1.23231 0
M  V30 343 C 32.6971 2.10383 0.173809 0
M  V30 344 O 32.0451 1.95583 1.18151 0
M  V30 345 C 32.2551 2.59933 -2.32886 0
M  V30 346 C 33.6031 3.27316 -2.70461 0
M  V30 347 O 34.6271 2.70228 -2.32068 0
M  V30 348 O 33.4861 4.30531 -3.36608 0
M  V30 349 H 30.5801 0.672803 -0.480901 0
M  V30 350 H 33.1261 0.807957 -1.49232 0
M  V30 351 H 31.8981 2.14842 -3.27045 0
M  V30 352 H 31.5211 3.38637 -2.08353 0
M  V30 353 N 32.5182 1.22032 0.997298 0
M  V30 354 C 33.9342 0.979326 1.26021 0
M  V30 355 C 34.1342 -0.32972 1.98784 0
M  V30 356 O 33.1902 -1.05345 2.29475 0
M  V30 357 C 34.5032 2.17509 2.07631 0
M  V30 358 C 36.0512 2.21817 2.2083 0
M  V30 359 C 36.5262 3.40933 3.05825 0
M  V30 360 N 38.0172 3.41067 3.13412 0
M  V30 361 C 38.7522 4.29885 3.79455 0
M  V30 362 N 38.2482 5.28914 4.47462 0
M  V30 363 N 40.0412 4.17673 3.76173 0
M  V30 364 H 32.1922 2.06202 0.509352 0
M  V30 365 H 34.4552 0.90334 0.287541 0
M  V30 366 H 34.1612 3.12415 1.61524 0
M  V30 367 H 34.0352 2.17206 3.08385 0
M  V30 368 H 36.4222 1.27462 2.66153 0
M  V30 369 H 36.5032 2.2616 1.1952 0
M  V30 370 H 36.1472 4.35586 2.61203 0
M  V30 371 H 36.0772 3.33829 4.07266 0
M  V30 372 H 38.5682 2.69406 2.65007 0
M  V30 373 H 38.8812 5.92973 4.95583 0
M  V30 374 H 37.2262 5.32831 4.46224 0
M  V30 375 H 40.4172 3.39564 3.22202 0
M  V30 376 H 40.5902 4.87098 4.27363 0
M  V30 377 N 33.9963 -1.19345 1.0293 0
M  V30 378 C 35.4073 -1.70725 0.755633 0
M  V30 379 C 35.7583 -1.82326 -0.724676 0
M  V30 380 O 34.8833 -1.49471 -1.56484 0
M  V30 381 C 35.4783 -3.10084 1.36503 0
M  V30 382 C 34.0373 -3.58723 1.13994 0
M  V30 383 C 33.1843 -2.35577 1.46283 0
M  V30 384 H 36.1353 -1.0418 1.19718 0
M  V30 385 H 36.1563 -3.72787 0.762217 0
M  V30 386 H 35.6683 -3.01609 2.44241 0
M  V30 387 H 33.7693 -3.72512 0.0807901 0
M  V30 388 H 33.8823 -4.42816 1.82894 0
M  V30 389 H 32.2463 -2.38935 0.88217 0
M  V30 390 H 33.0293 -2.29731 2.55105 0
M  V30 391 N 35.4744 -0.807222 -1.35358 0
M  V30 392 C 36.7214 -0.387888 -1.9875 0
M  V30 393 C 37.0494 1.04509 -1.64037 0
M  V30 394 O 36.3044 1.73986 -0.895946 0
M  V30 395 C 36.6034 -0.519036 -3.53611 0
M  V30 396 C 36.2694 -1.91542 -4.08194 0
M  V30 397 C 34.9314 -2.29745 -4.22813 0
M  V30 398 C 37.2834 -2.82896 -4.37744 0
M  V30 399 C 34.6114 -3.58668 -4.643 0
M  V30 400 C 36.9634 -4.11265 -4.8067 0
M  V30 401 C 35.6274 -4.49466 -4.93494 0
M  V30 402 H 34.8974 -0.141938 -0.727279 0
M  V30 403 H 37.5444 -1.02814 -1.6156 0
M  V30 404 H 35.8494 0.204658 -3.91265 0
M  V30 405 H 37.5464 -0.175345 -4.00616 0
M  V30 406 H 34.1364 -1.60862 -3.97268 0
M  V30 407 H 38.3204 -2.54629 -4.26002 0
M  V30 408 H 33.5764 -3.88113 -4.72418 0
M  V30 409 H 37.7504 -4.82153 -5.02496 0
M  V30 410 H 35.3774 -5.49418 -5.25399 0
M  V30 411 N 36.9525 1.47285 -0.560781 0
M  V30 412 C 37.8625 2.33846 0.187954 0
M  V30 413 C 38.8785 1.48412 0.908293 0
M  V30 414 O 40.0545 1.81332 0.876388 0
M  V30 415 C 37.1195 3.25178 1.2025 0
M  V30 416 C 36.1805 4.26504 0.489208 0
M  V30 417 C 35.4135 5.13472 1.45542 0
M  V30 418 O 35.6365 5.02959 2.6905 0
M  V30 419 O 34.5705 5.93902 0.977963 0
M  V30 420 H 38.3965 2.99177 -0.522177 0
M  V30 421 H 35.9815 1.45903 -0.321364 0
M  V30 422 H 37.8635 3.81584 1.78805 0
M  V30 423 H 36.5385 2.6247 1.89449 0
M  V30 424 H 35.4455 3.73847 -0.137627 0
M  V30 425 H 36.7785 4.91935 -0.161399 0
M  V30 426 N 38.4306 0.297415 1.54768 0
M  V30 427 C 39.7076 -0.365847 1.92148 0
M  V30 428 C 40.0876 -1.71975 1.22424 0
M  V30 429 O 39.4356 -2.25666 0.358739 0
M  V30 430 C 39.6456 -0.484056 3.45627 0
M  V30 431 C 40.9936 -0.756594 4.17805 0
M  V30 432 O 42.0176 -0.568007 3.51642 0
M  V30 433 O 40.8766 -1.11863 5.34929 0
M  V30 434 H 37.9706 -0.203919 0.801465 0
M  V30 435 H 40.5166 0.34521 1.66152 0
M  V30 436 H 39.2886 0.467865 3.88493 0
M  V30 437 H 38.9116 -1.24372 3.77647 0
M  V30 438 N 39.9087 -1.5758 0.0250728 0
M  V30 439 C 41.1367 -1.9593 -0.664747 0
M  V30 440 C 41.5517 -0.901352 -1.65895 0
M  V30 441 O 40.9087 0.117255 -1.82123 0
M  V30 442 C 40.9597 -3.34342 -1.37468 0
M  V30 443 O 40.6807 -4.36079 -0.420324 0
M  V30 444 C 42.1817 -3.873 -2.1567 0
M  V30 445 H 39.4017 -0.645405 -0.183557 0
M  V30 446 H 41.9457 -2.04329 0.0836372 0
M  V30 447 H 40.1007 -3.27175 -2.0745 0
M  V30 448 H 40.5147 -5.16297 -0.923991 0
M  V30 449 H 41.9887 -4.86504 -2.60803 0
M  V30 450 H 42.4657 -3.21331 -2.99405 0
M  V30 451 H 43.0717 -3.97723 -1.50654 0
M  V30 452 N 41.3868 0.248026 -1.55636 0
M  V30 453 C 42.6268 0.983592 -1.79178 0
M  V30 454 C 42.9908 1.82567 -0.594414 0
M  V30 455 O 44.1918 2.59292 -0.708583 0
M  V30 456 C 42.4628 1.82228 -3.07454 0
M  V30 457 S 44.0218 2.61709 -3.52213 0
M  V30 458 H 40.8398 0.330866 -0.629324 0
M  V30 459 H 43.4418 0.251562 -1.93875 0
M  V30 460 H 42.1458 1.19333 -3.92668 0
M  V30 461 H 41.6768 2.59708 -2.95492 0
M  V30 462 H 43.6918 3.84655 -3.13457 0
M  V30 463 N 42.8649 1.48995 0.513639 0
M  V30 464 C 43.8149 1.61127 1.61314 0
M  V30 465 C 44.7989 0.467521 1.53958 0
M  V30 466 O 45.9909 0.719826 1.61702 0
M  V30 467 C 43.1199 1.66937 2.99978 0
M  V30 468 C 42.2059 2.86847 3.12377 0
M  V30 469 N 42.5969 4.11078 2.94701 0
M  V30 470 C 40.8949 2.84521 3.43459 0
M  V30 471 C 41.5959 4.91615 3.10949 0
M  V30 472 N 40.5719 4.24739 3.3926 0
M  V30 473 H 44.3739 2.54909 1.46282 0
M  V30 474 H 41.8879 1.45593 0.719483 0
M  V30 475 H 43.8849 1.73725 3.78979 0
M  V30 476 H 42.5449 0.742831 3.16089 0
M  V30 477 H 43.5559 4.41258 2.71131 0
M  V30 478 H 40.2329 2.01192 3.65825 0
M  V30 479 H 41.6229 6.00264 3.01882 0
M  V30 480 N 44.343 -0.763751 1.37857 0
M  V30 481 C 45.591 -1.51957 1.33243 0
M  V30 482 C 45.912 -1.94835 -0.0801709 0
M  V30 483 O 45.182 -1.66894 -1.02582 0
M  V30 484 H 43.762 -0.563626 0.49024 0
M  V30 485 H 46.424 -0.908504 1.7243 0
M  V30 486 H 45.52 -2.41523 1.97669 0
M  V30 487 N 45.8211 -1.22559 -0.990812 0
M  V30 488 C 46.7691 -0.994798 -2.10253 0
M  V30 489 C 47.7631 0.0627798 -1.69284 0
M  V30 490 O 48.9691 -0.0898392 -1.79776 0
M  V30 491 H 45.3441 -0.304527 -0.687581 0
M  V30 492 H 47.3151 -1.93812 -2.26891 0
M  V30 493 C 46.0641 -0.591439 -3.42633 0
M  V30 494 H 45.3871 -1.3969 -3.74602 0
M  V30 495 H 46.8271 -0.469385 -4.21394 0
M  V30 496 C 45.2861 0.699232 -3.29564 0
M  V30 497 O 45.8161 1.75112 -3.61523 0
M  V30 498 N 44.0221 0.671182 -2.82743 0
M  V30 499 H 43.5691 -0.185136 -2.56934 0
M  V30 500 H 43.5271 1.53502 -2.7438 0
M  V30 501 N 47.2992 1.18797 -1.03562 0
M  V30 502 C 48.7102 1.70322 -0.764676 0
M  V30 503 C 49.0612 1.82708 0.714996 0
M  V30 504 O 48.1862 1.50299 1.55689 0
M  V30 505 C 48.7812 3.09356 -1.38145 0
M  V30 506 C 47.3402 3.58114 -1.15895 0
M  V30 507 C 46.4872 2.34798 -1.4753 0
M  V30 508 H 49.4382 1.03543 -1.20268 0
M  V30 509 H 49.4592 3.72378 -0.781977 0
M  V30 510 H 48.9712 3.00309 -2.45837 0
M  V30 511 H 47.0722 3.72464 -0.100544 0
M  V30 512 H 47.1852 4.4184 -1.8524 0
M  V30 513 H 45.5492 2.38464 -0.894829 0
M  V30 514 H 46.3322 2.28375 -2.56319 0
M  V30 515 N 48.7773 0.814389 1.34928 0
M  V30 516 C 50.0023 0.410097 2.03305 0
M  V30 517 C 50.4273 -0.973464 1.60951 0
M  V30 518 O 49.7853 -1.63185 0.789964 0
M  V30 519 C 49.8333 0.51049 3.56968 0
M  V30 520 O 48.9373 -0.473035 4.09678 0
M  V30 521 H 48.2783 0.170088 0.641846 0
M  V30 522 H 50.8083 1.10244 1.72358 0
M  V30 523 H 50.8183 0.383135 4.06197 0
M  V30 524 H 49.4933 1.51963 3.87144 0
M  V30 525 H 48.0703 -0.305272 3.71648 0
M  V30 526 N 50.2554 -1.46986 0.568584 0
M  V30 527 C 51.2054 -2.27179 -0.193339 0
M  V30 528 C 52.1894 -1.35035 -0.874895 0
M  V30 529 O 53.3814 -1.5931 -0.771322 0
M  V30 530 C 50.5104 -3.21063 -1.21546 0
M  V30 531 C 49.5964 -4.2069 -0.536738 0
M  V30 532 N 49.9874 -5.04218 0.399673 0
M  V30 533 C 48.2854 -4.38961 -0.789254 0
M  V30 534 C 48.9864 -5.76242 0.795017 0
M  V30 535 N 47.9624 -5.434 0.1473 0
M  V30 536 H 51.7644 -2.89146 0.526458 0
M  V30 537 H 49.2784 -1.57664 0.389342 0
M  V30 538 H 51.2754 -3.77209 -1.77536 0
M  V30 539 H 49.9354 -2.60654 -1.93623 0
M  V30 540 H 50.9464 -5.12077 0.774454 0
M  V30 541 H 47.6234 -3.89713 -1.49767 0
M  V30 542 H 49.0134 -6.53417 1.56513 0
M  V30 543 N 51.7335 -0.305618 -1.54608 0
M  V30 544 C 52.9635 0.304333 -2.04346 0
M  V30 545 C 53.3715 1.47715 -1.18224 0
M  V30 546 O 52.7145 1.82591 -0.201577 0
M  V30 547 C 52.7765 0.819031 -3.50046 0
M  V30 548 C 52.4405 -0.22912 -4.56425 0
M  V30 549 C 53.4375 -1.05914 -5.08997 0
M  V30 550 C 51.1225 -0.372148 -5.0092 0
M  V30 551 C 53.1165 -2.01809 -6.04609 0
M  V30 552 C 50.8035 -1.33454 -5.9635 0
M  V30 553 C 51.8015 -2.15599 -6.48079 0
M  V30 554 O 51.4895 -3.10205 -7.41639 0
M  V30 555 H 51.2215 0.0693996 -0.672428 0
M  V30 556 H 53.7755 -0.444548 -2.00532 0
M  V30 557 H 52.0055 1.61852 -3.51199 0
M  V30 558 H 53.6945 1.34537 -3.82955 0
M  V30 559 H 54.4605 -0.959538 -4.75413 0
M  V30 560 H 50.3395 0.257304 -4.60281 0
M  V30 561 H 53.8835 -2.65966 -6.44909 0
M  V30 562 H 49.7805 -1.43485 -6.29351 0
M  V30 563 H 50.5485 -3.05237 -7.59455 0
M  V30 564 N 53.2116 1.57565 -0.0334293 0
M  V30 565 C 54.4416 1.95996 0.653398 0
M  V30 566 C 54.8496 0.908749 1.65947 0
M  V30 567 O 54.1926 -0.117471 1.83324 0
M  V30 568 C 54.2546 3.30589 1.41249 0
M  V30 569 C 53.9186 4.53503 0.564263 0
M  V30 570 C 54.9156 5.19647 -0.16225 0
M  V30 571 C 52.6006 4.99801 0.500398 0
M  V30 572 C 54.5946 6.30412 -0.941255 0
M  V30 573 C 52.2816 6.10448 -0.282308 0
M  V30 574 C 53.2796 6.75612 -1.00184 0
M  V30 575 O 52.9676 7.84134 -1.77171 0
M  V30 576 H 52.6996 0.65027 0.184728 0
M  V30 577 H 55.2536 2.05199 -0.0907841 0
M  V30 578 H 53.4836 3.17888 2.20191 0
M  V30 579 H 55.1726 3.53892 1.98784 0
M  V30 580 H 55.9386 4.84846 -0.12227 0
M  V30 581 H 51.8176 4.48883 1.05002 0
M  V30 582 H 55.3616 6.81208 -1.50339 0
M  V30 583 H 51.2586 6.44686 -0.323989 0
M  V30 584 H 52.0266 8.00822 -1.69194 0
M  V30 585 N 54.6897 -0.239769 1.55765 0
M  V30 586 C 55.9667 -0.990056 1.68693 0
M  V30 587 C 56.3467 -2.03107 0.5754 0
M  V30 588 O 55.6947 -2.24604 -0.42017 0
M  V30 589 C 55.9047 -1.61696 3.09282 0
M  V30 590 C 57.2527 -2.11613 3.6811 0
M  V30 591 O 58.2767 -1.71624 3.12127 0
M  V30 592 O 57.1357 -2.85057 4.66267 0
M  V30 593 H 54.2297 -0.461299 0.686391 0
M  V30 594 H 56.7757 -0.232991 1.68093 0
M  V30 595 H 55.5477 -0.864357 3.81634 0
M  V30 596 H 55.1707 -2.44005 3.13923 0
M  V30 597 N 56.1678 -1.49265 -0.50573 0
M  V30 598 C 57.1148 -1.65585 -1.6078 0
M  V30 599 C 58.0848 -0.497396 -1.58478 0
M  V30 600 O 59.2698 -0.72385 -1.76536 0
M  V30 601 C 56.4098 -1.72408 -2.98948 0
M  V30 602 C 55.5228 -2.99525 -3.11301 0
M  V30 603 C 54.6578 -2.97356 -4.40174 0
M  V30 604 C 53.6968 -4.19074 -4.46143 0
M  V30 605 N 52.8338 -4.14841 -5.66437 0
M  V30 606 H 57.6738 -2.59688 -1.46172 0
M  V30 607 H 55.2108 -1.28761 -0.711261 0
M  V30 608 H 57.1688 -1.74344 -3.79025 0
M  V30 609 H 55.7988 -0.817753 -3.1227 0
M  V30 610 H 54.8508 -3.07222 -2.24318 0
M  V30 611 H 56.1628 -3.89518 -3.11572 0
M  V30 612 H 55.3168 -2.97829 -5.28567 0
M  V30 613 H 54.0558 -2.05133 -4.42461 0
M  V30 614 H 53.0608 -4.1885 -3.56153 0
M  V30 615 H 54.2858 -5.12483 -4.45575 0
M  V30 616 H 52.2318 -3.25453 -5.69575 0
M  V30 617 H 52.1488 -4.98564 -5.68304 0
M  V30 618 H 53.4168 -4.1941 -6.57051 0
M  V30 619 N 57.6459 0.756429 -1.3826 0
M  V30 620 C 58.6089 1.85176 -1.35065 0
M  V30 621 C 59.6089 1.58818 -0.251703 0
M  V30 622 O 60.7989 1.66615 -0.508433 0
M  V30 623 C 57.9309 3.22596 -1.10201 0
M  V30 624 H 59.1239 1.89417 -2.3251 0
M  V30 625 H 56.6769 0.95783 -1.23512 0
M  V30 626 H 57.4119 3.24025 -0.133504 0
M  V30 627 H 57.1969 3.43122 -1.89762 0
M  V30 628 H 58.6869 4.02673 -1.10654 0
M  V30 629 N 59.124 1.23083 0.984299 0
M  V30 630 C 60.37 1.06214 1.72761 0
M  V30 631 C 60.703 -0.400584 1.90024 0
M  V30 632 O 59.978 -1.29672 1.44967 0
M  V30 633 C 60.261 1.78375 3.12817 0
M  V30 634 C 60.114 3.32296 3.03149 0
M  V30 635 C 61.433 1.54309 4.12161 0
M  V30 636 H 58.552 0.387251 0.627061 0
M  V30 637 H 61.194 1.51536 1.14616 0
M  V30 638 H 59.344 1.39848 3.62457 0
M  V30 639 H 61.016 3.8032 2.61064 0
M  V30 640 H 59.259 3.6153 2.39747 0
M  V30 641 H 59.93 3.77972 4.02295 0
M  V30 642 H 62.406 1.87791 3.71314 0
M  V30 643 H 61.282 2.07281 5.08258 0
M  V30 644 H 61.543 0.477572 4.39513 0
M  V30 645 N 60.6021 -1.18246 1.0419 0
M  V30 646 C 62.0181 -1.40269 0.761366 0
M  V30 647 C 62.2181 -1.90777 -0.648578 0
M  V30 648 O 61.2741 -2.0929 -1.41258 0
M  V30 649 C 62.5871 -2.40237 1.8085 0
M  V30 650 C 64.1351 -2.53961 1.82955 0
M  V30 651 C 64.6101 -3.57194 2.86664 0
M  V30 652 N 66.1011 -3.64702 2.85563 0
M  V30 653 C 66.8361 -4.44309 3.6246 0
M  V30 654 N 66.3321 -5.27514 4.49111 0
M  V30 655 N 68.1251 -4.39084 3.50944 0
M  V30 656 H 60.2761 -0.837882 1.95175 0
M  V30 657 H 62.5391 -0.430608 0.84456 0
M  V30 658 H 62.2451 -2.10176 2.81991 0
M  V30 659 H 62.1191 -3.39601 1.64168 0
M  V30 660 H 64.5061 -2.83338 0.824855 0
M  V30 661 H 64.5871 -1.54706 2.03715 0
M  V30 662 H 64.2311 -3.28558 3.87314 0
M  V30 663 H 64.1611 -4.5613 2.6316 0
M  V30 664 H 66.6521 -3.05289 2.22727 0
M  V30 665 H 66.9651 -5.85411 5.04493 0
M  V30 666 H 65.3101 -5.2693 4.53178 0
M  V30 667 H 68.5011 -3.7313 2.82651 0
M  V30 668 H 68.6741 -5.00883 4.11121 0
M  V30 669 N 62.0802 -0.821533 -1.34494 0
M  V30 670 C 63.4962 -0.507117 -1.51329 0
M  V30 671 C 63.6962 0.968964 -1.76673 0
M  V30 672 O 62.7522 1.75348 -1.81685 0
M  V30 673 C 64.0652 -1.36544 -2.67911 0
M  V30 674 C 65.6132 -1.36242 -2.81793 0
M  V30 675 C 66.0882 -2.2052 -4.01416 0
M  V30 676 N 67.5792 -2.18136 -4.08621 0
M  V30 677 C 68.3142 -2.80095 -5.00334 0
M  V30 678 N 67.8102 -3.51039 -5.9728 0
M  V30 679 N 69.6032 -2.69656 -4.93196 0
M  V30 680 H 61.7542 -1.77729 -1.16302 0
M  V30 681 H 64.0172 -0.757291 -0.570276 0
M  V30 682 H 63.7232 -2.41361 -2.55808 0
M  V30 683 H 63.5972 -1.02917 -3.62888 0
M  V30 684 H 65.9842 -0.322041 -2.93338 0
M  V30 685 H 66.0652 -1.73866 -1.87628 0
M  V30 686 H 65.7092 -3.24607 -3.90631 0
M  V30 687 H 65.6392 -1.80247 -4.94791 0
M  V30 688 H 68.1302 -1.6653 -3.39229 0
M  V30 689 H 68.4432 -3.95565 -6.63889 0
M  V30 690 H 66.7882 -3.55145 -5.97409 0
M  V30 691 H 69.9792 -2.13808 -4.16418 0
M  V30 692 H 70.1522 -3.1823 -5.64476 0
M  V30 693 N 63.5583 1.46682 -0.576371 0
M  V30 694 C 64.7983 2.04306 -0.0621356 0
M  V30 695 C 65.1623 1.4389 1.2712 0
M  V30 696 O 66.3633 1.92675 1.87429 0
M  V30 697 C 64.6343 3.57399 0.00927922 0
M  V30 698 S 66.1933 4.36309 0.466859 0
M  V30 699 H 63.0113 0.710167 -0.0344016 0
M  V30 700 H 65.6133 1.79807 -0.767437 0
M  V30 701 H 64.3173 3.98889 -0.965178 0
M  V30 702 H 63.8483 3.86424 0.737547 0
M  V30 703 H 65.8633 4.6533 1.72287 0
M  V30 704 N 65.0364 0.313813 1.54444 0
M  V30 705 C 66.2764 -0.292389 2.02298 0
M  V30 706 C 66.6404 -1.50105 1.19719 0
M  V30 707 O 67.8414 -2.17947 1.5733 0
M  V30 708 C 66.1124 -0.627682 3.51845 0
M  V30 709 S 67.6714 -1.21493 4.21646 0
M  V30 710 H 64.4894 -0.0890247 0.705405 0
M  V30 711 H 67.0914 0.444668 1.90376 0
M  V30 712 H 65.7954 0.260265 4.09574 0
M  V30 713 H 65.3264 -1.39519 3.67829 0
M  V30 714 H 67.3414 -2.5022 4.28491 0
M  V30 715 N 66.5145 -1.57545 0.0417849 0
M  V30 716 C 67.7445 -1.96339 -0.642995 0
M  V30 717 C 68.1525 -0.917536 -1.65463 0
M  V30 718 O 67.4955 0.107747 -1.83384 0
M  V30 719 C 67.5575 -3.31333 -1.39494 0
M  V30 720 C 67.2215 -4.53796 -0.540204 0
M  V30 721 C 68.2185 -5.19553 0.189806 0
M  V30 722 C 65.9035 -5.0006 -0.473886 0
M  V30 723 C 67.8975 -6.29904 0.974674 0
M  V30 724 C 65.5845 -6.10289 0.314677 0
M  V30 725 C 66.5825 -6.75072 1.03765 0
M  V30 726 O 66.2705 -7.83183 1.81327 0
M  V30 727 H 66.0025 -0.651241 -0.181277 0
M  V30 728 H 68.5565 -2.05148 0.101665 0
M  V30 729 H 66.7865 -3.19052 -2.18502 0
M  V30 730 H 68.4755 -3.54942 -1.96904 0
M  V30 731 H 69.2415 -4.84774 0.147981 0
M  V30 732 H 65.1205 -4.49433 -1.0262 0
M  V30 733 H 68.6645 -6.80401 1.5395 0
M  V30 734 H 64.5615 -6.44506 0.358174 0
M  V30 735 H 65.3295 -7.99913 1.73438 0
M  V30 736 N 67.9926 0.231505 -1.5589 0
M  V30 737 C 69.4086 0.580748 -1.48659 0
M  V30 738 C 69.6086 1.87617 -0.73498 0
M  V30 739 O 68.6646 2.51046 -0.270586 0
M  V30 740 C 69.9776 0.669202 -2.93159 0
M  V30 741 C 71.5256 0.760499 -3.03621 0
M  V30 742 C 72.0006 0.880383 -4.49459 0
M  V30 743 N 73.4916 0.944861 -4.53461 0
M  V30 744 C 74.2266 1.05716 -5.63571 0
M  V30 745 N 73.7226 1.13403 -6.83456 0
M  V30 746 N 75.5156 1.09152 -5.514 0
M  V30 747 H 67.6666 -0.618695 -2.03189 0
M  V30 748 H 69.9296 -0.215728 -0.923128 0
M  V30 749 H 69.6356 -0.212904 -3.51055 0
M  V30 750 H 69.5096 1.5361 -3.44505 0
M  V30 751 H 71.8966 1.63305 -2.45796 0
M  V30 752 H 71.9776 -0.131864 -2.5546 0
M  V30 753 H 71.6216 0.0123284 -5.07899 0
M  V30 754 H 71.5516 1.78802 -4.95316 0
M  V30 755 H 74.0426 0.896176 -3.6712 0
M  V30 756 H 74.3556 1.21921 -7.63122 0
M  V30 757 H 72.7006 1.10333 -6.86186 0
M  V30 758 H 75.8916 1.02805 -4.56671 0
M  V30 759 H 76.0646 1.17558 -6.37247 0
M  V30 760 N 69.4707 1.49531 0.497807 0
M  V30 761 C 70.7107 1.60799 1.26187 0
M  V30 762 C 71.0747 0.289627 1.89803 0
M  V30 763 O 72.2757 0.277512 2.67364 0
M  V30 764 C 70.5467 2.73729 2.29798 0
M  V30 765 S 72.1057 3.04968 3.155 0
M  V30 766 H 68.9237 0.567145 0.428798 0
M  V30 767 H 71.5257 1.87204 0.563477 0
M  V30 768 H 70.2297 3.68036 1.81597 0
M  V30 769 H 69.7607 2.49328 3.04301 0
M  V30 770 H 71.7757 2.46735 4.30507 0
M  V30 771 N 70.9488 -0.749086 1.3866 0
M  V30 772 C 72.3598 -1.32664 1.31366 0
M  V30 773 C 72.7108 -1.96179 -0.028484 0
M  V30 774 O 71.8358 -1.9537 -0.93057 0
M  V30 775 C 72.4308 -2.41219 2.37905 0
M  V30 776 C 70.9898 -2.94684 2.34176 0
M  V30 777 C 70.1368 -1.68108 2.20533 0
M  V30 778 H 73.0878 -0.547628 1.48952 0
M  V30 779 H 73.1088 -3.21268 2.0388 0
M  V30 780 H 72.6208 -1.94962 3.35576 0
M  V30 781 H 70.7218 -3.45258 1.401 0
M  V30 782 H 70.8348 -3.48757 3.2849 0
M  V30 783 H 69.1988 -1.91907 1.67463 0
M  V30 784 H 69.9818 -1.23923 3.20153 0
M  V30 785 N 72.4269 -1.23603 -0.977757 0
M  V30 786 C 73.3599 -0.962772 -2.06896 0
M  V30 787 C 74.3379 0.0998743 -1.62293 0
M  V30 788 O 75.5219 -0.0349421 -1.88468 0
M  V30 789 C 72.6489 -0.45095 -3.35685 0
M  V30 790 C 71.6949 -1.50061 -3.99229 0
M  V30 791 S 72.5279 -3.07884 -4.38142 0
M  V30 792 C 73.6839 -2.58378 -5.7008 0
M  V30 793 H 73.9169 -1.88677 -2.29757 0
M  V30 794 H 71.4499 -1.06876 -1.11431 0
M  V30 795 H 73.4079 -0.162261 -4.10179 0
M  V30 796 H 72.0689 0.452179 -3.10828 0
M  V30 797 H 71.2619 -1.09269 -4.92013 0
M  V30 798 H 70.8639 -1.73878 -3.31123 0
M  V30 799 H 73.1559 -2.00563 -6.47133 0
M  V30 800 H 74.0989 -3.49711 -6.15717 0
M  V30 801 H 74.5069 -1.99143 -5.28207 0
M  V30 802 N 73.905 1.17692 -1.04816 0
M  V30 803 C 75.153 1.87488 -0.754497 0
M  V30 804 C 75.474 1.81205 0.720407 0
M  V30 805 O 74.744 1.23544 1.52032 0
M  V30 806 H 73.324 0.694101 -0.276102 0
M  V30 807 H 75.986 1.42793 -1.32651 0
M  V30 808 H 75.082 2.93328 -1.06606 0
M  V30 809 N 75.3831 0.828654 1.34056 0
M  V30 810 C 76.3131 0.269443 2.3194 0
M  V30 811 C 77.2941 -0.617247 1.58506 0
M  V30 812 O 78.4791 -0.542931 1.86456 0
M  V30 813 C 75.6091 -0.564793 3.42677 0
M  V30 814 C 74.5631 0.225241 4.27407 0
M  V30 815 C 73.8891 -0.7321 5.29664 0
M  V30 816 C 75.1891 1.43663 5.02154 0
M  V30 817 H 76.8831 1.08728 2.7896 0
M  V30 818 H 74.4291 0.524283 1.34117 0
M  V30 819 H 76.3821 -0.966233 4.10173 0
M  V30 820 H 75.1061 -1.41574 2.9432 0
M  V30 821 H 73.7651 0.608117 3.61521 0
M  V30 822 H 73.4131 -1.57916 4.77568 0
M  V30 823 H 73.1131 -0.20767 5.87233 0
M  V30 824 H 74.6371 -1.13128 6.00029 0
M  V30 825 H 76.0511 1.1089 5.62473 0
M  V30 826 H 74.4481 1.89711 5.69324 0
M  V30 827 H 75.5181 2.21181 4.31517 0
M  V30 828 N 76.8612 -1.46375 0.584142 0
M  V30 829 C 78.1082 -2.02378 0.0702675 0
M  V30 830 C 78.4362 -1.45545 -1.29023 0
M  V30 831 O 77.6912 -0.610967 -1.85918 0
M  V30 832 C 77.9902 -3.57373 -0.0439342 0
M  V30 833 C 77.6562 -4.33252 1.24915 0
M  V30 834 C 76.3182 -4.53701 1.60341 0
M  V30 835 C 78.6702 -4.7681 2.1048 0
M  V30 836 C 75.9982 -5.1496 2.81128 0
M  V30 837 C 78.3502 -5.39404 3.30494 0
M  V30 838 C 77.0142 -5.5808 3.66201 0
M  V30 839 H 76.2842 -0.740554 0.0257127 0
M  V30 840 H 78.9312 -1.75727 0.761065 0
M  V30 841 H 77.2362 -3.83169 -0.817869 0
M  V30 842 H 78.9332 -3.98384 -0.457318 0
M  V30 843 H 75.5232 -4.17633 0.963364 0
M  V30 844 H 79.7072 -4.60766 1.84414 0
M  V30 845 H 74.9632 -5.27611 3.08928 0
M  V30 846 H 79.1372 -5.72114 3.97063 0
M  V30 847 H 76.7642 -6.05318 4.59885 0
M  V30 848 N 78.3393 -0.321999 -1.54275 0
M  V30 849 C 79.7503 0.166384 -1.85957 0
M  V30 850 C 80.1013 1.51747 -1.24367 0
M  V30 851 O 79.2263 2.09317 -0.549124 0
M  V30 852 C 79.8213 0.308681 -3.37391 0
M  V30 853 C 78.3803 0.741286 -3.69028 0
M  V30 854 C 77.5273 -0.137937 -2.76957 0
M  V30 855 H 80.4783 -0.542335 -1.49146 0
M  V30 856 H 80.4993 1.13984 -3.63026 0
M  V30 857 H 80.0113 -0.674809 -3.82188 0
M  V30 858 H 78.1123 1.73458 -3.29762 0
M  V30 859 H 78.2253 0.546118 -4.75977 0
M  V30 860 H 76.5893 0.386251 -2.51754 0
M  V30 861 H 77.3723 -1.11816 -3.2458 0
M  V30 862 N 79.8174 1.5752 -0.0501392 0
M  V30 863 C 81.0454 1.96963 0.633492 0
M  V30 864 C 81.4604 0.927631 1.6444 0
M  V30 865 O 80.8174 -0.0882665 1.82286 0
M  V30 866 C 80.8684 3.36487 1.32132 0
M  V30 867 O 80.5894 4.36693 0.350894 0
M  V30 868 C 82.0904 3.90682 2.09481 0
M  V30 869 H 79.3104 0.648244 0.173266 0
M  V30 870 H 81.8544 2.0417 -0.116134 0
M  V30 871 H 80.0094 3.30434 2.02218 0
M  V30 872 H 80.4234 5.17702 0.841735 0
M  V30 873 H 81.8974 4.90591 2.5303 0
M  V30 874 H 82.3744 3.26053 2.94255 0
M  V30 875 H 82.9804 4.00069 1.44307 0
M  V30 876 N 81.2955 -0.223234 1.56011 0
M  V30 877 C 82.2275 -1.30006 1.88762 0
M  V30 878 C 83.2405 -1.43129 0.775746 0
M  V30 879 O 84.4295 -1.44057 1.05403 0
M  V30 880 C 81.5295 -2.67589 2.07965 0
M  V30 881 C 80.7025 -2.76434 3.38973 0
M  V30 882 C 79.7615 -3.95019 3.47629 0
M  V30 883 O 78.7875 -3.83436 4.20672 0
M  V30 884 N 79.9895 -5.09249 2.78649 0
M  V30 885 H 82.7545 -1.02238 2.81722 0
M  V30 886 H 80.3155 -0.413278 1.56536 0
M  V30 887 H 82.3075 -3.45297 2.11073 0
M  V30 888 H 80.8775 -2.87964 1.21638 0
M  V30 889 H 80.0975 -1.85216 3.47978 0
M  V30 890 H 81.3855 -2.79313 4.25278 0
M  V30 891 H 80.7835 -5.21556 2.19081 0
M  V30 892 H 79.3405 -5.85007 2.8742 0
M  V30 893 N 82.7736 -1.49793 -0.48987 0
M  V30 894 C 83.7056 -1.63413 -1.60713 0
M  V30 895 C 84.7186 -0.516329 -1.54395 0
M  V30 896 O 85.9076 -0.788812 -1.60125 0
M  V30 897 C 83.0076 -1.58516 -2.99543 0
M  V30 898 C 82.1806 -2.86016 -3.30928 0
M  V30 899 C 81.2396 -2.74018 -4.49222 0
M  V30 900 O 80.2656 -3.47964 -4.50455 0
M  V30 901 N 81.4676 -1.86309 -5.4979 0
M  V30 902 H 84.2326 -2.59777 -1.49452 0
M  V30 903 H 81.7936 -1.47022 -0.677955 0
M  V30 904 H 83.7856 -1.48128 -3.76617 0
M  V30 905 H 82.3556 -0.69965 -3.0467 0
M  V30 906 H 81.5756 -3.10672 -2.42645 0
M  V30 907 H 82.8636 -3.70521 -3.487 0
M  V30 908 H 82.2616 -1.2551 -5.51601 0
M  V30 909 H 80.8186 -1.81837 -6.25922 0
M  V30 910 N 84.2517 0.741722 -1.39055 0
M  V30 911 C 85.4917 1.51385 -1.37338 0
M  V30 912 C 85.8557 1.91972 0.0330513 0
M  V30 913 O 87.0567 2.68229 0.175174 0
M  V30 914 C 85.3277 2.72481 -2.31276 0
M  V30 915 S 86.8867 3.62211 -2.47687 0
M  V30 916 H 83.7047 0.517906 -0.487129 0
M  V30 917 H 86.3067 0.86969 -1.7509 0
M  V30 918 H 85.0107 2.40793 -3.32336 0
M  V30 919 H 84.5417 3.41832 -1.94716 0
M  V30 920 H 86.5567 4.65812 -1.70978 0
M  V30 921 N 85.7298 1.2412 0.971189 0
M  V30 922 C 87.1408 1.07236 1.52831 0
M  V30 923 C 87.4918 -0.357352 1.92918 0
M  V30 924 O 86.6168 -1.24528 1.76979 0
M  V30 925 C 87.2118 1.94043 2.77728 0
M  V30 926 C 85.7708 1.81394 3.29808 0
M  V30 927 C 84.9178 1.89189 2.02738 0
M  V30 928 H 87.8688 1.37648 0.789864 0
M  V30 929 H 87.8898 1.47066 3.5093 0
M  V30 930 H 87.4018 2.98093 2.4852 0
M  V30 931 H 85.5028 0.801634 3.63874 0
M  V30 932 H 85.6158 2.65294 3.98944 0
M  V30 933 H 83.9798 1.32877 2.17292 0
M  V30 934 H 84.7628 2.94812 1.759 0
M  V30 935 N 87.2079 -1.17134 1.05439 0
M  V30 936 C 88.1399 -2.2078 0.615539 0
M  V30 937 C 89.1529 -1.59584 -0.322001 0
M  V30 938 O 90.3419 -1.78133 -0.114344 0
M  V30 939 C 87.4419 -3.38691 -0.118938 0
M  V30 940 C 86.6149 -4.29454 0.829924 0
M  V30 941 C 85.6739 -5.26024 0.136258 0
M  V30 942 O 84.6999 -5.63952 0.77115 0
M  V30 943 N 85.9019 -5.69487 -1.1254 0
M  V30 944 H 88.6669 -2.59052 1.50705 0
M  V30 945 H 86.2279 -1.32058 0.936603 0
M  V30 946 H 88.2199 -4.00329 -0.593179 0
M  V30 947 H 86.7899 -2.98996 -0.91215 0
M  V30 948 H 86.0099 -3.65211 1.48373 0
M  V30 949 H 87.2979 -4.86984 1.47392 0
M  V30 950 H 86.6959 -5.4075 -1.6615 0
M  V30 951 H 85.2529 -6.33257 -1.54366 0
M  V30 952 N 88.686 -0.835752 -1.33615 0
M  V30 953 C 90.102 -0.523139 -1.50783 0
M  V30 954 C 90.302 0.950171 -1.77691 0
M  V30 955 O 89.358 1.73411 -1.83534 0
M  V30 956 C 90.671 -1.39378 -2.66448 0
M  V30 957 C 92.219 -1.39223 -2.80332 0
M  V30 958 C 92.694 -2.24765 -3.99055 0
M  V30 959 N 94.185 -2.22458 -4.06284 0
M  V30 960 C 94.92 -2.85386 -4.97336 0
M  V30 961 N 94.416 -3.57354 -5.93523 0
M  V30 962 N 96.209 -2.74872 -4.90308 0
M  V30 963 H 88.36 -1.78952 -1.14411 0
M  V30 964 H 90.623 -0.763297 -0.562212 0
M  V30 965 H 90.329 -2.44061 -2.53234 0
M  V30 966 H 90.203 -1.0676 -3.61776 0
M  V30 967 H 92.59 -0.353136 -2.92979 0
M  V30 968 H 92.671 -1.75846 -1.85773 0
M  V30 969 H 92.315 -3.28732 -3.87167 0
M  V30 970 H 92.245 -1.85485 -4.92852 0
M  V30 971 H 94.736 -1.70119 -3.37443 0
M  V30 972 H 95.049 -4.02584 -6.59656 0
M  V30 973 H 93.394 -3.61461 -5.93608 0
M  V30 974 H 96.585 -2.18213 -4.14126 0
M  V30 975 H 96.758 -3.24199 -5.61069 0
M  V30 976 N 90.1641 1.46063 -0.591896 0
M  V30 977 C 91.5751 1.85944 -0.167822 0
M  V30 978 C 91.9261 1.49429 1.27143 0
M  V30 979 O 91.0511 0.913515 1.96173 0
M  V30 980 C 91.6461 3.37489 -0.297794 0
M  V30 981 C 90.2051 3.76332 0.0714732 0
M  V30 982 C 89.3521 2.7006 -0.629509 0
M  V30 983 H 92.3031 1.37087 -0.799555 0
M  V30 984 H 92.3241 3.77532 0.474349 0
M  V30 985 H 91.8361 3.64034 -1.3454 0
M  V30 986 H 89.9371 3.55405 1.11886 0
M  V30 987 H 90.0501 4.78088 -0.311245 0
M  V30 988 H 88.4141 2.54607 -0.0687867 0
M  V30 989 H 89.1971 2.99444 -1.67894 0
M  V30 990 N 91.6422 0.330177 1.54103 0
M  V30 991 C 92.8702 -0.272179 2.05102 0
M  V30 992 C 93.2852 -1.45267 1.20595 0
M  V30 993 O 92.6422 -1.8094 0.238144 0
M  V30 994 C 92.6932 -0.70023 3.54653 0
M  V30 995 O 92.4142 0.433301 4.35952 0
M  V30 996 C 93.9152 -1.3647 4.21771 0
M  V30 997 H 91.1352 -0.0549159 0.668749 0
M  V30 998 H 93.6792 0.478285 1.98828 0
M  V30 999 H 91.8342 -1.40066 3.61193 0
M  V30 1000 H 92.2482 0.0947539 5.24414 0
M  V30 1001 H 93.7222 -1.61509 5.27843 0
M  V30 1002 H 94.1992 -2.31409 3.73292 0
M  V30 1003 H 94.8052 -0.706675 4.19388 0
M  V30 1004 N 93.1203 -1.57491 0.0584922 0
M  V30 1005 C 94.3973 -1.84346 -0.653918 0
M  V30 1006 C 94.7773 -0.948355 -1.88599 0
M  V30 1007 O 94.1253 -0.0112403 -2.28497 0
M  V30 1008 C 94.3353 -3.34239 -1.00425 0
M  V30 1009 C 95.6833 -4.01431 -1.38342 0
M  V30 1010 O 96.7073 -3.38907 -1.09637 0
M  V30 1011 O 95.5663 -5.11683 -1.91943 0
M  V30 1012 H 92.6603 -0.761112 -0.323478 0
M  V30 1013 H 95.2063 -1.6947 0.0884125 0
M  V30 1014 H 93.9783 -3.91089 -0.128625 0
M  V30 1015 H 93.6013 -3.54329 -1.80378 0
M  V30 1016 N 94.5984 0.214957 -1.56127 0
M  V30 1017 C 95.8384 0.945364 -1.81224 0
M  V30 1018 C 96.2024 1.81265 -0.633005 0
M  V30 1019 O 97.4034 2.57731 -0.763423 0
M  V30 1020 C 95.6744 1.75665 -3.1125 0
M  V30 1021 S 97.2334 2.54179 -3.57685 0
M  V30 1022 H 94.0514 0.317443 -0.6362 0
M  V30 1023 H 96.6534 0.210381 -1.94365 0
M  V30 1024 H 95.3574 1.10977 -3.9511 0
M  V30 1025 H 94.8884 2.53381 -3.00934 0
M  V30 1026 H 96.9034 3.7792 -3.21545 0
M  V30 1027 N 96.0765 1.50051 0.48192 0
M  V30 1028 C 97.4925 1.37237 0.814756 0
M  V30 1029 C 97.6925 0.420109 1.97072 0
M  V30 1030 O 96.7485 -0.141246 2.52105 0
M  V30 1031 C 98.0615 2.78375 1.13701 0
M  V30 1032 C 99.6095 2.87213 1.2441 0
M  V30 1033 C 100.084 4.29161 1.59954 0
M  V30 1034 N 101.575 4.32061 1.66967 0
M  V30 1035 C 102.31 5.38879 1.95952 0
M  V30 1036 N 101.806 6.55918 2.23031 0
M  V30 1037 N 103.599 5.26312 1.97363 0
M  V30 1038 H 95.7505 2.10546 -0.28005 0
M  V30 1039 H 98.0135 0.945921 -0.0627454 0
M  V30 1040 H 97.7195 3.49845 0.360787 0
M  V30 1041 H 97.5935 3.14941 2.07586 0
M  V30 1042 H 99.9805 2.15969 2.01101 0
M  V30 1043 H 100.061 2.54204 0.285299 0
M  V30 1044 H 99.7055 5.00938 0.838067 0
M  V30 1045 H 99.6355 4.59648 2.56966 0
M  V30 1046 H 102.126 3.47661 1.48123 0
M  V30 1047 H 102.439 7.33139 2.44391 0
M  V30 1048 H 100.784 6.59112 2.20447 0
M  V30 1049 H 103.975 4.33876 1.75697 0
M  V30 1050 H 104.148 6.09649 2.19618 0
M  V30 1051 N 97.5546 -0.734337 1.39446 0
M  V30 1052 C 98.5016 -1.84835 1.38219 0
M  V30 1053 C 99.4716 -1.64331 0.24179 0
M  V30 1054 O 100.657 -1.85728 0.437002 0
M  V30 1055 C 97.7966 -3.22355 1.23212 0
M  V30 1056 C 96.9096 -3.5456 2.46801 0
M  V30 1057 C 96.0446 -4.81485 2.24377 0
M  V30 1058 C 95.0836 -5.06536 3.43639 0
M  V30 1059 N 94.2206 -6.24665 3.20528 0
M  V30 1060 H 99.0606 -1.85219 2.33448 0
M  V30 1061 H 96.5976 -0.905039 1.15963 0
M  V30 1062 H 98.5556 -4.0174 1.12522 0
M  V30 1063 H 97.1856 -3.21248 0.316121 0
M  V30 1064 H 96.2376 -2.69872 2.68092 0
M  V30 1065 H 97.5496 -3.6899 3.3563 0
M  V30 1066 H 96.7036 -5.68852 2.10933 0
M  V30 1067 H 95.4426 -4.6923 1.32944 0
M  V30 1068 H 94.4476 -4.17632 3.5758 0
M  V30 1069 H 95.6726 -5.20676 4.35974 0
M  V30 1070 H 93.6186 -6.13696 2.3176 0
M  V30 1071 H 93.5356 -6.39685 4.02913 0
M  V30 1072 H 94.8036 -7.14868 3.10779 0
M  V30 1073 N 99.0327 -1.24633 -0.964593 0
M  V30 1074 C 99.9647 -0.999302 -2.06268 0
M  V30 1075 C 100.978 0.0323226 -1.62768 0
M  V30 1076 O 102.167 -0.205079 -1.77318 0
M  V30 1077 C 99.2667 -0.486816 -3.35385 0
M  V30 1078 C 98.4397 -1.5823 -4.07777 0
M  V30 1079 C 97.4987 -1.07191 -5.15166 0
M  V30 1080 O 96.5247 -1.76426 -5.41168 0
M  V30 1081 N 97.7267 0.0920373 -5.80427 0
M  V30 1082 H 100.492 -1.94477 -2.28033 0
M  V30 1083 H 98.0527 -1.15704 -1.13244 0
M  V30 1084 H 100.045 -0.130066 -4.04491 0
M  V30 1085 H 98.6147 0.364459 -3.10468 0
M  V30 1086 H 97.8347 -2.11109 -3.32906 0
M  V30 1087 H 99.1227 -2.31854 -4.52903 0
M  V30 1088 H 98.5207 0.670784 -5.61709 0
M  V30 1089 H 97.0777 0.389905 -6.50633 0
M  V30 1090 N 100.511 1.16574 -1.06058 0
M  V30 1091 C 101.751 1.88723 -0.78504 0
M  V30 1092 C 102.115 1.79706 0.676006 0
M  V30 1093 O 103.316 2.46757 1.06603 0
M  V30 1094 C 101.587 3.34338 -1.26304 0
M  V30 1095 S 103.146 4.24366 -1.1162 0
M  V30 1096 H 99.9638 0.651448 -0.284846 0
M  V30 1097 H 102.566 1.40732 -1.35701 0
M  V30 1098 H 101.27 3.38439 -2.32136 0
M  V30 1099 H 100.801 3.87378 -0.685719 0
M  V30 1100 H 102.816 4.96179 -0.0456539 0
M  V30 1101 N 101.989 0.842826 1.3317 0
M  V30 1102 C 102.899 0.281444 2.32906 0
M  V30 1103 C 103.915 -0.594587 1.63526 0
M  V30 1104 O 105.091 -0.49777 1.95152 0
M  V30 1105 C 102.156 -0.530929 3.42611 0
M  V30 1106 C 101.217 0.369843 4.27704 0
M  V30 1107 C 100.45 -0.403853 5.3217 0
M  V30 1108 O 100.673 -1.63513 5.46461 0
M  V30 1109 O 99.6069 0.224199 6.01482 0
M  V30 1110 H 103.433 1.10744 2.82789 0
M  V30 1111 H 101.018 0.60545 1.36582 0
M  V30 1112 H 102.9 -0.992437 4.09547 0
M  V30 1113 H 101.575 -1.33392 2.94938 0
M  V30 1114 H 100.482 0.879275 3.6362 0
M  V30 1115 H 101.815 1.13771 4.78871 0
M  V30 1116 N 103.467 -1.45747 0.599634 0
M  V30 1117 C 104.878 -1.85853 0.177681 0
M  V30 1118 C 105.229 -1.50102 -1.26348 0
M  V30 1119 O 104.354 -0.923905 -1.95686 0
M  V30 1120 C 104.949 -3.37326 0.315688 0
M  V30 1121 C 103.508 -3.76365 -0.0515144 0
M  V30 1122 C 102.655 -2.69722 0.643822 0
M  V30 1123 H 105.606 -1.36661 0.806814 0
M  V30 1124 H 105.627 -3.77778 -0.454321 0
M  V30 1125 H 105.139 -3.63315 1.36468 0
M  V30 1126 H 103.24 -3.55993 -1.09999 0
M  V30 1127 H 103.353 -4.77916 0.336594 0
M  V30 1128 H 101.717 -2.54567 0.0822881 0
M  V30 1129 H 102.5 -2.98549 1.6948 0
M  V30 1130 N 104.945 -0.338344 -1.53925 0
M  V30 1131 C 106.222 0.314774 -1.93051 0
M  V30 1132 C 106.602 1.68669 -1.26941 0
M  V30 1133 O 105.95 2.24636 -0.418445 0
M  V30 1134 C 106.16 0.392249 -3.46789 0
M  V30 1135 C 107.508 0.645554 -4.19664 0
M  V30 1136 O 108.532 0.474575 -3.53024 0
M  V30 1137 O 107.391 0.976408 -5.37707 0
M  V30 1138 H 104.485 0.182598 -0.80659 0
M  V30 1139 H 107.031 -0.389141 -1.65178 0
M  V30 1140 H 105.803 -0.570702 -3.87116 0
M  V30 1141 H 105.426 1.14316 -3.80812 0
M  V30 1142 N 106.423 1.57458 -0.0668435 0
M  V30 1143 C 107.653 1.97337 0.611677 0
M  V30 1144 C 108.061 0.943744 1.63982 0
M  V30 1145 O 107.404 -0.0785584 1.83532 0
M  V30 1146 C 107.466 3.33511 1.34205 0
M  V30 1147 C 107.13 4.54598 0.467941 0
M  V30 1148 C 108.127 5.19186 -0.272439 0
M  V30 1149 C 105.812 5.0075 0.39427 0
M  V30 1150 C 107.806 6.28274 -1.07476 0
M  V30 1151 C 105.493 6.09711 -0.411729 0
M  V30 1152 C 106.491 6.73335 -1.14492 0
M  V30 1153 O 106.179 7.80199 -1.93763 0
M  V30 1154 H 105.911 0.654042 0.170893 0
M  V30 1155 H 108.465 2.04961 -0.134289 0
M  V30 1156 H 106.695 3.22487 2.13398 0
M  V30 1157 H 108.384 3.58029 1.91233 0
M  V30 1158 H 109.15 4.84477 -0.225086 0
M  V30 1159 H 105.029 4.51009 0.954569 0
M  V30 1160 H 108.573 6.77866 -1.64755 0
M  V30 1161 H 104.47 6.43854 -0.460664 0
M  V30 1162 H 105.238 7.97053 -1.86142 0
M  V30 1163 N 107.901 -0.206675 1.56239 0
M  V30 1164 C 109.131 -0.943975 1.83773 0
M  V30 1165 C 109.539 -1.77841 0.645703 0
M  V30 1166 O 108.882 -1.79403 -0.395008 0
M  V30 1167 C 108.944 -1.899 3.05251 0
M  V30 1168 C 108.608 -1.24764 4.39639 0
M  V30 1169 C 109.605 -0.630216 5.16066 0
M  V30 1170 C 107.29 -1.25496 4.8637 0
M  V30 1171 C 109.284 -0.0287946 6.37393 0
M  V30 1172 C 106.971 -0.649698 6.07637 0
M  V30 1173 C 107.969 -0.0376845 6.8299 0
M  V30 1174 O 107.657 0.55812 8.0196 0
M  V30 1175 H 107.389 -0.281508 0.614597 0
M  V30 1176 H 109.943 -0.222458 2.04192 0
M  V30 1177 H 108.173 -2.6599 2.80689 0
M  V30 1178 H 109.862 -2.5031 3.1953 0
M  V30 1179 H 110.628 -0.616785 4.81062 0
M  V30 1180 H 106.507 -1.72072 4.27683 0
M  V30 1181 H 110.051 0.449518 6.9615 0
M  V30 1182 H 105.948 -0.660592 6.42111 0
M  V30 1183 H 106.716 0.453891 8.17241 0
M  V30 1184 N 109.379 -1.50304 -0.473955 0
M  V30 1185 C 110.309 -1.71886 -1.58042 0
M  V30 1186 C 111.29 -0.567799 -1.60344 0
M  V30 1187 O 112.475 -0.806623 -1.76656 0
M  V30 1188 C 109.605 -1.81036 -2.96384 0
M  V30 1189 C 108.559 -2.962 -3.08949 0
M  V30 1190 C 107.885 -2.9049 -4.48909 0
M  V30 1191 C 109.185 -4.36752 -2.86434 0
M  V30 1192 H 110.879 -2.64527 -1.40234 0
M  V30 1193 H 108.425 -1.27295 -0.673201 0
M  V30 1194 H 110.378 -1.94719 -3.73714 0
M  V30 1195 H 109.102 -0.850147 -3.15341 0
M  V30 1196 H 107.761 -2.82164 -2.3405 0
M  V30 1197 H 107.409 -1.92321 -4.64781 0
M  V30 1198 H 107.109 -3.67802 -4.58253 0
M  V30 1199 H 108.633 -3.06218 -5.28264 0
M  V30 1200 H 110.047 -4.5133 -3.53517 0
M  V30 1201 H 108.444 -5.15493 -3.07225 0
M  V30 1202 H 109.514 -4.49321 -1.82316 0
M  V30 1203 N 110.857 0.726932 -1.39834 0
M  V30 1204 C 112.134 1.47902 -1.28001 0
M  V30 1205 C 112.514 2.1083 0.106789 0
M  V30 1206 O 111.862 1.99242 1.11869 0
M  V30 1207 C 112.072 2.52392 -2.41038 0
M  V30 1208 C 113.42 3.18546 -2.80737 0
M  V30 1209 O 114.444 2.62708 -2.40547 0
M  V30 1210 O 113.303 4.19604 -3.50135 0
M  V30 1211 H 110.397 0.657163 -0.502062 0
M  V30 1212 H 112.943 0.760071 -1.51727 0
M  V30 1213 H 111.715 2.04329 -3.33715 0
M  V30 1214 H 111.338 3.31837 -2.19021 0
M  V30 1215 N 112.336 1.25143 0.95797 0
M  V30 1216 C 113.246 1.06968 2.08794 0
M  V30 1217 C 114.262 0.00773911 1.73998 0
M  V30 1218 O 115.438 0.207972 2.00323 0
M  V30 1219 C 112.503 0.68691 3.39827 0
M  V30 1220 C 111.564 1.82641 3.88511 0
M  V30 1221 C 110.797 1.46181 5.1329 0
M  V30 1222 O 111.02 0.355971 5.69288 0
M  V30 1223 O 109.954 2.29085 5.566 0
M  V30 1224 H 113.78 2.01723 2.27027 0
M  V30 1225 H 111.365 1.04051 1.07209 0
M  V30 1226 H 113.247 0.485417 4.18595 0
M  V30 1227 H 111.922 -0.231417 3.22872 0
M  V30 1228 H 110.829 2.08274 3.10762 0
M  V30 1229 H 112.162 2.72386 4.09959 0
M  V30 1230 N 113.814 -1.1601 1.06675 0
M  V30 1231 C 114.777 -2.18724 0.685001 0
M  V30 1232 C 115.777 -1.58496 -0.271246 0
M  V30 1233 O 116.967 -1.74119 -0.0531156 0
M  V30 1234 C 114.099 -3.40899 0.00853648 0
M  V30 1235 H 115.292 -2.54011 1.59431 0
M  V30 1236 H 112.845 -1.30352 0.862441 0
M  V30 1237 H 113.58 -3.11173 -0.913337 0
M  V30 1238 H 113.365 -3.8587 0.696204 0
M  V30 1239 H 114.855 -4.16886 -0.24414 0
M  V30 1240 N 115.292 -0.849877 -1.32721 0
M  V30 1241 C 116.569 -0.372405 -1.92022 0
M  V30 1242 C 116.949 1.1435 -1.77447 0
M  V30 1243 O 116.297 1.96296 -1.16962 0
M  V30 1244 C 116.507 -0.831482 -3.3895 0
M  V30 1245 C 117.855 -0.845882 -4.16089 0
M  V30 1246 O 118.879 -0.775806 -3.47649 0
M  V30 1247 O 117.738 -0.943753 -5.38289 0
M  V30 1248 H 114.832 -0.107667 -0.819961 0
M  V30 1249 H 117.378 -0.93646 -1.41522 0
M  V30 1250 H 116.15 -1.87448 -3.4348 0
M  V30 1251 H 115.773 -0.24461 -3.96847 0
M  V30 1252 N 116.77 1.45427 -0.607355 0
M  V30 1253 C 118.186 1.57283 -0.270985 0
M  V30 1254 C 118.386 1.59875 1.22647 0
M  V30 1255 O 117.442 1.52893 2.00948 0
M  V30 1256 C 118.755 2.85566 -0.941952 0
M  V30 1257 C 120.303 2.9924 -0.917849 0
M  V30 1258 C 120.778 4.30293 -1.56882 0
M  V30 1259 N 122.269 4.37051 -1.5343 0
M  V30 1260 C 123.004 5.37123 -2.00715 0
M  V30 1261 N 122.5 6.43734 -2.56084 0
M  V30 1262 N 124.293 5.28479 -1.91484 0
M  V30 1263 H 116.444 1.41988 -1.57966 0
M  V30 1264 H 118.707 0.67885 -0.661715 0
M  V30 1265 H 118.413 2.8955 -1.99633 0
M  V30 1266 H 118.287 3.74322 -0.465096 0
M  V30 1267 H 120.674 2.94822 0.127984 0
M  V30 1268 H 120.755 2.11895 -1.43297 0
M  V30 1269 H 120.399 4.35469 -2.61398 0
M  V30 1270 H 120.329 5.16454 -1.02873 0
M  V30 1271 H 122.82 3.60615 -1.12982 0
M  V30 1272 H 123.133 7.16341 -2.89958 0
M  V30 1273 H 121.478 6.44485 -2.60122 0
M  V30 1274 H 124.669 4.44098 -1.47967 0
M  V30 1275 H 124.842 6.0632 -2.28648 0
M  V30 1276 N 118.248 0.346503 1.53744 0
M  V30 1277 C 119.488 -0.249413 2.02873 0
M  V30 1278 C 119.852 -1.47532 1.22876 0
M  V30 1279 O 121.053 -2.1456 1.61918 0
M  V30 1280 C 119.324 -0.552909 3.53097 0
M  V30 1281 S 120.883 -1.12521 4.24128 0
M  V30 1282 H 117.701 -0.074042 0.707134 0
M  V30 1283 H 120.303 0.48495 1.8939 0
M  V30 1284 H 119.007 0.347083 4.0893 0
M  V30 1285 H 118.538 -1.31686 3.70705 0
M  V30 1286 H 120.553 -2.41075 4.33702 0
M  V30 1287 N 119.726 -1.57421 0.075193 0
M  V30 1288 C 120.954 -1.97946 -0.602076 0
M  V30 1289 C 121.369 -0.953674 -1.62943 0
M  V30 1290 O 120.726 0.0592551 -1.82404 0
M  V30 1291 C 120.777 -3.38546 -1.26762 0
M  V30 1292 O 120.498 -4.37195 -0.281376 0
M  V30 1293 C 121.999 -3.93966 -2.03239 0
M  V30 1294 H 119.219 -0.650918 -0.162931 0
M  V30 1295 H 121.763 -2.03959 0.148601 0
M  V30 1296 H 119.918 -3.33609 -1.96936 0
M  V30 1297 H 120.332 -5.18975 -0.759267 0
M  V30 1298 H 121.806 -4.94555 -2.45193 0
M  V30 1299 H 122.283 -3.30693 -2.8903 0
M  V30 1300 H 122.889 -4.02315 -1.37924 0
M  V30 1301 N 121.204 0.198386 -1.56346 0
M  V30 1302 C 122.167 1.22952 -1.93431 0
M  V30 1303 C 123.167 1.38611 -0.815092 0
M  V30 1304 O 124.357 1.36479 -1.08255 0
M  V30 1305 C 121.489 2.59946 -2.20546 0
M  V30 1306 H 122.682 0.912626 -2.85677 0
M  V30 1307 H 120.235 0.43977 -1.49986 0
M  V30 1308 H 120.97 2.96696 -1.30927 0
M  V30 1309 H 120.755 2.49953 -3.02102 0
M  V30 1310 H 122.245 3.3431 -2.50253 0
M  V30 1311 N 122.682 1.50554 0.465978 0
M  V30 1312 C 123.922 1.63439 1.22747 0
M  V30 1313 C 124.286 0.329822 1.89146 0
M  V30 1314 O 125.487 0.334161 2.66715 0
M  V30 1315 C 123.758 2.78542 2.2394 0
M  V30 1316 S 125.317 3.11591 3.0896 0
M  V30 1317 H 122.135 0.576113 0.416672 0
M  V30 1318 H 124.737 1.88357 0.523641 0
M  V30 1319 H 123.441 3.71805 1.7375 0
M  V30 1320 H 122.972 2.55726 2.98944 0
M  V30 1321 H 124.987 2.55811 4.25176 0
M  V30 1322 N 124.16 -0.719506 1.40217 0
M  V30 1323 C 125.406 -1.48152 1.38488 0
M  V30 1324 C 125.739 -1.94195 -0.0141867 0
M  V30 1325 O 125.014 -1.67884 -0.982096 0
M  V30 1326 C 125.297 -2.71035 2.37091 0
M  V30 1327 C 125.15 -2.30912 3.86005 0
M  V30 1328 C 126.469 -3.73182 2.33288 0
M  V30 1329 H 123.588 -0.537395 0.504357 0
M  V30 1330 H 126.23 -0.821472 1.71324 0
M  V30 1331 H 124.38 -3.27352 2.0922 0
M  V30 1332 H 126.052 -1.80107 4.24687 0
M  V30 1333 H 124.295 -1.62958 4.02029 0
M  V30 1334 H 124.966 -3.18978 4.50508 0
M  V30 1335 H 127.442 -3.26485 2.57966 0
M  V30 1336 H 126.318 -4.56806 3.04334 0
M  V30 1337 H 126.579 -4.21202 1.34317 0
M  V30 1338 N 125.638 -1.25649 -0.95132 0
M  V30 1339 C 126.866 -1.13343 -1.73092 0
M  V30 1340 C 127.281 0.312434 -1.86197 0
M  V30 1341 O 126.638 1.21465 -1.36207 0
M  V30 1342 C 126.689 -1.78602 -3.14299 0
M  V30 1343 O 126.41 -3.17537 -3.01831 0
M  V30 1344 C 127.911 -1.72119 -4.08522 0
M  V30 1345 H 125.131 -0.395181 -0.542285 0
M  V30 1346 H 127.675 -1.66076 -1.19328 0
M  V30 1347 H 125.83 -1.29832 -3.64996 0
M  V30 1348 H 126.244 -3.49676 -3.90931 0
M  V30 1349 H 127.718 -2.22435 -5.052 0
M  V30 1350 H 128.195 -0.685635 -4.33815 0
M  V30 1351 H 128.801 -2.20393 -3.63741 0
M  V30 1352 N 127.117 1.15442 -1.07289 0
M  V30 1353 C 128.357 1.8788 -0.805012 0
M  V30 1354 C 128.721 1.80413 0.656907 0
M  V30 1355 O 129.922 2.47874 1.0398 0
M  V30 1356 C 128.193 3.3298 -1.29843 0
M  V30 1357 S 129.752 4.23158 -1.16114 0
M  V30 1358 H 126.57 0.64839 -0.291739 0
M  V30 1359 H 129.172 1.39285 -1.37186 0
M  V30 1360 H 127.876 3.35958 -2.35712 0
M  V30 1361 H 127.407 3.86629 -0.726767 0
M  V30 1362 H 129.422 4.96103 -0.0982778 0
M  V30 1363 N 128.595 0.856903 1.32268 0
M  V30 1364 C 129.82 0.474569 2.01897 0
M  V30 1365 C 130.245 -0.921766 1.63967 0
M  V30 1366 O 129.603 -1.60589 0.84148 0
M  V30 1367 C 129.651 0.623799 3.55164 0
M  V30 1368 O 128.755 -0.342459 4.10976 0
M  V30 1369 H 128.096 0.190422 0.63611 0
M  V30 1370 H 130.626 1.15672 1.68764 0
M  V30 1371 H 130.636 0.512169 4.04773 0
M  V30 1372 H 129.311 1.64202 3.82113 0
M  V30 1373 H 127.888 -0.18688 3.72431 0
M  V30 1374 N 130.073 -1.45103 0.615059 0
M  V30 1375 C 131.489 -1.57137 0.279322 0
M  V30 1376 C 131.689 -1.60523 -1.21797 0
M  V30 1377 O 130.745 -1.53956 -2.00134 0
M  V30 1378 C 132.058 -2.85062 0.957083 0
M  V30 1379 C 133.606 -2.98749 0.933706 0
M  V30 1380 C 134.081 -4.29455 1.59162 0
M  V30 1381 N 135.572 -4.36231 1.55746 0
M  V30 1382 C 136.307 -5.36051 2.0356 0
M  V30 1383 N 135.803 -6.42367 2.59494 0
M  V30 1384 N 137.596 -5.27456 1.94284 0
M  V30 1385 H 129.747 -1.41148 1.58717 0
M  V30 1386 H 132.01 -0.675331 0.665306 0
M  V30 1387 H 131.716 -2.88488 2.01166 0
M  V30 1388 H 131.59 -3.7407 0.48494 0
M  V30 1389 H 133.977 -2.94886 -0.112347 0
M  V30 1390 H 134.058 -2.11132 1.44419 0
M  V30 1391 H 133.702 -4.34077 2.63704 0
M  V30 1392 H 133.632 -5.15901 1.0561 0
M  V30 1393 H 136.123 -3.60011 1.14893 0
M  V30 1394 H 136.436 -7.14793 2.93752 0
M  V30 1395 H 134.781 -6.43097 2.63537 0
M  V30 1396 H 137.972 -4.43308 1.5032 0
M  V30 1397 H 138.145 -6.05099 2.3186 0
M  V30 1398 N 131.551 -0.354651 -1.53558 0
M  V30 1399 C 132.828 0.294281 -1.93374 0
M  V30 1400 C 133.208 1.67313 -1.28723 0
M  V30 1401 O 132.556 2.24179 -0.442247 0
M  V30 1402 C 132.766 0.355445 -3.47185 0
M  V30 1403 C 134.114 0.601007 -4.20325 0
M  V30 1404 O 135.138 0.437106 -3.53508 0
M  V30 1405 O 133.997 0.919322 -5.38712 0
M  V30 1406 H 131.091 0.174033 -0.808481 0
M  V30 1407 H 133.637 -0.406638 -1.64756 0
M  V30 1408 H 132.409 -0.611729 -3.86489 0
M  V30 1409 H 132.032 1.1027 -3.82003 0
M  V30 1410 N 133.029 1.57378 -0.0835403 0
M  V30 1411 C 134.306 1.85363 0.624507 0
M  V30 1412 C 134.686 0.978239 1.87066 0
M  V30 1413 O 134.034 0.0475908 2.2845 0
M  V30 1414 C 134.244 3.35795 0.950947 0
M  V30 1415 C 135.592 4.03581 1.31939 0
M  V30 1416 O 136.616 3.40609 1.04232 0
M  V30 1417 O 135.475 5.14672 1.83779 0
M  V30 1418 H 132.569 0.766162 0.311329 0
M  V30 1419 H 135.115 1.69307 -0.115362 0
M  V30 1420 H 133.887 3.91244 0.0663899 0
M  V30 1421 H 133.51 3.57154 1.74719 0
M  V30 1422 N 134.507 -0.190092 1.56449 0
M  V30 1423 C 135.437 -1.23816 1.97969 0
M  V30 1424 C 136.418 -1.47201 0.852395 0
M  V30 1425 O 137.603 -1.58854 1.1171 0
M  V30 1426 C 134.733 -2.5813 2.3235 0
M  V30 1427 C 133.687 -2.49348 3.47864 0
M  V30 1428 C 133.013 -3.8798 3.67934 0
M  V30 1429 C 134.313 -2.01424 4.81898 0
M  V30 1430 H 136.007 -0.89311 2.85769 0
M  V30 1431 H 133.553 -0.428177 1.37487 0
M  V30 1432 H 135.506 -3.31637 2.59991 0
M  V30 1433 H 134.23 -2.94386 1.41438 0
M  V30 1434 H 132.889 -1.78297 3.20321 0
M  V30 1435 H 132.537 -4.21597 2.74344 0
M  V30 1436 H 132.237 -3.82978 4.45648 0
M  V30 1437 H 133.761 -4.63101 3.97957 0
M  V30 1438 H 135.175 -2.64693 5.08538 0
M  V30 1439 H 133.572 -2.07413 5.63116 0
M  V30 1440 H 134.642 -0.967677 4.75146 0
M  V30 1441 N 135.985 -1.50799 -0.457987 0
M  V30 1442 C 137.231 -1.62683 -1.21088 0
M  V30 1443 C 137.564 -0.332268 -1.91336 0
M  V30 1444 O 136.839 0.667043 -1.82704 0
M  V30 1445 C 137.122 -2.81615 -2.24422 0
M  V30 1446 C 136.975 -4.20989 -1.58392 0
M  V30 1447 C 138.294 -2.96085 -3.2561 0
M  V30 1448 H 135.413 -0.592087 -0.438864 0
M  V30 1449 H 138.055 -1.83225 -0.50286 0
M  V30 1450 H 136.205 -2.64231 -2.84806 0
M  V30 1451 H 137.877 -4.49994 -1.01504 0
M  V30 1452 H 136.12 -4.24641 -0.886704 0
M  V30 1453 H 136.791 -5.0016 -2.33547 0
M  V30 1454 H 139.267 -3.12042 -2.75262 0
M  V30 1455 H 138.143 -3.80902 -3.95228 0
M  V30 1456 H 138.404 -2.0726 -3.90507 0
M  V30 1457 N 137.463 0.71206 -1.40597 0
M  V30 1458 C 138.373 1.8562 -1.43466 0
M  V30 1459 C 139.389 1.70902 -0.326902 0
M  V30 1460 O 140.565 1.93105 -0.572043 0
M  V30 1461 C 137.63 3.21451 -1.29884 0
M  V30 1462 C 136.691 3.48398 -2.50833 0
M  V30 1463 C 135.924 4.77749 -2.3789 0
M  V30 1464 O 136.147 5.53089 -1.39459 0
M  V30 1465 O 135.081 5.05111 -3.27333 0
M  V30 1466 H 138.907 1.86155 -2.39958 0
M  V30 1467 H 136.492 0.86295 -1.21957 0
M  V30 1468 H 138.374 4.02579 -1.24531 0
M  V30 1469 H 137.049 3.21636 -0.364997 0
M  V30 1470 H 135.956 2.67265 -2.61763 0
M  V30 1471 H 137.289 3.53014 -3.4299 0
M  V30 1472 N 138.941 1.26152 0.944643 0
M  V30 1473 C 139.888 1.07408 2.04285 0
M  V30 1474 C 140.858 -0.0198413 1.66088 0
M  V30 1475 O 142.043 0.139264 1.90291 0
M  V30 1476 C 139.183 0.70945 3.37729 0
M  V30 1477 C 138.296 1.87926 3.88983 0
M  V30 1478 C 137.431 1.45807 5.10797 0
M  V30 1479 C 136.47 2.5964 5.54305 0
M  V30 1480 N 135.607 2.18226 6.67324 0
M  V30 1481 H 140.447 2.01389 2.1965 0
M  V30 1482 H 137.984 1.00275 1.07626 0
M  V30 1483 H 139.942 0.478948 4.14442 0
M  V30 1484 H 138.572 -0.193389 3.2222 0
M  V30 1485 H 137.624 2.22279 3.08701 0
M  V30 1486 H 138.936 2.73377 4.17213 0
M  V30 1487 H 138.09 1.18781 5.94959 0
M  V30 1488 H 136.829 0.574414 4.84305 0
M  V30 1489 H 135.834 2.87399 4.68702 0
M  V30 1490 H 137.059 3.48599 5.828 0
M  V30 1491 H 135.005 1.3229 6.42523 0
M  V30 1492 H 134.922 2.97221 6.95123 0
M  V30 1493 H 136.19 1.94403 7.54869 0
M  V30 1494 N 140.419 -1.14872 1.07899 0
M  V30 1495 C 141.647 -1.89661 0.82683 0
M  V30 1496 C 142.062 -1.78312 -0.620519 0
M  V30 1497 O 141.419 -1.13888 -1.42604 0
M  V30 1498 C 141.47 -3.39817 1.23316 0
M  V30 1499 O 141.191 -3.50845 2.62372 0
M  V30 1500 C 142.692 -4.31615 1.0111 0
M  V30 1501 H 139.912 -0.60092 0.298557 0
M  V30 1502 H 142.456 -1.4551 1.43691 0
M  V30 1503 H 140.611 -3.8161 0.667286 0
M  V30 1504 H 141.025 -4.44076 2.79101 0
M  V30 1505 H 142.499 -5.35367 1.34486 0
M  V30 1506 H 142.976 -4.39169 -0.0522168 0
M  V30 1507 H 143.582 -3.95572 1.56215 0
M  V30 1508 N 141.898 -0.863906 -1.31812 0
M  V30 1509 C 143.309 -0.52522 -1.7916 0
M  V30 1510 C 143.66 0.957518 -1.71248 0
M  V30 1511 O 142.785 1.74734 -1.27659 0
M  V30 1512 C 143.38 -0.9466 -3.25307 0
M  V30 1513 C 141.939 -0.659668 -3.70574 0
M  V30 1514 C 141.086 -1.14126 -2.52726 0
M  V30 1515 H 144.037 -1.05022 -1.1898 0
M  V30 1516 H 144.058 -0.266766 -3.79564 0
M  V30 1517 H 143.57 -2.02579 -3.31034 0
M  V30 1518 H 141.671 0.408416 -3.70355 0
M  V30 1519 H 141.784 -1.23245 -4.62977 0
M  V30 1520 H 140.148 -0.561216 -2.4844 0
M  V30 1521 H 140.931 -2.22775 -2.61201 0
M  V30 1522 N 143.376 1.44774 -0.622745 0
M  V30 1523 C 144.616 2.04004 -0.127102 0
M  V30 1524 C 144.98 1.47862 1.22478 0
M  V30 1525 O 146.181 1.98541 1.81204 0
M  V30 1526 C 144.452 3.57247 -0.104429 0
M  V30 1527 S 146.011 4.37574 0.327814 0
M  V30 1528 H 142.829 0.708713 -0.0569776 0
M  V30 1529 H 145.431 1.77275 -0.824253 0
M  V30 1530 H 144.135 3.95616 -1.09159 0
M  V30 1531 H 143.666 3.88575 0.614236 0
M  V30 1532 H 145.681 4.70575 1.57395 0
M  V30 1533 N 144.854 0.36279 1.53368 0
M  V30 1534 C 145.817 -0.472679 2.24273 0
M  V30 1535 C 146.817 -1.012 1.24961 0
M  V30 1536 O 148.007 -0.898194 1.49259 0
M  V30 1537 C 145.139 -1.66039 2.97731 0
M  V30 1538 H 146.332 0.14773 2.99536 0
M  V30 1539 H 143.885 0.114434 1.55881 0
M  V30 1540 H 144.62 -2.31896 2.26704 0
M  V30 1541 H 144.405 -1.28066 3.70596 0
M  V30 1542 H 145.895 -2.25252 3.51641 0
M  V30 1543 N 146.332 -1.57332 0.0918853 0
M  V30 1544 C 147.578 -1.95328 -0.567313 0
M  V30 1545 C 147.933 -0.972866 -1.65991 0
M  V30 1546 O 147.226 0.00166256 -1.916 0
M  V30 1547 C 147.42 -3.37689 -1.17051 0
M  V30 1548 C 147.249 -4.49489 -0.137875 0
M  V30 1549 C 146.019 -5.04498 0.284515 0
M  V30 1550 C 148.217 -5.10393 0.63271 0
M  V30 1551 N 146.199 -5.99853 1.30576 0
M  V30 1552 C 147.57 -6.01435 1.50587 0
M  V30 1553 C 149.625 -4.93143 0.68658 0
M  V30 1554 C 148.328 -6.77077 2.42815 0
M  V30 1555 C 150.354 -5.69445 1.59645 0
M  V30 1556 C 149.716 -6.60151 2.45725 0
M  V30 1557 H 145.815 -0.761467 -0.178023 0
M  V30 1558 H 148.399 -1.93924 0.173706 0
M  V30 1559 H 146.57 -3.39793 -1.88136 0
M  V30 1560 H 148.302 -3.62872 -1.79181 0
M  V30 1561 H 145.057 -4.73489 -0.102593 0
M  V30 1562 H 145.481 -6.52231 1.81449 0
M  V30 1563 H 150.123 -4.22785 0.035244 0
M  V30 1564 H 147.841 -7.46699 3.08975 0
M  V30 1565 H 151.427 -5.58112 1.64323 0
M  V30 1566 H 150.307 -7.18159 3.14987 0
M  V30 1567 N 147.81 0.181792 -1.56548 0
M  V30 1568 C 148.758 1.24461 -1.965 0
M  V30 1569 C 149.752 1.464 -0.852261 0
M  V30 1570 O 150.958 1.47103 -1.03733 0
M  V30 1571 H 147.333 0.418138 -0.625031 0
M  V30 1572 H 149.304 0.880714 -2.85107 0
M  V30 1573 C 148.053 2.57891 -2.33212 0
M  V30 1574 H 147.376 2.41829 -3.18369 0
M  V30 1575 H 148.816 3.3097 -2.65019 0
M  V30 1576 C 147.275 3.15871 -1.17163 0
M  V30 1577 O 147.805 3.9913 -0.453708 0
M  V30 1578 N 146.011 2.74808 -0.944936 0
M  V30 1579 H 145.558 2.07205 -1.53049 0
M  V30 1580 H 145.516 3.13939 -0.170286 0
M  V30 1581 N 149.288 1.51039 0.449983 0
M  V30 1582 C 150.513 1.6715 1.22783 0
M  V30 1583 C 150.938 0.363081 1.84563 0
M  V30 1584 O 150.296 -0.675433 1.68249 0
M  V30 1585 C 150.344 2.77985 2.29689 0
M  V30 1586 O 149.448 2.40707 3.34864 0
M  V30 1587 H 148.789 0.557746 0.360299 0
M  V30 1588 H 151.319 1.97535 0.533005 0
M  V30 1589 H 151.329 3.01693 2.74673 0
M  V30 1590 H 150.004 3.72935 1.84098 0
M  V30 1591 H 148.581 2.27523 2.95445 0
M  V30 1592 N 150.766 -0.704594 1.40972 0
M  V30 1593 C 151.991 -1.49858 1.43378 0
M  V30 1594 C 152.416 -1.88061 0.038184 0
M  V30 1595 O 151.774 -1.5402 -0.956425 0
M  V30 1596 C 151.822 -2.74333 2.34038 0
M  V30 1597 O 150.926 -3.7147 1.7912 0
M  V30 1598 H 150.267 -0.45139 0.486974 0
M  V30 1599 H 152.797 -0.866832 1.8533 0
M  V30 1600 H 152.807 -3.22741 2.49604 0
M  V30 1601 H 151.482 -2.45863 3.35446 0
M  V30 1602 H 150.059 -3.30363 1.72958 0
M  V30 1603 N 152.244 -1.26651 -0.937939 0
M  V30 1604 C 153.66 -1.03834 -1.21205 0
M  V30 1605 C 153.86 0.234502 -2.00131 0
M  V30 1606 O 152.916 0.942767 -2.3424 0
M  V30 1607 C 154.229 -2.27167 -1.97017 0
M  V30 1608 C 155.777 -2.32101 -2.09996 0
M  V30 1609 C 156.252 -3.55136 -2.8921 0
M  V30 1610 N 157.743 -3.55632 -2.96783 0
M  V30 1611 C 158.478 -4.475 -3.58512 0
M  V30 1612 N 157.974 -5.4966 -4.21717 0
M  V30 1613 N 159.767 -4.35145 -3.55816 0
M  V30 1614 H 151.918 -2.08398 -0.410391 0
M  V30 1615 H 154.181 -0.916031 -0.244114 0
M  V30 1616 H 153.887 -3.19765 -1.46434 0
M  V30 1617 H 153.761 -2.31672 -2.97671 0
M  V30 1618 H 156.148 -1.40015 -2.59769 0
M  V30 1619 H 156.229 -2.31605 -1.08594 0
M  V30 1620 H 155.873 -4.47553 -2.40123 0
M  V30 1621 H 155.803 -3.5288 -3.90875 0
M  V30 1622 H 158.294 -2.81743 -2.51852 0
M  V30 1623 H 158.607 -6.15943 -4.66727 0
M  V30 1624 H 156.952 -5.53514 -4.20294 0
M  V30 1625 H 160.143 -3.5455 -3.05634 0
M  V30 1626 H 160.316 -5.06934 -4.03636 0
M  V30 1627 N 153.722 1.14298 -1.08507 0
M  V30 1628 C 154.968 1.85633 -0.816581 0
M  V30 1629 C 155.301 1.82784 0.656021 0
M  V30 1630 O 154.576 1.25926 1.48233 0
M  V30 1631 C 154.859 3.34223 -1.34041 0
M  V30 1632 C 154.712 3.45639 -2.87843 0
M  V30 1633 C 156.031 4.29356 -0.9665 0
M  V30 1634 H 153.15 0.67402 -0.298104 0
M  V30 1635 H 155.792 1.34214 -1.34487 0
M  V30 1636 H 153.942 3.78144 -0.89104 0
M  V30 1637 H 155.614 3.10498 -3.41158 0
M  V30 1638 H 153.857 2.86817 -3.25451 0
M  V30 1639 H 154.528 4.50089 -3.19569 0
M  V30 1640 H 157.004 3.93457 -1.35391 0
M  V30 1641 H 155.88 5.3178 -1.3602 0
M  V30 1642 H 156.141 4.41919 0.126362 0
M  V30 1643 N 155.201 0.870884 1.31352 0
M  V30 1644 C 156.441 0.488783 1.9847 0
M  V30 1645 C 156.805 -0.941536 1.67329 0
M  V30 1646 O 158.006 -1.42903 2.27667 0
M  V30 1647 C 156.277 0.739688 3.49662 0
M  V30 1648 S 157.836 0.457582 4.36408 0
M  V30 1649 H 154.654 0.18242 0.6872 0
M  V30 1650 H 157.256 1.12711 1.59739 0
M  V30 1651 H 155.96 1.77944 3.69816 0
M  V30 1652 H 155.491 0.0883905 3.93301 0
M  V30 1653 H 157.506 -0.709752 4.91098 0
M  V30 1654 N 156.679 -1.44442 0.630414 0
M  V30 1655 C 157.589 -2.34476 -0.0761693 0
M  V30 1656 C 158.605 -1.52576 -0.836449 0
M  V30 1657 O 159.781 -1.85307 -0.788874 0
M  V30 1658 C 156.846 -3.30545 -1.04599 0
M  V30 1659 C 155.907 -4.28352 -0.28516 0
M  V30 1660 C 155.14 -5.19831 -1.20878 0
M  V30 1661 O 155.363 -5.15223 -2.44747 0
M  V30 1662 O 154.297 -5.97892 -0.693491 0
M  V30 1663 H 158.123 -2.96345 0.664324 0
M  V30 1664 H 155.708 -1.44203 0.39061 0
M  V30 1665 H 157.59 -3.89681 -1.60396 0
M  V30 1666 H 156.265 -2.7121 -1.76711 0
M  V30 1667 H 155.172 -3.72764 0.315837 0
M  V30 1668 H 156.505 -4.90605 0.395924 0
M  V30 1669 N 158.157 -0.370918 -1.53173 0
M  V30 1670 C 159.397 0.217106 -2.03244 0
M  V30 1671 C 159.761 1.45558 -1.25207 0
M  V30 1672 O 160.962 2.11957 -1.65311 0
M  V30 1673 C 159.233 0.496664 -3.53932 0
M  V30 1674 S 160.792 1.0576 -4.25864 0
M  V30 1675 H 157.61 0.0627827 -0.708223 0
M  V30 1676 H 160.212 -0.515019 -1.88594 0
M  V30 1677 H 158.916 -0.412096 -4.08326 0
M  V30 1678 H 158.447 1.25772 -3.72753 0
M  V30 1679 H 160.462 2.34145 -4.37482 0
M  V30 1680 N 159.635 1.57281 -0.100228 0
M  V30 1681 C 161.051 1.57527 0.256416 0
M  V30 1682 C 161.251 1.11173 1.68056 0
M  V30 1683 O 160.307 0.79053 2.39806 0
M  V30 1684 C 161.62 3.00673 0.0401747 0
M  V30 1685 C 163.168 3.12815 0.107528 0
M  V30 1686 C 163.643 4.57929 -0.0807834 0
M  V30 1687 N 165.134 4.63193 -0.0261207 0
M  V30 1688 C 165.869 5.73212 -0.146999 0
M  V30 1689 N 165.365 6.92047 -0.322999 0
M  V30 1690 N 167.158 5.62031 -0.0879044 0
M  V30 1691 H 159.309 1.85718 -1.03065 0
M  V30 1692 H 161.572 0.857446 -0.404339 0
M  V30 1693 H 161.278 3.38804 -0.943649 0
M  V30 1694 H 161.152 3.69042 0.780262 0
M  V30 1695 H 163.539 2.74554 1.08186 0
M  V30 1696 H 163.62 2.47028 -0.664134 0
M  V30 1697 H 163.264 4.96886 -1.05201 0
M  V30 1698 H 163.194 5.21783 0.710635 0
M  V30 1699 H 165.685 3.77748 0.107161 0
M  V30 1700 H 165.998 7.7173 -0.406608 0
M  V30 1701 H 164.343 6.94074 -0.358733 0
M  V30 1702 H 167.534 4.68075 0.048498 0
M  V30 1703 H 167.707 6.47734 -0.185557 0
M  V30 1704 N 161.113 -0.173488 1.56642 0
M  V30 1705 C 162.524 -0.736155 1.71574 0
M  V30 1706 C 162.875 -1.82888 0.710389 0
M  V30 1707 O 162 -2.16017 -0.1287 0
M  V30 1708 C 162.595 -1.34211 3.11083 0
M  V30 1709 C 161.154 -1.85162 3.27707 0
M  V30 1710 C 160.301 -0.729765 2.67525 0
M  V30 1711 H 163.252 0.0518786 1.58615 0
M  V30 1712 H 163.273 -2.21178 3.09613 0
M  V30 1713 H 162.785 -0.546579 3.84232 0
M  V30 1714 H 160.886 -2.67366 2.59512 0
M  V30 1715 H 160.999 -1.99855 4.35425 0
M  V30 1716 H 159.363 -1.14965 2.27278 0
M  V30 1717 H 160.146 0.0538806 3.43258 0
M  V30 1718 N 162.591 -1.51276 -0.441967 0
M  V30 1719 C 163.839 -1.63392 -1.18943 0
M  V30 1720 C 164.16 -0.350159 -1.9183 0
M  V30 1721 O 163.43 0.633784 -1.85364 0
M  V30 1722 H 162.01 -0.602164 -0.442049 0
M  V30 1723 H 164.672 -1.88186 -0.507165 0
M  V30 1724 H 163.768 -2.45934 -1.92154 0
M  V30 1725 N 164.069 0.697108 -1.41344 0
M  V30 1726 C 165.002 1.82134 -1.37486 0
M  V30 1727 C 165.98 1.60784 -0.242351 0
M  V30 1728 O 167.164 1.83553 -0.429012 0
M  V30 1729 C 164.291 3.18788 -1.14421 0
M  V30 1730 C 163.337 3.58932 -2.3037 0
M  V30 1731 S 164.17 3.63916 -3.92843 0
M  V30 1732 C 165.326 5.03298 -3.72078 0
M  V30 1733 H 165.559 1.85129 -2.32625 0
M  V30 1734 H 163.092 0.865671 -1.2785 0
M  V30 1735 H 165.05 3.97677 -1.018 0
M  V30 1736 H 163.711 3.13404 -0.20905 0
M  V30 1737 H 162.904 4.58202 -2.09922 0
M  V30 1738 H 162.506 2.87347 -2.39391 0
M  V30 1739 H 164.798 5.90753 -3.31688 0
M  V30 1740 H 165.741 5.28788 -4.70945 0
M  V30 1741 H 166.149 4.74764 -3.05384 0
M  V30 1742 N 165.547 1.27147 0.931209 0
M  V30 1743 C 166.794 1.13278 1.67852 0
M  V30 1744 C 167.122 -0.32204 1.91815 0
M  V30 1745 O 166.377 -1.25224 1.50391 0
M  V30 1746 C 166.676 1.8579 3.05314 0
M  V30 1747 C 166.342 3.35657 3.01073 0
M  V30 1748 C 165.004 3.76536 2.99623 0
M  V30 1749 C 167.356 4.31299 2.92627 0
M  V30 1750 C 164.684 5.11426 2.87506 0
M  V30 1751 C 167.036 5.66242 2.82051 0
M  V30 1752 C 165.7 6.06418 2.7895 0
M  V30 1753 H 164.97 0.414515 0.614214 0
M  V30 1754 H 167.617 1.57712 1.08624 0
M  V30 1755 H 165.922 1.33854 3.68226 0
M  V30 1756 H 167.619 1.72491 3.62005 0
M  V30 1757 H 164.209 3.03146 3.02986 0
M  V30 1758 H 168.393 4.00692 2.92848 0
M  V30 1759 H 163.649 5.41705 2.83489 0
M  V30 1760 H 167.823 6.40026 2.74481 0
M  V30 1761 H 165.45 7.10895 2.69318 0
M  V30 1762 N 167.025 -1.13721 1.09112 0
M  V30 1763 C 168.265 -1.86576 0.834801 0
M  V30 1764 C 168.629 -1.81435 -0.628122 0
M  V30 1765 O 169.83 -2.49497 -1.00024 0
M  V30 1766 C 168.101 -3.30872 1.35124 0
M  V30 1767 S 169.66 -4.21257 1.22832 0
M  V30 1768 H 166.478 -0.643666 0.302017 0
M  V30 1769 H 169.08 -1.37085 1.39385 0
M  V30 1770 H 167.784 -3.32166 2.41027 0
M  V30 1771 H 167.315 -3.85423 0.788185 0
M  V30 1772 H 169.33 -4.95884 0.177191 0
M  V30 1773 N 168.503 -0.877838 -1.30888 0
M  V30 1774 C 169.728 -0.506629 -2.01117 0
M  V30 1775 C 170.153 0.895564 -1.65412 0
M  V30 1776 O 169.511 1.5923 -0.866922 0
M  V30 1777 C 169.559 -0.680223 -3.54126 0
M  V30 1778 O 168.663 0.277033 -4.11468 0
M  V30 1779 H 168.004 -0.200518 -0.633 0
M  V30 1780 H 170.534 -1.18342 -1.66902 0
M  V30 1781 H 170.544 -0.5765 -4.03907 0
M  V30 1782 H 169.219 -1.70261 -3.79452 0
M  V30 1783 H 167.796 0.127606 -3.72682 0
M  V30 1784 N 169.982 1.44106 -0.638065 0
M  V30 1785 C 171.21 2.06336 -0.152615 0
M  V30 1786 C 171.625 1.47731 1.17563 0
M  V30 1787 O 170.982 0.602806 1.72257 0
M  V30 1788 C 171.033 3.61479 -0.0391491 0
M  V30 1789 O 170.754 4.17903 -1.31487 0
M  V30 1790 C 172.255 4.40757 0.474176 0
M  V30 1791 H 169.475 0.665862 -0.0828776 0
M  V30 1792 H 172.019 1.84862 -0.87443 0
M  V30 1793 H 170.174 3.82191 0.633142 0
M  V30 1794 H 170.588 5.11416 -1.16421 0
M  V30 1795 H 172.062 5.49707 0.502562 0
M  V30 1796 H 172.539 4.12697 1.50258 0
M  V30 1797 H 173.145 4.24979 -0.165102 0
M  V30 1798 N 171.46 0.379036 1.52974 0
M  V30 1799 C 172.685 -0.209353 2.06341 0
M  V30 1800 C 173.11 -1.40583 1.24972 0
M  V30 1801 O 172.468 -1.79246 0.272155 0
M  V30 1802 C 172.516 -0.567786 3.56102 0
M  V30 1803 O 171.62 -1.66318 3.77375 0
M  V30 1804 H 170.961 -0.0272919 0.663439 0
M  V30 1805 H 173.491 0.543536 1.97248 0
M  V30 1806 H 173.501 -0.835003 3.99364 0
M  V30 1807 H 172.176 0.307013 4.14765 0
M  V30 1808 H 170.753 -1.39048 3.46006 0
M  V30 1809 N 172.938 -1.57226 0.108567 0
M  V30 1810 C 173.901 -2.13602 -0.831082 0
M  V30 1811 C 174.901 -1.06841 -1.20173 0
M  V30 1812 O 176.091 -1.32666 -1.12895 0
M  V30 1813 C 173.223 -2.66769 -2.12243 0
M  V30 1814 H 174.416 -2.97951 -0.341317 0
M  V30 1815 H 171.969 -1.55667 -0.14057 0
M  V30 1816 H 172.704 -1.85977 -2.65675 0
M  V30 1817 H 172.489 -3.44839 -1.86625 0
M  V30 1818 H 173.979 -3.10332 -2.79435 0
M  V30 1819 N 174.416 0.165178 -1.56732 0
M  V30 1820 C 175.662 0.882112 -1.82611 0
M  V30 1821 C 175.995 1.81628 -0.687378 0
M  V30 1822 O 175.27 1.92009 0.310267 0
M  V30 1823 C 175.553 1.67245 -3.18906 0
M  V30 1824 C 175.406 0.760987 -4.43316 0
M  V30 1825 C 176.725 2.63884 -3.52212 0
M  V30 1826 H 173.844 0.319242 -0.664269 0
M  V30 1827 H 176.486 0.148052 -1.89422 0
M  V30 1828 H 174.636 2.29824 -3.1323 0
M  V30 1829 H 176.308 0.147596 -4.61064 0
M  V30 1830 H 174.551 0.0694102 -4.33744 0
M  V30 1831 H 175.222 1.34962 -5.35247 0
M  V30 1832 H 177.698 2.11429 -3.58381 0
M  V30 1833 H 176.574 3.16245 -4.48643 0
M  V30 1834 H 176.835 3.44377 -2.77231 0
M  V30 1835 N 175.894 1.51508 0.433938 0
M  V30 1836 C 176.842 1.73646 1.54757 0
M  V30 1837 C 177.836 0.602854 1.5831 0
M  V30 1838 O 179.042 0.784318 1.62014 0
M  V30 1839 H 175.417 0.548718 0.51421 0
M  V30 1840 H 177.388 2.66991 1.33261 0
M  V30 1841 C 176.137 1.88172 2.92381 0
M  V30 1842 H 175.46 2.74808 2.90381 0
M  V30 1843 H 176.9 2.07672 3.6966 0
M  V30 1844 C 175.359 0.64239 3.30719 0
M  V30 1845 O 175.889 -0.201362 4.01195 0
M  V30 1846 N 174.095 0.485489 2.86516 0
M  V30 1847 H 173.642 1.17318 2.29334 0
M  V30 1848 H 173.6 -0.342482 3.12529 0
M  V30 1849 N 177.372 -0.689602 1.41712 0
M  V30 1850 C 178.597 -1.48329 1.44959 0
M  V30 1851 C 179.022 -1.8801 0.0581283 0
M  V30 1852 O 178.38 -1.55026 -0.940035 0
M  V30 1853 C 178.428 -2.71835 2.36935 0
M  V30 1854 O 177.532 -3.69549 1.8305 0
M  V30 1855 H 176.873 -0.446199 0.491734 0
M  V30 1856 H 179.403 -0.847127 1.86239 0
M  V30 1857 H 179.413 -3.20076 2.53013 0
M  V30 1858 H 178.088 -2.42291 3.38035 0
M  V30 1859 H 176.665 -3.2851 1.76452 0
M  V30 1860 N 178.85 -1.27639 -0.924453 0
M  V30 1861 C 180.09 -1.15407 -1.68703 0
M  V30 1862 C 180.454 0.294581 -1.89727 0
M  V30 1863 O 181.655 0.539385 -2.63333 0
M  V30 1864 C 179.926 -1.9195 -3.0148 0
M  V30 1865 S 181.485 -1.95969 -3.92609 0
M  V30 1866 H 178.303 -0.411937 -0.579507 0
M  V30 1867 H 180.905 -1.61592 -1.10038 0
M  V30 1868 H 179.609 -2.96387 -2.83871 0
M  V30 1869 H 179.14 -1.46272 -3.65196 0
M  V30 1870 H 181.155 -1.05846 -4.84779 0
M  V30 1871 N 180.328 1.1314 -1.09713 0
M  V30 1872 C 181.291 2.16831 -0.742751 0
M  V30 1873 C 182.291 1.59159 0.229129 0
M  V30 1874 O 183.481 1.74199 0.00693237 0
M  V30 1875 C 180.613 3.40756 -0.0989168 0
M  V30 1876 H 181.806 2.49695 -1.66109 0
M  V30 1877 H 179.359 1.2802 -0.896699 0
M  V30 1878 H 180.094 3.13485 0.830514 0
M  V30 1879 H 179.879 3.83888 -0.798265 0
M  V30 1880 H 181.369 4.17386 0.133524 0
M  V30 1881 N 181.806 0.884767 1.30421 0
M  V30 1882 C 183.222 0.57874 1.48737 0
M  V30 1883 C 183.422 -0.883567 1.81095 0
M  V30 1884 O 182.478 -1.6648 1.89844 0
M  V30 1885 C 183.791 1.49171 2.61091 0
M  V30 1886 C 185.339 1.49532 2.74971 0
M  V30 1887 C 185.814 2.39421 3.90438 0
M  V30 1888 N 187.305 2.37383 3.97748 0
M  V30 1889 C 188.04 3.03647 4.86401 0
M  V30 1890 N 187.536 3.79136 5.79852 0
M  V30 1891 N 189.329 2.9288 4.79768 0
M  V30 1892 H 181.48 1.83075 1.0769 0
M  V30 1893 H 183.743 0.783637 0.533495 0
M  V30 1894 H 183.449 2.53291 2.44001 0
M  V30 1895 H 183.323 1.20113 3.57565 0
M  V30 1896 H 185.71 0.46163 2.91467 0
M  V30 1897 H 185.791 1.8262 1.79119 0
M  V30 1898 H 185.435 3.42874 3.74699 0
M  V30 1899 H 185.365 2.03649 4.85628 0
M  V30 1900 H 187.856 1.82525 3.30897 0
M  V30 1901 H 188.169 4.26789 6.4426 0
M  V30 1902 H 186.514 3.83243 5.79784 0
M  V30 1903 H 189.705 2.33433 4.05742 0
M  V30 1904 H 189.878 3.448 5.4865 0
M  V30 1905 N 183.284 -1.43765 0.645699 0
M  V30 1906 C 184.524 -2.03776 0.159542 0
M  V30 1907 C 184.888 -1.49792 -1.2011 0
M  V30 1908 O 186.089 -2.01398 -1.78023 0
M  V30 1909 C 184.36 -3.57036 0.161251 0
M  V30 1910 S 185.919 -4.3804 -0.258159 0
M  V30 1911 H 182.737 -0.707717 0.0682454 0
M  V30 1912 H 185.339 -1.75941 0.852352 0
M  V30 1913 H 184.043 -3.9383 1.15439 0
M  V30 1914 H 183.574 -3.89503 -0.552339 0
M  V30 1915 H 185.589 -4.7302 -1.49889 0
M  V30 1916 N 184.763 -0.387143 -1.52771 0
M  V30 1917 C 186.01 0.195735 -2.01552 0
M  V30 1918 C 186.338 1.46995 -1.27369 0
M  V30 1919 O 185.593 1.92325 -0.361879 0
M  V30 1920 C 185.892 0.512209 -3.53711 0
M  V30 1921 C 185.558 -0.670202 -4.45891 0
M  V30 1922 C 184.22 -0.994586 -4.70809 0
M  V30 1923 C 186.572 -1.46134 -5.00294 0
M  V30 1924 C 183.9 -2.11169 -5.4738 0
M  V30 1925 C 186.252 -2.56903 -5.78086 0
M  V30 1926 C 184.916 -2.89852 -6.01284 0
M  V30 1927 H 184.186 0.0716246 -0.73753 0
M  V30 1928 H 186.833 -0.524046 -1.8419 0
M  V30 1929 H 185.138 1.31329 -3.69134 0
M  V30 1930 H 186.835 0.975804 -3.88946 0
M  V30 1931 H 183.425 -0.407366 -4.2666 0
M  V30 1932 H 187.609 -1.22397 -4.80971 0
M  V30 1933 H 182.865 -2.3707 -5.63567 0
M  V30 1934 H 187.039 -3.18608 -6.19243 0
M  V30 1935 H 184.666 -3.76533 -6.60399 0
M  V30 1936 N 186.241 1.57166 -0.116904 0
M  V30 1937 C 187.488 1.95123 0.541603 0
M  V30 1938 C 187.816 1.00006 1.6682 0
M  V30 1939 O 187.071 0.0235658 1.95686 0
M  V30 1940 C 187.37 3.39508 1.11664 0
M  V30 1941 C 187.036 4.50762 0.111606 0
M  V30 1942 C 185.698 4.80918 -0.164758 0
M  V30 1943 C 188.05 5.18036 -0.573438 0
M  V30 1944 C 185.378 5.75666 -1.13249 0
M  V30 1945 C 187.73 6.13824 -1.52978 0
M  V30 1946 C 186.394 6.42374 -1.81415 0
M  V30 1947 H 185.664 0.714005 0.198187 0
M  V30 1948 H 188.311 1.9048 -0.197365 0
M  V30 1949 H 186.616 3.40835 1.93232 0
M  V30 1950 H 188.313 3.66189 1.63422 0
M  V30 1951 H 184.903 4.27272 0.337192 0
M  V30 1952 H 189.087 4.94896 -0.373092 0
M  V30 1953 H 184.343 5.96092 -1.35958 0
M  V30 1954 H 188.517 6.65039 -2.06629 0
M  V30 1955 H 186.144 7.15599 -2.56557 0
M  V30 1956 N 187.719 -0.156864 1.56817 0
M  V30 1957 C 188.669 -1.19891 1.93934 0
M  V30 1958 C 189.653 -1.39061 0.809372 0
M  V30 1959 O 190.845 -1.40789 1.07273 0
M  V30 1960 C 187.974 -2.53493 2.31508 0
M  V30 1961 C 187.06 -2.37957 3.51052 0
M  V30 1962 N 187.451 -1.92158 4.67877 0
M  V30 1963 C 185.749 -2.68739 3.55943 0
M  V30 1964 C 186.45 -1.8943 5.49992 0
M  V30 1965 N 185.426 -2.32375 4.91429 0
M  V30 1966 H 189.228 -0.836746 2.81737 0
M  V30 1967 H 186.742 -0.365012 1.58245 0
M  V30 1968 H 188.739 -3.28811 2.56299 0
M  V30 1969 H 187.399 -2.905 1.45051 0
M  V30 1970 H 188.41 -1.62274 4.91821 0
M  V30 1971 H 185.087 -3.09687 2.80001 0
M  V30 1972 H 186.477 -1.55596 6.53636 0
M  V30 1973 N 189.197 -1.51736 -0.425897 0
M  V30 1974 C 190.422 -1.69082 -1.20108 0
M  V30 1975 C 190.847 -0.392398 -1.83962 0
M  V30 1976 O 190.205 0.64858 -1.69302 0
M  V30 1977 C 190.253 -2.81604 -2.25237 0
M  V30 1978 O 189.357 -2.46004 -3.30992 0
M  V30 1979 H 188.698 -0.563408 -0.35138 0
M  V30 1980 H 191.228 -1.98358 -0.501512 0
M  V30 1981 H 191.238 -3.06025 -2.69838 0
M  V30 1982 H 189.913 -3.75817 -1.78142 0
M  V30 1983 H 188.49 -2.32195 -2.91787 0
M  V30 1984 N 190.675 0.682077 -1.42076 0
M  V30 1985 C 191.921 1.44428 -1.42367 0
M  V30 1986 C 192.254 1.94164 -0.0373056 0
M  V30 1987 O 191.529 1.70429 0.937239 0
M  V30 1988 C 191.812 2.64654 -2.44194 0
M  V30 1989 C 191.665 2.20596 -3.91991 0
M  V30 1990 C 192.984 3.66865 -2.431 0
M  V30 1991 H 190.103 0.523834 -0.518428 0
M  V30 1992 H 192.745 0.77576 -1.73442 0
M  V30 1993 H 190.895 3.2169 -2.17826 0
M  V30 1994 H 192.567 1.68783 -4.29313 0
M  V30 1995 H 190.81 1.52242 -4.06208 0
M  V30 1996 H 191.481 3.06921 -4.58807 0
M  V30 1997 H 193.957 3.19531 -2.66532 0
M  V30 1998 H 192.833 4.48577 -3.16339 0
M  V30 1999 H 193.094 4.17493 -1.45437 0
M  V30 2000 N 192.153 1.28127 0.917671 0
M  V30 2001 C 193.393 1.163 1.68088 0
M  V30 2002 C 193.757 -0.284515 1.8988 0
M  V30 2003 O 194.958 -0.525413 2.63615 0
M  V30 2004 C 193.229 1.93546 3.00457 0
M  V30 2005 S 194.788 1.98048 3.91564 0
M  V30 2006 H 191.606 0.415005 0.577315 0
M  V30 2007 H 194.208 1.62173 1.09179 0
M  V30 2008 H 192.912 2.97888 2.82295 0
M  V30 2009 H 192.443 1.48207 3.64415 0
M  V30 2010 H 194.458 1.08415 4.84211 0
M  V30 2011 N 193.631 -1.12557 1.10312 0
M  V30 2012 C 195.042 -1.65574 0.862678 0
M  V30 2013 C 195.393 -1.86566 -0.607256 0
M  V30 2014 O 194.518 -1.59121 -1.46662 0
M  V30 2015 C 195.113 -3.00776 1.55947 0
M  V30 2016 C 193.672 -3.50748 1.36576 0
M  V30 2017 C 192.819 -2.25797 1.60968 0
M  V30 2018 H 195.77 -0.963552 1.26101 0
M  V30 2019 H 195.791 -3.67185 0.997753 0
M  V30 2020 H 195.303 -2.85465 2.62928 0
M  V30 2021 H 193.404 -3.71245 0.317531 0
M  V30 2022 H 193.517 -4.30289 2.10686 0
M  V30 2023 H 191.881 -2.32841 1.03234 0
M  V30 2024 H 192.664 -2.13043 2.69198 0
M  V30 2025 N 195.109 -0.891671 -1.2995 0
M  V30 2026 C 196.072 -0.36828 -2.26222 0
M  V30 2027 C 197.072 0.493014 -1.53056 0
M  V30 2028 O 198.262 0.299213 -1.71611 0
M  V30 2029 C 195.394 0.47442 -3.37583 0
M  V30 2030 H 196.587 -1.21844 -2.74033 0
M  V30 2031 H 194.14 -0.669107 -1.41254 0
M  V30 2032 H 194.875 1.34489 -2.95099 0
M  V30 2033 H 194.66 -0.142615 -3.91841 0
M  V30 2034 H 196.15 0.83218 -4.09224 0
M  V30 2035 N 196.587 1.43421 -0.653314 0
M  V30 2036 C 197.835 2.01414 -0.166415 0
M  V30 2037 C 198.156 1.51803 1.22397 0
M  V30 2038 O 197.426 0.730693 1.81763 0
M  V30 2039 H 196.006 0.744703 -0.0585319 0
M  V30 2040 H 198.668 1.75629 -0.845003 0
M  V30 2041 H 197.764 3.11734 -0.151111 0
M  V30 2042 N 198.065 0.39524 1.52563 0
M  V30 2043 C 198.998 -0.4813 2.23067 0
M  V30 2044 C 199.976 -1.05927 1.23362 0
M  V30 2045 O 201.16 -1.10979 1.52368 0
M  V30 2046 C 198.287 -1.66676 2.9485 0
M  V30 2047 C 197.333 -1.21348 4.08873 0
M  V30 2048 S 198.166 -0.190102 5.35162 0
M  V30 2049 C 199.322 -1.38121 6.1047 0
M  V30 2050 H 199.555 0.117381 2.97068 0
M  V30 2051 H 197.088 0.179458 1.53354 0
M  V30 2052 H 199.046 -2.3466 3.36816 0
M  V30 2053 H 197.707 -2.23676 2.20518 0
M  V30 2054 H 196.9 -2.09877 4.58222 0
M  V30 2055 H 196.502 -0.612486 3.68951 0
M  V30 2056 H 198.794 -2.30726 6.37002 0
M  V30 2057 H 199.737 -0.928521 7.01986 0
M  V30 2058 H 200.145 -1.60071 5.41329 0
M  V30 2059 N 199.544 -1.57102 0.125237 0
M  V30 2060 C 200.793 -1.94582 -0.531095 0
M  V30 2061 C 201.106 -1.01126 -1.6743 0
M  V30 2062 O 202.312 -1.28097 -2.39381 0
M  V30 2063 C 200.768 -3.45839 -0.996164 0
M  V30 2064 C 200.376 -4.47842 0.118926 0
M  V30 2065 C 202.12 -3.92227 -1.62352 0
M  V30 2066 C 200.027 -5.90284 -0.363192 0
M  V30 2067 H 198.957 -0.726391 -0.20217 0
M  V30 2068 H 201.608 -1.82339 0.206092 0
M  V30 2069 H 199.99 -3.53338 -1.78796 0
M  V30 2070 H 201.164 -4.52018 0.895358 0
M  V30 2071 H 199.479 -4.11243 0.653324 0
M  V30 2072 H 202.076 -4.96069 -1.99548 0
M  V30 2073 H 202.419 -3.32552 -2.50429 0
M  V30 2074 H 202.952 -3.87554 -0.897019 0
M  V30 2075 H 199.691 -6.53728 0.481679 0
M  V30 2076 H 199.211 -5.89515 -1.10597 0
M  V30 2077 H 200.89 -6.41752 -0.822377 0
M  V30 2078 N 201.022 0.148545 -1.56898 0
M  V30 2079 C 202.268 0.862694 -1.83536 0
M  V30 2080 C 202.601 1.80889 -0.706604 0
M  V30 2081 O 201.876 1.92328 0.289885 0
M  V30 2082 C 202.159 1.63853 -3.20662 0
M  V30 2083 C 202.012 0.713925 -4.44098 0
M  V30 2084 C 203.331 2.60133 -3.54991 0
M  V30 2085 H 200.45 0.312179 -0.667618 0
M  V30 2086 H 203.092 0.127953 -1.89569 0
M  V30 2087 H 201.242 2.26489 -3.1565 0
M  V30 2088 H 202.914 0.098686 -4.61194 0
M  V30 2089 H 201.157 0.0234019 -4.33794 0
M  V30 2090 H 201.828 1.29278 -5.36648 0
M  V30 2091 H 204.304 2.07616 -3.60603 0
M  V30 2092 H 203.18 3.11468 -4.51972 0
M  V30 2093 H 203.441 3.41417 -2.80868 0
M  V30 2094 N 202.5 1.5196 0.417844 0
M  V30 2095 C 203.447 1.74678 1.50852 0
M  V30 2096 C 204.417 0.588947 1.55308 0
M  V30 2097 O 205.602 0.825544 1.72016 0
M  V30 2098 C 202.742 1.89544 2.88387 0
M  V30 2099 C 201.855 3.17166 2.93309 0
M  V30 2100 C 200.99 3.22513 4.22088 0
M  V30 2101 C 200.029 4.44372 4.20951 0
M  V30 2102 N 199.166 4.47161 5.41287 0
M  V30 2103 H 204.006 2.67768 1.30783 0
M  V30 2104 H 201.543 1.32689 0.63498 0
M  V30 2105 H 203.501 1.96146 3.68216 0
M  V30 2106 H 202.131 0.998424 3.06971 0
M  V30 2107 H 201.183 3.19778 2.06024 0
M  V30 2108 H 202.495 4.07021 2.88332 0
M  V30 2109 H 201.649 3.28139 5.10303 0
M  V30 2110 H 200.388 2.30581 4.29748 0
M  V30 2111 H 199.393 4.38902 3.31127 0
M  V30 2112 H 200.618 5.3759 4.14938 0
M  V30 2113 H 198.564 3.58108 5.49632 0
M  V30 2114 H 198.481 5.3085 5.3827 0
M  V30 2115 H 199.749 4.57005 6.3148 0
M  V30 2116 N 203.978 -0.674533 1.42435 0
M  V30 2117 C 205.225 -1.43459 1.42919 0
M  V30 2118 C 205.553 -1.94446 0.0457312 0
M  V30 2119 O 204.808 -1.7132 -0.94593 0
M  V30 2120 C 205.107 -2.64767 2.40069 0
M  V30 2121 C 204.773 -2.3232 3.86443 0
M  V30 2122 C 203.435 -2.23182 4.26314 0
M  V30 2123 C 205.787 -2.05977 4.78773 0
M  V30 2124 C 203.115 -1.85827 5.56494 0
M  V30 2125 C 205.467 -1.70125 6.09295 0
M  V30 2126 C 204.131 -1.59498 6.48164 0
M  V30 2127 H 203.401 -0.524952 0.522978 0
M  V30 2128 H 206.048 -0.769097 1.75377 0
M  V30 2129 H 204.353 -3.36349 2.00939 0
M  V30 2130 H 206.05 -3.22949 2.37707 0
M  V30 2131 H 202.64 -2.40334 3.54877 0
M  V30 2132 H 206.824 -2.11969 4.48757 0
M  V30 2133 H 202.08 -1.76168 5.8547 0
M  V30 2134 H 206.254 -1.48767 6.80324 0
M  V30 2135 H 203.881 -1.30322 7.48946 0
M  V30 2136 N 205.456 -1.28612 -0.910864 0
M  V30 2137 C 206.867 -1.14406 -1.47541 0
M  V30 2138 C 207.218 0.264901 -1.94403 0
M  V30 2139 O 206.343 1.15942 -1.82719 0
M  V30 2140 C 206.938 -2.07073 -2.68153 0
M  V30 2141 C 205.497 -1.96923 -3.20778 0
M  V30 2142 C 204.644 -1.98646 -1.93481 0
M  V30 2143 H 207.595 -1.41259 -0.723291 0
M  V30 2144 H 207.616 -1.63642 -3.43514 0
M  V30 2145 H 207.128 -3.09611 -2.34015 0
M  V30 2146 H 205.229 -0.97433 -3.59635 0
M  V30 2147 H 205.342 -2.84026 -3.85832 0
M  V30 2148 H 203.706 -1.43093 -2.10705 0
M  V30 2149 H 204.489 -3.02868 -1.61634 0
M  V30 2150 N 206.934 1.1197 -1.10907 0
M  V30 2151 C 208.182 1.83225 -0.852819 0
M  V30 2152 C 208.503 1.84769 0.623341 0
M  V30 2153 O 207.773 1.3143 1.45269 0
M  V30 2154 H 206.353 0.67849 -0.312507 0
M  V30 2155 H 209.015 1.3556 -1.40033 0
M  V30 2156 H 208.111 2.87265 -1.22005 0
M  V30 2157 N 208.412 0.89855 1.29475 0
M  V30 2158 C 209.64 0.539261 1.99749 0
M  V30 2159 C 210.055 -0.875716 1.67262 0
M  V30 2160 O 209.412 -1.57786 0.917049 0
M  V30 2161 C 209.463 0.72061 3.54245 0
M  V30 2162 O 209.184 2.07989 3.8558 0
M  V30 2163 C 210.685 0.366118 4.41786 0
M  V30 2164 H 207.905 0.207047 0.638258 0
M  V30 2165 H 210.449 1.20758 1.65039 0
M  V30 2166 H 208.604 0.0994862 3.87272 0
M  V30 2167 H 209.018 2.10841 4.80257 0
M  V30 2168 H 210.492 0.543848 5.49314 0
M  V30 2169 H 210.969 -0.696763 4.33638 0
M  V30 2170 H 211.575 0.964135 4.14228 0
M  V30 2171 N 209.89 -1.43072 0.660911 0
M  V30 2172 C 210.853 -2.29194 -0.0166406 0
M  V30 2173 C 211.853 -1.42609 -0.742912 0
M  V30 2174 O 213.043 -1.64155 -0.583004 0
M  V30 2175 C 210.175 -3.24831 -1.0343 0
M  V30 2176 H 211.368 -2.90596 0.741208 0
M  V30 2177 H 208.921 -1.5048 0.422532 0
M  V30 2178 H 209.656 -2.68339 -1.82111 0
M  V30 2179 H 209.441 -3.88676 -0.517082 0
M  V30 2180 H 210.931 -3.89451 -1.50723 0
M  V30 2181 N 211.368 -0.403325 -1.52352 0
M  V30 2182 C 212.3 0.4603 -2.2453 0
M  V30 2183 C 213.313 1.01505 -1.27282 0
M  V30 2184 O 214.502 0.914982 -1.53266 0
M  V30 2185 C 211.602 1.65208 -2.95905 0
M  V30 2186 C 210.775 1.22224 -4.19976 0
M  V30 2187 C 209.834 2.28028 -4.74226 0
M  V30 2188 O 208.86 1.88857 -5.36956 0
M  V30 2189 N 210.062 3.6012 -4.55295 0
M  V30 2190 H 212.827 -0.158156 -2.99282 0
M  V30 2191 H 210.388 -0.230402 -1.60252 0
M  V30 2192 H 212.38 2.35541 -3.29093 0
M  V30 2193 H 210.95 2.17658 -2.24374 0
M  V30 2194 H 210.17 0.34725 -3.92668 0
M  V30 2195 H 211.458 0.911924 -5.00561 0
M  V30 2196 H 210.856 3.94698 -4.05253 0
M  V30 2197 H 209.413 4.26447 -4.92936 0
M  V30 2198 N 212.846 1.57033 -0.133567 0
M  V30 2199 C 213.793 2.16074 0.811208 0
M  V30 2200 C 214.763 1.08979 1.2535 0
M  V30 2201 O 215.948 1.36958 1.32843 0
M  V30 2202 C 213.088 2.77595 2.05024 0
M  V30 2203 C 212.201 3.99042 1.65498 0
M  V30 2204 C 211.336 4.48603 2.84479 0
M  V30 2205 C 210.375 5.62547 2.41262 0
M  V30 2206 N 209.512 6.06787 3.53206 0
M  V30 2207 H 214.352 2.96477 0.300906 0
M  V30 2208 H 211.889 1.46462 0.136822 0
M  V30 2209 H 213.847 3.11402 2.77642 0
M  V30 2210 H 212.477 1.99859 2.53488 0
M  V30 2211 H 211.529 3.71302 0.826981 0
M  V30 2212 H 212.841 4.81629 1.29748 0
M  V30 2213 H 211.995 4.84395 3.65303 0
M  V30 2214 H 210.734 3.64995 3.23465 0
M  V30 2215 H 209.739 5.26345 1.58874 0
M  V30 2216 H 210.964 6.47931 2.03377 0
M  V30 2217 H 208.91 5.26117 3.91838 0
M  V30 2218 H 208.827 6.84266 3.21427 0
M  V30 2219 H 210.095 6.4722 4.34427 0
M  V30 2220 N 214.325 -0.140222 1.56975 0
M  V30 2221 C 215.273 -1.19207 1.99731 0
M  V30 2222 C 216.267 -1.44089 0.890777 0
M  V30 2223 O 217.473 -1.44301 1.07597 0
M  V30 2224 H 213.848 -0.40142 0.635898 0
M  V30 2225 H 215.819 -0.804813 2.87342 0
M  V30 2226 C 214.568 -2.51617 2.39967 0
M  V30 2227 H 213.891 -2.33303 3.24669 0
M  V30 2228 H 215.331 -3.23827 2.73701 0
M  V30 2229 C 213.79 -3.12654 1.25496 0
M  V30 2230 O 214.32 -3.97786 0.559371 0
M  V30 2231 N 212.526 -2.72206 1.01746 0
M  V30 2232 H 212.073 -2.03074 1.58489 0
M  V30 2233 H 212.031 -3.13377 0.253461 0
M  V30 2234 N 215.803 -1.52179 -0.40978 0
M  V30 2235 C 217.031 -1.70054 -1.17853 0
M  V30 2236 C 217.446 -0.409735 -1.843 0
M  V30 2237 O 216.803 0.614183 -1.71855 0
M  V30 2238 C 216.854 -2.83568 -2.24213 0
M  V30 2239 O 216.575 -4.0765 -1.60478 0
M  V30 2240 C 218.076 -3.12947 -3.13973 0
M  V30 2241 H 215.296 -0.569917 -0.354169 0
M  V30 2242 H 217.84 -1.98734 -0.482198 0
M  V30 2243 H 215.995 -2.57409 -2.89516 0
M  V30 2244 H 216.409 -4.70899 -2.30986 0
M  V30 2245 H 217.883 -3.95889 -3.84677 0
M  V30 2246 H 218.36 -2.26472 -3.76307 0
M  V30 2247 H 218.966 -3.40868 -2.5434 0
M  V30 2248 N 217.281 0.66697 -1.42791 0
M  V30 2249 C 218.527 1.4291 -1.43891 0
M  V30 2250 C 218.86 1.94114 -0.0578972 0
M  V30 2251 O 218.135 1.71414 0.91911 0
M  V30 2252 C 218.418 2.62049 -2.46987 0
M  V30 2253 C 218.271 2.16426 -3.94309 0
M  V30 2254 C 219.59 3.64266 -2.46978 0
M  V30 2255 H 216.709 0.518306 -0.523954 0
M  V30 2256 H 219.351 0.757321 -1.74255 0
M  V30 2257 H 217.501 3.19361 -2.21225 0
M  V30 2258 H 219.173 1.64221 -4.31079 0
M  V30 2259 H 217.416 1.47925 -4.078 0
M  V30 2260 H 218.087 3.02038 -4.62036 0
M  V30 2261 H 220.563 3.16686 -2.69906 0
M  V30 2262 H 219.439 4.45196 -3.21079 0
M  V30 2263 H 219.7 4.15927 -1.49857 0
M  V30 2264 N 218.759 1.29093 0.90403 0
M  V30 2265 C 219.999 1.18076 1.66845 0
M  V30 2266 C 220.363 -0.26436 1.90171 0
M  V30 2267 O 221.564 -0.497423 2.64157 0
M  V30 2268 C 219.835 1.96722 2.98388 0
M  V30 2269 S 221.394 2.0219 3.89441 0
M  V30 2270 H 218.212 0.421104 0.572881 0
M  V30 2271 H 220.814 1.63322 1.07453 0
M  V30 2272 H 219.518 3.00866 2.7912 0
M  V30 2273 H 219.049 1.52064 3.62823 0
M  V30 2274 H 221.064 1.13545 4.83034 0
M  V30 2275 N 220.237 -1.11381 1.11499 0
M  V30 2276 C 221.147 -2.21019 0.786628 0
M  V30 2277 C 222.163 -1.72597 -0.220507 0
M  V30 2278 O 223.339 -2.01321 -0.0565251 0
M  V30 2279 C 220.404 -3.459 0.235333 0
M  V30 2280 C 219.465 -4.09107 1.30115 0
M  V30 2281 C 218.698 -5.28027 0.776068 0
M  V30 2282 O 218.921 -5.6904 -0.393661 0
M  V30 2283 O 217.855 -5.81835 1.54114 0
M  V30 2284 H 221.681 -2.51521 1.70209 0
M  V30 2285 H 219.266 -1.19928 0.890928 0
M  V30 2286 H 221.148 -4.21346 -0.067715 0
M  V30 2287 H 219.823 -3.17049 -0.652828 0
M  V30 2288 H 218.73 -3.35391 1.65722 0
M  V30 2289 H 220.063 -4.42139 2.16273 0
M  V30 2290 N 221.715 -0.905404 -1.28997 0
M  V30 2291 C 223.126 -0.581953 -1.77398 0
M  V30 2292 C 223.477 0.902552 -1.74208 0
M  V30 2293 O 222.602 1.70584 -1.33154 0
M  V30 2294 C 223.197 -1.04961 -3.22131 0
M  V30 2295 C 221.756 -0.777229 -3.68288 0
M  V30 2296 C 220.903 -1.22109 -2.48967 0
M  V30 2297 H 223.854 -1.08754 -1.15578 0
M  V30 2298 H 223.875 -0.387387 -3.78523 0
M  V30 2299 H 223.387 -2.13008 -3.24421 0
M  V30 2300 H 221.488 0.290383 -3.71467 0
M  V30 2301 H 221.601 -1.37911 -4.58822 0
M  V30 2302 H 219.965 -0.639971 -2.46529 0
M  V30 2303 H 220.748 -2.30972 -2.53982 0
M  V30 2304 N 223.193 1.4272 -0.668489 0
M  V30 2305 C 224.156 2.292 0.00448567 0
M  V30 2306 C 225.156 1.43001 0.735339 0
M  V30 2307 O 226.346 1.64461 0.57429 0
M  V30 2308 C 223.478 3.25375 1.01705 0
M  V30 2309 H 224.671 2.90199 -0.756608 0
M  V30 2310 H 222.224 1.50254 -0.430506 0
M  V30 2311 H 222.959 2.69301 1.80686 0
M  V30 2312 H 222.744 3.88944 0.496463 0
M  V30 2313 H 224.234 3.90245 1.48655 0
M  V30 2314 N 224.671 0.411399 1.52136 0
M  V30 2315 C 225.896 -0.165538 2.06738 0
M  V30 2316 C 226.321 -1.379 1.27926 0
M  V30 2317 O 225.679 -1.78628 0.310114 0
M  V30 2318 C 225.727 -0.492124 3.57226 0
M  V30 2319 O 224.831 -1.58276 3.80818 0
M  V30 2320 H 224.172 -0.0132132 0.663869 0
M  V30 2321 H 226.702 0.585253 1.96051 0
M  V30 2322 H 226.712 -0.750104 4.01045 0
M  V30 2323 H 225.387 0.394922 4.14021 0
M  V30 2324 H 223.964 -1.31677 3.48877 0
M  V30 2325 N 226.149 -1.5696 0.141893 0
M  V30 2326 C 227.56 -1.82797 -0.379776 0
M  V30 2327 C 227.911 -1.06033 -1.6508 0
M  V30 2328 O 227.036 -0.304011 -2.14254 0
M  V30 2329 C 227.631 -3.31578 -0.695802 0
M  V30 2330 C 226.19 -3.58014 -1.16201 0
M  V30 2331 C 225.337 -2.76699 -0.182455 0
M  V30 2332 H 228.288 -1.54406 0.366675 0
M  V30 2333 H 228.309 -3.47454 -1.55099 0
M  V30 2334 H 227.821 -3.87421 0.229449 0
M  V30 2335 H 225.922 -3.07553 -2.10338 0
M  V30 2336 H 226.035 -4.66501 -1.09151 0
M  V30 2337 H 224.399 -2.45618 -0.674072 0
M  V30 2338 H 225.182 -3.35311 0.736297 0
M  V30 2339 N 227.627 0.131896 -1.57047 0
M  V30 2340 C 228.875 0.840269 -1.83804 0
M  V30 2341 C 229.196 1.81017 -0.72512 0
M  V30 2342 O 228.466 1.94272 0.251995 0
M  V30 2343 H 227.046 0.313294 -0.678127 0
M  V30 2344 H 229.708 0.122294 -1.94516 0
M  V30 2345 H 228.804 1.39335 -2.79271 0
M  V30 2346 N 229.106 1.52395 0.401703 0
M  V30 2347 C 230.352 1.67065 1.14966 0
M  V30 2348 C 230.685 0.403052 1.89971 0
M  V30 2349 O 229.96 -0.598774 1.85054 0
M  V30 2350 C 230.243 2.8975 2.13815 0
M  V30 2351 C 230.096 4.26578 1.42658 0
M  V30 2352 C 231.415 3.07965 3.14397 0
M  V30 2353 H 228.534 0.607968 0.416587 0
M  V30 2354 H 231.176 1.84965 0.434511 0
M  V30 2355 H 229.326 2.74619 2.74803 0
M  V30 2356 H 230.998 4.53451 0.847329 0
M  V30 2357 H 229.241 4.27639 0.72849 0
M  V30 2358 H 229.912 5.08483 2.14823 0
M  V30 2359 H 232.388 3.22043 2.63491 0
M  V30 2360 H 231.264 3.95308 3.80819 0
M  V30 2361 H 231.525 2.21611 3.82545 0
M  V30 2362 N 230.584 -0.659388 1.43143 0
M  V30 2363 C 231.809 -1.45221 1.48073 0
M  V30 2364 C 232.234 -1.87845 0.097995 0
M  V30 2365 O 231.592 -1.56985 -0.90694 0
M  V30 2366 C 231.64 -2.66748 2.42647 0
M  V30 2367 O 230.744 -3.65583 1.90848 0
M  V30 2368 H 230.085 -0.435669 0.501088 0
M  V30 2369 H 232.615 -0.807432 1.87994 0
M  V30 2370 H 232.625 -3.14637 2.59745 0
M  V30 2371 H 231.3 -2.35067 3.43098 0
M  V30 2372 H 229.877 -3.24693 1.83381 0
M  V30 2373 N 232.062 -1.29571 -0.897171 0
M  V30 2374 C 233.473 -1.15964 -1.46319 0
M  V30 2375 C 233.824 0.244267 -1.94674 0
M  V30 2376 O 232.949 1.13998 -1.83939 0
M  V30 2377 C 233.544 -2.09906 -2.65942 0
M  V30 2378 C 232.103 -2.00314 -3.18671 0
M  V30 2379 C 231.25 -2.00687 -1.91363 0
M  V30 2380 H 234.201 -1.42019 -0.708268 0
M  V30 2381 H 234.222 -1.67276 -3.41759 0
M  V30 2382 H 233.734 -3.12075 -2.30718 0
M  V30 2383 H 231.835 -1.01242 -3.58582 0
M  V30 2384 H 231.948 -2.88102 -3.82798 0
M  V30 2385 H 230.312 -1.45319 -2.09175 0
M  V30 2386 H 231.095 -3.04566 -1.58413 0
M  V30 2387 N 233.54 1.10788 -1.12088 0
M  V30 2388 C 234.503 2.15207 -0.788577 0
M  V30 2389 C 235.503 1.59609 0.195317 0
M  V30 2390 O 236.693 1.74174 -0.0300193 0
M  V30 2391 C 233.825 3.4047 -0.171174 0
M  V30 2392 H 235.018 2.46116 -1.71368 0
M  V30 2393 H 232.571 1.26089 -0.923652 0
M  V30 2394 H 233.306 3.15176 0.763832 0
M  V30 2395 H 233.091 3.82109 -0.879514 0
M  V30 2396 H 234.581 4.17576 0.04496 0
M  V30 2397 N 235.018 0.912232 1.28515 0
M  V30 2398 C 236.258 0.551677 1.96814 0
M  V30 2399 C 236.622 -0.887825 1.7024 0
M  V30 2400 O 237.823 -1.35588 2.32098 0
M  V30 2401 C 236.094 0.850555 3.47132 0
M  V30 2402 S 237.653 0.59619 4.34731 0
M  V30 2403 H 234.471 0.204191 0.681049 0
M  V30 2404 H 237.073 1.17736 1.56072 0
M  V30 2405 H 235.777 1.8962 3.63968 0
M  V30 2406 H 235.308 0.213471 3.9282 0
M  V30 2407 H 237.323 -0.553154 4.93107 0
M  V30 2408 N 236.496 -1.42363 0.676048 0
M  V30 2409 C 237.459 -2.29199 0.00766941 0
M  V30 2410 C 238.459 -1.43389 -0.727745 0
M  V30 2411 O 239.649 -1.64764 -0.56556 0
M  V30 2412 C 236.781 -3.2591 -0.999785 0
M  V30 2413 H 237.974 -2.89794 0.771988 0
M  V30 2414 H 235.527 -1.50024 0.438468 0
M  V30 2415 H 236.262 -2.70256 -1.79255 0
M  V30 2416 H 236.047 -3.89202 -0.475829 0
M  V30 2417 H 237.537 -3.91028 -1.46583 0
M  V30 2418 N 237.974 -0.419461 -1.51915 0
M  V30 2419 C 239.199 0.154572 -2.06823 0
M  V30 2420 C 239.624 1.3722 -1.28656 0
M  V30 2421 O 238.982 1.78461 -0.319583 0
M  V30 2422 C 239.03 0.473172 -3.57482 0
M  V30 2423 O 238.134 1.56255 -3.81652 0
M  V30 2424 H 237.475 0.0096924 -0.663929 0
M  V30 2425 H 240.005 -0.595642 -1.95738 0
M  V30 2426 H 240.015 0.728825 -4.01438 0
M  V30 2427 H 238.69 -0.416873 -4.13805 0
M  V30 2428 H 237.267 1.29825 -3.49571 0
M  V30 2429 N 239.452 1.56882 -0.150215 0
M  V30 2430 C 240.863 1.82995 0.370076 0
M  V30 2431 C 241.214 1.06907 1.64515 0
M  V30 2432 O 240.339 0.315369 2.1409 0
M  V30 2433 C 240.934 3.31942 0.678208 0
M  V30 2434 C 239.493 3.58625 1.14301 0
M  V30 2435 C 238.64 2.76792 0.167778 0
M  V30 2436 H 241.591 1.54209 -0.374858 0
M  V30 2437 H 241.612 3.48272 1.53254 0
M  V30 2438 H 241.124 3.87294 -0.249991 0
M  V30 2439 H 239.225 3.08664 2.08704 0
M  V30 2440 H 239.338 4.67073 1.06676 0
M  V30 2441 H 237.702 2.45972 0.661037 0
M  V30 2442 H 238.485 3.34916 -0.754069 0
M  V30 2443 N 240.93 -0.123565 1.57115 0
M  V30 2444 C 241.84 -1.17074 2.033 0
M  V30 2445 C 242.856 -1.4561 0.952559 0
M  V30 2446 O 244.032 -1.56817 1.26374 0
M  V30 2447 C 241.097 -2.47857 2.42421 0
M  V30 2448 C 240.158 -2.26758 3.64526 0
M  V30 2449 C 239.391 -3.51305 4.01771 0
M  V30 2450 O 239.614 -4.5843 3.39409 0
M  V30 2451 O 238.548 -3.42578 4.94898 0
M  V30 2452 H 242.374 -0.808555 2.92739 0
M  V30 2453 H 239.959 -0.334027 1.45618 0
M  V30 2454 H 241.841 -3.2492 2.68338 0
M  V30 2455 H 240.516 -2.83558 1.5613 0
M  V30 2456 H 239.423 -1.47569 3.43765 0
M  V30 2457 H 240.756 -1.95963 4.51508 0
M  V30 2458 N 242.408 -1.52605 -0.393616 0
M  V30 2459 C 243.356 -1.77688 -1.50099 0
M  V30 2460 C 244.35 -0.644615 -1.56656 0
M  V30 2461 O 245.556 -0.826997 -1.59877 0
M  V30 2462 H 241.931 -0.562159 -0.499481 0
M  V30 2463 H 243.902 -2.7043 -1.26135 0
M  V30 2464 C 242.651 -1.95858 -2.87289 0
M  V30 2465 H 241.974 -2.8241 -2.82992 0
M  V30 2466 H 243.414 -2.174 -3.64024 0
M  V30 2467 C 241.873 -0.729848 -3.28899 0
M  V30 2468 O 242.403 0.0949217 -4.01588 0
M  V30 2469 N 240.609 -0.561283 -2.85128 0
M  V30 2470 H 240.156 -1.23357 -2.26143 0
M  V30 2471 H 240.114 0.2595 -3.13327 0
M  V30 2472 N 243.887 0.651787 -1.4349 0
M  V30 2473 C 245.127 1.42345 -1.46688 0
M  V30 2474 C 245.491 1.91793 -0.0891023 0
M  V30 2475 O 246.692 2.688 0.00423594 0
M  V30 2476 C 244.963 2.57221 -2.48137 0
M  V30 2477 S 246.522 3.45725 -2.70221 0
M  V30 2478 H 243.34 0.485878 -0.51908 0
M  V30 2479 H 245.942 0.756578 -1.80267 0
M  V30 2480 H 244.646 2.1917 -3.46976 0
M  V30 2481 H 244.177 3.28757 -2.16061 0
M  V30 2482 H 246.192 4.53996 -2.00255 0
M  V30 2483 N 245.365 1.30045 0.890287 0
M  V30 2484 C 246.312 1.15976 1.99545 0
M  V30 2485 C 247.282 0.0506202 1.66023 0
M  V30 2486 O 248.467 0.219847 1.89529 0
M  V30 2487 C 245.607 0.852054 3.34416 0
M  V30 2488 C 244.72 2.04255 3.80662 0
M  V30 2489 C 243.855 1.6734 5.04154 0
M  V30 2490 C 242.894 2.82916 5.42794 0
M  V30 2491 N 242.031 2.46333 6.57468 0
M  V30 2492 H 246.871 2.10524 2.10911 0
M  V30 2493 H 244.408 1.04749 1.03276 0
M  V30 2494 H 246.366 0.654296 4.12037 0
M  V30 2495 H 244.996 -0.0565502 3.2275 0
M  V30 2496 H 244.048 2.35172 2.98995 0
M  V30 2497 H 245.36 2.90826 4.05242 0
M  V30 2498 H 244.514 1.43908 5.89386 0
M  V30 2499 H 243.253 0.779308 4.81433 0
M  V30 2500 H 242.258 3.0702 4.56091 0
M  V30 2501 H 243.483 3.73004 5.6749 0
M  V30 2502 H 241.429 1.59423 6.36334 0
M  V30 2503 H 241.346 3.26436 6.81891 0
M  V30 2504 H 242.614 2.26244 7.45945 0
M  V30 2505 N 246.843 -1.10192 1.12674 0
M  V30 2506 C 247.753 -2.20172 0.810026 0
M  V30 2507 C 248.769 -1.72821 -0.202188 0
M  V30 2508 O 249.945 -2.01369 -0.0351691 0
M  V30 2509 C 247.01 -3.45631 0.272007 0
M  V30 2510 C 246.071 -4.07704 1.34447 0
M  V30 2511 C 245.304 -5.27175 0.832029 0
M  V30 2512 O 245.527 -5.69425 -0.333284 0
M  V30 2513 O 244.461 -5.80168 1.60277 0
M  V30 2514 H 248.287 -2.49701 1.72867 0
M  V30 2515 H 245.872 -1.18977 0.903597 0
M  V30 2516 H 247.754 -4.21394 -0.0230219 0
M  V30 2517 H 246.429 -3.17723 -0.619164 0
M  V30 2518 H 245.336 -3.33614 1.6927 0
M  V30 2519 H 246.669 -4.3982 2.2095 0
M  V30 2520 N 248.321 -0.919034 -1.28029 0
M  V30 2521 C 249.732 -0.600735 -1.76771 0
M  V30 2522 C 250.083 0.884024 -1.75156 0
M  V30 2523 O 249.208 1.69163 -1.34956 0
M  V30 2524 C 249.803 -1.08372 -3.21 0
M  V30 2525 C 248.362 -0.816248 -3.67443 0
M  V30 2526 C 247.509 -1.24742 -2.47658 0
M  V30 2527 H 250.46 -1.09974 -1.14418 0
M  V30 2528 H 250.481 -0.427512 -3.78091 0
M  V30 2529 H 249.993 -2.16437 -3.22144 0
M  V30 2530 H 248.094 0.250968 -3.71754 0
M  V30 2531 H 248.207 -1.4277 -4.57333 0
M  V30 2532 H 246.571 -0.666083 -2.45836 0
M  V30 2533 H 247.354 -2.33653 -2.51518 0
M  V30 2534 N 249.799 1.42003 -0.683588 0
M  V30 2535 C 251.024 2.06265 -0.216647 0
M  V30 2536 C 251.449 1.51059 1.12083 0
M  V30 2537 O 250.807 0.632638 1.69904 0
M  V30 2538 C 250.855 3.60191 -0.171759 0
M  V30 2539 O 249.959 4.03396 0.857069 0
M  V30 2540 H 249.3 0.65502 -0.108834 0
M  V30 2541 H 251.83 1.81982 -0.935077 0
M  V30 2542 H 251.84 4.08 0.0014303 0
M  V30 2543 H 250.515 3.99743 -1.14796 0
M  V30 2544 H 249.092 3.67117 0.654208 0
M  V30 2545 N 251.277 0.427512 1.51691 0
M  V30 2546 C 252.502 -0.143601 2.06902 0
M  V30 2547 C 252.927 -1.36536 1.29382 0
M  V30 2548 O 252.285 -1.78289 0.329043 0
M  V30 2549 C 252.333 -0.454207 3.57728 0
M  V30 2550 O 251.437 -1.54228 3.82475 0
M  V30 2551 H 250.778 -0.00617128 0.663971 0
M  V30 2552 H 253.308 0.606014 1.95419 0
M  V30 2553 H 253.318 -0.707525 4.01818 0
M  V30 2554 H 251.993 0.438812 4.13579 0
M  V30 2555 H 250.57 -1.2797 3.50254 0
M  V30 2556 N 252.755 -1.56801 0.158532 0
M  V30 2557 C 254.003 -1.96102 -0.488712 0
M  V30 2558 C 254.324 -1.04498 -1.64636 0
M  V30 2559 O 253.594 -0.108783 -1.95598 0
M  V30 2560 H 252.174 -0.724102 -0.183535 0
M  V30 2561 H 254.836 -1.93457 0.236728 0
M  V30 2562 H 253.932 -3.00097 -0.857219 0
M  V30 2563 N 254.233 0.115231 -1.57178 0
M  V30 2564 C 255.461 0.836437 -1.89239 0
M  V30 2565 C 255.876 1.73256 -0.750175 0
M  V30 2566 O 255.233 1.80357 0.278832 0
M  V30 2567 C 255.284 1.66671 -3.20785 0
M  V30 2568 O 255.005 0.806652 -4.3061 0
M  V30 2569 C 256.506 2.49274 -3.66575 0
M  V30 2570 H 253.726 0.240253 -0.626514 0
M  V30 2571 H 256.27 0.0984932 -2.04263 0
M  V30 2572 H 254.425 2.35737 -3.0742 0
M  V30 2573 H 254.839 1.37969 -5.06028 0
M  V30 2574 H 256.313 3.03055 -4.6137 0
M  V30 2575 H 256.79 3.26807 -2.93417 0
M  V30 2576 H 257.396 1.85443 -3.82741 0
M  V30 2577 N 255.711 1.52812 0.385517 0
M  V30 2578 C 256.96 1.67249 1.12741 0
M  V30 2579 C 257.273 0.4205 1.91027 0
M  V30 2580 O 258.479 0.445064 2.67827 0
M  V30 2581 C 256.935 2.95583 2.05326 0
M  V30 2582 C 256.543 4.27974 1.32447 0
M  V30 2583 C 258.287 3.19386 2.7963 0
M  V30 2584 C 256.194 5.47412 2.23818 0
M  V30 2585 H 255.124 0.6231 0.424573 0
M  V30 2586 H 257.775 1.79309 0.389924 0
M  V30 2587 H 256.157 2.77277 2.82725 0
M  V30 2588 H 257.331 4.56844 0.602495 0
M  V30 2589 H 255.646 4.10459 0.700885 0
M  V30 2590 H 258.243 4.05801 3.48181 0
M  V30 2591 H 258.586 2.34604 3.43899 0
M  V30 2592 H 259.119 3.38274 2.09322 0
M  V30 2593 H 255.858 6.34612 1.64157 0
M  V30 2594 H 255.378 5.22849 2.93921 0
M  V30 2595 H 257.057 5.81423 2.83824 0
M  V30 2596 N 257.189 -0.644168 1.43834 0
M  V30 2597 C 258.6 -1.22554 1.40845 0
M  V30 2598 C 258.951 -1.9585 0.117115 0
M  V30 2599 O 258.076 -2.01734 -0.783086 0
M  V30 2600 C 258.671 -2.22907 2.55143 0
M  V30 2601 C 257.23 -2.76501 2.5539 0
M  V30 2602 C 256.377 -1.51287 2.32396 0
M  V30 2603 H 259.328 -0.43563 1.52604 0
M  V30 2604 H 259.349 -3.05259 2.2715 0
M  V30 2605 H 258.861 -1.69533 3.49114 0
M  V30 2606 H 256.962 -3.33914 1.65324 0
M  V30 2607 H 257.075 -3.23429 3.53455 0
M  V30 2608 H 255.439 -1.78957 1.81236 0
M  V30 2609 H 256.222 -0.998336 3.28463 0
M  V30 2610 N 258.668 -1.30515 -0.883378 0
M  V30 2611 C 259.6 -1.12846 -1.99496 0
M  V30 2612 C 260.613 -0.0712571 -1.62644 0
M  V30 2613 O 261.802 -0.317432 -1.75655 0
M  V30 2614 C 258.902 -0.699123 -3.3161 0
M  V30 2615 C 258.075 -1.83842 -3.96889 0
M  V30 2616 C 257.134 -1.39737 -5.07307 0
M  V30 2617 O 256.16 -2.10485 -5.28852 0
M  V30 2618 N 257.362 -0.277279 -5.79837 0
M  V30 2619 H 260.127 -2.08585 -2.15203 0
M  V30 2620 H 257.688 -1.22672 -1.05656 0
M  V30 2621 H 259.68 -0.387044 -4.02845 0
M  V30 2622 H 258.25 0.166276 -3.12157 0
M  V30 2623 H 257.47 -2.31853 -3.18807 0
M  V30 2624 H 258.758 -2.60187 -4.37241 0
M  V30 2625 H 258.156 0.3122 -5.64838 0
M  V30 2626 H 256.713 -0.0246623 -6.51795 0
M  V30 2627 N 260.146 1.09593 -1.13257 0
M  V30 2628 C 261.109 2.14359 -0.811358 0
M  V30 2629 C 262.109 1.59808 0.178377 0
M  V30 2630 O 263.299 1.74132 -0.0484911 0
M  V30 2631 C 260.431 3.40269 -0.207276 0
M  V30 2632 H 261.624 2.44284 -1.73969 0
M  V30 2633 H 259.177 1.25102 -0.936973 0
M  V30 2634 H 259.912 3.15969 0.73036 0
M  V30 2635 H 259.697 3.81154 -0.919992 0
M  V30 2636 H 261.187 4.176 0.000667944 0
M  V30 2637 N 261.624 0.925811 1.2754 0
M  V30 2638 C 262.571 0.422045 2.26908 0
M  V30 2639 C 263.541 -0.510029 1.58076 0
M  V30 2640 O 264.726 -0.429599 1.85901 0
M  V30 2641 C 261.866 -0.320837 3.43605 0
M  V30 2642 C 260.979 0.64513 4.27156 0
M  V30 2643 C 260.114 -0.117405 5.3107 0
M  V30 2644 C 259.153 0.841391 6.0629 0
M  V30 2645 N 258.29 0.111604 7.02011 0
M  V30 2646 H 263.13 1.27441 2.69375 0
M  V30 2647 H 260.667 0.639697 1.32462 0
M  V30 2648 H 262.625 -0.76785 4.10073 0
M  V30 2649 H 261.255 -1.13745 3.02096 0
M  V30 2650 H 260.307 1.21067 3.6062 0
M  V30 2651 H 261.619 1.37797 4.79389 0
M  V30 2652 H 260.773 -0.624422 6.03478 0
M  V30 2653 H 259.512 -0.883219 4.79636 0
M  V30 2654 H 258.517 1.35967 5.32722 0
M  V30 2655 H 259.742 1.60696 6.59813 0
M  V30 2656 H 257.688 -0.635999 6.5291 0
M  V30 2657 H 257.605 0.784044 7.51923 0
M  V30 2658 H 258.873 -0.374823 7.78598 0
M  V30 2659 N 263.102 -1.41638 0.69111 0
M  V30 2660 C 264.513 -1.84346 0.295517 0
M  V30 2661 C 264.864 -1.57833 -1.16547 0
M  V30 2662 O 263.989 -1.04648 -1.89414 0
M  V30 2663 C 264.584 -3.34636 0.529575 0
M  V30 2664 C 263.143 -3.7593 0.187944 0
M  V30 2665 C 262.29 -2.65082 0.814052 0
M  V30 2666 H 265.241 -1.31253 0.892092 0
M  V30 2667 H 265.262 -3.79903 -0.213148 0
M  V30 2668 H 264.774 -3.53901 1.59297 0
M  V30 2669 H 262.875 -3.62268 -0.871367 0
M  V30 2670 H 262.988 -4.74808 0.63985 0
M  V30 2671 H 261.352 -2.53528 0.244017 0
M  V30 2672 H 262.135 -2.87167 1.88123 0
M  V30 2673 N 264.58 -0.43555 -1.51462 0
M  V30 2674 C 265.808 0.130242 -2.0649 0
M  V30 2675 C 266.223 1.36614 -1.30315 0
M  V30 2676 O 265.58 1.78869 -0.362223 0
M  V30 2677 C 265.631 0.454253 -3.58635 0
M  V30 2678 O 265.352 -0.73259 -4.31931 0
M  V30 2679 C 266.853 1.07091 -4.3017 0
M  V30 2680 H 264.073 0.00871669 -0.670943 0
M  V30 2681 H 266.617 -0.614117 -1.95061 0
M  V30 2682 H 264.772 1.14851 -3.69984 0
M  V30 2683 H 265.186 -0.455787 -5.22516 0
M  V30 2684 H 266.66 1.24764 -5.37716 0
M  V30 2685 H 267.137 2.05144 -3.88346 0
M  V30 2686 H 267.743 0.416089 -4.2326 0
M  V30 2687 N 266.058 1.56714 -0.166846 0
M  V30 2688 C 267.469 1.83378 0.350646 0
M  V30 2689 C 267.82 1.08646 1.63372 0
M  V30 2690 O 266.945 0.338058 2.13743 0
M  V30 2691 C 267.54 3.32643 0.642963 0
M  V30 2692 C 266.099 3.59818 1.10491 0
M  V30 2693 C 265.246 2.76954 0.138411 0
M  V30 2694 H 268.197 1.53803 -0.391193 0
M  V30 2695 H 268.218 3.49878 1.49551 0
M  V30 2696 H 267.73 3.87007 -0.291055 0
M  V30 2697 H 265.831 3.1086 2.05418 0
M  V30 2698 H 265.944 4.68178 1.01716 0
M  V30 2699 H 264.308 2.4666 0.634911 0
M  V30 2700 H 265.091 3.34097 -0.789549 0
M  V30 2701 N 267.536 -0.106894 1.57237 0
M  V30 2702 C 268.782 -0.81373 1.85759 0
M  V30 2703 C 269.115 -1.78952 0.754315 0
M  V30 2704 O 268.39 -1.93029 -0.23879 0
M  V30 2705 C 268.673 -1.55293 3.24894 0
M  V30 2706 C 268.526 -0.595929 4.45835 0
M  V30 2707 C 269.845 -2.5063 3.61763 0
M  V30 2708 H 266.964 -0.294369 0.67566 0
M  V30 2709 H 269.606 -0.0776472 1.89841 0
M  V30 2710 H 267.756 -2.1804 3.21544 0
M  V30 2711 H 269.428 0.0236262 4.61294 0
M  V30 2712 H 267.671 0.0916191 4.33703 0
M  V30 2713 H 268.342 -1.15004 5.39887 0
M  V30 2714 H 270.818 -1.97982 3.65981 0
M  V30 2715 H 269.694 -2.99376 4.60071 0
M  V30 2716 H 269.955 -3.3385 2.89821 0
M  V30 2717 N 269.014 -1.53014 -0.377408 0
M  V30 2718 C 270.239 -1.72818 -1.14668 0
M  V30 2719 C 270.664 -0.450725 -1.8262 0
M  V30 2720 O 270.022 0.59439 -1.7128 0
M  V30 2721 C 270.07 -2.88627 -2.16164 0
M  V30 2722 O 269.174 -2.56409 -3.22998 0
M  V30 2723 H 268.515 -0.574301 -0.333278 0
M  V30 2724 H 271.045 -1.99853 -0.438152 0
M  V30 2725 H 271.055 -3.14455 -2.59966 0
M  V30 2726 H 269.73 -3.81294 -1.66095 0
M  V30 2727 H 268.307 -2.4136 -2.84253 0
M  V30 2728 N 270.492 0.636531 -1.44174 0
M  V30 2729 C 271.903 1.21806 -1.41493 0
M  V30 2730 C 272.254 1.95785 -0.1275 0
M  V30 2731 O 271.379 2.02147 0.772376 0
M  V30 2732 C 271.974 2.21551 -2.56321 0
M  V30 2733 C 270.533 2.75143 -2.56853 0
M  V30 2734 C 269.68 1.50052 -2.33195 0
M  V30 2735 H 272.631 0.427531 -1.52833 0
M  V30 2736 H 272.652 3.0405 -2.28765 0
M  V30 2737 H 272.164 1.67679 -3.50008 0
M  V30 2738 H 270.265 3.33033 -1.67093 0
M  V30 2739 H 270.378 3.2155 -3.55165 0
M  V30 2740 H 268.742 1.77993 -1.82183 0
M  V30 2741 H 269.525 0.980903 -3.28988 0
M  V30 2742 N 271.97 1.30982 0.876444 0
M  V30 2743 C 272.933 1.18054 1.96459 0
M  V30 2744 C 273.933 0.109399 1.60427 0
M  V30 2745 O 275.123 0.358173 1.70478 0
M  V30 2746 C 272.255 0.810616 3.31122 0
M  V30 2747 H 273.448 2.14735 2.09354 0
M  V30 2748 H 271.001 1.145 1.06392 0
M  V30 2749 H 271.736 -0.155322 3.23928 0
M  V30 2750 H 271.521 1.58481 3.58645 0
M  V30 2751 H 273.011 0.743876 4.10921 0
M  V30 2752 N 273.449 -1.08991 1.13837 0
M  V30 2753 C 274.677 -1.85011 0.926202 0
M  V30 2754 C 275.092 -1.8135 -0.525127 0
M  V30 2755 O 274.449 -1.21287 -1.36366 0
M  V30 2756 C 274.5 -3.32802 1.41155 0
M  V30 2757 O 274.221 -3.36444 2.80601 0
M  V30 2758 C 275.722 -4.25649 1.23847 0
M  V30 2759 H 272.942 -0.584249 0.32999 0
M  V30 2760 H 275.486 -1.37688 1.51202 0
M  V30 2761 H 273.641 -3.77536 0.868631 0
M  V30 2762 H 274.055 -4.28657 3.02248 0
M  V30 2763 H 275.529 -5.27485 1.62675 0
M  V30 2764 H 276.006 -4.38828 0.18065 0
M  V30 2765 H 276.612 -3.86735 1.76964 0
M  V30 2766 N 274.927 -0.932562 -1.27047 0
M  V30 2767 C 276.152 -0.591474 -1.98787 0
M  V30 2768 C 276.577 0.824601 -1.69062 0
M  V30 2769 O 275.935 1.5541 -0.933677 0
M  V30 2770 C 275.983 -0.829808 -3.50922 0
M  V30 2771 O 275.087 0.102266 -4.12273 0
M  V30 2772 H 274.428 -0.227185 -0.623926 0
M  V30 2773 H 276.958 -1.25314 -1.61733 0
M  V30 2774 H 276.968 -0.747292 -4.01098 0
M  V30 2775 H 275.643 -1.86201 -3.7189 0
M  V30 2776 H 274.22 -0.0305761 -3.72887 0
M  V30 2777 N 276.405 1.4127 -0.698611 0
M  V30 2778 C 277.63 2.06024 -0.238512 0
M  V30 2779 C 278.055 1.5224 1.10475 0
M  V30 2780 O 277.413 0.650623 1.69223 0
M  V30 2781 C 277.461 3.59988 -0.209952 0
M  V30 2782 O 276.565 4.04282 0.814235 0
M  V30 2783 H 275.906 0.653829 -0.115775 0
M  V30 2784 H 278.436 1.8098 -0.954326 0
M  V30 2785 H 278.446 4.07979 -0.0418436 0
M  V30 2786 H 277.121 3.98503 -1.1903 0
M  V30 2787 H 275.698 3.6779 0.615234 0
M  V30 2788 N 277.883 0.443576 1.51229 0
M  V30 2789 C 278.846 -0.353132 2.26463 0
M  V30 2790 C 279.846 -0.944338 1.3015 0
M  V30 2791 O 281.036 -0.817813 1.5381 0
M  V30 2792 C 278.168 -1.50023 3.06114 0
M  V30 2793 H 279.361 0.3063 2.98332 0
M  V30 2794 H 276.914 0.196902 1.55055 0
M  V30 2795 H 277.649 -2.19553 2.38677 0
M  V30 2796 H 277.434 -1.08241 3.76864 0
M  V30 2797 H 278.924 -2.06296 3.63087 0
M  V30 2798 N 279.361 -1.56624 0.175154 0
M  V30 2799 C 280.586 -2.01813 -0.478137 0
M  V30 2800 C 281.011 -1.05457 -1.55757 0
M  V30 2801 O 280.369 -0.0347439 -1.81267 0
M  V30 2802 C 280.417 -3.45581 -1.02987 0
M  V30 2803 O 279.521 -3.52305 -2.14371 0
M  V30 2804 H 278.862 -0.65413 -0.114059 0
M  V30 2805 H 281.392 -2.02673 0.280173 0
M  V30 2806 H 281.402 -3.84965 -1.35151 0
M  V30 2807 H 280.077 -4.1521 -0.239556 0
M  V30 2808 H 278.654 -3.24783 -1.83222 0
M  V30 2809 N 280.839 0.0985539 -1.57292 0
M  V30 2810 C 282.067 0.816318 -1.90115 0
M  V30 2811 C 282.482 1.72451 -0.768509 0
M  V30 2812 O 281.839 1.80643 0.259687 0
M  V30 2813 C 281.89 1.63259 -3.22535 0
M  V30 2814 O 281.611 0.760934 -4.31441 0
M  V30 2815 C 283.112 2.45372 -3.69199 0
M  V30 2816 H 280.332 0.233595 -0.629027 0
M  V30 2817 H 282.876 0.0768229 -2.04356 0
M  V30 2818 H 281.031 2.32463 -3.09903 0
M  V30 2819 H 281.445 1.32595 -5.07463 0
M  V30 2820 H 282.919 2.98144 -4.64558 0
M  V30 2821 H 283.396 3.23677 -2.96867 0
M  V30 2822 H 284.002 1.81373 -3.84687 0
M  V30 2823 N 282.317 1.53212 0.369288 0
M  V30 2824 C 283.25 1.74166 1.4745 0
M  V30 2825 C 284.228 0.589923 1.51521 0
M  V30 2826 O 285.412 0.822078 1.69629 0
M  V30 2827 C 282.539 1.81711 2.8583 0
M  V30 2828 C 281.585 3.03649 2.99499 0
M  V30 2829 S 282.418 4.63242 2.6864 0
M  V30 2830 C 283.574 4.7363 4.09177 0
M  V30 2831 H 283.807 2.67636 1.29454 0
M  V30 2832 H 281.34 1.43754 0.563396 0
M  V30 2833 H 283.298 1.86743 3.65564 0
M  V30 2834 H 281.959 0.89299 3.01139 0
M  V30 2835 H 281.152 3.05526 4.00836 0
M  V30 2836 H 280.754 2.9671 2.27683 0
M  V30 2837 H 283.046 4.53456 5.03372 0
M  V30 2838 H 283.989 5.75682 4.12306 0
M  V30 2839 H 284.397 4.02295 3.96004 0
M  V30 2840 N 283.795 -0.628877 1.44509 0
M  V30 2841 C 285.206 -1.21054 1.42137 0
M  V30 2842 C 285.557 -1.95715 0.137881 0
M  V30 2843 O 284.682 -2.02554 -0.761645 0
M  V30 2844 C 285.277 -2.20189 2.57493 0
M  V30 2845 C 283.836 -2.73777 2.58308 0
M  V30 2846 C 282.983 -1.48813 2.33987 0
M  V30 2847 H 285.934 -0.41942 1.53057 0
M  V30 2848 H 285.955 -3.02833 2.30375 0
M  V30 2849 H 285.467 -1.6582 3.50892 0
M  V30 2850 H 283.568 -3.32142 1.68856 0
M  V30 2851 H 283.681 -3.19662 3.56865 0
M  V30 2852 H 282.045 -1.77024 1.83124 0
M  V30 2853 H 282.828 -0.963442 3.29504 0
M  V30 2854 N 285.273 -1.31445 -0.869486 0
M  V30 2855 C 286.519 -1.21337 -1.62496 0
M  V30 2856 C 286.852 0.227872 -1.92858 0
M  V30 2857 O 286.127 1.16094 -1.56053 0
M  V30 2858 C 286.41 -2.05814 -2.95487 0
M  V30 2859 C 286.263 -3.5824 -2.72 0
M  V30 2860 C 287.582 -1.9079 -3.96594 0
M  V30 2861 H 284.701 -0.442135 -0.589649 0
M  V30 2862 H 287.343 -1.6124 -1.00507 0
M  V30 2863 H 285.493 -1.71913 -3.48394 0
M  V30 2864 H 287.165 -4.0228 -2.25762 0
M  V30 2865 H 285.408 -3.81647 -2.06224 0
M  V30 2866 H 286.079 -4.12657 -3.66631 0
M  V30 2867 H 288.555 -2.20459 -3.52898 0
M  V30 2868 H 287.431 -2.52199 -4.87531 0
M  V30 2869 H 287.692 -0.871341 -4.33428 0
M  V30 2870 N 286.751 1.08385 -1.14413 0
M  V30 2871 C 288.167 1.32844 -0.884563 0
M  V30 2872 C 288.367 1.95841 0.474181 0
M  V30 2873 O 287.423 2.21158 1.21842 0
M  V30 2874 C 288.736 2.22978 -2.01745 0
M  V30 2875 C 290.284 2.36458 -2.05077 0
M  V30 2876 C 290.759 3.29934 -3.1766 0
M  V30 2877 N 292.25 3.37511 -3.17239 0
M  V30 2878 C 292.985 4.09871 -4.0099 0
M  V30 2879 N 292.481 4.84936 -4.94781 0
M  V30 2880 N 294.274 4.05704 -3.89051 0
M  V30 2881 H 286.425 0.658756 -2.01926 0
M  V30 2882 H 288.688 0.352821 -0.879899 0
M  V30 2883 H 288.394 1.83934 -2.99769 0
M  V30 2884 H 288.268 3.23441 -1.94077 0
M  V30 2885 H 290.655 2.7476 -1.0766 0
M  V30 2886 H 290.736 1.35736 -2.16816 0
M  V30 2887 H 290.38 2.92352 -4.15322 0
M  V30 2888 H 290.31 4.30584 -3.03158 0
M  V30 2889 H 292.801 2.83996 -2.49308 0
M  V30 2890 H 293.114 5.37612 -5.55151 0
M  V30 2891 H 291.459 4.83988 -4.98779 0
M  V30 2892 H 294.65 3.46167 -3.15097 0
M  V30 2893 H 294.823 4.61834 -4.54547 0
M  V30 2894 N 288.23 0.939286 1.26551 0
M  V30 2895 C 289.478 0.58469 1.93457 0
M  V30 2896 C 289.799 -0.878774 1.74076 0
M  V30 2897 O 289.069 -1.62421 1.09528 0
M  V30 2898 H 287.649 0.21325 0.715914 0
M  V30 2899 H 290.311 1.1942 1.54029 0
M  V30 2900 H 289.407 0.800849 3.0165 0
M  V30 2901 N 289.708 -1.40897 0.706093 0
M  V30 2902 C 290.956 -2.00657 0.241054 0
M  V30 2903 C 291.277 -1.56241 -1.16678 0
M  V30 2904 O 290.547 -0.79765 -1.78926 0
M  V30 2905 H 289.127 -0.742018 0.0861308 0
M  V30 2906 H 291.789 -1.72372 0.909604 0
M  V30 2907 H 290.885 -3.10958 0.266705 0
M  V30 2908 N 291.186 -0.45159 -1.50991 0
M  V30 2909 C 292.414 0.108334 -2.06616 0
M  V30 2910 C 292.829 1.35224 -1.31757 0
M  V30 2911 O 292.186 1.78475 -0.381174 0
M  V30 2912 C 292.237 0.41619 -3.59096 0
M  V30 2913 O 291.958 -0.778361 -4.3113 0
M  V30 2914 C 293.459 1.02523 -4.31282 0
M  V30 2915 H 290.679 0.00159995 -0.670998 0
M  V30 2916 H 293.223 -0.634771 -1.94399 0
M  V30 2917 H 291.378 1.10921 -3.71181 0
M  V30 2918 H 291.792 -0.511181 -5.22003 0
M  V30 2919 H 293.266 1.19053 -5.39009 0
M  V30 2920 H 293.743 2.01013 -3.905 0
M  V30 2921 H 294.349 0.371173 -4.23677 0
M  V30 2922 N 292.664 1.56529 -0.183458 0
M  V30 2923 C 294.08 1.58664 0.172554 0
M  V30 2924 C 294.28 1.19925 1.61926 0
M  V30 2925 O 293.336 0.916534 2.35278 0
M  V30 2926 C 294.649 3.00463 -0.119262 0
M  V30 2927 C 296.197 3.12945 -0.0584396 0
M  V30 2928 C 296.672 4.56857 -0.323408 0
M  V30 2929 N 298.163 4.62403 -0.271612 0
M  V30 2930 C 298.898 5.71626 -0.450639 0
M  V30 2931 N 298.394 6.89362 -0.689384 0
M  V30 2932 N 300.187 5.60775 -0.385701 0
M  V30 2933 H 292.338 1.79994 -1.12765 0
M  V30 2934 H 294.601 0.834808 -0.449222 0
M  V30 2935 H 294.307 3.33326 -1.12192 0
M  V30 2936 H 294.181 3.72659 0.583544 0
M  V30 2937 H 296.568 2.79902 0.934805 0
M  V30 2938 H 296.649 2.4316 -0.794144 0
M  V30 2939 H 296.293 4.9061 -1.31392 0
M  V30 2940 H 296.223 5.24816 0.43305 0
M  V30 2941 H 298.714 3.77785 -0.0932256 0
M  V30 2942 H 299.027 7.68489 -0.815113 0
M  V30 2943 H 297.372 6.91196 -0.726142 0
M  V30 2944 H 300.563 4.67674 -0.199687 0
M  V30 2945 H 300.736 6.4584 -0.528646 0
M  V30 2946 N 294.142 -0.090211 1.57342 0
M  V30 2947 C 295.072 -1.10976 2.05443 0
M  V30 2948 C 296.053 -1.41482 0.944284 0
M  V30 2949 O 297.238 -1.51428 1.21586 0
M  V30 2950 C 294.368 -2.42831 2.48295 0
M  V30 2951 C 293.322 -2.26721 3.63018 0
M  V30 2952 C 292.648 -3.63796 3.91863 0
M  V30 2953 C 293.948 -1.7037 4.93732 0
M  V30 2954 H 295.642 -0.709564 2.9087 0
M  V30 2955 H 293.188 -0.339874 1.39932 0
M  V30 2956 H 295.141 -3.14431 2.80555 0
M  V30 2957 H 293.865 -2.84795 1.59873 0
M  V30 2958 H 292.524 -1.57565 3.31012 0
M  V30 2959 H 292.172 -4.03297 3.00601 0
M  V30 2960 H 291.872 -3.53861 4.69101 0
M  V30 2961 H 293.396 -4.36855 4.26603 0
M  V30 2962 H 294.81 -2.31816 5.24342 0
M  V30 2963 H 293.207 -1.71181 5.75167 0
M  V30 2964 H 294.277 -0.663542 4.80339 0
M  V30 2965 N 295.62 -1.53406 -0.361157 0
M  V30 2966 C 296.583 -1.79479 -1.42548 0
M  V30 2967 C 297.583 -0.665327 -1.4639 0
M  V30 2968 O 298.773 -0.933549 -1.47073 0
M  V30 2969 C 295.905 -1.92087 -2.8163 0
M  V30 2970 H 297.098 -2.74538 -1.20701 0
M  V30 2971 H 294.651 -1.4455 -0.594546 0
M  V30 2972 H 295.386 -0.991099 -3.08784 0
M  V30 2973 H 295.171 -2.74241 -2.80239 0
M  V30 2974 H 296.661 -2.13836 -3.58697 0
M  V30 2975 N 297.098 0.621204 -1.44841 0
M  V30 2976 C 298.03 1.74615 -1.48466 0
M  V30 2977 C 299.043 1.58377 -0.37691 0
M  V30 2978 O 300.232 1.66508 -0.643215 0
M  V30 2979 C 297.332 3.12459 -1.31236 0
M  V30 2980 C 296.505 3.55064 -2.55438 0
M  V30 2981 C 295.564 4.71821 -2.32963 0
M  V30 2982 O 294.59 4.79628 -3.06505 0
M  V30 2983 N 295.792 5.64186 -1.36654 0
M  V30 2984 H 298.557 1.71973 -2.45449 0
M  V30 2985 H 296.118 0.806077 -1.40407 0
M  V30 2986 H 298.11 3.88302 -1.14032 0
M  V30 2987 H 296.68 3.09686 -0.4258 0
M  V30 2988 H 295.9 2.69324 -2.87851 0
M  V30 2989 H 297.188 3.80284 -3.38026 0
M  V30 2990 H 296.586 5.6058 -0.759344 0
M  V30 2991 H 295.143 6.39618 -1.25425 0
M  V30 2992 N 298.576 1.31904 0.862503 0
M  V30 2993 C 299.486 1.22161 2.00285 0
M  V30 2994 C 300.502 0.136785 1.73462 0
M  V30 2995 O 301.678 0.355994 1.98229 0
M  V30 2996 C 298.743 0.937093 3.33796 0
M  V30 2997 C 297.804 2.10957 3.73893 0
M  V30 2998 C 297.037 1.83853 5.01033 0
M  V30 2999 O 297.26 0.777274 5.65079 0
M  V30 3000 O 296.194 2.69741 5.38074 0
M  V30 3001 H 300.02 2.18008 2.11439 0
M  V30 3002 H 297.605 1.11716 0.991957 0
M  V30 3003 H 299.487 0.794583 4.13841 0
M  V30 3004 H 298.162 0.00871894 3.23699 0
M  V30 3005 H 297.069 2.30752 2.94456 0
M  V30 3006 H 298.402 3.02046 3.88625 0
M  V30 3007 N 300.054 -1.07777 1.14986 0
M  V30 3008 C 301.017 -2.13041 0.845358 0
M  V30 3009 C 302.017 -1.60071 -0.152931 0
M  V30 3010 O 303.207 -1.74033 0.0761879 0
M  V30 3011 C 300.339 -3.39896 0.261383 0
M  V30 3012 H 301.532 -2.41485 1.77834 0
M  V30 3013 H 299.085 -1.23595 0.956757 0
M  V30 3014 H 299.82 -3.17091 -0.68 0
M  V30 3015 H 299.605 -3.79642 0.980514 0
M  V30 3016 H 301.095 -4.17548 0.0657687 0
M  V30 3017 N 301.532 -0.945985 -1.26051 0
M  V30 3018 C 302.495 -0.463897 -2.24456 0
M  V30 3019 C 303.495 0.427655 -1.55009 0
M  V30 3020 O 304.685 0.226157 -1.72726 0
M  V30 3021 C 301.817 0.330812 -3.39291 0
M  V30 3022 H 303.01 -1.33357 -2.68619 0
M  V30 3023 H 300.563 -0.728416 -1.38289 0
M  V30 3024 H 301.298 1.21852 -3.00537 0
M  V30 3025 H 301.083 -0.308679 -3.90883 0
M  V30 3026 H 302.573 0.657865 -4.12386 0
M  V30 3027 N 303.011 1.40521 -0.713556 0
M  V30 3028 C 304.236 2.05759 -0.26035 0
M  V30 3029 C 304.661 1.53403 1.08854 0
M  V30 3030 O 304.019 0.668535 1.68524 0
M  V30 3031 C 304.067 3.59745 -0.248122 0
M  V30 3032 O 303.171 4.05123 0.77131 0
M  V30 3033 H 302.512 0.652564 -0.122703 0
M  V30 3034 H 305.042 1.79958 -0.973467 0
M  V30 3035 H 305.052 4.07911 -0.0851129 0
M  V30 3036 H 303.727 3.97218 -1.2325 0
M  V30 3037 H 302.304 3.68422 0.57619 0
M  V30 3038 N 304.489 0.459591 1.5075 0
M  V30 3039 C 305.436 -0.340524 2.28274 0
M  V30 3040 C 306.406 -0.997371 1.32822 0
M  V30 3041 O 307.591 -1.01202 1.61749 0
M  V30 3042 C 304.731 -1.42317 3.14388 0
M  V30 3043 C 303.844 -0.782251 4.24859 0
M  V30 3044 C 302.979 -1.84182 4.98247 0
M  V30 3045 C 302.018 -1.18053 6.00608 0
M  V30 3046 N 301.155 -2.18244 6.67319 0
M  V30 3047 H 305.995 0.326899 2.96202 0
M  V30 3048 H 303.532 0.173057 1.46078 0
M  V30 3049 H 305.49 -2.06241 3.62658 0
M  V30 3050 H 304.12 -2.05992 2.4853 0
M  V30 3051 H 303.172 -0.0307404 3.80388 0
M  V30 3052 H 304.484 -0.259663 4.98124 0
M  V30 3053 H 303.638 -2.55714 5.50177 0
M  V30 3054 H 302.377 -2.39819 4.24662 0
M  V30 3055 H 301.382 -0.450776 5.47949 0
M  V30 3056 H 302.607 -0.631202 6.7616 0
M  V30 3057 H 300.553 -2.72919 5.96533 0
M  V30 3058 H 300.47 -1.70938 7.36421 0
M  V30 3059 H 301.738 -2.89191 7.23871 0
M  V30 3060 N 305.967 -1.56429 0.191757 0
M  V30 3061 C 306.897 -2.21937 -0.725696 0
M  V30 3062 C 307.878 -1.1814 -1.2238 0
M  V30 3063 O 309.063 -1.46636 -1.27325 0
M  V30 3064 C 306.193 -2.87611 -1.94672 0
M  V30 3065 C 305.147 -3.97623 -1.58366 0
M  V30 3066 C 304.473 -4.50446 -2.88102 0
M  V30 3067 C 305.773 -5.16197 -0.796133 0
M  V30 3068 H 307.467 -2.98861 -0.179606 0
M  V30 3069 H 305.013 -1.43749 -0.0849464 0
M  V30 3070 H 306.966 -3.3212 -2.59373 0
M  V30 3071 H 305.69 -2.08087 -2.51728 0
M  V30 3072 H 304.349 -3.53801 -0.960247 0
M  V30 3073 H 303.997 -3.67688 -3.43241 0
M  V30 3074 H 303.697 -5.24675 -2.64556 0
M  V30 3075 H 305.221 -4.97654 -3.53798 0
M  V30 3076 H 306.635 -5.57271 -1.34618 0
M  V30 3077 H 305.032 -5.96471 -0.658928 0
M  V30 3078 H 306.102 -4.84473 0.203478 0
M  V30 3079 N 307.445 0.0818655 -1.57387 0
M  V30 3080 C 308.673 0.796108 -1.9097 0
M  V30 3081 C 309.088 1.71626 -0.786757 0
M  V30 3082 O 308.445 1.80908 0.240513 0
M  V30 3083 C 308.496 1.59829 -3.24248 0
M  V30 3084 O 308.217 0.715131 -4.32224 0
M  V30 3085 C 309.718 2.41442 -3.7178 0
M  V30 3086 H 306.938 0.22691 -0.631469 0
M  V30 3087 H 309.482 0.0551439 -2.04426 0
M  V30 3088 H 307.637 2.29163 -3.12351 0
M  V30 3089 H 308.051 1.27205 -5.08841 0
M  V30 3090 H 309.525 2.932 -4.67694 0
M  V30 3091 H 310.002 3.2051 -3.00283 0
M  V30 3092 H 310.608 1.77283 -3.86589 0
M  V30 3093 N 308.923 1.53595 0.353017 0
M  V30 3094 C 310.339 1.43648 0.695516 0
M  V30 3095 C 310.539 0.585617 1.92802 0
M  V30 3096 O 309.595 0.0729223 2.52395 0
M  V30 3097 C 310.908 2.8701 0.896991 0
M  V30 3098 C 312.456 2.96723 0.996209 0
M  V30 3099 C 312.931 4.41173 1.23007 0
M  V30 3100 N 314.422 4.44657 1.29749 0
M  V30 3101 C 315.157 5.53547 1.49577 0
M  V30 3102 N 314.653 6.72461 1.66639 0
M  V30 3103 N 316.446 5.41145 1.52048 0
M  V30 3104 H 308.597 2.07415 -0.457481 0
M  V30 3105 H 310.86 0.9372 -0.142687 0
M  V30 3106 H 310.566 3.51644 0.0629938 0
M  V30 3107 H 310.44 3.31401 1.80148 0
M  V30 3108 H 312.827 2.32235 1.82074 0
M  V30 3109 H 312.908 2.55707 0.0688331 0
M  V30 3110 H 312.552 5.06238 0.410505 0
M  V30 3111 H 312.482 4.79772 2.17086 0
M  V30 3112 H 314.973 3.58963 1.18126 0
M  V30 3113 H 315.286 7.51214 1.81378 0
M  V30 3114 H 313.631 6.75423 1.63794 0
M  V30 3115 H 316.822 4.47205 1.38294 0
M  V30 3116 H 316.995 6.26068 1.67159 0
M  V30 3117 N 310.401 -0.613514 1.45168 0
M  V30 3118 C 311.364 -1.7065 1.53007 0
M  V30 3119 C 312.364 -1.5548 0.410184 0
M  V30 3120 O 313.554 -1.60656 0.673455 0
M  V30 3121 C 310.686 -3.09875 1.42093 0
M  V30 3122 H 311.879 -1.65068 2.50385 0
M  V30 3123 H 309.432 -0.828728 1.32521 0
M  V30 3124 H 310.167 -3.21039 0.458769 0
M  V30 3125 H 309.952 -3.22293 2.23315 0
M  V30 3126 H 311.442 -3.895 1.50598 0
M  V30 3127 N 311.879 -1.3236 -0.855495 0
M  V30 3128 C 313.29 -1.2056 -1.42556 0
M  V30 3129 C 313.641 0.182209 -1.95352 0
M  V30 3130 O 312.766 1.08088 -1.87472 0
M  V30 3131 C 313.361 -2.1826 -2.59129 0
M  V30 3132 C 311.92 -2.10351 -3.12137 0
M  V30 3133 C 311.067 -2.06674 -1.84882 0
M  V30 3134 H 314.018 -1.442 -0.662727 0
M  V30 3135 H 314.039 -1.78064 -3.36264 0
M  V30 3136 H 313.551 -3.19257 -2.20673 0
M  V30 3137 H 311.652 -1.12599 -3.55179 0
M  V30 3138 H 311.765 -3.00135 -3.73438 0
M  V30 3139 H 310.129 -1.51901 -2.04446 0
M  V30 3140 H 310.912 -3.09451 -1.48643 0
M  V30 3141 N 313.357 1.07166 -1.15556 0
M  V30 3142 C 314.634 1.76546 -0.842069 0
M  V30 3143 C 315.014 2.00453 0.661939 0
M  V30 3144 O 314.362 1.62452 1.60691 0
M  V30 3145 C 314.572 3.07266 -1.65495 0
M  V30 3146 C 315.92 3.81578 -1.86234 0
M  V30 3147 O 316.944 3.17083 -1.62287 0
M  V30 3148 O 315.803 4.97419 -2.26355 0
M  V30 3149 H 312.897 0.766756 -0.309862 0
M  V30 3150 H 315.443 1.13514 -1.26145 0
M  V30 3151 H 314.215 2.85494 -2.67598 0
M  V30 3152 H 313.838 3.7803 -1.23203 0
M  V30 3153 N 314.835 0.952656 1.25548 0
M  V30 3154 C 316.06 0.623025 1.97821 0
M  V30 3155 C 316.485 -0.7976 1.70352 0
M  V30 3156 O 315.843 -1.53905 0.958283 0
M  V30 3157 C 315.891 0.885532 3.49558 0
M  V30 3158 O 314.995 -0.0366641 4.12384 0
M  V30 3159 H 314.336 0.237082 0.620232 0
M  V30 3160 H 316.866 1.27871 1.59719 0
M  V30 3161 H 316.876 0.811009 3.99858 0
M  V30 3162 H 315.551 1.92094 3.6888 0
M  V30 3163 H 314.128 0.0898954 3.72792 0
M  V30 3164 N 316.313 -1.40141 0.720998 0
M  V30 3165 C 317.724 -1.83678 0.334553 0
M  V30 3166 C 318.075 -1.6027 -1.13173 0
M  V30 3167 O 317.2 -1.08643 -1.87152 0
M  V30 3168 C 317.795 -3.33437 0.600437 0
M  V30 3169 C 316.354 -3.75447 0.267642 0
M  V30 3170 C 315.501 -2.63296 0.870097 0
M  V30 3171 H 318.452 -1.29331 0.919732 0
M  V30 3172 H 318.473 -3.80269 -0.132517 0
M  V30 3173 H 317.985 -3.50442 1.66768 0
M  V30 3174 H 316.086 -3.64035 -0.794329 0
M  V30 3175 H 316.199 -4.73344 0.74042 0
M  V30 3176 H 314.563 -2.52954 0.297739 0
M  V30 3177 H 315.346 -2.83112 1.94172 0
M  V30 3178 N 317.792 -0.46758 -1.50504 0
M  V30 3179 C 319.017 0.0886943 -2.0721 0
M  V30 3180 C 319.442 1.33057 -1.32956 0
M  V30 3181 O 318.8 1.77354 -0.376197 0
M  V30 3182 C 318.848 0.359202 -3.58806 0
M  V30 3183 O 317.952 1.44034 -3.8643 0
M  V30 3184 H 317.293 -0.0114349 -0.663902 0
M  V30 3185 H 319.823 -0.657613 -1.93744 0
M  V30 3186 H 319.833 0.600742 -4.03553 0
M  V30 3187 H 318.508 -0.548311 -4.1227 0
M  V30 3188 H 317.085 1.18638 -3.53524 0
M  V30 3189 N 319.27 1.56325 -0.20005 0
M  V30 3190 C 320.495 2.02548 0.44597 0
M  V30 3191 C 320.92 1.07922 1.5406 0
M  V30 3192 O 320.278 0.0635775 1.81188 0
M  V30 3193 C 320.326 3.47175 0.974761 0
M  V30 3194 O 319.43 3.55671 2.08739 0
M  V30 3195 H 318.771 0.655862 0.103638 0
M  V30 3196 H 321.301 2.02201 -0.312381 0
M  V30 3197 H 321.311 3.87067 1.2901 0
M  V30 3198 H 319.986 4.15538 0.17347 0
M  V30 3199 H 318.563 3.27657 1.78032 0
M  V30 3200 N 320.748 -0.0735177 1.57428 0
M  V30 3201 C 321.994 -0.774145 1.87443 0
M  V30 3202 C 322.327 -1.77311 0.792103 0
M  V30 3203 O 321.602 -1.93492 -0.197793 0
M  V30 3204 C 321.885 -1.48367 3.28115 0
M  V30 3205 C 321.738 -0.501227 4.46999 0
M  V30 3206 C 323.057 -2.429 3.66998 0
M  V30 3207 H 320.176 -0.279971 0.681752 0
M  V30 3208 H 322.818 -0.0373616 1.89963 0
M  V30 3209 H 320.968 -2.11171 3.26097 0
M  V30 3210 H 322.64 0.121468 4.6114 0
M  V30 3211 H 320.883 0.183593 4.33411 0
M  V30 3212 H 321.554 -1.03526 5.42205 0
M  V30 3213 H 324.03 -1.90175 3.70098 0
M  V30 3214 H 322.906 -2.89549 4.66318 0
M  V30 3215 H 323.167 -3.27628 2.96837 0
M  V30 3216 N 322.226 -1.5378 -0.344866 0
M  V30 3217 C 323.474 -1.70625 -1.08311 0
M  V30 3218 C 323.795 -0.471447 -1.89215 0
M  V30 3219 O 323.065 0.514616 -1.8902 0
M  V30 3220 H 321.645 -0.629058 -0.402859 0
M  V30 3221 H 324.307 -1.9103 -0.386459 0
M  V30 3222 H 323.403 -2.57656 -1.76124 0
M  V30 3223 N 323.704 0.605807 -1.45491 0
M  V30 3224 C 325.12 0.926751 -1.29936 0
M  V30 3225 C 325.32 1.99896 -0.253706 0
M  V30 3226 O 324.376 2.50038 0.351737 0
M  V30 3227 C 325.689 1.36599 -2.67883 0
M  V30 3228 C 327.237 1.4801 -2.75793 0
M  V30 3229 C 327.712 1.95309 -4.14268 0
M  V30 3230 N 329.203 2.0254 -4.16571 0
M  V30 3231 C 329.938 2.40363 -5.20589 0
M  V30 3232 N 329.434 2.77143 -6.34952 0
M  V30 3233 N 331.227 2.40718 -5.07948 0
M  V30 3234 H 323.378 -0.102862 -2.12151 0
M  V30 3235 H 325.641 0.016639 -0.947854 0
M  V30 3236 H 325.347 0.652306 -3.45598 0
M  V30 3237 H 325.221 2.33215 -2.96463 0
M  V30 3238 H 327.608 2.1847 -1.98381 0
M  V30 3239 H 327.689 0.497041 -2.50925 0
M  V30 3240 H 327.333 1.25436 -4.92167 0
M  V30 3241 H 327.263 2.94532 -4.3653 0
M  V30 3242 H 329.754 1.76699 -3.34045 0
M  V30 3243 H 330.067 3.0489 -7.10114 0
M  V30 3244 H 328.412 2.74834 -6.3835 0
M  V30 3245 H 331.603 2.11392 -4.1765 0
M  V30 3246 H 331.776 2.69869 -5.89131 0
M  V30 3247 N 325.182 1.32811 0.848464 0
M  V30 3248 C 326.593 1.21315 1.41914 0
M  V30 3249 C 326.944 -0.171847 1.95446 0
M  V30 3250 O 326.069 -1.07093 1.88043 0
M  V30 3251 C 326.664 2.19631 2.57968 0
M  V30 3252 C 325.223 2.12003 3.11017 0
M  V30 3253 C 324.37 2.07651 1.83783 0
M  V30 3254 H 327.321 1.44549 0.655071 0
M  V30 3255 H 327.342 1.79845 3.35315 0
M  V30 3256 H 326.854 3.20423 2.18976 0
M  V30 3257 H 324.955 1.14481 3.54577 0
M  V30 3258 H 325.068 3.02111 3.71841 0
M  V30 3259 H 323.432 1.52983 2.03638 0
M  V30 3260 H 324.215 3.10235 1.47 0
M  V30 3261 N 326.66 -1.06551 1.16123 0
M  V30 3262 C 327.885 -1.83544 0.965735 0
M  V30 3263 C 328.31 -1.81843 -0.481102 0
M  V30 3264 O 327.668 -1.21732 -1.34354 0
M  V30 3265 C 327.716 -3.28169 1.49457 0
M  V30 3266 O 326.82 -4.0643 0.699157 0
M  V30 3267 H 326.161 -0.568026 0.343864 0
M  V30 3268 H 328.691 -1.34362 1.54299 0
M  V30 3269 H 328.701 -3.78992 1.51092 0
M  V30 3270 H 327.376 -3.28722 2.54784 0
M  V30 3271 H 325.953 -3.65216 0.7531 0
M  V30 3272 N 328.138 -0.959301 -1.25041 0
M  V30 3273 C 329.363 -0.633507 -1.97488 0
M  V30 3274 C 329.788 0.788555 -1.70773 0
M  V30 3275 O 329.146 1.53394 -0.966431 0
M  V30 3276 C 329.194 -0.904057 -3.49083 0
M  V30 3277 O 328.298 0.0147939 -4.12397 0
M  V30 3278 H 327.639 -0.240368 -0.618966 0
M  V30 3279 H 330.169 -1.28717 -1.59038 0
M  V30 3280 H 330.179 -0.832203 -3.99423 0
M  V30 3281 H 328.854 -1.94048 -3.67856 0
M  V30 3282 H 327.431 -0.109664 -3.72739 0
M  V30 3283 N 329.616 1.39756 -0.72842 0
M  V30 3284 C 330.893 1.94574 -0.200079 0
M  V30 3285 C 331.273 1.66569 1.29684 0
M  V30 3286 O 330.621 0.990326 2.05924 0
M  V30 3287 C 330.831 3.45004 -0.526608 0
M  V30 3288 C 332.179 4.21965 -0.472318 0
M  V30 3289 O 333.203 3.53173 -0.463413 0
M  V30 3290 O 332.062 5.44552 -0.461075 0
M  V30 3291 H 329.156 0.826289 -0.0342851 0
M  V30 3292 H 331.702 1.49293 -0.806829 0
M  V30 3293 H 330.474 3.58796 -1.56144 0
M  V30 3294 H 330.097 3.97449 0.109449 0
M  V30 3295 N 331.094 0.475555 1.50254 0
M  V30 3296 C 332.505 0.0215174 1.86688 0
M  V30 3297 C 332.856 -1.38467 1.39001 0
M  V30 3298 O 331.981 -2.02732 0.756894 0
M  V30 3299 C 332.576 0.0322715 3.38785 0
M  V30 3300 C 331.135 -0.366314 3.74613 0
M  V30 3301 C 330.282 0.415832 2.74164 0
M  V30 3302 H 333.233 0.689612 1.42934 0
M  V30 3303 H 333.254 -0.76889 3.7265 0
M  V30 3304 H 332.766 1.05584 3.73462 0
M  V30 3305 H 330.867 -1.39406 3.45538 0
M  V30 3306 H 330.98 -0.064555 4.79057 0
M  V30 3307 H 329.344 -0.131048 2.54363 0
M  V30 3308 H 330.127 1.43899 3.11686 0
M  V30 3309 N 332.573 -1.56217 0.208337 0
M  V30 3310 C 333.821 -1.97558 -0.426076 0
M  V30 3311 C 334.142 -1.09683 -1.61229 0
M  V30 3312 O 333.412 -0.170956 -1.95153 0
M  V30 3313 H 331.992 -0.729575 -0.160405 0
M  V30 3314 H 334.654 -1.92606 0.298155 0
M  V30 3315 H 333.75 -3.02672 -0.761312 0
M  V30 3316 N 334.051 0.0651679 -1.57465 0
M  V30 3317 C 334.981 1.07693 -2.07182 0
M  V30 3318 C 335.962 1.39962 -0.966673 0
M  V30 3319 O 337.147 1.49475 -1.2398 0
M  V30 3320 C 334.277 2.3885 -2.52127 0
M  V30 3321 C 333.231 2.20917 -3.66579 0
M  V30 3322 C 332.557 3.57515 -3.97601 0
M  V30 3323 C 333.857 1.62493 -4.9638 0
M  V30 3324 H 335.551 0.663199 -2.91962 0
M  V30 3325 H 333.097 0.317569 -1.40455 0
M  V30 3326 H 335.05 3.09928 -2.85522 0
M  V30 3327 H 333.774 2.82215 -1.64384 0
M  V30 3328 H 332.433 1.52279 -3.33477 0
M  V30 3329 H 332.081 3.98463 -3.06979 0
M  V30 3330 H 331.781 3.46353 -4.74672 0
M  V30 3331 H 333.305 4.30013 -4.33499 0
M  V30 3332 H 334.719 2.23445 -5.27963 0
M  V30 3333 H 333.116 1.62009 -5.77818 0
M  V30 3334 H 334.186 0.587041 -4.81333 0
M  V30 3335 N 335.529 1.53961 0.336706 0
M  V30 3336 C 336.754 1.75797 1.10046 0
M  V30 3337 C 337.179 0.498985 1.81361 0
M  V30 3338 O 336.537 -0.548769 1.72795 0
M  V30 3339 C 336.585 2.94257 2.08436 0
M  V30 3340 O 335.689 2.64883 3.16087 0
M  V30 3341 H 335.03 0.582936 0.317934 0
M  V30 3342 H 337.56 2.00945 0.38501 0
M  V30 3343 H 337.57 3.21237 2.51537 0
M  V30 3344 H 336.245 3.85564 1.55927 0
M  V30 3345 H 334.822 2.48812 2.77753 0
M  V30 3346 N 337.007 -0.598083 1.45811 0
M  V30 3347 C 338.418 -1.18011 1.44673 0
M  V30 3348 C 338.769 -1.95378 0.179364 0
M  V30 3349 O 337.894 -2.04124 -0.718509 0
M  V30 3350 C 338.489 -2.14677 2.62105 0
M  V30 3351 C 337.048 -2.68236 2.64057 0
M  V30 3352 C 336.195 -1.43816 2.37091 0
M  V30 3353 H 339.146 -0.38686 1.53913 0
M  V30 3354 H 339.167 -2.97878 2.36746 0
M  V30 3355 H 338.679 -1.5834 3.5433 0
M  V30 3356 H 336.78 -3.28486 1.75864 0
M  V30 3357 H 336.893 -3.12021 3.63566 0
M  V30 3358 H 335.257 -1.731 1.86838 0
M  V30 3359 H 336.04 -0.893333 3.31473 0
M  V30 3360 N 338.485 -1.33259 -0.841409 0
M  V30 3361 C 339.713 -1.27605 -1.62864 0
M  V30 3362 C 340.128 0.153507 -1.88175 0
M  V30 3363 O 339.485 1.09485 -1.46011 0
M  V30 3364 C 339.536 -2.04596 -2.98031 0
M  V30 3365 O 339.257 -3.41975 -2.73834 0
M  V30 3366 C 340.758 -2.06122 -3.92465 0
M  V30 3367 H 337.978 -0.439718 -0.506842 0
M  V30 3368 H 340.522 -1.75591 -1.04824 0
M  V30 3369 H 338.677 -1.60299 -3.5268 0
M  V30 3370 H 339.091 -3.81549 -3.59889 0
M  V30 3371 H 340.565 -2.64451 -4.84531 0
M  V30 3372 H 341.042 -1.05083 -4.26444 0
M  V30 3373 H 341.648 -2.50427 -3.43753 0
M  V30 3374 N 339.963 1.05934 -1.16686 0
M  V30 3375 C 340.895 2.13468 -0.834503 0
M  V30 3376 C 341.908 1.62013 0.15984 0
M  V30 3377 O 343.097 1.7838 -0.0654228 0
M  V30 3378 C 340.197 3.3817 -0.222361 0
M  V30 3379 C 339.37 4.18928 -1.25771 0
M  V30 3380 C 338.429 5.21985 -0.664703 0
M  V30 3381 O 337.455 5.53334 -1.33453 0
M  V30 3382 N 338.657 5.77919 0.546834 0
M  V30 3383 H 341.422 2.42578 -1.75999 0
M  V30 3384 H 338.983 1.21967 -1.06469 0
M  V30 3385 H 340.975 4.04266 0.187472 0
M  V30 3386 H 339.545 3.06655 0.606758 0
M  V30 3387 H 338.765 3.48433 -1.84358 0
M  V30 3388 H 340.053 4.69687 -1.95631 0
M  V30 3389 H 339.451 5.54721 1.10912 0
M  V30 3390 H 338.008 6.45573 0.898829 0
M  V30 3391 N 341.441 0.965919 1.2453 0
M  V30 3392 C 342.852 0.665929 1.7442 0
M  V30 3393 C 343.203 -0.818407 1.78316 0
M  V30 3394 O 342.328 -1.64037 1.41141 0
M  V30 3395 C 342.923 1.20211 3.16757 0
M  V30 3396 C 341.482 0.952059 3.6416 0
M  V30 3397 C 340.629 1.33848 2.42858 0
M  V30 3398 H 343.58 1.14144 1.10258 0
M  V30 3399 H 343.601 0.567544 3.76244 0
M  V30 3400 H 343.113 2.28244 3.13889 0
M  V30 3401 H 341.214 -0.112821 3.72429 0
M  V30 3402 H 341.327 1.59645 4.51719 0
M  V30 3403 H 339.691 0.756864 2.43195 0
M  V30 3404 H 340.474 2.42827 2.42673 0
M  V30 3405 N 342.919 -1.39368 0.735821 0
M  V30 3406 C 344.159 -2.02349 0.288813 0
M  V30 3407 C 344.523 -1.57127 -1.10341 0
M  V30 3408 O 345.724 -2.12312 -1.64854 0
M  V30 3409 C 343.995 -3.55288 0.387986 0
M  V30 3410 S 345.554 -4.38795 0.0209408 0
M  V30 3411 H 342.372 -0.701944 0.113115 0
M  V30 3412 H 344.974 -1.70164 0.962518 0
M  V30 3413 H 343.678 -3.85691 1.40252 0
M  V30 3414 H 343.209 -3.92227 -0.303512 0
M  V30 3415 H 345.224 -4.81595 -1.19503 0
M  V30 3416 N 344.397 -0.483516 -1.5 0
M  V30 3417 C 345.808 -0.0314176 -1.86674 0
M  V30 3418 C 346.159 1.37728 -1.39733 0
M  V30 3419 O 345.284 2.02327 -0.767635 0
M  V30 3420 C 345.879 -0.0502376 -3.38763 0
M  V30 3421 C 344.438 0.346442 -3.74802 0
M  V30 3422 C 343.585 -0.430366 -2.7394 0
M  V30 3423 H 346.536 -0.697182 -1.42566 0
M  V30 3424 H 346.557 0.749116 -3.73053 0
M  V30 3425 H 346.069 -1.07563 -3.72897 0
M  V30 3426 H 344.17 1.37572 -3.46273 0
M  V30 3427 H 344.283 0.0391486 -4.79084 0
M  V30 3428 H 342.647 0.117557 -2.54429 0
M  V30 3429 H 343.43 -1.4555 -3.10918 0
M  V30 3430 N 345.875 1.56104 -0.216619 0
M  V30 3431 C 346.785 2.23694 0.706982 0
M  V30 3432 C 347.801 1.24295 1.21765 0
M  V30 3433 O 348.977 1.57094 1.2603 0
M  V30 3434 C 346.042 2.8998 1.90033 0
M  V30 3435 C 345.103 4.04708 1.43213 0
M  V30 3436 C 344.336 4.67824 2.56859 0
M  V30 3437 O 344.559 4.29913 3.74874 0
M  V30 3438 O 343.493 5.56905 2.28343 0
M  V30 3439 H 347.319 3.03272 0.161235 0
M  V30 3440 H 344.904 1.49394 0.0136177 0
M  V30 3441 H 346.786 3.31837 2.59735 0
M  V30 3442 H 345.461 2.13365 2.43428 0
M  V30 3443 H 344.368 3.6743 0.70327 0
M  V30 3444 H 345.701 4.83051 0.944615 0
M  V30 3445 N 347.353 -0.0568162 1.57498 0
M  V30 3446 C 348.601 -0.751617 1.87604 0
M  V30 3447 C 348.922 -1.77351 0.81066 0
M  V30 3448 O 348.192 -1.95254 -0.159018 0
M  V30 3449 H 346.772 -0.280583 0.692302 0
M  V30 3450 H 349.434 -0.0293483 1.94878 0
M  V30 3451 H 348.53 -1.25852 2.856 0
M  V30 3452 N 348.832 -1.54138 -0.328536 0
M  V30 3453 C 350.057 -1.76378 -1.09112 0
M  V30 3454 C 350.482 -0.508596 -1.81094 0
M  V30 3455 O 349.84 0.539598 -1.73084 0
M  V30 3456 C 349.888 -2.95358 -2.06872 0
M  V30 3457 O 348.992 -2.66556 -3.14677 0
M  V30 3458 H 348.333 -0.584614 -0.314838 0
M  V30 3459 H 350.863 -2.01146 -0.374348 0
M  V30 3460 H 350.873 -3.22566 -2.4983 0
M  V30 3461 H 349.548 -3.86385 -1.5388 0
M  V30 3462 H 348.125 -2.50282 -2.7643 0
M  V30 3463 N 350.31 0.590341 -1.46126 0
M  V30 3464 C 351.558 1.34616 -1.50742 0
M  V30 3465 C 351.879 1.94363 -0.157486 0
M  V30 3466 O 351.149 1.78136 0.815136 0
M  V30 3467 H 349.729 0.499789 -0.555175 0
M  V30 3468 H 352.391 0.691953 -1.82203 0
M  V30 3469 H 351.487 2.15678 -2.25587 0
M  V30 3470 N 351.788 1.33704 0.83433 0
M  V30 3471 C 353.065 1.16011 1.57483 0
M  V30 3472 C 353.445 -0.27176 2.09343 0
M  V30 3473 O 352.793 -1.27146 1.89858 0
M  V30 3474 C 353.003 2.20507 2.70514 0
M  V30 3475 C 354.351 2.54898 3.39577 0
M  V30 3476 O 355.375 2.19209 2.80759 0
M  V30 3477 O 354.234 3.16158 4.45765 0
M  V30 3478 H 351.328 0.448992 0.694503 0
M  V30 3479 H 353.874 1.453 0.876691 0
M  V30 3480 H 352.646 3.16667 2.29865 0
M  V30 3481 H 352.269 1.92329 3.47987 0
M  V30 3482 N 353.266 -1.05314 1.17247 0
M  V30 3483 C 354.506 -1.79869 0.970898 0
M  V30 3484 C 354.87 -1.85594 -0.491808 0
M  V30 3485 O 356.071 -2.56229 -0.812409 0
M  V30 3486 C 354.342 -3.19937 1.59295 0
M  V30 3487 S 355.901 -4.10986 1.53741 0
M  V30 3488 H 352.719 -0.61949 0.348931 0
M  V30 3489 H 355.321 -1.26368 1.49169 0
M  V30 3490 H 354.025 -3.13372 2.65003 0
M  V30 3491 H 353.556 -3.78515 1.07191 0
M  V30 3492 H 355.571 -4.93203 0.544537 0
M  V30 3493 N 354.744 -0.972509 -1.24016 0
M  V30 3494 C 356.16 -0.679827 -1.44397 0
M  V30 3495 C 356.36 0.756716 -1.86751 0
M  V30 3496 O 355.416 1.53007 -2.00861 0
M  V30 3497 C 356.729 -1.66803 -2.50195 0
M  V30 3498 C 358.277 -1.68119 -2.64017 0
M  V30 3499 C 358.752 -2.65748 -3.73017 0
M  V30 3500 N 360.243 -2.64219 -3.8045 0
M  V30 3501 C 360.978 -3.36433 -4.64328 0
M  V30 3502 N 360.474 -4.1818 -5.52356 0
M  V30 3503 N 362.267 -3.25235 -4.58453 0
M  V30 3504 H 354.418 -1.90059 -0.948228 0
M  V30 3505 H 356.681 -0.818527 -0.478245 0
M  V30 3506 H 356.387 -2.69498 -2.25973 0
M  V30 3507 H 356.261 -1.4446 -3.48441 0
M  V30 3508 H 358.648 -0.661319 -2.87594 0
M  V30 3509 H 358.729 -1.94525 -1.66113 0
M  V30 3510 H 358.373 -3.67872 -3.50189 0
M  V30 3511 H 358.303 -2.36619 -4.70446 0
M  V30 3512 H 360.794 -2.04887 -3.17537 0
M  V30 3513 H 361.107 -4.70157 -6.13329 0
M  V30 3514 H 359.452 -4.22273 -5.52006 0
M  V30 3515 H 362.643 -2.60829 -3.88698 0
M  V30 3516 H 362.816 -3.81776 -5.23594 0
M  V30 3517 N 356.222 1.38976 -0.743202 0
M  V30 3518 C 357.169 2.30544 -0.10861 0
M  V30 3519 C 358.139 1.49642 0.720869 0
M  V30 3520 O 359.324 1.78304 0.679142 0
M  V30 3521 C 356.464 3.36018 0.786496 0
M  V30 3522 C 355.577 4.31963 -0.0564849 0
M  V30 3523 C 354.712 5.24506 0.840657 0
M  V30 3524 C 353.751 6.121 -0.00658363 0
M  V30 3525 N 352.888 6.96973 0.846943 0
M  V30 3526 H 357.728 2.8424 -0.895088 0
M  V30 3527 H 355.265 1.3995 -0.453048 0
M  V30 3528 H 357.223 3.95768 1.31999 0
M  V30 3529 H 355.853 2.83758 1.53887 0
M  V30 3530 H 354.905 3.73763 -0.707492 0
M  V30 3531 H 356.217 4.93703 -0.711229 0
M  V30 3532 H 355.371 5.89322 1.4417 0
M  V30 3533 H 354.11 4.63107 1.52916 0
M  V30 3534 H 353.115 5.46289 -0.620366 0
M  V30 3535 H 354.34 6.75565 -0.691992 0
M  V30 3536 H 352.286 6.38133 1.52059 0
M  V30 3537 H 352.203 7.5559 0.248864 0
M  V30 3538 H 353.471 7.6621 1.43328 0
M  V30 3539 N 357.7 0.491464 1.49741 0
M  V30 3540 C 358.632 -0.328609 2.26832 0
M  V30 3541 C 359.645 -0.939113 1.32983 0
M  V30 3542 O 360.834 -0.824067 1.58339 0
M  V30 3543 C 357.934 -1.47675 3.05033 0
M  V30 3544 C 357.107 -0.975305 4.26388 0
M  V30 3545 C 356.166 -1.99991 4.86714 0
M  V30 3546 O 355.192 -1.57229 5.47054 0
M  V30 3547 N 356.394 -3.32962 4.75517 0
M  V30 3548 H 359.159 0.332377 2.97851 0
M  V30 3549 H 356.72 0.323441 1.58636 0
M  V30 3550 H 358.712 -2.15954 3.42266 0
M  V30 3551 H 357.282 -2.04206 2.36683 0
M  V30 3552 H 356.502 -0.117723 3.94024 0
M  V30 3553 H 357.79 -0.618531 5.05026 0
M  V30 3554 H 357.188 -3.70399 4.27576 0
M  V30 3555 H 355.745 -3.96982 5.16961 0
M  V30 3556 N 359.178 -1.55987 0.224894 0
M  V30 3557 C 360.418 -2.00293 -0.407706 0
M  V30 3558 C 360.782 -1.1093 -1.56711 0
M  V30 3559 O 361.983 -1.44597 -2.26595 0
M  V30 3560 C 360.254 -3.47675 -0.82805 0
M  V30 3561 S 361.813 -4.14 -1.45429 0
M  V30 3562 H 358.631 -0.699152 -0.129256 0
M  V30 3563 H 361.233 -1.92609 0.334967 0
M  V30 3564 H 359.937 -4.10392 0.0253964 0
M  V30 3565 H 359.468 -3.59239 -1.60345 0
M  V30 3566 H 361.483 -4.13465 -2.74337 0
M  V30 3567 N 360.656 0.0484629 -1.57525 0
M  V30 3568 C 361.566 1.07241 -2.08654 0
M  V30 3569 C 362.582 1.409 -1.02095 0
M  V30 3570 O 363.758 1.50609 -1.33712 0
M  V30 3571 C 360.823 2.36008 -2.5397 0
M  V30 3572 C 359.884 2.09108 -3.7493 0
M  V30 3573 C 359.117 3.31736 -4.18075 0
M  V30 3574 O 359.34 4.41714 -3.60895 0
M  V30 3575 O 358.274 3.18576 -5.10679 0
M  V30 3576 H 362.1 0.667965 -2.96263 0
M  V30 3577 H 359.685 0.26417 -1.47046 0
M  V30 3578 H 361.567 3.11747 -2.83535 0
M  V30 3579 H 360.242 2.75786 -1.69481 0
M  V30 3580 H 359.149 1.31 -3.50414 0
M  V30 3581 H 360.482 1.74198 -4.60343 0
M  V30 3582 N 362.134 1.5431 0.320358 0
M  V30 3583 C 363.545 1.63872 0.894594 0
M  V30 3584 C 363.896 0.534847 1.88769 0
M  V30 3585 O 363.021 -0.331732 2.13842 0
M  V30 3586 C 363.616 2.97049 1.62934 0
M  V30 3587 C 362.175 3.08796 2.15226 0
M  V30 3588 C 361.322 2.59456 0.978671 0
M  V30 3589 H 364.273 1.58398 0.0978544 0
M  V30 3590 H 364.294 2.87388 2.49376 0
M  V30 3591 H 363.806 3.7737 0.906302 0
M  V30 3592 H 361.907 2.33156 2.90636 0
M  V30 3593 H 362.02 4.14649 2.40006 0
M  V30 3594 H 360.384 2.1543 1.35875 0
M  V30 3595 H 361.167 3.42237 0.269895 0
M  V30 3596 N 363.613 -0.582584 1.46437 0
M  V30 3597 C 364.89 -1.34276 1.4223 0
M  V30 3598 C 365.27 -2.10835 0.10583 0
M  V30 3599 O 364.618 -2.09485 -0.912596 0
M  V30 3600 C 364.828 -2.26865 2.65204 0
M  V30 3601 C 366.176 -2.88691 3.11356 0
M  V30 3602 O 367.2 -2.37178 2.65753 0
M  V30 3603 O 366.059 -3.82255 3.90568 0
M  V30 3604 H 363.153 -0.603326 0.565621 0
M  V30 3605 H 365.699 -0.603591 1.58603 0
M  V30 3606 H 364.471 -1.69724 3.52576 0
M  V30 3607 H 364.094 -3.08122 2.5129 0
M  V30 3608 N 365.091 -1.34144 -0.827227 0
M  V30 3609 C 366.321 -1.29138 -1.61267 0
M  V30 3610 C 366.729 0.137597 -1.88699 0
M  V30 3611 O 366.072 1.09379 -1.47587 0
M  V30 3612 C 366.134 -2.0097 -2.9808 0
M  V30 3613 C 365.798 -3.50242 -2.93563 0
M  V30 3614 C 366.795 -4.4523 -2.68452 0
M  V30 3615 C 364.48 -3.92592 -3.13331 0
M  V30 3616 C 366.474 -5.80542 -2.63154 0
M  V30 3617 C 364.161 -5.28005 -3.07658 0
M  V30 3618 C 365.159 -6.21792 -2.82602 0
M  V30 3619 O 364.847 -7.54723 -2.76853 0
M  V30 3620 H 364.579 -0.445851 -0.508127 0
M  V30 3621 H 367.133 -1.77263 -1.03763 0
M  V30 3622 H 365.363 -1.47451 -3.57484 0
M  V30 3623 H 367.052 -1.89309 -3.5905 0
M  V30 3624 H 367.818 -4.13832 -2.52919 0
M  V30 3625 H 363.697 -3.19994 -3.31851 0
M  V30 3626 H 367.241 -6.53717 -2.43516 0
M  V30 3627 H 363.138 -5.59023 -3.22743 0
M  V30 3628 H 363.906 -7.64409 -2.92611 0
M  V30 3629 N 366.569 1.04691 -1.17803 0
M  V30 3630 C 367.799 1.81183 -0.992788 0
M  V30 3631 C 368.207 1.8347 0.462098 0
M  V30 3632 O 367.55 1.2643 1.33271 0
M  V30 3633 C 367.612 3.28363 -1.46349 0
M  V30 3634 C 367.276 3.49749 -2.94151 0
M  V30 3635 C 368.273 3.41456 -3.92051 0
M  V30 3636 C 365.958 3.76548 -3.32441 0
M  V30 3637 C 367.952 3.59656 -5.26238 0
M  V30 3638 C 365.639 3.94396 -4.66792 0
M  V30 3639 C 366.637 3.8595 -5.635 0
M  V30 3640 O 366.325 4.03294 -6.9542 0
M  V30 3641 H 366.057 0.577622 -0.351182 0
M  V30 3642 H 368.611 1.32876 -1.5663 0
M  V30 3643 H 366.841 3.77609 -0.833574 0
M  V30 3644 H 368.53 3.86395 -1.24313 0
M  V30 3645 H 369.296 3.20723 -3.63815 0
M  V30 3646 H 365.175 3.82224 -2.57732 0
M  V30 3647 H 368.719 3.52979 -6.01707 0
M  V30 3648 H 364.616 4.14622 -4.94731 0
M  V30 3649 H 365.384 4.2049 -7.02232 0
M  V30 3650 N 368.047 0.979072 1.23499 0
M  V30 3651 C 368.977 0.537606 2.27227 0
M  V30 3652 C 369.958 -0.428539 1.64613 0
M  V30 3653 O 371.143 -0.322191 1.91509 0
M  V30 3654 C 368.273 -0.162052 3.46922 0
M  V30 3655 C 367.227 0.721242 4.21879 0
M  V30 3656 C 366.553 -0.110555 5.34586 0
M  V30 3657 C 367.853 2.01141 4.82016 0
M  V30 3658 H 369.547 1.40462 2.64406 0
M  V30 3659 H 367.093 0.67684 1.27102 0
M  V30 3660 H 369.046 -0.482192 4.18632 0
M  V30 3661 H 367.77 -1.06351 3.08799 0
M  V30 3662 H 366.429 1.02482 3.51984 0
M  V30 3663 H 366.077 -1.0125 4.92704 0
M  V30 3664 H 365.777 0.477325 5.85658 0
M  V30 3665 H 367.301 -0.425107 6.09118 0
M  V30 3666 H 368.715 1.75612 5.45741 0
M  V30 3667 H 367.112 2.54695 5.43369 0
M  V30 3668 H 368.182 2.69909 4.02836 0
M  V30 3669 N 369.525 -1.3858 0.750561 0
M  V30 3670 C 370.802 -1.94231 0.231009 0
M  V30 3671 C 371.182 -1.68611 -1.27018 0
M  V30 3672 O 370.53 -1.02296 -2.04323 0
M  V30 3673 C 370.74 -3.44123 0.581428 0
M  V30 3674 C 372.088 -4.2116 0.539389 0
M  V30 3675 O 373.112 -3.52391 0.519541 0
M  V30 3676 O 371.971 -5.43749 0.54765 0
M  V30 3677 H 369.065 -0.825639 0.0474263 0
M  V30 3678 H 371.611 -1.4799 0.830478 0
M  V30 3679 H 370.383 -3.56267 1.61833 0
M  V30 3680 H 370.006 -3.97573 -0.0462047 0
M  V30 3681 N 371.003 -0.499398 -1.49478 0
M  V30 3682 C 371.913 0.284489 -2.32869 0
M  V30 3683 C 372.929 0.968885 -1.44529 0
M  V30 3684 O 374.105 0.95062 -1.77553 0
M  V30 3685 C 371.17 1.33594 -3.19928 0
M  V30 3686 C 370.231 0.665149 -4.24116 0
M  V30 3687 C 369.464 1.6665 -5.07014 0
M  V30 3688 O 369.687 2.89618 -4.91404 0
M  V30 3689 O 368.621 1.22271 -5.8935 0
M  V30 3690 H 372.447 -0.39802 -3.01081 0
M  V30 3691 H 370.032 -0.260758 -1.47107 0
M  V30 3692 H 371.914 1.94431 -3.73864 0
M  V30 3693 H 370.589 2.0014 -2.54412 0
M  V30 3694 H 369.496 0.0170769 -3.74096 0
M  V30 3695 H 370.829 0.0421555 -4.92182 0
M  V30 3696 N 372.481 1.55866 -0.233164 0
M  V30 3697 C 373.444 2.1953 0.658715 0
M  V30 3698 C 374.444 1.16053 1.11303 0
M  V30 3699 O 375.634 1.41218 1.01996 0
M  V30 3700 C 372.766 2.82791 1.90373 0
M  V30 3701 H 373.959 2.99721 0.10347 0
M  V30 3702 H 371.512 1.56291 0.0164245 0
M  V30 3703 H 372.247 2.06501 2.50056 0
M  V30 3704 H 372.032 3.58578 1.58632 0
M  V30 3705 H 373.522 3.31556 2.53891 0
M  V30 3706 N 373.959 -0.0401083 1.57549 0
M  V30 3707 C 375.207 -0.731677 1.8839 0
M  V30 3708 C 375.528 -1.76481 0.829425 0
M  V30 3709 O 374.798 -1.95411 -0.1383 0
M  V30 3710 H 373.378 -0.273225 0.695239 0
M  V30 3711 H 376.04 -0.00867725 1.94898 0
M  V30 3712 H 375.136 -1.22816 2.86919 0
M  V30 3713 N 375.437 -1.54477 -0.31217 0
M  V30 3714 C 376.853 -1.45442 -0.657185 0
M  V30 3715 C 377.053 -0.63653 -1.91182 0
M  V30 3716 O 376.109 -0.139815 -2.52113 0
M  V30 3717 C 377.422 -2.89287 -0.82058 0
M  V30 3718 C 378.97 -2.9926 -0.917188 0
M  V30 3719 C 379.445 -4.44279 -1.11267 0
M  V30 3720 N 380.936 -4.4794 -1.17914 0
M  V30 3721 C 381.671 -5.57318 -1.34848 0
M  V30 3722 N 381.167 -6.76642 -1.48752 0
M  V30 3723 N 382.96 -5.44986 -1.37647 0
M  V30 3724 H 375.111 -2.06129 0.512313 0
M  V30 3725 H 377.374 -0.933088 0.167485 0
M  V30 3726 H 377.08 -3.51687 0.0302604 0
M  V30 3727 H 376.954 -3.36061 -1.71298 0
M  V30 3728 H 379.341 -2.36981 -1.75852 0
M  V30 3729 H 379.422 -2.558 -0.00101257 0
M  V30 3730 H 379.066 -5.07149 -0.27614 0
M  V30 3731 H 378.996 -4.85359 -2.04289 0
M  V30 3732 H 381.487 -3.61969 -1.08567 0
M  V30 3733 H 381.8 -7.55758 -1.61397 0
M  V30 3734 H 380.145 -6.79529 -1.45828 0
M  V30 3735 H 383.336 -4.50715 -1.26388 0
M  V30 3736 H 383.509 -6.3028 -1.50501 0
M  V30 3737 N 376.915 0.57481 -1.46744 0
M  V30 3738 C 378.155 1.34369 -1.54027 0
M  V30 3739 C 378.519 1.91051 -0.190642 0
M  V30 3740 O 379.72 2.68444 -0.138255 0
M  V30 3741 C 377.991 2.43706 -2.61423 0
M  V30 3742 S 379.55 3.30915 -2.88167 0
M  V30 3743 H 376.368 0.45768 -0.544105 0
M  V30 3744 H 378.97 0.659959 -1.84024 0
M  V30 3745 H 377.674 2.0047 -3.58106 0
M  V30 3746 H 377.205 3.16842 -2.33184 0
M  V30 3747 H 379.22 4.42742 -2.24039 0
M  V30 3748 N 378.394 1.34581 0.820102 0
M  V30 3749 C 379.622 1.3018 1.60813 0
M  V30 3750 C 380.037 -0.123551 1.88395 0
M  V30 3751 O 379.394 -1.07148 1.47735 0
M  V30 3752 C 379.445 2.09312 2.94739 0
M  V30 3753 O 379.166 3.46288 2.68358 0
M  V30 3754 C 380.667 2.1234 3.89136 0
M  V30 3755 H 377.887 0.447726 0.499782 0
M  V30 3756 H 380.431 1.77237 1.02017 0
M  V30 3757 H 378.586 1.65889 3.50085 0
M  V30 3758 H 379 3.87227 3.53774 0
M  V30 3759 H 380.474 2.72126 4.80262 0
M  V30 3760 H 380.951 1.11854 4.24718 0
M  V30 3761 H 381.557 2.55864 3.39726 0
M  V30 3762 N 379.872 -1.04064 1.18357 0
M  V30 3763 C 380.835 -2.10243 0.912707 0
M  V30 3764 C 381.835 -1.60477 -0.101928 0
M  V30 3765 O 383.025 -1.73703 0.131517 0
M  V30 3766 C 380.157 -3.38893 0.369387 0
M  V30 3767 H 381.35 -2.35706 1.85426 0
M  V30 3768 H 378.903 -1.20489 0.995594 0
M  V30 3769 H 379.638 -3.19094 -0.578776 0
M  V30 3770 H 379.423 -3.76331 1.1008 0
M  V30 3771 H 380.913 -4.17128 0.198575 0
M  V30 3772 N 381.35 -0.985608 -1.22978 0
M  V30 3773 C 382.59 -0.665487 -1.93263 0
M  V30 3774 C 382.954 0.78706 -1.75127 0
M  V30 3775 O 384.155 1.21826 -2.39608 0
M  V30 3776 C 382.426 -1.0515 -3.41582 0
M  V30 3777 S 383.985 -0.848637 -4.30516 0
M  V30 3778 H 380.803 -0.24355 -0.667985 0
M  V30 3779 H 383.405 -1.26635 -1.48942 0
M  V30 3780 H 382.109 -2.10517 -3.52293 0
M  V30 3781 H 381.64 -0.442134 -3.90908 0
M  V30 3782 H 383.655 0.264717 -4.95493 0
M  V30 3783 N 382.828 1.3818 -0.7579 0
M  V30 3784 C 384.074 2.00316 -0.316453 0
M  V30 3785 C 384.407 1.60026 1.10025 0
M  V30 3786 O 383.682 0.839835 1.75434 0
M  V30 3787 C 383.965 3.57349 -0.444245 0
M  V30 3788 C 383.818 4.07591 -1.90236 0
M  V30 3789 C 385.137 4.3981 0.1598 0
M  V30 3790 H 382.256 0.727741 -0.116459 0
M  V30 3791 H 384.898 1.6406 -0.958352 0
M  V30 3792 H 383.048 3.88365 0.102233 0
M  V30 3793 H 384.72 3.87199 -2.50748 0
M  V30 3794 H 382.963 3.60297 -2.41595 0
M  V30 3795 H 383.634 5.16677 -1.94291 0
M  V30 3796 H 386.11 4.14971 -0.306314 0
M  V30 3797 H 384.986 5.48885 0.0401675 0
M  V30 3798 H 385.247 4.24102 1.24859 0
M  V30 3799 N 384.306 0.507319 1.49211 0
M  V30 3800 C 385.531 -0.033725 2.07373 0
M  V30 3801 C 385.956 -1.29485 1.36437 0
M  V30 3802 O 385.314 -1.76294 0.423087 0
M  V30 3803 C 385.362 -0.263945 3.59633 0
M  V30 3804 O 384.466 -1.33737 3.90113 0
M  V30 3805 H 383.807 0.0290331 0.663365 0
M  V30 3806 H 386.337 0.708749 1.91932 0
M  V30 3807 H 386.347 -0.493536 4.05004 0
M  V30 3808 H 385.022 0.657424 4.10671 0
M  V30 3809 H 383.599 -1.09224 3.56545 0
M  V30 3810 N 385.784 -1.5574 0.241426 0
M  V30 3811 C 387.024 -2.00714 -0.38644 0
M  V30 3812 C 387.388 -1.12586 -1.55526 0
M  V30 3813 O 388.589 -1.46992 -2.25048 0
M  V30 3814 C 386.86 -3.48534 -0.791128 0
M  V30 3815 S 388.419 -4.15519 -1.41029 0
M  V30 3816 H 385.237 -0.700484 -0.121834 0
M  V30 3817 H 387.839 -1.92243 0.355377 0
M  V30 3818 H 386.543 -4.10342 0.0689225 0
M  V30 3819 H 386.074 -3.6092 -1.56526 0
M  V30 3820 H 388.089 -4.16352 -2.69936 0
M  V30 3821 N 387.262 0.0317525 -1.57568 0
M  V30 3822 C 388.487 0.738664 -1.938 0
M  V30 3823 C 388.912 1.68242 -0.841208 0
M  V30 3824 O 388.27 1.80157 0.203267 0
M  V30 3825 C 388.318 1.47417 -3.29091 0
M  V30 3826 O 387.422 2.5872 -3.2115 0
M  V30 3827 H 386.763 0.198856 -0.633524 0
M  V30 3828 H 389.293 -0.0119713 -2.04596 0
M  V30 3829 H 389.303 1.84468 -3.63917 0
M  V30 3830 H 387.978 0.781988 -4.08482 0
M  V30 3831 H 386.555 2.24231 -2.97951 0
M  V30 3832 N 388.74 1.54641 0.303973 0
M  V30 3833 C 390.156 1.45788 0.649463 0
M  V30 3834 C 390.356 0.64666 1.90842 0
M  V30 3835 O 389.412 0.153183 2.52035 0
M  V30 3836 C 390.725 2.89718 0.805227 0
M  V30 3837 C 392.273 2.99742 0.901305 0
M  V30 3838 C 392.748 4.44863 1.08909 0
M  V30 3839 N 394.239 4.48559 1.15536 0
M  V30 3840 C 394.974 5.58026 1.3189 0
M  V30 3841 N 394.47 6.77422 1.45161 0
M  V30 3842 N 396.263 5.45708 1.34755 0
M  V30 3843 H 388.414 2.05854 -0.523237 0
M  V30 3844 H 390.677 0.932186 -0.172431 0
M  V30 3845 H 390.383 3.51666 -0.0489108 0
M  V30 3846 H 390.257 3.36964 1.69513 0
M  V30 3847 H 392.644 2.3791 1.74593 0
M  V30 3848 H 392.725 2.55797 -0.0125531 0
M  V30 3849 H 392.369 5.07288 0.249241 0
M  V30 3850 H 392.299 4.86436 2.01713 0
M  V30 3851 H 394.79 3.6254 1.06646 0
M  V30 3852 H 395.103 7.56604 1.57387 0
M  V30 3853 H 393.448 6.80292 1.42223 0
M  V30 3854 H 396.639 4.51378 1.23996 0
M  V30 3855 H 396.812 6.3107 1.47157 0
M  V30 3856 N 390.218 -0.567019 1.47046 0
M  V30 3857 C 391.495 -1.3276 1.43646 0
M  V30 3858 C 391.875 -2.1071 0.128186 0
M  V30 3859 O 391.223 -2.10441 -0.890326 0
M  V30 3860 C 391.433 -2.2404 2.67595 0
M  V30 3861 C 392.781 -2.85372 3.14401 0
M  V30 3862 O 393.805 -2.34346 2.68254 0
M  V30 3863 O 392.664 -3.78091 3.946 0
M  V30 3864 H 389.758 -0.597293 0.571988 0
M  V30 3865 H 392.304 -0.586735 1.59234 0
M  V30 3866 H 391.076 -1.65975 3.54356 0
M  V30 3867 H 390.699 -3.05439 2.54544 0
M  V30 3868 N 391.696 -1.35014 -0.812953 0
M  V30 3869 C 392.973 -1.18502 -1.55617 0
M  V30 3870 C 393.353 0.238421 -2.09749 0
M  V30 3871 O 392.701 1.2411 -1.91857 0
M  V30 3872 C 392.911 -2.24783 -2.66971 0
M  V30 3873 C 394.259 -2.60268 -3.35478 0
M  V30 3874 O 395.283 -2.23648 -2.77236 0
M  V30 3875 O 394.142 -3.2321 -4.40678 0
M  V30 3876 H 391.236 -0.459984 -0.687272 0
M  V30 3877 H 393.782 -1.46677 -0.853464 0
M  V30 3878 H 392.554 -3.20284 -2.24798 0
M  V30 3879 H 392.177 -1.97841 -3.44884 0
M  V30 3880 N 393.175 1.03435 -1.18907 0
M  V30 3881 C 394.105 2.13503 -0.945448 0
M  V30 3882 C 395.086 1.69682 0.119189 0
M  V30 3883 O 396.271 1.94169 -0.034707 0
M  V30 3884 C 393.401 3.44004 -0.477316 0
M  V30 3885 C 392.355 4.0148 -1.48316 0
M  V30 3886 C 391.681 5.27537 -0.872311 0
M  V30 3887 C 392.981 4.36921 -2.86177 0
M  V30 3888 H 394.675 2.34141 -1.86597 0
M  V30 3889 H 392.221 1.12523 -0.898584 0
M  V30 3890 H 394.174 4.20372 -0.294204 0
M  V30 3891 H 392.898 3.23072 0.478786 0
M  V30 3892 H 391.557 3.27201 -1.65332 0
M  V30 3893 H 391.205 5.02917 0.0911752 0
M  V30 3894 H 390.905 5.66954 -1.54393 0
M  V30 3895 H 392.429 6.06576 -0.699871 0
M  V30 3896 H 393.843 5.04248 -2.72776 0
M  V30 3897 H 392.24 4.87405 -3.50081 0
M  V30 3898 H 393.31 3.46466 -3.39248 0
M  V30 3899 N 394.653 0.992116 1.22453 0
M  V30 3900 C 395.899 0.668523 1.91464 0
M  V30 3901 C 396.232 -0.797313 1.77078 0
M  V30 3902 O 395.507 -1.5765 1.13916 0
M  V30 3903 C 395.79 1.07424 3.43703 0
M  V30 3904 C 395.643 2.59857 3.67143 0
M  V30 3905 C 396.962 0.626891 4.35612 0
M  V30 3906 H 394.081 0.244341 0.695318 0
M  V30 3907 H 396.723 1.2355 1.44345 0
M  V30 3908 H 394.873 0.591816 3.83966 0
M  V30 3909 H 396.545 3.15764 3.3629 0
M  V30 3910 H 394.788 3.01961 3.11451 0
M  V30 3911 H 395.459 2.83296 4.73759 0
M  V30 3912 H 397.935 1.04125 4.02861 0
M  V30 3913 H 396.811 0.939076 5.40807 0
M  V30 3914 H 397.072 -0.472457 4.39568 0
M  V30 3915 N 396.131 -1.37776 0.765217 0
M  V30 3916 C 397.041 -2.34135 0.147666 0
M  V30 3917 C 398.057 -1.59854 -0.687215 0
M  V30 3918 O 399.233 -1.91983 -0.608659 0
M  V30 3919 C 396.298 -3.3901 -0.72617 0
M  V30 3920 C 395.359 -4.2912 0.124417 0
M  V30 3921 C 394.592 -5.28986 -0.707807 0
M  V30 3922 O 394.815 -5.36205 -1.94525 0
M  V30 3923 O 393.749 -6.01779 -0.12046 0
M  V30 3924 H 397.575 -2.88664 0.943758 0
M  V30 3925 H 395.16 -1.39824 0.526277 0
M  V30 3926 H 397.042 -4.03195 -1.22524 0
M  V30 3927 H 395.717 -2.86819 -1.50056 0
M  V30 3928 H 394.624 -3.68057 0.669696 0
M  V30 3929 H 395.957 -4.84598 0.861736 0
M  V30 3930 N 397.609 -0.515225 -1.4894 0
M  V30 3931 C 398.556 0.255567 -2.29381 0
M  V30 3932 C 399.526 0.947387 -1.36432 0
M  V30 3933 O 400.711 0.951288 -1.65394 0
M  V30 3934 C 397.851 1.30551 -3.19453 0
M  V30 3935 C 396.964 0.624029 -4.27469 0
M  V30 3936 C 396.099 1.65563 -5.0474 0
M  V30 3937 C 395.138 0.956802 -6.04576 0
M  V30 3938 N 394.275 1.93326 -6.74959 0
M  V30 3939 H 399.115 -0.436607 -2.94784 0
M  V30 3940 H 396.652 -0.227154 -1.45336 0
M  V30 3941 H 398.61 1.92639 -3.70062 0
M  V30 3942 H 397.24 1.96626 -2.56004 0
M  V30 3943 H 396.292 -0.110459 -3.8024 0
M  V30 3944 H 397.604 0.0746092 -4.98744 0
M  V30 3945 H 396.758 2.35119 -5.59289 0
M  V30 3946 H 395.497 2.23893 -4.3327 0
M  V30 3947 H 394.502 0.247097 -5.49244 0
M  V30 3948 H 395.727 0.379814 -6.78037 0
M  V30 3949 H 393.673 2.50591 -6.06251 0
M  V30 3950 H 393.59 1.43489 -7.42258 0
M  V30 3951 H 394.858 2.62126 -7.34105 0
M  V30 3952 N 399.087 1.5561 -0.249682 0
M  V30 3953 C 400.315 2.03411 0.378352 0
M  V30 3954 C 400.73 1.12886 1.51335 0
M  V30 3955 O 400.087 0.143833 1.81932 0
M  V30 3956 C 400.138 3.50537 0.88351 0
M  V30 3957 O 399.859 4.37614 -0.20626 0
M  V30 3958 C 401.36 4.14113 1.58195 0
M  V30 3959 H 398.58 0.664994 0.08958 0
M  V30 3960 H 401.124 2.01044 -0.374357 0
M  V30 3961 H 399.279 3.5343 1.58639 0
M  V30 3962 H 399.693 5.24199 0.177782 0
M  V30 3963 H 401.167 5.18741 1.8871 0
M  V30 3964 H 401.644 3.60767 2.50487 0
M  V30 3965 H 402.25 4.15151 0.923573 0
M  V30 3966 N 400.565 -0.0233959 1.57583 0
M  V30 3967 C 401.976 -0.56927 1.77809 0
M  V30 3968 C 402.327 -1.75284 0.881472 0
M  V30 3969 O 401.452 -2.1626 0.0777805 0
M  V30 3970 C 402.047 -1.03949 3.22459 0
M  V30 3971 C 400.606 -1.53084 3.43864 0
M  V30 3972 C 399.753 -0.471454 2.73263 0
M  V30 3973 H 402.704 0.202825 1.57399 0
M  V30 3974 H 402.725 -1.90661 3.29285 0
M  V30 3975 H 402.237 -0.177865 3.87692 0
M  V30 3976 H 400.338 -2.41414 2.83814 0
M  V30 3977 H 400.451 -1.57443 4.52491 0
M  V30 3978 H 398.815 -0.927788 2.37201 0
M  V30 3979 H 399.598 0.380808 3.41181 0
M  V30 3980 N 402.043 -1.548 -0.295768 0
M  V30 3981 C 403.283 -1.76069 -1.03823 0
M  V30 3982 C 403.647 -0.537992 -1.84309 0
M  V30 3983 O 404.848 -0.628514 -2.61349 0
M  V30 3984 C 403.119 -3.01705 -1.91596 0
M  V30 3985 S 404.678 -3.43998 -2.72416 0
M  V30 3986 H 401.496 -0.618852 -0.350062 0
M  V30 3987 H 404.098 -1.93009 -0.31106 0
M  V30 3988 H 402.802 -3.88812 -1.31351 0
M  V30 3989 H 402.333 -2.87366 -2.68671 0
M  V30 3990 H 404.348 -3.0148 -3.94112 0
M  V30 3991 N 403.521 0.559213 -1.47345 0
M  V30 3992 C 404.484 1.64854 -1.59235 0
M  V30 3993 C 405.484 1.53851 -0.467607 0
M  V30 3994 O 406.674 1.58045 -0.732617 0
M  V30 3995 C 403.806 3.04388 -1.53496 0
M  V30 3996 H 404.999 1.55662 -2.56339 0
M  V30 3997 H 402.552 0.778973 -1.35505 0
M  V30 3998 H 403.287 3.19115 -0.577604 0
M  V30 3999 H 403.072 3.13783 -2.35123 0
M  V30 4000 H 404.562 3.83642 -1.6495 0
M  V30 4001 N 404.999 1.35443 0.805782 0
M  V30 4002 C 406.245 1.2996 1.56467 0
M  V30 4003 C 406.6 -0.124742 1.91995 0
M  V30 4004 O 405.893 -1.07533 1.58579 0
M  V30 4005 C 406.087 2.14045 2.86216 0
M  V30 4006 C 405.916 3.64512 2.63365 0
M  V30 4007 C 404.686 4.33744 2.59219 0
M  V30 4008 C 406.884 4.58142 2.33688 0
M  V30 4009 N 404.866 5.69953 2.28094 0
M  V30 4010 C 406.237 5.8248 2.12408 0
M  V30 4011 C 408.292 4.46877 2.19558 0
M  V30 4012 C 406.995 6.96818 1.78429 0
M  V30 4013 C 409.021 5.61065 1.86976 0
M  V30 4014 C 408.383 6.84431 1.66532 0
M  V30 4015 H 404.482 0.530817 0.574245 0
M  V30 4016 H 407.066 1.70333 0.943126 0
M  V30 4017 H 405.237 1.75942 3.46264 0
M  V30 4018 H 406.969 2.00075 3.51784 0
M  V30 4019 H 403.724 3.86365 2.73896 0
M  V30 4020 H 404.148 6.41845 2.15323 0
M  V30 4021 H 408.79 3.52102 2.34061 0
M  V30 4022 H 406.508 7.91559 1.62664 0
M  V30 4023 H 410.094 5.54302 1.7675 0
M  V30 4024 H 408.974 7.71294 1.41688 0
M  V30 4025 N 406.477 -1.02803 1.19454 0
M  V30 4026 C 407.425 -2.13213 0.929673 0
M  V30 4027 C 408.419 -1.69011 -0.114806 0
M  V30 4028 O 409.625 -1.79967 0.0345147 0
M  V30 4029 H 406 -0.69662 0.28324 0
M  V30 4030 H 407.971 -2.32744 1.86743 0
M  V30 4031 C 406.72 -3.4429 0.485797 0
M  V30 4032 H 406.043 -3.7872 1.28105 0
M  V30 4033 H 407.483 -4.22638 0.339582 0
M  V30 4034 C 405.942 -3.27258 -0.800244 0
M  V30 4035 O 406.472 -3.55967 -1.86146 0
M  V30 4036 N 404.678 -2.80545 -0.75781 0
M  V30 4037 H 404.225 -2.57382 0.106039 0
M  V30 4038 H 404.183 -2.6953 -1.61867 0
M  V30 4039 N 407.956 -0.998596 -1.21925 0
M  V30 4040 C 409.181 -0.696015 -1.95372 0
M  V30 4041 C 409.606 0.733826 -1.73195 0
M  V30 4042 O 408.964 1.50242 -1.01474 0
M  V30 4043 C 409.012 -1.01466 -3.4603 0
M  V30 4044 O 408.116 -0.116415 -4.12236 0
M  V30 4045 H 407.457 -0.259938 -0.611006 0
M  V30 4046 H 409.987 -1.33711 -1.54863 0
M  V30 4047 H 409.997 -0.958855 -3.96573 0
M  V30 4048 H 408.672 -2.05653 -3.61497 0
M  V30 4049 H 407.249 -0.228193 -3.72201 0
M  V30 4050 N 409.434 1.37368 -0.772513 0
M  V30 4051 C 410.659 2.0447 -0.347386 0
M  V30 4052 C 411.084 1.57882 1.0225 0
M  V30 4053 O 410.442 0.73941 1.65537 0
M  V30 4054 C 410.49 3.58369 -0.400479 0
M  V30 4055 O 409.594 4.0803 0.598789 0
M  V30 4056 H 408.935 0.646773 -0.15027 0
M  V30 4057 H 411.465 1.75667 -1.04892 0
M  V30 4058 H 411.475 4.07183 -0.258045 0
M  V30 4059 H 410.15 3.91633 -1.39986 0
M  V30 4060 H 408.727 3.70534 0.419411 0
M  V30 4061 N 410.912 0.523116 1.48665 0
M  V30 4062 C 412.328 0.180511 1.58576 0
M  V30 4063 C 412.528 -1.31597 1.52592 0
M  V30 4064 O 411.584 -2.0937 1.4114 0
M  V30 4065 C 412.897 0.776949 2.90489 0
M  V30 4066 C 414.445 0.745058 3.04003 0
M  V30 4067 C 414.92 1.31995 4.38567 0
M  V30 4068 N 416.411 1.28162 4.45117 0
M  V30 4069 C 417.146 1.6964 5.47731 0
M  V30 4070 N 416.642 2.18816 6.57337 0
M  V30 4071 N 418.435 1.6092 5.38573 0
M  V30 4072 H 410.586 1.4958 1.50797 0
M  V30 4073 H 412.849 0.621772 0.715614 0
M  V30 4074 H 412.555 1.82732 3.00503 0
M  V30 4075 H 412.429 0.25007 3.7637 0
M  V30 4076 H 414.816 -0.296532 2.93606 0
M  V30 4077 H 414.897 1.30933 2.1975 0
M  V30 4078 H 414.541 2.36043 4.49718 0
M  V30 4079 H 414.471 0.731418 5.21496 0
M  V30 4080 H 416.962 0.92155 3.66491 0
M  V30 4081 H 417.275 2.48478 7.31764 0
M  V30 4082 H 415.62 2.22805 6.58318 0
M  V30 4083 H 418.811 1.22304 4.5184 0
M  V30 4084 H 418.984 1.93567 6.18414 0
M  V30 4085 N 412.39 -1.55475 0.257931 0
M  V30 4086 C 413.618 -2.03609 -0.367559 0
M  V30 4087 C 414.033 -1.13687 -1.50734 0
M  V30 4088 O 413.39 -0.153479 -1.81853 0
M  V30 4089 C 413.441 -3.51001 -0.864908 0
M  V30 4090 O 413.162 -4.37499 0.229465 0
M  V30 4091 C 414.663 -4.14946 -1.55997 0
M  V30 4092 H 411.883 -0.665459 -0.0860521 0
M  V30 4093 H 414.427 -2.00843 0.385014 0
M  V30 4094 H 412.582 -3.54266 -1.56762 0
M  V30 4095 H 412.996 -5.24286 -0.14998 0
M  V30 4096 H 414.47 -5.19735 -1.85956 0
M  V30 4097 H 414.947 -3.6209 -2.4857 0
M  V30 4098 H 415.553 -4.15635 -0.901543 0
M  V30 4099 N 413.868 0.0150385 -1.57593 0
M  V30 4100 C 415.108 0.70768 -1.91758 0
M  V30 4101 C 415.472 1.71764 -0.857974 0
M  V30 4102 O 416.673 2.45956 -1.0844 0
M  V30 4103 C 414.944 1.34736 -3.3103 0
M  V30 4104 S 416.503 2.06721 -3.87056 0
M  V30 4105 H 413.321 0.234119 -0.671349 0
M  V30 4106 H 415.923 -0.0380373 -1.95463 0
M  V30 4107 H 414.627 0.59926 -4.06001 0
M  V30 4108 H 414.158 2.13133 -3.30663 0
M  V30 4109 H 416.173 3.34047 -3.66915 0
M  V30 4110 N 415.346 1.54954 0.287554 0
M  V30 4111 C 416.256 1.8991 1.37736 0
M  V30 4112 C 417.272 0.794701 1.54792 0
M  V30 4113 O 418.448 1.09243 1.69198 0
M  V30 4114 C 415.513 2.15108 2.71899 0
M  V30 4115 C 414.574 3.38752 2.63715 0
M  V30 4116 C 413.807 3.62739 3.91479 0
M  V30 4117 O 414.03 2.89492 4.91478 0
M  V30 4118 O 412.964 4.56267 3.92561 0
M  V30 4119 H 416.79 2.82652 1.11092 0
M  V30 4120 H 414.375 1.41315 0.484807 0
M  V30 4121 H 416.257 2.32806 3.51254 0
M  V30 4122 H 414.932 1.25551 2.9836 0
M  V30 4123 H 413.839 3.26405 1.82786 0
M  V30 4124 H 415.172 4.28483 2.42205 0
M  V30 4125 N 416.824 -0.551391 1.4764 0
M  V30 4126 C 418.064 -1.31901 1.56145 0
M  V30 4127 C 418.428 -1.90724 0.221013 0
M  V30 4128 O 419.629 -2.6819 0.180945 0
M  V30 4129 C 417.9 -2.39517 2.65267 0
M  V30 4130 S 419.459 -3.26289 2.93395 0
M  V30 4131 H 416.277 -0.448965 0.551318 0
M  V30 4132 H 418.879 -0.630599 1.85051 0
M  V30 4133 H 417.583 -1.94747 3.6125 0
M  V30 4134 H 417.114 -3.13092 2.38195 0
M  V30 4135 H 419.129 -4.39122 2.31055 0
M  V30 4136 N 418.302 -1.35869 -0.798587 0
M  V30 4137 C 419.718 -1.16082 -1.09532 0
M  V30 4138 C 419.918 0.0213124 -2.01489 0
M  V30 4139 O 418.974 0.689488 -2.42904 0
M  V30 4140 C 420.287 -2.46748 -1.7186 0
M  V30 4141 C 421.835 -2.53028 -1.84244 0
M  V30 4142 C 422.31 -3.83758 -2.49988 0
M  V30 4143 N 423.801 -3.85053 -2.57465 0
M  V30 4144 C 424.536 -4.8294 -3.09122 0
M  V30 4145 N 424.032 -5.91217 -3.61157 0
M  V30 4146 N 425.825 -4.70369 -3.0775 0
M  V30 4147 H 417.976 -2.11571 -0.187461 0
M  V30 4148 H 420.239 -0.936726 -0.145765 0
M  V30 4149 H 419.945 -3.33471 -1.11759 0
M  V30 4150 H 419.819 -2.61883 -2.71472 0
M  V30 4151 H 422.206 -1.66729 -2.43486 0
M  V30 4152 H 422.287 -2.418 -0.834643 0
M  V30 4153 H 421.931 -4.70459 -1.91393 0
M  V30 4154 H 421.861 -3.92278 -3.5132 0
M  V30 4155 H 424.352 -3.06822 -2.20609 0
M  V30 4156 H 424.665 -6.61892 -3.98896 0
M  V30 4157 H 423.01 -5.94899 -3.59333 0
M  V30 4158 H 426.201 -3.84914 -2.66381 0
M  V30 4159 H 426.374 -5.46816 -3.47701 0
M  V30 4160 N 419.78 1.02168 -1.19998 0
M  V30 4161 C 421.191 1.57135 -1.00825 0
M  V30 4162 C 421.542 1.91276 0.436818 0
M  V30 4163 O 420.667 1.71679 1.3174 0
M  V30 4164 C 421.262 2.85514 -1.82393 0
M  V30 4165 C 419.821 3.37027 -1.67601 0
M  V30 4166 C 418.968 2.10388 -1.80644 0
M  V30 4167 H 421.919 0.846106 -1.34264 0
M  V30 4168 H 421.94 3.56711 -1.32429 0
M  V30 4169 H 421.452 2.60634 -2.87561 0
M  V30 4170 H 419.553 3.66878 -0.650485 0
M  V30 4171 H 419.666 4.09572 -2.4857 0
M  V30 4172 H 418.03 2.22601 -1.23778 0
M  V30 4173 H 418.813 1.8794 -2.87286 0
M  V30 4174 N 421.258 1.00505 1.21394 0
M  V30 4175 C 422.506 0.686415 1.90086 0
M  V30 4176 C 422.827 -0.785264 1.7849 0
M  V30 4177 O 422.097 -1.56387 1.17983 0
M  V30 4178 H 420.677 0.2509 0.703604 0
M  V30 4179 H 423.339 1.27417 1.47482 0
M  V30 4180 H 422.435 0.959621 2.96981 0
M  V30 4181 N 422.737 -1.36956 0.779787 0
M  V30 4182 C 423.67 -2.27896 0.117681 0
M  V30 4183 C 424.648 -1.46736 -0.700523 0
M  V30 4184 O 425.832 -1.76055 -0.673568 0
M  V30 4185 C 422.959 -3.28136 -0.839296 0
M  V30 4186 C 422.005 -4.26373 -0.10409 0
M  V30 4187 S 422.838 -5.2157 1.21348 0
M  V30 4188 C 423.994 -6.25359 0.260249 0
M  V30 4189 H 424.227 -2.83704 0.888778 0
M  V30 4190 H 421.76 -1.43352 0.57355 0
M  V30 4191 H 423.718 -3.86394 -1.38601 0
M  V30 4192 H 422.379 -2.7126 -1.58356 0
M  V30 4193 H 421.572 -4.97121 -0.82986 0
M  V30 4194 H 421.174 -3.72147 0.371858 0
M  V30 4195 H 423.466 -6.75145 -0.564435 0
M  V30 4196 H 424.409 -7.01885 0.936135 0
M  V30 4197 H 424.817 -5.64345 -0.132127 0
M  V30 4198 N 424.215 -0.530993 -1.48385 0
M  V30 4199 C 425.464 0.00474348 -2.01699 0
M  V30 4200 C 425.777 1.35227 -1.41325 0
M  V30 4201 O 426.983 1.97643 -1.86144 0
M  V30 4202 C 425.439 0.0588473 -3.59852 0
M  V30 4203 C 425.047 -1.28385 -4.2921 0
M  V30 4204 C 426.791 0.543358 -4.21008 0
M  V30 4205 C 424.698 -1.19028 -5.79298 0
M  V30 4206 H 423.628 0.00554317 -0.75398 0
M  V30 4207 H 426.279 -0.674924 -1.70637 0
M  V30 4208 H 424.661 0.803612 -3.8776 0
M  V30 4209 H 425.835 -2.04426 -4.12973 0
M  V30 4210 H 424.15 -1.70418 -3.7993 0
M  V30 4211 H 426.747 0.631351 -5.3096 0
M  V30 4212 H 427.09 1.54937 -3.86394 0
M  V30 4213 H 427.623 -0.145754 -3.97533 0
M  V30 4214 H 424.362 -2.17147 -6.18488 0
M  V30 4215 H 423.882 -0.471246 -5.97946 0
M  V30 4216 H 425.561 -0.881365 -6.40969 0
M  V30 4217 N 425.693 1.55336 -0.266172 0
M  V30 4218 C 426.933 2.01303 0.354459 0
M  V30 4219 C 427.297 1.15046 1.53715 0
M  V30 4220 O 428.498 1.50554 2.22681 0
M  V30 4221 C 426.769 3.49748 0.735579 0
M  V30 4222 S 428.328 4.1771 1.34401 0
M  V30 4223 H 425.146 0.702333 0.110674 0
M  V30 4224 H 427.748 1.91653 -0.385916 0
M  V30 4225 H 426.452 4.10181 -0.134196 0
M  V30 4226 H 425.983 3.63364 1.50764 0
M  V30 4227 H 427.998 4.20594 2.63278 0
M  V30 4228 N 427.171 -0.0066808 1.57599 0
M  V30 4229 C 428.134 -0.985035 2.06953 0
M  V30 4230 C 429.134 -1.27663 0.977687 0
M  V30 4231 O 430.324 -1.22293 1.24057 0
M  V30 4232 C 427.456 -2.3118 2.50536 0
M  V30 4233 H 428.649 -0.558255 2.94658 0
M  V30 4234 H 426.202 -0.254011 1.54222 0
M  V30 4235 H 426.937 -2.78561 1.66054 0
M  V30 4236 H 426.722 -2.11338 3.3027 0
M  V30 4237 H 428.212 -3.01377 2.8907 0
M  V30 4238 N 428.649 -1.55105 -0.279332 0
M  V30 4239 C 429.877 -1.7943 -1.03017 0
M  V30 4240 C 430.292 -0.564456 -1.80165 0
M  V30 4241 O 429.649 0.466326 -1.76442 0
M  V30 4242 C 429.7 -3.0155 -1.99374 0
M  V30 4243 O 429.421 -4.19784 -1.25352 0
M  V30 4244 C 430.922 -3.3843 -2.86321 0
M  V30 4245 H 428.142 -0.597882 -0.304594 0
M  V30 4246 H 430.686 -2.02105 -0.312035 0
M  V30 4247 H 428.841 -2.81019 -2.66659 0
M  V30 4248 H 429.255 -4.88781 -1.90246 0
M  V30 4249 H 430.729 -4.27066 -3.49741 0
M  V30 4250 H 431.206 -2.57549 -3.5576 0
M  V30 4251 H 431.812 -3.61197 -2.24536 0
M  V30 4252 N 430.127 0.543554 -1.4793 0
M  V30 4253 C 431.352 1.32995 -1.59145 0
M  V30 4254 C 431.777 1.86472 -0.246956 0
M  V30 4255 O 431.135 1.63696 0.779324 0
M  V30 4256 C 431.183 2.46623 -2.63077 0
M  V30 4257 O 430.287 3.49261 -2.19295 0
M  V30 4258 H 429.628 0.394472 -0.534124 0
M  V30 4259 H 432.158 0.655489 -1.93816 0
M  V30 4260 H 432.168 2.93001 -2.83926 0
M  V30 4261 H 430.843 2.07059 -3.60693 0
M  V30 4262 H 429.42 3.09094 -2.08603 0
M  V30 4263 N 431.605 1.3629 0.791371 0
M  V30 4264 C 432.568 1.30309 1.88553 0
M  V30 4265 C 433.568 0.211204 1.59407 0
M  V30 4266 O 434.758 0.465865 1.67855 0
M  V30 4267 C 431.89 1.01956 3.25297 0
M  V30 4268 H 433.083 2.27614 1.95273 0
M  V30 4269 H 430.636 1.21035 0.988953 0
M  V30 4270 H 431.371 0.050998 3.2426 0
M  V30 4271 H 431.156 1.80968 3.4784 0
M  V30 4272 H 432.646 1.0037 4.05359 0
M  V30 4273 N 433.083 -1.0153 1.20538 0
M  V30 4274 C 434.311 -1.78746 1.04199 0
M  V30 4275 C 434.726 -1.84323 -0.408733 0
M  V30 4276 O 434.083 -1.29714 -1.28377 0
M  V30 4277 C 434.134 -3.23152 1.62035 0
M  V30 4278 O 433.855 -3.17918 3.0143 0
M  V30 4279 C 435.356 -4.16911 1.50666 0
M  V30 4280 H 432.576 -0.56208 0.366479 0
M  V30 4281 H 435.12 -1.27794 1.59653 0
M  V30 4282 H 433.275 -3.71248 1.10697 0
M  V30 4283 H 433.689 -4.08567 3.28897 0
M  V30 4284 H 435.163 -5.16072 1.95892 0
M  V30 4285 H 435.64 -4.36791 0.459363 0
M  V30 4286 H 436.246 -3.74698 2.01201 0
M  V30 4287 N 434.561 -1.01147 -1.20859 0
M  V30 4288 C 435.509 -0.57059 -2.25493 0
M  V30 4289 C 436.503 0.388109 -1.64894 0
M  V30 4290 O 437.709 0.258592 -1.78133 0
M  V30 4291 H 434.084 -0.166191 -0.733406 0
M  V30 4292 H 436.055 -1.46411 -2.60012 0
M  V30 4293 C 434.804 0.0805241 -3.47607 0
M  V30 4294 H 434.127 -0.648156 -3.94511 0
M  V30 4295 H 435.567 0.352197 -4.22535 0
M  V30 4296 C 434.026 1.32175 -3.09889 0
M  V30 4297 O 434.556 2.41553 -3.20959 0
M  V30 4298 N 432.762 1.20392 -2.64488 0
M  V30 4299 H 432.309 0.313905 -2.5568 0
M  V30 4300 H 432.267 2.03541 -2.39621 0
M  V30 4301 N 436.039 1.36541 -0.78704 0
M  V30 4302 C 437.264 2.0409 -0.369053 0
M  V30 4303 C 437.689 1.58957 1.00569 0
M  V30 4304 O 437.047 0.756926 1.64743 0
M  V30 4305 C 437.095 3.57924 -0.438466 0
M  V30 4306 O 436.199 4.08642 0.555479 0
M  V30 4307 H 435.54 0.645142 -0.157122 0
M  V30 4308 H 438.07 1.74545 -1.06749 0
M  V30 4309 H 438.08 4.06887 -0.301218 0
M  V30 4310 H 436.755 3.90127 -1.44132 0
M  V30 4311 H 435.332 3.70958 0.380088 0
M  V30 4312 N 437.518 0.538854 1.48102 0
M  V30 4313 C 438.758 0.0101209 2.04397 0
M  V30 4314 C 439.122 -1.30741 1.40609 0
M  V30 4315 O 440.323 -1.92272 1.87843 0
M  V30 4316 C 438.594 -0.100232 3.57259 0
M  V30 4317 S 440.153 -0.577746 4.3498 0
M  V30 4318 H 436.971 0.0163171 0.710813 0
M  V30 4319 H 439.573 0.721429 1.81702 0
M  V30 4320 H 438.277 0.863351 4.01216 0
M  V30 4321 H 437.808 -0.835651 3.84422 0
M  V30 4322 H 439.823 -1.84073 4.60794 0
M  V30 4323 N 438.996 -1.55193 0.274407 0
M  V30 4324 C 439.959 -2.212 -0.600279 0
M  V30 4325 C 440.959 -1.18963 -1.08187 0
M  V30 4326 O 442.149 -1.43873 -0.982158 0
M  V30 4327 C 439.281 -2.87739 -1.82809 0
M  V30 4328 H 440.474 -2.9989 -0.0239682 0
M  V30 4329 H 438.027 -1.5628 0.0250192 0
M  V30 4330 H 438.762 -2.13058 -2.44493 0
M  V30 4331 H 438.547 -3.62658 -1.49069 0
M  V30 4332 H 440.037 -3.38171 -2.45011 0
M  V30 4333 N 440.474 -0.00167713 -1.576 0
M  V30 4334 C 441.89 0.354422 -1.55615 0
M  V30 4335 C 442.09 1.74679 -1.00447 0
M  V30 4336 O 441.146 2.4428 -0.639022 0
M  V30 4337 C 442.459 0.22812 -2.99833 0
M  V30 4338 C 444.007 0.302934 -3.11531 0
M  V30 4339 C 444.482 0.205737 -4.57538 0
M  V30 4340 N 445.973 0.263584 -4.62449 0
M  V30 4341 C 446.708 0.211742 -5.73009 0
M  V30 4342 N 446.204 0.110399 -6.92712 0
M  V30 4343 N 447.997 0.263729 -5.61481 0
M  V30 4344 H 440.148 -0.912498 -1.918 0
M  V30 4345 H 442.411 -0.349928 -0.881053 0
M  V30 4346 H 442.117 -0.729934 -3.44042 0
M  V30 4347 H 441.991 1.00951 -3.6344 0
M  V30 4348 H 444.378 1.25143 -2.67251 0
M  V30 4349 H 444.459 -0.508357 -2.50698 0
M  V30 4350 H 444.103 -0.739225 -5.02492 0
M  V30 4351 H 444.033 1.03554 -5.16318 0
M  V30 4352 H 446.524 0.343173 -3.76339 0
M  V30 4353 H 446.837 0.0767828 -7.72762 0
M  V30 4354 H 445.182 0.0760025 -6.94958 0
M  V30 4355 H 448.373 0.34111 -4.66855 0
M  V30 4356 H 448.546 0.219862 -6.47627 0
M  V30 4357 N 441.952 1.55251 0.271103 0
M  V30 4358 C 443.192 1.77698 1.01008 0
M  V30 4359 C 443.556 0.567246 1.83429 0
M  V30 4360 O 444.757 0.670013 2.60316 0
M  V30 4361 C 443.028 3.04715 1.86772 0
M  V30 4362 S 444.587 3.48289 2.66909 0
M  V30 4363 H 441.405 0.624343 0.340172 0
M  V30 4364 H 444.007 1.9348 0.280315 0
M  V30 4365 H 442.711 3.90853 1.25149 0
M  V30 4366 H 442.242 2.91604 2.64066 0
M  V30 4367 H 444.257 3.07712 3.89266 0
M  V30 4368 N 443.43 -0.535701 1.48216 0
M  V30 4369 C 444.676 -1.29375 1.56173 0
M  V30 4370 C 445.009 -1.92804 0.232429 0
M  V30 4371 O 444.284 -1.78992 -0.761048 0
M  V30 4372 C 444.567 -2.38747 2.69577 0
M  V30 4373 C 444.42 -1.80046 4.12193 0
M  V30 4374 C 445.739 -3.40551 2.78771 0
M  V30 4375 H 442.858 -0.469027 0.568491 0
M  V30 4376 H 445.5 -0.597358 1.80365 0
M  V30 4377 H 443.65 -2.98147 2.4908 0
M  V30 4378 H 445.322 -1.24742 4.44114 0
M  V30 4379 H 443.565 -1.10609 4.19462 0
M  V30 4380 H 444.236 -2.59212 4.87353 0
M  V30 4381 H 446.712 -2.91099 2.97322 0
M  V30 4382 H 445.588 -4.1448 3.59857 0
M  V30 4383 H 445.849 -4.00746 1.86696 0
M  V30 4384 N 444.908 -1.36708 -0.784132 0
M  V30 4385 C 446.319 -1.27947 -1.35965 0
M  V30 4386 C 446.67 0.0784013 -1.96043 0
M  V30 4387 O 445.795 0.979989 -1.92938 0
M  V30 4388 C 446.39 -2.31689 -2.47195 0
M  V30 4389 C 444.949 -2.26601 -3.00548 0
M  V30 4390 C 444.096 -2.16184 -1.73666 0
M  V30 4391 H 447.047 -1.4751 -0.585358 0
M  V30 4392 H 447.068 -1.95638 -3.26352 0
M  V30 4393 H 446.58 -3.30506 -2.03439 0
M  V30 4394 H 444.681 -1.31268 -3.48711 0
M  V30 4395 H 444.794 -3.19508 -3.57004 0
M  V30 4396 H 443.158 -1.62524 -1.96107 0
M  V30 4397 H 443.941 -3.16896 -1.32031 0
M  V30 4398 N 446.386 1.0089 -1.21074 0
M  V30 4399 C 447.616 1.77933 -1.04993 0
M  V30 4400 C 448.024 1.84847 0.403495 0
M  V30 4401 O 447.367 1.30606 1.29181 0
M  V30 4402 C 447.429 3.23541 -1.56722 0
M  V30 4403 C 447.093 3.40214 -3.05129 0
M  V30 4404 C 448.09 3.2881 -4.02716 0
M  V30 4405 C 445.775 3.65781 -3.44252 0
M  V30 4406 C 447.769 3.42732 -5.37414 0
M  V30 4407 C 445.456 3.79346 -4.79103 0
M  V30 4408 C 446.454 3.67827 -5.75493 0
M  V30 4409 O 446.142 3.80965 -7.07899 0
M  V30 4410 H 445.874 0.566157 -0.369381 0
M  V30 4411 H 448.428 1.27826 -1.60779 0
M  V30 4412 H 446.658 3.74766 -0.953285 0
M  V30 4413 H 448.347 3.82245 -1.36543 0
M  V30 4414 H 449.113 3.08986 -3.73835 0
M  V30 4415 H 444.992 3.73831 -2.69762 0
M  V30 4416 H 448.536 3.33658 -6.12632 0
M  V30 4417 H 444.433 3.98672 -5.07672 0
M  V30 4418 H 445.201 3.97937 -7.15254 0
M  V30 4419 N 447.864 1.01787 1.20321 0
M  V30 4420 C 449.275 0.739307 1.71438 0
M  V30 4421 C 449.626 -0.742041 1.81627 0
M  V30 4422 O 448.751 -1.57903 1.47971 0
M  V30 4423 C 449.346 1.33538 3.11373 0
M  V30 4424 C 447.905 1.10566 3.59795 0
M  V30 4425 C 447.052 1.44028 2.36962 0
M  V30 4426 H 450.003 1.18718 1.05317 0
M  V30 4427 H 450.024 0.726611 3.73498 0
M  V30 4428 H 449.536 2.41352 3.03926 0
M  V30 4429 H 447.637 0.0452405 3.72573 0
M  V30 4430 H 447.75 1.78661 4.44542 0
M  V30 4431 H 446.114 0.85933 2.39766 0
M  V30 4432 H 446.897 2.52901 2.32155 0
M  V30 4433 N 449.342 -1.36122 0.79427 0
M  V30 4434 C 450.591 -1.98361 0.365464 0
M  V30 4435 C 450.904 -1.6374 -1.06997 0
M  V30 4436 O 452.11 -2.19251 -1.60129 0
M  V30 4437 C 450.566 -3.54821 0.602496 0
M  V30 4438 C 450.174 -3.98362 2.04967 0
M  V30 4439 C 451.918 -4.2383 0.238437 0
M  V30 4440 C 449.825 -5.47619 2.2331 0
M  V30 4441 H 448.755 -0.742193 0.13291 0
M  V30 4442 H 451.406 -1.55354 0.976589 0
M  V30 4443 H 449.788 -3.95922 -0.078409 0
M  V30 4444 H 450.962 -3.68447 2.76737 0
M  V30 4445 H 449.277 -3.42206 2.37243 0
M  V30 4446 H 451.874 -5.33529 0.353705 0
M  V30 4447 H 452.217 -4.08264 -0.814006 0
M  V30 4448 H 452.75 -3.88108 0.872769 0
M  V30 4449 H 449.489 -5.68138 3.26955 0
M  V30 4450 H 449.009 -5.79145 1.5605 0
M  V30 4451 H 450.688 -6.13911 2.0426 0
M  V30 4452 N 450.82 -0.546701 -1.47814 0
M  V30 4453 C 452.06 -0.0209604 -2.04389 0
M  V30 4454 C 452.424 1.29993 -1.413 0
M  V30 4455 O 453.625 1.91273 -1.8886 0
M  V30 4456 C 451.896 0.0812844 -3.57308 0
M  V30 4457 S 453.455 0.55467 -4.3528 0
M  V30 4458 H 450.273 -0.0200865 -0.710716 0
M  V30 4459 H 452.875 -0.731055 -1.81317 0
M  V30 4460 H 451.579 -0.884616 -4.00753 0
M  V30 4461 H 451.11 0.815253 -3.8486 0
M  V30 4462 H 453.125 1.81627 -4.61764 0
M  V30 4463 N 452.299 1.55045 -0.282633 0
M  V30 4464 C 453.262 2.21515 0.588539 0
M  V30 4465 C 454.262 1.19535 1.07554 0
M  V30 4466 O 455.452 1.44391 0.974514 0
M  V30 4467 C 452.584 2.88704 1.8128 0
M  V30 4468 H 453.777 2.99899 0.00806397 0
M  V30 4469 H 451.33 1.56265 -0.0333067 0
M  V30 4470 H 452.065 2.14352 2.43359 0
M  V30 4471 H 451.85 3.63443 1.47144 0
M  V30 4472 H 453.34 3.39465 2.43214 0
M  V30 4473 N 453.777 0.010035 1.57597 0
M  V30 4474 C 454.74 -0.963029 2.07986 0
M  V30 4475 C 455.74 -1.26619 0.991173 0
M  V30 4476 O 456.93 -1.2097 1.25347 0
M  V30 4477 C 454.062 -2.2851 2.52974 0
M  V30 4478 H 455.255 -0.526971 2.95234 0
M  V30 4479 H 452.808 -0.237639 1.54483 0
M  V30 4480 H 453.543 -2.76784 1.69 0
M  V30 4481 H 453.328 -2.07824 3.32493 0
M  V30 4482 H 454.818 -2.98294 2.9225 0
M  V30 4483 N 455.255 -1.55392 -0.262866 0
M  V30 4484 C 456.165 -1.92077 -1.34698 0
M  V30 4485 C 457.181 -0.819227 -1.53508 0
M  V30 4486 O 458.357 -1.11921 -1.67439 0
M  V30 4487 C 455.422 -2.19407 -2.68443 0
M  V30 4488 C 454.483 -3.42905 -2.58292 0
M  V30 4489 C 453.716 -3.68921 -3.85659 0
M  V30 4490 O 453.939 -2.97275 -4.8681 0
M  V30 4491 O 452.873 -4.62455 -3.85252 0
M  V30 4492 H 456.699 -2.84384 -1.06581 0
M  V30 4493 H 454.284 -1.42069 -0.462264 0
M  V30 4494 H 456.166 -2.38365 -3.47506 0
M  V30 4495 H 454.841 -1.30282 -2.96325 0
M  V30 4496 H 453.748 -3.29272 -1.7757 0
M  V30 4497 H 455.081 -4.32282 -2.35358 0
M  V30 4498 N 456.733 0.527833 -1.48498 0
M  V30 4499 C 457.961 1.30823 -1.6029 0
M  V30 4500 C 458.376 1.86945 -0.263974 0
M  V30 4501 O 457.733 1.6651 0.747034 0
M  V30 4502 C 457.784 2.45756 -2.65116 0
M  V30 4503 O 457.505 1.91946 -3.93813 0
M  V30 4504 C 459.006 3.37543 -2.87367 0
M  V30 4505 H 456.226 0.397763 -0.540394 0
M  V30 4506 H 458.77 0.636529 -1.94341 0
M  V30 4507 H 456.925 3.08806 -2.33917 0
M  V30 4508 H 457.339 2.67195 -4.51339 0
M  V30 4509 H 458.813 4.14532 -3.6451 0
M  V30 4510 H 459.29 3.92905 -1.9627 0
M  V30 4511 H 459.896 2.80283 -3.19878 0
M  V30 4512 N 458.211 1.37122 0.776871 0
M  V30 4513 C 459.457 1.32243 1.53752 0
M  V30 4514 C 459.79 -0.0944745 1.9397 0
M  V30 4515 O 459.065 -1.05068 1.6368 0
M  V30 4516 C 459.348 2.25681 2.80607 0
M  V30 4517 C 459.201 3.76127 2.46676 0
M  V30 4518 C 460.52 2.17657 3.82509 0
M  V30 4519 H 457.639 0.481704 0.557791 0
M  V30 4520 H 460.281 1.6778 0.891612 0
M  V30 4521 H 458.431 1.95505 3.35723 0
M  V30 4522 H 460.103 4.16877 1.97513 0
M  V30 4523 H 458.346 3.94946 1.79443 0
M  V30 4524 H 459.017 4.36933 3.37333 0
M  V30 4525 H 461.493 2.44245 3.36873 0
M  V30 4526 H 460.369 2.85185 4.69 0
M  V30 4527 H 460.63 1.16785 4.26396 0
M  V30 4528 N 459.689 -1.00246 1.21608 0
M  V30 4529 C 460.917 -1.77631 1.06089 0
M  V30 4530 C 461.332 -1.84746 -0.38916 0
M  V30 4531 O 460.689 -1.31068 -1.26994 0
M  V30 4532 C 460.74 -3.21415 1.65453 0
M  V30 4533 O 460.461 -3.14703 3.04785 0
M  V30 4534 C 461.962 -4.15289 1.55079 0
M  V30 4535 H 459.182 -0.558162 0.37242 0
M  V30 4536 H 461.726 -1.26093 1.60999 0
M  V30 4537 H 459.881 -3.70053 1.14629 0
M  V30 4538 H 460.295 -4.05056 3.33212 0
M  V30 4539 H 461.769 -5.13965 2.01355 0
M  V30 4540 H 462.246 -4.36279 0.505665 0
M  V30 4541 H 462.852 -3.72543 2.05163 0
M  V30 4542 N 461.167 -1.02423 -1.1978 0
M  V30 4543 C 462.114 -0.601023 -2.22837 0
M  V30 4544 C 463.084 0.382801 -1.61629 0
M  V30 4545 O 464.269 0.280514 -1.88727 0
M  V30 4546 C 461.409 0.0467755 -3.45068 0
M  V30 4547 C 460.522 -0.98253 -4.20678 0
M  V30 4548 C 459.657 -0.304982 -5.30324 0
M  V30 4549 C 458.696 -1.32052 -5.97686 0
M  V30 4550 N 457.833 -0.669105 -6.98904 0
M  V30 4551 H 462.673 -1.48444 -2.58396 0
M  V30 4552 H 460.21 -0.742936 -1.2696 0
M  V30 4553 H 462.168 0.439556 -4.14878 0
M  V30 4554 H 460.798 0.893796 -3.10179 0
M  V30 4555 H 459.85 -1.49341 -3.49859 0
M  V30 4556 H 461.162 -1.75455 -4.66923 0
M  V30 4557 H 460.316 0.142893 -6.06532 0
M  V30 4558 H 459.055 0.499283 -4.85138 0
M  V30 4559 H 458.06 -1.7787 -5.20233 0
M  V30 4560 H 459.285 -2.1262 -6.44957 0
M  V30 4561 H 457.231 0.115152 -6.55899 0
M  V30 4562 H 457.148 -1.37908 -7.43315 0
M  V30 4563 H 458.416 -0.245076 -7.79115 0
M  V30 4564 N 462.645 1.35699 -0.801477 0
M  V30 4565 C 464.056 1.81415 -0.441073 0
M  V30 4566 C 464.407 1.66595 1.03636 0
M  V30 4567 O 463.532 1.19369 1.80499 0
M  V30 4568 C 464.127 3.29369 -0.793819 0
M  V30 4569 C 462.686 3.73248 -0.486083 0
M  V30 4570 C 461.833 2.57775 -1.02213 0
M  V30 4571 H 464.784 1.23749 -0.993572 0
M  V30 4572 H 464.805 3.80395 -0.0894158 0
M  V30 4573 H 464.317 3.40123 -1.86917 0
M  V30 4574 H 462.418 3.68046 0.580735 0
M  V30 4575 H 462.531 4.68222 -1.01513 0
M  V30 4576 H 460.895 2.50788 -0.444712 0
M  V30 4577 H 461.678 2.71309 -2.10348 0
M  V30 4578 N 464.123 0.554532 1.47522 0
M  V30 4579 C 465.055 -0.232106 2.28022 0
M  V30 4580 C 466.068 -0.881865 1.36847 0
M  V30 4581 O 467.257 -0.756168 1.61692 0
M  V30 4582 C 464.357 -1.34604 3.11022 0
M  V30 4583 C 463.53 -0.793582 4.30141 0
M  V30 4584 C 462.589 -1.79168 4.94758 0
M  V30 4585 O 461.615 -1.33886 5.5323 0
M  V30 4586 N 462.817 -3.12495 4.89211 0
M  V30 4587 H 465.582 0.458407 2.96173 0
M  V30 4588 H 463.143 0.390433 1.57122 0
M  V30 4589 H 465.135 -2.01243 3.51118 0
M  V30 4590 H 463.705 -1.93983 2.45131 0
M  V30 4591 H 462.925 0.0495025 3.94169 0
M  V30 4592 H 464.213 -0.403776 5.07195 0
M  V30 4593 H 463.611 -3.51931 4.42901 0
M  V30 4594 H 462.168 -3.74698 5.33333 0
M  V30 4595 N 465.601 -1.54893 0.290851 0
M  V30 4596 C 466.878 -1.91991 -0.373989 0
M  V30 4597 C 467.258 -1.21694 -1.72493 0
M  V30 4598 O 466.606 -0.34917 -2.25816 0
M  V30 4599 C 466.816 -3.45419 -0.498703 0
M  V30 4600 C 468.164 -4.1748 -0.774298 0
M  V30 4601 O 469.188 -3.51398 -0.582908 0
M  V30 4602 O 468.047 -5.3445 -1.14129 0
M  V30 4603 H 465.141 -0.800593 -0.207315 0
M  V30 4604 H 467.687 -1.66297 0.338164 0
M  V30 4605 H 466.459 -3.88688 0.451392 0
M  V30 4606 H 466.082 -3.77117 -1.25972 0
M  V30 4607 N 467.08 -0.0183926 -1.57589 0
M  V30 4608 C 468.013 1.00148 -2.0505 0
M  V30 4609 C 468.991 1.32387 -0.944058 0
M  V30 4610 O 470.175 1.44237 -1.21358 0
M  V30 4611 C 467.302 2.32435 -2.46357 0
M  V30 4612 C 466.348 2.15731 -3.67916 0
M  V30 4613 S 467.181 1.46613 -5.15039 0
M  V30 4614 C 468.337 2.80293 -5.59631 0
M  V30 4615 H 468.57 0.597429 -2.91235 0
M  V30 4616 H 466.103 0.193002 -1.53189 0
M  V30 4617 H 468.061 3.0849 -2.70822 0
M  V30 4618 H 466.722 2.69975 -1.60537 0
M  V30 4619 H 465.915 3.13502 -3.9463 0
M  V30 4620 H 465.517 1.4782 -3.43548 0
M  V30 4621 H 467.809 3.76557 -5.63215 0
M  V30 4622 H 468.752 2.58256 -6.59325 0
M  V30 4623 H 469.16 2.85047 -4.87246 0
M  V30 4624 N 468.558 1.5553 0.254621 0
M  V30 4625 C 469.521 1.88872 1.29846 0
M  V30 4626 C 470.521 0.764591 1.41459 0
M  V30 4627 O 471.711 1.03265 1.40293 0
M  V30 4628 C 468.843 2.11032 2.67728 0
M  V30 4629 H 470.036 2.82201 1.01502 0
M  V30 4630 H 467.589 1.48303 0.493556 0
M  V30 4631 H 468.324 1.20146 3.01223 0
M  V30 4632 H 468.109 2.92895 2.60682 0
M  V30 4633 H 469.599 2.38038 3.43115 0
M  V30 4634 N 470.036 -0.519951 1.48776 0
M  V30 4635 C 470.946 -1.65025 1.66745 0
M  V30 4636 C 471.962 -1.6508 0.549954 0
M  V30 4637 O 473.138 -1.83848 0.822295 0
M  V30 4638 C 470.203 -3.0146 1.71238 0
M  V30 4639 C 469.264 -3.12182 2.94688 0
M  V30 4640 C 468.497 -4.42109 2.98958 0
M  V30 4641 O 468.72 -5.29799 2.1135 0
M  V30 4642 O 467.654 -4.57406 3.91233 0
M  V30 4643 H 471.48 -1.52801 2.62461 0
M  V30 4644 H 469.065 -0.694157 1.32294 0
M  V30 4645 H 470.947 -3.82584 1.76657 0
M  V30 4646 H 469.622 -3.13988 0.786975 0
M  V30 4647 H 468.529 -2.30316 2.94797 0
M  V30 4648 H 469.862 -3.04574 3.86646 0
M  V30 4649 N 471.514 -1.37532 -0.769588 0
M  V30 4650 C 472.461 -1.3347 -1.88293 0
M  V30 4651 C 473.431 -0.199891 -1.64893 0
M  V30 4652 O 474.616 -0.389594 -1.8678 0
M  V30 4653 C 471.756 -1.14968 -3.25387 0
M  V30 4654 C 470.869 -2.37698 -3.60727 0
M  V30 4655 C 470.004 -2.12051 -4.8704 0
M  V30 4656 C 469.043 -3.30636 -5.15117 0
M  V30 4657 N 468.18 -3.04527 -6.3262 0
M  V30 4658 H 473.02 -2.28658 -1.911 0
M  V30 4659 H 470.557 -1.13622 -0.934257 0
M  V30 4660 H 472.515 -1.02261 -4.04473 0
M  V30 4661 H 471.145 -0.234263 -3.21949 0
M  V30 4662 H 470.197 -2.61137 -2.76608 0
M  V30 4663 H 471.509 -3.26131 -3.77413 0
M  V30 4664 H 470.663 -1.96388 -5.74035 0
M  V30 4665 H 469.402 -1.20959 -4.72462 0
M  V30 4666 H 468.407 -3.46836 -4.26597 0
M  V30 4667 H 469.632 -4.22582 -5.31603 0
M  V30 4668 H 467.578 -2.16067 -6.19396 0
M  V30 4669 H 467.495 -3.86503 -6.49732 0
M  V30 4670 H 468.763 -2.92485 -7.22546 0
M  V30 4671 N 472.992 0.995999 -1.22138 0
M  V30 4672 C 474.269 1.70834 -0.952642 0
M  V30 4673 C 474.649 2.04257 0.533119 0
M  V30 4674 O 473.997 1.72343 1.50034 0
M  V30 4675 C 474.207 2.96119 -1.84701 0
M  V30 4676 C 475.555 3.68962 -2.10124 0
M  V30 4677 O 476.579 3.0612 -1.82124 0
M  V30 4678 O 475.438 4.82017 -2.57531 0
M  V30 4679 H 472.532 0.745498 -0.357997 0
M  V30 4680 H 475.078 1.05262 -1.33109 0
M  V30 4681 H 473.85 2.67898 -2.85213 0
M  V30 4682 H 473.473 3.6943 -1.46995 0
M  V30 4683 N 474.47 1.03057 1.19235 0
M  V30 4684 C 475.698 0.747697 1.92917 0
M  V30 4685 C 476.113 -0.69372 1.75593 0
M  V30 4686 O 475.47 -1.47191 1.07894 0
M  V30 4687 C 475.521 1.09159 3.44625 0
M  V30 4688 O 475.242 2.47641 3.61394 0
M  V30 4689 C 476.743 0.831763 4.35427 0
M  V30 4690 H 473.963 0.273453 0.612751 0
M  V30 4691 H 476.507 1.37552 1.51327 0
M  V30 4692 H 474.662 0.508919 3.84043 0
M  V30 4693 H 475.076 2.60499 4.55237 0
M  V30 4694 H 476.55 1.12233 5.4047 0
M  V30 4695 H 477.027 -0.233769 4.38577 0
M  V30 4696 H 477.633 1.39725 4.01693 0
M  V30 4697 N 475.948 -1.35272 0.808662 0
M  V30 4698 C 477.176 -2.02946 0.402537 0
M  V30 4699 C 477.591 -1.60937 -0.987147 0
M  V30 4700 O 476.948 -0.807917 -1.63643 0
M  V30 4701 C 476.999 -3.58317 0.47868 0
M  V30 4702 O 476.72 -3.98799 1.81358 0
M  V30 4703 C 478.221 -4.43251 0.0656281 0
M  V30 4704 H 475.441 -0.650831 0.163279 0
M  V30 4705 H 477.985 -1.72849 1.09286 0
M  V30 4706 H 476.14 -3.87055 -0.163415 0
M  V30 4707 H 476.554 -4.93451 1.77781 0
M  V30 4708 H 478.028 -5.51738 0.170017 0
M  V30 4709 H 478.505 -4.27913 -0.989278 0
M  V30 4710 H 479.111 -4.19813 0.68096 0
M  V30 4711 N 477.426 -0.562348 -1.47226 0
M  V30 4712 C 478.673 -0.0402165 -2.0246 0
M  V30 4713 C 479.001 1.31169 -1.43614 0
M  V30 4714 O 478.256 1.86805 -0.5833 0
M  V30 4715 C 478.555 0.0969817 -3.57268 0
M  V30 4716 C 478.221 -1.1847 -4.35058 0
M  V30 4717 C 476.883 -1.53588 -4.56031 0
M  V30 4718 C 479.235 -2.03378 -4.79882 0
M  V30 4719 C 476.563 -2.73452 -5.19077 0
M  V30 4720 C 478.915 -3.2245 -5.44251 0
M  V30 4721 C 477.579 -3.57876 -5.63455 0
M  V30 4722 H 476.849 -0.0147163 -0.740854 0
M  V30 4723 H 479.496 -0.734895 -1.76838 0
M  V30 4724 H 477.801 0.87466 -3.81912 0
M  V30 4725 H 479.498 0.516408 -3.97661 0
M  V30 4726 H 476.088 -0.90126 -4.19017 0
M  V30 4727 H 480.272 -1.77553 -4.63453 0
M  V30 4728 H 475.528 -3.01062 -5.32139 0
M  V30 4729 H 479.702 -3.88526 -5.77945 0
M  V30 4730 H 477.329 -4.50849 -6.12078 0
M  V30 4731 N 478.904 1.54736 -0.299062 0
M  V30 4732 C 479.814 2.27127 0.587413 0
M  V30 4733 C 480.83 1.30575 1.15005 0
M  V30 4734 O 482.006 1.63554 1.17525 0
M  V30 4735 C 479.071 2.99645 1.74395 0
M  V30 4736 C 478.132 4.11731 1.21559 0
M  V30 4737 C 477.365 4.80781 2.317 0
M  V30 4738 O 477.588 4.4918 3.51558 0
M  V30 4739 O 476.522 5.68226 1.98501 0
M  V30 4740 H 480.348 3.037 0.000250109 0
M  V30 4741 H 477.933 1.49256 -0.0655919 0
M  V30 4742 H 479.815 3.45138 2.4178 0
M  V30 4743 H 478.49 2.25969 2.31775 0
M  V30 4744 H 477.397 3.70641 0.507514 0
M  V30 4745 H 478.73 4.87379 0.687233 0
M  V30 4746 N 480.382 0.0267497 1.57577 0
M  V30 4747 C 481.345 -0.940916 2.08996 0
M  V30 4748 C 482.345 -1.25561 1.00455 0
M  V30 4749 O 483.535 -1.19634 1.26623 0
M  V30 4750 C 480.667 -2.25814 2.55384 0
M  V30 4751 H 481.86 -0.495628 2.95776 0
M  V30 4752 H 479.413 -0.221241 1.54726 0
M  V30 4753 H 480.148 -2.74976 1.71926 0
M  V30 4754 H 479.933 -2.04285 3.34679 0
M  V30 4755 H 481.423 -2.95178 2.95398 0
M  V30 4756 N 481.861 -1.55662 -0.24637 0
M  V30 4757 C 483.272 -1.67953 -0.81539 0
M  V30 4758 C 483.623 -0.624302 -1.86002 0
M  V30 4759 O 482.748 0.229328 -2.15181 0
M  V30 4760 C 483.343 -3.04484 -1.48576 0
M  V30 4761 C 481.902 -3.18713 -2.00248 0
M  V30 4762 C 481.049 -2.6383 -0.853766 0
M  V30 4763 H 484 -1.58685 -0.0221692 0
M  V30 4764 H 484.021 -2.98959 -2.3538 0
M  V30 4765 H 483.533 -3.81264 -0.725222 0
M  V30 4766 H 481.634 -2.46757 -2.79181 0
M  V30 4767 H 481.747 -4.25628 -2.1995 0
M  V30 4768 H 480.111 -2.21667 -1.25442 0
M  V30 4769 H 480.894 -3.43135 -0.106302 0
M  V30 4770 N 483.339 0.512053 -1.4905 0
M  V30 4771 C 484.75 1.09376 -1.51307 0
M  V30 4772 C 485.101 1.94 -0.292971 0
M  V30 4773 O 484.226 2.07965 0.598277 0
M  V30 4774 C 484.821 1.99031 -2.74176 0
M  V30 4775 C 483.38 2.52385 -2.79247 0
M  V30 4776 C 482.527 1.29749 -2.45073 0
M  V30 4777 H 485.478 0.296467 -1.55906 0
M  V30 4778 H 485.499 2.83569 -2.53711 0
M  V30 4779 H 485.011 1.37412 -3.62959 0
M  V30 4780 H 483.112 3.17673 -1.94716 0
M  V30 4781 H 483.225 2.90293 -3.81139 0
M  V30 4782 H 481.589 1.61912 -1.96612 0
M  V30 4783 H 482.372 0.698555 -3.36118 0
M  V30 4784 N 484.817 1.37938 0.762283 0
M  V30 4785 C 485.747 1.37176 1.88958 0
M  V30 4786 C 486.728 0.238945 1.68413 0
M  V30 4787 O 487.913 0.440726 1.89133 0
M  V30 4788 C 485.043 1.18742 3.2637 0
M  V30 4789 C 483.997 2.29136 3.61498 0
M  V30 4790 C 483.323 1.95816 4.97554 0
M  V30 4791 C 484.623 3.71363 3.6727 0
M  V30 4792 H 486.317 2.31509 1.89853 0
M  V30 4793 H 483.863 1.11438 0.912005 0
M  V30 4794 H 485.816 1.16837 4.04879 0
M  V30 4795 H 484.54 0.208683 3.25933 0
M  V30 4796 H 483.199 2.30213 2.85303 0
M  V30 4797 H 482.847 0.964475 4.93667 0
M  V30 4798 H 482.547 2.69745 5.22026 0
M  V30 4799 H 484.071 1.95513 5.78452 0
M  V30 4800 H 485.485 3.72364 4.35911 0
M  V30 4801 H 483.882 4.44425 4.03245 0
M  V30 4802 H 484.952 4.04305 2.67704 0
M  V30 4803 N 486.295 -0.989507 1.22664 0
M  V30 4804 C 487.543 -1.72612 1.05117 0
M  V30 4805 C 487.864 -1.90552 -0.414131 0
M  V30 4806 O 487.134 -1.4676 -1.29762 0
M  V30 4807 H 485.714 -0.639555 0.385977 0
M  V30 4808 H 488.376 -1.19158 1.54232 0
M  V30 4809 H 487.472 -2.71926 1.53175 0
M  V30 4810 N 487.773 -1.03688 -1.18687 0
M  V30 4811 C 489.001 -0.757918 -1.92518 0
M  V30 4812 C 489.416 0.684398 -1.75959 0
M  V30 4813 O 488.773 1.46617 -1.08673 0
M  V30 4814 C 488.824 -1.10985 -3.44042 0
M  V30 4815 O 488.545 -2.49554 -3.60076 0
M  V30 4816 C 490.046 -0.854844 -4.3498 0
M  V30 4817 H 487.266 -0.276699 -0.611293 0
M  V30 4818 H 489.81 -1.38352 -1.50595 0
M  V30 4819 H 487.965 -0.529279 -3.83767 0
M  V30 4820 H 488.379 -2.6291 -4.53849 0
M  V30 4821 H 489.853 -1.15098 -5.39867 0
M  V30 4822 H 490.33 0.210507 -4.38695 0
M  V30 4823 H 490.936 -1.41853 -4.00946 0
M  V30 4824 N 489.251 1.34841 -0.815825 0
M  V30 4825 C 490.183 2.28409 -0.190265 0
M  V30 4826 C 491.196 1.50705 0.615771 0
M  V30 4827 O 492.385 1.72822 0.446616 0
M  V30 4828 C 489.485 3.30441 0.752446 0
M  V30 4829 C 488.658 4.37399 -0.00922152 0
M  V30 4830 C 487.717 5.19234 0.853351 0
M  V30 4831 O 486.743 5.68404 0.300919 0
M  V30 4832 N 487.945 5.38248 2.17416 0
M  V30 4833 H 490.71 2.82732 -0.994114 0
M  V30 4834 H 488.271 1.47289 -0.672129 0
M  V30 4835 H 490.263 3.82084 1.33394 0
M  V30 4836 H 488.833 2.76565 1.45707 0
M  V30 4837 H 488.053 3.86567 -0.771979 0
M  V30 4838 H 489.341 5.05992 -0.533807 0
M  V30 4839 H 488.739 4.99961 2.6468 0
M  V30 4840 H 487.296 5.93035 2.70467 0
M  V30 4841 N 490.729 0.570148 1.46925 0
M  V30 4842 C 492.14 0.1402 1.86173 0
M  V30 4843 C 492.491 -1.29347 1.47526 0
M  V30 4844 O 491.616 -1.97508 0.884292 0
M  V30 4845 C 492.211 0.247661 3.37894 0
M  V30 4846 C 490.77 -0.127332 3.76185 0
M  V30 4847 C 489.917 0.589349 2.70965 0
M  V30 4848 H 492.868 0.779117 1.38259 0
M  V30 4849 H 492.889 -0.530341 3.76786 0
M  V30 4850 H 492.401 1.29121 3.65991 0
M  V30 4851 H 490.502 -1.17149 3.53704 0
M  V30 4852 H 490.615 0.240238 4.78497 0
M  V30 4853 H 488.979 0.0309824 2.54681 0
M  V30 4854 H 489.762 1.6343 3.01903 0
M  V30 4855 N 492.207 -1.54576 0.307264 0
M  V30 4856 C 493.484 -1.92377 -0.353605 0
M  V30 4857 C 493.864 -1.23517 -1.71192 0
M  V30 4858 O 493.212 -0.373101 -2.25433 0
M  V30 4859 C 493.422 -3.45928 -0.462039 0
M  V30 4860 C 494.77 -4.18278 -0.729975 0
M  V30 4861 O 495.794 -3.51997 -0.545605 0
M  V30 4862 O 494.653 -5.3563 -1.08454 0
M  V30 4863 H 491.747 -0.802747 -0.198812 0
M  V30 4864 H 494.293 -1.65929 0.355783 0
M  V30 4865 H 493.065 -3.88187 0.492592 0
M  V30 4866 H 492.688 -3.78431 -1.21965 0
M  V30 4867 N 493.685 -0.035106 -1.57561 0
M  V30 4868 C 494.925 0.646316 -1.93913 0
M  V30 4869 C 495.289 1.68947 -0.912185 0
M  V30 4870 O 496.49 2.42381 -1.1621 0
M  V30 4871 C 494.761 1.24136 -3.35149 0
M  V30 4872 S 496.32 1.94302 -3.93436 0
M  V30 4873 H 493.138 0.212642 -0.678457 0
M  V30 4874 H 495.74 -0.100203 -1.95243 0
M  V30 4875 H 494.444 0.46979 -4.07702 0
M  V30 4876 H 493.975 2.02505 -3.37276 0
M  V30 4877 H 495.99 3.22205 -3.77357 0
M  V30 4878 N 495.163 1.55791 0.238111 0
M  V30 4879 C 496.111 1.91885 1.31464 0
M  V30 4880 C 497.105 0.798929 1.49377 0
M  V30 4881 O 498.311 0.983626 1.50747 0
M  V30 4882 H 494.686 0.609551 0.440399 0
M  V30 4883 H 496.657 2.81747 0.982925 0
M  V30 4884 C 495.406 2.23763 2.6613 0
M  V30 4885 H 494.729 3.09444 2.53149 0
M  V30 4886 H 496.169 2.52915 3.40309 0
M  V30 4887 C 494.628 1.05699 3.1989 0
M  V30 4888 O 495.158 0.309524 4.00506 0
M  V30 4889 N 493.364 0.845251 2.78036 0
M  V30 4890 H 492.911 1.4548 2.12588 0
M  V30 4891 H 492.869 0.0569973 3.14348 0
M  V30 4892 N 496.642 -0.504142 1.49319 0
M  V30 4893 C 498.053 -1.08572 1.51885 0
M  V30 4894 C 498.404 -1.93842 0.303255 0
M  V30 4895 O 497.529 -2.0828 -0.58724 0
M  V30 4896 C 498.124 -1.97574 2.75227 0
M  V30 4897 C 496.683 -2.509 2.80581 0
M  V30 4898 C 495.83 -1.28447 2.45757 0
M  V30 4899 H 498.781 -0.288194 1.56061 0
M  V30 4900 H 498.802 -2.82219 2.55211 0
M  V30 4901 H 498.314 -1.35486 3.63683 0
M  V30 4902 H 496.415 -3.16636 1.96398 0
M  V30 4903 H 496.528 -2.88268 3.82673 0
M  V30 4904 H 494.892 -1.60868 1.97468 0
M  V30 4905 H 495.675 -0.68072 3.36483 0
M  V30 4906 N 498.12 -1.38341 -0.754957 0
M  V30 4907 C 499.348 -1.37704 -1.54419 0
M  V30 4908 C 499.763 0.0335243 -1.8877 0
M  V30 4909 O 499.12 0.999773 -1.52679 0
M  V30 4910 C 499.171 -2.23136 -2.84416 0
M  V30 4911 O 498.892 -3.58697 -2.51531 0
M  V30 4912 C 500.393 -2.30664 -3.78562 0
M  V30 4913 H 497.613 -0.471061 -0.477852 0
M  V30 4914 H 500.157 -1.81902 -0.934446 0
M  V30 4915 H 498.312 -1.82403 -3.41772 0
M  V30 4916 H 498.726 -4.03665 -3.34896 0
M  V30 4917 H 500.2 -2.9473 -4.66732 0
M  V30 4918 H 500.677 -1.3199 -4.18898 0
M  V30 4919 H 501.283 -2.71781 -3.27131 0
M  V30 4920 N 499.598 0.982988 -1.23187 0
M  V30 4921 C 501.009 1.53847 -1.05773 0
M  V30 4922 C 501.36 1.92568 0.375744 0
M  V30 4923 O 500.485 1.75783 1.26211 0
M  V30 4924 C 501.08 2.79567 -1.91384 0
M  V30 4925 C 499.639 3.31524 -1.78238 0
M  V30 4926 C 498.786 2.04534 -1.87246 0
M  V30 4927 H 501.737 0.802962 -1.36888 0
M  V30 4928 H 501.758 3.52317 -1.43711 0
M  V30 4929 H 501.27 2.51353 -2.95708 0
M  V30 4930 H 499.371 3.64623 -0.766875 0
M  V30 4931 H 499.484 4.01457 -2.61475 0
M  V30 4932 H 497.848 2.1855 -1.30797 0
M  V30 4933 H 498.631 1.78706 -2.9312 0
M  V30 4934 N 501.076 1.04316 1.18135 0
M  V30 4935 C 501.986 0.646876 2.25505 0
M  V30 4936 C 503.002 -0.328008 1.7088 0
M  V30 4937 O 504.178 -0.182309 2.00573 0
M  V30 4938 C 501.243 0.0185664 3.46695 0
M  V30 4939 C 500.304 1.04277 4.16443 0
M  V30 4940 C 499.537 0.444352 5.31847 0
M  V30 4941 O 499.76 -0.748735 5.65465 0
M  V30 4942 O 498.694 1.17428 5.90334 0
M  V30 4943 H 502.52 1.54147 2.61672 0
M  V30 4944 H 500.105 0.814188 1.25265 0
M  V30 4945 H 501.987 -0.331068 4.20097 0
M  V30 4946 H 500.662 -0.849814 3.12346 0
M  V30 4947 H 499.569 1.44425 3.45098 0
M  V30 4948 H 500.902 1.882 4.54798 0
M  V30 4949 N 502.554 -1.34406 0.822964 0
M  V30 4950 C 503.502 -2.31428 0.233165 0
M  V30 4951 C 504.496 -1.57404 -0.626118 0
M  V30 4952 O 505.702 -1.72402 -0.517453 0
M  V30 4953 H 502.077 -0.749863 0.0566557 0
M  V30 4954 H 504.048 -2.78699 1.06628 0
M  V30 4955 C 502.797 -3.42653 -0.590264 0
M  V30 4956 H 502.12 -3.99753 0.0616129 0
M  V30 4957 H 503.56 -4.12778 -0.969054 0
M  V30 4958 C 502.019 -2.87112 -1.76262 0
M  V30 4959 O 502.549 -2.81995 -2.8608 0
M  V30 4960 N 500.755 -2.43934 -1.57938 0
M  V30 4961 H 500.302 -2.48296 -0.686078 0
M  V30 4962 H 500.26 -2.07123 -2.36532 0
M  V30 4963 N 504.032 -0.577932 -1.46621 0
M  V30 4964 C 505.28 -0.061566 -2.02006 0
M  V30 4965 C 505.601 1.30117 -1.4524 0
M  V30 4966 O 504.871 1.85313 -0.63529 0
M  V30 4967 H 503.451 -0.0197692 -0.746738 0
M  V30 4968 H 506.113 -0.752631 -1.79782 0
M  V30 4969 H 505.209 0.0110238 -3.12098 0
M  V30 4970 N 505.51 1.54411 -0.315457 0
M  V30 4971 C 506.42 2.27737 0.56329 0
M  V30 4972 C 507.436 1.31787 1.13614 0
M  V30 4973 O 508.612 1.64791 1.15784 0
M  V30 4974 C 505.677 3.01478 1.71207 0
M  V30 4975 C 504.738 4.12997 1.17185 0
M  V30 4976 C 503.971 4.83212 2.26588 0
M  V30 4977 O 504.194 4.52884 3.46775 0
M  V30 4978 O 503.128 5.70299 1.92463 0
M  V30 4979 H 506.954 3.03683 -0.0319614 0
M  V30 4980 H 504.539 1.49178 -0.0814188 0
M  V30 4981 H 506.421 3.47683 2.38106 0
M  V30 4982 H 505.096 2.28414 2.29366 0
M  V30 4983 H 504.003 3.71159 0.468174 0
M  V30 4984 H 505.336 4.8808 0.635501 0
M  V30 4985 N 506.988 0.0434614 1.5754 0
M  V30 4986 C 507.951 -0.918696 2.09982 0
M  V30 4987 C 508.951 -1.24488 1.01781 0
M  V30 4988 O 510.141 -1.18284 1.27885 0
M  V30 4989 C 507.273 -2.23093 2.57764 0
M  V30 4990 H 508.466 -0.464229 2.96285 0
M  V30 4991 H 506.019 -0.204818 1.54952 0
M  V30 4992 H 506.754 -2.73137 1.74832 0
M  V30 4993 H 506.539 -2.00724 3.36827 0
M  V30 4994 H 508.029 -2.92028 2.98512 0
M  V30 4995 N 508.466 -1.55915 -0.229846 0
M  V30 4996 C 509.877 -1.68809 -0.797531 0
M  V30 4997 C 510.228 -0.643995 -1.8533 0
M  V30 4998 O 509.353 0.206492 -2.15413 0
M  V30 4999 C 509.948 -3.06043 -1.45338 0
M  V30 5000 C 508.507 -3.20819 -1.96856 0
M  V30 5001 C 507.654 -2.6472 -0.825736 0
M  V30 5002 H 510.605 -1.58699 -0.00533733 0
M  V30 5003 H 510.626 -3.01438 -2.32196 0
M  V30 5004 H 510.138 -3.82012 -0.684743 0
M  V30 5005 H 508.239 -2.49704 -2.76548 0
M  V30 5006 H 508.352 -4.27937 -2.15423 0
M  V30 5007 H 506.716 -2.22985 -1.23084 0
M  V30 5008 H 507.499 -3.43229 -0.0699019 0
M  V30 5009 N 509.944 0.496216 -1.49584 0
M  V30 5010 C 510.907 1.57952 -1.66084 0
M  V30 5011 C 511.907 1.51729 -0.53244 0
M  V30 5012 O 513.097 1.54796 -0.79899 0
M  V30 5013 C 510.229 2.97604 -1.66268 0
M  V30 5014 H 511.422 1.44649 -2.6271 0
M  V30 5015 H 508.975 0.7208 -1.38687 0
M  V30 5016 H 509.71 3.16378 -0.712432 0
M  V30 5017 H 509.495 3.03528 -2.4822 0
M  V30 5018 H 510.985 3.76301 -1.81073 0
M  V30 5019 N 511.423 1.38739 0.74761 0
M  V30 5020 C 512.648 1.38702 1.54197 0
M  V30 5021 C 513.073 -0.019664 1.8809 0
M  V30 5022 O 512.431 -1.00333 1.51006 0
M  V30 5023 C 512.479 2.25492 2.814 0
M  V30 5024 O 511.583 1.67613 3.76802 0
M  V30 5025 H 510.924 0.472863 0.466151 0
M  V30 5026 H 513.454 1.82577 0.923413 0
M  V30 5027 H 513.464 2.39561 3.30264 0
M  V30 5028 H 512.139 3.27727 2.56062 0
M  V30 5029 H 510.716 1.62718 3.35526 0
M  V30 5030 N 512.901 -0.976442 1.23707 0
M  V30 5031 C 514.129 -1.75341 1.09833 0
M  V30 5032 C 514.544 -1.8553 -0.349885 0
M  V30 5033 O 513.901 -1.33732 -1.24185 0
M  V30 5034 C 513.952 -3.17833 1.72233 0
M  V30 5035 O 513.673 -3.08167 3.11391 0
M  V30 5036 C 515.174 -4.11906 1.63853 0
M  V30 5037 H 512.394 -0.550137 0.384175 0
M  V30 5038 H 514.938 -1.2265 1.63638 0
M  V30 5039 H 513.093 -3.67538 1.22452 0
M  V30 5040 H 513.507 -3.97897 3.41729 0
M  V30 5041 H 514.981 -5.09579 2.12211 0
M  V30 5042 H 515.458 -4.35109 0.598092 0
M  V30 5043 H 516.064 -3.68107 2.13019 0
M  V30 5044 N 514.379 -1.04941 -1.1758 0
M  V30 5045 C 515.604 -0.778253 -1.92245 0
M  V30 5046 C 516.029 0.659707 -1.76152 0
M  V30 5047 O 515.387 1.45803 -1.07755 0
M  V30 5048 C 515.435 -1.16051 -3.41416 0
M  V30 5049 O 514.539 -0.291153 -4.11371 0
M  V30 5050 H 513.88 -0.285619 -0.599431 0
M  V30 5051 H 516.41 -1.40159 -1.49052 0
M  V30 5052 H 516.42 -1.12619 -3.92149 0
M  V30 5053 H 515.095 -2.208 -3.52449 0
M  V30 5054 H 513.672 -0.385851 -3.70898 0
M  V30 5055 N 515.857 1.33968 -0.830081 0
M  V30 5056 C 517.268 1.80439 -0.479455 0
M  V30 5057 C 517.619 1.68756 1.00079 0
M  V30 5058 O 516.744 1.23171 1.77927 0
M  V30 5059 C 517.339 3.27611 -0.863505 0
M  V30 5060 C 515.898 3.72133 -0.565145 0
M  V30 5061 C 515.045 2.55549 -1.07657 0
M  V30 5062 H 517.996 1.21614 -1.0196 0
M  V30 5063 H 518.017 3.8012 -0.170083 0
M  V30 5064 H 517.529 3.36082 -1.94089 0
M  V30 5065 H 515.63 3.69196 0.502536 0
M  V30 5066 H 515.743 4.65963 -1.11422 0
M  V30 5067 H 514.107 2.49788 -0.497807 0
M  V30 5068 H 514.89 2.66786 -2.16055 0
M  V30 5069 N 517.335 0.585699 1.46312 0
M  V30 5070 C 518.563 0.0781299 2.06752 0
M  V30 5071 C 518.978 -1.22812 1.43396 0
M  V30 5072 O 518.335 -1.74318 0.540314 0
M  V30 5073 C 518.386 -0.0911927 3.61385 0
M  V30 5074 O 518.107 1.16336 4.22371 0
M  V30 5075 C 519.608 -0.632765 4.38761 0
M  V30 5076 H 516.828 0.0588188 0.668417 0
M  V30 5077 H 519.372 0.807218 1.87894 0
M  V30 5078 H 517.527 -0.770514 3.7966 0
M  V30 5079 H 517.941 0.979082 5.15281 0
M  V30 5080 H 519.415 -0.70041 5.47538 0
M  V30 5081 H 519.892 -1.65039 4.07012 0
M  V30 5082 H 520.498 0.0117856 4.25298 0
M  V30 5083 N 518.813 -1.54241 0.323641 0
M  V30 5084 C 519.745 -2.21836 -0.576311 0
M  V30 5085 C 520.758 -1.21837 -1.07979 0
M  V30 5086 O 521.947 -1.48306 -0.99336 0
M  V30 5087 C 519.047 -2.86923 -1.80356 0
M  V30 5088 C 518.22 -4.1306 -1.43875 0
M  V30 5089 C 517.279 -4.6174 -2.52353 0
M  V30 5090 O 516.305 -5.26421 -2.16494 0
M  V30 5091 N 517.507 -4.35974 -3.83284 0
M  V30 5092 H 520.272 -2.997 0.00247987 0
M  V30 5093 H 517.833 -1.61233 0.146848 0
M  V30 5094 H 519.825 -3.16414 -2.52318 0
M  V30 5095 H 518.395 -2.12765 -2.29019 0
M  V30 5096 H 517.615 -3.90334 -0.550752 0
M  V30 5097 H 518.903 -4.95148 -1.17071 0
M  V30 5098 H 518.301 -3.84203 -4.15216 0
M  V30 5099 H 516.858 -4.70119 -4.51477 0
M  V30 5100 N 520.291 -0.0518155 -1.57515 0
M  V30 5101 C 521.516 0.634896 -1.97443 0
M  V30 5102 C 521.941 1.63546 -0.929207 0
M  V30 5103 O 521.299 1.80981 0.107484 0
M  V30 5104 C 521.347 1.29765 -3.36442 0
M  V30 5105 O 520.451 2.41333 -3.34413 0
M  V30 5106 H 519.792 0.164994 -0.643174 0
M  V30 5107 H 522.322 -0.120407 -2.04245 0
M  V30 5108 H 522.332 1.64918 -3.73184 0
M  V30 5109 H 521.007 0.564361 -4.12053 0
M  V30 5110 H 519.584 2.08122 -3.09418 0
M  V30 5111 N 521.769 1.56035 0.221574 0
M  V30 5112 C 522.699 1.95434 1.2778 0
M  V30 5113 C 523.68 0.822564 1.48889 0
M  V30 5114 O 524.865 1.08486 1.61072 0
M  V30 5115 C 521.995 2.27102 2.62759 0
M  V30 5116 C 520.949 3.4277 2.56306 0
M  V30 5117 C 520.275 3.60043 3.95314 0
M  V30 5118 C 521.575 4.77742 2.11093 0
M  V30 5119 H 523.269 2.83912 0.950504 0
M  V30 5120 H 520.815 1.36596 0.455791 0
M  V30 5121 H 522.768 2.53256 3.36807 0
M  V30 5122 H 521.492 1.35478 2.97176 0
M  V30 5123 H 520.151 3.16664 1.84715 0
M  V30 5124 H 519.799 2.65794 4.27039 0
M  V30 5125 H 519.499 4.37841 3.91879 0
M  V30 5126 H 521.023 3.88545 4.71025 0
M  V30 5127 H 522.437 5.03102 2.74885 0
M  V30 5128 H 520.834 5.58823 2.18716 0
M  V30 5129 H 521.904 4.731 1.06321 0
M  V30 5130 N 523.247 -0.488276 1.49845 0
M  V30 5131 C 524.177 -1.59675 1.70371 0
M  V30 5132 C 525.158 -1.60878 0.552473 0
M  V30 5133 O 526.343 -1.77417 0.78973 0
M  V30 5134 C 523.473 -2.98098 1.782 0
M  V30 5135 C 522.427 -3.11761 2.93239 0
M  V30 5136 C 521.753 -4.51661 2.86193 0
M  V30 5137 C 523.053 -2.90589 4.33999 0
M  V30 5138 H 524.747 -1.42752 2.63177 0
M  V30 5139 H 522.293 -0.685317 1.26647 0
M  V30 5140 H 524.246 -3.75555 1.91144 0
M  V30 5141 H 522.97 -3.16138 0.820018 0
M  V30 5142 H 521.629 -2.36732 2.79917 0
M  V30 5143 H 521.277 -4.66595 1.87877 0
M  V30 5144 H 520.977 -4.61742 3.63412 0
M  V30 5145 H 522.501 -5.31162 3.01163 0
M  V30 5146 H 523.915 -3.57807 4.47936 0
M  V30 5147 H 522.312 -3.1213 5.12538 0
M  V30 5148 H 523.382 -1.86595 4.4756 0
M  V30 5149 N 524.725 -1.39134 -0.740242 0
M  V30 5150 C 525.971 -1.36273 -1.50192 0
M  V30 5151 C 526.304 0.0430136 -1.94152 0
M  V30 5152 O 525.579 1.00691 -1.66408 0
M  V30 5153 C 525.862 -2.33041 -2.74525 0
M  V30 5154 C 525.715 -3.82535 -2.36617 0
M  V30 5155 C 527.034 -2.27723 -3.76604 0
M  V30 5156 H 524.153 -0.496323 -0.544823 0
M  V30 5157 H 526.795 -1.70085 -0.846815 0
M  V30 5158 H 524.945 -2.04337 -3.30422 0
M  V30 5159 H 526.617 -4.21967 -1.86391 0
M  V30 5160 H 524.86 -3.99565 -1.68909 0
M  V30 5161 H 525.531 -4.45723 -3.2563 0
M  V30 5162 H 528.007 -2.53091 -3.30279 0
M  V30 5163 H 526.883 -2.97519 -4.61274 0
M  V30 5164 H 527.144 -1.28049 -4.2315 0
M  V30 5165 N 526.204 0.969867 -1.24223 0
M  V30 5166 C 527.481 1.68774 -0.988664 0
M  V30 5167 C 527.861 2.05342 0.489673 0
M  V30 5168 O 527.209 1.75486 1.46345 0
M  V30 5169 C 527.419 2.92135 -1.90941 0
M  V30 5170 C 528.767 3.64422 -2.17903 0
M  V30 5171 O 529.791 3.02188 -1.88576 0
M  V30 5172 O 528.65 4.76446 -2.67697 0
M  V30 5173 H 525.744 0.737736 -0.37373 0
M  V30 5174 H 528.29 1.02415 -1.35312 0
M  V30 5175 H 527.062 2.61788 -2.90831 0
M  V30 5176 H 526.685 3.66228 -1.54798 0
M  V30 5177 N 527.682 1.05563 1.17022 0
M  V30 5178 C 528.907 0.788437 1.91829 0
M  V30 5179 C 529.332 -0.650356 1.76499 0
M  V30 5180 O 528.69 -1.45229 1.08527 0
M  V30 5181 C 528.738 1.1786 3.40795 0
M  V30 5182 O 527.842 0.312965 4.11211 0
M  V30 5183 H 527.183 0.288794 0.597908 0
M  V30 5184 H 529.713 1.40948 1.48307 0
M  V30 5185 H 529.723 1.14697 3.91546 0
M  V30 5186 H 528.398 2.22666 3.51273 0
M  V30 5187 H 526.975 0.405515 3.70689 0
M  V30 5188 N 529.16 -1.33526 0.837174 0
M  V30 5189 C 530.092 -2.28077 0.226579 0
M  V30 5190 C 531.105 -1.51666 -0.591717 0
M  V30 5191 O 532.294 -1.73511 -0.419064 0
M  V30 5192 C 529.394 -3.31597 -0.69978 0
M  V30 5193 C 528.567 -4.37329 0.0788067 0
M  V30 5194 C 527.626 -5.20526 -0.770637 0
M  V30 5195 O 526.652 -5.68811 -0.210453 0
M  V30 5196 N 527.854 -5.41639 -2.08825 0
M  V30 5197 H 530.619 -2.81115 1.03897 0
M  V30 5198 H 528.18 -1.46201 0.695476 0
M  V30 5199 H 530.172 -3.84158 -1.27298 0
M  V30 5200 H 528.742 -2.78848 -1.41288 0
M  V30 5201 H 527.962 -3.8529 0.833381 0
M  V30 5202 H 529.25 -5.05079 0.614238 0
M  V30 5203 H 528.648 -5.04108 -2.56693 0
M  V30 5204 H 527.205 -5.97263 -2.60998 0
M  V30 5205 N 530.638 -0.59345 -1.46 0
M  V30 5206 C 531.601 0.123538 -2.28867 0
M  V30 5207 C 532.601 0.808628 -1.38989 0
M  V30 5208 O 533.791 0.658945 -1.61256 0
M  V30 5209 C 530.923 1.1847 -3.19653 0
M  V30 5210 H 532.116 -0.604843 -2.93737 0
M  V30 5211 H 529.669 -0.351875 -1.52288 0
M  V30 5212 H 530.404 1.94431 -2.59552 0
M  V30 5213 H 530.189 0.69783 -3.8584 0
M  V30 5214 H 531.679 1.68726 -3.81997 0
M  V30 5215 N 532.116 1.54067 -0.331816 0
M  V30 5216 C 533.341 2.05599 0.272705 0
M  V30 5217 C 533.766 1.2059 1.44359 0
M  V30 5218 O 533.124 0.216907 1.79998 0
M  V30 5219 C 533.172 3.54188 0.677021 0
M  V30 5220 O 532.276 3.72082 1.77844 0
M  V30 5221 H 531.617 0.662286 0.0476801 0
M  V30 5222 H 534.147 1.98826 -0.482624 0
M  V30 5223 H 534.157 3.96608 0.957415 0
M  V30 5224 H 532.832 4.15513 -0.179325 0
M  V30 5225 H 531.409 3.41566 1.49622 0
M  V30 5226 N 533.594 0.0601682 1.57485 0
M  V30 5227 C 534.541 -0.91112 2.12055 0
M  V30 5228 C 535.511 -1.30298 1.03013 0
M  V30 5229 O 536.696 -1.39087 1.30612 0
M  V30 5230 C 533.836 -2.1775 2.67729 0
M  V30 5231 C 532.949 -1.83933 3.90887 0
M  V30 5232 C 532.084 -3.05096 4.34845 0
M  V30 5233 C 531.123 -2.67241 5.5068 0
M  V30 5234 N 530.26 -3.81127 5.8965 0
M  V30 5235 H 535.1 -0.43888 2.9475 0
M  V30 5236 H 532.637 -0.204995 1.45665 0
M  V30 5237 H 534.595 -2.91866 2.98111 0
M  V30 5238 H 533.225 -2.62535 1.87816 0
M  V30 5239 H 532.277 -0.999287 3.6704 0
M  V30 5240 H 533.589 -1.52074 4.75052 0
M  V30 5241 H 532.743 -3.87502 4.66827 0
M  V30 5242 H 531.482 -3.40139 3.49509 0
M  V30 5243 H 530.487 -1.83254 5.18361 0
M  V30 5244 H 531.712 -2.3338 6.37738 0
M  V30 5245 H 529.658 -4.15954 5.07266 0
M  V30 5246 H 529.575 -3.52997 6.68528 0
M  V30 5247 H 530.843 -4.64145 6.2625 0
M  V30 5248 N 535.072 -1.5615 -0.213296 0
M  V30 5249 C 536.3 -1.83638 -0.953139 0
M  V30 5250 C 536.715 -0.640362 -1.77609 0
M  V30 5251 O 536.072 0.391071 -1.78261 0
M  V30 5252 C 536.123 -3.09735 -1.86405 0
M  V30 5253 O 535.844 -4.24723 -1.07435 0
M  V30 5254 C 537.345 -3.5027 -2.71709 0
M  V30 5255 H 534.565 -0.610263 -0.278962 0
M  V30 5256 H 537.109 -2.03247 -0.226035 0
M  V30 5257 H 535.264 -2.92077 -2.545 0
M  V30 5258 H 535.678 -4.9641 -1.69343 0
M  V30 5259 H 537.152 -4.41515 -3.31313 0
M  V30 5260 H 537.629 -2.72406 -3.44516 0
M  V30 5261 H 538.235 -3.70396 -2.09015 0
M  V30 5262 N 536.55 0.480323 -1.50102 0
M  V30 5263 C 537.48 1.58769 -1.71215 0
M  V30 5264 C 538.461 1.60583 -0.560997 0
M  V30 5265 O 539.646 1.76996 -0.799127 0
M  V30 5266 C 536.776 2.97148 -1.79778 0
M  V30 5267 C 535.73 3.10201 -2.94888 0
M  V30 5268 C 535.056 4.50137 -2.88584 0
M  V30 5269 C 536.356 2.88283 -4.35534 0
M  V30 5270 H 538.05 1.41354 -2.6393 0
M  V30 5271 H 535.596 0.678591 -1.27008 0
M  V30 5272 H 537.549 3.74536 -1.93133 0
M  V30 5273 H 536.273 3.15699 -0.836772 0
M  V30 5274 H 534.932 2.35244 -2.81169 0
M  V30 5275 H 534.58 4.65593 -1.90349 0
M  V30 5276 H 534.28 4.59808 -3.65856 0
M  V30 5277 H 535.804 5.29558 -3.03976 0
M  V30 5278 H 537.218 3.55427 -4.49827 0
M  V30 5279 H 535.615 3.09408 -5.14186 0
M  V30 5280 H 536.685 1.84219 -4.48544 0
M  V30 5281 N 538.028 1.39524 0.732853 0
M  V30 5282 C 539.439 1.32905 1.31122 0
M  V30 5283 C 539.79 -0.00558708 1.96199 0
M  V30 5284 O 538.915 -0.907706 1.96443 0
M  V30 5285 C 539.51 2.40704 2.38426 0
M  V30 5286 C 538.069 2.37599 2.91931 0
M  V30 5287 C 537.216 2.2248 1.65523 0
M  V30 5288 H 540.167 1.49581 0.530207 0
M  V30 5289 H 540.188 2.07616 3.18867 0
M  V30 5290 H 539.7 3.37829 1.91033 0
M  V30 5291 H 537.801 1.44119 3.43599 0
M  V30 5292 H 537.914 3.32538 3.44899 0
M  V30 5293 H 536.278 1.69691 1.8994 0
M  V30 5294 H 537.061 3.21577 1.20178 0
M  V30 5295 N 539.506 -0.963266 1.24736 0
M  V30 5296 C 540.755 -1.70115 1.08369 0
M  V30 5297 C 541.068 -1.91939 -0.376688 0
M  V30 5298 O 542.274 -2.6334 -0.660624 0
M  V30 5299 C 540.73 -3.06218 1.89099 0
M  V30 5300 C 540.338 -2.92221 3.39574 0
M  V30 5301 C 542.082 -3.83848 1.81275 0
M  V30 5302 C 539.989 -4.23662 4.12631 0
M  V30 5303 H 538.919 -0.637944 0.401924 0
M  V30 5304 H 541.57 -1.07304 1.48856 0
M  V30 5305 H 539.952 -3.69884 1.41429 0
M  V30 5306 H 541.126 -2.37541 3.94856 0
M  V30 5307 H 539.441 -2.28054 3.48397 0
M  V30 5308 H 542.038 -4.81188 2.33158 0
M  V30 5309 H 542.381 -4.08949 0.778895 0
M  V30 5310 H 542.914 -3.26918 2.26649 0
M  V30 5311 H 539.653 -4.03753 5.16395 0
M  V30 5312 H 539.173 -4.78141 3.62135 0
M  V30 5313 H 540.852 -4.92256 4.19873 0
M  V30 5314 N 540.985 -1.06182 -1.16461 0
M  V30 5315 C 542.396 -0.802426 -1.68576 0
M  V30 5316 C 542.747 0.67412 -1.84255 0
M  V30 5317 O 541.872 1.52303 -1.5373 0
M  V30 5318 C 542.467 -1.45002 -3.06202 0
M  V30 5319 C 541.026 -1.23843 -3.55443 0
M  V30 5320 C 540.173 -1.52724 -2.31454 0
M  V30 5321 H 543.124 -1.22545 -1.00839 0
M  V30 5322 H 543.145 -0.864731 -3.70544 0
M  V30 5323 H 542.657 -2.52466 -2.94759 0
M  V30 5324 H 540.758 -0.183487 -3.72148 0
M  V30 5325 H 540.871 -1.95036 -4.37604 0
M  V30 5326 H 539.235 -0.947726 -2.36411 0
M  V30 5327 H 540.018 -2.61343 -2.22609 0
M  V30 5328 N 542.463 1.3308 -0.844243 0
M  V30 5329 C 543.691 2.01808 -0.456203 0
M  V30 5330 C 544.106 1.63498 0.944131 0
M  V30 5331 O 543.463 0.85102 1.61443 0
M  V30 5332 C 543.514 3.56922 -0.573513 0
M  V30 5333 O 543.235 3.93851 -1.91868 0
M  V30 5334 C 544.736 4.42922 -0.183125 0
M  V30 5335 H 541.956 0.646273 -0.180477 0
M  V30 5336 H 544.5 1.69891 -1.1383 0
M  V30 5337 H 542.655 3.87352 0.0607367 0
M  V30 5338 H 543.069 4.88564 -1.90802 0
M  V30 5339 H 544.543 5.51093 -0.316241 0
M  V30 5340 H 545.02 4.30386 0.875477 0
M  V30 5341 H 545.626 4.1786 -0.792027 0
M  V30 5342 N 543.941 0.601185 1.45683 0
M  V30 5343 C 545.166 0.0982245 2.07167 0
M  V30 5344 C 545.591 -1.20546 1.44396 0
M  V30 5345 O 544.949 -1.73247 0.534347 0
M  V30 5346 C 544.997 -0.0346976 3.60583 0
M  V30 5347 O 544.101 -1.08657 3.97828 0
M  V30 5348 H 543.442 0.0711618 0.660176 0
M  V30 5349 H 545.972 0.829376 1.87036 0
M  V30 5350 H 545.982 -0.234969 4.07323 0
M  V30 5351 H 544.657 0.917265 4.05659 0
M  V30 5352 H 543.234 -0.863275 3.6277 0
M  V30 5353 N 545.419 -1.53889 0.339982 0
M  V30 5354 C 546.382 -2.23547 -0.50592 0
M  V30 5355 C 547.382 -1.23445 -1.03044 0
M  V30 5356 O 548.572 -1.47909 -0.920253 0
M  V30 5357 C 545.704 -2.95234 -1.7044 0
M  V30 5358 H 546.897 -2.99722 0.103247 0
M  V30 5359 H 544.45 -1.56033 0.0912804 0
M  V30 5360 H 545.185 -2.23236 -2.35236 0
M  V30 5361 H 544.97 -3.68654 -1.33553 0
M  V30 5362 H 546.46 -3.48258 -2.30447 0
M  V30 5363 N 546.897 -0.0685191 -1.57451 0
M  V30 5364 C 548.308 0.464634 -1.80826 0
M  V30 5365 C 548.659 1.69847 -0.982169 0
M  V30 5366 O 547.784 2.15439 -0.203734 0
M  V30 5367 C 548.379 0.849721 -3.27971 0
M  V30 5368 C 546.938 1.32776 -3.52204 0
M  V30 5369 C 546.085 0.311332 -2.75547 0
M  V30 5370 H 549.036 -0.294248 -1.55948 0
M  V30 5371 H 549.057 1.71138 -3.39841 0
M  V30 5372 H 548.569 -0.0484736 -3.8807 0
M  V30 5373 H 546.67 2.24456 -2.97406 0
M  V30 5374 H 546.783 1.30794 -4.60901 0
M  V30 5375 H 545.147 0.787915 -2.42206 0
M  V30 5376 H 545.93 -0.579078 -3.38381 0
M  V30 5377 N 548.375 1.56261 0.205012 0
M  V30 5378 C 549.621 1.80306 0.9283 0
M  V30 5379 C 549.954 0.640932 1.83319 0
M  V30 5380 O 549.229 -0.359032 1.91158 0
M  V30 5381 C 549.512 3.14547 1.75306 0
M  V30 5382 C 549.365 4.41236 0.873562 0
M  V30 5383 C 550.684 3.45382 2.72762 0
M  V30 5384 H 547.803 0.655929 0.336044 0
M  V30 5385 H 550.445 1.88984 0.196211 0
M  V30 5386 H 548.595 3.0728 2.37721 0
M  V30 5387 H 550.267 4.60539 0.264887 0
M  V30 5388 H 548.51 4.33427 0.179773 0
M  V30 5389 H 549.181 5.31639 1.48541 0
M  V30 5390 H 551.657 3.52884 2.20481 0
M  V30 5391 H 550.533 4.40449 3.2756 0
M  V30 5392 H 550.794 2.68377 3.51321 0
M  V30 5393 N 549.853 -0.472356 1.50355 0
M  V30 5394 C 550.816 -1.5529 1.68576 0
M  V30 5395 C 551.816 -1.50863 0.556511 0
M  V30 5396 O 553.006 -1.53505 0.823516 0
M  V30 5397 C 550.138 -2.94921 1.70981 0
M  V30 5398 H 551.331 -1.40451 2.64978 0
M  V30 5399 H 548.884 -0.698645 1.39816 0
M  V30 5400 H 549.619 -3.15204 0.762675 0
M  V30 5401 H 549.404 -2.99541 2.53017 0
M  V30 5402 H 550.894 -3.73372 1.87037 0
M  V30 5403 N 551.331 -1.39911 -0.725443 0
M  V30 5404 C 552.261 -1.42138 -1.85254 0
M  V30 5405 C 553.242 -0.283513 -1.67721 0
M  V30 5406 O 554.427 -0.490717 -1.87898 0
M  V30 5407 C 551.557 -1.27354 -3.23107 0
M  V30 5408 C 550.511 -2.3864 -3.55296 0
M  V30 5409 C 549.837 -2.08939 -4.92188 0
M  V30 5410 C 551.137 -3.8097 -3.57295 0
M  V30 5411 H 552.831 -2.36461 -1.83648 0
M  V30 5412 H 550.377 -1.13817 -0.882138 0
M  V30 5413 H 552.33 -1.2753 -4.01639 0
M  V30 5414 H 551.054 -0.295025 -3.25265 0
M  V30 5415 H 549.713 -2.37696 -2.79099 0
M  V30 5416 H 549.361 -1.09502 -4.90936 0
M  V30 5417 H 549.061 -2.83491 -5.14691 0
M  V30 5418 H 550.585 -2.10781 -5.73065 0
M  V30 5419 H 551.999 -3.8379 -4.25885 0
M  V30 5420 H 550.396 -4.5496 -3.9132 0
M  V30 5421 H 551.466 -4.11261 -2.5689 0
M  V30 5422 N 552.809 0.956637 -1.25245 0
M  V30 5423 C 554.034 1.74104 -1.12706 0
M  V30 5424 C 554.459 1.85436 0.315429 0
M  V30 5425 O 553.817 1.33334 1.22848 0
M  V30 5426 C 553.865 3.1338 -1.78396 0
M  V30 5427 O 552.969 3.98485 -1.06224 0
M  V30 5428 H 552.31 0.53476 -0.393609 0
M  V30 5429 H 554.84 1.19924 -1.65769 0
M  V30 5430 H 554.85 3.6385 -1.846 0
M  V30 5431 H 553.525 3.04448 -2.83345 0
M  V30 5432 H 552.102 3.56952 -1.07886 0
M  V30 5433 N 554.287 1.06798 1.15896 0
M  V30 5434 C 555.512 0.808739 1.90982 0
M  V30 5435 C 555.937 -0.6316 1.77179 0
M  V30 5436 O 555.295 -1.4407 1.10061 0
M  V30 5437 C 555.343 1.21468 3.39526 0
M  V30 5438 O 554.447 0.356562 4.10856 0
M  V30 5439 H 553.788 0.29512 0.594811 0
M  V30 5440 H 556.318 1.42513 1.46804 0
M  V30 5441 H 556.328 1.18844 3.90308 0
M  V30 5442 H 555.003 2.26379 3.48891 0
M  V30 5443 H 553.58 0.444808 3.70238 0
M  V30 5444 N 555.766 -1.3263 0.851289 0
M  V30 5445 C 556.994 -2.01563 0.466899 0
M  V30 5446 C 557.409 -1.63996 -0.935447 0
M  V30 5447 O 556.766 -0.85957 -1.6099 0
M  V30 5448 C 556.817 -3.56613 0.592433 0
M  V30 5449 O 556.538 -3.92828 1.93954 0
M  V30 5450 C 558.039 -4.42818 0.206612 0
M  V30 5451 H 555.259 -0.645307 0.183902 0
M  V30 5452 H 557.803 -1.69285 1.1473 0
M  V30 5453 H 555.958 -3.87379 -0.0401936 0
M  V30 5454 H 556.372 -4.87545 1.9339 0
M  V30 5455 H 557.846 -5.50918 0.345462 0
M  V30 5456 H 558.323 -4.30844 -0.85264 0
M  V30 5457 H 558.929 -4.17434 0.814176 0
M  V30 5458 N 557.244 -0.608902 -1.45362 0
M  V30 5459 C 558.492 -0.104401 -2.0183 0
M  V30 5460 C 558.813 1.27007 -1.47967 0
M  V30 5461 O 558.083 1.83924 -0.674455 0
M  V30 5462 H 556.663 -0.0356042 -0.746151 0
M  V30 5463 H 559.325 -0.790596 -1.78145 0
M  V30 5464 H 558.421 -0.0551793 -3.12051 0
M  V30 5465 N 558.722 1.53707 -0.348139 0
M  V30 5466 C 559.669 2.25173 0.506518 0
M  V30 5467 C 560.639 1.25174 1.09182 0
M  V30 5468 O 561.824 1.53917 1.12757 0
M  V30 5469 C 558.964 3.03141 1.64923 0
M  V30 5470 C 558.077 4.18002 1.0908 0
M  V30 5471 C 557.212 4.83447 2.20119 0
M  V30 5472 C 556.251 5.90369 1.61651 0
M  V30 5473 N 555.388 6.49575 2.66451 0
M  V30 5474 H 560.228 2.97799 -0.109452 0
M  V30 5475 H 557.765 1.46953 -0.0657866 0
M  V30 5476 H 559.723 3.46607 2.32205 0
M  V30 5477 H 558.353 2.32803 2.23612 0
M  V30 5478 H 557.405 3.79145 0.308783 0
M  V30 5479 H 558.717 4.94892 0.623178 0
M  V30 5480 H 557.871 5.30008 2.95257 0
M  V30 5481 H 556.61 4.05991 2.70227 0
M  V30 5482 H 555.615 5.43186 0.850209 0
M  V30 5483 H 556.84 6.69735 1.1239 0
M  V30 5484 H 554.786 5.74981 3.15805 0
M  V30 5485 H 554.703 7.21952 2.24325 0
M  V30 5486 H 555.971 7.00789 3.41344 0
M  V30 5487 N 560.2 0.0768682 1.57412 0
M  V30 5488 C 561.611 -0.455037 1.8107 0
M  V30 5489 C 561.962 -1.69323 0.991162 0
M  V30 5490 O 561.087 -2.15328 0.215156 0
M  V30 5491 C 561.682 -0.832316 3.28417 0
M  V30 5492 C 560.241 -1.30906 3.52903 0
M  V30 5493 C 559.388 -0.296714 2.75708 0
M  V30 5494 H 562.339 0.302514 1.5579 0
M  V30 5495 H 562.36 -1.69333 3.40744 0
M  V30 5496 H 561.872 0.0690532 3.88039 0
M  V30 5497 H 559.973 -2.22875 2.98592 0
M  V30 5498 H 560.086 -1.28348 4.61588 0
M  V30 5499 H 558.45 -0.775059 2.42621 0
M  V30 5500 H 559.233 0.597015 3.38069 0
M  V30 5501 N 561.678 -1.56367 -0.196722 0
M  V30 5502 C 562.924 -1.80796 -0.918725 0
M  V30 5503 C 563.257 -0.650645 -1.82976 0
M  V30 5504 O 562.532 0.348889 -1.91345 0
M  V30 5505 C 562.815 -3.15472 -1.73636 0
M  V30 5506 C 562.668 -4.41693 -0.85015 0
M  V30 5507 C 563.987 -3.46824 -2.70927 0
M  V30 5508 H 561.106 -0.657702 -0.332561 0
M  V30 5509 H 563.748 -1.89086 -0.186186 0
M  V30 5510 H 561.898 -3.08536 -2.36088 0
M  V30 5511 H 563.57 -4.60673 -0.240459 0
M  V30 5512 H 561.813 -4.33517 -0.156785 0
M  V30 5513 H 562.484 -5.32419 -1.45719 0
M  V30 5514 H 564.96 -3.54049 -2.18607 0
M  V30 5515 H 563.836 -4.4218 -3.25219 0
M  V30 5516 H 564.097 -2.70236 -3.49893 0
M  V30 5517 N 563.156 0.464375 -1.50603 0
M  V30 5518 C 564.086 1.56944 -1.72889 0
M  V30 5519 C 565.067 1.59979 -0.577997 0
M  V30 5520 O 566.252 1.76138 -0.817855 0
M  V30 5521 C 563.382 2.95225 -1.8292 0
M  V30 5522 C 562.336 3.07056 -2.98162 0
M  V30 5523 C 561.662 4.47051 -2.93343 0
M  V30 5524 C 562.962 2.83648 -4.38567 0
M  V30 5525 H 564.656 1.38547 -2.65415 0
M  V30 5526 H 562.202 0.665082 -1.27721 0
M  V30 5527 H 564.155 3.72467 -1.97095 0
M  V30 5528 H 562.879 3.14793 -0.870209 0
M  V30 5529 H 561.538 2.32248 -2.83648 0
M  V30 5530 H 561.186 4.63547 -1.95276 0
M  V30 5531 H 560.886 4.55902 -3.70712 0
M  V30 5532 H 562.41 5.26304 -3.09575 0
M  V30 5533 H 563.824 3.50636 -4.53572 0
M  V30 5534 H 562.221 3.03937 -5.17438 0
M  V30 5535 H 563.291 1.79451 -4.50472 0
M  V30 5536 N 564.634 1.40294 0.718013 0
M  V30 5537 C 565.911 1.2894 1.47084 0
M  V30 5538 C 566.291 -0.0933625 2.10893 0
M  V30 5539 O 565.639 -1.10598 1.99951 0
M  V30 5540 C 565.849 2.4264 2.50852 0
M  V30 5541 C 567.197 2.8276 3.16752 0
M  V30 5542 O 568.221 2.42215 2.61171 0
M  V30 5543 O 567.08 3.528 4.17366 0
M  V30 5544 H 564.174 0.506236 0.653952 0
M  V30 5545 H 566.72 1.52208 0.750394 0
M  V30 5546 H 565.492 3.35009 2.022 0
M  V30 5547 H 565.115 2.21129 3.30435 0
M  V30 5548 N 566.112 -0.949982 1.2575 0
M  V30 5549 C 567.075 -2.02894 1.06615 0
M  V30 5550 C 568.075 -1.60791 0.0173905 0
M  V30 5551 O 569.265 -1.72249 0.260003 0
M  V30 5552 C 566.397 -3.35219 0.619751 0
M  V30 5553 H 567.59 -2.21302 2.02399 0
M  V30 5554 H 565.143 -1.12772 1.08223 0
M  V30 5555 H 565.878 -3.22508 -0.340486 0
M  V30 5556 H 565.663 -3.67129 1.37692 0
M  V30 5557 H 567.153 -4.14505 0.507443 0
M  V30 5558 N 567.59 -1.07411 -1.15328 0
M  V30 5559 C 568.838 -0.796073 -1.85761 0
M  V30 5560 C 569.159 0.679864 -1.82764 0
M  V30 5561 O 568.429 1.49242 -1.269 0
M  V30 5562 H 567.009 -0.291495 -0.687779 0
M  V30 5563 H 569.671 -1.35799 -1.39802 0
M  V30 5564 H 568.767 -1.13114 -2.90881 0
M  V30 5565 N 569.068 1.32177 -0.85831 0
M  V30 5566 C 570.479 1.79381 -0.517621 0
M  V30 5567 C 570.83 1.70841 0.964769 0
M  V30 5568 O 569.955 1.26917 1.75274 0
M  V30 5569 C 570.55 3.25706 -0.932801 0
M  V30 5570 C 569.109 3.70851 -0.643953 0
M  V30 5571 C 568.256 2.53208 -1.13054 0
M  V30 5572 H 571.207 1.19424 -1.04516 0
M  V30 5573 H 571.228 3.79673 -0.250674 0
M  V30 5574 H 570.74 3.31889 -2.01174 0
M  V30 5575 H 568.841 3.70178 0.424112 0
M  V30 5576 H 568.954 4.63495 -1.21281 0
M  V30 5577 H 567.318 2.48676 -0.550679 0
M  V30 5578 H 568.101 2.62143 -2.21666 0
M  V30 5579 N 570.547 0.616602 1.45037 0
M  V30 5580 C 571.793 0.115501 2.02471 0
M  V30 5581 C 572.126 -1.25406 1.4828 0
M  V30 5582 O 571.401 -1.82922 0.661051 0
M  V30 5583 C 571.684 0.0863588 3.59996 0
M  V30 5584 C 571.537 1.48723 4.24501 0
M  V30 5585 C 572.856 -0.596762 4.36035 0
M  V30 5586 H 569.975 0.0434461 0.735718 0
M  V30 5587 H 572.617 0.7903 1.72784 0
M  V30 5588 H 570.767 -0.488277 3.85419 0
M  V30 5589 H 572.439 2.10964 4.10234 0
M  V30 5590 H 570.682 2.04534 3.82555 0
M  V30 5591 H 571.353 1.419 5.3345 0
M  V30 5592 H 573.829 -0.10824 4.15959 0
M  V30 5593 H 572.705 -0.586289 5.4576 0
M  V30 5594 H 572.966 -1.66451 4.09569 0
M  V30 5595 N 572.025 -1.5352 0.356285 0
M  V30 5596 C 572.955 -2.28372 -0.486661 0
M  V30 5597 C 573.936 -1.30432 -1.09185 0
M  V30 5598 O 575.121 -1.59291 -1.11085 0
M  V30 5599 C 572.251 -3.06604 -1.63129 0
M  V30 5600 C 571.205 -4.12154 -1.15381 0
M  V30 5601 C 570.531 -4.78415 -2.38796 0
M  V30 5602 C 571.831 -5.21724 -0.245179 0
M  V30 5603 H 573.525 -2.99083 0.137797 0
M  V30 5604 H 571.071 -1.43841 0.0677134 0
M  V30 5605 H 573.024 -3.57712 -2.22755 0
M  V30 5606 H 571.748 -2.33568 -2.28284 0
M  V30 5607 H 570.407 -3.61978 -0.580294 0
M  V30 5608 H 570.055 -4.01959 -3.02387 0
M  V30 5609 H 569.755 -5.49734 -2.07524 0
M  V30 5610 H 571.279 -5.32313 -2.99125 0
M  V30 5611 H 572.693 -5.68391 -0.748646 0
M  V30 5612 H 571.09 -6.00095 -0.0237608 0
M  V30 5613 H 572.16 -4.79596 0.715229 0
M  V30 5614 N 573.503 -0.0852151 -1.57369 0
M  V30 5615 C 574.75 0.580806 -1.93992 0
M  V30 5616 C 575.078 1.68801 -0.966252 0
M  V30 5617 O 574.333 1.95694 0.0158649 0
M  V30 5618 C 574.632 1.18482 -3.3719 0
M  V30 5619 C 574.298 0.2024 -4.50446 0
M  V30 5620 C 572.96 -0.0678318 -4.81152 0
M  V30 5621 C 575.312 -0.46895 -5.19086 0
M  V30 5622 C 572.64 -1.01627 -5.77831 0
M  V30 5623 C 574.992 -1.4058 -6.16782 0
M  V30 5624 C 573.656 -1.68436 -6.45899 0
M  V30 5625 H 572.926 0.212532 -0.709867 0
M  V30 5626 H 575.573 -0.158947 -1.90839 0
M  V30 5627 H 573.878 2.0006 -3.36873 0
M  V30 5628 H 575.575 1.70767 -3.62822 0
M  V30 5629 H 572.165 0.423208 -4.26505 0
M  V30 5630 H 576.349 -0.273307 -4.95547 0
M  V30 5631 H 571.605 -1.2392 -5.9871 0
M  V30 5632 H 575.779 -1.93188 -6.69068 0
M  V30 5633 H 573.406 -2.42088 -7.20623 0
M  V30 5634 N 574.981 1.5647 0.188427 0
M  V30 5635 C 576.227 1.82181 0.904534 0
M  V30 5636 C 576.582 0.663258 1.80606 0
M  V30 5637 O 575.875 -0.341231 1.88537 0
M  V30 5638 C 576.069 3.11596 1.7505 0
M  V30 5639 C 575.898 4.39928 0.932372 0
M  V30 5640 C 574.668 5.01554 0.61417 0
M  V30 5641 C 576.866 5.13527 0.281936 0
M  V30 5642 N 574.848 6.13499 -0.221896 0
M  V30 5643 C 576.219 6.18603 -0.416037 0
M  V30 5644 C 578.274 4.97505 0.198345 0
M  V30 5645 C 576.977 7.09394 -1.18965 0
M  V30 5646 C 579.003 5.88725 -0.561887 0
M  V30 5647 C 578.365 6.93251 -1.24828 0
M  V30 5648 H 574.464 0.717858 0.310168 0
M  V30 5649 H 577.048 1.93932 0.172757 0
M  V30 5650 H 575.219 3.01068 2.45383 0
M  V30 5651 H 576.951 3.25369 2.4066 0
M  V30 5652 H 573.706 4.64174 0.940187 0
M  V30 5653 H 574.13 6.74065 -0.629735 0
M  V30 5654 H 578.772 4.16716 0.714665 0
M  V30 5655 H 576.49 7.8964 -1.71737 0
M  V30 5656 H 580.076 5.78401 -0.628009 0
M  V30 5657 H 578.956 7.62618 -1.82712 0
M  V30 5658 N 576.459 -0.456382 1.50847 0
M  V30 5659 C 577.705 -1.20914 1.62811 0
M  V30 5660 C 578.038 -1.91301 0.334304 0
M  V30 5661 O 577.313 -1.82775 -0.665098 0
M  V30 5662 C 577.596 -2.24122 2.81853 0
M  V30 5663 C 577.449 -1.57944 4.21158 0
M  V30 5664 C 578.768 -3.25295 2.96431 0
M  V30 5665 H 575.887 -0.438233 0.592554 0
M  V30 5666 H 578.529 -0.50091 1.83278 0
M  V30 5667 H 576.679 -2.84524 2.64534 0
M  V30 5668 H 578.351 -1.01025 4.50102 0
M  V30 5669 H 576.594 -0.882185 4.24735 0
M  V30 5670 H 577.265 -2.33014 5.00408 0
M  V30 5671 H 579.741 -2.7493 3.12335 0
M  V30 5672 H 578.617 -3.94822 3.81322 0
M  V30 5673 H 578.878 -3.90286 2.07676 0
M  V30 5674 N 577.937 -1.40673 -0.710563 0
M  V30 5675 C 579.186 -1.38525 -1.46607 0
M  V30 5676 C 579.499 0.0077024 -1.95598 0
M  V30 5677 O 580.705 0.151792 -2.71075 0
M  V30 5678 C 579.161 -2.43489 -2.6503 0
M  V30 5679 C 578.769 -3.88619 -2.22888 0
M  V30 5680 C 580.513 -2.50456 -3.42742 0
M  V30 5681 C 578.42 -4.85168 -3.3818 0
M  V30 5682 H 577.35 -0.515092 -0.550632 0
M  V30 5683 H 580.001 -1.66431 -0.772846 0
M  V30 5684 H 578.383 -2.0869 -3.36548 0
M  V30 5685 H 579.557 -4.32588 -1.58758 0
M  V30 5686 H 577.872 -3.85174 -1.58208 0
M  V30 5687 H 580.469 -3.19776 -4.28541 0
M  V30 5688 H 580.812 -1.53665 -3.86902 0
M  V30 5689 H 581.345 -2.84271 -2.78271 0
M  V30 5690 H 578.084 -5.8331 -2.99047 0
M  V30 5691 H 577.604 -4.4586 -4.01209 0
M  V30 5692 H 579.283 -5.05225 -4.04174 0
M  V30 5693 N 579.415 0.9433 -1.26252 0
M  V30 5694 C 580.345 2.05902 -1.10122 0
M  V30 5695 C 581.326 1.70099 -0.00700552 0
M  V30 5696 O 582.511 1.93377 -0.178641 0
M  V30 5697 C 579.641 3.39516 -0.731175 0
M  V30 5698 C 578.595 3.89372 -1.77688 0
M  V30 5699 C 577.921 5.19613 -1.26122 0
M  V30 5700 C 579.221 4.14489 -3.17799 0
M  V30 5701 H 580.915 2.19655 -2.03451 0
M  V30 5702 H 578.461 1.05548 -0.979576 0
M  V30 5703 H 580.414 4.17031 -0.605215 0
M  V30 5704 H 579.138 3.25733 0.23782 0
M  V30 5705 H 577.797 3.14036 -1.89148 0
M  V30 5706 H 577.445 5.02208 -0.282128 0
M  V30 5707 H 577.145 5.53939 -1.96023 0
M  V30 5708 H 578.669 5.99713 -1.14789 0
M  V30 5709 H 580.083 4.82625 -3.09428 0
M  V30 5710 H 578.48 4.60094 -3.85271 0
M  V30 5711 H 579.55 3.20347 -3.64014 0
M  V30 5712 N 580.893 1.08022 1.14757 0
M  V30 5713 C 582.139 0.808705 1.85978 0
M  V30 5714 C 582.472 -0.663764 1.82504 0
M  V30 5715 O 581.747 -1.48765 1.25296 0
M  V30 5716 C 582.03 1.32623 3.34788 0
M  V30 5717 C 581.883 2.86375 3.46856 0
M  V30 5718 C 583.202 0.948291 4.29762 0
M  V30 5719 H 580.321 0.295244 0.675278 0
M  V30 5720 H 582.963 1.33917 1.34783 0
M  V30 5721 H 581.113 0.875002 3.78518 0
M  V30 5722 H 582.785 3.39839 3.11941 0
M  V30 5723 H 581.028 3.24232 2.88194 0
M  V30 5724 H 581.699 3.17658 4.51439 0
M  V30 5725 H 584.175 1.33722 3.94028 0
M  V30 5726 H 583.051 1.33765 5.32352 0
M  V30 5727 H 583.312 -0.145094 4.41862 0
M  V30 5728 N 582.371 -1.3172 0.865308 0
M  V30 5729 C 583.301 -2.31109 0.333302 0
M  V30 5730 C 584.282 -1.60148 -0.573301 0
M  V30 5731 O 585.467 -1.87882 -0.491305 0
M  V30 5732 C 582.597 -3.44104 -0.470078 0
M  V30 5733 C 581.551 -4.26623 0.343021 0
M  V30 5734 C 580.877 -5.31482 -0.585756 0
M  V30 5735 C 582.177 -4.98001 1.57456 0
M  V30 5736 H 583.871 -2.75855 1.1638 0
M  V30 5737 H 581.417 -1.3262 0.561069 0
M  V30 5738 H 583.37 -4.12682 -0.852752 0
M  V30 5739 H 582.094 -2.98112 -1.33404 0
M  V30 5740 H 580.753 -3.59707 0.707583 0
M  V30 5741 H 580.401 -4.81741 -1.44686 0
M  V30 5742 H 580.101 -5.87582 -0.0456494 0
M  V30 5743 H 581.625 -6.0292 -0.965375 0
M  V30 5744 H 583.039 -5.59201 1.26359 0
M  V30 5745 H 581.436 -5.63876 2.05339 0
M  V30 5746 H 582.506 -4.25253 2.32997 0
M  V30 5747 N 583.85 -0.624285 -1.44708 0
M  V30 5748 C 585.096 -0.126237 -2.02407 0
M  V30 5749 C 585.428 1.24618 -1.48943 0
M  V30 5750 O 584.704 1.82569 -0.670742 0
M  V30 5751 C 584.986 -0.105449 -3.59946 0
M  V30 5752 C 584.84 -1.50972 -4.23707 0
M  V30 5753 C 586.159 0.573629 -4.36346 0
M  V30 5754 H 583.278 -0.0473472 -0.735478 0
M  V30 5755 H 585.92 -0.799452 -1.72362 0
M  V30 5756 H 584.07 0.46783 -3.85673 0
M  V30 5757 H 585.742 -2.13136 -4.0911 0
M  V30 5758 H 583.985 -2.0656 -3.81465 0
M  V30 5759 H 584.656 -1.44727 -5.32689 0
M  V30 5760 H 587.132 0.0861787 -4.16011 0
M  V30 5761 H 586.008 0.557338 -5.46063 0
M  V30 5762 H 586.269 1.64276 -4.10446 0
M  V30 5763 N 585.328 1.53329 -0.364422 0
M  V30 5764 C 586.574 2.01537 0.225969 0
M  V30 5765 C 586.907 1.25128 1.48515 0
M  V30 5766 O 586.182 0.344653 1.91422 0
M  V30 5767 C 586.465 3.56339 0.519092 0
M  V30 5768 C 586.318 4.43441 -0.753639 0
M  V30 5769 C 587.637 4.19833 1.32015 0
M  V30 5770 H 584.756 0.732573 0.0806548 0
M  V30 5771 H 587.398 1.83597 -0.489084 0
M  V30 5772 H 585.548 3.71756 1.12825 0
M  V30 5773 H 587.22 4.39823 -1.39116 0
M  V30 5774 H 585.463 4.11457 -1.37424 0
M  V30 5775 H 586.134 5.49699 -0.503517 0
M  V30 5776 H 588.61 4.08242 0.804859 0
M  V30 5777 H 587.486 5.28177 1.49399 0
M  V30 5778 H 587.747 3.75821 2.32832 0
M  V30 5779 N 586.806 0.0935595 1.57322 0
M  V30 5780 C 588.052 -0.571355 1.94585 0
M  V30 5781 C 588.385 -1.67929 0.975366 0
M  V30 5782 O 587.66 -1.94498 0.00816206 0
M  V30 5783 C 587.943 -1.12797 3.41978 0
M  V30 5784 C 587.796 -0.0251881 4.49793 0
M  V30 5785 C 589.115 -2.02682 3.90651 0
M  V30 5786 H 586.234 -0.206223 0.70756 0
M  V30 5787 H 588.876 0.163956 1.89291 0
M  V30 5788 H 587.026 -1.75461 3.4662 0
M  V30 5789 H 588.698 0.608979 4.57263 0
M  V30 5790 H 586.941 0.641399 4.29032 0
M  V30 5791 H 587.612 -0.455433 5.50118 0
M  V30 5792 H 590.088 -1.49925 3.88152 0
M  V30 5793 H 588.964 -2.38555 4.94351 0
M  V30 5794 H 589.225 -2.94362 3.29854 0
M  V30 5795 N 588.284 -1.56567 -0.180126 0
M  V30 5796 C 589.53 -1.81761 -0.899497 0
M  V30 5797 C 589.863 -0.670015 -1.82276 0
M  V30 5798 O 589.138 0.328575 -1.91705 0
M  V30 5799 C 589.421 -3.17296 -1.7028 0
M  V30 5800 C 589.274 -4.4257 -0.803255 0
M  V30 5801 C 590.593 -3.49678 -2.67233 0
M  V30 5802 H 587.712 -0.661192 -0.325567 0
M  V30 5803 H 590.354 -1.89272 -0.16612 0
M  V30 5804 H 588.504 -3.11023 -2.32802 0
M  V30 5805 H 590.176 -4.60902 -0.191585 0
M  V30 5806 H 588.419 -4.33658 -0.110796 0
M  V30 5807 H 589.09 -5.33935 -1.40064 0
M  V30 5808 H 591.566 -3.56347 -2.14839 0
M  V30 5809 H 590.442 -4.45605 -3.20511 0
M  V30 5810 H 590.703 -2.73932 -3.47007 0
M  V30 5811 N 589.762 0.448376 -1.51087 0
M  V30 5812 C 591.01 1.19635 -1.62886 0
M  V30 5813 C 591.331 1.91977 -0.342024 0
M  V30 5814 O 590.601 1.85094 0.641636 0
M  V30 5815 H 589.181 0.444598 -0.600285 0
M  V30 5816 H 591.843 0.515138 -1.87969 0
M  V30 5817 H 590.939 1.93194 -2.45117 0
M  V30 5818 N 591.24 1.41047 0.703093 0
M  V30 5819 C 592.465 1.43537 1.49706 0
M  V30 5820 C 592.89 0.0401853 1.88057 0
M  V30 5821 O 592.248 -0.954785 1.54122 0
M  V30 5822 C 592.296 2.3433 2.74084 0
M  V30 5823 O 591.4 1.79515 3.71279 0
M  V30 5824 H 590.741 0.487454 0.450871 0
M  V30 5825 H 593.271 1.85422 0.86486 0
M  V30 5826 H 593.281 2.49947 3.22476 0
M  V30 5827 H 591.956 3.35708 2.45506 0
M  V30 5828 H 590.533 1.7331 3.30179 0
M  V30 5829 N 592.718 -0.936591 1.26751 0
M  V30 5830 C 593.943 -1.72288 1.15462 0
M  V30 5831 C 594.368 -1.85915 -0.285887 0
M  V30 5832 O 593.726 -1.35272 -1.20711 0
M  V30 5833 C 593.774 -3.10503 1.83359 0
M  V30 5834 O 592.878 -3.96745 1.1255 0
M  V30 5835 H 592.219 -0.52843 0.402067 0
M  V30 5836 H 594.749 -1.17271 1.67656 0
M  V30 5837 H 594.759 -3.60867 1.90365 0
M  V30 5838 H 593.434 -2.99901 2.88153 0
M  V30 5839 H 592.011 -3.55191 1.13551 0
M  V30 5840 N 594.196 -1.08629 -1.14182 0
M  V30 5841 C 595.159 -0.722027 -2.1753 0
M  V30 5842 C 596.159 0.244305 -1.58933 0
M  V30 5843 O 597.349 0.0235545 -1.74184 0
M  V30 5844 C 594.481 -0.0663966 -3.40835 0
M  V30 5845 H 595.674 -1.63719 -2.51269 0
M  V30 5846 H 593.227 -0.884442 -1.28869 0
M  V30 5847 H 593.962 0.860389 -3.12678 0
M  V30 5848 H 593.747 -0.761598 -3.84632 0
M  V30 5849 H 595.237 0.173346 -4.1724 0
M  V30 5850 N 595.674 1.31259 -0.872281 0
M  V30 5851 C 596.921 1.96622 -0.484365 0
M  V30 5852 C 597.249 1.68939 0.963841 0
M  V30 5853 O 596.504 0.97974 1.6941 0
M  V30 5854 C 596.803 3.50659 -0.690889 0
M  V30 5855 C 596.469 3.98366 -2.11224 0
M  V30 5856 C 595.131 4.11104 -2.50094 0
M  V30 5857 C 597.483 4.23425 -3.0391 0
M  V30 5858 C 594.811 4.46254 -3.80887 0
M  V30 5859 C 597.163 4.60039 -4.3422 0
M  V30 5860 C 595.827 4.70984 -4.73001 0
M  V30 5861 H 595.097 0.71949 -0.177242 0
M  V30 5862 H 597.744 1.56353 -1.10571 0
M  V30 5863 H 596.049 3.91798 0.0135782 0
M  V30 5864 H 597.746 3.99284 -0.370534 0
M  V30 5865 H 594.336 3.88949 -1.80047 0
M  V30 5866 H 598.52 4.13075 -2.75104 0
M  V30 5867 H 593.776 4.52926 -4.10692 0
M  V30 5868 H 597.95 4.78381 -5.06088 0
M  V30 5869 H 595.577 4.97977 -5.7439 0
M  V30 5870 N 597.152 0.631951 1.44375 0
M  V30 5871 C 598.082 -0.0593243 2.33425 0
M  V30 5872 C 599.063 -0.833964 1.48253 0
M  V30 5873 O 600.248 -0.799682 1.76971 0
M  V30 5874 C 597.378 -1.04096 3.31333 0
M  V30 5875 C 596.332 -0.377899 4.26328 0
M  V30 5876 C 595.658 -1.4695 5.14111 0
M  V30 5877 C 596.958 0.716371 5.17364 0
M  V30 5878 H 598.652 0.684287 2.91475 0
M  V30 5879 H 596.198 0.330518 1.40156 0
M  V30 5880 H 598.151 -1.53331 3.92514 0
M  V30 5881 H 596.875 -1.81547 2.71493 0
M  V30 5882 H 595.534 0.0938054 3.6648 0
M  V30 5883 H 595.182 -2.2349 4.50623 0
M  V30 5884 H 594.882 -1.03121 5.78481 0
M  V30 5885 H 596.406 -1.96363 5.78164 0
M  V30 5886 H 597.82 0.307089 5.72477 0
M  V30 5887 H 596.217 1.07784 5.90341 0
M  V30 5888 H 597.287 1.58316 4.58327 0
M  V30 5889 N 598.631 -1.53133 0.372548 0
M  V30 5890 C 599.561 -2.28876 -0.462412 0
M  V30 5891 C 600.542 -1.31583 -1.07796 0
M  V30 5892 O 601.727 -1.60461 -1.09389 0
M  V30 5893 C 598.857 -3.08317 -1.59868 0
M  V30 5894 C 597.811 -4.13355 -1.11003 0
M  V30 5895 C 597.137 -4.8092 -2.33708 0
M  V30 5896 C 598.437 -5.21955 -0.18983 0
M  V30 5897 H 600.131 -2.9892 0.169511 0
M  V30 5898 H 597.677 -1.43761 0.0829658 0
M  V30 5899 H 599.63 -3.60055 -2.18949 0
M  V30 5900 H 598.354 -2.35976 -2.25794 0
M  V30 5901 H 597.013 -3.62573 -0.541869 0
M  V30 5902 H 596.661 -4.05144 -2.98106 0
M  V30 5903 H 596.361 -5.51904 -2.01682 0
M  V30 5904 H 597.885 -5.35455 -2.93462 0
M  V30 5905 H 599.299 -5.69153 -0.688319 0
M  V30 5906 H 597.696 -6.00087 0.0398887 0
M  V30 5907 H 598.766 -4.78811 0.766057 0
M  V30 5908 N 600.109 -0.101901 -1.5727 0
M  V30 5909 C 601.349 0.563489 -1.96479 0
M  V30 5910 C 601.713 1.64926 -0.983021 0
M  V30 5911 O 602.914 2.37234 -1.26386 0
M  V30 5912 C 601.185 1.09809 -3.40113 0
M  V30 5913 S 602.744 1.7744 -4.01323 0
M  V30 5914 H 599.562 0.183675 -0.686866 0
M  V30 5915 H 602.164 -0.182922 -1.94642 0
M  V30 5916 H 600.868 0.296447 -4.09328 0
M  V30 5917 H 600.399 1.88018 -3.45562 0
M  V30 5918 H 602.414 3.0591 -3.90683 0
M  V30 5919 N 601.587 1.56661 0.17182 0
M  V30 5920 C 602.537 1.92781 1.21736 0
M  V30 5921 C 603.521 0.796065 1.39827 0
M  V30 5922 O 604.713 1.05924 1.41806 0
M  V30 5923 C 601.842 2.29079 2.55691 0
M  V30 5924 C 600.928 3.48765 2.41296 0
M  V30 5925 N 601.319 4.66022 1.96614 0
M  V30 5926 C 599.617 3.53362 2.72124 0
M  V30 5927 C 600.318 5.48159 1.94669 0
M  V30 5928 N 599.294 4.89189 2.37054 0
M  V30 5929 H 603.096 2.80926 0.863592 0
M  V30 5930 H 600.61 1.57889 0.380096 0
M  V30 5931 H 602.607 2.5315 3.31241 0
M  V30 5932 H 601.267 1.42272 2.91871 0
M  V30 5933 H 602.278 4.9025 1.66959 0
M  V30 5934 H 598.955 2.77033 3.12345 0
M  V30 5935 H 600.345 6.52121 1.61826 0
M  V30 5936 N 603.065 -0.440357 1.51323 0
M  V30 5937 C 604.481 -0.7766 1.39431 0
M  V30 5938 C 604.681 -1.95838 0.474296 0
M  V30 5939 O 603.737 -2.52398 -0.0716692 0
M  V30 5940 C 605.05 -1.05981 2.81405 0
M  V30 5941 C 606.598 -1.16442 2.90534 0
M  V30 5942 C 607.073 -1.48058 4.33408 0
M  V30 5943 N 608.564 -1.54988 4.36501 0
M  V30 5944 C 609.299 -1.81017 5.44078 0
M  V30 5945 N 608.795 -2.04858 6.61819 0
M  V30 5946 N 610.588 -1.82774 5.31554 0
M  V30 5947 H 602.739 0.338006 2.09693 0
M  V30 5948 H 605.002 0.0888072 0.943831 0
M  V30 5949 H 604.708 -0.264173 3.50706 0
M  V30 5950 H 604.582 -1.98822 3.20546 0
M  V30 5951 H 606.969 -1.95068 2.21432 0
M  V30 5952 H 607.05 -0.215088 2.54894 0
M  V30 5953 H 606.694 -0.699605 5.03059 0
M  V30 5954 H 606.624 -2.44192 4.66559 0
M  V30 5955 H 609.115 -1.38479 3.51613 0
M  V30 5956 H 609.428 -2.2408 7.396 0
M  V30 5957 H 607.773 -2.02187 6.6494 0
M  V30 5958 H 610.964 -1.63665 4.38556 0
M  V30 5959 H 611.137 -2.02722 6.15474 0
M  V30 5960 N 604.543 -1.41418 -0.695603 0
M  V30 5961 C 605.959 -1.23887 -1.00619 0
M  V30 5962 C 606.159 -0.128206 -2.01092 0
M  V30 5963 O 605.215 0.507408 -2.47349 0
M  V30 5964 C 606.528 -2.58816 -1.53083 0
M  V30 5965 C 608.076 -2.65998 -1.64967 0
M  V30 5966 C 608.551 -4.01244 -2.20833 0
M  V30 5967 N 610.042 -4.0309 -2.28194 0
M  V30 5968 C 610.777 -5.04539 -2.72448 0
M  V30 5969 N 610.273 -6.16378 -3.16306 0
M  V30 5970 N 612.066 -4.91901 -2.72011 0
M  V30 5971 H 604.217 -2.12379 -0.0300061 0
M  V30 5972 H 606.48 -0.944958 -0.0758797 0
M  V30 5973 H 606.186 -3.40842 -0.867147 0
M  V30 5974 H 606.06 -2.81299 -2.51298 0
M  V30 5975 H 608.447 -1.84331 -2.30448 0
M  V30 5976 H 608.528 -2.47325 -0.652982 0
M  V30 5977 H 608.172 -4.83359 -1.55968 0
M  V30 5978 H 608.102 -4.17257 -3.21254 0
M  V30 5979 H 610.593 -3.22341 -1.97242 0
M  V30 5980 H 610.906 -6.89658 -3.487 0
M  V30 5981 H 609.251 -6.19914 -3.14215 0
M  V30 5982 H 612.442 -4.03613 -2.37095 0
M  V30 5983 H 612.615 -5.71102 -3.06181 0
M  V30 5984 N 606.021 0.929856 -1.27246 0
M  V30 5985 C 606.984 2.01172 -1.09829 0
M  V30 5986 C 607.984 1.60743 -0.0429687 0
M  V30 5987 O 609.174 1.71813 -0.287373 0
M  V30 5988 C 606.306 3.34191 -0.673003 0
M  V30 5989 H 607.499 2.18054 -2.05895 0
M  V30 5990 H 605.052 1.11036 -1.10003 0
M  V30 5991 H 605.787 3.23009 0.289134 0
M  V30 5992 H 605.572 3.64892 -1.43515 0
M  V30 5993 H 607.062 4.13646 -0.573323 0
M  V30 5994 N 607.499 1.09233 1.13605 0
M  V30 5995 C 608.739 0.836786 1.86487 0
M  V30 5996 C 609.103 -0.626191 1.81502 0
M  V30 5997 O 610.304 -0.99758 2.49603 0
M  V30 5998 C 608.575 1.35476 3.30728 0
M  V30 5999 S 610.134 1.2328 4.21126 0
M  V30 6000 H 606.952 0.302702 0.643345 0
M  V30 6001 H 609.554 1.3953 1.36936 0
M  V30 6002 H 608.258 2.41381 3.31909 0
M  V30 6003 H 607.789 0.792286 3.85339 0
M  V30 6004 H 609.804 0.182468 4.95864 0
M  V30 6005 N 608.977 -1.30795 0.87923 0
M  V30 6006 C 610.393 -1.48981 0.57243 0
M  V30 6007 C 610.593 -1.80719 -0.891236 0
M  V30 6008 O 609.649 -1.89136 -1.67283 0
M  V30 6009 C 610.962 -2.61721 1.48063 0
M  V30 6010 C 612.51 -2.75603 1.48365 0
M  V30 6011 C 612.985 -3.91449 2.37763 0
M  V30 6012 N 614.476 -3.98751 2.35695 0
M  V30 6013 C 615.211 -4.87684 3.01583 0
M  V30 6014 N 614.707 -5.81454 3.76674 0
M  V30 6015 N 616.5 -4.81005 2.90844 0
M  V30 6016 H 608.651 -1.08465 1.82617 0
M  V30 6017 H 610.914 -0.536813 0.781368 0
M  V30 6018 H 610.62 -2.45073 2.52254 0
M  V30 6019 H 610.494 -3.58071 1.18596 0
M  V30 6020 H 612.881 -2.9166 0.44927 0
M  V30 6021 H 612.962 -1.79891 1.81859 0
M  V30 6022 H 612.606 -3.76149 3.41283 0
M  V30 6023 H 612.536 -4.86487 2.01589 0
M  V30 6024 H 615.027 -3.31668 1.81121 0
M  V30 6025 H 615.34 -6.46063 4.24054 0
M  V30 6026 H 613.685 -5.81403 3.80782 0
M  V30 6027 H 616.876 -4.06728 2.31711 0
M  V30 6028 H 617.049 -5.50107 3.42471 0
M  V30 6029 N 610.455 -0.639598 -1.44038 0
M  V30 6030 C 611.402 0.0602458 -2.30721 0
M  V30 6031 C 612.372 0.828352 -1.43971 0
M  V30 6032 O 613.557 0.807693 -1.72861 0
M  V30 6033 C 610.697 1.03008 -3.29368 0
M  V30 6034 C 609.81 0.259502 -4.3122 0
M  V30 6035 C 608.945 1.22191 -5.16955 0
M  V30 6036 C 607.984 0.440978 -6.10509 0
M  V30 6037 N 607.121 1.35428 -6.88915 0
M  V30 6038 H 611.961 -0.684867 -2.90023 0
M  V30 6039 H 609.498 -0.349509 -1.42888 0
M  V30 6040 H 611.456 1.60583 -3.85057 0
M  V30 6041 H 610.086 1.74222 -2.71747 0
M  V30 6042 H 609.138 -0.432317 -3.77935 0
M  V30 6043 H 610.45 -0.348347 -4.97582 0
M  V30 6044 H 609.604 1.86873 -5.77203 0
M  V30 6045 H 608.343 1.86367 -4.50687 0
M  V30 6046 H 607.348 -0.219279 -5.49363 0
M  V30 6047 H 608.573 -0.196192 -6.78817 0
M  V30 6048 H 606.519 1.9831 -6.25307 0
M  V30 6049 H 606.436 0.800657 -7.51748 0
M  V30 6050 H 607.704 1.98967 -7.53679 0
M  V30 6051 N 611.933 1.52934 -0.380664 0
M  V30 6052 C 613.349 1.59571 -0.0302429 0
M  V30 6053 C 613.549 1.39509 1.45394 0
M  V30 6054 O 612.605 1.20777 2.21741 0
M  V30 6055 C 613.918 2.96519 -0.499691 0
M  V30 6056 C 615.466 3.09672 -0.455204 0
M  V30 6057 C 615.941 4.49056 -0.900703 0
M  V30 6058 N 617.432 4.55215 -0.856367 0
M  V30 6059 C 618.167 5.61282 -1.17259 0
M  V30 6060 N 617.663 6.75035 -1.55885 0
M  V30 6061 N 619.456 5.51343 -1.0944 0
M  V30 6062 H 611.607 1.64224 -1.347 0
M  V30 6063 H 613.87 0.771033 -0.551554 0
M  V30 6064 H 613.576 3.16388 -1.53595 0
M  V30 6065 H 613.45 3.77052 0.105789 0
M  V30 6066 H 615.837 2.89504 0.571949 0
M  V30 6067 H 615.918 2.31113 -1.09638 0
M  V30 6068 H 615.562 4.69964 -1.92604 0
M  V30 6069 H 615.492 5.26068 -0.236629 0
M  V30 6070 H 617.983 3.73546 -0.572013 0
M  V30 6071 H 618.296 7.51926 -1.784 0
M  V30 6072 H 616.641 6.76388 -1.59764 0
M  V30 6073 H 619.832 4.61356 -0.791713 0
M  V30 6074 H 620.005 6.33905 -1.34417 0
M  V30 6075 N 613.412 0.11024 1.57214 0
M  V30 6076 C 614.661 -0.549638 1.94067 0
M  V30 6077 C 614.974 -1.68388 0.995234 0
M  V30 6078 O 616.18 -2.40593 1.25807 0
M  V30 6079 C 614.636 -1.02912 3.44873 0
M  V30 6080 C 614.244 0.0761861 4.47935 0
M  V30 6081 C 615.988 -1.66087 3.9066 0
M  V30 6082 C 613.895 -0.419502 5.8991 0
M  V30 6083 H 612.825 -0.209092 0.724428 0
M  V30 6084 H 615.476 0.188683 1.82527 0
M  V30 6085 H 613.858 -1.82159 3.51616 0
M  V30 6086 H 615.032 0.852185 4.52851 0
M  V30 6087 H 613.347 0.614052 4.11847 0
M  V30 6088 H 615.944 -2.04272 4.94143 0
M  V30 6089 H 616.287 -2.53591 3.30148 0
M  V30 6090 H 616.82 -0.933959 3.86681 0
M  V30 6091 H 613.559 0.419277 6.54158 0
M  V30 6092 H 613.079 -1.16217 5.88433 0
M  V30 6093 H 614.758 -0.883577 6.40938 0
M  V30 6094 N 614.89 -1.56749 -0.16351 0
M  V30 6095 C 616.306 -1.51043 -0.515567 0
M  V30 6096 C 616.506 -0.815855 -1.84245 0
M  V30 6097 O 615.562 -0.379477 -2.49632 0
M  V30 6098 C 616.875 -2.95791 -0.541114 0
M  V30 6099 C 618.423 -3.0664 -0.627776 0
M  V30 6100 C 618.898 -4.52861 -0.684141 0
M  V30 6101 N 620.389 -4.5714 -0.746818 0
M  V30 6102 C 621.124 -5.67634 -0.811137 0
M  V30 6103 N 620.62 -6.8774 -0.835811 0
M  V30 6104 N 622.413 -5.55624 -0.850756 0
M  V30 6105 H 614.564 -2.00307 0.70645 0
M  V30 6106 H 616.827 -0.912876 0.255659 0
M  V30 6107 H 616.533 -3.49797 0.365329 0
M  V30 6108 H 616.407 -3.50858 -1.38487 0
M  V30 6109 H 618.794 -2.52663 -1.52464 0
M  V30 6110 H 618.875 -2.54645 0.242805 0
M  V30 6111 H 618.519 -5.07472 0.2085 0
M  V30 6112 H 618.449 -5.02621 -1.57098 0
M  V30 6113 H 620.94 -3.70669 -0.735717 0
M  V30 6114 H 621.253 -7.67701 -0.886279 0
M  V30 6115 H 619.598 -6.90334 -0.803958 0
M  V30 6116 H 622.789 -4.60709 -0.828535 0
M  V30 6117 H 622.962 -6.41756 -0.897418 0
M  V30 6118 N 616.368 0.432326 -1.51554 0
M  V30 6119 C 617.3 1.54357 -1.6943 0
M  V30 6120 C 618.313 1.52311 -0.574897 0
M  V30 6121 O 619.502 1.56997 -0.849369 0
M  V30 6122 C 616.602 2.93273 -1.69836 0
M  V30 6123 C 615.775 3.19768 -2.98442 0
M  V30 6124 C 614.834 4.38433 -2.90969 0
M  V30 6125 O 613.86 4.36842 -3.64908 0
M  V30 6126 N 615.062 5.42276 -2.07163 0
M  V30 6127 H 617.827 1.39426 -2.65293 0
M  V30 6128 H 615.388 0.621331 -1.49503 0
M  V30 6129 H 617.38 3.70687 -1.62399 0
M  V30 6130 H 615.95 3.01777 -0.815456 0
M  V30 6131 H 615.17 2.30607 -3.19709 0
M  V30 6132 H 616.458 3.343 -3.83563 0
M  V30 6133 H 615.856 5.46407 -1.46477 0
M  V30 6134 H 614.413 6.18524 -2.05601 0
M  V30 6135 N 617.846 1.41785 0.688094 0
M  V30 6136 C 618.793 1.44221 1.80191 0
M  V30 6137 C 619.763 0.295688 1.63447 0
M  V30 6138 O 620.948 0.49783 1.84191 0
M  V30 6139 C 618.088 1.33743 3.1813 0
M  V30 6140 C 617.201 2.58325 3.46254 0
M  V30 6141 C 616.336 2.40086 4.73848 0
M  V30 6142 C 615.375 3.60107 4.94964 0
M  V30 6143 N 614.512 3.40892 6.13789 0
M  V30 6144 H 619.352 2.39411 1.77444 0
M  V30 6145 H 616.889 1.18876 0.866423 0
M  V30 6146 H 618.847 1.25669 3.97823 0
M  V30 6147 H 617.477 0.42157 3.20035 0
M  V30 6148 H 616.529 2.7682 2.60912 0
M  V30 6149 H 617.841 3.4758 3.57756 0
M  V30 6150 H 616.995 2.29522 5.61609 0
M  V30 6151 H 615.734 1.483 4.64606 0
M  V30 6152 H 614.739 3.71118 4.05649 0
M  V30 6153 H 615.964 4.52857 5.06061 0
M  V30 6154 H 613.91 2.51812 6.05745 0
M  V30 6155 H 613.827 4.23727 6.26092 0
M  V30 6156 H 615.095 3.34114 7.04264 0
M  V30 6157 N 619.324 -0.923095 1.27737 0
M  V30 6158 C 620.254 -2.04124 1.13383 0
M  V30 6159 C 621.235 -1.70066 0.0340658 0
M  V30 6160 O 622.42 -1.93068 0.209383 0
M  V30 6161 C 619.55 -3.3831 0.785097 0
M  V30 6162 C 618.504 -3.86496 1.8386 0
M  V30 6163 C 617.83 -5.1754 1.34373 0
M  V30 6164 C 619.13 -4.09381 3.24353 0
M  V30 6165 H 620.824 -2.1639 2.06919 0
M  V30 6166 H 618.37 -1.03976 0.996243 0
M  V30 6167 H 620.323 -4.16016 0.671485 0
M  V30 6168 H 619.047 -3.2607 -0.185969 0
M  V30 6169 H 617.706 -3.10987 1.9412 0
M  V30 6170 H 617.354 -5.01696 0.361989 0
M  V30 6171 H 617.054 -5.50751 2.04811 0
M  V30 6172 H 618.578 -5.97811 1.24315 0
M  V30 6173 H 619.992 -4.77641 3.17067 0
M  V30 6174 H 618.389 -4.53906 3.92542 0
M  V30 6175 H 619.459 -3.14515 3.69064 0
M  V30 6176 N 620.802 -1.09834 -1.13024 0
M  V30 6177 C 621.752 -0.710899 -2.16634 0
M  V30 6178 C 622.736 0.276836 -1.58501 0
M  V30 6179 O 623.928 0.0865457 -1.76788 0
M  V30 6180 C 621.057 -0.137574 -3.43024 0
M  V30 6181 C 620.143 -1.15198 -4.08155 0
M  V30 6182 N 620.534 -2.34054 -4.48388 0
M  V30 6183 C 618.832 -0.991074 -4.34849 0
M  V30 6184 C 619.533 -2.98616 -4.99203 0
M  V30 6185 N 618.509 -2.26159 -4.94321 0
M  V30 6186 H 622.311 -1.61576 -2.455 0
M  V30 6187 H 619.825 -0.975158 -1.29863 0
M  V30 6188 H 621.822 0.158031 -4.166 0
M  V30 6189 H 620.482 0.762088 -3.1563 0
M  V30 6190 H 621.493 -2.7162 -4.40957 0
M  V30 6191 H 618.17 -0.146448 -4.17243 0
M  V30 6192 H 619.56 -3.99683 -5.40096 0
M  V30 6193 N 622.28 1.30327 -0.886154 0
M  V30 6194 C 623.21 2.30549 -0.370028 0
M  V30 6195 C 624.191 1.61039 0.547751 0
M  V30 6196 O 625.376 1.8864 0.461353 0
M  V30 6197 C 622.506 3.44808 0.415275 0
M  V30 6198 C 621.46 4.26024 -0.41085 0
M  V30 6199 C 620.786 5.32347 0.501128 0
M  V30 6200 C 622.086 4.95433 -1.65359 0
M  V30 6201 H 623.78 2.73969 -1.20754 0
M  V30 6202 H 621.326 1.3171 -0.582097 0
M  V30 6203 H 623.279 4.13986 0.78699 0
M  V30 6204 H 622.003 3.00197 1.28644 0
M  V30 6205 H 620.662 3.58535 -0.764719 0
M  V30 6206 H 620.31 4.83982 1.37004 0
M  V30 6207 H 620.01 5.87581 -0.0478356 0
M  V30 6208 H 621.534 6.0438 0.869333 0
M  V30 6209 H 622.948 5.5712 -1.35239 0
M  V30 6210 H 621.345 5.60537 -2.14284 0
M  V30 6211 H 622.415 4.21493 -2.39733 0
M  V30 6212 N 623.758 0.647228 1.43697 0
M  V30 6213 C 624.998 0.16171 2.03759 0
M  V30 6214 C 625.362 -1.19951 1.49919 0
M  V30 6215 O 626.563 -1.77808 2.01588 0
M  V30 6216 C 624.834 0.16505 3.57019 0
M  V30 6217 S 626.393 -0.253497 4.38067 0
M  V30 6218 H 623.211 0.0689985 0.707644 0
M  V30 6219 H 625.813 0.854224 1.7585 0
M  V30 6220 H 624.517 1.15858 3.93707 0
M  V30 6221 H 624.048 -0.548194 3.89562 0
M  V30 6222 H 626.063 -1.49385 4.73179 0
M  V30 6223 N 625.236 -1.5273 0.388769 0
M  V30 6224 C 626.466 -2.05693 -0.193397 0
M  V30 6225 C 626.874 -1.26038 -1.41107 0
M  V30 6226 O 626.217 -0.30001 -1.81234 0
M  V30 6227 C 626.279 -3.53962 -0.628561 0
M  V30 6228 C 625.943 -4.54519 0.475576 0
M  V30 6229 C 626.94 -5.02526 1.33281 0
M  V30 6230 C 624.625 -4.98174 0.642453 0
M  V30 6231 C 626.619 -5.92812 2.34205 0
M  V30 6232 C 624.306 -5.88262 1.65503 0
M  V30 6233 C 625.304 -6.35473 2.50325 0
M  V30 6234 O 624.992 -7.23781 3.49852 0
M  V30 6235 H 624.724 -0.675197 -0.0329395 0
M  V30 6236 H 627.278 -1.97835 0.552326 0
M  V30 6237 H 625.508 -3.59437 -1.42625 0
M  V30 6238 H 627.197 -3.89669 -1.13633 0
M  V30 6239 H 627.963 -4.6953 1.21519 0
M  V30 6240 H 623.842 -4.60999 -0.00805093 0
M  V30 6241 H 627.386 -6.29585 3.00447 0
M  V30 6242 H 623.283 -6.20672 1.77304 0
M  V30 6243 H 624.051 -7.4184 3.45855 0
M  V30 6244 N 626.714 -0.118576 -1.57153 0
M  V30 6245 C 628.125 0.40687 -1.82213 0
M  V30 6246 C 628.476 1.66636 -1.03571 0
M  V30 6247 O 627.601 2.14682 -0.272171 0
M  V30 6248 C 628.196 0.744949 -3.30509 0
M  V30 6249 C 626.755 1.21503 -3.5625 0
M  V30 6250 C 625.902 0.223511 -2.76398 0
M  V30 6251 H 628.853 -0.343712 -1.54933 0
M  V30 6252 H 628.874 1.6024 -3.45114 0
M  V30 6253 H 628.386 -0.171911 -3.87719 0
M  V30 6254 H 626.487 2.1488 -3.04396 0
M  V30 6255 H 626.6 1.16065 -4.64829 0
M  V30 6256 H 624.964 0.71046 -2.44591 0
M  V30 6257 H 625.747 -0.686439 -3.36367 0
M  V30 6258 N 628.193 1.56834 0.155195 0
M  V30 6259 C 629.439 1.83169 0.870467 0
M  V30 6260 C 629.772 0.698929 1.81187 0
M  V30 6261 O 629.047 -0.298035 1.92203 0
M  V30 6262 C 629.33 3.19965 1.65211 0
M  V30 6263 C 629.183 4.43792 0.732744 0
M  V30 6264 C 630.502 3.53885 2.61636 0
M  V30 6265 H 627.621 0.666288 0.315006 0
M  V30 6266 H 630.263 1.89513 0.135988 0
M  V30 6267 H 628.413 3.14687 2.27825 0
M  V30 6268 H 630.085 4.61148 0.118236 0
M  V30 6269 H 628.328 4.3378 0.0417906 0
M  V30 6270 H 628.999 5.36095 1.31552 0
M  V30 6271 H 631.475 3.5972 2.09143 0
M  V30 6272 H 630.351 4.50648 3.13381 0
M  V30 6273 H 630.612 2.79418 3.42605 0
M  V30 6274 N 629.671 -0.424282 1.51781 0
M  V30 6275 C 630.603 -1.53457 1.70246 0
M  V30 6276 C 631.616 -1.52004 0.582967 0
M  V30 6277 O 632.805 -1.56544 0.857683 0
M  V30 6278 C 629.905 -2.92368 1.71389 0
M  V30 6279 C 629.078 -3.1818 3.00133 0
M  V30 6280 C 628.137 -4.36884 2.9329 0
M  V30 6281 O 627.163 -4.34901 3.67219 0
M  V30 6282 N 628.365 -5.4117 2.10036 0
M  V30 6283 H 631.13 -1.38017 2.66029 0
M  V30 6284 H 628.691 -0.613394 1.4983 0
M  V30 6285 H 630.683 -3.6982 1.64362 0
M  V30 6286 H 629.253 -3.0134 0.831449 0
M  V30 6287 H 628.473 -2.28908 3.20928 0
M  V30 6288 H 629.761 -3.32261 3.85331 0
M  V30 6289 H 629.159 -5.45623 1.49373 0
M  V30 6290 H 627.716 -6.17425 2.08878 0
M  V30 6291 N 631.149 -1.42148 -0.680565 0
M  V30 6292 C 632.377 -1.45696 -1.46902 0
M  V30 6293 C 632.792 -0.0665858 -1.88683 0
M  V30 6294 O 632.149 0.917436 -1.57764 0
M  V30 6295 C 632.2 -2.37898 -2.72188 0
M  V30 6296 O 631.921 -3.71526 -2.32163 0
M  V30 6297 C 633.422 -2.50407 -3.65802 0
M  V30 6298 H 630.642 -0.495729 -0.45221 0
M  V30 6299 H 633.186 -1.866 -0.836709 0
M  V30 6300 H 631.341 -2.00263 -3.31622 0
M  V30 6301 H 631.755 -4.20849 -3.13027 0
M  V30 6302 H 633.229 -3.19056 -4.50452 0
M  V30 6303 H 633.706 -1.5401 -4.11312 0
M  V30 6304 H 634.312 -2.8874 -3.12265 0
M  V30 6305 N 632.627 0.916307 -1.28225 0
M  V30 6306 C 633.852 1.7043 -1.18188 0
M  V30 6307 C 634.277 1.86346 0.256274 0
M  V30 6308 O 633.635 1.37175 1.18544 0
M  V30 6309 C 633.683 3.07546 -1.88275 0
M  V30 6310 O 632.787 3.94904 -1.18848 0
M  V30 6311 H 632.128 0.521967 -0.410423 0
M  V30 6312 H 634.658 1.14589 -1.69501 0
M  V30 6313 H 634.668 3.57793 -1.96082 0
M  V30 6314 H 633.343 2.95279 -2.92887 0
M  V30 6315 H 631.92 3.53339 -1.19187 0
M  V30 6316 N 634.105 1.10431 1.1244 0
M  V30 6317 C 635.037 0.710945 2.17895 0
M  V30 6318 C 636.05 -0.252315 1.60833 0
M  V30 6319 O 637.239 -0.03679 1.78462 0
M  V30 6320 C 634.339 0.0284262 3.38888 0
M  V30 6321 C 633.512 1.01585 4.2544 0
M  V30 6322 C 632.571 0.364826 5.24934 0
M  V30 6323 O 631.597 1.01561 5.60066 0
M  V30 6324 N 632.799 -0.87674 5.73841 0
M  V30 6325 H 635.564 1.61826 2.52255 0
M  V30 6326 H 633.125 0.993132 1.27861 0
M  V30 6327 H 635.117 -0.418568 4.0253 0
M  V30 6328 H 633.687 -0.781294 3.02679 0
M  V30 6329 H 632.907 1.64111 3.58415 0
M  V30 6330 H 634.195 1.68425 4.80115 0
M  V30 6331 H 633.593 -1.42483 5.47462 0
M  V30 6332 H 632.15 -1.26688 6.39369 0
M  V30 6333 N 635.583 -1.29855 0.893053 0
M  V30 6334 C 636.994 -1.77946 0.564998 0
M  V30 6335 C 637.345 -1.73339 -0.919134 0
M  V30 6336 O 636.47 -1.3152 -1.71847 0
M  V30 6337 C 637.065 -3.23118 1.01883 0
M  V30 6338 C 635.624 -3.69013 0.742051 0
M  V30 6339 C 634.771 -2.50121 1.19727 0
M  V30 6340 H 637.722 -1.16611 1.07646 0
M  V30 6341 H 637.743 -3.78875 0.351249 0
M  V30 6342 H 637.255 -3.26439 2.09903 0
M  V30 6343 H 635.356 -3.71173 -0.325816 0
M  V30 6344 H 635.469 -4.60117 1.33527 0
M  V30 6345 H 633.833 -2.47128 0.616418 0
M  V30 6346 H 634.616 -2.56174 2.28538 0
M  V30 6347 N 637.061 -0.65484 -1.43351 0
M  V30 6348 C 638.008 0.0357713 -2.30772 0
M  V30 6349 C 638.978 0.813035 -1.44841 0
M  V30 6350 O 640.163 0.789314 -1.73708 0
M  V30 6351 C 637.303 0.995084 -3.30442 0
M  V30 6352 C 636.416 0.21375 -4.31471 0
M  V30 6353 C 635.551 1.16701 -5.18222 0
M  V30 6354 C 634.59 0.376201 -6.10943 0
M  V30 6355 N 633.727 1.28113 -6.90313 0
M  V30 6356 H 638.567 -0.71559 -2.89281 0
M  V30 6357 H 636.104 -0.364645 -1.42509 0
M  V30 6358 H 638.062 1.5649 -3.86739 0
M  V30 6359 H 636.692 1.7133 -2.7358 0
M  V30 6360 H 635.744 -0.472377 -3.77456 0
M  V30 6361 H 637.056 -0.401103 -4.97185 0
M  V30 6362 H 636.21 1.8074 -5.79153 0
M  V30 6363 H 634.949 1.81577 -4.52638 0
M  V30 6364 H 633.954 -0.277534 -5.49099 0
M  V30 6365 H 635.179 -0.268178 -6.7857 0
M  V30 6366 H 633.125 1.91666 -6.27376 0
M  V30 6367 H 633.042 0.720879 -7.52555 0
M  V30 6368 H 634.31 1.90962 -7.55747 0
M  V30 6369 N 638.539 1.52521 -0.396863 0
M  V30 6370 C 639.469 2.29582 0.425941 0
M  V30 6371 C 640.45 1.33281 1.05689 0
M  V30 6372 O 641.635 1.62181 1.06823 0
M  V30 6373 C 638.765 3.10821 1.54943 0
M  V30 6374 C 637.719 4.15069 1.04413 0
M  V30 6375 C 637.045 4.84578 2.26028 0
M  V30 6376 C 638.345 5.22191 0.106767 0
M  V30 6377 H 640.039 2.98612 -0.217045 0
M  V30 6378 H 637.585 1.43611 -0.105826 0
M  V30 6379 H 639.538 3.63492 2.13193 0
M  V30 6380 H 638.262 2.39538 2.22011 0
M  V30 6381 H 636.921 3.63389 0.484118 0
M  V30 6382 H 636.569 4.09835 2.91623 0
M  V30 6383 H 636.269 5.55043 1.92876 0
M  V30 6384 H 637.793 5.40056 2.84906 0
M  V30 6385 H 639.207 5.70176 0.597685 0
M  V30 6386 H 637.604 5.99947 -0.135352 0
M  V30 6387 H 638.674 4.77531 -0.842134 0
M  V30 6388 N 640.017 0.126909 1.57088 0
M  V30 6389 C 640.927 -0.833867 2.1928 0
M  V30 6390 C 641.943 -1.2868 1.17122 0
M  V30 6391 O 643.119 -1.34815 1.49622 0
M  V30 6392 C 640.184 -2.0632 2.78627 0
M  V30 6393 C 639.245 -1.66143 3.95847 0
M  V30 6394 C 638.478 -2.83217 4.52354 0
M  V30 6395 O 638.701 -3.98868 4.0775 0
M  V30 6396 O 637.635 -2.59846 5.42922 0
M  V30 6397 H 641.461 -0.334564 3.01852 0
M  V30 6398 H 639.046 -0.0991091 1.49071 0
M  V30 6399 H 640.928 -2.78304 3.16425 0
M  V30 6400 H 639.603 -2.55242 1.99082 0
M  V30 6401 H 638.51 -0.912435 3.62802 0
M  V30 6402 H 639.843 -1.21957 4.76852 0
M  V30 6403 N 641.495 -1.56914 -0.146875 0
M  V30 6404 C 642.425 -2.01308 -1.1831 0
M  V30 6405 C 643.406 -0.892664 -1.44795 0
M  V30 6406 O 644.591 -1.16048 -1.55713 0
M  V30 6407 C 641.721 -2.3938 -2.51624 0
M  V30 6408 C 640.675 -3.54608 -2.3966 0
M  V30 6409 C 640.001 -3.78493 -3.77686 0
M  V30 6410 C 641.301 -4.87269 -1.88058 0
M  V30 6411 H 642.995 -2.88123 -0.813964 0
M  V30 6412 H 640.541 -1.38615 -0.3901 0
M  V30 6413 H 642.494 -2.69037 -3.24341 0
M  V30 6414 H 641.218 -1.49502 -2.90373 0
M  V30 6415 H 639.877 -3.25116 -1.69396 0
M  V30 6416 H 639.525 -2.85866 -4.13871 0
M  V30 6417 H 639.225 -4.56039 -3.70543 0
M  V30 6418 H 640.749 -4.10576 -4.51951 0
M  V30 6419 H 642.163 -5.15644 -2.50568 0
M  V30 6420 H 640.56 -5.68622 -1.91805 0
M  V30 6421 H 641.63 -4.77634 -0.836277 0
M  V30 6422 N 642.974 0.416227 -1.52004 0
M  V30 6423 C 644.22 1.16555 -1.6596 0
M  V30 6424 C 644.553 1.90347 -0.384906 0
M  V30 6425 O 643.828 1.84474 0.616405 0
M  V30 6426 C 644.111 2.1657 -2.87696 0
M  V30 6427 C 643.964 1.46722 -4.25197 0
M  V30 6428 C 645.283 3.17321 -3.04951 0
M  V30 6429 H 642.402 0.422369 -0.603965 0
M  V30 6430 H 645.044 0.452141 -1.84542 0
M  V30 6431 H 643.194 2.77411 -2.71985 0
M  V30 6432 H 644.866 0.89056 -4.52622 0
M  V30 6433 H 643.109 0.769263 -4.26925 0
M  V30 6434 H 643.78 2.19665 -5.0641 0
M  V30 6435 H 646.256 2.66552 -3.19514 0
M  V30 6436 H 645.132 3.84573 -3.91656 0
M  V30 6437 H 645.393 3.84643 -2.17951 0
M  V30 6438 N 644.452 1.42507 0.673017 0
M  V30 6439 C 645.729 1.33554 1.42908 0
M  V30 6440 C 646.109 -0.0262211 2.11084 0
M  V30 6441 O 645.457 -1.04181 2.03368 0
M  V30 6442 C 645.667 2.50498 2.43006 0
M  V30 6443 C 647.015 2.92694 3.07596 0
M  V30 6444 O 648.039 2.50401 2.53333 0
M  V30 6445 O 646.898 3.65899 4.05931 0
M  V30 6446 H 643.992 0.526785 0.637516 0
M  V30 6447 H 646.538 1.54518 0.701591 0
M  V30 6448 H 645.31 3.41272 1.9144 0
M  V30 6449 H 644.933 2.3153 3.23233 0
M  V30 6450 N 645.93 -0.909495 1.28709 0
M  V30 6451 C 647.155 -1.69801 1.1909 0
M  V30 6452 C 647.58 -1.86479 -0.246388 0
M  V30 6453 O 646.938 -1.37802 -1.17815 0
M  V30 6454 C 646.986 -3.06543 1.89904 0
M  V30 6455 O 646.09 -3.94268 1.2094 0
M  V30 6456 H 645.431 -0.519783 0.413185 0
M  V30 6457 H 647.961 -1.13689 1.70106 0
M  V30 6458 H 647.971 -3.56748 1.97977 0
M  V30 6459 H 646.646 -2.93722 2.94449 0
M  V30 6460 H 645.223 -3.52702 1.2106 0
M  V30 6461 N 647.408 -1.11026 -1.11852 0
M  V30 6462 C 648.824 -0.843294 -1.35502 0
M  V30 6463 C 649.024 0.534179 -1.9429 0
M  V30 6464 O 648.08 1.28585 -2.17307 0
M  V30 6465 C 649.393 -1.94793 -2.29077 0
M  V30 6466 C 650.941 -1.97709 -2.42652 0
M  V30 6467 C 651.416 -3.07364 -3.39546 0
M  V30 6468 N 652.907 -3.0671 -3.47107 0
M  V30 6469 C 653.642 -3.88197 -4.22008 0
M  V30 6470 N 653.138 -4.79635 -4.99922 0
M  V30 6471 N 654.931 -3.76391 -4.17476 0
M  V30 6472 H 647.082 -1.99805 -0.720538 0
M  V30 6473 H 649.345 -0.868633 -0.379711 0
M  V30 6474 H 649.051 -2.93971 -1.93065 0
M  V30 6475 H 648.925 -1.84039 -3.29256 0
M  V30 6476 H 651.312 -0.991604 -2.77941 0
M  V30 6477 H 651.393 -2.1254 -1.4234 0
M  V30 6478 H 651.037 -4.06136 -3.04985 0
M  V30 6479 H 650.967 -2.89774 -4.39703 0
M  V30 6480 H 653.458 -2.40457 -2.91528 0
M  V30 6481 H 653.771 -5.38357 -5.54429 0
M  V30 6482 H 652.116 -4.8366 -4.99097 0
M  V30 6483 H 655.307 -3.04303 -3.55693 0
M  V30 6484 H 655.48 -4.40131 -4.75593 0
M  V30 6485 N 648.886 1.2938 -0.899927 0
M  V30 6486 C 650.297 1.77644 -0.574427 0
M  V30 6487 C 650.648 1.73824 0.909928 0
M  V30 6488 O 649.773 1.32429 1.71147 0
M  V30 6489 C 650.368 3.22573 -1.03595 0
M  V30 6490 C 648.927 3.68614 -0.76161 0
M  V30 6491 C 648.074 2.49483 -1.21052 0
M  V30 6492 H 651.025 1.16038 -1.08263 0
M  V30 6493 H 651.046 3.78684 -0.371337 0
M  V30 6494 H 650.558 3.25321 -2.11631 0
M  V30 6495 H 648.659 3.7134 0.306127 0
M  V30 6496 H 648.772 4.59402 -1.35965 0
M  V30 6497 H 647.136 2.46798 -0.629515 0
M  V30 6498 H 647.919 2.54959 -2.29893 0
M  V30 6499 N 650.364 0.662433 1.43002 0
M  V30 6500 C 651.78 0.330835 1.56133 0
M  V30 6501 C 651.98 -1.16454 1.64441 0
M  V30 6502 O 651.036 -1.94964 1.60453 0
M  V30 6503 C 652.349 1.05029 2.81761 0
M  V30 6504 C 653.897 1.03142 2.95518 0
M  V30 6505 C 654.372 1.73196 4.2399 0
M  V30 6506 N 655.863 1.70004 4.30875 0
M  V30 6507 C 656.598 2.21074 5.29069 0
M  V30 6508 N 656.094 2.80473 6.33488 0
M  V30 6509 N 657.887 2.1152 5.20784 0
M  V30 6510 H 650.038 1.63272 1.35853 0
M  V30 6511 H 652.301 0.687149 0.653092 0
M  V30 6512 H 652.007 2.10542 2.81718 0
M  V30 6513 H 651.881 0.607664 3.72273 0
M  V30 6514 H 654.268 -0.0153339 2.95096 0
M  V30 6515 H 654.349 1.51282 2.0627 0
M  V30 6516 H 653.993 2.77833 4.25172 0
M  V30 6517 H 653.923 1.22515 5.1215 0
M  V30 6518 H 656.414 1.26667 3.56039 0
M  V30 6519 H 656.727 3.17094 7.04749 0
M  V30 6520 H 655.072 2.84538 6.34085 0
M  V30 6521 H 658.263 1.64814 4.38126 0
M  V30 6522 H 658.436 2.51629 5.97149 0
M  V30 6523 N 651.842 -1.52309 0.404946 0
M  V30 6524 C 653.258 -1.59503 0.0556255 0
M  V30 6525 C 653.458 -1.41805 -1.43156 0
M  V30 6526 O 652.514 -1.2429 -2.19792 0
M  V30 6527 C 653.827 -2.95687 0.546801 0
M  V30 6528 C 655.375 -3.08909 0.504413 0
M  V30 6529 C 655.85 -4.47566 0.97203 0
M  V30 6530 N 657.341 -4.53795 0.928679 0
M  V30 6531 C 658.076 -5.59346 1.26174 0
M  V30 6532 N 657.572 -6.72469 1.66604 0
M  V30 6533 N 659.365 -5.49532 1.18198 0
M  V30 6534 H 651.516 -1.6206 1.37296 0
M  V30 6535 H 653.779 -0.762161 0.563751 0
M  V30 6536 H 653.485 -3.13905 1.58609 0
M  V30 6537 H 653.359 -3.77172 -0.0457905 0
M  V30 6538 H 655.746 -2.90378 -0.525819 0
M  V30 6539 H 655.827 -2.2934 1.13301 0
M  V30 6540 H 655.471 -4.6684 2.00057 0
M  V30 6541 H 655.401 -5.25625 0.320292 0
M  V30 6542 H 657.892 -3.72588 0.631369 0
M  V30 6543 H 658.205 -7.48993 1.9034 0
M  V30 6544 H 656.55 -6.73761 1.70504 0
M  V30 6545 H 659.741 -4.60038 0.865011 0
M  V30 6546 H 659.914 -6.31687 1.44485 0
M  V30 6547 N 653.32 -0.135238 -1.57019 0
M  V30 6548 C 654.545 0.529343 -2.00531 0
M  V30 6549 C 654.97 1.58391 -1.01459 0
M  V30 6550 O 654.328 1.81296 0.0113986 0
M  V30 6551 C 654.376 1.11748 -3.42848 0
M  V30 6552 O 653.48 2.23267 -3.46736 0
M  V30 6553 H 652.821 0.130669 -0.651016 0
M  V30 6554 H 655.351 -0.228503 -2.0332 0
M  V30 6555 H 655.361 1.44905 -3.81401 0
M  V30 6556 H 654.036 0.345147 -4.14465 0
M  V30 6557 H 652.613 1.91428 -3.20015 0
M  V30 6558 N 654.798 1.5699 0.138552 0
M  V30 6559 C 656.023 1.88344 0.86841 0
M  V30 6560 C 656.448 0.725159 1.7356 0
M  V30 6561 O 655.806 -0.324992 1.78363 0
M  V30 6562 C 655.854 3.18334 1.69398 0
M  V30 6563 O 654.958 3.02863 2.79907 0
M  V30 6564 H 654.299 0.618577 0.241367 0
M  V30 6565 H 656.829 2.04207 0.126826 0
M  V30 6566 H 656.839 3.50567 2.08726 0
M  V30 6567 H 655.514 4.02238 1.05725 0
M  V30 6568 H 654.091 2.82056 2.43924 0
M  V30 6569 N 656.276 -0.40816 1.52223 0
M  V30 6570 C 657.504 -1.17672 1.70179 0
M  V30 6571 C 657.919 -1.84257 0.411696 0
M  V30 6572 O 657.276 -1.7192 -0.612354 0
M  V30 6573 C 657.327 -2.23911 2.83806 0
M  V30 6574 O 657.048 -1.60044 4.0782 0
M  V30 6575 C 658.549 -3.1364 3.13281 0
M  V30 6576 H 655.769 -0.353562 0.570293 0
M  V30 6577 H 658.313 -0.480083 1.98785 0
M  V30 6578 H 656.468 -2.89242 2.57717 0
M  V30 6579 H 656.882 -2.30484 4.71145 0
M  V30 6580 H 658.356 -3.84255 3.96298 0
M  V30 6581 H 658.833 -3.76066 2.26872 0
M  V30 6582 H 659.439 -2.53977 3.41139 0
M  V30 6583 N 657.755 -1.42862 -0.66545 0
M  V30 6584 C 658.687 -1.43026 -1.79098 0
M  V30 6585 C 659.7 -0.32803 -1.59461 0
M  V30 6586 O 660.889 -0.591709 -1.68407 0
M  V30 6587 C 657.989 -1.21566 -3.16346 0
M  V30 6588 C 657.162 -2.44399 -3.62751 0
M  V30 6589 C 656.221 -2.18344 -4.78761 0
M  V30 6590 O 655.247 -2.91611 -4.88827 0
M  V30 6591 N 656.449 -1.1924 -5.68122 0
M  V30 6592 H 659.214 -2.40045 -1.79439 0
M  V30 6593 H 656.775 -1.37861 -0.848872 0
M  V30 6594 H 658.767 -1.02037 -3.91625 0
M  V30 6595 H 657.337 -0.330368 -3.10849 0
M  V30 6596 H 656.557 -2.79433 -2.78048 0
M  V30 6597 H 657.845 -3.26173 -3.90498 0
M  V30 6598 H 657.243 -0.586603 -5.6265 0
M  V30 6599 H 655.8 -1.05698 -6.43173 0
M  V30 6600 N 659.233 0.902656 -1.29189 0
M  V30 6601 C 660.163 2.02294 -1.16616 0
M  V30 6602 C 661.144 1.6999 -0.0611175 0
M  V30 6603 O 662.329 1.9271 -0.240072 0
M  V30 6604 C 659.459 3.37018 -0.83882 0
M  V30 6605 C 658.413 3.83522 -1.89986 0
M  V30 6606 C 657.739 5.15337 -1.42589 0
M  V30 6607 C 659.039 4.04169 -3.30824 0
M  V30 6608 H 660.733 2.13071 -2.10336 0
M  V30 6609 H 658.279 1.02378 -1.01266 0
M  V30 6610 H 660.232 4.14895 -0.737584 0
M  V30 6611 H 658.956 3.26325 0.134071 0
M  V30 6612 H 657.615 3.07859 -1.99043 0
M  V30 6613 H 657.263 5.01056 -0.441759 0
M  V30 6614 H 656.963 5.47423 -2.13547 0
M  V30 6615 H 658.487 5.95758 -1.3381 0
M  V30 6616 H 659.901 4.72537 -3.24626 0
M  V30 6617 H 658.298 4.47604 -3.99713 0
M  V30 6618 H 659.368 3.08604 -3.74021 0
M  V30 6619 N 660.711 1.11618 1.11262 0
M  V30 6620 C 662.127 0.850468 1.35053 0
M  V30 6621 C 662.327 -0.523868 1.94571 0
M  V30 6622 O 661.383 -1.2743 2.17986 0
M  V30 6623 C 662.696 1.96005 2.28041 0
M  V30 6624 C 664.244 1.98993 2.416 0
M  V30 6625 C 664.719 3.0916 3.37911 0
M  V30 6626 N 666.21 3.08547 3.45475 0
M  V30 6627 C 666.945 3.9043 4.19943 0
M  V30 6628 N 666.441 4.8228 4.97371 0
M  V30 6629 N 668.234 3.786 4.15474 0
M  V30 6630 H 660.385 2.00184 0.709932 0
M  V30 6631 H 662.648 0.870635 0.375099 0
M  V30 6632 H 662.354 2.9499 1.91503 0
M  V30 6633 H 662.228 1.85782 3.28275 0
M  V30 6634 H 664.615 1.00633 2.77411 0
M  V30 6635 H 664.696 2.13292 1.4121 0
M  V30 6636 H 664.34 4.07748 3.02827 0
M  V30 6637 H 664.27 2.92102 4.3816 0
M  V30 6638 H 666.761 2.42 2.90249 0
M  V30 6639 H 667.074 5.41289 5.51567 0
M  V30 6640 H 665.419 4.863 4.96525 0
M  V30 6641 H 668.61 3.06185 3.54074 0
M  V30 6642 H 668.783 4.42647 4.73253 0
M  V30 6643 N 662.189 -1.289 0.906776 0
M  V30 6644 C 663.414 -1.99939 0.551303 0
M  V30 6645 C 663.839 -1.67366 -0.858496 0
M  V30 6646 O 663.197 -0.902176 -1.57259 0
M  V30 6647 C 663.245 -3.52523 0.758937 0
M  V30 6648 O 662.349 -4.11983 -0.185308 0
M  V30 6649 H 661.69 -0.628376 0.214568 0
M  V30 6650 H 664.22 -1.64225 1.2203 0
M  V30 6651 H 664.23 -4.02522 0.666329 0
M  V30 6652 H 662.905 -3.75566 1.78671 0
M  V30 6653 H 661.482 -3.72873 -0.0445577 0
M  V30 6654 N 663.667 -0.670007 -1.42649 0
M  V30 6655 C 664.915 -0.18991 -2.01206 0
M  V30 6656 C 665.236 1.20617 -1.53221 0
M  V30 6657 O 664.506 1.80898 -0.751856 0
M  V30 6658 H 663.086 -0.0672189 -0.743969 0
M  V30 6659 H 665.748 -0.865442 -1.74631 0
M  V30 6660 H 664.844 -0.187481 -3.11536 0
M  V30 6661 N 665.145 1.52092 -0.413018 0
M  V30 6662 C 666.108 2.25706 0.398687 0
M  V30 6663 C 667.108 1.28221 0.970368 0
M  V30 6664 O 668.298 1.52131 0.848635 0
M  V30 6665 C 665.43 3.03029 1.5616 0
M  V30 6666 H 666.623 2.98888 -0.246131 0
M  V30 6667 H 664.176 1.5542 -0.165622 0
M  V30 6668 H 664.911 2.34205 2.24317 0
M  V30 6669 H 664.696 3.74606 1.15812 0
M  V30 6670 H 666.186 3.58857 2.13569 0
M  V30 6671 N 666.623 0.143563 1.56945 0
M  V30 6672 C 667.848 -0.518701 2.00809 0
M  V30 6673 C 668.273 -1.5785 1.02298 0
M  V30 6674 O 667.631 -1.813 -0.0017839 0
M  V30 6675 C 667.679 -1.09929 3.43436 0
M  V30 6676 O 666.783 -2.21425 3.47915 0
M  V30 6677 H 666.124 -0.127215 0.6517 0
M  V30 6678 H 668.654 0.239283 2.03196 0
M  V30 6679 H 668.664 -1.4288 3.82164 0
M  V30 6680 H 667.339 -0.323162 4.14643 0
M  V30 6681 H 665.916 -1.89728 3.21026 0
M  V30 6682 N 668.101 -1.57061 -0.130224 0
M  V30 6683 C 669.347 -1.8453 -0.841216 0
M  V30 6684 C 669.68 -0.727666 -1.80052 0
M  V30 6685 O 668.955 0.267419 -1.92653 0
M  V30 6686 C 669.238 -3.22553 -1.60099 0
M  V30 6687 C 669.091 -4.44901 -0.662048 0
M  V30 6688 C 670.41 -3.58003 -2.55973 0
M  V30 6689 H 667.529 -0.671215 -0.304366 0
M  V30 6690 H 670.171 -1.89705 -0.105821 0
M  V30 6691 H 668.321 -3.18272 -2.22789 0
M  V30 6692 H 669.993 -4.61278 -0.0448559 0
M  V30 6693 H 668.236 -4.33791 0.0272253 0
M  V30 6694 H 668.907 -5.3812 -1.23006 0
M  V30 6695 H 671.383 -3.63002 -2.03393 0
M  V30 6696 H 670.259 -4.55576 -3.06172 0
M  V30 6697 H 670.52 -2.84833 -3.38116 0
M  V30 6698 N 669.579 0.400081 -1.52437 0
M  V30 6699 C 670.807 1.16768 -1.70801 0
M  V30 6700 C 671.222 1.84036 -0.421462 0
M  V30 6701 O 670.579 1.72242 0.603228 0
M  V30 6702 C 670.63 2.22403 -2.8499 0
M  V30 6703 O 670.351 1.57879 -4.08663 0
M  V30 6704 C 671.852 3.11974 -3.1494 0
M  V30 6705 H 669.072 0.350533 -0.57216 0
M  V30 6706 H 671.616 0.469534 -1.99037 0
M  V30 6707 H 669.771 2.87871 -2.59247 0
M  V30 6708 H 670.185 2.27982 -4.7236 0
M  V30 6709 H 671.659 3.82148 -3.9833 0
M  V30 6710 H 672.136 3.74858 -2.28863 0
M  V30 6711 H 672.742 2.52165 -3.42481 0
M  V30 6712 N 671.057 1.43213 0.657864 0
M  V30 6713 C 671.967 1.50448 1.80007 0
M  V30 6714 C 672.983 0.39191 1.69529 0
M  V30 6715 O 674.159 0.645349 1.90781 0
M  V30 6716 C 671.224 1.42062 3.16258 0
M  V30 6717 C 670.285 2.63951 3.38568 0
M  V30 6718 C 669.518 2.55956 4.68318 0
M  V30 6719 O 669.741 1.60473 5.47361 0
M  V30 6720 O 668.675 3.46378 4.92245 0
M  V30 6721 H 672.501 2.4689 1.76858 0
M  V30 6722 H 670.086 1.25163 0.81576 0
M  V30 6723 H 671.968 1.3981 3.97531 0
M  V30 6724 H 670.643 0.487524 3.20008 0
M  V30 6725 H 669.55 2.71776 2.57077 0
M  V30 6726 H 670.883 3.56217 3.39662 0
M  V30 6727 N 672.536 -0.895792 1.29666 0
M  V30 6728 C 673.947 -1.46195 1.1612 0
M  V30 6729 C 674.298 -1.94699 -0.242195 0
M  V30 6730 O 673.423 -1.8406 -1.13802 0
M  V30 6731 C 674.018 -2.65718 2.10189 0
M  V30 6732 C 672.577 -3.18458 2.00653 0
M  V30 6733 C 671.724 -1.91149 2.00891 0
M  V30 6734 H 674.675 -0.706756 1.42094 0
M  V30 6735 H 674.696 -3.4158 1.6764 0
M  V30 6736 H 674.208 -2.30386 3.12321 0
M  V30 6737 H 672.309 -3.58474 1.01623 0
M  V30 6738 H 672.422 -3.82491 2.88509 0
M  V30 6739 H 670.786 -2.09021 1.45542 0
M  V30 6740 H 671.569 -1.58089 3.04734 0
M  V30 6741 N 674.014 -1.12206 -1.10668 0
M  V30 6742 C 675.26 -0.877172 -1.82848 0
M  V30 6743 C 675.593 0.595571 -1.84842 0
M  V30 6744 O 674.868 1.44013 -1.30731 0
M  V30 6745 C 675.151 -1.44957 -3.29635 0
M  V30 6746 C 675.004 -2.99051 -3.35989 0
M  V30 6747 C 676.323 -1.10714 -4.25946 0
M  V30 6748 H 673.442 -0.320103 -0.663854 0
M  V30 6749 H 676.084 -1.38827 -1.2972 0
M  V30 6750 H 674.234 -1.01488 -3.7501 0
M  V30 6751 H 675.906 -3.51182 -2.99113 0
M  V30 6752 H 674.149 -3.34705 -2.75962 0
M  V30 6753 H 674.82 -3.34194 -4.39339 0
M  V30 6754 H 677.296 -1.48254 -3.88793 0
M  V30 6755 H 676.172 -1.5343 -5.2702 0
M  V30 6756 H 676.433 -0.019 -4.42096 0
M  V30 6757 N 675.492 1.28418 -0.913599 0
M  V30 6758 C 676.455 2.25564 -0.406624 0
M  V30 6759 C 677.455 1.5387 0.466965 0
M  V30 6760 O 678.645 1.72094 0.270042 0
M  V30 6761 C 675.777 3.38339 0.417053 0
M  V30 6762 H 676.97 2.71926 -1.26477 0
M  V30 6763 H 674.523 1.40098 -0.692986 0
M  V30 6764 H 675.258 2.97339 1.29461 0
M  V30 6765 H 675.043 3.91542 -0.209102 0
M  V30 6766 H 676.533 4.10578 0.762602 0
M  V30 6767 N 676.97 0.677563 1.42291 0
M  V30 6768 C 677.88 0.000962654 2.346 0
M  V30 6769 C 678.896 -0.785833 1.55244 0
M  V30 6770 O 680.072 -0.727523 1.87801 0
M  V30 6771 C 677.137 -0.936746 3.33805 0
M  V30 6772 C 676.198 -0.144173 4.29058 0
M  V30 6773 C 675.431 -1.03722 5.23524 0
M  V30 6774 O 675.654 -2.27675 5.22992 0
M  V30 6775 O 674.588 -0.496542 5.99848 0
M  V30 6776 H 678.414 0.761397 2.94001 0
M  V30 6777 H 675.999 0.43781 1.42841 0
M  V30 6778 H 677.881 -1.47497 3.94744 0
M  V30 6779 H 676.556 -1.67698 2.76874 0
M  V30 6780 H 675.463 0.438224 3.71524 0
M  V30 6781 H 676.796 0.55701 4.89038 0
M  V30 6782 N 678.448 -1.51871 0.421078 0
M  V30 6783 C 679.358 -2.31077 -0.405069 0
M  V30 6784 C 680.374 -1.39301 -1.04265 0
M  V30 6785 O 681.55 -1.72376 -1.04157 0
M  V30 6786 C 678.615 -3.12556 -1.50032 0
M  V30 6787 C 677.676 -4.20088 -0.884559 0
M  V30 6788 C 676.909 -4.97673 -1.92762 0
M  V30 6789 O 677.132 -4.75696 -3.14753 0
M  V30 6790 O 676.066 -5.82203 -1.52719 0
M  V30 6791 H 679.892 -3.02742 0.241086 0
M  V30 6792 H 677.477 -1.48263 0.183991 0
M  V30 6793 H 679.359 -3.6326 -2.13589 0
M  V30 6794 H 678.034 -2.43672 -2.13086 0
M  V30 6795 H 676.941 -3.73502 -0.211379 0
M  V30 6796 H 678.274 -4.91298 -0.297763 0
M  V30 6797 N 679.926 -0.151884 -1.56866 0
M  V30 6798 C 681.342 0.204486 -1.58285 0
M  V30 6799 C 681.542 1.6431 -1.16639 0
M  V30 6800 O 680.598 2.37077 -0.868946 0
M  V30 6801 C 681.911 -0.0587019 -3.00643 0
M  V30 6802 C 683.459 0.00462303 -3.13 0
M  V30 6803 C 683.934 -0.231297 -4.57416 0
M  V30 6804 N 685.425 -0.178394 -4.62856 0
M  V30 6805 C 686.16 -0.335379 -5.72418 0
M  V30 6806 N 685.656 -0.550355 -6.90611 0
M  V30 6807 N 687.449 -0.272641 -5.61438 0
M  V30 6808 H 679.6 -1.09116 -1.82229 0
M  V30 6809 H 681.863 -0.432311 -0.843689 0
M  V30 6810 H 681.569 -1.05453 -3.35518 0
M  V30 6811 H 681.443 0.658508 -3.71407 0
M  V30 6812 H 683.83 0.991009 -2.77962 0
M  V30 6813 H 683.911 -0.744992 -2.44711 0
M  V30 6814 H 683.555 -1.2148 -4.93158 0
M  V30 6815 H 683.485 0.5387 -5.23837 0
M  V30 6816 H 685.976 -0.0170923 -3.77896 0
M  V30 6817 H 686.289 -0.660116 -7.69976 0
M  V30 6818 H 684.634 -0.586736 -6.92519 0
M  V30 6819 H 687.825 -0.105421 -4.67981 0
M  V30 6820 H 687.998 -0.398418 -6.46774 0
M  V30 6821 N 681.404 1.57128 0.121893 0
M  V30 6822 C 682.652 1.84335 0.828548 0
M  V30 6823 C 682.973 0.736632 1.80551 0
M  V30 6824 O 682.243 -0.23962 1.94429 0
M  V30 6825 H 680.823 0.680108 0.30897 0
M  V30 6826 H 683.485 1.9459 0.109906 0
M  V30 6827 H 682.581 2.80152 1.37554 0
M  V30 6828 N 682.882 -0.391992 1.52647 0
M  V30 6829 C 683.812 -1.48517 1.8018 0
M  V30 6830 C 684.793 -1.57039 0.653667 0
M  V30 6831 O 685.978 -1.72036 0.900962 0
M  V30 6832 C 683.108 -2.86161 1.96797 0
M  V30 6833 C 682.062 -2.92481 3.12472 0
M  V30 6834 C 681.388 -4.32546 3.14338 0
M  V30 6835 C 682.688 -2.624 4.51601 0
M  V30 6836 H 684.382 -1.25726 2.71723 0
M  V30 6837 H 681.928 -0.603387 1.30749 0
M  V30 6838 H 683.881 -3.62639 2.14641 0
M  V30 6839 H 682.605 -3.10283 1.01941 0
M  V30 6840 H 681.264 -2.18451 2.94406 0
M  V30 6841 H 680.912 -4.53703 2.1717 0
M  V30 6842 H 680.612 -4.37695 3.92042 0
M  V30 6843 H 682.136 -5.10934 3.34333 0
M  V30 6844 H 683.55 -3.28596 4.69785 0
M  V30 6845 H 681.947 -2.78903 5.3135 0
M  V30 6846 H 683.017 -1.57754 4.58521 0
M  V30 6847 N 684.36 -1.4356 -0.65026 0
M  V30 6848 C 685.293 -1.434 -1.77515 0
M  V30 6849 C 686.271 -0.295082 -1.599 0
M  V30 6850 O 687.455 -0.489128 -1.82043 0
M  V30 6851 C 684.582 -1.2484 -3.14853 0
M  V30 6852 C 683.628 -2.42046 -3.51163 0
M  V30 6853 S 684.461 -4.04595 -3.50803 0
M  V30 6854 C 685.617 -3.88424 -4.90793 0
M  V30 6855 H 685.85 -2.38586 -1.77381 0
M  V30 6856 H 683.383 -1.30627 -0.823169 0
M  V30 6857 H 685.341 -1.14819 -3.94115 0
M  V30 6858 H 684.002 -0.311977 -3.12547 0
M  V30 6859 H 683.195 -2.24873 -4.51052 0
M  V30 6860 H 682.797 -2.48708 -2.79321 0
M  V30 6861 H 685.089 -3.50932 -5.79528 0
M  V30 6862 H 686.032 -4.88076 -5.13018 0
M  V30 6863 H 686.44 -3.20829 -4.64467 0
M  V30 6864 N 685.838 0.888903 -1.30139 0
M  V30 6865 C 687.063 1.67884 -1.21777 0
M  V30 6866 C 687.488 1.86848 0.216689 0
M  V30 6867 O 686.846 1.39659 1.15608 0
M  V30 6868 C 686.894 3.03483 -1.94757 0
M  V30 6869 O 685.998 3.92294 -1.27198 0
M  V30 6870 H 685.339 0.513144 -0.421402 0
M  V30 6871 H 687.869 1.10968 -1.71893 0
M  V30 6872 H 687.879 3.53553 -2.03627 0
M  V30 6873 H 686.554 2.89 -2.99085 0
M  V30 6874 H 685.131 3.50732 -1.26655 0
M  V30 6875 N 687.317 1.12792 1.10072 0
M  V30 6876 C 688.249 0.757003 2.16338 0
M  V30 6877 C 689.262 -0.218144 1.61332 0
M  V30 6878 O 690.451 0.0010727 1.785 0
M  V30 6879 C 687.551 0.100303 3.38752 0
M  V30 6880 C 686.724 1.10586 4.2319 0
M  V30 6881 C 685.783 0.47609 5.24042 0
M  V30 6882 O 684.809 1.13418 5.57786 0
M  V30 6883 N 686.011 -0.754823 5.75572 0
M  V30 6884 H 688.776 1.6714 2.48766 0
M  V30 6885 H 686.337 1.02003 1.25726 0
M  V30 6886 H 688.329 -0.333092 4.03327 0
M  V30 6887 H 686.899 -0.716915 3.04268 0
M  V30 6888 H 686.119 1.71677 3.54853 0
M  V30 6889 H 687.407 1.78571 4.76435 0
M  V30 6890 H 686.805 -1.30838 5.50362 0
M  V30 6891 H 685.362 -1.13098 6.41913 0
M  V30 6892 N 688.795 -1.27931 0.920396 0
M  V30 6893 C 690.206 -1.76707 0.602616 0
M  V30 6894 C 690.557 -1.75249 -0.882159 0
M  V30 6895 O 689.682 -1.35135 -1.69019 0
M  V30 6896 C 690.277 -3.20884 1.08714 0
M  V30 6897 C 688.836 -3.67356 0.820157 0
M  V30 6898 C 687.983 -2.47525 1.25006 0
M  V30 6899 H 690.934 -1.14301 1.10095 0
M  V30 6900 H 690.955 -3.78045 0.431535 0
M  V30 6901 H 690.467 -3.21913 2.1678 0
M  V30 6902 H 688.568 -3.7178 -0.247012 0
M  V30 6903 H 688.681 -4.57181 1.43257 0
M  V30 6904 H 687.045 -2.45765 0.668698 0
M  V30 6905 H 687.828 -2.51269 2.3392 0
M  V30 6906 N 690.273 -0.685099 -1.4193 0
M  V30 6907 C 691.203 -0.0273506 -2.33484 0
M  V30 6908 C 692.184 0.778366 -1.51246 0
M  V30 6909 O 693.369 0.733449 -1.79817 0
M  V30 6910 C 690.499 0.917272 -3.34968 0
M  V30 6911 C 689.453 0.21941 -4.27437 0
M  V30 6912 C 688.779 1.27768 -5.1921 0
M  V30 6913 C 690.079 -0.907894 -5.14349 0
M  V30 6914 H 691.773 -0.791994 -2.88735 0
M  V30 6915 H 689.319 -0.382308 -1.38832 0
M  V30 6916 H 691.272 1.38657 -3.97935 0
M  V30 6917 H 689.996 1.71346 -2.78043 0
M  V30 6918 H 688.655 -0.229757 -3.65879 0
M  V30 6919 H 688.303 2.06612 -4.58607 0
M  V30 6920 H 688.003 0.815803 -5.81909 0
M  V30 6921 H 689.527 1.7477 -5.85054 0
M  V30 6922 H 690.941 -0.519348 -5.70943 0
M  V30 6923 H 689.338 -1.2962 -5.85934 0
M  V30 6924 H 690.408 -1.75218 -4.52136 0
M  V30 6925 N 691.751 1.51645 -0.429126 0
M  V30 6926 C 692.684 2.24083 0.431492 0
M  V30 6927 C 693.662 1.25691 1.03153 0
M  V30 6928 O 694.846 1.54802 1.07557 0
M  V30 6929 C 691.973 2.9849 1.60067 0
M  V30 6930 C 691.019 4.11474 1.12211 0
M  V30 6931 S 691.852 5.35453 0.0708449 0
M  V30 6932 C 693.008 6.13395 1.24488 0
M  V30 6933 H 693.241 2.96733 -0.183525 0
M  V30 6934 H 690.774 1.52916 -0.213574 0
M  V30 6935 H 692.732 3.4196 2.27099 0
M  V30 6936 H 691.393 2.25445 2.18708 0
M  V30 6937 H 690.586 4.62784 1.99618 0
M  V30 6938 H 690.188 3.70223 0.530149 0
M  V30 6939 H 692.48 6.41984 2.16479 0
M  V30 6940 H 693.423 7.0388 0.771921 0
M  V30 6941 H 693.831 5.44761 1.47973 0
M  V30 6942 N 693.229 0.160201 1.56784 0
M  V30 6943 C 694.139 -0.787167 2.21 0
M  V30 6944 C 695.155 -1.26167 1.19825 0
M  V30 6945 O 696.331 -1.31611 1.52448 0
M  V30 6946 C 693.396 -2.00364 2.8294 0
M  V30 6947 C 692.457 -1.5771 3.99282 0
M  V30 6948 C 691.69 -2.73558 4.58259 0
M  V30 6949 O 691.913 -3.90129 4.16119 0
M  V30 6950 O 690.847 -2.48271 5.48311 0
M  V30 6951 H 694.673 -0.270462 3.02493 0
M  V30 6952 H 692.258 -0.0674666 1.49248 0
M  V30 6953 H 694.14 -2.71529 3.22257 0
M  V30 6954 H 692.815 -2.50961 2.04451 0
M  V30 6955 H 691.722 -0.835274 3.64656 0
M  V30 6956 H 693.055 -1.11815 4.79331 0
M  V30 6957 N 694.707 -1.5719 -0.113559 0
M  V30 6958 C 695.935 -1.89328 -0.834422 0
M  V30 6959 C 696.35 -0.752018 -1.73177 0
M  V30 6960 O 695.707 0.276912 -1.80387 0
M  V30 6961 C 695.758 -3.20962 -1.66329 0
M  V30 6962 O 695.479 -4.30695 -0.802069 0
M  V30 6963 C 696.98 -3.6684 -2.48884 0
M  V30 6964 H 694.2 -0.626769 -0.239587 0
M  V30 6965 H 696.744 -2.04273 -0.0963195 0
M  V30 6966 H 694.899 -3.0767 -2.35409 0
M  V30 6967 H 695.313 -5.06175 -1.37431 0
M  V30 6968 H 696.787 -4.61692 -3.02563 0
M  V30 6969 H 697.264 -2.93765 -3.26495 0
M  V30 6970 H 697.87 -3.82938 -1.85036 0
M  V30 6971 N 696.185 0.383891 -1.52853 0
M  V30 6972 C 697.425 1.13731 -1.69837 0
M  V30 6973 C 697.789 1.87086 -0.431611 0
M  V30 6974 O 698.99 2.64518 -0.477886 0
M  V30 6975 C 697.261 2.08551 -2.90243 0
M  V30 6976 S 698.82 2.9166 -3.27841 0
M  V30 6977 H 695.638 0.384911 -0.5978 0
M  V30 6978 H 698.24 0.42103 -1.90913 0
M  V30 6979 H 696.944 1.53392 -3.80656 0
M  V30 6980 H 696.475 2.8468 -2.71516 0
M  V30 6981 H 698.49 4.10723 -2.78426 0
M  V30 6982 N 697.663 1.43903 0.642637 0
M  V30 6983 C 698.613 1.46321 1.74854 0
M  V30 6984 C 699.597 0.330361 1.57472 0
M  V30 6985 O 700.789 0.574881 1.67404 0
M  V30 6986 C 697.918 1.39919 3.13493 0
M  V30 6987 C 697.004 2.58274 3.36385 0
M  V30 6988 N 697.395 3.83578 3.29699 0
M  V30 6989 C 695.693 2.53224 3.67142 0
M  V30 6990 C 696.394 4.62375 3.52965 0
M  V30 6991 N 695.37 3.93269 3.75287 0
M  V30 6992 H 699.172 2.41062 1.68126 0
M  V30 6993 H 696.686 1.38704 0.844693 0
M  V30 6994 H 698.683 1.39735 3.92785 0
M  V30 6995 H 697.343 0.46207 3.21395 0
M  V30 6996 H 698.354 4.15713 3.08874 0
M  V30 6997 H 695.031 1.68252 3.82096 0
M  V30 6998 H 696.421 5.714 3.53485 0
M  V30 6999 N 699.141 -0.881989 1.30609 0
M  V30 7000 C 700.366 -1.67236 1.22665 0
M  V30 7001 C 700.791 -1.8696 -0.206777 0
M  V30 7002 O 700.149 -1.4027 -1.14865 0
M  V30 7003 C 700.197 -3.02446 1.96363 0
M  V30 7004 O 699.301 -3.91614 1.29276 0
M  V30 7005 H 698.642 -0.510902 0.424117 0
M  V30 7006 H 701.172 -1.10055 1.72479 0
M  V30 7007 H 701.182 -3.52468 2.055 0
M  V30 7008 H 699.857 -2.8741 3.00613 0
M  V30 7009 H 698.434 -3.50055 1.28514 0
M  V30 7010 N 700.619 -1.13374 -1.09472 0
M  V30 7011 C 701.865 -0.896516 -1.81908 0
M  V30 7012 C 702.198 0.575933 -1.85463 0
M  V30 7013 O 701.473 1.42618 -1.32251 0
M  V30 7014 C 701.756 -1.48445 -3.28079 0
M  V30 7015 C 701.609 -3.02598 -3.32798 0
M  V30 7016 C 702.928 -1.15226 -4.24748 0
M  V30 7017 H 700.047 -0.327127 -0.660422 0
M  V30 7018 H 702.689 -1.40195 -1.2824 0
M  V30 7019 H 700.839 -1.0546 -3.73912 0
M  V30 7020 H 702.511 -3.54335 -2.95372 0
M  V30 7021 H 700.754 -3.37613 -2.72397 0
M  V30 7022 H 701.425 -3.38835 -4.3577 0
M  V30 7023 H 703.901 -1.52369 -3.87199 0
M  V30 7024 H 702.777 -1.59012 -5.25363 0
M  V30 7025 H 703.038 -0.0658891 -4.42051 0
M  V30 7026 N 702.098 1.27442 -0.927168 0
M  V30 7027 C 703.346 1.94007 -0.566203 0
M  V30 7028 C 703.667 1.7323 0.895345 0
M  V30 7029 O 702.937 1.07973 1.63459 0
M  V30 7030 H 701.517 0.717917 -0.206409 0
M  V30 7031 H 704.179 1.55161 -1.17945 0
M  V30 7032 H 703.275 3.02401 -0.772028 0
M  V30 7033 N 703.576 0.692616 1.41565 0
M  V30 7034 C 704.539 0.0344174 2.29174 0
M  V30 7035 C 705.539 -0.710961 1.44229 0
M  V30 7036 O 706.729 -0.546293 1.65412 0
M  V30 7037 C 703.861 -0.961682 3.27054 0
M  V30 7038 H 705.054 0.805755 2.88873 0
M  V30 7039 H 702.607 0.455947 1.49502 0
M  V30 7040 H 703.342 -1.76089 2.72329 0
M  V30 7041 H 703.127 -0.430375 3.89731 0
M  V30 7042 H 704.617 -1.4201 3.92712 0
M  V30 7043 N 705.054 -1.51416 0.437162 0
M  V30 7044 C 706.017 -2.26312 -0.362729 0
M  V30 7045 C 707.017 -1.29748 -0.949847 0
M  V30 7046 O 708.207 -1.53462 -0.824325 0
M  V30 7047 C 705.339 -3.05475 -1.5132 0
M  V30 7048 H 706.532 -2.98459 0.29365 0
M  V30 7049 H 704.085 -1.55137 0.190327 0
M  V30 7050 H 704.82 -2.37744 -2.20563 0
M  V30 7051 H 704.605 -3.76401 -1.09838 0
M  V30 7052 H 706.095 -3.62209 -2.07833 0
M  V30 7053 N 706.532 -0.168513 -1.56696 0
M  V30 7054 C 707.762 0.482802 -2.0088 0
M  V30 7055 C 708.17 1.57537 -1.0478 0
M  V30 7056 O 707.513 1.83656 -0.0402746 0
M  V30 7057 C 707.575 1.1236 -3.4149 0
M  V30 7058 C 707.239 0.173027 -4.56672 0
M  V30 7059 C 708.236 -0.607565 -5.16338 0
M  V30 7060 C 705.921 0.0696691 -5.02252 0
M  V30 7061 C 707.915 -1.47874 -6.2001 0
M  V30 7062 C 705.602 -0.805096 -6.05773 0
M  V30 7063 C 706.6 -1.57789 -6.64524 0
M  V30 7064 O 706.288 -2.43804 -7.66038 0
M  V30 7065 H 706.02 0.128246 -0.663723 0
M  V30 7066 H 708.574 -0.266532 -2.03663 0
M  V30 7067 H 706.804 1.921 -3.35611 0
M  V30 7068 H 708.493 1.67683 -3.69645 0
M  V30 7069 H 709.259 -0.53787 -4.82008 0
M  V30 7070 H 705.138 0.660957 -4.56237 0
M  V30 7071 H 708.682 -2.0824 -6.65794 0
M  V30 7072 H 704.579 -0.876005 -6.39528 0
M  V30 7073 H 705.347 -2.37289 -7.83349 0
M  V30 7074 N 708.01 1.57248 0.105221 0
M  V30 7075 C 708.94 2.04374 1.12931 0
M  V30 7076 C 709.921 0.93074 1.42377 0
M  V30 7077 O 711.106 1.20136 1.52581 0
M  V30 7078 C 708.236 2.45967 2.45189 0
M  V30 7079 C 707.19 3.60838 2.30174 0
M  V30 7080 C 706.516 3.88374 3.67518 0
M  V30 7081 C 707.816 4.92084 1.75073 0
M  V30 7082 H 709.51 2.9018 0.737287 0
M  V30 7083 H 707.056 1.39601 0.353211 0
M  V30 7084 H 709.009 2.77542 3.17094 0
M  V30 7085 H 707.733 1.57148 2.86308 0
M  V30 7086 H 706.392 3.29493 1.60716 0
M  V30 7087 H 706.04 2.96739 4.06147 0
M  V30 7088 H 705.74 4.65703 3.58321 0
M  V30 7089 H 707.264 4.22415 4.40906 0
M  V30 7090 H 708.678 5.22106 2.36809 0
M  V30 7091 H 707.075 5.73507 1.76662 0
M  V30 7092 H 708.145 4.79684 0.709347 0
M  V30 7093 N 709.488 -0.375779 1.53054 0
M  V30 7094 C 710.398 -1.48381 1.81715 0
M  V30 7095 C 711.414 -1.59087 0.704795 0
M  V30 7096 O 712.59 -1.75174 0.993785 0
M  V30 7097 C 709.655 -2.83767 1.99192 0
M  V30 7098 C 708.716 -2.82673 3.23102 0
M  V30 7099 C 707.949 -4.11601 3.39736 0
M  V30 7100 O 708.172 -5.07243 2.60885 0
M  V30 7101 O 707.106 -4.18034 4.33049 0
M  V30 7102 H 710.932 -1.27089 2.7583 0
M  V30 7103 H 708.517 -0.564902 1.38308 0
M  V30 7104 H 710.399 -3.64004 2.12318 0
M  V30 7105 H 709.074 -3.05057 1.08267 0
M  V30 7106 H 707.981 -2.0117 3.15407 0
M  V30 7107 H 709.314 -2.66335 4.13916 0
M  V30 7108 N 710.966 -1.44241 -0.634997 0
M  V30 7109 C 712.191 -1.50516 -1.42687 0
M  V30 7110 C 712.616 -0.129864 -1.87651 0
M  V30 7111 O 711.974 0.880164 -1.58502 0
M  V30 7112 C 712.022 -2.4714 -2.62591 0
M  V30 7113 O 711.126 -1.97025 -3.62291 0
M  V30 7114 H 710.467 -0.50841 -0.427101 0
M  V30 7115 H 712.997 -1.89337 -0.775408 0
M  V30 7116 H 713.007 -2.65048 -3.10183 0
M  V30 7117 H 711.682 -3.47039 -2.29209 0
M  V30 7118 H 710.259 -1.88866 -3.21534 0
M  V30 7119 N 712.444 0.87505 -1.31075 0
M  V30 7120 C 713.374 1.99775 -1.20881 0
M  V30 7121 C 714.355 1.69822 -0.0971612 0
M  V30 7122 O 715.54 1.92158 -0.280895 0
M  V30 7123 C 712.67 3.35163 -0.910118 0
M  V30 7124 C 711.624 3.79406 -1.98078 0
M  V30 7125 C 710.95 5.12197 -1.53488 0
M  V30 7126 C 712.25 3.97061 -3.39323 0
M  V30 7127 H 713.944 2.08562 -2.14808 0
M  V30 7128 H 711.49 1.00207 -1.03415 0
M  V30 7129 H 713.443 4.13237 -0.825423 0
M  V30 7130 H 712.167 3.26536 0.064822 0
M  V30 7131 H 710.826 3.03568 -2.05528 0
M  V30 7132 H 710.474 5.00007 -0.547941 0
M  V30 7133 H 710.174 5.4277 -2.2511 0
M  V30 7134 H 711.698 5.92785 -1.46417 0
M  V30 7135 H 713.112 4.65545 -3.34576 0
M  V30 7136 H 711.509 4.39025 -4.09118 0
M  V30 7137 H 712.579 3.00601 -3.80483 0
M  V30 7138 N 713.922 1.13953 1.08869 0
M  V30 7139 C 715.333 0.916649 1.62648 0
M  V30 7140 C 715.684 -0.545589 1.88462 0
M  V30 7141 O 714.809 -1.41351 1.63856 0
M  V30 7142 C 715.404 1.65751 2.95486 0
M  V30 7143 C 713.963 1.48034 3.46068 0
M  V30 7144 C 713.11 1.68305 2.20383 0
M  V30 7145 H 716.061 1.292 0.921572 0
M  V30 7146 H 716.082 1.11794 3.63707 0
M  V30 7147 H 715.594 2.72171 2.76667 0
M  V30 7148 H 713.695 0.439416 3.7 0
M  V30 7149 H 713.808 2.24719 4.23129 0
M  V30 7150 H 712.172 1.10833 2.29321 0
M  V30 7151 H 712.955 2.76057 2.04077 0
M  V30 7152 N 715.4 -1.26948 0.933913 0
M  V30 7153 C 716.33 -2.29017 0.45534 0
M  V30 7154 C 717.311 -1.62961 -0.487605 0
M  V30 7155 O 718.496 -1.90223 -0.391022 0
M  V30 7156 C 715.626 -3.46112 -0.287015 0
M  V30 7157 C 714.58 -4.24205 0.568682 0
M  V30 7158 C 713.906 -5.3384 -0.303206 0
M  V30 7159 C 715.206 -4.88954 1.83633 0
M  V30 7160 H 716.9 -2.69298 1.30839 0
M  V30 7161 H 714.446 -1.29459 0.630579 0
M  V30 7162 H 716.399 -4.16622 -0.6328 0
M  V30 7163 H 715.123 -3.04765 -1.17414 0
M  V30 7164 H 713.782 -3.5545 0.897261 0
M  V30 7165 H 713.43 -4.88734 -1.18947 0
M  V30 7166 H 713.13 -5.86998 0.265879 0
M  V30 7167 H 714.654 -6.0719 -0.644423 0
M  V30 7168 H 716.068 -5.51717 1.55823 0
M  V30 7169 H 714.465 -5.52198 2.34941 0
M  V30 7170 H 715.535 -4.12305 2.55211 0
M  V30 7171 N 716.879 -0.700114 -1.41195 0
M  V30 7172 C 717.811 0.00155823 -2.292 0
M  V30 7173 C 718.824 0.739736 -1.45023 0
M  V30 7174 O 720.013 0.589684 -1.68478 0
M  V30 7175 C 717.113 1.02635 -3.22985 0
M  V30 7176 C 716.286 0.356871 -4.35942 0
M  V30 7177 C 715.345 1.28491 -5.10271 0
M  V30 7178 O 714.371 0.775562 -5.63892 0
M  V30 7179 N 715.573 2.61699 -5.18164 0
M  V30 7180 H 718.338 -0.754008 -2.9006 0
M  V30 7181 H 715.899 -0.546504 -1.52397 0
M  V30 7182 H 717.891 1.64902 -3.6958 0
M  V30 7183 H 716.461 1.68341 -2.63401 0
M  V30 7184 H 715.681 -0.445753 -3.91672 0
M  V30 7185 H 716.969 -0.108469 -5.08684 0
M  V30 7186 H 716.367 3.05594 -4.76056 0
M  V30 7187 H 714.924 3.19149 -5.6832 0
M  V30 7188 N 718.357 1.51182 -0.445186 0
M  V30 7189 C 719.634 1.9478 0.178965 0
M  V30 7190 C 720.014 1.38428 1.59376 0
M  V30 7191 O 719.362 0.574552 2.21159 0
M  V30 7192 C 719.572 3.48683 0.148711 0
M  V30 7193 C 720.92 4.23152 0.35042 0
M  V30 7194 O 721.944 3.55479 0.226474 0
M  V30 7195 O 720.803 5.4322 0.597893 0
M  V30 7196 H 717.897 0.817387 0.12573 0
M  V30 7197 H 720.443 1.62051 -0.503729 0
M  V30 7198 H 719.215 3.82176 -0.84009 0
M  V30 7199 H 718.838 3.87875 0.873979 0
M  V30 7200 N 719.835 0.176821 1.56605 0
M  V30 7201 C 720.798 -0.737429 2.17013 0
M  V30 7202 C 721.798 -1.15414 1.11965 0
M  V30 7203 O 722.988 -1.0702 1.37449 0
M  V30 7204 C 720.12 -2.00445 2.75744 0
M  V30 7205 H 721.313 -0.211455 2.99154 0
M  V30 7206 H 718.866 -0.0727582 1.56131 0
M  V30 7207 H 719.601 -2.57338 1.97352 0
M  V30 7208 H 719.386 -1.71456 3.52626 0
M  V30 7209 H 720.876 -2.65679 3.22187 0
M  V30 7210 N 721.313 -1.57302 -0.09688 0
M  V30 7211 C 722.538 -1.9058 -0.818169 0
M  V30 7212 C 722.963 -0.770921 -1.71576 0
M  V30 7213 O 722.321 0.277588 -1.79162 0
M  V30 7214 C 722.369 -3.22714 -1.60898 0
M  V30 7215 O 721.473 -3.10178 -2.71779 0
M  V30 7216 H 720.814 -0.624759 -0.224882 0
M  V30 7217 H 723.344 -2.04471 -0.07264 0
M  V30 7218 H 723.354 -3.55978 -1.99358 0
M  V30 7219 H 722.029 -4.04899 -0.950227 0
M  V30 7220 H 720.606 -2.88424 -2.3636 0
M  V30 7221 N 722.791 0.367657 -1.53252 0
M  V30 7222 C 724.202 0.944563 -1.61043 0
M  V30 7223 C 724.553 1.90325 -0.476546 0
M  V30 7224 O 723.678 2.12721 0.397333 0
M  V30 7225 C 724.273 1.71992 -2.91898 0
M  V30 7226 C 722.832 2.2462 -3.02031 0
M  V30 7227 C 721.979 1.05799 -2.56324 0
M  V30 7228 H 724.93 0.146516 -1.58022 0
M  V30 7229 H 724.951 2.58095 -2.79584 0
M  V30 7230 H 724.463 1.02192 -3.74404 0
M  V30 7231 H 722.564 2.97668 -2.24108 0
M  V30 7232 H 722.677 2.52644 -4.07073 0
M  V30 7233 H 721.041 1.42435 -2.1115 0
M  V30 7234 H 721.824 0.375008 -3.41246 0
M  V30 7235 N 724.269 1.44576 0.627338 0
M  V30 7236 C 725.232 1.51372 1.72102 0
M  V30 7237 C 726.232 0.395329 1.55865 0
M  V30 7238 O 727.422 0.658094 1.61291 0
M  V30 7239 C 724.554 1.39129 3.11217 0
M  V30 7240 H 725.747 2.48798 1.6745 0
M  V30 7241 H 723.3 1.31724 0.841336 0
M  V30 7242 H 724.035 0.428114 3.21462 0
M  V30 7243 H 723.82 2.20229 3.24409 0
M  V30 7244 H 725.31 1.46874 3.90919 0
M  V30 7245 N 725.747 -0.868086 1.31537 0
M  V30 7246 C 726.995 -1.61807 1.21091 0
M  V30 7247 C 727.316 -1.93631 -0.230623 0
M  V30 7248 O 726.586 -1.5846 -1.15183 0
M  V30 7249 H 725.166 -0.599854 0.445178 0
M  V30 7250 H 727.828 -1.03915 1.64887 0
M  V30 7251 H 726.924 -2.56088 1.78396 0
M  V30 7252 N 727.225 -1.14528 -1.08264 0
M  V30 7253 C 728.473 -0.912599 -1.80322 0
M  V30 7254 C 728.794 0.562256 -1.86718 0
M  V30 7255 O 728.064 1.40869 -1.36135 0
M  V30 7256 H 726.644 -0.334645 -0.667849 0
M  V30 7257 H 729.306 -1.44415 -1.30883 0
M  V30 7258 H 728.402 -1.31384 -2.83098 0
M  V30 7259 N 728.703 1.26451 -0.940633 0
M  V30 7260 C 730.114 1.75726 -0.630653 0
M  V30 7261 C 730.465 1.76631 0.854167 0
M  V30 7262 O 729.59 1.37807 1.66848 0
M  V30 7263 C 730.185 3.19114 -1.13805 0
M  V30 7264 C 728.744 3.66005 -0.878497 0
M  V30 7265 C 727.891 2.45505 -1.28928 0
M  V30 7266 H 730.842 1.12535 -1.119 0
M  V30 7267 H 730.863 3.77311 -0.491625 0
M  V30 7268 H 730.375 3.18424 -2.21874 0
M  V30 7269 H 728.476 3.72126 0.187833 0
M  V30 7270 H 728.589 4.54844 -1.50512 0
M  V30 7271 H 726.953 2.4467 -0.707713 0
M  V30 7272 H 727.736 2.47516 -2.37888 0
M  V30 7273 N 730.181 0.707592 1.40822 0
M  V30 7274 C 731.406 0.251626 2.05868 0
M  V30 7275 C 731.831 -1.09503 1.5294 0
M  V30 7276 O 731.189 -1.68806 0.661385 0
M  V30 7277 C 731.237 0.23287 3.59847 0
M  V30 7278 O 730.341 -0.788477 4.04792 0
M  V30 7279 H 729.682 0.119936 0.653078 0
M  V30 7280 H 732.212 0.96583 1.80369 0
M  V30 7281 H 732.222 0.0678204 4.07944 0
M  V30 7282 H 730.897 1.21565 3.97737 0
M  V30 7283 H 729.474 -0.591802 3.68174 0
M  V30 7284 N 731.66 -1.50943 0.453197 0
M  V30 7285 C 732.885 -2.07116 -0.108463 0
M  V30 7286 C 733.31 -1.31681 -1.3432 0
M  V30 7287 O 732.668 -0.359256 -1.77705 0
M  V30 7288 C 732.716 -3.58447 -0.393424 0
M  V30 7289 O 731.82 -3.85038 -1.47714 0
M  V30 7290 H 731.161 -0.66398 0.0050993 0
M  V30 7291 H 733.691 -1.94362 0.639095 0
M  V30 7292 H 733.701 -4.02961 -0.639222 0
M  V30 7293 H 732.376 -4.12774 0.508946 0
M  V30 7294 H 730.953 -3.52376 -1.22006 0
M  V30 7295 N 733.138 -0.185124 -1.56509 0
M  V30 7296 C 734.549 0.329221 -1.83774 0
M  V30 7297 C 734.9 1.62093 -1.10545 0
M  V30 7298 O 734.025 2.13334 -0.36298 0
M  V30 7299 C 734.62 0.604099 -3.33371 0
M  V30 7300 C 733.179 1.06284 -3.61083 0
M  V30 7301 C 732.326 0.10608 -2.77097 0
M  V30 7302 H 735.277 -0.409116 -1.53336 0
M  V30 7303 H 735.298 1.45458 -3.51599 0
M  V30 7304 H 734.81 -0.336201 -3.86641 0
M  V30 7305 H 732.911 2.01777 -3.13236 0
M  V30 7306 H 733.024 0.962453 -4.69333 0
M  V30 7307 H 731.388 0.606082 -2.47384 0
M  V30 7308 H 732.171 -0.828486 -3.33153 0
M  V30 7309 N 734.616 1.57351 0.0885366 0
M  V30 7310 C 736.032 1.53331 0.442916 0
M  V30 7311 C 736.232 0.902831 1.80142 0
M  V30 7312 O 735.288 0.498147 2.47537 0
M  V30 7313 C 736.601 2.98036 0.399372 0
M  V30 7314 C 738.149 3.09286 0.480759 0
M  V30 7315 C 738.624 4.5561 0.467296 0
M  V30 7316 N 740.115 4.60182 0.52786 0
M  V30 7317 C 740.85 5.70857 0.539388 0
M  V30 7318 N 740.346 6.90944 0.506729 0
M  V30 7319 N 742.139 5.59051 0.584691 0
M  V30 7320 H 734.29 1.96709 -0.801215 0
M  V30 7321 H 736.553 0.899639 -0.298922 0
M  V30 7322 H 736.259 3.47656 -0.531806 0
M  V30 7323 H 736.133 3.57066 1.21589 0
M  V30 7324 H 738.52 2.5965 1.40236 0
M  V30 7325 H 738.601 2.53197 -0.364023 0
M  V30 7326 H 738.245 5.05899 -0.450384 0
M  V30 7327 H 738.175 5.09544 1.32938 0
M  V30 7328 H 740.666 3.73757 0.558028 0
M  V30 7329 H 740.979 7.71055 0.518989 0
M  V30 7330 H 739.324 6.93384 0.473675 0
M  V30 7331 H 742.515 4.64138 0.607781 0
M  V30 7332 H 742.688 6.45307 0.590206 0
M  V30 7333 N 736.094 -0.359525 1.53444 0
M  V30 7334 C 737.371 -1.11756 1.6053 0
M  V30 7335 C 737.751 -2.06949 0.416587 0
M  V30 7336 O 737.099 -2.20681 -0.592628 0
M  V30 7337 C 737.309 -1.85133 2.95849 0
M  V30 7338 C 738.657 -2.3945 3.50641 0
M  V30 7339 O 739.681 -1.95251 2.97918 0
M  V30 7340 O 738.54 -3.20266 4.42823 0
M  V30 7341 H 735.634 -0.513005 0.648656 0
M  V30 7342 H 738.18 -0.362301 1.65787 0
M  V30 7343 H 736.952 -1.15694 3.73806 0
M  V30 7344 H 736.575 -2.67554 2.9411 0
M  V30 7345 N 737.572 -1.44907 -0.619662 0
M  V30 7346 C 738.502 -1.55488 -1.742 0
M  V30 7347 C 739.483 -0.407143 -1.65156 0
M  V30 7348 O 740.668 -0.628743 -1.8374 0
M  V30 7349 C 737.798 -1.5097 -3.1277 0
M  V30 7350 C 736.752 -2.64337 -3.36615 0
M  V30 7351 C 736.078 -2.44872 -4.75333 0
M  V30 7352 C 737.378 -4.06423 -3.28051 0
M  V30 7353 H 739.072 -2.49432 -1.65602 0
M  V30 7354 H 736.618 -1.20047 -0.795281 0
M  V30 7355 H 738.571 -1.56971 -3.91073 0
M  V30 7356 H 737.295 -0.535486 -3.2218 0
M  V30 7357 H 735.954 -2.57744 -2.60698 0
M  V30 7358 H 735.602 -1.45617 -4.81461 0
M  V30 7359 H 735.302 -3.20888 -4.92244 0
M  V30 7360 H 736.826 -2.52709 -5.55851 0
M  V30 7361 H 738.24 -4.14324 -3.96243 0
M  V30 7362 H 736.637 -4.82733 -3.56495 0
M  V30 7363 H 737.707 -4.29183 -2.25676 0
M  V30 7364 N 739.05 0.861098 -1.31996 0
M  V30 7365 C 740.461 1.43065 -1.19955 0
M  V30 7366 C 740.812 1.95273 0.190489 0
M  V30 7367 O 739.937 1.87012 1.08882 0
M  V30 7368 C 740.532 2.60052 -2.1716 0
M  V30 7369 C 739.091 3.13026 -2.09026 0
M  V30 7370 C 738.238 1.85756 -2.05888 0
M  V30 7371 H 741.189 0.668834 -1.43918 0
M  V30 7372 H 741.21 3.37016 -1.76637 0
M  V30 7373 H 740.722 2.22024 -3.18319 0
M  V30 7374 H 738.823 3.55653 -1.11092 0
M  V30 7375 H 738.936 3.74707 -2.98549 0
M  V30 7376 H 737.3 2.05088 -1.51033 0
M  V30 7377 H 738.083 1.49954 -3.08818 0
M  V30 7378 N 740.528 1.15101 1.07655 0
M  V30 7379 C 741.438 0.858869 2.18313 0
M  V30 7380 C 742.454 -0.163641 1.73229 0
M  V30 7381 O 743.63 0.00969541 2.01398 0
M  V30 7382 C 740.695 0.34893 3.4494 0
M  V30 7383 C 739.756 1.43495 4.04608 0
M  V30 7384 C 738.989 0.949253 5.2519 0
M  V30 7385 O 739.212 -0.20636 5.70027 0
M  V30 7386 O 738.146 1.73161 5.76454 0
M  V30 7387 H 741.972 1.78386 2.45788 0
M  V30 7388 H 739.557 0.929876 1.16934 0
M  V30 7389 H 741.439 0.070851 4.2134 0
M  V30 7390 H 740.114 -0.548237 3.19024 0
M  V30 7391 H 739.021 1.7666 3.29761 0
M  V30 7392 H 740.354 2.30692 4.3479 0
M  V30 7393 N 742.006 -1.2595 0.947325 0
M  V30 7394 C 743.417 -1.75389 0.639963 0
M  V30 7395 C 743.768 -1.77081 -0.844788 0
M  V30 7396 O 742.893 -1.3869 -1.66114 0
M  V30 7397 C 743.488 -3.18506 1.15496 0
M  V30 7398 C 742.047 -3.65534 0.897894 0
M  V30 7399 C 741.194 -2.44818 1.30228 0
M  V30 7400 H 744.145 -1.1194 1.12495 0
M  V30 7401 H 744.166 -3.77045 0.511627 0
M  V30 7402 H 743.678 -3.17243 2.23559 0
M  V30 7403 H 741.779 -3.72221 -0.168096 0
M  V30 7404 H 741.892 -4.54039 1.52922 0
M  V30 7405 H 740.256 -2.44291 0.720678 0
M  V30 7406 H 741.039 -2.46251 2.39198 0
M  V30 7407 N 743.484 -0.715051 -1.40445 0
M  V30 7408 C 744.9 -0.388555 -1.54798 0
M  V30 7409 C 745.1 1.10271 -1.68649 0
M  V30 7410 O 744.156 1.88875 -1.67578 0
M  V30 7411 C 745.469 -1.15414 -2.77669 0
M  V30 7412 C 747.017 -1.14039 -2.91486 0
M  V30 7413 C 747.492 -1.88812 -4.1727 0
M  V30 7414 N 748.983 -1.85878 -4.24268 0
M  V30 7415 C 749.718 -2.40558 -5.20499 0
M  V30 7416 N 749.214 -3.03791 -6.22642 0
M  V30 7417 N 751.007 -2.30703 -5.12574 0
M  V30 7418 H 743.158 -1.68201 -1.297 0
M  V30 7419 H 745.421 -0.710915 -0.627139 0
M  V30 7420 H 745.127 -2.20853 -2.7371 0
M  V30 7421 H 745.001 -0.745412 -3.69761 0
M  V30 7422 H 747.388 -0.0941996 -2.9495 0
M  V30 7423 H 747.469 -1.58834 -2.00513 0
M  V30 7424 H 747.113 -2.93422 -4.14568 0
M  V30 7425 H 747.043 -1.41438 -5.0725 0
M  V30 7426 H 749.534 -1.39794 -3.51093 0
M  V30 7427 H 749.847 -3.43032 -6.92495 0
M  V30 7428 H 748.192 -3.07875 -6.23087 0
M  V30 7429 H 751.383 -1.80961 -4.31707 0
M  V30 7430 H 751.556 -2.73618 -5.87398 0
M  V30 7431 N 744.962 1.50701 -0.461195 0
M  V30 7432 C 746.208 2.02566 0.0973411 0
M  V30 7433 C 746.541 1.3432 1.40257 0
M  V30 7434 O 745.816 0.465692 1.88843 0
M  V30 7435 C 746.099 3.58919 0.291423 0
M  V30 7436 C 745.952 4.37751 -1.03413 0
M  V30 7437 C 747.271 4.27379 1.05048 0
M  V30 7438 H 744.39 0.73622 0.0339026 0
M  V30 7439 H 747.032 1.80115 -0.604855 0
M  V30 7440 H 745.182 3.78179 0.889539 0
M  V30 7441 H 746.854 4.30085 -1.66806 0
M  V30 7442 H 745.097 4.01885 -1.63313 0
M  V30 7443 H 745.768 5.45384 -0.852085 0
M  V30 7444 H 748.244 4.12534 0.543603 0
M  V30 7445 H 747.12 5.36609 1.15506 0
M  V30 7446 H 747.381 3.89868 2.0846 0
M  V30 7447 N 746.441 0.193421 1.56409 0
M  V30 7448 C 747.666 -0.454552 2.02358 0
M  V30 7449 C 748.091 -1.54516 1.07268 0
M  V30 7450 O 747.449 -1.81214 0.0558962 0
M  V30 7451 C 747.497 -0.989469 3.46759 0
M  V30 7452 O 746.601 -2.10244 3.54783 0
M  V30 7453 H 745.942 -0.106417 0.655417 0
M  V30 7454 H 748.472 0.303807 2.02332 0
M  V30 7455 H 748.482 -1.30649 3.86516 0
M  V30 7456 H 747.157 -0.191083 4.15461 0
M  V30 7457 H 745.734 -1.79419 3.26899 0
M  V30 7458 N 747.919 -1.57396 -0.0801906 0
M  V30 7459 C 749.147 -1.91055 -0.794075 0
M  V30 7460 C 749.562 -0.788583 -1.71542 0
M  V30 7461 O 748.919 0.238587 -1.80934 0
M  V30 7462 C 748.97 -3.24418 -1.59484 0
M  V30 7463 O 748.691 -4.323 -0.710532 0
M  V30 7464 C 750.192 -3.72037 -2.41046 0
M  V30 7465 H 747.412 -0.63171 -0.226238 0
M  V30 7466 H 749.956 -2.04431 -0.0529685 0
M  V30 7467 H 748.111 -3.12595 -2.2883 0
M  V30 7468 H 748.525 -5.08976 -1.26663 0
M  V30 7469 H 749.999 -4.68006 -2.92702 0
M  V30 7470 H 750.476 -3.00624 -3.2019 0
M  V30 7471 H 751.082 -3.86777 -1.76871 0
M  V30 7472 N 749.397 0.351382 -1.53633 0
M  V30 7473 C 750.307 1.45471 -1.84052 0
M  V30 7474 C 751.323 1.57945 -0.730015 0
M  V30 7475 O 752.499 1.73571 -1.02153 0
M  V30 7476 C 749.564 2.80562 -2.03681 0
M  V30 7477 C 748.625 2.77497 -3.27558 0
M  V30 7478 C 747.858 4.06144 -3.46241 0
M  V30 7479 O 748.081 5.03028 -2.68922 0
M  V30 7480 O 747.015 4.11092 -4.39645 0
M  V30 7481 H 750.841 1.22684 -2.77817 0
M  V30 7482 H 748.426 0.542827 -1.3919 0
M  V30 7483 H 750.308 3.6058 -2.18082 0
M  V30 7484 H 748.983 3.03296 -1.13106 0
M  V30 7485 H 747.89 1.96126 -3.18568 0
M  V30 7486 H 749.223 2.59716 -4.18101 0
M  V30 7487 N 750.875 1.45233 0.611969 0
M  V30 7488 C 751.825 1.49997 1.71711 0
M  V30 7489 C 752.809 0.363689 1.56736 0
M  V30 7490 O 754.001 0.610261 1.66147 0
M  V30 7491 C 751.13 1.46537 3.10454 0
M  V30 7492 C 750.216 2.65351 3.30831 0
M  V30 7493 N 750.607 3.90485 3.21489 0
M  V30 7494 C 748.905 2.60955 3.61688 0
M  V30 7495 C 749.606 4.69758 3.43078 0
M  V30 7496 N 748.582 4.01141 3.66861 0
M  V30 7497 H 752.384 2.44574 1.62975 0
M  V30 7498 H 749.898 1.40464 0.815082 0
M  V30 7499 H 751.895 1.48035 3.89732 0
M  V30 7500 H 750.555 0.530139 3.20343 0
M  V30 7501 H 751.566 4.22171 2.99987 0
M  V30 7502 H 748.243 1.76319 3.78441 0
M  V30 7503 H 749.633 5.7877 3.41285 0
M  V30 7504 N 752.353 -0.854086 1.3245 0
M  V30 7505 C 753.581 -1.64074 1.26045 0
M  V30 7506 C 753.996 -1.8802 -0.171456 0
M  V30 7507 O 753.353 -1.4496 -1.10873 0
M  V30 7508 C 753.404 -2.9997 2.01743 0
M  V30 7509 O 753.125 -2.77084 3.39346 0
M  V30 7510 C 754.626 -3.94414 2.02368 0
M  V30 7511 H 751.846 -0.511015 0.434862 0
M  V30 7512 H 754.39 -1.06494 1.74583 0
M  V30 7513 H 752.545 -3.54193 1.56926 0
M  V30 7514 H 752.959 -3.63514 3.78098 0
M  V30 7515 H 754.433 -4.87032 2.59815 0
M  V30 7516 H 754.91 -4.27427 1.01009 0
M  V30 7517 H 755.516 -3.46127 2.47135 0
M  V30 7518 N 753.831 -1.1567 -1.07043 0
M  V30 7519 C 754.779 -0.852204 -2.16426 0
M  V30 7520 C 755.773 0.175661 -1.68487 0
M  V30 7521 O 756.979 0.0303874 -1.79974 0
M  V30 7522 H 753.354 -0.257942 -0.706378 0
M  V30 7523 H 755.325 -1.78231 -2.39324 0
M  V30 7524 C 754.074 -0.361362 -3.45817 0
M  V30 7525 H 753.397 -1.14369 -3.83092 0
M  V30 7526 H 754.837 -0.186997 -4.23587 0
M  V30 7527 C 753.296 0.917703 -3.2416 0
M  V30 7528 O 753.826 1.98858 -3.49025 0
M  V30 7529 N 752.032 0.858456 -2.77631 0
M  V30 7530 H 751.579 -0.0131821 -2.57597 0
M  V30 7531 H 751.537 1.71478 -2.6352 0
M  V30 7532 N 755.309 1.25446 -0.953992 0
M  V30 7533 C 756.257 2.27909 -0.46478 0
M  V30 7534 C 757.251 1.62904 0.464607 0
M  V30 7535 O 758.457 1.76733 0.341407 0
M  V30 7536 H 754.832 0.74036 -0.131798 0
M  V30 7537 H 756.803 2.66559 -1.34122 0
M  V30 7538 C 755.552 3.46853 0.242589 0
M  V30 7539 H 754.875 3.97105 -0.463418 0
M  V30 7540 H 756.315 4.20432 0.548919 0
M  V30 7541 C 754.774 3.03386 1.46487 0
M  V30 7542 O 755.304 3.09342 2.56262 0
M  V30 7543 N 753.51 2.58584 1.32599 0
M  V30 7544 H 753.057 2.53938 0.432834 0
M  V30 7545 H 753.015 2.29866 2.14497 0
M  V30 7546 N 756.787 0.722489 1.40064 0
M  V30 7547 C 757.734 0.0743738 2.3068 0
M  V30 7548 C 758.704 -0.743004 1.48555 0
M  V30 7549 O 759.889 -0.705536 1.77276 0
M  V30 7550 C 757.029 -0.836292 3.34814 0
M  V30 7551 C 756.142 -0.00764663 4.31999 0
M  V30 7552 C 755.277 -0.918428 5.232 0
M  V30 7553 C 754.316 -0.0842838 6.12042 0
M  V30 7554 N 753.453 -0.950316 6.95639 0
M  V30 7555 H 758.293 0.852794 2.85537 0
M  V30 7556 H 755.83 0.432222 1.40607 0
M  V30 7557 H 757.788 -1.3786 3.93765 0
M  V30 7558 H 756.418 -1.58082 2.81443 0
M  V30 7559 H 755.47 0.651928 3.74772 0
M  V30 7560 H 756.782 0.63786 4.94705 0
M  V30 7561 H 755.936 -1.52902 5.87116 0
M  V30 7562 H 754.675 -1.59774 4.60786 0
M  V30 7563 H 753.68 0.5392 5.4715 0
M  V30 7564 H 754.905 0.591628 6.76518 0
M  V30 7565 H 752.851 -1.61515 6.35806 0
M  V30 7566 H 752.768 -0.361004 7.55138 0
M  V30 7567 H 754.036 -1.54687 7.63997 0
M  V30 7568 N 758.265 -1.50454 0.469181 0
M  V30 7569 C 759.514 -2.01507 -0.0881425 0
M  V30 7570 C 759.827 -1.35613 -1.40956 0
M  V30 7571 O 761.033 -1.77812 -2.05171 0
M  V30 7572 C 759.489 -3.59301 -0.207596 0
M  V30 7573 C 759.097 -4.34152 1.10527 0
M  V30 7574 C 760.841 -4.18401 -0.716981 0
M  V30 7575 C 758.748 -5.83725 0.949717 0
M  V30 7576 H 757.678 -0.753106 -0.0367156 0
M  V30 7577 H 760.329 -1.73282 0.603788 0
M  V30 7578 H 758.711 -3.84106 -0.963265 0
M  V30 7579 H 759.885 -4.21073 1.87175 0
M  V30 7580 H 758.2 -3.86652 1.54562 0
M  V30 7581 H 760.797 -5.27895 -0.850363 0
M  V30 7582 H 761.14 -3.79657 -1.70782 0
M  V30 7583 H 761.673 -3.97796 -0.0187511 0
M  V30 7584 H 758.412 -6.26938 1.91387 0
M  V30 7585 H 757.932 -5.99383 0.223591 0
M  V30 7586 H 759.611 -6.44065 0.61557 0
M  V30 7587 N 759.743 -0.201713 -1.56304 0
M  V30 7588 C 760.653 0.728296 -2.23009 0
M  V30 7589 C 761.669 1.22945 -1.23128 0
M  V30 7590 O 762.845 1.27523 -1.55884 0
M  V30 7591 C 759.91 1.92792 -2.88153 0
M  V30 7592 C 758.971 1.47068 -4.03323 0
M  V30 7593 C 758.204 2.61312 -4.65351 0
M  V30 7594 O 758.427 3.7896 -4.26317 0
M  V30 7595 O 757.361 2.33646 -5.54701 0
M  V30 7596 H 761.187 0.190166 -3.03104 0
M  V30 7597 H 758.772 0.0278725 -1.49374 0
M  V30 7598 H 760.654 2.6289 -3.29343 0
M  V30 7599 H 759.329 2.45452 -2.11033 0
M  V30 7600 H 758.236 0.738299 -3.66742 0
M  V30 7601 H 759.569 0.990666 -4.82127 0
M  V30 7602 N 761.222 1.57436 0.0718424 0
M  V30 7603 C 762.169 2.03686 1.08539 0
M  V30 7604 C 763.139 0.917474 1.38462 0
M  V30 7605 O 764.324 1.18513 1.4953 0
M  V30 7606 C 761.464 2.48566 2.39393 0
M  V30 7607 C 760.577 3.74122 2.16001 0
M  V30 7608 C 759.712 4.07786 3.40418 0
M  V30 7609 C 758.751 5.26383 3.1239 0
M  V30 7610 N 757.888 5.55685 4.29138 0
M  V30 7611 H 762.728 2.90043 0.684018 0
M  V30 7612 H 760.265 1.43438 0.326183 0
M  V30 7613 H 762.223 2.72639 3.15791 0
M  V30 7614 H 760.853 1.65186 2.77333 0
M  V30 7615 H 759.905 3.57389 1.30296 0
M  V30 7616 H 761.217 4.60659 1.91298 0
M  V30 7617 H 760.371 4.32759 4.25211 0
M  V30 7618 H 759.11 3.19817 3.68197 0
M  V30 7619 H 758.115 5.01206 2.25993 0
M  V30 7620 H 759.34 6.1597 2.85934 0
M  V30 7621 H 757.286 4.70675 4.56948 0
M  V30 7622 H 757.203 6.3664 4.07708 0
M  V30 7623 H 758.471 5.85209 5.14928 0
M  V30 7624 N 762.7 -0.34323 1.53817 0
M  V30 7625 C 763.949 -1.08086 1.70295 0
M  V30 7626 C 764.262 -1.89794 0.47302 0
M  V30 7627 O 765.468 -2.66498 0.518754 0
M  V30 7628 C 763.924 -1.97097 3.01133 0
M  V30 7629 C 763.532 -1.20594 4.31464 0
M  V30 7630 C 765.276 -2.70715 3.26976 0
M  V30 7631 C 763.183 -2.08636 5.53376 0
M  V30 7632 H 762.113 -0.407228 0.634572 0
M  V30 7633 H 764.764 -0.340328 1.80316 0
M  V30 7634 H 763.146 -2.74971 2.84969 0
M  V30 7635 H 764.32 -0.476282 4.58332 0
M  V30 7636 H 762.635 -0.587426 4.12236 0
M  V30 7637 H 765.232 -3.36857 4.15248 0
M  V30 7638 H 765.575 -3.37299 2.43998 0
M  V30 7639 H 766.108 -1.99914 3.43917 0
M  V30 7640 H 762.847 -1.46594 6.38898 0
M  V30 7641 H 762.367 -2.7939 5.30755 0
M  V30 7642 H 764.046 -2.67682 5.89029 0
M  V30 7643 N 764.178 -1.45556 -0.604258 0
M  V30 7644 C 765.408 -1.53056 -1.38771 0
M  V30 7645 C 765.816 -0.163092 -1.88496 0
M  V30 7646 O 765.159 0.846157 -1.63052 0
M  V30 7647 C 765.221 -2.45656 -2.62476 0
M  V30 7648 C 764.885 -3.92328 -2.34367 0
M  V30 7649 C 765.882 -4.82137 -1.94525 0
M  V30 7650 C 763.567 -4.37275 -2.47177 0
M  V30 7651 C 765.561 -6.14901 -1.67856 0
M  V30 7652 C 763.248 -5.70079 -2.20122 0
M  V30 7653 C 764.246 -6.58711 -1.80524 0
M  V30 7654 O 763.934 -7.89053 -1.53788 0
M  V30 7655 H 763.666 -0.520721 -0.431075 0
M  V30 7656 H 766.22 -1.91464 -0.743693 0
M  V30 7657 H 764.45 -2.02225 -3.29609 0
M  V30 7658 H 766.139 -2.43802 -3.24523 0
M  V30 7659 H 766.905 -4.48675 -1.84162 0
M  V30 7660 H 762.784 -3.68527 -2.76964 0
M  V30 7661 H 766.328 -6.8404 -1.36874 0
M  V30 7662 H 762.225 -6.03095 -2.30102 0
M  V30 7663 H 762.993 -8.01113 -1.67812 0
M  V30 7664 N 765.656 0.84705 -1.32902 0
M  V30 7665 C 766.905 1.59667 -1.23245 0
M  V30 7666 C 767.218 1.94551 0.202349 0
M  V30 7667 O 768.424 2.68218 0.420847 0
M  V30 7668 C 766.88 2.8795 -2.15901 0
M  V30 7669 C 766.488 2.60461 -3.64505 0
M  V30 7670 C 768.232 3.65968 -2.15098 0
M  V30 7671 C 766.139 3.84791 -4.49099 0
M  V30 7672 H 765.069 0.599167 -0.457728 0
M  V30 7673 H 767.72 0.934662 -1.57912 0
M  V30 7674 H 766.102 3.55648 -1.74157 0
M  V30 7675 H 767.276 2.01026 -4.14639 0
M  V30 7676 H 765.591 1.9576 -3.67515 0
M  V30 7677 H 768.188 4.58241 -2.75534 0
M  V30 7678 H 768.531 4.00275 -1.14392 0
M  V30 7679 H 769.064 3.05184 -2.55162 0
M  V30 7680 H 765.803 3.55621 -5.50649 0
M  V30 7681 H 765.323 4.43594 -4.03713 0
M  V30 7682 H 767.002 4.52454 -4.62487 0
M  V30 7683 N 767.134 1.16236 1.06428 0
M  V30 7684 C 768.067 0.81119 2.13295 0
M  V30 7685 C 769.045 -0.216555 1.61151 0
M  V30 7686 O 770.229 -0.100949 1.88229 0
M  V30 7687 C 767.356 0.207901 3.38061 0
M  V30 7688 C 766.402 1.20904 4.09004 0
M  V30 7689 S 767.235 2.75513 4.59187 0
M  V30 7690 C 768.391 2.1663 5.87216 0
M  V30 7691 H 768.624 1.71632 2.42755 0
M  V30 7692 H 766.157 0.985693 1.18842 0
M  V30 7693 H 768.115 -0.133715 4.10282 0
M  V30 7694 H 766.776 -0.67497 3.06762 0
M  V30 7695 H 765.969 0.735326 4.98607 0
M  V30 7696 H 765.571 1.49567 3.42791 0
M  V30 7697 H 767.863 1.53413 6.59902 0
M  V30 7698 H 768.806 3.04437 6.39315 0
M  V30 7699 H 769.214 1.60565 5.41183 0
M  V30 7700 N 768.612 -1.24939 0.960631 0
M  V30 7701 C 769.559 -2.25658 0.484459 0
M  V30 7702 C 770.529 -1.59422 -0.466242 0
M  V30 7703 O 771.714 -1.87015 -0.378169 0
M  V30 7704 C 768.854 -3.44359 -0.225958 0
M  V30 7705 C 767.967 -4.25214 0.762682 0
M  V30 7706 C 767.102 -5.31192 0.0290931 0
M  V30 7707 C 766.141 -6.03739 1.00827 0
M  V30 7708 N 765.278 -7.01437 0.305155 0
M  V30 7709 H 770.118 -2.65758 1.34821 0
M  V30 7710 H 767.655 -1.30648 0.675983 0
M  V30 7711 H 769.613 -4.12035 -0.654472 0
M  V30 7712 H 768.243 -3.05118 -1.05371 0
M  V30 7713 H 767.295 -3.57144 1.30966 0
M  V30 7714 H 768.607 -4.75406 1.50964 0
M  V30 7715 H 767.761 -6.04971 -0.457763 0
M  V30 7716 H 766.5 -4.81889 -0.750614 0
M  V30 7717 H 765.505 -5.2877 1.50607 0
M  V30 7718 H 766.73 -6.55131 1.7883 0
M  V30 7719 H 764.676 -6.54415 -0.455704 0
M  V30 7720 H 764.593 -7.49475 0.991104 0
M  V30 7721 H 765.861 -7.79336 -0.159966 0
M  V30 7722 N 770.09 -0.729906 -1.39679 0
M  V30 7723 C 771.053 -0.0951668 -2.29002 0
M  V30 7724 C 772.053 0.672471 -1.46063 0
M  V30 7725 O 773.243 0.502245 -1.66803 0
M  V30 7726 C 770.375 0.874631 -3.29489 0
M  V30 7727 H 771.568 -0.882062 -2.86635 0
M  V30 7728 H 769.121 -0.495424 -1.4824 0
M  V30 7729 H 769.856 1.68807 -2.76902 0
M  V30 7730 H 769.641 0.326893 -3.90735 0
M  V30 7731 H 771.131 1.31548 -3.96339 0
M  V30 7732 N 771.568 1.50203 -0.477153 0
M  V30 7733 C 772.845 1.95115 0.137609 0
M  V30 7734 C 773.225 1.41778 1.56404 0
M  V30 7735 O 772.573 0.621333 2.1989 0
M  V30 7736 C 772.783 3.4892 0.0747168 0
M  V30 7737 C 774.131 4.238 0.260585 0
M  V30 7738 O 775.155 3.5588 0.151021 0
M  V30 7739 O 774.014 5.44366 0.482534 0
M  V30 7740 H 771.108 0.81987 0.108364 0
M  V30 7741 H 773.654 1.60946 -0.537989 0
M  V30 7742 H 772.426 3.80308 -0.920966 0
M  V30 7743 H 772.049 3.89642 0.791509 0
M  V30 7744 N 773.046 0.209999 1.56195 0
M  V30 7745 C 774.274 -0.429996 2.02382 0
M  V30 7746 C 774.689 -1.54159 1.08998 0
M  V30 7747 O 774.046 -1.82239 0.0974856 0
M  V30 7748 C 774.097 -0.972433 3.48175 0
M  V30 7749 O 773.818 0.0948231 4.37997 0
M  V30 7750 C 775.319 -1.68683 4.09952 0
M  V30 7751 H 772.539 -0.106475 0.662498 0
M  V30 7752 H 775.083 0.323072 2.01932 0
M  V30 7753 H 773.238 -1.67582 3.49278 0
M  V30 7754 H 773.652 -0.31113 5.23576 0
M  V30 7755 H 775.126 -2.01851 5.13771 0
M  V30 7756 H 775.603 -2.59587 3.54276 0
M  V30 7757 H 776.209 -1.02893 4.12666 0
M  V30 7758 N 774.524 -1.57472 -0.0634922 0
M  V30 7759 C 775.77 -1.87932 -0.762194 0
M  V30 7760 C 776.103 -0.803377 -1.76804 0
M  V30 7761 O 775.378 0.185468 -1.93614 0
M  V30 7762 C 775.661 -3.29053 -1.46275 0
M  V30 7763 C 775.514 -4.47309 -0.472755 0
M  V30 7764 C 776.833 -3.68537 -2.40558 0
M  V30 7765 H 773.952 -0.683521 -0.275624 0
M  V30 7766 H 776.594 -1.89983 -0.0252651 0
M  V30 7767 H 774.744 -3.27435 -2.0909 0
M  V30 7768 H 776.416 -4.61053 0.150828 0
M  V30 7769 H 774.659 -4.33286 0.211187 0
M  V30 7770 H 775.33 -5.42853 -1.00072 0
M  V30 7771 H 777.806 -3.71302 -1.87814 0
M  V30 7772 H 776.682 -4.68152 -2.86574 0
M  V30 7773 H 776.943 -2.98917 -3.25731 0
M  V30 7774 N 776.003 0.335068 -1.53997 0
M  V30 7775 C 777.252 1.07182 -1.70865 0
M  V30 7776 C 777.565 1.89541 -0.483078 0
M  V30 7777 O 778.771 2.66219 -0.532879 0
M  V30 7778 C 777.227 1.95497 -3.02174 0
M  V30 7779 C 776.835 1.18304 -4.32097 0
M  V30 7780 C 778.579 2.68978 -3.28407 0
M  V30 7781 C 776.486 2.05699 -5.54474 0
M  V30 7782 H 775.416 0.403857 -0.636722 0
M  V30 7783 H 778.067 0.33076 -1.80494 0
M  V30 7784 H 776.449 2.73456 -2.86423 0
M  V30 7785 H 777.623 0.451969 -4.58578 0
M  V30 7786 H 775.938 0.565556 -4.12541 0
M  V30 7787 H 778.535 3.34651 -4.17029 0
M  V30 7788 H 778.878 3.36 -2.45784 0
M  V30 7789 H 779.411 1.98087 -3.44973 0
M  V30 7790 H 776.15 1.43204 -6.39666 0
M  V30 7791 H 775.67 2.76572 -5.32229 0
M  V30 7792 H 777.349 2.64554 -5.90441 0
M  V30 7793 N 777.481 1.45874 0.596531 0
M  V30 7794 C 778.727 1.5069 1.35722 0
M  V30 7795 C 779.06 0.152506 1.936 0
M  V30 7796 O 778.335 -0.834411 1.75692 0
M  V30 7797 C 778.618 2.59474 2.4969 0
M  V30 7798 C 778.471 4.04396 1.96937 0
M  V30 7799 C 779.79 2.64451 3.51787 0
M  V30 7800 H 776.909 0.548611 0.492133 0
M  V30 7801 H 779.551 1.77741 0.671428 0
M  V30 7802 H 777.701 2.36539 3.08191 0
M  V30 7803 H 779.373 4.38576 1.43 0
M  V30 7804 H 777.616 4.14529 1.27859 0
M  V30 7805 H 778.287 4.76218 2.79143 0
M  V30 7806 H 780.763 2.85031 3.03145 0
M  V30 7807 H 779.639 3.42411 4.29006 0
M  V30 7808 H 779.9 1.69965 4.08123 0
M  V30 7809 N 778.959 -0.83999 1.33349 0
M  V30 7810 C 780.207 -1.59202 1.24496 0
M  V30 7811 C 780.528 -1.94077 -0.189499 0
M  V30 7812 O 779.798 -1.60868 -1.11796 0
M  V30 7813 H 778.378 -0.590276 0.457802 0
M  V30 7814 H 781.04 -1.00394 1.67054 0
M  V30 7815 H 780.136 -2.52247 1.83788 0
M  V30 7816 N 780.437 -1.16799 -1.0581 0
M  V30 7817 C 781.665 -0.97687 -1.82387 0
M  V30 7818 C 782.08 0.474917 -1.82729 0
M  V30 7819 O 781.437 1.3297 -1.25001 0
M  V30 7820 C 781.488 -1.50279 -3.28783 0
M  V30 7821 O 781.209 -2.89772 -3.28578 0
M  V30 7822 C 782.71 -1.35538 -4.22071 0
M  V30 7823 H 779.93 -0.345977 -0.574927 0
M  V30 7824 H 782.474 -1.54942 -1.33466 0
M  V30 7825 H 780.629 -0.972414 -3.74997 0
M  V30 7826 H 781.043 -3.13954 -4.20159 0
M  V30 7827 H 782.517 -1.7716 -5.22799 0
M  V30 7828 H 782.994 -0.301598 -4.38163 0
M  V30 7829 H 783.6 -1.87562 -3.81708 0
M  V30 7830 N 781.915 1.24427 -0.967243 0
M  V30 7831 C 783.161 1.92772 -0.629812 0
M  V30 7832 C 783.494 1.75436 0.832827 0
M  V30 7833 O 782.769 1.10716 1.59913 0
M  V30 7834 C 783.052 3.45798 -1.00477 0
M  V30 7835 C 782.905 3.72304 -2.52407 0
M  V30 7836 C 784.224 4.36787 -0.538999 0
M  V30 7837 H 781.343 0.700099 -0.230282 0
M  V30 7838 H 783.985 1.46805 -1.20616 0
M  V30 7839 H 782.135 3.8508 -0.514336 0
M  V30 7840 H 783.807 3.42584 -3.08924 0
M  V30 7841 H 782.05 3.17472 -2.95625 0
M  V30 7842 H 782.721 4.7937 -2.73693 0
M  V30 7843 H 785.197 4.04877 -0.959874 0
M  V30 7844 H 784.073 5.4259 -0.829926 0
M  V30 7845 H 784.334 4.38527 0.560923 0
M  V30 7846 N 783.393 0.737304 1.3929 0
M  V30 7847 C 784.34 0.0988364 2.30588 0
M  V30 7848 C 785.31 -0.727206 1.49335 0
M  V30 7849 O 786.495 -0.686694 1.78014 0
M  V30 7850 C 783.635 -0.800734 3.35682 0
M  V30 7851 C 782.748 0.0381731 4.31983 0
M  V30 7852 C 781.883 -0.862884 5.24145 0
M  V30 7853 C 780.922 -0.0193639 6.12097 0
M  V30 7854 N 780.059 -0.87648 6.96608 0
M  V30 7855 H 784.899 0.883031 2.84617 0
M  V30 7856 H 782.436 0.447111 1.4014 0
M  V30 7857 H 784.394 -1.33676 3.95205 0
M  V30 7858 H 783.024 -1.55088 2.83103 0
M  V30 7859 H 782.076 0.691641 3.74059 0
M  V30 7860 H 783.388 0.690294 4.94 0
M  V30 7861 H 782.542 -1.46667 5.88705 0
M  V30 7862 H 781.281 -1.54878 4.62454 0
M  V30 7863 H 780.286 0.597202 5.46547 0
M  V30 7864 H 781.511 0.663348 6.75852 0
M  V30 7865 H 779.457 -1.54762 6.37483 0
M  V30 7866 H 779.374 -0.280892 7.55478 0
M  V30 7867 H 780.642 -1.46575 7.65595 0
M  V30 7868 N 784.871 -1.49948 0.485112 0
M  V30 7869 C 785.834 -2.27351 -0.290546 0
M  V30 7870 C 786.834 -1.32704 -0.908087 0
M  V30 7871 O 788.024 -1.56007 -0.775085 0
M  V30 7872 C 785.156 -3.10135 -1.41524 0
M  V30 7873 H 786.349 -2.97374 0.388454 0
M  V30 7874 H 783.902 -1.54453 0.239586 0
M  V30 7875 H 784.637 -2.44641 -2.12888 0
M  V30 7876 H 784.422 -3.79705 -0.978074 0
M  V30 7877 H 785.912 -3.68638 -1.96204 0
M  V30 7878 N 786.349 -0.21828 -1.56081 0
M  V30 7879 C 787.259 0.704602 -2.23769 0
M  V30 7880 C 788.275 1.21633 -1.24425 0
M  V30 7881 O 789.451 1.25862 -1.57228 0
M  V30 7882 C 786.516 1.89725 -2.90182 0
M  V30 7883 C 785.577 1.42782 -4.0486 0
M  V30 7884 C 784.81 2.56361 -4.68097 0
M  V30 7885 O 785.033 3.74417 -4.30312 0
M  V30 7886 O 783.967 2.2775 -5.57148 0
M  V30 7887 H 787.793 0.158007 -3.03289 0
M  V30 7888 H 785.378 0.0120279 -1.49395 0
M  V30 7889 H 787.26 2.59382 -3.32113 0
M  V30 7890 H 785.935 2.432 -2.13624 0
M  V30 7891 H 784.842 0.699359 -3.67505 0
M  V30 7892 H 786.175 0.939474 -4.83151 0
M  V30 7893 N 787.827 1.57504 0.0551401 0
M  V30 7894 C 788.757 2.07864 1.06372 0
M  V30 7895 C 789.738 0.975565 1.39344 0
M  V30 7896 O 790.923 1.24929 1.48682 0
M  V30 7897 C 788.053 2.53643 2.3724 0
M  V30 7898 C 787.007 3.67978 2.18578 0
M  V30 7899 C 786.333 3.9987 3.54976 0
M  V30 7900 C 787.633 4.97405 1.59329 0
M  V30 7901 H 789.327 2.92379 0.644595 0
M  V30 7902 H 786.873 1.40654 0.308619 0
M  V30 7903 H 788.826 2.8749 3.08103 0
M  V30 7904 H 787.55 1.66177 2.81163 0
M  V30 7905 H 786.209 3.3444 1.50152 0
M  V30 7906 H 785.857 3.0951 3.965 0
M  V30 7907 H 785.557 4.76867 3.43324 0
M  V30 7908 H 787.081 4.36228 4.27244 0
M  V30 7909 H 788.495 5.29375 2.20078 0
M  V30 7910 H 786.892 5.78837 1.58327 0
M  V30 7911 H 787.962 4.81697 0.55638 0
M  V30 7912 N 789.305 -0.326896 1.54172 0
M  V30 7913 C 790.716 -0.901533 1.63491 0
M  V30 7914 C 791.067 -1.88994 0.52684 0
M  V30 7915 O 790.192 -2.137 -0.340794 0
M  V30 7916 C 790.787 -1.64192 2.96355 0
M  V30 7917 C 789.346 -2.16533 3.07881 0
M  V30 7918 C 788.493 -0.98966 2.59039 0
M  V30 7919 H 791.444 -0.104568 1.58355 0
M  V30 7920 H 791.465 -2.50592 2.86328 0
M  V30 7921 H 790.977 -0.922291 3.76982 0
M  V30 7922 H 789.078 -2.91622 2.31922 0
M  V30 7923 H 789.191 -2.41762 4.13628 0
M  V30 7924 H 787.555 -1.36787 2.14852 0
M  V30 7925 H 788.338 -0.284401 3.4212 0
M  V30 7926 N 790.784 -1.46188 -0.588786 0
M  V30 7927 C 791.694 -1.58865 -1.72624 0
M  V30 7928 C 792.71 -0.472348 -1.67466 0
M  V30 7929 O 793.886 -0.735638 -1.87484 0
M  V30 7930 C 790.951 -1.56989 -3.0912 0
M  V30 7931 C 790.012 -2.79804 -3.25589 0
M  V30 7932 C 789.245 -2.78009 -4.55573 0
M  V30 7933 O 789.468 -1.86406 -5.39082 0
M  V30 7934 O 788.402 -3.6947 -4.75159 0
M  V30 7935 H 792.228 -2.55047 -1.64878 0
M  V30 7936 H 789.813 -1.28912 -0.755115 0
M  V30 7937 H 791.695 -1.58618 -3.90408 0
M  V30 7938 H 790.37 -0.639648 -3.17317 0
M  V30 7939 H 789.277 -2.83732 -2.43818 0
M  V30 7940 H 790.61 -3.72017 -3.22279 0
M  V30 7941 N 792.262 0.832906 -1.33792 0
M  V30 7942 C 793.51 1.58539 -1.25338 0
M  V30 7943 C 793.831 1.94175 0.179204 0
M  V30 7944 O 793.101 1.61458 1.10941 0
M  V30 7945 H 791.681 0.58784 -0.460926 0
M  V30 7946 H 794.343 0.995064 -1.67584 0
M  V30 7947 H 793.439 2.51268 -1.85123 0
M  V30 7948 N 793.74 1.17359 1.05189 0
M  V30 7949 C 795.156 0.920861 1.30355 0
M  V30 7950 C 795.356 -0.419993 1.97074 0
M  V30 7951 O 794.412 -1.15696 2.24434 0
M  V30 7952 C 795.725 2.07818 2.1733 0
M  V30 7953 C 797.273 2.1152 2.30712 0
M  V30 7954 C 797.748 3.26637 3.21048 0
M  V30 7955 N 799.239 3.26426 3.28634 0
M  V30 7956 C 799.974 4.12141 3.98657 0
M  V30 7957 N 799.47 5.07966 4.71107 0
M  V30 7958 N 801.263 4.00091 3.94821 0
M  V30 7959 H 793.414 2.03666 0.602821 0
M  V30 7960 H 795.677 0.889294 0.328421 0
M  V30 7961 H 795.383 3.04727 1.75597 0
M  V30 7962 H 795.257 2.02922 3.17966 0
M  V30 7963 H 797.644 1.15196 2.71687 0
M  V30 7964 H 797.725 2.20477 1.29706 0
M  V30 7965 H 797.369 4.23227 2.80788 0
M  V30 7966 H 797.299 3.14917 4.2206 0
M  V30 7967 H 799.79 2.57045 2.77013 0
M  V30 7968 H 800.103 5.69766 5.22099 0
M  V30 7969 H 798.448 5.11936 4.7005 0
M  V30 7970 H 801.639 3.24523 3.37346 0
M  V30 7971 H 801.812 4.6711 4.49123 0
M  V30 7972 N 795.218 -1.23913 0.973828 0
M  V30 7973 C 796.466 -1.91771 0.637817 0
M  V30 7974 C 796.787 -1.76434 -0.830435 0
M  V30 7975 O 796.057 -1.13965 -1.59339 0
M  V30 7976 H 794.637 -0.709761 0.232912 0
M  V30 7977 H 797.299 -1.50677 1.23622 0
M  V30 7978 H 796.395 -2.99327 0.883731 0
M  V30 7979 N 796.696 -0.74468 -1.38897 0
M  V30 7980 C 797.626 -0.126355 -2.33158 0
M  V30 7981 C 798.607 0.713517 -1.54412 0
M  V30 7982 O 799.792 0.656523 -1.82766 0
M  V30 7983 C 796.922 0.774375 -3.38557 0
M  V30 7984 C 795.876 0.0379214 -4.27983 0
M  V30 7985 C 795.202 1.05631 -5.24162 0
M  V30 7986 C 796.502 -1.12523 -5.10035 0
M  V30 7987 H 798.196 -0.913744 -2.85116 0
M  V30 7988 H 795.742 -0.440847 -1.37086 0
M  V30 7989 H 797.695 1.21655 -4.03458 0
M  V30 7990 H 796.419 1.59399 -2.85061 0
M  V30 7991 H 795.078 -0.384733 -3.64576 0
M  V30 7992 H 794.726 1.86975 -4.66958 0
M  V30 7993 H 794.426 0.568261 -5.84846 0
M  V30 7994 H 795.95 1.49799 -5.9194 0
M  V30 7995 H 797.364 -0.761037 -5.68226 0
M  V30 7996 H 795.761 -1.54355 -5.79909 0
M  V30 7997 H 796.831 -1.94237 -4.44297 0
M  V30 7998 N 798.174 1.49689 -0.493057 0
M  V30 7999 C 799.137 2.27502 0.278485 0
M  V30 8000 C 800.137 1.33184 0.901037 0
M  V30 8001 O 801.327 1.56415 0.766801 0
M  V30 8002 C 798.459 3.10881 1.39878 0
M  V30 8003 H 799.652 2.97163 -0.404219 0
M  V30 8004 H 797.205 1.54324 -0.247774 0
M  V30 8005 H 797.94 2.45767 2.11587 0
M  V30 8006 H 797.725 3.80219 0.957924 0
M  V30 8007 H 799.215 3.69673 1.94247 0
M  V30 8008 N 799.652 0.226554 1.55963 0
M  V30 8009 C 800.9 -0.402991 1.98041 0
M  V30 8010 C 801.221 -1.59938 1.11557 0
M  V30 8011 O 800.491 -1.9494 0.193719 0
M  V30 8012 H 799.071 -0.15188 0.731397 0
M  V30 8013 H 801.733 0.320613 1.92245 0
M  V30 8014 H 800.829 -0.725937 3.0354 0
M  V30 8015 N 801.13 -1.57531 -0.0467866 0
M  V30 8016 C 802.541 -1.76945 -0.595603 0
M  V30 8017 C 802.892 -0.855354 -1.76573 0
M  V30 8018 O 802.017 -0.045668 -2.16352 0
M  V30 8019 C 802.612 -3.20881 -1.08725 0
M  V30 8020 C 801.171 -3.41553 -1.58172 0
M  V30 8021 C 800.318 -2.72533 -0.511968 0
M  V30 8022 H 803.269 -1.57682 0.179436 0
M  V30 8023 H 803.29 -3.26419 -1.95528 0
M  V30 8024 H 802.802 -3.87385 -0.235398 0
M  V30 8025 H 800.903 -2.80199 -2.456 0
M  V30 8026 H 801.016 -4.50104 -1.64143 0
M  V30 8027 H 799.38 -2.35797 -0.962899 0
M  V30 8028 H 800.163 -3.41709 0.330117 0
M  V30 8029 N 802.608 0.318715 -1.54344 0
M  V30 8030 C 803.571 1.37545 -1.83342 0
M  V30 8031 C 804.571 1.445 -0.705444 0
M  V30 8032 O 805.761 1.44443 -0.973752 0
M  V30 8033 C 802.893 2.76225 -1.99781 0
M  V30 8034 H 804.086 1.13084 -2.77762 0
M  V30 8035 H 801.639 0.554457 -1.46135 0
M  V30 8036 H 802.374 3.05934 -1.07588 0
M  V30 8037 H 802.159 2.7257 -2.81865 0
M  V30 8038 H 803.649 3.52664 -2.23647 0
M  V30 8039 N 804.086 1.46499 0.581025 0
M  V30 8040 C 804.996 1.59778 1.71779 0
M  V30 8041 C 806.012 0.481223 1.67213 0
M  V30 8042 O 807.188 0.74557 1.87091 0
M  V30 8043 C 804.253 1.58626 3.08283 0
M  V30 8044 C 803.314 2.81527 3.241 0
M  V30 8045 C 802.547 2.80421 4.54092 0
M  V30 8046 O 802.77 1.89262 5.38085 0
M  V30 8047 O 801.704 3.71984 4.73193 0
M  V30 8048 H 805.53 2.55918 1.63523 0
M  V30 8049 H 803.115 1.29311 0.748267 0
M  V30 8050 H 804.997 1.60686 3.89561 0
M  V30 8051 H 803.672 0.656467 3.16973 0
M  V30 8052 H 802.579 2.85021 2.42309 0
M  V30 8053 H 803.912 3.73721 3.20302 0
M  V30 8054 N 805.565 -0.825799 1.34232 0
M  V30 8055 C 806.976 -1.39835 1.23706 0
M  V30 8056 C 807.327 -1.95709 -0.138649 0
M  V30 8057 O 806.452 -1.89833 -1.03886 0
M  V30 8058 C 807.047 -2.54203 2.23978 0
M  V30 8059 C 805.606 -3.07374 2.17251 0
M  V30 8060 C 804.753 -1.80232 2.10741 0
M  V30 8061 H 807.704 -0.630442 1.4564 0
M  V30 8062 H 807.725 -3.32214 1.8551 0
M  V30 8063 H 807.237 -2.13506 3.24094 0
M  V30 8064 H 805.338 -3.52583 1.20483 0
M  V30 8065 H 805.451 -3.6666 3.08379 0
M  V30 8066 H 803.815 -2.01012 1.56417 0
M  V30 8067 H 804.598 -1.41713 3.12686 0
M  V30 8068 N 807.043 -1.17915 -1.04565 0
M  V30 8069 C 807.953 -0.916449 -2.15959 0
M  V30 8070 C 808.969 0.117655 -1.73602 0
M  V30 8071 O 810.145 -0.063089 -2.01301 0
M  V30 8072 C 807.21 -0.440262 -3.43893 0
M  V30 8073 C 806.271 -1.54172 -4.00661 0
M  V30 8074 C 805.504 -1.08816 -5.22489 0
M  V30 8075 O 805.727 0.0551547 -5.70373 0
M  V30 8076 O 804.661 -1.88383 -5.7166 0
M  V30 8077 H 808.487 -1.8484 -2.40972 0
M  V30 8078 H 806.072 -0.960552 -1.14428 0
M  V30 8079 H 807.954 -0.182537 -4.21004 0
M  V30 8080 H 806.629 0.46346 -3.20365 0
M  V30 8081 H 805.536 -1.85341 -3.24961 0
M  V30 8082 H 806.869 -2.42139 -4.2852 0
M  V30 8083 N 808.521 1.23394 -0.980386 0
M  V30 8084 C 809.451 2.2717 -0.540024 0
M  V30 8085 C 810.432 1.64659 0.426787 0
M  V30 8086 O 811.617 1.91543 0.320153 0
M  V30 8087 C 808.747 3.46939 0.15836 0
M  V30 8088 C 807.701 4.21802 -0.725732 0
M  V30 8089 C 807.027 5.34597 0.104866 0
M  V30 8090 C 808.327 4.81802 -2.01654 0
M  V30 8091 H 810.021 2.64257 -1.40743 0
M  V30 8092 H 807.567 1.2703 -0.678193 0
M  V30 8093 H 809.52 4.18683 0.477737 0
M  V30 8094 H 808.244 3.08912 1.06022 0
M  V30 8095 H 806.903 3.51875 -1.02857 0
M  V30 8096 H 806.551 4.92812 1.00726 0
M  V30 8097 H 806.251 5.85607 -0.483557 0
M  V30 8098 H 807.775 6.09163 0.418624 0
M  V30 8099 H 809.189 5.45554 -1.76193 0
M  V30 8100 H 807.586 5.43098 -2.55273 0
M  V30 8101 H 808.656 4.02549 -2.70338 0
M  V30 8102 N 809.999 0.752036 1.385 0
M  V30 8103 C 810.909 0.125318 2.34265 0
M  V30 8104 C 811.925 -0.702437 1.59191 0
M  V30 8105 O 813.101 -0.626951 1.91393 0
M  V30 8106 C 810.166 -0.758486 3.38301 0
M  V30 8107 C 809.227 0.0834636 4.29219 0
M  V30 8108 C 808.46 -0.758252 5.28286 0
M  V30 8109 O 808.683 -1.99632 5.34325 0
M  V30 8110 O 807.617 -0.177878 6.01637 0
M  V30 8111 H 811.443 0.91617 2.89551 0
M  V30 8112 H 809.028 0.512911 1.4032 0
M  V30 8113 H 810.91 -1.26365 4.02007 0
M  V30 8114 H 809.585 -1.52786 2.85374 0
M  V30 8115 H 808.492 0.634545 3.68679 0
M  V30 8116 H 809.825 0.815455 4.85398 0
M  V30 8117 N 811.477 -1.49425 0.500989 0
M  V30 8118 C 812.387 -2.32899 -0.282011 0
M  V30 8119 C 813.403 -1.44632 -0.967346 0
M  V30 8120 O 814.579 -1.77654 -0.94873 0
M  V30 8121 C 811.644 -3.20069 -1.33253 0
M  V30 8122 C 810.705 -4.24186 -0.660636 0
M  V30 8123 C 809.938 -5.07191 -1.6611 0
M  V30 8124 O 810.161 -4.91712 -2.89094 0
M  V30 8125 O 809.095 -5.8948 -1.21643 0
M  V30 8126 H 812.921 -3.01038 0.401224 0
M  V30 8127 H 810.506 -1.47079 0.262323 0
M  V30 8128 H 812.388 -3.74071 -1.94033 0
M  V30 8129 H 811.063 -2.54625 -1.9987 0
M  V30 8130 H 809.97 -3.74098 -0.0130959 0
M  V30 8131 H 811.303 -4.92186 -0.0369179 0
M  V30 8132 N 812.955 -0.234822 -1.55841 0
M  V30 8133 C 813.865 0.680828 -2.24504 0
M  V30 8134 C 814.881 1.20306 -1.25708 0
M  V30 8135 O 816.057 1.24188 -1.58554 0
M  V30 8136 C 813.122 1.86636 -2.92178 0
M  V30 8137 C 812.183 1.3848 -4.06352 0
M  V30 8138 C 811.416 2.51382 -4.70789 0
M  V30 8139 O 811.639 3.69831 -4.34259 0
M  V30 8140 O 810.573 2.21828 -5.59532 0
M  V30 8141 H 814.399 0.12583 -3.03439 0
M  V30 8142 H 811.984 -0.00381817 -1.494 0
M  V30 8143 H 813.866 2.55845 -3.34845 0
M  V30 8144 H 812.541 2.40921 -2.16192 0
M  V30 8145 H 811.448 0.660341 -3.68226 0
M  V30 8146 H 812.781 0.888177 -4.8412 0
M  V30 8147 N 814.433 1.57553 0.0384317 0
M  V30 8148 C 815.363 2.0898 1.04161 0
M  V30 8149 C 816.344 0.99029 1.38301 0
M  V30 8150 O 817.529 1.26499 1.47349 0
M  V30 8151 C 814.659 2.56145 2.34536 0
M  V30 8152 C 813.613 3.70275 2.14663 0
M  V30 8153 C 812.939 4.03612 3.50715 0
M  V30 8154 C 814.239 4.99067 1.54045 0
M  V30 8155 H 815.933 2.93046 0.613548 0
M  V30 8156 H 813.479 1.40973 0.293684 0
M  V30 8157 H 815.432 2.90741 3.05037 0
M  V30 8158 H 814.156 1.6915 2.79385 0
M  V30 8159 H 812.815 3.36013 1.46597 0
M  V30 8160 H 812.463 3.13698 3.93195 0
M  V30 8161 H 812.163 4.80482 3.38247 0
M  V30 8162 H 813.687 4.40735 4.22593 0
M  V30 8163 H 815.101 5.3168 2.14451 0
M  V30 8164 H 813.498 5.80484 1.52178 0
M  V30 8165 H 814.568 4.8226 0.505259 0
M  V30 8166 N 815.911 -0.310526 1.54511 0
M  V30 8167 C 816.821 -1.4054 1.87844 0
M  V30 8168 C 817.837 -1.55954 0.771635 0
M  V30 8169 O 819.013 -1.70801 1.06719 0
M  V30 8170 C 816.078 -2.75063 2.11048 0
M  V30 8171 C 815.139 -2.68715 3.348 0
M  V30 8172 C 814.372 -3.96821 3.56887 0
M  V30 8173 O 814.595 -4.95721 2.82165 0
M  V30 8174 O 813.529 -3.99291 4.50389 0
M  V30 8175 H 817.355 -1.15275 2.80972 0
M  V30 8176 H 814.94 -0.505732 1.4058 0
M  V30 8177 H 816.822 -3.54671 2.27566 0
M  V30 8178 H 815.497 -3.00191 1.21108 0
M  V30 8179 H 814.404 -1.87611 3.23655 0
M  V30 8180 H 815.737 -2.4854 4.2484 0
M  V30 8181 N 817.389 -1.46805 -0.573248 0
M  V30 8182 C 818.352 -1.57655 -1.66366 0
M  V30 8183 C 819.352 -0.452905 -1.5429 0
M  V30 8184 O 820.542 -0.717502 -1.58737 0
M  V30 8185 C 817.674 -1.50584 -3.05839 0
M  V30 8186 H 818.867 -2.54842 -1.581 0
M  V30 8187 H 816.42 -1.34756 -0.791868 0
M  V30 8188 H 817.155 -0.547127 -3.19651 0
M  V30 8189 H 816.94 -2.32118 -3.16012 0
M  V30 8190 H 818.43 -1.61282 -3.85199 0
M  V30 8191 N 818.867 0.818669 -1.34668 0
M  V30 8192 C 820.144 1.56118 -1.17841 0
M  V30 8193 C 820.524 2.09646 0.24731 0
M  V30 8194 O 819.872 1.91329 1.24922 0
M  V30 8195 C 820.082 2.67922 -2.23649 0
M  V30 8196 C 821.43 3.36579 -2.58843 0
M  V30 8197 O 822.454 2.78182 -2.22471 0
M  V30 8198 O 821.313 4.42045 -3.21339 0
M  V30 8199 H 818.407 0.689216 -0.457067 0
M  V30 8200 H 820.953 0.859674 -1.46314 0
M  V30 8201 H 819.725 2.26153 -3.19328 0
M  V30 8202 H 819.348 3.45719 -1.96377 0
M  V30 8203 N 820.346 1.18468 1.03938 0
M  V30 8204 C 821.296 0.880799 2.103 0
M  V30 8205 C 822.28 -0.150008 1.60199 0
M  V30 8206 O 823.472 0.054213 1.76917 0
M  V30 8207 C 820.601 0.409723 3.40846 0
M  V30 8208 C 819.687 1.47267 3.9771 0
M  V30 8209 N 820.078 2.68945 4.28371 0
M  V30 8210 C 818.376 1.33349 4.25598 0
M  V30 8211 C 819.077 3.37341 4.73894 0
M  V30 8212 N 818.053 2.64725 4.74786 0
M  V30 8213 H 821.855 1.80574 2.31884 0
M  V30 8214 H 819.369 1.07527 1.21703 0
M  V30 8215 H 821.366 0.17352 4.16539 0
M  V30 8216 H 820.026 -0.508862 3.20688 0
M  V30 8217 H 821.037 3.05801 4.17978 0
M  V30 8218 H 817.714 0.477548 4.1476 0
M  V30 8219 H 819.104 4.41338 5.06627 0
M  V30 8220 N 821.824 -1.22873 0.986916 0
M  V30 8221 C 823.052 -1.95487 0.677663 0
M  V30 8222 C 823.467 -1.72978 -0.756572 0
M  V30 8223 O 822.824 -1.02517 -1.50985 0
M  V30 8224 C 822.875 -3.48337 0.966638 0
M  V30 8225 O 822.596 -3.70087 2.34451 0
M  V30 8226 C 824.097 -4.38142 0.674248 0
M  V30 8227 H 821.317 -0.622211 0.251185 0
M  V30 8228 H 823.861 -1.56187 1.32007 0
M  V30 8229 H 822.016 -3.85628 0.370137 0
M  V30 8230 H 822.43 -4.64332 2.43918 0
M  V30 8231 H 823.904 -5.44165 0.926759 0
M  V30 8232 H 824.381 -4.3745 -0.391728 0
M  V30 8233 H 824.987 -4.06469 1.25152 0
M  V30 8234 N 823.302 -0.75937 -1.38099 0
M  V30 8235 C 824.713 -0.385078 -1.82686 0
M  V30 8236 C 825.064 1.0871 -1.6333 0
M  V30 8237 O 824.189 1.84084 -1.13762 0
M  V30 8238 C 824.784 -0.692161 -3.31654 0
M  V30 8239 C 823.343 -0.371077 -3.74566 0
M  V30 8240 C 822.49 -0.942375 -2.60796 0
M  V30 8241 H 825.441 -0.955048 -1.26746 0
M  V30 8242 H 825.462 0.0276001 -3.8049 0
M  V30 8243 H 824.974 -1.76369 -3.4571 0
M  V30 8244 H 823.075 0.693637 -3.66087 0
M  V30 8245 H 823.188 -0.870672 -4.71122 0
M  V30 8246 H 821.552 -0.367383 -2.52036 0
M  V30 8247 H 822.335 -2.01905 -2.77649 0
M  V30 8248 N 824.78 1.49157 -0.508906 0
M  V30 8249 C 825.73 2.26215 0.284705 0
M  V30 8250 C 826.714 1.31401 0.928586 0
M  V30 8251 O 827.906 1.56073 0.834877 0
M  V30 8252 C 825.035 3.15906 1.34382 0
M  V30 8253 C 824.121 4.18186 0.705785 0
M  V30 8254 N 824.512 5.05419 -0.196214 0
M  V30 8255 C 822.81 4.35425 0.965457 0
M  V30 8256 C 823.511 5.78977 -0.562222 0
M  V30 8257 N 822.487 5.43553 0.0717389 0
M  V30 8258 H 826.289 2.91033 -0.409543 0
M  V30 8259 H 823.803 1.59104 -0.325508 0
M  V30 8260 H 825.8 3.6975 1.92589 0
M  V30 8261 H 824.46 2.52642 2.03966 0
M  V30 8262 H 825.471 5.14781 -0.567526 0
M  V30 8263 H 822.148 3.83363 1.65346 0
M  V30 8264 H 823.538 6.59192 -1.30062 0
M  V30 8265 N 826.258 0.243083 1.55714 0
M  V30 8266 C 827.488 -0.38641 2.02954 0
M  V30 8267 C 827.896 -1.52358 1.12177 0
M  V30 8268 O 827.239 -1.83255 0.127853 0
M  V30 8269 C 827.301 -0.959388 3.46462 0
M  V30 8270 C 826.965 0.0450546 4.56978 0
M  V30 8271 C 827.962 0.853224 5.12851 0
M  V30 8272 C 825.647 0.170041 5.02012 0
M  V30 8273 C 827.641 1.77288 6.12248 0
M  V30 8274 C 825.328 1.0932 6.01242 0
M  V30 8275 C 826.326 1.89315 6.56238 0
M  V30 8276 O 826.014 2.80075 7.53534 0
M  V30 8277 H 825.746 -0.0964333 0.669086 0
M  V30 8278 H 828.3 0.363399 2.0216 0
M  V30 8279 H 826.53 -1.75869 3.44394 0
M  V30 8280 H 828.219 -1.49856 3.77224 0
M  V30 8281 H 828.985 0.767229 4.78893 0
M  V30 8282 H 824.864 -0.442528 4.58871 0
M  V30 8283 H 828.408 2.39768 6.55101 0
M  V30 8284 H 824.305 1.18013 6.3462 0
M  V30 8285 H 825.073 2.74393 7.71136 0
M  V30 8286 N 827.736 -1.57571 -0.0300757 0
M  V30 8287 C 829.147 -1.77567 -0.576802 0
M  V30 8288 C 829.498 -0.874034 -1.75656 0
M  V30 8289 O 828.623 -0.0686124 -2.16291 0
M  V30 8290 C 829.218 -3.22016 -1.05315 0
M  V30 8291 C 827.777 -3.43212 -1.5454 0
M  V30 8292 C 826.924 -2.73061 -0.483033 0
M  V30 8293 H 829.875 -1.57483 0.196151 0
M  V30 8294 H 829.896 -3.28474 -1.92055 0
M  V30 8295 H 829.408 -3.87613 -0.194298 0
M  V30 8296 H 827.509 -2.82788 -2.42615 0
M  V30 8297 H 827.622 -4.5182 -1.5936 0
M  V30 8298 H 825.986 -2.36805 -0.937835 0
M  V30 8299 H 826.769 -3.4134 0.366341 0
M  V30 8300 N 829.214 0.302327 -1.54673 0
M  V30 8301 C 830.124 1.39542 -1.88587 0
M  V30 8302 C 831.14 1.55543 -0.779895 0
M  V30 8303 O 832.316 1.70233 -1.07623 0
M  V30 8304 C 829.381 2.7394 -2.12504 0
M  V30 8305 C 828.442 2.66935 -3.3622 0
M  V30 8306 C 827.675 3.94923 -3.58987 0
M  V30 8307 O 827.898 4.94218 -2.84789 0
M  V30 8308 O 826.832 3.96896 -4.52501 0
M  V30 8309 H 830.658 1.13784 -2.81579 0
M  V30 8310 H 828.243 0.49827 -1.40846 0
M  V30 8311 H 830.125 3.5346 -2.29443 0
M  V30 8312 H 828.8 2.99544 -1.22698 0
M  V30 8313 H 827.707 1.85892 -3.24646 0
M  V30 8314 H 829.04 2.46283 -4.26152 0
M  V30 8315 N 830.692 1.47107 0.565454 0
M  V30 8316 C 831.624 1.55024 1.6882 0
M  V30 8317 C 832.637 0.4371 1.56822 0
M  V30 8318 O 833.826 0.706315 1.63931 0
M  V30 8319 C 830.926 1.43069 3.0722 0
M  V30 8320 C 830.099 2.68807 3.45053 0
M  V30 8321 C 829.158 2.50806 4.62583 0
M  V30 8322 O 828.184 3.24593 4.67577 0
M  V30 8323 N 829.386 1.58093 5.58558 0
M  V30 8324 H 832.151 2.51836 1.62477 0
M  V30 8325 H 829.712 1.43382 0.751885 0
M  V30 8326 H 831.704 1.28773 3.83666 0
M  V30 8327 H 830.274 0.543721 3.07835 0
M  V30 8328 H 829.494 2.97923 2.58138 0
M  V30 8329 H 830.782 3.52298 3.67101 0
M  V30 8330 H 830.18 0.972807 5.57273 0
M  V30 8331 H 828.737 1.49753 6.34364 0
M  V30 8332 N 832.17 -0.811516 1.35101 0
M  V30 8333 C 833.08 -1.95475 1.29718 0
M  V30 8334 C 834.096 -1.72813 0.202909 0
M  V30 8335 O 835.272 -1.96725 0.431414 0
M  V30 8336 C 832.337 -3.29975 1.06385 0
M  V30 8337 C 831.398 -3.65566 2.25077 0
M  V30 8338 C 830.631 -4.93648 2.02848 0
M  V30 8339 O 830.854 -5.617 0.992442 0
M  V30 8340 O 829.788 -5.27384 2.90087 0
M  V30 8341 H 833.614 -2.02961 2.25921 0
M  V30 8342 H 831.199 -0.948583 1.15422 0
M  V30 8343 H 833.081 -4.10506 0.951999 0
M  V30 8344 H 831.756 -3.2343 0.132294 0
M  V30 8345 H 830.663 -2.85432 2.41825 0
M  V30 8346 H 831.996 -3.7681 3.16662 0
M  V30 8347 N 833.648 -1.19017 -1.03309 0
M  V30 8348 C 834.876 -1.01534 -1.80273 0
M  V30 8349 C 835.291 0.43605 -1.83696 0
M  V30 8350 O 834.648 1.30288 -1.27794 0
M  V30 8351 C 834.699 -1.5722 -3.25522 0
M  V30 8352 O 834.42 -2.96677 -3.22358 0
M  V30 8353 C 835.921 -1.4446 -4.19102 0
M  V30 8354 H 833.141 -0.358094 -0.567459 0
M  V30 8355 H 835.685 -1.57738 -1.3015 0
M  V30 8356 H 833.84 -1.05174 -3.7285 0
M  V30 8357 H 834.254 -3.22795 -4.13405 0
M  V30 8358 H 835.728 -1.88209 -5.18923 0
M  V30 8359 H 836.205 -0.394471 -4.37425 0
M  V30 8360 H 836.811 -1.95616 -3.77643 0
M  V30 8361 N 835.127 1.22348 -0.993418 0
M  V30 8362 C 836.037 2.27987 -0.553076 0
M  V30 8363 C 837.053 1.69378 0.398386 0
M  V30 8364 O 838.229 1.99648 0.26509 0
M  V30 8365 C 835.294 3.46475 0.124809 0
M  V30 8366 C 834.355 4.20399 -0.869682 0
M  V30 8367 C 833.588 5.33229 -0.224052 0
M  V30 8368 O 833.811 5.61885 0.981915 0
M  V30 8369 O 832.745 5.94685 -0.929174 0
M  V30 8370 H 836.571 2.67822 -1.43195 0
M  V30 8371 H 834.156 1.28525 -0.761694 0
M  V30 8372 H 836.038 4.18369 0.504496 0
M  V30 8373 H 834.713 3.08565 0.978243 0
M  V30 8374 H 833.62 3.50774 -1.30031 0
M  V30 8375 H 834.953 4.62191 -1.69233 0
M  V30 8376 N 836.605 0.766683 1.37694 0
M  V30 8377 C 838.016 0.394761 1.82479 0
M  V30 8378 C 838.367 -1.07842 1.63904 0
M  V30 8379 O 837.492 -1.83479 1.14737 0
M  V30 8380 C 838.087 0.70974 3.31283 0
M  V30 8381 C 836.646 0.390936 3.74364 0
M  V30 8382 C 835.793 0.956192 2.60293 0
M  V30 8383 H 838.744 0.961756 1.26238 0
M  V30 8384 H 838.765 -0.00742144 3.80499 0
M  V30 8385 H 838.277 1.782 3.4477 0
M  V30 8386 H 836.378 -0.674213 3.66449 0
M  V30 8387 H 836.491 0.895645 4.70654 0
M  V30 8388 H 834.855 0.380744 2.51838 0
M  V30 8389 H 835.638 2.03375 2.76575 0
M  V30 8390 N 838.083 -1.48885 0.516809 0
M  V30 8391 C 839.494 -1.86557 0.0729921 0
M  V30 8392 C 839.845 -1.42767 -1.34581 0
M  V30 8393 O 838.97 -0.812514 -2.00567 0
M  V30 8394 C 839.565 -3.38567 0.125686 0
M  V30 8395 C 838.124 -3.75481 -0.262867 0
M  V30 8396 C 837.271 -2.72913 0.491281 0
M  V30 8397 H 840.222 -1.40978 0.728767 0
M  V30 8398 H 840.243 -3.74629 -0.665831 0
M  V30 8399 H 839.755 -3.70408 1.15842 0
M  V30 8400 H 837.856 -3.49251 -1.29824 0
M  V30 8401 H 837.969 -4.79052 0.067579 0
M  V30 8402 H 836.333 -2.54627 -0.0608525 0
M  V30 8403 H 837.116 -3.07599 1.5244 0
M  V30 8404 N 839.561 -0.251338 -1.55583 0
M  V30 8405 C 840.491 0.640437 -2.24545 0
M  V30 8406 C 841.472 1.17781 -1.22726 0
M  V30 8407 O 842.657 1.21633 -1.5139 0
M  V30 8408 C 839.787 1.8355 -2.94834 0
M  V30 8409 C 838.741 1.4307 -4.03379 0
M  V30 8410 C 838.067 2.70695 -4.61116 0
M  V30 8411 C 839.367 0.59848 -5.1886 0
M  V30 8412 H 841.061 0.0653772 -2.99329 0
M  V30 8413 H 838.607 0.0300042 -1.43969 0
M  V30 8414 H 840.56 2.46505 -3.4178 0
M  V30 8415 H 839.284 2.43601 -2.17546 0
M  V30 8416 H 837.943 0.824474 -3.57209 0
M  V30 8417 H 837.591 3.28954 -3.80524 0
M  V30 8418 H 837.291 2.44332 -5.34393 0
M  V30 8419 H 838.815 3.34541 -5.10798 0
M  V30 8420 H 840.229 1.13244 -5.62004 0
M  V30 8421 H 838.626 0.430728 -5.98552 0
M  V30 8422 H 839.696 -0.38829 -4.83343 0
M  V30 8423 N 841.039 1.57585 0.0217189 0
M  V30 8424 C 842.287 1.89231 0.709641 0
M  V30 8425 C 842.608 0.849964 1.75501 0
M  V30 8426 O 841.878 -0.115485 1.95559 0
M  V30 8427 H 840.458 0.69838 0.265092 0
M  V30 8428 H 843.12 1.94895 -0.0140688 0
M  V30 8429 H 842.216 2.88333 1.19459 0
M  V30 8430 N 842.517 -0.29412 1.54831 0
M  V30 8431 C 843.742 -1.05156 1.78765 0
M  V30 8432 C 844.167 -1.79916 0.548809 0
M  V30 8433 O 843.525 -1.74243 -0.500909 0
M  V30 8434 C 843.573 -2.00242 2.99893 0
M  V30 8435 O 842.677 -3.08662 2.73499 0
M  V30 8436 H 842.018 -0.301737 0.591482 0
M  V30 8437 H 844.548 -0.329449 2.0193 0
M  V30 8438 H 844.558 -2.42583 3.28051 0
M  V30 8439 H 843.233 -1.45235 3.89717 0
M  V30 8440 H 841.81 -2.70786 2.56377 0
M  V30 8441 N 843.995 -1.47404 -0.557645 0
M  V30 8442 C 845.235 -1.55585 -1.32562 0
M  V30 8443 C 845.599 -0.212926 -1.90816 0
M  V30 8444 O 846.8 -0.169574 -2.68265 0
M  V30 8445 C 845.071 -2.64249 -2.40639 0
M  V30 8446 S 846.63 -2.9201 -3.2753 0
M  V30 8447 H 843.448 -0.549409 -0.451298 0
M  V30 8448 H 846.05 -1.84782 -0.638438 0
M  V30 8449 H 844.754 -3.60421 -1.96277 0
M  V30 8450 H 844.285 -2.36866 -3.14099 0
M  V30 8451 H 846.3 -2.29191 -4.40098 0
M  V30 8452 N 845.473 0.80434 -1.35529 0
M  V30 8453 C 846.698 1.598 -1.32207 0
M  V30 8454 C 847.123 1.87848 0.0974226 0
M  V30 8455 O 846.481 1.46728 1.06492 0
M  V30 8456 C 846.529 2.90483 -2.13663 0
M  V30 8457 O 845.633 3.83411 -1.51888 0
M  V30 8458 H 844.974 0.485305 -0.453183 0
M  V30 8459 H 847.504 0.998119 -1.78602 0
M  V30 8460 H 847.514 3.39888 -2.257 0
M  V30 8461 H 846.189 2.69395 -3.16859 0
M  V30 8462 H 844.766 3.41967 -1.48704 0
M  V30 8463 N 846.951 1.19563 1.02676 0
M  V30 8464 C 848.228 0.908857 1.73203 0
M  V30 8465 C 848.608 -0.584928 2.02834 0
M  V30 8466 O 847.956 -1.54372 1.68469 0
M  V30 8467 C 848.166 1.77105 3.00724 0
M  V30 8468 C 849.514 2.00667 3.7419 0
M  V30 8469 O 850.538 1.74274 3.10656 0
M  V30 8470 O 849.397 2.4518 4.88415 0
M  V30 8471 H 846.491 0.338909 0.754367 0
M  V30 8472 H 849.037 1.30387 1.08616 0
M  V30 8473 H 847.809 2.78303 2.7507 0
M  V30 8474 H 847.432 1.37546 3.73051 0
M  V30 8475 N 848.429 -1.21819 0.999893 0
M  V30 8476 C 849.675 -1.91035 0.680701 0
M  V30 8477 C 850.008 -1.77582 -0.786021 0
M  V30 8478 O 849.283 -1.14917 -1.56921 0
M  V30 8479 C 849.566 -3.43013 1.0961 0
M  V30 8480 C 849.419 -3.65481 2.6219 0
M  V30 8481 C 850.738 -4.35204 0.654616 0
M  V30 8482 H 847.857 -0.693748 0.248763 0
M  V30 8483 H 850.499 -1.43555 1.24466 0
M  V30 8484 H 848.649 -3.83581 0.616253 0
M  V30 8485 H 850.321 -3.34273 3.17899 0
M  V30 8486 H 848.564 -3.09522 3.03938 0
M  V30 8487 H 849.235 -4.71945 2.86307 0
M  V30 8488 H 851.711 -4.0219 1.06688 0
M  V30 8489 H 850.587 -5.40198 0.973492 0
M  V30 8490 H 850.848 -4.3986 -0.444458 0
M  V30 8491 N 849.908 -0.773975 -1.37286 0
M  V30 8492 C 850.841 -0.108019 -2.27944 0
M  V30 8493 C 851.819 0.706737 -1.46438 0
M  V30 8494 O 853.003 0.681025 -1.75768 0
M  V30 8495 C 850.13 0.853199 -3.27778 0
M  V30 8496 C 849.176 0.122164 -4.26325 0
M  V30 8497 S 850.009 -1.19136 -5.22079 0
M  V30 8498 C 851.165 -0.233737 -6.25463 0
M  V30 8499 H 851.398 -0.876743 -2.84078 0
M  V30 8500 H 848.931 -0.567468 -1.43594 0
M  V30 8501 H 850.889 1.40238 -3.85803 0
M  V30 8502 H 849.55 1.59505 -2.70586 0
M  V30 8503 H 848.743 0.850926 -4.96765 0
M  V30 8504 H 848.345 -0.356079 -3.72301 0
M  V30 8505 H 850.637 0.59305 -6.74899 0
M  V30 8506 H 851.58 -0.906373 -7.02275 0
M  V30 8507 H 851.988 0.156048 -5.64284 0
M  V30 8508 N 851.386 1.48609 -0.524698 0
M  V30 8509 C 852.316 2.32366 0.229837 0
M  V30 8510 C 853.297 1.41759 0.940129 0
M  V30 8511 O 854.482 1.7065 0.926936 0
M  V30 8512 C 851.612 3.22835 1.28043 0
M  V30 8513 C 850.566 4.22424 0.688603 0
M  V30 8514 C 849.892 5.0199 1.84146 0
M  V30 8515 C 851.192 5.21217 -0.336176 0
M  V30 8516 H 852.886 2.95698 -0.469339 0
M  V30 8517 H 850.432 1.42197 -0.227156 0
M  V30 8518 H 852.385 3.80253 1.8162 0
M  V30 8519 H 851.109 2.57492 2.00912 0
M  V30 8520 H 849.768 3.66185 0.174402 0
M  V30 8521 H 849.416 4.33076 2.5584 0
M  V30 8522 H 849.116 5.69392 1.45142 0
M  V30 8523 H 850.64 5.62259 2.38111 0
M  V30 8524 H 852.054 5.7319 0.112307 0
M  V30 8525 H 850.451 5.96642 -0.643324 0
M  V30 8526 H 851.521 4.68676 -1.24381 0
M  V30 8527 N 852.864 0.259585 1.55447 0
M  V30 8528 C 854.089 -0.368317 2.04103 0
M  V30 8529 C 854.514 -1.49827 1.13725 0
M  V30 8530 O 853.872 -1.80814 0.132705 0
M  V30 8531 C 853.92 -0.841506 3.50644 0
M  V30 8532 O 853.024 -1.95008 3.63381 0
M  V30 8533 H 852.365 -0.0785227 0.659341 0
M  V30 8534 H 854.895 0.389349 2.00861 0
M  V30 8535 H 854.905 -1.14138 3.9171 0
M  V30 8536 H 853.58 -0.0147001 4.15897 0
M  V30 8537 H 852.157 -1.65393 3.34215 0
M  V30 8538 N 854.342 -1.57594 -0.0133615 0
M  V30 8539 C 855.588 -1.90262 -0.702019 0
M  V30 8540 C 855.921 -0.859219 -1.74158 0
M  V30 8541 O 855.196 0.123778 -1.94106 0
M  V30 8542 C 855.479 -3.3354 -1.35732 0
M  V30 8543 C 855.332 -4.48586 -0.330208 0
M  V30 8544 C 856.651 -3.76004 -2.28712 0
M  V30 8545 H 853.77 -0.691943 -0.253739 0
M  V30 8546 H 856.412 -1.89967 0.0351894 0
M  V30 8547 H 854.562 -3.33921 -1.98567 0
M  V30 8548 H 856.234 -4.6034 0.297433 0
M  V30 8549 H 854.477 -4.32394 0.348926 0
M  V30 8550 H 855.148 -5.45762 -0.827508 0
M  V30 8551 H 857.624 -3.77089 -1.75906 0
M  V30 8552 H 856.5 -4.77032 -2.71535 0
M  V30 8553 H 856.761 -3.09129 -3.16056 0
M  V30 8554 N 855.82 0.285905 -1.54985 0
M  V30 8555 C 856.73 1.37534 -1.90057 0
M  V30 8556 C 857.746 1.54707 -0.796348 0
M  V30 8557 O 858.922 1.69082 -1.09423 0
M  V30 8558 C 855.987 2.7167 -2.15398 0
M  V30 8559 C 855.048 2.63354 -3.39033 0
M  V30 8560 C 854.281 3.91093 -3.63155 0
M  V30 8561 O 854.504 4.91169 -2.90015 0
M  V30 8562 O 853.438 3.92075 -4.56685 0
M  V30 8563 H 857.264 1.10791 -2.8277 0
M  V30 8564 H 854.849 0.483303 -1.41367 0
M  V30 8565 H 856.731 3.51006 -2.33179 0
M  V30 8566 H 855.406 2.98226 -1.25868 0
M  V30 8567 H 854.313 1.82438 -3.26599 0
M  V30 8568 H 855.646 2.41749 -4.2874 0
M  V30 8569 N 857.298 1.47698 0.54982 0
M  V30 8570 C 858.208 1.63386 1.68351 0
M  V30 8571 C 859.224 0.516583 1.66155 0
M  V30 8572 O 860.4 0.785088 1.85468 0
M  V30 8573 C 857.465 1.6513 3.04849 0
M  V30 8574 C 856.526 2.88338 3.18056 0
M  V30 8575 C 855.759 2.8999 4.48042 0
M  V30 8576 O 855.982 2.00633 5.3395 0
M  V30 8577 O 854.916 3.81938 4.65196 0
M  V30 8578 H 858.742 2.59329 1.58057 0
M  V30 8579 H 856.327 1.30869 0.72067 0
M  V30 8580 H 858.209 1.68913 3.86065 0
M  V30 8581 H 856.884 0.723555 3.1551 0
M  V30 8582 H 855.791 2.90097 2.36209 0
M  V30 8583 H 857.124 3.80431 3.12302 0
M  V30 8584 N 858.776 -0.797141 1.35954 0
M  V30 8585 C 859.686 -1.94088 1.31784 0
M  V30 8586 C 860.702 -1.72588 0.221227 0
M  V30 8587 O 861.878 -1.96256 0.452255 0
M  V30 8588 C 858.943 -3.28828 1.09878 0
M  V30 8589 C 858.004 -3.63158 2.28942 0
M  V30 8590 C 857.237 -4.91469 2.08072 0
M  V30 8591 O 857.46 -5.60616 1.05196 0
M  V30 8592 O 856.394 -5.24277 2.95664 0
M  V30 8593 H 860.22 -2.00554 2.28061 0
M  V30 8594 H 857.805 -0.936288 1.16422 0
M  V30 8595 H 859.687 -4.09473 0.995485 0
M  V30 8596 H 858.362 -3.23271 0.16659 0
M  V30 8597 H 857.269 -2.82851 2.44839 0
M  V30 8598 H 858.602 -3.7343 3.20641 0
M  V30 8599 N 860.254 -1.20106 -1.0204 0
M  V30 8600 C 861.502 -1.0069 -1.75231 0
M  V30 8601 C 861.823 0.462491 -1.89436 0
M  V30 8602 O 861.093 1.33455 -1.4341 0
M  V30 8603 H 859.673 -0.369576 -0.649171 0
M  V30 8604 H 862.335 -1.51149 -1.23044 0
M  V30 8605 H 861.431 -1.46205 -2.75736 0
M  V30 8606 N 861.732 1.21287 -1.00634 0
M  V30 8607 C 862.679 2.23705 -0.567876 0
M  V30 8608 C 863.649 1.61043 0.406753 0
M  V30 8609 O 864.834 1.88289 0.308499 0
M  V30 8610 C 861.974 3.44961 0.097996 0
M  V30 8611 C 861.087 4.22091 -0.919972 0
M  V30 8612 C 860.222 5.30718 -0.226222 0
M  V30 8613 C 859.261 5.99581 -1.23165 0
M  V30 8614 N 858.398 6.99821 -0.565278 0
M  V30 8615 H 863.238 2.60571 -1.44592 0
M  V30 8616 H 860.775 1.28049 -0.724006 0
M  V30 8617 H 862.733 4.1418 0.501097 0
M  V30 8618 H 861.363 3.08818 0.939744 0
M  V30 8619 H 860.415 3.52038 -1.44131 0
M  V30 8620 H 861.727 4.69476 -1.68505 0
M  V30 8621 H 860.881 6.06253 0.232917 0
M  V30 8622 H 859.62 4.84343 0.571247 0
M  V30 8623 H 858.625 5.22816 -1.70128 0
M  V30 8624 H 859.85 6.48042 -2.03022 0
M  V30 8625 H 857.796 6.55656 0.212508 0
M  V30 8626 H 857.713 7.4528 -1.26858 0
M  V30 8627 H 858.981 7.79393 -0.129389 0
M  V30 8628 N 863.21 0.781244 1.36873 0
M  V30 8629 C 864.12 0.174981 2.33947 0
M  V30 8630 C 865.136 -0.668512 1.60645 0
M  V30 8631 O 866.312 -0.586213 1.9268 0
M  V30 8632 C 863.377 -0.686557 3.39834 0
M  V30 8633 C 862.438 0.174489 4.28945 0
M  V30 8634 C 861.671 -0.646024 5.29776 0
M  V30 8635 O 861.894 -1.88254 5.38439 0
M  V30 8636 O 860.828 -0.0502214 6.01879 0
M  V30 8637 H 864.654 0.977382 2.87543 0
M  V30 8638 H 862.239 0.542559 1.392 0
M  V30 8639 H 864.121 -1.1781 4.04597 0
M  V30 8640 H 862.796 -1.46699 2.8855 0
M  V30 8641 H 861.703 0.712604 3.6725 0
M  V30 8642 H 863.036 0.918232 4.83559 0
M  V30 8643 N 864.689 -1.48329 0.532571 0
M  V30 8644 C 865.966 -1.95492 -0.0650985 0
M  V30 8645 C 866.346 -1.47485 -1.51034 0
M  V30 8646 O 865.694 -0.702516 -2.17433 0
M  V30 8647 C 865.904 -3.48957 0.0548341 0
M  V30 8648 C 867.252 -4.24475 -0.103115 0
M  V30 8649 O 868.276 -3.56195 -0.0188343 0
M  V30 8650 O 867.135 -5.45781 -0.280164 0
M  V30 8651 H 864.229 -0.823327 -0.0778603 0
M  V30 8652 H 866.775 -1.58839 0.597353 0
M  V30 8653 H 865.547 -3.76628 1.06148 0
M  V30 8654 H 865.17 -3.92311 -0.64635 0
M  V30 8655 N 866.167 -0.267825 -1.55308 0
M  V30 8656 C 867.578 0.231344 -1.85261 0
M  V30 8657 C 867.929 1.56006 -1.18982 0
M  V30 8658 O 867.054 2.1111 -0.475554 0
M  V30 8659 C 867.649 0.426537 -3.36104 0
M  V30 8660 C 866.208 0.869945 -3.66209 0
M  V30 8661 C 865.355 -0.0409522 -2.7727 0
M  V30 8662 H 868.306 -0.489821 -1.50952 0
M  V30 8663 H 868.327 1.26616 -3.58816 0
M  V30 8664 H 867.839 -0.540678 -3.84315 0
M  V30 8665 H 865.94 1.84889 -3.23492 0
M  V30 8666 H 866.053 0.712316 -4.73775 0
M  V30 8667 H 864.417 0.474097 -2.50249 0
M  V30 8668 H 865.2 -1.00392 -3.28293 0
M  V30 8669 N 867.645 1.57599 0.00500368 0
M  V30 8670 C 868.575 2.11143 0.99705 0
M  V30 8671 C 869.556 1.0194 1.3617 0
M  V30 8672 O 870.741 1.29596 1.44632 0
M  V30 8673 C 867.871 2.61062 2.2905 0
M  V30 8674 C 866.825 3.74745 2.0676 0
M  V30 8675 C 866.151 4.10961 3.42075 0
M  V30 8676 C 867.451 5.02222 1.43424 0
M  V30 8677 H 869.145 2.94281 0.551251 0
M  V30 8678 H 866.691 1.41565 0.263715 0
M  V30 8679 H 868.644 2.97146 2.98801 0
M  V30 8680 H 867.368 1.75038 2.75734 0
M  V30 8681 H 866.027 3.39047 1.39436 0
M  V30 8682 H 865.675 3.21968 3.86453 0
M  V30 8683 H 865.375 4.87549 3.27979 0
M  V30 8684 H 866.899 4.49599 4.1315 0
M  V30 8685 H 868.313 5.36109 2.03125 0
M  V30 8686 H 866.71 5.83581 1.39831 0
M  V30 8687 H 867.78 4.83224 0.40285 0
M  V30 8688 N 869.123 -0.277682 1.55134 0
M  V30 8689 C 870.534 -0.849063 1.66276 0
M  V30 8690 C 870.885 -1.87223 0.5867 0
M  V30 8691 O 870.01 -2.14676 -0.272635 0
M  V30 8692 C 870.605 -1.54681 3.01429 0
M  V30 8693 C 869.164 -2.06628 3.14614 0
M  V30 8694 C 868.311 -0.906748 2.62056 0
M  V30 8695 H 871.262 -0.0541357 1.58608 0
M  V30 8696 H 871.283 -2.41356 2.94156 0
M  V30 8697 H 870.795 -0.80189 3.79725 0
M  V30 8698 H 868.896 -2.84095 2.41082 0
M  V30 8699 H 869.009 -2.2848 4.2111 0
M  V30 8700 H 867.373 -1.29882 2.19095 0
M  V30 8701 H 868.156 -0.175414 3.42852 0
M  V30 8702 N 870.601 -1.47988 -0.541979 0
M  V30 8703 C 871.829 -1.59034 -1.32347 0
M  V30 8704 C 872.244 -0.246123 -1.87189 0
M  V30 8705 O 871.601 0.762889 -1.6579 0
M  V30 8706 C 871.652 -2.62759 -2.48274 0
M  V30 8707 O 871.373 -3.91963 -1.95695 0
M  V30 8708 C 872.874 -2.84133 -3.4027 0
M  V30 8709 H 870.094 -0.536574 -0.402901 0
M  V30 8710 H 872.638 -1.93725 -0.655045 0
M  V30 8711 H 870.793 -2.3096 -3.11025 0
M  V30 8712 H 871.207 -4.48769 -2.7149 0
M  V30 8713 H 872.681 -3.60538 -4.17991 0
M  V30 8714 H 873.158 -1.92512 -3.9476 0
M  V30 8715 H 873.764 -3.17188 -2.83322 0
M  V30 8716 N 872.079 0.78992 -1.36375 0
M  V30 8717 C 873.042 1.88414 -1.30509 0
M  V30 8718 C 874.042 1.59384 -0.2129 0
M  V30 8719 O 875.232 1.67805 -0.467651 0
M  V30 8720 C 872.364 3.25188 -1.02302 0
M  V30 8721 H 873.557 1.95031 -2.27822 0
M  V30 8722 H 871.11 0.987664 -1.2114 0
M  V30 8723 H 871.845 3.24254 -0.0544486 0
M  V30 8724 H 871.63 3.47647 -1.81338 0
M  V30 8725 H 873.12 4.05252 -1.00801 0
M  V30 8726 N 873.557 1.20646 1.01402 0
M  V30 8727 C 874.52 0.959314 2.08158 0
M  V30 8728 C 875.52 -0.0661558 1.60664 0
M  V30 8729 O 876.71 0.170177 1.73367 0
M  V30 8730 C 873.842 0.444785 3.37986 0
M  V30 8731 H 875.035 1.90631 2.31517 0
M  V30 8732 H 872.588 1.02219 1.18241 0
M  V30 8733 H 873.323 -0.507553 3.20304 0
M  V30 8734 H 873.108 1.18435 3.73785 0
M  V30 8735 H 874.598 0.291443 4.16582 0
M  V30 8736 N 875.035 -1.20752 1.01276 0
M  V30 8737 C 876.26 -1.94547 0.718769 0
M  V30 8738 C 876.685 -1.7404 -0.713563 0
M  V30 8739 O 876.043 -1.03221 -1.49047 0
M  V30 8740 C 876.091 -3.44823 1.05497 0
M  V30 8741 O 875.195 -4.12072 0.164516 0
M  V30 8742 H 874.536 -0.607931 0.267051 0
M  V30 8743 H 877.066 -1.53292 1.35509 0
M  V30 8744 H 877.076 -3.95427 1.00507 0
M  V30 8745 H 875.751 -3.59072 2.09858 0
M  V30 8746 H 874.328 -3.71909 0.271615 0
M  V30 8747 N 876.513 -0.788492 -1.36457 0
M  V30 8748 C 877.761 -0.359749 -1.98872 0
M  V30 8749 C 878.082 1.07197 -1.62892 0
M  V30 8750 O 877.352 1.73875 -0.902463 0
M  V30 8751 H 875.932 -0.130029 -0.735596 0
M  V30 8752 H 878.594 -1.01033 -1.66668 0
M  V30 8753 H 877.69 -0.450835 -3.08827 0
M  V30 8754 N 877.991 1.48044 -0.54043 0
M  V30 8755 C 878.938 2.29781 0.216597 0
M  V30 8756 C 879.908 1.38021 0.924094 0
M  V30 8757 O 881.093 1.66985 0.923078 0
M  V30 8758 C 878.233 3.21623 1.2511 0
M  V30 8759 C 877.346 4.28467 0.551384 0
M  V30 8760 C 876.481 5.07477 1.56972 0
M  V30 8761 C 875.52 6.06113 0.854048 0
M  V30 8762 N 874.657 6.78143 1.81842 0
M  V30 8763 H 879.497 2.94001 -0.486578 0
M  V30 8764 H 877.034 1.44929 -0.251789 0
M  V30 8765 H 878.992 3.73279 1.8633 0
M  V30 8766 H 877.622 2.59305 1.92252 0
M  V30 8767 H 876.674 3.79997 -0.174982 0
M  V30 8768 H 877.986 4.98799 -0.0100542 0
M  V30 8769 H 877.14 5.63199 2.25592 0
M  V30 8770 H 875.879 4.37008 2.16507 0
M  V30 8771 H 874.884 5.49585 0.153838 0
M  V30 8772 H 876.109 6.78584 0.264675 0
M  V30 8773 H 874.055 6.10417 2.40265 0
M  V30 8774 H 873.972 7.44587 1.3087 0
M  V30 8775 H 875.24 7.38448 2.49628 0
M  V30 8776 O 879.508 0.418012 1.55996 0
M  V30 8777 H 880.199 -0.120381 1.93326 0
M  V30 END ATOM
M  V30 BEGIN BOND
M  V30 END BOND
M  V30 END CTAB
M  END
$$$$
