drugbank_target|P29074 Tyrosine-protein phosphatase non-receptor type 4 (DB00630)
 OpenBabel12092119443D

  0  0  0     0  0            999 V3000
M  V30 BEGIN CTAB
M  V30 COUNTS 14750 14931 0 0 0
M  V30 BEGIN ATOM
M  V30 1 H -0.908 1.98254 -0.117106 0
M  V30 2 N 0 1.576 0 0
M  V30 3 C 0.933 2.03868 1.02534 0
M  V30 4 C 1.911 0.928543 1.3348 0
M  V30 5 O 3.095 1.19667 1.45644 0
M  V30 6 C 0.222 2.43627 2.35294 0
M  V30 7 C -0.732 3.65373 2.2001 0
M  V30 8 S 0.101 5.13292 1.52614 0
M  V30 9 C 1.257 5.56322 2.86805 0
M  V30 10 H 1.49 2.90518 0.631377 0
M  V30 11 H -0.977 1.52953 0.210867 0
M  V30 12 H 0.981 2.67203 3.11629 0
M  V30 13 H -0.358 1.57376 2.7183 0
M  V30 14 H -1.165 3.90944 3.18086 0
M  V30 15 H -1.563 3.418 1.51819 0
M  V30 16 H 0.729 5.58782 3.83104 0
M  V30 17 H 1.672 6.56266 2.65933 0
M  V30 18 H 2.08 4.83886 2.90714 0
M  V30 19 N 1.4781 -0.272755 1.55222 0
M  V30 20 C 2.7061 -1.02255 1.79865 0
M  V30 21 C 3.1211 -1.79924 0.572088 0
M  V30 22 O 2.4781 -1.76638 -0.458842 0
M  V30 23 C 2.5291 -1.98094 3.02392 0
M  V30 24 O 2.2501 -1.23572 4.20311 0
M  V30 25 C 3.7511 -2.84884 3.39641 0
M  V30 26 H 0.9711 -0.302057 0.599168 0
M  V30 27 H 3.5151 -0.303465 2.02236 0
M  V30 28 H 1.6701 -2.65465 2.82147 0
M  V30 29 H 2.0841 -1.88172 4.89583 0
M  V30 30 H 3.5581 -3.47927 4.28545 0
M  V30 31 H 4.0351 -3.54665 2.59055 0
M  V30 32 H 4.6411 -2.23003 3.62146 0
M  V30 33 N 2.9562 -1.48159 -0.537278 0
M  V30 34 C 4.1812 -1.59707 -1.32319 0
M  V30 35 C 4.6062 -0.254859 -1.86365 0
M  V30 36 O 3.9642 0.772378 -1.64024 0
M  V30 37 C 4.0122 -2.6412 -2.45505 0
M  V30 38 O 3.1162 -2.20774 -3.48328 0
M  V30 39 H 2.4572 -0.535791 -0.392204 0
M  V30 40 H 4.9872 -1.94092 -0.647268 0
M  V30 41 H 4.9972 -2.85166 -2.91795 0
M  V30 42 H 3.6722 -3.61567 -2.05528 0
M  V30 43 H 2.2492 -2.09911 -3.08207 0
M  V30 44 N 4.4343 0.785586 -1.36625 0
M  V30 45 C 5.8503 1.08419 -1.17122 0
M  V30 46 C 6.0503 2.015 0.00208491 0
M  V30 47 O 5.1063 2.43551 0.666278 0
M  V30 48 C 6.4193 1.69498 -2.48377 0
M  V30 49 C 7.9673 1.81821 -2.54775 0
M  V30 50 C 8.4423 2.46315 -3.86126 0
M  V30 51 N 9.9333 2.53779 -3.87492 0
M  V30 52 C 10.6683 3.045 -4.85868 0
M  V30 53 N 10.1643 3.55499 -5.94637 0
M  V30 54 N 11.9573 3.03247 -4.73284 0
M  V30 55 H 4.1083 0.167264 -2.1174 0
M  V30 56 H 6.3713 0.13682 -0.938075 0
M  V30 57 H 6.0773 1.08571 -3.34522 0
M  V30 58 H 5.9513 2.6896 -2.64462 0
M  V30 59 H 8.3383 2.41884 -1.69045 0
M  V30 60 H 8.4193 0.811532 -2.42586 0
M  V30 61 H 8.0633 1.86895 -4.72263 0
M  V30 62 H 7.9933 3.47561 -3.95612 0
M  V30 63 H 10.4843 2.17672 -3.08913 0
M  V30 64 H 10.7973 3.92562 -6.65669 0
M  V30 65 H 9.1423 3.5364 -5.98301 0
M  V30 66 H 12.3333 2.62696 -3.87438 0
M  V30 67 H 12.5063 3.42467 -5.50109 0
M  V30 68 N 5.9124 1.20967 1.01018 0
M  V30 69 C 7.1594 1.02374 1.74716 0
M  V30 70 C 7.4874 -0.443375 1.89379 0
M  V30 71 O 6.7424 -1.34535 1.42123 0
M  V30 72 C 7.0414 1.65997 3.16512 0
M  V30 73 C 6.7074 3.15831 3.2181 0
M  V30 74 C 5.3694 3.56719 3.22963 0
M  V30 75 C 7.7214 4.11816 3.19464 0
M  V30 76 C 5.0494 4.92107 3.19449 0
M  V30 77 C 7.4014 5.47158 3.17491 0
M  V30 78 C 6.0654 5.87451 3.16951 0
M  V30 79 H 5.3354 0.374614 0.639332 0
M  V30 80 H 7.9824 1.50485 1.18434 0
M  V30 81 H 6.2874 1.10166 3.75993 0
M  V30 82 H 7.9844 1.49119 3.72242 0
M  V30 83 H 4.5744 2.83263 3.21652 0
M  V30 84 H 8.7584 3.81257 3.17737 0
M  V30 85 H 4.0144 5.22579 3.17366 0
M  V30 86 H 8.1884 6.21274 3.14629 0
M  V30 87 H 5.8154 6.92329 3.13983 0
M  V30 88 N 7.3905 -1.2043 1.01659 0
M  V30 89 C 8.8065 -1.41852 0.731442 0
M  V30 90 C 9.0065 -1.89358 -0.688898 0
M  V30 91 O 8.0625 -2.06247 -1.45666 0
M  V30 92 C 9.3755 -2.44019 1.75714 0
M  V30 93 C 10.9235 -2.57785 1.77527 0
M  V30 94 C 11.3985 -3.63194 2.79023 0
M  V30 95 N 12.8895 -3.70678 2.77763 0
M  V30 96 C 13.6245 -4.51897 3.52954 0
M  V30 97 N 13.1205 -5.36921 4.37821 0
M  V30 98 N 14.9135 -4.4643 3.41551 0
M  V30 99 H 7.0645 -0.879093 1.93354 0
M  V30 100 H 9.3275 -0.448425 0.835236 0
M  V30 101 H 9.0335 -2.1611 2.77469 0
M  V30 102 H 8.9075 -3.43007 1.56927 0
M  V30 103 H 11.2945 -2.85023 0.764569 0
M  V30 104 H 11.3755 -1.58992 2.00387 0
M  V30 105 H 11.0195 -3.36699 3.80258 0
M  V30 106 H 10.9495 -4.61609 2.53425 0
M  V30 107 H 13.4405 -3.09944 2.16201 0
M  V30 108 H 13.7535 -5.95981 4.91962 0
M  V30 109 H 12.0985 -5.36424 4.41899 0
M  V30 110 H 15.2895 -3.79042 2.74672 0
M  V30 111 H 15.4625 -5.09491 4.00404 0
M  V30 112 N 8.8686 -0.792821 -1.36206 0
M  V30 113 C 9.7986 -0.207853 -2.32573 0
M  V30 114 C 10.7796 0.659055 -1.56813 0
M  V30 115 O 11.9646 0.592176 -1.84951 0
M  V30 116 C 9.0946 0.655449 -3.41059 0
M  V30 117 C 8.0486 -0.111842 -4.27854 0
M  V30 118 C 7.3746 0.872274 -5.27537 0
M  V30 119 C 8.6746 -1.30299 -5.05786 0
M  V30 120 H 10.3686 -1.01294 -2.81744 0
M  V30 121 H 7.9146 -0.48854 -1.3546 0
M  V30 122 H 9.8676 1.07464 -4.07467 0
M  V30 123 H 8.5916 1.49328 -2.90463 0
M  V30 124 H 7.2506 -0.512053 -3.63006 0
M  V30 125 H 6.8986 1.70523 -4.73214 0
M  V30 126 H 6.5986 0.363291 -5.86476 0
M  V30 127 H 8.1226 1.28996 -5.96818 0
M  V30 128 H 9.5366 -0.959379 -5.65216 0
M  V30 129 H 7.9336 -1.7455 -5.74154 0
M  V30 130 H 9.0036 -2.09663 -4.37229 0
M  V30 131 N 10.3467 1.47872 -0.545128 0
M  V30 132 C 11.7577 1.86384 -0.108581 0
M  V30 133 C 12.1087 1.45309 1.31832 0
M  V30 134 O 11.2337 0.850641 1.9898 0
M  V30 135 C 11.8287 3.38265 -0.190274 0
M  V30 136 C 10.3877 3.75914 0.191164 0
M  V30 137 C 9.5347 2.71926 -0.543273 0
M  V30 138 H 12.4857 1.39561 -0.755537 0
M  V30 139 H 12.5067 3.75831 0.594217 0
M  V30 140 H 12.0187 3.6813 -1.2289 0
M  V30 141 H 10.1197 3.51665 1.23136 0
M  V30 142 H 10.2327 4.78836 -0.158987 0
M  V30 143 H 8.5967 2.54697 0.0122495 0
M  V30 144 H 9.3797 3.04634 -1.58282 0
M  V30 145 N 11.8248 0.280983 1.55075 0
M  V30 146 C 12.7878 -0.590896 2.21452 0
M  V30 147 C 13.7878 -1.07682 1.19421 0
M  V30 148 O 14.9778 -0.97605 1.44288 0
M  V30 149 C 12.1098 -1.81587 2.88511 0
M  V30 150 H 13.3028 -0.0112554 2.99898 0
M  V30 151 H 10.8558 0.0316438 1.56268 0
M  V30 152 H 11.5908 -2.43587 2.14093 0
M  V30 153 H 11.3758 -1.4753 3.63287 0
M  V30 154 H 12.8658 -2.43575 3.39206 0
M  V30 155 N 13.3029 -1.57598 0.00835791 0
M  V30 156 C 14.5509 -1.90551 -0.6734 0
M  V30 157 C 14.8719 -0.883301 -1.73847 0
M  V30 158 O 14.1419 0.0781442 -1.95744 0
M  V30 159 H 12.7219 -0.703312 -0.251717 0
M  V30 160 H 15.3839 -1.94833 0.0512592 0
M  V30 161 H 14.4799 -2.9056 -1.13935 0
M  V30 162 N 14.781 0.264519 -1.55364 0
M  V30 163 C 16.197 0.61215 -1.47394 0
M  V30 164 C 16.397 1.89134 -0.695018 0
M  V30 165 O 15.453 2.51563 -0.217275 0
M  V30 166 C 16.766 0.731235 -2.91674 0
M  V30 167 C 18.314 0.82473 -3.01939 0
M  V30 168 C 18.789 0.975522 -4.4749 0
M  V30 169 N 20.28 1.04083 -4.51354 0
M  V30 170 C 21.015 1.17646 -5.61201 0
M  V30 171 N 20.511 1.27874 -6.80896 0
M  V30 172 N 22.304 1.20823 -5.48961 0
M  V30 173 H 14.455 -0.575456 -2.04456 0
M  V30 174 H 16.718 -0.196099 -0.927496 0
M  V30 175 H 16.424 -0.138392 -3.51428 0
M  V30 176 H 16.298 1.60883 -3.41169 0
M  V30 177 H 18.685 1.68482 -2.42276 0
M  V30 178 H 18.766 -0.0776479 -2.55682 0
M  V30 179 H 18.41 0.120058 -5.07758 0
M  V30 180 H 18.34 1.89268 -4.91412 0
M  V30 181 H 20.831 0.973846 -3.65136 0
M  V30 182 H 21.144 1.38081 -7.60364 0
M  V30 183 H 19.489 1.24863 -6.83692 0
M  V30 184 H 22.68 1.12469 -4.54388 0
M  V30 185 H 22.853 1.31049 -6.3461 0
M  V30 186 N 16.2591 1.48442 0.529413 0
M  V30 187 C 17.4871 1.60151 1.30994 0
M  V30 188 C 17.9021 0.261985 1.86973 0
M  V30 189 O 17.2591 -0.748805 1.66431 0
M  V30 190 C 17.3101 2.64854 2.46038 0
M  V30 191 O 17.0311 3.93608 1.92365 0
M  V30 192 C 18.5321 2.87007 3.37849 0
M  V30 193 H 15.7521 0.539971 0.398338 0
M  V30 194 H 18.2961 1.94273 0.638597 0
M  V30 195 H 16.4511 2.33589 3.09055 0
M  V30 196 H 16.8651 4.51055 2.67675 0
M  V30 197 H 18.3391 3.64068 4.14919 0
M  V30 198 H 18.8161 1.95852 3.93114 0
M  V30 199 H 19.4221 3.19579 2.80623 0
M  V30 200 N 17.7372 -0.778329 1.37039 0
M  V30 201 C 18.9672 -1.56507 1.34868 0
M  V30 202 C 19.3752 -1.89072 -0.0694802 0
M  V30 203 O 18.7182 -1.51434 -1.03987 0
M  V30 204 C 18.7802 -2.90641 2.11585 0
M  V30 205 C 18.4442 -2.80746 3.60598 0
M  V30 206 C 19.4412 -2.52226 4.54618 0
M  V30 207 C 17.1262 -2.98974 4.03633 0
M  V30 208 C 19.1202 -2.42054 5.89651 0
M  V30 209 C 16.8072 -2.88423 5.38754 0
M  V30 210 C 17.8052 -2.60002 6.31576 0
M  V30 211 O 17.4932 -2.49465 7.64214 0
M  V30 212 H 17.2252 -0.491723 0.463879 0
M  V30 213 H 19.7792 -0.973053 1.80889 0
M  V30 214 H 18.0092 -3.51936 1.60243 0
M  V30 215 H 19.6982 -3.51992 2.0213 0
M  V30 216 H 20.4642 -2.37835 4.22681 0
M  V30 217 H 16.3432 -3.20099 3.31749 0
M  V30 218 H 19.8872 -2.19791 6.62071 0
M  V30 219 H 15.7842 -3.0238 5.70295 0
M  V30 220 H 16.5522 -2.64864 7.74461 0
M  V30 221 N 19.2153 -1.21501 -1.00376 0
M  V30 222 C 20.1633 -0.972442 -2.11297 0
M  V30 223 C 21.1573 0.080731 -1.69208 0
M  V30 224 O 22.3633 -0.0707666 -1.79861 0
M  V30 225 H 18.7383 -0.297218 -0.690772 0
M  V30 226 H 20.7093 -1.91394 -2.28934 0
M  V30 227 C 19.4583 -0.555065 -3.43241 0
M  V30 228 H 18.7813 -1.35709 -3.76062 0
M  V30 229 H 20.2213 -0.424664 -4.21868 0
M  V30 230 C 18.6803 0.734147 -3.28804 0
M  V30 231 O 19.2103 1.78937 -3.59645 0
M  V30 232 N 17.4163 0.701133 -2.82015 0
M  V30 233 H 16.9633 -0.157874 -2.57116 0
M  V30 234 H 16.9213 1.56403 -2.72737 0
M  V30 235 N 20.6934 1.19889 -1.02296 0
M  V30 236 C 21.9394 1.89701 -0.717033 0
M  V30 237 C 22.2724 1.7905 0.751989 0
M  V30 238 O 21.5474 1.17891 1.547 0
M  V30 239 C 21.8304 3.40858 -1.16136 0
M  V30 240 C 21.6834 3.60411 -2.69117 0
M  V30 241 C 23.0024 4.33876 -0.737549 0
M  V30 242 H 20.1214 0.688874 -0.261957 0
M  V30 243 H 22.7634 1.41154 -1.27183 0
M  V30 244 H 20.9134 3.82335 -0.689342 0
M  V30 245 H 22.5854 3.28145 -3.2422 0
M  V30 246 H 20.8284 3.03665 -3.0979 0
M  V30 247 H 21.4994 4.66396 -2.95261 0
M  V30 248 H 23.9754 4.00081 -1.14344 0
M  V30 249 H 22.8514 5.38242 -1.0764 0
M  V30 250 H 23.1124 4.40628 0.360436 0
M  V30 251 N 22.1715 0.800033 1.35784 0
M  V30 252 C 23.5875 0.482977 1.52117 0
M  V30 253 C 23.7875 -0.996948 1.75109 0
M  V30 254 O 22.8435 -1.78216 1.78872 0
M  V30 255 C 24.1565 1.32264 2.70049 0
M  V30 256 C 25.7045 1.31742 2.83924 0
M  V30 257 C 26.1795 2.14106 4.04874 0
M  V30 258 N 27.6705 2.11607 4.12039 0
M  V30 259 C 28.4055 2.72099 5.04727 0
M  V30 260 N 27.9015 3.41492 6.02789 0
M  V30 261 N 29.6945 2.61776 4.97423 0
M  V30 262 H 21.8455 1.75856 1.19115 0
M  V30 263 H 24.1085 0.748122 0.582252 0
M  V30 264 H 23.8145 2.37261 2.59616 0
M  V30 265 H 23.6885 0.971303 3.6448 0
M  V30 266 H 26.0755 0.275333 2.93813 0
M  V30 267 H 26.1565 1.70859 1.9037 0
M  V30 268 H 25.8005 3.18351 3.95746 0
M  V30 269 H 25.7305 1.72353 4.97596 0
M  V30 270 H 28.2215 1.61112 3.41835 0
M  V30 271 H 28.5345 3.84953 6.70098 0
M  V30 272 H 26.8795 3.45596 6.02983 0
M  V30 273 H 30.0705 2.07157 4.19766 0
M  V30 274 H 30.2435 3.0921 5.69468 0
M  V30 275 N 23.6496 -1.47581 0.552962 0
M  V30 276 C 24.6126 -2.28439 -0.186605 0
M  V30 277 C 25.6126 -1.36706 -0.84665 0
M  V30 278 O 26.8026 -1.59378 -0.703164 0
M  V30 279 C 23.9346 -3.16264 -1.2724 0
M  V30 280 H 25.1276 -2.95294 0.523609 0
M  V30 281 H 22.6806 -1.532 0.309745 0
M  V30 282 H 23.4156 -2.54091 -2.01514 0
M  V30 283 H 23.2006 -3.83769 -0.803968 0
M  V30 284 H 24.6906 -3.77198 -1.79196 0
M  V30 285 N 25.1277 -0.289203 -1.54924 0
M  V30 286 C 26.3527 0.329299 -2.04769 0
M  V30 287 C 26.7777 1.4763 -1.16564 0
M  V30 288 O 26.1357 1.80527 -0.167186 0
M  V30 289 C 26.1837 0.774438 -3.52186 0
M  V30 290 O 25.2877 1.88038 -3.67036 0
M  V30 291 H 24.6287 0.0659259 -0.660719 0
M  V30 292 H 27.1587 -0.42761 -2.00082 0
M  V30 293 H 27.1687 1.06642 -3.93816 0
M  V30 294 H 25.8437 -0.0646707 -4.1585 0
M  V30 295 H 24.4207 1.58985 -3.3731 0
M  V30 296 N 26.6058 1.57591 -0.0167156 0
M  V30 297 C 27.5158 2.1291 0.98521 0
M  V30 298 C 28.5318 1.07834 1.36557 0
M  V30 299 O 29.7078 1.39826 1.44951 0
M  V30 300 C 26.7728 2.63512 2.25305 0
M  V30 301 C 25.8338 3.83256 1.93426 0
M  V30 302 C 25.0668 4.31435 3.14165 0
M  V30 303 O 25.2898 3.78851 4.26413 0
M  V30 304 O 24.2238 5.23416 2.97186 0
M  V30 305 H 28.0498 2.98772 0.544888 0
M  V30 306 H 25.6348 1.48012 0.203141 0
M  V30 307 H 27.5168 2.96183 2.99756 0
M  V30 308 H 26.1918 1.8074 2.68542 0
M  V30 309 H 25.0988 3.55531 1.16398 0
M  V30 310 H 26.4318 4.67153 1.55013 0
M  V30 311 N 28.0839 -0.256276 1.55502 0
M  V30 312 C 29.0139 -1.32102 1.92539 0
M  V30 313 C 29.9949 -1.50684 0.789194 0
M  V30 314 O 31.1799 -1.63449 1.04872 0
M  V30 315 C 28.3099 -2.67752 2.21192 0
M  V30 316 C 27.2639 -2.63878 3.36975 0
M  V30 317 C 26.5899 -4.03236 3.51147 0
M  V30 318 C 27.8899 -2.21682 4.72921 0
M  V30 319 H 29.5839 -1.01351 2.81724 0
M  V30 320 H 27.1299 -0.486105 1.35547 0
M  V30 321 H 29.0829 -3.42365 2.45691 0
M  V30 322 H 27.8069 -3.0012 1.28824 0
M  V30 323 H 26.4659 -1.91722 3.12471 0
M  V30 324 H 26.1139 -4.32854 2.56216 0
M  V30 325 H 25.8139 -4.01535 4.29003 0
M  V30 326 H 27.3379 -4.79563 3.77957 0
M  V30 327 H 28.7519 -2.86023 4.96854 0
M  V30 328 H 27.1489 -2.3111 5.53812 0
M  V30 329 H 28.2189 -1.16833 4.70615 0
M  V30 330 N 29.562 -1.4872 -0.521534 0
M  V30 331 C 30.525 -1.63379 -1.60748 0
M  V30 332 C 31.525 -0.50661 -1.52611 0
M  V30 333 O 32.715 -0.772601 -1.5613 0
M  V30 334 C 29.847 -1.61192 -3.00383 0
M  V30 335 H 31.04 -2.60217 -1.49087 0
M  V30 336 H 28.593 -1.37444 -0.744235 0
M  V30 337 H 29.328 -0.65863 -3.17541 0
M  V30 338 H 29.113 -2.43032 -3.07698 0
M  V30 339 H 30.603 -1.7466 -3.7932 0
M  V30 340 N 31.0401 0.771051 -1.3745 0
M  V30 341 C 32.4561 1.07171 -1.18265 0
M  V30 342 C 32.6561 2.01491 -0.019287 0
M  V30 343 O 31.7121 2.44244 0.640408 0
M  V30 344 C 33.0251 1.66854 -2.50161 0
M  V30 345 C 34.5731 1.79109 -2.56689 0
M  V30 346 C 35.0481 2.42205 -3.88717 0
M  V30 347 N 36.5391 2.49655 -3.90162 0
M  V30 348 C 37.2741 2.9933 -4.8907 0
M  V30 349 N 36.7701 3.49172 -5.98374 0
M  V30 350 N 38.5631 2.9821 -4.76474 0
M  V30 351 H 30.7141 0.144796 -2.11906 0
M  V30 352 H 32.9771 0.126863 -0.939473 0
M  V30 353 H 32.6831 1.05017 -3.35655 0
M  V30 354 H 32.5571 2.6614 -2.673 0
M  V30 355 H 34.9441 2.40077 -1.71601 0
M  V30 356 H 35.0251 0.785757 -2.43433 0
M  V30 357 H 34.6691 1.81875 -4.74219 0
M  V30 358 H 34.5991 3.43345 -3.99276 0
M  V30 359 H 37.0901 2.14383 -3.11205 0
M  V30 360 H 37.4031 3.8548 -6.69795 0
M  V30 361 H 35.7481 3.47275 -6.02018 0
M  V30 362 H 38.9391 2.58572 -3.90203 0
M  V30 363 H 39.1121 3.36613 -5.53711 0
M  V30 364 N 32.5182 1.22032 0.997298 0
M  V30 365 C 33.7952 0.950823 1.70935 0
M  V30 366 C 34.1752 -0.535292 2.042 0
M  V30 367 O 33.5232 -1.50217 1.72183 0
M  V30 368 C 33.7332 1.84386 2.96315 0
M  V30 369 C 35.0812 2.09732 3.69185 0
M  V30 370 O 36.1052 1.81798 3.06314 0
M  V30 371 O 34.9642 2.57018 4.82291 0
M  V30 372 H 32.0582 0.357204 0.745878 0
M  V30 373 H 34.6042 1.32997 1.05404 0
M  V30 374 H 33.3762 2.84928 2.68201 0
M  V30 375 H 32.9992 1.46602 3.69586 0
M  V30 376 N 33.9963 -1.19345 1.0293 0
M  V30 377 C 35.4123 -1.41069 0.746446 0
M  V30 378 C 35.6123 -1.90078 -0.668776 0
M  V30 379 O 34.6683 -2.0778 -1.4347 0
M  V30 380 C 35.9813 -2.42141 1.78292 0
M  V30 381 C 37.5293 -2.55887 1.80252 0
M  V30 382 C 38.0043 -3.60214 2.8286 0
M  V30 383 N 39.4953 -3.67711 2.81679 0
M  V30 384 C 40.2303 -4.48128 3.57727 0
M  V30 385 N 39.7263 -5.32248 4.43491 0
M  V30 386 N 41.5193 -4.42782 3.46267 0
M  V30 387 H 33.6703 -0.858536 1.94275 0
M  V30 388 H 35.9333 -0.439541 0.839945 0
M  V30 389 H 35.6393 -2.13155 2.79746 0
M  V30 390 H 35.5133 -3.41323 1.60557 0
M  V30 391 H 37.9003 -2.84196 0.794757 0
M  V30 392 H 37.9813 -1.56858 2.02062 0
M  V30 393 H 37.6253 -3.32647 3.83807 0
M  V30 394 H 37.5553 -4.58895 2.58307 0
M  V30 395 H 40.0463 -3.07634 2.19476 0
M  V30 396 H 40.3593 -5.90729 4.98256 0
M  V30 397 H 38.7043 -5.31707 4.47564 0
M  V30 398 H 41.8953 -3.76107 2.78677 0
M  V30 399 H 42.0683 -5.05215 4.05785 0
M  V30 400 N 35.4744 -0.807222 -1.35358 0
M  V30 401 C 36.4064 -0.175717 -2.28525 0
M  V30 402 C 37.4194 0.625354 -1.5031 0
M  V30 403 O 38.6084 0.457611 -1.72535 0
M  V30 404 C 35.7084 0.773471 -3.29956 0
M  V30 405 C 34.8814 0.0186296 -4.37396 0
M  V30 406 C 33.9404 0.886395 -5.18681 0
M  V30 407 O 32.9664 0.337106 -5.68201 0
M  V30 408 N 34.1684 2.20839 -5.36852 0
M  V30 409 H 36.9334 -0.976091 -2.83359 0
M  V30 410 H 34.4944 -0.662737 -1.47714 0
M  V30 411 H 36.4864 1.35824 -3.81227 0
M  V30 412 H 35.0564 1.47465 -2.75632 0
M  V30 413 H 34.2764 -0.747349 -3.87051 0
M  V30 414 H 35.5644 -0.501577 -5.06322 0
M  V30 415 H 34.9624 2.67858 -4.98265 0
M  V30 416 H 33.5194 2.74237 -5.91301 0
M  V30 417 N 36.9525 1.47285 -0.560781 0
M  V30 418 C 37.9025 2.27073 0.205384 0
M  V30 419 C 38.8865 1.34569 0.882044 0
M  V30 420 O 40.0785 1.58899 0.77976 0
M  V30 421 C 37.2075 3.20414 1.23247 0
M  V30 422 C 36.2935 4.20399 0.559041 0
M  V30 423 N 36.6845 5.04423 -0.372927 0
M  V30 424 C 34.9825 4.38536 0.812522 0
M  V30 425 C 35.6835 5.76655 -0.764446 0
M  V30 426 N 34.6595 5.43471 -0.11848 0
M  V30 427 H 38.4615 2.89422 -0.511117 0
M  V30 428 H 35.9755 1.57868 -0.380975 0
M  V30 429 H 37.9725 3.76262 1.79534 0
M  V30 430 H 36.6325 2.59623 1.95002 0
M  V30 431 H 37.6435 5.1248 -0.747287 0
M  V30 432 H 34.3205 3.88913 1.51832 0
M  V30 433 H 35.7105 6.54238 -1.53045 0
M  V30 434 N 38.4306 0.297415 1.54768 0
M  V30 435 C 39.6586 -0.315623 2.04478 0
M  V30 436 C 40.0736 -1.47792 1.17486 0
M  V30 437 O 39.4306 -1.81404 0.19971 0
M  V30 438 C 39.4816 -0.7753 3.53088 0
M  V30 439 O 39.2026 0.340732 4.36773 0
M  V30 440 C 40.7036 -1.45386 4.18781 0
M  V30 441 H 37.9236 -0.0690887 0.667434 0
M  V30 442 H 40.4676 0.436003 1.99798 0
M  V30 443 H 38.6226 -1.47696 3.58141 0
M  V30 444 H 39.0366 -0.0165035 5.24497 0
M  V30 445 H 40.5106 -1.72669 5.24299 0
M  V30 446 H 40.9876 -2.39275 3.68299 0
M  V30 447 H 41.5936 -0.795475 4.17795 0
M  V30 448 N 39.9087 -1.5758 0.0250728 0
M  V30 449 C 40.8187 -2.1343 -0.973905 0
M  V30 450 C 41.8347 -1.08556 -1.35984 0
M  V30 451 O 43.0107 -1.40592 -1.44207 0
M  V30 452 C 40.0757 -2.64703 -2.23904 0
M  V30 453 C 39.1367 -3.84276 -1.91391 0
M  V30 454 C 38.3697 -4.33095 -3.11873 0
M  V30 455 O 38.5927 -3.81107 -4.24398 0
M  V30 456 O 37.5267 -5.24984 -2.94406 0
M  V30 457 H 41.3527 -2.99057 -0.529036 0
M  V30 458 H 38.9377 -1.48118 -0.195288 0
M  V30 459 H 40.8197 -2.97769 -2.98181 0
M  V30 460 H 39.4947 -1.82161 -2.6758 0
M  V30 461 H 38.4017 -3.56143 -1.14511 0
M  V30 462 H 39.7347 -4.67968 -1.52534 0
M  V30 463 N 41.3868 0.248026 -1.55636 0
M  V30 464 C 42.6328 0.97767 -1.77678 0
M  V30 465 C 42.9658 1.85016 -0.590135 0
M  V30 466 O 42.2408 1.90095 0.411611 0
M  V30 467 C 42.5238 1.83914 -3.09593 0
M  V30 468 C 42.3768 0.99491 -4.38659 0
M  V30 469 C 43.6958 2.82183 -3.37729 0
M  V30 470 H 40.8148 0.354005 -0.646413 0
M  V30 471 H 43.4568 0.248253 -1.88371 0
M  V30 472 H 41.6068 2.46104 -3.00608 0
M  V30 473 H 43.2788 0.391789 -4.59633 0
M  V30 474 H 41.5218 0.299231 -4.32767 0
M  V30 475 H 42.1928 1.63145 -5.2734 0
M  V30 476 H 44.6688 2.30129 -3.4667 0
M  V30 477 H 43.5448 3.39582 -4.31249 0
M  V30 478 H 43.8058 3.58588 -2.58586 0
M  V30 479 N 42.8649 1.48995 0.513639 0
M  V30 480 C 44.1109 1.58076 1.27042 0
M  V30 481 C 44.4439 0.261026 1.92438 0
M  V30 482 O 43.7189 -0.734393 1.80103 0
M  V30 483 C 44.0019 2.73091 2.34719 0
M  V30 484 C 43.8549 4.14821 1.73907 0
M  V30 485 C 45.1739 2.83796 3.36375 0
M  V30 486 H 42.2929 0.575391 0.460536 0
M  V30 487 H 44.9349 1.81232 0.570516 0
M  V30 488 H 43.0849 2.53479 2.94416 0
M  V30 489 H 44.7569 4.45917 1.18135 0
M  V30 490 H 42.9999 4.21058 1.0437 0
M  V30 491 H 43.6709 4.91147 2.51949 0
M  V30 492 H 46.1469 3.01611 2.86653 0
M  V30 493 H 45.0229 3.65971 4.09093 0
M  V30 494 H 45.2839 1.92624 3.9793 0
M  V30 495 N 44.343 -0.763751 1.37857 0
M  V30 496 C 45.583 -1.53551 1.34913 0
M  V30 497 C 45.947 -1.91895 -0.0635882 0
M  V30 498 O 47.148 -2.67916 -0.217825 0
M  V30 499 C 45.419 -2.76126 2.26912 0
M  V30 500 S 46.978 -3.66105 2.41893 0
M  V30 501 H 43.796 -0.52559 0.478828 0
M  V30 502 H 46.398 -0.897435 1.73685 0
M  V30 503 H 45.102 -2.4605 3.28463 0
M  V30 504 H 44.633 -3.44887 1.89253 0
M  V30 505 H 46.648 -4.68473 1.63545 0
M  V30 506 N 45.8211 -1.22559 -0.990812 0
M  V30 507 C 46.7691 -0.994798 -2.10253 0
M  V30 508 C 47.7631 0.0627798 -1.69284 0
M  V30 509 O 48.9691 -0.0898392 -1.79776 0
M  V30 510 H 45.3441 -0.304527 -0.687581 0
M  V30 511 H 47.3151 -1.93812 -2.26891 0
M  V30 512 C 46.0641 -0.591439 -3.42633 0
M  V30 513 H 45.3871 -1.3969 -3.74602 0
M  V30 514 H 46.8271 -0.469385 -4.21394 0
M  V30 515 C 45.2861 0.699232 -3.29564 0
M  V30 516 O 45.8161 1.75112 -3.61523 0
M  V30 517 N 44.0221 0.671182 -2.82743 0
M  V30 518 H 43.5691 -0.185136 -2.56934 0
M  V30 519 H 43.5271 1.53502 -2.7438 0
M  V30 520 N 47.2992 1.18797 -1.03562 0
M  V30 521 C 48.5482 1.87978 -0.731235 0
M  V30 522 C 48.8612 1.80911 0.743671 0
M  V30 523 O 50.0672 2.45407 1.16137 0
M  V30 524 C 48.5232 3.3721 -1.25768 0
M  V30 525 C 48.1312 3.52818 -2.76085 0
M  V30 526 C 49.8752 4.11825 -1.0296 0
M  V30 527 C 47.7822 4.9598 -3.22114 0
M  V30 528 H 46.7122 0.704063 -0.269835 0
M  V30 529 H 49.3632 1.34266 -1.25079 0
M  V30 530 H 47.7452 3.90359 -0.666011 0
M  V30 531 H 48.9192 3.09965 -3.40966 0
M  V30 532 H 47.2342 2.91602 -2.97249 0
M  V30 533 H 49.8312 5.17411 -1.34869 0
M  V30 534 H 50.1742 4.16287 0.0333546 0
M  V30 535 H 50.7072 3.64833 -1.58562 0
M  V30 536 H 47.4462 4.96684 -4.27768 0
M  V30 537 H 46.9662 5.39569 -2.61965 0
M  V30 538 H 48.6452 5.6467 -3.15844 0
M  V30 539 N 48.7773 0.814389 1.34928 0
M  V30 540 C 49.7073 0.244827 2.32213 0
M  V30 541 C 50.6883 -0.634024 1.57842 0
M  V30 542 O 51.8733 -0.562676 1.8587 0
M  V30 543 C 49.0033 -0.601106 3.42058 0
M  V30 544 C 47.9573 0.179896 4.27622 0
M  V30 545 C 47.2833 -0.788237 5.28858 0
M  V30 546 C 48.5833 1.38329 5.03649 0
M  V30 547 H 50.2773 1.05763 2.80097 0
M  V30 548 H 47.8233 0.510029 1.34665 0
M  V30 549 H 49.7763 -1.00968 4.09125 0
M  V30 550 H 48.5003 -1.44688 2.92802 0
M  V30 551 H 47.1593 0.569739 3.62146 0
M  V30 552 H 46.8073 -1.62973 4.75866 0
M  V30 553 H 46.5073 -0.269942 5.8698 0
M  V30 554 H 48.0313 -1.19485 5.98795 0
M  V30 555 H 49.4453 1.04918 5.63618 0
M  V30 556 H 47.8423 1.83662 5.71304 0
M  V30 557 H 48.9123 2.16592 4.33839 0
M  V30 558 N 50.2554 -1.46986 0.568584 0
M  V30 559 C 51.1854 -2.32946 -0.160753 0
M  V30 560 C 52.1664 -1.44487 -0.897631 0
M  V30 561 O 53.3514 -1.73327 -0.875867 0
M  V30 562 C 50.4814 -3.26494 -1.18403 0
M  V30 563 C 49.4354 -4.24282 -0.562895 0
M  V30 564 C 48.7614 -5.07236 -1.69163 0
M  V30 565 C 50.0614 -5.19989 0.490761 0
M  V30 566 H 51.7554 -2.94175 0.556916 0
M  V30 567 H 49.3014 -1.4146 0.26927 0
M  V30 568 H 51.2544 -3.85477 -1.70251 0
M  V30 569 H 49.9784 -2.63343 -1.93179 0
M  V30 570 H 48.6374 -3.66541 -0.0656164 0
M  V30 571 H 48.2854 -4.4048 -2.42871 0
M  V30 572 H 47.9854 -5.7345 -1.28174 0
M  V30 573 H 49.5094 -5.6908 -2.21314 0
M  V30 574 H 50.9234 -5.73271 0.0579047 0
M  V30 575 H 49.3204 -5.94469 0.820165 0
M  V30 576 H 50.3904 -4.64777 1.3824 0
M  V30 577 N 51.7335 -0.305618 -1.54608 0
M  V30 578 C 52.6635 0.561482 -2.26649 0
M  V30 579 C 53.6445 1.13415 -1.26772 0
M  V30 580 O 54.8295 1.16262 -1.55553 0
M  V30 581 C 51.9595 1.73122 -3.01075 0
M  V30 582 C 50.9135 1.2887 -4.08138 0
M  V30 583 C 50.2395 2.54396 -4.70305 0
M  V30 584 C 51.5395 0.416578 -5.20636 0
M  V30 585 H 53.2335 -0.0393902 -2.99374 0
M  V30 586 H 50.7795 -0.020385 -1.43986 0
M  V30 587 H 52.7325 2.34396 -3.50195 0
M  V30 588 H 51.4565 2.3584 -2.25936 0
M  V30 589 H 50.1155 0.698991 -3.59875 0
M  V30 590 H 49.7635 3.15439 -3.918 0
M  V30 591 H 49.4635 2.25486 -5.42614 0
M  V30 592 H 50.9875 3.16464 -5.2219 0
M  V30 593 H 52.4015 0.935116 -5.65622 0
M  V30 594 H 50.7985 0.221046 -5.99693 0
M  V30 595 H 51.8685 -0.557162 -4.81688 0
M  V30 596 N 53.2116 1.57565 -0.0334293 0
M  V30 597 C 54.4886 1.83282 0.683163 0
M  V30 598 C 54.8686 0.91823 1.90084 0
M  V30 599 O 54.2166 -0.025113 2.28486 0
M  V30 600 C 54.4266 3.32599 1.0573 0
M  V30 601 C 55.7746 3.99179 1.44711 0
M  V30 602 O 56.7986 3.3712 1.15015 0
M  V30 603 O 55.6576 5.08565 2.0006 0
M  V30 604 H 52.7516 0.755869 0.335546 0
M  V30 605 H 55.2976 1.69589 -0.0614402 0
M  V30 606 H 54.0696 3.90834 0.190828 0
M  V30 607 H 53.6926 3.51415 1.85993 0
M  V30 608 N 54.6897 -0.239769 1.55765 0
M  V30 609 C 55.6377 -1.31668 1.91745 0
M  V30 610 C 56.6317 -1.49462 0.797338 0
M  V30 611 O 57.8377 -1.50852 0.982021 0
M  V30 612 H 54.2127 -0.441048 0.609082 0
M  V30 613 H 56.1837 -0.985923 2.81642 0
M  V30 614 C 54.9327 -2.66368 2.2348 0
M  V30 615 H 54.2557 -2.53478 3.09175 0
M  V30 616 H 55.6957 -3.40578 2.52553 0
M  V30 617 C 54.1547 -3.20002 1.05359 0
M  V30 618 O 54.6847 -4.00538 0.305261 0
M  V30 619 N 52.8907 -2.78126 0.842292 0
M  V30 620 H 52.4377 -2.12742 1.45253 0
M  V30 621 H 52.3957 -3.14354 0.053652 0
M  V30 622 N 56.1678 -1.49265 -0.50573 0
M  V30 623 C 57.3958 -1.62215 -1.28429 0
M  V30 624 C 57.8108 -0.291697 -1.86533 0
M  V30 625 O 57.1678 0.722233 -1.67601 0
M  V30 626 C 57.2188 -2.68735 -2.41793 0
M  V30 627 O 56.9398 -3.96619 -1.86078 0
M  V30 628 C 58.4408 -2.92346 -3.3324 0
M  V30 629 H 55.6608 -0.546239 -0.389697 0
M  V30 630 H 58.2048 -1.95265 -0.607609 0
M  V30 631 H 56.3598 -2.38476 -3.053 0
M  V30 632 H 56.7738 -4.55256 -2.60465 0
M  V30 633 H 58.2478 -3.70623 -4.09075 0
M  V30 634 H 58.7248 -2.02081 -3.89948 0
M  V30 635 H 59.3308 -3.24003 -2.75503 0
M  V30 636 N 57.6459 0.756429 -1.3826 0
M  V30 637 C 58.8919 1.51772 -1.34511 0
M  V30 638 C 59.2249 1.94089 0.0656691 0
M  V30 639 O 58.4999 1.65221 1.02626 0
M  V30 640 C 58.7829 2.77226 -2.29821 0
M  V30 641 C 58.6359 2.41065 -3.79747 0
M  V30 642 C 59.9549 3.79236 -2.23312 0
M  V30 643 H 57.0739 0.550578 -0.489931 0
M  V30 644 H 59.7159 0.866607 -1.69086 0
M  V30 645 H 57.8659 3.32784 -2.00467 0
M  V30 646 H 59.5379 1.91303 -4.19763 0
M  V30 647 H 57.7809 1.7356 -3.97567 0
M  V30 648 H 58.4519 3.3081 -4.41892 0
M  V30 649 H 60.9279 3.3321 -2.49219 0
M  V30 650 H 59.8039 4.64714 -2.92116 0
M  V30 651 H 60.0649 4.24615 -1.23102 0
M  V30 652 N 59.124 1.23083 0.984299 0
M  V30 653 C 60.056 0.96636 2.07832 0
M  V30 654 C 61.069 -0.0582135 1.62696 0
M  V30 655 O 62.258 0.176843 1.77622 0
M  V30 656 C 59.358 0.433397 3.36117 0
M  V30 657 C 58.531 1.51722 4.10243 0
M  V30 658 C 57.59 0.989821 5.16807 0
M  V30 659 O 56.616 1.67794 5.43906 0
M  V30 660 N 57.818 -0.184367 5.80207 0
M  V30 661 H 60.583 1.90824 2.31098 0
M  V30 662 H 58.144 1.13888 1.1507 0
M  V30 663 H 60.136 0.065699 4.04647 0
M  V30 664 H 58.706 -0.413806 3.09849 0
M  V30 665 H 57.926 2.05786 3.36223 0
M  V30 666 H 59.214 2.24619 4.56534 0
M  V30 667 H 58.612 -0.760062 5.60571 0
M  V30 668 H 57.169 -0.493366 6.4993 0
M  V30 669 N 60.6021 -1.18246 1.0419 0
M  V30 670 C 61.5651 -2.20128 0.638452 0
M  V30 671 C 62.5651 -1.57885 -0.304805 0
M  V30 672 O 63.7551 -1.73967 -0.0900369 0
M  V30 673 C 60.8871 -3.4084 -0.0637751 0
M  V30 674 H 62.0801 -2.57336 1.54007 0
M  V30 675 H 59.6331 -1.32152 0.834598 0
M  V30 676 H 60.3681 -3.09166 -0.979136 0
M  V30 677 H 60.1531 -3.8726 0.614198 0
M  V30 678 H 61.6431 -4.16274 -0.332512 0
M  V30 679 N 62.0802 -0.821533 -1.34494 0
M  V30 680 C 63.3272 -0.408946 -1.98328 0
M  V30 681 C 63.6552 1.02764 -1.65136 0
M  V30 682 O 62.9102 1.73026 -0.914349 0
M  V30 683 C 63.2092 -0.556512 -3.53041 0
M  V30 684 C 62.8752 -1.95861 -4.0614 0
M  V30 685 C 61.5372 -2.34217 -4.20352 0
M  V30 686 C 63.8892 -2.87523 -4.34718 0
M  V30 687 C 61.2172 -3.63572 -4.6047 0
M  V30 688 C 63.5692 -4.1634 -4.76281 0
M  V30 689 C 62.2332 -4.54675 -4.88699 0
M  V30 690 H 61.5032 -0.149644 -0.725732 0
M  V30 691 H 64.1502 -1.04521 -1.6046 0
M  V30 692 H 62.4552 0.163148 -3.9146 0
M  V30 693 H 64.1522 -0.217826 -4.00408 0
M  V30 694 H 60.7422 -1.65066 -3.95539 0
M  V30 695 H 64.9262 -2.59133 -4.23277 0
M  V30 696 H 60.1822 -3.93101 -4.68275 0
M  V30 697 H 64.3562 -4.87455 -4.97354 0
M  V30 698 H 61.9832 -5.54959 -5.19542 0
M  V30 699 N 63.5583 1.46682 -0.576371 0
M  V30 700 C 64.5053 2.30241 0.160499 0
M  V30 701 C 65.4753 1.40233 0.890162 0
M  V30 702 O 66.6603 1.69186 0.882084 0
M  V30 703 C 63.8003 3.24578 1.1723 0
M  V30 704 C 62.9133 4.29684 0.446736 0
M  V30 705 C 62.0483 5.11154 1.44551 0
M  V30 706 C 61.0873 6.08015 0.70599 0
M  V30 707 N 60.2243 6.82376 1.65251 0
M  V30 708 H 65.0643 2.92727 -0.558127 0
M  V30 709 H 62.6013 1.44272 -0.287056 0
M  V30 710 H 64.5593 3.77711 1.77172 0
M  V30 711 H 63.1893 2.63916 1.85872 0
M  V30 712 H 62.2413 3.79458 -0.267594 0
M  V30 713 H 63.5533 4.98626 -0.131686 0
M  V30 714 H 62.7073 5.68533 2.11791 0
M  V30 715 H 61.4463 4.42158 2.05786 0
M  V30 716 H 60.4513 5.49796 0.0197725 0
M  V30 717 H 61.6763 6.79028 0.09912 0
M  V30 718 H 59.6223 6.16094 2.25308 0
M  V30 719 H 59.5393 7.47556 1.12673 0
M  V30 720 H 60.8073 7.44316 2.31546 0
M  V30 721 N 65.0364 0.313813 1.54444 0
M  V30 722 C 66.2824 -0.292108 2.00685 0
M  V30 723 C 66.6154 -1.52548 1.20177 0
M  V30 724 O 65.8904 -1.92452 0.281531 0
M  V30 725 C 66.1734 -0.635968 3.5444 0
M  V30 726 C 66.0264 0.607437 4.4568 0
M  V30 727 C 67.3454 -1.45747 4.15266 0
M  V30 728 H 64.4644 -0.104697 0.729526 0
M  V30 729 H 67.1064 0.428457 1.85106 0
M  V30 730 H 65.2564 -1.24986 3.67846 0
M  V30 731 H 66.9284 1.24581 4.44159 0
M  V30 732 H 65.1714 1.23822 4.15753 0
M  V30 733 H 65.8424 0.322515 5.51057 0
M  V30 734 H 68.3184 -0.938645 4.05375 0
M  V30 735 H 67.1944 -1.66683 5.2298 0
M  V30 736 H 67.4554 -2.45063 3.67963 0
M  V30 737 N 66.5145 -1.57545 0.0417849 0
M  V30 738 C 67.4625 -2.12148 -0.953723 0
M  V30 739 C 68.4565 -1.05104 -1.32852 0
M  V30 740 O 69.6625 -1.23524 -1.30927 0
M  V30 741 H 66.0375 -0.677957 -0.325389 0
M  V30 742 H 68.0085 -2.94707 -0.467991 0
M  V30 743 C 66.7575 -2.6739 -2.22257 0
M  V30 744 H 66.0805 -3.49413 -1.94295 0
M  V30 745 H 67.5205 -3.09227 -2.90094 0
M  V30 746 C 65.9795 -1.60723 -2.96091 0
M  V30 747 O 66.5095 -1.01449 -3.88679 0
M  V30 748 N 64.7155 -1.32466 -2.58652 0
M  V30 749 H 64.2625 -1.80856 -1.83437 0
M  V30 750 H 64.2205 -0.61325 -3.08361 0
M  V30 751 N 67.9926 0.231505 -1.5589 0
M  V30 752 C 68.9396 1.28682 -1.91598 0
M  V30 753 C 69.9096 1.47071 -0.771974 0
M  V30 754 O 71.0946 1.60802 -1.027 0
M  V30 755 C 68.2346 2.6342 -2.22944 0
M  V30 756 C 67.3476 2.52912 -3.50228 0
M  V30 757 C 66.4826 3.80106 -3.7107 0
M  V30 758 C 65.5216 3.64279 -4.91902 0
M  V30 759 N 64.6586 4.834 -5.09184 0
M  V30 760 H 69.4986 0.975305 -2.81588 0
M  V30 761 H 67.0356 0.470299 -1.39379 0
M  V30 762 H 68.9936 3.41869 -2.39126 0
M  V30 763 H 67.6236 2.92687 -1.36139 0
M  V30 764 H 66.6756 1.6595 -3.42294 0
M  V30 765 H 67.9876 2.37133 -4.38827 0
M  V30 766 H 67.1416 4.66999 -3.87295 0
M  V30 767 H 65.8806 3.98799 -2.80733 0
M  V30 768 H 64.8856 2.7577 -4.75637 0
M  V30 769 H 66.1106 3.47067 -5.83714 0
M  V30 770 H 64.0566 5.02425 -4.21788 0
M  V30 771 H 63.9736 4.70311 -5.91898 0
M  V30 772 H 65.2416 5.71747 -5.29835 0
M  V30 773 N 69.4707 1.49531 0.497807 0
M  V30 774 C 70.4207 1.62829 1.59596 0
M  V30 775 C 71.4047 0.483824 1.53453 0
M  V30 776 O 72.5967 0.736937 1.60929 0
M  V30 777 C 69.7257 1.7011 2.98191 0
M  V30 778 C 68.8117 2.90144 3.09317 0
M  V30 779 N 69.2027 4.1418 2.90324 0
M  V30 780 C 67.5007 2.88148 3.40422 0
M  V30 781 C 68.2017 4.94886 3.05717 0
M  V30 782 N 67.1777 4.28314 3.34736 0
M  V30 783 H 70.9797 2.56446 1.4357 0
M  V30 784 H 68.4937 1.46347 0.704001 0
M  V30 785 H 70.4907 1.77735 3.77115 0
M  V30 786 H 69.1507 0.776315 3.15283 0
M  V30 787 H 70.1617 4.44109 2.66436 0
M  V30 788 H 66.8387 2.05061 3.63671 0
M  V30 789 H 68.2287 6.03432 2.95499 0
M  V30 790 N 70.9488 -0.749086 1.3866 0
M  V30 791 C 72.2258 -1.4992 1.25632 0
M  V30 792 C 72.6058 -2.10633 -0.140317 0
M  V30 793 O 71.9538 -1.97437 -1.15025 0
M  V30 794 C 72.1638 -2.56195 2.36992 0
M  V30 795 C 73.5118 -3.22972 2.75634 0
M  V30 796 O 74.5358 -2.66502 2.36337 0
M  V30 797 O 73.3948 -4.25122 3.43415 0
M  V30 798 H 70.4888 -0.665067 0.491544 0
M  V30 799 H 73.0348 -0.784113 1.50498 0
M  V30 800 H 71.8068 -2.09612 3.30422 0
M  V30 801 H 71.4298 -3.35279 2.13714 0
M  V30 802 N 72.4269 -1.23603 -0.977757 0
M  V30 803 C 73.3589 -0.977369 -2.07317 0
M  V30 804 C 74.3719 0.0495845 -1.62724 0
M  V30 805 O 75.5609 -0.186261 -1.77526 0
M  V30 806 C 72.6609 -0.451216 -3.35883 0
M  V30 807 C 71.8339 -1.53896 -4.09432 0
M  V30 808 C 70.8929 -1.01721 -5.16274 0
M  V30 809 O 69.9189 -1.70676 -5.43009 0
M  V30 810 N 71.1209 0.153594 -5.80297 0
M  V30 811 H 73.8859 -1.92047 -2.30082 0
M  V30 812 H 71.4469 -1.14497 -1.14465 0
M  V30 813 H 73.4389 -0.0871574 -4.04606 0
M  V30 814 H 72.0089 0.397368 -3.10064 0
M  V30 815 H 71.2289 -2.07566 -3.35127 0
M  V30 816 H 72.5169 -2.27037 -4.55337 0
M  V30 817 H 71.9149 0.730323 -5.60966 0
M  V30 818 H 70.4719 0.458892 -6.50183 0
M  V30 819 N 73.905 1.17692 -1.04816 0
M  V30 820 C 75.153 1.87488 -0.754497 0
M  V30 821 C 75.474 1.81205 0.720407 0
M  V30 822 O 74.744 1.23544 1.52032 0
M  V30 823 H 73.324 0.694101 -0.276102 0
M  V30 824 H 75.986 1.42793 -1.32651 0
M  V30 825 H 75.082 2.93328 -1.06606 0
M  V30 826 N 75.3831 0.828654 1.34056 0
M  V30 827 C 76.3151 0.212052 2.28217 0
M  V30 828 C 77.3281 -0.601362 1.51286 0
M  V30 829 O 78.5171 -0.430104 1.73241 0
M  V30 830 C 75.6171 -0.72088 3.31144 0
M  V30 831 C 74.7901 0.0509587 4.3737 0
M  V30 832 C 73.8491 -0.803766 5.20025 0
M  V30 833 O 72.8751 -0.246667 5.68665 0
M  V30 834 N 74.0771 -2.1227 5.40298 0
M  V30 835 H 76.8421 1.02105 2.81771 0
M  V30 836 H 74.4031 0.686153 1.46641 0
M  V30 837 H 76.3951 -1.29742 3.8334 0
M  V30 838 H 74.9651 -1.43061 2.77943 0
M  V30 839 H 74.1851 0.808831 3.85813 0
M  V30 840 H 75.4731 0.582065 5.0546 0
M  V30 841 H 74.8711 -2.59898 5.02464 0
M  V30 842 H 73.4281 -2.64796 5.95589 0
M  V30 843 N 76.8612 -1.46375 0.584142 0
M  V30 844 C 78.1072 -2.02678 0.0703716 0
M  V30 845 C 78.4402 -1.4545 -1.28678 0
M  V30 846 O 77.7152 -0.62014 -1.84349 0
M  V30 847 C 77.9982 -3.60099 0.00614674 0
M  V30 848 C 77.8512 -4.27709 1.3923 0
M  V30 849 C 79.1702 -4.34598 -0.693742 0
M  V30 850 H 76.2892 -0.736504 0.027047 0
M  V30 851 H 78.9312 -1.74501 0.751615 0
M  V30 852 H 77.0812 -3.84236 -0.574009 0
M  V30 853 H 78.7532 -4.14832 2.01773 0
M  V30 854 H 76.9962 -3.87016 1.95962 0
M  V30 855 H 77.6672 -5.36478 1.29982 0
M  V30 856 H 80.1432 -4.15615 -0.200869 0
M  V30 857 H 79.0192 -5.44318 -0.707714 0
M  V30 858 H 79.2802 -4.05759 -1.75533 0
M  V30 859 N 78.3393 -0.321999 -1.54275 0
M  V30 860 C 79.2693 0.537411 -2.27231 0
M  V30 861 C 80.2503 1.12064 -1.27968 0
M  V30 862 O 81.4353 1.14606 -1.56777 0
M  V30 863 C 78.5653 1.69919 -3.02894 0
M  V30 864 C 77.5193 1.24534 -4.09482 0
M  V30 865 C 76.8453 2.49394 -4.72977 0
M  V30 866 C 78.1453 0.361335 -5.21049 0
M  V30 867 H 79.8393 -0.0711406 -2.99315 0
M  V30 868 H 77.3853 -0.0356555 -1.43956 0
M  V30 869 H 79.3383 2.30668 -3.52662 0
M  V30 870 H 78.0623 2.33431 -2.28424 0
M  V30 871 H 76.7213 0.660782 -3.60596 0
M  V30 872 H 76.3693 3.11265 -3.95124 0
M  V30 873 H 76.0693 2.19718 -5.44975 0
M  V30 874 H 77.5933 3.10908 -5.25517 0
M  V30 875 H 79.0073 0.875072 -5.66582 0
M  V30 876 H 77.4043 0.157428 -5.99893 0
M  V30 877 H 78.4743 -0.60822 -4.8107 0
M  V30 878 N 79.8174 1.5752 -0.0501392 0
M  V30 879 C 80.7474 2.14502 0.922566 0
M  V30 880 C 81.7284 1.06642 1.3252 0
M  V30 881 O 82.9134 1.34577 1.4001 0
M  V30 882 C 80.0434 2.68916 2.19776 0
M  V30 883 C 78.9974 3.8175 1.93523 0
M  V30 884 C 78.3234 4.22677 3.27487 0
M  V30 885 C 79.6234 5.06932 1.25765 0
M  V30 886 H 81.3174 2.9603 0.447952 0
M  V30 887 H 78.8634 1.42401 0.214024 0
M  V30 888 H 80.8164 3.07419 2.88222 0
M  V30 889 H 79.5404 1.84578 2.69441 0
M  V30 890 H 78.1994 3.43718 1.27489 0
M  V30 891 H 77.8474 3.35291 3.74952 0
M  V30 892 H 77.5474 4.98725 3.1072 0
M  V30 893 H 79.0714 4.63779 3.97166 0
M  V30 894 H 80.4854 5.42888 1.84244 0
M  V30 895 H 78.8824 5.88116 1.19328 0
M  V30 896 H 79.9524 4.84337 0.233536 0
M  V30 897 N 81.2955 -0.223234 1.56011 0
M  V30 898 C 82.5725 -0.972108 1.69733 0
M  V30 899 C 82.9525 -2.02485 0.59691 0
M  V30 900 O 82.3005 -2.25037 -0.396324 0
M  V30 901 C 82.5105 -1.58407 3.10979 0
M  V30 902 C 83.8585 -2.07696 3.70334 0
M  V30 903 O 84.8825 -1.68304 3.1393 0
M  V30 904 O 83.7415 -2.80096 4.69264 0
M  V30 905 H 80.8355 -0.453993 0.691245 0
M  V30 906 H 83.3815 -0.215149 1.68331 0
M  V30 907 H 82.1535 -0.823831 3.82529 0
M  V30 908 H 81.7765 -2.40661 3.16493 0
M  V30 909 N 82.7736 -1.49793 -0.48987 0
M  V30 910 C 84.0196 -1.60078 -1.24511 0
M  V30 911 C 84.3526 -0.291608 -1.91998 0
M  V30 912 O 83.6276 0.705647 -1.81248 0
M  V30 913 C 83.9106 -2.76791 -2.30345 0
M  V30 914 C 83.7636 -4.17535 -1.67286 0
M  V30 915 C 85.0826 -2.89111 -3.31817 0
M  V30 916 H 82.2016 -0.582645 -0.451324 0
M  V30 917 H 84.8436 -1.82117 -0.541612 0
M  V30 918 H 82.9936 -2.5813 -2.90346 0
M  V30 919 H 84.6656 -4.4774 -1.11026 0
M  V30 920 H 82.9086 -4.22665 -0.976577 0
M  V30 921 H 83.5796 -4.95094 -2.44103 0
M  V30 922 H 86.0556 -3.06133 -2.81819 0
M  V30 923 H 84.9316 -3.72433 -4.03219 0
M  V30 924 H 85.1926 -1.9893 -3.94815 0
M  V30 925 N 84.2517 0.741722 -1.39055 0
M  V30 926 C 85.4977 1.50336 -1.36113 0
M  V30 927 C 85.8307 1.94148 0.0450796 0
M  V30 928 O 85.1057 1.66301 1.00868 0
M  V30 929 C 85.3887 2.74773 -2.32749 0
M  V30 930 C 85.2417 2.37023 -3.82283 0
M  V30 931 C 86.5607 3.76846 -2.27322 0
M  V30 932 H 83.6797 0.545351 -0.495743 0
M  V30 933 H 86.3217 0.848624 -1.69995 0
M  V30 934 H 84.4717 3.30639 -2.03986 0
M  V30 935 H 86.1437 1.8684 -4.21768 0
M  V30 936 H 84.3867 1.69334 -3.99385 0
M  V30 937 H 85.0577 3.26104 -4.45376 0
M  V30 938 H 87.5337 3.30548 -2.5274 0
M  V30 939 H 86.4097 4.6159 -2.97028 0
M  V30 940 H 86.6707 4.23286 -1.27599 0
M  V30 941 N 85.7298 1.2412 0.971189 0
M  V30 942 C 86.9768 1.07881 1.71371 0
M  V30 943 C 87.3048 -0.382901 1.90694 0
M  V30 944 O 86.5598 -1.29945 1.46331 0
M  V30 945 C 86.8588 1.75983 3.11071 0
M  V30 946 C 86.5248 3.25909 3.11599 0
M  V30 947 C 85.1868 3.66813 3.11451 0
M  V30 948 C 87.5388 4.21771 3.062 0
M  V30 949 C 84.8668 5.02021 3.03631 0
M  V30 950 C 87.2188 5.56982 2.99923 0
M  V30 951 C 85.8828 5.97237 2.98102 0
M  V30 952 H 85.1528 0.394764 0.62709 0
M  V30 953 H 87.7998 1.54176 1.13587 0
M  V30 954 H 86.1048 1.22072 3.72298 0
M  V30 955 H 87.8018 1.60887 3.6731 0
M  V30 956 H 84.3918 2.93353 3.12477 0
M  V30 957 H 88.5758 3.91172 3.05447 0
M  V30 958 H 83.8318 5.32411 3.0058 0
M  V30 959 H 88.0058 6.30969 2.94704 0
M  V30 960 H 85.6328 7.01967 2.91798 0
M  V30 961 N 87.2079 -1.17134 1.05439 0
M  V30 962 C 88.1549 -2.21235 0.657539 0
M  V30 963 C 89.1249 -1.62551 -0.341543 0
M  V30 964 O 90.3099 -1.89379 -0.232393 0
M  V30 965 C 87.4499 -3.45076 0.0410575 0
M  V30 966 C 86.5629 -4.18042 1.08927 0
M  V30 967 C 85.6979 -5.29376 0.439848 0
M  V30 968 C 84.7369 -5.94132 1.4722 0
M  V30 969 N 83.8739 -6.96975 0.846756 0
M  V30 970 H 88.7139 -2.54534 1.54972 0
M  V30 971 H 86.2509 -1.25028 0.775006 0
M  V30 972 H 88.2089 -4.15862 -0.33383 0
M  V30 973 H 86.8389 -3.12353 -0.814568 0
M  V30 974 H 85.8909 -3.45945 1.58196 0
M  V30 975 H 87.2029 -4.62306 1.87282 0
M  V30 976 H 86.3569 -6.06699 0.0115125 0
M  V30 977 H 85.0959 -4.86251 -0.375656 0
M  V30 978 H 84.1009 -5.15538 1.91052 0
M  V30 979 H 85.3259 -6.39337 2.28965 0
M  V30 980 H 83.2719 -6.5598 0.0518075 0
M  V30 981 H 83.1889 -7.39565 1.5678 0
M  V30 982 H 84.4569 -7.78239 0.443277 0
M  V30 983 N 88.686 -0.835752 -1.33615 0
M  V30 984 C 89.636 -0.238856 -2.26745 0
M  V30 985 C 90.62 0.604343 -1.49119 0
M  V30 986 O 91.812 0.456822 -1.71003 0
M  V30 987 C 88.941 0.587725 -3.38232 0
M  V30 988 C 88.027 -0.266811 -4.2326 0
M  V30 989 N 88.418 -1.34403 -4.87616 0
M  V30 990 C 86.716 -0.0533131 -4.45968 0
M  V30 991 C 87.417 -1.86819 -5.50884 0
M  V30 992 N 86.393 -1.17013 -5.30857 0
M  V30 993 H 90.195 -1.06266 -2.74016 0
M  V30 994 H 87.709 -0.679881 -1.47483 0
M  V30 995 H 89.706 1.03161 -4.03935 0
M  V30 996 H 88.366 1.40954 -2.9251 0
M  V30 997 H 89.377 -1.7269 -4.88261 0
M  V30 998 H 86.054 0.735312 -4.10974 0
M  V30 999 H 87.444 -2.7701 -6.1214 0
M  V30 1000 N 90.1641 1.46063 -0.591896 0
M  V30 1001 C 91.0941 2.33172 0.123673 0
M  V30 1002 C 92.0751 1.45897 0.87453 0
M  V30 1003 O 93.2601 1.74698 0.848181 0
M  V30 1004 C 90.3901 3.28336 1.13194 0
M  V30 1005 C 89.3441 4.25124 0.495324 0
M  V30 1006 C 88.6701 5.09863 1.61071 0
M  V30 1007 C 89.9701 5.19143 -0.573425 0
M  V30 1008 H 91.6641 2.93252 -0.603646 0
M  V30 1009 H 89.2101 1.41014 -0.291741 0
M  V30 1010 H 91.1631 3.88137 1.64097 0
M  V30 1011 H 89.8871 2.66383 1.88965 0
M  V30 1012 H 88.5461 3.66599 0.00729452 0
M  V30 1013 H 88.1941 4.44288 2.35832 0
M  V30 1014 H 87.8941 5.75417 1.19035 0
M  V30 1015 H 89.4181 5.72529 2.12233 0
M  V30 1016 H 90.8321 5.73106 -0.1491 0
M  V30 1017 H 89.2291 5.93089 -0.914636 0
M  V30 1018 H 90.2991 4.62519 -1.45617 0
M  V30 1019 N 91.6422 0.330177 1.54103 0
M  V30 1020 C 92.9192 -0.325007 1.92881 0
M  V30 1021 C 93.2992 -1.6934 1.26045 0
M  V30 1022 O 92.6472 -2.24855 0.406526 0
M  V30 1023 C 92.8572 -0.410634 3.46576 0
M  V30 1024 C 94.2052 -0.667801 4.19316 0
M  V30 1025 O 95.2292 -0.49329 3.52768 0
M  V30 1026 O 94.0882 -1.00491 5.37181 0
M  V30 1027 H 91.1822 -0.186873 0.80561 0
M  V30 1028 H 93.7282 0.380376 1.65382 0
M  V30 1029 H 92.5002 0.550164 3.87413 0
M  V30 1030 H 92.1232 -1.16333 3.802 0
M  V30 1031 N 93.1203 -1.57491 0.0584922 0
M  V30 1032 C 94.0503 -2.14988 -0.911178 0
M  V30 1033 C 95.0313 -1.07343 -1.31952 0
M  V30 1034 O 96.2163 -1.35318 -1.39294 0
M  V30 1035 C 93.3463 -2.70078 -2.18347 0
M  V30 1036 C 92.3003 -3.82771 -1.91495 0
M  V30 1037 C 91.6263 -4.24408 -3.25241 0
M  V30 1038 C 92.9263 -5.07592 -1.23075 0
M  V30 1039 H 94.6203 -2.96263 -0.432246 0
M  V30 1040 H 92.1663 -1.42512 -0.206469 0
M  V30 1041 H 94.1193 -3.08943 -2.86587 0
M  V30 1042 H 92.8433 -1.86005 -2.68458 0
M  V30 1043 H 91.5023 -3.44389 -1.25664 0
M  V30 1044 H 91.1503 -3.37275 -3.73168 0
M  V30 1045 H 90.8503 -5.00366 -3.08071 0
M  V30 1046 H 92.3743 -4.65879 -3.94701 0
M  V30 1047 H 93.7883 -5.43857 -1.81362 0
M  V30 1048 H 92.1853 -5.88741 -1.16207 0
M  V30 1049 H 93.2553 -4.84454 -0.207847 0
M  V30 1050 N 94.5984 0.214957 -1.56127 0
M  V30 1051 C 95.8264 0.955092 -1.83536 0
M  V30 1052 C 96.2414 1.77677 -0.638472 0
M  V30 1053 O 95.5984 1.78219 0.392968 0
M  V30 1054 C 95.6494 1.86734 -3.09536 0
M  V30 1055 O 95.3704 1.07887 -4.24608 0
M  V30 1056 C 96.8714 2.72082 -3.4998 0
M  V30 1057 H 94.0914 0.279611 -0.609966 0
M  V30 1058 H 96.6354 0.228197 -2.03223 0
M  V30 1059 H 94.7904 2.5481 -2.91806 0
M  V30 1060 H 95.2044 1.69872 -4.9623 0
M  V30 1061 H 96.6784 3.31782 -4.41163 0
M  V30 1062 H 97.1554 3.44806 -2.7204 0
M  V30 1063 H 97.7614 2.09409 -3.70173 0
M  V30 1064 N 96.0765 1.50051 0.48192 0
M  V30 1065 C 96.9865 1.7089 1.60728 0
M  V30 1066 C 98.0025 0.591788 1.63627 0
M  V30 1067 O 99.1785 0.868817 1.81696 0
M  V30 1068 C 96.2435 1.78855 2.97005 0
M  V30 1069 C 95.3045 3.02537 3.04581 0
M  V30 1070 C 94.5375 3.10112 4.34357 0
M  V30 1071 O 94.7605 2.24765 5.24249 0
M  V30 1072 O 93.6945 4.02747 4.47301 0
M  V30 1073 H 97.5205 2.66264 1.46072 0
M  V30 1074 H 95.1055 1.34018 0.660264 0
M  V30 1075 H 96.9875 1.86336 3.77964 0
M  V30 1076 H 95.6625 0.866628 3.11883 0
M  V30 1077 H 94.5695 3.00563 2.22739 0
M  V30 1078 H 95.9025 3.94272 2.94636 0
M  V30 1079 N 97.5546 -0.734337 1.39446 0
M  V30 1080 C 98.4866 -1.85861 1.34121 0
M  V30 1081 C 99.4996 -1.60871 0.249864 0
M  V30 1082 O 100.689 -1.71093 0.508865 0
M  V30 1083 C 97.7886 -3.21899 1.05991 0
M  V30 1084 C 96.9616 -3.74239 2.26415 0
M  V30 1085 C 96.0206 -4.88841 1.94733 0
M  V30 1086 O 95.0466 -5.02468 2.67422 0
M  V30 1087 N 96.2486 -5.73261 0.913884 0
M  V30 1088 H 99.0136 -1.90934 2.31007 0
M  V30 1089 H 96.5746 -0.915102 1.33557 0
M  V30 1090 H 98.5666 -3.96136 0.828147 0
M  V30 1091 H 97.1366 -3.12091 0.178361 0
M  V30 1092 H 96.3566 -2.91347 2.65539 0
M  V30 1093 H 97.6446 -4.05942 3.06738 0
M  V30 1094 H 97.0426 -5.64842 0.311476 0
M  V30 1095 H 95.5996 -6.47563 0.742015 0
M  V30 1096 N 99.0327 -1.24633 -0.964593 0
M  V30 1097 C 100.31 -0.995809 -1.68354 0
M  V30 1098 C 100.69 0.480964 -2.05548 0
M  V30 1099 O 100.038 1.45599 -1.76105 0
M  V30 1100 C 100.248 -1.92177 -2.91323 0
M  V30 1101 C 101.596 -2.19446 -3.63495 0
M  V30 1102 O 102.62 -1.89855 -3.01386 0
M  V30 1103 O 101.479 -2.69714 -4.75307 0
M  V30 1104 H 98.5727 -0.376854 -0.736146 0
M  V30 1105 H 101.119 -1.35745 -1.0184 0
M  V30 1106 H 99.8907 -2.91938 -2.60553 0
M  V30 1107 H 99.5137 -1.56349 -3.65569 0
M  V30 1108 N 100.511 1.16574 -1.06058 0
M  V30 1109 C 101.741 1.90675 -0.795397 0
M  V30 1110 C 102.149 1.77547 0.653735 0
M  V30 1111 O 101.492 1.11611 1.45907 0
M  V30 1112 C 101.554 3.42011 -1.10764 0
M  V30 1113 C 101.218 3.78924 -2.55471 0
M  V30 1114 C 102.215 3.81042 -3.53699 0
M  V30 1115 C 99.8998 4.09626 -2.90708 0
M  V30 1116 C 101.894 4.13346 -4.85205 0
M  V30 1117 C 99.5808 4.41597 -4.22416 0
M  V30 1118 C 100.579 4.43436 -5.19474 0
M  V30 1119 O 100.267 4.74649 -6.48817 0
M  V30 1120 H 99.9988 0.611554 -0.288058 0
M  V30 1121 H 102.553 1.48711 -1.41683 0
M  V30 1122 H 100.783 3.84312 -0.429128 0
M  V30 1123 H 102.472 3.97384 -0.827077 0
M  V30 1124 H 103.238 3.57437 -3.27817 0
M  V30 1125 H 99.1168 4.07361 -2.15819 0
M  V30 1126 H 102.661 4.14696 -5.60957 0
M  V30 1127 H 98.5578 4.64667 -4.48056 0
M  V30 1128 H 99.3258 4.9247 -6.5377 0
M  V30 1129 N 101.989 0.842826 1.3317 0
M  V30 1130 C 103.236 0.440447 1.97652 0
M  V30 1131 C 103.564 -1.00123 1.6675 0
M  V30 1132 O 102.819 -1.7155 0.941761 0
M  V30 1133 C 103.118 0.612607 3.52111 0
M  V30 1134 C 102.784 2.02297 4.02972 0
M  V30 1135 C 101.446 2.40874 4.16573 0
M  V30 1136 C 103.798 2.94402 4.30089 0
M  V30 1137 C 101.126 3.70852 4.54627 0
M  V30 1138 C 103.478 4.23865 4.69597 0
M  V30 1139 C 102.142 4.62392 4.81404 0
M  V30 1140 H 101.412 0.161171 0.72326 0
M  V30 1141 H 104.059 1.07061 1.58777 0
M  V30 1142 H 102.364 -0.100849 3.9167 0
M  V30 1143 H 104.061 0.2815 4.00011 0
M  V30 1144 H 100.651 1.71338 3.92863 0
M  V30 1145 H 104.835 2.65835 4.19101 0
M  V30 1146 H 100.091 4.00501 4.61962 0
M  V30 1147 H 104.265 4.95306 4.89536 0
M  V30 1148 H 101.892 5.63154 5.10648 0
M  V30 1149 N 103.467 -1.45747 0.599634 0
M  V30 1150 C 104.715 -2.01893 0.0915472 0
M  V30 1151 C 105.036 -1.47155 -1.27946 0
M  V30 1152 O 104.306 -0.66273 -1.84349 0
M  V30 1153 H 102.886 -0.746363 0.0308524 0
M  V30 1154 H 105.548 -1.78645 0.779237 0
M  V30 1155 H 104.644 -3.1208 0.0353086 0
M  V30 1156 N 104.945 -0.338344 -1.53925 0
M  V30 1157 C 105.875 0.51328 -2.27789 0
M  V30 1158 C 106.856 1.107 -1.29149 0
M  V30 1159 O 108.041 1.12937 -1.57984 0
M  V30 1160 C 105.171 1.66697 -3.04679 0
M  V30 1161 C 104.125 1.20183 -4.1078 0
M  V30 1162 C 103.451 2.44363 -4.75595 0
M  V30 1163 C 104.751 0.30605 -5.21403 0
M  V30 1164 H 106.445 -0.102883 -2.99223 0
M  V30 1165 H 103.991 -0.0509219 -1.4391 0
M  V30 1166 H 105.944 2.26915 -3.55088 0
M  V30 1167 H 104.668 2.30995 -2.30887 0
M  V30 1168 H 103.327 0.622499 -3.61276 0
M  V30 1169 H 102.975 3.07057 -3.98403 0
M  V30 1170 H 102.675 2.13925 -5.47275 0
M  V30 1171 H 104.199 3.05317 -5.28786 0
M  V30 1172 H 105.613 0.814929 -5.67478 0
M  V30 1173 H 104.01 0.0937929 -6.00027 0
M  V30 1174 H 105.08 -0.65921 -4.80398 0
M  V30 1175 N 106.423 1.57458 -0.0668435 0
M  V30 1176 C 107.355 2.09413 0.931601 0
M  V30 1177 C 108.368 1.02522 1.26464 0
M  V30 1178 O 109.557 1.30049 1.22269 0
M  V30 1179 C 106.657 2.53537 2.24882 0
M  V30 1180 C 105.83 3.83944 2.09537 0
M  V30 1181 C 104.889 4.14214 3.2452 0
M  V30 1182 O 103.915 4.83891 2.9973 0
M  V30 1183 N 105.117 3.67367 4.49469 0
M  V30 1184 H 107.882 2.95699 0.488048 0
M  V30 1185 H 105.443 1.61462 0.119009 0
M  V30 1186 H 107.435 2.70853 3.00701 0
M  V30 1187 H 106.005 1.72415 2.60753 0
M  V30 1188 H 105.225 3.76057 1.18215 0
M  V30 1189 H 106.513 4.69312 1.96529 0
M  V30 1190 H 105.911 3.11068 4.72497 0
M  V30 1191 H 104.468 3.89891 5.2233 0
M  V30 1192 N 107.901 -0.206675 1.56239 0
M  V30 1193 C 108.831 -1.25909 1.96645 0
M  V30 1194 C 109.812 -1.48097 0.836734 0
M  V30 1195 O 110.997 -1.6003 1.10019 0
M  V30 1196 C 108.127 -2.6058 2.29599 0
M  V30 1197 C 107.081 -2.53024 3.452 0
M  V30 1198 C 106.407 -3.91861 3.63798 0
M  V30 1199 C 107.707 -2.06524 4.79734 0
M  V30 1200 H 109.401 -0.923369 2.84806 0
M  V30 1201 H 106.947 -0.442735 1.37025 0
M  V30 1202 H 108.9 -3.34375 2.56459 0
M  V30 1203 H 107.624 -2.95869 1.38307 0
M  V30 1204 H 106.283 -1.81684 3.18412 0
M  V30 1205 H 105.931 -4.24483 2.69857 0
M  V30 1206 H 105.631 -3.87683 4.4156 0
M  V30 1207 H 107.155 -4.67296 3.93022 0
M  V30 1208 H 108.569 -2.70072 5.05702 0
M  V30 1209 H 106.966 -2.13374 5.60885 0
M  V30 1210 H 108.036 -1.01802 4.74093 0
M  V30 1211 N 109.379 -1.50304 -0.473955 0
M  V30 1212 C 110.342 -1.6841 -1.55469 0
M  V30 1213 C 111.342 -0.554905 -1.50922 0
M  V30 1214 O 112.532 -0.821882 -1.53593 0
M  V30 1215 C 109.664 -1.70667 -2.95102 0
M  V30 1216 H 110.857 -2.64828 -1.40733 0
M  V30 1217 H 108.41 -1.39742 -0.700132 0
M  V30 1218 H 109.145 -0.75932 -3.15285 0
M  V30 1219 H 108.93 -2.52698 -2.9981 0
M  V30 1220 H 110.42 -1.8664 -3.73571 0
M  V30 1221 N 110.857 0.726932 -1.39834 0
M  V30 1222 C 112.134 1.47902 -1.28001 0
M  V30 1223 C 112.514 2.1083 0.106789 0
M  V30 1224 O 111.862 1.99242 1.11869 0
M  V30 1225 C 112.072 2.52392 -2.41038 0
M  V30 1226 C 113.42 3.18546 -2.80737 0
M  V30 1227 O 114.444 2.62708 -2.40547 0
M  V30 1228 O 113.303 4.19604 -3.50135 0
M  V30 1229 H 110.397 0.657163 -0.502062 0
M  V30 1230 H 112.943 0.760071 -1.51727 0
M  V30 1231 H 111.715 2.04329 -3.33715 0
M  V30 1232 H 111.338 3.31837 -2.19021 0
M  V30 1233 N 112.336 1.25143 0.95797 0
M  V30 1234 C 113.613 1.00472 1.67823 0
M  V30 1235 C 113.993 -0.470056 2.058 0
M  V30 1236 O 113.341 -1.44663 1.76875 0
M  V30 1237 C 113.551 1.9372 2.90299 0
M  V30 1238 C 114.899 2.21371 3.62326 0
M  V30 1239 O 115.923 1.91451 3.00375 0
M  V30 1240 O 114.782 2.72231 4.7387 0
M  V30 1241 H 111.876 0.380752 0.734137 0
M  V30 1242 H 114.422 1.36283 1.01119 0
M  V30 1243 H 113.194 2.93316 2.59001 0
M  V30 1244 H 112.817 1.58286 3.64735 0
M  V30 1245 N 113.814 -1.1601 1.06675 0
M  V30 1246 C 115.039 -1.91068 0.806706 0
M  V30 1247 C 115.464 -1.77112 -0.633485 0
M  V30 1248 O 114.822 -1.09908 -1.44187 0
M  V30 1249 C 114.87 -3.39655 1.21106 0
M  V30 1250 O 113.974 -4.10893 0.352189 0
M  V30 1251 H 113.315 -0.595125 0.294486 0
M  V30 1252 H 115.845 -1.46955 1.42356 0
M  V30 1253 H 115.855 -3.90434 1.18428 0
M  V30 1254 H 114.53 -3.49132 2.26008 0
M  V30 1255 H 113.107 -3.70285 0.440868 0
M  V30 1256 N 115.292 -0.849877 -1.32721 0
M  V30 1257 C 116.52 -0.464754 -2.01613 0
M  V30 1258 C 116.935 0.937191 -1.63897 0
M  V30 1259 O 116.292 1.61081 -0.857856 0
M  V30 1260 C 116.343 -0.588638 -3.56675 0
M  V30 1261 O 116.064 -1.93535 -3.93034 0
M  V30 1262 C 117.565 -0.2019 -4.4284 0
M  V30 1263 H 114.785 -0.183215 -0.645502 0
M  V30 1264 H 117.329 -1.1455 -1.69407 0
M  V30 1265 H 115.484 0.0443159 -3.87375 0
M  V30 1266 H 115.898 -1.92871 -4.87751 0
M  V30 1267 H 117.372 -0.339599 -5.50954 0
M  V30 1268 H 117.849 0.857224 -4.30753 0
M  V30 1269 H 118.455 -0.809733 -4.17521 0
M  V30 1270 N 116.77 1.45427 -0.607355 0
M  V30 1271 C 118.047 1.9557 -0.0344566 0
M  V30 1272 C 118.427 1.54979 1.43334 0
M  V30 1273 O 117.775 0.812241 2.13576 0
M  V30 1274 C 117.985 3.48226 -0.232321 0
M  V30 1275 C 119.333 4.2445 -0.113001 0
M  V30 1276 O 120.357 3.55829 -0.162431 0
M  V30 1277 O 119.216 5.465 0.00209442 0
M  V30 1278 H 116.31 0.826222 0.0358667 0
M  V30 1279 H 118.856 1.55594 -0.6774 0
M  V30 1280 H 117.628 3.70739 -1.25174 0
M  V30 1281 H 117.251 3.95092 0.445896 0
M  V30 1282 N 118.248 0.346503 1.53744 0
M  V30 1283 C 119.196 -0.52422 2.26616 0
M  V30 1284 C 120.19 -1.09948 1.28871 0
M  V30 1285 O 121.396 -1.04488 1.46568 0
M  V30 1286 H 117.771 -0.187743 0.728187 0
M  V30 1287 H 119.742 0.11239 2.98188 0
M  V30 1288 C 118.491 -1.66186 3.05414 0
M  V30 1289 H 117.814 -1.22848 3.80458 0
M  V30 1290 H 119.254 -2.24622 3.59612 0
M  V30 1291 C 117.713 -2.59302 2.1509 0
M  V30 1292 O 118.243 -3.61628 1.74895 0
M  V30 1293 N 116.449 -2.28055 1.8011 0
M  V30 1294 H 115.996 -1.44883 2.12994 0
M  V30 1295 H 115.954 -2.90615 1.19958 0
M  V30 1296 N 119.726 -1.57421 0.075193 0
M  V30 1297 C 121.137 -1.81021 -0.456964 0
M  V30 1298 C 121.488 -0.98936 -1.69429 0
M  V30 1299 O 120.613 -0.212865 -2.15351 0
M  V30 1300 C 121.208 -3.28329 -0.83581 0
M  V30 1301 C 119.767 -3.52764 -1.31281 0
M  V30 1302 C 118.914 -2.75676 -0.299648 0
M  V30 1303 H 121.865 -1.55822 0.300856 0
M  V30 1304 H 121.886 -3.40564 -1.69696 0
M  V30 1305 H 121.398 -3.88046 0.0649238 0
M  V30 1306 H 119.499 -2.98355 -2.23193 0
M  V30 1307 H 119.612 -4.61451 -1.28839 0
M  V30 1308 H 117.976 -2.42538 -0.777641 0
M  V30 1309 H 118.759 -3.38132 0.593417 0
M  V30 1310 N 121.204 0.198386 -1.56346 0
M  V30 1311 C 122.62 0.549085 -1.49857 0
M  V30 1312 C 122.82 1.86016 -0.774611 0
M  V30 1313 O 121.876 2.50416 -0.323776 0
M  V30 1314 C 123.189 0.606868 -2.94512 0
M  V30 1315 C 124.737 0.695925 -3.05165 0
M  V30 1316 C 125.212 0.784848 -4.51225 0
M  V30 1317 N 126.703 0.848463 -4.55363 0
M  V30 1318 C 127.438 0.937378 -5.65686 0
M  V30 1319 N 126.934 0.9888 -6.85707 0
M  V30 1320 N 128.727 0.974312 -5.53592 0
M  V30 1321 H 120.878 -0.661655 -2.01831 0
M  V30 1322 H 123.141 -0.235261 -0.918344 0
M  V30 1323 H 122.847 -0.28732 -3.50524 0
M  V30 1324 H 122.721 1.46268 -3.47686 0
M  V30 1325 H 125.108 1.58055 -2.49204 0
M  V30 1326 H 125.189 -0.186022 -2.55123 0
M  V30 1327 H 124.833 -0.0954072 -5.0781 0
M  V30 1328 H 124.763 1.68255 -4.98997 0
M  V30 1329 H 127.254 0.818103 -3.68938 0
M  V30 1330 H 127.567 1.05707 -7.65536 0
M  V30 1331 H 125.912 0.957534 -6.88372 0
M  V30 1332 H 129.103 0.930954 -4.58749 0
M  V30 1333 H 129.276 1.04015 -6.39597 0
M  V30 1334 N 122.682 1.50554 0.465978 0
M  V30 1335 C 123.928 1.63006 1.21658 0
M  V30 1336 C 124.283 0.328613 1.89573 0
M  V30 1337 O 123.576 -0.673813 1.79361 0
M  V30 1338 C 123.77 2.75152 2.28093 0
M  V30 1339 C 123.599 4.16075 1.7062 0
M  V30 1340 C 122.369 4.82408 1.50368 0
M  V30 1341 C 124.567 5.00145 1.1983 0
M  V30 1342 N 122.549 6.07532 0.881924 0
M  V30 1343 C 123.92 6.16035 0.700083 0
M  V30 1344 C 125.975 4.85882 1.08733 0
M  V30 1345 C 124.678 7.19228 0.101835 0
M  V30 1346 C 126.704 5.89257 0.503016 0
M  V30 1347 C 126.066 7.04398 0.0152005 0
M  V30 1348 H 122.165 0.650596 0.433877 0
M  V30 1349 H 124.749 1.8769 0.517746 0
M  V30 1350 H 122.92 2.52181 2.95397 0
M  V30 1351 H 124.652 2.76935 2.95109 0
M  V30 1352 H 121.407 4.39788 1.75737 0
M  V30 1353 H 121.831 6.7443 0.589312 0
M  V30 1354 H 126.473 3.97144 1.4504 0
M  V30 1355 H 124.191 8.07637 -0.273426 0
M  V30 1356 H 127.777 5.80286 0.419451 0
M  V30 1357 H 126.657 7.83021 -0.429856 0
M  V30 1358 N 124.16 -0.719506 1.40217 0
M  V30 1359 C 125.09 -1.8465 1.42922 0
M  V30 1360 C 126.071 -1.67599 0.29062 0
M  V30 1361 O 127.256 -1.87688 0.498677 0
M  V30 1362 C 124.386 -3.22565 1.28722 0
M  V30 1363 C 123.34 -3.54281 2.40144 0
M  V30 1364 C 122.666 -4.91298 2.11023 0
M  V30 1365 C 123.966 -3.55676 3.82481 0
M  V30 1366 H 125.66 -1.82644 2.37237 0
M  V30 1367 H 123.206 -0.877305 1.1419 0
M  V30 1368 H 125.159 -4.01095 1.29232 0
M  V30 1369 H 123.883 -3.25137 0.308811 0
M  V30 1370 H 122.542 -2.78088 2.38877 0
M  V30 1371 H 122.19 -4.90468 1.11582 0
M  V30 1372 H 121.89 -5.13485 2.8567 0
M  V30 1373 H 123.414 -5.72166 2.13209 0
M  V30 1374 H 124.828 -4.24254 3.85592 0
M  V30 1375 H 123.225 -3.89388 4.56614 0
M  V30 1376 H 124.295 -2.55144 4.12346 0
M  V30 1377 N 125.638 -1.25649 -0.95132 0
M  V30 1378 C 126.915 -1.01361 -1.67288 0
M  V30 1379 C 127.295 0.459135 -2.06046 0
M  V30 1380 O 126.643 1.43723 -1.7764 0
M  V30 1381 C 126.853 -1.95256 -2.89268 0
M  V30 1382 C 128.201 -2.23289 -3.61147 0
M  V30 1383 O 129.225 -1.93041 -2.99355 0
M  V30 1384 O 128.084 -2.74741 -4.72419 0
M  V30 1385 H 125.178 -0.38464 -0.732107 0
M  V30 1386 H 127.724 -1.36817 -1.00395 0
M  V30 1387 H 126.496 -2.94685 -2.57442 0
M  V30 1388 H 126.119 -1.60218 -3.6389 0
M  V30 1389 N 127.117 1.15442 -1.07289 0
M  V30 1390 C 128.528 1.67803 -0.818475 0
M  V30 1391 C 128.879 1.8489 0.656507 0
M  V30 1392 O 128.004 1.55176 1.50829 0
M  V30 1393 C 128.599 3.04805 -1.47917 0
M  V30 1394 C 127.158 3.54245 -1.27229 0
M  V30 1395 C 126.305 2.29986 -1.54925 0
M  V30 1396 H 129.256 0.996646 -1.23502 0
M  V30 1397 H 129.277 3.69702 -0.90005 0
M  V30 1398 H 128.789 2.92336 -2.55267 0
M  V30 1399 H 126.89 3.71956 -0.21899 0
M  V30 1400 H 127.003 4.35723 -1.99203 0
M  V30 1401 H 125.367 2.35496 -0.970242 0
M  V30 1402 H 126.15 2.20105 -2.63455 0
M  V30 1403 N 128.595 0.856903 1.32268 0
M  V30 1404 C 129.543 0.291987 2.3076 0
M  V30 1405 C 130.537 -0.585857 1.58947 0
M  V30 1406 O 131.743 -0.47341 1.73663 0
M  V30 1407 H 128.118 0.075721 0.748178 0
M  V30 1408 H 130.089 1.13687 2.75895 0
M  V30 1409 C 128.838 -0.502869 3.44044 0
M  V30 1410 H 128.161 0.163328 3.99466 0
M  V30 1411 H 129.601 -0.863691 4.1511 0
M  V30 1412 C 128.06 -1.68898 2.91505 0
M  V30 1413 O 128.59 -2.78811 2.89184 0
M  V30 1414 N 126.796 -1.51679 2.47875 0
M  V30 1415 H 126.343 -0.622666 2.49961 0
M  V30 1416 H 126.301 -2.31184 2.13076 0
M  V30 1417 N 130.073 -1.45103 0.615059 0
M  V30 1418 C 131.02 -2.30586 -0.0993978 0
M  V30 1419 C 131.99 -1.42544 -0.852669 0
M  V30 1420 O 133.175 -1.71465 -0.836917 0
M  V30 1421 C 130.315 -3.27572 -1.08583 0
M  V30 1422 C 129.428 -4.30717 -0.332656 0
M  V30 1423 C 128.563 -5.14807 -1.30947 0
M  V30 1424 C 127.602 -6.09673 -0.544538 0
M  V30 1425 N 126.739 -6.86517 -1.47101 0
M  V30 1426 H 131.579 -2.91144 0.635542 0
M  V30 1427 H 129.116 -1.4346 0.325206 0
M  V30 1428 H 131.074 -3.82276 -1.67095 0
M  V30 1429 H 129.704 -2.68751 -1.78809 0
M  V30 1430 H 128.756 -3.78615 0.368107 0
M  V30 1431 H 130.068 -4.98102 0.263842 0
M  V30 1432 H 129.222 -5.73948 -1.96643 0
M  V30 1433 H 127.961 -4.47458 -1.9399 0
M  V30 1434 H 126.966 -5.49656 0.126003 0
M  V30 1435 H 128.191 -6.79052 0.080947 0
M  V30 1436 H 126.137 -6.21851 -2.08895 0
M  V30 1437 H 126.054 -7.50281 -0.928137 0
M  V30 1438 H 127.322 -7.50194 -2.11731 0
M  V30 1439 N 131.551 -0.354651 -1.53558 0
M  V30 1440 C 132.962 0.126902 -1.86268 0
M  V30 1441 C 133.313 1.49075 -1.27558 0
M  V30 1442 O 132.438 2.08105 -0.5934 0
M  V30 1443 C 133.033 0.237046 -3.3797 0
M  V30 1444 C 131.592 0.662842 -3.70518 0
M  V30 1445 C 130.739 -0.196652 -2.76602 0
M  V30 1446 H 133.69 -0.573849 -1.47962 0
M  V30 1447 H 133.711 1.06259 -3.65362 0
M  V30 1448 H 133.223 -0.755725 -3.80671 0
M  V30 1449 H 131.324 1.66424 -3.33367 0
M  V30 1450 H 131.437 0.445034 -4.77029 0
M  V30 1451 H 129.801 0.332763 -2.52517 0
M  V30 1452 H 130.584 -1.18676 -3.22135 0
M  V30 1453 N 133.029 1.57378 -0.0835403 0
M  V30 1454 C 134.278 1.93106 0.582498 0
M  V30 1455 C 134.591 0.96651 1.70053 0
M  V30 1456 O 135.797 1.21705 2.42693 0
M  V30 1457 C 134.253 3.43076 1.08751 0
M  V30 1458 C 133.861 4.48 -0.000146404 0
M  V30 1459 C 135.605 3.87785 1.72694 0
M  V30 1460 C 133.512 5.89113 0.519568 0
M  V30 1461 H 132.442 0.720775 0.221358 0
M  V30 1462 H 135.093 1.82821 -0.157675 0
M  V30 1463 H 133.475 3.48474 1.88101 0
M  V30 1464 H 134.649 4.54233 -0.775199 0
M  V30 1465 H 132.964 4.1283 -0.54406 0
M  V30 1466 H 135.561 4.90604 2.1263 0
M  V30 1467 H 135.904 3.25796 2.59158 0
M  V30 1468 H 136.437 3.8504 0.999457 0
M  V30 1469 H 133.176 6.54775 -0.308186 0
M  V30 1470 H 132.696 5.86376 1.26188 0
M  V30 1471 H 134.375 6.39346 0.992237 0
M  V30 1472 N 134.507 -0.190092 1.56449 0
M  V30 1473 C 135.923 -0.54113 1.50146 0
M  V30 1474 C 136.123 -1.85603 0.784465 0
M  V30 1475 O 135.179 -2.5024 0.337051 0
M  V30 1476 C 136.492 -0.591241 2.9483 0
M  V30 1477 C 138.04 -0.679732 3.0553 0
M  V30 1478 C 138.515 -0.760908 4.51635 0
M  V30 1479 N 140.006 -0.824302 4.55806 0
M  V30 1480 C 140.741 -0.907365 5.66175 0
M  V30 1481 N 140.237 -0.952422 6.86222 0
M  V30 1482 N 142.03 -0.94494 5.541 0
M  V30 1483 H 134.181 0.67235 2.01478 0
M  V30 1484 H 136.444 0.240127 0.917084 0
M  V30 1485 H 136.15 0.305905 3.50367 0
M  V30 1486 H 136.024 -1.44422 3.48457 0
M  V30 1487 H 138.411 -1.56731 2.50039 0
M  V30 1488 H 138.492 0.199549 2.5502 0
M  V30 1489 H 138.136 0.122336 5.07753 0
M  V30 1490 H 138.066 -1.65606 4.99882 0
M  V30 1491 H 140.557 -0.798526 3.69367 0
M  V30 1492 H 140.87 -1.01645 7.66086 0
M  V30 1493 H 139.215 -0.921014 6.8887 0
M  V30 1494 H 142.406 -0.906612 4.59236 0
M  V30 1495 H 142.579 -1.00622 6.4014 0
M  V30 1496 N 135.985 -1.50799 -0.457987 0
M  V30 1497 C 136.932 -1.70617 -1.5543 0
M  V30 1498 C 137.902 -0.547562 -1.56815 0
M  V30 1499 O 139.087 -0.779647 -1.74144 0
M  V30 1500 C 136.227 -1.81831 -2.93311 0
M  V30 1501 C 135.34 -3.09278 -3.01615 0
M  V30 1502 C 134.475 -3.11209 -4.30491 0
M  V30 1503 C 133.514 -4.33055 -4.32585 0
M  V30 1504 N 132.651 -4.32652 -5.52952 0
M  V30 1505 H 137.491 -2.64207 -1.37836 0
M  V30 1506 H 135.028 -1.30959 -0.669937 0
M  V30 1507 H 136.986 -1.86314 -3.73287 0
M  V30 1508 H 135.616 -0.916685 -3.0951 0
M  V30 1509 H 134.668 -3.14203 -2.1443 0
M  V30 1510 H 135.98 -3.99233 -2.99022 0
M  V30 1511 H 135.134 -3.14494 -5.18824 0
M  V30 1512 H 133.873 -2.19106 -4.35711 0
M  V30 1513 H 132.878 -4.29969 -3.42647 0
M  V30 1514 H 134.103 -5.264 -4.29046 0
M  V30 1515 H 132.049 -3.43409 -5.58933 0
M  V30 1516 H 131.966 -5.16392 -5.52155 0
M  V30 1517 H 133.234 -4.40101 -6.43375 0
M  V30 1518 N 137.463 0.71206 -1.40597 0
M  V30 1519 C 138.395 1.83704 -1.37061 0
M  V30 1520 C 139.408 1.60453 -0.275426 0
M  V30 1521 O 140.597 1.70262 -0.53602 0
M  V30 1522 C 137.697 3.20172 -1.11099 0
M  V30 1523 C 136.87 3.7059 -2.3234 0
M  V30 1524 C 135.929 4.85681 -2.02485 0
M  V30 1525 O 134.955 4.9815 -2.75382 0
M  V30 1526 N 136.157 5.71735 -1.00497 0
M  V30 1527 H 138.922 1.87235 -2.34016 0
M  V30 1528 H 136.483 0.893739 -1.34996 0
M  V30 1529 H 138.475 3.94768 -0.891064 0
M  V30 1530 H 137.045 3.11767 -0.227989 0
M  V30 1531 H 136.265 2.87085 -2.7014 0
M  V30 1532 H 137.553 4.01011 -3.13157 0
M  V30 1533 H 136.951 5.64275 -0.401298 0
M  V30 1534 H 135.508 6.463 -0.844942 0
M  V30 1535 N 138.941 1.26152 0.944643 0
M  V30 1536 C 139.871 1.09902 2.06019 0
M  V30 1537 C 140.852 0.00519538 1.70099 0
M  V30 1538 O 142.037 0.176583 1.93396 0
M  V30 1539 C 139.167 0.727562 3.39594 0
M  V30 1540 C 138.121 1.77274 3.89561 0
M  V30 1541 C 137.447 1.25569 5.19747 0
M  V30 1542 C 138.747 3.17357 4.14827 0
M  V30 1543 H 140.441 2.03217 2.19871 0
M  V30 1544 H 137.987 0.978452 1.05652 0
M  V30 1545 H 139.94 0.600777 4.17095 0
M  V30 1546 H 138.664 -0.241287 3.25707 0
M  V30 1547 H 137.323 1.88814 3.14237 0
M  V30 1548 H 136.971 0.276783 5.02238 0
M  V30 1549 H 136.671 1.95433 5.54148 0
M  V30 1550 H 138.195 1.1415 5.99835 0
M  V30 1551 H 139.609 3.08914 4.82954 0
M  V30 1552 H 138.006 3.84781 4.60504 0
M  V30 1553 H 139.076 3.63673 3.20734 0
M  V30 1554 N 140.419 -1.14872 1.07899 0
M  V30 1555 C 141.366 -2.19791 0.704319 0
M  V30 1556 C 142.336 -1.63238 -0.306987 0
M  V30 1557 O 143.521 -1.8983 -0.192171 0
M  V30 1558 C 140.661 -3.44911 0.114244 0
M  V30 1559 C 139.774 -4.15637 1.1777 0
M  V30 1560 C 138.909 -5.28324 0.552037 0
M  V30 1561 C 137.948 -5.90875 1.59789 0
M  V30 1562 N 137.085 -6.95022 0.994404 0
M  V30 1563 H 141.925 -2.5119 1.60336 0
M  V30 1564 H 139.462 -1.23356 0.801352 0
M  V30 1565 H 141.42 -4.16477 -0.245544 0
M  V30 1566 H 140.05 -3.14011 -0.74813 0
M  V30 1567 H 139.102 -3.42512 1.65499 0
M  V30 1568 H 140.414 -4.5823 1.97046 0
M  V30 1569 H 139.568 -6.06538 0.1402 0
M  V30 1570 H 138.307 -4.86939 -0.272431 0
M  V30 1571 H 137.312 -5.11369 2.01945 0
M  V30 1572 H 138.537 -6.34337 2.42474 0
M  V30 1573 H 136.483 -6.55722 0.190939 0
M  V30 1574 H 136.4 -7.36073 1.72432 0
M  V30 1575 H 137.668 -7.77123 0.608253 0
M  V30 1576 N 141.898 -0.863906 -1.31812 0
M  V30 1577 C 143.314 -0.555004 -1.49639 0
M  V30 1578 C 143.514 0.912266 -1.79666 0
M  V30 1579 O 142.57 1.69479 -1.87171 0
M  V30 1580 C 143.883 -1.44998 -2.63431 0
M  V30 1581 C 145.431 -1.45138 -2.77316 0
M  V30 1582 C 145.906 -2.33179 -3.94197 0
M  V30 1583 N 147.397 -2.31025 -4.01474 0
M  V30 1584 C 148.132 -2.95871 -4.9117 0
M  V30 1585 N 147.628 -3.69863 -5.8581 0
M  V30 1586 N 149.421 -2.85211 -4.84367 0
M  V30 1587 H 141.572 -1.81339 -1.10589 0
M  V30 1588 H 143.835 -0.77505 -0.545895 0
M  V30 1589 H 143.541 -2.49377 -2.48 0
M  V30 1590 H 143.415 -1.14409 -3.59431 0
M  V30 1591 H 145.802 -0.415201 -2.92164 0
M  V30 1592 H 145.883 -1.79747 -1.82001 0
M  V30 1593 H 145.527 -3.3687 -3.80107 0
M  V30 1594 H 145.457 -1.95897 -4.88807 0
M  V30 1595 H 147.948 -1.77238 -3.33759 0
M  V30 1596 H 148.261 -4.16486 -6.50968 0
M  V30 1597 H 146.606 -3.73971 -5.85808 0
M  V30 1598 H 149.797 -2.26948 -4.09405 0
M  V30 1599 H 149.97 -3.36027 -5.54066 0
M  V30 1600 N 143.376 1.44774 -0.622745 0
M  V30 1601 C 144.624 2.01721 -0.123655 0
M  V30 1602 C 144.945 1.49172 1.25589 0
M  V30 1603 O 144.215 0.691974 1.83272 0
M  V30 1604 H 142.795 0.745777 -0.0427225 0
M  V30 1605 H 145.457 1.77382 -0.807559 0
M  V30 1606 H 144.553 3.11984 -0.0849534 0
M  V30 1607 N 144.854 0.36279 1.53368 0
M  V30 1608 C 146.079 -0.231226 2.06107 0
M  V30 1609 C 146.504 -1.419 1.23474 0
M  V30 1610 O 145.862 -1.79524 0.253128 0
M  V30 1611 C 145.91 -0.605523 3.5548 0
M  V30 1612 O 145.014 -1.70312 3.7559 0
M  V30 1613 H 144.355 -0.034327 0.663112 0
M  V30 1614 H 146.885 0.522584 1.97814 0
M  V30 1615 H 146.895 -0.877314 3.98456 0
M  V30 1616 H 145.57 0.263004 4.15068 0
M  V30 1617 H 144.147 -1.4271 3.44512 0
M  V30 1618 N 146.332 -1.57332 0.0918853 0
M  V30 1619 C 147.743 -1.81496 -0.437739 0
M  V30 1620 C 148.094 -1.00727 -1.6837 0
M  V30 1621 O 147.219 -0.235694 -2.15113 0
M  V30 1622 C 147.814 -3.29197 -0.800939 0
M  V30 1623 C 146.373 -3.54136 -1.27532 0
M  V30 1624 C 145.52 -2.75979 -0.270392 0
M  V30 1625 H 148.471 -1.55494 0.317366 0
M  V30 1626 H 148.492 -3.42344 -1.66074 0
M  V30 1627 H 148.004 -3.87955 0.106078 0
M  V30 1628 H 146.105 -3.00705 -2.20016 0
M  V30 1629 H 146.218 -4.62792 -1.23938 0
M  V30 1630 H 144.582 -2.43349 -0.751872 0
M  V30 1631 H 145.365 -3.37484 0.629248 0
M  V30 1632 N 147.81 0.181792 -1.56548 0
M  V30 1633 C 149.04 0.914618 -1.85252 0
M  V30 1634 C 149.448 1.76791 -0.673914 0
M  V30 1635 O 148.791 1.80009 0.366416 0
M  V30 1636 C 148.853 1.85019 -3.08234 0
M  V30 1637 C 148.517 1.17754 -4.41569 0
M  V30 1638 C 149.514 0.548035 -5.17003 0
M  V30 1639 C 147.199 1.17742 -4.88305 0
M  V30 1640 C 149.193 -0.0726128 -6.37359 0
M  V30 1641 C 146.88 0.552946 -6.08593 0
M  V30 1642 C 147.878 -0.070978 -6.82963 0
M  V30 1643 O 147.566 -0.685635 -8.00971 0
M  V30 1644 H 147.298 0.271695 -0.618998 0
M  V30 1645 H 149.852 0.189944 -2.0452 0
M  V30 1646 H 148.082 2.61491 -2.84885 0
M  V30 1647 H 149.771 2.45195 -3.23472 0
M  V30 1648 H 150.537 0.540174 -4.81982 0
M  V30 1649 H 146.416 1.65246 -4.30366 0
M  V30 1650 H 149.96 -0.560213 -6.95347 0
M  V30 1651 H 145.857 0.558354 -6.43081 0
M  V30 1652 H 146.625 -0.58385 -8.16415 0
M  V30 1653 N 149.288 1.51039 0.449983 0
M  V30 1654 C 150.513 1.6715 1.22783 0
M  V30 1655 C 150.938 0.363081 1.84563 0
M  V30 1656 O 150.296 -0.675433 1.68249 0
M  V30 1657 C 150.344 2.77985 2.29689 0
M  V30 1658 O 149.448 2.40707 3.34864 0
M  V30 1659 H 148.789 0.557746 0.360299 0
M  V30 1660 H 151.319 1.97535 0.533005 0
M  V30 1661 H 151.329 3.01693 2.74673 0
M  V30 1662 H 150.004 3.72935 1.84098 0
M  V30 1663 H 148.581 2.27523 2.95445 0
M  V30 1664 N 150.766 -0.704594 1.40972 0
M  V30 1665 C 151.696 -1.83124 1.44872 0
M  V30 1666 C 152.677 -1.67281 0.30838 0
M  V30 1667 O 153.862 -1.87149 0.518556 0
M  V30 1668 C 150.992 -3.21181 1.32136 0
M  V30 1669 C 149.946 -3.51714 2.43888 0
M  V30 1670 C 149.272 -4.89032 2.16222 0
M  V30 1671 C 150.572 -3.516 3.86232 0
M  V30 1672 H 152.266 -1.80117 2.39161 0
M  V30 1673 H 149.812 -0.865145 1.15114 0
M  V30 1674 H 151.765 -3.99702 1.33479 0
M  V30 1675 H 150.489 -3.24791 0.343279 0
M  V30 1676 H 149.148 -2.75539 2.41813 0
M  V30 1677 H 148.796 -4.89256 1.16778 0
M  V30 1678 H 148.496 -5.10426 2.911 0
M  V30 1679 H 150.02 -5.69873 2.19265 0
M  V30 1680 H 151.434 -4.2014 3.9007 0
M  V30 1681 H 149.831 -3.84523 4.60719 0
M  V30 1682 H 150.901 -2.50757 4.15029 0
M  V30 1683 N 152.244 -1.26651 -0.937939 0
M  V30 1684 C 153.192 -1.08308 -2.05845 0
M  V30 1685 C 154.186 -0.0090757 -1.69398 0
M  V30 1686 O 155.392 -0.166007 -1.79233 0
M  V30 1687 H 151.767 -0.333416 -0.674046 0
M  V30 1688 H 153.738 -2.03261 -2.18467 0
M  V30 1689 C 152.487 -0.736229 -3.39816 0
M  V30 1690 H 151.81 -1.55453 -3.6834 0
M  V30 1691 H 153.25 -0.64769 -4.19024 0
M  V30 1692 C 151.709 0.558824 -3.32233 0
M  V30 1693 O 152.239 1.59621 -3.68624 0
M  V30 1694 N 150.445 0.550657 -2.85335 0
M  V30 1695 H 149.992 -0.293943 -2.55917 0
M  V30 1696 H 149.95 1.41726 -2.80644 0
M  V30 1697 N 153.722 1.14298 -1.08507 0
M  V30 1698 C 154.969 1.85359 -0.815373 0
M  V30 1699 C 155.297 1.83001 0.658865 0
M  V30 1700 O 154.552 1.25655 1.50031 0
M  V30 1701 C 154.851 3.33547 -1.28379 0
M  V30 1702 C 154.517 3.56093 -2.76602 0
M  V30 1703 C 153.179 3.61955 -3.17084 0
M  V30 1704 C 155.531 3.64834 -3.72217 0
M  V30 1705 C 152.859 3.74082 -4.51973 0
M  V30 1706 C 155.211 3.78487 -5.06883 0
M  V30 1707 C 153.875 3.82598 -5.46969 0
M  V30 1708 H 153.145 0.678276 -0.298366 0
M  V30 1709 H 155.792 1.35002 -1.35819 0
M  V30 1710 H 154.097 3.86191 -0.660593 0
M  V30 1711 H 155.794 3.86959 -1.05186 0
M  V30 1712 H 152.384 3.52179 -2.4427 0
M  V30 1713 H 156.568 3.59595 -3.42061 0
M  V30 1714 H 151.824 3.75527 -4.82483 0
M  V30 1715 H 155.998 3.84193 -5.80834 0
M  V30 1716 H 153.625 3.91747 -6.51489 0
M  V30 1717 N 155.201 0.870884 1.31352 0
M  V30 1718 C 156.617 0.562932 1.49343 0
M  V30 1719 C 156.817 -0.902725 1.80148 0
M  V30 1720 O 155.873 -1.68484 1.88067 0
M  V30 1721 C 157.186 1.46393 2.62659 0
M  V30 1722 C 158.734 1.46607 2.76542 0
M  V30 1723 C 159.209 2.35266 3.92955 0
M  V30 1724 N 160.7 2.33151 4.00243 0
M  V30 1725 C 161.435 2.98471 4.89594 0
M  V30 1726 N 160.931 3.72964 5.8384 0
M  V30 1727 N 162.724 2.87775 4.82848 0
M  V30 1728 H 154.875 1.81923 1.09626 0
M  V30 1729 H 157.138 0.777934 0.541777 0
M  V30 1730 H 156.844 2.50689 2.46674 0
M  V30 1731 H 156.718 1.16314 3.58819 0
M  V30 1732 H 159.105 0.43069 2.9194 0
M  V30 1733 H 159.186 1.8071 1.81046 0
M  V30 1734 H 158.83 3.38881 3.78315 0
M  V30 1735 H 158.76 1.98487 4.87761 0
M  V30 1736 H 161.251 1.79006 3.32814 0
M  V30 1737 H 161.564 4.19932 6.4875 0
M  V30 1738 H 159.909 3.77073 5.83816 0
M  V30 1739 H 163.1 2.29116 4.08195 0
M  V30 1740 H 163.273 3.38961 5.52277 0
M  V30 1741 N 156.679 -1.44442 0.630414 0
M  V30 1742 C 157.925 -2.02351 0.134816 0
M  V30 1743 C 158.258 -1.4947 -1.23986 0
M  V30 1744 O 157.533 -0.678475 -1.82283 0
M  V30 1745 C 157.816 -3.59898 0.120707 0
M  V30 1746 C 157.669 -4.23063 1.52767 0
M  V30 1747 C 158.988 -4.36585 -0.555127 0
M  V30 1748 H 156.107 -0.73527 0.0504646 0
M  V30 1749 H 158.749 -1.72022 0.806751 0
M  V30 1750 H 156.899 -3.85868 -0.451477 0
M  V30 1751 H 158.571 -4.08202 2.14869 0
M  V30 1752 H 156.814 -3.80586 2.08175 0
M  V30 1753 H 157.485 -5.32071 1.46984 0
M  V30 1754 H 159.961 -4.16044 -0.0685429 0
M  V30 1755 H 158.837 -5.46294 -0.534185 0
M  V30 1756 H 159.098 -4.11138 -1.62535 0
M  V30 1757 N 158.157 -0.370918 -1.53173 0
M  V30 1758 C 159.104 0.473035 -2.259 0
M  V30 1759 C 160.074 1.07311 -1.26781 0
M  V30 1760 O 161.259 1.1046 -1.55574 0
M  V30 1761 C 158.399 1.60405 -3.05556 0
M  V30 1762 C 157.512 1.02863 -4.19575 0
M  V30 1763 C 156.647 2.12918 -4.86661 0
M  V30 1764 C 155.686 1.52869 -5.92704 0
M  V30 1765 N 154.823 2.56779 -6.53459 0
M  V30 1766 H 159.663 -0.153649 -2.97604 0
M  V30 1767 H 157.2 -0.0875946 -1.46839 0
M  V30 1768 H 159.158 2.27034 -3.50016 0
M  V30 1769 H 157.788 2.20131 -2.36097 0
M  V30 1770 H 156.84 0.252465 -3.79561 0
M  V30 1771 H 158.152 0.549642 -4.95762 0
M  V30 1772 H 157.306 2.87356 -5.34333 0
M  V30 1773 H 156.045 2.6417 -4.09958 0
M  V30 1774 H 155.05 0.769479 -5.44389 0
M  V30 1775 H 156.275 1.02435 -6.7133 0
M  V30 1776 H 154.221 3.07235 -5.79606 0
M  V30 1777 H 154.138 2.13583 -7.25202 0
M  V30 1778 H 155.406 3.30903 -7.05779 0
M  V30 1779 N 159.635 1.57281 -0.100228 0
M  V30 1780 C 160.882 1.94537 0.562268 0
M  V30 1781 C 161.21 0.982315 1.67871 0
M  V30 1782 O 160.465 0.00280936 1.957 0
M  V30 1783 C 160.764 3.38305 1.15259 0
M  V30 1784 C 160.43 4.50618 0.159409 0
M  V30 1785 C 159.092 4.81066 -0.113741 0
M  V30 1786 C 161.444 5.18615 -0.518461 0
M  V30 1787 C 158.772 5.76835 -1.07137 0
M  V30 1788 C 161.124 6.15412 -1.46459 0
M  V30 1789 C 159.788 6.44262 -1.74592 0
M  V30 1790 H 159.058 0.711863 0.205748 0
M  V30 1791 H 161.705 1.90679 -0.17715 0
M  V30 1792 H 160.01 3.38766 1.96836 0
M  V30 1793 H 161.707 3.64435 1.67297 0
M  V30 1794 H 158.297 4.2689 0.382491 0
M  V30 1795 H 162.481 4.95264 -0.320581 0
M  V30 1796 H 157.737 5.975 -1.29628 0
M  V30 1797 H 161.911 6.67194 -1.99564 0
M  V30 1798 H 159.538 7.1828 -2.48953 0
M  V30 1799 N 161.113 -0.173488 1.56642 0
M  V30 1800 C 162.36 -0.890465 1.81871 0
M  V30 1801 C 162.688 -1.82339 0.67696 0
M  V30 1802 O 161.943 -1.92795 -0.335926 0
M  V30 1803 C 162.242 -1.72069 3.13252 0
M  V30 1804 C 161.908 -0.936878 4.41059 0
M  V30 1805 C 160.57 -0.720545 4.75775 0
M  V30 1806 C 162.922 -0.386919 5.19762 0
M  V30 1807 C 160.25 0.0568829 5.86672 0
M  V30 1808 C 162.602 0.37741 6.31473 0
M  V30 1809 C 161.266 0.604563 6.64757 0
M  V30 1810 H 160.536 -0.325844 0.665512 0
M  V30 1811 H 163.183 -0.155527 1.90867 0
M  V30 1812 H 161.488 -2.52496 2.99588 0
M  V30 1813 H 163.185 -2.27844 3.29982 0
M  V30 1814 H 159.775 -1.11553 4.13828 0
M  V30 1815 H 163.959 -0.541398 4.93338 0
M  V30 1816 H 159.215 0.242635 6.10918 0
M  V30 1817 H 163.389 0.810825 6.91664 0
M  V30 1818 H 161.016 1.20885 7.50527 0
M  V30 1819 N 162.591 -1.51276 -0.441967 0
M  V30 1820 C 163.837 -1.63958 -1.19355 0
M  V30 1821 C 164.17 -0.352543 -1.90973 0
M  V30 1822 O 163.445 0.647627 -1.83401 0
M  V30 1823 C 163.728 -2.83979 -2.21422 0
M  V30 1824 C 163.581 -4.22646 -1.53918 0
M  V30 1825 C 164.9 -2.99521 -3.22451 0
M  V30 1826 H 162.019 -0.596709 -0.432559 0
M  V30 1827 H 164.661 -1.83748 -0.483398 0
M  V30 1828 H 162.811 -2.67237 -2.81987 0
M  V30 1829 H 164.483 -4.51045 -0.967256 0
M  V30 1830 H 162.726 -4.25558 -0.841615 0
M  V30 1831 H 163.397 -5.02609 -2.28229 0
M  V30 1832 H 165.873 -3.14944 -2.71937 0
M  V30 1833 H 164.749 -3.85072 -3.91166 0
M  V30 1834 H 165.01 -2.11391 -3.88287 0
M  V30 1835 N 164.069 0.697108 -1.41344 0
M  V30 1836 C 165.294 1.49096 -1.44171 0
M  V30 1837 C 165.719 1.88038 -0.0481568 0
M  V30 1838 O 165.077 1.54525 0.948243 0
M  V30 1839 C 165.125 2.73088 -2.3549 0
M  V30 1840 O 164.229 3.70514 -1.81088 0
M  V30 1841 H 163.57 0.448801 -0.489361 0
M  V30 1842 H 166.1 0.856992 -1.85787 0
M  V30 1843 H 166.11 3.21413 -2.51312 0
M  V30 1844 H 164.785 2.44081 -3.36745 0
M  V30 1845 H 163.362 3.29441 -1.74708 0
M  V30 1846 N 165.547 1.27147 0.931209 0
M  V30 1847 C 166.824 1.0401 1.65654 0
M  V30 1848 C 167.204 -0.426297 2.06751 0
M  V30 1849 O 166.552 -1.40879 1.79904 0
M  V30 1850 C 166.762 1.99834 2.86125 0
M  V30 1851 C 168.11 2.29007 3.57549 0
M  V30 1852 O 169.134 1.97779 2.96246 0
M  V30 1853 O 167.993 2.82222 4.67989 0
M  V30 1854 H 165.087 0.396239 0.725895 0
M  V30 1855 H 167.633 1.38397 0.982056 0
M  V30 1856 H 166.405 2.98744 2.52721 0
M  V30 1857 H 166.028 1.65987 3.61295 0
M  V30 1858 N 167.025 -1.13721 1.09112 0
M  V30 1859 C 168.436 -1.6648 0.845068 0
M  V30 1860 C 168.787 -1.85911 -0.62701 0
M  V30 1861 O 167.912 -1.57556 -1.48341 0
M  V30 1862 C 168.507 -3.02413 1.52748 0
M  V30 1863 C 167.066 -3.52176 1.32849 0
M  V30 1864 C 166.213 -2.27492 1.58564 0
M  V30 1865 H 169.164 -0.976872 1.25072 0
M  V30 1866 H 169.185 -3.68223 0.958752 0
M  V30 1867 H 168.697 -2.88238 2.59885 0
M  V30 1868 H 166.798 -3.7156 0.278137 0
M  V30 1869 H 166.911 -4.32499 2.0611 0
M  V30 1870 H 165.275 -2.33923 1.00758 0
M  V30 1871 H 166.058 -2.15886 2.66924 0
M  V30 1872 N 168.503 -0.877838 -1.30888 0
M  V30 1873 C 169.451 -0.328662 -2.30266 0
M  V30 1874 C 170.445 0.560496 -1.59859 0
M  V30 1875 O 171.651 0.445722 -1.74394 0
M  V30 1876 H 168.026 -0.0876142 -0.746879 0
M  V30 1877 H 169.997 -1.18061 -2.74051 0
M  V30 1878 C 168.746 0.448071 -3.44801 0
M  V30 1879 H 168.069 -0.226859 -3.99156 0
M  V30 1880 H 169.509 0.797541 -4.16432 0
M  V30 1881 C 167.968 1.64239 -2.94155 0
M  V30 1882 O 168.498 2.74175 -2.93583 0
M  V30 1883 N 166.704 1.47716 -2.50256 0
M  V30 1884 H 166.251 0.582821 -2.5092 0
M  V30 1885 H 166.209 2.27765 -2.16727 0
M  V30 1886 N 169.982 1.44106 -0.638065 0
M  V30 1887 C 170.929 2.30715 0.062701 0
M  V30 1888 C 171.899 1.43882 0.829883 0
M  V30 1889 O 173.084 1.72775 0.809532 0
M  V30 1890 C 170.224 3.29258 1.03358 0
M  V30 1891 C 169.337 4.31192 0.26409 0
M  V30 1892 C 168.472 5.16825 1.22741 0
M  V30 1893 C 167.511 6.10462 0.447475 0
M  V30 1894 N 166.648 6.8877 1.36161 0
M  V30 1895 H 171.488 2.90096 -0.681781 0
M  V30 1896 H 169.025 1.42925 -0.347988 0
M  V30 1897 H 170.983 3.84886 1.60992 0
M  V30 1898 H 169.613 2.71562 1.74511 0
M  V30 1899 H 168.665 3.77981 -0.428295 0
M  V30 1900 H 169.977 4.97619 -0.343052 0
M  V30 1901 H 169.131 5.77004 1.87487 0
M  V30 1902 H 167.87 4.50488 1.86847 0
M  V30 1903 H 166.875 5.49386 -0.213433 0
M  V30 1904 H 168.1 6.78837 -0.188968 0
M  V30 1905 H 166.046 6.25096 1.98975 0
M  V30 1906 H 165.963 7.51663 0.808656 0
M  V30 1907 H 167.231 7.53467 1.99769 0
M  V30 1908 N 171.46 0.379036 1.52974 0
M  V30 1909 C 172.39 -0.452706 2.29069 0
M  V30 1910 C 173.371 -1.07237 1.32039 0
M  V30 1911 O 174.556 -1.08708 1.60923 0
M  V30 1912 C 171.686 -1.5856 3.08992 0
M  V30 1913 C 170.64 -1.0925 4.13822 0
M  V30 1914 C 169.966 -2.31668 4.81907 0
M  V30 1915 C 171.266 -0.167702 5.22031 0
M  V30 1916 H 172.96 0.182181 2.98845 0
M  V30 1917 H 170.506 0.0890592 1.43724 0
M  V30 1918 H 172.459 -2.1742 3.6098 0
M  V30 1919 H 171.183 -2.24792 2.36931 0
M  V30 1920 H 169.842 -0.526494 3.628 0
M  V30 1921 H 169.49 -2.96386 4.06404 0
M  V30 1922 H 169.19 -1.9934 5.52754 0
M  V30 1923 H 170.714 -2.91189 5.36695 0
M  V30 1924 H 172.128 -0.664186 5.6944 0
M  V30 1925 H 170.525 0.0653265 6.00064 0
M  V30 1926 H 171.595 0.786347 4.78482 0
M  V30 1927 N 172.938 -1.57226 0.108567 0
M  V30 1928 C 173.87 -2.11809 -0.875752 0
M  V30 1929 C 174.883 -1.05839 -1.23701 0
M  V30 1930 O 176.072 -1.33245 -1.18778 0
M  V30 1931 C 173.172 -2.59411 -2.18081 0
M  V30 1932 C 172.345 -3.89364 -1.99284 0
M  V30 1933 C 171.404 -4.22672 -3.13424 0
M  V30 1934 O 170.43 -4.91668 -2.86795 0
M  V30 1935 N 171.632 -3.79154 -4.3957 0
M  V30 1936 H 174.397 -2.9689 -0.409477 0
M  V30 1937 H 171.958 -1.61721 -0.076158 0
M  V30 1938 H 173.95 -2.7873 -2.93414 0
M  V30 1939 H 172.52 -1.79268 -2.5609 0
M  V30 1940 H 171.74 -3.79059 -1.08203 0
M  V30 1941 H 173.028 -4.74358 -1.84017 0
M  V30 1942 H 172.426 -3.23486 -4.64083 0
M  V30 1943 H 170.983 -4.03602 -5.11809 0
M  V30 1944 N 174.416 0.165178 -1.56732 0
M  V30 1945 C 175.326 1.22423 -2.00125 0
M  V30 1946 C 176.342 1.48084 -0.913619 0
M  V30 1947 O 177.518 1.60112 -1.22172 0
M  V30 1948 C 174.583 2.54197 -2.35764 0
M  V30 1949 C 173.644 2.36343 -3.58386 0
M  V30 1950 C 172.877 3.61834 -3.92316 0
M  V30 1951 O 173.1 4.67267 -3.27135 0
M  V30 1952 O 172.034 3.55579 -4.85641 0
M  V30 1953 H 175.86 0.885886 -2.90492 0
M  V30 1954 H 173.445 0.372518 -1.44681 0
M  V30 1955 H 175.327 3.3192 -2.59629 0
M  V30 1956 H 174.002 2.87598 -1.48557 0
M  V30 1957 H 172.909 1.56632 -3.39731 0
M  V30 1958 H 174.242 2.07865 -4.46154 0
M  V30 1959 N 175.894 1.51508 0.433938 0
M  V30 1960 C 176.804 1.75917 1.5521 0
M  V30 1961 C 177.82 0.643545 1.61662 0
M  V30 1962 O 178.996 0.926183 1.7884 0
M  V30 1963 C 176.061 1.88213 2.91164 0
M  V30 1964 C 175.122 3.12074 2.94802 0
M  V30 1965 C 174.355 3.23774 4.24271 0
M  V30 1966 O 174.578 2.4133 5.16833 0
M  V30 1967 O 173.512 4.16774 4.34262 0
M  V30 1968 H 177.338 2.70777 1.37527 0
M  V30 1969 H 174.923 1.36051 0.617293 0
M  V30 1970 H 176.805 1.98267 3.71845 0
M  V30 1971 H 175.48 0.965413 3.08968 0
M  V30 1972 H 174.387 3.07497 2.13065 0
M  V30 1973 H 175.72 4.03446 2.81943 0
M  V30 1974 N 177.372 -0.689602 1.41712 0
M  V30 1975 C 178.602 -1.47613 1.44548 0
M  V30 1976 C 179.01 -1.89132 0.0509034 0
M  V30 1977 O 178.353 -1.57741 -0.94146 0
M  V30 1978 C 178.415 -2.76596 2.2964 0
M  V30 1979 C 178.079 -2.57245 3.77722 0
M  V30 1980 C 179.076 -2.22804 4.69739 0
M  V30 1981 C 176.761 -2.727 4.2183 0
M  V30 1982 C 178.755 -2.04064 6.03851 0
M  V30 1983 C 176.442 -2.53576 5.56006 0
M  V30 1984 C 177.44 -2.1931 6.46832 0
M  V30 1985 O 177.128 -2.00359 7.78532 0
M  V30 1986 H 176.86 -0.461227 0.494212 0
M  V30 1987 H 179.414 -0.856045 1.86711 0
M  V30 1988 H 177.644 -3.41033 1.82301 0
M  V30 1989 H 179.333 -3.38424 2.24107 0
M  V30 1990 H 180.099 -2.10473 4.36951 0
M  V30 1991 H 175.978 -2.98353 3.51435 0
M  V30 1992 H 179.522 -1.77241 6.74708 0
M  V30 1993 H 175.419 -2.65499 5.88371 0
M  V30 1994 H 176.187 -2.15075 7.89737 0
M  V30 1995 N 178.85 -1.27639 -0.924453 0
M  V30 1996 C 180.078 -1.16989 -1.70649 0
M  V30 1997 C 180.493 0.272869 -1.86818 0
M  V30 1998 O 179.85 1.18549 -1.38753 0
M  V30 1999 C 179.901 -1.85229 -3.10439 0
M  V30 2000 O 179.622 -3.23868 -2.95028 0
M  V30 2001 C 181.123 -1.80746 -4.04779 0
M  V30 2002 H 178.343 -0.406595 -0.53378 0
M  V30 2003 H 180.887 -1.68569 -1.15778 0
M  V30 2004 H 179.042 -1.37545 -3.6216 0
M  V30 2005 H 179.456 -3.57889 -3.83426 0
M  V30 2006 H 180.93 -2.33101 -5.00368 0
M  V30 2007 H 181.407 -0.777499 -4.32263 0
M  V30 2008 H 182.013 -2.28059 -3.58984 0
M  V30 2009 N 180.328 1.1314 -1.09713 0
M  V30 2010 C 181.744 1.36477 -0.827423 0
M  V30 2011 C 181.944 1.93654 0.556817 0
M  V30 2012 O 181 2.15791 1.31112 0
M  V30 2013 C 182.313 2.31334 -1.92106 0
M  V30 2014 C 183.861 2.44943 -1.94864 0
M  V30 2015 C 184.336 3.4311 -3.0338 0
M  V30 2016 N 185.827 3.50662 -3.02639 0
M  V30 2017 C 186.562 4.2651 -3.83246 0
M  V30 2018 N 186.058 5.05485 -4.73768 0
M  V30 2019 N 187.851 4.2184 -3.71493 0
M  V30 2020 H 180.002 0.743807 -1.9895 0
M  V30 2021 H 182.265 0.389823 -0.864143 0
M  V30 2022 H 181.971 1.96483 -2.91698 0
M  V30 2023 H 181.845 3.31381 -1.80184 0
M  V30 2024 H 184.232 2.79079 -0.959099 0
M  V30 2025 H 184.313 1.4481 -2.10864 0
M  V30 2026 H 183.957 3.09704 -4.02549 0
M  V30 2027 H 183.887 4.43055 -2.84622 0
M  V30 2028 H 186.378 2.94315 -2.37039 0
M  V30 2029 H 186.691 5.60675 -5.3185 0
M  V30 2030 H 185.036 5.04708 -4.77802 0
M  V30 2031 H 188.227 3.5922 -3.00131 0
M  V30 2032 H 188.4 4.80697 -4.3455 0
M  V30 2033 N 181.806 0.884767 1.30421 0
M  V30 2034 C 183.036 0.517293 2.00019 0
M  V30 2035 C 183.444 -0.898632 1.66497 0
M  V30 2036 O 182.787 -1.60245 0.898181 0
M  V30 2037 C 182.849 0.612025 3.54252 0
M  V30 2038 C 182.513 1.99222 4.1129 0
M  V30 2039 C 183.51 2.9616 4.273 0
M  V30 2040 C 181.195 2.29755 4.46674 0
M  V30 2041 C 183.189 4.21764 4.77906 0
M  V30 2042 C 180.876 3.55606 4.96979 0
M  V30 2043 C 181.874 4.51425 5.12547 0
M  V30 2044 O 181.562 5.75043 5.61766 0
M  V30 2045 H 181.294 0.198529 0.64619 0
M  V30 2046 H 183.848 1.1919 1.67281 0
M  V30 2047 H 182.078 -0.119561 3.86515 0
M  V30 2048 H 183.767 0.255859 4.05093 0
M  V30 2049 H 184.533 2.73882 4.00267 0
M  V30 2050 H 180.412 1.55942 4.33824 0
M  V30 2051 H 183.956 4.96561 4.89972 0
M  V30 2052 H 179.853 3.7772 5.23448 0
M  V30 2053 H 180.621 5.77422 5.80109 0
M  V30 2054 N 183.284 -1.43765 0.645699 0
M  V30 2055 C 184.216 -2.29027 -0.0890605 0
M  V30 2056 C 185.229 -1.42093 -0.794563 0
M  V30 2057 O 186.418 -1.66104 -0.653575 0
M  V30 2058 C 183.518 -3.18831 -1.14891 0
M  V30 2059 C 182.691 -4.34261 -0.523043 0
M  V30 2060 C 181.75 -5.04994 -1.47878 0
M  V30 2061 O 180.776 -5.6052 -0.990277 0
M  V30 2062 N 181.978 -5.07795 -2.81291 0
M  V30 2063 H 184.743 -2.92727 0.64272 0
M  V30 2064 H 182.304 -1.54373 0.487924 0
M  V30 2065 H 184.296 -3.63015 -1.78892 0
M  V30 2066 H 182.866 -2.56782 -1.78275 0
M  V30 2067 H 182.086 -3.93088 0.295896 0
M  V30 2068 H 183.374 -5.08728 -0.0858147 0
M  V30 2069 H 182.772 -4.64042 -3.23546 0
M  V30 2070 H 181.329 -5.55721 -3.40614 0
M  V30 2071 N 184.763 -0.387143 -1.52771 0
M  V30 2072 C 185.993 0.195585 -2.05672 0
M  V30 2073 C 186.401 1.41241 -1.25887 0
M  V30 2074 O 185.744 1.81265 -0.298081 0
M  V30 2075 C 185.806 0.632327 -3.53895 0
M  V30 2076 C 185.47 -0.470739 -4.54569 0
M  V30 2077 C 186.467 -1.32746 -5.02667 0
M  V30 2078 C 184.152 -0.637151 -4.98243 0
M  V30 2079 C 186.146 -2.33574 -5.93061 0
M  V30 2080 C 183.833 -1.64877 -5.88438 0
M  V30 2081 C 184.831 -2.49649 -6.35739 0
M  V30 2082 O 184.519 -3.49082 -7.24153 0
M  V30 2083 H 184.251 0.033658 -0.675162 0
M  V30 2084 H 186.805 -0.550221 -1.97893 0
M  V30 2085 H 185.035 1.43008 -3.59285 0
M  V30 2086 H 186.724 1.14048 -3.89548 0
M  V30 2087 H 187.49 -1.21019 -4.69659 0
M  V30 2088 H 183.369 0.0129567 -4.60998 0
M  V30 2089 H 186.913 -2.99777 -6.29904 0
M  V30 2090 H 182.81 -1.76643 -6.2086 0
M  V30 2091 H 183.578 -3.45065 -7.42208 0
M  V30 2092 N 186.241 1.57166 -0.116904 0
M  V30 2093 C 187.488 1.95123 0.541603 0
M  V30 2094 C 187.816 1.00006 1.6682 0
M  V30 2095 O 187.071 0.0235658 1.95686 0
M  V30 2096 C 187.37 3.39508 1.11664 0
M  V30 2097 C 187.036 4.50762 0.111606 0
M  V30 2098 C 185.698 4.80918 -0.164758 0
M  V30 2099 C 188.05 5.18036 -0.573438 0
M  V30 2100 C 185.378 5.75666 -1.13249 0
M  V30 2101 C 187.73 6.13824 -1.52978 0
M  V30 2102 C 186.394 6.42374 -1.81415 0
M  V30 2103 H 185.664 0.714005 0.198187 0
M  V30 2104 H 188.311 1.9048 -0.197365 0
M  V30 2105 H 186.616 3.40835 1.93232 0
M  V30 2106 H 188.313 3.66189 1.63422 0
M  V30 2107 H 184.903 4.27272 0.337192 0
M  V30 2108 H 189.087 4.94896 -0.373092 0
M  V30 2109 H 184.343 5.96092 -1.35958 0
M  V30 2110 H 188.517 6.65039 -2.06629 0
M  V30 2111 H 186.144 7.15599 -2.56557 0
M  V30 2112 N 187.719 -0.156864 1.56817 0
M  V30 2113 C 188.649 -1.19589 2.00551 0
M  V30 2114 C 189.63 -1.4536 0.883426 0
M  V30 2115 O 190.815 -1.56449 1.15054 0
M  V30 2116 C 187.945 -2.53143 2.37773 0
M  V30 2117 C 186.899 -2.41913 3.53075 0
M  V30 2118 C 186.225 -3.80088 3.76081 0
M  V30 2119 C 187.525 -1.91157 4.86062 0
M  V30 2120 H 189.219 -0.832293 2.87599 0
M  V30 2121 H 186.765 -0.398918 1.38364 0
M  V30 2122 H 188.718 -3.26047 2.66967 0
M  V30 2123 H 187.442 -2.91319 1.4765 0
M  V30 2124 H 186.101 -1.71462 3.24031 0
M  V30 2125 H 185.749 -4.15683 2.83225 0
M  V30 2126 H 185.449 -3.73439 4.53671 0
M  V30 2127 H 186.973 -4.54556 4.0769 0
M  V30 2128 H 188.387 -2.53846 5.14038 0
M  V30 2129 H 186.784 -1.95422 5.67389 0
M  V30 2130 H 187.854 -0.866673 4.77092 0
M  V30 2131 N 189.197 -1.51736 -0.425897 0
M  V30 2132 C 190.129 -1.70083 -1.53638 0
M  V30 2133 C 191.142 -0.581349 -1.52066 0
M  V30 2134 O 192.331 -0.856017 -1.56635 0
M  V30 2135 C 189.431 -1.71078 -2.9255 0
M  V30 2136 C 188.604 -2.99795 -3.185 0
M  V30 2137 C 187.663 -2.92825 -4.37196 0
M  V30 2138 O 186.689 -3.66756 -4.35291 0
M  V30 2139 N 187.891 -2.0946 -5.41393 0
M  V30 2140 H 190.656 -2.65882 -1.383 0
M  V30 2141 H 188.217 -1.49765 -0.614988 0
M  V30 2142 H 190.209 -1.63969 -3.69995 0
M  V30 2143 H 188.779 -0.828242 -3.01428 0
M  V30 2144 H 187.999 -3.20684 -2.2925 0
M  V30 2145 H 189.287 -3.84977 -3.32671 0
M  V30 2146 H 188.685 -1.48792 -5.45781 0
M  V30 2147 H 187.242 -2.08221 -6.17647 0
M  V30 2148 N 190.675 0.682077 -1.42076 0
M  V30 2149 C 191.924 1.43786 -1.41451 0
M  V30 2150 C 192.237 1.95574 -0.0317074 0
M  V30 2151 O 193.443 2.71326 0.0971462 0
M  V30 2152 C 191.899 2.60071 -2.48779 0
M  V30 2153 C 191.507 2.15013 -3.93031 0
M  V30 2154 C 193.251 3.37626 -2.57311 0
M  V30 2155 C 191.158 3.28336 -4.91883 0
M  V30 2156 H 190.088 0.540143 -0.526082 0
M  V30 2157 H 192.739 0.739157 -1.67955 0
M  V30 2158 H 191.121 3.32275 -2.15429 0
M  V30 2159 H 192.295 1.5001 -4.35699 0
M  V30 2160 H 190.61 1.50416 -3.88284 0
M  V30 2161 H 193.207 4.22012 -3.28345 0
M  V30 2162 H 193.55 3.83727 -1.61429 0
M  V30 2163 H 194.083 2.72488 -2.89819 0
M  V30 2164 H 190.822 2.87234 -5.89217 0
M  V30 2165 H 190.342 3.92145 -4.53853 0
M  V30 2166 H 192.021 3.93913 -5.13265 0
M  V30 2167 N 192.153 1.28127 0.917671 0
M  V30 2168 C 193.1 1.11717 2.0196 0
M  V30 2169 C 194.07 0.0153929 1.66093 0
M  V30 2170 O 195.255 0.179596 1.89953 0
M  V30 2171 C 192.395 0.780927 3.36148 0
M  V30 2172 C 191.508 1.96135 3.84909 0
M  V30 2173 C 190.643 1.56609 5.0759 0
M  V30 2174 C 189.682 2.71339 5.48673 0
M  V30 2175 N 188.819 2.32332 6.62545 0
M  V30 2176 H 193.659 2.06003 2.15329 0
M  V30 2177 H 191.196 1.02535 1.05475 0
M  V30 2178 H 193.154 0.56675 4.13333 0
M  V30 2179 H 191.784 -0.124998 3.22558 0
M  V30 2180 H 190.836 2.28777 3.03916 0
M  V30 2181 H 192.148 2.82165 4.1132 0
M  V30 2182 H 191.302 1.31374 5.92305 0
M  V30 2183 H 190.041 0.677014 4.82978 0
M  V30 2184 H 189.046 2.97276 4.62501 0
M  V30 2185 H 190.271 3.60882 5.75274 0
M  V30 2186 H 188.217 1.45889 6.39572 0
M  V30 2187 H 188.134 3.11899 6.88662 0
M  V30 2188 H 189.402 2.10371 7.50576 0
M  V30 2189 N 193.631 -1.12557 1.10312 0
M  V30 2190 C 194.563 -2.17971 0.708625 0
M  V30 2191 C 195.576 -1.60806 -0.254027 0
M  V30 2192 O 196.765 -1.78458 -0.0386891 0
M  V30 2193 C 193.865 -3.38891 0.0248198 0
M  V30 2194 C 193.038 -4.25548 1.01132 0
M  V30 2195 C 192.097 -5.24972 0.35924 0
M  V30 2196 O 191.123 -5.60174 1.00965 0
M  V30 2197 N 192.325 -5.73747 -0.882847 0
M  V30 2198 H 195.09 -2.52427 1.61557 0
M  V30 2199 H 192.651 -1.27967 0.991771 0
M  V30 2200 H 194.643 -4.02485 -0.422852 0
M  V30 2201 H 193.213 -3.02596 -0.784514 0
M  V30 2202 H 192.433 -3.58589 1.6373 0
M  V30 2203 H 193.721 -4.80294 1.67914 0
M  V30 2204 H 193.119 -5.4731 -1.43065 0
M  V30 2205 H 191.676 -6.39234 -1.27369 0
M  V30 2206 N 195.109 -0.891671 -1.2995 0
M  V30 2207 C 196.386 -0.433307 -1.9074 0
M  V30 2208 C 196.766 1.08646 -1.80995 0
M  V30 2209 O 196.114 1.92476 -1.23147 0
M  V30 2210 C 196.324 -0.938895 -3.36134 0
M  V30 2211 C 197.672 -0.977829 -4.13187 0
M  V30 2212 O 198.696 -0.886015 -3.45005 0
M  V30 2213 O 197.555 -1.11453 -5.35015 0
M  V30 2214 H 194.649 -0.133699 -0.816121 0
M  V30 2215 H 197.195 -0.981011 -1.38471 0
M  V30 2216 H 195.967 -1.98281 -3.37343 0
M  V30 2217 H 195.59 -0.37074 -3.95868 0
M  V30 2218 N 196.587 1.43421 -0.653314 0
M  V30 2219 C 197.836 2.01032 -0.164076 0
M  V30 2220 C 198.149 1.52147 1.22926 0
M  V30 2221 O 199.355 2.02031 1.81371 0
M  V30 2222 C 197.811 3.59082 -0.24252 0
M  V30 2223 C 197.419 4.1696 -1.63855 0
M  V30 2224 C 199.163 4.24079 0.18911 0
M  V30 2225 C 197.07 5.67304 -1.67092 0
M  V30 2226 H 196 0.751798 -0.0575769 0
M  V30 2227 H 198.651 1.6439 -0.815362 0
M  V30 2228 H 197.033 3.93125 0.476276 0
M  V30 2229 H 198.207 3.94416 -2.38271 0
M  V30 2230 H 196.522 3.64335 -2.01616 0
M  V30 2231 H 199.119 5.34381 0.184775 0
M  V30 2232 H 199.462 3.98005 1.22056 0
M  V30 2233 H 199.995 3.94918 -0.477938 0
M  V30 2234 H 196.734 5.98145 -2.68146 0
M  V30 2235 H 196.254 5.91904 -0.970014 0
M  V30 2236 H 197.933 6.31344 -1.4147 0
M  V30 2237 N 198.065 0.39524 1.52563 0
M  V30 2238 C 198.995 -0.428384 2.29537 0
M  V30 2239 C 199.976 -1.05831 1.33169 0
M  V30 2240 O 201.161 -1.06995 1.62067 0
M  V30 2241 C 198.291 -1.55274 3.10656 0
M  V30 2242 C 197.245 -1.04855 4.14957 0
M  V30 2243 C 196.571 -2.26543 4.84337 0
M  V30 2244 C 197.871 -0.112324 5.22179 0
M  V30 2245 H 199.565 0.213867 2.98635 0
M  V30 2246 H 197.111 0.104298 1.43622 0
M  V30 2247 H 199.064 -2.1358 3.63265 0
M  V30 2248 H 197.788 -2.22266 2.39302 0
M  V30 2249 H 196.447 -0.487985 3.63338 0
M  V30 2250 H 196.095 -2.92059 4.09525 0
M  V30 2251 H 195.795 -1.93466 5.54837 0
M  V30 2252 H 197.319 -2.85481 5.39753 0
M  V30 2253 H 198.733 -0.603752 5.70112 0
M  V30 2254 H 197.13 0.128968 5.99961 0
M  V30 2255 H 198.2 0.837052 4.77621 0
M  V30 2256 N 199.544 -1.57102 0.125237 0
M  V30 2257 C 200.772 -1.99761 -0.538797 0
M  V30 2258 C 201.187 -1.00503 -1.59827 0
M  V30 2259 O 200.544 0.00119474 -1.825 0
M  V30 2260 C 200.595 -3.42408 -1.15927 0
M  V30 2261 O 200.316 -4.37869 -0.142143 0
M  V30 2262 C 201.817 -4.00232 -1.90602 0
M  V30 2263 H 199.037 -0.655772 -0.14214 0
M  V30 2264 H 201.581 -2.03383 0.213413 0
M  V30 2265 H 199.736 -3.39706 -1.86223 0
M  V30 2266 H 200.15 -5.21128 -0.593775 0
M  V30 2267 H 201.624 -5.02105 -2.29335 0
M  V30 2268 H 202.101 -3.39721 -2.78363 0
M  V30 2269 H 202.707 -4.06499 -1.25055 0
M  V30 2270 N 201.022 0.148545 -1.56898 0
M  V30 2271 C 202.27 0.859717 -1.82902 0
M  V30 2272 C 202.591 1.81775 -0.70588 0
M  V30 2273 O 201.861 1.93994 0.272586 0
M  V30 2274 H 200.441 0.320469 -0.674766 0
M  V30 2275 H 203.103 0.142918 -1.94375 0
M  V30 2276 H 202.199 1.4229 -2.77777 0
M  V30 2277 N 202.5 1.5196 0.417844 0
M  V30 2278 C 203.916 1.40569 0.755816 0
M  V30 2279 C 204.116 0.503316 1.95113 0
M  V30 2280 O 203.172 -0.0341925 2.52477 0
M  V30 2281 C 204.485 2.82947 1.01791 0
M  V30 2282 C 206.033 2.92231 1.12116 0
M  V30 2283 C 206.508 4.35559 1.41608 0
M  V30 2284 N 207.999 4.38753 1.48491 0
M  V30 2285 C 208.734 5.46705 1.7292 0
M  V30 2286 N 208.23 6.64788 1.95011 0
M  V30 2287 N 210.023 5.34209 1.74863 0
M  V30 2288 H 202.174 2.09168 -0.369098 0
M  V30 2289 H 204.437 0.942409 -0.102809 0
M  V30 2290 H 204.143 3.5106 0.212081 0
M  V30 2291 H 204.017 3.23462 1.94042 0
M  V30 2292 H 206.404 2.24304 1.9176 0
M  V30 2293 H 206.485 2.55185 0.177225 0
M  V30 2294 H 206.129 5.04042 0.624848 0
M  V30 2295 H 206.059 4.70133 2.37239 0
M  V30 2296 H 208.55 3.5363 1.33244 0
M  V30 2297 H 208.863 7.42845 2.13076 0
M  V30 2298 H 207.208 6.67869 1.92293 0
M  V30 2299 H 210.399 4.40937 1.57137 0
M  V30 2300 H 210.572 6.18415 1.93563 0
M  V30 2301 N 203.978 -0.674533 1.42435 0
M  V30 2302 C 204.908 -1.80009 1.48724 0
M  V30 2303 C 205.889 -1.6659 0.343793 0
M  V30 2304 O 207.074 -1.86007 0.558137 0
M  V30 2305 C 204.204 -3.18306 1.38919 0
M  V30 2306 C 203.158 -3.46461 2.51294 0
M  V30 2307 C 202.484 -4.84335 2.26547 0
M  V30 2308 C 203.784 -3.43328 3.93603 0
M  V30 2309 H 205.478 -1.75004 2.42928 0
M  V30 2310 H 203.024 -0.840533 1.16923 0
M  V30 2311 H 204.977 -3.9678 1.41927 0
M  V30 2312 H 203.701 -3.2399 0.412094 0
M  V30 2313 H 202.36 -2.70348 2.47604 0
M  V30 2314 H 202.008 -4.86669 1.2713 0
M  V30 2315 H 201.708 -5.04136 3.01861 0
M  V30 2316 H 203.232 -5.65094 2.31304 0
M  V30 2317 H 204.646 -4.11772 3.98894 0
M  V30 2318 H 203.043 -3.74664 4.68771 0
M  V30 2319 H 204.113 -2.41897 4.20255 0
M  V30 2320 N 205.456 -1.28612 -0.910864 0
M  V30 2321 C 206.867 -1.14406 -1.47541 0
M  V30 2322 C 207.218 0.264901 -1.94403 0
M  V30 2323 O 206.343 1.15942 -1.82719 0
M  V30 2324 C 206.938 -2.07073 -2.68153 0
M  V30 2325 C 205.497 -1.96923 -3.20778 0
M  V30 2326 C 204.644 -1.98646 -1.93481 0
M  V30 2327 H 207.595 -1.41259 -0.723291 0
M  V30 2328 H 207.616 -1.63642 -3.43514 0
M  V30 2329 H 207.128 -3.09611 -2.34015 0
M  V30 2330 H 205.229 -0.97433 -3.59635 0
M  V30 2331 H 205.342 -2.84026 -3.85832 0
M  V30 2332 H 203.706 -1.43093 -2.10705 0
M  V30 2333 H 204.489 -3.02868 -1.61634 0
M  V30 2334 N 206.934 1.1197 -1.10907 0
M  V30 2335 C 208.174 1.85224 -0.864378 0
M  V30 2336 C 208.538 1.82411 0.599178 0
M  V30 2337 O 209.739 2.51057 0.960416 0
M  V30 2338 C 208.01 3.2868 -1.40371 0
M  V30 2339 S 209.569 4.1925 -1.29518 0
M  V30 2340 H 206.387 0.63878 -0.312219 0
M  V30 2341 H 208.989 1.3485 -1.41548 0
M  V30 2342 H 207.693 3.28289 -2.46281 0
M  V30 2343 H 207.224 3.84121 -0.849402 0
M  V30 2344 H 209.239 4.95539 -0.256059 0
M  V30 2345 N 208.412 0.89855 1.29475 0
M  V30 2346 C 209.823 0.572537 1.77705 0
M  V30 2347 C 210.174 -0.911778 1.73727 0
M  V30 2348 O 209.299 -1.71288 1.32247 0
M  V30 2349 C 209.894 1.03252 3.22683 0
M  V30 2350 C 208.453 0.757687 3.68695 0
M  V30 2351 C 207.6 1.20787 2.49612 0
M  V30 2352 H 210.551 1.08139 1.16153 0
M  V30 2353 H 210.572 0.367307 3.78723 0
M  V30 2354 H 210.084 2.11285 3.25546 0
M  V30 2355 H 208.185 -0.310079 3.71308 0
M  V30 2356 H 208.298 1.35476 4.59547 0
M  V30 2357 H 206.662 0.626888 2.46865 0
M  V30 2358 H 207.445 2.29622 2.55203 0
M  V30 2359 N 209.89 -1.43072 0.660911 0
M  V30 2360 C 211.115 -2.06584 0.183805 0
M  V30 2361 C 211.54 -1.49257 -1.14472 0
M  V30 2362 O 210.898 -0.605528 -1.70889 0
M  V30 2363 C 210.946 -3.60418 0.114434 0
M  V30 2364 O 210.05 -4.01981 -0.921137 0
M  V30 2365 H 209.391 -0.656669 0.0983994 0
M  V30 2366 H 211.921 -1.83447 0.906006 0
M  V30 2367 H 211.931 -4.07946 -0.0663394 0
M  V30 2368 H 210.606 -4.01519 1.08422 0
M  V30 2369 H 209.183 -3.66029 -0.71253 0
M  V30 2370 N 211.368 -0.403325 -1.52352 0
M  V30 2371 C 212.316 0.439752 -2.28405 0
M  V30 2372 C 213.31 1.05089 -1.32863 0
M  V30 2373 O 214.516 0.989759 -1.50345 0
M  V30 2374 H 210.891 0.160587 -0.734653 0
M  V30 2375 H 212.862 -0.222983 -2.97566 0
M  V30 2376 C 211.611 1.54736 -3.11371 0
M  V30 2377 H 210.934 1.08643 -3.84755 0
M  V30 2378 H 212.374 2.1112 -3.67701 0
M  V30 2379 C 210.833 2.51141 -2.24566 0
M  V30 2380 O 211.363 3.54887 -1.88196 0
M  V30 2381 N 209.569 2.21213 -1.8845 0
M  V30 2382 H 209.116 1.36878 -2.18225 0
M  V30 2383 H 209.074 2.85963 -1.30662 0
M  V30 2384 N 212.846 1.57033 -0.133567 0
M  V30 2385 C 214.074 2.00044 0.528195 0
M  V30 2386 C 214.489 1.01349 1.59291 0
M  V30 2387 O 213.846 0.00848369 1.82498 0
M  V30 2388 C 213.897 3.43018 1.1411 0
M  V30 2389 O 213.618 4.37939 0.11892 0
M  V30 2390 C 215.119 4.01237 1.88477 0
M  V30 2391 H 212.339 0.656517 0.138661 0
M  V30 2392 H 214.883 2.03267 -0.224196 0
M  V30 2393 H 213.038 3.40688 1.84418 0
M  V30 2394 H 213.452 5.21436 0.56613 0
M  V30 2395 H 214.926 5.03314 2.26669 0
M  V30 2396 H 215.403 3.41193 2.76558 0
M  V30 2397 H 216.009 4.07156 1.22898 0
M  V30 2398 N 214.325 -0.140222 1.56975 0
M  V30 2399 C 215.288 -1.15689 1.97861 0
M  V30 2400 C 216.288 -1.3549 0.865974 0
M  V30 2401 O 217.478 -1.32367 1.13246 0
M  V30 2402 C 214.61 -2.51582 2.30042 0
M  V30 2403 H 215.803 -0.805971 2.88867 0
M  V30 2404 H 213.356 -0.383801 1.51515 0
M  V30 2405 H 214.091 -2.91632 1.41849 0
M  V30 2406 H 213.876 -2.38569 3.11171 0
M  V30 2407 H 215.366 -3.24792 2.62488 0
M  V30 2408 N 215.803 -1.52179 -0.40978 0
M  V30 2409 C 216.766 -1.74853 -1.48186 0
M  V30 2410 C 217.766 -0.618417 -1.48433 0
M  V30 2411 O 218.956 -0.886286 -1.49969 0
M  V30 2412 C 216.088 -1.8303 -2.87598 0
M  V30 2413 H 217.281 -2.70559 -1.29374 0
M  V30 2414 H 214.834 -1.42586 -0.640233 0
M  V30 2415 H 215.569 -0.89236 -3.11781 0
M  V30 2416 H 215.354 -2.65187 -2.88822 0
M  V30 2417 H 216.844 -2.02316 -3.65319 0
M  V30 2418 N 217.281 0.66697 -1.42791 0
M  V30 2419 C 218.211 1.79218 -1.49677 0
M  V30 2420 C 219.192 1.66405 -0.352623 0
M  V30 2421 O 220.377 1.85708 -0.567993 0
M  V30 2422 C 217.507 3.17565 -1.40605 0
M  V30 2423 C 216.461 3.45124 -2.53127 0
M  V30 2424 C 215.787 4.83127 -2.29112 0
M  V30 2425 C 217.087 3.41236 -3.95418 0
M  V30 2426 H 218.781 1.73713 -2.43853 0
M  V30 2427 H 216.327 0.83432 -1.17367 0
M  V30 2428 H 218.28 3.96022 -1.44029 0
M  V30 2429 H 217.004 3.23767 -0.429271 0
M  V30 2430 H 215.663 2.69031 -2.49034 0
M  V30 2431 H 215.311 4.85988 -1.29709 0
M  V30 2432 H 215.011 5.02528 -3.04531 0
M  V30 2433 H 216.535 5.63859 -2.34297 0
M  V30 2434 H 217.949 4.09651 -4.01073 0
M  V30 2435 H 216.346 3.72173 -4.70752 0
M  V30 2436 H 217.416 2.39665 -4.21532 0
M  V30 2437 N 218.759 1.29093 0.90403 0
M  V30 2438 C 219.689 1.16401 2.02418 0
M  V30 2439 C 220.67 0.0593085 1.69997 0
M  V30 2440 O 221.855 0.238021 1.92736 0
M  V30 2441 C 218.985 0.835233 3.37107 0
M  V30 2442 C 217.939 1.89578 3.83724 0
M  V30 2443 C 217.265 1.42041 5.15489 0
M  V30 2444 C 218.565 3.30394 4.04521 0
M  V30 2445 H 220.259 2.10109 2.13295 0
M  V30 2446 H 217.805 1.01157 1.02486 0
M  V30 2447 H 219.758 0.733169 4.14973 0
M  V30 2448 H 218.482 -0.137543 3.2631 0
M  V30 2449 H 217.141 1.98715 3.08071 0
M  V30 2450 H 216.789 0.436426 5.01103 0
M  V30 2451 H 216.489 2.12964 5.4765 0
M  V30 2452 H 218.013 1.33176 5.959 0
M  V30 2453 H 219.427 3.24123 4.72882 0
M  V30 2454 H 217.824 3.99237 4.48029 0
M  V30 2455 H 218.894 3.73692 3.09002 0
M  V30 2456 N 220.237 -1.11381 1.11499 0
M  V30 2457 C 221.2 -2.15622 0.777153 0
M  V30 2458 C 222.2 -1.59504 -0.203779 0
M  V30 2459 O 223.39 -1.74188 0.020782 0
M  V30 2460 C 220.522 -3.40556 0.153116 0
M  V30 2461 H 221.715 -2.47021 1.70061 0
M  V30 2462 H 219.268 -1.26577 0.916952 0
M  V30 2463 H 220.003 -3.14767 -0.780536 0
M  V30 2464 H 219.788 -3.8257 0.859238 0
M  V30 2465 H 221.278 -4.17546 -0.0671044 0
M  V30 2466 N 221.715 -0.905404 -1.28997 0
M  V30 2467 C 222.94 -0.549175 -1.99997 0
M  V30 2468 C 223.365 0.860276 -1.67275 0
M  V30 2469 O 222.723 1.57355 -0.900502 0
M  V30 2470 C 222.771 -0.755185 -3.52604 0
M  V30 2471 O 221.875 0.189692 -4.11964 0
M  V30 2472 H 221.216 -0.213899 -0.628604 0
M  V30 2473 H 223.746 -1.21856 -1.64354 0
M  V30 2474 H 223.756 -0.662045 -4.02593 0
M  V30 2475 H 222.431 -1.78271 -3.75755 0
M  V30 2476 H 221.008 0.0485257 -3.72868 0
M  V30 2477 N 223.193 1.4272 -0.668489 0
M  V30 2478 C 224.44 2.01624 -0.18814 0
M  V30 2479 C 224.768 1.5282 1.20317 0
M  V30 2480 O 224.023 0.718323 1.8204 0
M  V30 2481 C 224.322 3.57021 -0.164499 0
M  V30 2482 C 223.988 4.25232 -1.49962 0
M  V30 2483 C 222.65 4.4358 -1.8652 0
M  V30 2484 C 225.002 4.63727 -2.37921 0
M  V30 2485 C 222.33 4.97694 -3.10674 0
M  V30 2486 C 224.682 5.19218 -3.6138 0
M  V30 2487 C 223.346 5.3578 -3.98115 0
M  V30 2488 H 222.616 0.737795 -0.0688454 0
M  V30 2489 H 225.263 1.70991 -0.862225 0
M  V30 2490 H 223.568 3.87285 0.593079 0
M  V30 2491 H 225.265 4.00372 0.224271 0
M  V30 2492 H 221.855 4.11306 -1.20522 0
M  V30 2493 H 226.039 4.4923 -2.10964 0
M  V30 2494 H 221.295 5.08702 -3.39164 0
M  V30 2495 H 225.469 5.4799 -4.29743 0
M  V30 2496 H 223.096 5.77475 -4.94395 0
M  V30 2497 N 224.671 0.411399 1.52136 0
M  V30 2498 C 225.634 -0.401089 2.25663 0
M  V30 2499 C 226.634 -0.971732 1.28117 0
M  V30 2500 O 227.824 -0.850254 1.52041 0
M  V30 2501 C 224.956 -1.56483 3.02863 0
M  V30 2502 H 226.149 0.24295 2.98914 0
M  V30 2503 H 223.702 0.163968 1.55438 0
M  V30 2504 H 224.437 -2.24567 2.33967 0
M  V30 2505 H 224.222 -1.16211 3.74483 0
M  V30 2506 H 225.712 -2.13951 3.58629 0
M  V30 2507 N 226.149 -1.5696 0.141893 0
M  V30 2508 C 227.395 -1.9625 -0.511248 0
M  V30 2509 C 227.728 -1.02654 -1.64851 0
M  V30 2510 O 227.003 -0.0679676 -1.94381 0
M  V30 2511 C 227.286 -3.45285 -1.02227 0
M  V30 2512 C 227.139 -4.49658 0.113138 0
M  V30 2513 C 228.458 -3.96698 -1.90574 0
M  V30 2514 H 225.577 -0.713567 -0.184367 0
M  V30 2515 H 228.219 -1.88698 0.222087 0
M  V30 2516 H 226.369 -3.51852 -1.64719 0
M  V30 2517 H 228.041 -4.55174 0.749302 0
M  V30 2518 H 226.284 -4.26857 0.773026 0
M  V30 2519 H 226.955 -5.51258 -0.286053 0
M  V30 2520 H 229.431 -3.92578 -1.37918 0
M  V30 2521 H 228.307 -5.01453 -2.2324 0
M  V30 2522 H 228.568 -3.3875 -2.84079 0
M  V30 2523 N 227.627 0.131896 -1.57047 0
M  V30 2524 C 228.559 1.1878 -1.9602 0
M  V30 2525 C 229.572 1.38363 -0.857875 0
M  V30 2526 O 230.761 1.37666 -1.13623 0
M  V30 2527 C 227.861 2.55008 -2.23213 0
M  V30 2528 C 227.034 2.56201 -3.54513 0
M  V30 2529 C 226.093 3.7408 -3.70069 0
M  V30 2530 O 225.119 3.58258 -4.42312 0
M  V30 2531 N 226.321 4.92137 -3.07866 0
M  V30 2532 H 229.086 0.85639 -2.87204 0
M  V30 2533 H 226.647 0.321309 -1.5868 0
M  V30 2534 H 228.639 3.32404 -2.30846 0
M  V30 2535 H 227.209 2.80382 -1.3822 0
M  V30 2536 H 226.429 1.64613 -3.58185 0
M  V30 2537 H 227.717 2.54043 -4.4084 0
M  V30 2538 H 227.115 5.07895 -2.49116 0
M  V30 2539 H 225.672 5.67254 -3.21039 0
M  V30 2540 N 229.106 1.52395 0.401703 0
M  V30 2541 C 230.331 1.70972 1.17403 0
M  V30 2542 C 230.756 0.421615 1.83314 0
M  V30 2543 O 230.114 -0.621564 1.70312 0
M  V30 2544 C 230.162 2.85151 2.20728 0
M  V30 2545 O 229.266 2.51238 3.27037 0
M  V30 2546 H 228.607 0.568927 0.342372 0
M  V30 2547 H 231.137 1.99131 0.469891 0
M  V30 2548 H 231.147 3.10279 2.64936 0
M  V30 2549 H 229.822 3.78603 1.7214 0
M  V30 2550 H 228.399 2.36808 2.88057 0
M  V30 2551 N 230.584 -0.659388 1.43143 0
M  V30 2552 C 231.494 -1.80167 1.50256 0
M  V30 2553 C 232.51 -1.69571 0.390106 0
M  V30 2554 O 233.686 -1.90849 0.643319 0
M  V30 2555 C 230.751 -3.16409 1.41725 0
M  V30 2556 C 229.812 -3.38848 2.63591 0
M  V30 2557 C 229.045 -4.68591 2.55458 0
M  V30 2558 O 229.268 -5.47532 1.59891 0
M  V30 2559 O 228.202 -4.92614 3.45854 0
M  V30 2560 H 232.028 -1.77121 2.46702 0
M  V30 2561 H 229.613 -0.817092 1.25076 0
M  V30 2562 H 231.495 -3.9768 1.39387 0
M  V30 2563 H 230.17 -3.20059 0.484118 0
M  V30 2564 H 229.077 -2.57366 2.71502 0
M  V30 2565 H 230.41 -3.4004 3.55856 0
M  V30 2566 N 232.062 -1.29571 -0.897171 0
M  V30 2567 C 232.992 -1.17473 -2.01798 0
M  V30 2568 C 233.973 -0.068323 -1.69963 0
M  V30 2569 O 235.158 -0.248239 -1.92607 0
M  V30 2570 C 232.288 -0.853099 -3.36659 0
M  V30 2571 C 231.242 -1.9161 -3.82713 0
M  V30 2572 C 230.568 -1.44773 -5.14728 0
M  V30 2573 C 231.868 -3.32535 -4.02763 0
M  V30 2574 H 233.562 -2.11237 -2.12177 0
M  V30 2575 H 231.108 -1.01699 -1.01948 0
M  V30 2576 H 233.061 -0.755165 -4.14578 0
M  V30 2577 H 231.785 0.120236 -3.26379 0
M  V30 2578 H 230.444 -2.00346 -3.07013 0
M  V30 2579 H 230.092 -0.462995 -5.00865 0
M  V30 2580 H 229.792 -2.15865 -5.46513 0
M  V30 2581 H 231.316 -1.36334 -5.95185 0
M  V30 2582 H 232.73 -3.26626 -4.71156 0
M  V30 2583 H 231.127 -4.01607 -4.45905 0
M  V30 2584 H 232.197 -3.75326 -3.07016 0
M  V30 2585 N 233.54 1.10788 -1.12088 0
M  V30 2586 C 234.788 1.8231 -0.872205 0
M  V30 2587 C 235.109 1.85419 0.603709 0
M  V30 2588 O 234.379 1.32963 1.43867 0
M  V30 2589 H 232.959 0.675137 -0.319686 0
M  V30 2590 H 235.621 1.34068 -1.41463 0
M  V30 2591 H 234.717 2.85955 -1.25045 0
M  V30 2592 N 235.018 0.912232 1.28515 0
M  V30 2593 C 236.295 0.463597 1.90027 0
M  V30 2594 C 236.675 -1.05753 1.82701 0
M  V30 2595 O 236.023 -1.90492 1.26194 0
M  V30 2596 C 236.233 0.992253 3.34597 0
M  V30 2597 C 237.581 1.04344 4.11579 0
M  V30 2598 O 238.605 0.94079 3.43551 0
M  V30 2599 O 237.464 1.1995 5.33174 0
M  V30 2600 H 234.558 0.146666 0.813891 0
M  V30 2601 H 237.104 1.00292 1.36893 0
M  V30 2602 H 235.876 2.03623 3.34146 0
M  V30 2603 H 235.499 0.433672 3.95228 0
M  V30 2604 N 236.496 -1.42363 0.676048 0
M  V30 2605 C 237.726 -2.05561 0.206967 0
M  V30 2606 C 238.134 -1.50887 -1.14148 0
M  V30 2607 O 237.477 -0.643933 -1.72044 0
M  V30 2608 C 237.539 -3.5944 0.0659508 0
M  V30 2609 C 237.203 -4.36812 1.34331 0
M  V30 2610 C 238.2 -4.67383 2.27704 0
M  V30 2611 C 235.885 -4.76429 1.59125 0
M  V30 2612 C 237.879 -5.36509 3.44147 0
M  V30 2613 C 235.566 -5.45294 2.75857 0
M  V30 2614 C 236.564 -5.75259 3.68193 0
M  V30 2615 O 236.252 -6.42712 4.82883 0
M  V30 2616 H 235.984 -0.668872 0.0979084 0
M  V30 2617 H 238.538 -1.83467 0.923531 0
M  V30 2618 H 236.768 -3.80197 -0.706204 0
M  V30 2619 H 238.457 -4.0427 -0.363418 0
M  V30 2620 H 239.223 -4.37275 2.09799 0
M  V30 2621 H 235.102 -4.52498 0.881258 0
M  V30 2622 H 238.646 -5.59814 4.16238 0
M  V30 2623 H 234.543 -5.7482 2.93688 0
M  V30 2624 H 235.311 -6.61204 4.82444 0
M  V30 2625 N 237.974 -0.419461 -1.51915 0
M  V30 2626 C 239.251 0.211999 -1.94448 0
M  V30 2627 C 239.631 1.61703 -1.35703 0
M  V30 2628 O 238.979 2.22102 -0.536931 0
M  V30 2629 C 239.189 0.207872 -3.4838 0
M  V30 2630 C 240.537 0.422192 -4.22496 0
M  V30 2631 O 241.561 0.286778 -3.55044 0
M  V30 2632 O 240.42 0.690009 -5.42126 0
M  V30 2633 H 237.514 0.139586 -0.815135 0
M  V30 2634 H 240.06 -0.476151 -1.62883 0
M  V30 2635 H 238.832 -0.775102 -3.83546 0
M  V30 2636 H 238.455 0.939688 -3.86336 0
M  V30 2637 N 239.452 1.56882 -0.150215 0
M  V30 2638 C 240.384 2.14057 0.819286 0
M  V30 2639 C 241.397 1.09082 1.20851 0
M  V30 2640 O 242.586 1.36347 1.15203 0
M  V30 2641 C 239.686 2.65102 2.11127 0
M  V30 2642 C 238.859 3.94511 1.88891 0
M  V30 2643 C 237.918 4.30834 3.02107 0
M  V30 2644 O 236.944 4.99099 2.73659 0
M  V30 2645 N 238.146 3.90676 4.29363 0
M  V30 2646 H 240.911 2.97871 0.330618 0
M  V30 2647 H 238.472 1.61866 0.0332538 0
M  V30 2648 H 240.464 2.86411 2.85921 0
M  V30 2649 H 239.034 1.85994 2.51247 0
M  V30 2650 H 238.254 3.81795 0.981152 0
M  V30 2651 H 239.542 4.7907 1.71376 0
M  V30 2652 H 238.94 3.35677 4.55343 0
M  V30 2653 H 237.497 4.1703 5.00928 0
M  V30 2654 N 240.93 -0.123565 1.57115 0
M  V30 2655 C 242.155 -0.850398 1.89164 0
M  V30 2656 C 242.58 -1.7286 0.741688 0
M  V30 2657 O 241.938 -1.78665 -0.307958 0
M  V30 2658 C 241.986 -1.66353 3.19936 0
M  V30 2659 O 241.09 -2.77004 3.0552 0
M  V30 2660 H 240.431 -0.235454 0.620852 0
M  V30 2661 H 242.961 -0.107335 2.04318 0
M  V30 2662 H 242.971 -2.05372 3.52543 0
M  V30 2663 H 241.646 -1.01881 4.03228 0
M  V30 2664 H 240.223 -2.41221 2.84371 0
M  V30 2665 N 242.408 -1.52605 -0.393616 0
M  V30 2666 C 243.318 -1.79971 -1.50492 0
M  V30 2667 C 244.334 -0.686181 -1.59899 0
M  V30 2668 O 245.51 -0.973274 -1.76322 0
M  V30 2669 C 242.575 -1.95867 -2.86072 0
M  V30 2670 C 241.636 -3.19781 -2.86424 0
M  V30 2671 C 240.869 -3.34909 -4.15538 0
M  V30 2672 O 241.092 -2.54948 -5.10253 0
M  V30 2673 O 240.026 -4.28141 -4.23059 0
M  V30 2674 H 243.852 -2.74328 -1.30299 0
M  V30 2675 H 241.437 -1.3764 -0.581005 0
M  V30 2676 H 243.319 -2.08056 -3.66457 0
M  V30 2677 H 241.994 -1.04699 -3.063 0
M  V30 2678 H 240.901 -3.13038 -2.04837 0
M  V30 2679 H 242.234 -4.1078 -2.71147 0
M  V30 2680 N 243.887 0.651787 -1.4349 0
M  V30 2681 C 244.835 1.78586 -1.49029 0
M  V30 2682 C 245.829 1.65448 -0.363767 0
M  V30 2683 O 247.035 1.71777 -0.537821 0
M  V30 2684 H 243.41 0.589236 -0.467231 0
M  V30 2685 H 245.381 1.71035 -2.44519 0
M  V30 2686 C 244.13 3.16851 -1.43181 0
M  V30 2687 H 243.453 3.27598 -2.29171 0
M  V30 2688 H 244.893 3.96156 -1.51118 0
M  V30 2689 C 243.352 3.36568 -0.149616 0
M  V30 2690 O 243.882 3.93885 0.788509 0
M  V30 2691 N 242.088 2.90539 -0.0593484 0
M  V30 2692 H 241.635 2.4408 -0.823575 0
M  V30 2693 H 241.593 3.04108 0.797853 0
M  V30 2694 N 245.365 1.30045 0.890287 0
M  V30 2695 C 246.295 1.18541 2.01172 0
M  V30 2696 C 247.276 0.0773356 1.69924 0
M  V30 2697 O 248.461 0.25845 1.92473 0
M  V30 2698 C 245.591 0.870941 3.36202 0
M  V30 2699 C 244.545 1.93637 3.81692 0
M  V30 2700 C 243.871 1.475 5.13953 0
M  V30 2701 C 245.171 3.34666 4.00994 0
M  V30 2702 H 246.865 2.12359 2.11054 0
M  V30 2703 H 244.411 1.02238 1.01407 0
M  V30 2704 H 246.364 0.777141 4.14172 0
M  V30 2705 H 245.088 -0.102926 3.26438 0
M  V30 2706 H 243.747 2.01972 3.05946 0
M  V30 2707 H 243.395 0.489551 5.00612 0
M  V30 2708 H 243.095 2.1876 5.4536 0
M  V30 2709 H 244.619 1.39489 5.94454 0
M  V30 2710 H 246.033 3.2912 4.69417 0
M  V30 2711 H 244.43 4.03966 4.43769 0
M  V30 2712 H 245.5 3.76949 3.05021 0
M  V30 2713 N 246.843 -1.10192 1.12674 0
M  V30 2714 C 248.068 -1.86523 0.906853 0
M  V30 2715 C 248.493 -1.80221 -0.538711 0
M  V30 2716 O 247.851 -1.17396 -1.38158 0
M  V30 2717 C 247.899 -3.32758 1.3894 0
M  V30 2718 O 247.003 -4.08449 0.5695 0
M  V30 2719 H 246.344 -0.578678 0.325619 0
M  V30 2720 H 248.874 -1.39203 1.49946 0
M  V30 2721 H 248.884 -3.83608 1.38958 0
M  V30 2722 H 247.559 -3.36661 2.44197 0
M  V30 2723 H 246.136 -3.67427 0.636528 0
M  V30 2724 N 248.321 -0.919034 -1.28029 0
M  V30 2725 C 249.569 -0.553838 -1.94363 0
M  V30 2726 C 249.89 0.906357 -1.72656 0
M  V30 2727 O 249.16 1.64143 -1.0693 0
M  V30 2728 H 247.74 -0.201834 -0.719216 0
M  V30 2729 H 250.402 -1.16954 -1.55909 0
M  V30 2730 H 249.498 -0.752758 -3.02886 0
M  V30 2731 N 249.799 1.42003 -0.683588 0
M  V30 2732 C 251.029 2.05448 -0.217866 0
M  V30 2733 C 251.437 1.51491 1.13346 0
M  V30 2734 O 250.78 0.653048 1.717 0
M  V30 2735 C 250.842 3.59399 -0.0850118 0
M  V30 2736 C 250.506 4.36093 -1.36645 0
M  V30 2737 C 251.503 4.66169 -2.30179 0
M  V30 2738 C 249.188 4.75578 -1.61649 0
M  V30 2739 C 251.182 5.34676 -3.46988 0
M  V30 2740 C 248.869 5.43824 -2.78745 0
M  V30 2741 C 249.867 5.73299 -3.71238 0
M  V30 2742 O 249.555 6.40142 -4.86285 0
M  V30 2743 H 249.287 0.668344 -0.101454 0
M  V30 2744 H 251.841 1.82974 -0.933248 0
M  V30 2745 H 250.071 3.80566 0.686031 0
M  V30 2746 H 251.76 4.04457 0.341973 0
M  V30 2747 H 252.526 4.36156 -2.12115 0
M  V30 2748 H 248.405 4.52025 -0.905243 0
M  V30 2749 H 251.949 5.57599 -4.19201 0
M  V30 2750 H 247.846 5.73254 -2.96732 0
M  V30 2751 H 248.614 6.58636 -4.85944 0
M  V30 2752 N 251.277 0.427512 1.51691 0
M  V30 2753 C 252.207 -0.3796 2.30394 0
M  V30 2754 C 253.188 -1.02982 1.35384 0
M  V30 2755 O 254.373 -1.03534 1.643 0
M  V30 2756 C 251.503 -1.48649 3.1388 0
M  V30 2757 C 250.457 -0.960294 4.17088 0
M  V30 2758 C 249.783 -2.16219 4.89033 0
M  V30 2759 C 251.083 -0.00153679 5.223 0
M  V30 2760 H 252.777 0.277164 2.98114 0
M  V30 2761 H 250.323 0.134739 1.43368 0
M  V30 2762 H 252.276 -2.05826 3.67714 0
M  V30 2763 H 251 -2.1714 2.43962 0
M  V30 2764 H 249.659 -0.410806 3.64291 0
M  V30 2765 H 249.307 -2.83307 4.15628 0
M  V30 2766 H 249.007 -1.81654 5.58816 0
M  V30 2767 H 250.531 -2.73968 5.45687 0
M  V30 2768 H 251.945 -0.482687 5.71264 0
M  V30 2769 H 250.342 0.256199 5.99553 0
M  V30 2770 H 251.412 0.938174 4.75738 0
M  V30 2771 N 252.755 -1.56801 0.158532 0
M  V30 2772 C 253.98 -2.01295 -0.499516 0
M  V30 2773 C 254.405 -1.03799 -1.56867 0
M  V30 2774 O 253.763 -0.0155162 -1.81293 0
M  V30 2775 C 253.811 -3.44469 -1.06647 0
M  V30 2776 O 252.915 -3.50012 -2.18095 0
M  V30 2777 H 252.256 -0.652884 -0.12099 0
M  V30 2778 H 254.786 -2.02958 0.258661 0
M  V30 2779 H 254.796 -3.8351 -1.39227 0
M  V30 2780 H 253.471 -4.14932 -0.283581 0
M  V30 2781 H 252.048 -3.22822 -1.86656 0
M  V30 2782 N 254.233 0.115231 -1.57178 0
M  V30 2783 C 255.51 0.852873 -1.76027 0
M  V30 2784 C 255.89 1.97892 -0.73498 0
M  V30 2785 O 255.238 2.27232 0.24036 0
M  V30 2786 C 255.448 1.36608 -3.21153 0
M  V30 2787 C 256.796 1.81692 -3.83762 0
M  V30 2788 O 257.82 1.46278 -3.24779 0
M  V30 2789 O 256.679 2.47104 -4.87444 0
M  V30 2790 H 253.773 0.405296 -0.720877 0
M  V30 2791 H 256.319 0.0986785 -1.69413 0
M  V30 2792 H 255.091 0.558357 -3.87296 0
M  V30 2793 H 254.714 2.18287 -3.3232 0
M  V30 2794 N 255.711 1.52812 0.385517 0
M  V30 2795 C 256.941 1.71658 1.14966 0
M  V30 2796 C 257.349 0.436253 1.84102 0
M  V30 2797 O 256.692 -0.599313 1.73649 0
M  V30 2798 C 256.754 2.81309 2.23843 0
M  V30 2799 C 256.418 4.22313 1.74644 0
M  V30 2800 C 257.415 5.05352 1.22129 0
M  V30 2801 C 255.1 4.68648 1.80761 0
M  V30 2802 C 257.094 6.32807 0.763838 0
M  V30 2803 C 254.781 5.96086 1.34627 0
M  V30 2804 C 255.779 6.77996 0.825264 0
M  V30 2805 O 255.467 8.03045 0.370669 0
M  V30 2806 H 255.199 0.578022 0.350523 0
M  V30 2807 H 257.753 2.00263 0.456509 0
M  V30 2808 H 255.983 2.48133 2.96592 0
M  V30 2809 H 257.672 2.88524 2.85497 0
M  V30 2810 H 258.438 4.70736 1.16758 0
M  V30 2811 H 254.317 4.04979 2.20256 0
M  V30 2812 H 257.861 6.96689 0.356494 0
M  V30 2813 H 253.758 6.30205 1.39686 0
M  V30 2814 H 254.526 8.17021 0.491829 0
M  V30 2815 N 257.189 -0.644168 1.43834 0
M  V30 2816 C 258.414 -1.43642 1.49605 0
M  V30 2817 C 258.839 -1.8773 0.117913 0
M  V30 2818 O 258.197 -1.57938 -0.890239 0
M  V30 2819 C 258.245 -2.6416 2.45463 0
M  V30 2820 O 257.349 -3.63538 1.94714 0
M  V30 2821 H 256.69 -0.430329 0.50568 0
M  V30 2822 H 259.22 -0.787448 1.8884 0
M  V30 2823 H 259.23 -3.11864 2.63068 0
M  V30 2824 H 257.905 -2.31414 3.45572 0
M  V30 2825 H 256.482 -3.2273 1.86814 0
M  V30 2826 N 258.668 -1.30515 -0.883378 0
M  V30 2827 C 259.915 -1.1943 -1.63532 0
M  V30 2828 C 260.243 0.250627 -1.92878 0
M  V30 2829 O 259.498 1.19556 -1.54935 0
M  V30 2830 C 259.797 -1.96994 -2.98209 0
M  V30 2831 C 259.463 -3.466 -2.88408 0
M  V30 2832 C 258.125 -3.87397 -2.85442 0
M  V30 2833 C 260.477 -4.41863 -2.76418 0
M  V30 2834 C 257.805 -5.21745 -2.68327 0
M  V30 2835 C 260.157 -5.7632 -2.60841 0
M  V30 2836 C 258.821 -6.16354 -2.56251 0
M  V30 2837 H 258.091 -0.437025 -0.598406 0
M  V30 2838 H 260.738 -1.61635 -1.02696 0
M  V30 2839 H 259.043 -1.47429 -3.63004 0
M  V30 2840 H 260.74 -1.85808 -3.55354 0
M  V30 2841 H 257.33 -3.14182 -2.91527 0
M  V30 2842 H 261.514 -4.11285 -2.77775 0
M  V30 2843 H 256.77 -5.51853 -2.63189 0
M  V30 2844 H 260.944 -6.49772 -2.50538 0
M  V30 2845 H 258.571 -7.20401 -2.42748 0
M  V30 2846 N 260.146 1.09593 -1.13257 0
M  V30 2847 C 261.395 1.81105 -0.887917 0
M  V30 2848 C 261.708 1.86563 0.587672 0
M  V30 2849 O 262.914 2.54367 0.949204 0
M  V30 2850 C 261.37 3.25338 -1.53895 0
M  V30 2851 C 260.978 3.28151 -3.04994 0
M  V30 2852 C 262.722 4.01617 -1.37492 0
M  V30 2853 C 260.629 4.66897 -3.6299 0
M  V30 2854 H 259.559 0.678661 -0.328534 0
M  V30 2855 H 262.21 1.23183 -1.36008 0
M  V30 2856 H 260.592 3.8331 -0.994446 0
M  V30 2857 H 261.766 2.79953 -3.66009 0
M  V30 2858 H 260.081 2.65361 -3.20893 0
M  V30 2859 H 262.678 5.04119 -1.78235 0
M  V30 2860 H 263.021 4.15072 -0.31957 0
M  V30 2861 H 263.554 3.50082 -1.88912 0
M  V30 2862 H 260.293 4.58643 -4.68323 0
M  V30 2863 H 259.813 5.15426 -3.06752 0
M  V30 2864 H 261.492 5.3587 -3.62563 0
M  V30 2865 N 261.624 0.925811 1.2754 0
M  V30 2866 C 263.035 0.610102 1.7645 0
M  V30 2867 C 263.386 -0.874723 1.75622 0
M  V30 2868 O 262.511 -1.68444 1.35851 0
M  V30 2869 C 263.106 1.10073 3.20421 0
M  V30 2870 C 261.665 0.835723 3.67005 0
M  V30 2871 C 260.812 1.26054 2.46993 0
M  V30 2872 H 263.763 1.10579 1.13833 0
M  V30 2873 H 263.784 0.447557 3.77859 0
M  V30 2874 H 263.296 2.18143 3.20991 0
M  V30 2875 H 261.397 -0.231249 3.71882 0
M  V30 2876 H 261.51 1.45193 4.56569 0
M  V30 2877 H 259.874 0.679111 2.45479 0
M  V30 2878 H 260.657 2.34984 2.50275 0
M  V30 2879 N 263.102 -1.41638 0.69111 0
M  V30 2880 C 264.05 -2.32597 0.0115199 0
M  V30 2881 C 265.044 -1.5072 -0.773296 0
M  V30 2882 O 266.25 -1.66685 -0.67942 0
M  V30 2883 H 262.625 -0.751849 -0.0150746 0
M  V30 2884 H 264.596 -2.87593 0.795791 0
M  V30 2885 C 263.345 -3.35467 -0.914172 0
M  V30 2886 H 262.668 -3.9852 -0.319687 0
M  V30 2887 H 264.108 -4.01662 -1.35808 0
M  V30 2888 C 262.567 -2.69004 -2.02826 0
M  V30 2889 O 263.097 -2.53444 -3.11655 0
M  V30 2890 N 261.303 -2.2777 -1.80469 0
M  V30 2891 H 260.85 -2.40626 -0.919615 0
M  V30 2892 H 260.808 -1.83635 -2.55197 0
M  V30 2893 N 264.58 -0.43555 -1.51462 0
M  V30 2894 C 265.512 0.41257 -2.25456 0
M  V30 2895 C 266.525 0.987822 -1.29406 0
M  V30 2896 O 267.714 0.882266 -1.55172 0
M  V30 2897 C 264.814 1.58894 -2.99342 0
M  V30 2898 C 263.987 1.13288 -4.22474 0
M  V30 2899 C 263.046 2.17917 -4.78956 0
M  V30 2900 O 262.072 1.77425 -5.40841 0
M  V30 2901 N 263.274 3.50382 -4.62832 0
M  V30 2902 H 266.039 -0.221603 -2.9888 0
M  V30 2903 H 263.6 -0.264342 -1.59727 0
M  V30 2904 H 265.592 2.28508 -3.34015 0
M  V30 2905 H 264.162 2.12849 -2.28941 0
M  V30 2906 H 263.382 0.263881 -3.93316 0
M  V30 2907 H 264.67 0.805542 -5.02383 0
M  V30 2908 H 264.068 3.86013 -4.13534 0
M  V30 2909 H 262.625 4.15895 -5.01871 0
M  V30 2910 N 266.058 1.56714 -0.166846 0
M  V30 2911 C 267.469 1.83378 0.350646 0
M  V30 2912 C 267.82 1.08646 1.63372 0
M  V30 2913 O 266.945 0.338058 2.13743 0
M  V30 2914 C 267.54 3.32643 0.642963 0
M  V30 2915 C 266.099 3.59818 1.10491 0
M  V30 2916 C 265.246 2.76954 0.138411 0
M  V30 2917 H 268.197 1.53803 -0.391193 0
M  V30 2918 H 268.218 3.49878 1.49551 0
M  V30 2919 H 267.73 3.87007 -0.291055 0
M  V30 2920 H 265.831 3.1086 2.05418 0
M  V30 2921 H 265.944 4.68178 1.01716 0
M  V30 2922 H 264.308 2.4666 0.634911 0
M  V30 2923 H 265.091 3.34097 -0.789549 0
M  V30 2924 N 267.536 -0.106894 1.57237 0
M  V30 2925 C 268.468 -1.15646 1.97885 0
M  V30 2926 C 269.481 -1.36981 0.879779 0
M  V30 2927 O 270.67 -1.35841 1.15799 0
M  V30 2928 C 267.77 -2.51425 2.27241 0
M  V30 2929 C 266.943 -2.50529 3.58545 0
M  V30 2930 C 266.002 -3.68145 3.75973 0
M  V30 2931 O 265.028 -3.51176 4.47956 0
M  V30 2932 N 266.23 -4.87177 3.15656 0
M  V30 2933 H 268.995 -0.81059 2.8853 0
M  V30 2934 H 266.556 -0.296024 1.59171 0
M  V30 2935 H 268.548 -3.28689 2.36105 0
M  V30 2936 H 267.118 -2.78147 1.42663 0
M  V30 2937 H 266.338 -1.58894 3.60758 0
M  V30 2938 H 267.626 -2.46997 4.44826 0
M  V30 2939 H 267.024 -5.03868 2.57165 0
M  V30 2940 H 265.581 -5.62075 3.30023 0
M  V30 2941 N 269.014 -1.53014 -0.377408 0
M  V30 2942 C 270.291 -1.59215 -1.13622 0
M  V30 2943 C 270.671 -0.392407 -2.07421 0
M  V30 2944 O 270.019 0.618342 -2.19975 0
M  V30 2945 C 270.229 -2.93669 -1.88573 0
M  V30 2946 C 271.577 -3.47822 -2.43526 0
M  V30 2947 O 272.601 -2.9562 -1.98715 0
M  V30 2948 O 271.46 -4.39055 -3.25412 0
M  V30 2949 H 268.554 -0.642625 -0.52054 0
M  V30 2950 H 271.1 -1.65353 -0.381625 0
M  V30 2951 H 269.872 -3.7243 -1.20048 0
M  V30 2952 H 269.495 -2.90968 -2.70968 0
M  V30 2953 N 270.492 0.636531 -1.44174 0
M  V30 2954 C 271.739 1.39619 -1.46672 0
M  V30 2955 C 272.067 1.94257 -0.0972691 0
M  V30 2956 O 271.322 1.73768 0.900175 0
M  V30 2957 C 271.621 2.58309 -2.47005 0
M  V30 2958 C 271.287 2.21992 -3.92467 0
M  V30 2959 C 269.949 2.118 -4.32081 0
M  V30 2960 C 272.301 1.9321 -4.84065 0
M  V30 2961 C 269.629 1.71007 -5.61225 0
M  V30 2962 C 271.981 1.53911 -6.13591 0
M  V30 2963 C 270.645 1.42257 -6.52165 0
M  V30 2964 H 269.915 0.510902 -0.536712 0
M  V30 2965 H 272.562 0.722328 -1.77355 0
M  V30 2966 H 270.867 3.30903 -2.09786 0
M  V30 2967 H 272.564 3.16533 -2.46186 0
M  V30 2968 H 269.154 2.30841 -3.61124 0
M  V30 2969 H 273.338 1.99997 -4.54219 0
M  V30 2970 H 268.594 1.60583 -5.89935 0
M  V30 2971 H 272.768 1.30677 -6.8403 0
M  V30 2972 H 270.395 1.10419 -7.52138 0
M  V30 2973 N 271.97 1.30982 0.876444 0
M  V30 2974 C 272.88 1.2003 2.01569 0
M  V30 2975 C 273.896 0.11838 1.73597 0
M  V30 2976 O 275.072 0.33495 1.98595 0
M  V30 2977 C 272.137 0.901637 3.34771 0
M  V30 2978 C 271.198 2.06979 3.76109 0
M  V30 2979 C 270.431 1.78529 5.02954 0
M  V30 2980 O 270.654 0.717296 5.65872 0
M  V30 2981 O 269.588 2.64019 5.40905 0
M  V30 2982 H 273.414 2.15753 2.13739 0
M  V30 2983 H 270.999 1.10658 1.00375 0
M  V30 2984 H 272.881 0.750645 4.1466 0
M  V30 2985 H 271.556 -0.0256141 3.2369 0
M  V30 2986 H 270.463 2.27616 2.96887 0
M  V30 2987 H 271.796 2.97907 3.91807 0
M  V30 2988 N 273.449 -1.08991 1.13837 0
M  V30 2989 C 274.396 -2.15748 0.819835 0
M  V30 2990 C 275.366 -1.64636 -0.220026 0
M  V30 2991 O 276.551 -1.90582 -0.0912757 0
M  V30 2992 C 273.691 -3.4382 0.296913 0
M  V30 2993 C 272.804 -4.0881 1.39636 0
M  V30 2994 C 271.939 -5.24655 0.831314 0
M  V30 2995 C 270.978 -5.81575 1.90886 0
M  V30 2996 N 270.115 -6.88774 1.36142 0
M  V30 2997 H 274.955 -2.42338 1.73426 0
M  V30 2998 H 272.492 -1.18935 0.865613 0
M  V30 2999 H 274.45 -4.17193 -0.0244339 0
M  V30 3000 H 273.08 -3.17535 -0.580628 0
M  V30 3001 H 272.132 -3.33258 1.83422 0
M  V30 3002 H 273.444 -4.47141 2.21058 0
M  V30 3003 H 272.598 -6.04942 0.461515 0
M  V30 3004 H 271.337 -4.87698 -0.013932 0
M  V30 3005 H 270.342 -4.99946 2.28767 0
M  V30 3006 H 271.567 -6.20592 2.75758 0
M  V30 3007 H 269.513 -6.53788 0.538254 0
M  V30 3008 H 269.43 -7.25898 2.11208 0
M  V30 3009 H 270.698 -7.72806 1.01933 0
M  V30 3010 N 274.927 -0.932562 -1.27047 0
M  V30 3011 C 275.837 -0.441219 -2.30414 0
M  V30 3012 C 276.853 0.480525 -1.67233 0
M  V30 3013 O 278.029 0.362151 -1.98117 0
M  V30 3014 C 275.094 0.293651 -3.45454 0
M  V30 3015 C 274.155 -0.663601 -4.2414 0
M  V30 3016 C 273.388 0.0362932 -5.33688 0
M  V30 3017 O 273.611 1.2548 -5.56427 0
M  V30 3018 O 272.545 -0.638015 -5.98509 0
M  V30 3019 H 276.371 -1.29962 -2.74488 0
M  V30 3020 H 273.956 -0.6981 -1.32087 0
M  V30 3021 H 275.838 0.707951 -4.15411 0
M  V30 3022 H 274.513 1.12758 -3.03426 0
M  V30 3023 H 273.42 -1.12768 -3.56699 0
M  V30 3024 H 274.753 -1.46489 -4.69896 0
M  V30 3025 N 276.405 1.4127 -0.698611 0
M  V30 3026 C 277.654 2.00408 -0.227949 0
M  V30 3027 C 277.967 1.55981 1.18023 0
M  V30 3028 O 279.173 2.07699 1.74852 0
M  V30 3029 C 277.629 3.58129 -0.356636 0
M  V30 3030 C 277.237 4.11536 -1.77037 0
M  V30 3031 C 278.981 4.24466 0.0540969 0
M  V30 3032 C 276.888 5.61701 -1.85055 0
M  V30 3033 H 275.818 0.749586 -0.0814657 0
M  V30 3034 H 278.469 1.61713 -0.867249 0
M  V30 3035 H 276.851 3.94442 0.350965 0
M  V30 3036 H 278.025 3.86636 -2.50698 0
M  V30 3037 H 276.34 3.57736 -2.13105 0
M  V30 3038 H 278.937 5.34698 0.0146723 0
M  V30 3039 H 279.28 4.01687 1.09332 0
M  V30 3040 H 279.813 3.93198 -0.603337 0
M  V30 3041 H 276.552 5.89312 -2.8704 0
M  V30 3042 H 276.072 5.88519 -1.15783 0
M  V30 3043 H 277.751 6.26524 -1.61484 0
M  V30 3044 N 277.883 0.443576 1.51229 0
M  V30 3045 C 278.846 -0.353132 2.26463 0
M  V30 3046 C 279.846 -0.944338 1.3015 0
M  V30 3047 O 281.036 -0.817813 1.5381 0
M  V30 3048 C 278.168 -1.50023 3.06114 0
M  V30 3049 H 279.361 0.3063 2.98332 0
M  V30 3050 H 276.914 0.196902 1.55055 0
M  V30 3051 H 277.649 -2.19553 2.38677 0
M  V30 3052 H 277.434 -1.08241 3.76864 0
M  V30 3053 H 278.924 -2.06296 3.63087 0
M  V30 3054 N 279.361 -1.56624 0.175154 0
M  V30 3055 C 280.308 -2.18149 -0.753634 0
M  V30 3056 C 281.278 -1.12265 -1.22417 0
M  V30 3057 O 282.463 -1.40432 -1.29165 0
M  V30 3058 C 279.603 -2.82933 -1.97592 0
M  V30 3059 C 278.716 -4.03289 -1.5486 0
M  V30 3060 C 277.851 -4.55988 -2.72485 0
M  V30 3061 C 276.89 -5.68746 -2.26262 0
M  V30 3062 N 276.027 -6.15938 -3.36994 0
M  V30 3063 H 280.867 -2.9717 -0.222195 0
M  V30 3064 H 278.404 -1.46774 -0.0979422 0
M  V30 3065 H 280.362 -3.18653 -2.69288 0
M  V30 3066 H 278.992 -2.06509 -2.481 0
M  V30 3067 H 278.044 -3.73364 -0.728246 0
M  V30 3068 H 279.356 -4.849 -1.16933 0
M  V30 3069 H 278.51 -4.9391 -3.52332 0
M  V30 3070 H 277.249 -3.73443 -3.13674 0
M  V30 3071 H 276.254 -5.30372 -1.44863 0
M  V30 3072 H 277.479 -6.53095 -1.86127 0
M  V30 3073 H 275.425 -5.36321 -3.77751 0
M  V30 3074 H 275.342 -6.92548 -3.03172 0
M  V30 3075 H 276.61 -6.58511 -4.17114 0
M  V30 3076 N 280.839 0.0985539 -1.57292 0
M  V30 3077 C 281.769 1.12064 -2.04851 0
M  V30 3078 C 282.75 1.41981 -0.936767 0
M  V30 3079 O 283.935 1.52071 -1.20781 0
M  V30 3080 C 281.065 2.44144 -2.47004 0
M  V30 3081 C 280.019 2.28643 -3.6181 0
M  V30 3082 C 279.345 3.65869 -3.89929 0
M  V30 3083 C 280.645 1.72986 -4.92822 0
M  V30 3084 H 282.339 0.724979 -2.9049 0
M  V30 3085 H 279.885 0.34729 -1.39749 0
M  V30 3086 H 281.838 3.15914 -2.78884 0
M  V30 3087 H 280.562 2.85639 -1.5836 0
M  V30 3088 H 279.221 1.59318 -3.30172 0
M  V30 3089 H 278.869 4.04885 -2.98458 0
M  V30 3090 H 278.569 3.56344 -4.67218 0
M  V30 3091 H 280.093 4.39112 -4.2428 0
M  V30 3092 H 281.507 2.34593 -5.23105 0
M  V30 3093 H 279.904 1.74229 -5.74251 0
M  V30 3094 H 280.974 0.689007 -4.7998 0
M  V30 3095 N 282.317 1.53212 0.369288 0
M  V30 3096 C 283.267 1.75769 1.45222 0
M  V30 3097 C 284.251 0.612136 1.48801 0
M  V30 3098 O 285.443 0.870674 1.54105 0
M  V30 3099 C 282.572 1.94769 2.82701 0
M  V30 3100 C 281.658 3.15315 2.83615 0
M  V30 3101 N 282.049 4.37295 2.54178 0
M  V30 3102 C 280.347 3.15962 3.14776 0
M  V30 3103 C 281.048 5.19015 2.62675 0
M  V30 3104 N 280.024 4.55142 2.97232 0
M  V30 3105 H 283.826 2.67691 1.2132 0
M  V30 3106 H 281.34 1.51787 0.577438 0
M  V30 3107 H 283.337 2.09056 3.60696 0
M  V30 3108 H 281.997 1.04073 3.07569 0
M  V30 3109 H 283.008 4.65091 2.27839 0
M  V30 3110 H 279.685 2.35144 3.44983 0
M  V30 3111 H 281.075 6.26305 2.43294 0
M  V30 3112 N 283.795 -0.628877 1.44509 0
M  V30 3113 C 284.727 -1.754 1.47538 0
M  V30 3114 C 285.74 -1.58575 0.368506 0
M  V30 3115 O 286.929 -1.66847 0.634376 0
M  V30 3116 C 284.029 -3.1315 1.29577 0
M  V30 3117 C 283.202 -3.56413 2.53551 0
M  V30 3118 C 282.261 -4.7305 2.30457 0
M  V30 3119 O 281.287 -4.81247 3.03957 0
M  V30 3120 N 282.489 -5.64903 1.3366 0
M  V30 3121 H 285.254 -1.73272 2.44534 0
M  V30 3122 H 282.815 -0.813512 1.39977 0
M  V30 3123 H 284.807 -3.88902 1.11971 0
M  V30 3124 H 283.377 -3.09908 0.409371 0
M  V30 3125 H 282.597 -2.70847 2.86419 0
M  V30 3126 H 283.885 -3.82071 3.36005 0
M  V30 3127 H 283.283 -5.60975 0.729604 0
M  V30 3128 H 281.84 -6.40275 1.22032 0
M  V30 3129 N 285.273 -1.31445 -0.869486 0
M  V30 3130 C 286.205 -1.14955 -1.98287 0
M  V30 3131 C 287.218 -0.0885037 -1.62559 0
M  V30 3132 O 288.407 -0.336044 -1.75308 0
M  V30 3133 C 285.507 -0.734255 -3.3085 0
M  V30 3134 C 284.68 -1.88042 -3.94917 0
M  V30 3135 C 283.739 -1.4511 -5.05796 0
M  V30 3136 O 282.765 -2.16082 -5.2659 0
M  V30 3137 N 283.967 -0.338763 -5.79511 0
M  V30 3138 H 286.732 -2.10856 -2.12979 0
M  V30 3139 H 284.293 -1.23786 -1.04349 0
M  V30 3140 H 286.285 -0.42975 -4.02412 0
M  V30 3141 H 284.855 0.133158 -3.12316 0
M  V30 3142 H 284.075 -2.35222 -3.1633 0
M  V30 3143 H 285.363 -2.6481 -4.34457 0
M  V30 3144 H 284.761 0.252274 -5.65137 0
M  V30 3145 H 283.318 -0.0937925 -6.51733 0
M  V30 3146 N 286.751 1.08385 -1.14413 0
M  V30 3147 C 287.701 2.13509 -0.79987 0
M  V30 3148 C 288.685 1.5951 0.211059 0
M  V30 3149 O 289.877 1.76995 0.0133694 0
M  V30 3150 C 287.006 3.42162 -0.279297 0
M  V30 3151 C 286.092 4.03042 -1.31976 0
M  V30 3152 N 286.483 4.38327 -2.52395 0
M  V30 3153 C 284.781 4.30379 -1.17004 0
M  V30 3154 C 285.482 4.86428 -3.19003 0
M  V30 3155 N 284.458 4.84547 -2.46405 0
M  V30 3156 H 288.26 2.38609 -1.7159 0
M  V30 3157 H 285.774 1.2572 -1.02802 0
M  V30 3158 H 287.771 4.16898 -0.0143688 0
M  V30 3159 H 286.431 3.18511 0.630923 0
M  V30 3160 H 287.442 4.29349 -2.89621 0
M  V30 3161 H 284.119 4.16281 -0.318854 0
M  V30 3162 H 285.509 5.23107 -4.21674 0
M  V30 3163 N 288.23 0.939286 1.26551 0
M  V30 3164 C 289.479 0.581601 1.93133 0
M  V30 3165 C 289.792 -0.883224 1.74524 0
M  V30 3166 O 290.998 -1.3502 2.35546 0
M  V30 3167 C 289.454 0.989425 3.46032 0
M  V30 3168 C 289.062 2.47573 3.73379 0
M  V30 3169 C 290.806 0.703544 4.18629 0
M  V30 3170 C 288.713 2.82235 5.19709 0
M  V30 3171 H 287.643 0.213803 0.723052 0
M  V30 3172 H 290.294 1.14167 1.4366 0
M  V30 3173 H 288.676 0.357902 3.94379 0
M  V30 3174 H 289.85 3.15614 3.35744 0
M  V30 3175 H 288.165 2.73471 3.1401 0
M  V30 3176 H 290.762 0.938869 5.26393 0
M  V30 3177 H 291.105 -0.359639 4.14744 0
M  V30 3178 H 291.638 1.2947 3.76141 0
M  V30 3179 H 288.377 3.87509 5.28694 0
M  V30 3180 H 287.897 2.18854 5.58447 0
M  V30 3181 H 289.576 2.70599 5.87695 0
M  V30 3182 N 289.708 -1.40897 0.706093 0
M  V30 3183 C 290.956 -2.00657 0.241054 0
M  V30 3184 C 291.277 -1.56241 -1.16678 0
M  V30 3185 O 290.547 -0.79765 -1.78926 0
M  V30 3186 H 289.127 -0.742018 0.0861308 0
M  V30 3187 H 291.789 -1.72372 0.909604 0
M  V30 3188 H 290.885 -3.10958 0.266705 0
M  V30 3189 N 291.186 -0.45159 -1.50991 0
M  V30 3190 C 292.116 0.342898 -2.30969 0
M  V30 3191 C 293.097 1.00815 -1.37005 0
M  V30 3192 O 294.282 1.00907 -1.65926 0
M  V30 3193 C 291.412 1.43637 -3.16205 0
M  V30 3194 C 290.366 0.893818 -4.18563 0
M  V30 3195 C 289.692 2.08411 -4.92411 0
M  V30 3196 C 290.992 -0.0815568 -5.22236 0
M  V30 3197 H 292.686 -0.324556 -2.97636 0
M  V30 3198 H 290.232 -0.157531 -1.43136 0
M  V30 3199 H 292.185 1.9995 -3.70942 0
M  V30 3200 H 290.909 2.13232 -2.47386 0
M  V30 3201 H 289.568 0.352798 -3.64898 0
M  V30 3202 H 289.216 2.76658 -4.20082 0
M  V30 3203 H 288.916 1.72741 -5.61636 0
M  V30 3204 H 290.44 2.65251 -5.49976 0
M  V30 3205 H 291.854 0.391742 -5.7196 0
M  V30 3206 H 290.251 -0.351551 -5.99069 0
M  V30 3207 H 291.321 -1.01374 -4.74185 0
M  V30 3208 N 292.664 1.56529 -0.183458 0
M  V30 3209 C 293.889 2.02064 0.467428 0
M  V30 3210 C 294.314 1.06282 1.55196 0
M  V30 3211 O 293.672 0.0443565 1.81246 0
M  V30 3212 C 293.72 3.46122 1.01153 0
M  V30 3213 O 292.824 3.53437 2.12499 0
M  V30 3214 H 292.165 0.654726 0.110588 0
M  V30 3215 H 294.695 2.02521 -0.290917 0
M  V30 3216 H 294.705 3.85676 1.33108 0
M  V30 3217 H 293.38 4.15331 0.217533 0
M  V30 3218 H 291.957 3.2575 1.81497 0
M  V30 3219 N 294.142 -0.090211 1.57342 0
M  V30 3220 C 295.553 -0.644173 1.75235 0
M  V30 3221 C 295.904 -1.78865 0.806335 0
M  V30 3222 O 295.029 -2.16395 -0.0140128 0
M  V30 3223 C 295.624 -1.17532 3.1776 0
M  V30 3224 C 294.183 -1.67531 3.37061 0
M  V30 3225 C 293.33 -0.58693 2.71017 0
M  V30 3226 H 296.281 0.135884 1.58117 0
M  V30 3227 H 296.302 -2.04455 3.20902 0
M  V30 3228 H 295.814 -0.342138 3.86589 0
M  V30 3229 H 293.915 -2.53234 2.73319 0
M  V30 3230 H 294.028 -1.76493 4.45406 0
M  V30 3231 H 292.392 -1.02756 2.33052 0
M  V30 3232 H 293.175 0.235758 3.4249 0
M  V30 3233 N 295.62 -1.53406 -0.361157 0
M  V30 3234 C 296.583 -1.79479 -1.42548 0
M  V30 3235 C 297.583 -0.665327 -1.4639 0
M  V30 3236 O 298.773 -0.933549 -1.47073 0
M  V30 3237 C 295.905 -1.92087 -2.8163 0
M  V30 3238 H 297.098 -2.74538 -1.20701 0
M  V30 3239 H 294.651 -1.4455 -0.594546 0
M  V30 3240 H 295.386 -0.991099 -3.08784 0
M  V30 3241 H 295.171 -2.74241 -2.80239 0
M  V30 3242 H 296.661 -2.13836 -3.58697 0
M  V30 3243 N 297.098 0.621204 -1.44841 0
M  V30 3244 C 298.008 1.7612 -1.5498 0
M  V30 3245 C 299.024 1.68477 -0.434927 0
M  V30 3246 O 300.2 1.89076 -0.693693 0
M  V30 3247 C 297.265 3.1254 -1.50065 0
M  V30 3248 C 296.326 3.31741 -2.72482 0
M  V30 3249 C 295.559 4.61653 -2.67792 0
M  V30 3250 O 295.782 5.431 -1.74352 0
M  V30 3251 O 294.716 4.83271 -3.58794 0
M  V30 3252 H 298.542 1.70518 -2.51311 0
M  V30 3253 H 296.127 0.783643 -1.27198 0
M  V30 3254 H 298.009 3.93844 -1.49882 0
M  V30 3255 H 296.684 3.18663 -0.568806 0
M  V30 3256 H 295.591 2.50077 -2.7823 0
M  V30 3257 H 296.924 3.30486 -3.64746 0
M  V30 3258 N 298.576 1.31904 0.862503 0
M  V30 3259 C 299.539 1.20131 1.95195 0
M  V30 3260 C 300.539 0.126409 1.60302 0
M  V30 3261 O 301.729 0.376234 1.70089 0
M  V30 3262 C 298.861 0.845691 3.30244 0
M  V30 3263 H 300.054 2.16943 2.07064 0
M  V30 3264 H 297.607 1.15622 1.05172 0
M  V30 3265 H 298.342 -0.120957 3.24074 0
M  V30 3266 H 298.127 1.62276 3.56944 0
M  V30 3267 H 299.617 0.787418 4.10109 0
M  V30 3268 N 300.054 -1.07777 1.14986 0
M  V30 3269 C 300.964 -2.18404 0.856546 0
M  V30 3270 C 301.98 -1.73211 -0.165485 0
M  V30 3271 O 303.156 -2.01399 0.00755219 0
M  V30 3272 C 300.221 -3.44977 0.34526 0
M  V30 3273 C 299.282 -4.0476 1.43065 0
M  V30 3274 C 298.515 -5.25291 0.943663 0
M  V30 3275 O 298.738 -5.70004 -0.212426 0
M  V30 3276 O 297.672 -5.76638 1.72547 0
M  V30 3277 H 301.498 -2.45978 1.78125 0
M  V30 3278 H 299.083 -1.17033 0.928631 0
M  V30 3279 H 300.965 -4.21348 0.0663671 0
M  V30 3280 H 299.64 -3.18965 -0.551631 0
M  V30 3281 H 298.547 -3.29949 1.76309 0
M  V30 3282 H 299.88 -4.35035 2.30229 0
M  V30 3283 N 301.532 -0.945985 -1.26051 0
M  V30 3284 C 302.779 -0.596118 -1.93527 0
M  V30 3285 C 303.107 0.865559 -1.74179 0
M  V30 3286 O 302.362 1.63524 -1.0751 0
M  V30 3287 C 302.661 -0.890475 -3.46129 0
M  V30 3288 C 302.327 -2.3368 -3.85622 0
M  V30 3289 C 300.989 -2.73216 -3.96114 0
M  V30 3290 C 303.341 -3.27648 -4.05334 0
M  V30 3291 C 300.669 -4.05806 -4.2372 0
M  V30 3292 C 303.021 -4.59841 -4.3443 0
M  V30 3293 C 301.685 -4.99185 -4.43137 0
M  V30 3294 H 300.955 -0.218135 -0.708165 0
M  V30 3295 H 303.602 -1.1934 -1.49768 0
M  V30 3296 H 301.907 -0.210711 -3.91233 0
M  V30 3297 H 303.604 -0.598478 -3.96509 0
M  V30 3298 H 300.194 -2.02015 -3.78005 0
M  V30 3299 H 304.378 -2.98298 -3.96651 0
M  V30 3300 H 299.634 -4.35945 -4.28675 0
M  V30 3301 H 303.808 -5.32641 -4.48628 0
M  V30 3302 H 301.435 -6.01952 -4.64282 0
M  V30 3303 N 303.011 1.40521 -0.713556 0
M  V30 3304 C 303.959 2.32549 -0.0485227 0
M  V30 3305 C 304.953 1.51931 0.74922 0
M  V30 3306 O 306.159 1.67745 0.652816 0
M  V30 3307 H 302.534 0.751994 0.00311138 0
M  V30 3308 H 304.505 2.86291 -0.841443 0
M  V30 3309 C 303.254 3.36879 0.860687 0
M  V30 3310 H 302.577 3.98978 0.256246 0
M  V30 3311 H 304.017 4.03772 1.294 0
M  V30 3312 C 302.476 2.72197 1.9852 0
M  V30 3313 O 303.006 2.5837 3.07584 0
M  V30 3314 N 301.212 2.30612 1.76823 0
M  V30 3315 H 300.759 2.42059 0.881217 0
M  V30 3316 H 300.717 1.87672 2.52243 0
M  V30 3317 N 304.489 0.459591 1.5075 0
M  V30 3318 C 305.719 -0.0972338 2.06371 0
M  V30 3319 C 306.127 -1.35074 1.32483 0
M  V30 3320 O 305.47 -1.79637 0.384226 0
M  V30 3321 C 305.532 -0.462759 3.56509 0
M  V30 3322 C 305.196 0.687084 4.51805 0
M  V30 3323 C 306.193 1.56578 4.95761 0
M  V30 3324 C 303.878 0.874144 4.94635 0
M  V30 3325 C 305.872 2.61604 5.81242 0
M  V30 3326 C 303.559 1.92765 5.79901 0
M  V30 3327 C 304.557 2.79697 6.23104 0
M  V30 3328 O 304.245 3.83235 7.06673 0
M  V30 3329 H 303.977 -0.00140687 0.675999 0
M  V30 3330 H 306.531 0.644011 1.95043 0
M  V30 3331 H 304.761 -1.25703 3.65699 0
M  V30 3332 H 306.45 -0.953323 3.94546 0
M  V30 3333 H 307.216 1.4329 4.6335 0
M  V30 3334 H 303.095 0.207006 4.60535 0
M  V30 3335 H 306.639 3.29489 6.14884 0
M  V30 3336 H 302.536 2.06064 6.11725 0
M  V30 3337 H 303.304 3.80084 7.24899 0
M  V30 3338 N 305.967 -1.56429 0.191757 0
M  V30 3339 C 306.897 -2.21937 -0.725696 0
M  V30 3340 C 307.878 -1.1814 -1.2238 0
M  V30 3341 O 309.063 -1.46636 -1.27325 0
M  V30 3342 C 306.193 -2.87611 -1.94672 0
M  V30 3343 C 305.147 -3.97623 -1.58366 0
M  V30 3344 C 304.473 -4.50446 -2.88102 0
M  V30 3345 C 305.773 -5.16197 -0.796133 0
M  V30 3346 H 307.467 -2.98861 -0.179606 0
M  V30 3347 H 305.013 -1.43749 -0.0849464 0
M  V30 3348 H 306.966 -3.3212 -2.59373 0
M  V30 3349 H 305.69 -2.08087 -2.51728 0
M  V30 3350 H 304.349 -3.53801 -0.960247 0
M  V30 3351 H 303.997 -3.67688 -3.43241 0
M  V30 3352 H 303.697 -5.24675 -2.64556 0
M  V30 3353 H 305.221 -4.97654 -3.53798 0
M  V30 3354 H 306.635 -5.57271 -1.34618 0
M  V30 3355 H 305.032 -5.96471 -0.658928 0
M  V30 3356 H 306.102 -4.84473 0.203478 0
M  V30 3357 N 307.445 0.0818655 -1.57387 0
M  V30 3358 C 308.393 1.11712 -2.04018 0
M  V30 3359 C 309.387 1.40683 -0.94364 0
M  V30 3360 O 310.593 1.40209 -1.12878 0
M  V30 3361 H 306.968 0.377542 -0.650358 0
M  V30 3362 H 308.939 0.697614 -2.90131 0
M  V30 3363 C 307.688 2.42537 -2.49141 0
M  V30 3364 H 307.011 2.21092 -3.33104 0
M  V30 3365 H 308.451 3.13446 -2.85531 0
M  V30 3366 C 306.91 3.0778 -1.37014 0
M  V30 3367 O 307.44 3.95436 -0.706621 0
M  V30 3368 N 305.646 2.68242 -1.11779 0
M  V30 3369 H 305.193 1.97052 -1.65917 0
M  V30 3370 H 305.151 3.1222 -0.369594 0
M  V30 3371 N 308.923 1.53595 0.353017 0
M  V30 3372 C 310.151 1.74311 1.1146 0
M  V30 3373 C 310.566 0.477854 1.82653 0
M  V30 3374 O 309.923 -0.549977 1.74016 0
M  V30 3375 C 309.974 2.91694 2.13534 0
M  V30 3376 O 309.695 4.13325 1.45238 0
M  V30 3377 C 311.196 3.24384 3.02142 0
M  V30 3378 H 308.416 0.582669 0.332773 0
M  V30 3379 H 310.96 2.00386 0.408107 0
M  V30 3380 H 309.115 2.67977 2.79763 0
M  V30 3381 H 309.529 4.79148 2.13349 0
M  V30 3382 H 311.003 4.09893 3.69718 0
M  V30 3383 H 311.48 2.40282 3.67643 0
M  V30 3384 H 312.086 3.50073 2.41514 0
M  V30 3385 N 310.401 -0.613514 1.45168 0
M  V30 3386 C 311.364 -1.7065 1.53007 0
M  V30 3387 C 312.364 -1.5548 0.410184 0
M  V30 3388 O 313.554 -1.60656 0.673455 0
M  V30 3389 C 310.686 -3.09875 1.42093 0
M  V30 3390 H 311.879 -1.65068 2.50385 0
M  V30 3391 H 309.432 -0.828728 1.32521 0
M  V30 3392 H 310.167 -3.21039 0.458769 0
M  V30 3393 H 309.952 -3.22293 2.23315 0
M  V30 3394 H 311.442 -3.895 1.50598 0
M  V30 3395 N 311.879 -1.3236 -0.855495 0
M  V30 3396 C 313.295 -1.11332 -1.14356 0
M  V30 3397 C 313.495 0.106751 -2.01217 0
M  V30 3398 O 312.551 0.791891 -2.39761 0
M  V30 3399 C 313.864 -2.39237 -1.82171 0
M  V30 3400 C 315.412 -2.44986 -1.9481 0
M  V30 3401 C 315.887 -3.7281 -2.66039 0
M  V30 3402 N 317.378 -3.73787 -2.73565 0
M  V30 3403 C 318.113 -4.69394 -3.29327 0
M  V30 3404 N 317.609 -5.75367 -3.85907 0
M  V30 3405 N 319.402 -4.56893 -3.27423 0
M  V30 3406 H 311.553 -2.10586 -0.277027 0
M  V30 3407 H 313.816 -0.929701 -0.185364 0
M  V30 3408 H 313.522 -3.28431 -1.25802 0
M  V30 3409 H 313.396 -2.50134 -2.82335 0
M  V30 3410 H 315.783 -1.56252 -2.50338 0
M  V30 3411 H 315.864 -2.38043 -0.936448 0
M  V30 3412 H 315.508 -4.61918 -2.11174 0
M  V30 3413 H 315.438 -3.77024 -3.67642 0
M  V30 3414 H 317.929 -2.97189 -2.33424 0
M  V30 3415 H 318.242 -6.44378 -4.26611 0
M  V30 3416 H 316.587 -5.79123 -3.84242 0
M  V30 3417 H 319.778 -3.73269 -2.82467 0
M  V30 3418 H 319.951 -5.31577 -3.7058 0
M  V30 3419 N 313.357 1.07166 -1.15556 0
M  V30 3420 C 314.585 1.83514 -0.955519 0
M  V30 3421 C 315 1.82163 0.49621 0
M  V30 3422 O 314.357 1.23441 1.34419 0
M  V30 3423 C 314.408 3.30515 -1.46432 0
M  V30 3424 O 314.129 3.31937 -2.85918 0
M  V30 3425 C 315.63 4.23625 -1.30603 0
M  V30 3426 H 312.85 0.578926 -0.339244 0
M  V30 3427 H 315.394 1.35265 -1.53374 0
M  V30 3428 H 313.549 3.76106 -0.928584 0
M  V30 3429 H 313.963 4.23794 -3.09029 0
M  V30 3430 H 315.437 5.24831 -1.71047 0
M  V30 3431 H 315.914 4.38485 -0.250441 0
M  V30 3432 H 316.52 3.83871 -1.83094 0
M  V30 3433 N 314.835 0.952656 1.25548 0
M  V30 3434 C 315.765 0.489287 2.28316 0
M  V30 3435 C 316.746 -0.463359 1.63667 0
M  V30 3436 O 317.931 -0.36274 1.90782 0
M  V30 3437 C 315.061 -0.235603 3.465 0
M  V30 3438 C 314.015 0.631593 4.23314 0
M  V30 3439 C 313.341 -0.223923 5.34231 0
M  V30 3440 C 314.641 1.90871 4.86174 0
M  V30 3441 H 316.335 1.34822 2.67326 0
M  V30 3442 H 313.881 0.649728 1.28509 0
M  V30 3443 H 315.834 -0.570882 4.17515 0
M  V30 3444 H 314.558 -1.12877 3.06474 0
M  V30 3445 H 313.217 0.949929 3.54079 0
M  V30 3446 H 312.865 -1.11678 4.90446 0
M  V30 3447 H 312.565 0.35299 5.86539 0
M  V30 3448 H 314.089 -0.554214 6.0808 0
M  V30 3449 H 315.503 1.63997 5.49343 0
M  V30 3450 H 313.9 2.43112 5.4865 0
M  V30 3451 H 314.97 2.61304 4.08471 0
M  V30 3452 N 316.313 -1.40141 0.720998 0
M  V30 3453 C 317.223 -2.34486 0.0731031 0
M  V30 3454 C 318.239 -1.57587 -0.737723 0
M  V30 3455 O 319.415 -1.89949 -0.669429 0
M  V30 3456 C 316.48 -3.36528 -0.833656 0
M  V30 3457 C 315.541 -4.29298 -0.0121673 0
M  V30 3458 C 314.774 -5.26466 -0.875742 0
M  V30 3459 O 314.997 -5.29745 -2.11485 0
M  V30 3460 O 313.931 -6.01092 -0.31185 0
M  V30 3461 H 317.757 -2.9152 0.851444 0
M  V30 3462 H 315.342 -1.41427 0.481527 0
M  V30 3463 H 317.224 -3.99093 -1.35289 0
M  V30 3464 H 315.899 -2.81899 -1.59105 0
M  V30 3465 H 314.806 -3.70001 0.552262 0
M  V30 3466 H 316.139 -4.87094 0.707129 0
M  V30 3467 N 317.792 -0.46758 -1.50504 0
M  V30 3468 C 318.722 0.318381 -2.31319 0
M  V30 3469 C 319.703 0.993564 -1.38066 0
M  V30 3470 O 320.888 0.991411 -1.66987 0
M  V30 3471 C 318.018 1.40275 -3.17711 0
M  V30 3472 C 316.972 0.849373 -4.19487 0
M  V30 3473 C 316.298 2.03177 -4.94594 0
M  V30 3474 C 317.598 -0.136942 -5.2212 0
M  V30 3475 H 319.292 -0.356106 -2.97275 0
M  V30 3476 H 316.838 -0.172703 -1.42961 0
M  V30 3477 H 318.791 1.96004 -3.73042 0
M  V30 3478 H 317.515 2.10596 -2.49634 0
M  V30 3479 H 316.174 0.314076 -3.65252 0
M  V30 3480 H 315.822 2.72187 -4.22993 0
M  V30 3481 H 315.522 1.66774 -5.63436 0
M  V30 3482 H 317.046 2.59403 -5.52759 0
M  V30 3483 H 318.46 0.331056 -5.72343 0
M  V30 3484 H 316.857 -0.41507 -5.98663 0
M  V30 3485 H 317.927 -1.06398 -4.73083 0
M  V30 3486 N 319.27 1.56325 -0.20005 0
M  V30 3487 C 320.5 2.01811 0.442232 0
M  V30 3488 C 320.908 1.07932 1.55394 0
M  V30 3489 O 320.251 0.0772685 1.83537 0
M  V30 3490 C 320.313 3.43685 1.05457 0
M  V30 3491 C 319.977 4.56928 0.0809833 0
M  V30 3492 C 320.974 5.15009 -0.711471 0
M  V30 3493 C 318.659 5.0229 -0.0315364 0
M  V30 3494 C 320.653 6.16904 -1.60336 0
M  V30 3495 C 318.34 6.04028 -0.926981 0
M  V30 3496 C 319.338 6.6121 -1.71146 0
M  V30 3497 O 319.026 7.60971 -2.59189 0
M  V30 3498 H 318.758 0.666173 0.114848 0
M  V30 3499 H 321.312 2.03085 -0.307511 0
M  V30 3500 H 319.542 3.39413 1.85299 0
M  V30 3501 H 321.231 3.72948 1.60201 0
M  V30 3502 H 321.997 4.80827 -0.634873 0
M  V30 3503 H 317.876 4.57476 0.568902 0
M  V30 3504 H 321.42 6.61464 -2.21611 0
M  V30 3505 H 317.317 6.37634 -1.00468 0
M  V30 3506 H 318.085 7.7841 -2.53023 0
M  V30 3507 N 320.748 -0.0735177 1.57428 0
M  V30 3508 C 321.996 -0.771472 1.86796 0
M  V30 3509 C 322.317 -1.78201 0.791804 0
M  V30 3510 O 321.587 -1.95074 -0.179718 0
M  V30 3511 H 320.167 -0.28791 0.689287 0
M  V30 3512 H 322.829 -0.0500161 1.94836 0
M  V30 3513 H 321.925 -1.28874 2.8425 0
M  V30 3514 N 322.226 -1.5378 -0.344866 0
M  V30 3515 C 323.472 -1.71216 -1.08687 0
M  V30 3516 C 323.805 -0.473281 -1.88345 0
M  V30 3517 O 323.08 0.52968 -1.87149 0
M  V30 3518 C 323.363 -2.97486 -2.02914 0
M  V30 3519 C 323.216 -4.31579 -1.26727 0
M  V30 3520 C 324.535 -3.19422 -3.0275 0
M  V30 3521 H 321.654 -0.62301 -0.393735 0
M  V30 3522 H 324.296 -1.8645 -0.365563 0
M  V30 3523 H 322.446 -2.84629 -2.64421 0
M  V30 3524 H 324.118 -4.56284 -0.67845 0
M  V30 3525 H 322.361 -4.30049 -0.569273 0
M  V30 3526 H 323.032 -5.16106 -1.95803 0
M  V30 3527 H 325.508 -3.316 -2.51357 0
M  V30 3528 H 324.384 -4.09169 -3.65885 0
M  V30 3529 H 324.645 -2.35656 -3.74057 0
M  V30 3530 N 323.704 0.605807 -1.45491 0
M  V30 3531 C 324.614 1.74466 -1.56839 0
M  V30 3532 C 325.63 1.68006 -0.452772 0
M  V30 3533 O 326.806 1.8833 -0.713708 0
M  V30 3534 C 323.871 3.10931 -1.53371 0
M  V30 3535 C 322.932 3.28832 -2.75986 0
M  V30 3536 C 322.165 4.58787 -2.72673 0
M  V30 3537 O 322.388 5.4122 -1.80102 0
M  V30 3538 O 321.322 4.79438 -3.63899 0
M  V30 3539 H 325.148 1.67843 -2.53106 0
M  V30 3540 H 322.733 0.770108 -1.28022 0
M  V30 3541 H 324.615 3.92233 -1.54051 0
M  V30 3542 H 323.29 3.18042 -0.602572 0
M  V30 3543 H 322.197 2.47112 -2.80867 0
M  V30 3544 H 323.53 3.26599 -3.68231 0
M  V30 3545 N 325.182 1.32811 0.848464 0
M  V30 3546 C 326.429 1.23724 1.60308 0
M  V30 3547 C 326.757 -0.1994 1.93475 0
M  V30 3548 O 326.012 -1.15406 1.5805 0
M  V30 3549 C 326.311 2.04831 2.92881 0
M  V30 3550 C 325.977 3.54125 2.79117 0
M  V30 3551 C 324.639 3.94829 2.7507 0
M  V30 3552 C 326.991 4.49036 2.64606 0
M  V30 3553 C 324.319 5.28675 2.544 0
M  V30 3554 C 326.671 5.83033 2.4547 0
M  V30 3555 C 325.335 6.22931 2.39819 0
M  V30 3556 H 324.605 0.452737 0.586609 0
M  V30 3557 H 327.252 1.64301 0.983743 0
M  V30 3558 H 325.557 1.57001 3.58968 0
M  V30 3559 H 327.254 1.95164 3.50303 0
M  V30 3560 H 323.844 3.21801 2.83094 0
M  V30 3561 H 328.028 4.18505 2.66772 0
M  V30 3562 H 323.284 5.58637 2.48465 0
M  V30 3563 H 327.458 6.56186 2.33222 0
M  V30 3564 H 325.085 7.26584 2.23562 0
M  V30 3565 N 326.66 -1.06551 1.16123 0
M  V30 3566 C 327.61 -2.12209 0.833736 0
M  V30 3567 C 328.594 -1.59825 -0.185656 0
M  V30 3568 O 329.786 -1.76994 0.0147906 0
M  V30 3569 C 326.915 -3.41674 0.333697 0
M  V30 3570 C 326.001 -4.00892 1.38372 0
M  V30 3571 N 326.392 -4.34256 2.59337 0
M  V30 3572 C 324.69 -4.28463 1.23836 0
M  V30 3573 C 325.391 -4.81291 3.26701 0
M  V30 3574 N 324.367 -4.80565 2.54083 0
M  V30 3575 H 328.169 -2.35849 1.75364 0
M  V30 3576 H 325.683 -1.24068 1.04789 0
M  V30 3577 H 327.68 -4.16822 0.0806918 0
M  V30 3578 H 326.34 -3.19475 -0.58017 0
M  V30 3579 H 327.351 -4.24687 2.96415 0
M  V30 3580 H 324.028 -4.15721 0.38504 0
M  V30 3581 H 325.418 -5.16332 4.29943 0
M  V30 3582 N 328.138 -0.959301 -1.25041 0
M  V30 3583 C 329.368 -0.63303 -1.96663 0
M  V30 3584 C 329.776 0.800031 -1.71453 0
M  V30 3585 O 329.119 1.54736 -0.99008 0
M  V30 3586 C 329.181 -0.817523 -3.50081 0
M  V30 3587 C 328.845 -2.22863 -3.98975 0
M  V30 3588 C 329.842 -3.20569 -4.09306 0
M  V30 3589 C 327.527 -2.55407 -4.32519 0
M  V30 3590 C 329.521 -4.4891 -4.52503 0
M  V30 3591 C 327.208 -3.83976 -4.754 0
M  V30 3592 C 328.206 -4.8054 -4.85356 0
M  V30 3593 O 327.894 -6.06817 -5.27284 0
M  V30 3594 H 327.626 -0.235866 -0.633516 0
M  V30 3595 H 330.18 -1.2874 -1.60047 0
M  V30 3596 H 328.41 -0.105992 -3.86555 0
M  V30 3597 H 330.099 -0.491604 -4.02912 0
M  V30 3598 H 330.865 -2.96753 -3.83618 0
M  V30 3599 H 326.744 -1.8097 -4.23994 0
M  V30 3600 H 330.288 -5.24283 -4.60188 0
M  V30 3601 H 326.185 -4.07596 -5.00535 0
M  V30 3602 H 326.953 -6.10262 -5.45457 0
M  V30 3603 N 329.616 1.39756 -0.72842 0
M  V30 3604 C 330.579 2.29012 -0.0927297 0
M  V30 3605 C 331.579 1.45992 0.674025 0
M  V30 3606 O 332.769 1.66749 0.50402 0
M  V30 3607 C 329.901 3.29396 0.878137 0
M  V30 3608 H 331.094 2.86729 -0.879011 0
M  V30 3609 H 328.647 1.48293 -0.493847 0
M  V30 3610 H 329.382 2.76722 1.69101 0
M  V30 3611 H 329.167 3.907 0.331051 0
M  V30 3612 H 330.657 3.96199 1.3197 0
M  V30 3613 N 331.094 0.475555 1.50254 0
M  V30 3614 C 332.51 0.12997 1.5907 0
M  V30 3615 C 332.71 -1.36385 1.48328 0
M  V30 3616 O 331.766 -2.13754 1.34407 0
M  V30 3617 C 333.079 0.684139 2.92814 0
M  V30 3618 C 334.627 0.647965 3.0622 0
M  V30 3619 C 335.102 1.17975 4.42545 0
M  V30 3620 N 336.593 1.13936 4.48969 0
M  V30 3621 C 337.328 1.52129 5.52851 0
M  V30 3622 N 336.824 1.97793 6.63965 0
M  V30 3623 N 338.617 1.43704 5.4342 0
M  V30 3624 H 330.768 1.44706 1.55479 0
M  V30 3625 H 333.031 0.598691 0.735033 0
M  V30 3626 H 332.737 1.73079 3.06164 0
M  V30 3627 H 332.611 0.130204 3.76975 0
M  V30 3628 H 334.998 -0.38979 2.92514 0
M  V30 3629 H 335.079 1.23876 2.23805 0
M  V30 3630 H 334.723 2.21616 4.57 0
M  V30 3631 H 334.653 0.565138 5.23559 0
M  V30 3632 H 337.144 0.804488 3.69238 0
M  V30 3633 H 337.457 2.25072 7.39299 0
M  V30 3634 H 335.802 2.01749 6.65073 0
M  V30 3635 H 338.993 1.07867 4.55502 0
M  V30 3636 H 339.166 1.73794 6.24259 0
M  V30 3637 N 332.573 -1.56217 0.208337 0
M  V30 3638 C 333.85 -1.89739 -0.475234 0
M  V30 3639 C 334.23 -1.1238 -1.78701 0
M  V30 3640 O 333.578 -0.228979 -2.2735 0
M  V30 3641 C 333.788 -3.42289 -0.681101 0
M  V30 3642 C 335.136 -4.12789 -0.994507 0
M  V30 3643 O 336.16 -3.47814 -0.768357 0
M  V30 3644 O 335.019 -5.27649 -1.42299 0
M  V30 3645 H 332.113 -0.788478 -0.249461 0
M  V30 3646 H 334.659 -1.67855 0.249538 0
M  V30 3647 H 333.431 -3.90534 0.244722 0
M  V30 3648 H 333.054 -3.69909 -1.45785 0
M  V30 3649 N 334.051 0.0651679 -1.57465 0
M  V30 3650 C 334.983 1.10359 -2.00882 0
M  V30 3651 C 335.996 1.346 -0.915788 0
M  V30 3652 O 337.185 1.32723 -1.1936 0
M  V30 3653 C 334.285 2.45312 -2.33828 0
M  V30 3654 C 333.458 2.40934 -3.65061 0
M  V30 3655 C 332.517 3.58047 -3.85602 0
M  V30 3656 O 331.543 3.39175 -4.57109 0
M  V30 3657 N 332.745 4.78637 -3.28462 0
M  V30 3658 H 335.51 0.733807 -2.90578 0
M  V30 3659 H 333.071 0.253719 -1.599 0
M  V30 3660 H 335.063 3.22314 -2.44737 0
M  V30 3661 H 333.633 2.74267 -1.49988 0
M  V30 3662 H 332.853 1.49273 -3.64844 0
M  V30 3663 H 334.141 2.35117 -4.51218 0
M  V30 3664 H 333.539 4.96872 -2.70433 0
M  V30 3665 H 332.096 5.53127 -3.44809 0
M  V30 3666 N 335.529 1.53961 0.336706 0
M  V30 3667 C 336.754 1.75797 1.10046 0
M  V30 3668 C 337.179 0.498985 1.81361 0
M  V30 3669 O 336.537 -0.548769 1.72795 0
M  V30 3670 C 336.585 2.94257 2.08436 0
M  V30 3671 O 335.689 2.64883 3.16087 0
M  V30 3672 H 335.03 0.582936 0.317934 0
M  V30 3673 H 337.56 2.00945 0.38501 0
M  V30 3674 H 337.57 3.21237 2.51537 0
M  V30 3675 H 336.245 3.85564 1.55927 0
M  V30 3676 H 334.822 2.48812 2.77753 0
M  V30 3677 N 337.007 -0.598083 1.45811 0
M  V30 3678 C 337.955 -1.72932 1.55555 0
M  V30 3679 C 338.949 -1.63984 0.424921 0
M  V30 3680 O 340.155 -1.69663 0.601205 0
M  V30 3681 H 336.53 -0.571489 0.488779 0
M  V30 3682 H 338.501 -1.61842 2.50699 0
M  V30 3683 C 337.25 -3.11318 1.54843 0
M  V30 3684 H 336.573 -3.18867 2.41172 0
M  V30 3685 H 338.013 -3.90274 1.65717 0
M  V30 3686 C 336.472 -3.3578 0.274427 0
M  V30 3687 O 337.002 -3.9654 -0.641778 0
M  V30 3688 N 335.208 -2.90119 0.167139 0
M  V30 3689 H 334.755 -2.40855 0.913596 0
M  V30 3690 H 334.713 -3.0686 -0.684435 0
M  V30 3691 N 338.485 -1.33259 -0.841409 0
M  V30 3692 C 339.433 -1.23279 -1.97244 0
M  V30 3693 C 340.427 -0.134706 -1.68864 0
M  V30 3694 O 341.633 -0.298501 -1.77508 0
M  V30 3695 H 338.008 -0.382497 -0.647457 0
M  V30 3696 H 339.979 -2.18906 -2.02787 0
M  V30 3697 C 338.728 -0.986268 -3.33419 0
M  V30 3698 H 338.051 -1.82347 -3.55794 0
M  V30 3699 H 339.491 -0.956728 -4.13065 0
M  V30 3700 C 337.95 0.310842 -3.35463 0
M  V30 3701 O 338.48 1.31838 -3.79449 0
M  V30 3702 N 336.686 0.337485 -2.88634 0
M  V30 3703 H 336.233 -0.482967 -2.53032 0
M  V30 3704 H 336.191 1.20518 -2.90384 0
M  V30 3705 N 339.963 1.05934 -1.16686 0
M  V30 3706 C 340.873 2.17014 -0.891183 0
M  V30 3707 C 341.889 1.73453 0.137907 0
M  V30 3708 O 343.065 2.01361 -0.039592 0
M  V30 3709 C 340.13 3.44384 -0.400099 0
M  V30 3710 C 339.191 4.02433 -1.49486 0
M  V30 3711 C 338.424 5.23723 -1.02711 0
M  V30 3712 O 338.647 5.7027 0.121716 0
M  V30 3713 O 337.581 5.7382 -1.81699 0
M  V30 3714 H 341.407 2.43113 -1.82015 0
M  V30 3715 H 338.992 1.15541 -0.947132 0
M  V30 3716 H 340.874 4.21189 -0.133392 0
M  V30 3717 H 339.549 3.19802 0.500817 0
M  V30 3718 H 338.456 3.27102 -1.81535 0
M  V30 3719 H 339.789 4.31317 -2.37121 0
M  V30 3720 N 341.441 0.965919 1.2453 0
M  V30 3721 C 342.69 0.622437 1.91856 0
M  V30 3722 C 343.003 -0.846006 1.76358 0
M  V30 3723 O 344.209 -1.29993 2.38357 0
M  V30 3724 C 342.665 1.0626 3.43856 0
M  V30 3725 C 342.273 2.55437 3.68043 0
M  V30 3726 C 344.017 0.792183 4.17043 0
M  V30 3727 C 341.924 2.93196 5.13605 0
M  V30 3728 H 340.854 0.229092 0.718354 0
M  V30 3729 H 343.505 1.17189 1.41206 0
M  V30 3730 H 341.887 0.441476 3.93531 0
M  V30 3731 H 343.061 3.22665 3.28974 0
M  V30 3732 H 341.376 2.8007 3.08139 0
M  V30 3733 H 343.973 1.05031 5.24283 0
M  V30 3734 H 344.316 -0.271584 4.15413 0
M  V30 3735 H 344.849 1.37419 3.73311 0
M  V30 3736 H 341.588 3.98636 5.20355 0
M  V30 3737 H 341.108 2.30651 5.53679 0
M  V30 3738 H 342.787 2.83004 5.81823 0
M  V30 3739 N 342.919 -1.39368 0.735821 0
M  V30 3740 C 343.852 -2.28155 0.0451175 0
M  V30 3741 C 344.83 -1.44433 -0.746852 0
M  V30 3742 O 346.014 -1.73823 -0.729237 0
M  V30 3743 C 343.141 -3.253 -0.943266 0
M  V30 3744 C 342.187 -4.25826 -0.239685 0
M  V30 3745 S 343.02 -5.25166 1.04693 0
M  V30 3746 C 344.176 -6.2587 0.0611639 0
M  V30 3747 H 344.409 -2.86388 0.79807 0
M  V30 3748 H 341.942 -1.45104 0.527653 0
M  V30 3749 H 343.9 -3.81789 -1.50824 0
M  V30 3750 H 342.561 -2.66085 -1.66906 0
M  V30 3751 H 341.754 -4.94229 -0.987596 0
M  V30 3752 H 341.356 -3.73141 0.253274 0
M  V30 3753 H 343.648 -6.73007 -0.778941 0
M  V30 3754 H 344.591 -7.04508 0.712362 0
M  V30 3755 H 344.999 -5.63639 -0.311602 0
M  V30 3756 N 344.397 -0.483516 -1.5 0
M  V30 3757 C 345.646 0.0689102 -2.01582 0
M  V30 3758 C 345.959 1.39655 -1.36952 0
M  V30 3759 O 347.165 2.03465 -1.79762 0
M  V30 3760 C 345.621 0.173302 -3.59483 0
M  V30 3761 C 345.229 -1.14665 -4.33077 0
M  V30 3762 C 346.973 0.677024 -4.19066 0
M  V30 3763 C 344.88 -1.00537 -5.82792 0
M  V30 3764 H 343.81 0.0295277 -0.753422 0
M  V30 3765 H 346.461 -0.620295 -1.72698 0
M  V30 3766 H 344.843 0.926569 -3.85007 0
M  V30 3767 H 346.017 -1.91184 -4.19268 0
M  V30 3768 H 344.332 -1.58244 -3.85159 0
M  V30 3769 H 346.929 0.799952 -5.28682 0
M  V30 3770 H 347.272 1.67151 -3.81269 0
M  V30 3771 H 347.805 -0.0192083 -3.97795 0
M  V30 3772 H 344.544 -1.9736 -6.25083 0
M  V30 3773 H 344.064 -0.280776 -5.99142 0
M  V30 3774 H 345.743 -0.677 -6.43448 0
M  V30 3775 N 345.875 1.56104 -0.216619 0
M  V30 3776 C 347.123 1.97781 0.415593 0
M  V30 3777 C 347.444 1.10536 1.60645 0
M  V30 3778 O 346.714 0.181303 1.95059 0
M  V30 3779 H 345.294 0.730415 0.156534 0
M  V30 3780 H 347.956 1.92445 -0.308366 0
M  V30 3781 H 347.052 3.03072 0.74525 0
M  V30 3782 N 347.353 -0.0568162 1.57498 0
M  V30 3783 C 348.599 -0.75422 1.88253 0
M  V30 3784 C 348.932 -1.76461 0.810865 0
M  V30 3785 O 348.207 -1.93691 -0.177259 0
M  V30 3786 C 348.49 -1.44878 3.2967 0
M  V30 3787 C 348.343 -0.453789 4.47505 0
M  V30 3788 C 349.662 -2.38994 3.69554 0
M  V30 3789 H 346.781 -0.272724 0.684683 0
M  V30 3790 H 349.423 -0.0172113 1.89992 0
M  V30 3791 H 347.573 -2.077 3.28318 0
M  V30 3792 H 349.245 0.170371 4.60985 0
M  V30 3793 H 347.488 0.229552 4.33192 0
M  V30 3794 H 348.159 -0.977699 5.43273 0
M  V30 3795 H 350.635 -1.86239 3.72095 0
M  V30 3796 H 349.511 -2.84587 4.69363 0
M  V30 3797 H 349.772 -3.24461 3.00296 0
M  V30 3798 N 348.832 -1.54138 -0.328536 0
M  V30 3799 C 349.765 -1.78014 -1.4278 0
M  V30 3800 C 350.743 -0.629889 -1.49904 0
M  V30 3801 O 351.927 -0.866763 -1.6739 0
M  V30 3802 C 349.054 -1.89225 -2.80912 0
M  V30 3803 C 348.1 -3.11483 -2.91343 0
M  V30 3804 S 348.933 -4.70201 -2.56263 0
M  V30 3805 C 350.089 -4.84312 -3.96476 0
M  V30 3806 H 350.322 -2.70974 -1.22313 0
M  V30 3807 H 347.855 -1.45197 -0.525084 0
M  V30 3808 H 349.813 -1.9637 -3.60485 0
M  V30 3809 H 348.474 -0.972518 -2.98665 0
M  V30 3810 H 347.667 -3.16046 -3.92595 0
M  V30 3811 H 347.269 -3.02642 -2.19736 0
M  V30 3812 H 349.561 -4.66643 -4.91173 0
M  V30 3813 H 350.504 -5.86411 -3.96898 0
M  V30 3814 H 350.912 -4.12652 -3.85199 0
M  V30 3815 N 350.31 0.590341 -1.46126 0
M  V30 3816 C 351.535 1.37991 -1.54833 0
M  V30 3817 C 351.96 1.87163 -0.187506 0
M  V30 3818 O 351.318 1.61133 0.831008 0
M  V30 3819 C 351.366 2.54867 -2.55098 0
M  V30 3820 O 350.47 3.56061 -2.08073 0
M  V30 3821 H 349.811 0.411265 -0.521303 0
M  V30 3822 H 352.341 0.716819 -1.91632 0
M  V30 3823 H 352.351 3.01886 -2.74461 0
M  V30 3824 H 351.026 2.18429 -3.53923 0
M  V30 3825 H 349.603 3.15574 -1.98664 0
M  V30 3826 N 351.788 1.33704 0.83433 0
M  V30 3827 C 353.036 1.25169 1.58673 0
M  V30 3828 C 353.357 -0.18127 1.94156 0
M  V30 3829 O 352.627 -1.11113 1.6134 0
M  V30 3830 H 351.207 0.4603 0.58833 0
M  V30 3831 H 353.869 1.67478 0.996847 0
M  V30 3832 H 352.965 1.84856 2.51465 0
M  V30 3833 N 353.266 -1.05314 1.17247 0
M  V30 3834 C 354.514 -1.77941 0.958194 0
M  V30 3835 C 354.835 -1.88089 -0.514556 0
M  V30 3836 O 354.105 -1.39676 -1.37359 0
M  V30 3837 H 352.685 -0.659116 0.351533 0
M  V30 3838 H 355.347 -1.27166 1.47699 0
M  V30 3839 H 354.443 -2.79663 1.38546 0
M  V30 3840 N 354.744 -0.972509 -1.24016 0
M  V30 3841 C 355.993 -0.632603 -1.91523 0
M  V30 3842 C 356.306 0.836641 -1.76804 0
M  V30 3843 O 357.512 1.28728 -2.39043 0
M  V30 3844 C 355.968 -1.08082 -3.43287 0
M  V30 3845 C 355.576 -2.57386 -3.66683 0
M  V30 3846 C 357.32 -0.814288 -4.16617 0
M  V30 3847 C 355.227 -2.95915 -5.12043 0
M  V30 3848 H 354.157 -0.232898 -0.717129 0
M  V30 3849 H 356.808 -1.17936 -1.40582 0
M  V30 3850 H 355.19 -0.462339 -3.93292 0
M  V30 3851 H 356.364 -3.24405 -3.27258 0
M  V30 3852 H 354.679 -2.81701 -3.06649 0
M  V30 3853 H 357.276 -1.0781 -5.23718 0
M  V30 3854 H 357.619 0.24955 -4.15551 0
M  V30 3855 H 358.152 -1.39397 -3.72577 0
M  V30 3856 H 354.891 -4.0139 -5.18234 0
M  V30 3857 H 354.411 -2.33584 -5.52448 0
M  V30 3858 H 356.09 -2.86086 -5.80314 0
M  V30 3859 N 356.222 1.38976 -0.743202 0
M  V30 3860 C 357.152 2.33171 -0.123873 0
M  V30 3861 C 358.133 1.54336 0.71516 0
M  V30 3862 O 359.318 1.82696 0.658467 0
M  V30 3863 C 356.448 3.38474 0.777978 0
M  V30 3864 C 355.402 4.27979 0.0424758 0
M  V30 3865 C 354.728 5.2405 1.06189 0
M  V30 3866 C 356.028 5.10155 -1.1198 0
M  V30 3867 H 357.722 2.85213 -0.910709 0
M  V30 3868 H 355.268 1.37133 -0.439388 0
M  V30 3869 H 357.221 4.03328 1.22084 0
M  V30 3870 H 355.945 2.84891 1.59702 0
M  V30 3871 H 354.604 3.64616 -0.380853 0
M  V30 3872 H 354.252 4.66758 1.87472 0
M  V30 3873 H 353.952 5.84785 0.574485 0
M  V30 3874 H 355.476 5.9178 1.50428 0
M  V30 3875 H 356.89 5.68307 -0.75499 0
M  V30 3876 H 355.287 5.80073 -1.53738 0
M  V30 3877 H 356.357 4.44504 -1.93764 0
M  V30 3878 N 357.7 0.491464 1.49741 0
M  V30 3879 C 358.949 -0.0582189 2.01616 0
M  V30 3880 C 359.262 -1.38927 1.3769 0
M  V30 3881 O 360.468 -2.02509 1.80838 0
M  V30 3882 C 358.924 -0.154235 3.59569 0
M  V30 3883 C 358.532 1.1696 4.32463 0
M  V30 3884 C 360.276 -0.65479 4.1942 0
M  V30 3885 C 358.183 1.03627 5.8225 0
M  V30 3886 H 357.113 -0.0255317 0.753568 0
M  V30 3887 H 359.764 0.629445 1.72367 0
M  V30 3888 H 358.146 -0.906138 3.85493 0
M  V30 3889 H 359.32 1.93405 4.18248 0
M  V30 3890 H 357.635 1.60285 3.84315 0
M  V30 3891 H 360.232 -0.771903 5.29099 0
M  V30 3892 H 360.575 -1.65127 3.8215 0
M  V30 3893 H 361.108 0.040304 3.9778 0
M  V30 3894 H 357.847 2.00672 6.24028 0
M  V30 3895 H 357.367 0.312546 5.98985 0
M  V30 3896 H 359.046 0.711114 6.4308 0
M  V30 3897 N 359.178 -1.55987 0.224894 0
M  V30 3898 C 360.408 -2.02489 -0.41007 0
M  V30 3899 C 360.816 -1.10391 -1.53657 0
M  V30 3900 O 360.159 -0.106458 -1.83391 0
M  V30 3901 C 360.221 -3.45319 -0.999757 0
M  V30 3902 C 359.885 -4.56999 -0.00827976 0
M  V30 3903 C 360.882 -5.13812 0.793314 0
M  V30 3904 C 358.567 -5.02176 0.111442 0
M  V30 3905 C 360.561 -6.14276 1.7013 0
M  V30 3906 C 358.248 -6.02477 1.02296 0
M  V30 3907 C 359.246 -6.58403 1.81643 0
M  V30 3908 O 358.934 -7.56751 2.71262 0
M  V30 3909 H 358.666 -0.667915 -0.104235 0
M  V30 3910 H 361.22 -2.0257 0.339782 0
M  V30 3911 H 359.45 -3.42318 -1.79876 0
M  V30 3912 H 361.139 -3.7545 -1.54248 0
M  V30 3913 H 361.905 -4.79756 0.711288 0
M  V30 3914 H 357.784 -4.58323 -0.49605 0
M  V30 3915 H 361.328 -6.57854 2.32107 0
M  V30 3916 H 357.225 -6.35954 1.10599 0
M  V30 3917 H 357.993 -7.74286 2.65375 0
M  V30 3918 N 360.656 0.0484629 -1.57525 0
M  V30 3919 C 361.603 1.05504 -2.05275 0
M  V30 3920 C 362.573 1.37084 -0.937927 0
M  V30 3921 O 363.758 1.47754 -1.2072 0
M  V30 3922 C 360.898 2.35676 -2.52093 0
M  V30 3923 C 360.011 2.10423 -3.77288 0
M  V30 3924 C 359.146 3.34327 -4.12794 0
M  V30 3925 C 358.185 3.04542 -5.30962 0
M  V30 3926 N 357.322 4.20841 -5.61994 0
M  V30 3927 H 362.162 0.640885 -2.91027 0
M  V30 3928 H 359.699 0.304854 -1.43906 0
M  V30 3929 H 361.657 3.11709 -2.77297 0
M  V30 3930 H 360.287 2.7485 -1.69285 0
M  V30 3931 H 359.339 1.24976 -3.59284 0
M  V30 3932 H 360.651 1.84438 -4.63448 0
M  V30 3933 H 359.805 4.1874 -4.39024 0
M  V30 3934 H 358.544 3.63408 -3.25247 0
M  V30 3935 H 357.549 2.18528 -5.04505 0
M  V30 3936 H 358.774 2.76758 -6.20146 0
M  V30 3937 H 356.72 4.4991 -4.77406 0
M  V30 3938 H 356.637 3.98212 -6.42622 0
M  V30 3939 H 357.905 5.06184 -5.92789 0
M  V30 3940 N 362.134 1.5431 0.320358 0
M  V30 3941 C 363.082 1.84647 1.4145 0
M  V30 3942 C 364.076 0.718624 1.53402 0
M  V30 3943 O 365.282 0.902335 1.5575 0
M  V30 3944 H 361.657 0.585349 0.472091 0
M  V30 3945 H 363.628 2.7614 1.13089 0
M  V30 3946 C 362.377 2.09341 2.77617 0
M  V30 3947 H 361.7 2.9559 2.69196 0
M  V30 3948 H 363.14 2.3452 3.53237 0
M  V30 3949 C 361.599 0.885939 3.25043 0
M  V30 3950 O 362.129 0.0967891 4.01583 0
M  V30 3951 N 360.335 0.696682 2.82125 0
M  V30 3952 H 359.882 1.34006 2.2 0
M  V30 3953 H 359.84 -0.109712 3.14209 0
M  V30 3954 N 363.613 -0.582584 1.46437 0
M  V30 3955 C 365.029 -0.905962 1.31394 0
M  V30 3956 C 365.229 -1.99468 0.285476 0
M  V30 3957 O 364.285 -2.50566 -0.311914 0
M  V30 3958 C 365.598 -1.3232 2.70022 0
M  V30 3959 C 367.146 -1.43604 2.78113 0
M  V30 3960 C 367.621 -1.88694 4.17323 0
M  V30 3961 N 369.112 -1.95887 4.19741 0
M  V30 3962 C 369.847 -2.32051 5.24347 0
M  V30 3963 N 369.343 -2.67006 6.39281 0
M  V30 3964 N 371.136 -2.32606 5.11713 0
M  V30 3965 H 363.287 0.1366 2.1196 0
M  V30 3966 H 365.55 -0.00155736 0.947999 0
M  V30 3967 H 365.256 -0.597242 3.46592 0
M  V30 3968 H 365.13 -2.28469 3.00136 0
M  V30 3969 H 367.517 -2.15286 2.01832 0
M  V30 3970 H 367.598 -0.457059 2.51684 0
M  V30 3971 H 367.242 -1.1759 4.941 0
M  V30 3972 H 367.172 -2.8755 4.4116 0
M  V30 3973 H 369.663 -1.71362 3.36814 0
M  V30 3974 H 369.976 -2.93554 7.14875 0
M  V30 3975 H 368.321 -2.64644 6.42642 0
M  V30 3976 H 371.512 -2.04721 4.2096 0
M  V30 3977 H 371.685 -2.60462 5.93349 0
M  V30 3978 N 365.091 -1.34144 -0.827227 0
M  V30 3979 C 366.337 -1.26446 -1.58554 0
M  V30 3980 C 366.67 0.1664 -1.93486 0
M  V30 3981 O 365.945 1.1107 -1.59667 0
M  V30 3982 C 366.228 -2.15111 -2.8879 0
M  V30 3983 C 366.081 -3.66712 -2.60465 0
M  V30 3984 C 367.4 -2.03311 -3.90324 0
M  V30 3985 H 364.519 -0.46067 -0.575284 0
M  V30 3986 H 367.161 -1.64356 -0.953269 0
M  V30 3987 H 365.311 -1.8291 -3.42748 0
M  V30 3988 H 366.983 -4.09259 -2.1285 0
M  V30 3989 H 365.226 -3.88014 -1.93978 0
M  V30 3990 H 365.897 -4.24112 -3.53317 0
M  V30 3991 H 368.373 -2.31574 -3.45706 0
M  V30 3992 H 367.249 -2.67582 -4.79261 0
M  V30 3993 H 367.51 -1.00879 -4.30437 0
M  V30 3994 N 366.569 1.04691 -1.17803 0
M  V30 3995 C 367.985 1.29963 -0.926379 0
M  V30 3996 C 368.185 1.97251 0.411635 0
M  V30 3997 O 367.241 2.24922 1.14744 0
M  V30 3998 C 368.554 2.16447 -2.08737 0
M  V30 3999 C 370.102 2.29814 -2.12496 0
M  V30 4000 C 370.577 3.19661 -3.27995 0
M  V30 4001 N 372.068 3.27247 -3.27816 0
M  V30 4002 C 372.803 3.96906 -4.13827 0
M  V30 4003 N 372.299 4.6895 -5.09959 0
M  V30 4004 N 374.092 3.93122 -4.01761 0
M  V30 4005 H 366.243 0.594182 -2.0392 0
M  V30 4006 H 368.506 0.324649 -0.890678 0
M  V30 4007 H 368.212 1.74304 -3.05469 0
M  V30 4008 H 368.086 3.17103 -2.04268 0
M  V30 4009 H 370.473 2.71196 -1.16347 0
M  V30 4010 H 370.554 1.2877 -2.21025 0
M  V30 4011 H 370.198 2.78991 -4.24413 0
M  V30 4012 H 370.128 4.20722 -3.16703 0
M  V30 4013 H 372.619 2.75921 -2.58217 0
M  V30 4014 H 372.932 5.19679 -5.71974 0
M  V30 4015 H 371.277 4.67875 -5.13924 0
M  V30 4016 H 374.468 3.35967 -3.2595 0
M  V30 4017 H 374.641 4.47139 -4.6901 0
M  V30 4018 N 368.047 0.979072 1.23499 0
M  V30 4019 C 368.98 0.463027 2.23453 0
M  V30 4020 C 369.958 -0.469128 1.55685 0
M  V30 4021 O 371.142 -0.397882 1.84253 0
M  V30 4022 C 368.269 -0.330308 3.37086 0
M  V30 4023 C 367.315 0.545795 4.22993 0
M  V30 4024 S 368.148 1.99285 4.97037 0
M  V30 4025 C 369.304 1.20862 6.1412 0
M  V30 4026 H 369.537 1.31005 2.6688 0
M  V30 4027 H 367.07 0.784965 1.32957 0
M  V30 4028 H 369.028 -0.782027 4.02982 0
M  V30 4029 H 367.689 -1.15244 2.92194 0
M  V30 4030 H 366.882 -0.0638928 5.03959 0
M  V30 4031 H 366.484 0.933705 3.62157 0
M  V30 4032 H 368.776 0.469284 6.75873 0
M  V30 4033 H 369.719 1.99307 6.79472 0
M  V30 4034 H 370.127 0.727992 5.59786 0
M  V30 4035 N 369.525 -1.3858 0.750561 0
M  V30 4036 C 370.473 -2.32339 0.110162 0
M  V30 4037 C 371.467 -1.53864 -0.708674 0
M  V30 4038 O 372.673 -1.69417 -0.608112 0
M  V30 4039 H 369.048 -0.751812 0.0168275 0
M  V30 4040 H 371.019 -2.83959 0.917053 0
M  V30 4041 C 369.768 -3.39043 -0.771067 0
M  V30 4042 H 369.091 -3.99517 -0.150374 0
M  V30 4043 H 370.531 -4.07061 -1.1865 0
M  V30 4044 C 368.99 -2.77365 -1.91234 0
M  V30 4045 O 369.52 -2.66434 -3.00626 0
M  V30 4046 N 367.726 -2.35219 -1.70646 0
M  V30 4047 H 367.273 -2.4431 -0.81673 0
M  V30 4048 H 367.231 -1.94294 -2.47178 0
M  V30 4049 N 371.003 -0.499398 -1.49478 0
M  V30 4050 C 372.231 0.0425456 -2.06856 0
M  V30 4051 C 372.646 1.30964 -1.35992 0
M  V30 4052 O 372.003 1.77172 -0.437762 0
M  V30 4053 C 372.054 0.301735 -3.60239 0
M  V30 4054 O 371.775 -0.915127 -4.28436 0
M  V30 4055 C 373.276 0.887499 -4.34325 0
M  V30 4056 H 370.496 -0.0197482 -0.670709 0
M  V30 4057 H 373.04 -0.696297 -1.92281 0
M  V30 4058 H 371.195 0.990556 -3.74522 0
M  V30 4059 H 371.609 -0.676993 -5.20113 0
M  V30 4060 H 373.083 1.01845 -5.42523 0
M  V30 4061 H 373.56 1.88488 -3.96698 0
M  V30 4062 H 374.166 0.236196 -4.24644 0
M  V30 4063 N 372.481 1.55866 -0.233164 0
M  V30 4064 C 373.728 1.98603 0.395374 0
M  V30 4065 C 374.056 1.12105 1.58942 0
M  V30 4066 O 373.311 0.168656 1.94972 0
M  V30 4067 C 373.61 3.46856 0.861724 0
M  V30 4068 C 373.276 4.50348 -0.223066 0
M  V30 4069 C 371.938 4.78371 -0.521038 0
M  V30 4070 C 374.29 5.12355 -0.956124 0
M  V30 4071 C 371.618 5.6568 -1.55638 0
M  V30 4072 C 373.97 6.00786 -1.98089 0
M  V30 4073 C 372.634 6.27148 -2.28565 0
M  V30 4074 H 371.904 0.726739 0.144677 0
M  V30 4075 H 374.551 1.88491 -0.338114 0
M  V30 4076 H 372.856 3.5423 1.67418 0
M  V30 4077 H 374.553 3.77302 1.35809 0
M  V30 4078 H 371.143 4.28596 0.0193234 0
M  V30 4079 H 375.327 4.90765 -0.739166 0
M  V30 4080 H 370.583 5.84365 -1.798 0
M  V30 4081 H 374.757 6.4788 -2.55391 0
M  V30 4082 H 372.384 6.94597 -3.08932 0
M  V30 4083 N 373.959 -0.0401083 1.57549 0
M  V30 4084 C 375.37 -0.588097 1.77196 0
M  V30 4085 C 375.721 -1.76209 0.862832 0
M  V30 4086 O 374.846 -2.16331 0.0548389 0
M  V30 4087 C 375.441 -1.07363 3.21339 0
M  V30 4088 C 374 -1.56723 3.42221 0
M  V30 4089 C 373.147 -0.50041 2.72747 0
M  V30 4090 H 376.098 0.186119 1.57605 0
M  V30 4091 H 376.119 -1.94143 3.27244 0
M  V30 4092 H 375.631 -0.218975 3.87482 0
M  V30 4093 H 373.732 -2.4441 2.81237 0
M  V30 4094 H 373.845 -1.62234 4.50796 0
M  V30 4095 H 372.209 -0.952894 2.36203 0
M  V30 4096 H 372.992 0.344599 3.41566 0
M  V30 4097 N 375.437 -1.54477 -0.31217 0
M  V30 4098 C 376.683 -1.74417 -1.04644 0
M  V30 4099 C 377.038 -0.517641 -1.85306 0
M  V30 4100 O 376.331 0.489973 -1.85229 0
M  V30 4101 C 376.525 -2.967 -1.99258 0
M  V30 4102 C 376.354 -4.31128 -1.27901 0
M  V30 4103 C 375.124 -4.95087 -1.01079 0
M  V30 4104 C 377.322 -5.09662 -0.689119 0
M  V30 4105 N 375.304 -6.13322 -0.266323 0
M  V30 4106 C 376.675 -6.19952 -0.0768523 0
M  V30 4107 C 378.73 -4.94355 -0.593061 0
M  V30 4108 C 377.433 -7.16604 0.622165 0
M  V30 4109 C 379.459 -5.91328 0.0922792 0
M  V30 4110 C 378.821 -7.00978 0.693443 0
M  V30 4111 H 374.92 -0.69094 -0.366231 0
M  V30 4112 H 377.504 -1.91946 -0.326319 0
M  V30 4113 H 375.675 -2.80616 -2.68532 0
M  V30 4114 H 377.407 -3.05216 -2.65755 0
M  V30 4115 H 374.162 -4.55235 -1.30607 0
M  V30 4116 H 374.586 -6.76937 0.0920973 0
M  V30 4117 H 379.228 -4.09719 -1.04355 0
M  V30 4118 H 376.946 -8.0079 1.08445 0
M  V30 4119 H 380.532 -5.81562 0.166396 0
M  V30 4120 H 379.412 -7.74725 1.21533 0
M  V30 4121 N 376.915 0.57481 -1.46744 0
M  V30 4122 C 377.845 1.69337 -1.60771 0
M  V30 4123 C 378.826 1.63825 -0.457736 0
M  V30 4124 O 380.011 1.8172 -0.684947 0
M  V30 4125 C 377.141 3.0798 -1.60517 0
M  V30 4126 C 376.095 3.28327 -2.74564 0
M  V30 4127 C 375.421 4.67578 -2.59373 0
M  V30 4128 C 376.721 3.15398 -4.16319 0
M  V30 4129 H 378.415 1.57853 -2.54407 0
M  V30 4130 H 375.961 0.75799 -1.22436 0
M  V30 4131 H 377.914 3.86061 -1.68923 0
M  V30 4132 H 376.638 3.20381 -0.634305 0
M  V30 4133 H 375.297 2.52649 -2.65639 0
M  V30 4134 H 374.945 4.76755 -1.60353 0
M  V30 4135 H 374.645 4.82144 -3.35873 0
M  V30 4136 H 376.169 5.47817 -2.69682 0
M  V30 4137 H 377.583 3.83315 -4.26313 0
M  V30 4138 H 375.98 3.41482 -4.93468 0
M  V30 4139 H 377.05 2.12372 -4.3592 0
M  V30 4140 N 378.394 1.34581 0.820102 0
M  V30 4141 C 379.341 1.2639 1.93117 0
M  V30 4142 C 380.311 0.138554 1.65521 0
M  V30 4143 O 381.496 0.320004 1.88097 0
M  V30 4144 C 378.636 1.02812 3.29429 0
M  V30 4145 C 377.749 2.24146 3.693 0
M  V30 4146 C 376.884 1.93829 4.94574 0
M  V30 4147 C 375.923 3.1129 5.27034 0
M  V30 4148 N 375.06 2.80838 6.43486 0
M  V30 4149 H 379.9 2.21408 1.99455 0
M  V30 4150 H 377.437 1.10077 0.975784 0
M  V30 4151 H 379.395 0.871788 4.0799 0
M  V30 4152 H 378.025 0.114612 3.22596 0
M  V30 4153 H 377.077 2.50691 2.86109 0
M  V30 4154 H 378.389 3.11899 3.89257 0
M  V30 4155 H 377.543 1.74948 5.80929 0
M  V30 4156 H 376.282 1.03341 4.76626 0
M  V30 4157 H 375.287 3.30764 4.39175 0
M  V30 4158 H 376.512 4.02561 5.4692 0
M  V30 4159 H 374.458 1.92929 6.26988 0
M  V30 4160 H 374.375 3.62123 6.63629 0
M  V30 4161 H 375.643 2.65467 7.32903 0
M  V30 4162 N 379.872 -1.04064 1.18357 0
M  V30 4163 C 381.121 -1.76662 0.973313 0
M  V30 4164 C 381.434 -1.89154 -0.497991 0
M  V30 4165 O 382.64 -2.58606 -0.826762 0
M  V30 4166 C 381.096 -3.17624 1.69242 0
M  V30 4167 C 380.704 -3.13225 3.20303 0
M  V30 4168 C 382.448 -3.946 1.56497 0
M  V30 4169 C 380.355 -4.49046 3.84853 0
M  V30 4170 H 379.285 -0.662214 0.36054 0
M  V30 4171 H 381.936 -1.16553 1.41731 0
M  V30 4172 H 380.318 -3.78129 1.1762 0
M  V30 4173 H 381.492 -2.62172 3.78949 0
M  V30 4174 H 379.807 -2.49749 3.33189 0
M  V30 4175 H 382.404 -4.95042 2.02084 0
M  V30 4176 H 382.747 -4.13074 0.517243 0
M  V30 4177 H 383.28 -3.4067 2.05399 0
M  V30 4178 H 380.019 -4.35777 4.89672 0
M  V30 4179 H 379.539 -5.00203 3.30994 0
M  V30 4180 H 381.218 -5.17961 3.87718 0
M  V30 4181 N 381.35 -0.985608 -1.22978 0
M  V30 4182 C 382.596 -0.65836 -1.91816 0
M  V30 4183 C 382.929 0.806692 -1.76653 0
M  V30 4184 O 382.204 1.58252 -1.13078 0
M  V30 4185 C 382.487 -1.056 -3.44268 0
M  V30 4186 C 382.34 -2.57906 -3.68516 0
M  V30 4187 C 383.659 -0.603781 -4.35939 0
M  V30 4188 H 380.778 -0.24065 -0.696604 0
M  V30 4189 H 383.42 -1.22783 -1.44998 0
M  V30 4190 H 381.57 -0.571445 -3.84274 0
M  V30 4191 H 383.242 -3.13976 -3.3796 0
M  V30 4192 H 381.485 -3.00305 -3.13048 0
M  V30 4193 H 382.156 -2.80779 -4.75255 0
M  V30 4194 H 384.632 -1.01987 -4.03408 0
M  V30 4195 H 383.508 -0.910383 -5.41298 0
M  V30 4196 H 383.769 0.495761 -4.39312 0
M  V30 4197 N 382.828 1.3818 -0.7579 0
M  V30 4198 C 383.775 2.30416 -0.133057 0
M  V30 4199 C 384.745 1.50398 0.704957 0
M  V30 4200 O 385.93 1.79014 0.660192 0
M  V30 4201 C 383.07 3.36834 0.750813 0
M  V30 4202 C 382.183 4.31879 -0.102297 0
M  V30 4203 C 381.318 5.25368 0.784979 0
M  V30 4204 C 380.357 6.12058 -0.0715046 0
M  V30 4205 N 379.494 6.97832 0.772972 0
M  V30 4206 H 384.334 2.83274 -0.925186 0
M  V30 4207 H 381.871 1.39461 -0.467866 0
M  V30 4208 H 383.829 3.97145 1.27794 0
M  V30 4209 H 382.459 2.85374 1.50868 0
M  V30 4210 H 381.511 3.72991 -0.747095 0
M  V30 4211 H 382.823 4.92921 -0.763552 0
M  V30 4212 H 381.977 5.90818 1.37911 0
M  V30 4213 H 380.716 4.64703 1.47996 0
M  V30 4214 H 379.721 5.456 -0.678272 0
M  V30 4215 H 380.946 6.74793 -0.763606 0
M  V30 4216 H 378.892 6.3971 1.45282 0
M  V30 4217 H 378.809 7.55812 0.168709 0
M  V30 4218 H 380.077 7.67687 1.35194 0
M  V30 4219 N 384.306 0.507319 1.49211 0
M  V30 4220 C 385.555 -0.0368315 2.01666 0
M  V30 4221 C 385.868 -1.37459 1.39156 0
M  V30 4222 O 387.074 -2.00579 1.82976 0
M  V30 4223 C 385.53 -0.116089 3.59713 0
M  V30 4224 C 385.138 1.2154 4.31198 0
M  V30 4225 C 386.882 -0.610268 4.2009 0
M  V30 4226 C 384.789 1.09796 5.81119 0
M  V30 4227 H 383.719 -0.0175376 0.753796 0
M  V30 4228 H 386.37 0.647691 1.71689 0
M  V30 4229 H 384.752 -0.8652 3.86433 0
M  V30 4230 H 385.926 1.9783 4.16173 0
M  V30 4231 H 384.241 1.64352 3.82593 0
M  V30 4232 H 386.838 -0.715742 5.29888 0
M  V30 4233 H 387.181 -1.61064 3.8388 0
M  V30 4234 H 387.714 0.0824916 3.97714 0
M  V30 4235 H 384.453 2.0728 6.21864 0
M  V30 4236 H 383.973 0.376058 5.9862 0
M  V30 4237 H 385.652 0.779281 6.4229 0
M  V30 4238 N 385.784 -1.5574 0.241426 0
M  V30 4239 C 387.009 -2.0366 -0.392111 0
M  V30 4240 C 387.434 -1.11969 -1.51144 0
M  V30 4241 O 386.792 -0.111594 -1.80956 0
M  V30 4242 C 386.84 -3.49638 -0.882371 0
M  V30 4243 O 385.944 -3.6108 -1.99235 0
M  V30 4244 H 385.285 -0.658379 -0.0862122 0
M  V30 4245 H 387.815 -2.01302 0.365881 0
M  V30 4246 H 387.825 -3.90351 -1.18702 0
M  V30 4247 H 386.5 -4.15852 -0.0632361 0
M  V30 4248 H 385.077 -3.32262 -1.69282 0
M  V30 4249 N 387.262 0.0317525 -1.57568 0
M  V30 4250 C 388.509 0.723104 -1.89149 0
M  V30 4251 C 388.837 1.75504 -0.838377 0
M  V30 4252 O 388.092 1.95037 0.160982 0
M  V30 4253 C 388.391 1.43167 -3.27472 0
M  V30 4254 C 388.057 0.535972 -4.47703 0
M  V30 4255 C 386.719 0.289262 -4.8033 0
M  V30 4256 C 389.071 -0.0826125 -5.21135 0
M  V30 4257 C 386.399 -0.584853 -5.83778 0
M  V30 4258 C 388.751 -0.944414 -6.25511 0
M  V30 4259 C 387.415 -1.20061 -6.56614 0
M  V30 4260 H 386.685 0.264602 -0.692146 0
M  V30 4261 H 389.332 -0.0169496 -1.91492 0
M  V30 4262 H 387.637 2.24497 -3.21105 0
M  V30 4263 H 389.334 1.97209 -3.49155 0
M  V30 4264 H 385.924 0.738414 -4.22191 0
M  V30 4265 H 390.108 0.0950302 -4.96209 0
M  V30 4266 H 385.364 -0.79168 -6.06253 0
M  V30 4267 H 389.538 -1.43026 -6.81554 0
M  V30 4268 H 387.165 -1.87967 -7.36595 0
M  V30 4269 N 388.74 1.54641 0.303973 0
M  V30 4270 C 389.687 1.85386 1.37479 0
M  V30 4271 C 390.657 0.702528 1.50512 0
M  V30 4272 O 391.842 0.950867 1.65418 0
M  V30 4273 C 388.982 2.10413 2.73533 0
M  V30 4274 C 388.095 3.38049 2.68974 0
M  V30 4275 C 387.23 3.52934 3.97002 0
M  V30 4276 C 386.269 4.74373 3.86829 0
M  V30 4277 N 385.406 4.8608 5.06627 0
M  V30 4278 H 390.246 2.76732 1.1056 0
M  V30 4279 H 387.783 1.37034 0.534805 0
M  V30 4280 H 389.741 2.22919 3.52652 0
M  V30 4281 H 388.371 1.22338 2.98719 0
M  V30 4282 H 387.423 3.3418 1.81736 0
M  V30 4283 H 388.735 4.27288 2.57346 0
M  V30 4284 H 387.889 3.65088 4.84557 0
M  V30 4285 H 386.628 2.61824 4.1146 0
M  V30 4286 H 385.633 4.62255 2.97658 0
M  V30 4287 H 386.858 5.66888 3.73918 0
M  V30 4288 H 384.804 3.97891 5.21554 0
M  V30 4289 H 384.721 5.69315 4.9741 0
M  V30 4290 H 385.989 5.02587 5.95841 0
M  V30 4291 N 390.218 -0.567019 1.47046 0
M  V30 4292 C 391.458 -1.3355 1.54738 0
M  V30 4293 C 391.822 -1.90947 0.200772 0
M  V30 4294 O 393.023 -2.68367 0.152489 0
M  V30 4295 C 391.294 -2.42317 2.62712 0
M  V30 4296 S 392.853 -3.29383 2.89918 0
M  V30 4297 H 389.671 -0.454788 0.546525 0
M  V30 4298 H 392.273 -0.650191 1.84371 0
M  V30 4299 H 390.977 -1.98568 3.59164 0
M  V30 4300 H 390.508 -3.15601 2.34861 0
M  V30 4301 H 392.523 -4.41548 2.26384 0
M  V30 4302 N 391.696 -1.35014 -0.812953 0
M  V30 4303 C 392.643 -1.27412 -1.92444 0
M  V30 4304 C 393.613 -0.14733 -1.65445 0
M  V30 4305 O 394.798 -0.329974 -1.87925 0
M  V30 4306 C 391.938 -1.04558 -3.28879 0
M  V30 4307 C 391.051 -2.26101 -3.68106 0
M  V30 4308 C 390.186 -1.96449 -4.9354 0
M  V30 4309 C 389.225 -3.14081 -5.25376 0
M  V30 4310 N 388.362 -2.84246 -6.41988 0
M  V30 4311 H 393.202 -2.22463 -1.98278 0
M  V30 4312 H 390.739 -1.10593 -0.969933 0
M  V30 4313 H 392.697 -0.893413 -4.07522 0
M  V30 4314 H 391.327 -0.131719 -3.22531 0
M  V30 4315 H 390.379 -2.52204 -2.84775 0
M  V30 4316 H 391.691 -3.13959 -3.87597 0
M  V30 4317 H 390.845 -1.78026 -5.79993 0
M  V30 4318 H 389.584 -1.05867 -4.76071 0
M  V30 4319 H 388.589 -3.33089 -4.37415 0
M  V30 4320 H 389.814 -4.05455 -5.44778 0
M  V30 4321 H 387.76 -1.96252 -6.25956 0
M  V30 4322 H 387.677 -3.65637 -6.61699 0
M  V30 4323 H 388.945 -2.6935 -7.31485 0
M  V30 4324 N 393.175 1.03435 -1.18907 0
M  V30 4325 C 394.107 2.1165 -0.879595 0
M  V30 4326 C 395.12 1.62316 0.125439 0
M  V30 4327 O 396.309 1.78201 -0.103245 0
M  V30 4328 C 393.409 3.37622 -0.294042 0
M  V30 4329 C 392.582 4.16166 -1.34629 0
M  V30 4330 C 391.641 5.20457 -0.775274 0
M  V30 4331 O 390.667 5.50379 -1.4516 0
M  V30 4332 N 391.869 5.78949 0.424126 0
M  V30 4333 H 394.634 2.38791 -1.81105 0
M  V30 4334 H 392.195 1.19681 -1.09032 0
M  V30 4335 H 394.187 4.04572 0.101679 0
M  V30 4336 H 392.757 3.07873 0.541575 0
M  V30 4337 H 391.977 3.44444 -1.91707 0
M  V30 4338 H 393.265 4.65432 -2.05549 0
M  V30 4339 H 392.663 5.56948 0.991209 0
M  V30 4340 H 391.22 6.47334 0.761691 0
M  V30 4341 N 394.653 0.992116 1.22453 0
M  V30 4342 C 395.9 0.667534 1.91181 0
M  V30 4343 C 396.228 -0.800317 1.77271 0
M  V30 4344 O 395.483 -1.59421 1.13505 0
M  V30 4345 C 395.782 1.01832 3.42586 0
M  V30 4346 C 395.448 2.47831 3.76684 0
M  V30 4347 C 394.11 2.87729 3.85701 0
M  V30 4348 C 396.462 3.42466 3.92895 0
M  V30 4349 C 393.79 4.21252 4.08367 0
M  V30 4350 C 396.142 4.75648 4.17064 0
M  V30 4351 C 394.806 5.15288 4.24305 0
M  V30 4352 H 394.076 0.244268 0.699581 0
M  V30 4353 H 396.723 1.24816 1.45235 0
M  V30 4354 H 395.028 0.355769 3.90181 0
M  V30 4355 H 396.725 0.745228 3.94014 0
M  V30 4356 H 393.315 2.15905 3.70247 0
M  V30 4357 H 397.499 3.12814 3.85307 0
M  V30 4358 H 392.755 4.51554 4.122 0
M  V30 4359 H 396.929 5.48924 4.2855 0
M  V30 4360 H 394.556 6.18769 4.41621 0
M  V30 4361 N 396.131 -1.37776 0.765217 0
M  V30 4362 C 397.378 -1.99849 0.326588 0
M  V30 4363 C 397.706 -1.60746 -1.09504 0
M  V30 4364 O 396.961 -0.84202 -1.76659 0
M  V30 4365 C 397.26 -3.5504 0.410053 0
M  V30 4366 C 396.926 -4.13891 1.78899 0
M  V30 4367 C 395.588 -4.29678 2.16635 0
M  V30 4368 C 397.94 -4.46236 2.69301 0
M  V30 4369 C 395.268 -4.7511 3.44221 0
M  V30 4370 C 397.62 -4.93089 3.9629 0
M  V30 4371 C 396.284 -5.07082 4.34078 0
M  V30 4372 H 395.554 -0.7313 0.119507 0
M  V30 4373 H 398.201 -1.64645 0.977968 0
M  V30 4374 H 396.506 -3.90451 -0.324878 0
M  V30 4375 H 398.203 -4.00966 0.0520699 0
M  V30 4376 H 394.793 -4.02026 1.48569 0
M  V30 4377 H 398.977 -4.3363 2.41409 0
M  V30 4378 H 394.233 -4.84129 3.73402 0
M  V30 4379 H 398.407 -5.17084 4.66472 0
M  V30 4380 H 396.034 -5.42046 5.33001 0
M  V30 4381 N 397.609 -0.515225 -1.4894 0
M  V30 4382 C 398.858 0.0261361 -2.01683 0
M  V30 4383 C 399.171 1.36719 -1.39883 0
M  V30 4384 O 400.377 1.99606 -1.84037 0
M  V30 4385 C 398.833 0.0970111 -3.59769 0
M  V30 4386 C 398.441 -1.23825 -4.30548 0
M  V30 4387 C 400.185 0.587981 -4.20408 0
M  V30 4388 C 398.092 -1.12877 -5.80528 0
M  V30 4389 H 397.022 0.0135398 -0.753878 0
M  V30 4390 H 399.673 -0.656787 -1.71343 0
M  V30 4391 H 398.055 0.844694 -3.86886 0
M  V30 4392 H 399.229 -2.00034 -4.15118 0
M  V30 4393 H 397.544 -1.66379 -3.81716 0
M  V30 4394 H 400.141 0.68763 -5.3026 0
M  V30 4395 H 400.484 1.59026 -3.84729 0
M  V30 4396 H 401.017 -0.103582 -3.97665 0
M  V30 4397 H 397.756 -2.10575 -6.20756 0
M  V30 4398 H 397.276 -0.407799 -5.98412 0
M  V30 4399 H 398.955 -0.813332 -6.41868 0
M  V30 4400 N 399.087 1.5561 -0.249682 0
M  V30 4401 C 400.019 2.18834 0.681496 0
M  V30 4402 C 401.032 1.16546 1.1367 0
M  V30 4403 O 402.221 1.43397 1.06299 0
M  V30 4404 C 399.321 2.77992 1.9384 0
M  V30 4405 C 398.494 4.05725 1.63419 0
M  V30 4406 C 397.553 4.49174 2.74096 0
M  V30 4407 O 396.579 5.15492 2.41364 0
M  V30 4408 N 397.781 4.17191 4.03649 0
M  V30 4409 H 400.546 2.9937 0.140514 0
M  V30 4410 H 398.107 1.6175 -0.0697541 0
M  V30 4411 H 400.099 3.04015 2.67127 0
M  V30 4412 H 398.669 2.01596 2.38909 0
M  V30 4413 H 397.889 3.87261 0.736358 0
M  V30 4414 H 399.177 4.88999 1.40562 0
M  V30 4415 H 398.575 3.63955 4.33074 0
M  V30 4416 H 397.132 4.48043 4.73393 0
M  V30 4417 N 400.565 -0.0233959 1.57583 0
M  V30 4418 C 401.495 -1.02162 2.09965 0
M  V30 4419 C 402.476 -1.3735 1.00344 0
M  V30 4420 O 403.661 -1.46135 1.27899 0
M  V30 4421 C 400.791 -2.32081 2.58371 0
M  V30 4422 C 399.745 -2.1112 3.72307 0
M  V30 4423 C 399.071 -3.46848 4.06941 0
M  V30 4424 C 400.371 -1.49276 5.00514 0
M  V30 4425 H 402.065 -0.585557 2.93618 0
M  V30 4426 H 399.611 -0.280218 1.41247 0
M  V30 4427 H 401.564 -3.02249 2.93639 0
M  V30 4428 H 400.288 -2.77758 1.71808 0
M  V30 4429 H 398.947 -1.43384 3.37397 0
M  V30 4430 H 398.595 -3.90184 3.17436 0
M  V30 4431 H 398.295 -3.33646 4.83688 0
M  V30 4432 H 399.819 -4.18369 4.44747 0
M  V30 4433 H 401.233 -2.09368 5.33702 0
M  V30 4434 H 399.63 -1.46632 5.8191 0
M  V30 4435 H 400.7 -0.459217 4.82721 0
M  V30 4436 N 402.043 -1.548 -0.295768 0
M  V30 4437 C 403.459 -1.4613 -0.641722 0
M  V30 4438 C 403.659 -0.656771 -1.90496 0
M  V30 4439 O 402.715 -0.166547 -2.5195 0
M  V30 4440 C 404.028 -2.90141 -0.789852 0
M  V30 4441 C 405.576 -3.00216 -0.885396 0
M  V30 4442 C 406.051 -4.45434 -1.06548 0
M  V30 4443 N 407.542 -4.49166 -1.13156 0
M  V30 4444 C 408.277 -5.58717 -1.28929 0
M  V30 4445 N 407.773 -6.78182 -1.41567 0
M  V30 4446 N 409.566 -5.46415 -1.31859 0
M  V30 4447 H 401.717 -2.05574 0.534147 0
M  V30 4448 H 403.98 -0.931259 0.177372 0
M  V30 4449 H 403.686 -3.51635 0.0675598 0
M  V30 4450 H 403.56 -3.37859 -1.67724 0
M  V30 4451 H 405.947 -2.38833 -1.73329 0
M  V30 4452 H 406.028 -2.55787 0.0261185 0
M  V30 4453 H 405.672 -5.07413 -0.222335 0
M  V30 4454 H 405.602 -4.87499 -1.9913 0
M  V30 4455 H 408.093 -3.631 -1.04721 0
M  V30 4456 H 408.406 -7.57428 -1.53372 0
M  V30 4457 H 406.751 -6.81037 -1.38613 0
M  V30 4458 H 409.942 -4.5203 -1.21601 0
M  V30 4459 H 410.115 -6.31841 -1.43808 0
M  V30 4460 N 403.521 0.559213 -1.47345 0
M  V30 4461 C 404.468 1.66645 -1.59682 0
M  V30 4462 C 405.438 1.60168 -0.43994 0
M  V30 4463 O 406.623 1.79031 -0.659736 0
M  V30 4464 C 403.763 3.04969 -1.61518 0
M  V30 4465 C 402.876 3.21897 -2.88108 0
M  V30 4466 C 402.011 4.50608 -2.81294 0
M  V30 4467 C 401.05 4.60961 -4.02717 0
M  V30 4468 N 400.187 5.81024 -3.94151 0
M  V30 4469 H 405.027 1.55439 -2.54249 0
M  V30 4470 H 402.564 0.757219 -1.26113 0
M  V30 4471 H 404.522 3.85064 -1.60566 0
M  V30 4472 H 403.152 3.15015 -0.704645 0
M  V30 4473 H 402.204 2.35248 -2.98936 0
M  V30 4474 H 403.516 3.25412 -3.78032 0
M  V30 4475 H 402.67 5.3896 -2.7858 0
M  V30 4476 H 401.409 4.49568 -1.89049 0
M  V30 4477 H 400.414 3.71021 -4.05738 0
M  V30 4478 H 401.639 4.63761 -4.96087 0
M  V30 4479 H 399.585 5.80938 -3.04708 0
M  V30 4480 H 399.502 5.85909 -4.77752 0
M  V30 4481 H 400.77 6.71744 -3.9545 0
M  V30 4482 N 404.999 1.35443 0.805782 0
M  V30 4483 C 405.909 1.30546 1.94923 0
M  V30 4484 C 406.925 0.210233 1.72725 0
M  V30 4485 O 408.101 0.43975 1.9654 0
M  V30 4486 C 405.166 1.07782 3.29521 0
M  V30 4487 C 404.227 2.26625 3.64609 0
M  V30 4488 C 403.46 2.04938 4.92784 0
M  V30 4489 O 403.683 1.01624 5.61274 0
M  V30 4490 O 402.617 2.9232 5.26149 0
M  V30 4491 H 406.443 2.26779 2.02002 0
M  V30 4492 H 404.028 1.15823 0.943682 0
M  V30 4493 H 405.91 0.969392 4.10098 0
M  V30 4494 H 404.585 0.146003 3.23371 0
M  V30 4495 H 403.492 2.43033 2.84404 0
M  V30 4496 H 404.825 3.18257 3.75464 0
M  V30 4497 N 406.477 -1.02803 1.19454 0
M  V30 4498 C 407.407 -2.12999 0.956758 0
M  V30 4499 C 408.388 -1.69743 -0.110188 0
M  V30 4500 O 409.573 -1.94148 0.0450038 0
M  V30 4501 C 406.703 -3.43746 0.495553 0
M  V30 4502 C 405.657 -4.00688 1.50443 0
M  V30 4503 C 404.983 -5.27067 0.900275 0
M  V30 4504 C 406.283 -4.35397 2.8849 0
M  V30 4505 H 407.977 -2.33148 1.87836 0
M  V30 4506 H 405.523 -1.12045 0.904539 0
M  V30 4507 H 407.476 -4.2021 0.316493 0
M  V30 4508 H 406.2 -3.23321 -0.461646 0
M  V30 4509 H 404.859 -3.2632 1.67065 0
M  V30 4510 H 404.507 -5.02959 -0.064503 0
M  V30 4511 H 404.207 -5.66127 1.57397 0
M  V30 4512 H 405.731 -6.06196 0.73203 0
M  V30 4513 H 407.145 -5.02795 2.75446 0
M  V30 4514 H 405.542 -4.85541 3.52661 0
M  V30 4515 H 406.612 -3.44662 3.41081 0
M  V30 4516 N 407.956 -0.998596 -1.21925 0
M  V30 4517 C 408.906 -0.524743 -2.21879 0
M  V30 4518 C 409.89 0.41017 -1.55584 0
M  V30 4519 O 411.082 0.236063 -1.75419 0
M  V30 4520 C 408.211 0.153636 -3.42956 0
M  V30 4521 C 407.297 -0.801918 -4.16449 0
M  V30 4522 N 407.688 -1.95211 -4.66611 0
M  V30 4523 C 405.986 -0.618972 -4.41684 0
M  V30 4524 C 406.687 -2.55234 -5.22715 0
M  V30 4525 N 405.663 -1.83451 -5.1171 0
M  V30 4526 H 409.465 -1.40189 -2.58311 0
M  V30 4527 H 406.979 -0.86159 -1.3766 0
M  V30 4528 H 408.976 0.510534 -4.13762 0
M  V30 4529 H 407.636 1.02684 -3.08036 0
M  V30 4530 H 408.647 -2.33271 -4.62391 0
M  V30 4531 H 405.324 0.207694 -4.16983 0
M  V30 4532 H 406.714 -3.52471 -5.72026 0
M  V30 4533 N 409.434 1.37368 -0.772513 0
M  V30 4534 C 410.344 2.34053 -0.160081 0
M  V30 4535 C 411.36 1.60216 0.678728 0
M  V30 4536 O 412.536 1.92303 0.59847 0
M  V30 4537 C 409.601 3.3939 0.708182 0
M  V30 4538 C 408.662 4.29048 -0.147172 0
M  V30 4539 C 407.895 5.29354 0.679744 0
M  V30 4540 O 408.118 5.3723 1.91678 0
M  V30 4541 O 407.052 6.01835 0.0885444 0
M  V30 4542 H 410.878 2.88159 -0.959053 0
M  V30 4543 H 408.463 1.39543 -0.533685 0
M  V30 4544 H 410.345 4.03839 1.20384 0
M  V30 4545 H 409.02 2.8761 1.48533 0
M  V30 4546 H 407.927 3.67697 -0.689205 0
M  V30 4547 H 409.26 4.84134 -0.887423 0
M  V30 4548 N 410.912 0.523116 1.48665 0
M  V30 4549 C 412.137 -0.0117284 2.07397 0
M  V30 4550 C 412.562 -1.28031 1.37803 0
M  V30 4551 O 411.92 -1.75836 0.441762 0
M  V30 4552 C 411.968 -0.225786 3.59892 0
M  V30 4553 O 411.072 -1.29592 3.91509 0
M  V30 4554 H 410.413 0.0360673 0.66302 0
M  V30 4555 H 412.943 0.729066 1.9117 0
M  V30 4556 H 412.953 -0.450552 4.05505 0
M  V30 4557 H 411.628 0.700944 4.09951 0
M  V30 4558 H 410.205 -1.05436 3.57684 0
M  V30 4559 N 412.39 -1.55475 0.257931 0
M  V30 4560 C 413.806 -1.59307 -0.0966563 0
M  V30 4561 C 414.006 -1.27514 -1.5602 0
M  V30 4562 O 413.062 -1.02774 -2.30637 0
M  V30 4563 C 414.375 -2.99552 0.262481 0
M  V30 4564 C 415.923 -3.1231 0.207683 0
M  V30 4565 C 416.398 -4.54793 0.541012 0
M  V30 4566 N 417.889 -4.6058 0.491921 0
M  V30 4567 C 418.624 -5.68825 0.722857 0
M  V30 4568 N 418.12 -6.85287 1.0175 0
M  V30 4569 N 419.913 -5.58296 0.652815 0
M  V30 4570 H 412.064 -1.74409 1.21224 0
M  V30 4571 H 414.327 -0.812424 0.48854 0
M  V30 4572 H 414.033 -3.27593 1.27967 0
M  V30 4573 H 413.907 -3.75019 -0.40508 0
M  V30 4574 H 416.294 -2.84044 -0.800195 0
M  V30 4575 H 416.375 -2.39095 0.909255 0
M  V30 4576 H 416.019 -4.83783 1.5465 0
M  V30 4577 H 415.949 -5.26285 -0.18216 0
M  V30 4578 H 418.44 -3.7691 0.273366 0
M  V30 4579 H 418.753 -7.63725 1.18084 0
M  V30 4580 H 417.098 -6.86945 1.05509 0
M  V30 4581 H 420.289 -4.66189 0.422592 0
M  V30 4582 H 420.462 -6.42582 0.836182 0
M  V30 4583 N 413.868 0.0150385 -1.57593 0
M  V30 4584 C 414.778 1.02791 -2.10882 0
M  V30 4585 C 415.794 1.38702 -1.0506 0
M  V30 4586 O 416.97 1.47739 -1.36877 0
M  V30 4587 C 414.035 2.30568 -2.58919 0
M  V30 4588 C 413.096 2.01108 -3.79281 0
M  V30 4589 C 412.329 3.22794 -4.25018 0
M  V30 4590 O 412.552 4.33959 -3.70183 0
M  V30 4591 O 411.486 3.07672 -5.17322 0
M  V30 4592 H 415.312 0.604973 -2.97613 0
M  V30 4593 H 412.897 0.23292 -1.47573 0
M  V30 4594 H 414.779 3.05662 -2.90084 0
M  V30 4595 H 413.454 2.72129 -1.75293 0
M  V30 4596 H 412.361 1.23537 -3.53114 0
M  V30 4597 H 413.694 1.64394 -4.63935 0
M  V30 4598 N 415.346 1.54954 0.287554 0
M  V30 4599 C 416.574 1.78881 1.03967 0
M  V30 4600 C 416.989 0.554894 1.80462 0
M  V30 4601 O 416.346 -0.475676 1.76192 0
M  V30 4602 C 416.397 3.00488 2.0097 0
M  V30 4603 O 416.118 4.19113 1.27577 0
M  V30 4604 C 417.619 3.36907 2.88112 0
M  V30 4605 H 414.839 0.596259 0.307761 0
M  V30 4606 H 417.383 2.01937 0.322749 0
M  V30 4607 H 415.538 2.79601 2.68145 0
M  V30 4608 H 415.952 4.87765 1.92835 0
M  V30 4609 H 417.426 4.25205 3.52001 0
M  V30 4610 H 417.903 2.55659 3.57121 0
M  V30 4611 H 418.509 3.60001 2.26449 0
M  V30 4612 N 416.824 -0.551391 1.4764 0
M  V30 4613 C 417.754 -1.66757 1.63445 0
M  V30 4614 C 418.735 -1.63077 0.483742 0
M  V30 4615 O 419.92 -1.80607 0.71377 0
M  V30 4616 C 417.05 -3.05387 1.65396 0
M  V30 4617 C 416.004 -3.23918 2.79752 0
M  V30 4618 C 415.33 -4.63393 2.66779 0
M  V30 4619 C 416.63 -3.08735 4.21284 0
M  V30 4620 H 418.324 -1.53786 2.56886 0
M  V30 4621 H 415.87 -0.738415 1.23626 0
M  V30 4622 H 417.823 -3.83325 1.75043 0
M  V30 4623 H 416.547 -3.19332 0.685195 0
M  V30 4624 H 415.206 -2.48391 2.69625 0
M  V30 4625 H 414.854 -4.74144 1.67918 0
M  V30 4626 H 414.554 -4.7674 3.43501 0
M  V30 4627 H 416.078 -5.43458 2.78364 0
M  V30 4628 H 417.492 -3.76484 4.32357 0
M  V30 4629 H 415.889 -3.33588 4.98838 0
M  V30 4630 H 416.959 -2.0541 4.39243 0
M  V30 4631 N 418.302 -1.35869 -0.798587 0
M  V30 4632 C 419.232 -1.32118 -1.92528 0
M  V30 4633 C 420.213 -0.194209 -1.68988 0
M  V30 4634 O 421.398 -0.390426 -1.90235 0
M  V30 4635 C 418.528 -1.10047 -3.29404 0
M  V30 4636 C 417.482 -2.19471 -3.67446 0
M  V30 4637 C 416.808 -1.82555 -5.02571 0
M  V30 4638 C 418.108 -3.61495 -3.76987 0
M  V30 4639 H 419.802 -2.26394 -1.95924 0
M  V30 4640 H 417.348 -1.08981 -0.94123 0
M  V30 4641 H 419.301 -1.06061 -4.07835 0
M  V30 4642 H 418.025 -0.122195 -3.26371 0
M  V30 4643 H 416.684 -2.22568 -2.91306 0
M  V30 4644 H 416.332 -0.833249 -4.9605 0
M  V30 4645 H 416.032 -2.5581 -5.28995 0
M  V30 4646 H 417.556 -1.80108 -5.83432 0
M  V30 4647 H 418.97 -3.60676 -4.4563 0
M  V30 4648 H 417.367 -4.33577 -4.14887 0
M  V30 4649 H 418.437 -3.97065 -2.78329 0
M  V30 4650 N 419.78 1.02168 -1.19998 0
M  V30 4651 C 421.028 1.75338 -1.00504 0
M  V30 4652 C 421.349 1.89387 0.464506 0
M  V30 4653 O 420.619 1.43268 1.33608 0
M  V30 4654 H 419.199 0.649564 -0.368885 0
M  V30 4655 H 421.861 1.23205 -1.51018 0
M  V30 4656 H 420.957 2.75892 -1.45912 0
M  V30 4657 N 421.258 1.00505 1.21394 0
M  V30 4658 C 422.505 0.687774 1.90462 0
M  V30 4659 C 422.833 -0.78147 1.7811 0
M  V30 4660 O 422.088 -1.58208 1.1519 0
M  V30 4661 C 422.387 1.0546 3.41486 0
M  V30 4662 C 422.053 2.51812 3.74034 0
M  V30 4663 C 420.715 2.91804 3.82628 0
M  V30 4664 C 423.067 3.46614 3.8924 0
M  V30 4665 C 420.395 4.2556 4.03876 0
M  V30 4666 C 422.747 4.80044 4.11995 0
M  V30 4667 C 421.411 5.19759 4.18816 0
M  V30 4668 H 420.681 0.251674 0.696951 0
M  V30 4669 H 423.328 1.26349 1.43903 0
M  V30 4670 H 421.633 0.397133 3.89782 0
M  V30 4671 H 423.33 0.786976 3.93202 0
M  V30 4672 H 419.92 2.1982 3.67936 0
M  V30 4673 H 424.104 3.16883 3.81967 0
M  V30 4674 H 419.36 4.55901 4.07387 0
M  V30 4675 H 423.534 5.53439 4.22704 0
M  V30 4676 H 421.161 6.23418 4.35033 0
M  V30 4677 N 422.737 -1.36956 0.779787 0
M  V30 4678 C 423.685 -2.32053 0.15942 0
M  V30 4679 C 424.679 -1.55333 -0.675878 0
M  V30 4680 O 425.885 -1.70668 -0.57204 0
M  V30 4681 H 422.26 -0.751286 0.0327707 0
M  V30 4682 H 424.231 -2.8195 0.977078 0
M  V30 4683 C 422.98 -3.40602 -0.698977 0
M  V30 4684 H 422.303 -3.99746 -0.0655966 0
M  V30 4685 H 423.743 -4.09486 -1.09989 0
M  V30 4686 C 422.202 -2.81359 -1.85307 0
M  V30 4687 O 422.732 -2.72751 -2.94906 0
M  V30 4688 N 420.938 -2.38786 -1.65619 0
M  V30 4689 H 420.485 -2.45987 -0.764725 0
M  V30 4690 H 420.443 -1.99493 -2.43002 0
M  V30 4691 N 424.215 -0.530993 -1.48385 0
M  V30 4692 C 425.148 0.278511 -2.26494 0
M  V30 4693 C 426.126 0.943905 -1.32398 0
M  V30 4694 O 427.31 0.968098 -1.61741 0
M  V30 4695 C 424.437 1.39453 -3.08659 0
M  V30 4696 C 423.483 0.840434 -4.18137 0
M  V30 4697 S 424.316 -0.292496 -5.34701 0
M  V30 4698 C 425.472 0.825973 -6.20426 0
M  V30 4699 H 425.705 -0.384365 -2.94805 0
M  V30 4700 H 423.238 -0.316799 -1.51115 0
M  V30 4701 H 425.196 2.03382 -3.56575 0
M  V30 4702 H 423.857 2.02913 -2.3976 0
M  V30 4703 H 423.05 1.67769 -4.75257 0
M  V30 4704 H 422.652 0.277819 -3.72967 0
M  V30 4705 H 424.944 1.72438 -6.55188 0
M  V30 4706 H 425.887 0.292728 -7.07495 0
M  V30 4707 H 426.295 1.10683 -5.53543 0
M  V30 4708 N 425.693 1.55336 -0.266172 0
M  V30 4709 C 426.939 1.99692 0.353681 0
M  V30 4710 C 427.272 1.1543 1.56172 0
M  V30 4711 O 426.547 0.222218 1.93226 0
M  V30 4712 C 426.83 3.52316 0.74466 0
M  V30 4713 C 426.683 4.47337 -0.470101 0
M  V30 4714 C 428.002 4.10588 1.58447 0
M  V30 4715 H 425.121 0.725961 0.12708 0
M  V30 4716 H 427.763 1.86336 -0.371333 0
M  V30 4717 H 425.913 3.63829 1.36239 0
M  V30 4718 H 427.585 4.4778 -1.10864 0
M  V30 4719 H 425.828 4.19364 -1.10978 0
M  V30 4720 H 426.499 5.51788 -0.15291 0
M  V30 4721 H 428.975 4.02297 1.06286 0
M  V30 4722 H 427.851 5.17607 1.82686 0
M  V30 4723 H 428.112 3.60253 2.56262 0
M  V30 4724 N 427.171 -0.0066808 1.57599 0
M  V30 4725 C 428.119 -1.01851 2.09115 0
M  V30 4726 C 429.113 -1.36021 1.00969 0
M  V30 4727 O 430.319 -1.34663 1.19439 0
M  V30 4728 H 426.694 -0.346083 0.667631 0
M  V30 4729 H 428.665 -0.558394 2.93129 0
M  V30 4730 C 427.414 -2.30374 2.60429 0
M  V30 4731 H 426.737 -2.04947 3.43273 0
M  V30 4732 H 428.177 -2.99466 3.00161 0
M  V30 4733 C 426.636 -3.00893 1.51542 0
M  V30 4734 O 427.166 -3.91614 0.894484 0
M  V30 4735 N 425.372 -2.62603 1.2445 0
M  V30 4736 H 424.919 -1.88911 1.75129 0
M  V30 4737 H 424.877 -3.10101 0.518137 0
M  V30 4738 N 428.649 -1.55105 -0.279332 0
M  V30 4739 C 429.879 -1.7917 -1.02867 0
M  V30 4740 C 430.287 -0.56204 -1.80659 0
M  V30 4741 O 429.63 0.478266 -1.77365 0
M  V30 4742 C 429.692 -2.96061 -2.03932 0
M  V30 4743 C 429.356 -4.33341 -1.45137 0
M  V30 4744 C 430.353 -5.12565 -0.870266 0
M  V30 4745 C 428.038 -4.79987 -1.48048 0
M  V30 4746 C 430.032 -6.36565 -0.326097 0
M  V30 4747 C 427.719 -6.03944 -0.932443 0
M  V30 4748 C 428.717 -6.8207 -0.356247 0
M  V30 4749 O 428.405 -8.03691 0.183412 0
M  V30 4750 H 428.137 -0.600796 -0.309872 0
M  V30 4751 H 430.691 -2.02932 -0.317468 0
M  V30 4752 H 428.921 -2.67975 -2.78794 0
M  V30 4753 H 430.61 -3.07506 -2.64943 0
M  V30 4754 H 431.376 -4.77661 -0.840521 0
M  V30 4755 H 427.255 -4.1919 -1.91835 0
M  V30 4756 H 430.799 -6.97489 0.124286 0
M  V30 4757 H 426.696 -6.3833 -0.959407 0
M  V30 4758 H 427.464 -8.18468 0.0721681 0
M  V30 4759 N 430.127 0.543554 -1.4793 0
M  V30 4760 C 431.543 0.870806 -1.3375 0
M  V30 4761 C 431.743 1.9864 -0.338261 0
M  V30 4762 O 430.799 2.51305 0.245371 0
M  V30 4763 C 432.112 1.25114 -2.73435 0
M  V30 4764 C 433.66 1.3618 -2.81823 0
M  V30 4765 C 434.135 1.77563 -4.22179 0
M  V30 4766 N 435.626 1.8469 -4.24787 0
M  V30 4767 C 436.361 2.18067 -5.30315 0
M  V30 4768 N 435.857 2.49963 -6.46135 0
M  V30 4769 N 437.65 2.18958 -5.17701 0
M  V30 4770 H 429.801 -0.19275 -2.11524 0
M  V30 4771 H 432.064 -0.0235777 -0.947707 0
M  V30 4772 H 431.77 0.50514 -3.48053 0
M  V30 4773 H 431.644 2.20431 -3.06088 0
M  V30 4774 H 434.031 2.09859 -2.07468 0
M  V30 4775 H 434.112 0.390169 -2.52807 0
M  V30 4776 H 433.756 1.04449 -4.97044 0
M  V30 4777 H 433.686 2.75753 -4.48629 0
M  V30 4778 H 436.177 1.62372 -3.41239 0
M  V30 4779 H 436.49 2.74497 -7.22406 0
M  V30 4780 H 434.835 2.47513 -6.49432 0
M  V30 4781 H 438.026 1.93488 -4.2624 0
M  V30 4782 H 438.199 2.44639 -6.00047 0
M  V30 4783 N 431.605 1.3629 0.791371 0
M  V30 4784 C 432.568 1.30309 1.88553 0
M  V30 4785 C 433.568 0.211204 1.59407 0
M  V30 4786 O 434.758 0.465865 1.67855 0
M  V30 4787 C 431.89 1.01956 3.25297 0
M  V30 4788 H 433.083 2.27614 1.95273 0
M  V30 4789 H 430.636 1.21035 0.988953 0
M  V30 4790 H 431.371 0.050998 3.2426 0
M  V30 4791 H 431.156 1.80968 3.4784 0
M  V30 4792 H 432.646 1.0037 4.05359 0
M  V30 4793 N 433.083 -1.0153 1.20538 0
M  V30 4794 C 434.323 -1.76689 1.02763 0
M  V30 4795 C 434.687 -1.87065 -0.432513 0
M  V30 4796 O 435.888 -2.58684 -0.730481 0
M  V30 4797 C 434.159 -3.14707 1.69393 0
M  V30 4798 S 435.718 -4.05886 1.66738 0
M  V30 4799 H 432.536 -0.608076 0.368463 0
M  V30 4800 H 435.138 -1.21558 1.53114 0
M  V30 4801 H 433.842 -3.04782 2.74838 0
M  V30 4802 H 433.373 -3.74913 1.19179 0
M  V30 4803 H 435.388 -4.91221 0.70117 0
M  V30 4804 N 434.561 -1.01147 -1.20859 0
M  V30 4805 C 435.508 -0.577354 -2.23462 0
M  V30 4806 C 436.478 0.399922 -1.61214 0
M  V30 4807 O 437.663 0.300515 -1.88419 0
M  V30 4808 C 434.803 0.083372 -3.44999 0
M  V30 4809 C 433.916 -0.937856 -4.21697 0
M  V30 4810 C 433.051 -0.248717 -5.30617 0
M  V30 4811 C 432.09 -1.25705 -5.99053 0
M  V30 4812 N 431.227 -0.594939 -6.99575 0
M  V30 4813 H 436.067 -1.45695 -2.59956 0
M  V30 4814 H 433.604 -0.729428 -1.27741 0
M  V30 4815 H 435.562 0.483535 -4.14388 0
M  V30 4816 H 434.192 0.926645 -3.09214 0
M  V30 4817 H 433.244 -1.45622 -3.51423 0
M  V30 4818 H 434.556 -1.70493 -4.68757 0
M  V30 4819 H 433.71 0.207215 -6.06346 0
M  V30 4820 H 432.449 0.55071 -4.84581 0
M  V30 4821 H 431.454 -1.72343 -5.2209 0
M  V30 4822 H 432.679 -2.05767 -6.47176 0
M  V30 4823 H 430.625 0.184713 -6.5574 0
M  V30 4824 H 430.542 -1.30017 -7.44736 0
M  V30 4825 H 431.81 -0.162427 -7.79331 0
M  V30 4826 N 436.039 1.36541 -0.78704 0
M  V30 4827 C 436.987 2.31965 -0.171724 0
M  V30 4828 C 437.981 1.55689 0.667631 0
M  V30 4829 O 439.187 1.70969 0.562981 0
M  V30 4830 H 435.562 0.751101 -0.0367545 0
M  V30 4831 H 437.533 2.81428 -0.992017 0
M  V30 4832 C 436.282 3.40968 0.680904 0
M  V30 4833 H 435.605 3.99775 0.0443961 0
M  V30 4834 H 437.045 4.10063 1.07815 0
M  V30 4835 C 435.504 2.82338 1.83813 0
M  V30 4836 O 436.034 2.74311 2.93456 0
M  V30 4837 N 434.24 2.39661 1.6435 0
M  V30 4838 H 433.787 2.46389 0.751668 0
M  V30 4839 H 433.745 2.00779 2.4194 0
M  V30 4840 N 437.518 0.538854 1.48102 0
M  V30 4841 C 438.448 -0.207654 2.32575 0
M  V30 4842 C 439.429 -0.926559 1.4265 0
M  V30 4843 O 440.614 -0.91061 1.71527 0
M  V30 4844 C 437.744 -1.24957 3.24042 0
M  V30 4845 C 436.698 -0.648263 4.23062 0
M  V30 4846 C 436.024 -1.79348 5.03725 0
M  V30 4847 C 437.324 0.385897 5.20872 0
M  V30 4848 H 439.018 0.497534 2.95237 0
M  V30 4849 H 436.564 0.240715 1.41974 0
M  V30 4850 H 438.517 -1.77983 3.81969 0
M  V30 4851 H 437.241 -1.98446 2.59397 0
M  V30 4852 H 435.9 -0.139452 3.66335 0
M  V30 4853 H 435.548 -2.51696 4.35498 0
M  V30 4854 H 435.248 -1.39702 5.70751 0
M  V30 4855 H 436.772 -2.32735 5.64506 0
M  V30 4856 H 438.186 -0.057607 5.73271 0
M  V30 4857 H 436.583 0.700227 5.96001 0
M  V30 4858 H 437.653 1.28848 4.67468 0
M  V30 4859 N 438.996 -1.55193 0.274407 0
M  V30 4860 C 440.242 -2.00604 -0.33608 0
M  V30 4861 C 440.597 -1.15948 -1.53538 0
M  V30 4862 O 439.89 -0.221385 -1.90317 0
M  V30 4863 C 440.084 -3.49019 -0.769458 0
M  V30 4864 C 439.913 -4.48038 0.386301 0
M  V30 4865 C 438.683 -4.97757 0.869854 0
M  V30 4866 C 440.881 -4.99558 1.22254 0
M  V30 4867 N 438.863 -5.80575 1.99515 0
M  V30 4868 C 440.234 -5.79816 2.19575 0
M  V30 4869 C 442.289 -4.81799 1.25597 0
M  V30 4870 C 440.992 -6.44208 3.19981 0
M  V30 4871 C 443.018 -5.46989 2.24848 0
M  V30 4872 C 442.38 -6.27058 3.20901 0
M  V30 4873 H 438.479 -0.777013 -0.088172 0
M  V30 4874 H 441.063 -1.90583 0.398266 0
M  V30 4875 H 439.234 -3.59383 -1.47303 0
M  V30 4876 H 440.966 -3.81263 -1.35722 0
M  V30 4877 H 437.721 -4.71464 0.449281 0
M  V30 4878 H 438.145 -6.26675 2.5614 0
M  V30 4879 H 442.787 -4.19501 0.527158 0
M  V30 4880 H 440.505 -7.05656 3.93796 0
M  V30 4881 H 444.091 -5.35189 2.28174 0
M  V30 4882 H 442.971 -6.7661 3.96445 0
M  V30 4883 N 440.474 -0.00167713 -1.576 0
M  V30 4884 C 441.421 0.989195 -2.08527 0
M  V30 4885 C 442.391 1.34031 -0.981065 0
M  V30 4886 O 443.576 1.43839 -1.2536 0
M  V30 4887 C 440.716 2.27537 -2.59463 0
M  V30 4888 C 439.829 1.98314 -3.83791 0
M  V30 4889 C 438.964 3.21025 -4.23222 0
M  V30 4890 C 438.003 2.87495 -5.40382 0
M  V30 4891 N 437.14 4.02749 -5.75098 0
M  V30 4892 H 441.98 0.547973 -2.92919 0
M  V30 4893 H 439.517 0.258917 -1.44803 0
M  V30 4894 H 441.475 3.02729 -2.87073 0
M  V30 4895 H 440.105 2.69325 -1.77943 0
M  V30 4896 H 439.157 1.13482 -3.63078 0
M  V30 4897 H 440.469 1.69601 -4.69081 0
M  V30 4898 H 439.623 4.04561 -4.52123 0
M  V30 4899 H 438.362 3.52877 -3.36644 0
M  V30 4900 H 437.367 2.02367 -5.11202 0
M  V30 4901 H 438.592 2.56889 -6.28637 0
M  V30 4902 H 436.538 4.34494 -4.91478 0
M  V30 4903 H 436.455 3.77566 -6.54966 0
M  V30 4904 H 437.723 4.87068 -6.08592 0
M  V30 4905 N 441.952 1.55251 0.271103 0
M  V30 4906 C 442.915 1.87484 1.31842 0
M  V30 4907 C 443.915 0.749545 1.42262 0
M  V30 4908 O 445.105 1.01771 1.4138 0
M  V30 4909 C 442.237 2.0818 2.69951 0
M  V30 4910 H 443.43 2.81108 1.0449 0
M  V30 4911 H 440.983 1.47771 0.509258 0
M  V30 4912 H 441.718 1.16944 3.02481 0
M  V30 4913 H 441.503 2.90114 2.63774 0
M  V30 4914 H 442.993 2.34385 3.4562 0
M  V30 4915 N 443.43 -0.535701 1.48216 0
M  V30 4916 C 444.67 -1.30238 1.57536 0
M  V30 4917 C 445.034 -1.90479 0.241229 0
M  V30 4918 O 446.235 -2.67983 0.20938 0
M  V30 4919 C 444.506 -2.3669 2.67792 0
M  V30 4920 S 446.065 -3.23159 2.9684 0
M  V30 4921 H 442.883 -0.443093 0.556048 0
M  V30 4922 H 445.485 -0.610937 1.85709 0
M  V30 4923 H 444.189 -1.90905 3.63296 0
M  V30 4924 H 443.72 -3.10548 2.41502 0
M  V30 4925 H 445.735 -4.36647 2.35699 0
M  V30 4926 N 444.908 -1.36708 -0.784132 0
M  V30 4927 C 446.154 -1.31426 -1.54451 0
M  V30 4928 C 446.487 0.10476 -1.93917 0
M  V30 4929 O 445.762 1.05934 -1.6312 0
M  V30 4930 C 446.045 -2.24189 -2.818 0
M  V30 4931 C 445.898 -3.74813 -2.48667 0
M  V30 4932 C 447.217 -2.15626 -3.83658 0
M  V30 4933 H 444.336 -0.478739 -0.560337 0
M  V30 4934 H 446.978 -1.67305 -0.900498 0
M  V30 4935 H 445.128 -1.93722 -3.36755 0
M  V30 4936 H 446.8 -4.15823 -1.99722 0
M  V30 4937 H 445.043 -3.93989 -1.81535 0
M  V30 4938 H 445.714 -4.35138 -3.39646 0
M  V30 4939 H 448.19 -2.42456 -3.38163 0
M  V30 4940 H 447.066 -2.82694 -4.70506 0
M  V30 4941 H 447.327 -1.14522 -4.27009 0
M  V30 4942 N 446.386 1.0089 -1.21074 0
M  V30 4943 C 447.296 2.13039 -0.982425 0
M  V30 4944 C 448.312 1.73881 0.0642161 0
M  V30 4945 O 449.488 2.01012 -0.12496 0
M  V30 4946 C 446.553 3.42377 -0.545803 0
M  V30 4947 C 445.614 3.95731 -1.6642 0
M  V30 4948 C 444.847 5.18896 -1.24832 0
M  V30 4949 O 445.07 5.70273 -0.120265 0
M  V30 4950 O 444.004 5.65597 -2.05873 0
M  V30 4951 H 447.83 2.35175 -1.92163 0
M  V30 4952 H 445.415 1.1142 -0.995285 0
M  V30 4953 H 447.297 4.20244 -0.311912 0
M  V30 4954 H 445.972 3.21639 0.364727 0
M  V30 4955 H 444.879 3.19108 -1.95246 0
M  V30 4956 H 446.212 4.20872 -2.55201 0
M  V30 4957 N 447.864 1.01787 1.20321 0
M  V30 4958 C 448.814 0.559976 2.21016 0
M  V30 4959 C 449.798 -0.385366 1.56217 0
M  V30 4960 O 450.99 -0.208126 1.75772 0
M  V30 4961 C 448.119 -0.0990553 3.43157 0
M  V30 4962 C 447.205 0.86807 4.15121 0
M  V30 4963 N 447.596 2.0261 4.63447 0
M  V30 4964 C 445.894 0.689162 4.40643 0
M  V30 4965 C 446.595 2.63518 5.18588 0
M  V30 4966 N 445.571 1.91569 5.08726 0
M  V30 4967 H 449.373 1.44281 2.56048 0
M  V30 4968 H 446.887 0.883381 1.36272 0
M  V30 4969 H 448.884 -0.444643 4.14522 0
M  V30 4970 H 447.544 -0.977709 3.0963 0
M  V30 4971 H 448.555 2.40598 4.58621 0
M  V30 4972 H 445.232 -0.14133 4.17261 0
M  V30 4973 H 446.622 3.61527 5.66346 0
M  V30 4974 N 449.342 -1.36122 0.79427 0
M  V30 4975 C 450.292 -2.27373 0.169017 0
M  V30 4976 C 451.276 -1.4719 -0.649913 0
M  V30 4977 O 452.468 -1.69518 -0.50919 0
M  V30 4978 C 449.597 -3.36264 -0.691455 0
M  V30 4979 C 448.683 -4.2388 0.13653 0
M  V30 4980 N 449.074 -4.91519 1.19345 0
M  V30 4981 C 447.372 -4.45921 -0.0838499 0
M  V30 4982 C 448.073 -5.56369 1.6979 0
M  V30 4983 N 447.049 -5.34204 1.00634 0
M  V30 4984 H 450.851 -2.77154 0.977897 0
M  V30 4985 H 448.365 -1.49504 0.634208 0
M  V30 4986 H 450.362 -4.00572 -1.15534 0
M  V30 4987 H 449.022 -2.88037 -1.49883 0
M  V30 4988 H 450.033 -4.9334 1.57594 0
M  V30 4989 H 446.71 -4.08518 -0.861341 0
M  V30 4990 H 448.1 -6.20368 2.58055 0
M  V30 4991 N 450.82 -0.546701 -1.47814 0
M  V30 4992 C 452.048 -0.0232857 -2.06887 0
M  V30 4993 C 452.463 1.26571 -1.4009 0
M  V30 4994 O 451.82 1.7569 -0.493906 0
M  V30 4995 C 451.871 0.186975 -3.61016 0
M  V30 4996 O 451.592 -1.05097 -4.25307 0
M  V30 4997 C 453.093 0.748872 -4.36929 0
M  V30 4998 H 450.313 -0.0410763 -0.669742 0
M  V30 4999 H 452.857 -0.757117 -1.89968 0
M  V30 5000 H 451.012 0.870903 -3.77484 0
M  V30 5001 H 451.426 -0.842121 -5.17695 0
M  V30 5002 H 452.9 0.845334 -5.45489 0
M  V30 5003 H 453.377 1.75772 -4.02493 0
M  V30 5004 H 453.983 0.100979 -4.2518 0
M  V30 5005 N 452.299 1.55045 -0.282633 0
M  V30 5006 C 453.546 1.9976 0.33199 0
M  V30 5007 C 453.874 1.17105 1.55295 0
M  V30 5008 O 453.129 0.230599 1.94337 0
M  V30 5009 C 453.428 3.49422 0.750938 0
M  V30 5010 C 453.094 4.4941 -0.366228 0
M  V30 5011 C 451.756 4.76471 -0.672964 0
M  V30 5012 C 454.108 5.09054 -1.11864 0
M  V30 5013 C 451.436 5.60442 -1.73556 0
M  V30 5014 C 453.788 5.9418 -2.17102 0
M  V30 5015 C 452.452 6.19558 -2.48402 0
M  V30 5016 H 451.722 0.730974 0.121484 0
M  V30 5017 H 454.369 1.8732 -0.39791 0
M  V30 5018 H 452.674 3.59377 1.56063 0
M  V30 5019 H 454.371 3.81432 1.23736 0
M  V30 5020 H 450.961 4.2844 -0.117041 0
M  V30 5021 H 455.145 4.88165 -0.894925 0
M  V30 5022 H 450.401 5.78349 -1.983 0
M  V30 5023 H 454.575 6.39427 -2.75873 0
M  V30 5024 H 452.202 6.84417 -3.30874 0
M  V30 5025 N 453.777 0.010035 1.57597 0
M  V30 5026 C 455.024 -0.6727 1.91 0
M  V30 5027 C 455.352 -1.73219 0.884614 0
M  V30 5028 O 454.607 -1.95395 -0.109215 0
M  V30 5029 C 454.906 -1.34434 3.31153 0
M  V30 5030 C 454.572 -0.417083 4.48967 0
M  V30 5031 C 453.234 -0.161809 4.80928 0
M  V30 5032 C 455.586 0.220753 5.20732 0
M  V30 5033 C 452.914 0.739426 5.82022 0
M  V30 5034 C 455.266 1.10993 6.22787 0
M  V30 5035 C 453.93 1.37428 6.532 0
M  V30 5036 H 453.2 -0.246158 0.698918 0
M  V30 5037 H 455.847 0.0677145 1.9138 0
M  V30 5038 H 454.152 -2.15905 3.26944 0
M  V30 5039 H 455.849 -1.87883 3.54261 0
M  V30 5040 H 452.439 -0.626217 4.24001 0
M  V30 5041 H 456.623 0.0365643 4.96287 0
M  V30 5042 H 451.879 0.952139 6.03941 0
M  V30 5043 H 456.053 1.61046 6.77523 0
M  V30 5044 H 453.68 2.0743 7.31353 0
M  V30 5045 N 455.255 -1.55392 -0.262866 0
M  V30 5046 C 456.671 -1.47459 -0.610582 0
M  V30 5047 C 456.871 -0.697031 -1.8906 0
M  V30 5048 O 455.927 -0.219952 -2.5154 0
M  V30 5049 C 457.24 -2.91751 -0.728131 0
M  V30 5050 C 458.788 -3.02027 -0.821517 0
M  V30 5051 C 459.263 -4.47594 -0.97076 0
M  V30 5052 N 460.754 -4.51465 -1.03603 0
M  V30 5053 C 461.489 -5.61326 -1.17049 0
M  V30 5054 N 460.985 -6.81032 -1.2715 0
M  V30 5055 N 462.778 -5.49089 -1.20239 0
M  V30 5056 H 454.929 -2.04395 0.577632 0
M  V30 5057 H 457.192 -0.927287 0.197086 0
M  V30 5058 H 456.898 -3.51413 0.142132 0
M  V30 5059 H 456.772 -3.4134 -1.6052 0
M  V30 5060 H 459.159 -2.42456 -1.68224 0
M  V30 5061 H 459.24 -2.55674 0.0803688 0
M  V30 5062 H 458.884 -5.07771 -0.114655 0
M  V30 5063 H 458.814 -4.91613 -1.88745 0
M  V30 5064 H 461.305 -3.6524 -0.96996 0
M  V30 5065 H 461.618 -7.60511 -1.37271 0
M  V30 5066 H 459.963 -6.83824 -1.24136 0
M  V30 5067 H 463.154 -4.54507 -1.11985 0
M  V30 5068 H 463.327 -6.34749 -1.30373 0
M  V30 5069 N 456.733 0.527833 -1.48498 0
M  V30 5070 C 457.663 1.64136 -1.66077 0
M  V30 5071 C 458.644 1.62286 -0.509625 0
M  V30 5072 O 459.829 1.79449 -0.742413 0
M  V30 5073 C 456.959 3.02717 -1.70234 0
M  V30 5074 C 455.913 3.19426 -2.8487 0
M  V30 5075 C 455.239 4.5909 -2.74118 0
M  V30 5076 C 456.539 3.01993 -4.26142 0
M  V30 5077 H 458.233 1.4968 -2.593 0
M  V30 5078 H 455.779 0.718654 -1.24785 0
M  V30 5079 H 457.732 3.80491 -1.8112 0
M  V30 5080 H 456.456 3.18201 -0.735911 0
M  V30 5081 H 455.115 2.4407 -2.73542 0
M  V30 5082 H 454.763 4.71413 -1.7544 0
M  V30 5083 H 454.463 4.71214 -3.51042 0
M  V30 5084 H 455.987 5.3896 -2.86974 0
M  V30 5085 H 457.401 3.69558 -4.38292 0
M  V30 5086 H 455.798 3.2561 -5.04082 0
M  V30 5087 H 456.868 1.98396 -4.42456 0
M  V30 5088 N 458.211 1.37122 0.776871 0
M  V30 5089 C 459.488 1.22586 1.52421 0
M  V30 5090 C 459.868 -0.182726 2.10308 0
M  V30 5091 O 459.216 -1.18979 1.9508 0
M  V30 5092 C 459.426 2.31782 2.60918 0
M  V30 5093 C 460.774 2.69071 3.2846 0
M  V30 5094 O 461.798 2.3092 2.71209 0
M  V30 5095 O 460.657 3.3478 4.31954 0
M  V30 5096 H 457.751 0.478045 0.674835 0
M  V30 5097 H 460.297 1.48888 0.814275 0
M  V30 5098 H 459.069 3.26131 2.16227 0
M  V30 5099 H 458.692 2.06916 3.39517 0
M  V30 5100 N 459.689 -1.00246 1.21608 0
M  V30 5101 C 461.105 -1.26435 0.973975 0
M  V30 5102 C 461.305 -1.98642 -0.338143 0
M  V30 5103 O 460.361 -2.29026 -1.06317 0
M  V30 5104 C 461.674 -2.08551 2.16626 0
M  V30 5105 C 463.222 -2.21769 2.20879 0
M  V30 5106 C 463.697 -3.07267 3.39633 0
M  V30 5107 N 465.188 -3.14855 3.39736 0
M  V30 5108 C 465.923 -3.81274 4.28273 0
M  V30 5109 N 465.419 -4.497 5.27012 0
M  V30 5110 N 467.212 -3.7794 4.16074 0
M  V30 5111 H 459.363 -0.518089 2.05984 0
M  V30 5112 H 461.626 -0.291368 0.902113 0
M  V30 5113 H 461.332 -1.62847 3.11727 0
M  V30 5114 H 461.206 -3.09303 2.15897 0
M  V30 5115 H 463.593 -2.66691 1.26332 0
M  V30 5116 H 463.674 -1.20478 2.25652 0
M  V30 5117 H 463.318 -2.63047 4.34475 0
M  V30 5118 H 463.248 -4.08678 3.321 0
M  V30 5119 H 465.739 -2.66147 2.6828 0
M  V30 5120 H 466.052 -4.98092 5.90867 0
M  V30 5121 H 464.397 -4.48479 5.30935 0
M  V30 5122 H 467.588 -3.23638 3.38195 0
M  V30 5123 H 467.761 -4.29424 4.85282 0
M  V30 5124 N 461.167 -1.02423 -1.1978 0
M  V30 5125 C 462.578 -0.748389 -1.71044 0
M  V30 5126 C 462.929 0.732398 -1.82017 0
M  V30 5127 O 462.054 1.57116 -1.48807 0
M  V30 5128 C 462.649 -1.35187 -3.1066 0
M  V30 5129 C 461.208 -1.12472 -3.59203 0
M  V30 5130 C 460.355 -1.45283 -2.36195 0
M  V30 5131 H 463.306 -1.19275 -1.04686 0
M  V30 5132 H 463.327 -0.746408 -3.73107 0
M  V30 5133 H 462.839 -2.4296 -3.02642 0
M  V30 5134 H 460.94 -0.0649983 -3.72543 0
M  V30 5135 H 461.053 -1.81016 -4.43588 0
M  V30 5136 H 459.417 -0.872034 -2.39307 0
M  V30 5137 H 460.2 -2.54129 -2.30811 0
M  V30 5138 N 462.645 1.35699 -0.801477 0
M  V30 5139 C 463.575 2.32436 -0.222658 0
M  V30 5140 C 464.556 1.5723 0.649057 0
M  V30 5141 O 465.741 1.85324 0.580387 0
M  V30 5142 C 462.871 3.41469 0.633719 0
M  V30 5143 C 461.825 4.27774 -0.139083 0
M  V30 5144 C 461.151 5.28082 0.838666 0
M  V30 5145 C 462.451 5.04946 -1.33517 0
M  V30 5146 H 464.145 2.81094 -1.03086 0
M  V30 5147 H 461.691 1.35146 -0.497155 0
M  V30 5148 H 463.644 4.08143 1.04868 0
M  V30 5149 H 462.368 2.91408 1.47475 0
M  V30 5150 H 461.027 3.62673 -0.535156 0
M  V30 5151 H 460.675 4.7429 1.67506 0
M  V30 5152 H 460.375 5.86695 0.32594 0
M  V30 5153 H 461.899 5.97628 1.25194 0
M  V30 5154 H 463.313 5.64593 -0.995349 0
M  V30 5155 H 461.71 5.7303 -1.78202 0
M  V30 5156 H 462.78 4.35886 -2.12442 0
M  V30 5157 N 464.123 0.554532 1.47522 0
M  V30 5158 C 465.534 0.120446 1.86311 0
M  V30 5159 C 465.885 -1.30904 1.46145 0
M  V30 5160 O 465.01 -1.98434 0.863294 0
M  V30 5161 C 465.605 0.211808 3.38137 0
M  V30 5162 C 464.164 -0.167224 3.76028 0
M  V30 5163 C 463.311 0.560576 2.71575 0
M  V30 5164 H 466.262 0.764408 1.39077 0
M  V30 5165 H 466.283 -0.570275 3.76202 0
M  V30 5166 H 465.795 1.25232 3.6734 0
M  V30 5167 H 463.896 -1.20894 3.52442 0
M  V30 5168 H 464.009 0.189473 4.78725 0
M  V30 5169 H 462.373 0.00396836 2.547 0
M  V30 5170 H 463.156 1.60219 3.0362 0
M  V30 5171 N 465.601 -1.54893 0.290851 0
M  V30 5172 C 467.012 -1.85584 -0.203816 0
M  V30 5173 C 467.363 -1.21285 -1.54222 0
M  V30 5174 O 466.488 -0.506841 -2.10381 0
M  V30 5175 C 467.083 -3.367 -0.376595 0
M  V30 5176 C 465.642 -3.6746 -0.815485 0
M  V30 5177 C 464.789 -2.77178 0.0821087 0
M  V30 5178 H 467.74 -1.50208 0.512175 0
M  V30 5179 H 467.761 -3.60656 -1.21275 0
M  V30 5180 H 467.273 -3.8347 0.59767 0
M  V30 5181 H 465.374 -3.26201 -1.80066 0
M  V30 5182 H 465.487 -4.7478 -0.641905 0
M  V30 5183 H 463.851 -2.50925 -0.436895 0
M  V30 5184 H 464.634 -3.26767 1.05254 0
M  V30 5185 N 467.08 -0.0183926 -1.57589 0
M  V30 5186 C 468.012 0.995557 -2.06449 0
M  V30 5187 C 469.025 1.29556 -0.985849 0
M  V30 5188 O 470.214 1.2621 -1.26227 0
M  V30 5189 C 467.314 2.32572 -2.46502 0
M  V30 5190 C 466.487 2.21245 -3.77319 0
M  V30 5191 C 465.546 3.37104 -4.04039 0
M  V30 5192 O 464.572 3.14468 -4.74445 0
M  V30 5193 N 465.774 4.60553 -3.53372 0
M  V30 5194 H 468.539 0.578746 -2.94059 0
M  V30 5195 H 466.1 0.168603 -1.6102 0
M  V30 5196 H 468.092 3.08887 -2.61478 0
M  V30 5197 H 466.662 2.65931 -1.64315 0
M  V30 5198 H 465.882 1.29723 -3.72244 0
M  V30 5199 H 467.17 2.10868 -4.63047 0
M  V30 5200 H 466.568 4.81839 -2.96391 0
M  V30 5201 H 465.125 5.34072 -3.73644 0
M  V30 5202 N 468.558 1.5553 0.254621 0
M  V30 5203 C 469.505 1.89666 1.31512 0
M  V30 5204 C 470.475 0.750057 1.482 0
M  V30 5205 O 471.66 1.00301 1.62309 0
M  V30 5206 C 468.8 2.19009 2.667 0
M  V30 5207 C 467.913 3.46435 2.58083 0
M  V30 5208 C 467.048 3.65386 3.85573 0
M  V30 5209 C 466.087 4.8644 3.71541 0
M  V30 5210 N 465.224 5.01952 4.90906 0
M  V30 5211 H 470.064 2.80109 1.017 0
M  V30 5212 H 467.601 1.38666 0.490938 0
M  V30 5213 H 469.559 2.34025 3.45381 0
M  V30 5214 H 468.189 1.31779 2.94676 0
M  V30 5215 H 467.241 3.39792 1.71013 0
M  V30 5216 H 468.553 4.35258 2.43622 0
M  V30 5217 H 467.707 3.80319 4.72697 0
M  V30 5218 H 466.446 2.74781 4.02922 0
M  V30 5219 H 465.451 4.71491 2.82801 0
M  V30 5220 H 466.676 5.78497 3.55694 0
M  V30 5221 H 464.622 4.14283 5.08631 0
M  V30 5222 H 464.539 5.84851 4.79046 0
M  V30 5223 H 465.807 5.21289 5.7955 0
M  V30 5224 N 470.036 -0.519951 1.48776 0
M  V30 5225 C 470.984 -1.64443 1.64503 0
M  V30 5226 C 471.978 -1.61501 0.511248 0
M  V30 5227 O 473.184 -1.66238 0.690294 0
M  V30 5228 H 469.559 -0.544776 0.518385 0
M  V30 5229 H 471.53 -1.48325 2.58925 0
M  V30 5230 C 470.279 -3.02673 1.71127 0
M  V30 5231 H 469.602 -3.05635 2.57735 0
M  V30 5232 H 471.042 -3.80941 1.86172 0
M  V30 5233 C 469.501 -3.33854 0.452032 0
M  V30 5234 O 470.031 -3.99385 -0.430678 0
M  V30 5235 N 468.237 -2.88825 0.32069 0
M  V30 5236 H 467.784 -2.35674 1.03998 0
M  V30 5237 H 467.742 -3.10056 -0.520814 0
M  V30 5238 N 471.514 -1.37532 -0.769588 0
M  V30 5239 C 472.761 -1.3286 -1.52822 0
M  V30 5240 C 473.089 0.0862597 -1.94309 0
M  V30 5241 O 472.344 1.05995 -1.6451 0
M  V30 5242 C 472.643 -2.21558 -2.8044 0
M  V30 5243 C 472.309 -3.69796 -2.57996 0
M  V30 5244 C 470.971 -4.10194 -2.51583 0
M  V30 5245 C 473.323 -4.63699 -2.37976 0
M  V30 5246 C 470.651 -5.42608 -2.23144 0
M  V30 5247 C 473.003 -5.96353 -2.1106 0
M  V30 5248 C 471.667 -6.35853 -2.03093 0
M  V30 5249 H 470.937 -0.486168 -0.559215 0
M  V30 5250 H 473.584 -1.69757 -0.886277 0
M  V30 5251 H 471.889 -1.77663 -3.49204 0
M  V30 5252 H 473.586 -2.15256 -3.38328 0
M  V30 5253 H 470.176 -3.37759 -2.63851 0
M  V30 5254 H 474.36 -4.33346 -2.41919 0
M  V30 5255 H 469.616 -5.72173 -2.15472 0
M  V30 5256 H 473.79 -6.68667 -1.94568 0
M  V30 5257 H 471.417 -7.38382 -1.8082 0
M  V30 5258 N 472.992 0.995999 -1.22138 0
M  V30 5259 C 474.239 1.7351 -1.04406 0
M  V30 5260 C 474.567 1.89884 0.421244 0
M  V30 5261 O 473.822 1.43683 1.32867 0
M  V30 5262 C 474.121 3.14553 -1.6968 0
M  V30 5263 C 473.787 3.18102 -3.19565 0
M  V30 5264 C 472.449 3.18778 -3.60464 0
M  V30 5265 C 474.801 3.14636 -4.15516 0
M  V30 5266 C 472.129 3.13684 -4.95801 0
M  V30 5267 C 474.481 3.11084 -5.50826 0
M  V30 5268 C 473.145 3.10074 -5.91109 0
M  V30 5269 H 472.415 0.634916 -0.38205 0
M  V30 5270 H 475.062 1.1667 -1.51857 0
M  V30 5271 H 473.367 3.74682 -1.14546 0
M  V30 5272 H 475.064 3.70477 -1.53454 0
M  V30 5273 H 471.654 3.18324 -2.86998 0
M  V30 5274 H 475.838 3.13266 -3.84939 0
M  V30 5275 H 471.094 3.11245 -5.26247 0
M  V30 5276 H 475.268 3.07357 -6.24904 0
M  V30 5277 H 472.895 3.05882 -6.95946 0
M  V30 5278 N 474.47 1.03057 1.19235 0
M  V30 5279 C 475.433 0.617418 2.20727 0
M  V30 5280 C 476.433 -0.319856 1.57587 0
M  V30 5281 O 477.623 -0.106633 1.73873 0
M  V30 5282 C 474.755 -0.096296 3.40764 0
M  V30 5283 H 475.948 1.51544 2.58794 0
M  V30 5284 H 473.501 0.821949 1.32942 0
M  V30 5285 H 474.236 -1.00859 3.08217 0
M  V30 5286 H 474.021 0.577217 3.87828 0
M  V30 5287 H 475.511 -0.372219 4.15938 0
M  V30 5288 N 475.948 -1.35272 0.808662 0
M  V30 5289 C 476.898 -2.27181 0.193124 0
M  V30 5290 C 477.882 -1.47871 -0.634265 0
M  V30 5291 O 479.074 -1.70048 -0.491182 0
M  V30 5292 C 476.203 -3.36979 -0.655751 0
M  V30 5293 C 475.289 -4.23712 0.181481 0
M  V30 5294 N 475.68 -4.90225 1.24551 0
M  V30 5295 C 473.978 -4.45985 -0.0365493 0
M  V30 5296 C 474.679 -5.54537 1.75682 0
M  V30 5297 N 473.655 -5.33107 1.06294 0
M  V30 5298 H 477.457 -2.76101 1.00724 0
M  V30 5299 H 474.971 -1.48823 0.650029 0
M  V30 5300 H 476.968 -4.01774 -1.11279 0
M  V30 5301 H 475.628 -2.89611 -1.46819 0
M  V30 5302 H 476.639 -4.91641 1.62818 0
M  V30 5303 H 473.316 -4.09409 -0.817964 0
M  V30 5304 H 474.706 -6.17597 2.64621 0
M  V30 5305 N 477.426 -0.562348 -1.47226 0
M  V30 5306 C 478.656 -0.0451619 -2.06551 0
M  V30 5307 C 479.064 1.25626 -1.41473 0
M  V30 5308 O 478.407 1.76563 -0.507061 0
M  V30 5309 C 478.469 0.216068 -3.5885 0
M  V30 5310 C 478.133 -0.996691 -4.45999 0
M  V30 5311 C 479.13 -1.90358 -4.83797 0
M  V30 5312 C 476.815 -1.21281 -4.87438 0
M  V30 5313 C 478.809 -3.01023 -5.6184 0
M  V30 5314 C 476.496 -2.32255 -5.65244 0
M  V30 5315 C 477.494 -3.21956 -6.02356 0
M  V30 5316 O 477.182 -4.31005 -6.78594 0
M  V30 5317 H 476.914 -0.0451646 -0.67449 0
M  V30 5318 H 479.468 -0.776842 -1.90143 0
M  V30 5319 H 477.698 1.00212 -3.7349 0
M  V30 5320 H 479.387 0.679264 -4.00176 0
M  V30 5321 H 480.153 -1.74868 -4.52378 0
M  V30 5322 H 476.032 -0.523767 -4.58015 0
M  V30 5323 H 479.576 -3.71064 -5.90726 0
M  V30 5324 H 475.473 -2.47715 -5.96077 0
M  V30 5325 H 476.241 -4.29118 -6.96994 0
M  V30 5326 N 478.904 1.54736 -0.299062 0
M  V30 5327 C 480.151 2.00101 0.310784 0
M  V30 5328 C 480.479 1.18746 1.54045 0
M  V30 5329 O 479.734 0.251198 1.94081 0
M  V30 5330 C 480.033 3.50199 0.713835 0
M  V30 5331 C 479.699 4.48997 -0.413873 0
M  V30 5332 C 478.361 4.7573 -0.723462 0
M  V30 5333 C 480.713 5.07839 -1.17257 0
M  V30 5334 C 478.041 5.5857 -1.79491 0
M  V30 5335 C 480.393 5.91844 -2.23392 0
M  V30 5336 C 479.057 6.16889 -2.54959 0
M  V30 5337 H 478.327 0.732221 0.113724 0
M  V30 5338 H 480.974 1.86888 -0.417756 0
M  V30 5339 H 479.279 3.61012 1.52243 0
M  V30 5340 H 480.976 3.82723 1.19684 0
M  V30 5341 H 477.566 4.28292 -0.162476 0
M  V30 5342 H 481.75 4.87188 -0.946651 0
M  V30 5343 H 477.006 5.76213 -2.04423 0
M  V30 5344 H 481.18 6.36465 -2.8264 0
M  V30 5345 H 478.807 6.80869 -3.38114 0
M  V30 5346 N 480.382 0.0267497 1.57577 0
M  V30 5347 C 481.61 -0.662661 1.96001 0
M  V30 5348 C 482.025 -1.65799 0.903117 0
M  V30 5349 O 481.382 -1.82135 -0.115317 0
M  V30 5350 C 481.433 -1.37112 3.34488 0
M  V30 5351 O 481.154 -0.415683 4.36123 0
M  V30 5352 C 482.655 -2.15257 3.8753 0
M  V30 5353 H 479.875 -0.18287 0.6456 0
M  V30 5354 H 482.419 0.0858116 2.0432 0
M  V30 5355 H 480.574 -2.07101 3.27395 0
M  V30 5356 H 480.988 -0.918496 5.16395 0
M  V30 5357 H 482.462 -2.60285 4.86781 0
M  V30 5358 H 482.939 -2.99063 3.21649 0
M  V30 5359 H 483.545 -1.50231 3.97883 0
M  V30 5360 N 481.861 -1.55662 -0.24637 0
M  V30 5361 C 482.791 -1.93377 -1.30873 0
M  V30 5362 C 483.772 -0.798773 -1.50179 0
M  V30 5363 O 484.957 -1.0591 -1.62778 0
M  V30 5364 C 482.087 -2.22893 -2.66338 0
M  V30 5365 C 481.041 -3.38649 -2.61727 0
M  V30 5366 C 480.367 -3.53708 -4.00992 0
M  V30 5367 C 481.667 -4.74323 -2.18666 0
M  V30 5368 H 483.361 -2.82363 -0.995552 0
M  V30 5369 H 480.907 -1.35854 -0.477464 0
M  V30 5370 H 482.86 -2.47866 -3.40794 0
M  V30 5371 H 481.584 -1.30733 -2.99293 0
M  V30 5372 H 480.243 -3.13685 -1.89729 0
M  V30 5373 H 479.891 -2.58967 -4.31214 0
M  V30 5374 H 479.591 -4.31551 -3.98795 0
M  V30 5375 H 481.115 -3.81003 -4.77147 0
M  V30 5376 H 482.529 -4.98665 -2.82854 0
M  V30 5377 H 480.926 -5.55273 -2.27579 0
M  V30 5378 H 481.996 -4.71349 -1.13834 0
M  V30 5379 N 483.339 0.512053 -1.4905 0
M  V30 5380 C 484.587 1.26436 -1.57665 0
M  V30 5381 C 484.908 1.93255 -0.260293 0
M  V30 5382 O 484.178 1.82206 0.719564 0
M  V30 5383 H 482.758 0.469658 -0.580888 0
M  V30 5384 H 485.42 0.594398 -1.85615 0
M  V30 5385 H 484.516 2.03417 -2.36702 0
M  V30 5386 N 484.817 1.37938 0.762283 0
M  V30 5387 C 486.042 1.37059 1.55659 0
M  V30 5388 C 486.467 -0.0396123 1.88058 0
M  V30 5389 O 485.825 -1.01929 1.49934 0
M  V30 5390 C 485.873 2.22494 2.83776 0
M  V30 5391 O 484.977 1.63607 3.78559 0
M  V30 5392 H 484.318 0.467892 0.47114 0
M  V30 5393 H 486.848 1.81587 0.942725 0
M  V30 5394 H 486.858 2.36045 3.32786 0
M  V30 5395 H 485.533 3.24993 2.59524 0
M  V30 5396 H 484.11 1.5915 3.37233 0
M  V30 5397 N 486.295 -0.989507 1.22664 0
M  V30 5398 C 487.242 -2.08024 0.999733 0
M  V30 5399 C 488.212 -1.65909 -0.0797047 0
M  V30 5400 O 489.397 -1.90669 0.0705715 0
M  V30 5401 C 486.537 -3.40067 0.587234 0
M  V30 5402 C 485.65 -3.95505 1.73781 0
M  V30 5403 C 484.785 -5.15722 1.27297 0
M  V30 5404 C 483.824 -5.63305 2.39488 0
M  V30 5405 N 482.961 -6.74758 1.94026 0
M  V30 5406 H 487.801 -2.26768 1.9334 0
M  V30 5407 H 485.338 -1.11171 0.963297 0
M  V30 5408 H 487.296 -4.15899 0.329227 0
M  V30 5409 H 485.926 -3.21314 -0.309426 0
M  V30 5410 H 484.978 -3.16513 2.11006 0
M  V30 5411 H 486.29 -4.26797 2.58158 0
M  V30 5412 H 485.444 -5.98854 0.972546 0
M  V30 5413 H 484.183 -4.86061 0.399445 0
M  V30 5414 H 483.188 -4.78759 2.70315 0
M  V30 5415 H 484.413 -5.94988 3.27362 0
M  V30 5416 H 482.359 -6.46874 1.09041 0
M  V30 5417 H 482.276 -7.05386 2.71968 0
M  V30 5418 H 483.544 -7.61387 1.67062 0
M  V30 5419 N 487.773 -1.03688 -1.18687 0
M  V30 5420 C 489.02 -0.73803 -1.88572 0
M  V30 5421 C 489.348 0.733973 -1.8012 0
M  V30 5422 O 488.603 1.55098 -1.19344 0
M  V30 5423 C 488.902 -1.14477 -3.3857 0
M  V30 5424 C 488.568 -2.61641 -3.67226 0
M  V30 5425 C 487.23 -3.01846 -3.74757 0
M  V30 5426 C 489.582 -3.56812 -3.79914 0
M  V30 5427 C 486.91 -4.36118 -3.92451 0
M  V30 5428 C 489.262 -4.90799 -3.99123 0
M  V30 5429 C 487.926 -5.3068 -4.04888 0
M  V30 5430 H 487.196 -0.270064 -0.690034 0
M  V30 5431 H 489.843 -1.3012 -1.40503 0
M  V30 5432 H 488.148 -0.500337 -3.88592 0
M  V30 5433 H 489.845 -0.89095 -3.90977 0
M  V30 5434 H 486.435 -2.29498 -3.61979 0
M  V30 5435 H 490.619 -3.26899 -3.73431 0
M  V30 5436 H 485.875 -4.66542 -3.95157 0
M  V30 5437 H 490.049 -5.64451 -4.07882 0
M  V30 5438 H 487.676 -6.34733 -4.18351 0
M  V30 5439 N 489.251 1.34841 -0.815825 0
M  V30 5440 C 490.667 1.51543 -0.500697 0
M  V30 5441 C 490.867 1.76261 0.976444 0
M  V30 5442 O 489.923 1.8094 1.76117 0
M  V30 5443 C 491.236 2.68487 -1.35407 0
M  V30 5444 C 492.784 2.82368 -1.35046 0
M  V30 5445 C 493.259 4.02347 -2.18816 0
M  V30 5446 N 494.75 4.09542 -2.16402 0
M  V30 5447 C 495.485 5.01517 -2.77971 0
M  V30 5448 N 494.981 5.98763 -3.48503 0
M  V30 5449 N 496.774 4.94334 -2.67563 0
M  V30 5450 H 488.925 1.17055 -1.77234 0
M  V30 5451 H 491.188 0.573481 -0.754866 0
M  V30 5452 H 490.894 2.56829 -2.40274 0
M  V30 5453 H 490.768 3.63321 -1.01377 0
M  V30 5454 H 493.155 2.93471 -0.309604 0
M  V30 5455 H 493.236 1.88363 -1.73069 0
M  V30 5456 H 492.88 3.92004 -3.22948 0
M  V30 5457 H 492.81 4.95551 -1.78148 0
M  V30 5458 H 495.301 3.39932 -1.65091 0
M  V30 5459 H 495.614 6.6556 -3.92747 0
M  V30 5460 H 493.959 5.98909 -3.52609 0
M  V30 5461 H 497.15 4.1732 -2.12041 0
M  V30 5462 H 497.323 5.6582 -3.15834 0
M  V30 5463 N 490.729 0.570148 1.46925 0
M  V30 5464 C 491.959 0.0561151 2.06524 0
M  V30 5465 C 492.367 -1.24874 1.42137 0
M  V30 5466 O 491.71 -1.76292 0.516417 0
M  V30 5467 C 491.772 -0.197035 3.5896 0
M  V30 5468 C 491.436 1.02033 4.45464 0
M  V30 5469 C 492.433 1.92921 4.82781 0
M  V30 5470 C 490.118 1.23864 4.86788 0
M  V30 5471 C 492.112 3.03999 5.60235 0
M  V30 5472 C 489.799 2.35249 5.64004 0
M  V30 5473 C 490.797 3.25146 6.0064 0
M  V30 5474 O 490.485 4.34598 6.76299 0
M  V30 5475 H 490.217 0.0487409 0.674241 0
M  V30 5476 H 492.771 0.786915 1.89728 0
M  V30 5477 H 491.001 -0.982299 3.74016 0
M  V30 5478 H 492.69 -0.658032 4.00531 0
M  V30 5479 H 493.456 1.77265 4.51444 0
M  V30 5480 H 489.335 0.54805 4.57731 0
M  V30 5481 H 492.879 3.74192 5.8875 0
M  V30 5482 H 488.776 2.50873 5.94755 0
M  V30 5483 H 489.544 4.32808 6.94708 0
M  V30 5484 N 492.207 -1.54576 0.307264 0
M  V30 5485 C 493.447 -2.02172 -0.300962 0
M  V30 5486 C 493.811 -1.19081 -1.50611 0
M  V30 5487 O 495.012 -1.56405 -2.18612 0
M  V30 5488 C 493.283 -3.51576 -0.642591 0
M  V30 5489 S 494.842 -4.21127 -1.23279 0
M  V30 5490 H 491.66 -0.705021 -0.0920141 0
M  V30 5491 H 494.262 -1.90563 0.436594 0
M  V30 5492 H 492.966 -4.09681 0.242901 0
M  V30 5493 H 492.497 -3.67234 -1.41077 0
M  V30 5494 H 494.512 -4.27426 -2.52034 0
M  V30 5495 N 493.685 -0.035106 -1.57561 0
M  V30 5496 C 494.933 0.64096 -1.91667 0
M  V30 5497 C 495.254 1.72323 -0.912681 0
M  V30 5498 O 494.524 1.95849 0.0449089 0
M  V30 5499 H 493.104 0.239743 -0.707483 0
M  V30 5500 H 495.766 -0.084321 -1.94718 0
M  V30 5501 H 494.862 1.08987 -2.92452 0
M  V30 5502 N 495.163 1.55791 0.238111 0
M  V30 5503 C 496.579 1.48411 0.587045 0
M  V30 5504 C 496.779 0.72702 1.87927 0
M  V30 5505 O 495.835 0.259942 2.51158 0
M  V30 5506 C 497.148 2.92873 0.681623 0
M  V30 5507 C 498.696 3.03295 0.773363 0
M  V30 5508 C 499.171 4.49082 0.899428 0
M  V30 5509 N 500.662 4.53056 0.964075 0
M  V30 5510 C 501.397 5.63117 1.08104 0
M  V30 5511 N 500.893 6.82969 1.16299 0
M  V30 5512 N 502.686 5.50933 1.11488 0
M  V30 5513 H 494.837 2.0345 -0.610076 0
M  V30 5514 H 497.1 0.924034 -0.211813 0
M  V30 5515 H 496.806 3.51142 -0.19802 0
M  V30 5516 H 496.68 3.43851 1.55069 0
M  V30 5517 H 499.067 2.45101 1.64346 0
M  V30 5518 H 499.148 2.55513 -0.121034 0
M  V30 5519 H 498.792 5.07889 0.0338586 0
M  V30 5520 H 498.722 4.94553 1.809 0
M  V30 5521 H 501.213 3.66737 0.91173 0
M  V30 5522 H 501.526 7.62598 1.25155 0
M  V30 5523 H 499.871 6.85712 1.13241 0
M  V30 5524 H 503.062 4.56231 1.0474 0
M  V30 5525 H 503.235 6.36743 1.20259 0
M  V30 5526 N 496.642 -0.504142 1.49319 0
M  V30 5527 C 497.87 -1.28256 1.62351 0
M  V30 5528 C 498.285 -1.86502 0.293682 0
M  V30 5529 O 497.642 -1.67678 -0.720449 0
M  V30 5530 C 497.693 -2.41507 2.68992 0
M  V30 5531 O 497.414 -1.85656 3.96817 0
M  V30 5532 C 498.915 -3.32929 2.927 0
M  V30 5533 H 496.135 -0.389115 0.546654 0
M  V30 5534 H 498.679 -0.605531 1.95329 0
M  V30 5535 H 496.834 -3.05046 2.38801 0
M  V30 5536 H 497.248 -2.59981 4.55533 0
M  V30 5537 H 498.722 -4.0868 3.71058 0
M  V30 5538 H 499.199 -3.89733 2.02496 0
M  V30 5539 H 499.805 -2.75158 3.24296 0
M  V30 5540 N 498.12 -1.38341 -0.754957 0
M  V30 5541 C 499.03 -1.3769 -1.89944 0
M  V30 5542 C 500.046 -0.274194 -1.71826 0
M  V30 5543 O 501.222 -0.512391 -1.94773 0
M  V30 5544 C 498.287 -1.19938 -3.25293 0
M  V30 5545 C 497.348 -2.40001 -3.55946 0
M  V30 5546 C 496.581 -2.23087 -4.84838 0
M  V30 5547 O 496.804 -1.22386 -5.57116 0
M  V30 5548 O 495.738 -3.11646 -5.14937 0
M  V30 5549 H 499.564 -2.3412 -1.93446 0
M  V30 5550 H 497.149 -1.19246 -0.900044 0
M  V30 5551 H 499.031 -1.12093 -4.06218 0
M  V30 5552 H 497.706 -0.265919 -3.22606 0
M  V30 5553 H 496.613 -2.53421 -2.75188 0
M  V30 5554 H 497.946 -3.31973 -3.63394 0
M  V30 5555 N 499.598 0.982988 -1.23187 0
M  V30 5556 C 500.844 1.72648 -1.06398 0
M  V30 5557 C 501.177 1.90066 0.398561 0
M  V30 5558 O 500.452 1.45105 1.29518 0
M  V30 5559 C 500.735 3.12627 -1.78707 0
M  V30 5560 C 500.588 3.02795 -3.32618 0
M  V30 5561 C 501.907 4.11997 -1.54747 0
M  V30 5562 H 499.026 0.626649 -0.387918 0
M  V30 5563 H 501.668 1.14455 -1.51658 0
M  V30 5564 H 499.818 3.62308 -1.40234 0
M  V30 5565 H 501.49 2.60659 -3.80598 0
M  V30 5566 H 499.733 2.39362 -3.61785 0
M  V30 5567 H 500.404 4.01893 -3.78399 0
M  V30 5568 H 502.88 3.71114 -1.88186 0
M  V30 5569 H 501.756 5.08037 -2.07821 0
M  V30 5570 H 502.017 4.39462 -0.482249 0
M  V30 5571 N 501.076 1.04316 1.18135 0
M  V30 5572 C 502.008 0.594444 2.21357 0
M  V30 5573 C 503.021 -0.337215 1.59269 0
M  V30 5574 O 504.21 -0.131337 1.78016 0
M  V30 5575 C 501.31 -0.151251 3.38562 0
M  V30 5576 C 500.483 0.788907 4.30227 0
M  V30 5577 C 499.542 0.0860572 5.2613 0
M  V30 5578 O 498.568 0.717302 5.64662 0
M  V30 5579 N 499.77 -1.17969 5.68387 0
M  V30 5580 H 502.535 1.48227 2.60478 0
M  V30 5581 H 500.096 0.92396 1.32946 0
M  V30 5582 H 502.088 -0.631352 3.99745 0
M  V30 5583 H 500.658 -0.940639 2.98112 0
M  V30 5584 H 499.878 1.44882 3.6661 0
M  V30 5585 H 501.166 1.42738 4.88368 0
M  V30 5586 H 500.564 -1.71302 5.3914 0
M  V30 5587 H 499.121 -1.60402 6.31755 0
M  V30 5588 N 502.554 -1.34406 0.822964 0
M  V30 5589 C 503.779 -2.0304 0.423034 0
M  V30 5590 C 504.204 -1.61568 -0.963196 0
M  V30 5591 O 503.562 -0.800339 -1.62678 0
M  V30 5592 C 503.61 -3.56636 0.53321 0
M  V30 5593 O 502.714 -4.09971 -0.446939 0
M  V30 5594 H 502.055 -0.64075 0.174171 0
M  V30 5595 H 504.585 -1.71653 1.11339 0
M  V30 5596 H 504.595 -4.05945 0.408991 0
M  V30 5597 H 503.27 -3.86168 1.54425 0
M  V30 5598 H 501.847 -3.71835 -0.281601 0
M  V30 5599 N 504.032 -0.577932 -1.46621 0
M  V30 5600 C 505.278 -0.0617793 -2.02706 0
M  V30 5601 C 505.611 1.29294 -1.44903 0
M  V30 5602 O 504.886 1.8461 -0.61232 0
M  V30 5603 C 505.169 0.00911824 -3.60099 0
M  V30 5604 C 505.022 -1.37416 -4.28295 0
M  V30 5605 C 506.341 0.712159 -4.343 0
M  V30 5606 H 503.46 -0.0239246 -0.736612 0
M  V30 5607 H 506.102 -0.744211 -1.74818 0
M  V30 5608 H 504.252 0.590292 -3.83989 0
M  V30 5609 H 505.924 -2.00013 -4.15683 0
M  V30 5610 H 504.167 -1.94319 -3.87843 0
M  V30 5611 H 504.838 -1.27707 -5.37024 0
M  V30 5612 H 507.314 0.218486 -4.15526 0
M  V30 5613 H 506.19 0.730782 -5.44014 0
M  V30 5614 H 506.451 1.77251 -4.05012 0
M  V30 5615 N 505.51 1.54411 -0.315457 0
M  V30 5616 C 506.442 2.21527 0.588067 0
M  V30 5617 C 507.455 1.21263 1.08624 0
M  V30 5618 O 508.644 1.47777 1.00121 0
M  V30 5619 C 505.744 2.85963 1.81875 0
M  V30 5620 C 504.917 4.12291 1.46063 0
M  V30 5621 C 503.976 4.60396 2.54799 0
M  V30 5622 O 503.002 5.25265 2.19283 0
M  V30 5623 N 504.204 4.33935 3.85591 0
M  V30 5624 H 506.969 2.99697 0.013414 0
M  V30 5625 H 504.53 1.61308 -0.138295 0
M  V30 5626 H 506.522 3.15071 2.53993 0
M  V30 5627 H 505.092 2.11548 2.30144 0
M  V30 5628 H 504.312 3.90036 0.571445 0
M  V30 5629 H 505.6 4.9452 1.19695 0
M  V30 5630 H 504.998 3.81996 4.17248 0
M  V30 5631 H 503.555 4.67718 4.53964 0
M  V30 5632 N 506.988 0.0434614 1.5754 0
M  V30 5633 C 508.218 -0.640905 1.96408 0
M  V30 5634 C 508.626 -1.65365 0.919297 0
M  V30 5635 O 507.969 -1.83395 -0.105795 0
M  V30 5636 C 508.031 -1.39141 3.31482 0
M  V30 5637 C 507.695 -0.535375 4.53853 0
M  V30 5638 C 508.692 0.195335 5.19533 0
M  V30 5639 C 506.377 -0.468564 5.0011 0
M  V30 5640 C 508.371 0.981377 6.298 0
M  V30 5641 C 506.058 0.321171 6.10255 0
M  V30 5642 C 507.056 1.04484 6.74961 0
M  V30 5643 O 506.744 1.8216 7.8299 0
M  V30 5644 H 506.476 -0.180584 0.651433 0
M  V30 5645 H 509.03 0.103848 2.05137 0
M  V30 5646 H 507.26 -2.18162 3.19284 0
M  V30 5647 H 508.949 -1.96526 3.55151 0
M  V30 5648 H 509.715 0.15314 4.84758 0
M  V30 5649 H 505.594 -1.02142 4.49542 0
M  V30 5650 H 509.138 1.54674 6.80237 0
M  V30 5651 H 505.035 0.365032 6.44467 0
M  V30 5652 H 505.803 1.74289 7.99728 0
M  V30 5653 N 508.466 -1.55915 -0.229846 0
M  V30 5654 C 509.714 -1.7819 -0.953565 0
M  V30 5655 C 510.035 -0.610504 -1.85197 0
M  V30 5656 O 509.305 0.372988 -1.92316 0
M  V30 5657 H 507.885 -0.657208 -0.355087 0
M  V30 5658 H 510.547 -1.9337 -0.243693 0
M  V30 5659 H 509.643 -2.70011 -1.56527 0
M  V30 5660 N 509.944 0.496216 -1.49584 0
M  V30 5661 C 510.891 1.59722 -1.66606 0
M  V30 5662 C 511.861 1.58158 -0.507477 0
M  V30 5663 O 513.046 1.76072 -0.735076 0
M  V30 5664 C 510.186 2.97844 -1.74308 0
M  V30 5665 C 509.299 3.09388 -3.01502 0
M  V30 5666 C 508.434 4.38271 -3.00153 0
M  V30 5667 C 507.473 4.43466 -4.21906 0
M  V30 5668 N 506.61 5.63784 -4.1844 0
M  V30 5669 H 511.45 1.44515 -2.60613 0
M  V30 5670 H 508.987 0.703048 -1.29212 0
M  V30 5671 H 510.945 3.77907 -1.76754 0
M  V30 5672 H 509.575 3.11743 -0.837619 0
M  V30 5673 H 508.627 2.22357 -3.08645 0
M  V30 5674 H 509.939 3.09085 -3.91494 0
M  V30 5675 H 509.093 5.2666 -3.01188 0
M  V30 5676 H 507.832 4.41146 -2.07947 0
M  V30 5677 H 506.837 3.53478 -4.21109 0
M  V30 5678 H 508.062 4.42303 -5.1531 0
M  V30 5679 H 506.008 5.67491 -3.29074 0
M  V30 5680 H 505.925 5.65118 -5.02173 0
M  V30 5681 H 507.193 6.54367 -4.23585 0
M  V30 5682 N 511.423 1.38739 0.74761 0
M  V30 5683 C 512.333 1.38696 1.89211 0
M  V30 5684 C 513.349 0.283303 1.71678 0
M  V30 5685 O 514.525 0.522713 1.94498 0
M  V30 5686 C 511.59 1.21662 3.24653 0
M  V30 5687 C 510.651 2.41886 3.54669 0
M  V30 5688 C 509.884 2.25655 4.83648 0
M  V30 5689 O 510.107 1.25339 5.56459 0
M  V30 5690 O 509.041 3.14372 5.13277 0
M  V30 5691 H 512.867 2.35143 1.92202 0
M  V30 5692 H 510.452 1.19721 0.893708 0
M  V30 5693 H 512.334 1.14246 4.05618 0
M  V30 5694 H 511.009 0.283024 3.2246 0
M  V30 5695 H 509.916 2.54877 2.73841 0
M  V30 5696 H 511.249 3.33895 3.61628 0
M  V30 5697 N 512.901 -0.976442 1.23707 0
M  V30 5698 C 513.848 -2.06952 1.02174 0
M  V30 5699 C 514.818 -1.65984 -0.0621034 0
M  V30 5700 O 516.003 -1.90584 0.0907906 0
M  V30 5701 C 513.143 -3.39425 0.62327 0
M  V30 5702 C 512.256 -3.9364 1.77966 0
M  V30 5703 C 511.391 -5.14343 1.3276 0
M  V30 5704 C 510.43 -5.60733 2.45449 0
M  V30 5705 N 509.567 -6.72662 2.01172 0
M  V30 5706 H 514.407 -2.24704 1.95734 0
M  V30 5707 H 511.944 -1.10143 0.975034 0
M  V30 5708 H 513.902 -4.15526 0.37332 0
M  V30 5709 H 512.532 -3.21624 -0.275329 0
M  V30 5710 H 511.584 -3.14258 2.14351 0
M  V30 5711 H 512.896 -4.24035 2.62671 0
M  V30 5712 H 512.05 -5.97789 1.03601 0
M  V30 5713 H 510.789 -4.8561 0.450975 0
M  V30 5714 H 509.794 -4.75865 2.75378 0
M  V30 5715 H 511.019 -5.91483 3.33654 0
M  V30 5716 H 508.965 -6.45681 1.15895 0
M  V30 5717 H 508.882 -7.02462 2.79434 0
M  V30 5718 H 510.15 -7.59572 1.75129 0
M  V30 5719 N 514.379 -1.04941 -1.1758 0
M  V30 5720 C 515.342 -0.652456 -2.19717 0
M  V30 5721 C 516.342 0.294745 -1.58076 0
M  V30 5722 O 517.532 0.0789579 -1.74021 0
M  V30 5723 C 514.664 0.0420712 -3.40874 0
M  V30 5724 H 515.857 -1.55642 -2.5635 0
M  V30 5725 H 513.41 -0.842995 -1.31618 0
M  V30 5726 H 514.145 0.95943 -3.09783 0
M  V30 5727 H 513.93 -0.638844 -3.86861 0
M  V30 5728 H 515.42 0.306 -4.16477 0
M  V30 5729 N 515.857 1.33968 -0.830081 0
M  V30 5730 C 516.805 2.31301 -0.245435 0
M  V30 5731 C 517.799 1.57734 0.617762 0
M  V30 5732 O 519.005 1.72674 0.508303 0
M  V30 5733 H 515.38 0.749552 -0.0606316 0
M  V30 5734 H 517.351 2.78129 -1.08105 0
M  V30 5735 C 516.1 3.42961 0.572084 0
M  V30 5736 H 515.423 3.99714 -0.0828118 0
M  V30 5737 H 516.863 4.13286 0.94715 0
M  V30 5738 C 515.322 2.88043 1.74737 0
M  V30 5739 O 515.852 2.83508 2.8458 0
M  V30 5740 N 514.058 2.44768 1.56642 0
M  V30 5741 H 513.605 2.48656 0.672901 0
M  V30 5742 H 513.563 2.08375 2.3543 0
M  V30 5743 N 517.335 0.585699 1.46312 0
M  V30 5744 C 518.282 -0.145835 2.30339 0
M  V30 5745 C 519.252 -0.881215 1.40797 0
M  V30 5746 O 520.437 -0.871293 1.69744 0
M  V30 5747 C 517.577 -1.15161 3.25318 0
M  V30 5748 C 516.69 -0.419367 4.2996 0
M  V30 5749 C 515.825 -1.41293 5.12064 0
M  V30 5750 C 514.864 -0.667261 6.08452 0
M  V30 5751 N 514.001 -1.60903 6.83414 0
M  V30 5752 H 518.841 0.576755 2.92365 0
M  V30 5753 H 516.378 0.296237 1.44086 0
M  V30 5754 H 518.336 -1.74763 3.78832 0
M  V30 5755 H 516.966 -1.84188 2.65094 0
M  V30 5756 H 516.018 0.291751 3.7928 0
M  V30 5757 H 517.33 0.163433 4.98532 0
M  V30 5758 H 516.484 -2.08167 5.6987 0
M  V30 5759 H 515.223 -2.02966 4.43459 0
M  V30 5760 H 514.228 0.0152356 5.49798 0
M  V30 5761 H 515.453 -0.0558817 6.79077 0
M  V30 5762 H 513.399 -2.21381 6.17516 0
M  V30 5763 H 513.316 -1.07911 7.48259 0
M  V30 5764 H 514.584 -2.26802 7.45775 0
M  V30 5765 N 518.813 -1.54241 0.323641 0
M  V30 5766 C 520.09 -1.92741 -0.333181 0
M  V30 5767 C 520.47 -1.25326 -1.69872 0
M  V30 5768 O 519.818 -0.396991 -2.25025 0
M  V30 5769 C 520.028 -3.46399 -0.425322 0
M  V30 5770 C 521.376 -4.19029 -0.68557 0
M  V30 5771 O 522.4 -3.52555 -0.50824 0
M  V30 5772 O 521.259 -5.36751 -1.02767 0
M  V30 5773 H 518.353 -0.804811 -0.190286 0
M  V30 5774 H 520.899 -1.65542 0.373361 0
M  V30 5775 H 519.671 -3.87643 0.533737 0
M  V30 5776 H 519.294 -3.79704 -1.17944 0
M  V30 5777 N 520.291 -0.0518155 -1.57515 0
M  V30 5778 C 521.707 0.304735 -1.56664 0
M  V30 5779 C 521.907 1.71395 -1.05953 0
M  V30 5780 O 520.963 2.42123 -0.716414 0
M  V30 5781 C 522.276 0.132614 -3.00407 0
M  V30 5782 C 523.824 0.20367 -3.12337 0
M  V30 5783 C 524.299 0.0600706 -4.57961 0
M  V30 5784 N 525.79 0.116326 -4.63054 0
M  V30 5785 C 526.525 0.0293363 -5.73392 0
M  V30 5786 N 526.021 -0.110038 -6.92713 0
M  V30 5787 N 527.814 0.0849651 -5.62036 0
M  V30 5788 H 519.965 -0.973056 -1.888 0
M  V30 5789 H 522.228 -0.377781 -0.869474 0
M  V30 5790 H 521.934 -0.839019 -3.41546 0
M  V30 5791 H 521.808 0.893376 -3.66468 0
M  V30 5792 H 524.195 1.16578 -2.71097 0
M  V30 5793 H 524.276 -0.587857 -2.48954 0
M  V30 5794 H 523.92 -0.898715 -4.99886 0
M  V30 5795 H 523.85 0.87075 -5.19351 0
M  V30 5796 H 526.341 0.22327 -3.7724 0
M  V30 5797 H 526.654 -0.169104 -7.72615 0
M  V30 5798 H 524.999 -0.145132 -6.94848 0
M  V30 5799 H 528.19 0.192411 -4.67704 0
M  V30 5800 H 528.363 0.0137131 -6.47999 0
M  V30 5801 N 521.769 1.56035 0.221574 0
M  V30 5802 C 523.015 1.79312 0.947372 0
M  V30 5803 C 523.348 0.621453 1.83988 0
M  V30 5804 O 522.623 -0.379287 1.90766 0
M  V30 5805 C 522.906 3.1267 1.78633 0
M  V30 5806 C 522.759 4.40284 0.920312 0
M  V30 5807 C 524.078 3.4247 2.7641 0
M  V30 5808 H 521.197 0.652328 0.342982 0
M  V30 5809 H 523.839 1.88765 0.216244 0
M  V30 5810 H 521.989 3.04741 2.40967 0
M  V30 5811 H 523.661 4.60232 0.313718 0
M  V30 5812 H 521.904 4.33212 0.225734 0
M  V30 5813 H 522.575 5.30033 1.54171 0
M  V30 5814 H 525.051 3.50526 2.24211 0
M  V30 5815 H 523.927 4.3695 3.32213 0
M  V30 5816 H 524.188 2.64635 3.54148 0
M  V30 5817 N 523.247 -0.488276 1.49845 0
M  V30 5818 C 524.494 -1.24157 1.59973 0
M  V30 5819 C 524.822 -1.92293 0.292182 0
M  V30 5820 O 524.077 -1.81942 -0.720813 0
M  V30 5821 C 524.376 -2.32152 2.71735 0
M  V30 5822 C 524.042 -1.81387 4.12807 0
M  V30 5823 C 522.704 -1.67262 4.51195 0
M  V30 5824 C 525.056 -1.43537 5.01045 0
M  V30 5825 C 522.384 -1.13685 5.7558 0
M  V30 5826 C 524.736 -0.914081 6.25961 0
M  V30 5827 C 523.4 -0.759327 6.63167 0
M  V30 5828 H 522.67 -0.454322 0.585383 0
M  V30 5829 H 525.317 -0.540261 1.83721 0
M  V30 5830 H 523.622 -3.08122 2.42008 0
M  V30 5831 H 525.319 -2.90164 2.76778 0
M  V30 5832 H 521.909 -1.93344 3.82513 0
M  V30 5833 H 526.093 -1.53292 4.72033 0
M  V30 5834 H 521.349 -1.00426 6.03096 0
M  V30 5835 H 525.523 -0.612066 6.93705 0
M  V30 5836 H 523.15 -0.342002 7.5943 0
M  V30 5837 N 524.725 -1.39134 -0.740242 0
M  V30 5838 C 525.688 -1.37217 -1.83587 0
M  V30 5839 C 526.688 -0.270221 -1.58513 0
M  V30 5840 O 527.878 -0.527843 -1.6601 0
M  V30 5841 C 525.01 -1.13959 -3.21288 0
M  V30 5842 H 526.203 -2.34705 -1.86691 0
M  V30 5843 H 523.756 -1.24622 -0.94335 0
M  V30 5844 H 524.491 -0.17131 -3.23847 0
M  V30 5845 H 524.276 -1.93754 -3.40884 0
M  V30 5846 H 525.766 -1.15346 -4.01354 0
M  V30 5847 N 526.204 0.969867 -1.24223 0
M  V30 5848 C 527.62 1.23809 -1.00716 0
M  V30 5849 C 527.82 1.99469 0.285358 0
M  V30 5850 O 526.876 2.31764 1.00207 0
M  V30 5851 C 528.189 2.02734 -2.2208 0
M  V30 5852 C 529.737 2.15834 -2.26681 0
M  V30 5853 C 530.212 2.98154 -3.47661 0
M  V30 5854 N 531.703 3.05737 -3.47964 0
M  V30 5855 C 532.438 3.69785 -4.38231 0
M  V30 5856 N 531.934 4.35569 -5.3875 0
M  V30 5857 N 533.727 3.66775 -4.25949 0
M  V30 5858 H 525.878 0.463294 -2.07286 0
M  V30 5859 H 528.141 0.267348 -0.909521 0
M  V30 5860 H 527.847 1.54524 -3.15935 0
M  V30 5861 H 527.721 3.0347 -2.24021 0
M  V30 5862 H 530.108 2.63248 -1.33359 0
M  V30 5863 H 530.189 1.14453 -2.28767 0
M  V30 5864 H 529.833 2.51435 -4.41297 0
M  V30 5865 H 529.763 3.99729 -3.42818 0
M  V30 5866 H 532.254 2.58941 -2.75242 0
M  V30 5867 H 532.567 4.82251 -6.03866 0
M  V30 5868 H 530.912 4.34244 -5.42639 0
M  V30 5869 H 534.103 3.14558 -3.46657 0
M  V30 5870 H 534.276 4.16407 -4.96497 0
M  V30 5871 N 527.682 1.05563 1.17022 0
M  V30 5872 C 528.907 0.788437 1.91829 0
M  V30 5873 C 529.332 -0.650356 1.76499 0
M  V30 5874 O 528.69 -1.45229 1.08527 0
M  V30 5875 C 528.738 1.1786 3.40795 0
M  V30 5876 O 527.842 0.312965 4.11211 0
M  V30 5877 H 527.183 0.288794 0.597908 0
M  V30 5878 H 529.713 1.40948 1.48307 0
M  V30 5879 H 529.723 1.14697 3.91546 0
M  V30 5880 H 528.398 2.22666 3.51273 0
M  V30 5881 H 526.975 0.405515 3.70689 0
M  V30 5882 N 529.16 -1.33526 0.837174 0
M  V30 5883 C 530.571 -1.80182 0.489017 0
M  V30 5884 C 530.922 -1.69285 -0.991826 0
M  V30 5885 O 530.047 -1.24113 -1.77271 0
M  V30 5886 C 530.642 -3.27149 0.880866 0
M  V30 5887 C 529.201 -3.71828 0.584872 0
M  V30 5888 C 528.348 -2.54974 1.09011 0
M  V30 5889 H 531.299 -1.21071 1.02603 0
M  V30 5890 H 531.32 -3.80024 0.190239 0
M  V30 5891 H 530.832 -3.35048 1.95869 0
M  V30 5892 H 528.933 -3.69457 -0.48295 0
M  V30 5893 H 529.046 -4.65366 1.13892 0
M  V30 5894 H 527.41 -2.4952 0.511047 0
M  V30 5895 H 528.193 -2.65637 2.17467 0
M  V30 5896 N 530.638 -0.59345 -1.46 0
M  V30 5897 C 531.863 -0.0872365 -2.07216 0
M  V30 5898 C 532.288 1.2131 -1.43755 0
M  V30 5899 O 531.646 1.73528 -0.525152 0
M  V30 5900 C 531.694 0.0538197 -3.6056 0
M  V30 5901 O 530.798 1.10765 -3.97247 0
M  V30 5902 H 530.139 -0.0676598 -0.660544 0
M  V30 5903 H 532.669 -0.819445 -1.87473 0
M  V30 5904 H 532.679 0.256567 -4.07193 0
M  V30 5905 H 531.354 -0.895739 -4.0614 0
M  V30 5906 H 529.931 0.882501 -3.62307 0
M  V30 5907 N 532.116 1.54067 -0.331816 0
M  V30 5908 C 533.063 2.24623 0.530372 0
M  V30 5909 C 534.033 1.24009 1.10503 0
M  V30 5910 O 535.218 1.52712 1.14384 0
M  V30 5911 C 532.358 3.01374 1.68129 0
M  V30 5912 C 531.471 4.16821 1.13507 0
M  V30 5913 C 530.606 4.81085 2.25234 0
M  V30 5914 C 529.645 5.88621 1.67903 0
M  V30 5915 N 528.782 6.46713 2.73326 0
M  V30 5916 H 533.622 2.97898 -0.0778607 0
M  V30 5917 H 531.159 1.47014 -0.0501965 0
M  V30 5918 H 533.117 3.44125 2.35868 0
M  V30 5919 H 531.747 2.30419 2.26069 0
M  V30 5920 H 530.799 3.78796 0.348979 0
M  V30 5921 H 532.111 4.94203 0.675633 0
M  V30 5922 H 531.265 5.26846 3.00862 0
M  V30 5923 H 530.004 4.03102 2.74518 0
M  V30 5924 H 529.009 5.42254 0.907773 0
M  V30 5925 H 530.234 6.68506 1.19487 0
M  V30 5926 H 528.18 5.71599 3.21886 0
M  V30 5927 H 528.097 7.19532 2.3197 0
M  V30 5928 H 529.365 6.97129 3.48758 0
M  V30 5929 N 533.594 0.0601682 1.57485 0
M  V30 5930 C 535.005 -0.474217 1.80577 0
M  V30 5931 C 535.356 -1.70365 0.973147 0
M  V30 5932 O 534.481 -2.15544 0.192306 0
M  V30 5933 C 535.076 -0.867102 3.27516 0
M  V30 5934 C 533.635 -1.34642 3.51495 0
M  V30 5935 C 532.782 -0.32594 2.75378 0
M  V30 5936 H 535.733 0.285973 1.56102 0
M  V30 5937 H 535.754 -1.72938 3.38929 0
M  V30 5938 H 535.266 0.0278927 3.8809 0
M  V30 5939 H 533.367 -2.2603 2.96212 0
M  V30 5940 H 533.48 -1.33237 4.60201 0
M  V30 5941 H 531.844 -0.800749 2.41785 0
M  V30 5942 H 532.627 0.561125 3.38683 0
M  V30 5943 N 535.072 -1.5615 -0.213296 0
M  V30 5944 C 536.002 -1.96109 -1.26742 0
M  V30 5945 C 536.983 -0.830448 -1.48451 0
M  V30 5946 O 538.168 -1.09339 -1.60495 0
M  V30 5947 C 535.298 -2.28492 -2.61551 0
M  V30 5948 C 534.252 -3.44124 -2.54485 0
M  V30 5949 C 533.578 -3.62134 -3.93399 0
M  V30 5950 C 534.878 -4.78855 -2.08556 0
M  V30 5951 H 536.572 -2.84412 -0.935434 0
M  V30 5952 H 534.118 -1.36836 -0.44854 0
M  V30 5953 H 536.071 -2.55039 -3.3546 0
M  V30 5954 H 534.795 -1.37052 -2.96453 0
M  V30 5955 H 533.454 -3.17639 -1.83033 0
M  V30 5956 H 533.102 -2.68055 -4.25623 0
M  V30 5957 H 532.802 -4.39913 -3.89551 0
M  V30 5958 H 534.326 -3.91038 -4.68958 0
M  V30 5959 H 535.74 -5.04552 -2.72213 0
M  V30 5960 H 534.137 -5.59975 -2.1575 0
M  V30 5961 H 535.207 -4.73657 -1.03811 0
M  V30 5962 N 536.55 0.480323 -1.50102 0
M  V30 5963 C 537.513 1.56181 -1.6775 0
M  V30 5964 C 538.513 1.51156 -0.548503 0
M  V30 5965 O 539.703 1.5394 -0.815363 0
M  V30 5966 C 536.835 2.95823 -1.69415 0
M  V30 5967 H 538.028 1.41855 -2.6423 0
M  V30 5968 H 535.581 0.70605 -1.39444 0
M  V30 5969 H 536.316 3.15604 -0.745948 0
M  V30 5970 H 536.101 3.00878 -2.51425 0
M  V30 5971 H 537.591 3.74359 -1.85054 0
M  V30 5972 N 538.028 1.39524 0.732853 0
M  V30 5973 C 539.444 1.21176 1.03868 0
M  V30 5974 C 539.644 0.0748448 2.01361 0
M  V30 5975 O 538.7 -0.57281 2.45917 0
M  V30 5976 C 540.013 2.54667 1.59892 0
M  V30 5977 C 541.561 2.6153 1.71962 0
M  V30 5978 C 542.036 3.95248 2.31394 0
M  V30 5979 N 543.527 3.96899 2.38801 0
M  V30 5980 C 544.262 4.97138 2.85729 0
M  V30 5981 N 543.758 6.07775 3.32537 0
M  V30 5982 N 545.551 4.84516 2.84957 0
M  V30 5983 H 537.702 2.12225 0.086304 0
M  V30 5984 H 539.965 0.942614 0.100907 0
M  V30 5985 H 539.671 3.38423 0.95721 0
M  V30 5986 H 539.545 2.74538 2.58668 0
M  V30 5987 H 541.932 1.78156 2.35254 0
M  V30 5988 H 542.013 2.45507 0.718327 0
M  V30 5989 H 541.657 4.79054 1.68729 0
M  V30 5990 H 541.587 4.08593 3.32204 0
M  V30 5991 H 544.078 3.16998 2.05719 0
M  V30 5992 H 544.391 6.8017 3.66862 0
M  V30 5993 H 542.736 6.11366 3.30541 0
M  V30 5994 H 545.927 3.97185 2.47713 0
M  V30 5995 H 546.1 5.62783 3.21215 0
M  V30 5996 N 539.506 -0.963266 1.24736 0
M  V30 5997 C 540.453 -2.05857 1.04363 0
M  V30 5998 C 541.423 -1.6604 -0.0444951 0
M  V30 5999 O 542.608 -1.90477 0.110999 0
M  V30 6000 C 539.748 -3.38745 0.659235 0
M  V30 6001 C 538.861 -3.9173 1.82131 0
M  V30 6002 C 537.996 -5.12906 1.38208 0
M  V30 6003 C 537.035 -5.58098 2.51382 0
M  V30 6004 N 536.172 -6.7049 2.08295 0
M  V30 6005 H 541.012 -2.22616 1.98107 0
M  V30 6006 H 538.549 -1.09103 0.986661 0
M  V30 6007 H 540.507 -4.15107 0.417371 0
M  V30 6008 H 539.137 -3.21898 -0.241201 0
M  V30 6009 H 538.189 -3.11966 2.17672 0
M  V30 6010 H 539.501 -4.21225 2.67153 0
M  V30 6011 H 538.655 -5.96657 1.09935 0
M  V30 6012 H 537.394 -4.85105 0.502456 0
M  V30 6013 H 536.399 -4.72917 2.80409 0
M  V30 6014 H 537.624 -5.87911 3.39909 0
M  V30 6015 H 535.57 -6.44416 1.22737 0
M  V30 6016 H 535.487 -6.99458 2.86869 0
M  V30 6017 H 536.755 -7.57672 1.83175 0
M  V30 6018 N 540.985 -1.06182 -1.16461 0
M  V30 6019 C 541.915 -0.692861 -2.22984 0
M  V30 6020 C 542.896 0.314122 -1.67174 0
M  V30 6021 O 544.081 0.189499 -1.93273 0
M  V30 6022 C 541.211 -0.07732 -3.47214 0
M  V30 6023 C 540.165 -1.01015 -4.15909 0
M  V30 6024 C 539.491 -0.257973 -5.34077 0
M  V30 6025 C 540.791 -2.33868 -4.67015 0
M  V30 6026 H 542.485 -1.58343 -2.54102 0
M  V30 6027 H 540.031 -0.76279 -1.22137 0
M  V30 6028 H 541.984 0.19266 -4.20959 0
M  V30 6029 H 540.708 0.848254 -3.15392 0
M  V30 6030 H 539.367 -1.26486 -3.44088 0
M  V30 6031 H 539.015 0.670684 -4.98509 0
M  V30 6032 H 538.715 -0.879638 -5.80979 0
M  V30 6033 H 540.239 0.00448788 -6.106 0
M  V30 6034 H 541.653 -2.1279 -5.32347 0
M  V30 6035 H 540.05 -2.91522 -5.24533 0
M  V30 6036 H 541.12 -2.97019 -3.83286 0
M  V30 6037 N 542.463 1.3308 -0.844243 0
M  V30 6038 C 543.396 2.27075 -0.226279 0
M  V30 6039 C 544.374 1.49911 0.629716 0
M  V30 6040 O 545.558 1.79068 0.588803 0
M  V30 6041 C 542.685 3.31767 0.681782 0
M  V30 6042 C 541.731 4.26384 -0.0994565 0
M  V30 6043 S 542.564 5.15186 -1.46094 0
M  V30 6044 C 543.72 6.23405 -0.558319 0
M  V30 6045 H 543.953 2.79141 -1.02312 0
M  V30 6046 H 541.486 1.40452 -0.641292 0
M  V30 6047 H 543.444 3.92566 1.20008 0
M  V30 6048 H 542.105 2.78507 1.45234 0
M  V30 6049 H 541.298 5.00514 0.591733 0
M  V30 6050 H 540.9 3.69949 -0.548991 0
M  V30 6051 H 543.192 6.77069 0.241672 0
M  V30 6052 H 544.135 6.96619 -1.26995 0
M  V30 6053 H 544.543 5.64333 -0.13728 0
M  V30 6054 N 543.941 0.601185 1.45683 0
M  V30 6055 C 545.218 0.0261659 1.95582 0
M  V30 6056 C 545.598 -1.4399 1.5437 0
M  V30 6057 O 544.946 -2.13919 0.80318 0
M  V30 6058 C 545.156 0.217557 3.48321 0
M  V30 6059 C 546.504 0.0950076 4.24494 0
M  V30 6060 O 547.528 0.147345 3.55895 0
M  V30 6061 O 546.387 -0.025261 5.46494 0
M  V30 6062 H 543.481 -0.0393688 0.826062 0
M  V30 6063 H 546.027 0.670798 1.55879 0
M  V30 6064 H 544.799 1.23601 3.71266 0
M  V30 6065 H 544.422 -0.46264 3.94899 0
M  V30 6066 N 545.419 -1.53889 0.339982 0
M  V30 6067 C 546.665 -2.01849 -0.250694 0
M  V30 6068 C 547.02 -1.22356 -1.48482 0
M  V30 6069 O 546.313 -0.301906 -1.89206 0
M  V30 6070 C 546.507 -3.51968 -0.620735 0
M  V30 6071 C 546.336 -4.45996 0.575981 0
M  V30 6072 C 545.106 -4.93619 1.08019 0
M  V30 6073 C 547.304 -4.93923 1.43332 0
M  V30 6074 N 545.286 -5.7159 2.2396 0
M  V30 6075 C 546.657 -5.69982 2.43969 0
M  V30 6076 C 548.712 -4.76038 1.45918 0
M  V30 6077 C 547.415 -6.30057 3.47016 0
M  V30 6078 C 549.441 -5.36961 2.47845 0
M  V30 6079 C 548.803 -6.12884 3.47208 0
M  V30 6080 H 544.902 -0.780054 -0.0551368 0
M  V30 6081 H 547.486 -1.88722 0.478741 0
M  V30 6082 H 545.657 -3.65308 -1.31928 0
M  V30 6083 H 547.389 -3.86677 -1.19429 0
M  V30 6084 H 544.144 -4.69134 0.64884 0
M  V30 6085 H 544.568 -6.15247 2.82489 0
M  V30 6086 H 549.21 -4.16887 0.704608 0
M  V30 6087 H 546.928 -6.88319 4.23371 0
M  V30 6088 H 550.514 -5.2503 2.50668 0
M  V30 6089 H 549.394 -6.59187 4.24785 0
M  V30 6090 N 546.897 -0.0685191 -1.57451 0
M  V30 6091 C 547.807 0.914677 -2.16034 0
M  V30 6092 C 548.823 1.32938 -1.12265 0
M  V30 6093 O 549.999 1.40275 -1.44516 0
M  V30 6094 C 547.064 2.16519 -2.70777 0
M  V30 6095 C 546.125 1.80721 -3.89408 0
M  V30 6096 C 545.358 2.9981 -4.41531 0
M  V30 6097 O 545.581 4.13727 -3.92666 0
M  V30 6098 O 544.515 2.79817 -5.32903 0
M  V30 6099 H 548.341 0.446364 -3.00402 0
M  V30 6100 H 545.926 0.154367 -1.486 0
M  V30 6101 H 547.808 2.89856 -3.05878 0
M  V30 6102 H 546.483 2.62454 -1.89471 0
M  V30 6103 H 545.39 1.04646 -3.59166 0
M  V30 6104 H 546.723 1.39571 -4.71997 0
M  V30 6105 N 548.375 1.56261 0.205012 0
M  V30 6106 C 549.621 1.80306 0.9283 0
M  V30 6107 C 549.954 0.640932 1.83319 0
M  V30 6108 O 549.229 -0.359032 1.91158 0
M  V30 6109 C 549.512 3.14547 1.75306 0
M  V30 6110 C 549.365 4.41236 0.873562 0
M  V30 6111 C 550.684 3.45382 2.72762 0
M  V30 6112 H 547.803 0.655929 0.336044 0
M  V30 6113 H 550.445 1.88984 0.196211 0
M  V30 6114 H 548.595 3.0728 2.37721 0
M  V30 6115 H 550.267 4.60539 0.264887 0
M  V30 6116 H 548.51 4.33427 0.179773 0
M  V30 6117 H 549.181 5.31639 1.48541 0
M  V30 6118 H 551.657 3.52884 2.20481 0
M  V30 6119 H 550.533 4.40449 3.2756 0
M  V30 6120 H 550.794 2.68377 3.51321 0
M  V30 6121 N 549.853 -0.472356 1.50355 0
M  V30 6122 C 551.099 -1.22634 1.6152 0
M  V30 6123 C 551.432 -1.91645 0.313995 0
M  V30 6124 O 550.707 -1.82059 -0.684446 0
M  V30 6125 C 550.99 -2.27099 2.7946 0
M  V30 6126 C 550.843 -1.62402 4.19459 0
M  V30 6127 C 552.162 -3.28421 2.92964 0
M  V30 6128 H 549.281 -0.444494 0.587873 0
M  V30 6129 H 551.923 -0.520321 1.82737 0
M  V30 6130 H 550.073 -2.87314 2.61501 0
M  V30 6131 H 551.745 -1.05793 4.49005 0
M  V30 6132 H 549.988 -0.927184 4.23776 0
M  V30 6133 H 550.659 -2.38309 4.97909 0
M  V30 6134 H 553.135 -2.78227 3.09401 0
M  V30 6135 H 552.011 -3.98845 3.77113 0
M  V30 6136 H 552.272 -3.92467 2.03525 0
M  V30 6137 N 551.331 -1.39911 -0.725443 0
M  V30 6138 C 552.556 -1.41137 -1.5197 0
M  V30 6139 C 552.981 -0.010262 -1.88097 0
M  V30 6140 O 552.339 0.979184 -1.52583 0
M  V30 6141 C 552.387 -2.2994 -2.77777 0
M  V30 6142 O 551.491 -1.73586 -3.74088 0
M  V30 6143 H 550.832 -0.480219 -0.458569 0
M  V30 6144 H 553.362 -1.84023 -0.894249 0
M  V30 6145 H 553.372 -2.44785 -3.26411 0
M  V30 6146 H 552.047 -3.31759 -2.50816 0
M  V30 6147 H 550.624 -1.68035 -3.32894 0
M  V30 6148 N 552.809 0.956637 -1.25245 0
M  V30 6149 C 554.225 1.22733 -1.02023 0
M  V30 6150 C 554.425 1.99761 0.264186 0
M  V30 6151 O 553.481 2.32814 0.977436 0
M  V30 6152 C 554.794 2.00367 -2.24217 0
M  V30 6153 C 556.342 2.13418 -2.28958 0
M  V30 6154 C 556.817 2.9445 -3.50803 0
M  V30 6155 N 558.308 3.02029 -3.51187 0
M  V30 6156 C 559.043 3.65116 -4.42129 0
M  V30 6157 N 558.539 4.2983 -5.43339 0
M  V30 6158 N 560.332 3.62237 -4.29815 0
M  V30 6159 H 552.483 0.441282 -2.07765 0
M  V30 6160 H 554.746 0.257686 -0.912306 0
M  V30 6161 H 554.452 1.51165 -3.17556 0
M  V30 6162 H 554.326 3.01077 -2.27228 0
M  V30 6163 H 556.713 2.61819 -1.36143 0
M  V30 6164 H 556.794 1.1202 -2.29968 0
M  V30 6165 H 556.438 2.46741 -4.43939 0
M  V30 6166 H 556.368 3.9607 -3.47039 0
M  V30 6167 H 558.859 2.56007 -2.77973 0
M  V30 6168 H 559.172 4.75819 -6.08947 0
M  V30 6169 H 557.517 4.28465 -5.47214 0
M  V30 6170 H 560.708 3.10863 -3.49974 0
M  V30 6171 H 560.881 4.11117 -5.00886 0
M  V30 6172 N 554.287 1.06798 1.15896 0
M  V30 6173 C 555.235 0.677525 2.22514 0
M  V30 6174 C 556.229 -0.308994 1.66558 0
M  V30 6175 O 557.435 -0.173308 1.79164 0
M  V30 6176 H 553.81 0.200994 0.724642 0
M  V30 6177 H 555.781 1.5865 2.52731 0
M  V30 6178 C 554.53 0.0854153 3.47595 0
M  V30 6179 H 553.853 0.835645 3.90969 0
M  V30 6180 H 555.293 -0.150199 4.23734 0
M  V30 6181 C 553.752 -1.1724 3.15843 0
M  V30 6182 O 554.282 -2.25965 3.32119 0
M  V30 6183 N 552.488 -1.07636 2.69931 0
M  V30 6184 H 552.035 -0.191559 2.56887 0
M  V30 6185 H 551.993 -1.91876 2.4906 0
M  V30 6186 N 555.766 -1.3263 0.851289 0
M  V30 6187 C 556.991 -2.02097 0.466006 0
M  V30 6188 C 557.416 -1.63574 -0.928709 0
M  V30 6189 O 556.774 -0.834665 -1.60944 0
M  V30 6190 C 556.822 -3.55425 0.608737 0
M  V30 6191 O 555.926 -4.10827 -0.359878 0
M  V30 6192 H 555.267 -0.636911 0.187724 0
M  V30 6193 H 557.797 -1.69253 1.14955 0
M  V30 6194 H 557.807 -4.04986 0.495006 0
M  V30 6195 H 556.482 -3.82806 1.62581 0
M  V30 6196 H 555.059 -3.72349 -0.202666 0
M  V30 6197 N 557.244 -0.608902 -1.45362 0
M  V30 6198 C 558.493 -0.10218 -2.01441 0
M  V30 6199 C 558.806 1.27546 -1.48295 0
M  V30 6200 O 560.012 1.87498 -1.96359 0
M  V30 6201 C 558.468 -0.131985 -3.59658 0
M  V30 6202 C 558.076 -1.50956 -4.21801 0
M  V30 6203 C 559.82 0.319427 -4.23296 0
M  V30 6204 C 557.727 -1.49568 -5.72174 0
M  V30 6205 H 556.657 -0.0344314 -0.753213 0
M  V30 6206 H 559.308 -0.764426 -1.6682 0
M  V30 6207 H 557.69 0.596939 -3.91475 0
M  V30 6208 H 558.864 -2.26029 -4.01556 0
M  V30 6209 H 557.179 -1.90318 -3.70362 0
M  V30 6210 H 559.776 0.349013 -5.3356 0
M  V30 6211 H 560.119 1.34237 -3.94064 0
M  V30 6212 H 560.652 -0.356273 -3.96201 0
M  V30 6213 H 557.391 -2.49626 -6.06108 0
M  V30 6214 H 556.911 -0.787542 -5.94607 0
M  V30 6215 H 558.59 -1.21989 -6.35396 0
M  V30 6216 N 558.722 1.53707 -0.348139 0
M  V30 6217 C 559.947 2.05877 0.250883 0
M  V30 6218 C 560.372 1.22115 1.43072 0
M  V30 6219 O 559.73 0.235986 1.79758 0
M  V30 6220 C 559.778 3.54886 0.639416 0
M  V30 6221 O 558.882 3.73948 1.73888 0
M  V30 6222 H 558.223 0.662754 0.040653 0
M  V30 6223 H 560.753 1.98303 -0.503685 0
M  V30 6224 H 560.763 3.97601 0.915295 0
M  V30 6225 H 559.438 4.153 -0.223386 0
M  V30 6226 H 558.015 3.43134 1.45991 0
M  V30 6227 N 560.2 0.0768682 1.57412 0
M  V30 6228 C 561.477 -0.632359 1.85096 0
M  V30 6229 C 561.857 -1.87479 0.9703 0
M  V30 6230 O 561.205 -2.28469 0.0379062 0
M  V30 6231 C 561.415 -0.965174 3.35388 0
M  V30 6232 C 562.763 -1.33648 4.03018 0
M  V30 6233 O 563.787 -1.05675 3.40164 0
M  V30 6234 O 562.646 -1.85959 5.13889 0
M  V30 6235 H 559.74 -0.314574 0.764835 0
M  V30 6236 H 562.286 0.108184 1.69355 0
M  V30 6237 H 561.058 -0.0829745 3.91212 0
M  V30 6238 H 560.681 -1.76231 3.5641 0
M  V30 6239 N 561.678 -1.56367 -0.196722 0
M  V30 6240 C 562.955 -1.71359 -0.943159 0
M  V30 6241 C 563.335 -0.631192 -2.01443 0
M  V30 6242 O 562.683 0.358071 -2.25677 0
M  V30 6243 C 562.893 -3.13623 -1.53106 0
M  V30 6244 C 564.241 -3.73806 -2.01381 0
M  V30 6245 O 565.265 -3.16742 -1.62951 0
M  V30 6246 O 564.124 -4.73951 -2.7209 0
M  V30 6247 H 561.218 -0.698851 -0.442195 0
M  V30 6248 H 563.764 -1.68672 -0.186547 0
M  V30 6249 H 562.536 -3.83873 -0.758785 0
M  V30 6250 H 562.159 -3.20532 -2.35255 0
M  V30 6251 N 563.156 0.464375 -1.50603 0
M  V30 6252 C 564.572 0.798684 -1.38178 0
M  V30 6253 C 564.772 1.96568 -0.44308 0
M  V30 6254 O 563.828 2.52252 0.111814 0
M  V30 6255 C 565.141 1.10444 -2.79683 0
M  V30 6256 C 566.689 1.2105 -2.88645 0
M  V30 6257 C 567.164 1.54934 -4.30998 0
M  V30 6258 N 568.655 1.61913 -4.3398 0
M  V30 6259 C 569.39 1.8965 -5.41129 0
M  V30 6260 N 568.886 2.15361 -6.58477 0
M  V30 6261 N 570.679 1.91207 -5.28579 0
M  V30 6262 H 562.83 -0.304603 -2.10204 0
M  V30 6263 H 565.093 -0.0737804 -0.945125 0
M  V30 6264 H 564.799 0.319934 -3.50242 0
M  V30 6265 H 564.673 2.03896 -3.17342 0
M  V30 6266 H 567.06 1.98567 -2.18301 0
M  V30 6267 H 567.141 0.255613 -2.5452 0
M  V30 6268 H 566.785 0.779549 -5.01882 0
M  V30 6269 H 566.715 2.51584 -4.62615 0
M  V30 6270 H 569.206 1.44055 -3.49366 0
M  V30 6271 H 569.519 2.35818 -7.35941 0
M  V30 6272 H 567.864 2.1274 -6.6164 0
M  V30 6273 H 571.055 1.70622 -4.35897 0
M  V30 6274 H 571.228 2.12488 -6.12171 0
M  V30 6275 N 564.634 1.40294 0.718013 0
M  V30 6276 C 565.564 1.43118 1.84498 0
M  V30 6277 C 566.545 0.292403 1.67568 0
M  V30 6278 O 567.73 0.500675 1.87635 0
M  V30 6279 C 564.86 1.29065 3.22427 0
M  V30 6280 C 563.814 2.40521 3.54025 0
M  V30 6281 C 563.14 2.11546 4.91073 0
M  V30 6282 C 564.44 3.82859 3.55269 0
M  V30 6283 H 566.134 2.37432 1.82391 0
M  V30 6284 H 563.68 1.14283 0.87609 0
M  V30 6285 H 565.633 1.29658 4.00957 0
M  V30 6286 H 564.357 0.312271 3.25104 0
M  V30 6287 H 563.016 2.39173 2.77834 0
M  V30 6288 H 562.664 1.12104 4.90348 0
M  V30 6289 H 562.364 2.86216 5.1318 0
M  V30 6290 H 563.888 2.13817 5.71939 0
M  V30 6291 H 565.302 3.86044 4.23843 0
M  V30 6292 H 563.699 4.57029 3.88902 0
M  V30 6293 H 564.769 4.12617 2.54706 0
M  V30 6294 N 566.112 -0.949982 1.2575 0
M  V30 6295 C 567.022 -2.08109 1.08295 0
M  V30 6296 C 568.038 -1.7399 0.0188181 0
M  V30 6297 O 569.214 -2.00187 0.220724 0
M  V30 6298 C 566.279 -3.39383 0.708534 0
M  V30 6299 C 565.34 -3.8734 1.85111 0
M  V30 6300 C 564.573 -5.12349 1.49447 0
M  V30 6301 O 564.796 -5.6905 0.392212 0
M  V30 6302 O 563.73 -5.5513 2.32624 0
M  V30 6303 H 567.556 -2.25738 2.03165 0
M  V30 6304 H 565.141 -1.06545 1.04731 0
M  V30 6305 H 567.023 -4.18277 0.512061 0
M  V30 6306 H 565.698 -3.23013 -0.210854 0
M  V30 6307 H 564.605 -3.09429 2.10248 0
M  V30 6308 H 565.938 -4.08216 2.74991 0
M  V30 6309 N 567.59 -1.07411 -1.15328 0
M  V30 6310 C 568.818 -0.818782 -1.90009 0
M  V30 6311 C 569.233 0.628072 -1.78047 0
M  V30 6312 O 568.59 1.43085 -1.13282 0
M  V30 6313 C 568.641 -1.21874 -3.40337 0
M  V30 6314 O 568.362 -2.60883 -3.51954 0
M  V30 6315 C 569.863 -0.992796 -4.3204 0
M  V30 6316 H 567.083 -0.296007 -0.60218 0
M  V30 6317 H 569.627 -1.43073 -1.46117 0
M  V30 6318 H 567.782 -0.651103 -3.81889 0
M  V30 6319 H 568.196 -2.77216 -4.45255 0
M  V30 6320 H 569.67 -1.32215 -5.35932 0
M  V30 6321 H 570.147 0.0708331 -4.39143 0
M  V30 6322 H 570.753 -1.54537 -3.9623 0
M  V30 6323 N 569.068 1.32177 -0.85831 0
M  V30 6324 C 570 2.27688 -0.262835 0
M  V30 6325 C 571.013 1.52588 0.567513 0
M  V30 6326 O 572.202 1.74156 0.391407 0
M  V30 6327 C 569.302 3.32668 0.646937 0
M  V30 6328 C 568.475 4.37148 -0.148372 0
M  V30 6329 C 567.534 5.21686 0.687728 0
M  V30 6330 O 566.56 5.69074 0.119934 0
M  V30 6331 N 567.762 5.44892 2.00182 0
M  V30 6332 H 570.527 2.79426 -1.08356 0
M  V30 6333 H 568.088 1.45076 -0.718647 0
M  V30 6334 H 570.08 3.86134 1.2117 0
M  V30 6335 H 568.65 2.81061 1.36834 0
M  V30 6336 H 567.87 3.83915 -0.894572 0
M  V30 6337 H 569.158 5.04038 -0.694514 0
M  V30 6338 H 568.556 5.08128 2.4864 0
M  V30 6339 H 567.113 6.0134 2.51463 0
M  V30 6340 N 570.547 0.616602 1.45037 0
M  V30 6341 C 571.772 0.120192 2.07051 0
M  V30 6342 C 572.197 -1.19008 1.45666 0
M  V30 6343 O 571.555 -1.7267 0.552692 0
M  V30 6344 C 571.603 0.00354901 3.606 0
M  V30 6345 O 570.707 -1.04431 3.98958 0
M  V30 6346 H 570.048 0.0781599 0.659384 0
M  V30 6347 H 572.578 0.849167 1.86146 0
M  V30 6348 H 572.588 -0.191754 4.07549 0
M  V30 6349 H 571.263 0.960239 4.04663 0
M  V30 6350 H 569.84 -0.824749 3.63665 0
M  V30 6351 N 572.025 -1.5352 0.356285 0
M  V30 6352 C 572.955 -2.28372 -0.486661 0
M  V30 6353 C 573.936 -1.30432 -1.09185 0
M  V30 6354 O 575.121 -1.59291 -1.11085 0
M  V30 6355 C 572.251 -3.06604 -1.63129 0
M  V30 6356 C 571.205 -4.12154 -1.15381 0
M  V30 6357 C 570.531 -4.78415 -2.38796 0
M  V30 6358 C 571.831 -5.21724 -0.245179 0
M  V30 6359 H 573.525 -2.99083 0.137797 0
M  V30 6360 H 571.071 -1.43841 0.0677134 0
M  V30 6361 H 573.024 -3.57712 -2.22755 0
M  V30 6362 H 571.748 -2.33568 -2.28284 0
M  V30 6363 H 570.407 -3.61978 -0.580294 0
M  V30 6364 H 570.055 -4.01959 -3.02387 0
M  V30 6365 H 569.755 -5.49734 -2.07524 0
M  V30 6366 H 571.279 -5.32313 -2.99125 0
M  V30 6367 H 572.693 -5.68391 -0.748646 0
M  V30 6368 H 571.09 -6.00095 -0.0237608 0
M  V30 6369 H 572.16 -4.79596 0.715229 0
M  V30 6370 N 573.503 -0.0852151 -1.57369 0
M  V30 6371 C 574.914 0.445428 -1.81309 0
M  V30 6372 C 575.265 1.68795 -1.00013 0
M  V30 6373 O 574.39 2.15211 -0.226573 0
M  V30 6374 C 574.985 0.814887 -3.28854 0
M  V30 6375 C 573.544 1.29032 -3.53592 0
M  V30 6376 C 572.691 0.282089 -2.75861 0
M  V30 6377 H 575.642 -0.310771 -1.55627 0
M  V30 6378 H 575.663 1.67524 -3.41637 0
M  V30 6379 H 575.175 -0.0896309 -3.87996 0
M  V30 6380 H 573.276 2.21289 -2.9977 0
M  V30 6381 H 573.389 1.25898 -4.62262 0
M  V30 6382 H 571.753 0.762182 -2.43029 0
M  V30 6383 H 572.536 -0.614936 -3.37748 0
M  V30 6384 N 574.981 1.5647 0.188427 0
M  V30 6385 C 576.206 1.85486 0.927891 0
M  V30 6386 C 576.631 0.669575 1.75779 0
M  V30 6387 O 575.989 -0.381573 1.77239 0
M  V30 6388 C 576.037 3.12784 1.7944 0
M  V30 6389 O 575.141 2.93805 2.894 0
M  V30 6390 H 574.482 0.610585 0.260925 0
M  V30 6391 H 577.012 2.037 0.191729 0
M  V30 6392 H 577.022 3.43749 2.19774 0
M  V30 6393 H 575.697 3.98671 1.18468 0
M  V30 6394 H 574.274 2.74153 2.52774 0
M  V30 6395 N 576.459 -0.456382 1.50847 0
M  V30 6396 C 577.875 -0.791345 1.386 0
M  V30 6397 C 578.075 -1.9633 0.453498 0
M  V30 6398 O 577.131 -2.52308 -0.0984353 0
M  V30 6399 C 578.444 -1.08959 2.80265 0
M  V30 6400 C 579.992 -1.19517 2.89283 0
M  V30 6401 C 580.467 -1.52647 4.31814 0
M  V30 6402 N 581.958 -1.59609 4.34832 0
M  V30 6403 C 582.693 -1.86777 5.42127 0
M  V30 6404 N 582.189 -2.11866 6.59609 0
M  V30 6405 N 583.982 -1.88402 5.29586 0
M  V30 6406 H 576.133 0.315746 2.1004 0
M  V30 6407 H 578.396 0.0787916 0.94472 0
M  V30 6408 H 578.102 -0.301355 3.50407 0
M  V30 6409 H 577.976 -2.02211 3.18419 0
M  V30 6410 H 580.363 -1.97406 2.19351 0
M  V30 6411 H 580.444 -0.242111 2.54652 0
M  V30 6412 H 580.088 -0.752922 5.02288 0
M  V30 6413 H 580.018 -2.49127 4.63943 0
M  V30 6414 H 582.509 -1.42201 3.50125 0
M  V30 6415 H 582.822 -2.31912 7.37182 0
M  V30 6416 H 581.167 -2.09228 6.62758 0
M  V30 6417 H 584.358 -1.68307 4.36795 0
M  V30 6418 H 584.531 -2.09238 6.13289 0
M  V30 6419 N 577.937 -1.40673 -0.710563 0
M  V30 6420 C 579.162 -1.42741 -1.50465 0
M  V30 6421 C 579.587 -0.0302116 -1.88076 0
M  V30 6422 O 578.945 0.962945 -1.53613 0
M  V30 6423 C 578.993 -2.32873 -2.75322 0
M  V30 6424 O 578.097 -1.77544 -3.72226 0
M  V30 6425 H 577.438 -0.485056 -0.45345 0
M  V30 6426 H 579.968 -1.84961 -0.874681 0
M  V30 6427 H 579.978 -2.48233 -3.23797 0
M  V30 6428 H 578.653 -3.34401 -2.47283 0
M  V30 6429 H 577.23 -1.71556 -3.31093 0
M  V30 6430 N 579.415 0.9433 -1.26252 0
M  V30 6431 C 580.826 1.50404 -1.10614 0
M  V30 6432 C 581.177 1.93666 0.31429 0
M  V30 6433 O 580.302 1.79709 1.20555 0
M  V30 6434 C 580.897 2.73336 -2.00182 0
M  V30 6435 C 579.456 3.25686 -1.88695 0
M  V30 6436 C 578.603 1.98474 -1.93658 0
M  V30 6437 H 581.554 0.759006 -1.39373 0
M  V30 6438 H 581.575 3.47567 -1.54847 0
M  V30 6439 H 581.087 2.41818 -3.03555 0
M  V30 6440 H 579.188 3.61998 -0.882489 0
M  V30 6441 H 579.301 3.92935 -2.74115 0
M  V30 6442 H 577.665 2.14278 -1.37684 0
M  V30 6443 H 578.448 1.6929 -2.98657 0
M  V30 6444 N 580.893 1.08022 1.14757 0
M  V30 6445 C 582.304 0.829144 1.67279 0
M  V30 6446 C 582.655 -0.644721 1.85305 0
M  V30 6447 O 581.78 -1.49838 1.56133 0
M  V30 6448 C 582.375 1.49855 3.03857 0
M  V30 6449 C 580.934 1.29482 3.53428 0
M  V30 6450 C 580.081 1.56386 2.28995 0
M  V30 6451 H 583.032 1.24134 0.988762 0
M  V30 6452 H 583.053 0.923572 3.69121 0
M  V30 6453 H 582.565 2.57123 2.90705 0
M  V30 6454 H 580.666 0.242669 3.71809 0
M  V30 6455 H 580.779 2.01974 4.34446 0
M  V30 6456 H 579.143 0.985217 2.34874 0
M  V30 6457 H 579.926 2.64851 2.18423 0
M  V30 6458 N 582.371 -1.3172 0.865308 0
M  V30 6459 C 583.619 -1.96487 0.472995 0
M  V30 6460 C 583.94 -1.68761 -0.976975 0
M  V30 6461 O 583.21 -1.00051 -1.68424 0
M  V30 6462 H 581.79 -0.726947 0.171922 0
M  V30 6463 H 584.452 -1.60612 1.10407 0
M  V30 6464 H 583.548 -3.0574 0.62687 0
M  V30 6465 N 583.85 -0.624285 -1.44708 0
M  V30 6466 C 585.077 -0.132919 -2.06473 0
M  V30 6467 C 585.493 1.18967 -1.46602 0
M  V30 6468 O 584.85 1.72824 -0.586341 0
M  V30 6469 C 584.901 -0.00465418 -3.615 0
M  V30 6470 O 584.622 -1.27494 -4.19138 0
M  V30 6471 C 586.123 0.516213 -4.40284 0
M  V30 6472 H 583.343 -0.0765201 -0.666623 0
M  V30 6473 H 585.887 -0.856751 -1.85688 0
M  V30 6474 H 584.042 0.669583 -3.8157 0
M  V30 6475 H 584.456 -1.11536 -5.12504 0
M  V30 6476 H 585.93 0.554994 -5.49203 0
M  V30 6477 H 586.407 1.5419 -4.11245 0
M  V30 6478 H 587.013 -0.124542 -4.25118 0
M  V30 6479 N 585.328 1.53329 -0.364422 0
M  V30 6480 C 586.739 1.86345 0.115039 0
M  V30 6481 C 587.09 1.28505 1.4826 0
M  V30 6482 O 586.215 0.606639 2.07723 0
M  V30 6483 C 586.81 3.38114 0.215522 0
M  V30 6484 C 585.369 3.70932 0.639237 0
M  V30 6485 C 584.516 2.76471 -0.214261 0
M  V30 6486 H 587.467 1.47593 -0.583258 0
M  V30 6487 H 587.488 3.66031 1.0393 0
M  V30 6488 H 587 3.80182 -0.779948 0
M  V30 6489 H 585.101 3.3442 1.64298 0
M  V30 6490 H 585.214 4.77302 0.41465 0
M  V30 6491 H 583.578 2.52724 0.316678 0
M  V30 6492 H 584.361 3.21373 -1.20725 0
M  V30 6493 N 586.806 0.0935595 1.57322 0
M  V30 6494 C 587.754 -0.883457 2.15169 0
M  V30 6495 C 588.748 -1.29324 1.09415 0
M  V30 6496 O 589.954 -1.26795 1.27762 0
M  V30 6497 H 586.329 -0.302923 0.688289 0
M  V30 6498 H 588.3 -0.370845 2.96087 0
M  V30 6499 C 587.049 -2.13345 2.74552 0
M  V30 6500 H 586.372 -1.82702 3.55612 0
M  V30 6501 H 587.812 -2.7977 3.18598 0
M  V30 6502 C 586.271 -2.90646 1.70371 0
M  V30 6503 O 586.801 -3.85133 1.14173 0
M  V30 6504 N 585.007 -2.54157 1.40899 0
M  V30 6505 H 584.554 -1.77391 1.86789 0
M  V30 6506 H 584.512 -3.06178 0.714301 0
M  V30 6507 N 588.284 -1.56567 -0.180126 0
M  V30 6508 C 589.234 -1.92132 -1.22756 0
M  V30 6509 C 590.218 -0.788639 -1.40247 0
M  V30 6510 O 591.41 -1.05171 -1.42366 0
M  V30 6511 C 588.539 -2.27719 -2.56902 0
M  V30 6512 C 587.625 -3.47481 -2.43142 0
M  V30 6513 N 588.016 -4.64973 -1.99082 0
M  V30 6514 C 586.314 -3.51914 -2.73994 0
M  V30 6515 C 587.015 -5.47119 -1.97574 0
M  V30 6516 N 585.991 -4.87925 -2.39645 0
M  V30 6517 H 589.793 -2.80464 -0.878478 0
M  V30 6518 H 587.307 -1.57686 -0.388463 0
M  V30 6519 H 589.304 -2.51389 -3.32579 0
M  V30 6520 H 587.964 -1.40722 -2.92621 0
M  V30 6521 H 588.975 -4.89358 -1.69557 0
M  V30 6522 H 585.652 -2.75372 -3.13809 0
M  V30 6523 H 587.042 -6.51254 -1.65282 0
M  V30 6524 N 589.762 0.448376 -1.51087 0
M  V30 6525 C 591.178 0.783984 -1.39017 0
M  V30 6526 C 591.378 1.96087 -0.463904 0
M  V30 6527 O 590.434 2.52357 0.0850534 0
M  V30 6528 C 591.747 1.07471 -2.80839 0
M  V30 6529 C 593.295 1.17981 -2.89913 0
M  V30 6530 C 593.77 1.50354 -4.32617 0
M  V30 6531 N 595.261 1.57301 -4.35673 0
M  V30 6532 C 595.996 1.839 -5.4311 0
M  V30 6533 N 595.492 2.08365 -6.60724 0
M  V30 6534 N 597.285 1.8559 -5.30578 0
M  V30 6535 H 589.436 -0.326881 -2.0987 0
M  V30 6536 H 591.699 -0.0838006 -0.944289 0
M  V30 6537 H 591.405 0.282768 -3.50561 0
M  V30 6538 H 591.279 2.00519 -3.19487 0
M  V30 6539 H 593.666 1.9624 -2.20395 0
M  V30 6540 H 593.747 0.228603 -2.54776 0
M  V30 6541 H 593.391 0.726273 -5.0268 0
M  V30 6542 H 593.321 2.46663 -4.65258 0
M  V30 6543 H 595.812 1.40342 -3.50874 0
M  V30 6544 H 596.125 2.27999 -7.38401 0
M  V30 6545 H 594.47 2.0571 -6.63859 0
M  V30 6546 H 597.661 1.65989 -4.37682 0
M  V30 6547 H 597.834 2.05983 -6.1439 0
M  V30 6548 N 591.24 1.41047 0.703093 0
M  V30 6549 C 592.188 1.42494 1.83843 0
M  V30 6550 C 593.182 0.303885 1.66652 0
M  V30 6551 O 594.388 0.475544 1.73605 0
M  V30 6552 H 590.763 0.445685 0.605697 0
M  V30 6553 H 592.734 2.38194 1.79739 0
M  V30 6554 C 591.483 1.31666 3.21807 0
M  V30 6555 H 590.806 2.17212 3.35647 0
M  V30 6556 H 592.246 1.36738 4.01346 0
M  V30 6557 C 590.705 0.0281828 3.36888 0
M  V30 6558 O 591.235 -0.929995 3.90786 0
M  V30 6559 N 589.441 -0.0454322 2.90564 0
M  V30 6560 H 588.988 0.735046 2.4689 0
M  V30 6561 H 588.946 -0.906968 3.01034 0
M  V30 6562 N 592.718 -0.936591 1.26751 0
M  V30 6563 C 593.943 -1.72288 1.15462 0
M  V30 6564 C 594.368 -1.85915 -0.285887 0
M  V30 6565 O 593.726 -1.35272 -1.20711 0
M  V30 6566 C 593.774 -3.10503 1.83359 0
M  V30 6567 O 592.878 -3.96745 1.1255 0
M  V30 6568 H 592.219 -0.52843 0.402067 0
M  V30 6569 H 594.749 -1.17271 1.67656 0
M  V30 6570 H 594.759 -3.60867 1.90365 0
M  V30 6571 H 593.434 -2.99901 2.88153 0
M  V30 6572 H 592.011 -3.55191 1.13551 0
M  V30 6573 N 594.196 -1.08629 -1.14182 0
M  V30 6574 C 595.424 -0.838889 -1.8913 0
M  V30 6575 C 595.839 0.609153 -1.78703 0
M  V30 6576 O 595.196 1.41876 -1.14794 0
M  V30 6577 C 595.247 -1.25477 -3.39025 0
M  V30 6578 O 594.968 -2.64601 -3.49167 0
M  V30 6579 C 596.469 -1.03856 -4.30963 0
M  V30 6580 H 593.689 -0.302377 -0.599007 0
M  V30 6581 H 596.233 -1.44615 -1.44592 0
M  V30 6582 H 594.388 -0.691571 -3.81177 0
M  V30 6583 H 594.802 -2.81922 -4.42289 0
M  V30 6584 H 596.276 -1.37892 -5.345 0
M  V30 6585 H 596.753 0.0242522 -4.39193 0
M  V30 6586 H 597.359 -1.58731 -3.94569 0
M  V30 6587 N 595.674 1.31259 -0.872281 0
M  V30 6588 C 596.921 1.96622 -0.484365 0
M  V30 6589 C 597.249 1.68939 0.963841 0
M  V30 6590 O 596.504 0.97974 1.6941 0
M  V30 6591 C 596.803 3.50659 -0.690889 0
M  V30 6592 C 596.469 3.98366 -2.11224 0
M  V30 6593 C 595.131 4.11104 -2.50094 0
M  V30 6594 C 597.483 4.23425 -3.0391 0
M  V30 6595 C 594.811 4.46254 -3.80887 0
M  V30 6596 C 597.163 4.60039 -4.3422 0
M  V30 6597 C 595.827 4.70984 -4.73001 0
M  V30 6598 H 595.097 0.71949 -0.177242 0
M  V30 6599 H 597.744 1.56353 -1.10571 0
M  V30 6600 H 596.049 3.91798 0.0135782 0
M  V30 6601 H 597.746 3.99284 -0.370534 0
M  V30 6602 H 594.336 3.88949 -1.80047 0
M  V30 6603 H 598.52 4.13075 -2.75104 0
M  V30 6604 H 593.776 4.52926 -4.10692 0
M  V30 6605 H 597.95 4.78381 -5.06088 0
M  V30 6606 H 595.577 4.97977 -5.7439 0
M  V30 6607 N 597.152 0.631951 1.44375 0
M  V30 6608 C 598.38 0.143867 2.06399 0
M  V30 6609 C 598.795 -1.18188 1.47231 0
M  V30 6610 O 598.152 -1.72511 0.595498 0
M  V30 6611 C 598.203 0.0238253 3.61492 0
M  V30 6612 O 597.924 1.29715 4.18456 0
M  V30 6613 C 599.425 -0.492856 4.40552 0
M  V30 6614 H 596.645 0.0800542 0.666207 0
M  V30 6615 H 599.189 0.866586 1.85231 0
M  V30 6616 H 597.344 -0.649338 3.81919 0
M  V30 6617 H 597.758 1.14252 5.11905 0
M  V30 6618 H 599.232 -0.525861 5.49489 0
M  V30 6619 H 599.709 -1.52006 4.12057 0
M  V30 6620 H 600.315 0.147085 4.25046 0
M  V30 6621 N 598.631 -1.53133 0.372548 0
M  V30 6622 C 599.563 -2.23557 -0.505444 0
M  V30 6623 C 600.576 -1.25211 -1.04049 0
M  V30 6624 O 601.765 -1.51391 -0.945675 0
M  V30 6625 C 598.865 -2.92516 -1.71136 0
M  V30 6626 C 598.038 -4.17428 -1.30661 0
M  V30 6627 C 597.097 -4.69535 -2.37536 0
M  V30 6628 O 596.123 -5.33042 -1.99637 0
M  V30 6629 N 597.325 -4.47947 -3.6922 0
M  V30 6630 H 600.09 -2.9954 0.0978259 0
M  V30 6631 H 597.651 -1.60684 0.198068 0
M  V30 6632 H 599.643 -3.24281 -2.42124 0
M  V30 6633 H 598.213 -2.19944 -2.22134 0
M  V30 6634 H 597.433 -3.91888 -0.426292 0
M  V30 6635 H 598.721 -4.98622 -1.01259 0
M  V30 6636 H 598.119 -3.97219 -4.02783 0
M  V30 6637 H 596.676 -4.84245 -4.36292 0
M  V30 6638 N 600.109 -0.101901 -1.5727 0
M  V30 6639 C 601.019 0.868647 -2.17926 0
M  V30 6640 C 602.035 1.30527 -1.1506 0
M  V30 6641 O 603.211 1.37178 -1.47459 0
M  V30 6642 C 600.276 2.10727 -2.75309 0
M  V30 6643 C 599.337 1.7242 -3.93154 0
M  V30 6644 C 598.57 2.90377 -4.47791 0
M  V30 6645 O 598.793 4.05305 -4.01353 0
M  V30 6646 O 597.727 2.6845 -5.38719 0
M  V30 6647 H 601.553 0.382544 -3.01281 0
M  V30 6648 H 599.138 0.122812 -1.48894 0
M  V30 6649 H 601.02 2.83303 -3.11958 0
M  V30 6650 H 599.695 2.58376 -1.94996 0
M  V30 6651 H 598.602 0.970039 -3.61305 0
M  V30 6652 H 599.935 1.29528 -4.74851 0
M  V30 6653 N 601.587 1.56661 0.17182 0
M  V30 6654 C 602.835 1.81606 0.886774 0
M  V30 6655 C 603.156 0.678818 1.82803 0
M  V30 6656 O 602.426 -0.301354 1.93568 0
M  V30 6657 H 601.006 0.669934 0.330451 0
M  V30 6658 H 603.668 1.94142 0.171757 0
M  V30 6659 H 602.764 2.75634 1.46398 0
M  V30 6660 N 603.065 -0.440357 1.51323 0
M  V30 6661 C 604.293 -1.21255 1.67645 0
M  V30 6662 C 604.708 -1.85088 0.37252 0
M  V30 6663 O 604.065 -1.70582 -0.648683 0
M  V30 6664 C 604.116 -2.29881 2.78993 0
M  V30 6665 O 603.837 -1.68659 4.04334 0
M  V30 6666 C 605.338 -3.20214 3.06558 0
M  V30 6667 H 602.558 -0.36558 0.562666 0
M  V30 6668 H 605.102 -0.52214 1.97722 0
M  V30 6669 H 603.257 -2.94643 2.51524 0
M  V30 6670 H 603.671 -2.40426 4.6615 0
M  V30 6671 H 605.145 -3.92575 3.88058 0
M  V30 6672 H 605.622 -3.80794 2.18844 0
M  V30 6673 H 606.228 -2.61156 3.35675 0
M  V30 6674 N 604.543 -1.41418 -0.695603 0
M  V30 6675 C 605.959 -1.23887 -1.00619 0
M  V30 6676 C 606.159 -0.128206 -2.01092 0
M  V30 6677 O 605.215 0.507408 -2.47349 0
M  V30 6678 C 606.528 -2.58816 -1.53083 0
M  V30 6679 C 608.076 -2.65998 -1.64967 0
M  V30 6680 C 608.551 -4.01244 -2.20833 0
M  V30 6681 N 610.042 -4.0309 -2.28194 0
M  V30 6682 C 610.777 -5.04539 -2.72448 0
M  V30 6683 N 610.273 -6.16378 -3.16306 0
M  V30 6684 N 612.066 -4.91901 -2.72011 0
M  V30 6685 H 604.217 -2.12379 -0.0300061 0
M  V30 6686 H 606.48 -0.944958 -0.0758797 0
M  V30 6687 H 606.186 -3.40842 -0.867147 0
M  V30 6688 H 606.06 -2.81299 -2.51298 0
M  V30 6689 H 608.447 -1.84331 -2.30448 0
M  V30 6690 H 608.528 -2.47325 -0.652982 0
M  V30 6691 H 608.172 -4.83359 -1.55968 0
M  V30 6692 H 608.102 -4.17257 -3.21254 0
M  V30 6693 H 610.593 -3.22341 -1.97242 0
M  V30 6694 H 610.906 -6.89658 -3.487 0
M  V30 6695 H 609.251 -6.19914 -3.14215 0
M  V30 6696 H 612.442 -4.03613 -2.37095 0
M  V30 6697 H 612.615 -5.71102 -3.06181 0
M  V30 6698 N 606.021 0.929856 -1.27246 0
M  V30 6699 C 606.951 2.04722 -1.12299 0
M  V30 6700 C 607.932 1.70082 -0.0250464 0
M  V30 6701 O 609.117 1.93176 -0.199141 0
M  V30 6702 C 606.247 3.38721 -0.767145 0
M  V30 6703 C 605.201 3.87466 -1.81808 0
M  V30 6704 C 604.527 5.18246 -1.31626 0
M  V30 6705 C 605.827 4.11095 -3.22177 0
M  V30 6706 H 607.521 2.17485 -2.05769 0
M  V30 6707 H 605.067 1.04503 -0.990715 0
M  V30 6708 H 607.02 4.16366 -0.649413 0
M  V30 6709 H 605.744 3.25967 0.203259 0
M  V30 6710 H 604.403 3.12012 -1.92468 0
M  V30 6711 H 604.051 5.01881 -0.335378 0
M  V30 6712 H 603.751 5.51829 -2.01887 0
M  V30 6713 H 605.275 5.98462 -1.21143 0
M  V30 6714 H 606.689 4.79316 -3.1453 0
M  V30 6715 H 605.086 4.55982 -3.90129 0
M  V30 6716 H 606.156 3.16468 -3.67391 0
M  V30 6717 N 607.499 1.09233 1.13605 0
M  V30 6718 C 608.915 0.82163 1.36826 0
M  V30 6719 C 609.115 -0.565021 1.93416 0
M  V30 6720 O 608.171 -1.32026 2.15234 0
M  V30 6721 C 609.484 1.91124 2.32147 0
M  V30 6722 C 611.032 1.93824 2.45767 0
M  V30 6723 C 611.507 3.01923 3.44393 0
M  V30 6724 N 612.998 3.01149 3.51942 0
M  V30 6725 C 613.733 3.81434 4.2813 0
M  V30 6726 N 613.229 4.71621 5.07489 0
M  V30 6727 N 615.022 3.69702 4.23411 0
M  V30 6728 H 607.173 1.98633 0.752234 0
M  V30 6729 H 609.436 0.862482 0.393482 0
M  V30 6730 H 609.142 2.90862 1.97717 0
M  V30 6731 H 609.016 1.78777 3.32142 0
M  V30 6732 H 611.403 0.94726 2.79483 0
M  V30 6733 H 611.484 2.10248 1.45703 0
M  V30 6734 H 611.128 4.01232 3.11408 0
M  V30 6735 H 611.058 2.82742 4.44257 0
M  V30 6736 H 613.549 2.35789 2.95317 0
M  V30 6737 H 613.862 5.29468 5.62924 0
M  V30 6738 H 612.207 4.75658 5.06729 0
M  V30 6739 H 615.398 2.98606 3.60489 0
M  V30 6740 H 615.571 4.32509 4.82535 0
M  V30 6741 N 608.977 -1.30795 0.87923 0
M  V30 6742 C 610.388 -1.78535 0.546093 0
M  V30 6743 C 610.739 -1.72354 -0.937467 0
M  V30 6744 O 609.864 -1.2969 -1.73233 0
M  V30 6745 C 610.459 -3.24181 0.9845 0
M  V30 6746 C 609.018 -3.69779 0.702871 0
M  V30 6747 C 608.165 -2.51377 1.17068 0
M  V30 6748 H 611.116 -1.17746 1.06403 0
M  V30 6749 H 611.137 -3.79227 0.311045 0
M  V30 6750 H 610.649 -3.28647 2.06429 0
M  V30 6751 H 608.75 -3.70806 -0.365166 0
M  V30 6752 H 608.863 -4.61507 1.28639 0
M  V30 6753 H 607.227 -2.47768 0.590172 0
M  V30 6754 H 608.01 -2.58584 2.25808 0
M  V30 6755 N 610.455 -0.639598 -1.44038 0
M  V30 6756 C 611.68 -0.153117 -2.06834 0
M  V30 6757 C 612.105 1.16676 -1.47541 0
M  V30 6758 O 611.463 1.71769 -0.580093 0
M  V30 6759 C 611.511 -0.0609169 -3.60549 0
M  V30 6760 O 610.615 0.98071 -4.00569 0
M  V30 6761 H 609.956 -0.0886402 -0.658057 0
M  V30 6762 H 612.486 -0.878674 -1.84771 0
M  V30 6763 H 612.496 0.126892 -4.07803 0
M  V30 6764 H 611.171 -1.0245 -4.03084 0
M  V30 6765 H 609.748 0.766789 -3.64931 0
M  V30 6766 N 611.933 1.52934 -0.380664 0
M  V30 6767 C 613.158 2.06363 0.207157 0
M  V30 6768 C 613.583 1.25122 1.4045 0
M  V30 6769 O 612.941 0.274062 1.79217 0
M  V30 6770 C 612.989 3.56162 0.563996 0
M  V30 6771 O 612.093 3.77552 1.65917 0
M  V30 6772 H 611.434 0.663468 0.0265859 0
M  V30 6773 H 613.964 1.9719 -0.545635 0
M  V30 6774 H 613.974 3.99453 0.830752 0
M  V30 6775 H 612.649 4.14732 -0.311427 0
M  V30 6776 H 611.226 3.46154 1.3868 0
M  V30 6777 N 613.412 0.11024 1.57214 0
M  V30 6778 C 614.658 -0.550684 1.9518 0
M  V30 6779 C 614.991 -1.66885 0.993122 0
M  V30 6780 O 614.266 -1.94479 0.0287907 0
M  V30 6781 C 614.549 -1.09163 3.43155 0
M  V30 6782 C 614.402 0.0225198 4.49794 0
M  V30 6783 C 615.721 -1.98527 3.92778 0
M  V30 6784 H 612.84 -0.198706 0.709708 0
M  V30 6785 H 615.482 0.184024 1.89107 0
M  V30 6786 H 613.632 -1.71775 3.48462 0
M  V30 6787 H 615.304 0.657443 4.56591 0
M  V30 6788 H 613.547 0.686868 4.28328 0
M  V30 6789 H 614.218 -0.39706 5.5057 0
M  V30 6790 H 616.694 -1.458 3.8972 0
M  V30 6791 H 615.57 -2.33298 4.96853 0
M  V30 6792 H 615.831 -2.90846 3.32958 0
M  V30 6793 N 614.89 -1.56749 -0.16351 0
M  V30 6794 C 616.138 -1.82074 -0.87713 0
M  V30 6795 C 616.459 -0.688503 -1.82441 0
M  V30 6796 O 615.729 0.291085 -1.93725 0
M  V30 6797 H 614.309 -0.671677 -0.326893 0
M  V30 6798 H 616.971 -1.9423 -0.161459 0
M  V30 6799 H 616.067 -2.76407 -1.44934 0
M  V30 6800 N 616.368 0.432326 -1.51554 0
M  V30 6801 C 617.318 1.52366 -1.69614 0
M  V30 6802 C 618.302 1.51205 -0.550083 0
M  V30 6803 O 619.494 1.57573 -0.806206 0
M  V30 6804 C 616.623 2.90513 -1.82913 0
M  V30 6805 C 615.709 2.9641 -3.03318 0
M  V30 6806 N 616.1 2.72043 -4.26411 0
M  V30 6807 C 614.398 3.27572 -3.02675 0
M  V30 6808 C 615.099 2.83912 -5.07709 0
M  V30 6809 N 614.075 3.15798 -4.42462 0
M  V30 6810 H 617.877 1.32285 -2.62446 0
M  V30 6811 H 615.391 0.639708 -1.4927 0
M  V30 6812 H 617.388 3.69032 -1.93962 0
M  V30 6813 H 616.048 3.1161 -0.912655 0
M  V30 6814 H 617.059 2.46876 -4.55272 0
M  V30 6815 H 613.736 3.54411 -2.20678 0
M  V30 6816 H 615.126 2.68984 -6.15709 0
M  V30 6817 N 617.846 1.41785 0.688094 0
M  V30 6818 C 618.776 1.47 1.8142 0
M  V30 6819 C 619.757 0.327881 1.6691 0
M  V30 6820 O 620.942 0.540362 1.86531 0
M  V30 6821 C 618.072 1.35876 3.19617 0
M  V30 6822 C 617.026 2.47976 3.48844 0
M  V30 6823 C 616.352 2.21915 4.86475 0
M  V30 6824 C 617.652 3.90309 3.47068 0
M  V30 6825 H 619.346 2.41247 1.77314 0
M  V30 6826 H 616.892 1.16116 0.851651 0
M  V30 6827 H 618.845 1.38134 3.98117 0
M  V30 6828 H 617.569 0.38116 3.24368 0
M  V30 6829 H 616.228 2.45013 2.72698 0
M  V30 6830 H 615.876 1.2248 4.8786 0
M  V30 6831 H 615.576 2.97037 5.06994 0
M  V30 6832 H 617.1 2.25901 5.67275 0
M  V30 6833 H 618.514 3.94947 4.1556 0
M  V30 6834 H 616.911 4.65175 3.7912 0
M  V30 6835 H 617.981 4.17927 2.45896 0
M  V30 6836 N 619.324 -0.923095 1.27737 0
M  V30 6837 C 620.57 -1.67375 1.14514 0
M  V30 6838 C 620.903 -1.91751 -0.307424 0
M  V30 6839 O 620.178 -1.51119 -1.22447 0
M  V30 6840 C 620.461 -3.03745 1.9342 0
M  V30 6841 C 620.314 -2.86581 3.46686 0
M  V30 6842 C 621.633 -4.04144 1.74228 0
M  V30 6843 H 618.752 -0.607427 0.417374 0
M  V30 6844 H 621.394 -1.07089 1.56946 0
M  V30 6845 H 619.544 -3.55204 1.5736 0
M  V30 6846 H 621.216 -2.42203 3.92601 0
M  V30 6847 H 619.459 -2.21829 3.72793 0
M  V30 6848 H 620.13 -3.83381 3.97143 0
M  V30 6849 H 622.606 -3.61712 2.05678 0
M  V30 6850 H 621.482 -4.97543 2.31824 0
M  V30 6851 H 621.743 -4.36661 0.691373 0
M  V30 6852 N 620.802 -1.09834 -1.13024 0
M  V30 6853 C 622.079 -0.749225 -1.80682 0
M  V30 6854 C 622.459 0.765171 -1.96744 0
M  V30 6855 O 621.807 1.68912 -1.53886 0
M  V30 6856 C 622.017 -1.49311 -3.15448 0
M  V30 6857 C 623.365 -1.66162 -3.90737 0
M  V30 6858 O 624.389 -1.45597 -3.25085 0
M  V30 6859 O 623.248 -2.00211 -5.08505 0
M  V30 6860 H 620.342 -0.269614 -0.781817 0
M  V30 6861 H 622.888 -1.20078 -1.19914 0
M  V30 6862 H 621.66 -2.52407 -2.99009 0
M  V30 6863 H 621.283 -1.034 -3.8392 0
M  V30 6864 N 622.28 1.30327 -0.886154 0
M  V30 6865 C 623.23 2.25668 -0.325248 0
M  V30 6866 C 624.214 1.51318 0.546972 0
M  V30 6867 O 625.406 1.72623 0.391203 0
M  V30 6868 C 622.535 3.40229 0.458167 0
M  V30 6869 C 621.621 4.21933 -0.428208 0
M  V30 6870 N 622.012 4.82129 -1.52921 0
M  V30 6871 C 620.31 4.45439 -0.223535 0
M  V30 6872 C 621.011 5.43351 -2.07714 0
M  V30 6873 N 619.987 5.26002 -1.37195 0
M  V30 6874 H 623.789 2.69759 -1.1665 0
M  V30 6875 H 621.303 1.4478 -0.735691 0
M  V30 6876 H 623.3 4.07579 0.876648 0
M  V30 6877 H 621.96 2.97678 1.29684 0
M  V30 6878 H 622.971 4.81312 -1.91205 0
M  V30 6879 H 619.648 4.13481 0.577875 0
M  V30 6880 H 621.038 6.01118 -3.00178 0
M  V30 6881 N 623.758 0.647228 1.43697 0
M  V30 6882 C 624.691 -0.097646 2.27991 0
M  V30 6883 C 625.669 -0.83571 1.3948 0
M  V30 6884 O 626.853 -0.836509 1.68922 0
M  V30 6885 C 623.98 -1.14484 3.18765 0
M  V30 6886 C 623.026 -0.505503 4.23494 0
M  V30 6887 S 623.859 0.716471 5.30685 0
M  V30 6888 C 625.015 -0.330339 6.25028 0
M  V30 6889 H 625.248 0.617417 2.90818 0
M  V30 6890 H 622.781 0.435881 1.4812 0
M  V30 6891 H 624.739 -1.74403 3.7161 0
M  V30 6892 H 623.4 -1.83219 2.55127 0
M  V30 6893 H 622.593 -1.29473 4.87086 0
M  V30 6894 H 622.195 0.0194377 3.73995 0
M  V30 6895 H 624.487 -1.19828 6.66819 0
M  V30 6896 H 625.43 0.270409 7.07583 0
M  V30 6897 H 625.838 -0.663459 5.60588 0
M  V30 6898 N 625.236 -1.5273 0.388769 0
M  V30 6899 C 626.482 -2.01871 -0.193877 0
M  V30 6900 C 626.815 -1.27475 -1.46505 0
M  V30 6901 O 626.09 -0.375063 -1.90849 0
M  V30 6902 C 626.373 -3.5712 -0.462336 0
M  V30 6903 C 626.226 -4.42186 0.824091 0
M  V30 6904 C 627.545 -4.21881 -1.25319 0
M  V30 6905 H 624.664 -0.733764 -0.0689899 0
M  V30 6906 H 627.306 -1.82796 0.518231 0
M  V30 6907 H 625.456 -3.73504 -1.06896 0
M  V30 6908 H 627.128 -4.37554 1.46096 0
M  V30 6909 H 625.371 -4.09219 1.43952 0
M  V30 6910 H 626.042 -5.48828 0.590905 0
M  V30 6911 H 628.518 -4.0947 -0.73981 0
M  V30 6912 H 627.394 -5.30487 -1.40977 0
M  V30 6913 H 627.655 -3.79478 -2.26824 0
M  V30 6914 N 626.714 -0.118576 -1.57153 0
M  V30 6915 C 627.664 0.842924 -2.11846 0
M  V30 6916 C 628.648 1.22845 -1.03914 0
M  V30 6917 O 629.84 1.19961 -1.30148 0
M  V30 6918 C 626.969 2.09312 -2.72109 0
M  V30 6919 C 626.055 1.73198 -3.87122 0
M  V30 6920 N 626.446 1.07758 -4.94188 0
M  V30 6921 C 624.744 2.02659 -3.97298 0
M  V30 6922 C 625.445 0.907741 -5.74574 0
M  V30 6923 N 624.421 1.4326 -5.24383 0
M  V30 6924 H 628.223 0.333416 -2.92003 0
M  V30 6925 H 625.737 0.0839073 -1.62183 0
M  V30 6926 H 627.734 2.79162 -3.09635 0
M  V30 6927 H 626.394 2.60807 -1.93416 0
M  V30 6928 H 627.405 0.741613 -5.12563 0
M  V30 6929 H 624.082 2.56204 -3.29645 0
M  V30 6930 H 625.472 0.394112 -6.70743 0
M  V30 6931 N 628.193 1.56834 0.155195 0
M  V30 6932 C 629.421 1.87049 0.884326 0
M  V30 6933 C 629.836 0.705839 1.7511 0
M  V30 6934 O 629.193 -0.324641 1.79589 0
M  V30 6935 C 629.244 3.1644 1.74781 0
M  V30 6936 O 628.965 4.28417 0.915978 0
M  V30 6937 C 630.466 3.60113 2.58522 0
M  V30 6938 H 627.686 0.620196 0.25612 0
M  V30 6939 H 630.23 2.03946 0.150445 0
M  V30 6940 H 628.385 3.01321 2.43484 0
M  V30 6941 H 628.799 5.02353 1.50803 0
M  V30 6942 H 630.273 4.53508 3.14698 0
M  V30 6943 H 630.75 2.85005 3.34169 0
M  V30 6944 H 631.356 3.77898 1.95124 0
M  V30 6945 N 629.671 -0.424282 1.51781 0
M  V30 6946 C 630.896 -1.19928 1.6921 0
M  V30 6947 C 631.321 -1.8392 0.394355 0
M  V30 6948 O 630.679 -1.69371 -0.646778 0
M  V30 6949 C 630.727 -2.24937 2.81843 0
M  V30 6950 O 629.831 -3.3073 2.46356 0
M  V30 6951 H 629.172 -0.35078 0.563781 0
M  V30 6952 H 631.702 -0.499401 1.98412 0
M  V30 6953 H 631.712 -2.69512 3.06312 0
M  V30 6954 H 630.387 -1.77742 3.76006 0
M  V30 6955 H 628.964 -2.9154 2.32505 0
M  V30 6956 N 631.149 -1.42148 -0.680565 0
M  V30 6957 C 632.56 -1.3768 -1.26099 0
M  V30 6958 C 632.911 -0.0672348 -1.96085 0
M  V30 6959 O 632.036 0.834172 -1.99676 0
M  V30 6960 C 632.631 -2.49387 -2.29328 0
M  V30 6961 C 631.19 -2.4827 -2.82911 0
M  V30 6962 C 630.337 -2.2847 -1.57152 0
M  V30 6963 H 633.288 -1.51446 -0.474326 0
M  V30 6964 H 633.309 -2.19307 -3.10941 0
M  V30 6965 H 632.821 -3.44686 -1.78363 0
M  V30 6966 H 630.922 -1.56773 -3.38013 0
M  V30 6967 H 631.035 -3.45109 -3.3232 0
M  V30 6968 H 629.399 -1.76623 -1.83511 0
M  V30 6969 H 630.182 -3.25816 -1.0816 0
M  V30 6970 N 632.627 0.916307 -1.28225 0
M  V30 6971 C 633.852 1.7043 -1.18188 0
M  V30 6972 C 634.277 1.86346 0.256274 0
M  V30 6973 O 633.635 1.37175 1.18544 0
M  V30 6974 C 633.683 3.07546 -1.88275 0
M  V30 6975 O 632.787 3.94904 -1.18848 0
M  V30 6976 H 632.128 0.521967 -0.410423 0
M  V30 6977 H 634.658 1.14589 -1.69501 0
M  V30 6978 H 634.668 3.57793 -1.96082 0
M  V30 6979 H 633.343 2.95279 -2.92887 0
M  V30 6980 H 631.92 3.53339 -1.19187 0
M  V30 6981 N 634.105 1.10431 1.1244 0
M  V30 6982 C 635.015 0.765502 2.21759 0
M  V30 6983 C 636.031 -0.236966 1.72379 0
M  V30 6984 O 637.207 -0.0757329 2.01258 0
M  V30 6985 C 634.272 0.202316 3.46109 0
M  V30 6986 C 633.333 1.26205 4.1033 0
M  V30 6987 C 632.566 0.725648 5.28744 0
M  V30 6988 O 632.789 -0.447942 5.68638 0
M  V30 6989 O 631.723 1.48555 5.83279 0
M  V30 6990 H 635.549 1.67801 2.53133 0
M  V30 6991 H 633.134 0.879443 1.20773 0
M  V30 6992 H 635.016 -0.107918 4.21262 0
M  V30 6993 H 633.691 -0.683052 3.16411 0
M  V30 6994 H 632.598 1.62514 3.36957 0
M  V30 6995 H 633.931 2.12044 4.44183 0
M  V30 6996 N 635.583 -1.29855 0.893053 0
M  V30 6997 C 636.829 -1.96116 0.516349 0
M  V30 6998 C 637.162 -1.70281 -0.933695 0
M  V30 6999 O 636.437 -1.01205 -1.66096 0
M  V30 7000 C 636.72 -3.51068 0.801455 0
M  V30 7001 C 636.573 -3.86387 2.30272 0
M  V30 7002 C 637.892 -4.39186 0.283423 0
M  V30 7003 H 635.011 -0.712335 0.189072 0
M  V30 7004 H 637.653 -1.53587 1.11852 0
M  V30 7005 H 635.803 -3.87424 0.288949 0
M  V30 7006 H 637.475 -3.60012 2.88425 0
M  V30 7007 H 635.718 -3.34167 2.76613 0
M  V30 7008 H 636.389 -4.94512 2.45279 0
M  V30 7009 H 638.865 -4.09785 0.722187 0
M  V30 7010 H 637.741 -5.46505 0.512169 0
M  V30 7011 H 638.002 -4.34511 -0.815643 0
M  V30 7012 N 637.061 -0.65484 -1.43351 0
M  V30 7013 C 638.308 -0.168892 -2.01794 0
M  V30 7014 C 638.636 1.2177 -1.51665 0
M  V30 7015 O 637.891 1.82717 -0.70092 0
M  V30 7016 C 638.19 -0.130424 -3.57162 0
M  V30 7017 C 637.856 -1.45898 -4.26643 0
M  V30 7018 C 636.518 -1.82279 -4.4534 0
M  V30 7019 C 638.87 -2.33485 -4.65976 0
M  V30 7020 C 636.198 -3.0591 -5.00635 0
M  V30 7021 C 638.55 -3.5641 -5.22642 0
M  V30 7022 C 637.214 -3.92985 -5.39555 0
M  V30 7023 H 636.484 -0.061802 -0.738418 0
M  V30 7024 H 639.131 -0.845869 -1.71806 0
M  V30 7025 H 637.436 0.630008 -3.86702 0
M  V30 7026 H 639.133 0.262465 -4.0014 0
M  V30 7027 H 635.723 -1.16591 -4.12437 0
M  V30 7028 H 639.907 -2.06668 -4.51223 0
M  V30 7029 H 635.163 -3.34295 -5.11915 0
M  V30 7030 H 639.337 -4.24495 -5.52066 0
M  V30 7031 H 636.964 -4.88862 -5.82167 0
M  V30 7032 N 638.539 1.52521 -0.396863 0
M  V30 7033 C 639.785 2.01971 0.183169 0
M  V30 7034 C 640.118 1.2825 1.45827 0
M  V30 7035 O 639.393 0.385179 1.90648 0
M  V30 7036 C 639.676 3.5736 0.443391 0
M  V30 7037 C 639.529 4.41743 -0.84753 0
M  V30 7038 C 640.848 4.22539 1.2308 0
M  V30 7039 H 637.967 0.734119 0.0650976 0
M  V30 7040 H 640.609 1.82519 -0.527918 0
M  V30 7041 H 638.759 3.74066 1.04914 0
M  V30 7042 H 640.431 4.36773 -1.48414 0
M  V30 7043 H 638.674 4.0845 -1.4612 0
M  V30 7044 H 639.345 5.48507 -0.620003 0
M  V30 7045 H 641.821 4.09857 0.718084 0
M  V30 7046 H 640.697 5.31227 1.38162 0
M  V30 7047 H 640.958 3.80675 2.24808 0
M  V30 7048 N 640.017 0.126909 1.57088 0
M  V30 7049 C 640.965 -0.837618 2.16995 0
M  V30 7050 C 641.959 -1.26974 1.12133 0
M  V30 7051 O 643.165 -1.24056 1.30423 0
M  V30 7052 H 639.54 -0.288256 0.694559 0
M  V30 7053 H 641.511 -0.307957 2.96807 0
M  V30 7054 C 640.26 -2.07474 2.79016 0
M  V30 7055 H 639.583 -1.75117 3.59408 0
M  V30 7056 H 641.023 -2.72949 3.24461 0
M  V30 7057 C 639.482 -2.86967 1.76498 0
M  V30 7058 O 640.012 -3.82625 1.22316 0
M  V30 7059 N 638.218 -2.51111 1.46258 0
M  V30 7060 H 637.765 -1.73389 1.90509 0
M  V30 7061 H 637.723 -3.04594 0.779085 0
M  V30 7062 N 641.495 -1.56914 -0.146875 0
M  V30 7063 C 642.427 -1.94878 -1.20645 0
M  V30 7064 C 643.44 -0.844633 -1.39175 0
M  V30 7065 O 644.629 -1.12304 -1.38744 0
M  V30 7066 C 641.729 -2.20769 -2.57127 0
M  V30 7067 C 640.902 -3.52053 -2.59572 0
M  V30 7068 C 639.961 -3.66482 -3.77594 0
M  V30 7069 O 638.987 -4.38873 -3.62462 0
M  V30 7070 N 640.189 -3.03156 -4.95052 0
M  V30 7071 H 642.954 -2.86374 -0.883757 0
M  V30 7072 H 640.515 -1.58366 -0.336436 0
M  V30 7073 H 642.507 -2.27664 -3.34591 0
M  V30 7074 H 641.077 -1.35538 -2.81688 0
M  V30 7075 H 640.297 -3.56598 -1.68023 0
M  V30 7076 H 641.585 -4.38396 -2.58238 0
M  V30 7077 H 640.983 -2.44258 -5.10249 0
M  V30 7078 H 639.54 -3.15611 -5.70292 0
M  V30 7079 N 642.974 0.416227 -1.52004 0
M  V30 7080 C 644.39 0.754319 -1.40649 0
M  V30 7081 C 644.59 1.95059 -0.505392 0
M  V30 7082 O 643.646 2.5248 0.0315057 0
M  V30 7083 C 644.959 1.0149 -2.83055 0
M  V30 7084 C 646.507 1.11805 -2.9235 0
M  V30 7085 C 646.982 1.41144 -4.35709 0
M  V30 7086 N 648.473 1.48024 -4.38911 0
M  V30 7087 C 649.208 1.72338 -5.46889 0
M  V30 7088 N 648.704 1.94303 -6.64995 0
M  V30 7089 N 650.497 1.74294 -5.34395 0
M  V30 7090 H 642.648 -0.371324 -2.09129 0
M  V30 7091 H 644.911 -0.103811 -0.942299 0
M  V30 7092 H 644.617 0.208345 -3.51082 0
M  V30 7093 H 644.491 1.93697 -3.23668 0
M  V30 7094 H 646.878 1.91521 -2.24508 0
M  V30 7095 H 646.959 0.17451 -2.55204 0
M  V30 7096 H 646.603 0.619484 -5.04108 0
M  V30 7097 H 646.533 2.36739 -4.70385 0
M  V30 7098 H 649.024 1.32868 -3.53772 0
M  V30 7099 H 649.337 2.12286 -7.43071 0
M  V30 7100 H 647.682 1.91582 -6.68073 0
M  V30 7101 H 650.873 1.56667 -4.41104 0
M  V30 7102 H 651.046 1.92904 -6.18621 0
M  V30 7103 N 644.452 1.42507 0.673017 0
M  V30 7104 C 645.677 1.4668 1.46627 0
M  V30 7105 C 646.102 0.080066 1.8793 0
M  V30 7106 O 645.46 -0.921879 1.56112 0
M  V30 7107 C 645.508 2.40091 2.69051 0
M  V30 7108 O 644.612 1.8735 3.67387 0
M  V30 7109 H 643.953 0.496908 0.44043 0
M  V30 7110 H 646.483 1.87215 0.825334 0
M  V30 7111 H 646.493 2.56731 3.17101 0
M  V30 7112 H 645.168 3.4084 2.3833 0
M  V30 7113 H 643.745 1.80274 3.26429 0
M  V30 7114 N 645.93 -0.909495 1.28709 0
M  V30 7115 C 647.341 -1.47419 1.14563 0
M  V30 7116 C 647.692 -1.94432 -0.262832 0
M  V30 7117 O 646.817 -1.82842 -1.15748 0
M  V30 7118 C 647.412 -2.67933 2.07358 0
M  V30 7119 C 645.971 -3.20568 1.97264 0
M  V30 7120 C 645.118 -1.93269 1.98852 0
M  V30 7121 H 648.069 -0.721787 1.41336 0
M  V30 7122 H 648.09 -3.43339 1.64007 0
M  V30 7123 H 647.602 -2.33685 3.09859 0
M  V30 7124 H 645.703 -3.59531 0.978157 0
M  V30 7125 H 645.816 -3.85529 2.84436 0
M  V30 7126 H 644.18 -2.10553 1.43317 0
M  V30 7127 H 644.963 -1.61312 3.0304 0
M  V30 7128 N 647.408 -1.11026 -1.11852 0
M  V30 7129 C 648.633 -0.879064 -1.87849 0
M  V30 7130 C 649.058 0.565406 -1.79401 0
M  V30 7131 O 648.416 1.39886 -1.15333 0
M  V30 7132 C 648.464 -1.33985 -3.34784 0
M  V30 7133 O 647.568 -0.508803 -4.09249 0
M  V30 7134 H 646.909 -0.316992 -0.583448 0
M  V30 7135 H 649.439 -1.47863 -1.41413 0
M  V30 7136 H 649.449 -1.33248 -3.85628 0
M  V30 7137 H 648.124 -2.39172 -3.40249 0
M  V30 7138 H 646.701 -0.581913 -3.68332 0
M  V30 7139 N 648.886 1.2938 -0.899927 0
M  V30 7140 C 650.111 2.00228 -0.540692 0
M  V30 7141 C 650.536 1.66909 0.867359 0
M  V30 7142 O 649.894 0.893824 1.57735 0
M  V30 7143 C 649.942 3.52921 -0.740232 0
M  V30 7144 O 649.046 4.11879 0.207154 0
M  V30 7145 H 648.387 0.629505 -0.211233 0
M  V30 7146 H 650.917 1.6487 -1.21158 0
M  V30 7147 H 650.927 4.0287 -0.644973 0
M  V30 7148 H 649.602 3.76508 -1.76677 0
M  V30 7149 H 648.179 3.72845 0.0643315 0
M  V30 7150 N 650.364 0.662433 1.43002 0
M  V30 7151 C 651.592 0.187615 2.06048 0
M  V30 7152 C 652.007 -1.15039 1.49705 0
M  V30 7153 O 651.364 -1.71209 0.631956 0
M  V30 7154 C 651.415 0.100498 3.6136 0
M  V30 7155 O 651.136 1.38562 4.15611 0
M  V30 7156 C 652.637 -0.399298 4.41498 0
M  V30 7157 H 649.857 0.0941675 0.664359 0
M  V30 7158 H 652.401 0.905681 1.83351 0
M  V30 7159 H 650.556 -0.568181 3.83211 0
M  V30 7160 H 650.97 1.25084 5.09366 0
M  V30 7161 H 652.444 -0.409187 5.50481 0
M  V30 7162 H 652.921 -1.43232 4.15188 0
M  V30 7163 H 653.527 0.23721 4.24638 0
M  V30 7164 N 651.842 -1.52309 0.404946 0
M  V30 7165 C 652.774 -2.24579 -0.45791 0
M  V30 7166 C 653.787 -1.2739 -1.01369 0
M  V30 7167 O 654.976 -1.53363 -0.91335 0
M  V30 7168 C 652.076 -2.9608 -1.64893 0
M  V30 7169 C 651.249 -4.20106 -1.21777 0
M  V30 7170 C 650.308 -4.74468 -2.27523 0
M  V30 7171 O 649.334 -5.37157 -1.88285 0
M  V30 7172 N 650.536 -4.55678 -3.59635 0
M  V30 7173 H 653.301 -2.99265 0.161341 0
M  V30 7174 H 650.862 -1.60228 0.232107 0
M  V30 7175 H 652.854 -3.29344 -2.35191 0
M  V30 7176 H 651.424 -2.24606 -2.17419 0
M  V30 7177 H 650.644 -3.92704 -0.343071 0
M  V30 7178 H 651.932 -5.00658 -0.906596 0
M  V30 7179 H 651.33 -4.05673 -3.94266 0
M  V30 7180 H 649.887 -4.9339 -4.25922 0
M  V30 7181 N 653.32 -0.135238 -1.57019 0
M  V30 7182 C 654.283 0.794707 -2.14981 0
M  V30 7183 C 655.283 1.18342 -1.08866 0
M  V30 7184 O 656.473 1.10627 -1.34563 0
M  V30 7185 C 653.605 2.07685 -2.70333 0
M  V30 7186 H 654.798 0.290696 -2.98488 0
M  V30 7187 H 652.351 0.114128 -1.55883 0
M  V30 7188 H 653.086 2.6248 -1.9046 0
M  V30 7189 H 652.871 1.80745 -3.47957 0
M  V30 7190 H 654.361 2.74127 -3.1503 0
M  V30 7191 N 654.798 1.5699 0.138552 0
M  V30 7192 C 655.746 1.99858 1.18994 0
M  V30 7193 C 656.74 0.89231 1.43994 0
M  V30 7194 O 657.946 1.0775 1.44187 0
M  V30 7195 H 654.321 0.636325 0.400743 0
M  V30 7196 H 656.292 2.87427 0.801755 0
M  V30 7197 C 655.041 2.40235 2.51361 0
M  V30 7198 H 654.364 3.24917 2.32957 0
M  V30 7199 H 655.804 2.74045 3.23535 0
M  V30 7200 C 654.263 1.25829 3.1252 0
M  V30 7201 O 654.793 0.563604 3.97727 0
M  V30 7202 N 652.999 1.02036 2.72097 0
M  V30 7203 H 652.546 1.58705 2.02905 0
M  V30 7204 H 652.504 0.256796 3.1335 0
M  V30 7205 N 656.276 -0.40816 1.52223 0
M  V30 7206 C 657.501 -1.18127 1.70472 0
M  V30 7207 C 657.926 -1.83491 0.41384 0
M  V30 7208 O 657.284 -1.70047 -0.628778 0
M  V30 7209 C 657.332 -2.21935 2.84213 0
M  V30 7210 O 656.436 -3.28099 2.4985 0
M  V30 7211 H 655.777 -0.344781 0.56747 0
M  V30 7212 H 658.307 -0.478328 1.9893 0
M  V30 7213 H 658.317 -2.66248 3.09153 0
M  V30 7214 H 656.992 -1.73744 3.7787 0
M  V30 7215 H 655.569 -2.89058 2.35584 0
M  V30 7216 N 657.755 -1.42862 -0.66545 0
M  V30 7217 C 659.004 -1.43119 -1.42126 0
M  V30 7218 C 659.317 -0.0545297 -1.95524 0
M  V30 7219 O 660.523 0.0654747 -2.71421 0
M  V30 7220 C 658.979 -2.51797 -2.5715 0
M  V30 7221 C 658.587 -3.95514 -2.10411 0
M  V30 7222 C 660.331 -2.61233 -3.346 0
M  V30 7223 C 658.238 -4.95682 -3.22573 0
M  V30 7224 H 657.168 -0.532349 -0.533966 0
M  V30 7225 H 659.819 -1.68806 -0.719506 0
M  V30 7226 H 658.201 -2.19292 -3.29738 0
M  V30 7227 H 659.375 -4.3742 -1.44915 0
M  V30 7228 H 657.69 -3.90012 -1.45874 0
M  V30 7229 H 660.287 -3.33248 -4.18151 0
M  V30 7230 H 660.63 -1.65896 -3.81817 0
M  V30 7231 H 661.163 -2.9298 -2.69087 0
M  V30 7232 H 657.902 -5.92529 -2.80338 0
M  V30 7233 H 657.422 -4.58399 -3.86821 0
M  V30 7234 H 659.101 -5.17828 -3.87896 0
M  V30 7235 N 659.233 0.902656 -1.29189 0
M  V30 7236 C 660.479 1.65532 -1.17163 0
M  V30 7237 C 660.812 1.92216 0.276879 0
M  V30 7238 O 660.087 1.53048 1.20027 0
M  V30 7239 C 660.37 3.00629 -1.98228 0
M  V30 7240 C 660.223 2.81029 -3.51202 0
M  V30 7241 C 661.542 4.01321 -1.80635 0
M  V30 7242 H 658.661 0.60071 -0.426985 0
M  V30 7243 H 661.303 1.04578 -1.5863 0
M  V30 7244 H 659.453 3.52656 -1.62991 0
M  V30 7245 H 661.125 2.35927 -3.96404 0
M  V30 7246 H 659.368 2.1587 -3.76275 0
M  V30 7247 H 660.039 3.77014 -4.03192 0
M  V30 7248 H 662.515 3.58394 -2.11406 0
M  V30 7249 H 661.391 4.93792 -2.3971 0
M  V30 7250 H 661.652 4.35505 -0.760754 0
M  V30 7251 N 660.711 1.11618 1.11262 0
M  V30 7252 C 661.641 0.79846 2.19424 0
M  V30 7253 C 662.622 -0.234003 1.68483 0
M  V30 7254 O 663.807 -0.0970704 1.93957 0
M  V30 7255 C 660.937 0.242892 3.4645 0
M  V30 7256 C 659.891 1.20744 4.10615 0
M  V30 7257 C 659.217 0.512494 5.32238 0
M  V30 7258 C 660.517 2.55884 4.55325 0
M  V30 7259 H 662.211 1.70286 2.46258 0
M  V30 7260 H 659.757 0.820195 1.18359 0
M  V30 7261 H 661.71 0.00840447 4.21399 0
M  V30 7262 H 660.434 -0.696811 3.1908 0
M  V30 7263 H 659.093 1.42759 3.37662 0
M  V30 7264 H 658.741 -0.432075 5.01141 0
M  V30 7265 H 658.441 1.15583 5.7612 0
M  V30 7266 H 659.965 0.286842 6.09926 0
M  V30 7267 H 661.379 2.37946 5.21588 0
M  V30 7268 H 659.776 3.16216 5.10027 0
M  V30 7269 H 660.846 3.14968 3.68678 0
M  V30 7270 N 662.189 -1.289 0.906776 0
M  V30 7271 C 663.099 -2.31256 0.394707 0
M  V30 7272 C 664.115 -1.66231 -0.514121 0
M  V30 7273 O 665.291 -1.97347 -0.401994 0
M  V30 7274 C 662.356 -3.44792 -0.363191 0
M  V30 7275 C 661.417 -4.25391 0.578012 0
M  V30 7276 C 660.65 -5.33506 -0.143811 0
M  V30 7277 O 660.873 -5.53786 -1.36665 0
M  V30 7278 O 659.807 -5.99673 0.5173 0
M  V30 7279 H 663.633 -2.77051 1.24405 0
M  V30 7280 H 661.218 -1.33466 0.671346 0
M  V30 7281 H 663.1 -4.139 -0.791503 0
M  V30 7282 H 661.775 -3.01093 -1.18848 0
M  V30 7283 H 660.682 -3.58899 1.05558 0
M  V30 7284 H 662.015 -4.72752 1.36992 0
M  V30 7285 N 663.667 -0.670007 -1.42649 0
M  V30 7286 C 664.892 -0.196955 -2.06463 0
M  V30 7287 C 665.317 1.1352 -1.49983 0
M  V30 7288 O 664.675 1.705 -0.616397 0
M  V30 7289 C 664.723 -0.137381 -3.60338 0
M  V30 7290 O 663.827 0.895523 -4.02559 0
M  V30 7291 H 663.168 -0.102579 -0.656029 0
M  V30 7292 H 665.698 -0.917669 -1.82866 0
M  V30 7293 H 665.708 0.0403625 -4.0798 0
M  V30 7294 H 664.383 -1.10977 -4.0082 0
M  V30 7295 H 662.96 0.689209 -3.66476 0
M  V30 7296 N 665.145 1.52092 -0.413018 0
M  V30 7297 C 666.37 2.06756 0.163338 0
M  V30 7298 C 666.795 1.28073 1.37764 0
M  V30 7299 O 666.153 0.312015 1.78595 0
M  V30 7300 C 666.201 3.57278 0.488322 0
M  V30 7301 O 665.305 3.80986 1.57871 0
M  V30 7302 H 664.646 0.663882 0.0125068 0
M  V30 7303 H 667.176 1.95988 -0.587339 0
M  V30 7304 H 667.186 4.01125 0.745836 0
M  V30 7305 H 665.861 4.13978 -0.399327 0
M  V30 7306 H 664.438 3.49017 1.31306 0
M  V30 7307 N 666.623 0.143563 1.56945 0
M  V30 7308 C 668.034 -0.37783 1.82837 0
M  V30 7309 C 668.385 -1.64967 1.06209 0
M  V30 7310 O 667.51 -2.14221 0.306291 0
M  V30 7311 C 668.105 -0.692274 3.31652 0
M  V30 7312 C 666.664 -1.1582 3.58138 0
M  V30 7313 C 665.811 -0.17951 2.76718 0
M  V30 7314 H 668.762 0.368317 1.54367 0
M  V30 7315 H 668.783 -1.54729 3.47619 0
M  V30 7316 H 668.295 0.233572 3.87397 0
M  V30 7317 H 666.396 -2.10011 3.07776 0
M  V30 7318 H 666.509 -1.08655 4.66616 0
M  V30 7319 H 664.873 -0.671458 2.4569 0
M  V30 7320 H 665.656 0.739865 3.35233 0
M  V30 7321 N 668.101 -1.57061 -0.130224 0
M  V30 7322 C 669.326 -1.88802 -0.858409 0
M  V30 7323 C 669.751 -0.734353 -1.73173 0
M  V30 7324 O 669.109 0.315529 -1.78533 0
M  V30 7325 C 669.157 -3.19228 -1.67708 0
M  V30 7326 O 668.261 -3.04343 -2.78297 0
M  V30 7327 H 667.602 -0.619849 -0.238083 0
M  V30 7328 H 670.132 -2.04271 -0.115995 0
M  V30 7329 H 670.142 -3.51669 -2.06864 0
M  V30 7330 H 668.817 -4.02793 -1.0359 0
M  V30 7331 H 667.394 -2.83346 -2.42425 0
M  V30 7332 N 669.579 0.400081 -1.52437 0
M  V30 7333 C 670.511 1.50729 -1.72666 0
M  V30 7334 C 671.524 1.51058 -0.607075 0
M  V30 7335 O 672.713 1.5516 -0.88248 0
M  V30 7336 C 669.813 2.89604 -1.76019 0
M  V30 7337 C 668.986 3.13365 -3.05157 0
M  V30 7338 C 668.045 4.32163 -3.00203 0
M  V30 7339 O 667.071 4.29004 -3.74092 0
M  V30 7340 N 668.273 5.3776 -2.18619 0
M  V30 7341 H 671.038 1.33767 -2.68191 0
M  V30 7342 H 668.599 0.58948 -1.50787 0
M  V30 7343 H 670.591 3.67159 -1.70225 0
M  V30 7344 H 669.161 2.99979 -0.879284 0
M  V30 7345 H 668.381 2.23774 -3.24529 0
M  V30 7346 H 669.669 3.26089 -3.90568 0
M  V30 7347 H 669.067 5.43177 -1.58035 0
M  V30 7348 H 667.624 6.14023 -2.18674 0
M  V30 7349 N 671.057 1.43213 0.657864 0
M  V30 7350 C 671.967 1.50448 1.80007 0
M  V30 7351 C 672.983 0.39191 1.69529 0
M  V30 7352 O 674.159 0.645349 1.90781 0
M  V30 7353 C 671.224 1.42062 3.16258 0
M  V30 7354 C 670.285 2.63951 3.38568 0
M  V30 7355 C 669.518 2.55956 4.68318 0
M  V30 7356 O 669.741 1.60473 5.47361 0
M  V30 7357 O 668.675 3.46378 4.92245 0
M  V30 7358 H 672.501 2.4689 1.76858 0
M  V30 7359 H 670.086 1.25163 0.81576 0
M  V30 7360 H 671.968 1.3981 3.97531 0
M  V30 7361 H 670.643 0.487524 3.20008 0
M  V30 7362 H 669.55 2.71776 2.57077 0
M  V30 7363 H 670.883 3.56217 3.39662 0
M  V30 7364 N 672.536 -0.895792 1.29666 0
M  V30 7365 C 673.764 -1.68001 1.20761 0
M  V30 7366 C 674.179 -1.87379 -0.231187 0
M  V30 7367 O 673.536 -1.41359 -1.15429 0
M  V30 7368 C 673.587 -3.06236 1.92098 0
M  V30 7369 O 673.308 -2.8774 3.30359 0
M  V30 7370 C 674.809 -4.00652 1.89717 0
M  V30 7371 H 672.029 -0.524591 0.418384 0
M  V30 7372 H 674.573 -1.11995 1.71106 0
M  V30 7373 H 672.728 -3.59007 1.45578 0
M  V30 7374 H 673.142 -3.75359 3.66342 0
M  V30 7375 H 674.616 -4.95051 2.44189 0
M  V30 7376 H 675.093 -4.30424 0.873595 0
M  V30 7377 H 675.699 -3.53815 2.35998 0
M  V30 7378 N 674.014 -1.12206 -1.10668 0
M  V30 7379 C 675.425 -0.890657 -1.64086 0
M  V30 7380 C 675.776 0.575502 -1.8757 0
M  V30 7381 O 674.901 1.4394 -1.61587 0
M  V30 7382 C 675.496 -1.61029 -2.98085 0
M  V30 7383 C 674.055 -1.4251 -3.48379 0
M  V30 7384 C 673.202 -1.64778 -2.23033 0
M  V30 7385 H 676.153 -1.27718 -0.94201 0
M  V30 7386 H 676.174 -1.05993 -3.65439 0
M  V30 7387 H 675.686 -2.67735 -2.80962 0
M  V30 7388 H 673.787 -0.380497 -3.70652 0
M  V30 7389 H 673.9 -2.17959 -4.26651 0
M  V30 7390 H 672.264 -1.07171 -2.31055 0
M  V30 7391 H 673.047 -2.72776 -2.08443 0
M  V30 7392 N 675.492 1.28418 -0.913599 0
M  V30 7393 C 676.74 1.94596 -0.545594 0
M  V30 7394 C 677.061 1.7227 0.913668 0
M  V30 7395 O 676.331 1.06233 1.64595 0
M  V30 7396 H 674.911 0.720065 -0.198783 0
M  V30 7397 H 677.573 1.56404 -1.16292 0
M  V30 7398 H 676.669 3.03202 -0.739911 0
M  V30 7399 N 676.97 0.677563 1.42291 0
M  V30 7400 C 678.247 0.129803 1.95169 0
M  V30 7401 C 678.627 -1.35605 1.61786 0
M  V30 7402 O 677.975 -2.09361 0.915444 0
M  V30 7403 C 678.185 0.401889 3.46678 0
M  V30 7404 C 679.533 0.319889 4.23393 0
M  V30 7405 O 680.557 0.33579 3.54614 0
M  V30 7406 O 679.416 0.264459 5.4586 0
M  V30 7407 H 676.51 0.00447433 0.826988 0
M  V30 7408 H 679.056 0.752483 1.52105 0
M  V30 7409 H 677.828 1.43108 3.64192 0
M  V30 7410 H 677.451 -0.252662 3.96796 0
M  V30 7411 N 678.448 -1.51871 0.421078 0
M  V30 7412 C 679.696 -2.01539 -0.150492 0
M  V30 7413 C 680.017 -1.30803 -1.44623 0
M  V30 7414 O 679.287 -0.437568 -1.90951 0
M  V30 7415 H 677.867 -0.744698 -0.0586041 0
M  V30 7416 H 680.529 -1.8668 0.560059 0
M  V30 7417 H 679.625 -3.10264 -0.338068 0
M  V30 7418 N 679.926 -0.151884 -1.56866 0
M  V30 7419 C 680.873 0.785936 -2.17006 0
M  V30 7420 C 681.843 1.2407 -1.10435 0
M  V30 7421 O 683.028 1.31235 -1.38499 0
M  V30 7422 C 680.168 2.01771 -2.79969 0
M  V30 7423 C 679.281 1.6083 -4.00946 0
M  V30 7424 C 678.416 2.79224 -4.51893 0
M  V30 7425 C 677.455 2.3468 -5.65324 0
M  V30 7426 N 676.592 3.461 -6.10867 0
M  V30 7427 H 681.432 0.266286 -2.96808 0
M  V30 7428 H 678.969 0.11972 -1.46612 0
M  V30 7429 H 680.927 2.73989 -3.14621 0
M  V30 7430 H 679.557 2.51139 -2.02803 0
M  V30 7431 H 678.609 0.783592 -3.72242 0
M  V30 7432 H 679.921 1.24119 -4.83111 0
M  V30 7433 H 679.075 3.59625 -4.88625 0
M  V30 7434 H 677.814 3.19183 -3.68746 0
M  V30 7435 H 676.819 1.52721 -5.28163 0
M  V30 7436 H 678.044 1.95801 -6.5026 0
M  V30 7437 H 675.99 3.85671 -5.30654 0
M  V30 7438 H 675.907 3.1342 -6.87971 0
M  V30 7439 H 677.175 4.26844 -6.52246 0
M  V30 7440 N 681.404 1.57128 0.121893 0
M  V30 7441 C 682.815 1.73902 0.679348 0
M  V30 7442 C 683.166 0.770135 1.80453 0
M  V30 7443 O 682.291 -0.0576083 2.16323 0
M  V30 7444 C 682.886 3.15328 1.2391 0
M  V30 7445 C 681.445 3.33618 1.74288 0
M  V30 7446 C 680.592 2.6978 0.641414 0
M  V30 7447 H 683.543 1.58359 -0.104 0
M  V30 7448 H 683.564 3.16718 2.10879 0
M  V30 7449 H 683.076 3.85821 0.419957 0
M  V30 7450 H 681.177 2.68162 2.58689 0
M  V30 7451 H 681.29 4.4176 1.85432 0
M  V30 7452 H 679.654 2.30935 1.0743 0
M  V30 7453 H 680.437 3.42895 -0.166707 0
M  V30 7454 N 682.882 -0.391992 1.52647 0
M  V30 7455 C 684.293 -0.970064 1.5952 0
M  V30 7456 C 684.644 -1.91059 0.446207 0
M  V30 7457 O 683.769 -2.12062 -0.431125 0
M  V30 7458 C 684.364 -1.76614 2.89125 0
M  V30 7459 C 682.923 -2.29396 2.9842 0
M  V30 7460 C 682.07 -1.09864 2.54608 0
M  V30 7461 H 685.021 -0.171638 1.57769 0
M  V30 7462 H 685.042 -2.62511 2.75442 0
M  V30 7463 H 684.554 -1.08135 3.72731 0
M  V30 7464 H 682.655 -3.01196 2.19344 0
M  V30 7465 H 682.768 -2.59088 4.03002 0
M  V30 7466 H 681.132 -1.45777 2.08857 0
M  V30 7467 H 681.915 -0.429249 3.40606 0
M  V30 7468 N 684.36 -1.4356 -0.65026 0
M  V30 7469 C 685.323 -1.48615 -1.74489 0
M  V30 7470 C 686.323 -0.370483 -1.56474 0
M  V30 7471 O 687.513 -0.632351 -1.62317 0
M  V30 7472 C 684.645 -1.34161 -3.13391 0
M  V30 7473 H 685.838 -2.46103 -1.71387 0
M  V30 7474 H 683.391 -1.30369 -0.862186 0
M  V30 7475 H 684.126 -0.376918 -3.22102 0
M  V30 7476 H 683.911 -2.1504 -3.27872 0
M  V30 7477 H 685.401 -1.40637 -3.93206 0
M  V30 7478 N 685.838 0.888903 -1.30139 0
M  V30 7479 C 686.768 2.01046 -1.18755 0
M  V30 7480 C 687.749 1.69916 -0.0791438 0
M  V30 7481 O 688.934 1.92445 -0.260498 0
M  V30 7482 C 686.064 3.36109 -0.874518 0
M  V30 7483 C 685.018 3.81486 -1.94043 0
M  V30 7484 C 684.344 5.13796 -1.48047 0
M  V30 7485 C 685.644 4.00637 -3.35093 0
M  V30 7486 H 687.338 2.10828 -2.12584 0
M  V30 7487 H 684.884 1.01298 -1.02346 0
M  V30 7488 H 686.837 4.14089 -0.781548 0
M  V30 7489 H 685.561 3.26449 0.0994519 0
M  V30 7490 H 684.22 3.05731 -2.02297 0
M  V30 7491 H 683.868 5.0056 -0.494878 0
M  V30 7492 H 683.568 5.45127 -2.19341 0
M  V30 7493 H 685.092 5.94305 -1.40121 0
M  V30 7494 H 686.506 4.69067 -3.2962 0
M  V30 7495 H 684.903 4.43339 -4.04438 0
M  V30 7496 H 685.973 3.0462 -3.77273 0
M  V30 7497 N 687.317 1.12792 1.10072 0
M  V30 7498 C 688.728 0.899346 1.63611 0
M  V30 7499 C 689.079 -0.565547 1.87872 0
M  V30 7500 O 688.204 -1.43081 1.62348 0
M  V30 7501 C 688.799 1.62608 2.97227 0
M  V30 7502 C 687.358 1.44356 3.47618 0
M  V30 7503 C 686.505 1.65958 2.22156 0
M  V30 7504 H 689.456 1.28216 0.935223 0
M  V30 7505 H 689.477 1.0793 3.64872 0
M  V30 7506 H 688.989 2.69221 2.79538 0
M  V30 7507 H 687.09 0.400148 3.70445 0
M  V30 7508 H 687.203 2.20218 4.25489 0
M  V30 7509 H 685.567 1.08395 2.30484 0
M  V30 7510 H 686.35 2.73877 2.06993 0
M  V30 7511 N 688.795 -1.27931 0.920396 0
M  V30 7512 C 690.206 -1.76707 0.602616 0
M  V30 7513 C 690.557 -1.75249 -0.882159 0
M  V30 7514 O 689.682 -1.35135 -1.69019 0
M  V30 7515 C 690.277 -3.20884 1.08714 0
M  V30 7516 C 688.836 -3.67356 0.820157 0
M  V30 7517 C 687.983 -2.47525 1.25006 0
M  V30 7518 H 690.934 -1.14301 1.10095 0
M  V30 7519 H 690.955 -3.78045 0.431535 0
M  V30 7520 H 690.467 -3.21913 2.1678 0
M  V30 7521 H 688.568 -3.7178 -0.247012 0
M  V30 7522 H 688.681 -4.57181 1.43257 0
M  V30 7523 H 687.045 -2.45765 0.668698 0
M  V30 7524 H 687.828 -2.51269 2.3392 0
M  V30 7525 N 690.273 -0.685099 -1.4193 0
M  V30 7526 C 691.22 -0.0131869 -2.30796 0
M  V30 7527 C 692.19 0.782129 -1.46533 0
M  V30 7528 O 693.375 0.75229 -1.75343 0
M  V30 7529 C 690.515 0.924768 -3.32479 0
M  V30 7530 C 689.628 0.122181 -4.31827 0
M  V30 7531 C 688.763 1.05682 -5.20581 0
M  V30 7532 C 687.802 0.246526 -6.11603 0
M  V30 7533 N 686.939 1.13442 -6.92875 0
M  V30 7534 H 691.779 -0.776789 -2.87698 0
M  V30 7535 H 689.316 -0.394791 -1.41703 0
M  V30 7536 H 691.274 1.48251 -3.89971 0
M  V30 7537 H 689.904 1.65488 -2.77152 0
M  V30 7538 H 688.956 -0.552335 -3.76369 0
M  V30 7539 H 690.268 -0.506473 -4.96222 0
M  V30 7540 H 689.422 1.68415 -5.82856 0
M  V30 7541 H 688.161 1.71935 -4.56388 0
M  V30 7542 H 687.166 -0.393944 -5.48387 0
M  V30 7543 H 688.391 -0.412053 -6.77849 0
M  V30 7544 H 686.337 1.78316 -6.313 0
M  V30 7545 H 686.254 0.561089 -7.53915 0
M  V30 7546 H 687.522 1.74889 -7.59628 0
M  V30 7547 N 691.751 1.51645 -0.429126 0
M  V30 7548 C 692.683 2.25279 0.422124 0
M  V30 7549 C 693.696 1.28986 0.993299 0
M  V30 7550 O 694.885 1.54797 0.888836 0
M  V30 7551 C 691.985 2.98666 1.60162 0
M  V30 7552 C 691.158 4.2199 1.15078 0
M  V30 7553 C 690.217 4.78028 2.19946 0
M  V30 7554 O 689.243 5.40084 1.79716 0
M  V30 7555 N 690.445 4.61342 3.5234 0
M  V30 7556 H 693.21 2.98971 -0.208931 0
M  V30 7557 H 690.771 1.59838 -0.257568 0
M  V30 7558 H 692.763 3.33044 2.29922 0
M  V30 7559 H 691.333 2.28036 2.13818 0
M  V30 7560 H 690.553 3.932 0.280552 0
M  V30 7561 H 691.841 5.02037 0.826831 0
M  V30 7562 H 691.239 4.11894 3.87763 0
M  V30 7563 H 689.796 5.00104 4.18019 0
M  V30 7564 N 693.229 0.160201 1.56784 0
M  V30 7565 C 694.454 -0.497373 2.01348 0
M  V30 7566 C 694.879 -1.56757 1.03966 0
M  V30 7567 O 694.237 -1.81292 0.0174455 0
M  V30 7568 C 694.285 -1.0628 3.44582 0
M  V30 7569 O 693.389 -2.17723 3.50244 0
M  V30 7570 H 692.73 -0.120295 0.653012 0
M  V30 7571 H 695.26 0.260821 2.02931 0
M  V30 7572 H 695.27 -1.38819 3.83658 0
M  V30 7573 H 693.945 -0.279166 4.14962 0
M  V30 7574 H 692.522 -1.86313 3.2302 0
M  V30 7575 N 694.707 -1.5719 -0.113559 0
M  V30 7576 C 695.654 -2.00736 -1.13901 0
M  V30 7577 C 696.624 -0.88044 -1.40846 0
M  V30 7578 O 697.809 -1.14507 -1.5262 0
M  V30 7579 C 694.949 -2.42132 -2.45899 0
M  V30 7580 C 694.062 -3.68264 -2.25844 0
M  V30 7581 C 693.197 -3.98617 -3.5111 0
M  V30 7582 C 692.236 -5.17915 -3.26236 0
M  V30 7583 N 691.373 -5.44111 -4.4372 0
M  V30 7584 H 696.213 -2.88128 -0.760677 0
M  V30 7585 H 693.75 -1.42523 -0.364099 0
M  V30 7586 H 695.708 -2.6417 -3.22908 0
M  V30 7587 H 694.338 -1.57775 -2.81615 0
M  V30 7588 H 693.39 -3.53809 -1.39726 0
M  V30 7589 H 694.702 -4.55425 -2.03444 0
M  V30 7590 H 693.856 -4.21333 -4.36536 0
M  V30 7591 H 692.595 -3.09942 -3.76546 0
M  V30 7592 H 691.6 -4.95038 -2.39202 0
M  V30 7593 H 692.825 -6.08172 -3.02165 0
M  V30 7594 H 690.771 -4.58394 -4.69266 0
M  V30 7595 H 690.688 -6.25606 -4.24444 0
M  V30 7596 H 691.956 -5.71351 -5.30263 0
M  V30 7597 N 696.185 0.383891 -1.52853 0
M  V30 7598 C 697.132 1.46924 -1.77995 0
M  V30 7599 C 698.102 1.53958 -0.623396 0
M  V30 7600 O 699.287 1.70134 -0.863657 0
M  V30 7601 C 696.427 2.84093 -1.95921 0
M  V30 7602 C 695.54 2.86171 -3.23621 0
M  V30 7603 C 694.675 4.14799 -3.31836 0
M  V30 7604 C 693.714 4.10948 -4.53639 0
M  V30 7605 N 692.851 5.31192 -4.59107 0
M  V30 7606 H 697.691 1.24786 -2.70615 0
M  V30 7607 H 695.228 0.605265 -1.34071 0
M  V30 7608 H 697.186 3.63755 -2.04299 0
M  V30 7609 H 695.816 3.04671 -1.06656 0
M  V30 7610 H 694.868 1.9885 -3.24288 0
M  V30 7611 H 696.18 2.79194 -4.13343 0
M  V30 7612 H 695.334 5.02867 -3.39425 0
M  V30 7613 H 694.073 4.24505 -2.40097 0
M  V30 7614 H 693.078 3.21268 -4.46169 0
M  V30 7615 H 694.303 4.0286 -5.467 0
M  V30 7616 H 692.249 5.41518 -3.70262 0
M  V30 7617 H 692.166 5.26311 -5.42708 0
M  V30 7618 H 693.434 6.21143 -4.70958 0
M  V30 7619 N 697.663 1.43903 0.642637 0
M  V30 7620 C 698.611 1.50164 1.77634 0
M  V30 7621 C 699.605 0.374294 1.65213 0
M  V30 7622 O 700.811 0.548748 1.71431 0
M  V30 7623 H 697.186 0.470974 0.586249 0
M  V30 7624 H 699.157 2.45603 1.69474 0
M  V30 7625 C 697.906 1.45196 3.15933 0
M  V30 7626 H 697.229 2.31253 3.26132 0
M  V30 7627 H 698.669 1.53638 3.95185 0
M  V30 7628 C 697.128 0.171043 3.36466 0
M  V30 7629 O 697.658 -0.763413 3.94379 0
M  V30 7630 N 695.864 0.077847 2.90496 0
M  V30 7631 H 695.411 0.8391 2.43551 0
M  V30 7632 H 695.369 -0.778473 3.0461 0
M  V30 7633 N 699.141 -0.881989 1.30609 0
M  V30 7634 C 700.366 -1.67236 1.22665 0
M  V30 7635 C 700.791 -1.8696 -0.206777 0
M  V30 7636 O 700.149 -1.4027 -1.14865 0
M  V30 7637 C 700.197 -3.02446 1.96363 0
M  V30 7638 O 699.301 -3.91614 1.29276 0
M  V30 7639 H 698.642 -0.510902 0.424117 0
M  V30 7640 H 701.172 -1.10055 1.72479 0
M  V30 7641 H 701.182 -3.52468 2.055 0
M  V30 7642 H 699.857 -2.8741 3.00613 0
M  V30 7643 H 698.434 -3.50055 1.28514 0
M  V30 7644 N 700.619 -1.13374 -1.09472 0
M  V30 7645 C 701.865 -0.906459 -1.82085 0
M  V30 7646 C 702.22 0.5614 -1.84027 0
M  V30 7647 O 701.513 1.41012 -1.29716 0
M  V30 7648 C 701.707 -1.42759 -3.2765 0
M  V30 7649 C 701.536 -2.94459 -3.39888 0
M  V30 7650 C 700.306 -3.62798 -3.51718 0
M  V30 7651 C 702.504 -3.92398 -3.32457 0
M  V30 7652 N 700.486 -5.02516 -3.52635 0
M  V30 7653 C 701.857 -5.18304 -3.40237 0
M  V30 7654 C 703.912 -3.84671 -3.16122 0
M  V30 7655 C 702.615 -6.37386 -3.33364 0
M  V30 7656 C 704.641 -5.03287 -3.10574 0
M  V30 7657 C 704.003 -6.28055 -3.18945 0
M  V30 7658 H 700.102 -0.385097 -0.680606 0
M  V30 7659 H 702.686 -1.44187 -1.30836 0
M  V30 7660 H 700.857 -0.919102 -3.77369 0
M  V30 7661 H 702.589 -1.14136 -3.88272 0
M  V30 7662 H 699.344 -3.13317 -3.55147 0
M  V30 7663 H 699.768 -5.75421 -3.56679 0
M  V30 7664 H 704.41 -2.89094 -3.0852 0
M  V30 7665 H 702.128 -7.33219 -3.3973 0
M  V30 7666 H 705.714 -4.99047 -2.9907 0
M  V30 7667 H 704.594 -7.18299 -3.14668 0
M  V30 7668 N 702.098 1.27442 -0.927168 0
M  V30 7669 C 703.046 2.28844 -0.416333 0
M  V30 7670 C 704.04 1.61882 0.499057 0
M  V30 7671 O 705.246 1.75969 0.378817 0
M  V30 7672 H 701.621 0.742989 -0.116065 0
M  V30 7673 H 703.592 2.69344 -1.28438 0
M  V30 7674 C 702.341 3.4626 0.316107 0
M  V30 7675 H 701.664 3.97999 -0.379082 0
M  V30 7676 H 703.104 4.19173 0.637975 0
M  V30 7677 C 701.563 3.00211 1.5289 0
M  V30 7678 O 702.093 3.03837 2.62766 0
M  V30 7679 N 700.299 2.55713 1.38054 0
M  V30 7680 H 699.846 2.52962 0.4866 0
M  V30 7681 H 699.804 2.25264 2.19325 0
M  V30 7682 N 703.576 0.692616 1.41565 0
M  V30 7683 C 704.508 -0.0137132 2.29196 0
M  V30 7684 C 705.521 -0.747417 1.44629 0
M  V30 7685 O 706.71 -0.598611 1.68163 0
M  V30 7686 C 703.81 -1.04347 3.22436 0
M  V30 7687 C 702.983 -0.379985 4.35746 0
M  V30 7688 C 702.042 -1.31195 5.09583 0
M  V30 7689 O 701.068 -0.805455 5.63472 0
M  V30 7690 N 702.27 -2.64443 5.16769 0
M  V30 7691 H 705.035 0.738614 2.90456 0
M  V30 7692 H 702.596 0.538415 1.52685 0
M  V30 7693 H 704.588 -1.6686 3.687 0
M  V30 7694 H 703.158 -1.69736 2.62504 0
M  V30 7695 H 702.378 0.424975 3.91903 0
M  V30 7696 H 703.666 0.0814904 5.08735 0
M  V30 7697 H 703.064 -3.08114 4.74428 0
M  V30 7698 H 701.621 -3.22159 5.66619 0
M  V30 7699 N 705.054 -1.51416 0.437162 0
M  V30 7700 C 706.303 -2.01275 -0.130865 0
M  V30 7701 C 706.616 -1.32593 -1.438 0
M  V30 7702 O 707.822 -1.7342 -2.08897 0
M  V30 7703 C 706.278 -3.5878 -0.283763 0
M  V30 7704 C 705.886 -4.36399 1.01293 0
M  V30 7705 C 707.63 -4.16786 -0.805569 0
M  V30 7706 C 705.537 -5.85608 0.825687 0
M  V30 7707 H 704.467 -0.752157 -0.0526818 0
M  V30 7708 H 707.118 -1.74524 0.566896 0
M  V30 7709 H 705.5 -3.81976 -1.04452 0
M  V30 7710 H 706.674 -4.24948 1.78201 0
M  V30 7711 H 704.989 -3.89843 1.46326 0
M  V30 7712 H 707.586 -5.25972 -0.962146 0
M  V30 7713 H 707.929 -3.75949 -1.78796 0
M  V30 7714 H 708.462 -3.97666 -0.103125 0
M  V30 7715 H 705.201 -6.30857 1.78045 0
M  V30 7716 H 704.721 -5.99723 0.0964029 0
M  V30 7717 H 706.4 -6.45226 0.478815 0
M  V30 7718 N 706.532 -0.168513 -1.56696 0
M  V30 7719 C 707.482 0.7751 -2.14421 0
M  V30 7720 C 708.466 1.19476 -1.07769 0
M  V30 7721 O 709.658 1.15759 -1.33898 0
M  V30 7722 C 706.787 2.00549 -2.7863 0
M  V30 7723 C 705.873 1.60795 -3.92436 0
M  V30 7724 N 706.264 0.919812 -4.97366 0
M  V30 7725 C 704.562 1.89917 -4.03544 0
M  V30 7726 C 705.263 0.724485 -5.77171 0
M  V30 7727 N 704.239 1.26505 -5.28675 0
M  V30 7728 H 708.041 0.240349 -2.92916 0
M  V30 7729 H 705.555 0.0322675 -1.62368 0
M  V30 7730 H 707.552 2.6917 -3.1836 0
M  V30 7731 H 706.212 2.54522 -2.01615 0
M  V30 7732 H 707.223 0.578169 -5.14663 0
M  V30 7733 H 703.9 2.45587 -3.37629 0
M  V30 7734 H 705.29 0.180521 -6.71657 0
M  V30 7735 N 708.01 1.57248 0.105221 0
M  V30 7736 C 709.24 1.89492 0.823175 0
M  V30 7737 C 709.648 0.75934 1.73294 0
M  V30 7738 O 708.991 -0.278182 1.81581 0
M  V30 7739 C 709.053 3.16891 1.69765 0
M  V30 7740 C 708.717 4.46787 0.960769 0
M  V30 7741 C 709.714 5.19061 0.295218 0
M  V30 7742 C 707.399 4.93467 0.937854 0
M  V30 7743 C 709.393 6.36246 -0.383393 0
M  V30 7744 C 707.08 6.10566 0.255452 0
M  V30 7745 C 708.078 6.81804 -0.404003 0
M  V30 7746 O 707.766 7.96673 -1.07549 0
M  V30 7747 H 707.498 0.631512 0.24118 0
M  V30 7748 H 710.052 2.05203 0.0899655 0
M  V30 7749 H 708.282 2.973 2.47285 0
M  V30 7750 H 709.971 3.35046 2.29126 0
M  V30 7751 H 710.737 4.84044 0.304448 0
M  V30 7752 H 706.616 4.37913 1.44058 0
M  V30 7753 H 710.16 6.91787 -0.898696 0
M  V30 7754 H 706.057 6.45039 0.244032 0
M  V30 7755 H 706.825 8.12596 -0.981355 0
M  V30 7756 N 709.488 -0.375779 1.53054 0
M  V30 7757 C 710.713 -1.14484 1.7294 0
M  V30 7758 C 711.138 -1.82572 0.452668 0
M  V30 7759 O 710.496 -1.71343 -0.592567 0
M  V30 7760 C 710.544 -2.15857 2.88857 0
M  V30 7761 O 709.648 -3.22725 2.56753 0
M  V30 7762 H 708.989 -0.332666 0.574656 0
M  V30 7763 H 711.519 -0.436025 1.999 0
M  V30 7764 H 711.529 -2.59631 3.14731 0
M  V30 7765 H 710.204 -1.65689 3.81471 0
M  V30 7766 H 708.781 -2.83996 2.41663 0
M  V30 7767 N 710.966 -1.44241 -0.634997 0
M  V30 7768 C 711.916 -1.47247 -1.74076 0
M  V30 7769 C 712.9 -0.338708 -1.57295 0
M  V30 7770 O 714.092 -0.583751 -1.67097 0
M  V30 7771 C 711.221 -1.41579 -3.12746 0
M  V30 7772 C 710.307 -2.60055 -3.35011 0
M  V30 7773 N 710.698 -3.85321 -3.27661 0
M  V30 7774 C 708.996 -2.55168 -3.65794 0
M  V30 7775 C 709.697 -4.64241 -3.50508 0
M  V30 7776 N 708.673 -3.95254 -3.73196 0
M  V30 7777 H 712.475 -2.4195 -1.66845 0
M  V30 7778 H 709.989 -1.3915 -0.837326 0
M  V30 7779 H 711.986 -1.41816 -3.92038 0
M  V30 7780 H 710.646 -0.479108 -3.21146 0
M  V30 7781 H 711.657 -4.17345 -3.06665 0
M  V30 7782 H 708.334 -1.70276 -3.81198 0
M  V30 7783 H 709.724 -5.73267 -3.50449 0
M  V30 7784 N 712.444 0.87505 -1.31075 0
M  V30 7785 C 713.669 1.66583 -1.23551 0
M  V30 7786 C 714.094 1.87067 0.19686 0
M  V30 7787 O 713.452 1.40877 1.1412 0
M  V30 7788 C 713.5 3.01401 -1.97965 0
M  V30 7789 O 712.604 3.90923 -1.31351 0
M  V30 7790 H 711.945 0.508645 -0.426821 0
M  V30 7791 H 714.475 1.09139 -1.7306 0
M  V30 7792 H 714.485 3.51374 -2.07366 0
M  V30 7793 H 713.16 2.85812 -3.02133 0
M  V30 7794 H 711.737 3.49369 -1.30368 0
M  V30 7795 N 713.922 1.13953 1.08869 0
M  V30 7796 C 714.854 0.779906 2.15523 0
M  V30 7797 C 715.867 -0.20102 1.61554 0
M  V30 7798 O 717.056 0.0200049 1.78489 0
M  V30 7799 C 714.156 0.136226 3.38626 0
M  V30 7800 C 713.329 1.15069 4.21993 0
M  V30 7801 C 712.388 0.531645 5.23507 0
M  V30 7802 O 711.414 1.19327 5.56552 0
M  V30 7803 N 712.616 -0.693734 5.7634 0
M  V30 7804 H 715.381 1.69769 2.46979 0
M  V30 7805 H 712.942 1.03331 1.24637 0
M  V30 7806 H 714.934 -0.290295 4.03658 0
M  V30 7807 H 713.504 -0.684603 3.05011 0
M  V30 7808 H 712.724 1.75431 3.53012 0
M  V30 7809 H 714.012 1.83614 4.74514 0
M  V30 7810 H 713.41 -1.24994 5.51718 0
M  V30 7811 H 711.967 -1.06283 6.43076 0
M  V30 7812 N 715.4 -1.26948 0.933913 0
M  V30 7813 C 716.332 -2.25768 0.395137 0
M  V30 7814 C 717.345 -1.55637 -0.477585 0
M  V30 7815 O 718.534 -1.76142 -0.289204 0
M  V30 7816 C 715.634 -3.35874 -0.451882 0
M  V30 7817 C 714.807 -4.3554 0.40299 0
M  V30 7818 C 713.866 -5.24809 -0.3824 0
M  V30 7819 O 712.892 -5.68805 0.212057 0
M  V30 7820 N 714.094 -5.55636 -1.68072 0
M  V30 7821 H 716.859 -2.72634 1.24463 0
M  V30 7822 H 714.42 -1.40639 0.802008 0
M  V30 7823 H 716.412 -3.92542 -0.984516 0
M  V30 7824 H 714.982 -2.8856 -1.20215 0
M  V30 7825 H 714.202 -3.78047 1.11688 0
M  V30 7826 H 715.49 -4.99131 0.987201 0
M  V30 7827 H 714.888 -5.2176 -2.18592 0
M  V30 7828 H 713.445 -6.14978 -2.15975 0
M  V30 7829 N 716.879 -0.700114 -1.41195 0
M  V30 7830 C 718.156 -0.160836 -1.94938 0
M  V30 7831 C 718.536 1.33014 -1.63922 0
M  V30 7832 O 717.884 2.07878 -0.948636 0
M  V30 7833 C 718.094 -0.456991 -3.45995 0
M  V30 7834 C 719.442 -0.387207 -4.22831 0
M  V30 7835 O 720.466 -0.392164 -3.54035 0
M  V30 7836 O 719.325 -0.351267 -5.4537 0
M  V30 7837 H 716.419 -0.0176304 -0.826812 0
M  V30 7838 H 718.965 -0.776586 -1.50888 0
M  V30 7839 H 717.737 -1.48884 -3.61869 0
M  V30 7840 H 717.36 0.189503 -3.97148 0
M  V30 7841 N 718.357 1.51182 -0.445186 0
M  V30 7842 C 719.287 2.30821 0.352686 0
M  V30 7843 C 720.268 1.36576 1.01395 0
M  V30 7844 O 721.453 1.65497 1.01609 0
M  V30 7845 C 718.583 3.15593 1.44976 0
M  V30 7846 C 717.537 4.1818 0.911553 0
M  V30 7847 C 716.863 4.91523 2.10497 0
M  V30 7848 C 718.163 5.22266 -0.059418 0
M  V30 7849 H 719.857 2.97771 -0.311936 0
M  V30 7850 H 717.403 1.43201 -0.151461 0
M  V30 7851 H 719.356 3.70091 2.01521 0
M  V30 7852 H 718.08 2.4648 2.14278 0
M  V30 7853 H 716.739 3.64746 0.368264 0
M  V30 7854 H 716.387 4.18906 2.78437 0
M  V30 7855 H 716.087 5.60898 1.7512 0
M  V30 7856 H 717.611 5.48847 2.6758 0
M  V30 7857 H 719.025 5.71789 0.415985 0
M  V30 7858 H 717.422 5.99213 -0.326152 0
M  V30 7859 H 718.492 4.7461 -0.993631 0
M  V30 7860 N 719.835 0.176821 1.56605 0
M  V30 7861 C 720.745 -0.763682 2.21822 0
M  V30 7862 C 721.761 -1.24889 1.21156 0
M  V30 7863 O 722.937 -1.29987 1.53836 0
M  V30 7864 C 720.002 -1.97352 2.8505 0
M  V30 7865 C 719.063 -1.53466 4.00932 0
M  V30 7866 C 718.296 -2.68682 4.61135 0
M  V30 7867 O 718.519 -3.85694 4.20234 0
M  V30 7868 O 717.453 -2.42442 5.50913 0
M  V30 7869 H 721.279 -0.238363 3.02763 0
M  V30 7870 H 718.864 -0.0516331 1.49311 0
M  V30 7871 H 720.746 -2.68096 3.25119 0
M  V30 7872 H 719.421 -2.48779 2.07101 0
M  V30 7873 H 718.328 -0.796551 3.65521 0
M  V30 7874 H 719.661 -1.06724 4.8049 0
M  V30 7875 N 721.313 -1.57302 -0.09688 0
M  V30 7876 C 722.538 -1.9058 -0.818169 0
M  V30 7877 C 722.963 -0.770921 -1.71576 0
M  V30 7878 O 722.321 0.277588 -1.79162 0
M  V30 7879 C 722.369 -3.22714 -1.60898 0
M  V30 7880 O 721.473 -3.10178 -2.71779 0
M  V30 7881 H 720.814 -0.624759 -0.224882 0
M  V30 7882 H 723.344 -2.04471 -0.07264 0
M  V30 7883 H 723.354 -3.55978 -1.99358 0
M  V30 7884 H 722.029 -4.04899 -0.950227 0
M  V30 7885 H 720.606 -2.88424 -2.3636 0
M  V30 7886 N 722.791 0.367657 -1.53252 0
M  V30 7887 C 723.741 1.45035 -1.75923 0
M  V30 7888 C 724.725 1.48736 -0.613719 0
M  V30 7889 O 725.917 1.54012 -0.872313 0
M  V30 7890 C 723.046 2.82493 -1.9507 0
M  V30 7891 C 722.132 2.83279 -3.15617 0
M  V30 7892 N 722.523 2.53712 -4.37566 0
M  V30 7893 C 720.821 3.1444 -3.16297 0
M  V30 7894 C 721.522 2.62123 -5.19294 0
M  V30 7895 N 720.498 2.96747 -4.55458 0
M  V30 7896 H 724.3 1.21035 -2.6782 0
M  V30 7897 H 721.814 0.575822 -1.51849 0
M  V30 7898 H 723.811 3.60473 -2.0944 0
M  V30 7899 H 722.471 3.07459 -1.044 0
M  V30 7900 H 723.482 2.27344 -4.65333 0
M  V30 7901 H 720.159 3.44733 -2.35511 0
M  V30 7902 H 721.549 2.42628 -6.26563 0
M  V30 7903 N 724.269 1.44576 0.627338 0
M  V30 7904 C 725.518 1.46837 1.38281 0
M  V30 7905 C 725.831 0.10635 1.95311 0
M  V30 7906 O 727.037 0.00651084 2.71499 0
M  V30 7907 C 725.493 2.58527 2.50384 0
M  V30 7908 C 725.101 4.00953 1.99851 0
M  V30 7909 C 726.845 2.70013 3.27557 0
M  V30 7910 C 724.752 5.0406 3.09318 0
M  V30 7911 H 723.682 0.546319 0.519664 0
M  V30 7912 H 726.333 1.70654 0.674497 0
M  V30 7913 H 724.715 2.27957 3.23808 0
M  V30 7914 H 725.889 4.41108 1.33267 0
M  V30 7915 H 724.204 3.93743 1.35482 0
M  V30 7916 H 726.801 3.44217 4.09168 0
M  V30 7917 H 727.144 1.75961 3.77284 0
M  V30 7918 H 727.677 3.00011 2.61224 0
M  V30 7919 H 724.416 5.99753 2.6453 0
M  V30 7920 H 723.936 4.68493 3.74532 0
M  V30 7921 H 725.615 5.2793 3.74031 0
M  V30 7922 N 725.747 -0.868086 1.31537 0
M  V30 7923 C 726.695 -1.99688 1.1928 0
M  V30 7924 C 727.689 -1.69101 0.100656 0
M  V30 7925 O 728.895 -1.78073 0.262677 0
M  V30 7926 H 725.27 -0.655032 0.369374 0
M  V30 7927 H 727.241 -2.07157 2.14776 0
M  V30 7928 C 725.99 -3.35338 0.918892 0
M  V30 7929 H 725.313 -3.59396 1.75142 0
M  V30 7930 H 726.753 -4.14909 0.873311 0
M  V30 7931 C 725.212 -3.34769 -0.378366 0
M  V30 7932 O 725.742 -3.76716 -1.39456 0
M  V30 7933 N 723.948 -2.87895 -0.39557 0
M  V30 7934 H 723.495 -2.53954 0.431889 0
M  V30 7935 H 723.453 -2.87897 -1.26344 0
M  V30 7936 N 727.225 -1.14528 -1.08264 0
M  V30 7937 C 728.135 -0.84728 -2.18765 0
M  V30 7938 C 729.151 0.172826 -1.7314 0
M  V30 7939 O 730.327 0.000985336 -2.014 0
M  V30 7940 C 727.392 -0.330633 -3.4512 0
M  V30 7941 C 726.453 -1.41348 -4.05363 0
M  V30 7942 C 725.686 -0.921387 -5.25686 0
M  V30 7943 O 725.909 0.236587 -5.69909 0
M  V30 7944 O 724.843 -1.70101 -5.77364 0
M  V30 7945 H 728.669 -1.7708 -2.46731 0
M  V30 7946 H 726.254 -0.923661 -1.17426 0
M  V30 7947 H 728.136 -0.0485053 -4.21372 0
M  V30 7948 H 726.811 0.565147 -3.18728 0
M  V30 7949 H 725.718 -1.74908 -3.30693 0
M  V30 7950 H 727.051 -2.28383 -4.36007 0
M  V30 7951 N 728.703 1.26451 -0.940633 0
M  V30 7952 C 729.931 1.97868 -0.604642 0
M  V30 7953 C 730.346 1.70051 0.820251 0
M  V30 7954 O 729.703 0.96843 1.54686 0
M  V30 7955 C 729.754 3.51684 -0.836689 0
M  V30 7956 O 729.475 3.78533 -2.20554 0
M  V30 7957 C 730.976 4.40343 -0.511169 0
M  V30 7958 H 728.196 0.631105 -0.227919 0
M  V30 7959 H 730.74 1.60979 -1.26119 0
M  V30 7960 H 728.895 3.86736 -0.226759 0
M  V30 7961 H 729.309 4.73065 -2.26517 0
M  V30 7962 H 730.783 5.47229 -0.724157 0
M  V30 7963 H 731.26 4.35694 0.553815 0
M  V30 7964 H 731.866 4.10834 -1.0998 0
M  V30 7965 N 730.181 0.707592 1.40822 0
M  V30 7966 C 731.428 0.243671 2.01029 0
M  V30 7967 C 731.756 -1.16057 1.5608 0
M  V30 7968 O 731.011 -1.7999 0.768251 0
M  V30 7969 C 731.31 0.262892 3.56432 0
M  V30 7970 C 730.976 1.61632 4.20935 0
M  V30 7971 C 729.638 1.98682 4.38268 0
M  V30 7972 C 731.99 2.50619 4.5699 0
M  V30 7973 C 729.318 3.2428 4.88937 0
M  V30 7974 C 731.67 3.75562 5.09054 0
M  V30 7975 C 730.334 4.12739 5.24598 0
M  V30 7976 H 729.604 0.0891654 0.735616 0
M  V30 7977 H 732.251 0.909051 1.68548 0
M  V30 7978 H 730.556 -0.486052 3.88773 0
M  V30 7979 H 732.253 -0.113775 4.00839 0
M  V30 7980 H 728.843 1.31818 4.07826 0
M  V30 7981 H 733.027 2.23272 4.43242 0
M  V30 7982 H 728.283 3.53064 4.99155 0
M  V30 7983 H 732.457 4.44692 5.35931 0
M  V30 7984 H 730.084 5.10132 5.63622 0
M  V30 7985 N 731.66 -1.50943 0.453197 0
M  V30 7986 C 732.937 -1.94872 -0.168633 0
M  V30 7987 C 733.317 -1.39272 -1.5864 0
M  V30 7988 O 732.665 -0.586272 -2.20851 0
M  V30 7989 C 732.875 -3.48757 -0.130217 0
M  V30 7990 C 734.223 -4.23331 -0.327975 0
M  V30 7991 O 735.247 -3.55594 -0.207619 0
M  V30 7992 O 734.106 -5.43529 -0.569077 0
M  V30 7993 H 731.2 -0.818042 -0.121394 0
M  V30 7994 H 733.746 -1.61782 0.512316 0
M  V30 7995 H 732.518 -3.81725 0.860346 0
M  V30 7996 H 732.141 -3.88333 -0.853397 0
M  V30 7997 N 733.138 -0.185124 -1.56509 0
M  V30 7998 C 734.387 0.456421 -1.96468 0
M  V30 7999 C 734.7 1.63448 -1.07444 0
M  V30 8000 O 735.906 2.34316 -1.37143 0
M  V30 8001 C 734.362 0.863404 -3.4939 0
M  V30 8002 C 733.97 -0.289815 -4.47062 0
M  V30 8003 C 735.714 1.47259 -3.98139 0
M  V30 8004 C 733.621 0.137571 -5.9124 0
M  V30 8005 H 732.551 0.17429 -0.733579 0
M  V30 8006 H 735.202 -0.275554 -1.81419 0
M  V30 8007 H 733.584 1.65176 -3.59907 0
M  V30 8008 H 734.758 -1.06728 -4.4827 0
M  V30 8009 H 733.073 -0.809851 -4.08449 0
M  V30 8010 H 735.67 1.80463 -5.03326 0
M  V30 8011 H 736.013 2.3755 -3.41871 0
M  V30 8012 H 736.546 0.748405 -3.90696 0
M  V30 8013 H 733.285 -0.730907 -6.51412 0
M  V30 8014 H 732.805 0.8801 -5.93308 0
M  V30 8015 H 734.484 0.576771 -6.44424 0
M  V30 8016 N 734.616 1.57351 0.0885366 0
M  V30 8017 C 736.027 1.75303 0.642308 0
M  V30 8018 C 736.378 0.808238 1.78779 0
M  V30 8019 O 735.503 -0.01171 2.16397 0
M  V30 8020 C 736.098 3.17885 1.17194 0
M  V30 8021 C 734.657 3.37239 1.67172 0
M  V30 8022 C 733.804 2.7108 0.584045 0
M  V30 8023 H 736.755 1.58103 -0.137567 0
M  V30 8024 H 736.776 3.2112 2.04114 0
M  V30 8025 H 736.288 3.86625 0.338024 0
M  V30 8026 H 734.389 2.73588 2.52943 0
M  V30 8027 H 734.502 4.45594 1.76019 0
M  V30 8028 H 732.866 2.33161 1.02508 0
M  V30 8029 H 733.649 3.42464 -0.239403 0
M  V30 8030 N 736.094 -0.359525 1.53444 0
M  V30 8031 C 737.319 -1.12644 1.74144 0
M  V30 8032 C 737.744 -1.82082 0.472007 0
M  V30 8033 O 737.102 -1.71962 -0.57436 0
M  V30 8034 C 737.15 -2.12781 2.9113 0
M  V30 8035 O 736.254 -3.19984 2.60162 0
M  V30 8036 H 735.595 -0.326553 0.578152 0
M  V30 8037 H 738.125 -0.414798 2.00351 0
M  V30 8038 H 738.135 -2.56278 3.17467 0
M  V30 8039 H 736.81 -1.61634 3.83207 0
M  V30 8040 H 735.387 -2.81417 2.44661 0
M  V30 8041 N 737.572 -1.44907 -0.619662 0
M  V30 8042 C 738.797 -1.52021 -1.41083 0
M  V30 8043 C 739.222 -0.14976 -1.87503 0
M  V30 8044 O 738.58 0.863303 -1.59426 0
M  V30 8045 C 738.628 -2.49911 -2.59955 0
M  V30 8046 O 737.732 -2.00857 -3.60181 0
M  V30 8047 H 737.073 -0.512912 -0.421684 0
M  V30 8048 H 739.603 -1.90149 -0.755282 0
M  V30 8049 H 739.613 -2.68323 -3.07354 0
M  V30 8050 H 738.288 -3.4945 -2.25516 0
M  V30 8051 H 736.865 -1.92265 -3.19513 0
M  V30 8052 N 739.05 0.861098 -1.31996 0
M  V30 8053 C 740.461 1.43065 -1.19955 0
M  V30 8054 C 740.812 1.95273 0.190489 0
M  V30 8055 O 739.937 1.87012 1.08882 0
M  V30 8056 C 740.532 2.60052 -2.1716 0
M  V30 8057 C 739.091 3.13026 -2.09026 0
M  V30 8058 C 738.238 1.85756 -2.05888 0
M  V30 8059 H 741.189 0.668834 -1.43918 0
M  V30 8060 H 741.21 3.37016 -1.76637 0
M  V30 8061 H 740.722 2.22024 -3.18319 0
M  V30 8062 H 738.823 3.55653 -1.11092 0
M  V30 8063 H 738.936 3.74707 -2.98549 0
M  V30 8064 H 737.3 2.05088 -1.51033 0
M  V30 8065 H 738.083 1.49954 -3.08818 0
M  V30 8066 N 740.528 1.15101 1.07655 0
M  V30 8067 C 741.438 0.858869 2.18313 0
M  V30 8068 C 742.454 -0.163641 1.73229 0
M  V30 8069 O 743.63 0.00969541 2.01398 0
M  V30 8070 C 740.695 0.34893 3.4494 0
M  V30 8071 C 739.756 1.43495 4.04608 0
M  V30 8072 C 738.989 0.949253 5.2519 0
M  V30 8073 O 739.212 -0.20636 5.70027 0
M  V30 8074 O 738.146 1.73161 5.76454 0
M  V30 8075 H 741.972 1.78386 2.45788 0
M  V30 8076 H 739.557 0.929876 1.16934 0
M  V30 8077 H 741.439 0.070851 4.2134 0
M  V30 8078 H 740.114 -0.548237 3.19024 0
M  V30 8079 H 739.021 1.7666 3.29761 0
M  V30 8080 H 740.354 2.30692 4.3479 0
M  V30 8081 N 742.006 -1.2595 0.947325 0
M  V30 8082 C 742.953 -2.26159 0.460497 0
M  V30 8083 C 743.923 -1.58919 -0.483125 0
M  V30 8084 O 745.108 -1.86603 -0.397983 0
M  V30 8085 C 742.248 -3.441 -0.26247 0
M  V30 8086 C 741.361 -4.25999 0.717539 0
M  V30 8087 C 740.496 -5.31193 -0.0272486 0
M  V30 8088 C 739.535 -6.04774 0.944177 0
M  V30 8089 N 738.672 -7.01721 0.230741 0
M  V30 8090 H 743.512 -2.67173 1.31995 0
M  V30 8091 H 741.049 -1.31358 0.662088 0
M  V30 8092 H 743.007 -4.11317 -0.698137 0
M  V30 8093 H 741.637 -3.03983 -1.08602 0
M  V30 8094 H 740.689 -3.58513 1.27171 0
M  V30 8095 H 742.001 -4.76981 1.45913 0
M  V30 8096 H 741.155 -6.04451 -0.521903 0
M  V30 8097 H 739.894 -4.81066 -0.801682 0
M  V30 8098 H 738.899 -5.30338 1.4499 0
M  V30 8099 H 740.124 -6.56991 1.71872 0
M  V30 8100 H 738.07 -6.53895 -0.525088 0
M  V30 8101 H 737.987 -7.50484 0.911556 0
M  V30 8102 H 739.255 -7.79122 -0.242616 0
M  V30 8103 N 743.484 -0.715051 -1.40445 0
M  V30 8104 C 744.895 -0.326763 -1.83818 0
M  V30 8105 C 745.246 1.13851 -1.59789 0
M  V30 8106 O 744.371 1.87611 -1.07848 0
M  V30 8107 C 744.966 -0.586297 -3.33688 0
M  V30 8108 C 743.525 -0.251724 -3.75557 0
M  V30 8109 C 742.672 -0.858928 -2.63662 0
M  V30 8110 H 745.623 -0.914241 -1.2972 0
M  V30 8111 H 745.644 0.148636 -3.8021 0
M  V30 8112 H 745.156 -1.65281 -3.51146 0
M  V30 8113 H 743.257 0.809754 -3.63695 0
M  V30 8114 H 743.37 -0.720348 -4.73654 0
M  V30 8115 H 741.734 -0.287013 -2.53078 0
M  V30 8116 H 742.517 -1.9297 -2.83932 0
M  V30 8117 N 744.962 1.50701 -0.461195 0
M  V30 8118 C 746.19 2.06681 0.0951756 0
M  V30 8119 C 746.605 1.32615 1.34382 0
M  V30 8120 O 745.962 0.392531 1.78229 0
M  V30 8121 C 746.013 3.59354 0.393316 0
M  V30 8122 O 745.734 4.30626 -0.805797 0
M  V30 8123 C 747.235 4.31926 0.997744 0
M  V30 8124 H 744.455 0.670995 -0.00267259 0
M  V30 8125 H 746.999 1.93991 -0.647137 0
M  V30 8126 H 745.154 3.7188 1.08555 0
M  V30 8127 H 745.568 5.21667 -0.544409 0
M  V30 8128 H 747.042 5.39756 1.15619 0
M  V30 8129 H 747.519 3.91772 1.98523 0
M  V30 8130 H 748.125 4.23905 0.344188 0
M  V30 8131 N 746.441 0.193421 1.56409 0
M  V30 8132 C 747.852 -0.319471 1.83946 0
M  V30 8133 C 748.203 -1.61505 1.11403 0
M  V30 8134 O 747.328 -2.13139 0.374289 0
M  V30 8135 C 747.923 -0.586411 3.33686 0
M  V30 8136 C 746.482 -1.04368 3.61641 0
M  V30 8137 C 745.629 -0.0913834 2.77149 0
M  V30 8138 H 748.58 0.417242 1.53117 0
M  V30 8139 H 748.601 -1.43591 3.52366 0
M  V30 8140 H 748.113 0.356701 3.86457 0
M  V30 8141 H 746.214 -2.00113 3.14302 0
M  V30 8142 H 746.327 -0.937549 4.69837 0
M  V30 8143 H 744.691 -0.592954 2.47702 0
M  V30 8144 H 745.474 0.846142 3.32709 0
M  V30 8145 N 747.919 -1.57396 -0.0801906 0
M  V30 8146 C 748.867 -2.04136 -1.11495 0
M  V30 8147 C 749.861 -0.945137 -1.40583 0
M  V30 8148 O 751.067 -1.13028 -1.40088 0
M  V30 8149 H 747.442 -0.65076 -0.37685 0
M  V30 8150 H 749.413 -2.90205 -0.694526 0
M  V30 8151 C 748.162 -2.49399 -2.42272 0
M  V30 8152 H 747.485 -3.33339 -2.20737 0
M  V30 8153 H 748.925 -2.85864 -3.13142 0
M  V30 8154 C 747.384 -1.37341 -3.07635 0
M  V30 8155 O 747.914 -0.710829 -3.95361 0
M  V30 8156 N 746.12 -1.12064 -2.68123 0
M  V30 8157 H 745.667 -1.66126 -1.96875 0
M  V30 8158 H 745.625 -0.372916 -3.12181 0
M  V30 8159 N 749.397 0.351382 -1.53633 0
M  V30 8160 C 750.645 1.09034 -1.70165 0
M  V30 8161 C 750.966 1.89413 -0.463422 0
M  V30 8162 O 750.236 1.888 0.522624 0
M  V30 8163 H 748.816 0.405522 -0.627344 0
M  V30 8164 H 751.478 0.394554 -1.90865 0
M  V30 8165 H 750.574 1.77215 -2.56907 0
M  V30 8166 N 750.875 1.45233 0.611969 0
M  V30 8167 C 752.123 1.48727 1.36838 0
M  V30 8168 C 752.444 0.128616 1.94575 0
M  V30 8169 O 751.714 -0.84149 1.76906 0
M  V30 8170 H 750.294 0.547695 0.507976 0
M  V30 8171 H 752.956 1.81156 0.718925 0
M  V30 8172 H 752.052 2.2236 2.19003 0
M  V30 8173 N 752.353 -0.854086 1.3245 0
M  V30 8174 C 753.602 -1.60318 1.22397 0
M  V30 8175 C 753.915 -1.9444 -0.212664 0
M  V30 8176 O 755.121 -2.67991 -0.435066 0
M  V30 8177 C 753.577 -2.8909 2.1437 0
M  V30 8178 C 753.185 -2.62391 3.63119 0
M  V30 8179 C 754.929 -3.67104 2.13155 0
M  V30 8180 C 752.836 -3.87167 4.47052 0
M  V30 8181 H 751.766 -0.601586 0.454544 0
M  V30 8182 H 754.417 -0.943023 1.57415 0
M  V30 8183 H 752.799 -3.56567 1.72268 0
M  V30 8184 H 753.973 -2.03222 4.13567 0
M  V30 8185 H 752.288 -1.97706 3.66471 0
M  V30 8186 H 754.885 -4.59696 2.731 0
M  V30 8187 H 755.228 -4.00876 1.12268 0
M  V30 8188 H 755.761 -3.06533 2.5354 0
M  V30 8189 H 752.5 -3.58536 5.48755 0
M  V30 8190 H 752.02 -4.45729 4.01355 0
M  V30 8191 H 753.699 -4.549 4.60081 0
M  V30 8192 N 753.831 -1.1567 -1.07043 0
M  V30 8193 C 755.242 -0.942408 -1.61169 0
M  V30 8194 C 755.593 0.515537 -1.89306 0
M  V30 8195 O 754.718 1.38726 -1.66084 0
M  V30 8196 C 755.313 -1.70431 -2.92812 0
M  V30 8197 C 753.872 -1.53521 -3.43669 0
M  V30 8198 C 753.019 -1.7179 -2.17678 0
M  V30 8199 H 755.97 -1.3065 -0.9009 0
M  V30 8200 H 755.991 -1.17566 -3.61882 0
M  V30 8201 H 755.503 -2.76538 -2.72302 0
M  V30 8202 H 753.604 -0.498224 -3.69254 0
M  V30 8203 H 753.717 -2.31422 -4.19501 0
M  V30 8204 H 752.081 -1.14468 -2.27529 0
M  V30 8205 H 752.864 -2.79269 -1.99659 0
M  V30 8206 N 755.309 1.25446 -0.953992 0
M  V30 8207 C 756.259 2.23627 -0.444413 0
M  V30 8208 C 757.243 1.54004 0.465993 0
M  V30 8209 O 758.435 1.74454 0.29915 0
M  V30 8210 C 755.564 3.42179 0.277175 0
M  V30 8211 C 754.65 4.1907 -0.651263 0
M  V30 8212 N 755.041 4.73346 -1.78262 0
M  V30 8213 C 753.339 4.43628 -0.459338 0
M  V30 8214 C 754.04 5.31576 -2.36224 0
M  V30 8215 N 753.016 5.17991 -1.64884 0
M  V30 8216 H 756.818 2.63197 -1.30785 0
M  V30 8217 H 754.332 1.40677 -0.811402 0
M  V30 8218 H 756.329 4.11653 0.659367 0
M  V30 8219 H 754.989 3.04134 1.13723 0
M  V30 8220 H 756 4.705 -2.1645 0
M  V30 8221 H 752.677 4.15963 0.357885 0
M  V30 8222 H 754.067 5.84361 -3.3162 0
M  V30 8223 N 756.787 0.722489 1.40064 0
M  V30 8224 C 758.064 0.191829 1.94657 0
M  V30 8225 C 758.444 -1.30389 1.66018 0
M  V30 8226 O 757.792 -2.06342 0.981588 0
M  V30 8227 C 758.002 0.511978 3.45224 0
M  V30 8228 C 759.35 0.454426 4.22161 0
M  V30 8229 O 760.374 0.448438 3.53366 0
M  V30 8230 O 759.233 0.437986 5.44742 0
M  V30 8231 H 756.327 0.0307821 0.826427 0
M  V30 8232 H 758.873 0.800493 1.49634 0
M  V30 8233 H 757.645 1.54622 3.59455 0
M  V30 8234 H 757.268 -0.126296 3.97399 0
M  V30 8235 N 758.265 -1.50454 0.469181 0
M  V30 8236 C 759.213 -2.30101 -0.340033 0
M  V30 8237 C 760.207 -1.37306 -0.992135 0
M  V30 8238 O 761.413 -1.54506 -0.923458 0
M  V30 8239 H 757.788 -0.740941 -0.128495 0
M  V30 8240 H 759.759 -2.96315 0.352144 0
M  V30 8241 C 758.508 -3.17804 -1.41052 0
M  V30 8242 H 757.831 -3.89115 -0.918124 0
M  V30 8243 H 759.271 -3.76533 -1.94934 0
M  V30 8244 C 757.73 -2.35272 -2.4114 0
M  V30 8245 O 758.26 -2.03448 -3.4637 0
M  V30 8246 N 756.466 -1.97889 -2.1281 0
M  V30 8247 H 756.013 -2.2397 -1.27261 0
M  V30 8248 H 755.971 -1.42971 -2.80012 0
M  V30 8249 N 759.743 -0.201713 -1.56304 0
M  V30 8250 C 760.673 0.71155 -2.22394 0
M  V30 8251 C 761.654 1.21625 -1.18917 0
M  V30 8252 O 762.839 1.26388 -1.47444 0
M  V30 8253 C 759.969 1.92837 -2.88845 0
M  V30 8254 C 758.923 1.55831 -3.98623 0
M  V30 8255 C 758.249 2.85228 -4.52271 0
M  V30 8256 C 759.549 0.763249 -5.16693 0
M  V30 8257 H 761.243 0.160573 -2.98969 0
M  V30 8258 H 758.789 0.0757916 -1.438 0
M  V30 8259 H 760.742 2.57253 -3.33764 0
M  V30 8260 H 759.466 2.50398 -2.09686 0
M  V30 8261 H 758.125 0.9377 -3.54405 0
M  V30 8262 H 757.773 3.40893 -3.69866 0
M  V30 8263 H 757.473 2.6121 -5.26349 0
M  V30 8264 H 758.997 3.50622 -4.99897 0
M  V30 8265 H 760.411 1.31066 -5.58117 0
M  V30 8266 H 758.808 0.620935 -5.96879 0
M  V30 8267 H 759.878 -0.234322 -4.84334 0
M  V30 8268 N 761.222 1.57436 0.0718424 0
M  V30 8269 C 762.468 1.87525 0.772149 0
M  V30 8270 C 762.801 0.79399 1.77227 0
M  V30 8271 O 762.076 -0.195733 1.93513 0
M  V30 8272 C 762.359 3.28272 1.48018 0
M  V30 8273 C 762.212 4.47052 0.49647 0
M  V30 8274 C 763.531 3.67256 2.42509 0
M  V30 8275 H 760.65 0.682049 0.279245 0
M  V30 8276 H 763.292 1.89967 0.03534 0
M  V30 8277 H 761.442 3.26321 2.10824 0
M  V30 8278 H 763.114 4.61127 -0.126375 0
M  V30 8279 H 761.357 4.33392 -0.188205 0
M  V30 8280 H 762.028 5.42315 1.02949 0
M  V30 8281 H 764.504 3.70301 1.89781 0
M  V30 8282 H 763.38 4.66626 2.89053 0
M  V30 8283 H 763.641 2.97186 3.27312 0
M  V30 8284 N 762.7 -0.34323 1.53817 0
M  V30 8285 C 763.63 -1.42709 1.84814 0
M  V30 8286 C 764.611 -1.5488 0.703297 0
M  V30 8287 O 765.796 -1.69082 0.955237 0
M  V30 8288 C 762.926 -2.79756 2.05801 0
M  V30 8289 C 761.88 -2.82392 3.21619 0
M  V30 8290 C 761.206 -4.22326 3.2794 0
M  V30 8291 C 762.506 -2.479 4.59721 0
M  V30 8292 H 764.2 -1.17018 2.75585 0
M  V30 8293 H 761.746 -0.561485 1.32602 0
M  V30 8294 H 763.699 -3.55627 2.26069 0
M  V30 8295 H 762.423 -3.06883 1.11761 0
M  V30 8296 H 761.082 -2.08974 3.01207 0
M  V30 8297 H 760.73 -4.46564 2.31494 0
M  V30 8298 H 760.43 -4.25001 4.05768 0
M  V30 8299 H 761.954 -5.00039 3.50419 0
M  V30 8300 H 763.368 -3.13484 4.80001 0
M  V30 8301 H 761.765 -2.61857 5.39954 0
M  V30 8302 H 762.835 -1.43087 4.63308 0
M  V30 8303 N 764.178 -1.45556 -0.604258 0
M  V30 8304 C 765.427 -1.49019 -1.35928 0
M  V30 8305 C 765.74 -0.137409 -1.95117 0
M  V30 8306 O 766.946 -0.0497032 -2.71455 0
M  V30 8307 C 765.402 -2.62477 -2.46239 0
M  V30 8308 C 765.01 -4.04082 -1.93447 0
M  V30 8309 C 766.754 -2.7519 -3.23219 0
M  V30 8310 C 764.661 -5.08917 -3.0126 0
M  V30 8311 H 763.591 -0.554518 -0.510907 0
M  V30 8312 H 766.242 -1.71705 -0.647262 0
M  V30 8313 H 764.624 -2.3308 -3.2014 0
M  V30 8314 H 765.798 -4.43173 -1.26232 0
M  V30 8315 H 764.113 -3.95849 -1.29201 0
M  V30 8316 H 766.71 -3.50683 -4.0364 0
M  V30 8317 H 767.053 -1.81941 -3.74437 0
M  V30 8318 H 767.586 -3.04129 -2.56418 0
M  V30 8319 H 764.325 -6.03886 -2.54955 0
M  V30 8320 H 763.845 -4.74393 -3.67031 0
M  V30 8321 H 765.524 -5.33814 -3.65584 0
M  V30 8322 N 765.656 0.84705 -1.32902 0
M  V30 8323 C 767.072 1.13645 -1.12058 0
M  V30 8324 C 767.272 2.01281 0.093937 0
M  V30 8325 O 766.328 2.4026 0.776608 0
M  V30 8326 C 767.641 1.80644 -2.40392 0
M  V30 8327 C 769.189 1.93246 -2.46221 0
M  V30 8328 C 769.664 2.6366 -3.74496 0
M  V30 8329 N 771.155 2.71179 -3.75521 0
M  V30 8330 C 771.89 3.26332 -4.71482 0
M  V30 8331 N 771.386 3.82236 -5.77813 0
M  V30 8332 N 773.179 3.24507 -4.58968 0
M  V30 8333 H 765.33 0.263612 -2.10758 0
M  V30 8334 H 767.593 0.17944 -0.930863 0
M  V30 8335 H 767.299 1.23708 -3.29225 0
M  V30 8336 H 767.173 2.80736 -2.51926 0
M  V30 8337 H 769.56 2.49338 -1.57843 0
M  V30 8338 H 769.641 0.921272 -2.38634 0
M  V30 8339 H 769.285 2.08229 -4.63253 0
M  V30 8340 H 769.215 3.65234 -3.79357 0
M  V30 8341 H 771.706 2.31527 -2.9867 0
M  V30 8342 H 772.019 4.22499 -6.47082 0
M  V30 8343 H 770.364 3.80546 -5.81558 0
M  V30 8344 H 773.555 2.80085 -3.7506 0
M  V30 8345 H 773.728 3.67188 -5.33926 0
M  V30 8346 N 767.134 1.16236 1.06428 0
M  V30 8347 C 768.067 0.81119 2.13295 0
M  V30 8348 C 769.045 -0.216555 1.61151 0
M  V30 8349 O 770.229 -0.100949 1.88229 0
M  V30 8350 C 767.356 0.207901 3.38061 0
M  V30 8351 C 766.402 1.20904 4.09004 0
M  V30 8352 S 767.235 2.75513 4.59187 0
M  V30 8353 C 768.391 2.1663 5.87216 0
M  V30 8354 H 768.624 1.71632 2.42755 0
M  V30 8355 H 766.157 0.985693 1.18842 0
M  V30 8356 H 768.115 -0.133715 4.10282 0
M  V30 8357 H 766.776 -0.67497 3.06762 0
M  V30 8358 H 765.969 0.735326 4.98607 0
M  V30 8359 H 765.571 1.49567 3.42791 0
M  V30 8360 H 767.863 1.53413 6.59902 0
M  V30 8361 H 768.806 3.04437 6.39315 0
M  V30 8362 H 769.214 1.60565 5.41183 0
M  V30 8363 N 768.612 -1.24939 0.960631 0
M  V30 8364 C 769.559 -2.25658 0.484459 0
M  V30 8365 C 770.529 -1.59422 -0.466242 0
M  V30 8366 O 771.714 -1.87015 -0.378169 0
M  V30 8367 C 768.854 -3.44359 -0.225958 0
M  V30 8368 C 767.967 -4.25214 0.762682 0
M  V30 8369 C 767.102 -5.31192 0.0290931 0
M  V30 8370 C 766.141 -6.03739 1.00827 0
M  V30 8371 N 765.278 -7.01437 0.305155 0
M  V30 8372 H 770.118 -2.65758 1.34821 0
M  V30 8373 H 767.655 -1.30648 0.675983 0
M  V30 8374 H 769.613 -4.12035 -0.654472 0
M  V30 8375 H 768.243 -3.05118 -1.05371 0
M  V30 8376 H 767.295 -3.57144 1.30966 0
M  V30 8377 H 768.607 -4.75406 1.50964 0
M  V30 8378 H 767.761 -6.04971 -0.457763 0
M  V30 8379 H 766.5 -4.81889 -0.750614 0
M  V30 8380 H 765.505 -5.2877 1.50607 0
M  V30 8381 H 766.73 -6.55131 1.7883 0
M  V30 8382 H 764.676 -6.54415 -0.455704 0
M  V30 8383 H 764.593 -7.49475 0.991104 0
M  V30 8384 H 765.861 -7.79336 -0.159966 0
M  V30 8385 N 770.09 -0.729906 -1.39679 0
M  V30 8386 C 771.501 -0.346241 -1.83461 0
M  V30 8387 C 771.852 1.1215 -1.60987 0
M  V30 8388 O 770.977 1.86456 -1.09832 0
M  V30 8389 C 771.572 -0.621656 -3.33048 0
M  V30 8390 C 770.131 -0.291543 -3.75269 0
M  V30 8391 C 769.278 -0.886844 -2.62736 0
M  V30 8392 H 772.229 -0.927949 -1.28743 0
M  V30 8393 H 772.25 0.108301 -3.80346 0
M  V30 8394 H 771.762 -1.68996 -3.49373 0
M  V30 8395 H 769.863 0.771133 -3.64533 0
M  V30 8396 H 769.976 -0.770544 -4.72863 0
M  V30 8397 H 768.34 -0.313839 -2.52759 0
M  V30 8398 H 769.123 -1.95971 -2.81869 0
M  V30 8399 N 771.568 1.50203 -0.477153 0
M  V30 8400 C 772.845 1.95115 0.137609 0
M  V30 8401 C 773.225 1.41778 1.56404 0
M  V30 8402 O 772.573 0.621333 2.1989 0
M  V30 8403 C 772.783 3.4892 0.0747168 0
M  V30 8404 C 774.131 4.238 0.260585 0
M  V30 8405 O 775.155 3.5588 0.151021 0
M  V30 8406 O 774.014 5.44366 0.482534 0
M  V30 8407 H 771.108 0.81987 0.108364 0
M  V30 8408 H 773.654 1.60946 -0.537989 0
M  V30 8409 H 772.426 3.80308 -0.920966 0
M  V30 8410 H 772.049 3.89642 0.791509 0
M  V30 8411 N 773.046 0.209999 1.56195 0
M  V30 8412 C 773.956 -0.716459 2.23392 0
M  V30 8413 C 774.972 -1.22291 1.23778 0
M  V30 8414 O 776.148 -1.26694 1.56558 0
M  V30 8415 C 773.213 -1.91261 2.89172 0
M  V30 8416 C 772.274 -1.44927 4.04097 0
M  V30 8417 C 771.507 -2.5884 4.66731 0
M  V30 8418 O 771.73 -3.76693 4.2832 0
M  V30 8419 O 770.664 -2.30701 5.55932 0
M  V30 8420 H 774.49 -0.174089 3.03201 0
M  V30 8421 H 772.075 -0.0199505 1.49387 0
M  V30 8422 H 773.957 -2.6114 3.30733 0
M  V30 8423 H 772.632 -2.4433 2.12331 0
M  V30 8424 H 771.539 -0.718839 3.67129 0
M  V30 8425 H 772.872 -0.965084 4.82646 0
M  V30 8426 N 774.524 -1.57472 -0.0634922 0
M  V30 8427 C 775.472 -2.05307 -1.09323 0
M  V30 8428 C 776.466 -0.959995 -1.39572 0
M  V30 8429 O 777.672 -1.14507 -1.38882 0
M  V30 8430 H 774.047 -0.65472 -0.369927 0
M  V30 8431 H 776.018 -2.90925 -0.663707 0
M  V30 8432 C 774.767 -2.51954 -2.39613 0
M  V30 8433 H 774.09 -3.35662 -2.1719 0
M  V30 8434 H 775.53 -2.89169 -3.10092 0
M  V30 8435 C 773.989 -1.40596 -3.06161 0
M  V30 8436 O 774.519 -0.752722 -3.94585 0
M  V30 8437 N 772.725 -1.14902 -2.66919 0
M  V30 8438 H 772.272 -1.68205 -1.95102 0
M  V30 8439 H 772.23 -0.406006 -3.11767 0
M  V30 8440 N 776.003 0.335068 -1.53997 0
M  V30 8441 C 777.251 1.07223 -1.71312 0
M  V30 8442 C 777.572 1.88911 -0.483486 0
M  V30 8443 O 776.842 1.89344 0.50257 0
M  V30 8444 H 775.422 0.398846 -0.63161 0
M  V30 8445 H 778.084 0.374288 -1.91272 0
M  V30 8446 H 777.18 1.7448 -2.58772 0
M  V30 8447 N 777.481 1.45874 0.596531 0
M  V30 8448 C 778.897 1.30524 0.918459 0
M  V30 8449 C 779.097 0.266429 1.99731 0
M  V30 8450 O 778.153 -0.335809 2.50257 0
M  V30 8451 C 779.466 2.68747 1.3489 0
M  V30 8452 C 781.014 2.7673 1.46251 0
M  V30 8453 C 781.489 4.15504 1.92667 0
M  V30 8454 N 782.98 4.17853 1.99883 0
M  V30 8455 C 783.715 5.22109 2.37044 0
M  V30 8456 N 783.211 6.36704 2.73094 0
M  V30 8457 N 785.004 5.09471 2.37479 0
M  V30 8458 H 777.155 2.12081 -0.116368 0
M  V30 8459 H 779.418 0.947941 0.0106033 0
M  V30 8460 H 779.124 3.46006 0.630288 0
M  V30 8461 H 778.998 2.97942 2.31323 0
M  V30 8462 H 781.385 1.99768 2.17202 0
M  V30 8463 H 781.466 2.51236 0.481054 0
M  V30 8464 H 781.11 4.92956 1.223 0
M  V30 8465 H 781.04 4.38396 2.91747 0
M  V30 8466 H 783.531 3.35163 1.74568 0
M  V30 8467 H 783.844 7.12041 3.00362 0
M  V30 8468 H 782.189 6.40087 2.70764 0
M  V30 8469 H 785.38 4.18987 2.08728 0
M  V30 8470 H 785.553 5.90837 2.66112 0
M  V30 8471 N 778.959 -0.83999 1.33349 0
M  V30 8472 C 780.206 -1.59517 1.24742 0
M  V30 8473 C 780.534 -1.93598 -0.187077 0
M  V30 8474 O 779.789 -1.58782 -1.14398 0
M  V30 8475 C 780.088 -2.91571 2.06691 0
M  V30 8476 C 779.754 -2.76856 3.55895 0
M  V30 8477 C 778.416 -2.72551 3.96572 0
M  V30 8478 C 780.768 -2.61741 4.50712 0
M  V30 8479 C 778.096 -2.51028 5.30285 0
M  V30 8480 C 780.448 -2.41752 5.84584 0
M  V30 8481 C 779.112 -2.35848 6.24445 0
M  V30 8482 H 778.382 -0.583714 0.456463 0
M  V30 8483 H 781.029 -0.973261 1.64924 0
M  V30 8484 H 779.334 -3.57961 1.59284 0
M  V30 8485 H 781.031 -3.49053 1.9739 0
M  V30 8486 H 777.621 -2.81039 3.23597 0
M  V30 8487 H 781.805 -2.64102 4.20195 0
M  V30 8488 H 777.061 -2.44903 5.60208 0
M  V30 8489 H 781.235 -2.2904 6.57658 0
M  V30 8490 H 778.862 -2.18931 7.27993 0
M  V30 8491 N 780.437 -1.16799 -1.0581 0
M  V30 8492 C 781.685 -0.950642 -1.78346 0
M  V30 8493 C 782.006 0.522524 -1.87869 0
M  V30 8494 O 781.276 1.3795 -1.39092 0
M  V30 8495 H 779.856 -0.348736 -0.6606 0
M  V30 8496 H 782.518 -1.47158 -1.27791 0
M  V30 8497 H 781.614 -1.37359 -2.80248 0
M  V30 8498 N 781.915 1.24427 -0.967243 0
M  V30 8499 C 783.162 1.92487 -0.62888 0
M  V30 8500 C 783.49 1.75623 0.835871 0
M  V30 8501 O 782.745 1.1027 1.61675 0
M  V30 8502 C 783.044 3.44568 -0.949096 0
M  V30 8503 C 782.71 3.816 -2.40192 0
M  V30 8504 C 781.372 3.9142 -2.799 0
M  V30 8505 C 783.724 3.99715 -3.34481 0
M  V30 8506 C 781.052 4.16771 -4.12939 0
M  V30 8507 C 783.404 4.26562 -4.67148 0
M  V30 8508 C 782.068 4.34601 -5.06634 0
M  V30 8509 H 781.338 0.704361 -0.230124 0
M  V30 8510 H 783.985 1.4772 -1.21864 0
M  V30 8511 H 782.29 3.90819 -0.277085 0
M  V30 8512 H 783.987 3.95436 -0.665692 0
M  V30 8513 H 780.577 3.74522 -2.08402 0
M  V30 8514 H 784.761 3.91531 -3.04987 0
M  V30 8515 H 780.017 4.21214 -4.43158 0
M  V30 8516 H 784.191 4.39523 -5.40178 0
M  V30 8517 H 781.818 4.53998 -6.09746 0
M  V30 8518 N 783.393 0.737304 1.3929 0
M  V30 8519 C 784.341 0.0879867 2.32434 0
M  V30 8520 C 785.335 -0.723324 1.53181 0
M  V30 8521 O 786.541 -0.624251 1.68829 0
M  V30 8522 H 782.916 0.00965277 0.751938 0
M  V30 8523 H 784.887 0.889915 2.84821 0
M  V30 8524 C 783.636 -0.803384 3.38291 0
M  V30 8525 H 782.959 -0.18849 3.99355 0
M  V30 8526 H 784.399 -1.22528 4.0591 0
M  V30 8527 C 782.858 -1.93872 2.75527 0
M  V30 8528 O 783.388 -3.03154 2.63553 0
M  V30 8529 N 781.594 -1.72883 2.3358 0
M  V30 8530 H 781.141 -0.840005 2.43519 0
M  V30 8531 H 781.099 -2.49021 1.91927 0
M  V30 8532 N 784.871 -1.49948 0.485112 0
M  V30 8533 C 786.117 -2.02695 -0.0651022 0
M  V30 8534 C 786.45 -1.36534 -1.38102 0
M  V30 8535 O 785.725 -0.495677 -1.88078 0
M  V30 8536 C 786.008 -3.59337 -0.234285 0
M  V30 8537 C 785.861 -4.3605 1.10364 0
M  V30 8538 C 787.18 -4.28996 -0.982351 0
M  V30 8539 H 784.299 -0.736666 -0.0221856 0
M  V30 8540 H 786.941 -1.7913 0.633433 0
M  V30 8541 H 785.091 -3.79546 -0.829262 0
M  V30 8542 H 786.763 -4.27377 1.73627 0
M  V30 8543 H 785.006 -3.99236 1.69686 0
M  V30 8544 H 785.677 -5.43959 0.938743 0
M  V30 8545 H 788.153 -4.13346 -0.477904 0
M  V30 8546 H 787.029 -5.38379 -1.06955 0
M  V30 8547 H 787.29 -3.93135 -2.02231 0
M  V30 8548 N 786.349 -0.21828 -1.56081 0
M  V30 8549 C 787.296 0.693189 -2.20144 0
M  V30 8550 C 788.266 1.19274 -1.15598 0
M  V30 8551 O 789.451 1.25243 -1.4394 0
M  V30 8552 C 786.591 1.89715 -2.88275 0
M  V30 8553 C 785.704 1.4368 -4.07407 0
M  V30 8554 C 784.839 2.59807 -4.63329 0
M  V30 8555 C 783.878 2.10492 -5.74769 0
M  V30 8556 N 783.015 3.1988 -6.24997 0
M  V30 8557 H 787.855 0.14016 -2.9767 0
M  V30 8558 H 785.392 0.0574292 -1.46988 0
M  V30 8559 H 787.35 2.60398 -3.25958 0
M  V30 8560 H 785.98 2.42311 -2.13273 0
M  V30 8561 H 785.032 0.625007 -3.7523 0
M  V30 8562 H 786.344 1.03517 -4.8794 0
M  V30 8563 H 785.498 3.38577 -5.03438 0
M  V30 8564 H 784.237 3.03256 -3.81951 0
M  V30 8565 H 783.242 1.30182 -5.34165 0
M  V30 8566 H 784.467 1.68045 -6.5798 0
M  V30 8567 H 782.413 3.62817 -5.46534 0
M  V30 8568 H 782.33 2.83958 -7.00645 0
M  V30 8569 H 783.598 3.98796 -6.69763 0
M  V30 8570 N 787.827 1.57504 0.0551401 0
M  V30 8571 C 789.075 1.87684 0.74962 0
M  V30 8572 C 789.396 0.812547 1.77264 0
M  V30 8573 O 788.666 -0.15694 1.9527 0
M  V30 8574 H 787.246 0.6926 0.279846 0
M  V30 8575 H 789.908 1.94881 0.0272745 0
M  V30 8576 H 789.004 2.85734 1.25548 0
M  V30 8577 N 789.305 -0.326896 1.54172 0
M  V30 8578 C 790.553 -1.06313 1.71878 0
M  V30 8579 C 790.874 -1.88652 0.493498 0
M  V30 8580 O 790.144 -1.89608 -0.492522 0
M  V30 8581 H 788.724 -0.39549 0.633716 0
M  V30 8582 H 791.386 -0.364139 1.91468 0
M  V30 8583 H 790.482 -1.73105 2.59694 0
M  V30 8584 N 790.784 -1.46188 -0.588786 0
M  V30 8585 C 792.014 -1.54519 -1.3714 0
M  V30 8586 C 792.422 -0.183075 -1.88312 0
M  V30 8587 O 791.765 0.828815 -1.6394 0
M  V30 8588 C 791.827 -2.48426 -2.59856 0
M  V30 8589 C 791.491 -3.94791 -2.30193 0
M  V30 8590 C 792.488 -4.84173 -1.894 0
M  V30 8591 C 790.173 -4.39872 -2.42525 0
M  V30 8592 C 792.167 -6.16647 -1.61325 0
M  V30 8593 C 789.854 -5.72381 -2.14063 0
M  V30 8594 C 790.852 -6.60589 -1.73527 0
M  V30 8595 O 790.54 -7.9064 -1.4541 0
M  V30 8596 H 790.272 -0.525264 -0.425527 0
M  V30 8597 H 792.826 -1.92242 -0.723344 0
M  V30 8598 H 791.056 -2.05709 -3.27446 0
M  V30 8599 H 792.745 -2.4723 -3.21919 0
M  V30 8600 H 793.511 -4.50603 -1.79393 0
M  V30 8601 H 789.39 -3.71444 -2.7304 0
M  V30 8602 H 792.934 -6.85454 -1.29611 0
M  V30 8603 H 788.831 -6.05501 -2.23693 0
M  V30 8604 H 789.599 -8.02847 -1.59306 0
M  V30 8605 N 792.262 0.832906 -1.33792 0
M  V30 8606 C 793.539 1.57359 -1.16178 0
M  V30 8607 C 793.919 2.09372 0.269532 0
M  V30 8608 O 793.267 1.89993 1.26944 0
M  V30 8609 C 793.477 2.70279 -2.20795 0
M  V30 8610 C 794.825 3.39305 -2.55259 0
M  V30 8611 O 795.849 2.80526 -2.19508 0
M  V30 8612 O 794.708 4.45428 -3.16632 0
M  V30 8613 H 791.802 0.694025 -0.449731 0
M  V30 8614 H 794.348 0.875144 -1.45394 0
M  V30 8615 H 793.12 2.29527 -3.16911 0
M  V30 8616 H 792.743 3.47782 -1.927 0
M  V30 8617 N 793.74 1.17359 1.05189 0
M  V30 8618 C 794.672 0.848078 2.12933 0
M  V30 8619 C 795.685 -0.149521 1.62112 0
M  V30 8620 O 796.874 0.0767797 1.78335 0
M  V30 8621 C 793.974 0.243889 3.38021 0
M  V30 8622 C 793.147 1.28436 4.18118 0
M  V30 8623 C 792.206 0.697926 5.21551 0
M  V30 8624 O 791.232 1.36973 5.52473 0
M  V30 8625 N 792.434 -0.510024 5.78255 0
M  V30 8626 H 795.199 1.7754 2.41453 0
M  V30 8627 H 792.76 1.07244 1.21286 0
M  V30 8628 H 794.752 -0.161727 4.04377 0
M  V30 8629 H 793.322 -0.58722 3.07035 0
M  V30 8630 H 792.542 1.86573 3.47252 0
M  V30 8631 H 793.83 1.98617 4.68432 0
M  V30 8632 H 793.228 -1.07378 5.55416 0
M  V30 8633 H 791.785 -0.857705 6.46132 0
M  V30 8634 N 795.218 -1.23913 0.973828 0
M  V30 8635 C 796.165 -2.25132 0.508366 0
M  V30 8636 C 797.135 -1.59908 -0.449307 0
M  V30 8637 O 798.32 -1.87405 -0.358313 0
M  V30 8638 C 795.46 -3.4458 -0.189422 0
M  V30 8639 C 794.573 -4.24381 0.807738 0
M  V30 8640 C 793.708 -5.31131 0.0854315 0
M  V30 8641 C 792.747 -6.02635 1.07225 0
M  V30 8642 N 791.884 -7.01073 0.379535 0
M  V30 8643 H 796.724 -2.64313 1.37632 0
M  V30 8644 H 794.261 -1.29924 0.689802 0
M  V30 8645 H 796.219 -4.12706 -0.610733 0
M  V30 8646 H 794.849 -3.06218 -1.02129 0
M  V30 8647 H 793.901 -3.55735 1.34747 0
M  V30 8648 H 795.213 -4.73778 1.55998 0
M  V30 8649 H 794.367 -6.05422 -0.393572 0
M  V30 8650 H 793.106 -4.82658 -0.699461 0
M  V30 8651 H 792.111 -5.27143 1.56207 0
M  V30 8652 H 793.336 -6.53197 1.85769 0
M  V30 8653 H 791.282 -6.54862 -0.386269 0
M  V30 8654 H 791.199 -7.48382 1.07054 0
M  V30 8655 H 792.467 -7.79462 -0.0772984 0
M  V30 8656 N 796.696 -0.74468 -1.38897 0
M  V30 8657 C 797.629 -0.0596441 -2.28122 0
M  V30 8658 C 798.607 0.73764 -1.44906 0
M  V30 8659 O 799.791 0.718155 -1.74284 0
M  V30 8660 C 796.918 0.922533 -3.25894 0
M  V30 8661 C 795.964 0.212566 -4.2597 0
M  V30 8662 S 796.797 -1.08035 -5.24489 0
M  V30 8663 C 797.953 -0.101014 -6.25818 0
M  V30 8664 H 798.186 -0.816289 -2.85874 0
M  V30 8665 H 795.719 -0.536882 -1.44765 0
M  V30 8666 H 797.677 1.4839 -3.82741 0
M  V30 8667 H 796.338 1.65209 -2.67142 0
M  V30 8668 H 795.531 0.956106 -4.94848 0
M  V30 8669 H 795.133 -0.277029 -3.72973 0
M  V30 8670 H 797.425 0.736072 -6.7349 0
M  V30 8671 H 798.368 -0.757206 -7.0404 0
M  V30 8672 H 798.776 0.275706 -5.63826 0
M  V30 8673 N 798.174 1.49689 -0.493057 0
M  V30 8674 C 799.585 1.8665 -0.0433032 0
M  V30 8675 C 799.936 1.40607 1.36836 0
M  V30 8676 O 799.061 0.780503 2.01834 0
M  V30 8677 C 799.656 3.38724 -0.0718069 0
M  V30 8678 C 798.215 3.75015 0.32257 0
M  V30 8679 C 797.362 2.7366 -0.4478 0
M  V30 8680 H 800.313 1.42119 -0.706246 0
M  V30 8681 H 800.334 3.73522 0.725347 0
M  V30 8682 H 799.846 3.72204 -1.09935 0
M  V30 8683 H 797.947 3.47142 1.35364 0
M  V30 8684 H 798.06 4.79099 0.00864259 0
M  V30 8685 H 796.424 2.54498 0.101354 0
M  V30 8686 H 797.207 3.09985 -1.47527 0
M  V30 8687 N 799.652 0.226554 1.55963 0
M  V30 8688 C 800.898 -0.404387 1.98727 0
M  V30 8689 C 801.231 -1.59059 1.11418 0
M  V30 8690 O 800.506 -1.93729 0.172971 0
M  V30 8691 C 800.789 -0.834081 3.50307 0
M  V30 8692 C 800.642 0.356104 4.48388 0
M  V30 8693 C 801.961 -1.68845 4.06423 0
M  V30 8694 H 799.08 -0.145515 0.722492 0
M  V30 8695 H 801.722 0.323791 1.87221 0
M  V30 8696 H 799.872 -1.45454 3.60244 0
M  V30 8697 H 801.544 0.99432 4.50456 0
M  V30 8698 H 799.787 1.0027 4.22053 0
M  V30 8699 H 800.458 0.0124333 5.51999 0
M  V30 8700 H 802.934 -1.16489 3.99461 0
M  V30 8701 H 801.81 -1.958 5.1279 0
M  V30 8702 H 802.071 -2.65347 3.53615 0
M  V30 8703 N 801.13 -1.57531 -0.0467866 0
M  V30 8704 C 802.379 -1.87632 -0.740069 0
M  V30 8705 C 802.692 -0.822691 -1.77457 0
M  V30 8706 O 803.898 -1.01235 -2.5192 0
M  V30 8707 C 802.354 -3.32917 -1.36727 0
M  V30 8708 C 801.962 -4.46469 -0.370035 0
M  V30 8709 C 803.706 -3.72189 -2.04146 0
M  V30 8710 C 801.613 -5.82806 -1.00457 0
M  V30 8711 H 800.543 -0.70002 -0.280158 0
M  V30 8712 H 803.194 -1.83499 0.00607151 0
M  V30 8713 H 801.576 -3.31739 -2.16252 0
M  V30 8714 H 802.75 -4.59085 0.397217 0
M  V30 8715 H 801.065 -4.15914 0.201079 0
M  V30 8716 H 803.662 -4.71357 -2.52441 0
M  V30 8717 H 804.005 -3.03268 -2.85192 0
M  V30 8718 H 804.538 -3.75465 -1.3142 0
M  V30 8719 H 801.277 -6.55083 -0.233907 0
M  V30 8720 H 800.797 -5.73944 -1.74209 0
M  V30 8721 H 802.476 -6.28961 -1.51713 0
M  V30 8722 N 802.608 0.318715 -1.54344 0
M  V30 8723 C 803.854 1.05765 -1.73037 0
M  V30 8724 C 804.187 1.87514 -0.505181 0
M  V30 8725 O 803.462 1.88021 0.497838 0
M  V30 8726 C 803.745 1.97836 -3.00887 0
M  V30 8727 C 803.598 1.19384 -4.33668 0
M  V30 8728 C 804.917 2.97285 -3.24514 0
M  V30 8729 H 802.036 0.383104 -0.629603 0
M  V30 8730 H 804.678 0.333864 -1.87044 0
M  V30 8731 H 802.828 2.59552 -2.89076 0
M  V30 8732 H 804.5 0.600906 -4.57369 0
M  V30 8733 H 802.743 0.496198 -4.30953 0
M  V30 8734 H 803.414 1.87014 -5.19355 0
M  V30 8735 H 805.89 2.45693 -3.35819 0
M  V30 8736 H 804.766 3.58887 -4.15321 0
M  V30 8737 H 805.027 3.70003 -2.41971 0
M  V30 8738 N 804.086 1.46499 0.581025 0
M  V30 8739 C 805.311 1.55708 1.37002 0
M  V30 8740 C 805.736 0.19942 1.8704 0
M  V30 8741 O 805.094 -0.820731 1.61659 0
M  V30 8742 C 805.142 2.56716 2.53238 0
M  V30 8743 O 804.246 2.10336 3.54729 0
M  V30 8744 H 803.587 0.523912 0.407937 0
M  V30 8745 H 806.117 1.92085 0.704602 0
M  V30 8746 H 806.127 2.76378 3.00132 0
M  V30 8747 H 804.802 3.55307 2.16171 0
M  V30 8748 H 803.379 2.00669 3.14303 0
M  V30 8749 N 805.565 -0.825799 1.34232 0
M  V30 8750 C 806.981 -1.11848 1.13851 0
M  V30 8751 C 807.181 -2.01405 -0.0619031 0
M  V30 8752 O 806.237 -2.41465 -0.738287 0
M  V30 8753 C 807.55 -1.76797 2.43235 0
M  V30 8754 C 809.098 -1.89304 2.49265 0
M  V30 8755 C 809.573 -2.57669 3.78643 0
M  V30 8756 N 811.064 -2.65171 3.79788 0
M  V30 8757 C 811.799 -3.1879 4.76614 0
M  V30 8758 N 811.295 -3.72995 5.83821 0
M  V30 8759 N 813.088 -3.17164 4.64073 0
M  V30 8760 H 805.239 -0.230049 2.11151 0
M  V30 8761 H 807.502 -0.164609 0.9336 0
M  V30 8762 H 807.208 -1.18455 3.31152 0
M  V30 8763 H 807.082 -2.76693 2.56361 0
M  V30 8764 H 809.469 -2.46796 1.6179 0
M  V30 8765 H 809.55 -0.883191 2.4007 0
M  V30 8766 H 809.194 -2.00833 4.66507 0
M  V30 8767 H 809.124 -3.59152 3.8512 0
M  V30 8768 H 811.615 -2.26746 3.02315 0
M  V30 8769 H 811.928 -4.12151 6.53721 0
M  V30 8770 H 810.273 -3.71246 5.87538 0
M  V30 8771 H 813.464 -2.74082 3.79469 0
M  V30 8772 H 813.637 -3.58647 5.397 0
M  V30 8773 N 807.043 -1.17915 -1.04565 0
M  V30 8774 C 808.289 -0.972863 -1.77942 0
M  V30 8775 C 808.622 0.496753 -1.87739 0
M  V30 8776 O 807.897 1.3688 -1.38181 0
M  V30 8777 C 808.18 -1.62227 -3.21488 0
M  V30 8778 C 808.033 -3.16441 -3.19664 0
M  V30 8779 C 809.352 -1.33137 -4.19479 0
M  V30 8780 H 806.471 -0.354843 -0.645953 0
M  V30 8781 H 809.113 -1.45508 -1.22178 0
M  V30 8782 H 807.263 -1.21224 -3.69103 0
M  V30 8783 H 808.935 -3.66544 -2.80077 0
M  V30 8784 H 807.178 -3.48863 -2.57832 0
M  V30 8785 H 807.849 -3.57012 -4.21006 0
M  V30 8786 H 810.325 -1.68654 -3.80388 0
M  V30 8787 H 809.201 -1.81151 -5.18146 0
M  V30 8788 H 809.462 -0.253319 -4.41374 0
M  V30 8789 N 808.521 1.23394 -0.980386 0
M  V30 8790 C 809.484 2.23092 -0.525619 0
M  V30 8791 C 810.484 1.56129 0.384745 0
M  V30 8792 O 811.674 1.73284 0.178439 0
M  V30 8793 C 808.806 3.40074 0.23712 0
M  V30 8794 H 809.999 2.64839 -1.40714 0
M  V30 8795 H 807.552 1.36227 -0.766275 0
M  V30 8796 H 808.287 3.03783 1.13518 0
M  V30 8797 H 808.072 3.89883 -0.416356 0
M  V30 8798 H 809.562 4.14043 0.543892 0
M  V30 8799 N 809.999 0.752036 1.385 0
M  V30 8800 C 811.41 0.375385 1.82887 0
M  V30 8801 C 811.761 -1.09575 1.62751 0
M  V30 8802 O 810.886 -1.84685 1.12785 0
M  V30 8803 C 811.481 0.674563 3.32017 0
M  V30 8804 C 810.04 0.351208 3.74758 0
M  V30 8805 C 809.187 0.928531 2.61292 0
M  V30 8806 H 812.138 0.948313 1.27251 0
M  V30 8807 H 812.159 -0.0477781 3.8047 0
M  V30 8808 H 811.671 1.74533 3.46641 0
M  V30 8809 H 809.772 -0.713042 3.65714 0
M  V30 8810 H 809.885 0.845675 4.71577 0
M  V30 8811 H 808.249 0.354012 2.52228 0
M  V30 8812 H 809.032 2.0043 2.78716 0
M  V30 8813 N 811.477 -1.49425 0.500989 0
M  V30 8814 C 812.725 -2.02053 -0.0434495 0
M  V30 8815 C 813.046 -1.38285 -1.37486 0
M  V30 8816 O 812.316 -0.538171 -1.88363 0
M  V30 8817 H 810.896 -0.746757 -0.0190469 0
M  V30 8818 H 813.558 -1.83449 0.658227 0
M  V30 8819 H 812.654 -3.11619 -0.173129 0
M  V30 8820 N 812.955 -0.234822 -1.55841 0
M  V30 8821 C 814.183 0.397745 -2.03041 0
M  V30 8822 C 814.598 1.52405 -1.11437 0
M  V30 8823 O 813.955 1.82061 -0.126466 0
M  V30 8824 C 814.006 0.916919 -3.49678 0
M  V30 8825 O 813.727 -0.164493 -4.37791 0
M  V30 8826 C 815.228 1.62139 -4.12584 0
M  V30 8827 H 812.448 0.0959214 -0.664108 0
M  V30 8828 H 814.992 -0.355156 -2.01392 0
M  V30 8829 H 813.147 1.62004 -3.519 0
M  V30 8830 H 813.561 0.227794 -5.24005 0
M  V30 8831 H 815.035 1.93651 -5.16917 0
M  V30 8832 H 815.512 2.53918 -3.58361 0
M  V30 8833 H 816.118 0.963145 -4.14251 0
M  V30 8834 N 814.433 1.57553 0.0384317 0
M  V30 8835 C 815.844 1.77258 0.586211 0
M  V30 8836 C 816.195 0.864706 1.76117 0
M  V30 8837 O 815.32 0.057141 2.16325 0
M  V30 8838 C 815.915 3.21453 1.07021 0
M  V30 8839 C 814.474 3.42387 1.56358 0
M  V30 8840 C 813.621 2.72801 0.497508 0
M  V30 8841 H 816.572 1.57585 -0.187796 0
M  V30 8842 H 816.593 3.27451 1.93794 0
M  V30 8843 H 816.105 3.87505 0.214851 0
M  V30 8844 H 814.206 2.81497 2.44111 0
M  V30 8845 H 814.319 4.50968 1.61754 0
M  V30 8846 H 812.683 2.36305 0.95038 0
M  V30 8847 H 813.466 3.41529 -0.348234 0
M  V30 8848 N 815.911 -0.310526 1.54511 0
M  V30 8849 C 816.874 -1.3657 1.84068 0
M  V30 8850 C 817.874 -1.44123 0.713097 0
M  V30 8851 O 819.064 -1.43924 0.981399 0
M  V30 8852 C 816.196 -2.75162 2.01243 0
M  V30 8853 H 817.389 -1.1161 2.78358 0
M  V30 8854 H 814.942 -0.546699 1.46427 0
M  V30 8855 H 815.677 -3.05359 1.09208 0
M  V30 8856 H 815.462 -2.71071 2.83307 0
M  V30 8857 H 816.952 -3.51473 2.25514 0
M  V30 8858 N 817.389 -1.46805 -0.573248 0
M  V30 8859 C 818.666 -1.43082 -1.33368 0
M  V30 8860 C 819.046 -0.119252 -2.10763 0
M  V30 8861 O 818.394 0.899239 -2.10062 0
M  V30 8862 C 818.604 -2.66643 -2.25172 0
M  V30 8863 C 819.952 -3.13188 -2.86702 0
M  V30 8864 O 820.976 -2.67258 -2.35482 0
M  V30 8865 O 819.835 -3.92994 -3.79761 0
M  V30 8866 H 816.929 -0.569451 -0.599712 0
M  V30 8867 H 819.475 -1.58984 -0.59348 0
M  V30 8868 H 818.247 -3.53649 -1.67475 0
M  V30 8869 H 817.87 -2.53247 -3.06516 0
M  V30 8870 N 818.867 0.818669 -1.34668 0
M  V30 8871 C 819.797 1.94468 -1.29245 0
M  V30 8872 C 820.778 1.69257 -0.169101 0
M  V30 8873 O 821.963 1.90794 -0.362143 0
M  V30 8874 C 819.093 3.31001 -1.05145 0
M  V30 8875 C 818.047 3.70663 -2.13992 0
M  V30 8876 C 817.373 5.05226 -1.75074 0
M  V30 8877 C 818.673 3.82312 -3.55858 0
M  V30 8878 H 820.367 1.99263 -2.2346 0
M  V30 8879 H 817.913 0.957304 -1.07572 0
M  V30 8880 H 819.866 4.09364 -0.999949 0
M  V30 8881 H 818.59 3.26517 -0.0737312 0
M  V30 8882 H 817.249 2.94578 -2.18219 0
M  V30 8883 H 816.897 4.97233 -0.759518 0
M  V30 8884 H 816.597 5.32734 -2.47928 0
M  V30 8885 H 818.121 5.86042 -1.71427 0
M  V30 8886 H 819.535 4.50935 -3.5402 0
M  V30 8887 H 817.932 4.21278 -4.2737 0
M  V30 8888 H 819.002 2.84193 -3.9289 0
M  V30 8889 N 820.346 1.18468 1.03938 0
M  V30 8890 C 821.586 0.991823 1.78724 0
M  V30 8891 C 821.95 -0.470115 1.86156 0
M  V30 8892 O 823.151 -0.782451 2.5716 0
M  V30 8893 C 821.422 1.63018 3.18056 0
M  V30 8894 S 822.981 1.58527 4.09163 0
M  V30 8895 H 819.799 0.356137 0.615376 0
M  V30 8896 H 822.401 1.50634 1.24618 0
M  V30 8897 H 821.105 2.68642 3.10258 0
M  V30 8898 H 820.636 1.11601 3.77238 0
M  V30 8899 H 822.651 0.602059 4.92534 0
M  V30 8900 N 821.824 -1.22873 0.986916 0
M  V30 8901 C 823.07 -1.91746 0.660401 0
M  V30 8902 C 823.403 -1.76738 -0.804812 0
M  V30 8903 O 822.678 -1.13246 -1.58131 0
M  V30 8904 C 822.961 -3.44156 1.05966 0
M  V30 8905 C 822.814 -3.68242 2.58298 0
M  V30 8906 C 824.133 -4.35874 0.60842 0
M  V30 8907 H 821.252 -0.696347 0.241391 0
M  V30 8908 H 823.894 -1.44867 1.22937 0
M  V30 8909 H 822.044 -3.84213 0.575534 0
M  V30 8910 H 823.716 -3.37626 3.14335 0
M  V30 8911 H 821.959 -3.12728 3.00638 0
M  V30 8912 H 822.63 -4.74956 2.81285 0
M  V30 8913 H 825.106 -4.03299 1.02417 0
M  V30 8914 H 823.982 -5.41201 0.916142 0
M  V30 8915 H 824.243 -4.39364 -0.491086 0
M  V30 8916 N 823.302 -0.75937 -1.38099 0
M  V30 8917 C 824.713 -0.385078 -1.82686 0
M  V30 8918 C 825.064 1.0871 -1.6333 0
M  V30 8919 O 824.189 1.84084 -1.13762 0
M  V30 8920 C 824.784 -0.692161 -3.31654 0
M  V30 8921 C 823.343 -0.371077 -3.74566 0
M  V30 8922 C 822.49 -0.942375 -2.60796 0
M  V30 8923 H 825.441 -0.955048 -1.26746 0
M  V30 8924 H 825.462 0.0276001 -3.8049 0
M  V30 8925 H 824.974 -1.76369 -3.4571 0
M  V30 8926 H 823.075 0.693637 -3.66087 0
M  V30 8927 H 823.188 -0.870672 -4.71122 0
M  V30 8928 H 821.552 -0.367383 -2.52036 0
M  V30 8929 H 822.335 -2.01905 -2.77649 0
M  V30 8930 N 824.78 1.49157 -0.508906 0
M  V30 8931 C 826.196 1.58741 -0.165372 0
M  V30 8932 C 826.396 1.5133 1.33047 0
M  V30 8933 O 825.452 1.39135 2.10707 0
M  V30 8934 C 826.765 2.91217 -0.749194 0
M  V30 8935 C 828.313 3.047 -0.716015 0
M  V30 8936 C 828.788 4.39807 -1.27804 0
M  V30 8937 N 830.279 4.46319 -1.23908 0
M  V30 8938 C 831.014 5.49325 -1.64406 0
M  V30 8939 N 830.51 6.59395 -2.12534 0
M  V30 8940 N 832.303 5.40084 -1.55773 0
M  V30 8941 H 824.454 1.52217 -1.48134 0
M  V30 8942 H 826.717 0.721514 -0.614915 0
M  V30 8943 H 826.423 3.02233 -1.79856 0
M  V30 8944 H 826.297 3.76592 -0.214144 0
M  V30 8945 H 828.684 2.9331 0.324535 0
M  V30 8946 H 828.765 2.2099 -1.2883 0
M  V30 8947 H 828.409 4.5195 -2.31741 0
M  V30 8948 H 828.339 5.2217 -0.681623 0
M  V30 8949 H 830.83 3.67354 -0.886537 0
M  V30 8950 H 831.143 7.34102 -2.41485 0
M  V30 8951 H 829.488 6.60414 -2.16513 0
M  V30 8952 H 832.679 4.52986 -1.17987 0
M  V30 8953 H 832.852 6.20233 -1.87657 0
M  V30 8954 N 826.258 0.243083 1.55714 0
M  V30 8955 C 827.188 -0.652336 2.24203 0
M  V30 8956 C 828.169 -1.1843 1.221 0
M  V30 8957 O 829.354 -1.22435 1.50743 0
M  V30 8958 C 826.484 -1.85111 2.93856 0
M  V30 8959 C 825.438 -1.45208 4.02615 0
M  V30 8960 C 824.764 -2.73137 4.59674 0
M  V30 8961 C 826.064 -0.625988 5.18535 0
M  V30 8962 H 827.758 -0.0812504 2.9929 0
M  V30 8963 H 825.304 -0.0376388 1.43951 0
M  V30 8964 H 827.257 -2.48314 3.40468 0
M  V30 8965 H 825.981 -2.44751 2.16251 0
M  V30 8966 H 824.64 -0.843406 3.56766 0
M  V30 8967 H 824.288 -3.30967 3.78774 0
M  V30 8968 H 823.988 -2.47163 5.33089 0
M  V30 8969 H 825.512 -3.37245 5.09017 0
M  V30 8970 H 826.926 -1.16223 5.61396 0
M  V30 8971 H 825.323 -0.462465 5.98315 0
M  V30 8972 H 826.393 0.362652 4.83542 0
M  V30 8973 N 827.736 -1.57571 -0.0300757 0
M  V30 8974 C 828.684 -2.0758 -1.04944 0
M  V30 8975 C 829.678 -0.989384 -1.37505 0
M  V30 8976 O 830.884 -1.17427 -1.36422 0
M  V30 8977 H 827.259 -0.662419 -0.355956 0
M  V30 8978 H 829.23 -2.92268 -0.601848 0
M  V30 8979 C 827.979 -2.5698 -2.34215 0
M  V30 8980 H 827.302 -3.40193 -2.10021 0
M  V30 8981 H 828.742 -2.95682 -3.03888 0
M  V30 8982 C 827.201 -1.47059 -3.03109 0
M  V30 8983 O 827.731 -0.83625 -3.92899 0
M  V30 8984 N 825.937 -1.20538 -2.64422 0
M  V30 8985 H 825.484 -1.72305 -1.9149 0
M  V30 8986 H 825.442 -0.472045 -3.10836 0
M  V30 8987 N 829.214 0.302327 -1.54673 0
M  V30 8988 C 830.124 1.39542 -1.88587 0
M  V30 8989 C 831.14 1.55543 -0.779895 0
M  V30 8990 O 832.316 1.70233 -1.07623 0
M  V30 8991 C 829.381 2.7394 -2.12504 0
M  V30 8992 C 828.442 2.66935 -3.3622 0
M  V30 8993 C 827.675 3.94923 -3.58987 0
M  V30 8994 O 827.898 4.94218 -2.84789 0
M  V30 8995 O 826.832 3.96896 -4.52501 0
M  V30 8996 H 830.658 1.13784 -2.81579 0
M  V30 8997 H 828.243 0.49827 -1.40846 0
M  V30 8998 H 830.125 3.5346 -2.29443 0
M  V30 8999 H 828.8 2.99544 -1.22698 0
M  V30 9000 H 827.707 1.85892 -3.24646 0
M  V30 9001 H 829.04 2.46283 -4.26152 0
M  V30 9002 N 830.692 1.47107 0.565454 0
M  V30 9003 C 831.94 1.53005 1.32038 0
M  V30 9004 C 832.261 0.190453 1.94068 0
M  V30 9005 O 831.531 -0.784783 1.79494 0
M  V30 9006 H 830.111 0.563578 0.490294 0
M  V30 9007 H 832.773 1.83351 0.660928 0
M  V30 9008 H 831.869 2.29215 2.11818 0
M  V30 9009 N 832.17 -0.811516 1.35101 0
M  V30 9010 C 833.447 -1.55491 1.18667 0
M  V30 9011 C 833.827 -2.09775 -0.236189 0
M  V30 9012 O 833.175 -1.91989 -1.23905 0
M  V30 9013 C 833.385 -2.66732 2.25067 0
M  V30 9014 C 834.733 -3.35201 2.60625 0
M  V30 9015 O 835.757 -2.76998 2.23943 0
M  V30 9016 O 834.616 -4.40334 3.23679 0
M  V30 9017 H 831.71 -0.686783 0.460716 0
M  V30 9018 H 834.256 -0.851903 1.46768 0
M  V30 9019 H 833.028 -2.24457 3.20523 0
M  V30 9020 H 832.651 -3.44673 1.98208 0
M  V30 9021 N 833.648 -1.19017 -1.03309 0
M  V30 9022 C 834.58 -0.881847 -2.11556 0
M  V30 9023 C 835.593 0.123711 -1.62329 0
M  V30 9024 O 836.782 -0.105141 -1.7819 0
M  V30 9025 C 833.882 -0.297634 -3.37591 0
M  V30 9026 C 833.055 -1.35072 -4.16022 0
M  V30 9027 C 832.114 -0.780812 -5.20375 0
M  V30 9028 O 831.14 -1.45745 -5.50224 0
M  V30 9029 N 832.342 0.417964 -5.78993 0
M  V30 9030 H 835.107 -1.81359 -2.38598 0
M  V30 9031 H 832.668 -1.0916 -1.19565 0
M  V30 9032 H 834.66 0.097374 -4.04583 0
M  V30 9033 H 833.23 0.538299 -3.0793 0
M  V30 9034 H 832.45 -1.92074 -3.4424 0
M  V30 9035 H 833.738 -2.06044 -4.65213 0
M  V30 9036 H 833.136 0.985281 -5.57054 0
M  V30 9037 H 831.693 0.754802 -6.47415 0
M  V30 9038 N 835.127 1.22348 -0.993418 0
M  V30 9039 C 836.373 1.91393 -0.67056 0
M  V30 9040 C 836.706 1.77163 0.795428 0
M  V30 9041 O 835.981 1.14084 1.57528 0
M  V30 9042 C 836.264 3.43589 -1.0779 0
M  V30 9043 C 836.117 3.66867 -2.60248 0
M  V30 9044 C 837.436 4.35545 -0.631527 0
M  V30 9045 H 834.555 0.695057 -0.24508 0
M  V30 9046 H 837.197 1.44213 -1.23703 0
M  V30 9047 H 835.347 3.83903 -0.595902 0
M  V30 9048 H 837.019 3.35954 -3.16121 0
M  V30 9049 H 835.262 3.1113 -3.02293 0
M  V30 9050 H 835.933 4.73457 -2.838 0
M  V30 9051 H 838.409 4.0275 -1.04554 0
M  V30 9052 H 837.285 5.40707 -0.944831 0
M  V30 9053 H 837.546 4.39618 0.467779 0
M  V30 9054 N 836.605 0.766683 1.37694 0
M  V30 9055 C 837.851 0.329201 2.0011 0
M  V30 9056 C 838.184 -1.09004 1.60723 0
M  V30 9057 O 837.459 -1.74895 0.850989 0
M  V30 9058 C 837.742 0.466989 3.57059 0
M  V30 9059 C 837.595 1.92828 4.06371 0
M  V30 9060 C 838.914 -0.131792 4.39903 0
M  V30 9061 H 836.033 0.12109 0.726984 0
M  V30 9062 H 838.675 0.968779 1.63446 0
M  V30 9063 H 836.825 -0.0775023 3.88423 0
M  V30 9064 H 838.497 2.53208 3.85595 0
M  V30 9065 H 836.74 2.43884 3.58752 0
M  V30 9066 H 837.411 1.97577 5.15429 0
M  V30 9067 H 839.887 0.332731 4.14768 0
M  V30 9068 H 838.763 -0.005217 5.489 0
M  V30 9069 H 839.024 -1.22156 4.24889 0
M  V30 9070 N 838.083 -1.48885 0.516809 0
M  V30 9071 C 839.013 -2.32241 -0.242157 0
M  V30 9072 C 839.994 -1.41258 -0.947633 0
M  V30 9073 O 841.179 -1.70156 -0.935973 0
M  V30 9074 C 838.309 -3.22151 -1.29754 0
M  V30 9075 C 837.263 -4.22053 -0.710995 0
M  V30 9076 C 836.589 -5.01007 -1.86806 0
M  V30 9077 C 837.889 -5.21388 0.30853 0
M  V30 9078 H 839.583 -2.95943 0.453651 0
M  V30 9079 H 837.129 -1.42316 0.219612 0
M  V30 9080 H 839.082 -3.79284 -1.83634 0
M  V30 9081 H 837.806 -2.56423 -2.02274 0
M  V30 9082 H 836.465 -3.66087 -0.193819 0
M  V30 9083 H 836.113 -4.31713 -2.58133 0
M  V30 9084 H 835.813 -5.68615 -1.48159 0
M  V30 9085 H 837.337 -5.60989 -2.4109 0
M  V30 9086 H 838.751 -5.73122 -0.142703 0
M  V30 9087 H 837.148 -5.96975 0.611673 0
M  V30 9088 H 838.218 -4.69329 1.21894 0
M  V30 9089 N 839.561 -0.251338 -1.55583 0
M  V30 9090 C 840.81 0.372681 -1.98227 0
M  V30 9091 C 841.123 1.58743 -1.1428 0
M  V30 9092 O 842.329 2.28289 -1.46957 0
M  V30 9093 C 840.785 0.714439 -3.52738 0
M  V30 9094 C 840.393 -0.479168 -4.4543 0
M  V30 9095 C 842.137 1.3024 -4.04027 0
M  V30 9096 C 840.044 -0.113318 -5.91291 0
M  V30 9097 H 838.974 0.14302 -0.740312 0
M  V30 9098 H 841.625 -0.352253 -1.80087 0
M  V30 9099 H 840.007 1.49762 -3.66589 0
M  V30 9100 H 841.181 -1.25644 -4.4334 0
M  V30 9101 H 839.496 -0.982359 -4.04646 0
M  V30 9102 H 842.093 1.58953 -5.10527 0
M  V30 9103 H 842.436 2.22837 -3.51638 0
M  V30 9104 H 842.969 0.582024 -3.93519 0
M  V30 9105 H 839.708 -1.00654 -6.47726 0
M  V30 9106 H 839.228 0.627666 -5.96507 0
M  V30 9107 H 840.907 0.30293 -6.4629 0
M  V30 9108 N 841.039 1.57585 0.0217189 0
M  V30 9109 C 841.987 2.08134 1.03842 0
M  V30 9110 C 842.981 0.996662 1.36978 0
M  V30 9111 O 844.187 1.18149 1.35797 0
M  V30 9112 H 840.562 0.664298 0.352438 0
M  V30 9113 H 842.533 2.92583 0.58634 0
M  V30 9114 C 841.282 2.58218 2.32849 0
M  V30 9115 H 840.605 3.41302 2.08214 0
M  V30 9116 H 842.045 2.97289 3.02316 0
M  V30 9117 C 840.504 1.48664 3.02325 0
M  V30 9118 O 841.034 0.857075 3.9245 0
M  V30 9119 N 839.24 1.21938 2.63779 0
M  V30 9120 H 838.787 1.73319 1.90574 0
M  V30 9121 H 838.745 0.488523 3.10581 0
M  V30 9122 N 842.517 -0.29412 1.54831 0
M  V30 9123 C 843.765 -1.02643 1.74094 0
M  V30 9124 C 844.086 -1.87563 0.533402 0
M  V30 9125 O 843.356 -1.9061 -0.452192 0
M  V30 9126 H 841.936 -0.381959 0.641963 0
M  V30 9127 H 844.598 -0.323444 1.92197 0
M  V30 9128 H 843.694 -1.67558 2.63307 0
M  V30 9129 N 843.995 -1.47404 -0.557645 0
M  V30 9130 C 845.411 -1.32913 -0.88353 0
M  V30 9131 C 845.611 -0.31929 -1.98954 0
M  V30 9132 O 844.667 0.26934 -2.51059 0
M  V30 9133 C 845.98 -2.72229 -1.27718 0
M  V30 9134 C 847.528 -2.8051 -1.38863 0
M  V30 9135 C 848.003 -4.20466 -1.81583 0
M  V30 9136 N 849.494 -4.23005 -1.88735 0
M  V30 9137 C 850.229 -5.2821 -2.23118 0
M  V30 9138 N 849.725 -6.4372 -2.56117 0
M  V30 9139 N 851.518 -5.15588 -2.23888 0
M  V30 9140 H 843.669 -2.11698 0.172557 0
M  V30 9141 H 845.932 -0.947889 0.0145334 0
M  V30 9142 H 845.638 -3.47556 -0.538329 0
M  V30 9143 H 845.512 -3.03971 -2.23342 0
M  V30 9144 H 847.899 -2.05457 -2.11829 0
M  V30 9145 H 847.98 -2.52423 -0.414274 0
M  V30 9146 H 847.624 -4.96025 -1.09187 0
M  V30 9147 H 847.554 -4.45977 -2.80021 0
M  V30 9148 H 850.045 -3.39674 -1.65621 0
M  V30 9149 H 850.358 -7.19754 -2.81378 0
M  V30 9150 H 848.703 -6.47041 -2.53698 0
M  V30 9151 H 851.894 -4.24374 -1.97546 0
M  V30 9152 H 852.067 -5.97685 -2.50353 0
M  V30 9153 N 845.473 0.80434 -1.35529 0
M  V30 9154 C 846.75 1.5486 -1.1949 0
M  V30 9155 C 847.13 2.09897 0.22506 0
M  V30 9156 O 846.478 1.92643 1.22886 0
M  V30 9157 C 846.688 2.65535 -2.26478 0
M  V30 9158 C 848.036 3.33814 -2.62399 0
M  V30 9159 O 849.06 2.75807 -2.25409 0
M  V30 9160 O 847.919 4.38612 -3.26009 0
M  V30 9161 H 845.013 0.68433 -0.464351 0
M  V30 9162 H 847.559 0.844107 -1.47217 0
M  V30 9163 H 846.331 2.22754 -3.21709 0
M  V30 9164 H 845.954 3.43617 -2.00033 0
M  V30 9165 N 846.951 1.19563 1.02676 0
M  V30 9166 C 848.2 0.993864 1.75514 0
M  V30 9167 C 848.513 -0.475882 1.89723 0
M  V30 9168 O 849.719 -0.796525 2.59553 0
M  V30 9169 C 848.175 1.72937 3.15628 0
M  V30 9170 C 847.783 3.23937 3.09466 0
M  V30 9171 C 849.527 1.61092 3.92746 0
M  V30 9172 C 847.434 3.90067 4.44524 0
M  V30 9173 H 846.364 0.368244 0.657961 0
M  V30 9174 H 849.015 1.43081 1.14891 0
M  V30 9175 H 847.397 1.22025 3.76731 0
M  V30 9176 H 848.571 3.81983 2.57731 0
M  V30 9177 H 846.886 3.3608 2.45843 0
M  V30 9178 H 849.483 2.07848 4.92649 0
M  V30 9179 H 849.826 0.565415 4.12442 0
M  V30 9180 H 850.359 2.09361 3.3825 0
M  V30 9181 H 847.098 4.94725 4.30032 0
M  V30 9182 H 846.618 3.36809 4.96306 0
M  V30 9183 H 848.297 3.93736 5.13401 0
M  V30 9184 N 848.429 -1.21819 0.999893 0
M  V30 9185 C 849.392 -2.22227 0.561044 0
M  V30 9186 C 850.392 -1.56722 -0.359858 0
M  V30 9187 O 851.582 -1.73546 -0.150848 0
M  V30 9188 C 848.714 -3.40409 -0.182987 0
M  V30 9189 H 849.907 -2.62567 1.44909 0
M  V30 9190 H 847.46 -1.34991 0.78785 0
M  V30 9191 H 848.195 -3.05551 -1.08671 0
M  V30 9192 H 847.98 -3.89171 0.47833 0
M  V30 9193 H 849.47 -4.14856 -0.477952 0
M  V30 9194 N 849.908 -0.773975 -1.37286 0
M  V30 9195 C 850.818 -0.162571 -2.34036 0
M  V30 9196 C 851.834 0.677022 -1.60289 0
M  V30 9197 O 853.01 0.596423 -1.92366 0
M  V30 9198 C 850.075 0.70457 -3.39465 0
M  V30 9199 C 849.136 -0.151738 -4.29032 0
M  V30 9200 C 848.369 0.674111 -5.29426 0
M  V30 9201 O 848.592 1.91107 -5.37433 0
M  V30 9202 O 847.526 0.0821398 -6.01844 0
M  V30 9203 H 851.352 -0.962119 -2.88057 0
M  V30 9204 H 848.937 -0.53517 -1.39486 0
M  V30 9205 H 850.819 1.19954 -4.03967 0
M  V30 9206 H 849.494 1.48227 -2.87768 0
M  V30 9207 H 848.401 -0.693118 -3.67623 0
M  V30 9208 H 849.734 -0.892575 -4.84039 0
M  V30 9209 N 851.386 1.48609 -0.524698 0
M  V30 9210 C 852.336 2.26505 0.260696 0
M  V30 9211 C 853.32 1.32378 0.914597 0
M  V30 9212 O 854.512 1.5695 0.818277 0
M  V30 9213 C 851.641 3.17313 1.31024 0
M  V30 9214 C 850.727 4.18911 0.661391 0
M  V30 9215 N 851.118 5.05183 -0.24981 0
M  V30 9216 C 849.416 4.36425 0.91922 0
M  V30 9217 C 850.117 5.78348 -0.623598 0
M  V30 9218 N 849.093 5.43598 0.0140839 0
M  V30 9219 H 852.895 2.90582 -0.440388 0
M  V30 9220 H 850.409 1.5875 -0.342364 0
M  V30 9221 H 852.406 3.71772 1.88656 0
M  V30 9222 H 851.066 2.54791 2.01275 0
M  V30 9223 H 852.077 5.1415 -0.622093 0
M  V30 9224 H 848.754 3.85095 1.6127 0
M  V30 9225 H 850.144 6.57775 -1.37046 0
M  V30 9226 N 852.864 0.259585 1.55447 0
M  V30 9227 C 854.092 -0.365392 2.03648 0
M  V30 9228 C 854.507 -1.50613 1.13847 0
M  V30 9229 O 853.864 -1.81837 0.155414 0
M  V30 9230 C 853.915 -0.861172 3.51093 0
M  V30 9231 O 853.636 0.234121 4.37474 0
M  V30 9232 C 855.137 -1.55555 4.15111 0
M  V30 9233 H 852.357 -0.0853439 0.66555 0
M  V30 9234 H 854.901 0.387151 2.00802 0
M  V30 9235 H 853.056 -1.56385 3.54433 0
M  V30 9236 H 853.47 -0.1444 5.24301 0
M  V30 9237 H 854.944 -1.85403 5.19932 0
M  V30 9238 H 855.421 -2.48185 3.62355 0
M  V30 9239 H 856.027 -0.89712 4.15731 0
M  V30 9240 N 854.342 -1.57594 -0.0133615 0
M  V30 9241 C 855.292 -2.04048 -1.01726 0
M  V30 9242 C 856.276 -0.932682 -1.3111 0
M  V30 9243 O 857.468 -1.19652 -1.30432 0
M  V30 9244 C 854.597 -2.53637 -2.31351 0
M  V30 9245 C 853.683 -3.71269 -2.04989 0
M  V30 9246 N 854.074 -4.83436 -1.48739 0
M  V30 9247 C 852.372 -3.78943 -2.35198 0
M  V30 9248 C 853.073 -5.64961 -1.38542 0
M  V30 9249 N 852.049 -5.10554 -1.86643 0
M  V30 9250 H 855.851 -2.88188 -0.576623 0
M  V30 9251 H 853.365 -1.60912 -0.219344 0
M  V30 9252 H 855.362 -2.85186 -3.04096 0
M  V30 9253 H 854.022 -1.7091 -2.76079 0
M  V30 9254 H 855.033 -5.04558 -1.16798 0
M  V30 9255 H 851.71 -3.07047 -2.82893 0
M  V30 9256 H 853.1 -6.65092 -0.954075 0
M  V30 9257 N 855.82 0.285905 -1.54985 0
M  V30 9258 C 857.097 1.0397 -1.65679 0
M  V30 9259 C 857.477 2.04725 -0.514851 0
M  V30 9260 O 856.825 2.23257 0.486663 0
M  V30 9261 C 857.035 1.70807 -3.04345 0
M  V30 9262 C 858.383 2.22447 -3.61666 0
M  V30 9263 O 859.407 1.80815 -3.06895 0
M  V30 9264 O 858.266 2.98773 -4.57599 0
M  V30 9265 H 855.36 0.481473 -0.672394 0
M  V30 9266 H 857.906 0.282789 -1.67327 0
M  V30 9267 H 856.678 0.977271 -3.789 0
M  V30 9268 H 856.301 2.53217 -3.06541 0
M  V30 9269 N 857.298 1.47698 0.54982 0
M  V30 9270 C 858.23 1.56806 1.67166 0
M  V30 9271 C 859.243 0.453709 1.5635 0
M  V30 9272 O 860.432 0.723663 1.63173 0
M  V30 9273 C 857.532 1.4632 3.05686 0
M  V30 9274 C 856.705 2.72452 3.42182 0
M  V30 9275 C 855.764 2.55698 4.59897 0
M  V30 9276 O 854.79 3.29534 4.64108 0
M  V30 9277 N 855.992 1.64009 5.56849 0
M  V30 9278 H 858.757 2.53545 1.59797 0
M  V30 9279 H 856.318 1.44171 0.736635 0
M  V30 9280 H 858.31 1.32835 3.82279 0
M  V30 9281 H 856.88 0.57634 3.07241 0
M  V30 9282 H 856.1 3.00644 2.54964 0
M  V30 9283 H 857.388 3.56172 3.63344 0
M  V30 9284 H 856.786 1.03186 5.5621 0
M  V30 9285 H 855.343 1.56473 6.3274 0
M  V30 9286 N 858.776 -0.797141 1.35954 0
M  V30 9287 C 860.022 -1.55698 1.29946 0
M  V30 9288 C 860.355 -1.93808 -0.123259 0
M  V30 9289 O 859.63 -1.62102 -1.07486 0
M  V30 9290 C 859.913 -2.83926 2.2149 0
M  V30 9291 C 859.766 -2.52232 3.72423 0
M  V30 9292 C 861.085 -3.85698 2.11955 0
M  V30 9293 H 858.204 -0.56488 0.47337 0
M  V30 9294 H 860.846 -0.916421 1.66438 0
M  V30 9295 H 858.996 -3.38588 1.905 0
M  V30 9296 H 860.668 -2.0368 4.13899 0
M  V30 9297 H 858.911 -1.85286 3.92239 0
M  V30 9298 H 859.582 -3.43782 4.31877 0
M  V30 9299 H 862.058 -3.40462 2.39218 0
M  V30 9300 H 860.934 -4.73182 2.78191 0
M  V30 9301 H 861.195 -4.28083 1.10442 0
M  V30 9302 N 860.254 -1.20106 -1.0204 0
M  V30 9303 C 861.5 -1.01039 -1.75838 0
M  V30 9304 C 861.833 0.456819 -1.88751 0
M  V30 9305 O 861.108 1.33919 -1.41053 0
M  V30 9306 C 861.391 -1.69009 -3.17975 0
M  V30 9307 C 861.244 -3.2315 -3.1288 0
M  V30 9308 C 862.563 -1.42005 -4.16561 0
M  V30 9309 H 859.682 -0.368465 -0.638281 0
M  V30 9310 H 862.324 -1.48066 -1.19064 0
M  V30 9311 H 860.474 -1.29026 -3.66449 0
M  V30 9312 H 862.146 -3.72402 -2.72239 0
M  V30 9313 H 860.389 -3.54253 -2.50374 0
M  V30 9314 H 861.06 -3.65862 -4.13339 0
M  V30 9315 H 863.536 -1.76685 -3.76725 0
M  V30 9316 H 862.412 -1.92101 -5.14187 0
M  V30 9317 H 862.673 -0.346884 -4.40737 0
M  V30 9318 N 861.732 1.21287 -1.00634 0
M  V30 9319 C 862.662 2.25973 -0.588089 0
M  V30 9320 C 863.643 1.65527 0.391764 0
M  V30 9321 O 864.828 1.92179 0.279452 0
M  V30 9322 C 861.958 3.47197 0.0847336 0
M  V30 9323 C 860.912 4.20168 -0.815039 0
M  V30 9324 C 860.238 5.34699 -0.00855393 0
M  V30 9325 C 861.538 4.77416 -2.11828 0
M  V30 9326 H 863.232 2.61212 -1.46317 0
M  V30 9327 H 860.778 1.25563 -0.704985 0
M  V30 9328 H 862.731 4.19602 0.388821 0
M  V30 9329 H 861.455 3.11092 0.994456 0
M  V30 9330 H 860.114 3.49614 -1.10297 0
M  V30 9331 H 859.762 4.94837 0.902499 0
M  V30 9332 H 859.462 5.84449 -0.607664 0
M  V30 9333 H 860.986 6.09914 0.289317 0
M  V30 9334 H 862.4 5.41694 -1.87725 0
M  V30 9335 H 860.797 5.37561 -2.66736 0
M  V30 9336 H 861.867 3.96724 -2.78816 0
M  V30 9337 N 863.21 0.781244 1.36873 0
M  V30 9338 C 864.457 0.349889 1.99454 0
M  V30 9339 C 864.785 -1.07621 1.62013 0
M  V30 9340 O 864.04 -1.75665 0.86258 0
M  V30 9341 C 864.339 0.45146 3.54537 0
M  V30 9342 C 864.005 1.83718 4.11775 0
M  V30 9343 C 862.667 2.21634 4.2712 0
M  V30 9344 C 865.019 2.7449 4.43063 0
M  V30 9345 C 862.347 3.49742 4.7106 0
M  V30 9346 C 864.699 4.02017 4.88431 0
M  V30 9347 C 863.363 4.39967 5.01982 0
M  V30 9348 H 862.633 0.128033 0.729855 0
M  V30 9349 H 865.28 0.997117 1.63493 0
M  V30 9350 H 863.585 -0.279288 3.90803 0
M  V30 9351 H 865.282 0.0988609 4.00878 0
M  V30 9352 H 861.872 1.53251 4.00265 0
M  V30 9353 H 866.056 2.46453 4.30783 0
M  V30 9354 H 861.312 3.79026 4.79738 0
M  V30 9355 H 865.486 4.72475 5.11605 0
M  V30 9356 H 863.113 5.39291 5.35788 0
M  V30 9357 N 864.689 -1.48329 0.532571 0
M  V30 9358 C 865.938 -2.017 -0.00259705 0
M  V30 9359 C 866.251 -1.41469 -1.35077 0
M  V30 9360 O 867.457 -1.86354 -1.97445 0
M  V30 9361 C 865.913 -3.59858 -0.0550179 0
M  V30 9362 C 865.521 -4.29073 1.28842 0
M  V30 9363 C 867.265 -4.21066 -0.538878 0
M  V30 9364 C 865.172 -5.79171 1.19644 0
M  V30 9365 H 864.102 -0.753985 -0.00474081 0
M  V30 9366 H 866.753 -1.70565 0.676739 0
M  V30 9367 H 865.135 -3.87846 -0.799486 0
M  V30 9368 H 866.309 -4.12755 2.04865 0
M  V30 9369 H 864.624 -3.79748 1.70822 0
M  V30 9370 H 867.221 -5.31026 -0.6257 0
M  V30 9371 H 867.564 -3.86559 -1.54525 0
M  V30 9372 H 868.097 -3.97517 0.149984 0
M  V30 9373 H 864.836 -6.18257 2.17805 0
M  V30 9374 H 864.356 -5.97895 0.477609 0
M  V30 9375 H 866.035 -6.40875 0.888186 0
M  V30 9376 N 866.167 -0.267825 -1.55308 0
M  V30 9377 C 867.114 0.6228 -2.22238 0
M  V30 9378 C 868.084 1.15536 -1.19334 0
M  V30 9379 O 869.269 1.206 -1.47852 0
M  V30 9380 C 866.409 1.80447 -2.94164 0
M  V30 9381 C 865.522 1.30646 -4.11771 0
M  V30 9382 C 864.657 2.44935 -4.7136 0
M  V30 9383 C 863.696 1.92099 -5.81175 0
M  V30 9384 N 862.833 2.99834 -6.34857 0
M  V30 9385 H 867.673 0.0453874 -2.97965 0
M  V30 9386 H 865.21 0.0106371 -1.47096 0
M  V30 9387 H 867.168 2.49896 -3.34078 0
M  V30 9388 H 865.798 2.35403 -2.20874 0
M  V30 9389 H 864.85 0.505314 -3.77029 0
M  V30 9390 H 866.162 0.879409 -4.90987 0
M  V30 9391 H 865.316 3.2239 -5.13955 0
M  V30 9392 H 864.055 2.90951 -3.91406 0
M  V30 9393 H 863.06 1.13122 -5.38037 0
M  V30 9394 H 864.285 1.47027 -6.62993 0
M  V30 9395 H 862.231 3.45246 -5.578 0
M  V30 9396 H 862.148 2.61524 -7.09324 0
M  V30 9397 H 863.416 3.77286 -6.82111 0
M  V30 9398 N 867.645 1.57599 0.00500368 0
M  V30 9399 C 868.608 2.07058 0.982832 0
M  V30 9400 C 869.608 0.979045 1.27559 0
M  V30 9401 O 870.798 1.24187 1.22161 0
M  V30 9402 C 867.93 2.50782 2.30914 0
M  V30 9403 H 869.123 2.94718 0.555119 0
M  V30 9404 H 866.676 1.54249 0.25237 0
M  V30 9405 H 867.411 1.66351 2.78385 0
M  V30 9406 H 867.196 3.30495 2.10987 0
M  V30 9407 H 868.686 2.89391 3.0107 0
M  V30 9408 N 869.123 -0.277682 1.55134 0
M  V30 9409 C 870.348 -1.03254 1.7987 0
M  V30 9410 C 870.773 -1.79324 0.567861 0
M  V30 9411 O 870.131 -1.74764 -0.4824 0
M  V30 9412 C 870.179 -1.9705 3.02 0
M  V30 9413 O 869.283 -3.05744 2.76757 0
M  V30 9414 H 868.624 -0.295447 0.594649 0
M  V30 9415 H 871.154 -0.308013 2.02268 0
M  V30 9416 H 871.164 -2.3909 3.30606 0
M  V30 9417 H 869.839 -1.41094 3.91236 0
M  V30 9418 H 868.416 -2.68052 2.59235 0
M  V30 9419 N 870.601 -1.47988 -0.541979 0
M  V30 9420 C 871.841 -1.56982 -1.30905 0
M  V30 9421 C 872.205 -0.233153 -1.90579 0
M  V30 9422 O 873.406 -0.198018 -2.6807 0
M  V30 9423 C 871.677 -2.66787 -2.37823 0
M  V30 9424 S 873.236 -2.95467 -3.24414 0
M  V30 9425 H 870.054 -0.554165 -0.445446 0
M  V30 9426 H 872.656 -1.85448 -0.618803 0
M  V30 9427 H 871.36 -3.62483 -1.92443 0
M  V30 9428 H 870.891 -2.40184 -3.11569 0
M  V30 9429 H 872.906 -2.33846 -4.37642 0
M  V30 9430 N 872.079 0.78992 -1.36375 0
M  V30 9431 C 872.989 1.93386 -1.32812 0
M  V30 9432 C 874.005 1.72468 -0.230377 0
M  V30 9433 O 875.181 1.96014 -0.462657 0
M  V30 9434 C 872.246 3.2824 -1.11621 0
M  V30 9435 C 871.307 3.61939 -2.30865 0
M  V30 9436 C 870.54 4.90359 -2.10675 0
M  V30 9437 O 870.763 5.6005 -1.08168 0
M  V30 9438 O 869.697 5.22702 -2.9844 0
M  V30 9439 H 873.523 1.99342 -2.29121 0
M  V30 9440 H 871.108 0.9301 -1.16917 0
M  V30 9441 H 872.99 4.08939 -1.01719 0
M  V30 9442 H 871.665 3.23178 -0.183732 0
M  V30 9443 H 870.572 2.81549 -2.46335 0
M  V30 9444 H 871.905 3.71725 -3.22617 0
M  V30 9445 N 873.557 1.20646 1.01402 0
M  V30 9446 C 874.973 0.961866 1.27359 0
M  V30 9447 C 875.173 -0.357083 1.98311 0
M  V30 9448 O 874.229 -1.08498 2.28001 0
M  V30 9449 C 875.542 2.14627 2.10609 0
M  V30 9450 C 877.09 2.18753 2.23866 0
M  V30 9451 C 877.565 3.36686 3.10494 0
M  V30 9452 N 879.056 3.36716 3.18083 0
M  V30 9453 C 879.791 4.24615 3.85343 0
M  V30 9454 N 879.287 5.22697 4.54708 0
M  V30 9455 N 881.08 4.12449 3.81893 0
M  V30 9456 H 873.231 2.05481 0.537721 0
M  V30 9457 H 875.494 0.899292 0.299963 0
M  V30 9458 H 875.2 3.10159 1.65814 0
M  V30 9459 H 875.074 2.12935 3.11349 0
M  V30 9460 H 877.461 1.23782 2.67885 0
M  V30 9461 H 877.542 2.24492 1.22626 0
M  V30 9462 H 877.186 4.31945 2.67181 0
M  V30 9463 H 877.116 3.28185 4.11828 0
M  V30 9464 H 879.607 2.65728 2.68695 0
M  V30 9465 H 879.92 5.86087 5.03708 0
M  V30 9466 H 878.265 5.26631 4.53525 0
M  V30 9467 H 881.456 3.35091 3.26851 0
M  V30 9468 H 881.629 4.81162 4.34035 0
M  V30 9469 N 875.035 -1.20752 1.01276 0
M  V30 9470 C 875.985 -2.21252 0.550602 0
M  V30 9471 C 876.969 -1.56052 -0.391985 0
M  V30 9472 O 878.161 -1.75682 -0.215575 0
M  V30 9473 C 875.29 -3.43112 -0.113601 0
M  V30 9474 C 874.376 -4.15485 0.850465 0
M  V30 9475 N 874.767 -4.64301 2.00643 0
M  V30 9476 C 873.065 -4.40932 0.670476 0
M  V30 9477 C 873.766 -5.197 2.61317 0
M  V30 9478 N 872.742 -5.09534 1.8941 0
M  V30 9479 H 876.544 -2.56657 1.43194 0
M  V30 9480 H 874.058 -1.36646 0.877597 0
M  V30 9481 H 876.055 -4.1433 -0.462211 0
M  V30 9482 H 874.715 -3.09213 -0.990825 0
M  V30 9483 H 875.726 -4.59637 2.38651 0
M  V30 9484 H 872.403 -4.17197 -0.159016 0
M  V30 9485 H 873.793 -5.67873 3.59123 0
M  V30 9486 N 876.513 -0.788492 -1.36457 0
M  V30 9487 C 877.738 -0.371224 -2.04051 0
M  V30 9488 C 878.163 1.004 -1.59064 0
M  V30 9489 O 877.521 1.64663 -0.758679 0
M  V30 9490 C 877.569 -0.442275 -3.57877 0
M  V30 9491 O 876.673 0.55113 -4.08701 0
M  V30 9492 H 876.014 -0.157808 -0.644975 0
M  V30 9493 H 878.544 -1.06935 -1.74431 0
M  V30 9494 H 878.554 -0.305548 -4.06854 0
M  V30 9495 H 877.229 -1.44547 -3.89973 0
M  V30 9496 H 875.806 0.37614 -3.70998 0
M  V30 9497 N 877.991 1.48044 -0.54043 0
M  V30 9498 C 879.239 2.02097 -0.0101367 0
M  V30 9499 C 879.56 1.41881 1.33771 0
M  V30 9500 O 878.83 0.587923 1.8687 0
M  V30 9501 H 877.41 0.747 -0.000758716 0
M  V30 9502 H 880.072 1.81639 -0.706634 0
M  V30 9503 H 879.168 3.11969 0.0904474 0
M  V30 9504 N 879.47 0.276058 1.55163 0
M  V30 9505 C 880.38 -0.621066 2.2623 0
M  V30 9506 C 881.396 -1.16931 1.28853 0
M  V30 9507 O 882.572 -1.1994 1.61791 0
M  V30 9508 C 879.637 -1.78824 2.97023 0
M  V30 9509 C 878.698 -1.27657 4.09881 0
M  V30 9510 C 877.931 -2.38812 4.77289 0
M  V30 9511 O 878.154 -3.58188 4.43912 0
M  V30 9512 O 877.088 -2.06915 5.65217 0
M  V30 9513 H 880.914 -0.0453346 3.03666 0
M  V30 9514 H 878.499 0.0434275 1.49337 0
M  V30 9515 H 880.381 -2.46877 3.41511 0
M  V30 9516 H 879.056 -2.35104 2.22503 0
M  V30 9517 H 877.963 -0.56248 3.69847 0
M  V30 9518 H 879.296 -0.759509 4.86305 0
M  V30 9519 N 880.948 -1.576 0.00335426 0
M  V30 9520 C 881.878 -2.11668 -0.985839 0
M  V30 9521 C 882.859 -1.02661 -1.35627 0
M  V30 9522 O 884.044 -1.30361 -1.43943 0
M  V30 9523 C 881.174 -2.62273 -2.27662 0
M  V30 9524 C 880.128 -3.75837 -2.0477 0
M  V30 9525 C 879.454 -4.12769 -3.39891 0
M  V30 9526 C 880.754 -5.02975 -1.40759 0
M  V30 9527 H 882.448 -2.9457 -0.535637 0
M  V30 9528 H 879.994 -1.41702 -0.256204 0
M  V30 9529 H 881.947 -2.98727 -2.97221 0
M  V30 9530 H 880.671 -1.76498 -2.74802 0
M  V30 9531 H 879.33 -3.39782 -1.37636 0
M  V30 9532 H 878.978 -3.24013 -3.8474 0
M  V30 9533 H 878.678 -4.89281 -3.25389 0
M  V30 9534 H 880.202 -4.51784 -4.1076 0
M  V30 9535 H 881.616 -5.37179 -2.00279 0
M  V30 9536 H 880.013 -5.84315 -1.36734 0
M  V30 9537 H 881.083 -4.83431 -0.377218 0
M  V30 9538 N 882.426 0.269451 -1.5528 0
M  V30 9539 C 883.359 1.3588 -1.83336 0
M  V30 9540 C 884.337 1.4739 -0.68666 0
M  V30 9541 O 885.521 1.63959 -0.930037 0
M  V30 9542 C 882.648 2.73483 -1.99812 0
M  V30 9543 C 881.694 2.79239 -3.22378 0
M  V30 9544 S 882.527 2.38125 -4.79642 0
M  V30 9545 C 883.683 3.77697 -4.99095 0
M  V30 9546 H 883.916 1.11878 -2.75446 0
M  V30 9547 H 881.449 0.469268 -1.47096 0
M  V30 9548 H 883.407 3.52725 -2.09989 0
M  V30 9549 H 882.068 2.94735 -1.08583 0
M  V30 9550 H 881.261 3.80243 -3.30804 0
M  V30 9551 H 880.863 2.08022 -3.1081 0
M  V30 9552 H 883.155 4.72999 -4.85055 0
M  V30 9553 H 884.098 3.7422 -6.01136 0
M  V30 9554 H 884.506 3.69164 -4.27058 0
M  V30 9555 N 883.904 1.48273 0.534124 0
M  V30 9556 C 884.834 1.6538 1.64839 0
M  V30 9557 C 885.815 0.502741 1.62501 0
M  V30 9558 O 887 0.734799 1.79762 0
M  V30 9559 C 884.13 1.68949 3.03436 0
M  V30 9560 C 883.084 2.83513 3.20631 0
M  V30 9561 C 882.41 2.72169 4.60248 0
M  V30 9562 C 883.71 4.24858 3.03797 0
M  V30 9563 H 885.404 2.58663 1.50777 0
M  V30 9564 H 882.95 1.24479 0.723937 0
M  V30 9565 H 884.903 1.79505 3.81256 0
M  V30 9566 H 883.627 0.722415 3.1851 0
M  V30 9567 H 882.286 2.72505 2.45227 0
M  V30 9568 H 881.934 1.7344 4.72152 0
M  V30 9569 H 881.634 3.49042 4.72698 0
M  V30 9570 H 883.158 2.84687 5.40172 0
M  V30 9571 H 884.572 4.36721 3.71413 0
M  V30 9572 H 882.969 5.02697 3.27743 0
M  V30 9573 H 884.039 4.41611 2.0027 0
M  V30 9574 N 885.382 -0.782676 1.36792 0
M  V30 9575 C 886.312 -1.90973 1.34356 0
M  V30 9576 C 887.293 -1.6875 0.213917 0
M  V30 9577 O 888.478 -1.89766 0.412601 0
M  V30 9578 C 885.608 -3.28097 1.13884 0
M  V30 9579 C 884.562 -3.6486 2.23744 0
M  V30 9580 C 883.888 -5.00406 1.88408 0
M  V30 9581 C 885.188 -3.72742 3.6587 0
M  V30 9582 H 886.882 -1.93268 2.28665 0
M  V30 9583 H 884.428 -0.928447 1.10072 0
M  V30 9584 H 886.381 -4.06569 1.10813 0
M  V30 9585 H 885.105 -3.26206 0.160275 0
M  V30 9586 H 883.764 -2.88689 2.25952 0
M  V30 9587 H 883.412 -4.95044 0.891083 0
M  V30 9588 H 883.112 -5.25973 2.61966 0
M  V30 9589 H 884.636 -5.81291 1.86905 0
M  V30 9590 H 886.05 -4.4139 3.65852 0
M  V30 9591 H 884.447 -4.09798 4.38389 0
M  V30 9592 H 885.517 -2.73676 4.00287 0
M  V30 9593 N 886.86 -1.21182 -1.00761 0
M  V30 9594 C 888.106 -1.02898 -1.74756 0
M  V30 9595 C 888.439 0.436774 -1.89225 0
M  V30 9596 O 887.714 1.32415 -1.42466 0
M  V30 9597 C 887.997 -1.72372 -3.16164 0
M  V30 9598 C 887.85 -3.2645 -3.09435 0
M  V30 9599 C 889.169 -1.46415 -4.15031 0
M  V30 9600 H 886.288 -0.375214 -0.634337 0
M  V30 9601 H 888.93 -1.49321 -1.17487 0
M  V30 9602 H 887.08 -1.32906 -3.65059 0
M  V30 9603 H 888.752 -3.75269 -2.68274 0
M  V30 9604 H 886.995 -3.56889 -2.46603 0
M  V30 9605 H 887.666 -3.70226 -4.09435 0
M  V30 9606 H 890.142 -1.80671 -3.7483 0
M  V30 9607 H 889.018 -1.97544 -5.12121 0
M  V30 9608 H 889.279 -0.39361 -4.40344 0
M  V30 9609 N 888.338 1.20213 -1.01915 0
M  V30 9610 C 889.754 1.41696 -0.734459 0
M  V30 9611 C 889.954 1.89504 0.684867 0
M  V30 9612 O 889.01 2.06556 1.45227 0
M  V30 9613 C 890.323 2.43644 -1.76233 0
M  V30 9614 C 891.871 2.57406 -1.78076 0
M  V30 9615 C 892.346 3.626 -2.79796 0
M  V30 9616 N 893.837 3.70086 -2.78551 0
M  V30 9617 C 894.572 4.51145 -3.53915 0
M  V30 9618 N 894.068 5.35988 -4.38963 0
M  V30 9619 N 895.861 4.45702 -3.425 0
M  V30 9620 H 888.012 0.874976 -1.93541 0
M  V30 9621 H 890.275 0.446647 -0.836188 0
M  V30 9622 H 889.981 2.15519 -2.77929 0
M  V30 9623 H 889.855 3.42672 -1.57657 0
M  V30 9624 H 892.242 2.8486 -0.770634 0
M  V30 9625 H 892.323 1.58565 -2.00725 0
M  V30 9626 H 891.967 3.35889 -3.80973 0
M  V30 9627 H 891.897 4.61069 -2.54407 0
M  V30 9628 H 894.388 3.09484 -2.1686 0
M  V30 9629 H 894.701 5.94932 -4.9323 0
M  V30 9630 H 893.046 5.35482 -4.4304 0
M  V30 9631 H 896.237 3.78456 -2.75478 0
M  V30 9632 H 896.41 5.08637 -4.01487 0
M  V30 9633 N 889.816 0.795718 1.36037 0
M  V30 9634 C 891.227 0.433379 1.816 0
M  V30 9635 C 891.578 -1.04341 1.66155 0
M  V30 9636 O 890.703 -1.81004 1.18603 0
M  V30 9637 C 891.298 0.77985 3.29703 0
M  V30 9638 C 889.857 0.470256 3.73451 0
M  V30 9639 C 889.004 1.01119 2.58206 0
M  V30 9640 H 891.955 0.988317 1.24169 0
M  V30 9641 H 891.976 0.0732898 3.80429 0
M  V30 9642 H 891.488 1.85473 3.40913 0
M  V30 9643 H 889.589 -0.596332 3.67797 0
M  V30 9644 H 889.702 0.995276 4.68648 0
M  V30 9645 H 888.066 0.434077 2.50974 0
M  V30 9646 H 888.849 2.09196 2.72198 0
M  V30 9647 N 891.294 -1.47756 0.548274 0
M  V30 9648 C 892.242 -2.3158 -0.217584 0
M  V30 9649 C 893.236 -1.42372 -0.917957 0
M  V30 9650 O 894.442 -1.59184 -0.840259 0
M  V30 9651 H 890.817 -0.74671 -0.0890388 0
M  V30 9652 H 892.788 -2.94032 0.508719 0
M  V30 9653 C 891.537 -3.24834 -1.24008 0
M  V30 9654 H 890.86 -3.93435 -0.710572 0
M  V30 9655 H 892.3 -3.86336 -1.74701 0
M  V30 9656 C 890.759 -2.47724 -2.2833 0
M  V30 9657 O 891.289 -2.21522 -3.35098 0
M  V30 9658 N 889.495 -2.08891 -2.02022 0
M  V30 9659 H 889.042 -2.30401 -1.1521 0
M  V30 9660 H 889 -1.57613 -2.7204 0
M  V30 9661 N 892.772 -0.284283 -1.55015 0
M  V30 9662 C 893.735 0.586182 -2.21577 0
M  V30 9663 C 894.735 1.07427 -1.1965 0
M  V30 9664 O 895.925 0.972977 -1.44495 0
M  V30 9665 C 893.057 1.80973 -2.88897 0
M  V30 9666 H 894.25 0.00487253 -2.999 0
M  V30 9667 H 891.803 -0.0349696 -1.56261 0
M  V30 9668 H 892.538 2.43131 -2.14611 0
M  V30 9669 H 892.323 1.46757 -3.636 0
M  V30 9670 H 893.813 2.42853 -3.39724 0
M  V30 9671 N 894.251 1.57596 -0.0117121 0
M  V30 9672 C 895.497 1.91355 0.671661 0
M  V30 9673 C 895.83 0.886818 1.72769 0
M  V30 9674 O 895.105 -0.0928813 1.94278 0
M  V30 9675 C 895.388 3.35657 1.30409 0
M  V30 9676 C 895.241 4.49055 0.2588 0
M  V30 9677 C 896.56 3.79595 2.22701 0
M  V30 9678 H 893.679 0.695893 0.242698 0
M  V30 9679 H 896.321 1.89887 -0.0654071 0
M  V30 9680 H 894.471 3.37038 1.9323 0
M  V30 9681 H 896.143 4.59809 -0.370631 0
M  V30 9682 H 894.386 4.31785 -0.417672 0
M  V30 9683 H 895.057 5.4701 0.740578 0
M  V30 9684 H 897.533 3.7984 1.69885 0
M  V30 9685 H 896.409 4.81292 2.63912 0
M  V30 9686 H 896.67 3.14118 3.11098 0
M  V30 9687 N 895.729 -0.261212 1.5542 0
M  V30 9688 C 896.959 -1.00769 1.80358 0
M  V30 9689 C 897.367 -1.79991 0.583085 0
M  V30 9690 O 896.71 -1.77911 -0.457534 0
M  V30 9691 C 896.772 -2.00463 2.9842 0
M  V30 9692 C 896.436 -1.4007 4.35005 0
M  V30 9693 C 897.433 -0.810388 5.13545 0
M  V30 9694 C 895.118 -1.42436 4.81682 0
M  V30 9695 C 897.112 -0.251784 6.36903 0
M  V30 9696 C 894.799 -0.861897 6.04991 0
M  V30 9697 C 895.797 -0.276622 6.8244 0
M  V30 9698 O 895.485 0.277194 8.03422 0
M  V30 9699 H 895.217 -0.302839 0.604371 0
M  V30 9700 H 897.771 -0.293763 2.03288 0
M  V30 9701 H 896.001 -2.75648 2.71211 0
M  V30 9702 H 897.69 -2.61336 3.10577 0
M  V30 9703 H 898.456 -0.784719 4.7861 0
M  V30 9704 H 894.335 -1.8693 4.214 0
M  V30 9705 H 897.879 0.205678 6.97297 0
M  V30 9706 H 893.776 -0.884846 6.39407 0
M  V30 9707 H 894.544 0.167682 8.18328 0
M  V30 9708 N 897.207 -1.48554 -0.526253 0
M  V30 9709 C 898.484 -1.47252 -1.28748 0
M  V30 9710 C 898.864 -0.186245 -2.10277 0
M  V30 9711 O 898.212 0.831954 -2.12816 0
M  V30 9712 C 898.422 -2.73672 -2.16575 0
M  V30 9713 C 899.77 -3.22151 -2.76593 0
M  V30 9714 O 900.794 -2.74614 -2.2686 0
M  V30 9715 O 899.653 -4.04877 -3.67066 0
M  V30 9716 H 896.747 -0.588242 -0.581292 0
M  V30 9717 H 899.293 -1.60792 -0.5426 0
M  V30 9718 H 898.065 -3.58798 -1.56139 0
M  V30 9719 H 897.688 -2.6287 -2.98304 0
M  V30 9720 N 898.685 0.775411 -1.37205 0
M  V30 9721 C 899.931 1.53611 -1.32407 0
M  V30 9722 C 900.264 1.9398 0.0924103 0
M  V30 9723 O 899.539 1.63791 1.04893 0
M  V30 9724 C 899.822 2.80367 -2.25979 0
M  V30 9725 C 899.675 2.46275 -3.76389 0
M  V30 9726 C 900.994 3.82277 -2.18064 0
M  V30 9727 H 898.113 0.557278 -0.482297 0
M  V30 9728 H 900.755 0.889826 -1.67875 0
M  V30 9729 H 898.905 3.35515 -1.95862 0
M  V30 9730 H 900.577 1.9707 -4.17087 0
M  V30 9731 H 898.82 1.79023 -3.95137 0
M  V30 9732 H 899.491 3.36868 -4.37291 0
M  V30 9733 H 901.967 3.36613 -2.44604 0
M  V30 9734 H 900.843 4.68696 -2.85684 0
M  V30 9735 H 901.104 4.26272 -1.17239 0
M  V30 9736 N 900.163 1.21714 1.00117 0
M  V30 9737 C 901.409 1.03823 1.74208 0
M  V30 9738 C 901.742 -0.426733 1.89454 0
M  V30 9739 O 901.017 -1.31658 1.43166 0
M  V30 9740 C 901.3 1.74047 3.15246 0
M  V30 9741 C 901.153 3.28087 3.077 0
M  V30 9742 C 902.472 1.48614 4.14249 0
M  V30 9743 H 899.591 0.378573 0.632338 0
M  V30 9744 H 902.233 1.49942 1.16694 0
M  V30 9745 H 900.383 1.3484 3.64349 0
M  V30 9746 H 902.055 3.76686 2.6628 0
M  V30 9747 H 900.298 3.58191 2.44707 0
M  V30 9748 H 900.969 3.72392 4.07466 0
M  V30 9749 H 903.445 1.82656 3.73866 0
M  V30 9750 H 902.321 2.00257 5.11066 0
M  V30 9751 H 902.582 0.416957 4.40129 0
M  V30 9752 N 901.641 -1.19671 1.02551 0
M  V30 9753 C 902.551 -2.26441 0.613329 0
M  V30 9754 C 903.567 -1.70375 -0.353339 0
M  V30 9755 O 904.743 -2.0028 -0.212064 0
M  V30 9756 C 901.808 -3.46684 -0.0329028 0
M  V30 9757 C 900.869 -4.17945 0.980837 0
M  V30 9758 C 900.102 -5.32448 0.36535 0
M  V30 9759 O 900.325 -5.64291 -0.832596 0
M  V30 9760 O 899.259 -5.92012 1.08652 0
M  V30 9761 H 903.085 -2.63932 1.50246 0
M  V30 9762 H 900.67 -1.2646 0.795502 0
M  V30 9763 H 902.552 -4.1956 -0.393395 0
M  V30 9764 H 901.227 -3.1105 -0.896089 0
M  V30 9765 H 900.134 -3.47204 1.39286 0
M  V30 9766 H 901.467 -4.57542 1.81428 0
M  V30 9767 N 903.119 -0.802921 -1.35613 0
M  V30 9768 C 904.029 -0.212177 -2.33639 0
M  V30 9769 C 905.045 0.642871 -1.61689 0
M  V30 9770 O 906.221 0.555485 -1.93588 0
M  V30 9771 C 903.286 0.632406 -3.40883 0
M  V30 9772 C 902.347 -0.242708 -4.28613 0
M  V30 9773 C 901.58 0.56166 -5.30736 0
M  V30 9774 O 901.803 1.79664 -5.41366 0
M  V30 9775 O 900.737 -0.0455387 -6.01883 0
M  V30 9776 H 904.563 -1.023 -2.85952 0
M  V30 9777 H 902.148 -0.564636 -1.38319 0
M  V30 9778 H 904.03 1.11358 -4.0642 0
M  V30 9779 H 902.705 1.42089 -2.90848 0
M  V30 9780 H 901.612 -0.77094 -3.6607 0
M  V30 9781 H 902.945 -0.995046 -4.82037 0
M  V30 9782 N 904.597 1.47463 -0.556102 0
M  V30 9783 C 905.544 2.29998 0.192213 0
M  V30 9784 C 906.514 1.38993 0.909403 0
M  V30 9785 O 907.699 1.67954 0.905316 0
M  V30 9786 C 904.839 3.22932 1.21692 0
M  V30 9787 C 903.952 4.29027 0.505908 0
M  V30 9788 C 903.087 5.09114 1.51581 0
M  V30 9789 C 902.126 6.06984 0.789714 0
M  V30 9790 N 901.263 6.80033 1.74639 0
M  V30 9791 H 906.103 2.93468 -0.517734 0
M  V30 9792 H 903.64 1.44654 -0.267147 0
M  V30 9793 H 905.598 3.75234 1.8236 0
M  V30 9794 H 904.228 2.61329 1.89491 0
M  V30 9795 H 903.28 3.7979 -0.215276 0
M  V30 9796 H 904.592 4.9876 -0.062958 0
M  V30 9797 H 903.746 5.6556 2.19606 0
M  V30 9798 H 902.485 4.3928 2.11859 0
M  V30 9799 H 901.49 5.49717 0.0955382 0
M  V30 9800 H 902.715 6.78827 0.192688 0
M  V30 9801 H 900.661 6.12931 2.33777 0
M  V30 9802 H 900.578 7.45933 1.22965 0
M  V30 9803 H 901.846 7.41054 2.41782 0
M  V30 9804 N 906.075 0.2925 1.54862 0
M  V30 9805 C 907.005 -0.580677 2.26165 0
M  V30 9806 C 907.986 -1.14485 1.25806 0
M  V30 9807 O 909.171 -1.17577 1.54562 0
M  V30 9808 C 906.301 -1.75668 2.99596 0
M  V30 9809 C 905.255 -1.32325 4.07031 0
M  V30 9810 C 904.581 -2.58374 4.68131 0
M  V30 9811 C 905.881 -0.460703 5.20264 0
M  V30 9812 H 907.575 0.0140075 2.99397 0
M  V30 9813 H 905.121 0.00817706 1.43998 0
M  V30 9814 H 907.074 -2.37356 3.48195 0
M  V30 9815 H 905.798 -2.37747 2.23928 0
M  V30 9816 H 904.457 -0.729477 3.59269 0
M  V30 9817 H 904.105 -3.18749 3.89112 0
M  V30 9818 H 903.805 -2.30078 5.40683 0
M  V30 9819 H 905.329 -3.2088 5.19489 0
M  V30 9820 H 906.743 -0.983037 5.64809 0
M  V30 9821 H 905.14 -0.271881 5.99484 0
M  V30 9822 H 906.21 0.516304 4.82143 0
M  V30 9823 N 907.553 -1.57587 0.0200696 0
M  V30 9824 C 908.463 -2.13119 -0.980676 0
M  V30 9825 C 909.479 -1.08124 -1.36328 0
M  V30 9826 O 910.655 -1.40134 -1.44653 0
M  V30 9827 C 907.72 -2.63991 -2.24743 0
M  V30 9828 C 906.781 -3.83667 -1.9261 0
M  V30 9829 C 906.014 -4.32103 -3.13246 0
M  V30 9830 O 906.237 -3.79758 -4.25606 0
M  V30 9831 O 905.171 -5.24047 -2.96072 0
M  V30 9832 H 908.997 -2.98887 -0.538528 0
M  V30 9833 H 906.582 -1.48055 -0.19999 0
M  V30 9834 H 908.464 -2.9682 -2.99125 0
M  V30 9835 H 907.139 -1.81311 -2.68157 0
M  V30 9836 H 906.046 -3.55778 -1.15641 0
M  V30 9837 H 907.379 -4.67482 -1.54019 0
M  V30 9838 N 909.032 0.252966 -1.55557 0
M  V30 9839 C 909.98 1.33289 -1.90622 0
M  V30 9840 C 910.974 1.50133 -0.784638 0
M  V30 9841 O 912.18 1.51679 -0.969196 0
M  V30 9842 H 908.555 0.446196 -0.605321 0
M  V30 9843 H 910.526 1.00977 -2.80796 0
M  V30 9844 C 909.275 2.68254 -2.21213 0
M  V30 9845 H 908.598 2.5609 -3.07014 0
M  V30 9846 H 910.038 3.42707 -2.49656 0
M  V30 9847 C 908.497 3.20884 -1.02642 0
M  V30 9848 O 909.027 4.00783 -0.271292 0
M  V30 9849 N 907.233 2.7883 -0.818682 0
M  V30 9850 H 906.78 2.13966 -1.43444 0
M  V30 9851 H 906.738 3.14388 -0.0269989 0
M  V30 9852 N 910.51 1.48831 0.518367 0
M  V30 9853 C 911.42 1.6692 1.64848 0
M  V30 9854 C 912.436 0.551711 1.65022 0
M  V30 9855 O 913.612 0.824251 1.83761 0
M  V30 9856 C 910.677 1.71559 3.01278 0
M  V30 9857 C 909.738 2.9502 3.11868 0
M  V30 9858 C 908.971 2.99428 4.4179 0
M  V30 9859 O 909.194 2.11914 5.29574 0
M  V30 9860 O 908.128 3.91719 4.5699 0
M  V30 9861 H 911.954 2.62623 1.52521 0
M  V30 9862 H 909.539 1.32368 0.692749 0
M  V30 9863 H 911.421 1.77064 3.82396 0
M  V30 9864 H 910.096 0.790316 3.13904 0
M  V30 9865 H 909.003 2.95042 2.30003 0
M  V30 9866 H 910.336 3.8697 3.04163 0
M  V30 9867 N 911.988 -0.768124 1.37614 0
M  V30 9868 C 913.399 -1.34462 1.29525 0
M  V30 9869 C 913.75 -1.96121 -0.0555168 0
M  V30 9870 O 912.875 -1.94069 -0.957406 0
M  V30 9871 C 913.47 -2.44475 2.34558 0
M  V30 9872 C 912.029 -2.97883 2.30093 0
M  V30 9873 C 911.176 -1.71131 2.18196 0
M  V30 9874 H 914.127 -0.568103 1.48183 0
M  V30 9875 H 914.148 -3.24047 1.99434 0
M  V30 9876 H 913.66 -1.99568 3.32858 0
M  V30 9877 H 911.761 -3.47156 1.35328 0
M  V30 9878 H 911.874 -3.53251 3.23652 0
M  V30 9879 H 910.238 -1.94197 1.64802 0
M  V30 9880 H 911.021 -1.28323 3.18415 0
M  V30 9881 N 913.466 -1.22244 -0.994698 0
M  V30 9882 C 914.743 -0.954459 -1.70732 0
M  V30 9883 C 915.123 0.530945 -2.04314 0
M  V30 9884 O 914.471 1.49851 -1.72502 0
M  V30 9885 C 914.681 -1.85016 -2.95922 0
M  V30 9886 C 916.029 -2.10517 -3.68738 0
M  V30 9887 O 917.053 -1.82449 -3.05926 0
M  V30 9888 O 915.912 -2.58044 -4.81742 0
M  V30 9889 H 913.006 -0.35879 -0.745116 0
M  V30 9890 H 915.552 -1.33221 -1.0512 0
M  V30 9891 H 914.324 -2.85498 -2.67594 0
M  V30 9892 H 913.947 -1.47388 -3.69273 0
M  V30 9893 N 914.944 1.19125 -1.03184 0
M  V30 9894 C 916.191 1.88883 -0.730029 0
M  V30 9895 C 916.519 1.79807 0.741602 0
M  V30 9896 O 915.774 1.18686 1.55603 0
M  V30 9897 C 916.073 3.39052 -1.13041 0
M  V30 9898 C 915.739 3.68332 -2.60082 0
M  V30 9899 C 914.401 3.76033 -3.00254 0
M  V30 9900 C 916.753 3.81423 -3.55199 0
M  V30 9901 C 914.081 3.94296 -4.34451 0
M  V30 9902 C 916.433 4.012 -4.89103 0
M  V30 9903 C 915.097 4.07134 -5.28959 0
M  V30 9904 H 914.367 0.691172 -0.267137 0
M  V30 9905 H 917.014 1.41053 -1.29523 0
M  V30 9906 H 915.319 3.88801 -0.48386 0
M  V30 9907 H 917.016 3.91351 -0.874368 0
M  V30 9908 H 913.606 3.62948 -2.27961 0
M  V30 9909 H 917.79 3.74814 -3.25313 0
M  V30 9910 H 913.046 3.97131 -4.64863 0
M  V30 9911 H 917.22 4.10271 -5.62717 0
M  V30 9912 H 914.847 4.21038 -6.32954 0
M  V30 9913 N 916.422 0.810101 1.35185 0
M  V30 9914 C 917.354 0.180581 2.28488 0
M  V30 9915 C 918.367 -0.622154 1.50443 0
M  V30 9916 O 919.556 -0.453938 1.72632 0
M  V30 9917 C 916.656 -0.766447 3.30119 0
M  V30 9918 C 915.829 -0.00932028 4.37399 0
M  V30 9919 C 914.888 -0.875354 5.18868 0
M  V30 9920 O 913.914 -0.325012 5.68271 0
M  V30 9921 N 915.116 -2.19695 5.37321 0
M  V30 9922 H 917.881 0.98212 2.83151 0
M  V30 9923 H 915.442 0.665879 1.47573 0
M  V30 9924 H 917.434 -1.35012 3.81515 0
M  V30 9925 H 916.004 -1.46878 2.75945 0
M  V30 9926 H 915.224 0.755585 3.86891 0
M  V30 9927 H 916.512 0.512352 5.06214 0
M  V30 9928 H 915.91 -2.66797 4.98834 0
M  V30 9929 H 914.467 -2.72978 5.91884 0
M  V30 9930 N 917.9 -1.47166 0.563914 0
M  V30 9931 C 919.13 -2.06546 0.0473599 0
M  V30 9932 C 919.538 -1.41607 -1.25476 0
M  V30 9933 O 918.881 -0.50894 -1.76509 0
M  V30 9934 C 918.943 -3.58873 -0.212249 0
M  V30 9935 C 918.607 -4.45893 1.00144 0
M  V30 9936 C 919.604 -4.83594 1.90873 0
M  V30 9937 C 917.289 -4.87309 1.218 0
M  V30 9938 C 919.283 -5.61519 3.01621 0
M  V30 9939 C 916.97 -5.64997 2.32856 0
M  V30 9940 C 917.968 -6.02013 3.22597 0
M  V30 9941 O 917.656 -6.78135 4.31727 0
M  V30 9942 H 917.388 -0.674441 0.0458823 0
M  V30 9943 H 919.942 -1.9006 0.778865 0
M  V30 9944 H 918.172 -3.73596 -0.998145 0
M  V30 9945 H 919.861 -4.00248 -0.675005 0
M  V30 9946 H 920.627 -4.52192 1.7535 0
M  V30 9947 H 916.506 -4.57959 0.528641 0
M  V30 9948 H 920.05 -5.90331 3.71693 0
M  V30 9949 H 915.947 -5.95813 2.48349 0
M  V30 9950 H 916.715 -6.96537 4.29859 0
M  V30 9951 N 919.378 -0.300708 -1.54705 0
M  V30 9952 C 920.627 0.309428 -1.99312 0
M  V30 9953 C 920.94 1.55027 -1.19272 0
M  V30 9954 O 922.146 2.23498 -1.54146 0
M  V30 9955 C 920.602 0.601856 -3.54832 0
M  V30 9956 C 920.21 -0.620636 -4.4368 0
M  V30 9957 C 921.954 1.1732 -4.07966 0
M  V30 9958 C 919.861 -0.301376 -5.90632 0
M  V30 9959 H 918.791 0.119395 -0.744487 0
M  V30 9960 H 921.442 -0.409368 -1.78875 0
M  V30 9961 H 919.824 1.38024 -3.71168 0
M  V30 9962 H 920.998 -1.39685 -4.39118 0
M  V30 9963 H 919.313 -1.1106 -4.01316 0
M  V30 9964 H 921.91 1.42631 -5.15326 0
M  V30 9965 H 922.253 2.11537 -3.5855 0
M  V30 9966 H 922.786 0.456534 -3.95172 0
M  V30 9967 H 919.525 -1.21209 -6.44196 0
M  V30 9968 H 919.045 0.437574 -5.98202 0
M  V30 9969 H 920.724 0.097164 -6.46927 0
M  V30 9970 N 920.856 1.57574 -0.0284266 0
M  V30 9971 C 922.267 1.79585 0.510502 0
M  V30 9972 C 922.618 0.938625 1.72291 0
M  V30 9973 O 921.743 0.14884 2.15888 0
M  V30 9974 C 922.338 3.25703 0.932912 0
M  V30 9975 C 920.897 3.48711 1.41696 0
M  V30 9976 C 920.044 2.74665 0.381356 0
M  V30 9977 H 922.995 1.56647 -0.254464 0
M  V30 9978 H 923.016 3.35376 1.79731 0
M  V30 9979 H 922.528 3.88067 0.0503036 0
M  V30 9980 H 920.629 2.91597 2.31952 0
M  V30 9981 H 920.742 4.57423 1.42481 0
M  V30 9982 H 919.106 2.40123 0.8493 0
M  V30 9983 H 919.889 3.39745 -0.492775 0
M  V30 9984 N 922.334 -0.244713 1.55689 0
M  V30 9985 C 923.244 -1.32447 1.93636 0
M  V30 9986 C 924.26 -1.52541 0.837086 0
M  V30 9987 O 925.436 -1.66121 1.13867 0
M  V30 9988 C 922.501 -2.65864 2.22525 0
M  V30 9989 C 921.562 -2.54273 3.45896 0
M  V30 9990 C 920.795 -3.81327 3.73397 0
M  V30 9991 O 921.018 -4.83307 3.02936 0
M  V30 9992 O 919.952 -3.79829 4.66919 0
M  V30 9993 H 923.778 -1.03255 2.85608 0
M  V30 9994 H 921.363 -0.445652 1.42598 0
M  V30 9995 H 923.245 -3.447 2.42404 0
M  V30 9996 H 921.92 -2.94784 1.33731 0
M  V30 9997 H 920.827 -1.73715 3.31321 0
M  V30 9998 H 922.16 -2.30297 4.34999 0
M  V30 9999 N 923.813 -1.49104 -0.510467 0
M  V30 10000 C 924.76 -1.65074 -1.61305 0
M  V30 10001 C 925.73 -0.492362 -1.58635 0
M  V30 10002 O 926.915 -0.718241 -1.76765 0
M  V30 10003 C 924.055 -1.71457 -2.99493 0
M  V30 10004 C 923.168 -2.98536 -3.12251 0
M  V30 10005 C 922.303 -2.95957 -4.41116 0
M  V30 10006 C 921.342 -4.17655 -4.47471 0
M  V30 10007 N 920.479 -4.13041 -5.67751 0
M  V30 10008 H 925.319 -2.59222 -1.46996 0
M  V30 10009 H 922.856 -1.28535 -0.715346 0
M  V30 10010 H 924.814 -1.7314 -3.79577 0
M  V30 10011 H 923.444 -0.807834 -3.12528 0
M  V30 10012 H 922.496 -3.06509 -2.25292 0
M  V30 10013 H 923.808 -3.88527 -3.12807 0
M  V30 10014 H 922.962 -2.96149 -5.2951 0
M  V30 10015 H 921.701 -2.03728 -4.4311 0
M  V30 10016 H 920.706 -4.17717 -3.57481 0
M  V30 10017 H 921.931 -5.11066 -4.472 0
M  V30 10018 H 919.877 -3.23643 -5.70606 0
M  V30 10019 H 919.794 -4.96757 -5.69884 0
M  V30 10020 H 921.062 -4.17322 -6.58379 0
M  V30 10021 N 925.291 0.760815 -1.38019 0
M  V30 10022 C 926.254 1.85604 -1.34476 0
M  V30 10023 C 927.254 1.58897 -0.24666 0
M  V30 10024 O 928.444 1.66776 -0.50314 0
M  V30 10025 C 925.576 3.22945 -1.09176 0
M  V30 10026 H 926.769 1.90155 -2.31908 0
M  V30 10027 H 924.322 0.961746 -1.23208 0
M  V30 10028 H 925.057 3.24066 -0.123216 0
M  V30 10029 H 924.842 3.43723 -1.88672 0
M  V30 10030 H 926.332 4.03022 -1.09375 0
M  V30 10031 N 926.769 1.22769 0.988202 0
M  V30 10032 C 928.18 1.0512 1.54294 0
M  V30 10033 C 928.531 -0.383904 1.92407 0
M  V30 10034 O 927.656 -1.26955 1.75246 0
M  V30 10035 C 928.251 1.90198 2.80375 0
M  V30 10036 C 926.81 1.76831 3.32276 0
M  V30 10037 C 925.957 1.86377 2.05326 0
M  V30 10038 H 928.908 1.36546 0.808758 0
M  V30 10039 H 928.929 1.42216 3.52923 0
M  V30 10040 H 928.441 2.9464 2.52605 0
M  V30 10041 H 926.542 0.751412 3.64945 0
M  V30 10042 H 926.655 2.59771 4.02562 0
M  V30 10043 H 925.019 1.2987 2.19103 0
M  V30 10044 H 925.802 2.9236 1.79946 0
M  V30 10045 N 928.247 -1.18576 1.03814 0
M  V30 10046 C 929.177 -2.24334 0.647795 0
M  V30 10047 C 930.158 -1.66508 -0.34774 0
M  V30 10048 O 931.343 -1.92852 -0.228401 0
M  V30 10049 C 928.473 -3.47299 0.00734922 0
M  V30 10050 C 927.427 -4.17859 0.926152 0
M  V30 10051 C 926.753 -5.34489 0.150317 0
M  V30 10052 C 928.053 -4.71632 2.24411 0
M  V30 10053 H 929.747 -2.57241 1.53191 0
M  V30 10054 H 927.293 -1.23649 0.738028 0
M  V30 10055 H 929.246 -4.20486 -0.277434 0
M  V30 10056 H 927.97 -3.13619 -0.911626 0
M  V30 10057 H 926.629 -3.46567 1.19528 0
M  V30 10058 H 926.277 -4.97056 -0.770985 0
M  V30 10059 H 925.977 -5.82633 0.762407 0
M  V30 10060 H 927.501 -6.10467 -0.127508 0
M  V30 10061 H 928.915 -5.36526 2.02021 0
M  V30 10062 H 927.312 -5.303 2.80894 0
M  V30 10063 H 928.382 -3.89192 2.89236 0
M  V30 10064 N 929.725 -0.817259 -1.34754 0
M  V30 10065 C 931.002 -0.325468 -1.92873 0
M  V30 10066 C 931.382 1.18643 -1.74606 0
M  V30 10067 O 930.73 1.9909 -1.1214 0
M  V30 10068 C 930.94 -0.74858 -3.40877 0
M  V30 10069 C 932.288 -0.744165 -4.18028 0
M  V30 10070 O 933.312 -0.690799 -3.49437 0
M  V30 10071 O 932.171 -0.812207 -5.40431 0
M  V30 10072 H 929.265 -0.0876397 -0.822343 0
M  V30 10073 H 931.811 -0.901671 -1.43764 0
M  V30 10074 H 930.583 -1.79017 -3.47949 0
M  V30 10075 H 930.206 -0.147764 -3.97325 0
M  V30 10076 N 931.203 1.46865 -0.571711 0
M  V30 10077 C 932.428 2.07323 -0.0564655 0
M  V30 10078 C 932.853 1.41938 1.23431 0
M  V30 10079 O 932.211 0.499334 1.74288 0
M  V30 10080 C 932.259 3.6044 0.107339 0
M  V30 10081 O 931.363 3.95558 1.1665 0
M  V30 10082 H 930.704 0.661475 -0.0578465 0
M  V30 10083 H 933.234 1.88669 -0.791524 0
M  V30 10084 H 933.244 4.06767 0.316987 0
M  V30 10085 H 931.919 4.07425 -0.835348 0
M  V30 10086 H 930.496 3.60957 0.936189 0
M  V30 10087 N 932.681 0.308908 1.54543 0
M  V30 10088 C 933.927 -0.298478 2.00592 0
M  V30 10089 C 934.26 -1.52929 1.19692 0
M  V30 10090 O 933.535 -1.9254 0.27542 0
M  V30 10091 C 933.818 -0.647218 3.54236 0
M  V30 10092 C 933.671 0.593284 4.4587 0
M  V30 10093 C 934.99 -1.47064 4.14801 0
M  V30 10094 H 932.109 -0.107012 0.72919 0
M  V30 10095 H 934.751 0.422578 1.85241 0
M  V30 10096 H 932.901 -1.26153 3.67447 0
M  V30 10097 H 934.573 1.2317 4.44552 0
M  V30 10098 H 932.816 1.22501 4.16144 0
M  V30 10099 H 933.487 0.305018 5.51157 0
M  V30 10100 H 935.963 -0.951511 4.05075 0
M  V30 10101 H 934.839 -1.68343 5.22448 0
M  V30 10102 H 935.1 -2.4623 3.67183 0
M  V30 10103 N 934.159 -1.57557 0.0367827 0
M  V30 10104 C 935.109 -2.07182 -0.95183 0
M  V30 10105 C 936.093 -0.973921 -1.28076 0
M  V30 10106 O 937.285 -1.23741 -1.26559 0
M  V30 10107 C 934.414 -2.60869 -2.23164 0
M  V30 10108 C 933.5 -3.77602 -1.93074 0
M  V30 10109 N 933.891 -4.87923 -1.33283 0
M  V30 10110 C 932.189 -3.86234 -2.23023 0
M  V30 10111 C 932.89 -5.69083 -1.20498 0
M  V30 10112 N 931.866 -5.16233 -1.70306 0
M  V30 10113 H 935.668 -2.89876 -0.484647 0
M  V30 10114 H 933.182 -1.61528 -0.16804 0
M  V30 10115 H 935.179 -2.94716 -2.9487 0
M  V30 10116 H 933.839 -1.79607 -2.70502 0
M  V30 10117 H 934.85 -5.08018 -1.00686 0
M  V30 10118 H 931.527 -3.15891 -2.72981 0
M  V30 10119 H 932.917 -6.6779 -0.741999 0
M  V30 10120 N 935.637 0.236453 -1.55816 0
M  V30 10121 C 936.569 1.31602 -1.87653 0
M  V30 10122 C 937.582 1.43782 -0.763584 0
M  V30 10123 O 938.771 1.44945 -1.04178 0
M  V30 10124 C 935.871 2.69342 -2.05689 0
M  V30 10125 C 935.044 2.79298 -3.36617 0
M  V30 10126 C 934.103 3.97952 -3.44268 0
M  V30 10127 O 933.129 3.86989 -4.17406 0
M  V30 10128 N 934.331 5.11594 -2.74321 0
M  V30 10129 H 937.096 1.04623 -2.80845 0
M  V30 10130 H 934.657 0.426534 -1.5618 0
M  V30 10131 H 936.649 3.47074 -2.08138 0
M  V30 10132 H 935.219 2.88984 -1.19192 0
M  V30 10133 H 934.439 1.8816 -3.46395 0
M  V30 10134 H 935.727 2.82908 -4.22895 0
M  V30 10135 H 935.125 5.23394 -2.14651 0
M  V30 10136 H 933.682 5.87422 -2.8245 0
M  V30 10137 N 937.115 1.49373 0.502552 0
M  V30 10138 C 938.392 1.49282 1.26389 0
M  V30 10139 C 938.772 0.219674 2.09954 0
M  V30 10140 O 938.12 -0.797991 2.14113 0
M  V30 10141 C 938.33 2.77083 2.12194 0
M  V30 10142 C 939.678 3.26511 2.71433 0
M  V30 10143 O 940.702 2.78189 2.22462 0
M  V30 10144 O 939.561 4.10665 3.60578 0
M  V30 10145 H 936.655 0.597415 0.57186 0
M  V30 10146 H 939.201 1.61634 0.516951 0
M  V30 10147 H 937.973 3.61237 1.50411 0
M  V30 10148 H 937.596 2.67583 2.94084 0
M  V30 10149 N 938.594 -0.753485 1.38421 0
M  V30 10150 C 939.871 -1.50318 1.25155 0
M  V30 10151 C 940.251 -2.10588 -0.147003 0
M  V30 10152 O 939.599 -1.97071 -1.15651 0
M  V30 10153 C 939.809 -2.56946 2.36177 0
M  V30 10154 C 941.157 -3.23846 2.74607 0
M  V30 10155 O 942.181 -2.67251 2.3549 0
M  V30 10156 O 941.04 -4.2621 3.42064 0
M  V30 10157 H 938.134 -0.666624 0.48943 0
M  V30 10158 H 940.68 -0.788887 1.50249 0
M  V30 10159 H 939.452 -2.1066 3.29754 0
M  V30 10160 H 939.075 -3.35956 2.12648 0
M  V30 10161 N 940.072 -1.23292 -0.981677 0
M  V30 10162 C 941.022 -0.980133 -2.05858 0
M  V30 10163 C 942.006 0.0734044 -1.60732 0
M  V30 10164 O 943.198 -0.138561 -1.76457 0
M  V30 10165 C 940.327 -0.571879 -3.38503 0
M  V30 10166 C 939.413 -1.66075 -3.90231 0
M  V30 10167 N 939.804 -2.89077 -4.15052 0
M  V30 10168 C 938.102 -1.53503 -4.18751 0
M  V30 10169 C 938.803 -3.59567 -4.5726 0
M  V30 10170 N 937.779 -2.87076 -4.61615 0
M  V30 10171 H 941.581 -1.91432 -2.23005 0
M  V30 10172 H 939.095 -1.13211 -1.16434 0
M  V30 10173 H 941.092 -0.372059 -4.15236 0
M  V30 10174 H 939.752 0.355278 -3.2275 0
M  V30 10175 H 940.763 -3.25395 -4.02912 0
M  V30 10176 H 937.44 -0.674891 -4.12009 0
M  V30 10177 H 938.83 -4.65007 -4.84993 0
M  V30 10178 N 941.55 1.18024 -1.04442 0
M  V30 10179 C 942.775 1.92573 -0.770097 0
M  V30 10180 C 943.2 1.75871 0.667169 0
M  V30 10181 O 942.558 1.07136 1.46258 0
M  V30 10182 C 942.606 3.41904 -1.14602 0
M  V30 10183 O 941.71 4.11491 -0.273712 0
M  V30 10184 H 941.051 0.600636 -0.283076 0
M  V30 10185 H 943.581 1.49645 -1.39526 0
M  V30 10186 H 943.591 3.92623 -1.10956 0
M  V30 10187 H 942.266 3.53382 -2.19304 0
M  V30 10188 H 940.843 3.71059 -0.370124 0
M  V30 10189 N 943.028 0.824394 1.34319 0
M  V30 10190 C 943.958 0.262077 2.32025 0
M  V30 10191 C 944.939 -0.622277 1.58309 0
M  V30 10192 O 946.124 -0.548848 1.86283 0
M  V30 10193 C 943.254 -0.57567 3.42496 0
M  V30 10194 C 942.208 0.21167 4.27476 0
M  V30 10195 C 941.534 -0.748913 5.29429 0
M  V30 10196 C 942.834 1.42068 5.02607 0
M  V30 10197 H 944.528 1.07842 2.79304 0
M  V30 10198 H 942.074 0.520022 1.34282 0
M  V30 10199 H 944.027 -0.979251 4.09864 0
M  V30 10200 H 942.751 -1.42508 2.93869 0
M  V30 10201 H 941.41 0.596636 3.61712 0
M  V30 10202 H 941.058 -1.59432 4.77064 0
M  V30 10203 H 940.758 -0.226313 5.87164 0
M  V30 10204 H 942.282 -1.15032 5.99667 0
M  V30 10205 H 943.696 1.09103 5.62823 0
M  V30 10206 H 942.093 1.87903 5.69923 0
M  V30 10207 H 943.163 2.1981 4.32217 0
M  V30 10208 N 944.506 -1.46559 0.579492 0
M  V30 10209 C 945.922 -1.57771 0.240921 0
M  V30 10210 C 946.122 -1.57505 -1.25676 0
M  V30 10211 O 945.178 -1.4903 -2.03829 0
M  V30 10212 C 946.491 -2.87311 0.887285 0
M  V30 10213 C 948.039 -3.00937 0.860576 0
M  V30 10214 C 948.514 -4.33208 1.48642 0
M  V30 10215 N 950.005 -4.39899 1.45062 0
M  V30 10216 C 950.74 -5.40856 1.90428 0
M  V30 10217 N 950.236 -6.48503 2.43752 0
M  V30 10218 N 952.029 -5.32037 1.81364 0
M  V30 10219 H 944.18 -1.44976 1.55228 0
M  V30 10220 H 946.443 -0.691354 0.648639 0
M  V30 10221 H 946.149 -2.93307 1.94071 0
M  V30 10222 H 946.023 -3.75141 0.393577 0
M  V30 10223 H 948.41 -2.94524 -0.184223 0
M  V30 10224 H 948.491 -2.14591 1.39227 0
M  V30 10225 H 948.135 -4.40378 2.5304 0
M  V30 10226 H 948.065 -5.18323 0.92998 0
M  V30 10227 H 950.556 -3.62706 1.0608 0
M  V30 10228 H 950.869 -7.21744 2.76234 0
M  V30 10229 H 949.214 -6.49332 2.47776 0
M  V30 10230 H 952.405 -4.46841 1.39465 0
M  V30 10231 H 952.578 -6.10573 2.17035 0
M  V30 10232 N 945.984 -0.3171 -1.54377 0
M  V30 10233 C 946.894 0.560867 -2.27797 0
M  V30 10234 C 947.91 1.13473 -1.31908 0
M  V30 10235 O 949.086 1.15608 -1.64914 0
M  V30 10236 C 946.151 1.70886 -3.0166 0
M  V30 10237 C 945.212 1.16745 -4.13121 0
M  V30 10238 C 944.445 2.26073 -4.83453 0
M  V30 10239 O 944.668 3.46292 -4.53252 0
M  V30 10240 O 943.602 1.91856 -5.70504 0
M  V30 10241 H 947.428 -0.035193 -3.0368 0
M  V30 10242 H 945.013 -0.0830062 -1.49169 0
M  V30 10243 H 946.895 2.37736 -3.47936 0
M  V30 10244 H 945.57 2.29122 -2.28658 0
M  V30 10245 H 944.477 0.464224 -3.71209 0
M  V30 10246 H 945.81 0.630307 -4.88147 0
M  V30 10247 N 947.462 1.57535 -0.0451378 0
M  V30 10248 C 948.687 1.97172 0.64326 0
M  V30 10249 C 949.112 0.922266 1.63939 0
M  V30 10250 O 948.47 -0.115155 1.80934 0
M  V30 10251 C 948.518 3.35889 1.3119 0
M  V30 10252 O 947.622 3.33387 2.42748 0
M  V30 10253 H 946.963 0.642469 0.167719 0
M  V30 10254 H 949.493 2.04295 -0.111747 0
M  V30 10255 H 949.503 3.72481 1.66499 0
M  V30 10256 H 948.178 4.1181 0.581823 0
M  V30 10257 H 946.755 3.08533 2.09432 0
M  V30 10258 N 948.94 -0.228186 1.55939 0
M  V30 10259 C 949.873 -1.30971 1.86874 0
M  V30 10260 C 950.851 -1.45517 0.725496 0
M  V30 10261 O 952.035 -1.61436 0.973181 0
M  V30 10262 C 949.162 -2.68089 2.06992 0
M  V30 10263 C 948.208 -2.70594 3.29669 0
M  V30 10264 S 949.041 -2.25325 4.85787 0
M  V30 10265 C 950.197 -3.64331 5.08934 0
M  V30 10266 H 950.43 -1.04536 2.78315 0
M  V30 10267 H 947.963 -0.430103 1.48288 0
M  V30 10268 H 949.921 -3.47033 2.19267 0
M  V30 10269 H 948.582 -2.91752 1.16359 0
M  V30 10270 H 947.775 -3.71338 3.4077 0
M  V30 10271 H 947.377 -1.99708 3.16216 0
M  V30 10272 H 949.669 -4.59972 4.97425 0
M  V30 10273 H 950.612 -3.58151 6.10847 0
M  V30 10274 H 951.02 -3.57711 4.36695 0
M  V30 10275 N 950.418 -1.49637 -0.494624 0
M  V30 10276 C 951.667 -1.58691 -1.24499 0
M  V30 10277 C 951.98 -0.281763 -1.9356 0
M  V30 10278 O 953.186 -0.250925 -2.70338 0
M  V30 10279 C 951.642 -2.8002 -2.26091 0
M  V30 10280 C 951.25 -4.17318 -1.6294 0
M  V30 10281 C 952.994 -2.98407 -3.01916 0
M  V30 10282 C 950.901 -5.29862 -2.62679 0
M  V30 10283 H 949.831 -0.590888 -0.468367 0
M  V30 10284 H 952.482 -1.76034 -0.518112 0
M  V30 10285 H 950.864 -2.56185 -3.01969 0
M  V30 10286 H 952.038 -4.51315 -0.930108 0
M  V30 10287 H 950.353 -4.04342 -0.994819 0
M  V30 10288 H 952.95 -3.79658 -3.76516 0
M  V30 10289 H 953.293 -2.09214 -3.5991 0
M  V30 10290 H 953.826 -3.22312 -2.33152 0
M  V30 10291 H 950.565 -6.21134 -2.09458 0
M  V30 10292 H 950.085 -5.00311 -3.3083 0
M  V30 10293 H 951.764 -5.59461 -3.2498 0
M  V30 10294 N 951.896 0.746133 -1.38819 0
M  V30 10295 C 952.828 1.86991 -1.3254 0
M  V30 10296 C 953.841 1.61077 -0.236216 0
M  V30 10297 O 955.03 1.71518 -0.494341 0
M  V30 10298 C 952.13 3.22786 -1.03258 0
M  V30 10299 C 951.303 3.76145 -2.23234 0
M  V30 10300 C 950.362 4.90474 -1.90581 0
M  V30 10301 O 949.388 5.04717 -2.63153 0
M  V30 10302 N 950.59 5.74015 -0.86525 0
M  V30 10303 H 953.355 1.92885 -2.2938 0
M  V30 10304 H 950.916 0.926392 -1.32776 0
M  V30 10305 H 952.908 3.96824 -0.794533 0
M  V30 10306 H 951.478 3.12231 -0.151895 0
M  V30 10307 H 950.698 2.93587 -2.63059 0
M  V30 10308 H 951.986 4.08528 -3.03285 0
M  V30 10309 H 951.384 5.65086 -0.263577 0
M  V30 10310 H 949.941 6.48168 -0.687087 0
M  V30 10311 N 953.375 1.23811 0.975125 0
M  V30 10312 C 954.305 1.04846 2.08638 0
M  V30 10313 C 955.286 -0.0362859 1.70061 0
M  V30 10314 O 956.471 0.12937 1.93769 0
M  V30 10315 C 953.601 0.644534 3.41267 0
M  V30 10316 C 952.555 1.67722 3.93768 0
M  V30 10317 C 951.881 1.12857 5.22654 0
M  V30 10318 C 953.181 3.07147 4.22443 0
M  V30 10319 H 954.875 1.97795 2.24761 0
M  V30 10320 H 952.421 0.952397 1.08006 0
M  V30 10321 H 954.374 0.498887 4.18436 0
M  V30 10322 H 953.098 -0.320641 3.25022 0
M  V30 10323 H 951.757 1.81095 3.18748 0
M  V30 10324 H 951.405 0.154227 5.02764 0
M  V30 10325 H 951.105 1.81862 5.58749 0
M  V30 10326 H 952.629 0.994891 6.0244 0
M  V30 10327 H 954.043 2.97045 4.90344 0
M  V30 10328 H 952.44 3.73437 4.6975 0
M  V30 10329 H 953.51 3.55743 3.29507 0
M  V30 10330 N 954.853 -1.17469 1.05066 0
M  V30 10331 C 955.816 -2.19648 0.654793 0
M  V30 10332 C 956.816 -1.58107 -0.293063 0
M  V30 10333 O 958.006 -1.74029 -0.077106 0
M  V30 10334 C 955.138 -3.40878 -0.0384437 0
M  V30 10335 H 956.331 -2.56184 1.55915 0
M  V30 10336 H 953.884 -1.31528 0.844396 0
M  V30 10337 H 954.619 -3.09885 -0.956133 0
M  V30 10338 H 954.404 -3.86792 0.642961 0
M  V30 10339 H 955.894 -4.1651 -0.301568 0
M  V30 10340 N 956.331 -0.831506 -1.3388 0
M  V30 10341 C 957.241 -0.261688 -2.33136 0
M  V30 10342 C 958.257 0.608429 -1.63016 0
M  V30 10343 O 959.433 0.514297 -1.94723 0
M  V30 10344 C 956.498 0.559957 -3.42148 0
M  V30 10345 C 955.559 -0.333569 -4.28002 0
M  V30 10346 C 954.792 0.448956 -5.31808 0
M  V30 10347 O 955.015 1.6814 -5.45055 0
M  V30 10348 O 953.949 -0.173197 -6.01651 0
M  V30 10349 H 957.775 -1.08343 -2.83717 0
M  V30 10350 H 955.36 -0.593849 -1.3709 0
M  V30 10351 H 957.242 1.02712 -4.08691 0
M  V30 10352 H 955.917 1.35888 -2.93796 0
M  V30 10353 H 954.824 -0.848416 -3.64352 0
M  V30 10354 H 956.157 -1.09707 -4.79818 0
M  V30 10355 N 957.809 1.4625 -0.587256 0
M  V30 10356 C 959.057 2.01963 -0.0744273 0
M  V30 10357 C 959.378 1.46065 1.29189 0
M  V30 10358 O 958.648 0.647077 1.84905 0
M  V30 10359 H 957.228 0.746597 -0.0245236 0
M  V30 10360 H 959.89 1.79299 -0.764063 0
M  V30 10361 H 958.986 3.12099 -0.00884894 0
M  V30 10362 N 959.287 0.325282 1.54207 0
M  V30 10363 C 960.217 -0.532574 2.27345 0
M  V30 10364 C 961.198 -1.11791 1.28206 0
M  V30 10365 O 962.383 -1.14272 1.57021 0
M  V30 10366 C 959.513 -1.69274 3.03255 0
M  V30 10367 C 958.467 -1.23662 4.09746 0
M  V30 10368 C 957.793 -2.48386 4.73506 0
M  V30 10369 C 959.093 -0.350244 5.21124 0
M  V30 10370 H 960.787 0.0775108 2.993 0
M  V30 10371 H 958.333 0.0387193 1.43948 0
M  V30 10372 H 960.286 -2.29917 3.53152 0
M  V30 10373 H 959.01 -2.32944 2.28921 0
M  V30 10374 H 957.669 -0.653106 3.60735 0
M  V30 10375 H 957.317 -3.10424 3.95786 0
M  V30 10376 H 957.017 -2.18558 5.45441 0
M  V30 10377 H 958.541 -3.09789 5.26178 0
M  V30 10378 H 959.955 -0.863011 5.66767 0
M  V30 10379 H 958.352 -0.14466 5.99926 0
M  V30 10380 H 959.422 0.618457 4.8094 0
M  V30 10381 N 960.765 -1.57509 0.0534917 0
M  V30 10382 C 962.014 -1.91959 -0.619244 0
M  V30 10383 C 962.327 -0.933882 -1.71866 0
M  V30 10384 O 963.533 -1.17052 -2.44972 0
M  V30 10385 C 961.989 -3.40938 -1.15278 0
M  V30 10386 C 961.597 -4.47919 -0.085348 0
M  V30 10387 C 963.341 -3.84419 -1.80063 0
M  V30 10388 C 961.248 -5.88014 -0.631897 0
M  V30 10389 H 960.178 -0.71642 -0.235072 0
M  V30 10390 H 962.829 -1.83089 0.122758 0
M  V30 10391 H 961.211 -3.44821 -1.94717 0
M  V30 10392 H 962.385 -4.55629 0.688374 0
M  V30 10393 H 960.7 -4.13793 0.465178 0
M  V30 10394 H 963.297 -4.86457 -2.21954 0
M  V30 10395 H 963.64 -3.20791 -2.65328 0
M  V30 10396 H 964.173 -3.83062 -1.07275 0
M  V30 10397 H 960.912 -6.55244 0.183175 0
M  V30 10398 H 960.432 -5.83861 -1.37355 0
M  V30 10399 H 962.111 -6.37336 -1.11407 0
M  V30 10400 N 962.243 0.219913 -1.56058 0
M  V30 10401 C 963.471 0.960915 -1.83232 0
M  V30 10402 C 963.886 1.77878 -0.632828 0
M  V30 10403 O 963.243 1.78093 0.398624 0
M  V30 10404 C 963.294 1.87716 -3.08942 0
M  V30 10405 O 963.015 1.09235 -4.24263 0
M  V30 10406 C 964.516 2.73192 -3.49115 0
M  V30 10407 H 961.736 0.281546 -0.609075 0
M  V30 10408 H 964.28 0.234648 -2.03149 0
M  V30 10409 H 962.435 2.55736 -2.90995 0
M  V30 10410 H 962.849 1.71446 -4.95688 0
M  V30 10411 H 964.323 3.33181 -4.40107 0
M  V30 10412 H 964.8 3.45668 -2.70943 0
M  V30 10413 H 965.406 2.10583 -3.69506 0
M  V30 10414 N 963.721 1.49897 0.486681 0
M  V30 10415 C 964.969 1.59789 1.23742 0
M  V30 10416 C 965.29 0.293056 1.92785 0
M  V30 10417 O 964.56 -0.688534 1.83401 0
M  V30 10418 H 963.14 0.588775 0.459731 0
M  V30 10419 H 965.802 1.86597 0.562808 0
M  V30 10420 H 964.898 2.40121 1.9937 0
M  V30 10421 N 965.199 -0.738761 1.39212 0
M  V30 10422 C 966.427 -1.52801 1.39497 0
M  V30 10423 C 966.842 -1.88797 -0.0114917 0
M  V30 10424 O 966.199 -1.53835 -0.981887 0
M  V30 10425 C 966.25 -2.81793 2.2644 0
M  V30 10426 O 965.971 -2.47328 3.61608 0
M  V30 10427 C 967.472 -3.75844 2.35067 0
M  V30 10428 H 964.692 -0.472322 0.476606 0
M  V30 10429 H 967.236 -0.913153 1.8298 0
M  V30 10430 H 965.391 -3.3962 1.8638 0
M  V30 10431 H 965.805 -3.30162 4.07545 0
M  V30 10432 H 967.279 -4.6326 3.00157 0
M  V30 10433 H 967.756 -4.17329 1.3687 0
M  V30 10434 H 968.362 -3.23937 2.75581 0
M  V30 10435 N 966.677 -1.24326 -0.968545 0
M  V30 10436 C 967.923 -1.08406 -1.71394 0
M  V30 10437 C 968.256 0.376353 -1.90518 0
M  V30 10438 O 967.531 1.27816 -1.46606 0
M  V30 10439 C 967.814 -1.82344 -3.1052 0
M  V30 10440 C 967.667 -3.3613 -2.98893 0
M  V30 10441 C 968.986 -1.59545 -4.10163 0
M  V30 10442 H 966.105 -0.395205 -0.622079 0
M  V30 10443 H 968.747 -1.52983 -1.12677 0
M  V30 10444 H 966.897 -1.44452 -3.60646 0
M  V30 10445 H 968.569 -3.83614 -2.56199 0
M  V30 10446 H 966.812 -3.64553 -2.35124 0
M  V30 10447 H 967.483 -3.83064 -3.97449 0
M  V30 10448 H 969.959 -1.92504 -3.68892 0
M  V30 10449 H 968.835 -2.13736 -5.05577 0
M  V30 10450 H 969.096 -0.533503 -4.38869 0
M  V30 10451 N 968.156 1.1691 -1.05688 0
M  V30 10452 C 969.086 2.23275 -0.683402 0
M  V30 10453 C 970.067 1.6704 0.321206 0
M  V30 10454 O 971.252 1.93191 0.197691 0
M  V30 10455 C 968.382 3.47244 -0.0626006 0
M  V30 10456 C 967.336 4.16333 -0.992513 0
M  V30 10457 C 966.662 5.34182 -0.23533 0
M  V30 10458 C 967.962 4.68002 -2.31886 0
M  V30 10459 H 969.656 2.54771 -1.57264 0
M  V30 10460 H 967.202 1.2246 -0.757606 0
M  V30 10461 H 969.155 4.20874 0.210503 0
M  V30 10462 H 967.879 3.1503 0.861616 0
M  V30 10463 H 966.538 3.44622 -1.25026 0
M  V30 10464 H 966.186 4.9822 0.69181 0
M  V30 10465 H 965.886 5.81346 -0.855002 0
M  V30 10466 H 967.41 6.10592 0.0303717 0
M  V30 10467 H 968.824 5.33244 -2.10531 0
M  V30 10468 H 967.221 5.25764 -2.89296 0
M  V30 10469 H 968.291 3.84541 -2.95391 0
M  V30 10470 N 969.634 0.838594 1.33437 0
M  V30 10471 C 970.862 0.447644 2.01999 0
M  V30 10472 C 971.277 -0.951053 1.63096 0
M  V30 10473 O 970.634 -1.61802 0.844169 0
M  V30 10474 C 970.685 0.558378 3.57162 0
M  V30 10475 O 970.406 1.90196 3.94661 0
M  V30 10476 C 971.907 0.164348 4.42995 0
M  V30 10477 H 969.127 0.177736 0.647032 0
M  V30 10478 H 971.671 1.13109 1.70372 0
M  V30 10479 H 969.826 -0.0771563 3.87323 0
M  V30 10480 H 970.24 1.88729 4.89369 0
M  V30 10481 H 971.714 0.292876 5.51222 0
M  V30 10482 H 972.191 -0.893713 4.30011 0
M  V30 10483 H 972.797 0.774306 4.18192 0
M  V30 10484 N 971.112 -1.45937 0.595003 0
M  V30 10485 C 972.044 -2.28575 -0.169137 0
M  V30 10486 C 973.057 -1.39226 -0.843792 0
M  V30 10487 O 974.246 -1.63716 -0.711291 0
M  V30 10488 C 971.346 -3.14616 -1.25976 0
M  V30 10489 C 970.519 -4.32166 -0.67466 0
M  V30 10490 C 969.578 -4.99511 -1.65456 0
M  V30 10491 O 968.604 -5.56712 -1.18578 0
M  V30 10492 N 969.806 -4.97643 -2.98885 0
M  V30 10493 H 972.571 -2.94797 0.539908 0
M  V30 10494 H 970.132 -1.55985 0.433614 0
M  V30 10495 H 972.124 -3.56534 -1.91483 0
M  V30 10496 H 970.694 -2.50387 -1.8715 0
M  V30 10497 H 969.914 -3.93882 0.158184 0
M  V30 10498 H 971.202 -5.08116 -0.263753 0
M  V30 10499 H 970.6 -4.52438 -3.39583 0
M  V30 10500 H 969.157 -5.43463 -3.59848 0
M  V30 10501 N 972.59 -0.333456 -1.54032 0
M  V30 10502 C 973.837 0.266133 -2.00744 0
M  V30 10503 C 974.165 1.51361 -1.22148 0
M  V30 10504 O 973.42 1.93473 -0.294368 0
M  V30 10505 C 973.719 0.63565 -3.51702 0
M  V30 10506 C 973.385 -0.513786 -4.47963 0
M  V30 10507 C 972.047 -0.829253 -4.74001 0
M  V30 10508 C 974.399 -1.2854 -5.05101 0
M  V30 10509 C 971.727 -1.91888 -5.54433 0
M  V30 10510 C 974.079 -2.3652 -5.86721 0
M  V30 10511 C 972.743 -2.68637 -6.11057 0
M  V30 10512 H 972.013 0.097385 -0.734573 0
M  V30 10513 H 974.66 -0.459282 -1.85911 0
M  V30 10514 H 972.965 1.44163 -3.64313 0
M  V30 10515 H 974.662 1.11129 -3.85294 0
M  V30 10516 H 971.252 -0.25784 -4.27824 0
M  V30 10517 H 975.436 -1.05494 -4.84958 0
M  V30 10518 H 970.692 -2.17208 -5.71516 0
M  V30 10519 H 974.866 -2.96747 -6.30011 0
M  V30 10520 H 972.493 -3.53197 -6.73169 0
M  V30 10521 N 974.068 1.57479 -0.061844 0
M  V30 10522 C 975.345 1.84484 0.649993 0
M  V30 10523 C 975.725 0.952366 1.88396 0
M  V30 10524 O 975.073 0.0161035 2.28494 0
M  V30 10525 C 975.283 3.34452 0.997133 0
M  V30 10526 C 976.631 4.01724 1.37488 0
M  V30 10527 O 977.655 3.3914 1.08916 0
M  V30 10528 O 976.514 5.12091 1.90854 0
M  V30 10529 H 973.608 0.761798 0.321858 0
M  V30 10530 H 976.154 1.6945 -0.0920192 0
M  V30 10531 H 974.926 3.91115 0.120301 0
M  V30 10532 H 974.549 3.54713 1.79624 0
M  V30 10533 N 975.546 -0.211634 1.56173 0
M  V30 10534 C 976.478 -1.286 1.89723 0
M  V30 10535 C 977.491 -1.42549 0.786361 0
M  V30 10536 O 978.68 -1.4327 1.06471 0
M  V30 10537 C 975.78 -2.66036 2.09948 0
M  V30 10538 C 974.953 -2.73908 3.41018 0
M  V30 10539 C 974.012 -3.92425 3.50555 0
M  V30 10540 O 973.038 -3.803 4.2351 0
M  V30 10541 N 974.24 -5.07165 2.82426 0
M  V30 10542 H 977.005 -1.00142 2.82474 0
M  V30 10543 H 974.566 -0.401633 1.56839 0
M  V30 10544 H 976.558 -3.43719 2.13634 0
M  V30 10545 H 975.128 -2.87052 1.23774 0
M  V30 10546 H 974.348 -1.82625 3.49345 0
M  V30 10547 H 975.636 -2.76145 4.27342 0
M  V30 10548 H 975.034 -5.19913 2.2295 0
M  V30 10549 H 973.591 -5.82855 2.9176 0
M  V30 10550 N 977.024 -1.50153 -0.478725 0
M  V30 10551 C 977.954 -1.71384 -1.58587 0
M  V30 10552 C 978.935 -0.562705 -1.60523 0
M  V30 10553 O 980.12 -0.80101 -1.76911 0
M  V30 10554 C 977.25 -1.80094 -2.96957 0
M  V30 10555 C 976.204 -2.95218 -3.09888 0
M  V30 10556 C 975.53 -2.89063 -4.49829 0
M  V30 10557 C 976.83 -4.35841 -2.8782 0
M  V30 10558 H 978.524 -2.64081 -1.41073 0
M  V30 10559 H 976.07 -1.27081 -0.677239 0
M  V30 10560 H 978.023 -1.93531 -3.74331 0
M  V30 10561 H 976.747 -0.840131 -3.1561 0
M  V30 10562 H 975.406 -2.81419 -2.34944 0
M  V30 10563 H 975.054 -1.90844 -4.6539 0
M  V30 10564 H 974.754 -3.66345 -4.59418 0
M  V30 10565 H 976.278 -3.04539 -5.29234 0
M  V30 10566 H 977.692 -4.50205 -3.54948 0
M  V30 10567 H 976.089 -5.14515 -3.0886 0
M  V30 10568 H 977.159 -4.48739 -1.83742 0
M  V30 10569 N 978.502 0.731368 -1.39602 0
M  V30 10570 C 979.732 1.51839 -1.40102 0
M  V30 10571 C 980.14 1.89199 0.00526634 0
M  V30 10572 O 979.483 1.54877 0.987874 0
M  V30 10573 C 979.545 2.83292 -2.21328 0
M  V30 10574 C 979.209 2.68345 -3.69919 0
M  V30 10575 C 980.206 2.36651 -4.62917 0
M  V30 10576 C 977.891 2.85102 -4.13548 0
M  V30 10577 C 979.885 2.21901 -5.97527 0
M  V30 10578 C 977.572 2.69971 -5.48233 0
M  V30 10579 C 978.57 2.38416 -6.40037 0
M  V30 10580 O 978.258 2.23383 -7.72241 0
M  V30 10581 H 977.99 0.475695 -0.480302 0
M  V30 10582 H 980.544 0.911096 -1.84087 0
M  V30 10583 H 978.774 3.46294 -1.72096 0
M  V30 10584 H 980.463 3.44928 -2.13961 0
M  V30 10585 H 981.229 2.23352 -4.3051 0
M  V30 10586 H 977.108 3.08655 -3.42423 0
M  V30 10587 H 980.652 1.97193 -6.69149 0
M  V30 10588 H 976.549 2.82849 -5.8023 0
M  V30 10589 H 977.317 2.38425 -7.83004 0
M  V30 10590 N 979.98 1.24838 0.961938 0
M  V30 10591 C 981.396 1.01502 1.23165 0
M  V30 10592 C 981.596 -0.272651 1.99647 0
M  V30 10593 O 980.652 -0.987297 2.32398 0
M  V30 10594 C 981.965 2.23366 2.01316 0
M  V30 10595 C 983.513 2.28051 2.14387 0
M  V30 10596 C 983.988 3.49552 2.95935 0
M  V30 10597 N 985.479 3.49904 3.03515 0
M  V30 10598 C 986.214 4.40577 3.66987 0
M  V30 10599 N 985.71 5.41512 4.3213 0
M  V30 10600 N 987.503 4.28275 3.64056 0
M  V30 10601 H 979.654 2.07576 0.450086 0
M  V30 10602 H 981.917 0.911205 0.261551 0
M  V30 10603 H 981.623 3.16913 1.5251 0
M  V30 10604 H 981.497 2.25949 3.02038 0
M  V30 10605 H 983.884 1.35032 2.62393 0
M  V30 10606 H 983.965 2.29491 1.12994 0
M  V30 10607 H 983.609 4.42889 2.4862 0
M  V30 10608 H 983.539 3.45357 3.97538 0
M  V30 10609 H 986.03 2.76885 2.57183 0
M  V30 10610 H 986.343 6.06924 4.78396 0
M  V30 10611 H 984.688 5.45393 4.3078 0
M  V30 10612 H 987.879 3.48653 3.12344 0
M  V30 10613 H 988.052 4.99138 4.13237 0
M  V30 10614 N 981.458 -1.16348 1.06306 0
M  V30 10615 C 982.405 -2.20741 0.673962 0
M  V30 10616 C 983.375 -1.628 -0.329454 0
M  V30 10617 O 984.56 -1.89547 -0.218313 0
M  V30 10618 C 981.7 -3.45036 0.0667008 0
M  V30 10619 C 980.813 -4.17221 1.12031 0
M  V30 10620 C 979.948 -5.29034 0.479176 0
M  V30 10621 C 978.987 -5.93021 1.51631 0
M  V30 10622 N 978.124 -6.96327 0.898528 0
M  V30 10623 H 982.964 -2.53376 1.56859 0
M  V30 10624 H 980.501 -1.24449 0.784276 0
M  V30 10625 H 982.459 -4.16099 -0.302916 0
M  V30 10626 H 981.089 -3.1295 -0.791333 0
M  V30 10627 H 980.141 -3.4476 1.60763 0
M  V30 10628 H 981.453 -4.60902 1.90712 0
M  V30 10629 H 980.607 -6.06674 0.0565993 0
M  V30 10630 H 979.346 -4.86517 -0.33951 0
M  V30 10631 H 978.351 -5.14104 1.94878 0
M  V30 10632 H 979.576 -6.37618 2.3371 0
M  V30 10633 H 977.522 -6.55923 0.100555 0
M  V30 10634 H 977.439 -7.38379 1.62272 0
M  V30 10635 H 978.707 -7.77888 0.5011 0
M  V30 10636 N 982.937 -0.845659 -1.3299 0
M  V30 10637 C 983.884 -0.281761 -2.29074 0
M  V30 10638 C 984.854 0.606237 -1.54641 0
M  V30 10639 O 986.039 0.543063 -1.82908 0
M  V30 10640 C 983.179 0.531451 -3.40983 0
M  V30 10641 C 982.292 -0.381328 -4.30314 0
M  V30 10642 C 981.427 0.443643 -5.29344 0
M  V30 10643 C 980.466 -0.467101 -6.10315 0
M  V30 10644 N 979.603 0.320148 -7.0137 0
M  V30 10645 H 984.443 -1.10641 -2.76699 0
M  V30 10646 H 981.98 -0.55706 -1.36144 0
M  V30 10647 H 983.938 1.01848 -4.04577 0
M  V30 10648 H 982.568 1.32101 -2.94532 0
M  V30 10649 H 981.62 -0.986701 -3.6738 0
M  V30 10650 H 982.932 -1.08067 -4.86953 0
M  V30 10651 H 982.086 0.994212 -5.98498 0
M  V30 10652 H 980.825 1.17639 -4.73299 0
M  V30 10653 H 979.83 -1.02963 -5.40073 0
M  V30 10654 H 981.055 -1.19832 -6.68444 0
M  V30 10655 H 979.001 1.03615 -6.47765 0
M  V30 10656 H 978.918 -0.320338 -7.55321 0
M  V30 10657 H 980.186 0.852735 -7.74822 0
M  V30 10658 N 984.415 1.45619 -0.602734 0
M  V30 10659 C 985.826 1.85814 -0.181636 0
M  V30 10660 C 986.177 1.5037 1.26029 0
M  V30 10661 O 985.302 0.928068 1.95489 0
M  V30 10662 C 985.897 3.37258 -0.322866 0
M  V30 10663 C 984.456 3.76375 0.043504 0
M  V30 10664 C 983.603 2.69585 -0.649561 0
M  V30 10665 H 986.554 1.36489 -0.809721 0
M  V30 10666 H 986.575 3.77874 0.446279 0
M  V30 10667 H 986.087 3.63024 -1.37241 0
M  V30 10668 H 984.188 3.56226 1.09241 0
M  V30 10669 H 984.301 4.77843 -0.346765 0
M  V30 10670 H 982.665 2.54549 -0.087706 0
M  V30 10671 H 983.448 2.98188 -1.70115 0
M  V30 10672 N 985.893 0.34162 1.53853 0
M  V30 10673 C 987.141 -0.254979 2.00485 0
M  V30 10674 C 987.462 -1.51222 1.23114 0
M  V30 10675 O 986.732 -1.92966 0.337787 0
M  V30 10676 H 985.312 -0.0972084 0.740648 0
M  V30 10677 H 987.974 0.462332 1.89337 0
M  V30 10678 H 987.07 -0.498778 3.08089 0
M  V30 10679 N 987.371 -1.57444 0.0701946 0
M  V30 10680 C 988.304 -2.08232 -0.93352 0
M  V30 10681 C 989.282 -0.987073 -1.29212 0
M  V30 10682 O 990.466 -1.26035 -1.40169 0
M  V30 10683 C 987.593 -2.53866 -2.2421 0
M  V30 10684 C 986.639 -3.7481 -2.03518 0
M  V30 10685 S 987.472 -5.1958 -1.29601 0
M  V30 10686 C 988.628 -5.68544 -2.61742 0
M  V30 10687 H 988.861 -2.93042 -0.501354 0
M  V30 10688 H 986.394 -1.53741 -0.142533 0
M  V30 10689 H 988.352 -2.80818 -2.99419 0
M  V30 10690 H 987.013 -1.69327 -2.64551 0
M  V30 10691 H 986.206 -4.04724 -3.00358 0
M  V30 10692 H 985.808 -3.48222 -1.36445 0
M  V30 10693 H 988.1 -5.75291 -3.57836 0
M  V30 10694 H 989.043 -6.67459 -2.3644 0
M  V30 10695 H 989.451 -4.96354 -2.68873 0
M  V30 10696 N 988.849 0.203349 -1.56283 0
M  V30 10697 C 990.077 0.941426 -1.84241 0
M  V30 10698 C 990.492 1.77197 -0.651658 0
M  V30 10699 O 989.849 1.78506 0.379713 0
M  V30 10700 C 989.9 1.84429 -3.10915 0
M  V30 10701 O 989.621 1.04729 -4.25398 0
M  V30 10702 C 991.122 2.69474 -3.51993 0
M  V30 10703 H 988.342 0.27507 -0.612027 0
M  V30 10704 H 990.886 0.213088 -2.03387 0
M  V30 10705 H 989.041 2.52635 -2.93691 0
M  V30 10706 H 989.455 1.66179 -4.97478 0
M  V30 10707 H 990.929 3.28495 -4.43616 0
M  V30 10708 H 991.406 3.42775 -2.74594 0
M  V30 10709 H 992.012 2.06652 -3.71719 0
M  V30 10710 N 990.327 1.50405 0.470755 0
M  V30 10711 C 991.26 1.63933 1.58749 0
M  V30 10712 C 992.238 0.487444 1.55122 0
M  V30 10713 O 993.422 0.706992 1.74739 0
M  V30 10714 C 990.549 1.62222 2.97324 0
M  V30 10715 C 989.595 2.82975 3.19104 0
M  V30 10716 S 990.428 4.44272 2.98969 0
M  V30 10717 C 991.584 4.45254 4.39886 0
M  V30 10718 H 991.817 2.58396 1.47034 0
M  V30 10719 H 989.35 1.39672 0.658115 0
M  V30 10720 H 991.308 1.6192 3.77217 0
M  V30 10721 H 989.969 0.689944 3.06429 0
M  V30 10722 H 989.162 2.78083 4.2034 0
M  V30 10723 H 988.764 2.80846 2.46984 0
M  V30 10724 H 991.056 4.18837 5.32524 0
M  V30 10725 H 991.999 5.4687 4.49821 0
M  V30 10726 H 992.407 3.74958 4.2198 0
M  V30 10727 N 991.805 -0.723954 1.39988 0
M  V30 10728 C 993.03 -1.5182 1.41299 0
M  V30 10729 C 993.455 -1.88096 0.0122636 0
M  V30 10730 O 992.813 -1.52687 -0.977559 0
M  V30 10731 C 992.861 -2.77532 2.30235 0
M  V30 10732 O 991.965 -3.73903 1.73984 0
M  V30 10733 H 991.306 -0.458058 0.480707 0
M  V30 10734 H 993.836 -0.892291 1.84118 0
M  V30 10735 H 993.846 -3.2615 2.45132 0
M  V30 10736 H 992.521 -2.50462 3.32026 0
M  V30 10737 H 991.098 -3.32715 1.68389 0
M  V30 10738 N 993.283 -1.25346 -0.955304 0
M  V30 10739 C 994.523 -1.11259 -1.71467 0
M  V30 10740 C 994.887 0.340759 -1.88952 0
M  V30 10741 O 996.088 0.60344 -2.61939 0
M  V30 10742 C 994.359 -1.84541 -3.06071 0
M  V30 10743 S 995.918 -1.86337 -3.97271 0
M  V30 10744 H 992.736 -0.397683 -0.58938 0
M  V30 10745 H 995.338 -1.58861 -1.13945 0
M  V30 10746 H 994.042 -2.89377 -2.91014 0
M  V30 10747 H 993.573 -1.37323 -3.68654 0
M  V30 10748 H 995.588 -0.939925 -4.87216 0
M  V30 10749 N 994.761 1.15782 -1.06922 0
M  V30 10750 C 995.724 2.18578 -0.689654 0
M  V30 10751 C 996.724 1.58553 0.267872 0
M  V30 10752 O 997.914 1.7413 0.0494097 0
M  V30 10753 C 995.046 3.40896 -0.0157919 0
M  V30 10754 H 996.239 2.53672 -1.59971 0
M  V30 10755 H 993.792 1.30168 -0.865214 0
M  V30 10756 H 994.527 3.11367 0.906712 0
M  V30 10757 H 994.312 3.85721 -0.704415 0
M  V30 10758 H 995.802 4.16937 0.235266 0
M  V30 10759 N 996.239 0.8527 1.3254 0
M  V30 10760 C 997.186 0.293905 2.28921 0
M  V30 10761 C 998.156 -0.598027 1.54961 0
M  V30 10762 O 999.341 -0.533355 1.83194 0
M  V30 10763 C 996.481 -0.513361 3.4126 0
M  V30 10764 C 995.594 0.404144 4.30105 0
M  V30 10765 C 994.729 -0.415564 5.29572 0
M  V30 10766 C 993.768 0.499461 6.10059 0
M  V30 10767 N 992.905 -0.282949 7.0153 0
M  V30 10768 H 997.745 1.12107 2.76109 0
M  V30 10769 H 995.282 0.564272 1.35847 0
M  V30 10770 H 997.24 -0.997008 4.05112 0
M  V30 10771 H 995.87 -1.30537 2.95229 0
M  V30 10772 H 994.922 1.00617 3.66852 0
M  V30 10773 H 996.234 1.10648 4.86373 0
M  V30 10774 H 995.388 -0.962458 5.99017 0
M  V30 10775 H 994.127 -1.15127 4.73917 0
M  V30 10776 H 993.132 1.05825 5.39519 0
M  V30 10777 H 994.357 1.23375 6.67799 0
M  V30 10778 H 992.303 -1.00179 6.48306 0
M  V30 10779 H 992.22 0.36039 7.55141 0
M  V30 10780 H 993.488 -0.811632 7.75263 0
M  V30 10781 N 997.718 -1.45297 0.610449 0
M  V30 10782 C 998.648 -2.33311 -0.0939698 0
M  V30 10783 C 999.629 -1.46999 -0.85588 0
M  V30 10784 O 1000.81 -1.75764 -0.825865 0
M  V30 10785 C 997.944 -3.29751 -1.09003 0
M  V30 10786 C 996.898 -4.2572 -0.441146 0
M  V30 10787 C 996.224 -5.11873 -1.54566 0
M  V30 10788 C 997.524 -5.1837 0.639489 0
M  V30 10789 H 999.218 -2.92459 0.640941 0
M  V30 10790 H 996.764 -1.40631 0.309675 0
M  V30 10791 H 998.717 -3.90195 -1.59141 0
M  V30 10792 H 997.441 -2.68768 -1.85557 0
M  V30 10793 H 996.1 -3.66579 0.0393908 0
M  V30 10794 H 995.748 -4.47256 -2.30155 0
M  V30 10795 H 995.448 -5.76886 -1.11698 0
M  V30 10796 H 996.972 -5.75185 -2.04925 0
M  V30 10797 H 998.386 -5.7287 0.22207 0
M  V30 10798 H 996.783 -5.91876 0.990089 0
M  V30 10799 H 997.853 -4.60627 1.51495 0
M  V30 10800 N 999.196 -0.349774 -1.5367 0
M  V30 10801 C 1000.61 0.132815 -1.86227 0
M  V30 10802 C 1000.96 1.49479 -1.27084 0
M  V30 10803 O 1000.08 2.08292 -0.58679 0
M  V30 10804 C 1000.68 0.247775 -3.37893 0
M  V30 10805 C 999.237 0.674603 -3.70305 0
M  V30 10806 C 998.384 -0.187869 -2.76663 0
M  V30 10807 H 1001.33 -0.569148 -1.48143 0
M  V30 10808 H 1001.36 1.07418 -3.65023 0
M  V30 10809 H 1000.87 -0.743635 -3.80909 0
M  V30 10810 H 998.969 1.67481 -3.32837 0
M  V30 10811 H 999.082 0.460177 -4.76885 0
M  V30 10812 H 997.446 0.340779 -2.5241 0
M  V30 10813 H 998.229 -1.17653 -3.2251 0
M  V30 10814 N 1000.67 1.57404 -0.0785433 0
M  V30 10815 C 1001.61 2.101 0.916013 0
M  V30 10816 C 1002.62 1.03459 1.25698 0
M  V30 10817 O 1003.81 1.30954 1.21299 0
M  V30 10818 C 1000.91 2.55202 2.22992 0
M  V30 10819 C 1000.08 3.85491 2.06678 0
M  V30 10820 C 999.14 4.16614 3.21433 0
M  V30 10821 O 998.166 4.86105 2.96126 0
M  V30 10822 N 999.368 3.70697 4.46726 0
M  V30 10823 H 1002.13 2.96054 0.466059 0
M  V30 10824 H 999.694 1.61546 0.107006 0
M  V30 10825 H 1001.69 2.7308 2.9868 0
M  V30 10826 H 1000.26 1.74348 2.59464 0
M  V30 10827 H 999.476 3.76925 1.15417 0
M  V30 10828 H 1000.76 4.70759 1.93036 0
M  V30 10829 H 1000.16 3.14571 4.70172 0
M  V30 10830 H 998.719 3.93762 5.19418 0
M  V30 10831 N 1002.15 -0.195058 1.56388 0
M  V30 10832 C 1003.1 -1.26122 1.95438 0
M  V30 10833 C 1004.09 -1.47117 0.839818 0
M  V30 10834 O 1005.3 -1.47978 1.02482 0
M  V30 10835 H 1001.67 -0.423422 0.621464 0
M  V30 10836 H 1003.65 -0.904854 2.8435 0
M  V30 10837 C 1002.39 -2.59858 2.31017 0
M  V30 10838 H 1001.72 -2.44519 3.16308 0
M  V30 10839 H 1003.16 -3.33205 2.62203 0
M  V30 10840 C 1001.62 -3.16853 1.14481 0
M  V30 10841 O 1002.15 -3.995 0.419853 0
M  V30 10842 N 1000.35 -2.75599 0.921604 0
M  V30 10843 H 999.9 -2.08495 1.51287 0
M  V30 10844 H 999.858 -3.14072 0.143663 0
M  V30 10845 N 1003.63 -1.50653 -0.462772 0
M  V30 10846 C 1004.88 -1.61296 -1.21105 0
M  V30 10847 C 1005.19 -0.322757 -1.92919 0
M  V30 10848 O 1006.4 -0.308211 -2.69745 0
M  V30 10849 C 1004.85 -2.84752 -2.201 0
M  V30 10850 C 1004.46 -4.20681 -1.54051 0
M  V30 10851 C 1006.21 -3.04744 -2.95518 0
M  V30 10852 C 1004.11 -5.35314 -2.51381 0
M  V30 10853 H 1003.04 -0.60069 -0.455728 0
M  V30 10854 H 1005.69 -1.77093 -0.480656 0
M  V30 10855 H 1004.08 -2.62532 -2.96467 0
M  V30 10856 H 1005.25 -4.53187 -0.834168 0
M  V30 10857 H 1003.56 -4.06361 -0.908828 0
M  V30 10858 H 1006.16 -3.87559 -3.68378 0
M  V30 10859 H 1006.5 -2.16802 -3.55391 0
M  V30 10860 H 1007.04 -3.27185 -2.26263 0
M  V30 10861 H 1003.78 -6.25437 -1.96235 0
M  V30 10862 H 1003.3 -5.07216 -3.20144 0
M  V30 10863 H 1004.98 -5.66229 -3.1304 0
M  V30 10864 N 1005.11 0.71652 -1.4037 0
M  V30 10865 C 1006.33 1.51069 -1.42102 0
M  V30 10866 C 1006.76 1.88087 -0.0222387 0
M  V30 10867 O 1006.12 1.53204 0.969448 0
M  V30 10868 C 1006.16 2.76307 -2.31704 0
M  V30 10869 O 1005.27 3.72975 -1.75964 0
M  V30 10870 H 1004.61 0.455502 -0.483129 0
M  V30 10871 H 1007.14 0.882514 -1.84588 0
M  V30 10872 H 1007.15 3.24846 -2.46859 0
M  V30 10873 H 1005.82 2.48698 -3.3335 0
M  V30 10874 H 1004.4 3.31818 -1.70151 0
M  V30 10875 N 1006.59 1.25851 0.948643 0
M  V30 10876 C 1007.53 1.06759 2.04625 0
M  V30 10877 C 1008.5 -0.0251144 1.66081 0
M  V30 10878 O 1009.69 0.133221 1.90334 0
M  V30 10879 C 1006.83 0.698724 3.37952 0
M  V30 10880 C 1005.94 1.8669 3.89578 0
M  V30 10881 C 1005.08 1.44184 5.11258 0
M  V30 10882 C 1004.12 2.57878 5.55126 0
M  V30 10883 N 1003.25 2.16106 6.68014 0
M  V30 10884 H 1008.09 2.00691 2.20289 0
M  V30 10885 H 1005.63 0.999327 1.07944 0
M  V30 10886 H 1007.59 0.465788 4.14592 0
M  V30 10887 H 1006.22 -0.203618 3.22157 0
M  V30 10888 H 1005.27 2.21298 3.09405 0
M  V30 10889 H 1006.58 2.72051 4.18079 0
M  V30 10890 H 1005.74 1.16891 5.95333 0
M  V30 10891 H 1004.47 0.559035 4.84485 0
M  V30 10892 H 1003.48 2.85909 4.69612 0
M  V30 10893 H 1004.7 3.46747 5.83904 0
M  V30 10894 H 1002.65 1.3025 6.42939 0
M  V30 10895 H 1002.57 2.95012 6.96063 0
M  V30 10896 H 1003.84 1.92005 7.55483 0
M  V30 10897 N 1008.06 -1.15214 1.07534 0
M  V30 10898 C 1009.01 -2.22078 0.69168 0
M  V30 10899 C 1010.01 -1.66751 -0.298382 0
M  V30 10900 O 1011.21 -1.7927 -0.161897 0
M  V30 10901 H 1007.59 -0.723347 0.205604 0
M  V30 10902 H 1009.56 -2.51716 1.60256 0
M  V30 10903 C 1008.31 -3.47534 0.107546 0
M  V30 10904 H 1007.63 -3.90429 0.860522 0
M  V30 10905 H 1009.07 -4.23821 -0.123215 0
M  V30 10906 C 1007.53 -3.16583 -1.15226 0
M  V30 10907 O 1008.06 -3.33551 -2.23845 0
M  V30 10908 N 1006.27 -2.70611 -1.05915 0
M  V30 10909 H 1005.81 -2.57004 -0.175198 0
M  V30 10910 H 1005.77 -2.50277 -1.90287 0
M  V30 10911 N 1009.54 -0.859717 -1.32086 0
M  V30 10912 C 1010.96 -0.55025 -1.49815 0
M  V30 10913 C 1011.16 0.917966 -1.79376 0
M  V30 10914 O 1010.21 1.70073 -1.86632 0
M  V30 10915 C 1011.53 -1.44161 -2.6389 0
M  V30 10916 C 1013.08 -1.44257 -2.77775 0
M  V30 10917 C 1013.55 -2.31926 -3.94936 0
M  V30 10918 N 1015.04 -2.2975 -4.02206 0
M  V30 10919 C 1015.78 -2.9431 -4.92107 0
M  V30 10920 N 1015.27 -3.68001 -5.86981 0
M  V30 10921 N 1017.07 -2.83671 -4.8527 0
M  V30 10922 H 1009.22 -1.80987 -1.11164 0
M  V30 10923 H 1011.48 -0.773313 -0.548353 0
M  V30 10924 H 1011.19 -2.48588 -2.4879 0
M  V30 10925 H 1011.06 -1.13268 -3.59792 0
M  V30 10926 H 1013.45 -0.405923 -2.92295 0
M  V30 10927 H 1013.53 -1.79169 -1.82571 0
M  V30 10928 H 1013.17 -3.35661 -3.81174 0
M  V30 10929 H 1013.1 -1.94344 -4.89426 0
M  V30 10930 H 1015.59 -1.76177 -3.3432 0
M  V30 10931 H 1015.91 -4.14417 -6.52287 0
M  V30 10932 H 1014.25 -3.72109 -5.86992 0
M  V30 10933 H 1017.44 -2.25647 -4.10123 0
M  V30 10934 H 1017.61 -3.34267 -5.5513 0
M  V30 10935 N 1011.02 1.44971 -0.618145 0
M  V30 10936 C 1012.25 2.06228 -0.123985 0
M  V30 10937 C 1012.66 1.46166 1.20134 0
M  V30 10938 O 1012 0.574099 1.74499 0
M  V30 10939 C 1012.06 3.59413 0.0789098 0
M  V30 10940 C 1011.73 4.41869 -1.16624 0
M  V30 10941 C 1012.72 4.76177 -2.0869 0
M  V30 10942 C 1010.41 4.82453 -1.39802 0
M  V30 10943 C 1012.4 5.49938 -3.22254 0
M  V30 10944 C 1010.09 5.55965 -2.53665 0
M  V30 10945 C 1011.09 5.89626 -3.44718 0
M  V30 10946 O 1010.78 6.61644 -4.56598 0
M  V30 10947 H 1010.51 0.672274 -0.0708822 0
M  V30 10948 H 1013.06 1.87038 -0.848868 0
M  V30 10949 H 1011.29 3.77043 0.8588 0
M  V30 10950 H 1012.98 4.02478 0.52599 0
M  V30 10951 H 1013.75 4.45372 -1.92012 0
M  V30 10952 H 1009.63 4.55681 -0.698245 0
M  V30 10953 H 1013.17 5.76129 -3.93347 0
M  V30 10954 H 1009.07 5.86185 -2.70291 0
M  V30 10955 H 1009.84 6.80103 -4.55414 0
M  V30 10956 N 1012.5 0.357919 1.53482 0
M  V30 10957 C 1013.91 0.00655107 1.59599 0
M  V30 10958 C 1014.11 -1.47449 1.37336 0
M  V30 10959 O 1013.17 -2.2351 1.17472 0
M  V30 10960 C 1014.48 0.455617 2.97228 0
M  V30 10961 C 1016.03 0.409183 3.10314 0
M  V30 10962 C 1016.51 0.833941 4.50344 0
M  V30 10963 N 1018 0.788695 4.56436 0
M  V30 10964 C 1018.73 1.08914 5.62961 0
M  V30 10965 N 1018.23 1.45847 6.77274 0
M  V30 10966 N 1020.02 1.01243 5.52907 0
M  V30 10967 H 1012.17 1.32248 1.66206 0
M  V30 10968 H 1014.44 0.540047 0.779136 0
M  V30 10969 H 1014.14 1.48881 3.18634 0
M  V30 10970 H 1014.02 -0.161751 3.76853 0
M  V30 10971 H 1016.4 -0.614863 2.88623 0
M  V30 10972 H 1016.48 1.06195 2.32715 0
M  V30 10973 H 1016.13 1.85607 4.72771 0
M  V30 10974 H 1016.06 0.158507 5.26361 0
M  V30 10975 H 1018.55 0.516497 3.74354 0
M  V30 10976 H 1018.86 1.67218 7.54492 0
M  V30 10977 H 1017.21 1.49705 6.78685 0
M  V30 10978 H 1020.4 0.723137 4.62481 0
M  V30 10979 H 1020.57 1.24991 6.35831 0
M  V30 10980 N 1013.98 -1.5736 0.0868897 0
M  V30 10981 C 1015.25 -1.85495 -0.620561 0
M  V30 10982 C 1015.63 -0.982218 -1.86857 0
M  V30 10983 O 1014.98 -0.0524529 -2.2844 0
M  V30 10984 C 1015.19 -3.35996 -0.943798 0
M  V30 10985 C 1016.54 -4.03861 -1.31079 0
M  V30 10986 O 1017.56 -3.4083 -1.03507 0
M  V30 10987 O 1016.42 -5.15062 -1.82683 0
M  V30 10988 H 1013.52 -0.766822 -0.309697 0
M  V30 10989 H 1016.06 -1.69282 0.118966 0
M  V30 10990 H 1014.83 -3.91257 -0.0580628 0
M  V30 10991 H 1014.46 -3.57525 -1.73958 0
M  V30 10992 N 1015.45 0.186762 -1.56489 0
M  V30 10993 C 1016.7 0.904077 -1.80303 0
M  V30 10994 C 1017.02 1.84073 -0.661538 0
M  V30 10995 O 1018.22 2.59928 -0.784197 0
M  V30 10996 C 1016.68 1.65806 -3.19432 0
M  V30 10997 C 1016.29 0.765807 -4.41406 0
M  V30 10998 C 1018.03 2.36451 -3.52549 0
M  V30 10999 C 1015.94 1.51913 -5.71556 0
M  V30 11000 H 1014.87 0.34133 -0.672317 0
M  V30 11001 H 1017.52 0.157218 -1.82825 0
M  V30 11002 H 1015.9 2.44911 -3.11183 0
M  V30 11003 H 1017.07 0.0128225 -4.60798 0
M  V30 11004 H 1015.39 0.169772 -4.16054 0
M  V30 11005 H 1017.99 2.93378 -4.47027 0
M  V30 11006 H 1018.33 3.11044 -2.7669 0
M  V30 11007 H 1018.86 1.64305 -3.62283 0
M  V30 11008 H 1015.6 0.815829 -6.50403 0
M  V30 11009 H 1015.12 2.24583 -5.56168 0
M  V30 11010 H 1016.8 2.07073 -6.12968 0
M  V30 11011 N 1016.93 1.50896 0.454776 0
M  V30 11012 C 1018.16 1.66759 1.23313 0
M  V30 11013 C 1018.58 0.35722 1.84677 0
M  V30 11014 O 1017.94 -0.680771 1.68033 0
M  V30 11015 C 1017.99 2.77254 2.3057 0
M  V30 11016 O 1017.09 2.39642 3.35627 0
M  V30 11017 H 1016.43 0.556599 0.362068 0
M  V30 11018 H 1018.96 1.97365 0.539274 0
M  V30 11019 H 1018.97 3.0082 2.75629 0
M  V30 11020 H 1017.65 3.72349 1.85281 0
M  V30 11021 H 1016.23 2.26584 2.96165 0
M  V30 11022 N 1018.41 -0.709066 1.40748 0
M  V30 11023 C 1019.82 -1.28847 1.35112 0
M  V30 11024 C 1020.17 -1.9618 0.0277149 0
M  V30 11025 O 1019.3 -1.97955 -0.874233 0
M  V30 11026 C 1019.89 -2.34306 2.44716 0
M  V30 11027 C 1018.45 -2.87856 2.4252 0
M  V30 11028 C 1017.6 -1.61723 2.25257 0
M  V30 11029 H 1020.55 -0.504742 1.50459 0
M  V30 11030 H 1020.57 -3.15297 2.12998 0
M  V30 11031 H 1020.08 -1.85271 3.41022 0
M  V30 11032 H 1018.18 -3.41103 1.49931 0
M  V30 11033 H 1018.3 -3.39205 3.38344 0
M  V30 11034 H 1016.66 -1.87032 1.7289 0
M  V30 11035 H 1017.44 -1.14703 3.23571 0
M  V30 11036 N 1019.89 -1.26353 -0.941956 0
M  V30 11037 C 1021.12 -1.1446 -1.71996 0
M  V30 11038 C 1021.53 0.302957 -1.86759 0
M  V30 11039 O 1020.87 1.2193 -1.374 0
M  V30 11040 C 1020.93 -1.73986 -3.14593 0
M  V30 11041 C 1020.6 -3.23078 -3.23217 0
M  V30 11042 C 1021.59 -4.19905 -3.06554 0
M  V30 11043 C 1019.28 -3.63526 -3.46632 0
M  V30 11044 C 1021.27 -5.55159 -3.13172 0
M  V30 11045 C 1018.96 -4.98914 -3.52886 0
M  V30 11046 C 1019.96 -5.9454 -3.36172 0
M  V30 11047 O 1019.65 -7.27462 -3.42132 0
M  V30 11048 H 1019.38 -0.399453 -0.545356 0
M  V30 11049 H 1021.93 -1.67455 -1.18945 0
M  V30 11050 H 1020.16 -1.15453 -3.69063 0
M  V30 11051 H 1021.85 -1.57011 -3.74302 0
M  V30 11052 H 1022.62 -3.89995 -2.88321 0
M  V30 11053 H 1018.5 -2.8958 -3.58698 0
M  V30 11054 H 1022.04 -6.29777 -3.00044 0
M  V30 11055 H 1017.94 -5.28485 -3.70639 0
M  V30 11056 H 1018.7 -7.35725 -3.5868 0
M  V30 11057 N 1021.37 1.14642 -1.08144 0
M  V30 11058 C 1022.64 1.81774 -0.72232 0
M  V30 11059 C 1023.02 1.95587 0.794294 0
M  V30 11060 O 1022.37 1.51361 1.71178 0
M  V30 11061 C 1022.58 3.1763 -1.44611 0
M  V30 11062 C 1023.93 3.93161 -1.60343 0
M  V30 11063 O 1024.95 3.2721 -1.40755 0
M  V30 11064 O 1023.81 5.11422 -1.9264 0
M  V30 11065 H 1020.91 0.785733 -0.257978 0
M  V30 11066 H 1023.45 1.21683 -1.18285 0
M  V30 11067 H 1022.23 3.02723 -2.4794 0
M  V30 11068 H 1021.85 3.85412 -0.976892 0
M  V30 11069 N 1022.85 0.866709 1.31628 0
M  V30 11070 C 1023.81 0.325041 2.26883 0
M  V30 11071 C 1024.81 -0.522133 1.52087 0
M  V30 11072 O 1026 -0.331908 1.71009 0
M  V30 11073 C 1023.13 -0.538756 3.36616 0
M  V30 11074 H 1024.32 1.16592 2.76308 0
M  V30 11075 H 1021.88 0.642029 1.42505 0
M  V30 11076 H 1022.61 -1.40096 2.92478 0
M  V30 11077 H 1022.4 0.0678115 3.92041 0
M  V30 11078 H 1023.89 -0.910123 4.07562 0
M  V30 11079 N 1024.32 -1.44642 0.625825 0
M  V30 11080 C 1025.55 -2.06458 0.135116 0
M  V30 11081 C 1025.97 -1.46729 -1.18811 0
M  V30 11082 O 1025.32 -0.58818 -1.72762 0
M  V30 11083 C 1025.37 -3.61499 0.00850114 0
M  V30 11084 O 1025.1 -4.19002 1.2794 0
M  V30 11085 C 1026.6 -4.40339 -0.511527 0
M  V30 11086 H 1023.82 -0.666541 0.0772294 0
M  V30 11087 H 1026.36 -1.85597 0.858726 0
M  V30 11088 H 1024.52 -3.81641 -0.665522 0
M  V30 11089 H 1024.93 -5.12385 1.12081 0
M  V30 11090 H 1026.4 -5.49262 -0.549149 0
M  V30 11091 H 1026.88 -4.11409 -1.53752 0
M  V30 11092 H 1027.49 -4.25104 0.129066 0
M  V30 11093 N 1025.8 -0.366053 -1.5329 0
M  V30 11094 C 1027.22 -0.0150149 -1.59593 0
M  V30 11095 C 1027.42 1.46719 -1.38116 0
M  V30 11096 O 1026.47 2.22884 -1.18656 0
M  V30 11097 C 1027.79 -0.471374 -2.96982 0
M  V30 11098 C 1029.33 -0.425634 -3.10092 0
M  V30 11099 C 1029.81 -0.857812 -4.49895 0
M  V30 11100 N 1031.3 -0.81289 -4.56011 0
M  V30 11101 C 1032.04 -1.11898 -5.62376 0
M  V30 11102 N 1031.53 -1.49436 -6.76491 0
M  V30 11103 N 1033.32 -1.04174 -5.52362 0
M  V30 11104 H 1025.48 -1.33127 -1.65502 0
M  V30 11105 H 1027.74 -0.544172 -0.776261 0
M  V30 11106 H 1027.44 -1.50569 -3.1784 0
M  V30 11107 H 1027.32 0.141764 -3.76934 0
M  V30 11108 H 1029.71 0.599548 -2.88945 0
M  V30 11109 H 1029.79 -1.07427 -2.32149 0
M  V30 11110 H 1029.43 -1.88111 -4.7178 0
M  V30 11111 H 1029.36 -0.186419 -5.2627 0
M  V30 11112 H 1031.85 -0.536343 -3.74075 0
M  V30 11113 H 1032.16 -1.71217 -7.53594 0
M  V30 11114 H 1030.51 -1.53302 -6.77882 0
M  V30 11115 H 1033.7 -0.747654 -4.62091 0
M  V30 11116 H 1033.87 -1.28362 -6.35159 0
M  V30 11117 N 1027.28 1.57312 -0.0952337 0
M  V30 11118 C 1028.53 1.94646 0.569284 0
M  V30 11119 C 1028.86 0.977152 1.67825 0
M  V30 11120 O 1028.13 0.0102318 1.94497 0
M  V30 11121 C 1028.42 3.42098 1.12433 0
M  V30 11122 C 1028.27 4.49795 0.0204016 0
M  V30 11123 C 1029.59 3.90866 2.02266 0
M  V30 11124 H 1026.71 0.707779 0.205469 0
M  V30 11125 H 1029.35 1.89274 -0.16597 0
M  V30 11126 H 1027.5 3.46807 1.75092 0
M  V30 11127 H 1029.17 4.57198 -0.613845 0
M  V30 11128 H 1027.41 4.28964 -0.645965 0
M  V30 11129 H 1028.09 5.50166 0.449579 0
M  V30 11130 H 1030.56 3.88311 1.49512 0
M  V30 11131 H 1029.44 4.94604 2.38029 0
M  V30 11132 H 1029.7 3.30167 2.9401 0
M  V30 11133 N 1028.76 -0.17846 1.56586 0
M  V30 11134 C 1030.01 -0.894502 1.8078 0
M  V30 11135 C 1030.32 -1.8372 0.67129 0
M  V30 11136 O 1031.53 -2.59509 0.797971 0
M  V30 11137 C 1029.98 -1.64109 3.20306 0
M  V30 11138 C 1029.59 -0.742387 4.41806 0
M  V30 11139 C 1031.33 -2.34578 3.53798 0
M  V30 11140 C 1029.24 -1.4888 5.72354 0
M  V30 11141 H 1028.17 -0.33776 0.674117 0
M  V30 11142 H 1030.82 -0.14752 1.82906 0
M  V30 11143 H 1029.2 -2.43257 3.12477 0
M  V30 11144 H 1030.38 0.011615 4.60799 0
M  V30 11145 H 1028.69 -0.147705 4.16138 0
M  V30 11146 H 1031.29 -2.91004 4.48577 0
M  V30 11147 H 1031.63 -3.09572 2.78336 0
M  V30 11148 H 1032.17 -1.62381 3.63149 0
M  V30 11149 H 1028.9 -0.781325 6.50827 0
M  V30 11150 H 1028.42 -2.21631 5.57351 0
M  V30 11151 H 1030.1 -2.03819 6.14058 0
M  V30 11152 N 1030.24 -1.51135 -0.446768 0
M  V30 11153 C 1031.17 -1.74709 -1.54916 0
M  V30 11154 C 1032.15 -0.596628 -1.59293 0
M  V30 11155 O 1033.33 -0.838356 -1.75172 0
M  V30 11156 C 1030.46 -1.86353 -2.9307 0
M  V30 11157 C 1029.42 -3.01725 -3.03556 0
M  V30 11158 C 1028.74 -2.9854 -4.43597 0
M  V30 11159 C 1030.04 -4.41848 -2.7851 0
M  V30 11160 H 1031.74 -2.67014 -1.3544 0
M  V30 11161 H 1029.28 -1.28489 -0.650131 0
M  V30 11162 H 1031.23 -2.01428 -3.70141 0
M  V30 11163 H 1029.96 -0.906887 -3.13756 0
M  V30 11164 H 1028.62 -2.86339 -2.28922 0
M  V30 11165 H 1028.27 -2.00673 -4.61237 0
M  V30 11166 H 1027.97 -3.76008 -4.51544 0
M  V30 11167 H 1029.49 -3.15696 -5.22655 0
M  V30 11168 H 1030.9 -4.57633 -3.45319 0
M  V30 11169 H 1029.3 -5.2095 -2.97877 0
M  V30 11170 H 1030.37 -4.52536 -1.74182 0
M  V30 11171 N 1031.71 0.701592 -1.41122 0
M  V30 11172 C 1032.66 1.81559 -1.42495 0
M  V30 11173 C 1033.63 1.63722 -0.280078 0
M  V30 11174 O 1034.82 1.84658 -0.480231 0
M  V30 11175 C 1031.96 3.19392 -1.30702 0
M  V30 11176 C 1031.07 3.48704 -2.55009 0
M  V30 11177 C 1030.2 4.76118 -2.35554 0
M  V30 11178 C 1029.24 4.98378 -3.55367 0
M  V30 11179 N 1028.38 6.17014 -3.3502 0
M  V30 11180 H 1033.22 1.7972 -2.37707 0
M  V30 11181 H 1030.76 0.877727 -1.18044 0
M  V30 11182 H 1032.71 3.99004 -1.21867 0
M  V30 11183 H 1031.34 3.20423 -0.391012 0
M  V30 11184 H 1030.4 2.63542 -2.74317 0
M  V30 11185 H 1031.71 3.61057 -3.44151 0
M  V30 11186 H 1030.86 5.63774 -2.24152 0
M  V30 11187 H 1029.6 4.66 -1.43859 0
M  V30 11188 H 1028.61 4.09172 -3.6723 0
M  V30 11189 H 1029.83 5.10359 -4.48007 0
M  V30 11190 H 1027.78 6.0812 -2.4602 0
M  V30 11191 H 1027.69 6.30107 -4.17733 0
M  V30 11192 H 1028.96 7.0742 -3.27379 0
M  V30 11193 N 1033.19 1.2685 0.935242 0
M  V30 11194 C 1034.44 1.12522 1.67878 0
M  V30 11195 C 1034.76 -0.330894 1.92172 0
M  V30 11196 O 1034.03 -1.23259 1.52263 0
M  V30 11197 H 1032.61 0.413418 0.622169 0
M  V30 11198 H 1035.27 1.59267 1.12339 0
M  V30 11199 H 1034.37 1.64853 2.65009 0
M  V30 11200 N 1034.67 -1.14067 1.0875 0
M  V30 11201 C 1035.62 -2.21332 0.715195 0
M  V30 11202 C 1036.61 -1.67059 -0.280679 0
M  V30 11203 O 1037.82 -1.79432 -0.142874 0
M  V30 11204 H 1034.19 -0.721126 0.213264 0
M  V30 11205 H 1036.16 -2.50002 1.62916 0
M  V30 11206 C 1034.91 -3.474 0.144401 0
M  V30 11207 H 1034.24 -3.89495 0.901884 0
M  V30 11208 H 1035.68 -4.23928 -0.0782564 0
M  V30 11209 C 1034.14 -3.17787 -1.11862 0
M  V30 11210 O 1034.67 -3.35906 -2.20295 0
M  V30 11211 N 1032.87 -2.71719 -1.03039 0
M  V30 11212 H 1032.42 -2.57175 -0.14793 0
M  V30 11213 H 1032.38 -2.52281 -1.87621 0
M  V30 11214 N 1036.15 -0.873678 -1.31166 0
M  V30 11215 C 1037.06 -0.335726 -2.32185 0
M  V30 11216 C 1038.07 0.556259 -1.64869 0
M  V30 11217 O 1039.25 0.452087 -1.9626 0
M  V30 11218 C 1036.32 0.450822 -3.43756 0
M  V30 11219 C 1035.38 -0.469565 -4.26724 0
M  V30 11220 C 1034.61 0.279538 -5.32967 0
M  V30 11221 O 1034.83 1.50715 -5.50128 0
M  V30 11222 O 1033.77 -0.36452 -6.00795 0
M  V30 11223 H 1037.59 -1.17314 -2.80127 0
M  V30 11224 H 1035.18 -0.637163 -1.35132 0
M  V30 11225 H 1037.06 0.896582 -4.11752 0
M  V30 11226 H 1035.73 1.26472 -2.9797 0
M  V30 11227 H 1034.64 -0.963902 -3.61469 0
M  V30 11228 H 1035.97 -1.24916 -4.76085 0
M  V30 11229 N 1037.63 1.44308 -0.633487 0
M  V30 11230 C 1038.9 1.95476 -0.0697262 0
M  V30 11231 C 1039.28 1.57539 1.40516 0
M  V30 11232 O 1038.63 0.850632 2.12077 0
M  V30 11233 C 1038.84 3.4775 -0.295093 0
M  V30 11234 C 1040.19 4.24177 -0.189542 0
M  V30 11235 O 1041.21 3.55479 -0.226586 0
M  V30 11236 O 1040.07 5.46415 -0.096479 0
M  V30 11237 H 1037.17 0.826734 0.0209582 0
M  V30 11238 H 1039.71 1.54347 -0.705354 0
M  V30 11239 H 1038.48 3.6842 -1.31841 0
M  V30 11240 H 1038.11 3.95832 0.37456 0
M  V30 11241 N 1039.1 0.374177 1.53094 0
M  V30 11242 C 1040.33 -0.213015 2.05499 0
M  V30 11243 C 1040.74 -1.42303 1.24686 0
M  V30 11244 O 1040.09 -1.81512 0.282702 0
M  V30 11245 C 1040.15 -0.662308 3.53346 0
M  V30 11246 C 1039.81 0.432183 4.54952 0
M  V30 11247 C 1040.81 1.2848 5.03775 0
M  V30 11248 C 1038.49 0.594887 4.98765 0
M  V30 11249 C 1040.49 2.28538 5.9502 0
M  V30 11250 C 1038.17 1.59882 5.89814 0
M  V30 11251 C 1039.17 2.4425 6.37833 0
M  V30 11252 O 1038.86 3.4293 7.27086 0
M  V30 11253 H 1038.59 -0.0393809 0.674852 0
M  V30 11254 H 1041.15 0.533423 1.98353 0
M  V30 11255 H 1039.38 -1.46049 3.5806 0
M  V30 11256 H 1041.07 -1.17347 3.88567 0
M  V30 11257 H 1041.83 1.17033 4.70668 0
M  V30 11258 H 1037.71 -0.0520401 4.60971 0
M  V30 11259 H 1041.25 2.94426 6.32423 0
M  V30 11260 H 1037.15 1.71373 6.22335 0
M  V30 11261 H 1037.92 3.3876 7.45107 0
M  V30 11262 N 1040.58 -1.57259 0.103575 0
M  V30 11263 C 1041.83 -1.93832 -0.55786 0
M  V30 11264 C 1042.14 -0.988087 -1.68808 0
M  V30 11265 O 1043.35 -1.24786 -2.41124 0
M  V30 11266 C 1041.81 -3.44433 -1.04373 0
M  V30 11267 C 1041.41 -4.47963 0.0571971 0
M  V30 11268 C 1043.16 -3.89953 -1.67742 0
M  V30 11269 C 1041.07 -5.89727 -0.444505 0
M  V30 11270 H 1040 -0.723536 -0.212161 0
M  V30 11271 H 1042.65 -1.82606 0.180944 0
M  V30 11272 H 1041.03 -3.50841 -1.83648 0
M  V30 11273 H 1042.2 -4.53209 0.83298 0
M  V30 11274 H 1040.52 -4.12104 0.596588 0
M  V30 11275 H 1043.11 -4.93272 -2.06365 0
M  V30 11276 H 1043.46 -3.2907 -2.54988 0
M  V30 11277 H 1043.99 -3.86281 -0.950342 0
M  V30 11278 H 1040.73 -6.5433 0.391543 0
M  V30 11279 H 1040.25 -5.87935 -1.18711 0
M  V30 11280 H 1041.93 -6.40558 -0.910739 0
M  V30 11281 N 1042.06 0.170153 -1.56679 0
M  V30 11282 C 1043.01 1.22997 -1.9742 0
M  V30 11283 C 1044 1.45762 -0.863117 0
M  V30 11284 O 1045.21 1.46328 -1.04824 0
M  V30 11285 H 1041.58 0.413482 -0.628122 0
M  V30 11286 H 1043.55 0.859502 -2.85754 0
M  V30 11287 C 1042.3 2.5615 -2.35122 0
M  V30 11288 H 1041.63 2.39456 -3.20158 0
M  V30 11289 H 1043.07 3.28991 -2.67471 0
M  V30 11290 C 1041.53 3.14992 -1.19507 0
M  V30 11291 O 1042.06 3.98781 -0.483357 0
M  V30 11292 N 1040.26 2.74098 -0.965332 0
M  V30 11293 H 1039.81 2.06062 -1.54585 0
M  V30 11294 H 1039.77 3.13803 -0.193611 0
M  V30 11295 N 1043.54 1.5137 0.438746 0
M  V30 11296 C 1044.5 1.71993 1.51496 0
M  V30 11297 C 1045.5 0.589978 1.49586 0
M  V30 11298 O 1046.69 0.857505 1.51633 0
M  V30 11299 C 1043.82 1.77508 2.91039 0
M  V30 11300 H 1045.02 2.68041 1.34514 0
M  V30 11301 H 1042.57 1.41338 0.667326 0
M  V30 11302 H 1043.3 0.832698 3.13427 0
M  V30 11303 H 1043.09 2.59627 2.9383 0
M  V30 11304 H 1044.58 1.95308 3.69113 0
M  V30 11305 N 1045.02 -0.694098 1.41492 0
M  V30 11306 C 1045.96 -1.82932 1.43662 0
M  V30 11307 C 1046.96 -1.66455 0.31449 0
M  V30 11308 O 1048.16 -1.73298 0.486589 0
M  V30 11309 H 1044.54 -0.602847 0.449533 0
M  V30 11310 H 1046.51 -1.78218 2.39334 0
M  V30 11311 C 1045.26 -3.20962 1.33712 0
M  V30 11312 H 1044.58 -3.34257 2.19345 0
M  V30 11313 H 1046.02 -4.00467 1.39291 0
M  V30 11314 C 1044.48 -3.36863 0.0496332 0
M  V30 11315 O 1045.01 -3.91371 -0.905093 0
M  V30 11316 N 1043.22 -2.90588 -0.0269299 0
M  V30 11317 H 1042.76 -2.46417 0.750752 0
M  V30 11318 H 1042.72 -3.01605 -0.887781 0
M  V30 11319 N 1046.49 -1.27344 -0.928501 0
M  V30 11320 C 1047.72 -1.16278 -1.70772 0
M  V30 11321 C 1048.13 0.283131 -1.8707 0
M  V30 11322 O 1047.48 1.20466 -1.38685 0
M  V30 11323 C 1047.54 -1.77313 -3.1273 0
M  V30 11324 C 1047.2 -3.26488 -3.19773 0
M  V30 11325 C 1048.2 -4.23133 -3.02083 0
M  V30 11326 C 1045.88 -3.67182 -3.42757 0
M  V30 11327 C 1047.88 -5.5845 -3.07267 0
M  V30 11328 C 1045.56 -5.02629 -3.47574 0
M  V30 11329 C 1046.56 -5.98072 -3.29847 0
M  V30 11330 O 1046.25 -7.3105 -3.34397 0
M  V30 11331 H 1045.98 -0.405215 -0.541089 0
M  V30 11332 H 1048.54 -1.68707 -1.17163 0
M  V30 11333 H 1046.77 -1.19361 -3.67818 0
M  V30 11334 H 1048.46 -1.60972 -3.72616 0
M  V30 11335 H 1049.22 -3.93031 -2.84168 0
M  V30 11336 H 1045.1 -2.93369 -3.55606 0
M  V30 11337 H 1048.64 -6.32924 -2.93348 0
M  V30 11338 H 1044.54 -5.32387 -3.65013 0
M  V30 11339 H 1045.31 -7.39488 -3.50857 0
M  V30 11340 N 1047.97 1.13488 -1.09353 0
M  V30 11341 C 1049.22 1.841 -0.82401 0
M  V30 11342 C 1049.53 1.84393 0.652586 0
M  V30 11343 O 1050.74 2.5089 1.03762 0
M  V30 11344 C 1049.2 3.30523 -1.42418 0
M  V30 11345 C 1048.8 3.38621 -2.93326 0
M  V30 11346 C 1050.55 4.06182 -1.23356 0
M  V30 11347 C 1048.46 4.79311 -3.46432 0
M  V30 11348 H 1047.39 0.68974 -0.304589 0
M  V30 11349 H 1050.04 1.27866 -1.31615 0
M  V30 11350 H 1048.42 3.86555 -0.859727 0
M  V30 11351 H 1049.59 2.92587 -3.5599 0
M  V30 11352 H 1047.91 2.76426 -3.11412 0
M  V30 11353 H 1050.5 5.10047 -1.60488 0
M  V30 11354 H 1050.85 4.15936 -0.174152 0
M  V30 11355 H 1051.38 3.56477 -1.76547 0
M  V30 11356 H 1048.12 4.74748 -4.5199 0
M  V30 11357 H 1047.64 5.25842 -2.8853 0
M  V30 11358 H 1049.32 5.48227 -3.43593 0
M  V30 11359 N 1049.45 0.880621 1.30701 0
M  V30 11360 C 1050.4 0.333562 2.30196 0
M  V30 11361 C 1051.39 -0.557092 1.59978 0
M  V30 11362 O 1052.6 -0.442009 1.74489 0
M  V30 11363 H 1048.97 0.0892036 0.746691 0
M  V30 11364 H 1050.95 1.18644 2.73799 0
M  V30 11365 C 1049.69 -0.440731 3.44895 0
M  V30 11366 H 1049.02 0.235353 3.99107 0
M  V30 11367 H 1050.46 -0.788676 4.166 0
M  V30 11368 C 1048.92 -1.63613 2.94504 0
M  V30 11369 O 1049.45 -2.73549 2.94166 0
M  V30 11370 N 1047.65 -1.47183 2.5057 0
M  V30 11371 H 1047.2 -0.577479 2.51044 0
M  V30 11372 H 1047.16 -2.27303 2.17211 0
M  V30 11373 N 1050.93 -1.4397 0.641131 0
M  V30 11374 C 1051.86 -2.27948 -0.10731 0
M  V30 11375 C 1052.84 -1.39124 -0.841615 0
M  V30 11376 O 1054.02 -1.68566 -0.843662 0
M  V30 11377 C 1051.15 -3.18277 -1.15835 0
M  V30 11378 C 1050.2 -4.23276 -0.52345 0
M  V30 11379 S 1051.03 -5.30984 0.693969 0
M  V30 11380 C 1052.19 -6.24882 -0.356831 0
M  V30 11381 H 1052.42 -2.91077 0.605083 0
M  V30 11382 H 1049.95 -1.48303 0.429598 0
M  V30 11383 H 1051.91 -3.70867 -1.75977 0
M  V30 11384 H 1050.57 -2.54348 -1.84299 0
M  V30 11385 H 1049.76 -4.86533 -1.31536 0
M  V30 11386 H 1049.37 -3.74 0.00358355 0
M  V30 11387 H 1051.66 -6.66305 -1.22653 0
M  V30 11388 H 1052.6 -7.07692 0.240412 0
M  V30 11389 H 1053.01 -5.60301 -0.687217 0
M  V30 11390 N 1052.41 -0.382291 -1.52893 0
M  V30 11391 C 1053.32 0.463745 -2.29971 0
M  V30 11392 C 1054.33 1.07777 -1.36602 0
M  V30 11393 O 1055.51 1.0851 -1.69669 0
M  V30 11394 C 1052.57 1.57938 -3.08637 0
M  V30 11395 C 1051.64 0.991182 -4.17701 0
M  V30 11396 C 1050.87 2.05365 -4.92606 0
M  V30 11397 O 1051.09 3.26757 -4.67532 0
M  V30 11398 O 1050.03 1.67487 -5.78128 0
M  V30 11399 H 1053.85 -0.163962 -3.03257 0
M  V30 11400 H 1051.44 -0.146199 -1.48683 0
M  V30 11401 H 1053.32 2.22765 -3.57706 0
M  V30 11402 H 1051.99 2.19218 -2.3817 0
M  V30 11403 H 1050.9 0.306364 -3.72843 0
M  V30 11404 H 1052.23 0.422699 -4.90382 0
M  V30 11405 N 1053.89 1.57202 -0.111913 0
M  V30 11406 C 1055.13 1.94125 0.547573 0
M  V30 11407 C 1055.45 0.997026 1.68282 0
M  V30 11408 O 1056.65 1.26063 2.40459 0
M  V30 11409 C 1055.11 3.44982 1.02545 0
M  V30 11410 C 1054.72 4.47927 -0.0809529 0
M  V30 11411 C 1056.46 3.90837 1.65671 0
M  V30 11412 C 1054.37 5.89955 0.413224 0
M  V30 11413 H 1053.3 0.724651 0.208321 0
M  V30 11414 H 1055.95 1.82507 -0.190625 0
M  V30 11415 H 1054.33 3.5181 1.81785 0
M  V30 11416 H 1055.51 4.52761 -0.857003 0
M  V30 11417 H 1053.82 4.11782 -0.618434 0
M  V30 11418 H 1056.42 4.9436 2.03746 0
M  V30 11419 H 1056.76 3.30417 2.53239 0
M  V30 11420 H 1057.29 3.8678 0.929844 0
M  V30 11421 H 1054.03 6.54113 -0.426238 0
M  V30 11422 H 1053.55 5.88557 1.15591 0
M  V30 11423 H 1055.23 6.41032 0.876756 0
M  V30 11424 N 1055.36 -0.161842 1.56767 0
M  V30 11425 C 1056.77 -0.723385 1.72116 0
M  V30 11426 C 1057.13 -1.82355 0.723961 0
M  V30 11427 O 1056.25 -2.16107 -0.112643 0
M  V30 11428 C 1056.85 -1.31895 3.12072 0
M  V30 11429 C 1055.4 -1.82722 3.29074 0
M  V30 11430 C 1054.55 -0.709863 2.6806 0
M  V30 11431 H 1057.5 0.0636647 1.58572 0
M  V30 11432 H 1057.52 -2.18871 3.11249 0
M  V30 11433 H 1057.04 -0.51801 3.84627 0
M  V30 11434 H 1055.14 -2.6543 2.61491 0
M  V30 11435 H 1055.25 -1.96614 4.36898 0
M  V30 11436 H 1053.61 -1.13273 2.28126 0
M  V30 11437 H 1054.4 0.0793884 3.43208 0
M  V30 11438 N 1056.84 -1.516 -0.430713 0
M  V30 11439 C 1058.07 -1.687 -1.20644 0
M  V30 11440 C 1058.49 -0.386555 -1.84085 0
M  V30 11441 O 1057.85 0.653952 -1.69095 0
M  V30 11442 C 1057.9 -2.80887 -2.2613 0
M  V30 11443 O 1057 -2.44952 -3.31772 0
M  V30 11444 H 1056.34 -0.562289 -0.353167 0
M  V30 11445 H 1058.87 -1.98198 -0.507807 0
M  V30 11446 H 1058.88 -3.05167 -2.70809 0
M  V30 11447 H 1057.56 -3.75249 -1.79334 0
M  V30 11448 H 1056.13 -2.31267 -2.92523 0
M  V30 11449 N 1058.32 0.686584 -1.41858 0
M  V30 11450 C 1059.54 1.4802 -1.45275 0
M  V30 11451 C 1059.97 1.87997 -0.0621297 0
M  V30 11452 O 1059.33 1.55226 0.936733 0
M  V30 11453 C 1059.38 2.7133 -2.37513 0
M  V30 11454 O 1058.48 3.69159 -1.83836 0
M  V30 11455 H 1057.82 0.445152 -0.492682 0
M  V30 11456 H 1060.35 0.843161 -1.86419 0
M  V30 11457 H 1060.36 3.19537 -2.53693 0
M  V30 11458 H 1059.04 2.41571 -3.3855 0
M  V30 11459 H 1057.61 3.28134 -1.77151 0
M  V30 11460 N 1059.8 1.27835 0.921735 0
M  V30 11461 C 1061.02 1.17465 1.70929 0
M  V30 11462 C 1061.45 -0.264171 1.86236 0
M  V30 11463 O 1060.81 -1.19124 1.36671 0
M  V30 11464 C 1060.85 1.8697 3.08342 0
M  V30 11465 O 1059.96 1.17173 3.95404 0
M  V30 11466 H 1059.3 0.408206 0.523702 0
M  V30 11467 H 1061.83 1.69013 1.15307 0
M  V30 11468 H 1061.84 1.94564 3.58621 0
M  V30 11469 H 1060.51 2.91633 2.96518 0
M  V30 11470 H 1059.09 1.17688 3.53842 0
M  V30 11471 N 1061.28 -1.12907 1.09954 0
M  V30 11472 C 1062.52 -1.83661 0.833761 0
M  V30 11473 C 1062.84 -1.84736 -0.642798 0
M  V30 11474 O 1064.04 -2.51437 -1.0243 0
M  V30 11475 C 1062.5 -3.29763 1.44168 0
M  V30 11476 C 1062.11 -3.3706 2.95118 0
M  V30 11477 C 1063.85 -4.05522 1.25509 0
M  V30 11478 C 1061.76 -4.77467 3.48969 0
M  V30 11479 H 1060.69 -0.688115 0.308242 0
M  V30 11480 H 1063.34 -1.27166 1.32291 0
M  V30 11481 H 1061.72 -3.86094 0.880215 0
M  V30 11482 H 1062.9 -2.90695 3.57537 0
M  V30 11483 H 1061.21 -2.7477 3.12874 0
M  V30 11484 H 1063.81 -5.09188 1.63191 0
M  V30 11485 H 1064.15 -4.15837 0.196208 0
M  V30 11486 H 1064.68 -3.55536 1.78435 0
M  V30 11487 H 1061.42 -4.72344 4.54501 0
M  V30 11488 H 1060.94 -5.24305 2.91315 0
M  V30 11489 H 1062.62 -5.46397 3.46495 0
M  V30 11490 N 1062.75 -0.88754 -1.30232 0
M  V30 11491 C 1064 -0.503322 -1.95319 0
M  V30 11492 C 1064.32 0.952817 -1.70824 0
M  V30 11493 O 1065.52 1.444 -2.29915 0
M  V30 11494 C 1063.98 -0.849216 -3.49738 0
M  V30 11495 C 1063.59 -2.3233 -3.83049 0
M  V30 11496 C 1065.33 -0.53432 -4.21124 0
M  V30 11497 C 1063.24 -2.61069 -5.30657 0
M  V30 11498 H 1062.17 -0.1845 -0.731078 0
M  V30 11499 H 1064.82 -1.08287 -1.48143 0
M  V30 11500 H 1063.2 -0.198729 -3.95501 0
M  V30 11501 H 1064.37 -3.01832 -3.48187 0
M  V30 11502 H 1062.69 -2.60599 -3.24773 0
M  V30 11503 H 1065.29 -0.726039 -5.29748 0
M  V30 11504 H 1065.63 0.526434 -4.12958 0
M  V30 11505 H 1066.16 -1.14211 -3.81052 0
M  V30 11506 H 1062.9 -3.65895 -5.43876 0
M  V30 11507 H 1062.42 -1.96179 -5.6681 0
M  V30 11508 H 1064.1 -2.46703 -5.98119 0
M  V30 11509 N 1064.23 1.43628 -0.648757 0
M  V30 11510 C 1065.18 2.32529 0.057536 0
M  V30 11511 C 1066.17 1.48358 0.817699 0
M  V30 11512 O 1067.38 1.64595 0.728605 0
M  V30 11513 H 1063.76 0.75107 0.037388 0
M  V30 11514 H 1065.73 2.89829 -0.710062 0
M  V30 11515 C 1064.48 3.32605 1.01336 0
M  V30 11516 H 1063.8 3.97395 0.437855 0
M  V30 11517 H 1065.24 3.97453 1.47672 0
M  V30 11518 C 1063.7 2.62865 2.10722 0
M  V30 11519 O 1064.23 2.4408 3.19042 0
M  V30 11520 N 1062.43 2.22312 1.87152 0
M  V30 11521 H 1061.98 2.3779 0.990644 0
M  V30 11522 H 1061.94 1.75979 2.60536 0
M  V30 11523 N 1065.71 0.390394 1.52688 0
M  V30 11524 C 1066.64 -0.479319 2.24132 0
M  V30 11525 C 1067.66 -1.0258 1.26416 0
M  V30 11526 O 1068.84 -0.927943 1.52484 0
M  V30 11527 C 1065.94 -1.67711 2.94493 0
M  V30 11528 C 1065.12 -1.2578 4.18925 0
M  V30 11529 C 1064.18 -2.3204 4.72275 0
M  V30 11530 O 1063.2 -1.93402 5.35336 0
M  V30 11531 N 1064.4 -3.63967 4.52226 0
M  V30 11532 H 1067.17 0.132777 2.99406 0
M  V30 11533 H 1064.73 0.216807 1.60442 0
M  V30 11534 H 1066.72 -2.38323 3.27084 0
M  V30 11535 H 1065.29 -2.19552 2.22521 0
M  V30 11536 H 1064.51 -0.380528 3.92359 0
M  V30 11537 H 1065.8 -0.954329 4.9977 0
M  V30 11538 H 1065.2 -3.98119 4.01892 0
M  V30 11539 H 1063.76 -4.30611 4.89303 0
M  V30 11540 N 1067.19 -1.57141 0.120249 0
M  V30 11541 C 1068.42 -1.993 -0.544346 0
M  V30 11542 C 1068.83 -0.998858 -1.60684 0
M  V30 11543 O 1068.17 0.0162197 -1.83693 0
M  V30 11544 C 1068.23 -3.37874 -1.22808 0
M  V30 11545 C 1067.9 -4.55924 -0.313374 0
M  V30 11546 C 1068.89 -5.17962 0.448501 0
M  V30 11547 C 1066.58 -5.018 -0.224082 0
M  V30 11548 C 1068.57 -6.24264 1.28739 0
M  V30 11549 C 1066.26 -6.07963 0.618437 0
M  V30 11550 C 1067.26 -6.69061 1.3728 0
M  V30 11551 O 1066.94 -7.73173 2.20133 0
M  V30 11552 H 1066.68 -0.659466 -0.148596 0
M  V30 11553 H 1069.23 -2.04387 0.203779 0
M  V30 11554 H 1067.46 -3.29545 -2.02329 0
M  V30 11555 H 1069.15 -3.64314 -1.7897 0
M  V30 11556 H 1069.92 -4.83434 0.389395 0
M  V30 11557 H 1065.79 -4.53989 -0.80094 0
M  V30 11558 H 1069.34 -6.71883 1.87667 0
M  V30 11559 H 1065.24 -6.4192 0.678932 0
M  V30 11560 H 1066 -7.90276 2.13088 0
M  V30 11561 N 1068.67 0.153526 -1.5685 0
M  V30 11562 C 1069.92 0.865628 -1.82181 0
M  V30 11563 C 1070.23 1.82629 -0.700434 0
M  V30 11564 O 1071.43 2.58206 -0.839155 0
M  V30 11565 C 1069.89 1.58993 -3.22877 0
M  V30 11566 C 1069.5 0.672006 -4.42931 0
M  V30 11567 C 1071.24 2.2892 -3.57486 0
M  V30 11568 C 1069.15 1.39755 -5.7465 0
M  V30 11569 H 1068.08 0.326993 -0.679406 0
M  V30 11570 H 1070.73 0.118403 -1.83118 0
M  V30 11571 H 1069.11 2.38255 -3.16308 0
M  V30 11572 H 1070.29 -0.0849226 -4.60722 0
M  V30 11573 H 1068.6 0.0814825 -4.1632 0
M  V30 11574 H 1071.2 2.8383 -4.5315 0
M  V30 11575 H 1071.54 3.05105 -2.83226 0
M  V30 11576 H 1072.07 1.56583 -3.65686 0
M  V30 11577 H 1068.81 0.677686 -6.51987 0
M  V30 11578 H 1068.33 2.12736 -5.60806 0
M  V30 11579 H 1070.01 1.94024 -6.17223 0
M  V30 11580 N 1070.14 1.51827 0.422667 0
M  V30 11581 C 1071.11 1.7359 1.49663 0
M  V30 11582 C 1072.11 0.605811 1.48952 0
M  V30 11583 O 1073.3 0.87354 1.50715 0
M  V30 11584 C 1070.43 1.80585 2.8914 0
M  V30 11585 H 1071.62 2.69453 1.31664 0
M  V30 11586 H 1069.18 1.42038 0.652298 0
M  V30 11587 H 1069.91 0.865895 3.12526 0
M  V30 11588 H 1069.7 2.62729 2.9106 0
M  V30 11589 H 1071.19 1.99212 3.67021 0
M  V30 11590 N 1071.62 -0.679052 1.4222 0
M  V30 11591 C 1072.86 -1.45118 1.43945 0
M  V30 11592 C 1073.23 -1.91928 0.0524851 0
M  V30 11593 O 1074.43 -2.68743 -0.0555318 0
M  V30 11594 C 1072.7 -2.6191 2.43183 0
M  V30 11595 S 1074.26 -3.50819 2.63574 0
M  V30 11596 H 1071.08 -0.495695 0.509713 0
M  V30 11597 H 1073.68 -0.790842 1.7879 0
M  V30 11598 H 1072.38 -2.25752 3.42731 0
M  V30 11599 H 1071.91 -3.3282 2.09748 0
M  V30 11600 H 1073.93 -4.57735 1.91555 0
M  V30 11601 N 1073.1 -1.28322 -0.914942 0
M  V30 11602 C 1074.03 -1.07947 -2.02188 0
M  V30 11603 C 1075.05 -0.0315743 -1.62769 0
M  V30 11604 O 1076.23 -0.274503 -1.76377 0
M  V30 11605 C 1073.33 -0.61805 -3.33217 0
M  V30 11606 C 1072.51 -1.74109 -4.01254 0
M  V30 11607 C 1071.57 -1.27325 -5.10563 0
M  V30 11608 O 1070.59 -1.97526 -5.33828 0
M  V30 11609 N 1071.79 -0.1358 -5.80341 0
M  V30 11610 H 1074.56 -2.03275 -2.20225 0
M  V30 11611 H 1072.12 -1.20059 -1.08616 0
M  V30 11612 H 1074.11 -0.288693 -4.03669 0
M  V30 11613 H 1072.68 0.242348 -3.11659 0
M  V30 11614 H 1071.9 -2.2401 -3.24366 0
M  V30 11615 H 1073.19 -2.49448 -4.43456 0
M  V30 11616 H 1072.59 0.449846 -5.63909 0
M  V30 11617 H 1071.15 0.134289 -6.51662 0
M  V30 11618 N 1074.58 1.12322 -1.10551 0
M  V30 11619 C 1075.83 1.83495 -0.846998 0
M  V30 11620 C 1076.15 1.8457 0.629205 0
M  V30 11621 O 1075.42 1.30968 1.45686 0
M  V30 11622 H 1074 0.679479 -0.310351 0
M  V30 11623 H 1076.66 1.36004 -1.39602 0
M  V30 11624 H 1075.76 2.87651 -1.21092 0
M  V30 11625 N 1076.06 0.894434 1.2976 0
M  V30 11626 C 1077.47 0.566892 1.77885 0
M  V30 11627 C 1077.82 -0.917289 1.73437 0
M  V30 11628 O 1076.94 -1.71707 1.31703 0
M  V30 11629 C 1077.54 1.02227 3.2301 0
M  V30 11630 C 1076.1 0.745978 3.68934 0
M  V30 11631 C 1075.24 1.19993 2.49994 0
M  V30 11632 H 1078.2 1.0777 1.16496 0
M  V30 11633 H 1078.22 0.355281 3.78838 0
M  V30 11634 H 1077.73 2.1025 3.26215 0
M  V30 11635 H 1075.83 -0.321866 3.71207 0
M  V30 11636 H 1075.94 1.34017 4.59974 0
M  V30 11637 H 1074.31 0.619047 2.47063 0
M  V30 11638 H 1075.09 2.28811 2.55931 0
M  V30 11639 N 1077.53 -1.43282 0.656365 0
M  V30 11640 C 1078.46 -2.33492 -0.0196962 0
M  V30 11641 C 1079.45 -1.49647 -0.80868 0
M  V30 11642 O 1080.63 -1.78303 -0.769529 0
M  V30 11643 C 1077.76 -3.33052 -0.984574 0
M  V30 11644 C 1076.71 -4.26908 -0.305483 0
M  V30 11645 C 1076.04 -5.16531 -1.38202 0
M  V30 11646 C 1077.34 -5.16073 0.804081 0
M  V30 11647 H 1079.03 -2.90272 0.733661 0
M  V30 11648 H 1076.58 -1.39574 0.354259 0
M  V30 11649 H 1078.53 -3.9506 -1.46647 0
M  V30 11650 H 1077.26 -2.74535 -1.76913 0
M  V30 11651 H 1075.92 -3.66268 0.155995 0
M  V30 11652 H 1075.56 -4.54351 -2.1581 0
M  V30 11653 H 1075.26 -5.80148 -0.932878 0
M  V30 11654 H 1076.79 -5.81414 -1.86522 0
M  V30 11655 H 1078.2 -5.71873 0.404212 0
M  V30 11656 H 1076.6 -5.88427 1.17789 0
M  V30 11657 H 1077.67 -4.55574 1.66073 0
M  V30 11658 N 1079.01 -0.398486 -1.52479 0
M  V30 11659 C 1080.42 0.0735015 -1.86555 0
M  V30 11660 C 1080.78 1.45361 -1.31775 0
M  V30 11661 O 1079.9 2.0632 -0.652759 0
M  V30 11662 C 1080.5 0.140152 -3.3851 0
M  V30 11663 C 1079.05 0.556451 -3.72264 0
M  V30 11664 C 1078.2 -0.275792 -2.75925 0
M  V30 11665 H 1081.15 -0.615991 -1.46257 0
M  V30 11666 H 1081.17 0.957507 -3.68255 0
M  V30 11667 H 1080.69 -0.864442 -3.7835 0
M  V30 11668 H 1078.79 1.56808 -3.37997 0
M  V30 11669 H 1078.9 0.308227 -4.78107 0
M  V30 11670 H 1077.26 0.260304 -2.53366 0
M  V30 11671 H 1078.05 -1.27854 -3.18604 0
M  V30 11672 N 1080.49 1.57075 -0.12858 0
M  V30 11673 C 1081.44 2.12379 0.829418 0
M  V30 11674 C 1082.43 1.04694 1.2218 0
M  V30 11675 O 1083.62 1.30909 1.1913 0
M  V30 11676 C 1080.75 2.73436 2.07575 0
M  V30 11677 C 1079.83 3.88217 1.7073 0
M  V30 11678 N 1080.22 4.94864 1.04609 0
M  V30 11679 C 1078.52 3.9858 2.00125 0
M  V30 11680 C 1079.22 5.7514 0.871137 0
M  V30 11681 N 1078.2 5.25284 1.39918 0
M  V30 11682 H 1082 2.92209 0.314816 0
M  V30 11683 H 1079.51 1.62233 0.0735788 0
M  V30 11684 H 1081.51 3.11406 2.77185 0
M  V30 11685 H 1080.17 1.95073 2.5957 0
M  V30 11686 H 1081.18 5.13025 0.708961 0
M  V30 11687 H 1077.86 3.3127 2.541 0
M  V30 11688 H 1079.25 6.7098 0.351395 0
M  V30 11689 N 1081.97 -0.145205 1.5693 0
M  V30 11690 C 1083.2 -0.872398 1.87608 0
M  V30 11691 C 1083.61 -1.74657 0.716975 0
M  V30 11692 O 1082.97 -1.79792 -0.3132 0
M  V30 11693 C 1083.02 -1.72762 3.17546 0
M  V30 11694 O 1082.74 -0.888681 4.28992 0
M  V30 11695 C 1084.24 -2.56224 3.61751 0
M  V30 11696 H 1081.46 -0.252166 0.621815 0
M  V30 11697 H 1084.01 -0.137456 2.04038 0
M  V30 11698 H 1082.16 -2.41561 3.02865 0
M  V30 11699 H 1082.58 -1.47601 5.03303 0
M  V30 11700 H 1084.05 -3.11804 4.55502 0
M  V30 11701 H 1084.53 -3.32347 2.87127 0
M  V30 11702 H 1085.13 -1.92714 3.79133 0
M  V30 11703 N 1083.45 -1.52049 -0.414609 0
M  V30 11704 C 1084.69 -1.67511 -1.17129 0
M  V30 11705 C 1085.05 -0.39383 -1.87917 0
M  V30 11706 O 1086.25 -0.424496 -2.65427 0
M  V30 11707 C 1084.52 -2.85982 -2.14357 0
M  V30 11708 S 1086.08 -3.21898 -2.98206 0
M  V30 11709 H 1082.9 -0.589923 -0.396877 0
M  V30 11710 H 1085.5 -1.90025 -0.459409 0
M  V30 11711 H 1084.21 -3.77488 -1.6103 0
M  V30 11712 H 1083.74 -2.65725 -2.90092 0
M  V30 11713 H 1085.75 -2.70095 -4.16249 0
M  V30 11714 N 1084.93 0.6715 -1.42579 0
M  V30 11715 C 1086.15 1.45972 -1.46628 0
M  V30 11716 C 1086.57 1.88636 -0.0785986 0
M  V30 11717 O 1085.93 1.58345 0.907372 0
M  V30 11718 C 1085.98 2.70668 -2.39627 0
M  V30 11719 O 1085.7 2.29793 -3.72997 0
M  V30 11720 C 1087.2 3.64201 -2.52731 0
M  V30 11721 H 1084.42 0.449044 -0.498598 0
M  V30 11722 H 1086.96 0.824811 -1.87129 0
M  V30 11723 H 1085.12 3.3034 -2.02371 0
M  V30 11724 H 1085.53 3.10341 -4.22834 0
M  V30 11725 H 1087.01 4.48412 -3.21918 0
M  V30 11726 H 1087.48 4.10323 -1.56626 0
M  V30 11727 H 1088.09 3.1042 -2.90722 0
M  V30 11728 N 1086.4 1.28806 0.908124 0
M  V30 11729 C 1087.68 1.06981 1.63751 0
M  V30 11730 C 1088.06 -0.388936 2.07486 0
M  V30 11731 O 1087.41 -1.37611 1.82415 0
M  V30 11732 C 1087.62 2.04962 2.82474 0
M  V30 11733 C 1088.97 2.35418 3.5336 0
M  V30 11734 O 1089.99 2.03091 2.92631 0
M  V30 11735 O 1088.85 2.90617 4.62822 0
M  V30 11736 H 1085.94 0.409267 0.71863 0
M  V30 11737 H 1088.49 1.40146 0.956934 0
M  V30 11738 H 1087.26 3.03254 2.47291 0
M  V30 11739 H 1086.88 1.72476 3.58242 0
M  V30 11740 N 1087.88 -1.11734 1.11145 0
M  V30 11741 C 1089.13 -1.83405 0.858413 0
M  V30 11742 C 1089.46 -1.84488 -0.615975 0
M  V30 11743 O 1088.71 -1.29123 -1.47057 0
M  V30 11744 C 1089.01 -3.3046 1.36129 0
M  V30 11745 C 1088.68 -3.4954 2.84837 0
M  V30 11746 C 1087.34 -3.54456 3.25445 0
M  V30 11747 C 1089.69 -3.56048 3.8063 0
M  V30 11748 C 1087.02 -3.63431 4.60581 0
M  V30 11749 C 1089.37 -3.66554 5.15579 0
M  V30 11750 C 1088.03 -3.69728 5.55749 0
M  V30 11751 H 1087.3 -0.671128 0.314115 0
M  V30 11752 H 1089.95 -1.31795 1.38933 0
M  V30 11753 H 1088.26 -3.84544 0.750547 0
M  V30 11754 H 1089.95 -3.84398 1.14188 0
M  V30 11755 H 1086.54 -3.46382 2.52423 0
M  V30 11756 H 1090.73 -3.51513 3.5036 0
M  V30 11757 H 1085.98 -3.64164 4.91116 0
M  V30 11758 H 1090.16 -3.70532 5.89643 0
M  V30 11759 H 1087.78 -3.76435 6.60455 0
M  V30 11760 N 1089.36 -0.901303 -1.29284 0
M  V30 11761 C 1090.61 -0.538241 -1.96149 0
M  V30 11762 C 1090.96 0.905804 -1.69744 0
M  V30 11763 O 1090.25 1.63383 -1.00083 0
M  V30 11764 C 1090.45 -0.768828 -3.49033 0
M  V30 11765 C 1090.28 -2.23373 -3.903 0
M  V30 11766 C 1089.05 -2.88148 -4.15089 0
M  V30 11767 C 1091.24 -3.20907 -4.01899 0
M  V30 11768 N 1089.23 -4.25065 -4.42937 0
M  V30 11769 C 1090.6 -4.42948 -4.33817 0
M  V30 11770 C 1092.65 -3.16475 -3.8438 0
M  V30 11771 C 1091.36 -5.6112 -4.50041 0
M  V30 11772 C 1093.38 -4.33934 -4.01815 0
M  V30 11773 C 1092.74 -5.54745 -4.34093 0
M  V30 11774 H 1088.84 -0.246593 -0.742102 0
M  V30 11775 H 1091.43 -1.16245 -1.5619 0
M  V30 11776 H 1089.6 -0.17399 -3.8801 0
M  V30 11777 H 1091.33 -0.37104 -4.02996 0
M  V30 11778 H 1088.08 -2.38935 -4.0891 0
M  V30 11779 H 1088.51 -4.95822 -4.60966 0
M  V30 11780 H 1093.15 -2.2416 -3.58486 0
M  V30 11781 H 1090.87 -6.53925 -4.74771 0
M  V30 11782 H 1094.45 -4.31993 -3.89709 0
M  V30 11783 H 1093.33 -6.4412 -4.47302 0
M  V30 11784 N 1090.84 1.42931 -0.663954 0
M  V30 11785 C 1091.77 2.29122 0.0598878 0
M  V30 11786 C 1092.78 1.43094 0.776404 0
M  V30 11787 O 1093.97 1.66923 0.63237 0
M  V30 11788 C 1091.07 3.20268 1.10822 0
M  V30 11789 C 1090.24 4.34892 0.4677 0
M  V30 11790 C 1089.3 5.06836 1.41435 0
M  V30 11791 O 1088.33 5.61735 0.918818 0
M  V30 11792 N 1089.53 5.11336 2.74801 0
M  V30 11793 H 1092.3 2.91885 -0.679945 0
M  V30 11794 H 1089.86 1.53739 -0.507543 0
M  V30 11795 H 1091.85 3.65264 1.74255 0
M  V30 11796 H 1090.42 2.59031 1.7499 0
M  V30 11797 H 1089.64 3.92679 -0.34593 0
M  V30 11798 H 1090.93 5.08796 0.0210237 0
M  V30 11799 H 1090.33 4.68124 3.1761 0
M  V30 11800 H 1088.88 5.60013 3.33509 0
M  V30 11801 N 1092.32 0.406567 1.52266 0
M  V30 11802 C 1093.25 -0.464709 2.23418 0
M  V30 11803 C 1094.23 -1.05008 1.24146 0
M  V30 11804 O 1095.41 -1.09843 1.53188 0
M  V30 11805 C 1092.54 -1.64481 2.96081 0
M  V30 11806 C 1091.58 -1.18307 4.09763 0
M  V30 11807 S 1092.42 -0.150326 5.35289 0
M  V30 11808 C 1093.57 -1.3358 6.11479 0
M  V30 11809 H 1093.81 0.139455 2.96973 0
M  V30 11810 H 1091.34 0.19085 1.53216 0
M  V30 11811 H 1093.3 -2.3215 3.38551 0
M  V30 11812 H 1091.96 -2.22031 2.22174 0
M  V30 11813 H 1091.15 -2.06466 4.59769 0
M  V30 11814 H 1090.75 -0.58505 3.69396 0
M  V30 11815 H 1093.04 -2.25986 6.38699 0
M  V30 11816 H 1093.99 -0.876328 7.02656 0
M  V30 11817 H 1094.4 -1.56044 5.42504 0
M  V30 11818 N 1093.79 -1.57004 0.136909 0
M  V30 11819 C 1095.02 -2.00156 -0.523936 0
M  V30 11820 C 1095.44 -1.01688 -1.59075 0
M  V30 11821 O 1094.79 -0.0123678 -1.82496 0
M  V30 11822 C 1094.85 -3.4326 -1.13379 0
M  V30 11823 O 1094.57 -4.37963 -0.109598 0
M  V30 11824 C 1096.07 -4.01637 -1.87623 0
M  V30 11825 H 1093.29 -0.65681 -0.137263 0
M  V30 11826 H 1095.83 -2.03219 0.228522 0
M  V30 11827 H 1093.99 -3.4108 -1.83693 0
M  V30 11828 H 1094.4 -5.21555 -0.55503 0
M  V30 11829 H 1095.87 -5.03795 -2.25597 0
M  V30 11830 H 1096.35 -3.41781 -2.75831 0
M  V30 11831 H 1096.96 -4.07417 -1.22031 0
M  V30 11832 N 1095.27 0.136881 -1.57004 0
M  V30 11833 C 1096.52 0.844147 -1.85056 0
M  V30 11834 C 1096.87 1.78328 -0.722278 0
M  V30 11835 O 1096.17 1.89557 0.279059 0
M  V30 11836 C 1096.36 1.64711 -3.17183 0
M  V30 11837 C 1096.19 0.787229 -4.42756 0
M  V30 11838 C 1094.96 0.448938 -5.03302 0
M  V30 11839 C 1097.16 0.112947 -5.14176 0
M  V30 11840 N 1095.14 -0.423481 -6.12438 0
M  V30 11841 C 1096.51 -0.619195 -6.169 0
M  V30 11842 C 1098.57 0.0346687 -4.97888 0
M  V30 11843 C 1097.27 -1.42224 -7.05099 0
M  V30 11844 C 1099.29 -0.755143 -5.86559 0
M  V30 11845 C 1098.66 -1.47553 -6.88772 0
M  V30 11846 H 1094.76 0.286398 -0.727668 0
M  V30 11847 H 1097.34 0.108903 -1.94395 0
M  V30 11848 H 1095.51 2.35352 -3.08972 0
M  V30 11849 H 1097.24 2.29833 -3.33105 0
M  V30 11850 H 1094 0.787068 -4.67014 0
M  V30 11851 H 1094.42 -0.851013 -6.7163 0
M  V30 11852 H 1099.06 0.577271 -4.18841 0
M  V30 11853 H 1096.78 -1.97606 -7.83567 0
M  V30 11854 H 1100.37 -0.817835 -5.76023 0
M  V30 11855 H 1099.25 -2.07687 -7.56198 0
M  V30 11856 N 1096.75 1.52266 0.40654 0
M  V30 11857 C 1097.66 1.78688 1.52012 0
M  V30 11858 C 1098.68 0.6726 1.60475 0
M  V30 11859 O 1099.85 0.95829 1.77141 0
M  V30 11860 C 1096.92 1.93434 2.87722 0
M  V30 11861 C 1095.98 3.17341 2.89125 0
M  V30 11862 C 1095.21 3.31374 4.18362 0
M  V30 11863 O 1095.43 2.50613 5.12396 0
M  V30 11864 O 1094.37 4.24539 4.26674 0
M  V30 11865 H 1098.19 2.73213 1.3262 0
M  V30 11866 H 1095.78 1.37142 0.592653 0
M  V30 11867 H 1097.66 2.04941 3.68208 0
M  V30 11868 H 1096.34 1.02099 3.07177 0
M  V30 11869 H 1095.24 3.1129 2.07483 0
M  V30 11870 H 1096.58 4.08466 2.7462 0
M  V30 11871 N 1098.23 -0.663929 1.42933 0
M  V30 11872 C 1099.16 -1.78946 1.43217 0
M  V30 11873 C 1100.17 -1.59426 0.329727 0
M  V30 11874 O 1101.36 -1.68344 0.5935 0
M  V30 11875 C 1098.46 -3.16217 1.21902 0
M  V30 11876 C 1097.64 -3.6249 2.44785 0
M  V30 11877 C 1096.69 -4.78529 2.18853 0
M  V30 11878 O 1095.72 -4.88516 2.92131 0
M  V30 11879 N 1096.92 -5.67994 1.19845 0
M  V30 11880 H 1099.69 -1.79184 2.40236 0
M  V30 11881 H 1097.25 -0.847404 1.37952 0
M  V30 11882 H 1099.24 -3.91517 1.02454 0
M  V30 11883 H 1097.81 -3.10814 0.333676 0
M  V30 11884 H 1097.03 -2.77751 2.79729 0
M  V30 11885 H 1098.32 -3.90151 3.26588 0
M  V30 11886 H 1097.72 -5.62588 0.59259 0
M  V30 11887 H 1096.27 -6.4306 1.06382 0
M  V30 11888 N 1099.71 -1.29285 -0.901281 0
M  V30 11889 C 1100.95 -1.16934 -1.64836 0
M  V30 11890 C 1101.28 0.279826 -1.92982 0
M  V30 11891 O 1100.55 1.19179 -1.55478 0
M  V30 11892 H 1099.13 -0.429768 -0.61099 0
M  V30 11893 H 1101.79 -1.62189 -1.08077 0
M  V30 11894 H 1100.88 -1.71821 -2.60545 0
M  V30 11895 N 1101.18 1.11143 -1.11736 0
M  V30 11896 C 1102.41 1.87285 -0.891007 0
M  V30 11897 C 1102.83 1.79758 0.553971 0
M  V30 11898 O 1102.19 1.16221 1.39149 0
M  V30 11899 C 1102.24 3.33924 -1.36114 0
M  V30 11900 O 1101.34 4.08917 -0.534851 0
M  V30 11901 H 1100.69 0.581418 -0.320701 0
M  V30 11902 H 1103.22 1.40469 -1.4876 0
M  V30 11903 H 1103.23 3.84772 -1.35701 0
M  V30 11904 H 1101.9 3.38719 -2.41334 0
M  V30 11905 H 1100.48 3.67954 -0.605355 0
M  V30 11906 N 1102.66 0.908147 1.28804 0
M  V30 11907 C 1103.89 0.553431 1.9988 0
M  V30 11908 C 1104.31 -0.856714 1.67458 0
M  V30 11909 O 1103.67 -1.57163 0.903849 0
M  V30 11910 C 1103.72 0.762688 3.52442 0
M  V30 11911 O 1102.82 -0.180924 4.12003 0
M  V30 11912 H 1102.16 0.215237 0.628147 0
M  V30 11913 H 1104.69 1.22205 1.64095 0
M  V30 11914 H 1104.7 0.670612 4.02451 0
M  V30 11915 H 1103.38 1.79071 3.75375 0
M  V30 11916 H 1101.96 -0.0405897 3.72878 0
M  V30 11917 N 1104.14 -1.42577 0.671525 0
M  V30 11918 C 1105.07 -2.28124 -0.0589347 0
M  V30 11919 C 1106.05 -1.40878 -0.811915 0
M  V30 11920 O 1107.24 -1.70318 -0.807717 0
M  V30 11921 C 1104.36 -3.20662 -1.09057 0
M  V30 11922 C 1103.41 -4.24291 -0.43355 0
M  V30 11923 S 1104.24 -5.29393 0.806442 0
M  V30 11924 C 1105.4 -6.25498 -0.224204 0
M  V30 11925 H 1105.63 -2.89728 0.666689 0
M  V30 11926 H 1103.16 -1.47359 0.460959 0
M  V30 11927 H 1105.12 -3.74516 -1.68071 0
M  V30 11928 H 1103.78 -2.582 -1.78862 0
M  V30 11929 H 1102.98 -4.89213 -1.21186 0
M  V30 11930 H 1102.58 -3.73908 0.0829136 0
M  V30 11931 H 1104.87 -6.68757 -1.08492 0
M  V30 11932 H 1105.81 -7.07023 0.390469 0
M  V30 11933 H 1106.22 -5.61633 -0.568214 0
M  V30 11934 N 1105.62 -0.414636 -1.52048 0
M  V30 11935 C 1106.86 0.159585 -2.02171 0
M  V30 11936 C 1107.2 1.44321 -1.29943 0
M  V30 11937 O 1106.47 1.90185 -0.407402 0
M  V30 11938 C 1106.76 0.401655 -3.57853 0
M  V30 11939 C 1106.61 -0.899026 -4.40724 0
M  V30 11940 C 1107.93 1.1814 -4.23947 0
M  V30 11941 H 1105.05 0.0565257 -0.734829 0
M  V30 11942 H 1107.69 -0.549183 -1.8189 0
M  V30 11943 H 1105.84 1.00541 -3.75265 0
M  V30 11944 H 1107.51 -1.53502 -4.35011 0
M  V30 11945 H 1105.75 -1.50877 -4.06717 0
M  V30 11946 H 1106.42 -0.683974 -5.47746 0
M  V30 11947 H 1108.9 0.670203 -4.10667 0
M  V30 11948 H 1107.78 1.31953 -5.32804 0
M  V30 11949 H 1108.04 2.2035 -3.83273 0
M  V30 11950 N 1107.1 1.56929 -0.145233 0
M  V30 11951 C 1108.34 1.96358 0.50707 0
M  V30 11952 C 1108.68 1.03005 1.64632 0
M  V30 11953 O 1107.95 0.0721045 1.94366 0
M  V30 11954 C 1108.23 3.45502 1.01492 0
M  V30 11955 C 1108.09 4.49633 -0.122708 0
M  V30 11956 C 1109.41 3.97103 1.89729 0
M  V30 11957 H 1106.52 0.713958 0.182848 0
M  V30 11958 H 1109.17 1.8865 -0.226102 0
M  V30 11959 H 1107.32 3.52202 1.6397 0
M  V30 11960 H 1108.99 4.55013 -0.758988 0
M  V30 11961 H 1107.23 4.26691 -0.782109 0
M  V30 11962 H 1107.9 5.51318 0.27432 0
M  V30 11963 H 1110.38 3.92871 1.37082 0
M  V30 11964 H 1109.25 5.01927 2.22173 0
M  V30 11965 H 1109.52 3.39354 2.83357 0
M  V30 11966 N 1108.58 -0.128553 1.57075 0
M  V30 11967 C 1109.51 -1.18822 1.94825 0
M  V30 11968 C 1110.49 -1.40609 0.816571 0
M  V30 11969 O 1111.67 -1.5492 1.07388 0
M  V30 11970 C 1108.8 -2.54383 2.23623 0
M  V30 11971 C 1107.84 -2.4908 3.4621 0
M  V30 11972 S 1108.68 -1.93974 4.99133 0
M  V30 11973 C 1109.83 -3.31228 5.31074 0
M  V30 11974 H 1110.07 -0.866246 2.844 0
M  V30 11975 H 1107.6 -0.334927 1.50724 0
M  V30 11976 H 1109.56 -3.32386 2.40893 0
M  V30 11977 H 1108.22 -2.83761 1.34678 0
M  V30 11978 H 1107.41 -3.48915 3.63695 0
M  V30 11979 H 1107.01 -1.79193 3.28277 0
M  V30 11980 H 1109.3 -4.27407 5.25671 0
M  V30 11981 H 1110.25 -3.18578 6.32387 0
M  V30 11982 H 1110.66 -3.29215 4.5856 0
M  V30 11983 N 1110.05 -1.5248 -0.398459 0
M  V30 11984 C 1110.98 -1.79549 -1.49279 0
M  V30 11985 C 1111.96 -0.647004 -1.57315 0
M  V30 11986 O 1113.15 -0.893661 -1.72416 0
M  V30 11987 C 1110.28 -1.95582 -2.86993 0
M  V30 11988 C 1109.23 -3.1123 -2.93803 0
M  V30 11989 C 1108.56 -3.12501 -4.33874 0
M  V30 11990 C 1109.86 -4.50485 -2.64312 0
M  V30 11991 H 1111.55 -2.71187 -1.26877 0
M  V30 11992 H 1109.1 -1.30492 -0.608924 0
M  V30 11993 H 1111.05 -2.13102 -3.63546 0
M  V30 11994 H 1109.78 -1.00625 -3.10712 0
M  V30 11995 H 1108.44 -2.93477 -2.19697 0
M  V30 11996 H 1108.08 -2.15245 -4.54619 0
M  V30 11997 H 1107.78 -3.90183 -4.39353 0
M  V30 11998 H 1109.31 -3.32164 -5.12347 0
M  V30 11999 H 1110.72 -4.68387 -3.30585 0
M  V30 12000 H 1109.12 -5.30163 -2.81153 0
M  V30 12001 H 1110.19 -4.57848 -1.59696 0
M  V30 12002 N 1111.53 0.65634 -1.43283 0
M  V30 12003 C 1112.76 1.44408 -1.48168 0
M  V30 12004 C 1113.17 1.88542 -0.0986016 0
M  V30 12005 O 1112.53 1.59298 0.890527 0
M  V30 12006 C 1112.58 2.68111 -2.42484 0
M  V30 12007 O 1112.3 2.25824 -3.75413 0
M  V30 12008 C 1113.8 3.61499 -2.56579 0
M  V30 12009 H 1111.02 0.443731 -0.503333 0
M  V30 12010 H 1113.57 0.804917 -1.87993 0
M  V30 12011 H 1111.72 3.28175 -2.05863 0
M  V30 12012 H 1112.14 3.05839 -4.26102 0
M  V30 12013 H 1113.61 4.44972 -3.26655 0
M  V30 12014 H 1114.09 4.08639 -1.60969 0
M  V30 12015 H 1114.69 3.07319 -2.93998 0
M  V30 12016 N 1113.01 1.29761 0.894412 0
M  V30 12017 C 1114.24 1.2094 1.67872 0
M  V30 12018 C 1114.65 -0.229192 1.87404 0
M  V30 12019 O 1114.01 -1.15278 1.41482 0
M  V30 12020 C 1114.06 1.92424 3.06032 0
M  V30 12021 O 1113.78 3.30665 2.87388 0
M  V30 12022 C 1115.28 1.90144 4.0045 0
M  V30 12023 H 1112.5 0.418942 0.524145 0
M  V30 12024 H 1115.05 1.71226 1.11813 0
M  V30 12025 H 1113.2 1.4596 3.58851 0
M  V30 12026 H 1113.62 3.66741 3.74969 0
M  V30 12027 H 1115.09 2.44716 4.94791 0
M  V30 12028 H 1115.57 0.878175 4.30331 0
M  V30 12029 H 1116.17 2.36375 3.53563 0
M  V30 12030 N 1114.49 -1.10549 1.12324 0
M  V30 12031 C 1115.42 -2.16657 0.747826 0
M  V30 12032 C 1116.43 -1.61238 -0.224981 0
M  V30 12033 O 1117.62 -1.78499 -0.00649408 0
M  V30 12034 C 1114.72 -3.38791 0.0859421 0
M  V30 12035 C 1113.89 -4.23655 1.08792 0
M  V30 12036 C 1112.95 -5.24239 0.453871 0
M  V30 12037 O 1111.98 -5.58262 1.11052 0
M  V30 12038 N 1113.18 -5.75246 -0.779215 0
M  V30 12039 H 1115.95 -2.49472 1.66084 0
M  V30 12040 H 1113.51 -1.26157 1.01469 0
M  V30 12041 H 1115.5 -4.03182 -0.350186 0
M  V30 12042 H 1114.07 -3.03961 -0.729807 0
M  V30 12043 H 1113.29 -3.55578 1.70171 0
M  V30 12044 H 1114.58 -4.77187 1.76549 0
M  V30 12045 H 1113.98 -5.49802 -1.3317 0
M  V30 12046 H 1112.53 -6.41428 -1.15818 0
M  V30 12047 N 1115.97 -0.914965 -1.28321 0
M  V30 12048 C 1117.21 -0.549562 -1.95212 0
M  V30 12049 C 1117.54 0.904658 -1.71842 0
M  V30 12050 O 1116.82 1.64354 -1.04009 0
M  V30 12051 C 1117.1 -0.860927 -3.49657 0
M  V30 12052 C 1116.96 -2.36797 -3.82423 0
M  V30 12053 C 1118.27 -0.357926 -4.38642 0
M  V30 12054 H 1115.39 -0.201136 -0.709023 0
M  V30 12055 H 1118.04 -1.14443 -1.51667 0
M  V30 12056 H 1116.19 -0.354665 -3.86878 0
M  V30 12057 H 1117.86 -2.94494 -3.55065 0
M  V30 12058 H 1116.1 -2.82245 -3.29424 0
M  V30 12059 H 1116.77 -2.53637 -4.90278 0
M  V30 12060 H 1119.25 -0.791636 -4.085 0
M  V30 12061 H 1118.12 -0.604855 -5.45557 0
M  V30 12062 H 1118.38 0.741775 -4.35833 0
M  V30 12063 N 1117.44 1.42219 -0.679077 0
M  V30 12064 C 1118.35 2.346 -0.00345919 0
M  V30 12065 C 1119.37 1.55327 0.784181 0
M  V30 12066 O 1120.55 1.87878 0.725524 0
M  V30 12067 C 1117.61 3.33905 0.933194 0
M  V30 12068 C 1116.67 4.29073 0.139607 0
M  V30 12069 C 1115.9 5.23634 1.03165 0
M  V30 12070 O 1116.13 5.23234 2.27119 0
M  V30 12071 O 1115.06 5.99901 0.490159 0
M  V30 12072 H 1118.89 2.9392 -0.764525 0
M  V30 12073 H 1116.47 1.42794 -0.439329 0
M  V30 12074 H 1118.35 3.949 1.47077 0
M  V30 12075 H 1117.03 2.77052 1.67404 0
M  V30 12076 H 1115.94 3.71478 -0.442177 0
M  V30 12077 H 1117.27 4.88979 -0.562214 0
M  V30 12078 N 1118.92 0.422693 1.51826 0
M  V30 12079 C 1120.34 0.0742364 1.59427 0
M  V30 12080 C 1120.54 -1.41491 1.43466 0
M  V30 12081 O 1119.59 -2.18326 1.26846 0
M  V30 12082 C 1120.91 0.581272 2.95028 0
M  V30 12083 C 1122.45 0.54043 3.08299 0
M  V30 12084 C 1122.93 1.0242 4.46401 0
M  V30 12085 N 1124.42 0.981576 4.5268 0
M  V30 12086 C 1125.16 1.32693 5.57835 0
M  V30 12087 N 1124.65 1.74441 6.70479 0
M  V30 12088 N 1126.44 1.24603 5.48115 0
M  V30 12089 H 1118.6 1.39178 1.60447 0
M  V30 12090 H 1120.86 0.572607 0.75553 0
M  V30 12091 H 1120.56 1.62261 3.12032 0
M  V30 12092 H 1120.44 -0.00176969 3.772 0
M  V30 12093 H 1122.83 -0.491895 2.90971 0
M  V30 12094 H 1122.91 1.15969 2.28002 0
M  V30 12095 H 1122.55 2.05491 4.64474 0
M  V30 12096 H 1122.48 0.381613 5.25215 0
M  V30 12097 H 1124.97 0.674808 3.71826 0
M  V30 12098 H 1125.28 1.99068 7.46721 0
M  V30 12099 H 1123.63 1.78356 6.71725 0
M  V30 12100 H 1126.82 0.918641 4.58997 0
M  V30 12101 H 1126.99 1.51847 6.29958 0
M  V30 12102 N 1120.4 -1.5685 0.153553 0
M  V30 12103 C 1121.65 -1.95946 -0.494936 0
M  V30 12104 C 1121.97 -1.03975 -1.64967 0
M  V30 12105 O 1121.24 -0.102572 -1.95631 0
M  V30 12106 H 1119.82 -0.723516 -0.185833 0
M  V30 12107 H 1122.48 -1.93531 0.230585 0
M  V30 12108 H 1121.58 -2.99823 -0.866743 0
M  V30 12109 N 1121.88 0.120221 -1.57141 0
M  V30 12110 C 1123.29 0.473718 -1.52408 0
M  V30 12111 C 1123.49 1.81925 -0.866354 0
M  V30 12112 O 1122.55 2.48491 -0.448173 0
M  V30 12113 C 1123.86 0.459338 -2.97171 0
M  V30 12114 C 1125.41 0.542975 -3.08254 0
M  V30 12115 C 1125.89 0.558996 -4.54576 0
M  V30 12116 N 1127.38 0.620469 -4.59026 0
M  V30 12117 C 1128.11 0.654292 -5.69655 0
M  V30 12118 N 1127.61 0.645835 -6.89783 0
M  V30 12119 N 1129.4 0.697208 -5.57759 0
M  V30 12120 H 1121.55 -0.76142 -1.98283 0
M  V30 12121 H 1123.81 -0.280736 -0.905479 0
M  V30 12122 H 1123.52 -0.461654 -3.48657 0
M  V30 12123 H 1123.39 1.28759 -3.54543 0
M  V30 12124 H 1125.78 1.45439 -2.56772 0
M  V30 12125 H 1125.86 -0.312936 -2.53879 0
M  V30 12126 H 1125.51 -0.348367 -5.06704 0
M  V30 12127 H 1125.44 1.43177 -5.06762 0
M  V30 12128 H 1127.93 0.633218 -3.72557 0
M  V30 12129 H 1128.24 0.674233 -7.69853 0
M  V30 12130 H 1126.59 0.613279 -6.92289 0
M  V30 12131 H 1129.78 0.70117 -4.62819 0
M  V30 12132 H 1129.95 0.7201 -6.43986 0
M  V30 12133 N 1123.36 1.52689 0.390367 0
M  V30 12134 C 1124.6 1.67914 1.13722 0
M  V30 12135 C 1124.94 0.417159 1.89667 0
M  V30 12136 O 1124.21 -0.585005 1.85494 0
M  V30 12137 C 1124.49 2.91331 2.11656 0
M  V30 12138 C 1124.35 4.27626 1.39484 0
M  V30 12139 C 1125.67 3.10293 3.12099 0
M  V30 12140 H 1122.78 0.611047 0.412057 0
M  V30 12141 H 1125.43 1.85283 0.420753 0
M  V30 12142 H 1123.58 2.76654 2.72754 0
M  V30 12143 H 1125.25 4.54068 0.813607 0
M  V30 12144 H 1123.49 4.28169 0.69669 0
M  V30 12145 H 1124.16 5.10066 2.11038 0
M  V30 12146 H 1126.64 3.23992 2.6109 0
M  V30 12147 H 1125.51 3.98127 3.7787 0
M  V30 12148 H 1125.78 2.24448 3.80888 0
M  V30 12149 N 1124.83 -0.648732 1.43629 0
M  V30 12150 C 1125.78 -1.76145 1.49136 0
M  V30 12151 C 1126.75 -1.62569 0.340649 0
M  V30 12152 O 1127.94 -1.82748 0.548435 0
M  V30 12153 C 1125.08 -3.14321 1.42466 0
M  V30 12154 C 1124.19 -3.38999 2.67776 0
M  V30 12155 C 1123.32 -4.67047 2.53062 0
M  V30 12156 C 1122.36 -4.84845 3.7362 0
M  V30 12157 N 1121.5 -6.04155 3.57689 0
M  V30 12158 H 1126.34 -1.70774 2.44213 0
M  V30 12159 H 1123.88 -0.833311 1.2122 0
M  V30 12160 H 1125.84 -3.94206 1.36592 0
M  V30 12161 H 1124.47 -3.18751 0.509666 0
M  V30 12162 H 1123.52 -2.53179 2.83909 0
M  V30 12163 H 1124.83 -3.48035 3.57314 0
M  V30 12164 H 1123.98 -5.55066 2.44922 0
M  V30 12165 H 1122.72 -4.60339 1.61056 0
M  V30 12166 H 1121.73 -3.95261 3.82163 0
M  V30 12167 H 1122.95 -4.9338 4.6664 0
M  V30 12168 H 1120.9 -5.9857 2.6842 0
M  V30 12169 H 1120.82 -6.14169 4.40832 0
M  V30 12170 H 1122.08 -6.94782 3.53409 0
M  V30 12171 N 1126.31 -1.30234 -0.887518 0
M  V30 12172 C 1127.55 -1.20191 -1.65328 0
M  V30 12173 C 1127.92 0.240121 -1.90493 0
M  V30 12174 O 1129.12 0.463744 -2.64769 0
M  V30 12175 C 1127.39 -2.00506 -2.95858 0
M  V30 12176 S 1128.95 -2.07133 -3.86835 0
M  V30 12177 H 1125.77 -0.428366 -0.567472 0
M  V30 12178 H 1128.37 -1.64677 -1.05364 0
M  V30 12179 H 1127.07 -3.04396 -2.75266 0
M  V30 12180 H 1126.6 -1.56672 -3.60857 0
M  V30 12181 H 1128.62 -1.19687 -4.81549 0
M  V30 12182 N 1127.79 1.09952 -1.12909 0
M  V30 12183 C 1128.74 2.14591 -0.77037 0
M  V30 12184 C 1129.72 1.59204 0.233021 0
M  V30 12185 O 1130.92 1.7696 0.0377599 0
M  V30 12186 C 1128.05 3.42514 -0.232117 0
M  V30 12187 C 1127.13 4.04823 -1.26409 0
M  V30 12188 N 1127.52 4.41763 -2.46331 0
M  V30 12189 C 1125.82 4.31951 -1.11062 0
M  V30 12190 C 1126.52 4.90778 -3.12269 0
M  V30 12191 N 1125.5 4.87896 -2.39704 0
M  V30 12192 H 1129.3 2.40951 -1.68285 0
M  V30 12193 H 1126.81 1.27125 -1.0106 0
M  V30 12194 H 1128.81 4.16878 0.0430853 0
M  V30 12195 H 1127.47 3.17612 0.674757 0
M  V30 12196 H 1128.48 4.33299 -2.83677 0
M  V30 12197 H 1125.16 4.16681 -0.261456 0
M  V30 12198 H 1126.55 5.28868 -4.14425 0
M  V30 12199 N 1129.27 0.921757 1.27833 0
M  V30 12200 C 1130.2 0.373575 2.26135 0
M  V30 12201 C 1131.21 -0.492414 1.55174 0
M  V30 12202 O 1132.4 -0.305998 1.75858 0
M  V30 12203 C 1129.5 -0.483911 3.35427 0
M  V30 12204 C 1128.68 0.361411 4.35904 0
M  V30 12205 C 1127.73 -0.432461 5.2442 0
M  V30 12206 O 1126.76 0.15777 5.68981 0
M  V30 12207 N 1127.96 -1.73367 5.54007 0
M  V30 12208 H 1130.73 1.21856 2.73809 0
M  V30 12209 H 1128.29 0.788552 1.41398 0
M  V30 12210 H 1130.28 -1.02193 3.91585 0
M  V30 12211 H 1128.85 -1.22963 2.874 0
M  V30 12212 H 1128.07 1.08076 3.79095 0
M  V30 12213 H 1129.36 0.939528 5.0005 0
M  V30 12214 H 1128.76 -2.23561 5.19651 0
M  V30 12215 H 1127.31 -2.21834 6.12889 0
M  V30 12216 N 1130.75 -1.41857 0.686609 0
M  V30 12217 C 1131.98 -2.05401 0.222238 0
M  V30 12218 C 1132.38 -1.51731 -1.13023 0
M  V30 12219 O 1131.73 -0.656701 -1.71561 0
M  V30 12220 C 1131.79 -3.59381 0.0926608 0
M  V30 12221 C 1131.45 -4.35801 1.37573 0
M  V30 12222 C 1132.45 -4.65678 2.31171 0
M  V30 12223 C 1130.14 -4.75233 1.62661 0
M  V30 12224 C 1132.13 -5.33936 3.48125 0
M  V30 12225 C 1129.82 -5.43229 2.79902 0
M  V30 12226 C 1130.81 -5.72507 3.72458 0
M  V30 12227 O 1130.5 -6.39106 4.87646 0
M  V30 12228 H 1130.23 -0.668126 0.102876 0
M  V30 12229 H 1132.79 -1.82775 0.93714 0
M  V30 12230 H 1131.02 -3.80711 -0.67793 0
M  V30 12231 H 1132.71 -4.04529 -0.333364 0
M  V30 12232 H 1133.47 -4.35704 2.13042 0
M  V30 12233 H 1129.35 -4.51831 0.914862 0
M  V30 12234 H 1132.9 -5.56706 4.20386 0
M  V30 12235 H 1128.79 -5.72621 2.97951 0
M  V30 12236 H 1129.56 -6.576 4.87344 0
M  V30 12237 N 1132.22 -0.430739 -1.51599 0
M  V30 12238 C 1133.47 0.130424 -2.02981 0
M  V30 12239 C 1133.83 1.40956 -1.30954 0
M  V30 12240 O 1133.12 1.87081 -0.413696 0
M  V30 12241 C 1133.31 0.410694 -3.55032 0
M  V30 12242 C 1133.14 -0.839732 -4.4179 0
M  V30 12243 C 1131.91 -1.37132 -4.86336 0
M  V30 12244 C 1134.11 -1.72401 -4.84543 0
M  V30 12245 N 1132.09 -2.57497 -5.57287 0
M  V30 12246 C 1133.46 -2.77376 -5.54493 0
M  V30 12247 C 1135.52 -1.73921 -4.66536 0
M  V30 12248 C 1134.22 -3.83808 -6.08345 0
M  V30 12249 C 1136.25 -2.79285 -5.213 0
M  V30 12250 C 1135.61 -3.82979 -5.91191 0
M  V30 12251 H 1131.71 0.00873155 -0.781951 0
M  V30 12252 H 1134.29 -0.589932 -1.85548 0
M  V30 12253 H 1132.46 1.10009 -3.72495 0
M  V30 12254 H 1134.19 0.962635 -3.93085 0
M  V30 12255 H 1130.95 -0.926198 -4.64455 0
M  V30 12256 H 1131.37 -3.18515 -5.97392 0
M  V30 12257 H 1136.02 -0.950851 -4.11969 0
M  V30 12258 H 1133.73 -4.63487 -6.61971 0
M  V30 12259 H 1137.32 -2.81395 -5.09223 0
M  V30 12260 H 1136.2 -4.63169 -6.32807 0
M  V30 12261 N 1133.7 1.56767 -0.161869 0
M  V30 12262 C 1135.11 1.83265 0.356466 0
M  V30 12263 C 1135.46 1.08127 1.63716 0
M  V30 12264 O 1134.59 0.33127 2.13849 0
M  V30 12265 C 1135.18 3.32437 0.653521 0
M  V30 12266 C 1133.74 3.59465 1.11633 0
M  V30 12267 C 1132.89 2.76909 0.147204 0
M  V30 12268 H 1135.84 1.53926 -0.386308 0
M  V30 12269 H 1135.86 3.49401 1.50662 0
M  V30 12270 H 1135.37 3.87098 -0.278766 0
M  V30 12271 H 1133.48 3.10206 2.06404 0
M  V30 12272 H 1133.59 4.67853 1.03202 0
M  V30 12273 H 1131.95 2.46457 0.642739 0
M  V30 12274 H 1132.74 3.34346 -0.778938 0
M  V30 12275 N 1135.18 -0.111886 1.57202 0
M  V30 12276 C 1136.09 -1.1556 2.04165 0
M  V30 12277 C 1137.11 -1.44898 0.963354 0
M  V30 12278 O 1138.28 -1.55873 1.27536 0
M  V30 12279 C 1135.35 -2.46048 2.44256 0
M  V30 12280 C 1134.41 -2.24043 3.66201 0
M  V30 12281 C 1133.64 -3.4831 4.04371 0
M  V30 12282 O 1133.86 -4.55895 3.42806 0
M  V30 12283 O 1132.8 -3.38891 4.9743 0
M  V30 12284 H 1136.62 -0.786778 2.93332 0
M  V30 12285 H 1134.21 -0.323196 1.45862 0
M  V30 12286 H 1136.09 -3.22916 2.70745 0
M  V30 12287 H 1134.77 -2.8239 1.58233 0
M  V30 12288 H 1133.67 -1.4501 3.44852 0
M  V30 12289 H 1135.01 -1.92602 4.52952 0
M  V30 12290 N 1136.66 -1.52894 -0.382264 0
M  V30 12291 C 1138.07 -1.60135 -0.959887 0
M  V30 12292 C 1138.42 -0.458363 -1.90771 0
M  V30 12293 O 1137.55 0.417614 -2.12332 0
M  V30 12294 C 1138.14 -2.90243 -1.74769 0
M  V30 12295 C 1136.7 -2.99874 -2.27491 0
M  V30 12296 C 1135.85 -2.55302 -1.0824 0
M  V30 12297 H 1138.8 -1.57875 -0.161589 0
M  V30 12298 H 1138.82 -2.77108 -2.60751 0
M  V30 12299 H 1138.33 -3.73412 -1.0576 0
M  V30 12300 H 1136.43 -2.21258 -2.99793 0
M  V30 12301 H 1136.54 -4.04643 -2.56516 0
M  V30 12302 H 1134.91 -2.09781 -1.44444 0
M  V30 12303 H 1135.69 -3.40872 -0.407553 0
M  V30 12304 N 1138.14 0.641106 -1.43971 0
M  V30 12305 C 1139.37 1.42829 -1.49692 0
M  V30 12306 C 1139.78 1.88427 -0.118594 0
M  V30 12307 O 1139.14 1.60234 0.873581 0
M  V30 12308 C 1139.19 2.65524 -2.45314 0
M  V30 12309 O 1138.91 2.2183 -3.77787 0
M  V30 12310 C 1140.41 3.58758 -2.60399 0
M  V30 12311 H 1137.63 0.438367 -0.508011 0
M  V30 12312 H 1140.17 0.784933 -1.88836 0
M  V30 12313 H 1138.33 3.25973 -2.09332 0
M  V30 12314 H 1138.74 3.01303 -4.29321 0
M  V30 12315 H 1140.22 4.41483 -3.31357 0
M  V30 12316 H 1140.69 4.06909 -1.65294 0
M  V30 12317 H 1141.3 3.04184 -2.97241 0
M  V30 12318 N 1139.62 1.30703 0.880598 0
M  V30 12319 C 1140.86 1.19541 1.62955 0
M  V30 12320 C 1141.18 -0.249089 1.93403 0
M  V30 12321 O 1140.45 -1.1669 1.57354 0
M  V30 12322 H 1139.03 0.439434 0.604075 0
M  V30 12323 H 1141.7 1.63888 1.05483 0
M  V30 12324 H 1140.79 1.75945 2.57779 0
M  V30 12325 N 1141.09 -1.09351 1.1349 0
M  V30 12326 C 1142.32 -1.85844 0.92069 0
M  V30 12327 C 1142.74 -1.80616 -0.525303 0
M  V30 12328 O 1142.1 -1.1842 -1.37282 0
M  V30 12329 C 1142.15 -3.31716 1.4141 0
M  V30 12330 O 1141.25 -4.08014 0.599838 0
M  V30 12331 H 1140.59 -0.576242 0.32991 0
M  V30 12332 H 1143.12 -1.38084 1.50976 0
M  V30 12333 H 1143.13 -3.82564 1.41805 0
M  V30 12334 H 1141.81 -3.34837 2.46692 0
M  V30 12335 H 1140.39 -3.66944 0.663816 0
M  V30 12336 N 1142.57 -0.928524 -1.27343 0
M  V30 12337 C 1143.8 -0.58516 -1.98974 0
M  V30 12338 C 1144.22 0.829964 -1.68799 0
M  V30 12339 O 1143.58 1.55705 -0.928738 0
M  V30 12340 C 1143.63 -0.818662 -3.51184 0
M  V30 12341 O 1142.73 0.115355 -4.12239 0
M  V30 12342 H 1142.07 -0.225203 -0.624644 0
M  V30 12343 H 1144.6 -1.248 -1.6213 0
M  V30 12344 H 1144.61 -0.734554 -4.01333 0
M  V30 12345 H 1143.29 -1.8502 -3.72479 0
M  V30 12346 H 1141.86 -0.0187371 -3.72895 0
M  V30 12347 N 1144.05 1.41491 -0.694123 0
M  V30 12348 C 1145.27 2.06099 -0.23197 0
M  V30 12349 C 1145.7 1.51888 1.10958 0
M  V30 12350 O 1145.06 0.645247 1.69429 0
M  V30 12351 C 1145.11 3.60053 -0.198522 0
M  V30 12352 O 1144.21 4.04021 0.827067 0
M  V30 12353 H 1143.55 0.654193 -0.113699 0
M  V30 12354 H 1146.08 1.81282 -0.948575 0
M  V30 12355 H 1146.09 4.0799 -0.0288904 0
M  V30 12356 H 1144.77 3.98879 -1.17764 0
M  V30 12357 H 1143.34 3.67593 0.626908 0
M  V30 12358 N 1145.53 0.438773 1.51369 0
M  V30 12359 C 1146.76 -0.125665 2.06217 0
M  V30 12360 C 1147.17 -1.36887 1.30609 0
M  V30 12361 O 1146.51 -1.80149 0.359433 0
M  V30 12362 C 1146.57 -0.511846 3.55838 0
M  V30 12363 C 1146.23 0.624755 4.52709 0
M  V30 12364 C 1147.23 1.49731 4.97872 0
M  V30 12365 C 1144.92 0.805895 4.95793 0
M  V30 12366 C 1146.91 2.53569 5.84792 0
M  V30 12367 C 1144.6 1.84755 5.82502 0
M  V30 12368 C 1145.6 2.71083 6.269 0
M  V30 12369 O 1145.28 3.7346 7.11887 0
M  V30 12370 H 1145.02 -0.0107227 0.675915 0
M  V30 12371 H 1147.57 0.617071 1.95912 0
M  V30 12372 H 1145.8 -1.30731 3.63932 0
M  V30 12373 H 1147.49 -1.0076 3.93195 0
M  V30 12374 H 1148.25 1.36891 4.65281 0
M  V30 12375 H 1144.13 0.14352 4.60777 0
M  V30 12376 H 1147.68 3.20984 6.19367 0
M  V30 12377 H 1143.57 1.97614 6.14507 0
M  V30 12378 H 1144.34 3.70058 7.30068 0
M  V30 12379 N 1147.01 -1.56678 0.170181 0
M  V30 12380 C 1148.25 -1.9646 -0.474125 0
M  V30 12381 C 1148.57 -1.05719 -1.63855 0
M  V30 12382 O 1147.84 -0.123316 -1.95511 0
M  V30 12383 H 1146.42 -0.725446 -0.178149 0
M  V30 12384 H 1149.09 -1.93276 0.251099 0
M  V30 12385 H 1148.18 -3.00726 -0.834894 0
M  V30 12386 N 1148.48 0.103547 -1.57259 0
M  V30 12387 C 1149.72 0.814289 -1.8748 0
M  V30 12388 C 1150.09 1.76312 -0.760126 0
M  V30 12389 O 1151.29 2.51659 -0.944514 0
M  V30 12390 C 1149.56 1.53119 -3.22938 0
M  V30 12391 S 1151.12 2.28138 -3.74831 0
M  V30 12392 H 1147.94 0.271464 -0.657136 0
M  V30 12393 H 1150.54 0.07183 -1.95368 0
M  V30 12394 H 1149.24 0.826397 -4.01994 0
M  V30 12395 H 1148.77 2.31372 -3.18167 0
M  V30 12396 H 1150.79 3.54132 -3.4757 0
M  V30 12397 N 1149.96 1.53094 0.37415 0
M  V30 12398 C 1151.19 1.72508 1.13687 0
M  V30 12399 C 1151.6 0.449922 1.83773 0
M  V30 12400 O 1150.94 -0.586391 1.74089 0
M  V30 12401 C 1151 2.82965 2.21746 0
M  V30 12402 C 1150.67 4.23599 1.71501 0
M  V30 12403 C 1151.67 5.06245 1.1837 0
M  V30 12404 C 1149.35 4.69978 1.77273 0
M  V30 12405 C 1151.34 6.33357 0.71679 0
M  V30 12406 C 1149.03 5.9707 1.30194 0
M  V30 12407 C 1150.03 6.7859 0.774856 0
M  V30 12408 O 1149.72 8.03298 0.310981 0
M  V30 12409 H 1149.45 0.580611 0.346218 0
M  V30 12410 H 1152 2.00596 0.441614 0
M  V30 12411 H 1150.23 2.5033 2.9474 0
M  V30 12412 H 1151.92 2.90638 2.83345 0
M  V30 12413 H 1152.69 4.71591 1.13256 0
M  V30 12414 H 1148.57 4.06605 2.17241 0
M  V30 12415 H 1152.11 6.96934 0.30471 0
M  V30 12416 H 1148.01 6.31225 1.34999 0
M  V30 12417 H 1148.78 8.17364 0.431098 0
M  V30 12418 N 1151.44 -0.633461 1.44309 0
M  V30 12419 C 1152.37 -1.75868 1.4698 0
M  V30 12420 C 1153.38 -1.58691 0.363469 0
M  V30 12421 O 1154.57 -1.67048 0.629075 0
M  V30 12422 C 1151.67 -3.1356 1.28582 0
M  V30 12423 C 1150.85 -3.57217 2.52418 0
M  V30 12424 C 1149.91 -4.73779 2.28954 0
M  V30 12425 O 1148.93 -4.8221 3.02428 0
M  V30 12426 N 1150.13 -5.65324 1.31866 0
M  V30 12427 H 1152.9 -1.74048 2.43983 0
M  V30 12428 H 1150.46 -0.817952 1.39718 0
M  V30 12429 H 1152.45 -3.89255 1.10736 0
M  V30 12430 H 1151.02 -3.10036 0.399529 0
M  V30 12431 H 1150.24 -2.71755 2.85557 0
M  V30 12432 H 1151.53 -3.83136 3.3479 0
M  V30 12433 H 1150.93 -5.61204 0.71179 0
M  V30 12434 H 1149.48 -6.40659 1.19998 0
M  V30 12435 N 1152.92 -1.31168 -0.873655 0
M  V30 12436 C 1154.16 -1.20821 -1.62881 0
M  V30 12437 C 1154.5 0.233994 -1.92785 0
M  V30 12438 O 1153.77 1.16588 -1.55684 0
M  V30 12439 C 1154.06 -2.04875 -2.96139 0
M  V30 12440 C 1153.91 -3.57375 -2.73136 0
M  V30 12441 C 1155.23 -1.8953 -3.97198 0
M  V30 12442 H 1152.35 -0.44026 -0.59105 0
M  V30 12443 H 1154.99 -1.6092 -1.01019 0
M  V30 12444 H 1153.14 -1.70806 -3.48938 0
M  V30 12445 H 1154.81 -4.01561 -2.27038 0
M  V30 12446 H 1153.05 -3.8099 -2.07434 0
M  V30 12447 H 1153.72 -4.1149 -3.6794 0
M  V30 12448 H 1156.2 -2.19337 -3.53596 0
M  V30 12449 H 1155.08 -2.5065 -4.8833 0
M  V30 12450 H 1155.34 -0.857576 -4.33703 0
M  V30 12451 N 1154.4 1.08748 -1.14068 0
M  V30 12452 C 1155.62 1.84814 -0.930138 0
M  V30 12453 C 1156.04 1.81461 0.521267 0
M  V30 12454 O 1155.4 1.21577 1.36108 0
M  V30 12455 C 1155.45 3.32501 -1.41863 0
M  V30 12456 O 1155.17 3.35846 -2.81317 0
M  V30 12457 C 1156.67 4.25384 -1.24753 0
M  V30 12458 H 1153.89 0.583546 -0.331233 0
M  V30 12459 H 1156.43 1.37366 -1.51495 0
M  V30 12460 H 1154.59 3.7735 -0.876664 0
M  V30 12461 H 1155 4.28013 -3.03159 0
M  V30 12462 H 1156.48 5.27138 -1.63798 0
M  V30 12463 H 1156.95 4.38789 -0.18999 0
M  V30 12464 H 1157.56 3.86357 -1.77787 0
M  V30 12465 N 1155.87 0.935264 1.26849 0
M  V30 12466 C 1157.11 0.587087 1.95787 0
M  V30 12467 C 1157.48 -0.856974 1.71814 0
M  V30 12468 O 1158.68 -1.3138 2.34505 0
M  V30 12469 C 1156.95 0.91303 3.45541 0
M  V30 12470 S 1158.51 0.674506 4.33585 0
M  V30 12471 H 1155.33 0.216442 0.677255 0
M  V30 12472 H 1157.93 1.20532 1.53923 0
M  V30 12473 H 1156.63 1.96154 3.60488 0
M  V30 12474 H 1156.16 0.28429 3.92371 0
M  V30 12475 H 1158.18 -0.464121 4.94025 0
M  V30 12476 N 1157.35 -1.41121 0.701616 0
M  V30 12477 C 1158.3 -2.27994 0.0168361 0
M  V30 12478 C 1159.29 -1.42523 -0.746733 0
M  V30 12479 O 1160.48 -1.6574 -0.621232 0
M  V30 12480 C 1157.61 -3.30898 -0.914417 0
M  V30 12481 C 1156.69 -4.23846 -0.146776 0
M  V30 12482 N 1157.08 -4.9839 0.862624 0
M  V30 12483 C 1155.38 -4.44366 -0.38138 0
M  V30 12484 C 1156.08 -5.66463 1.32266 0
M  V30 12485 N 1155.06 -5.39731 0.647433 0
M  V30 12486 H 1158.86 -2.83065 0.790675 0
M  V30 12487 H 1156.38 -1.53405 0.532977 0
M  V30 12488 H 1158.37 -3.91964 -1.4202 0
M  V30 12489 H 1157.03 -2.77387 -1.68779 0
M  V30 12490 H 1158.04 -5.02761 1.24305 0
M  V30 12491 H 1154.72 -4.01856 -1.13216 0
M  V30 12492 H 1156.11 -6.36213 2.16061 0
M  V30 12493 N 1158.83 -0.446794 -1.51134 0
M  V30 12494 C 1160.06 0.117242 -2.07068 0
M  V30 12495 C 1160.48 1.34877 -1.3111 0
M  V30 12496 O 1159.84 1.77856 -0.35172 0
M  V30 12497 C 1159.89 0.408616 -3.58277 0
M  V30 12498 O 1158.99 1.49345 -3.84408 0
M  V30 12499 H 1158.33 -0.00228458 -0.663996 0
M  V30 12500 H 1160.86 -0.63085 -1.94632 0
M  V30 12501 H 1160.87 0.656298 -4.02687 0
M  V30 12502 H 1159.55 -0.491444 -4.12986 0
M  V30 12503 H 1158.12 1.23499 -3.51856 0
M  V30 12504 N 1160.31 1.56586 -0.178487 0
M  V30 12505 C 1161.22 2.21903 0.761321 0
M  V30 12506 C 1162.23 1.21289 1.2476 0
M  V30 12507 O 1163.41 1.53974 1.29823 0
M  V30 12508 C 1160.48 2.85259 1.97048 0
M  V30 12509 C 1159.54 4.01095 1.53039 0
M  V30 12510 C 1158.77 4.61421 2.68191 0
M  V30 12511 O 1158.99 4.20644 3.85247 0
M  V30 12512 O 1157.93 5.51171 2.41855 0
M  V30 12513 H 1161.75 3.02788 0.235141 0
M  V30 12514 H 1159.34 1.49316 0.0500442 0
M  V30 12515 H 1161.22 3.25404 2.6775 0
M  V30 12516 H 1159.89 2.07366 2.48558 0
M  V30 12517 H 1158.8 3.65606 0.792661 0
M  V30 12518 H 1160.13 4.80603 1.06213 0
M  V30 12519 N 1161.79 -0.095206 1.57312 0
M  V30 12520 C 1162.7 -1.13388 2.05379 0
M  V30 12521 C 1163.71 -1.43868 0.978668 0
M  V30 12522 O 1164.89 -1.54512 1.29182 0
M  V30 12523 C 1161.95 -2.43444 2.46852 0
M  V30 12524 C 1161.01 -2.20146 3.68557 0
M  V30 12525 C 1160.25 -3.44001 4.08043 0
M  V30 12526 O 1160.47 -4.52233 3.47623 0
M  V30 12527 O 1159.4 -3.33596 5.00997 0
M  V30 12528 H 1163.23 -0.755622 2.9415 0
M  V30 12529 H 1160.82 -0.307707 1.46197 0
M  V30 12530 H 1162.7 -3.20027 2.74155 0
M  V30 12531 H 1161.37 -2.80696 1.61219 0
M  V30 12532 H 1160.28 -1.41345 3.46371 0
M  V30 12533 H 1161.61 -1.87787 4.54969 0
M  V30 12534 N 1163.26 -1.53291 -0.366026 0
M  V30 12535 C 1164.51 -1.69117 -1.10653 0
M  V30 12536 C 1164.83 -0.445327 -1.89847 0
M  V30 12537 O 1164.1 0.540616 -1.88293 0
M  V30 12538 H 1162.68 -0.623446 -0.41149 0
M  V30 12539 H 1165.35 -1.90479 -0.412749 0
M  V30 12540 H 1164.44 -2.55205 -1.79658 0
M  V30 12541 N 1164.74 0.6258 -1.44643 0
M  V30 12542 C 1165.69 1.75869 -1.52226 0
M  V30 12543 C 1166.68 1.64765 -0.39355 0
M  V30 12544 O 1167.89 1.70779 -0.568718 0
M  V30 12545 H 1164.27 0.580712 -0.477784 0
M  V30 12546 H 1166.24 1.66596 -2.47565 0
M  V30 12547 C 1164.99 3.14217 -1.48873 0
M  V30 12548 H 1164.31 3.23411 -2.35043 0
M  V30 12549 H 1165.75 3.93365 -1.58239 0
M  V30 12550 C 1164.21 3.36243 -0.210299 0
M  V30 12551 O 1164.74 3.95243 0.717335 0
M  V30 12552 N 1162.94 2.90385 -0.111744 0
M  V30 12553 H 1162.49 2.42555 -0.867466 0
M  V30 12554 H 1162.45 3.05498 0.742871 0
M  V30 12555 N 1166.22 1.31629 0.866686 0
M  V30 12556 C 1167.45 1.24474 1.65269 0
M  V30 12557 C 1167.86 -0.18939 1.87848 0
M  V30 12558 O 1167.22 -1.12251 1.43895 0
M  V30 12559 C 1167.27 1.98872 3.01881 0
M  V30 12560 O 1166.99 3.36687 2.8031 0
M  V30 12561 C 1168.49 1.98595 3.96327 0
M  V30 12562 H 1165.71 0.429966 0.515141 0
M  V30 12563 H 1168.26 1.73559 1.08156 0
M  V30 12564 H 1166.41 1.53539 3.55675 0
M  V30 12565 H 1166.83 3.74612 3.67105 0
M  V30 12566 H 1168.3 2.55156 4.89489 0
M  V30 12567 H 1168.78 0.969257 4.28371 0
M  V30 12568 H 1169.38 2.43821 3.4847 0
M  V30 12569 N 1167.7 -1.08142 1.14644 0
M  V30 12570 C 1168.66 -2.13308 0.83859 0
M  V30 12571 C 1169.66 -1.60022 -0.158012 0
M  V30 12572 O 1170.85 -1.74057 0.0706621 0
M  V30 12573 C 1167.98 -3.39978 0.250591 0
M  V30 12574 H 1169.18 -2.42049 1.77066 0
M  V30 12575 H 1166.73 -1.23899 0.952828 0
M  V30 12576 H 1167.47 -3.16873 -0.690064 0
M  V30 12577 H 1167.25 -3.79952 0.968456 0
M  V30 12578 H 1168.74 -4.17567 0.0525115 0
M  V30 12579 N 1169.18 -0.941978 -1.26351 0
M  V30 12580 C 1170.41 -0.605868 -1.97517 0
M  V30 12581 C 1170.82 0.823583 -1.70334 0
M  V30 12582 O 1170.16 1.56085 -0.968662 0
M  V30 12583 C 1170.22 -0.769201 -3.51175 0
M  V30 12584 C 1169.88 -2.17343 -4.02009 0
M  V30 12585 C 1170.88 -3.14898 -4.13685 0
M  V30 12586 C 1168.57 -2.49422 -4.35998 0
M  V30 12587 C 1170.56 -4.42631 -4.58646 0
M  V30 12588 C 1168.25 -3.77388 -4.80647 0
M  V30 12589 C 1169.25 -4.73806 -4.91932 0
M  V30 12590 O 1168.93 -5.99493 -5.35596 0
M  V30 12591 H 1168.67 -0.227113 -0.636707 0
M  V30 12592 H 1171.22 -1.26523 -1.61806 0
M  V30 12593 H 1169.45 -0.0527104 -3.86664 0
M  V30 12594 H 1171.14 -0.436032 -4.03551 0
M  V30 12595 H 1171.9 -2.91438 -3.87671 0
M  V30 12596 H 1167.78 -1.7511 -4.26448 0
M  V30 12597 H 1171.33 -5.17892 -4.67369 0
M  V30 12598 H 1167.22 -4.0066 -5.06105 0
M  V30 12599 H 1167.99 -6.02687 -5.53815 0
M  V30 12600 N 1170.66 1.40747 -0.709091 0
M  V30 12601 C 1171.9 2.00233 -0.242836 0
M  V30 12602 C 1172.22 1.56853 1.1686 0
M  V30 12603 O 1173.42 2.08993 1.73304 0
M  V30 12604 C 1171.88 3.57854 -0.383241 0
M  V30 12605 C 1171.49 4.10209 -1.80091 0
M  V30 12606 C 1173.23 4.24494 0.0225511 0
M  V30 12607 C 1171.14 5.60311 -1.89225 0
M  V30 12608 H 1170.07 0.74896 -0.087034 0
M  V30 12609 H 1172.72 1.61064 -0.879243 0
M  V30 12610 H 1171.1 3.94692 0.321642 0
M  V30 12611 H 1172.28 3.84762 -2.53564 0
M  V30 12612 H 1170.59 3.56142 -2.15758 0
M  V30 12613 H 1173.19 5.34694 -0.0250644 0
M  V30 12614 H 1173.53 4.02488 1.06344 0
M  V30 12615 H 1174.06 3.92739 -0.632541 0
M  V30 12616 H 1170.8 5.87162 -2.91412 0
M  V30 12617 H 1170.32 5.87642 -1.20154 0
M  V30 12618 H 1172 6.25306 -1.66136 0
M  V30 12619 N 1172.13 0.454803 1.50895 0
M  V30 12620 C 1173.38 -0.10577 2.02224 0
M  V30 12621 C 1173.71 -1.41176 1.33789 0
M  V30 12622 O 1172.96 -1.90522 0.447181 0
M  V30 12623 C 1173.26 -0.354159 3.55641 0
M  V30 12624 C 1172.93 0.868136 4.42464 0
M  V30 12625 C 1171.59 1.2033 4.65912 0
M  V30 12626 C 1173.94 1.68272 4.93289 0
M  V30 12627 C 1171.27 2.3534 5.37431 0
M  V30 12628 C 1173.62 2.82396 5.6607 0
M  V30 12629 C 1172.29 3.16346 5.87777 0
M  V30 12630 H 1171.56 -0.0387041 0.739989 0
M  V30 12631 H 1174.2 0.605564 1.81673 0
M  V30 12632 H 1172.51 -1.14757 3.74617 0
M  V30 12633 H 1174.21 -0.8016 3.92906 0
M  V30 12634 H 1170.8 0.596995 4.24422 0
M  V30 12635 H 1174.98 1.43698 4.75042 0
M  V30 12636 H 1170.24 2.61936 5.52449 0
M  V30 12637 H 1174.41 3.45873 6.04438 0
M  V30 12638 H 1172.04 4.05574 6.42973 0
M  V30 12639 N 1173.61 -1.56489 0.186789 0
M  V30 12640 C 1175.03 -1.58701 -0.169176 0
M  V30 12641 C 1175.23 -1.2027 -1.61671 0
M  V30 12642 O 1174.28 -0.92154 -2.35083 0
M  V30 12643 C 1175.6 -3.00437 0.125657 0
M  V30 12644 C 1177.14 -3.12932 0.0651 0
M  V30 12645 C 1177.62 -4.56787 0.333131 0
M  V30 12646 N 1179.11 -4.62344 0.281453 0
M  V30 12647 C 1179.85 -5.71529 0.462805 0
M  V30 12648 N 1179.34 -6.89213 0.704054 0
M  V30 12649 N 1181.13 -5.60692 0.397636 0
M  V30 12650 H 1173.29 -1.79754 1.13148 0
M  V30 12651 H 1175.55 -0.83385 0.450997 0
M  V30 12652 H 1175.25 -3.33086 1.12901 0
M  V30 12653 H 1175.13 -3.72782 -0.575612 0
M  V30 12654 H 1177.52 -2.80101 -0.928845 0
M  V30 12655 H 1177.6 -2.42991 0.799318 0
M  V30 12656 H 1177.24 -4.9033 1.32436 0
M  V30 12657 H 1177.17 -5.24907 -0.421879 0
M  V30 12658 H 1179.66 -3.77764 0.101266 0
M  V30 12659 H 1179.97 -7.68314 0.831468 0
M  V30 12660 H 1178.32 -6.9104 0.740851 0
M  V30 12661 H 1181.51 -4.6763 0.20964 0
M  V30 12662 H 1181.68 -6.45726 0.54239 0
M  V30 12663 N 1175.09 0.086862 -1.5736 0
M  V30 12664 C 1176.04 1.10478 -2.02641 0
M  V30 12665 C 1177.01 1.39331 -0.904219 0
M  V30 12666 O 1178.19 1.50654 -1.17081 0
M  V30 12667 C 1175.33 2.41754 -2.4627 0
M  V30 12668 C 1174.44 2.19561 -3.72044 0
M  V30 12669 C 1173.58 3.44294 -4.04519 0
M  V30 12670 C 1172.62 3.17399 -5.23378 0
M  V30 12671 N 1171.76 4.3442 -5.51564 0
M  V30 12672 H 1176.6 0.711663 -2.89378 0
M  V30 12673 H 1174.13 0.339856 -1.4312 0
M  V30 12674 H 1176.09 3.18378 -2.69613 0
M  V30 12675 H 1174.72 2.78896 -1.62532 0
M  V30 12676 H 1173.77 1.337 -3.5613 0
M  V30 12677 H 1175.08 1.95685 -4.58812 0
M  V30 12678 H 1174.24 4.29321 -4.28682 0
M  V30 12679 H 1172.98 3.71232 -3.16289 0
M  V30 12680 H 1171.98 2.30765 -4.99026 0
M  V30 12681 H 1173.21 2.91799 -6.13213 0
M  V30 12682 H 1171.15 4.61418 -4.66293 0
M  V30 12683 H 1171.07 4.13764 -6.3272 0
M  V30 12684 H 1172.34 5.20489 -5.80269 0
M  V30 12685 N 1176.57 1.53483 0.357892 0
M  V30 12686 C 1177.5 1.75257 1.46151 0
M  V30 12687 C 1178.48 0.601167 1.51079 0
M  V30 12688 O 1179.66 0.834661 1.69014 0
M  V30 12689 C 1176.79 1.8383 2.84472 0
M  V30 12690 C 1175.84 3.05866 2.97234 0
M  V30 12691 S 1176.67 4.65225 2.6519 0
M  V30 12692 C 1177.82 4.76657 4.05646 0
M  V30 12693 H 1178.06 2.6859 1.27462 0
M  V30 12694 H 1175.59 1.44169 0.552697 0
M  V30 12695 H 1177.55 1.89454 3.64167 0
M  V30 12696 H 1176.21 0.915345 3.00467 0
M  V30 12697 H 1175.4 3.08497 3.98555 0
M  V30 12698 H 1175 2.98393 2.25471 0
M  V30 12699 H 1177.3 4.57185 4.99988 0
M  V30 12700 H 1178.24 5.7873 4.08016 0
M  V30 12701 H 1178.65 4.05226 3.93004 0
M  V30 12702 N 1178.05 -0.61812 1.44973 0
M  V30 12703 C 1179.27 -1.40429 1.51945 0
M  V30 12704 C 1179.69 -1.88215 0.148556 0
M  V30 12705 O 1179.05 -1.61603 -0.847978 0
M  V30 12706 C 1179.1 -2.61588 2.49507 0
M  V30 12707 O 1178.82 -2.15791 3.81269 0
M  V30 12708 C 1180.32 -3.5457 2.66074 0
M  V30 12709 H 1177.54 -0.43023 0.514921 0
M  V30 12710 H 1180.08 -0.754791 1.90061 0
M  V30 12711 H 1178.24 -3.22602 2.14492 0
M  V30 12712 H 1178.65 -2.94434 4.34061 0
M  V30 12713 H 1180.13 -4.36155 3.38338 0
M  V30 12714 H 1180.6 -4.04227 1.71746 0
M  V30 12715 H 1181.21 -2.99416 3.02043 0
M  V30 12716 N 1179.52 -1.32087 -0.859693 0
M  V30 12717 C 1180.45 -1.23204 -1.98351 0
M  V30 12718 C 1181.43 -0.116974 -1.69697 0
M  V30 12719 O 1182.62 -0.303301 -1.91817 0
M  V30 12720 C 1179.75 -0.949171 -3.34078 0
M  V30 12721 C 1178.7 -2.02493 -3.77069 0
M  V30 12722 C 1178.03 -1.59455 -5.1037 0
M  V30 12723 C 1179.33 -3.43934 -3.93074 0
M  V30 12724 H 1181.02 -2.17227 -2.0604 0
M  V30 12725 H 1178.57 -1.04577 -0.989931 0
M  V30 12726 H 1180.52 -0.873594 -4.12245 0
M  V30 12727 H 1179.25 0.0267095 -3.26589 0
M  V30 12728 H 1177.91 -2.09057 -3.01149 0
M  V30 12729 H 1177.55 -0.606256 -4.99333 0
M  V30 12730 H 1177.25 -2.31429 -5.40106 0
M  V30 12731 H 1178.78 -1.53325 -5.91036 0
M  V30 12732 H 1180.19 -3.39986 -4.61608 0
M  V30 12733 H 1178.59 -4.14214 -4.3422 0
M  V30 12734 H 1179.66 -3.83965 -2.9614 0
M  V30 12735 N 1181 1.07532 -1.15215 0
M  V30 12736 C 1182.25 1.80093 -0.925891 0
M  V30 12737 C 1182.58 1.86648 0.547079 0
M  V30 12738 O 1181.83 1.34492 1.42164 0
M  V30 12739 C 1182.13 3.2518 -1.483 0
M  V30 12740 C 1181.8 3.38728 -2.97614 0
M  V30 12741 C 1180.46 3.42133 -3.38376 0
M  V30 12742 C 1182.81 3.41676 -3.93583 0
M  V30 12743 C 1180.14 3.46086 -4.73752 0
M  V30 12744 C 1182.49 3.47166 -5.28828 0
M  V30 12745 C 1181.15 3.48847 -5.69089 0
M  V30 12746 H 1180.42 0.659007 -0.338808 0
M  V30 12747 H 1183.07 1.26548 -1.43728 0
M  V30 12748 H 1181.38 3.81493 -0.892751 0
M  V30 12749 H 1183.07 3.79895 -1.28376 0
M  V30 12750 H 1179.66 3.36775 -2.65105 0
M  V30 12751 H 1183.85 3.38268 -3.63165 0
M  V30 12752 H 1179.1 3.45686 -5.04293 0
M  V30 12753 H 1183.28 3.48393 -6.02989 0
M  V30 12754 H 1180.9 3.51663 -6.73971 0
M  V30 12755 N 1182.48 0.948665 1.2585 0
M  V30 12756 C 1183.43 0.455115 2.28104 0
M  V30 12757 C 1184.42 -0.471508 1.62706 0
M  V30 12758 O 1185.63 -0.348895 1.76586 0
M  V30 12759 H 1182 0.128659 0.740912 0
M  V30 12760 H 1183.97 1.32991 2.67125 0
M  V30 12761 C 1182.72 -0.25729 3.46747 0
M  V30 12762 H 1182.05 0.44658 3.97298 0
M  V30 12763 H 1183.49 -0.566736 4.20195 0
M  V30 12764 C 1181.95 -1.47772 3.02762 0
M  V30 12765 O 1182.48 -2.57571 3.08253 0
M  V30 12766 N 1180.68 -1.33694 2.5802 0
M  V30 12767 H 1180.23 -0.443595 2.53752 0
M  V30 12768 H 1180.19 -2.1547 2.28954 0
M  V30 12769 N 1183.96 -1.40369 0.716545 0
M  V30 12770 C 1184.89 -2.29186 0.0251905 0
M  V30 12771 C 1185.9 -1.45877 -0.722761 0
M  V30 12772 O 1187.09 -1.69155 -0.569982 0
M  V30 12773 C 1184.19 -3.24161 -0.988589 0
M  V30 12774 C 1183.37 -4.36329 -0.30597 0
M  V30 12775 C 1182.42 -5.11736 -1.22527 0
M  V30 12776 O 1181.45 -5.64758 -0.7097 0
M  V30 12777 N 1182.65 -5.21183 -2.55634 0
M  V30 12778 H 1185.42 -2.8916 0.787808 0
M  V30 12779 H 1182.98 -1.51749 0.564253 0
M  V30 12780 H 1184.97 -3.71479 -1.60578 0
M  V30 12781 H 1183.54 -2.65347 -1.65256 0
M  V30 12782 H 1182.76 -3.91125 0.491432 0
M  V30 12783 H 1184.05 -5.08523 0.167827 0
M  V30 12784 H 1183.45 -4.7959 -3.00017 0
M  V30 12785 H 1182 -5.72005 -3.12495 0
M  V30 12786 N 1185.44 -0.462799 -1.50652 0
M  V30 12787 C 1186.35 0.341191 -2.32106 0
M  V30 12788 C 1187.36 1.00384 -1.42123 0
M  V30 12789 O 1188.54 0.993635 -1.75182 0
M  V30 12790 C 1185.6 1.41356 -3.16575 0
M  V30 12791 C 1184.66 0.768375 -4.22368 0
M  V30 12792 C 1183.9 1.78964 -5.028 0
M  V30 12793 O 1184.12 3.01515 -4.84195 0
M  V30 12794 O 1183.05 1.36606 -5.86193 0
M  V30 12795 H 1186.88 -0.324482 -3.01962 0
M  V30 12796 H 1184.47 -0.224807 -1.47699 0
M  V30 12797 H 1186.35 2.0349 -3.69012 0
M  V30 12798 H 1185.02 2.06285 -2.49456 0
M  V30 12799 H 1183.93 0.108297 -3.73943 0
M  V30 12800 H 1185.26 0.162164 -4.91933 0
M  V30 12801 N 1186.91 1.56388 -0.195085 0
M  V30 12802 C 1187.86 2.19091 0.725793 0
M  V30 12803 C 1188.83 1.13814 1.20977 0
M  V30 12804 O 1190.02 1.42065 1.27366 0
M  V30 12805 C 1187.16 2.85427 1.93973 0
M  V30 12806 C 1186.27 4.05229 1.49712 0
M  V30 12807 C 1185.4 4.59421 2.66656 0
M  V30 12808 C 1184.44 5.71581 2.19001 0
M  V30 12809 N 1183.58 6.2018 3.29123 0
M  V30 12810 H 1188.42 2.97429 0.184334 0
M  V30 12811 H 1185.96 1.46886 0.0792434 0
M  V30 12812 H 1187.92 3.22057 2.65208 0
M  V30 12813 H 1186.55 2.09652 2.4545 0
M  V30 12814 H 1185.6 3.74261 0.680641 0
M  V30 12815 H 1186.91 4.8635 1.10749 0
M  V30 12816 H 1186.06 4.98357 3.46014 0
M  V30 12817 H 1184.8 3.77407 3.08893 0
M  V30 12818 H 1183.81 5.32174 1.38097 0
M  V30 12819 H 1185.03 6.55413 1.77795 0
M  V30 12820 H 1182.98 5.41088 3.70891 0
M  V30 12821 H 1182.9 6.96353 2.94328 0
M  V30 12822 H 1184.16 6.63769 4.08694 0
M  V30 12823 N 1188.39 -0.0785156 1.57404 0
M  V30 12824 C 1189.34 -1.11278 2.04255 0
M  V30 12825 C 1190.33 -1.40482 0.946633 0
M  V30 12826 O 1191.54 -1.39968 1.13177 0
M  V30 12827 H 1187.92 -0.376157 0.65116 0
M  V30 12828 H 1189.89 -0.691437 2.90279 0
M  V30 12829 C 1188.64 -2.42006 2.49656 0
M  V30 12830 H 1187.96 -2.20383 3.33574 0
M  V30 12831 H 1189.4 -3.12837 2.86197 0
M  V30 12832 C 1187.86 -3.07488 1.37669 0
M  V30 12833 O 1188.39 -3.95285 0.715036 0
M  V30 12834 N 1186.59 -2.68004 1.1235 0
M  V30 12835 H 1186.14 -1.96698 1.66336 0
M  V30 12836 H 1186.1 -3.12141 0.376238 0
M  V30 12837 N 1189.87 -1.5367 -0.349747 0
M  V30 12838 C 1190.78 -1.84207 -1.45275 0
M  V30 12839 C 1191.8 -0.731695 -1.57868 0
M  V30 12840 O 1192.97 -1.02337 -1.73462 0
M  V30 12841 C 1190.04 -2.0398 -2.80345 0
M  V30 12842 C 1189.1 -3.27853 -2.77148 0
M  V30 12843 C 1188.33 -3.46673 -4.05775 0
M  V30 12844 O 1188.55 -2.69457 -5.02741 0
M  V30 12845 O 1187.49 -4.40082 -4.10623 0
M  V30 12846 H 1191.31 -2.77947 -1.22389 0
M  V30 12847 H 1188.9 -1.39247 -0.541345 0
M  V30 12848 H 1190.78 -2.18466 -3.60348 0
M  V30 12849 H 1189.46 -1.13429 -3.03176 0
M  V30 12850 H 1188.36 -3.18776 -1.95787 0
M  V30 12851 H 1189.7 -4.18377 -2.59271 0
M  V30 12852 N 1191.35 0.610423 -1.45298 0
M  V30 12853 C 1192.57 1.40112 -1.52917 0
M  V30 12854 C 1193 1.87404 -0.161696 0
M  V30 12855 O 1192.36 1.59973 0.853135 0
M  V30 12856 C 1192.4 2.58359 -2.51561 0
M  V30 12857 O 1191.51 3.58895 -2.03146 0
M  V30 12858 H 1190.85 0.41841 -0.515586 0
M  V30 12859 H 1193.38 0.743159 -1.90626 0
M  V30 12860 H 1193.39 3.0564 -2.70275 0
M  V30 12861 H 1192.06 2.23286 -3.50879 0
M  V30 12862 H 1190.64 3.18282 -1.94296 0
M  V30 12863 N 1192.83 1.32541 0.852676 0
M  V30 12864 C 1194.24 1.11575 1.14119 0
M  V30 12865 C 1194.44 -0.102469 2.01239 0
M  V30 12866 O 1193.5 -0.786786 2.39929 0
M  V30 12867 C 1194.81 2.39624 1.81661 0
M  V30 12868 C 1196.36 2.454 1.94288 0
M  V30 12869 C 1196.83 3.73375 2.65245 0
M  V30 12870 N 1198.33 3.74368 2.72769 0
M  V30 12871 C 1199.06 4.70094 3.28328 0
M  V30 12872 N 1198.56 5.76187 3.84682 0
M  V30 12873 N 1200.35 4.57588 3.26449 0
M  V30 12874 H 1192.5 2.10644 0.272544 0
M  V30 12875 H 1194.76 0.930094 0.183385 0
M  V30 12876 H 1194.47 3.28698 1.25102 0
M  V30 12877 H 1194.34 2.50734 2.81802 0
M  V30 12878 H 1196.73 1.56784 2.50005 0
M  V30 12879 H 1196.81 2.38241 0.931379 0
M  V30 12880 H 1196.46 4.62366 2.10191 0
M  V30 12881 H 1196.39 3.77806 3.66838 0
M  V30 12882 H 1198.88 2.97685 2.32791 0
M  V30 12883 H 1199.19 6.45285 4.25238 0
M  V30 12884 H 1197.53 5.79939 3.83008 0
M  V30 12885 H 1200.73 3.7387 2.81672 0
M  V30 12886 H 1200.9 5.32365 3.69448 0
M  V30 12887 N 1194.3 -1.0692 1.15784 0
M  V30 12888 C 1195.72 -1.61069 0.944123 0
M  V30 12889 C 1196.07 -1.8936 -0.513522 0
M  V30 12890 O 1195.19 -1.66232 -1.38549 0
M  V30 12891 C 1195.79 -2.9263 1.70743 0
M  V30 12892 C 1194.35 -3.43505 1.53887 0
M  V30 12893 C 1193.49 -2.17495 1.72021 0
M  V30 12894 H 1196.44 -0.89951 1.30746 0
M  V30 12895 H 1196.46 -3.61757 1.17951 0
M  V30 12896 H 1195.98 -2.72007 2.76828 0
M  V30 12897 H 1194.08 -3.69201 0.502153 0
M  V30 12898 H 1194.19 -4.19254 2.31868 0
M  V30 12899 H 1192.55 -2.27407 1.1471 0
M  V30 12900 H 1193.34 -1.99362 2.79481 0
M  V30 12901 N 1195.78 -0.955326 -1.25345 0
M  V30 12902 C 1196.71 -0.494145 -2.28211 0
M  V30 12903 C 1197.69 0.459875 -1.63766 0
M  V30 12904 O 1198.88 0.358679 -1.90859 0
M  V30 12905 C 1196.01 0.228228 -3.46549 0
M  V30 12906 C 1194.96 -0.640601 -4.23179 0
M  V30 12907 C 1194.29 0.212553 -5.34277 0
M  V30 12908 C 1195.59 -1.91906 -4.85767 0
M  V30 12909 H 1197.28 -1.35391 -2.67039 0
M  V30 12910 H 1194.83 -0.652462 -1.2837 0
M  V30 12911 H 1196.78 0.561995 -4.17636 0
M  V30 12912 H 1195.51 1.12224 -3.06714 0
M  V30 12913 H 1194.16 -0.957462 -3.53876 0
M  V30 12914 H 1193.81 1.10634 -4.90682 0
M  V30 12915 H 1193.51 -0.365473 -5.86462 0
M  V30 12916 H 1195.04 0.541271 -6.08196 0
M  V30 12917 H 1196.45 -1.65165 -5.48993 0
M  V30 12918 H 1194.85 -2.44279 -5.48131 0
M  V30 12919 H 1195.92 -2.62173 -4.07914 0
M  V30 12920 N 1197.26 1.39987 -0.723979 0
M  V30 12921 C 1198.49 2.05037 -0.27702 0
M  V30 12922 C 1198.9 1.54565 1.08421 0
M  V30 12923 O 1198.26 0.705795 1.683 0
M  V30 12924 C 1198.31 3.60582 -0.25751 0
M  V30 12925 O 1198.03 4.09194 -1.565 0
M  V30 12926 C 1199.53 4.42817 0.206972 0
M  V30 12927 H 1196.75 0.659637 -0.122963 0
M  V30 12928 H 1199.3 1.7924 -0.98454 0
M  V30 12929 H 1197.45 3.85319 0.401037 0
M  V30 12930 H 1197.87 5.03447 -1.47112 0
M  V30 12931 H 1199.34 5.5174 0.16947 0
M  V30 12932 H 1199.82 4.21023 1.25045 0
M  V30 12933 H 1200.42 4.23205 -0.421604 0
M  V30 12934 N 1198.74 0.470782 1.50404 0
M  V30 12935 C 1199.67 -0.359838 2.26358 0
M  V30 12936 C 1200.68 -0.95735 1.31676 0
M  V30 12937 O 1201.87 -0.84581 1.57189 0
M  V30 12938 C 1198.97 -1.51864 3.02969 0
M  V30 12939 C 1198.15 -1.03397 4.25003 0
M  V30 12940 C 1197.21 -2.06679 4.83911 0
M  V30 12941 O 1196.23 -1.64754 5.44835 0
M  V30 12942 N 1197.43 -3.39484 4.70883 0
M  V30 12943 H 1200.2 0.291299 2.98281 0
M  V30 12944 H 1197.76 0.301549 1.59067 0
M  V30 12945 H 1199.75 -2.2065 3.39258 0
M  V30 12946 H 1198.32 -2.07448 2.33846 0
M  V30 12947 H 1197.54 -0.172012 3.93825 0
M  V30 12948 H 1198.83 -0.68807 5.04126 0
M  V30 12949 H 1198.23 -3.76256 4.22431 0
M  V30 12950 H 1196.78 -4.04068 5.11441 0
M  V30 12951 N 1200.22 -1.56282 0.203376 0
M  V30 12952 C 1201.47 -1.96987 -0.433461 0
M  V30 12953 C 1201.78 -1.09344 -1.62183 0
M  V30 12954 O 1202.99 -1.39868 -2.327 0
M  V30 12955 C 1201.44 -3.50374 -0.82257 0
M  V30 12956 C 1201.05 -4.46693 0.341969 0
M  V30 12957 C 1202.79 -3.99831 -1.42603 0
M  V30 12958 C 1200.7 -5.9136 -0.0685608 0
M  V30 12959 H 1199.63 -0.735564 -0.165717 0
M  V30 12960 H 1202.28 -1.81085 0.296708 0
M  V30 12961 H 1200.66 -3.6181 -1.60964 0
M  V30 12962 H 1201.84 -4.46994 1.11952 0
M  V30 12963 H 1200.15 -4.07476 0.857463 0
M  V30 12964 H 1202.75 -5.05398 -1.74577 0
M  V30 12965 H 1203.09 -3.4462 -2.33544 0
M  V30 12966 H 1203.63 -3.91543 -0.702758 0
M  V30 12967 H 1200.36 -6.50515 0.80688 0
M  V30 12968 H 1199.88 -5.94295 -0.810798 0
M  V30 12969 H 1201.56 -6.45053 -0.501525 0
M  V30 12970 N 1201.7 0.070167 -1.57444 0
M  V30 12971 C 1202.63 1.10996 -2.0053 0
M  V30 12972 C 1203.64 1.3489 -0.91151 0
M  V30 12973 O 1204.83 1.33102 -1.18938 0
M  V30 12974 C 1201.93 2.46053 -2.33048 0
M  V30 12975 C 1201.1 2.42092 -3.64294 0
M  V30 12976 C 1200.16 3.5927 -3.84463 0
M  V30 12977 O 1199.19 3.40625 -4.5603 0
M  V30 12978 N 1200.39 4.79677 -3.26941 0
M  V30 12979 H 1203.15 0.743029 -2.90343 0
M  V30 12980 H 1200.72 0.258794 -1.59818 0
M  V30 12981 H 1202.71 3.23089 -2.43712 0
M  V30 12982 H 1201.28 2.74742 -1.49116 0
M  V30 12983 H 1200.5 1.5043 -3.64368 0
M  V30 12984 H 1201.79 2.36548 -4.50469 0
M  V30 12985 H 1201.18 4.97729 -2.68855 0
M  V30 12986 H 1199.74 5.54219 -3.43051 0
M  V30 12987 N 1203.17 1.53854 0.341593 0
M  V30 12988 C 1204.4 1.7488 1.10002 0
M  V30 12989 C 1204.81 0.488802 1.82777 0
M  V30 12990 O 1204.15 -0.549333 1.75294 0
M  V30 12991 C 1204.22 2.87604 2.15694 0
M  V30 12992 C 1203.88 4.27142 1.62477 0
M  V30 12993 C 1204.88 5.08642 1.07606 0
M  V30 12994 C 1202.56 4.73633 1.67265 0
M  V30 12995 C 1204.56 6.34735 0.582284 0
M  V30 12996 C 1202.24 5.99697 1.175 0
M  V30 12997 C 1203.24 6.80081 0.630742 0
M  V30 12998 O 1202.93 8.03777 0.140519 0
M  V30 12999 H 1202.66 0.587824 0.333824 0
M  V30 13000 H 1205.22 2.01488 0.398965 0
M  V30 13001 H 1203.45 2.56526 2.89364 0
M  V30 13002 H 1205.13 2.96583 2.77117 0
M  V30 13003 H 1205.9 4.73887 1.03227 0
M  V30 13004 H 1201.78 4.11121 2.08567 0
M  V30 13005 H 1205.32 6.97424 0.156811 0
M  V30 13006 H 1201.22 6.33947 1.21579 0
M  V30 13007 H 1201.99 8.18094 0.257626 0
M  V30 13008 N 1204.65 -0.602709 1.4562 0
M  V30 13009 C 1205.9 -1.35769 1.49163 0
M  V30 13010 C 1206.21 -1.95102 0.139485 0
M  V30 13011 O 1207.42 -2.71449 0.0525919 0
M  V30 13012 C 1205.88 -2.45959 2.62739 0
M  V30 13013 C 1205.48 -1.93017 4.04288 0
M  V30 13014 C 1207.23 -3.22926 2.75534 0
M  V30 13015 C 1205.13 -3.00718 5.09237 0
M  V30 13016 H 1204.06 -0.510317 0.555061 0
M  V30 13017 H 1206.72 -0.645434 1.71774 0
M  V30 13018 H 1205.1 -3.19892 2.3342 0
M  V30 13019 H 1206.27 -1.2576 4.43307 0
M  V30 13020 H 1204.59 -1.2878 3.95986 0
M  V30 13021 H 1207.18 -4.03267 3.51112 0
M  V30 13022 H 1207.53 -3.74243 1.82339 0
M  V30 13023 H 1208.06 -2.56095 3.04402 0
M  V30 13024 H 1204.8 -2.54312 6.04157 0
M  V30 13025 H 1204.32 -3.66526 4.74783 0
M  V30 13026 H 1206 -3.65016 5.34202 0
M  V30 13027 N 1206.13 -1.32992 -0.845635 0
M  V30 13028 C 1207.09 -1.22607 -1.9365 0
M  V30 13029 C 1208.09 -0.146812 -1.60128 0
M  V30 13030 O 1209.28 -0.397863 -1.69596 0
M  V30 13031 C 1206.41 -0.887677 -3.2914 0
M  V30 13032 H 1207.61 -2.19563 -2.04285 0
M  V30 13033 H 1205.16 -1.16952 -1.03691 0
M  V30 13034 H 1205.9 0.0796777 -3.24202 0
M  V30 13035 H 1205.68 -1.66808 -3.54849 0
M  V30 13036 H 1207.17 -0.83958 -4.09073 0
M  V30 13037 N 1207.61 1.06304 -1.1635 0
M  V30 13038 C 1208.85 1.79516 -0.956328 0
M  V30 13039 C 1209.21 1.85506 0.510438 0
M  V30 13040 O 1208.5 1.33556 1.37381 0
M  V30 13041 C 1208.7 3.23589 -1.51741 0
M  V30 13042 C 1208.52 3.31639 -3.0372 0
M  V30 13043 C 1207.29 3.41579 -3.7236 0
M  V30 13044 C 1209.49 3.2151 -4.01417 0
M  V30 13045 N 1207.47 3.38643 -5.12049 0
M  V30 13046 C 1208.85 3.25815 -5.27489 0
M  V30 13047 C 1210.9 3.05393 -3.93242 0
M  V30 13048 C 1209.6 3.1566 -6.46337 0
M  V30 13049 C 1211.63 2.96577 -5.1166 0
M  V30 13050 C 1210.99 3.01504 -6.36612 0
M  V30 13051 H 1207.09 0.669727 -0.40372 0
M  V30 13052 H 1209.67 1.2681 -1.4774 0
M  V30 13053 H 1207.85 3.7469 -1.02282 0
M  V30 13054 H 1209.58 3.84977 -1.248 0
M  V30 13055 H 1206.33 3.46371 -3.22992 0
M  V30 13056 H 1206.76 3.40674 -5.85038 0
M  V30 13057 H 1211.4 3.0043 -2.97492 0
M  V30 13058 H 1209.12 3.1938 -7.42308 0
M  V30 13059 H 1212.7 2.85195 -5.07105 0
M  V30 13060 H 1211.58 2.9474 -7.26704 0
M  V30 13061 N 1209.09 0.96196 1.24836 0
M  V30 13062 C 1210.5 0.660388 1.7463 0
M  V30 13063 C 1210.85 -0.824064 1.78055 0
M  V30 13064 O 1209.97 -1.64485 1.40619 0
M  V30 13065 C 1210.57 1.19205 3.17137 0
M  V30 13066 C 1209.13 0.940493 3.64461 0
M  V30 13067 C 1208.27 1.33076 2.43282 0
M  V30 13068 H 1211.22 1.13794 1.1062 0
M  V30 13069 H 1211.25 0.555595 3.76422 0
M  V30 13070 H 1210.76 2.27247 3.14612 0
M  V30 13071 H 1208.86 -0.124645 3.72391 0
M  V30 13072 H 1208.97 1.5821 4.52224 0
M  V30 13073 H 1207.34 0.749139 2.43434 0
M  V30 13074 H 1208.12 2.42055 2.43442 0
M  V30 13075 N 1210.56 -1.39601 0.731392 0
M  V30 13076 C 1211.84 -1.94531 0.20422 0
M  V30 13077 C 1212.22 -1.66845 -1.29329 0
M  V30 13078 O 1211.57 -0.994706 -2.05713 0
M  V30 13079 C 1211.78 -3.44891 0.53395 0
M  V30 13080 C 1213.13 -4.21863 0.481298 0
M  V30 13081 O 1214.15 -3.53073 0.470929 0
M  V30 13082 O 1213.01 -5.44452 0.472663 0
M  V30 13083 H 1210.1 -0.826214 0.0360436 0
M  V30 13084 H 1212.65 -1.49121 0.810005 0
M  V30 13085 H 1211.42 -3.58463 1.56907 0
M  V30 13086 H 1211.04 -3.97472 -0.10099 0
M  V30 13087 N 1212.04 -0.478751 -1.50152 0
M  V30 13088 C 1212.99 0.330224 -2.25596 0
M  V30 13089 C 1213.98 0.954871 -1.29503 0
M  V30 13090 O 1215.17 0.866153 -1.54359 0
M  V30 13091 C 1212.3 1.40719 -3.13134 0
M  V30 13092 C 1211.38 0.789896 -4.16679 0
M  V30 13093 N 1211.77 -0.094345 -5.05712 0
M  V30 13094 C 1210.07 1.05299 -4.33391 0
M  V30 13095 C 1210.77 -0.445458 -5.79992 0
M  V30 13096 N 1209.75 0.181237 -5.43298 0
M  V30 13097 H 1213.55 -0.350824 -2.91799 0
M  V30 13098 H 1211.07 -0.293386 -1.59728 0
M  V30 13099 H 1213.06 1.99999 -3.65795 0
M  V30 13100 H 1211.72 2.09015 -2.48481 0
M  V30 13101 H 1212.73 -0.463695 -5.1582 0
M  V30 13102 H 1209.41 1.73036 -3.79954 0
M  V30 13103 H 1210.8 -1.16754 -6.61678 0
M  V30 13104 N 1213.52 1.56172 -0.211661 0
M  V30 13105 C 1214.77 1.97648 0.421871 0
M  V30 13106 C 1215.09 1.10026 1.60995 0
M  V30 13107 O 1214.36 0.175109 1.95116 0
M  V30 13108 H 1212.94 0.729914 0.158852 0
M  V30 13109 H 1215.6 1.92542 -0.302254 0
M  V30 13110 H 1214.7 3.02834 0.754868 0
M  V30 13111 N 1215 -0.0618163 1.57479 0
M  V30 13112 C 1216.24 -0.760193 1.88013 0
M  V30 13113 C 1216.58 -1.76718 0.805258 0
M  V30 13114 O 1215.85 -1.93633 -0.183408 0
M  V30 13115 C 1216.14 -1.45924 3.29208 0
M  V30 13116 C 1215.99 -0.467994 4.47359 0
M  V30 13117 C 1217.31 -2.40166 3.68793 0
M  V30 13118 H 1214.43 -0.274896 0.683814 0
M  V30 13119 H 1217.07 -0.0232433 1.89986 0
M  V30 13120 H 1215.22 -2.08741 3.27657 0
M  V30 13121 H 1216.89 0.155735 4.61037 0
M  V30 13122 H 1215.13 0.215797 4.33263 0
M  V30 13123 H 1215.8 -0.994942 5.42959 0
M  V30 13124 H 1218.28 -1.87419 3.71501 0
M  V30 13125 H 1217.16 -2.86076 4.68457 0
M  V30 13126 H 1217.42 -3.25413 2.99264 0
M  V30 13127 N 1216.48 -1.54033 -0.333429 0
M  V30 13128 C 1217.89 -1.63107 -0.908455 0
M  V30 13129 C 1218.24 -0.518823 -1.89216 0
M  V30 13130 O 1217.36 0.34985 -2.13553 0
M  V30 13131 C 1217.96 -2.95657 -1.65447 0
M  V30 13132 C 1216.52 -3.0696 -2.17836 0
M  V30 13133 C 1215.66 -2.58617 -1.00063 0
M  V30 13134 H 1218.62 -1.58309 -0.11128 0
M  V30 13135 H 1218.64 -2.85263 -2.51804 0
M  V30 13136 H 1218.15 -3.76588 -0.938263 0
M  V30 13137 H 1216.25 -2.30683 -2.92602 0
M  V30 13138 H 1216.36 -4.12599 -2.43513 0
M  V30 13139 H 1214.73 -2.1427 -1.37697 0
M  V30 13140 H 1215.51 -3.41996 -0.298901 0
M  V30 13141 N 1217.95 0.594978 -1.45938 0
M  V30 13142 C 1219.23 1.35477 -1.41086 0
M  V30 13143 C 1219.61 2.10917 -0.0879512 0
M  V30 13144 O 1218.96 2.08704 0.930323 0
M  V30 13145 C 1219.17 2.29106 -2.63271 0
M  V30 13146 C 1220.52 2.9132 -3.08898 0
M  V30 13147 O 1221.54 2.39423 -2.63733 0
M  V30 13148 O 1220.4 3.85553 -3.87313 0
M  V30 13149 H 1217.49 0.6081 -0.560485 0
M  V30 13150 H 1220.04 0.617016 -1.58085 0
M  V30 13151 H 1218.81 1.72707 -3.51124 0
M  V30 13152 H 1218.44 3.10241 -2.48669 0
M  V30 13153 N 1219.43 1.33438 0.838571 0
M  V30 13154 C 1220.71 1.1551 1.5785 0
M  V30 13155 C 1221.09 -0.278405 2.09256 0
M  V30 13156 O 1220.44 -1.27748 1.89453 0
M  V30 13157 C 1220.65 2.19647 2.71212 0
M  V30 13158 C 1222 2.53818 3.40384 0
M  V30 13159 O 1223.02 2.18317 2.81454 0
M  V30 13160 O 1221.88 3.14741 4.46766 0
M  V30 13161 H 1218.97 0.446785 0.695925 0
M  V30 13162 H 1221.52 1.45021 0.8813 0
M  V30 13163 H 1220.29 3.15936 2.30869 0
M  V30 13164 H 1219.91 1.91224 3.48596 0
M  V30 13165 N 1220.91 -1.05686 1.16912 0
M  V30 13166 C 1222.14 -1.82821 0.979348 0
M  V30 13167 C 1222.56 -1.82196 -0.467575 0
M  V30 13168 O 1221.92 -1.22727 -1.33445 0
M  V30 13169 C 1221.97 -3.2705 1.51891 0
M  V30 13170 O 1221.07 -4.05899 0.729341 0
M  V30 13171 H 1220.41 -0.565455 0.348076 0
M  V30 13172 H 1222.94 -1.33211 1.55293 0
M  V30 13173 H 1222.95 -3.77859 1.53904 0
M  V30 13174 H 1221.63 -3.26819 2.5722 0
M  V30 13175 H 1220.2 -3.64646 0.780221 0
M  V30 13176 N 1222.39 -0.968567 -1.24324 0
M  V30 13177 C 1223.61 -0.648166 -1.97012 0
M  V30 13178 C 1224.04 0.775842 -1.71354 0
M  V30 13179 O 1223.4 1.52672 -0.977804 0
M  V30 13180 C 1223.44 -0.929974 -3.48402 0
M  V30 13181 O 1222.55 -0.015854 -4.12397 0
M  V30 13182 H 1221.89 -0.244961 -0.617163 0
M  V30 13183 H 1224.42 -1.29895 -1.58077 0
M  V30 13184 H 1224.43 -0.861863 -3.98793 0
M  V30 13185 H 1223.1 -1.96776 -3.66404 0
M  V30 13186 H 1221.68 -0.137361 -3.72647 0
M  V30 13187 N 1223.87 1.39211 -0.738786 0
M  V30 13188 C 1225.14 1.9442 -0.214533 0
M  V30 13189 C 1225.52 1.67528 1.28443 0
M  V30 13190 O 1224.87 1.0056 2.05183 0
M  V30 13191 C 1225.08 3.44603 -0.552232 0
M  V30 13192 C 1226.43 4.21602 -0.503663 0
M  V30 13193 O 1227.45 3.52819 -0.489647 0
M  V30 13194 O 1226.31 5.44194 -0.50153 0
M  V30 13195 H 1223.41 0.826011 -0.0404247 0
M  V30 13196 H 1225.95 1.48689 -0.817902 0
M  V30 13197 H 1224.72 3.57626 -1.58806 0
M  V30 13198 H 1224.35 3.9752 0.0799096 0
M  V30 13199 N 1225.34 0.486708 1.49896 0
M  V30 13200 C 1226.59 -0.062852 2.02402 0
M  V30 13201 C 1226.92 -1.38306 1.36754 0
M  V30 13202 O 1226.17 -1.89531 0.487493 0
M  V30 13203 C 1226.47 -0.278643 3.56312 0
M  V30 13204 C 1226.14 0.961794 4.40523 0
M  V30 13205 C 1224.8 1.30185 4.63255 0
M  V30 13206 C 1227.15 1.78697 4.89609 0
M  V30 13207 C 1224.48 2.46686 5.32318 0
M  V30 13208 C 1226.83 2.9434 5.59953 0
M  V30 13209 C 1225.5 3.28742 5.80935 0
M  V30 13210 H 1224.77 -0.0229992 0.740643 0
M  V30 13211 H 1227.41 0.643963 1.80348 0
M  V30 13212 H 1225.72 -1.06785 3.76967 0
M  V30 13213 H 1227.42 -0.718078 3.94518 0
M  V30 13214 H 1224.01 0.686887 4.2306 0
M  V30 13215 H 1228.19 1.53742 4.71887 0
M  V30 13216 H 1223.45 2.73596 5.46768 0
M  V30 13217 H 1227.62 3.58616 5.96965 0
M  V30 13218 H 1225.25 4.19121 6.34225 0
M  V30 13219 N 1226.82 -1.56058 0.219941 0
M  V30 13220 C 1227.75 -2.2321 -0.685547 0
M  V30 13221 C 1228.73 -1.20328 -1.20229 0
M  V30 13222 O 1229.92 -1.48909 -1.24659 0
M  V30 13223 C 1227.05 -2.91076 -1.89452 0
M  V30 13224 C 1226 -4.00415 -1.51169 0
M  V30 13225 C 1225.33 -4.55569 -2.79931 0
M  V30 13226 C 1226.63 -5.17549 -0.702896 0
M  V30 13227 H 1228.32 -2.99136 -0.125671 0
M  V30 13228 H 1225.87 -1.43879 -0.0590043 0
M  V30 13229 H 1227.82 -3.36744 -2.53341 0
M  V30 13230 H 1226.55 -2.12594 -2.47934 0
M  V30 13231 H 1225.21 -3.55475 -0.896275 0
M  V30 13232 H 1224.85 -3.73819 -3.36553 0
M  V30 13233 H 1224.55 -5.29361 -2.55049 0
M  V30 13234 H 1226.08 -5.03955 -3.44764 0
M  V30 13235 H 1227.49 -5.59608 -1.24544 0
M  V30 13236 H 1225.89 -5.97563 -0.551234 0
M  V30 13237 H 1226.96 -4.84027 0.29083 0
M  V30 13238 N 1228.3 0.053464 -1.57509 0
M  V30 13239 C 1229.58 0.783141 -1.79238 0
M  V30 13240 C 1229.96 1.94855 -0.812069 0
M  V30 13241 O 1229.31 2.28 0.151006 0
M  V30 13242 C 1229.52 1.239 -3.26266 0
M  V30 13243 C 1230.86 1.66492 -3.90596 0
M  V30 13244 O 1231.89 1.33421 -3.30269 0
M  V30 13245 O 1230.75 2.27785 -4.96766 0
M  V30 13246 H 1227.84 0.376696 -0.736226 0
M  V30 13247 H 1230.39 0.0321229 -1.6967 0
M  V30 13248 H 1229.16 0.405948 -3.89189 0
M  V30 13249 H 1228.78 2.05078 -3.4063 0
M  V30 13250 N 1229.78 1.54207 0.325255 0
M  V30 13251 C 1231.03 1.72331 1.0634 0
M  V30 13252 C 1231.35 0.496115 1.88066 0
M  V30 13253 O 1230.61 -0.52214 1.88606 0
M  V30 13254 C 1230.91 2.95 2.01766 0
M  V30 13255 C 1230.57 4.29835 1.36208 0
M  V30 13256 C 1229.24 4.66493 1.18059 0
M  V30 13257 C 1231.59 5.13521 0.891404 0
M  V30 13258 C 1228.92 5.84436 0.514894 0
M  V30 13259 C 1231.27 6.32146 0.239534 0
M  V30 13260 C 1229.93 6.67484 0.0458839 0
M  V30 13261 H 1229.2 0.630605 0.389125 0
M  V30 13262 H 1231.85 1.88445 0.34072 0
M  V30 13263 H 1230.15 2.73567 2.80479 0
M  V30 13264 H 1231.85 3.06217 2.58906 0
M  V30 13265 H 1228.44 4.00993 1.51335 0
M  V30 13266 H 1232.63 4.85718 1.01941 0
M  V30 13267 H 1227.88 6.10376 0.353644 0
M  V30 13268 H 1232.06 6.96273 -0.133185 0
M  V30 13269 H 1229.68 7.58733 -0.471978 0
M  V30 13270 N 1231.26 -0.58723 1.46251 0
M  V30 13271 C 1232.5 -1.3476 1.51551 0
M  V30 13272 C 1232.84 -1.93499 0.16483 0
M  V30 13273 O 1232.11 -1.7622 -0.823207 0
M  V30 13274 C 1232.39 -2.48033 2.61059 0
M  V30 13275 C 1232.25 -1.94358 4.05642 0
M  V30 13276 C 1233.57 -3.50096 2.66685 0
M  V30 13277 H 1230.69 -0.48863 0.551733 0
M  V30 13278 H 1233.33 -0.660097 1.78165 0
M  V30 13279 H 1231.48 -3.06679 2.38496 0
M  V30 13280 H 1233.15 -1.40204 4.39478 0
M  V30 13281 H 1231.39 -1.25217 4.15335 0
M  V30 13282 H 1232.06 -2.76105 4.77986 0
M  V30 13283 H 1234.54 -3.01324 2.86955 0
M  V30 13284 H 1233.42 -4.26817 3.45135 0
M  V30 13285 H 1233.68 -4.07032 1.7256 0
M  V30 13286 N 1232.74 -1.33881 -0.831482 0
M  V30 13287 C 1233.98 -1.27095 -1.60082 0
M  V30 13288 C 1234.34 0.15911 -1.9134 0
M  V30 13289 O 1235.54 0.351029 -2.66498 0
M  V30 13290 C 1233.81 -2.12874 -2.87088 0
M  V30 13291 S 1235.37 -2.23354 -3.77702 0
M  V30 13292 H 1232.19 -0.452049 -0.548792 0
M  V30 13293 H 1234.79 -1.68998 -0.98285 0
M  V30 13294 H 1233.49 -3.15797 -2.62108 0
M  V30 13295 H 1233.03 -1.71836 -3.53887 0
M  V30 13296 H 1235.04 -1.40003 -4.76039 0
M  V30 13297 N 1234.21 1.05064 -1.1747 0
M  V30 13298 C 1235.16 2.11131 -0.860692 0
M  V30 13299 C 1236.15 1.60049 0.165288 0
M  V30 13300 O 1237.34 1.76961 -0.0373288 0
M  V30 13301 C 1234.47 3.41222 -0.37718 0
M  V30 13302 C 1233.55 3.99097 -1.43466 0
M  V30 13303 N 1233.95 4.30918 -2.64846 0
M  V30 13304 C 1232.24 4.26851 -1.29282 0
M  V30 13305 C 1232.94 4.77092 -3.32804 0
M  V30 13306 N 1231.92 4.77291 -2.60182 0
M  V30 13307 H 1235.72 2.33597 -1.78353 0
M  V30 13308 H 1233.24 1.22724 -1.06361 0
M  V30 13309 H 1235.23 4.16685 -0.133766 0
M  V30 13310 H 1233.89 3.20188 0.53944 0
M  V30 13311 H 1234.9 4.20877 -3.01799 0
M  V30 13312 H 1231.58 4.15197 -0.437949 0
M  V30 13313 H 1232.97 5.10815 -4.36483 0
M  V30 13314 N 1235.69 0.975146 1.23809 0
M  V30 13315 C 1236.94 0.642074 1.92367 0
M  V30 13316 C 1237.27 -0.82164 1.75962 0
M  V30 13317 O 1236.55 -1.59205 1.11732 0
M  V30 13318 C 1236.83 1.02677 3.45151 0
M  V30 13319 C 1236.68 2.54773 3.7069 0
M  V30 13320 C 1238 0.5668 4.36435 0
M  V30 13321 H 1235.12 0.234735 0.698619 0
M  V30 13322 H 1237.76 1.21549 1.46034 0
M  V30 13323 H 1235.91 0.538846 3.84745 0
M  V30 13324 H 1237.58 3.11099 3.4061 0
M  V30 13325 H 1235.83 2.97641 3.15583 0
M  V30 13326 H 1236.5 2.7674 4.77618 0
M  V30 13327 H 1238.97 0.985635 4.04258 0
M  V30 13328 H 1237.85 0.864458 5.4205 0
M  V30 13329 H 1238.11 -0.532989 4.38875 0
M  V30 13330 N 1237.17 -1.38817 0.746158 0
M  V30 13331 C 1238.59 -1.53894 0.42294 0
M  V30 13332 C 1238.79 -1.71064 -1.06486 0
M  V30 13333 O 1237.84 -1.71744 -1.85095 0
M  V30 13334 C 1239.15 -2.75029 1.2157 0
M  V30 13335 C 1240.7 -2.88873 1.20504 0
M  V30 13336 C 1241.18 -4.1296 1.9806 0
M  V30 13337 N 1242.67 -4.20022 1.95283 0
M  V30 13338 C 1243.4 -5.15011 2.52093 0
M  V30 13339 N 1242.9 -6.1572 3.17586 0
M  V30 13340 N 1244.69 -5.07308 2.42064 0
M  V30 13341 H 1236.84 -1.25921 1.71049 0
M  V30 13342 H 1239.11 -0.611148 0.724708 0
M  V30 13343 H 1238.81 -2.68722 2.26895 0
M  V30 13344 H 1238.69 -3.68009 0.827593 0
M  V30 13345 H 1241.07 -2.94667 0.159877 0
M  V30 13346 H 1241.15 -1.96925 1.63261 0
M  V30 13347 H 1240.8 -4.07929 3.02583 0
M  V30 13348 H 1240.73 -5.03974 1.52702 0
M  V30 13349 H 1243.22 -3.47892 1.4758 0
M  V30 13350 H 1243.53 -6.84682 3.58373 0
M  V30 13351 H 1241.88 -6.16075 3.21678 0
M  V30 13352 H 1245.07 -4.27569 1.90532 0
M  V30 13353 H 1245.24 -5.81158 2.86635 0
M  V30 13354 N 1238.65 -0.49465 -1.49636 0
M  V30 13355 C 1239.6 0.300929 -2.30645 0
M  V30 13356 C 1240.59 0.968687 -1.38971 0
M  V30 13357 O 1241.8 0.897101 -1.56052 0
M  V30 13358 H 1238.17 0.1159 -0.743015 0
M  V30 13359 H 1240.14 -0.402387 -2.95674 0
M  V30 13360 C 1238.89 1.35638 -3.20153 0
M  V30 13361 H 1238.21 0.851946 -3.90617 0
M  V30 13362 H 1239.65 1.88515 -3.79787 0
M  V30 13363 C 1238.11 2.37112 -2.39331 0
M  V30 13364 O 1238.64 3.42867 -2.09298 0
M  V30 13365 N 1236.85 2.09421 -2.01473 0
M  V30 13366 H 1236.4 1.23441 -2.26097 0
M  V30 13367 H 1236.35 2.77545 -1.47703 0
M  V30 13368 N 1240.13 1.55939 -0.228214 0
M  V30 13369 C 1241.07 2.20581 0.679157 0
M  V30 13370 C 1242.04 1.16355 1.18536 0
M  V30 13371 O 1243.23 1.44735 1.24324 0
M  V30 13372 C 1240.37 2.89477 1.87875 0
M  V30 13373 C 1239.48 4.08313 1.41083 0
M  V30 13374 C 1238.62 4.64974 2.56851 0
M  V30 13375 C 1237.65 5.76098 2.06828 0
M  V30 13376 N 1236.79 6.27021 3.15894 0
M  V30 13377 H 1241.63 2.97753 0.121203 0
M  V30 13378 H 1239.17 1.47021 0.0480688 0
M  V30 13379 H 1241.13 3.2761 2.58317 0
M  V30 13380 H 1239.76 2.14811 2.40948 0
M  V30 13381 H 1238.81 3.75621 0.601102 0
M  V30 13382 H 1240.12 4.8859 1.00408 0
M  V30 13383 H 1239.27 5.05584 3.35365 0
M  V30 13384 H 1238.01 3.83875 3.00818 0
M  V30 13385 H 1237.02 5.34984 1.26778 0
M  V30 13386 H 1238.24 6.59037 1.63852 0
M  V30 13387 H 1236.19 5.48833 3.5933 0
M  V30 13388 H 1236.11 7.02439 2.79491 0
M  V30 13389 H 1237.37 6.72289 3.94523 0
M  V30 13390 N 1241.6 -0.0451101 1.57535 0
M  V30 13391 C 1243.02 -0.400463 1.54494 0
M  V30 13392 C 1243.22 -1.77584 0.952166 0
M  V30 13393 O 1242.28 -2.46069 0.566221 0
M  V30 13394 C 1243.59 -0.31703 2.99024 0
M  V30 13395 C 1245.14 -0.395284 3.10494 0
M  V30 13396 C 1245.61 -0.341475 4.56725 0
M  V30 13397 N 1247.1 -0.400755 4.61463 0
M  V30 13398 C 1247.84 -0.381757 5.72128 0
M  V30 13399 N 1247.33 -0.315995 6.92079 0
M  V30 13400 N 1249.13 -0.4303 5.60451 0
M  V30 13401 H 1241.28 0.855156 1.94424 0
M  V30 13402 H 1243.54 0.323618 0.891053 0
M  V30 13403 H 1243.25 0.627477 3.46057 0
M  V30 13404 H 1243.12 -1.11696 3.60283 0
M  V30 13405 H 1245.51 -1.33022 2.63418 0
M  V30 13406 H 1245.59 0.433709 2.52096 0
M  V30 13407 H 1245.23 0.589725 5.04465 0
M  V30 13408 H 1245.16 -1.18836 5.13016 0
M  V30 13409 H 1247.65 -0.454745 3.75154 0
M  V30 13410 H 1247.97 -0.306158 7.72193 0
M  V30 13411 H 1246.31 -0.282281 6.94427 0
M  V30 13412 H 1249.5 -0.479555 4.65637 0
M  V30 13413 H 1249.68 -0.412025 6.46689 0
M  V30 13414 N 1243.08 -1.54377 -0.317073 0
M  V30 13415 C 1244.05 -1.83488 -1.37349 0
M  V30 13416 C 1245.05 -0.706981 -1.44424 0
M  V30 13417 O 1246.24 -0.975289 -1.44339 0
M  V30 13418 C 1243.37 -2.00074 -2.76013 0
M  V30 13419 H 1244.56 -2.77883 -1.12789 0
M  V30 13420 H 1242.11 -1.46194 -0.552902 0
M  V30 13421 H 1242.85 -1.07913 -3.05819 0
M  V30 13422 H 1242.63 -2.82155 -2.7227 0
M  V30 13423 H 1244.12 -2.24022 -3.52426 0
M  V30 13424 N 1244.56 0.579466 -1.4656 0
M  V30 13425 C 1245.81 1.33492 -1.51738 0
M  V30 13426 C 1246.13 1.94241 -0.171926 0
M  V30 13427 O 1245.4 1.78737 0.801875 0
M  V30 13428 H 1243.98 0.49565 -0.558874 0
M  V30 13429 H 1246.64 0.678394 -1.82712 0
M  V30 13430 H 1245.74 2.13995 -2.27183 0
M  V30 13431 N 1246.04 1.3432 0.824371 0
M  V30 13432 C 1246.99 1.25776 1.93517 0
M  V30 13433 C 1247.96 0.133298 1.65564 0
M  V30 13434 O 1249.14 0.31403 1.88198 0
M  V30 13435 C 1246.28 1.01766 3.29754 0
M  V30 13436 C 1245.39 2.22973 3.7001 0
M  V30 13437 C 1244.53 1.92258 4.95187 0
M  V30 13438 C 1243.57 3.09616 5.2802 0
M  V30 13439 N 1242.7 2.78793 6.44375 0
M  V30 13440 H 1247.54 2.20774 2.00157 0
M  V30 13441 H 1245.08 1.09766 0.979274 0
M  V30 13442 H 1247.04 0.858831 4.08265 0
M  V30 13443 H 1245.67 0.10437 3.22631 0
M  V30 13444 H 1244.72 2.49781 2.86903 0
M  V30 13445 H 1246.03 3.10661 3.90245 0
M  V30 13446 H 1245.19 1.73102 5.81481 0
M  V30 13447 H 1243.93 1.01827 4.76951 0
M  V30 13448 H 1242.93 3.29368 4.40223 0
M  V30 13449 H 1244.16 4.00822 5.48196 0
M  V30 13450 H 1242.1 1.90938 6.27598 0
M  V30 13451 H 1242.02 3.60014 6.64775 0
M  V30 13452 H 1243.29 2.63139 7.33743 0
M  V30 13453 N 1247.52 -1.0444 1.18026 0
M  V30 13454 C 1248.43 -2.15862 0.918747 0
M  V30 13455 C 1249.44 -1.73614 -0.115808 0
M  V30 13456 O 1250.62 -2.01294 0.0652312 0
M  V30 13457 C 1247.68 -3.43846 0.443922 0
M  V30 13458 C 1246.74 -4.00497 1.54599 0
M  V30 13459 C 1245.98 -5.22373 1.09372 0
M  V30 13460 O 1246.2 -5.70379 -0.049085 0
M  V30 13461 O 1245.13 -5.71459 1.88992 0
M  V30 13462 H 1248.96 -2.40776 1.85097 0
M  V30 13463 H 1246.55 -1.14326 0.961769 0
M  V30 13464 H 1248.43 -4.20985 0.187017 0
M  V30 13465 H 1247.1 -3.20414 -0.460051 0
M  V30 13466 H 1246.01 -3.24764 1.85686 0
M  V30 13467 H 1247.34 -4.28262 2.42595 0
M  V30 13468 N 1248.99 -0.981699 -1.2329 0
M  V30 13469 C 1249.9 -0.531296 -2.28505 0
M  V30 13470 C 1250.92 0.414531 -1.6899 0
M  V30 13471 O 1252.1 0.284129 -1.99386 0
M  V30 13472 C 1249.16 0.157864 -3.4634 0
M  V30 13473 C 1248.22 -0.829527 -4.21209 0
M  V30 13474 C 1247.46 -0.17316 -5.33419 0
M  V30 13475 O 1247.68 1.03549 -5.60922 0
M  V30 13476 O 1246.61 -0.872385 -5.95544 0
M  V30 13477 H 1250.44 -1.40633 -2.69177 0
M  V30 13478 H 1248.02 -0.749395 -1.29246 0
M  V30 13479 H 1249.91 0.544394 -4.17869 0
M  V30 13480 H 1248.58 1.00764 -3.07617 0
M  V30 13481 H 1247.49 -1.26678 -3.51999 0
M  V30 13482 H 1248.82 -1.64815 -4.63785 0
M  V30 13483 N 1250.47 1.3842 -0.753509 0
M  V30 13484 C 1251.88 1.82847 -0.377331 0
M  V30 13485 C 1252.23 1.62867 1.09401 0
M  V30 13486 O 1251.36 1.12981 1.84565 0
M  V30 13487 C 1251.95 3.31945 -0.678095 0
M  V30 13488 C 1250.51 3.7472 -0.355196 0
M  V30 13489 C 1249.66 2.61193 -0.931311 0
M  V30 13490 H 1252.61 1.2715 -0.949667 0
M  V30 13491 H 1252.63 3.80475 0.0437292 0
M  V30 13492 H 1252.14 3.46455 -1.74902 0
M  V30 13493 H 1250.25 3.65789 0.70915 0
M  V30 13494 H 1250.36 4.71487 -0.850693 0
M  V30 13495 H 1248.72 2.5219 -0.356695 0
M  V30 13496 H 1249.51 2.78503 -2.00727 0
M  V30 13497 N 1251.95 0.502579 1.49372 0
M  V30 13498 C 1253.2 -0.0414423 2.02758 0
M  V30 13499 C 1253.53 -1.36499 1.38136 0
M  V30 13500 O 1252.8 -1.87487 0.517593 0
M  V30 13501 C 1253.09 -0.192333 3.59586 0
M  V30 13502 C 1252.94 1.15445 4.34733 0
M  V30 13503 C 1254.26 -0.932218 4.30114 0
M  V30 13504 H 1251.38 -0.0135869 0.736875 0
M  V30 13505 H 1254.02 0.654296 1.78379 0
M  V30 13506 H 1252.17 -0.78491 3.80488 0
M  V30 13507 H 1253.84 1.78603 4.25322 0
M  V30 13508 H 1252.09 1.74333 3.97228 0
M  V30 13509 H 1252.76 1.00216 5.42827 0
M  V30 13510 H 1255.23 -0.429632 4.13876 0
M  V30 13511 H 1254.11 -1.00664 5.39591 0
M  V30 13512 H 1254.37 -1.9763 3.95468 0
M  V30 13513 N 1253.43 -1.55816 0.23648 0
M  V30 13514 C 1254.67 -1.98981 -0.391725 0
M  V30 13515 C 1255.01 -1.12428 -1.58346 0
M  V30 13516 O 1254.28 -0.185303 -1.93615 0
M  V30 13517 C 1254.57 -3.50831 -0.811759 0
M  V30 13518 C 1254.42 -4.48152 0.384648 0
M  V30 13519 C 1255.74 -4.07489 -1.66254 0
M  V30 13520 H 1252.86 -0.723404 -0.140911 0
M  V30 13521 H 1255.5 -1.87011 0.335706 0
M  V30 13522 H 1253.65 -3.61162 -1.43157 0
M  V30 13523 H 1255.32 -4.49814 1.02298 0
M  V30 13524 H 1253.56 -4.21406 1.02955 0
M  V30 13525 H 1254.23 -5.51979 0.0475809 0
M  V30 13526 H 1256.71 -4.00195 -1.13944 0
M  V30 13527 H 1255.59 -5.14026 -1.92531 0
M  V30 13528 H 1255.85 -3.55297 -2.6309 0
M  V30 13529 N 1254.91 0.036755 -1.57557 0
M  V30 13530 C 1256.15 0.730186 -1.89199 0
M  V30 13531 C 1256.49 1.75414 -0.833271 0
M  V30 13532 O 1255.76 1.93901 0.152579 0
M  V30 13533 C 1256.04 1.40669 -3.31488 0
M  V30 13534 C 1255.9 0.396764 -4.48047 0
M  V30 13535 C 1257.22 2.34268 -3.72567 0
M  V30 13536 H 1254.33 0.263983 -0.6881 0
M  V30 13537 H 1256.98 -0.0069847 -1.89999 0
M  V30 13538 H 1255.13 2.03502 -3.30937 0
M  V30 13539 H 1256.8 -0.229062 -4.60731 0
M  V30 13540 H 1255.04 -0.284698 -4.32865 0
M  V30 13541 H 1255.71 0.908436 -5.44474 0
M  V30 13542 H 1258.19 1.81485 -3.74436 0
M  V30 13543 H 1257.06 2.78587 -4.72949 0
M  V30 13544 H 1257.33 3.20611 -3.04403 0
M  V30 13545 N 1256.39 1.54543 0.308881 0
M  V30 13546 C 1257.34 1.81332 1.38212 0
M  V30 13547 C 1258.32 0.670056 1.46284 0
M  V30 13548 O 1259.51 0.930476 1.50569 0
M  V30 13549 C 1256.64 2.05713 2.7484 0
M  V30 13550 C 1255.73 3.26202 2.71023 0
M  V30 13551 N 1256.12 4.46933 2.36822 0
M  V30 13552 C 1254.42 3.28071 3.02135 0
M  V30 13553 C 1255.12 5.28923 2.42106 0
M  V30 13554 N 1254.09 4.66455 2.79143 0
M  V30 13555 H 1257.89 2.72246 1.10722 0
M  V30 13556 H 1255.41 1.53936 0.51743 0
M  V30 13557 H 1257.41 2.23049 3.52214 0
M  V30 13558 H 1256.07 1.16062 3.03249 0
M  V30 13559 H 1257.08 4.73674 2.09413 0
M  V30 13560 H 1253.75 2.48501 3.3549 0
M  V30 13561 H 1255.14 6.35369 2.1853 0
M  V30 13562 N 1257.86 -0.571685 1.46866 0
M  V30 13563 C 1259.1 -1.34041 1.54313 0
M  V30 13564 C 1259.47 -1.9101 0.194708 0
M  V30 13565 O 1260.67 -2.68414 0.143968 0
M  V30 13566 C 1258.94 -2.4315 2.61941 0
M  V30 13567 S 1260.5 -3.30301 2.88871 0
M  V30 13568 H 1257.32 -0.45652 0.545078 0
M  V30 13569 H 1259.92 -0.656041 1.84164 0
M  V30 13570 H 1258.62 -1.99707 3.58532 0
M  V30 13571 H 1258.15 -3.16345 2.33858 0
M  V30 13572 H 1260.17 -4.42265 2.24981 0
M  V30 13573 N 1259.34 -1.34755 -0.817236 0
M  V30 13574 C 1260.57 -1.30676 -1.61054 0
M  V30 13575 C 1260.99 0.115343 -1.87746 0
M  V30 13576 O 1260.35 1.07887 -1.45705 0
M  V30 13577 C 1260.4 -2.10881 -2.92509 0
M  V30 13578 O 1259.5 -1.48223 -3.84842 0
M  V30 13579 H 1258.84 -0.448531 -0.489608 0
M  V30 13580 H 1261.37 -1.77642 -1.01512 0
M  V30 13581 H 1261.38 -2.22446 -3.42026 0
M  V30 13582 H 1260.06 -3.14274 -2.72406 0
M  V30 13583 H 1258.63 -1.45434 -3.4337 0
M  V30 13584 N 1260.82 1.03812 -1.18578 0
M  V30 13585 C 1261.78 2.10049 -0.91718 0
M  V30 13586 C 1262.78 1.60498 0.0985122 0
M  V30 13587 O 1263.97 1.73674 -0.135213 0
M  V30 13588 C 1261.1 3.38813 -0.376599 0
M  V30 13589 H 1262.3 2.3531 -1.85927 0
M  V30 13590 H 1259.85 1.20277 -0.998156 0
M  V30 13591 H 1260.59 3.19216 0.571983 0
M  V30 13592 H 1260.37 3.76096 -1.10881 0
M  V30 13593 H 1261.86 4.17084 -0.207453 0
M  V30 13594 N 1262.3 0.988223 1.22768 0
M  V30 13595 C 1263.55 0.660154 1.91014 0
M  V30 13596 C 1263.87 -0.809788 1.77391 0
M  V30 13597 O 1263.14 -1.57998 1.15817 0
M  V30 13598 H 1261.72 0.24118 0.706995 0
M  V30 13599 H 1264.38 1.25372 1.49224 0
M  V30 13600 H 1263.47 0.918603 2.98275 0
M  V30 13601 N 1263.78 -1.38018 0.760839 0
M  V30 13602 C 1265.02 -1.99194 0.316984 0
M  V30 13603 C 1265.34 -1.61083 -1.10958 0
M  V30 13604 O 1266.54 -2.15281 -1.65428 0
M  V30 13605 C 1265 -3.56185 0.515792 0
M  V30 13606 C 1264.61 -4.03242 1.95191 0
M  V30 13607 C 1266.35 -4.24285 0.135013 0
M  V30 13608 C 1264.26 -5.52902 2.0989 0
M  V30 13609 H 1263.19 -0.745214 0.114771 0
M  V30 13610 H 1265.84 -1.5769 0.938415 0
M  V30 13611 H 1264.22 -3.95613 -0.174934 0
M  V30 13612 H 1265.4 -3.75086 2.6767 0
M  V30 13613 H 1263.71 -3.47889 2.28827 0
M  V30 13614 H 1266.31 -5.34233 0.223495 0
M  V30 13615 H 1266.65 -4.06158 -0.913322 0
M  V30 13616 H 1267.18 -3.90121 0.777868 0
M  V30 13617 H 1263.92 -5.75942 3.13003 0
M  V30 13618 H 1263.44 -5.82778 1.41881 0
M  V30 13619 H 1265.12 -6.18709 1.89229 0
M  V30 13620 N 1265.25 -0.510493 -1.49103 0
M  V30 13621 C 1266.5 0.0305831 -2.02077 0
M  V30 13622 C 1266.82 1.36602 -1.39157 0
M  V30 13623 O 1266.09 1.88016 -0.550154 0
M  V30 13624 H 1264.67 0.0142916 -0.746863 0
M  V30 13625 H 1267.33 -0.669895 -1.83026 0
M  V30 13626 H 1266.43 0.153283 -3.11723 0
M  V30 13627 N 1266.73 1.55688 -0.24474 0
M  V30 13628 C 1268.15 1.59219 0.110159 0
M  V30 13629 C 1268.35 1.26187 1.57096 0
M  V30 13630 O 1267.4 1.00815 2.31501 0
M  V30 13631 C 1268.72 2.99764 -0.237075 0
M  V30 13632 C 1270.26 3.12475 -0.181198 0
M  V30 13633 C 1270.74 4.55236 -0.502435 0
M  V30 13634 N 1272.23 4.60981 -0.452855 0
M  V30 13635 C 1272.97 5.69418 -0.674605 0
M  V30 13636 N 1272.46 6.86125 -0.959366 0
M  V30 13637 N 1274.25 5.5883 -0.605459 0
M  V30 13638 H 1266.41 1.7543 -1.19741 0
M  V30 13639 H 1268.67 0.816537 -0.481634 0
M  V30 13640 H 1268.37 3.28666 -1.25185 0
M  V30 13641 H 1268.25 3.74662 0.436859 0
M  V30 13642 H 1270.64 2.83355 0.824248 0
M  V30 13643 H 1270.72 2.39857 -0.888952 0
M  V30 13644 H 1270.36 4.85077 -1.50543 0
M  V30 13645 H 1270.29 5.26111 0.226773 0
M  V30 13646 H 1272.78 3.77128 -0.241401 0
M  V30 13647 H 1273.09 7.64699 -1.11605 0
M  V30 13648 H 1271.44 6.87814 -0.996816 0
M  V30 13649 H 1274.63 4.6653 -0.383053 0
M  V30 13650 H 1274.8 6.43268 -0.781673 0
M  V30 13651 N 1268.21 -0.0283989 1.57574 0
M  V30 13652 C 1269.44 -0.730831 1.93563 0
M  V30 13653 C 1269.85 -1.68857 0.844556 0
M  V30 13654 O 1269.21 -1.8162 -0.178971 0
M  V30 13655 C 1269.26 -1.48731 3.29486 0
M  V30 13656 O 1268.98 -0.568017 4.34402 0
M  V30 13657 C 1270.48 -2.28684 3.79761 0
M  V30 13658 H 1267.7 -0.205346 0.638807 0
M  V30 13659 H 1270.25 0.0142728 2.04495 0
M  V30 13660 H 1268.4 -2.18429 3.19949 0
M  V30 13661 H 1268.82 -1.09861 5.12865 0
M  V30 13662 H 1270.29 -2.77157 4.77376 0
M  V30 13663 H 1270.77 -3.10133 3.10989 0
M  V30 13664 H 1271.37 -1.64059 3.92383 0
M  V30 13665 N 1269.69 -1.54705 -0.300681 0
M  V30 13666 C 1270.94 -1.73658 -1.0338 0
M  V30 13667 C 1271.26 -0.525447 -1.87787 0
M  V30 13668 O 1270.53 0.460269 -1.90416 0
M  V30 13669 H 1269.11 -0.640338 -0.384677 0
M  V30 13670 H 1271.77 -1.92059 -0.331588 0
M  V30 13671 H 1270.86 -2.62595 -1.68672 0
M  V30 13672 N 1271.17 0.563888 -1.47167 0
M  V30 13673 C 1272.41 1.32331 -1.53676 0
M  V30 13674 C 1272.75 1.93213 -0.195593 0
M  V30 13675 O 1272.02 1.77508 0.795068 0
M  V30 13676 C 1272.3 2.43848 -2.64972 0
M  V30 13677 C 1272.16 1.8788 -4.08682 0
M  V30 13678 C 1273.48 3.45809 -2.72221 0
M  V30 13679 H 1270.59 0.479791 -0.559437 0
M  V30 13680 H 1273.24 0.631669 -1.79192 0
M  V30 13681 H 1271.39 3.02846 -2.43345 0
M  V30 13682 H 1273.06 1.33195 -4.41652 0
M  V30 13683 H 1271.3 1.18593 -4.17275 0
M  V30 13684 H 1271.97 2.68465 -4.82318 0
M  V30 13685 H 1274.45 2.9672 -2.91713 0
M  V30 13686 H 1273.32 4.21272 -3.51882 0
M  V30 13687 H 1273.59 4.04236 -1.79014 0
M  V30 13688 N 1272.64 1.35187 0.810078 0
M  V30 13689 C 1273.57 1.30481 1.93641 0
M  V30 13690 C 1274.56 0.179875 1.69146 0
M  V30 13691 O 1275.74 0.374284 1.90559 0
M  V30 13692 C 1272.87 1.07251 3.30325 0
M  V30 13693 C 1271.82 2.16348 3.69293 0
M  V30 13694 C 1271.15 1.78288 5.04101 0
M  V30 13695 C 1272.45 3.58285 3.80038 0
M  V30 13696 H 1274.14 2.24725 1.97836 0
M  V30 13697 H 1271.69 1.08179 0.950436 0
M  V30 13698 H 1273.64 1.02599 4.08719 0
M  V30 13699 H 1272.37 0.0945203 3.26463 0
M  V30 13700 H 1271.03 2.2009 2.93182 0
M  V30 13701 H 1270.67 0.791163 4.96739 0
M  V30 13702 H 1270.37 2.51315 5.31144 0
M  V30 13703 H 1271.9 1.75155 5.84938 0
M  V30 13704 H 1273.31 3.56884 4.48672 0
M  V30 13705 H 1271.71 4.30044 4.18548 0
M  V30 13706 H 1272.78 3.94691 2.81685 0
M  V30 13707 N 1274.12 -1.03182 1.19127 0
M  V30 13708 C 1275.37 -1.75934 0.986415 0
M  V30 13709 C 1275.68 -1.89519 -0.48392 0
M  V30 13710 O 1276.89 -2.59213 -0.80752 0
M  V30 13711 C 1275.35 -3.16358 1.71597 0
M  V30 13712 C 1274.95 -3.10836 3.22622 0
M  V30 13713 C 1276.7 -3.93426 1.59425 0
M  V30 13714 C 1274.61 -4.46174 3.88179 0
M  V30 13715 H 1273.54 -0.659516 0.365451 0
M  V30 13716 H 1276.19 -1.15497 1.42593 0
M  V30 13717 H 1274.57 -3.77245 1.20426 0
M  V30 13718 H 1275.74 -2.59348 3.80887 0
M  V30 13719 H 1274.06 -2.47266 3.35035 0
M  V30 13720 H 1276.65 -4.93526 2.05757 0
M  V30 13721 H 1277 -4.12678 0.547926 0
M  V30 13722 H 1277.53 -3.39134 2.07925 0
M  V30 13723 H 1274.27 -4.32126 4.92897 0
M  V30 13724 H 1273.79 -4.97729 3.34702 0
M  V30 13725 H 1275.47 -5.15066 3.91556 0
M  V30 13726 N 1275.6 -0.99472 -1.22242 0
M  V30 13727 C 1276.83 -0.690097 -1.95052 0
M  V30 13728 C 1277.24 0.745543 -1.73456 0
M  V30 13729 O 1276.6 1.50329 -1.03477 0
M  V30 13730 C 1276.65 -0.988798 -3.47714 0
M  V30 13731 O 1276.37 -2.36803 -3.68587 0
M  V30 13732 C 1277.87 -0.702132 -4.37704 0
M  V30 13733 H 1275.09 -0.255142 -0.620599 0
M  V30 13734 H 1277.64 -1.32998 -1.55344 0
M  V30 13735 H 1275.79 -0.394684 -3.85384 0
M  V30 13736 H 1276.21 -2.4687 -4.62769 0
M  V30 13737 H 1277.68 -0.961389 -5.43564 0
M  V30 13738 H 1278.16 0.363866 -4.3769 0
M  V30 13739 H 1278.76 -1.27738 -4.05664 0
M  V30 13740 N 1277.08 1.37613 -0.768148 0
M  V30 13741 C 1278.01 2.27988 -0.098355 0
M  V30 13742 C 1278.99 1.46137 0.712939 0
M  V30 13743 O 1280.17 1.75477 0.68847 0
M  V30 13744 C 1277.3 3.27413 0.867086 0
M  V30 13745 C 1276.35 4.26269 0.140235 0
M  V30 13746 S 1277.18 5.2258 -1.16921 0
M  V30 13747 C 1278.34 6.25557 -0.207221 0
M  V30 13748 H 1278.57 2.84447 -0.864693 0
M  V30 13749 H 1276.1 1.43833 -0.561376 0
M  V30 13750 H 1278.06 3.85205 1.41872 0
M  V30 13751 H 1276.72 2.69908 1.6065 0
M  V30 13752 H 1275.91 4.964 0.871977 0
M  V30 13753 H 1275.52 3.72449 -0.340294 0
M  V30 13754 H 1277.81 6.74642 0.621654 0
M  V30 13755 H 1278.75 7.02653 -0.876595 0
M  V30 13756 H 1279.16 5.64213 0.179968 0
M  V30 13757 N 1278.56 0.518393 1.4883 0
M  V30 13758 C 1279.47 -0.254811 2.33212 0
M  V30 13759 C 1280.48 -0.950401 1.45751 0
M  V30 13760 O 1281.66 -0.927932 1.78749 0
M  V30 13761 C 1278.72 -1.29509 3.21603 0
M  V30 13762 C 1277.78 -0.611086 4.24928 0
M  V30 13763 C 1277.02 -1.6018 5.09095 0
M  V30 13764 O 1277.24 -2.83336 4.95052 0
M  V30 13765 O 1276.17 -1.14756 5.90859 0
M  V30 13766 H 1280 0.436329 3.00549 0
M  V30 13767 H 1277.59 0.27947 1.46763 0
M  V30 13768 H 1279.47 -1.89654 3.7631 0
M  V30 13769 H 1278.14 -1.96884 2.5694 0
M  V30 13770 H 1277.05 0.0305638 3.74088 0
M  V30 13771 H 1278.38 0.0205249 4.92196 0
M  V30 13772 N 1280.03 -1.55556 0.252993 0
M  V30 13773 C 1281.26 -2.03491 -0.374022 0
M  V30 13774 C 1281.68 -1.13208 -1.51094 0
M  V30 13775 O 1281.03 -0.147705 -1.81901 0
M  V30 13776 C 1281.09 -3.50724 -0.876047 0
M  V30 13777 O 1280.81 -4.37569 0.215574 0
M  V30 13778 C 1282.31 -4.14448 -1.57313 0
M  V30 13779 H 1279.53 -0.665183 -0.0881644 0
M  V30 13780 H 1282.07 -2.00964 0.378636 0
M  V30 13781 H 1280.23 -3.53766 -1.57886 0
M  V30 13782 H 1280.64 -5.24235 -0.166625 0
M  V30 13783 H 1282.11 -5.19142 -1.87606 0
M  V30 13784 H 1282.59 -3.61299 -2.49719 0
M  V30 13785 H 1283.2 -4.15346 -0.914735 0
M  V30 13786 N 1281.51 0.0200419 -1.57587 0
M  V30 13787 C 1282.48 1.00255 -2.06111 0
M  V30 13788 C 1283.48 1.28488 -0.966829 0
M  V30 13789 O 1284.67 1.2334 -1.23015 0
M  V30 13790 C 1281.8 2.33296 -2.48567 0
M  V30 13791 H 1282.99 0.583216 -2.94174 0
M  V30 13792 H 1280.54 0.267077 -1.54001 0
M  V30 13793 H 1281.28 2.79959 -1.63687 0
M  V30 13794 H 1281.06 2.14131 -3.28467 0
M  V30 13795 H 1282.55 3.03817 -2.86505 0
M  V30 13796 N 1282.99 1.54862 0.292472 0
M  V30 13797 C 1283.92 1.81298 1.38586 0
M  V30 13798 C 1284.9 0.664704 1.48393 0
M  V30 13799 O 1286.09 0.905595 1.65322 0
M  V30 13800 C 1283.21 1.9573 2.76419 0
M  V30 13801 C 1282.26 3.18197 2.83994 0
M  V30 13802 S 1283.09 4.76054 2.45219 0
M  V30 13803 C 1284.25 4.93433 3.85064 0
M  V30 13804 H 1284.48 2.73755 1.15955 0
M  V30 13805 H 1282.01 1.46383 0.491053 0
M  V30 13806 H 1283.97 2.0473 3.55803 0
M  V30 13807 H 1282.63 1.04196 2.96314 0
M  V30 13808 H 1281.83 3.25123 3.85112 0
M  V30 13809 H 1281.43 3.07688 2.12613 0
M  V30 13810 H 1283.72 4.7798 4.80148 0
M  V30 13811 H 1284.66 5.95515 3.83103 0
M  V30 13812 H 1285.07 4.2153 3.75463 0
M  V30 13813 N 1284.47 -0.556076 1.47464 0
M  V30 13814 C 1285.71 -1.32397 1.55726 0
M  V30 13815 C 1286.07 -1.90793 0.214956 0
M  V30 13816 O 1287.27 -2.68246 0.172429 0
M  V30 13817 C 1285.54 -2.40358 2.64505 0
M  V30 13818 S 1287.1 -3.27219 2.92358 0
M  V30 13819 H 1283.92 -0.450713 0.549889 0
M  V30 13820 H 1286.52 -0.636471 1.84849 0
M  V30 13821 H 1285.23 -1.95893 3.6063 0
M  V30 13822 H 1284.76 -3.13847 2.372 0
M  V30 13823 H 1286.77 -4.39854 2.29659 0
M  V30 13824 N 1285.95 -1.35615 -0.802897 0
M  V30 13825 C 1286.88 -1.31506 -1.92947 0
M  V30 13826 C 1287.86 -0.188843 -1.69048 0
M  V30 13827 O 1289.04 -0.384384 -1.90358 0
M  V30 13828 C 1286.17 -1.09001 -3.29752 0
M  V30 13829 C 1285.13 -2.18303 -3.68141 0
M  V30 13830 C 1284.45 -1.80959 -5.03148 0
M  V30 13831 C 1285.75 -3.60296 -3.78132 0
M  V30 13832 H 1287.45 -2.25771 -1.96642 0
M  V30 13833 H 1284.99 -1.08682 -0.944685 0
M  V30 13834 H 1286.95 -1.04766 -4.08169 0
M  V30 13835 H 1285.67 -0.111832 -3.26408 0
M  V30 13836 H 1284.33 -2.21642 -2.92011 0
M  V30 13837 H 1283.98 -0.817495 -4.96312 0
M  V30 13838 H 1283.68 -2.54129 -5.29804 0
M  V30 13839 H 1285.2 -1.78255 -5.84001 0
M  V30 13840 H 1286.62 -3.59259 -4.46773 0
M  V30 13841 H 1285.01 -4.32258 -4.16261 0
M  V30 13842 H 1286.08 -3.9618 -2.79588 0
M  V30 13843 N 1287.43 1.02549 -1.19673 0
M  V30 13844 C 1288.67 1.75408 -0.995732 0
M  V30 13845 C 1288.99 1.89773 0.473863 0
M  V30 13846 O 1290.19 2.59638 0.793762 0
M  V30 13847 C 1288.65 3.15444 -1.73273 0
M  V30 13848 C 1288.26 3.09121 -3.24266 0
M  V30 13849 C 1290 3.92575 -1.61509 0
M  V30 13850 C 1287.91 4.44109 -3.9054 0
M  V30 13851 H 1286.84 0.657569 -0.368944 0
M  V30 13852 H 1289.49 1.14739 -1.43203 0
M  V30 13853 H 1287.87 3.76601 -1.22425 0
M  V30 13854 H 1289.05 2.57325 -3.82257 0
M  V30 13855 H 1287.36 2.45485 -3.36342 0
M  V30 13856 H 1289.96 4.92428 -2.08372 0
M  V30 13857 H 1290.3 4.12382 -0.569804 0
M  V30 13858 H 1290.83 3.38027 -2.09721 0
M  V30 13859 H 1287.57 4.29506 -4.95182 0
M  V30 13860 H 1287.09 4.95947 -3.37337 0
M  V30 13861 H 1288.77 5.12982 -3.94282 0
M  V30 13862 N 1288.9 1.00119 1.21713 0
M  V30 13863 C 1289.81 0.567582 2.27631 0
M  V30 13864 C 1290.83 -0.387593 1.69628 0
M  V30 13865 O 1292.01 -0.252372 1.99813 0
M  V30 13866 C 1289.07 -0.102745 3.46548 0
M  V30 13867 C 1288.13 0.896433 4.19836 0
M  V30 13868 C 1287.36 0.258 5.33076 0
M  V30 13869 O 1287.59 -0.946118 5.62499 0
M  V30 13870 O 1286.52 0.967021 5.94081 0
M  V30 13871 H 1290.35 1.44898 2.66905 0
M  V30 13872 H 1287.93 0.769862 1.28037 0
M  V30 13873 H 1289.81 -0.477846 4.18682 0
M  V30 13874 H 1288.49 -0.958576 3.09181 0
M  V30 13875 H 1287.4 1.32262 3.49939 0
M  V30 13876 H 1288.73 1.72173 4.61104 0
M  V30 13877 N 1290.38 -1.37203 0.775435 0
M  V30 13878 C 1291.62 -2.01439 0.346649 0
M  V30 13879 C 1291.99 -1.60223 -1.05795 0
M  V30 13880 O 1293.19 -2.16947 -1.58706 0
M  V30 13881 C 1291.46 -3.54031 0.489584 0
M  V30 13882 S 1293.02 -4.38555 0.146606 0
M  V30 13883 H 1289.83 -0.698417 0.133173 0
M  V30 13884 H 1292.44 -1.67338 1.01086 0
M  V30 13885 H 1291.14 -3.81516 1.51241 0
M  V30 13886 H 1290.67 -3.92936 -0.19105 0
M  V30 13887 H 1292.69 -4.8482 -1.05661 0
M  V30 13888 N 1291.86 -0.526279 -1.48553 0
M  V30 13889 C 1292.81 0.251938 -2.31232 0
M  V30 13890 C 1293.8 0.938991 -1.40994 0
M  V30 13891 O 1295.01 0.863798 -1.57919 0
M  V30 13892 H 1291.38 0.100114 -0.745306 0
M  V30 13893 H 1293.35 -0.465013 -2.94754 0
M  V30 13894 C 1292.1 1.28816 -3.22958 0
M  V30 13895 H 1291.43 0.768899 -3.92337 0
M  V30 13896 H 1292.87 1.80417 -3.837 0
M  V30 13897 C 1291.32 2.31982 -2.44307 0
M  V30 13898 O 1291.85 3.3835 -2.16523 0
M  V30 13899 N 1290.06 2.051 -2.05869 0
M  V30 13900 H 1289.61 1.18618 -2.28665 0
M  V30 13901 H 1289.57 2.74349 -1.53557 0
M  V30 13902 N 1293.34 1.5542 -0.261239 0
M  V30 13903 C 1294.27 2.19334 0.665214 0
M  V30 13904 C 1295.28 1.17388 1.128 0
M  V30 13905 O 1296.47 1.44183 1.0523 0
M  V30 13906 C 1293.57 2.79425 1.91768 0
M  V30 13907 C 1292.74 4.06929 1.60399 0
M  V30 13908 C 1291.8 4.51199 2.70751 0
M  V30 13909 O 1290.83 5.17272 2.37526 0
M  V30 13910 N 1292.03 4.20179 4.00537 0
M  V30 13911 H 1294.8 2.99467 0.118262 0
M  V30 13912 H 1292.36 1.61693 -0.0817727 0
M  V30 13913 H 1294.35 3.05992 2.64861 0
M  V30 13914 H 1292.92 2.03366 2.37405 0
M  V30 13915 H 1292.14 3.87798 0.707559 0
M  V30 13916 H 1293.43 4.9003 1.36924 0
M  V30 13917 H 1292.83 3.67164 4.30357 0
M  V30 13918 H 1291.38 4.51549 4.7005 0
M  V30 13919 N 1294.82 -0.0116844 1.57596 0
M  V30 13920 C 1296.23 -0.55604 1.78228 0
M  V30 13921 C 1296.58 -1.74624 0.894474 0
M  V30 13922 O 1295.7 -2.16196 0.0938498 0
M  V30 13923 C 1296.3 -1.0155 3.23223 0
M  V30 13924 C 1294.86 -1.50525 3.44992 0
M  V30 13925 C 1294 -0.451133 2.73606 0
M  V30 13926 H 1296.95 0.214516 1.57243 0
M  V30 13927 H 1296.98 -1.88208 3.30693 0
M  V30 13928 H 1296.49 -0.149048 3.87814 0
M  V30 13929 H 1294.59 -2.39298 2.856 0
M  V30 13930 H 1294.7 -1.54076 4.53649 0
M  V30 13931 H 1293.07 -0.910135 2.37884 0
M  V30 13932 H 1293.85 0.406152 3.40889 0
M  V30 13933 N 1296.29 -1.55015 -0.284256 0
M  V30 13934 C 1297.54 -1.7535 -1.01884 0
M  V30 13935 C 1297.87 -0.546825 -1.86342 0
M  V30 13936 O 1297.15 0.455832 -1.89083 0
M  V30 13937 C 1297.43 -3.05219 -1.91084 0
M  V30 13938 C 1297.28 -4.36219 -1.09694 0
M  V30 13939 C 1298.6 -3.31056 -2.89983 0
M  V30 13940 H 1295.72 -0.637981 -0.368984 0
M  V30 13941 H 1298.36 -1.87741 -0.292116 0
M  V30 13942 H 1296.51 -2.94786 -2.53048 0
M  V30 13943 H 1298.19 -4.58594 -0.498876 0
M  V30 13944 H 1296.43 -4.31951 -0.400078 0
M  V30 13945 H 1297.1 -5.23392 -1.75399 0
M  V30 13946 H 1299.58 -3.41209 -2.38151 0
M  V30 13947 H 1298.45 -4.23212 -3.49547 0
M  V30 13948 H 1298.71 -2.50153 -3.64521 0
M  V30 13949 N 1297.77 0.548248 -1.47757 0
M  V30 13950 C 1299 1.32827 -1.58242 0
M  V30 13951 C 1299.41 1.87736 -0.234936 0
M  V30 13952 O 1298.75 1.66163 0.78329 0
M  V30 13953 C 1298.81 2.52906 -2.55497 0
M  V30 13954 C 1298.48 2.19218 -4.00989 0
M  V30 13955 C 1299.48 1.75976 -4.89212 0
M  V30 13956 C 1297.16 2.30302 -4.46392 0
M  V30 13957 C 1299.15 1.44258 -6.20861 0
M  V30 13958 C 1296.84 1.98197 -5.78067 0
M  V30 13959 C 1297.84 1.55244 -6.65123 0
M  V30 13960 O 1297.53 1.23551 -7.94349 0
M  V30 13961 H 1297.26 0.41088 -0.536799 0
M  V30 13962 H 1299.81 0.670055 -1.94163 0
M  V30 13963 H 1298.04 3.21648 -2.14661 0
M  V30 13964 H 1299.73 3.14979 -2.56014 0
M  V30 13965 H 1300.5 1.66898 -4.55379 0
M  V30 13966 H 1296.38 2.62693 -3.78832 0
M  V30 13967 H 1299.92 1.10659 -6.88767 0
M  V30 13968 H 1295.82 2.0691 -6.1144 0
M  V30 13969 H 1296.59 1.37105 -8.06935 0
M  V30 13970 N 1299.25 1.36039 0.795694 0
M  V30 13971 C 1300.66 1.2679 1.37044 0
M  V30 13972 C 1301.01 -0.0950192 1.9597 0
M  V30 13973 O 1300.14 -0.996311 1.921 0
M  V30 13974 C 1300.73 2.29585 2.49151 0
M  V30 13975 C 1299.29 2.24044 3.02458 0
M  V30 13976 C 1298.44 2.14703 1.75493 0
M  V30 13977 H 1301.39 1.47009 0.597843 0
M  V30 13978 H 1301.41 1.92864 3.27999 0
M  V30 13979 H 1300.92 3.28769 2.06234 0
M  V30 13980 H 1299.02 1.28307 3.49812 0
M  V30 13981 H 1299.14 3.1647 3.597 0
M  V30 13982 H 1297.5 1.60856 1.97478 0
M  V30 13983 H 1298.28 3.15765 1.34713 0
M  V30 13984 N 1300.73 -1.01913 1.20215 0
M  V30 13985 C 1301.66 -2.12282 0.97256 0
M  V30 13986 C 1302.64 -1.6982 -0.0975709 0
M  V30 13987 O 1303.82 -1.94109 0.0594307 0
M  V30 13988 C 1300.95 -3.43369 0.521085 0
M  V30 13989 C 1299.91 -3.99559 1.53417 0
M  V30 13990 C 1299.23 -5.26383 0.93942 0
M  V30 13991 C 1300.53 -4.33241 2.91718 0
M  V30 13992 H 1302.23 -2.31746 1.89563 0
M  V30 13993 H 1299.77 -1.1137 0.912841 0
M  V30 13994 H 1301.73 -4.19963 0.347713 0
M  V30 13995 H 1300.45 -3.23655 -0.437605 0
M  V30 13996 H 1299.11 -3.25069 1.69486 0
M  V30 13997 H 1298.76 -5.02993 -0.0271236 0
M  V30 13998 H 1298.46 -5.64942 1.616 0
M  V30 13999 H 1299.98 -6.05635 0.777059 0
M  V30 14000 H 1301.4 -5.00734 2.79175 0
M  V30 14001 H 1299.79 -4.82907 3.56259 0
M  V30 14002 H 1300.86 -3.42118 3.43633 0
M  V30 14003 N 1302.21 -1.00763 -1.2118 0
M  V30 14004 C 1303.48 -0.607236 -1.85935 0
M  V30 14005 C 1303.86 0.915048 -1.90237 0
M  V30 14006 O 1303.21 1.80308 -1.40361 0
M  V30 14007 C 1303.42 -1.24466 -3.26051 0
M  V30 14008 C 1304.77 -1.35443 -4.02418 0
M  V30 14009 O 1305.79 -1.20018 -3.35372 0
M  V30 14010 O 1304.65 -1.60282 -5.22467 0
M  V30 14011 H 1301.75 -0.208338 -0.800328 0
M  V30 14012 H 1304.29 -1.10444 -1.28842 0
M  V30 14013 H 1303.06 -2.28524 -3.17635 0
M  V30 14014 H 1302.69 -0.733966 -3.90767 0
M  V30 14015 N 1303.68 1.3679 -0.7827 0
M  V30 14016 C 1304.93 1.98664 -0.348634 0
M  V30 14017 C 1305.25 1.62827 1.08382 0
M  V30 14018 O 1306.45 2.17886 1.61982 0
M  V30 14019 C 1304.91 3.55319 -0.572392 0
M  V30 14020 C 1304.52 4.00086 -2.01582 0
M  V30 14021 C 1306.26 4.24017 -0.202496 0
M  V30 14022 C 1304.17 5.49493 -2.18659 0
M  V30 14023 H 1303.1 0.743294 -0.126612 0
M  V30 14024 H 1305.75 1.56177 -0.963383 0
M  V30 14025 H 1304.13 3.95842 0.111973 0
M  V30 14026 H 1305.3 3.7078 -2.73603 0
M  V30 14027 H 1303.62 3.44205 -2.34333 0
M  V30 14028 H 1306.22 5.3381 -0.308459 0
M  V30 14029 H 1306.56 4.07559 0.84859 0
M  V30 14030 H 1307.09 3.88834 -0.839834 0
M  V30 14031 H 1303.83 5.7089 -3.22126 0
M  V30 14032 H 1303.35 5.80447 -1.51134 0
M  V30 14033 H 1305.03 6.15621 -1.99048 0
M  V30 14034 N 1305.16 0.53415 1.48272 0
M  V30 14035 C 1306.41 0.00157492 2.028 0
M  V30 14036 C 1306.74 -1.33538 1.41001 0
M  V30 14037 O 1306.02 -1.86347 0.557245 0
M  V30 14038 C 1306.3 -0.116016 3.59913 0
M  V30 14039 C 1306.15 1.2464 4.32186 0
M  V30 14040 C 1307.47 -0.840775 4.31994 0
M  V30 14041 H 1304.59 0.00204634 0.736997 0
M  V30 14042 H 1307.23 0.691985 1.76951 0
M  V30 14043 H 1305.38 -0.704027 3.82068 0
M  V30 14044 H 1307.05 1.87584 4.21438 0
M  V30 14045 H 1305.3 1.8272 3.93441 0
M  V30 14046 H 1305.97 1.11708 5.40579 0
M  V30 14047 H 1308.44 -0.341746 4.14694 0
M  V30 14048 H 1307.32 -0.89196 5.41604 0
M  V30 14049 H 1307.58 -1.89197 3.99571 0
M  V30 14050 N 1306.64 -1.55279 0.269478 0
M  V30 14051 C 1308.06 -1.59374 -0.0848147 0
M  V30 14052 C 1308.26 -1.2867 -1.55068 0
M  V30 14053 O 1307.31 -1.04486 -2.29867 0
M  V30 14054 C 1308.63 -2.99349 0.284735 0
M  V30 14055 C 1310.17 -3.12147 0.230887 0
M  V30 14056 C 1310.65 -4.54379 0.574795 0
M  V30 14057 N 1312.14 -4.60202 0.526136 0
M  V30 14058 C 1312.87 -5.68273 0.765109 0
M  V30 14059 N 1312.37 -6.84512 1.0684 0
M  V30 14060 N 1314.16 -5.57796 0.694287 0
M  V30 14061 H 1306.31 -1.73503 1.22517 0
M  V30 14062 H 1308.58 -0.808771 0.494564 0
M  V30 14063 H 1308.28 -3.26633 1.30398 0
M  V30 14064 H 1308.16 -3.75309 -0.377199 0
M  V30 14065 H 1310.54 -2.84631 -0.779064 0
M  V30 14066 H 1310.63 -2.38412 0.926998 0
M  V30 14067 H 1310.27 -4.8262 1.58241 0
M  V30 14068 H 1310.2 -5.26406 -0.143044 0
M  V30 14069 H 1312.69 -3.76696 0.301368 0
M  V30 14070 H 1313 -7.62826 1.23757 0
M  V30 14071 H 1311.35 -6.86141 1.10612 0
M  V30 14072 H 1314.54 -4.65862 0.457226 0
M  V30 14073 H 1314.71 -6.41943 0.883913 0
M  V30 14074 N 1308.12 0.00332656 -1.576 0
M  V30 14075 C 1309.35 0.699945 -1.94701 0
M  V30 14076 C 1309.76 1.67492 -0.871312 0
M  V30 14077 O 1309.12 1.81882 0.150054 0
M  V30 14078 C 1309.17 1.43471 -3.31811 0
M  V30 14079 O 1308.89 0.498835 -4.35251 0
M  V30 14080 C 1310.39 2.22614 -3.83351 0
M  V30 14081 H 1307.61 0.195158 -0.641993 0
M  V30 14082 H 1310.16 -0.0468044 -2.04446 0
M  V30 14083 H 1308.31 2.13311 -3.23384 0
M  V30 14084 H 1308.72 1.01688 -5.14548 0
M  V30 14085 H 1310.2 2.69527 -4.81725 0
M  V30 14086 H 1310.68 3.05146 -3.15883 0
M  V30 14087 H 1311.28 1.57796 -3.94944 0
M  V30 14088 N 1309.6 1.55164 0.276031 0
M  V30 14089 C 1310.53 1.82758 1.36656 0
M  V30 14090 C 1311.51 0.680405 1.4768 0
M  V30 14091 O 1312.69 0.923078 1.64352 0
M  V30 14092 C 1309.82 1.98651 2.74328 0
M  V30 14093 C 1308.86 3.21192 2.80603 0
M  V30 14094 S 1309.7 4.78628 2.40156 0
M  V30 14095 C 1310.85 4.9749 3.79809 0
M  V30 14096 H 1311.09 2.74969 1.13045 0
M  V30 14097 H 1308.62 1.46896 0.4755 0
M  V30 14098 H 1310.58 2.08492 3.53612 0
M  V30 14099 H 1309.24 1.07333 2.95192 0
M  V30 14100 H 1308.43 3.29189 3.81642 0
M  V30 14101 H 1308.03 3.09926 2.09337 0
M  V30 14102 H 1310.33 4.83045 4.75051 0
M  V30 14103 H 1311.27 5.99544 3.76765 0
M  V30 14104 H 1311.68 4.25489 3.70971 0
M  V30 14105 N 1311.07 -0.540404 1.48045 0
M  V30 14106 C 1312.49 -0.867958 1.33935 0
M  V30 14107 C 1312.69 -1.98568 0.342488 0
M  V30 14108 O 1311.75 -2.51357 -0.240022 0
M  V30 14109 C 1313.06 -1.24532 2.73701 0
M  V30 14110 C 1314.61 -1.3558 2.82112 0
M  V30 14111 C 1315.08 -1.76664 4.22556 0
M  V30 14112 N 1316.57 -1.83785 4.25179 0
M  V30 14113 C 1317.31 -2.16938 5.30778 0
M  V30 14114 N 1316.8 -2.48587 6.46666 0
M  V30 14115 N 1318.6 -2.17855 5.18166 0
M  V30 14116 H 1310.75 0.197251 2.11482 0
M  V30 14117 H 1313.01 0.0255947 0.947654 0
M  V30 14118 H 1312.72 -0.497731 3.4816 0
M  V30 14119 H 1312.59 -2.19779 3.06556 0
M  V30 14120 H 1314.98 -2.09417 2.07915 0
M  V30 14121 H 1315.06 -0.384787 2.52889 0
M  V30 14122 H 1314.7 -1.03391 4.97265 0
M  V30 14123 H 1314.63 -2.74797 4.49215 0
M  V30 14124 H 1317.12 -1.61645 3.41583 0
M  V30 14125 H 1317.44 -2.72959 7.22989 0
M  V30 14126 H 1315.78 -2.4613 6.49958 0
M  V30 14127 H 1318.97 -1.9258 4.2665 0
M  V30 14128 H 1319.15 -2.43361 6.00566 0
M  V30 14129 N 1312.55 -1.36459 -0.788468 0
M  V30 14130 C 1313.83 -1.21289 -1.53455 0
M  V30 14131 C 1314.21 0.200549 -2.10145 0
M  V30 14132 O 1313.56 1.20629 -1.94064 0
M  V30 14133 C 1313.77 -2.29562 -2.62873 0
M  V30 14134 C 1315.12 -2.66277 -3.30729 0
M  V30 14135 O 1316.14 -2.28612 -2.73157 0
M  V30 14136 O 1315 -3.31106 -4.34777 0
M  V30 14137 H 1312.09 -0.472306 -0.678864 0
M  V30 14138 H 1314.64 -1.48192 -0.826869 0
M  V30 14139 H 1313.41 -3.24286 -2.18984 0
M  V30 14140 H 1313.03 -2.0403 -3.41259 0
M  V30 14141 N 1314.03 1.01274 -1.20754 0
M  V30 14142 C 1314.96 2.10029 -0.917628 0
M  V30 14143 C 1315.98 1.62516 0.0961411 0
M  V30 14144 O 1317.16 1.77986 -0.135371 0
M  V30 14145 C 1314.26 3.37037 -0.354891 0
M  V30 14146 C 1313.44 4.1367 -1.42113 0
M  V30 14147 C 1312.5 5.18974 -0.869023 0
M  V30 14148 O 1311.52 5.47671 -1.55063 0
M  V30 14149 N 1312.72 5.79619 0.319631 0
M  V30 14150 H 1315.49 2.35485 -1.85383 0
M  V30 14151 H 1313.05 1.17695 -1.11173 0
M  V30 14152 H 1315.04 4.0469 0.0286895 0
M  V30 14153 H 1313.61 3.088 0.485956 0
M  V30 14154 H 1312.83 3.40931 -1.97889 0
M  V30 14155 H 1314.12 4.61649 -2.13911 0
M  V30 14156 H 1313.52 5.58646 0.89059 0
M  V30 14157 H 1312.08 6.48603 0.644807 0
M  V30 14158 N 1315.51 1.01404 1.20644 0
M  V30 14159 C 1316.93 0.728446 1.42006 0
M  V30 14160 C 1317.13 -0.692894 1.89212 0
M  V30 14161 O 1316.18 -1.46101 2.05939 0
M  V30 14162 C 1317.49 1.75198 2.44389 0
M  V30 14163 C 1319.04 1.76983 2.58159 0
M  V30 14164 C 1319.52 2.78256 3.63782 0
M  V30 14165 N 1321.01 2.7698 3.71263 0
M  V30 14166 C 1321.74 3.51999 4.52641 0
M  V30 14167 N 1321.24 4.36687 5.37844 0
M  V30 14168 N 1323.03 3.40608 4.47149 0
M  V30 14169 H 1315.18 1.93168 0.883172 0
M  V30 14170 H 1317.45 0.834287 0.450187 0
M  V30 14171 H 1317.15 2.77013 2.16695 0
M  V30 14172 H 1317.03 1.56203 3.43337 0
M  V30 14173 H 1319.41 0.758551 2.85184 0
M  V30 14174 H 1319.49 2.00051 1.59415 0
M  V30 14175 H 1319.14 3.79546 3.37501 0
M  V30 14176 H 1319.07 2.5245 4.62143 0
M  V30 14177 H 1321.56 2.15546 3.104 0
M  V30 14178 H 1321.87 4.90703 5.97018 0
M  V30 14179 H 1320.22 4.40766 5.37355 0
M  V30 14180 H 1323.41 2.73872 3.79621 0
M  V30 14181 H 1323.58 3.99327 5.10335 0
M  V30 14182 N 1316.99 -1.36373 0.789944 0
M  V30 14183 C 1317.95 -2.28372 0.194639 0
M  V30 14184 C 1318.95 -1.48849 -0.608332 0
M  V30 14185 O 1320.14 -1.68829 -0.42925 0
M  V30 14186 C 1317.27 -3.3298 -0.730553 0
M  V30 14187 H 1318.47 -2.82529 1.00585 0
M  V30 14188 H 1316.02 -1.45946 0.559406 0
M  V30 14189 H 1316.75 -2.8398 -1.56608 0
M  V30 14190 H 1316.54 -3.91787 -0.156706 0
M  V30 14191 H 1318.03 -4.01684 -1.14192 0
M  V30 14192 N 1318.47 -0.542005 -1.47987 0
M  V30 14193 C 1319.4 0.261671 -2.26695 0
M  V30 14194 C 1320.38 0.93404 -1.33096 0
M  V30 14195 O 1321.56 0.956051 -1.62456 0
M  V30 14196 C 1318.69 1.37155 -3.09687 0
M  V30 14197 C 1317.73 0.809337 -4.18751 0
M  V30 14198 S 1318.57 -0.332224 -5.34468 0
M  V30 14199 C 1319.72 0.779843 -6.21023 0
M  V30 14200 H 1319.96 -0.406263 -2.94511 0
M  V30 14201 H 1317.49 -0.32802 -1.50875 0
M  V30 14202 H 1319.45 2.00726 -3.58077 0
M  V30 14203 H 1318.11 2.01126 -2.41262 0
M  V30 14204 H 1317.3 1.64233 -4.76491 0
M  V30 14205 H 1316.9 0.250095 -3.73163 0
M  V30 14206 H 1319.19 1.67564 -6.56452 0
M  V30 14207 H 1320.14 0.240142 -7.07693 0
M  V30 14208 H 1320.55 1.06567 -5.5435 0
M  V30 14209 N 1319.94 1.55134 -0.277709 0
M  V30 14210 C 1320.88 2.18745 0.650058 0
M  V30 14211 C 1321.85 1.14922 1.15029 0
M  V30 14212 O 1323.04 1.43458 1.22278 0
M  V30 14213 C 1320.17 2.81277 1.88683 0
M  V30 14214 C 1319.21 3.98425 1.52185 0
M  V30 14215 S 1320.04 5.32153 0.597782 0
M  V30 14216 C 1321.2 5.98155 1.84287 0
M  V30 14217 H 1321.43 2.97098 0.109571 0
M  V30 14218 H 1318.97 1.54276 -0.0619536 0
M  V30 14219 H 1320.92 3.17934 2.59669 0
M  V30 14220 H 1319.59 2.02813 2.39845 0
M  V30 14221 H 1318.78 4.40877 2.4422 0
M  V30 14222 H 1318.38 3.63203 0.892146 0
M  V30 14223 H 1320.67 6.17546 2.78646 0
M  V30 14224 H 1321.62 6.92857 1.46131 0
M  V30 14225 H 1322.02 5.27541 2.00899 0
M  V30 14226 N 1321.42 0.00503138 1.57599 0
M  V30 14227 C 1322.67 -0.677979 1.89964 0
M  V30 14228 C 1322.98 -1.74657 0.88059 0
M  V30 14229 O 1324.19 -2.48455 1.09463 0
M  V30 14230 C 1322.65 -1.25708 3.37232 0
M  V30 14231 C 1322.25 -0.223045 4.47444 0
M  V30 14232 C 1324 -1.91799 3.787 0
M  V30 14233 C 1321.9 -0.812416 5.85793 0
M  V30 14234 H 1320.83 -0.256991 0.708852 0
M  V30 14235 H 1323.49 0.0663988 1.8338 0
M  V30 14236 H 1321.87 -2.05228 3.3867 0
M  V30 14237 H 1323.04 0.54794 4.57531 0
M  V30 14238 H 1321.36 0.337714 4.15028 0
M  V30 14239 H 1323.95 -2.36808 4.79402 0
M  V30 14240 H 1324.3 -2.75067 3.1248 0
M  V30 14241 H 1324.83 -1.19004 3.79583 0
M  V30 14242 H 1321.57 -0.0184031 6.55497 0
M  V30 14243 H 1321.09 -1.55244 5.79361 0
M  V30 14244 H 1322.77 -1.30952 6.33609 0
M  V30 14245 N 1322.9 -1.55308 -0.267798 0
M  V30 14246 C 1323.83 -1.84963 -1.35356 0
M  V30 14247 C 1324.84 -0.73446 -1.45291 0
M  V30 14248 O 1326.03 -1.01237 -1.47015 0
M  V30 14249 C 1323.13 -2.00221 -2.73432 0
M  V30 14250 C 1322.31 -3.30922 -2.86024 0
M  V30 14251 C 1321.37 -3.3618 -4.04808 0
M  V30 14252 O 1320.39 -4.09525 -3.9532 0
M  V30 14253 N 1321.59 -2.63958 -5.17017 0
M  V30 14254 H 1324.36 -2.7868 -1.1026 0
M  V30 14255 H 1321.92 -1.55289 -0.457914 0
M  V30 14256 H 1323.91 -2.01103 -3.51197 0
M  V30 14257 H 1322.48 -1.13346 -2.91327 0
M  V30 14258 H 1321.7 -3.42534 -1.951 0
M  V30 14259 H 1322.99 -4.17109 -2.91371 0
M  V30 14260 H 1322.39 -2.04062 -5.27613 0
M  V30 14261 H 1320.94 -2.70558 -5.92994 0
M  V30 14262 N 1324.38 0.532545 -1.4833 0
M  V30 14263 C 1325.61 1.31331 -1.59874 0
M  V30 14264 C 1326.02 1.87028 -0.258037 0
M  V30 14265 O 1325.38 1.66272 0.752317 0
M  V30 14266 C 1325.43 2.46596 -2.64334 0
M  V30 14267 O 1325.15 1.93195 -3.93201 0
M  V30 14268 C 1326.65 3.38454 -2.86294 0
M  V30 14269 H 1323.87 0.399476 -0.539129 0
M  V30 14270 H 1326.41 0.642696 -1.94138 0
M  V30 14271 H 1324.57 3.09548 -2.32936 0
M  V30 14272 H 1324.98 2.68627 -4.50489 0
M  V30 14273 H 1326.46 4.15687 -3.63192 0
M  V30 14274 H 1326.93 3.93526 -1.95022 0
M  V30 14275 H 1327.54 2.81297 -3.18986 0
M  V30 14276 N 1325.86 1.36875 0.78122 0
M  V30 14277 C 1327.27 1.28236 1.35692 0
M  V30 14278 C 1327.62 -0.0742286 1.9606 0
M  V30 14279 O 1326.74 -0.97588 1.93146 0
M  V30 14280 C 1327.34 2.32215 2.46702 0
M  V30 14281 C 1325.9 2.2724 3.00065 0
M  V30 14282 C 1325.04 2.16553 1.73206 0
M  V30 14283 H 1327.99 1.47634 0.582217 0
M  V30 14284 H 1328.02 1.96333 3.25935 0
M  V30 14285 H 1327.53 3.30938 2.02735 0
M  V30 14286 H 1325.63 1.3201 3.48431 0
M  V30 14287 H 1325.74 3.20267 3.56323 0
M  V30 14288 H 1324.11 1.62941 1.95761 0
M  V30 14289 H 1324.89 3.17176 1.31356 0
M  V30 14290 N 1327.33 -1.00632 1.21289 0
M  V30 14291 C 1328.56 -1.78503 1.05601 0
M  V30 14292 C 1328.98 -1.84015 -0.389879 0
M  V30 14293 O 1328.34 -1.28277 -1.2812 0
M  V30 14294 C 1328.39 -3.20313 1.65626 0
M  V30 14295 O 1327.49 -4.02441 0.900841 0
M  V30 14296 H 1326.83 -0.550183 0.371746 0
M  V30 14297 H 1329.36 -1.26505 1.60803 0
M  V30 14298 H 1329.37 -3.70992 1.69792 0
M  V30 14299 H 1328.05 -3.15616 2.7085 0
M  V30 14300 H 1326.63 -3.61009 0.934178 0
M  V30 14301 N 1328.81 -1.02043 -1.20104 0
M  V30 14302 C 1329.74 -0.552093 -2.22451 0
M  V30 14303 C 1330.76 0.367547 -1.58597 0
M  V30 14304 O 1331.95 0.165285 -1.77733 0
M  V30 14305 C 1329.05 0.215833 -3.38212 0
M  V30 14306 C 1328.22 -0.70666 -4.31654 0
M  V30 14307 C 1327.28 0.0143628 -5.26198 0
M  V30 14308 O 1326.3 -0.609413 -5.65928 0
M  V30 14309 N 1327.51 1.28794 -5.66032 0
M  V30 14310 H 1330.27 -1.43229 -2.6326 0
M  V30 14311 H 1327.83 -0.89842 -1.34685 0
M  V30 14312 H 1329.82 0.707523 -3.98467 0
M  V30 14313 H 1328.39 0.997358 -2.96263 0
M  V30 14314 H 1327.61 -1.37859 -3.69308 0
M  V30 14315 H 1328.9 -1.33392 -4.91003 0
M  V30 14316 H 1328.3 1.8156 -5.35773 0
M  V30 14317 H 1326.86 1.72429 -6.28579 0
M  V30 14318 N 1330.29 1.35952 -0.797165 0
M  V30 14319 C 1331.52 2.02986 -0.384758 0
M  V30 14320 C 1331.93 1.60233 1.00608 0
M  V30 14321 O 1331.27 0.790955 1.658 0
M  V30 14322 C 1331.33 3.57508 -0.37795 0
M  V30 14323 C 1331 4.23491 -1.71769 0
M  V30 14324 C 1331.99 4.45835 -2.67445 0
M  V30 14325 C 1329.68 4.60804 -1.99911 0
M  V30 14326 C 1331.67 5.04584 -3.89453 0
M  V30 14327 C 1329.36 5.19269 -3.22185 0
M  V30 14328 C 1330.36 5.41099 -4.16774 0
M  V30 14329 O 1330.05 5.98334 -5.36891 0
M  V30 14330 H 1329.78 0.657838 -0.155644 0
M  V30 14331 H 1332.33 1.7475 -1.07942 0
M  V30 14332 H 1330.56 3.84894 0.373253 0
M  V30 14333 H 1332.25 4.05899 0.0108505 0
M  V30 14334 H 1333.02 4.17397 -2.46992 0
M  V30 14335 H 1328.9 4.43132 -1.27102 0
M  V30 14336 H 1332.44 5.21539 -4.63296 0
M  V30 14337 H 1328.34 5.47134 -3.42512 0
M  V30 14338 H 1329.11 6.16794 -5.38059 0
M  V30 14339 N 1331.77 0.549846 1.47697 0
M  V30 14340 C 1333.18 0.209085 1.58225 0
M  V30 14341 C 1333.38 -1.28823 1.54941 0
M  V30 14342 O 1332.44 -2.0679 1.44893 0
M  V30 14343 C 1333.75 0.829219 2.89041 0
M  V30 14344 C 1335.3 0.79977 3.0261 0
M  V30 14345 C 1335.78 1.39884 4.36115 0
M  V30 14346 N 1337.27 1.36169 4.42733 0
M  V30 14347 C 1338 1.79492 5.44583 0
M  V30 14348 N 1337.5 2.30637 6.53283 0
M  V30 14349 N 1339.29 1.70608 5.35583 0
M  V30 14350 H 1331.44 1.52275 1.48074 0
M  V30 14351 H 1333.71 0.634579 0.704283 0
M  V30 14352 H 1333.41 1.88122 2.97158 0
M  V30 14353 H 1333.29 0.317916 3.75858 0
M  V30 14354 H 1335.67 -0.243525 2.94093 0
M  V30 14355 H 1335.75 1.34875 2.17353 0
M  V30 14356 H 1335.4 2.44116 4.45387 0
M  V30 14357 H 1335.33 0.825362 5.20092 0
M  V30 14358 H 1337.82 0.987505 3.64769 0
M  V30 14359 H 1338.13 2.61637 7.27163 0
M  V30 14360 H 1336.48 2.34643 6.54192 0
M  V30 14361 H 1339.67 1.30434 4.4956 0
M  V30 14362 H 1339.84 2.0469 6.14822 0
M  V30 14363 N 1333.25 -1.54984 0.285932 0
M  V30 14364 C 1334.49 -1.9983 -0.327737 0
M  V30 14365 C 1334.82 -1.17435 -1.55046 0
M  V30 14366 O 1334.08 -0.234735 -1.94287 0
M  V30 14367 C 1334.38 -3.49581 -0.7435 0
M  V30 14368 C 1334.04 -4.49331 0.375792 0
M  V30 14369 C 1332.7 -4.76327 0.683103 0
M  V30 14370 C 1335.06 -5.08815 1.12947 0
M  V30 14371 C 1332.38 -5.60071 1.74748 0
M  V30 14372 C 1334.74 -5.93716 2.18366 0
M  V30 14373 C 1333.4 -6.19028 2.4972 0
M  V30 14374 H 1332.67 -0.731231 -0.119928 0
M  V30 14375 H 1335.32 -1.87235 0.401896 0
M  V30 14376 H 1333.62 -3.59708 -1.55298 0
M  V30 14377 H 1335.32 -3.81694 -1.22924 0
M  V30 14378 H 1331.91 -4.28414 0.126159 0
M  V30 14379 H 1336.09 -4.87973 0.905313 0
M  V30 14380 H 1331.35 -5.77925 1.9953 0
M  V30 14381 H 1335.52 -6.38838 2.77233 0
M  V30 14382 H 1333.15 -6.83711 3.3233 0
M  V30 14383 N 1334.72 -0.0133892 -1.57594 0
M  V30 14384 C 1335.97 0.669624 -1.91426 0
M  V30 14385 C 1336.3 1.72675 -0.888656 0
M  V30 14386 O 1335.58 1.94288 0.0908138 0
M  V30 14387 C 1335.86 1.30051 -3.35796 0
M  V30 14388 C 1335.71 0.254021 -4.49082 0
M  V30 14389 C 1337.03 2.22297 -3.79832 0
M  V30 14390 H 1334.15 0.241958 -0.69615 0
M  V30 14391 H 1336.79 -0.0674278 -1.8988 0
M  V30 14392 H 1334.94 1.92871 -3.37243 0
M  V30 14393 H 1336.62 -0.375524 -4.59769 0
M  V30 14394 H 1334.86 -0.422267 -4.3174 0
M  V30 14395 H 1335.53 0.734756 -5.47088 0
M  V30 14396 H 1338.01 1.69481 -3.8002 0
M  V30 14397 H 1336.88 2.634 -4.81572 0
M  V30 14398 H 1337.14 3.10764 -3.14449 0
M  V30 14399 N 1336.2 1.55448 0.259558 0
M  V30 14400 C 1337.44 1.78444 0.996849 0
M  V30 14401 C 1337.81 0.580862 1.83003 0
M  V30 14402 O 1339.01 0.68934 2.59811 0
M  V30 14403 C 1337.28 3.06094 1.84502 0
M  V30 14404 S 1338.84 3.50263 2.64313 0
M  V30 14405 H 1335.66 0.626854 0.335523 0
M  V30 14406 H 1338.26 1.93683 0.265929 0
M  V30 14407 H 1336.96 3.91772 1.22241 0
M  V30 14408 H 1336.49 2.93558 2.61891 0
M  V30 14409 H 1338.51 3.10596 3.86968 0
M  V30 14410 N 1337.68 -0.524672 1.4861 0
M  V30 14411 C 1338.59 -1.65554 1.6622 0
M  V30 14412 C 1339.61 -1.65254 0.54471 0
M  V30 14413 O 1340.78 -1.84109 0.816454 0
M  V30 14414 C 1337.85 -3.02003 1.7028 0
M  V30 14415 C 1336.91 -3.13116 2.93695 0
M  V30 14416 C 1336.14 -4.43055 2.97553 0
M  V30 14417 O 1336.36 -5.30468 2.09667 0
M  V30 14418 O 1335.3 -4.58646 3.89779 0
M  V30 14419 H 1339.12 -1.53633 2.61974 0
M  V30 14420 H 1336.71 -0.698354 1.32073 0
M  V30 14421 H 1338.59 -3.83143 1.75441 0
M  V30 14422 H 1337.27 -3.14236 0.777002 0
M  V30 14423 H 1336.17 -2.31251 2.94064 0
M  V30 14424 H 1337.51 -3.058 3.85677 0
M  V30 14425 N 1339.16 -1.37287 -0.77395 0
M  V30 14426 C 1340.12 -1.32699 -1.86878 0
M  V30 14427 C 1341.12 -0.231486 -1.59125 0
M  V30 14428 O 1342.31 -0.487203 -1.67248 0
M  V30 14429 C 1339.44 -1.0609 -3.23972 0
M  V30 14430 H 1340.64 -2.30083 -1.92359 0
M  V30 14431 H 1338.19 -1.22284 -0.973459 0
M  V30 14432 H 1338.92 -0.0922868 -3.24169 0
M  V30 14433 H 1338.71 -1.85383 -3.45508 0
M  V30 14434 H 1340.2 -1.05524 -4.04048 0
M  V30 14435 N 1340.64 0.999871 -1.21821 0
M  V30 14436 C 1341.89 1.73257 -1.03271 0
M  V30 14437 C 1342.2 1.90736 0.433502 0
M  V30 14438 O 1343.4 2.61263 0.738511 0
M  V30 14439 C 1341.86 3.11697 -1.79925 0
M  V30 14440 C 1341.47 3.02173 -3.3075 0
M  V30 14441 C 1343.21 3.89061 -1.698 0
M  V30 14442 C 1341.12 4.35725 -3.99872 0
M  V30 14443 H 1340.05 0.649595 -0.382809 0
M  V30 14444 H 1342.7 1.11676 -1.45605 0
M  V30 14445 H 1341.08 3.73919 -1.30386 0
M  V30 14446 H 1342.26 2.49158 -3.8763 0
M  V30 14447 H 1340.57 2.38296 -3.41473 0
M  V30 14448 H 1343.17 4.87897 -2.1877 0
M  V30 14449 H 1343.51 4.11081 -0.657148 0
M  V30 14450 H 1344.04 3.33502 -2.16844 0
M  V30 14451 H 1340.78 4.18906 -5.04181 0
M  V30 14452 H 1340.3 4.8868 -3.47781 0
M  V30 14453 H 1341.98 5.04503 -4.05075 0
M  V30 14454 N 1342.11 1.02678 1.19562 0
M  V30 14455 C 1343.04 0.626359 2.24942 0
M  V30 14456 C 1344.03 -0.363612 1.66168 0
M  V30 14457 O 1345.21 -0.246793 1.92625 0
M  V30 14458 C 1342.34 -0.0257912 3.4729 0
M  V30 14459 C 1341.29 0.886237 4.18724 0
M  V30 14460 C 1340.62 0.0993081 5.34608 0
M  V30 14461 C 1341.92 2.19901 4.73752 0
M  V30 14462 H 1343.61 1.50729 2.58691 0
M  V30 14463 H 1341.16 0.726195 1.24348 0
M  V30 14464 H 1343.11 -0.317545 4.20202 0
M  V30 14465 H 1341.84 -0.941511 3.12735 0
M  V30 14466 H 1340.5 1.16215 3.47692 0
M  V30 14467 H 1340.14 -0.81838 4.96298 0
M  V30 14468 H 1339.84 0.706776 5.83334 0
M  V30 14469 H 1341.37 -0.185754 6.10317 0
M  V30 14470 H 1342.78 1.96892 5.3843 0
M  V30 14471 H 1341.18 2.75821 5.32956 0
M  V30 14472 H 1342.25 2.85509 3.91934 0
M  V30 14473 N 1343.59 -1.35528 0.804364 0
M  V30 14474 C 1344.54 -2.29832 0.211186 0
M  V30 14475 C 1345.51 -1.52704 -0.653503 0
M  V30 14476 O 1346.69 -1.81152 -0.599052 0
M  V30 14477 C 1343.83 -3.39188 -0.636054 0
M  V30 14478 C 1342.95 -4.31283 0.248824 0
M  V30 14479 C 1342.08 -5.2773 -0.60621 0
M  V30 14480 C 1341.12 -6.11463 0.279205 0
M  V30 14481 N 1340.26 -7.00054 -0.535672 0
M  V30 14482 H 1345.1 -2.79971 1.0208 0
M  V30 14483 H 1342.64 -1.37793 0.514931 0
M  V30 14484 H 1344.59 -4.01254 -1.14241 0
M  V30 14485 H 1343.22 -2.90331 -1.41095 0
M  V30 14486 H 1342.28 -3.70241 0.873263 0
M  V30 14487 H 1343.59 -4.90046 0.930417 0
M  V30 14488 H 1342.74 -5.95158 -1.17778 0
M  V30 14489 H 1341.48 -4.69458 -1.32138 0
M  V30 14490 H 1340.49 -5.42984 0.863066 0
M  V30 14491 H 1341.71 -6.71813 0.9922 0
M  V30 14492 H 1339.66 -6.44273 -1.23486 0
M  V30 14493 H 1339.57 -7.55949 0.0879213 0
M  V30 14494 H 1340.84 -7.71833 -1.09059 0
M  V30 14495 N 1345.07 -0.557671 -1.47404 0
M  V30 14496 C 1346.32 -0.0338384 -2.02772 0
M  V30 14497 C 1346.65 1.31278 -1.43107 0
M  V30 14498 O 1345.93 1.85436 -0.58682 0
M  V30 14499 C 1346.21 0.0587427 -3.60052 0
M  V30 14500 C 1346.06 -1.315 -4.30148 0
M  V30 14501 C 1347.38 0.771942 -4.33277 0
M  V30 14502 H 1344.5 -0.0137711 -0.736871 0
M  V30 14503 H 1347.14 -0.720049 -1.75827 0
M  V30 14504 H 1345.29 0.643154 -3.83139 0
M  V30 14505 H 1346.96 -1.94265 -4.184 0
M  V30 14506 H 1345.21 -1.88956 -3.90484 0
M  V30 14507 H 1345.88 -1.20294 -5.38733 0
M  V30 14508 H 1348.35 0.275729 -4.15185 0
M  V30 14509 H 1347.23 0.805683 -5.42955 0
M  V30 14510 H 1347.49 1.82816 -4.0253 0
M  V30 14511 N 1346.55 1.54831 -0.294147 0
M  V30 14512 C 1347.78 2.04115 0.319474 0
M  V30 14513 C 1348.19 1.17125 1.48588 0
M  V30 14514 O 1347.53 0.188034 1.82735 0
M  V30 14515 C 1347.59 3.49429 0.84496 0
M  V30 14516 C 1347.26 4.56583 -0.195275 0
M  V30 14517 C 1348.25 5.09768 -1.02138 0
M  V30 14518 C 1345.94 5.01182 -0.335 0
M  V30 14519 C 1347.93 6.06088 -1.97321 0
M  V30 14520 C 1345.62 5.97323 -1.29029 0
M  V30 14521 C 1346.62 6.49659 -2.10788 0
M  V30 14522 O 1346.31 7.43918 -3.04698 0
M  V30 14523 H 1346.04 0.671895 0.074383 0
M  V30 14524 H 1348.59 2.00856 -0.429669 0
M  V30 14525 H 1346.82 3.4999 1.64451 0
M  V30 14526 H 1348.51 3.81947 1.37372 0
M  V30 14527 H 1349.28 4.76112 -0.924264 0
M  V30 14528 H 1345.16 4.60078 0.291422 0
M  V30 14529 H 1348.7 6.46863 -2.61177 0
M  V30 14530 H 1344.6 6.30397 -1.38815 0
M  V30 14531 H 1345.36 7.61698 -2.99598 0
M  V30 14532 N 1348.03 0.0217466 1.57585 0
M  V30 14533 C 1348.94 -0.978407 2.13224 0
M  V30 14534 C 1349.95 -1.36212 1.08269 0
M  V30 14535 O 1351.13 -1.44504 1.40288 0
M  V30 14536 C 1348.19 -2.24462 2.6423 0
M  V30 14537 C 1347.26 -1.92201 3.83871 0
M  V30 14538 C 1346.49 -3.12786 4.32436 0
M  V30 14539 O 1346.71 -4.25201 3.8021 0
M  V30 14540 O 1345.65 -2.95514 5.24362 0
M  V30 14541 H 1349.47 -0.535347 2.98944 0
M  V30 14542 H 1347.06 -0.198414 1.48077 0
M  V30 14543 H 1348.94 -2.98809 2.97138 0
M  V30 14544 H 1347.61 -2.67964 1.81596 0
M  V30 14545 H 1346.52 -1.15262 3.55901 0
M  V30 14546 H 1347.85 -1.53521 4.67645 0
M  V30 14547 N 1349.51 -1.55583 -0.251311 0
M  V30 14548 C 1350.42 -1.93073 -1.33266 0
M  V30 14549 C 1351.43 -0.830612 -1.52895 0
M  V30 14550 O 1352.61 -1.13162 -1.66602 0
M  V30 14551 C 1349.67 -2.21396 -2.66805 0
M  V30 14552 C 1348.73 -3.44815 -2.55737 0
M  V30 14553 C 1347.97 -3.71777 -3.82907 0
M  V30 14554 O 1348.19 -3.00884 -4.84587 0
M  V30 14555 O 1347.12 -4.65305 -3.81805 0
M  V30 14556 H 1350.95 -2.85168 -1.04465 0
M  V30 14557 H 1348.53 -1.42408 -0.451693 0
M  V30 14558 H 1350.42 -2.4094 -3.45725 0
M  V30 14559 H 1349.09 -1.3248 -2.95348 0
M  V30 14560 H 1348 -3.30582 -1.75118 0
M  V30 14561 H 1349.33 -4.34019 -2.32139 0
M  V30 14562 N 1350.98 0.516783 -1.48886 0
M  V30 14563 C 1352.23 1.26936 -1.57263 0
M  V30 14564 C 1352.55 1.93337 -0.254156 0
M  V30 14565 O 1351.82 1.81977 0.725345 0
M  V30 14566 H 1350.4 0.4715 -0.579393 0
M  V30 14567 H 1353.06 0.600289 -1.85425 0
M  V30 14568 H 1352.16 2.04167 -2.36055 0
M  V30 14569 N 1352.46 1.37696 0.766659 0
M  V30 14570 C 1353.71 1.33185 1.52539 0
M  V30 14571 C 1354.04 -0.0821239 1.94327 0
M  V30 14572 O 1353.29 -1.05645 1.64735 0
M  V30 14573 C 1353.59 2.22154 2.79968 0
M  V30 14574 C 1353.26 3.70344 2.57208 0
M  V30 14575 C 1351.92 4.10729 2.50709 0
M  V30 14576 C 1354.27 4.64205 2.36988 0
M  V30 14577 C 1351.6 5.43082 2.21988 0
M  V30 14578 C 1353.95 5.96801 2.0979 0
M  V30 14579 C 1352.61 6.36284 2.01739 0
M  V30 14580 H 1351.88 0.487357 0.558179 0
M  V30 14581 H 1354.53 1.69945 0.882662 0
M  V30 14582 H 1352.84 1.78406 3.48825 0
M  V30 14583 H 1354.53 2.15975 3.37869 0
M  V30 14584 H 1351.12 3.38319 2.63131 0
M  V30 14585 H 1355.31 4.3386 2.40996 0
M  V30 14586 H 1350.56 5.7263 2.14254 0
M  V30 14587 H 1354.74 6.6908 1.93145 0
M  V30 14588 H 1352.36 7.38765 1.79248 0
M  V30 14589 N 1353.94 -0.993397 1.22349 0
M  V30 14590 C 1355.19 -1.73544 1.04931 0
M  V30 14591 C 1355.52 -1.89721 -0.414661 0
M  V30 14592 O 1354.79 -1.44001 -1.30743 0
M  V30 14593 C 1355.08 -3.14131 1.7605 0
M  V30 14594 C 1354.93 -3.05604 3.30039 0
M  V30 14595 C 1356.25 -4.13294 1.51249 0
M  V30 14596 H 1353.37 -0.629915 0.382591 0
M  V30 14597 H 1356.01 -1.15737 1.50682 0
M  V30 14598 H 1354.16 -3.63483 1.37157 0
M  V30 14599 H 1355.83 -2.63876 3.78374 0
M  V30 14600 H 1354.07 -2.42421 3.59742 0
M  V30 14601 H 1354.75 -4.05086 3.74979 0
M  V30 14602 H 1357.22 -3.72696 1.85033 0
M  V30 14603 H 1356.1 -5.09781 2.03507 0
M  V30 14604 H 1356.36 -4.39855 0.444973 0
M  V30 14605 N 1355.42 -1.03311 -1.19015 0
M  V30 14606 C 1356.36 -0.617567 -2.22384 0
M  V30 14607 C 1357.33 0.370779 -1.61909 0
M  V30 14608 O 1358.52 0.266481 -1.8893 0
M  V30 14609 C 1355.66 0.0211303 -3.45094 0
M  V30 14610 C 1354.77 -1.01377 -4.19937 0
M  V30 14611 C 1353.91 -0.344385 -5.30082 0
M  V30 14612 C 1352.95 -1.3649 -5.96688 0
M  V30 14613 N 1352.08 -0.721026 -6.98388 0
M  V30 14614 H 1356.92 -1.5036 -2.57286 0
M  V30 14615 H 1354.46 -0.75235 -1.26405 0
M  V30 14616 H 1356.42 0.408713 -4.15193 0
M  V30 14617 H 1355.05 0.870721 -3.10835 0
M  V30 14618 H 1354.1 -1.51937 -3.4874 0
M  V30 14619 H 1355.41 -1.78921 -4.65606 0
M  V30 14620 H 1354.57 0.097814 -6.06621 0
M  V30 14621 H 1353.31 0.463216 -4.85495 0
M  V30 14622 H 1352.31 -1.81732 -5.18897 0
M  V30 14623 H 1353.54 -2.17407 -6.43359 0
M  V30 14624 H 1351.48 0.0664057 -6.55966 0
M  V30 14625 H 1351.4 -1.43428 -7.4227 0
M  V30 14626 H 1352.67 -0.30297 -7.78911 0
M  V30 14627 N 1356.9 1.35099 -0.81154 0
M  V30 14628 C 1358.31 1.81082 -0.454543 0
M  V30 14629 C 1358.66 1.67361 1.02395 0
M  V30 14630 O 1357.78 1.20707 1.79607 0
M  V30 14631 C 1358.38 3.2877 -0.818274 0
M  V30 14632 C 1356.94 3.72877 -0.513808 0
M  V30 14633 C 1356.08 2.57008 -1.04125 0
M  V30 14634 H 1359.03 1.23007 -1.00274 0
M  V30 14635 H 1359.06 3.80318 -0.117683 0
M  V30 14636 H 1358.57 3.38725 -1.89439 0
M  V30 14637 H 1356.67 3.68468 0.553368 0
M  V30 14638 H 1356.78 4.67455 -1.0499 0
M  V30 14639 H 1355.15 2.5045 -0.463337 0
M  V30 14640 H 1355.93 2.69738 -2.12358 0
M  V30 14641 N 1358.37 0.56548 1.47106 0
M  V30 14642 C 1359.3 -0.16567 2.32912 0
M  V30 14643 C 1360.28 -0.900678 1.44298 0
M  V30 14644 O 1361.47 -0.879523 1.73142 0
M  V30 14645 C 1358.6 -1.19092 3.26243 0
M  V30 14646 C 1357.55 -0.571849 4.24163 0
M  V30 14647 C 1356.88 -1.70233 5.06878 0
M  V30 14648 C 1358.18 0.479785 5.20092 0
M  V30 14649 H 1359.87 0.550705 2.94292 0
M  V30 14650 H 1357.42 0.266284 1.41517 0
M  V30 14651 H 1359.37 -1.71064 3.85117 0
M  V30 14652 H 1358.1 -1.93734 2.62934 0
M  V30 14653 H 1356.76 -0.073353 3.66527 0
M  V30 14654 H 1356.4 -2.438 4.39967 0
M  V30 14655 H 1356.1 -1.29384 5.73178 0
M  V30 14656 H 1357.63 -2.22515 5.68612 0
M  V30 14657 H 1359.04 0.0458042 5.73282 0
M  V30 14658 H 1357.44 0.807615 5.94641 0
M  V30 14659 H 1358.51 1.37259 4.65068 0
M  V30 14660 N 1359.85 -1.54672 0.302354 0
M  V30 14661 C 1361.08 -2.04578 -0.309093 0
M  V30 14662 C 1361.5 -1.17957 -1.47416 0
M  V30 14663 O 1360.85 -0.2055 -1.81339 0
M  V30 14664 C 1360.9 -3.53334 -0.764023 0
M  V30 14665 O 1360.62 -4.36662 0.354674 0
M  V30 14666 C 1362.13 -4.19243 -1.44048 0
M  V30 14667 H 1359.35 -0.667651 -0.0669575 0
M  V30 14668 H 1361.89 -1.99658 0.442379 0
M  V30 14669 H 1360.04 -3.5861 -1.46552 0
M  V30 14670 H 1360.46 -5.245 0.000241188 0
M  V30 14671 H 1361.93 -5.24847 -1.70995 0
M  V30 14672 H 1362.41 -3.69061 -2.38098 0
M  V30 14673 H 1363.02 -4.18046 -0.782132 0
M  V30 14674 N 1361.33 -0.0301034 -1.57571 0
M  V30 14675 C 1362.56 0.658488 -1.96142 0
M  V30 14676 C 1362.97 1.65606 -0.906644 0
M  V30 14677 O 1362.33 1.82159 0.111441 0
M  V30 14678 C 1362.38 1.364 -3.34779 0
M  V30 14679 O 1362.1 0.4064 -4.36211 0
M  V30 14680 C 1363.6 2.14432 -3.87987 0
M  V30 14681 H 1360.82 0.181496 -0.645988 0
M  V30 14682 H 1363.37 -0.09016 -2.04301 0
M  V30 14683 H 1361.52 2.06404 -3.27836 0
M  V30 14684 H 1361.94 0.907503 -5.16589 0
M  V30 14685 H 1363.41 2.59248 -4.87334 0
M  V30 14686 H 1363.89 2.98377 -3.22285 0
M  V30 14687 H 1364.49 1.49383 -3.98202 0
M  V30 14688 N 1362.81 1.55714 0.243056 0
M  V30 14689 C 1364.03 1.82126 0.992219 0
M  V30 14690 C 1364.46 0.607665 1.78014 0
M  V30 14691 O 1363.82 -0.443351 1.75796 0
M  V30 14692 C 1363.86 3.06314 1.90274 0
M  V30 14693 O 1362.97 2.83499 2.99503 0
M  V30 14694 H 1362.31 0.601082 0.282128 0
M  V30 14695 H 1364.84 2.02904 0.262881 0
M  V30 14696 H 1364.85 3.35849 2.31666 0
M  V30 14697 H 1363.52 3.94282 1.32344 0
M  V30 14698 H 1362.1 2.65141 2.62211 0
M  V30 14699 N 1364.29 -0.50888 1.49158 0
M  V30 14700 C 1365.51 -1.28771 1.61943 0
M  V30 14701 C 1365.93 -1.86594 0.287759 0
M  V30 14702 O 1365.29 -1.67448 -0.725769 0
M  V30 14703 C 1365.34 -2.4236 2.68224 0
M  V30 14704 O 1365.06 -1.86915 3.96225 0
M  V30 14705 C 1366.56 -3.33856 2.91642 0
M  V30 14706 H 1363.78 -0.390849 0.545416 0
M  V30 14707 H 1366.32 -0.611729 1.95136 0
M  V30 14708 H 1364.48 -3.05803 2.37831 0
M  V30 14709 H 1364.89 -2.61426 4.54705 0
M  V30 14710 H 1366.37 -4.09856 3.69759 0
M  V30 14711 H 1366.84 -3.90374 2.01258 0
M  V30 14712 H 1367.45 -2.76187 3.23421 0
M  V30 14713 N 1365.76 -1.381 -0.759346 0
M  V30 14714 C 1366.71 -1.34972 -1.89434 0
M  V30 14715 C 1367.71 -0.236499 -1.67741 0
M  V30 14716 O 1368.91 -0.405218 -1.7538 0
M  V30 14717 H 1365.29 -0.420922 -0.62316 0
M  V30 14718 H 1367.26 -2.3076 -1.89189 0
M  V30 14719 C 1366.01 -1.18594 -3.2685 0
M  V30 14720 H 1365.33 -2.03514 -3.44125 0
M  V30 14721 H 1366.77 -1.20458 -4.06529 0
M  V30 14722 C 1365.23 0.107562 -3.36728 0
M  V30 14723 O 1365.76 1.08668 -3.86722 0
M  V30 14724 N 1363.97 0.162455 -2.90146 0
M  V30 14725 H 1363.51 -0.634985 -2.49651 0
M  V30 14726 H 1363.47 1.02751 -2.97136 0
M  V30 14727 N 1367.24 0.986894 -1.22875 0
M  V30 14728 C 1368.19 2.07811 -1.00416 0
M  V30 14729 C 1369.16 1.65925 0.0761734 0
M  V30 14730 O 1370.34 1.90654 -0.0746294 0
M  V30 14731 C 1367.48 3.39941 -0.594471 0
M  V30 14732 C 1366.6 3.95134 -1.74622 0
M  V30 14733 C 1365.73 5.1545 -1.28394 0
M  V30 14734 C 1364.77 5.62794 -2.40686 0
M  V30 14735 N 1363.91 6.74343 -1.95462 0
M  V30 14736 H 1368.75 2.26356 -1.93822 0
M  V30 14737 H 1366.29 1.10966 -0.965661 0
M  V30 14738 H 1368.24 4.15828 -0.338078 0
M  V30 14739 H 1366.87 3.21379 0.302587 0
M  V30 14740 H 1365.93 3.16064 -2.11679 0
M  V30 14741 H 1367.24 4.26247 -2.59066 0
M  V30 14742 H 1366.39 5.98646 -0.98529 0
M  V30 14743 H 1365.13 4.85975 -0.409789 0
M  V30 14744 H 1364.14 4.78182 -2.71333 0
M  V30 14745 H 1365.36 5.9429 -3.28627 0
M  V30 14746 H 1363.31 6.46641 -1.10417 0
M  V30 14747 H 1363.22 7.04806 -2.73469 0
M  V30 14748 H 1364.49 7.6103 -1.68683 0
M  V30 14749 O 1368.76 1.16517 1.1183 0
M  V30 14750 H 1369.45 0.897764 1.71639 0
M  V30 END ATOM
M  V30 BEGIN BOND
M  V30 END BOND
M  V30 END CTAB
M  END
$$$$
