drugbank_target|P29120 Neuroendocrine convertase 1 (DB00071)
 OpenBabel12092120063D

  0  0  0     0  0            999 V3000
M  V30 BEGIN CTAB
M  V30 COUNTS 11610 11751 0 0 0
M  V30 BEGIN ATOM
M  V30 1 H -0.908 1.98254 -0.117106 0
M  V30 2 N 0 1.576 0 0
M  V30 3 C 0.933 2.03868 1.02534 0
M  V30 4 C 1.911 0.928543 1.3348 0
M  V30 5 O 3.095 1.19667 1.45644 0
M  V30 6 C 0.222 2.43627 2.35294 0
M  V30 7 C -0.732 3.65373 2.2001 0
M  V30 8 S 0.101 5.13292 1.52614 0
M  V30 9 C 1.257 5.56322 2.86805 0
M  V30 10 H 1.49 2.90518 0.631377 0
M  V30 11 H -0.977 1.52953 0.210867 0
M  V30 12 H 0.981 2.67203 3.11629 0
M  V30 13 H -0.358 1.57376 2.7183 0
M  V30 14 H -1.165 3.90944 3.18086 0
M  V30 15 H -1.563 3.418 1.51819 0
M  V30 16 H 0.729 5.58782 3.83104 0
M  V30 17 H 1.672 6.56266 2.65933 0
M  V30 18 H 2.08 4.83886 2.90714 0
M  V30 19 N 1.4781 -0.272755 1.55222 0
M  V30 20 C 2.3881 -1.35918 1.91216 0
M  V30 21 C 3.4041 -1.54026 0.809436 0
M  V30 22 O 4.5801 -1.68148 1.10852 0
M  V30 23 C 1.6451 -2.69834 2.17693 0
M  V30 24 C 0.7061 -2.6047 3.41253 0
M  V30 25 C -0.0609 -3.88 3.66458 0
M  V30 26 O 0.1621 -4.88693 2.94169 0
M  V30 27 O -0.9039 -3.88189 4.59992 0
M  V30 28 H 2.9221 -1.0839 2.83699 0
M  V30 29 H 0.5071 -0.471301 1.41771 0
M  V30 30 H 2.3891 -3.49017 2.36147 0
M  V30 31 H 1.0641 -2.97148 1.28392 0
M  V30 32 H -0.0289 -1.79663 3.28134 0
M  V30 33 H 1.3041 -2.38106 4.30774 0
M  V30 34 N 2.9562 -1.48159 -0.537278 0
M  V30 35 C 4.3722 -1.34118 -0.865129 0
M  V30 36 C 4.5722 -0.346678 -1.98495 0
M  V30 37 O 3.6282 0.234715 -2.51407 0
M  V30 38 C 4.9412 -2.73963 -1.23954 0
M  V30 39 C 6.4892 -2.82397 -1.34984 0
M  V30 40 C 6.9642 -4.22928 -1.75772 0
M  V30 41 N 8.4552 -4.25566 -1.82887 0
M  V30 42 C 9.1902 -5.31235 -2.15817 0
M  V30 43 N 8.6862 -6.47189 -2.47222 0
M  V30 44 N 10.4792 -5.18624 -2.16761 0
M  V30 45 H 2.6302 -2.1144 0.201715 0
M  V30 46 H 4.8932 -0.947598 0.0275949 0
M  V30 47 H 4.5992 -3.48264 -0.490381 0
M  V30 48 H 4.4732 -3.0702 -2.19132 0
M  V30 49 H 6.8602 -2.08356 -2.08978 0
M  V30 50 H 6.9412 -2.5297 -0.379448 0
M  V30 51 H 6.5852 -4.97482 -1.02341 0
M  V30 52 H 6.5152 -4.49794 -2.73848 0
M  V30 53 H 9.0062 -3.41924 -1.60924 0
M  V30 54 H 9.3192 -7.23564 -2.71433 0
M  V30 55 H 7.6642 -6.50476 -2.44757 0
M  V30 56 H 10.8552 -4.27056 -1.91679 0
M  V30 57 H 11.0282 -6.01078 -2.42093 0
M  V30 58 N 4.4343 0.785586 -1.36625 0
M  V30 59 C 5.8503 1.08419 -1.17122 0
M  V30 60 C 6.0503 2.015 0.00208491 0
M  V30 61 O 5.1063 2.43551 0.666278 0
M  V30 62 C 6.4193 1.69498 -2.48377 0
M  V30 63 C 7.9673 1.81821 -2.54775 0
M  V30 64 C 8.4423 2.46315 -3.86126 0
M  V30 65 N 9.9333 2.53779 -3.87492 0
M  V30 66 C 10.6683 3.045 -4.85868 0
M  V30 67 N 10.1643 3.55499 -5.94637 0
M  V30 68 N 11.9573 3.03247 -4.73284 0
M  V30 69 H 4.1083 0.167264 -2.1174 0
M  V30 70 H 6.3713 0.13682 -0.938075 0
M  V30 71 H 6.0773 1.08571 -3.34522 0
M  V30 72 H 5.9513 2.6896 -2.64462 0
M  V30 73 H 8.3383 2.41884 -1.69045 0
M  V30 74 H 8.4193 0.811532 -2.42586 0
M  V30 75 H 8.0633 1.86895 -4.72263 0
M  V30 76 H 7.9933 3.47561 -3.95612 0
M  V30 77 H 10.4843 2.17672 -3.08913 0
M  V30 78 H 10.7973 3.92562 -6.65669 0
M  V30 79 H 9.1423 3.5364 -5.98301 0
M  V30 80 H 12.3333 2.62696 -3.87438 0
M  V30 81 H 12.5063 3.42467 -5.50109 0
M  V30 82 N 5.9124 1.20967 1.01018 0
M  V30 83 C 6.8754 0.965918 2.07853 0
M  V30 84 C 7.8754 -0.0610545 1.60684 0
M  V30 85 O 9.0654 0.175681 1.73312 0
M  V30 86 C 6.1974 0.455513 3.37843 0
M  V30 87 H 7.3904 1.91365 2.3091 0
M  V30 88 H 4.9434 1.02594 1.17916 0
M  V30 89 H 5.6784 -0.497381 3.20463 0
M  V30 90 H 5.4634 1.19622 3.73407 0
M  V30 91 H 6.9534 0.304667 4.16487 0
M  V30 92 N 7.3905 -1.2043 1.01659 0
M  V30 93 C 8.6365 -1.90356 0.716674 0
M  V30 94 C 8.9915 -1.77367 -0.745557 0
M  V30 95 O 8.2845 -1.1471 -1.53467 0
M  V30 96 C 8.4785 -3.40464 1.08714 0
M  V30 97 C 8.3075 -3.6806 2.58384 0
M  V30 98 C 7.0775 -3.86775 3.25167 0
M  V30 99 C 9.2755 -3.70623 3.56572 0
M  V30 100 N 7.2575 -4.01889 4.64067 0
M  V30 101 C 8.6285 -3.91161 4.81034 0
M  V30 102 C 10.6835 -3.53586 3.50544 0
M  V30 103 C 9.3865 -3.96428 6.00198 0
M  V30 104 C 11.4125 -3.60125 4.6911 0
M  V30 105 C 10.7745 -3.81135 5.92381 0
M  V30 106 H 6.8735 -0.716226 0.313918 0
M  V30 107 H 9.4575 -1.44815 1.30141 0
M  V30 108 H 7.6285 -3.84757 0.530745 0
M  V30 109 H 9.3605 -3.97863 0.740763 0
M  V30 110 H 6.1155 -3.85156 2.75594 0
M  V30 111 H 6.5395 -4.13323 5.36184 0
M  V30 112 H 11.1815 -3.36308 2.56235 0
M  V30 113 H 8.8995 -4.12502 6.94887 0
M  V30 114 H 12.4855 -3.4825 4.66062 0
M  V30 115 H 11.3655 -3.86054 6.82592 0
M  V30 116 N 8.8686 -0.792821 -1.36206 0
M  V30 117 C 10.0936 -0.377701 -2.03932 0
M  V30 118 C 10.5186 0.998947 -1.59382 0
M  V30 119 O 9.8766 1.64421 -0.763903 0
M  V30 120 C 9.9246 -0.453635 -3.57735 0
M  V30 121 O 9.0286 0.538151 -4.08874 0
M  V30 122 H 8.3696 -0.159855 -0.644471 0
M  V30 123 H 10.8996 -1.07488 -1.7409 0
M  V30 124 H 10.9096 -0.318464 -4.06755 0
M  V30 125 H 9.5846 -1.45784 -3.89512 0
M  V30 126 H 8.1616 0.364359 -3.71116 0
M  V30 127 N 10.3467 1.47872 -0.545128 0
M  V30 128 C 11.2767 2.32661 0.197793 0
M  V30 129 C 12.2577 1.43041 0.920504 0
M  V30 130 O 13.4427 1.71912 0.90333 0
M  V30 131 C 10.5727 3.24569 1.23582 0
M  V30 132 C 9.5267 4.23333 0.630323 0
M  V30 133 C 8.8527 5.0448 1.77211 0
M  V30 134 C 10.1527 5.20704 -0.407974 0
M  V30 135 H 11.8467 2.95024 -0.510045 0
M  V30 136 H 9.3927 1.4187 -0.246731 0
M  V30 137 H 11.3457 3.8272 1.76362 0
M  V30 138 H 10.0697 2.60236 1.97344 0
M  V30 139 H 8.7287 3.6639 0.123922 0
M  V30 140 H 8.3767 4.36561 2.49847 0
M  V30 141 H 8.0767 5.71339 1.37281 0
M  V30 142 H 9.6007 5.65487 2.3034 0
M  V30 143 H 11.0147 5.7329 0.033305 0
M  V30 144 H 9.4117 5.95699 -0.725486 0
M  V30 145 H 10.4817 4.66917 -1.30828 0
M  V30 146 N 11.8248 0.280983 1.55075 0
M  V30 147 C 12.7568 -0.637268 2.20163 0
M  V30 148 C 13.7698 -1.11298 1.18813 0
M  V30 149 O 14.9588 -1.03388 1.4551 0
M  V30 150 C 12.0588 -1.88199 2.81841 0
M  V30 151 C 11.2318 -1.55211 4.08936 0
M  V30 152 C 10.2908 -2.64991 4.54606 0
M  V30 153 O 9.3168 -2.30929 5.2025 0
M  V30 154 N 10.5188 -3.95161 4.25238 0
M  V30 155 H 13.2838 -0.0801694 2.99593 0
M  V30 156 H 10.8448 0.102329 1.61576 0
M  V30 157 H 12.8368 -2.60948 3.09335 0
M  V30 158 H 11.4068 -2.34799 2.06369 0
M  V30 159 H 10.6268 -0.658185 3.88666 0
M  V30 160 H 11.9148 -1.30681 4.91732 0
M  V30 161 H 11.3128 -4.25653 3.72607 0
M  V30 162 H 9.8698 -4.6427 4.5749 0
M  V30 163 N 13.3029 -1.57598 0.00835791 0
M  V30 164 C 14.5429 -1.92788 -0.679136 0
M  V30 165 C 14.9069 -0.883378 -1.70471 0
M  V30 166 O 16.1079 -1.12079 -2.44319 0
M  V30 167 C 14.3789 -3.32994 -1.29807 0
M  V30 168 S 15.9379 -3.90082 -2.00952 0
M  V30 169 H 12.7559 -0.67475 -0.224127 0
M  V30 170 H 15.3579 -1.95385 0.0670497 0
M  V30 171 H 14.0619 -4.06846 -0.538922 0
M  V30 172 H 13.5929 -3.33791 -2.082 0
M  V30 173 H 15.6079 -3.71834 -3.28563 0
M  V30 174 N 14.781 0.264519 -1.55364 0
M  V30 175 C 16.009 1.013 -1.80405 0
M  V30 176 C 16.424 1.79618 -0.581622 0
M  V30 177 O 15.781 1.76879 0.449468 0
M  V30 178 C 15.832 1.96487 -3.03439 0
M  V30 179 O 15.553 1.21341 -4.20961 0
M  V30 180 C 17.054 2.83079 -3.41147 0
M  V30 181 H 14.274 0.298875 -0.600762 0
M  V30 182 H 16.818 0.292736 -2.02394 0
M  V30 183 H 14.973 2.63965 -2.83551 0
M  V30 184 H 15.387 1.85573 -4.90574 0
M  V30 185 H 16.861 3.4565 -4.30384 0
M  V30 186 H 17.338 3.53286 -2.60932 0
M  V30 187 H 17.944 2.2108 -3.63323 0
M  V30 188 N 16.2591 1.48442 0.529413 0
M  V30 189 C 17.2221 1.62524 1.61612 0
M  V30 190 C 18.2221 0.498509 1.52877 0
M  V30 191 O 19.4121 0.76431 1.56537 0
M  V30 192 C 16.5441 1.59597 3.01233 0
M  V30 193 H 17.7371 2.59423 1.50465 0
M  V30 194 H 15.2901 1.37047 0.751514 0
M  V30 195 H 16.0251 0.641781 3.17886 0
M  V30 196 H 15.8101 2.41397 3.08982 0
M  V30 197 H 17.3001 1.72646 3.80241 0
M  V30 198 N 17.7372 -0.778329 1.37039 0
M  V30 199 C 18.9842 -1.53665 1.31884 0
M  V30 200 C 19.3122 -1.9425 -0.0986303 0
M  V30 201 O 18.5672 -1.63832 -1.07041 0
M  V30 202 C 18.8662 -2.81845 2.19768 0
M  V30 203 C 18.5322 -2.60345 3.68146 0
M  V30 204 C 17.1942 -2.5419 4.08584 0
M  V30 205 C 19.5462 -2.40923 4.62175 0
M  V30 206 C 16.8742 -2.26594 5.41177 0
M  V30 207 C 19.2262 -2.14852 5.94997 0
M  V30 208 C 17.8902 -2.07137 6.34547 0
M  V30 209 H 17.1602 -0.562299 0.482598 0
M  V30 210 H 19.8072 -0.897069 1.69189 0
M  V30 211 H 18.1122 -3.50328 1.75436 0
M  V30 212 H 19.8092 -3.39692 2.13097 0
M  V30 213 H 16.3992 -2.65996 3.36072 0
M  V30 214 H 20.5832 -2.44673 4.31797 0
M  V30 215 H 15.8392 -2.19111 5.70789 0
M  V30 216 H 20.0132 -1.98822 6.67415 0
M  V30 217 H 17.6402 -1.85518 7.37216 0
M  V30 218 N 19.2153 -1.21501 -1.00376 0
M  V30 219 C 20.4613 -1.03452 -1.74429 0
M  V30 220 C 20.7943 0.430764 -1.89362 0
M  V30 221 O 20.0693 1.31962 -1.42886 0
M  V30 222 C 20.3523 -1.73375 -3.15615 0
M  V30 223 C 20.2053 -3.27431 -3.08397 0
M  V30 224 C 21.5243 -1.47732 -4.14564 0
M  V30 225 H 18.6433 -0.377226 -0.633143 0
M  V30 226 H 21.2853 -1.49693 -1.17013 0
M  V30 227 H 19.4353 -1.34064 -3.64636 0
M  V30 228 H 21.1073 -3.76119 -2.67081 0
M  V30 229 H 19.3503 -3.5767 -2.45468 0
M  V30 230 H 20.0213 -3.71524 -4.08258 0
M  V30 231 H 22.4973 -1.8186 -3.74254 0
M  V30 232 H 21.3733 -1.99169 -5.11491 0
M  V30 233 H 21.6343 -0.407589 -4.40217 0
M  V30 234 N 20.6934 1.19889 -1.02296 0
M  V30 235 C 21.6234 2.25141 -0.619174 0
M  V30 236 C 22.6044 1.66051 0.368915 0
M  V30 237 O 23.7894 1.92546 0.252941 0
M  V30 238 C 20.9194 3.4728 0.0368783 0
M  V30 239 C 19.8734 4.19005 -0.872865 0
M  V30 240 C 19.1994 5.34637 -0.0822402 0
M  V30 241 C 20.4994 4.74452 -2.18387 0
M  V30 242 H 22.1934 2.59171 -1.49903 0
M  V30 243 H 19.7394 1.24579 -0.722222 0
M  V30 244 H 21.6924 4.20098 0.330958 0
M  V30 245 H 20.4164 3.12433 0.95149 0
M  V30 246 H 19.0754 3.48061 -1.15105 0
M  V30 247 H 18.7234 4.96034 0.83422 0
M  V30 248 H 18.4234 5.83557 -0.688149 0
M  V30 249 H 19.9474 6.10255 0.205238 0
M  V30 250 H 21.3614 5.39055 -1.95172 0
M  V30 251 H 19.7584 5.33834 -2.74119 0
M  V30 252 H 20.8284 3.92844 -2.84257 0
M  V30 253 N 22.1715 0.800033 1.35784 0
M  V30 254 C 23.4185 0.377342 1.98953 0
M  V30 255 C 23.7465 -1.05378 1.6348 0
M  V30 256 O 23.0015 -1.74459 0.886707 0
M  V30 257 C 23.3005 0.500276 3.53881 0
M  V30 258 C 22.9665 1.89375 4.09204 0
M  V30 259 C 21.6285 2.27499 4.24025 0
M  V30 260 C 23.9805 2.8057 4.39238 0
M  V30 261 C 21.3085 3.562 4.66195 0
M  V30 262 C 23.6605 4.0871 4.82844 0
M  V30 263 C 22.3245 4.46843 4.95871 0
M  V30 264 H 21.5945 0.138079 0.728021 0
M  V30 265 H 24.2415 1.01955 1.62103 0
M  V30 266 H 22.5465 -0.225405 3.91151 0
M  V30 267 H 24.2435 0.154097 4.00704 0
M  V30 268 H 20.8335 1.58753 3.98115 0
M  V30 269 H 25.0175 2.52367 4.27346 0
M  V30 270 H 20.2735 3.85602 4.74469 0
M  V30 271 H 24.4475 4.79481 5.05046 0
M  V30 272 H 22.0745 5.46623 5.28306 0
M  V30 273 N 23.6496 -1.47581 0.552962 0
M  V30 274 C 24.8896 -2.04379 0.0296245 0
M  V30 275 C 25.2536 -1.4185 -1.29393 0
M  V30 276 O 26.4546 -1.89669 -1.90471 0
M  V30 277 C 24.7256 -3.57339 -0.0661371 0
M  V30 278 S 26.2846 -4.35511 -0.536213 0
M  V30 279 H 23.1026 -0.710625 0.0230991 0
M  V30 280 H 25.7046 -1.81005 0.738734 0
M  V30 281 H 24.4086 -4.00374 0.901596 0
M  V30 282 H 23.9396 -3.85202 -0.798931 0
M  V30 283 H 25.9546 -4.6253 -1.79668 0
M  V30 284 N 25.1277 -0.289203 -1.54924 0
M  V30 285 C 26.0907 0.579144 -2.21762 0
M  V30 286 C 27.0907 1.07047 -1.1999 0
M  V30 287 O 28.2807 0.968384 -1.44803 0
M  V30 288 C 25.4127 1.80055 -2.8947 0
M  V30 289 H 26.6057 -0.00464908 -2.999 0
M  V30 290 H 24.1587 -0.0399306 -1.56249 0
M  V30 291 H 24.8937 2.42449 -2.15381 0
M  V30 292 H 24.6787 1.45602 -3.64064 0
M  V30 293 H 26.1687 2.41773 -3.40493 0
M  V30 294 N 26.6058 1.57591 -0.0167156 0
M  V30 295 C 27.8518 1.92399 0.659861 0
M  V30 296 C 28.2068 0.892561 1.70444 0
M  V30 297 O 27.4998 -0.0930755 1.91374 0
M  V30 298 C 27.6938 3.3172 1.33029 0
M  V30 299 C 27.5228 4.48319 0.352174 0
M  V30 300 C 26.2928 5.05281 -0.0434883 0
M  V30 301 C 28.4908 5.12831 -0.388474 0
M  V30 302 N 26.4728 6.05399 -1.01807 0
M  V30 303 C 27.8438 6.07934 -1.2172 0
M  V30 304 C 29.8988 4.95858 -0.450513 0
M  V30 305 C 28.6018 6.87891 -2.10235 0
M  V30 306 C 30.6278 5.76413 -1.32295 0
M  V30 307 C 29.9898 6.71123 -2.13948 0
M  V30 308 H 26.0888 0.752106 0.21415 0
M  V30 309 H 28.6728 1.94532 -0.0809846 0
M  V30 310 H 26.8438 3.3043 2.04134 0
M  V30 311 H 28.5758 3.5391 1.9629 0
M  V30 312 H 25.3308 4.7246 0.328384 0
M  V30 313 H 25.7548 6.60145 -1.50123 0
M  V30 314 H 30.3968 4.22472 0.166512 0
M  V30 315 H 28.1148 7.60591 -2.72997 0
M  V30 316 H 31.7008 5.65317 -1.37508 0
M  V30 317 H 30.5808 7.3237 -2.80364 0
M  V30 318 N 28.0839 -0.256276 1.55502 0
M  V30 319 C 29.3239 -0.993081 1.78654 0
M  V30 320 C 29.6879 -1.8288 0.584724 0
M  V30 321 O 30.8889 -2.59665 0.694822 0
M  V30 322 C 29.1599 -1.83856 3.06483 0
M  V30 323 S 30.7189 -2.63573 3.5082 0
M  V30 324 H 27.5369 -0.334199 0.62756 0
M  V30 325 H 30.1389 -0.26184 1.93739 0
M  V30 326 H 28.8429 -1.21414 3.92029 0
M  V30 327 H 28.3739 -2.61271 2.94111 0
M  V30 328 H 30.3889 -3.86312 3.11412 0
M  V30 329 N 29.562 -1.4872 -0.521534 0
M  V30 330 C 30.525 -1.63379 -1.60748 0
M  V30 331 C 31.525 -0.50661 -1.52611 0
M  V30 332 O 32.715 -0.772601 -1.5613 0
M  V30 333 C 29.847 -1.61192 -3.00383 0
M  V30 334 H 31.04 -2.60217 -1.49087 0
M  V30 335 H 28.593 -1.37444 -0.744235 0
M  V30 336 H 29.328 -0.65863 -3.17541 0
M  V30 337 H 29.113 -2.43032 -3.07698 0
M  V30 338 H 30.603 -1.7466 -3.7932 0
M  V30 339 N 31.0401 0.771051 -1.3745 0
M  V30 340 C 31.9701 1.89827 -1.3597 0
M  V30 341 C 32.9511 1.68562 -0.228216 0
M  V30 342 O 34.1361 1.8941 -0.428675 0
M  V30 343 C 31.2661 3.2712 -1.16662 0
M  V30 344 C 30.2201 3.6295 -2.2683 0
M  V30 345 C 29.5461 4.98791 -1.92644 0
M  V30 346 C 30.8461 3.69627 -3.69017 0
M  V30 347 H 32.5401 1.91323 -2.30295 0
M  V30 348 H 30.0861 0.919082 -1.10855 0
M  V30 349 H 32.0391 4.05615 -1.14256 0
M  V30 350 H 30.7631 3.26059 -0.187926 0
M  V30 351 H 29.4221 2.86763 -2.28392 0
M  V30 352 H 29.0701 4.94271 -0.933021 0
M  V30 353 H 28.7701 5.23733 -2.66416 0
M  V30 354 H 30.2941 5.79685 -1.91826 0
M  V30 355 H 31.7081 4.38273 -3.69581 0
M  V30 356 H 30.1051 4.06067 -4.41848 0
M  V30 357 H 31.1751 2.70273 -4.02592 0
M  V30 358 N 32.5182 1.22032 0.997298 0
M  V30 359 C 33.4662 0.983634 2.10778 0
M  V30 360 C 34.4602 -0.0717564 1.69248 0
M  V30 361 O 35.6662 0.080304 1.79821 0
M  V30 362 H 32.0412 0.300877 0.689186 0
M  V30 363 H 34.0122 1.92606 2.27916 0
M  V30 364 C 32.7612 0.57326 3.42942 0
M  V30 365 H 32.0842 1.37702 3.75338 0
M  V30 366 H 33.5242 0.447031 4.21637 0
M  V30 367 C 31.9832 -0.7167 3.29188 0
M  V30 368 O 32.5132 -1.77027 3.60589 0
M  V30 369 N 30.7192 -0.686167 2.82383 0
M  V30 370 H 30.2662 0.171507 2.57028 0
M  V30 371 H 30.2242 -1.54955 2.73562 0
M  V30 372 N 33.9963 -1.19345 1.0293 0
M  V30 373 C 35.2213 -1.93538 0.745511 0
M  V30 374 C 35.6463 -1.75007 -0.689511 0
M  V30 375 O 35.0043 -1.05265 -1.47611 0
M  V30 376 C 35.0523 -3.43336 1.10239 0
M  V30 377 O 34.1563 -4.11806 0.221289 0
M  V30 378 H 33.4973 -0.604193 0.275404 0
M  V30 379 H 36.0273 -1.5141 1.37609 0
M  V30 380 H 36.0373 -3.94004 1.05947 0
M  V30 381 H 34.7123 -3.56146 2.14786 0
M  V30 382 H 33.2893 -3.715 0.322842 0
M  V30 383 N 35.4744 -0.807222 -1.35358 0
M  V30 384 C 36.4374 -0.223665 -2.28106 0
M  V30 385 C 37.4374 0.589354 -1.4961 0
M  V30 386 O 38.6274 0.407745 -1.69361 0
M  V30 387 C 35.7594 0.688149 -3.33882 0
M  V30 388 H 36.9524 -1.04169 -2.81227 0
M  V30 389 H 34.5054 -0.577921 -1.45223 0
M  V30 390 H 35.2404 1.52984 -2.85948 0
M  V30 391 H 35.0254 0.10687 -3.91954 0
M  V30 392 H 36.5154 1.09075 -4.03104 0
M  V30 393 N 36.9525 1.47285 -0.560781 0
M  V30 394 C 37.8995 2.30058 0.18491 0
M  V30 395 C 38.8695 1.39281 0.904986 0
M  V30 396 O 40.0545 1.68241 0.899979 0
M  V30 397 C 37.1945 3.23317 1.20666 0
M  V30 398 C 36.3075 4.29186 0.492285 0
M  V30 399 C 35.4425 5.09592 1.49964 0
M  V30 400 C 34.4815 6.07232 0.770439 0
M  V30 401 N 33.6185 6.80584 1.72479 0
M  V30 402 H 38.4585 2.93302 -0.527048 0
M  V30 403 H 35.9955 1.44568 -0.271738 0
M  V30 404 H 37.9535 3.75811 1.81168 0
M  V30 405 H 36.5835 2.61929 1.88661 0
M  V30 406 H 35.6355 3.7972 -0.227333 0
M  V30 407 H 36.9475 4.98738 -0.0787929 0
M  V30 408 H 36.1015 5.66254 2.17809 0
M  V30 409 H 34.8405 4.3995 2.10464 0
M  V30 410 H 33.8455 5.49745 0.0780846 0
M  V30 411 H 35.0705 6.78884 0.171134 0
M  V30 412 H 33.0165 6.1367 2.3183 0
M  V30 413 H 32.9335 7.46319 1.20596 0
M  V30 414 H 34.2015 7.41818 2.39428 0
M  V30 415 N 38.4306 0.297415 1.54768 0
M  V30 416 C 39.3936 -0.567375 2.22066 0
M  V30 417 C 40.3936 -1.06409 1.20556 0
M  V30 418 O 41.5836 -0.960691 1.45315 0
M  V30 419 C 38.7156 -1.78517 2.90421 0
M  V30 420 H 39.9086 0.0205534 2.99893 0
M  V30 421 H 37.4616 0.0482163 1.56226 0
M  V30 422 H 38.1966 -2.41303 2.16664 0
M  V30 423 H 37.9816 -1.43669 3.64831 0
M  V30 424 H 39.4716 -2.39964 3.41771 0
M  V30 425 N 39.9087 -1.5758 0.0250728 0
M  V30 426 C 40.8557 -2.09973 -0.958129 0
M  V30 427 C 41.8257 -1.00085 -1.3256 0
M  V30 428 O 43.0107 -1.27481 -1.41962 0
M  V30 429 C 40.1507 -2.62812 -2.2366 0
M  V30 430 C 39.2637 -3.86693 -1.92594 0
M  V30 431 C 38.3987 -4.27941 -3.14707 0
M  V30 432 C 37.4377 -5.44591 -2.79442 0
M  V30 433 N 36.5747 -5.81014 -3.94167 0
M  V30 434 H 41.4147 -2.937 -0.504428 0
M  V30 435 H 38.9517 -1.45172 -0.237392 0
M  V30 436 H 40.9097 -2.91536 -2.98434 0
M  V30 437 H 39.5397 -1.81922 -2.66654 0
M  V30 438 H 38.5917 -3.64723 -1.0808 0
M  V30 439 H 39.9037 -4.71547 -1.62619 0
M  V30 440 H 39.0577 -4.58079 -3.97804 0
M  V30 441 H 37.7967 -3.41845 -3.4784 0
M  V30 442 H 36.8017 -5.1415 -1.94755 0
M  V30 443 H 38.0267 -6.32382 -2.47528 0
M  V30 444 H 35.9727 -4.97874 -4.2715 0
M  V30 445 H 35.8897 -6.60498 -3.67801 0
M  V30 446 H 37.1577 -6.15756 -4.7798 0
M  V30 447 N 41.3868 0.248026 -1.55636 0
M  V30 448 C 42.8028 0.596483 -1.48035 0
M  V30 449 C 43.0028 1.88386 -0.715039 0
M  V30 450 O 42.0588 2.51319 -0.243944 0
M  V30 451 C 43.3718 0.700258 -2.92433 0
M  V30 452 C 44.9198 0.792659 -3.02797 0
M  V30 453 C 45.3948 0.928005 -4.485 0
M  V30 454 N 46.8858 0.992903 -4.52433 0
M  V30 455 C 47.6208 1.11687 -5.62418 0
M  V30 456 N 47.1168 1.20645 -6.82214 0
M  V30 457 N 48.9098 1.14994 -5.50212 0
M  V30 458 H 41.0608 -0.597109 -2.03834 0
M  V30 459 H 43.3238 -0.205925 -0.925364 0
M  V30 460 H 43.0298 -0.175658 -3.51261 0
M  V30 461 H 42.9038 1.57255 -3.42857 0
M  V30 462 H 45.2908 1.65903 -2.4405 0
M  V30 463 H 45.3718 -0.104762 -2.55585 0
M  V30 464 H 45.0158 0.0661971 -5.07857 0
M  V30 465 H 44.9458 1.84045 -4.93391 0
M  V30 466 H 47.4368 0.935064 -3.66149 0
M  V30 467 H 47.7498 1.30008 -7.61786 0
M  V30 468 H 46.0948 1.17605 -6.84977 0
M  V30 469 H 49.2858 1.07643 -4.55555 0
M  V30 470 H 49.4588 1.24311 -6.35965 0
M  V30 471 N 42.8649 1.48995 0.513639 0
M  V30 472 C 43.7969 1.60836 1.63293 0
M  V30 473 C 44.8099 0.491701 1.55197 0
M  V30 474 O 45.9989 0.763238 1.6136 0
M  V30 475 C 43.0989 1.53731 3.02027 0
M  V30 476 C 42.2719 2.80715 3.35437 0
M  V30 477 C 41.3309 2.66837 4.53525 0
M  V30 478 O 40.3569 3.40753 4.55934 0
M  V30 479 N 41.5589 1.77539 5.52684 0
M  V30 480 H 44.3239 2.57366 1.53566 0
M  V30 481 H 41.8849 1.45925 0.701259 0
M  V30 482 H 43.8769 1.42118 3.78926 0
M  V30 483 H 42.4469 0.651092 3.05744 0
M  V30 484 H 41.6669 3.06772 2.47557 0
M  V30 485 H 42.9549 3.64927 3.54551 0
M  V30 486 H 42.3529 1.16719 5.53528 0
M  V30 487 H 40.9099 1.71856 6.28736 0
M  V30 488 N 44.343 -0.763751 1.37857 0
M  V30 489 C 45.59 -1.52257 1.33506 0
M  V30 490 C 45.918 -1.94343 -0.078022 0
M  V30 491 O 45.173 -1.64958 -1.05297 0
M  V30 492 C 45.472 -2.79499 2.22745 0
M  V30 493 C 45.138 -2.56426 3.70886 0
M  V30 494 C 43.8 -2.49842 4.11257 0
M  V30 495 C 46.152 -2.36008 4.64704 0
M  V30 496 C 43.48 -2.20841 5.43549 0
M  V30 497 C 45.832 -2.0853 5.97242 0
M  V30 498 C 44.496 -2.00396 6.36709 0
M  V30 499 H 43.766 -0.557149 0.488534 0
M  V30 500 H 46.413 -0.879073 1.70131 0
M  V30 501 H 44.718 -3.48447 1.79142 0
M  V30 502 H 46.415 -3.37413 2.16688 0
M  V30 503 H 43.005 -2.62416 3.38874 0
M  V30 504 H 47.189 -2.40079 4.34368 0
M  V30 505 H 42.445 -2.13045 5.73081 0
M  V30 506 H 46.619 -1.91732 6.69486 0
M  V30 507 H 44.246 -1.77688 7.39142 0
M  V30 508 N 45.8211 -1.22559 -0.990812 0
M  V30 509 C 47.0671 -1.05297 -1.73322 0
M  V30 510 C 47.4001 0.410655 -1.89808 0
M  V30 511 O 46.6751 1.30439 -1.44277 0
M  V30 512 C 46.9581 -1.76713 -3.13759 0
M  V30 513 C 46.8111 -3.30684 -3.04907 0
M  V30 514 C 48.1301 -1.52121 -4.12974 0
M  V30 515 H 45.2491 -0.38392 -0.629106 0
M  V30 516 H 47.8911 -1.50926 -1.15418 0
M  V30 517 H 46.0411 -1.37924 -3.63193 0
M  V30 518 H 47.7131 -3.7893 -2.63077 0
M  V30 519 H 45.9561 -3.60253 -2.41661 0
M  V30 520 H 46.6271 -3.75833 -4.04294 0
M  V30 521 H 49.1031 -1.85819 -3.72304 0
M  V30 522 H 47.9791 -2.04582 -5.0935 0
M  V30 523 H 48.2401 -0.454257 -4.3976 0
M  V30 524 N 47.2992 1.18797 -1.03562 0
M  V30 525 C 48.2472 2.24297 -0.615905 0
M  V30 526 C 49.2412 1.65643 0.354808 0
M  V30 527 O 50.4472 1.78618 0.22265 0
M  V30 528 H 46.8222 0.729909 -0.180934 0
M  V30 529 H 48.7932 2.5701 -1.5162 0
M  V30 530 C 47.5422 3.47698 0.0104735 0
M  V30 531 H 46.8652 3.93125 -0.727509 0
M  V30 532 H 48.3052 4.23159 0.266995 0
M  V30 533 C 46.7642 3.12489 1.25905 0
M  V30 534 O 47.2942 3.25761 2.35038 0
M  V30 535 N 45.5002 2.6686 1.15039 0
M  V30 536 H 45.0472 2.56261 0.262328 0
M  V30 537 H 45.0052 2.43674 1.98672 0
M  V30 538 N 48.7773 0.814389 1.34928 0
M  V30 539 C 49.6873 0.231978 2.3345 0
M  V30 540 C 50.7033 -0.629139 1.62228 0
M  V30 541 O 51.8793 -0.539052 1.94052 0
M  V30 542 C 48.9443 -0.603482 3.41407 0
M  V30 543 C 48.0053 0.279037 4.28392 0
M  V30 544 C 47.2383 -0.516643 5.31193 0
M  V30 545 O 47.4613 -1.75068 5.4287 0
M  V30 546 O 46.3953 0.0965652 6.01823 0
M  V30 547 H 50.2213 1.04721 2.85074 0
M  V30 548 H 47.8063 0.576343 1.37836 0
M  V30 549 H 49.6883 -1.07908 4.0735 0
M  V30 550 H 48.3633 -1.39618 2.92042 0
M  V30 551 H 47.2703 0.801948 3.65403 0
M  V30 552 H 48.6033 1.03588 4.81176 0
M  V30 553 N 50.2554 -1.46986 0.568584 0
M  V30 554 C 51.5014 -2.0332 0.0571487 0
M  V30 555 C 51.8564 -1.43384 -1.28291 0
M  V30 556 O 51.1494 -0.584304 -1.82473 0
M  V30 557 C 51.3434 -3.57306 -0.081836 0
M  V30 558 C 51.1724 -4.32174 1.24321 0
M  V30 559 C 49.9424 -4.71633 1.81358 0
M  V30 560 C 52.1404 -4.66598 2.16312 0
M  V30 561 N 50.1224 -5.31191 3.07748 0
M  V30 562 C 51.4934 -5.26578 3.27285 0
M  V30 563 C 53.5484 -4.48527 2.16166 0
M  V30 564 C 52.2514 -5.70395 4.38226 0
M  V30 565 C 54.2774 -4.93351 3.26127 0
M  V30 566 C 53.6394 -5.5339 4.3582 0
M  V30 567 H 49.7384 -0.77943 0.063351 0
M  V30 568 H 52.3224 -1.79323 0.758378 0
M  V30 569 H 50.4934 -3.81046 -0.752207 0
M  V30 570 H 52.2254 -4.00282 -0.59637 0
M  V30 571 H 48.9804 -4.53946 1.35019 0
M  V30 572 H 49.4044 -5.65505 3.72201 0
M  V30 573 H 54.0464 -4.01456 1.32638 0
M  V30 574 H 51.7644 -6.16452 5.22506 0
M  V30 575 H 55.3504 -4.81131 3.27115 0
M  V30 576 H 54.2304 -5.87441 5.19503 0
M  V30 577 N 51.7335 -0.305618 -1.54608 0
M  V30 578 C 52.6965 0.555591 -2.22364 0
M  V30 579 C 53.6965 1.05768 -1.21119 0
M  V30 580 O 54.8865 0.952972 -1.45822 0
M  V30 581 C 52.0185 1.76974 -2.91364 0
M  V30 582 H 53.2115 -0.0364572 -2.99878 0
M  V30 583 H 50.7645 -0.0565007 -1.56198 0
M  V30 584 H 51.4995 2.40151 -2.17941 0
M  V30 585 H 51.2845 1.41732 -3.65588 0
M  V30 586 H 52.7745 2.38148 -3.43038 0
M  V30 587 N 53.2116 1.57565 -0.0334293 0
M  V30 588 C 54.1746 2.09393 0.932048 0
M  V30 589 C 55.1746 1.00986 1.25134 0
M  V30 590 O 56.3646 1.27129 1.19096 0
M  V30 591 C 53.4966 2.56338 2.2473 0
M  V30 592 H 54.6896 2.95984 0.483085 0
M  V30 593 H 52.2426 1.54819 0.21468 0
M  V30 594 H 52.9776 1.7309 2.74245 0
M  V30 595 H 52.7626 3.35542 2.02865 0
M  V30 596 H 54.2526 2.96646 2.93923 0
M  V30 597 N 54.6897 -0.239769 1.55765 0
M  V30 598 C 55.5997 -1.31831 1.94056 0
M  V30 599 C 56.6157 -1.52275 0.841925 0
M  V30 600 O 57.7917 -1.65759 1.14394 0
M  V30 601 C 54.8567 -2.65156 2.23368 0
M  V30 602 C 53.9177 -2.53173 3.46701 0
M  V30 603 C 53.1507 -3.8014 3.74606 0
M  V30 604 O 53.3737 -4.82343 3.04469 0
M  V30 605 O 52.3077 -3.78344 4.68123 0
M  V30 606 H 56.1337 -1.02347 2.85935 0
M  V30 607 H 53.7187 -0.441123 1.42739 0
M  V30 608 H 55.6007 -3.43929 2.43497 0
M  V30 609 H 54.2757 -2.94358 1.34666 0
M  V30 610 H 53.1827 -1.72662 3.31871 0
M  V30 611 H 54.5157 -2.28915 4.35728 0
M  V30 612 N 56.1678 -1.49265 -0.50573 0
M  V30 613 C 57.4168 -1.57761 -1.25675 0
M  V30 614 C 57.7298 -0.267371 -1.93764 0
M  V30 615 O 58.9358 -0.230827 -2.70517 0
M  V30 616 C 57.3918 -2.78332 -2.28165 0
M  V30 617 C 56.9998 -4.16096 -1.66037 0
M  V30 618 C 58.7438 -2.96155 -3.04125 0
M  V30 619 C 56.6508 -5.27895 -2.6661 0
M  V30 620 H 55.5808 -0.587391 -0.472745 0
M  V30 621 H 58.2318 -1.75644 -0.53118 0
M  V30 622 H 56.6138 -2.53934 -3.03865 0
M  V30 623 H 57.7878 -4.50612 -0.963622 0
M  V30 624 H 56.1028 -4.03591 -1.02484 0
M  V30 625 H 58.6998 -3.76849 -3.79327 0
M  V30 626 H 59.0428 -2.06534 -3.61455 0
M  V30 627 H 59.5758 -3.2057 -2.35541 0
M  V30 628 H 56.3148 -6.1956 -2.14068 0
M  V30 629 H 55.8348 -4.97839 -3.34539 0
M  V30 630 H 57.5138 -5.57031 -3.29129 0
M  V30 631 N 57.6459 0.756429 -1.3826 0
M  V30 632 C 59.0569 1.33359 -1.30661 0
M  V30 633 C 59.4079 1.96161 0.0388875 0
M  V30 634 O 58.5329 1.94874 0.940918 0
M  V30 635 C 59.1279 2.42477 -2.36622 0
M  V30 636 C 57.6869 2.95922 -2.3261 0
M  V30 637 C 56.8339 1.69275 -2.19639 0
M  V30 638 H 59.7849 0.55552 -1.4866 0
M  V30 639 H 59.8059 3.22345 -2.02174 0
M  V30 640 H 59.3179 1.96739 -3.34538 0
M  V30 641 H 57.4189 3.45996 -1.38267 0
M  V30 642 H 57.5319 3.50494 -3.26636 0
M  V30 643 H 55.8959 1.92793 -1.66442 0
M  V30 644 H 56.6789 1.25619 -3.19491 0
M  V30 645 N 59.124 1.23083 0.984299 0
M  V30 646 C 60.372 1.05848 1.72165 0
M  V30 647 C 60.693 -0.406049 1.90726 0
M  V30 648 O 59.963 -1.29139 1.47309 0
M  V30 649 H 58.543 0.388685 0.637913 0
M  V30 650 H 61.205 1.54736 1.18503 0
M  V30 651 H 60.301 1.54327 2.71274 0
M  V30 652 N 60.6021 -1.18246 1.0419 0
M  V30 653 C 61.8501 -1.87886 0.744543 0
M  V30 654 C 62.1711 -1.8082 -0.730006 0
M  V30 655 O 61.4411 -1.22736 -1.52685 0
M  V30 656 H 60.0211 -0.695556 0.272417 0
M  V30 657 H 62.6831 -1.43494 1.31892 0
M  V30 658 H 61.7791 -2.9389 1.05049 0
M  V30 659 N 62.0802 -0.821533 -1.34494 0
M  V30 660 C 63.4912 -0.467956 -1.8074 0
M  V30 661 C 63.8422 1.01151 -1.68116 0
M  V30 662 O 62.9672 1.78707 -1.22036 0
M  V30 663 C 63.5622 -0.842627 -3.28154 0
M  V30 664 C 62.1212 -0.541439 -3.72485 0
M  V30 665 C 61.2682 -1.06028 -2.56229 0
M  V30 666 H 64.2192 -1.01183 -1.22261 0
M  V30 667 H 64.2402 -0.145876 -3.8022 0
M  V30 668 H 63.7522 -1.91945 -3.37311 0
M  V30 669 H 61.8532 0.526034 -3.68868 0
M  V30 670 H 61.9662 -1.08453 -4.66663 0
M  V30 671 H 60.3302 -0.481892 -2.501 0
M  V30 672 H 61.1132 -2.14352 -2.68157 0
M  V30 673 N 63.5583 1.46682 -0.576371 0
M  V30 674 C 64.4683 2.34032 0.163141 0
M  V30 675 C 65.4843 1.49367 0.892501 0
M  V30 676 O 66.6603 1.82252 0.857106 0
M  V30 677 C 63.7253 3.26435 1.16795 0
M  V30 678 C 62.7863 4.26998 0.443944 0
M  V30 679 C 62.0193 5.14986 1.40088 0
M  V30 680 O 62.2423 5.05785 2.637 0
M  V30 681 O 61.1763 5.94906 0.914917 0
M  V30 682 H 65.0023 2.98607 -0.55388 0
M  V30 683 H 62.5873 1.45554 -0.336821 0
M  V30 684 H 64.4693 3.83459 1.74748 0
M  V30 685 H 63.1443 2.64465 1.86655 0
M  V30 686 H 62.0513 3.7368 -0.177271 0
M  V30 687 H 63.3843 4.91736 -0.213566 0
M  V30 688 N 65.0364 0.313813 1.54444 0
M  V30 689 C 65.9994 -0.54379 2.22656 0
M  V30 690 C 66.9994 -1.05124 1.21678 0
M  V30 691 O 68.1894 -0.945225 1.46325 0
M  V30 692 C 65.3214 -1.75427 2.92298 0
M  V30 693 H 66.5144 0.0523599 2.99854 0
M  V30 694 H 64.0674 0.0647834 1.56166 0
M  V30 695 H 64.8024 -2.38991 2.19211 0
M  V30 696 H 64.5874 -1.39791 3.66334 0
M  V30 697 H 66.0774 -2.36325 3.44297 0
M  V30 698 N 66.5145 -1.57545 0.0417849 0
M  V30 699 C 67.4775 -2.09885 -0.92093 0
M  V30 700 C 68.4775 -1.01648 -1.24596 0
M  V30 701 O 69.6675 -1.27759 -1.1842 0
M  V30 702 C 66.7995 -2.57527 -2.23367 0
M  V30 703 H 67.9925 -2.96236 -0.467382 0
M  V30 704 H 65.5455 -1.5493 -0.206467 0
M  V30 705 H 66.2805 -1.74542 -2.73323 0
M  V30 706 H 66.0655 -3.36613 -2.01083 0
M  V30 707 H 67.5555 -2.98201 -2.92346 0
M  V30 708 N 67.9926 0.231505 -1.5589 0
M  V30 709 C 69.2176 0.978689 -1.82856 0
M  V30 710 C 69.6426 1.77559 -0.620846 0
M  V30 711 O 69.0006 1.76119 0.430305 0
M  V30 712 C 69.0486 1.87997 -3.07716 0
M  V30 713 O 68.1526 2.97393 -2.85712 0
M  V30 714 H 67.4936 0.277663 -0.603158 0
M  V30 715 H 70.0236 0.24783 -2.03093 0
M  V30 716 H 70.0336 2.2917 -3.37558 0
M  V30 717 H 68.7086 1.29417 -3.95252 0
M  V30 718 H 67.2856 2.60238 -2.67078 0
M  V30 719 N 69.4707 1.49531 0.497807 0
M  V30 720 C 70.4337 1.65916 1.58128 0
M  V30 721 C 71.4337 0.530825 1.51786 0
M  V30 722 O 72.6237 0.797342 1.54881 0
M  V30 723 C 69.7557 1.65951 2.9778 0
M  V30 724 H 70.9487 2.62556 1.44929 0
M  V30 725 H 68.5017 1.38611 0.722275 0
M  V30 726 H 69.2367 0.709065 3.16453 0
M  V30 727 H 69.0217 2.47897 3.03792 0
M  V30 728 H 70.5117 1.80673 3.76493 0
M  V30 729 N 70.9488 -0.749086 1.3866 0
M  V30 730 C 72.1978 -1.50371 1.3443 0
M  V30 731 C 72.5108 -1.95503 -0.0616397 0
M  V30 732 O 73.7168 -2.70554 -0.226489 0
M  V30 733 C 72.1728 -2.71644 2.36088 0
M  V30 734 C 71.7808 -2.3352 3.82325 0
M  V30 735 C 73.5248 -3.49518 2.40909 0
M  V30 736 C 71.4318 -3.51431 4.75658 0
M  V30 737 H 70.3618 -0.564628 0.499712 0
M  V30 738 H 73.0128 -0.818449 1.64237 0
M  V30 739 H 71.3948 -3.42175 1.9933 0
M  V30 740 H 72.5688 -1.70627 4.28046 0
M  V30 741 H 70.8838 -1.6877 3.80665 0
M  V30 742 H 73.4808 -4.37197 3.07836 0
M  V30 743 H 73.8238 -3.90992 1.42937 0
M  V30 744 H 74.3568 -2.86005 2.76489 0
M  V30 745 H 71.0958 -3.15019 5.74842 0
M  V30 746 H 70.6158 -4.13352 4.34627 0
M  V30 747 H 72.2948 -4.17953 4.93887 0
M  V30 748 N 72.4269 -1.23603 -0.977757 0
M  V30 749 C 73.3899 -1.02069 -2.05218 0
M  V30 750 C 74.3899 0.0184305 -1.60789 0
M  V30 751 O 75.5799 -0.221569 -1.72785 0
M  V30 752 C 72.7119 -0.544926 -3.36517 0
M  V30 753 H 73.9049 -1.9742 -2.25755 0
M  V30 754 H 71.4579 -1.05684 -1.15155 0
M  V30 755 H 72.1929 0.412241 -3.21669 0
M  V30 756 H 71.9779 -1.2948 -3.70105 0
M  V30 757 H 73.4679 -0.414985 -4.15533 0
M  V30 758 N 73.905 1.17692 -1.04816 0
M  V30 759 C 74.815 2.25229 -0.65643 0
M  V30 760 C 75.831 1.71018 0.320761 0
M  V30 761 O 77.007 2.00649 0.173805 0
M  V30 762 C 74.072 3.46684 -0.0332629 0
M  V30 763 C 73.133 4.15997 -1.06042 0
M  V30 764 C 72.366 5.31654 -0.466893 0
M  V30 765 O 72.589 5.65777 0.724758 0
M  V30 766 O 71.523 5.89831 -1.1993 0
M  V30 767 H 75.349 2.61016 -1.55255 0
M  V30 768 H 72.934 1.24919 -0.81949 0
M  V30 769 H 74.816 4.20234 0.313256 0
M  V30 770 H 73.491 3.12703 0.836566 0
M  V30 771 H 72.398 3.44482 -1.45886 0
M  V30 772 H 73.731 4.53996 -1.90127 0
M  V30 773 N 75.3831 0.828654 1.34056 0
M  V30 774 C 76.2931 0.256725 2.33191 0
M  V30 775 C 77.3091 -0.611898 1.62886 0
M  V30 776 O 78.4851 -0.51844 1.94613 0
M  V30 777 C 75.5501 -0.567238 3.42028 0
M  V30 778 C 74.6111 0.324458 4.28072 0
M  V30 779 C 73.8441 -0.460274 5.31712 0
M  V30 780 O 74.0671 -1.693 5.44696 0
M  V30 781 O 73.0011 0.160391 6.01686 0
M  V30 782 H 76.8271 1.07739 2.83947 0
M  V30 783 H 74.4121 0.59093 1.37217 0
M  V30 784 H 76.2941 -1.03582 4.08471 0
M  V30 785 H 74.9691 -1.36513 2.93506 0
M  V30 786 H 73.8761 0.840659 3.64532 0
M  V30 787 H 75.2091 1.08685 4.8005 0
M  V30 788 N 76.8612 -1.46375 0.584142 0
M  V30 789 C 77.7912 -2.33103 -0.136037 0
M  V30 790 C 78.7722 -1.45431 -0.882255 0
M  V30 791 O 79.9572 -1.74246 -0.857434 0
M  V30 792 C 77.0872 -3.27731 -1.14933 0
M  V30 793 C 76.0412 -4.24855 -0.517862 0
M  V30 794 C 75.3672 -5.09001 -1.63773 0
M  V30 795 C 76.6672 -5.19439 0.545886 0
M  V30 796 H 78.3612 -2.93568 0.588086 0
M  V30 797 H 75.9072 -1.41166 0.284259 0
M  V30 798 H 77.8602 -3.87261 -1.66153 0
M  V30 799 H 76.5842 -2.65377 -1.90375 0
M  V30 800 H 75.2432 -3.6659 -0.0267361 0
M  V30 801 H 74.8912 -4.43031 -2.38185 0
M  V30 802 H 74.5912 -5.74777 -1.22085 0
M  V30 803 H 76.1152 -5.71396 -2.15266 0
M  V30 804 H 77.5292 -5.73177 0.118704 0
M  V30 805 H 75.9262 -5.93566 0.88317 0
M  V30 806 H 76.9962 -4.63285 1.43162 0
M  V30 807 N 78.3393 -0.321999 -1.54275 0
M  V30 808 C 79.5873 0.280489 -2.00144 0
M  V30 809 C 79.9083 1.52777 -1.21178 0
M  V30 810 O 79.1783 1.9338 -0.313187 0
M  V30 811 H 77.7583 0.106632 -0.73935 0
M  V30 812 H 80.4203 -0.438184 -1.8991 0
M  V30 813 H 79.5163 0.537972 -3.07428 0
M  V30 814 N 79.8174 1.5752 -0.0501392 0
M  V30 815 C 81.0474 1.96678 0.632573 0
M  V30 816 C 81.4554 0.926298 1.64974 0
M  V30 817 O 80.7984 -0.09802 1.83438 0
M  V30 818 C 80.8604 3.32068 1.37735 0
M  V30 819 C 80.5244 4.54076 0.516131 0
M  V30 820 C 81.5214 5.19445 -0.217357 0
M  V30 821 C 79.2064 5.00304 0.44736 0
M  V30 822 C 81.2004 6.29378 -1.00807 0
M  V30 823 C 78.8874 6.10114 -0.347038 0
M  V30 824 C 79.8854 6.74512 -1.07344 0
M  V30 825 O 79.5734 7.82211 -1.85477 0
M  V30 826 H 79.3054 0.652193 0.177821 0
M  V30 827 H 81.8594 2.05091 -0.112543 0
M  V30 828 H 80.0894 3.20206 2.16807 0
M  V30 829 H 81.7784 3.55981 1.95019 0
M  V30 830 H 82.5444 4.84689 -0.173688 0
M  V30 831 H 78.4234 4.49971 1.00235 0
M  V30 832 H 81.9674 6.79575 -1.57556 0
M  V30 833 H 77.8644 6.44307 -0.392349 0
M  V30 834 H 78.6324 7.98982 -1.77678 0
M  V30 835 N 81.2955 -0.223234 1.56011 0
M  V30 836 C 82.5725 -0.972108 1.69733 0
M  V30 837 C 82.9525 -2.02485 0.59691 0
M  V30 838 O 82.3005 -2.25037 -0.396324 0
M  V30 839 C 82.5105 -1.58407 3.10979 0
M  V30 840 C 83.8585 -2.07696 3.70334 0
M  V30 841 O 84.8825 -1.68304 3.1393 0
M  V30 842 O 83.7415 -2.80096 4.69264 0
M  V30 843 H 80.8355 -0.453993 0.691245 0
M  V30 844 H 83.3815 -0.215149 1.68331 0
M  V30 845 H 82.1535 -0.823831 3.82529 0
M  V30 846 H 81.7765 -2.40661 3.16493 0
M  V30 847 N 82.7736 -1.49793 -0.48987 0
M  V30 848 C 83.7036 -1.70201 -1.59856 0
M  V30 849 C 84.6846 -0.55076 -1.60937 0
M  V30 850 O 85.8696 -0.787841 -1.77501 0
M  V30 851 C 82.9996 -1.77882 -2.98287 0
M  V30 852 C 81.9536 -2.92907 -3.12073 0
M  V30 853 C 81.2796 -2.85712 -4.51965 0
M  V30 854 C 82.5796 -4.3369 -2.91051 0
M  V30 855 H 84.2736 -2.63025 -1.43032 0
M  V30 856 H 81.8196 -1.26574 -0.686664 0
M  V30 857 H 83.7726 -1.90744 -3.75759 0
M  V30 858 H 82.4966 -0.816653 -3.16225 0
M  V30 859 H 81.1556 -2.79665 -2.37029 0
M  V30 860 H 80.8036 -1.8738 -4.66795 0
M  V30 861 H 80.5036 -3.62921 -4.62128 0
M  V30 862 H 82.0276 -3.00598 -5.31482 0
M  V30 863 H 83.4416 -4.47555 -3.58284 0
M  V30 864 H 81.8386 -5.12205 -3.12675 0
M  V30 865 H 82.9086 -4.47362 -1.87071 0
M  V30 866 N 84.2517 0.741722 -1.39055 0
M  V30 867 C 85.1817 1.869 -1.39966 0
M  V30 868 C 86.1627 1.6804 -0.26392 0
M  V30 869 O 87.3477 1.88458 -0.468755 0
M  V30 870 C 84.4777 3.24572 -1.23574 0
M  V30 871 C 83.4317 3.58056 -2.34477 0
M  V30 872 C 82.7577 4.94593 -2.0318 0
M  V30 873 C 84.0577 3.61716 -3.76774 0
M  V30 874 H 85.7517 1.86395 -2.34302 0
M  V30 875 H 83.2977 0.895361 -1.1278 0
M  V30 876 H 85.2507 4.031 -1.22834 0
M  V30 877 H 83.9747 3.25587 -0.257045 0
M  V30 878 H 82.6337 2.81854 -2.34423 0
M  V30 879 H 82.2817 4.92181 -1.03765 0
M  V30 880 H 81.9817 5.17964 -2.77465 0
M  V30 881 H 83.5057 5.75486 -2.04079 0
M  V30 882 H 84.9197 4.30335 -3.78794 0
M  V30 883 H 83.3167 3.96603 -4.50362 0
M  V30 884 H 84.3867 2.61672 -4.08235 0
M  V30 885 N 85.7298 1.2412 0.971189 0
M  V30 886 C 86.9778 1.07668 1.71032 0
M  V30 887 C 87.2988 -0.385797 1.91146 0
M  V30 888 O 86.5688 -1.27569 1.4867 0
M  V30 889 H 85.1488 0.395429 0.633755 0
M  V30 890 H 87.8108 1.55984 1.16855 0
M  V30 891 H 86.9068 1.57195 2.69622 0
M  V30 892 N 87.2079 -1.17134 1.05439 0
M  V30 893 C 88.1399 -2.2078 0.615539 0
M  V30 894 C 89.1529 -1.59584 -0.322001 0
M  V30 895 O 90.3419 -1.78133 -0.114344 0
M  V30 896 C 87.4419 -3.38691 -0.118938 0
M  V30 897 C 86.6149 -4.29454 0.829924 0
M  V30 898 C 85.6739 -5.26024 0.136258 0
M  V30 899 O 84.6999 -5.63952 0.77115 0
M  V30 900 N 85.9019 -5.69487 -1.1254 0
M  V30 901 H 88.6669 -2.59052 1.50705 0
M  V30 902 H 86.2279 -1.32058 0.936603 0
M  V30 903 H 88.2199 -4.00329 -0.593179 0
M  V30 904 H 86.7899 -2.98996 -0.91215 0
M  V30 905 H 86.0099 -3.65211 1.48373 0
M  V30 906 H 87.2979 -4.86984 1.47392 0
M  V30 907 H 86.6959 -5.4075 -1.6615 0
M  V30 908 H 85.2529 -6.33257 -1.54366 0
M  V30 909 N 88.686 -0.835752 -1.33615 0
M  V30 910 C 89.935 -0.426289 -1.97144 0
M  V30 911 C 90.248 1.01912 -1.66953 0
M  V30 912 O 91.454 1.53311 -2.24072 0
M  V30 913 C 89.91 -0.711321 -3.52801 0
M  V30 914 C 89.518 -2.1712 -3.91871 0
M  V30 915 C 91.262 -0.368654 -4.22896 0
M  V30 916 C 89.169 -2.40044 -5.40493 0
M  V30 917 H 88.099 -0.15567 -0.737755 0
M  V30 918 H 90.75 -1.0239 -1.52278 0
M  V30 919 H 89.132 -0.0433766 -3.95976 0
M  V30 920 H 90.306 -2.87936 -3.59763 0
M  V30 921 H 88.621 -2.47654 -3.34749 0
M  V30 922 H 91.218 -0.517601 -5.32189 0
M  V30 923 H 91.561 0.688078 -4.10574 0
M  V30 924 H 92.094 -0.991702 -3.8524 0
M  V30 925 H 88.833 -3.44271 -5.57815 0
M  V30 926 H 88.353 -1.73785 -5.74072 0
M  V30 927 H 90.032 -2.23042 -6.0734 0
M  V30 928 N 90.1641 1.46063 -0.591896 0
M  V30 929 C 91.4121 2.01938 -0.0808391 0
M  V30 930 C 91.7331 1.46475 1.28725 0
M  V30 931 O 91.0031 0.652944 1.84698 0
M  V30 932 H 89.5831 0.746516 -0.0268938 0
M  V30 933 H 92.2451 1.79055 -0.769752 0
M  V30 934 H 91.3411 3.12094 -0.0187578 0
M  V30 935 N 91.6422 0.330177 1.54103 0
M  V30 936 C 92.8672 -0.274893 2.0557 0
M  V30 937 C 93.2922 -1.44487 1.20437 0
M  V30 938 O 92.6502 -1.80021 0.214991 0
M  V30 939 C 92.6982 -0.68079 3.54115 0
M  V30 940 O 91.8022 -1.7824 3.71893 0
M  V30 941 H 91.1432 -0.0483849 0.662235 0
M  V30 942 H 93.6732 0.480508 1.98878 0
M  V30 943 H 93.6832 -0.961635 3.96505 0
M  V30 944 H 92.3582 0.174903 4.15532 0
M  V30 945 H 90.9352 -1.49985 3.41407 0
M  V30 946 N 93.1203 -1.57491 0.0584922 0
M  V30 947 C 94.0503 -2.14988 -0.911178 0
M  V30 948 C 95.0313 -1.07343 -1.31952 0
M  V30 949 O 96.2163 -1.35318 -1.39294 0
M  V30 950 C 93.3463 -2.70078 -2.18347 0
M  V30 951 C 92.3003 -3.82771 -1.91495 0
M  V30 952 C 91.6263 -4.24408 -3.25241 0
M  V30 953 C 92.9263 -5.07592 -1.23075 0
M  V30 954 H 94.6203 -2.96263 -0.432246 0
M  V30 955 H 92.1663 -1.42512 -0.206469 0
M  V30 956 H 94.1193 -3.08943 -2.86587 0
M  V30 957 H 92.8433 -1.86005 -2.68458 0
M  V30 958 H 91.5023 -3.44389 -1.25664 0
M  V30 959 H 91.1503 -3.37275 -3.73168 0
M  V30 960 H 90.8503 -5.00366 -3.08071 0
M  V30 961 H 92.3743 -4.65879 -3.94701 0
M  V30 962 H 93.7883 -5.43857 -1.81362 0
M  V30 963 H 92.1853 -5.88741 -1.16207 0
M  V30 964 H 93.2553 -4.84454 -0.207847 0
M  V30 965 N 94.5984 0.214957 -1.56127 0
M  V30 966 C 95.5084 1.28727 -1.96129 0
M  V30 967 C 96.5244 1.50916 -0.866044 0
M  V30 968 O 97.7004 1.63918 -1.17016 0
M  V30 969 C 94.7654 2.61569 -2.27558 0
M  V30 970 C 93.8264 2.47625 -3.50685 0
M  V30 971 C 93.0594 3.74132 -3.80606 0
M  V30 972 O 93.2824 4.77438 -3.12104 0
M  V30 973 O 92.2164 3.70849 -4.74083 0
M  V30 974 H 96.0424 0.977855 -2.87527 0
M  V30 975 H 93.6274 0.418358 -1.43423 0
M  V30 976 H 95.5094 3.40012 -2.48938 0
M  V30 977 H 94.1844 2.92178 -1.39332 0
M  V30 978 H 93.0914 1.67361 -3.34576 0
M  V30 979 H 94.4244 2.21954 -4.39315 0
M  V30 980 N 96.0765 1.50051 0.48192 0
M  V30 981 C 97.0245 1.68635 1.60203 0
M  V30 982 C 98.0185 0.552184 1.60148 0
M  V30 983 O 99.2245 0.732377 1.64427 0
M  V30 984 H 95.5995 0.532081 0.531407 0
M  V30 985 H 97.5705 2.62616 1.41688 0
M  V30 986 C 96.3195 1.78775 2.9822 0
M  V30 987 H 95.6425 2.6543 2.98976 0
M  V30 988 H 97.0825 1.95806 3.7608 0
M  V30 989 C 95.5415 0.536849 3.32595 0
M  V30 990 O 96.0715 -0.328897 4.00351 0
M  V30 991 N 94.2775 0.394091 2.87915 0
M  V30 992 H 93.8245 1.09962 2.32951 0
M  V30 993 H 93.7825 -0.441737 3.11281 0
M  V30 994 N 97.5546 -0.734337 1.39446 0
M  V30 995 C 98.5046 -1.83949 1.34709 0
M  V30 996 C 99.4886 -1.59279 0.227851 0
M  V30 997 O 100.681 -1.70771 0.465438 0
M  V30 998 C 97.8096 -3.21884 1.19356 0
M  V30 999 C 96.8956 -3.52381 2.35984 0
M  V30 1000 N 97.2866 -3.53811 3.61457 0
M  V30 1001 C 95.5846 -3.82747 2.28956 0
M  V30 1002 C 96.2856 -3.82122 4.38586 0
M  V30 1003 N 95.2616 -3.9993 3.68181 0
M  V30 1004 H 99.0636 -1.83361 2.29687 0
M  V30 1005 H 96.5776 -0.932609 1.32952 0
M  V30 1006 H 98.5746 -4.00998 1.14046 0
M  V30 1007 H 97.2346 -3.23711 0.253295 0
M  V30 1008 H 98.2456 -3.35107 3.94872 0
M  V30 1009 H 94.9226 -3.92175 1.43194 0
M  V30 1010 H 96.3126 -3.89691 5.47349 0
M  V30 1011 N 99.0327 -1.24633 -0.964593 0
M  V30 1012 C 100.263 -1.11339 -1.74032 0
M  V30 1013 C 100.671 0.336593 -1.86182 0
M  V30 1014 O 100.014 1.24389 -1.35178 0
M  V30 1015 C 100.076 -1.68284 -3.1768 0
M  V30 1016 C 99.7397 -3.17196 -3.28992 0
M  V30 1017 C 100.737 -4.14308 -3.14078 0
M  V30 1018 C 98.4217 -3.57215 -3.53133 0
M  V30 1019 C 100.416 -5.4942 -3.23135 0
M  V30 1020 C 98.1027 -4.92468 -3.61827 0
M  V30 1021 C 99.1007 -5.8838 -3.46841 0
M  V30 1022 O 98.7887 -7.21173 -3.55197 0
M  V30 1023 H 98.5207 -0.389551 -0.552472 0
M  V30 1024 H 101.075 -1.65282 -1.21946 0
M  V30 1025 H 99.3047 -1.08777 -3.71085 0
M  V30 1026 H 100.994 -1.50234 -3.77074 0
M  V30 1027 H 101.76 -3.84731 -2.95308 0
M  V30 1028 H 97.6387 -2.83063 -3.63863 0
M  V30 1029 H 101.183 -6.24263 -3.11355 0
M  V30 1030 H 97.0797 -5.21714 -3.80111 0
M  V30 1031 H 97.8477 -7.29135 -3.71892 0
M  V30 1032 N 100.511 1.16574 -1.06058 0
M  V30 1033 C 101.441 2.23057 -0.690488 0
M  V30 1034 C 102.422 1.67141 0.315901 0
M  V30 1035 O 103.607 1.93253 0.191556 0
M  V30 1036 C 100.737 3.47222 -0.073625 0
M  V30 1037 C 99.6908 4.16016 -1.00573 0
M  V30 1038 C 99.0168 5.34104 -0.252289 0
M  V30 1039 C 100.317 4.67264 -2.33371 0
M  V30 1040 H 102.011 2.54271 -1.58072 0
M  V30 1041 H 99.5568 1.22218 -0.76149 0
M  V30 1042 H 101.51 4.20939 0.19714 0
M  V30 1043 H 100.234 3.15302 0.85161 0
M  V30 1044 H 98.8928 3.44223 -1.2612 0
M  V30 1045 H 98.5408 4.98437 0.675988 0
M  V30 1046 H 98.2408 5.81072 -0.873455 0
M  V30 1047 H 99.7648 6.10599 0.0109857 0
M  V30 1048 H 101.179 5.32573 -2.12223 0
M  V30 1049 H 99.5758 5.24843 -2.90963 0
M  V30 1050 H 100.646 3.83602 -2.96611 0
M  V30 1051 N 101.989 0.842826 1.3317 0
M  V30 1052 C 103.236 0.440447 1.97652 0
M  V30 1053 C 103.564 -1.00123 1.6675 0
M  V30 1054 O 102.819 -1.7155 0.941761 0
M  V30 1055 C 103.118 0.612607 3.52111 0
M  V30 1056 C 102.784 2.02297 4.02972 0
M  V30 1057 C 101.446 2.40874 4.16573 0
M  V30 1058 C 103.798 2.94402 4.30089 0
M  V30 1059 C 101.126 3.70852 4.54627 0
M  V30 1060 C 103.478 4.23865 4.69597 0
M  V30 1061 C 102.142 4.62392 4.81404 0
M  V30 1062 H 101.412 0.161171 0.72326 0
M  V30 1063 H 104.059 1.07061 1.58777 0
M  V30 1064 H 102.364 -0.100849 3.9167 0
M  V30 1065 H 104.061 0.2815 4.00011 0
M  V30 1066 H 100.651 1.71338 3.92863 0
M  V30 1067 H 104.835 2.65835 4.19101 0
M  V30 1068 H 100.091 4.00501 4.61962 0
M  V30 1069 H 104.265 4.95306 4.89536 0
M  V30 1070 H 101.892 5.63154 5.10648 0
M  V30 1071 N 103.467 -1.45747 0.599634 0
M  V30 1072 C 104.414 -2.30467 -0.123849 0
M  V30 1073 C 105.384 -1.41632 -0.86774 0
M  V30 1074 O 106.569 -1.70568 -0.855056 0
M  V30 1075 C 103.709 -3.26402 -1.12051 0
M  V30 1076 C 102.822 -4.3034 -0.37832 0
M  V30 1077 C 101.957 -5.13389 -1.364 0
M  V30 1078 C 100.996 -6.09061 -0.609171 0
M  V30 1079 N 100.133 -6.84918 -1.54374 0
M  V30 1080 H 104.973 -2.91802 0.604627 0
M  V30 1081 H 102.51 -1.43797 0.309972 0
M  V30 1082 H 104.468 -3.80482 -1.7114 0
M  V30 1083 H 103.098 -2.66839 -1.8165 0
M  V30 1084 H 102.15 -3.78984 0.327929 0
M  V30 1085 H 103.462 -4.98354 0.210997 0
M  V30 1086 H 102.616 -5.7183 -2.02719 0
M  V30 1087 H 101.355 -4.45376 -1.98725 0
M  V30 1088 H 100.36 -5.49758 0.0676979 0
M  V30 1089 H 101.585 -6.79099 0.00891991 0
M  V30 1090 H 99.531 -6.19601 -2.15478 0
M  V30 1091 H 99.448 -7.49254 -1.00766 0
M  V30 1092 H 100.716 -7.47906 -2.19676 0
M  V30 1093 N 104.945 -0.338344 -1.53925 0
M  V30 1094 C 105.895 0.536712 -2.21593 0
M  V30 1095 C 106.879 1.07015 -1.20153 0
M  V30 1096 O 108.071 1.00471 -1.45721 0
M  V30 1097 C 105.2 1.68977 -2.98834 0
M  V30 1098 C 104.286 1.17052 -4.07627 0
M  V30 1099 N 104.677 0.372085 -5.0443 0
M  V30 1100 C 102.975 1.44789 -4.21844 0
M  V30 1101 C 103.676 0.0909171 -5.81629 0
M  V30 1102 N 102.652 0.681131 -5.39316 0
M  V30 1103 H 106.454 -0.0804298 -2.9379 0
M  V30 1104 H 103.968 -0.144943 -1.61752 0
M  V30 1105 H 105.965 2.32857 -3.45808 0
M  V30 1106 H 104.625 2.31024 -2.28162 0
M  V30 1107 H 105.636 0.0136217 -5.17898 0
M  V30 1108 H 102.313 2.07313 -3.62391 0
M  V30 1109 H 103.703 -0.552817 -6.69622 0
M  V30 1110 N 106.423 1.57458 -0.0668435 0
M  V30 1111 C 107.37 2.12439 0.902122 0
M  V30 1112 C 108.34 1.03565 1.2986 0
M  V30 1113 O 109.525 1.312 1.38532 0
M  V30 1114 C 106.665 2.6865 2.16614 0
M  V30 1115 C 105.778 3.91663 1.82274 0
M  V30 1116 C 104.913 4.36134 3.0325 0
M  V30 1117 C 103.952 5.51808 2.64904 0
M  V30 1118 N 103.089 5.9126 3.78624 0
M  V30 1119 H 107.929 2.94934 0.426382 0
M  V30 1120 H 105.466 1.4575 0.198819 0
M  V30 1121 H 107.424 2.99346 2.90599 0
M  V30 1122 H 106.054 1.88928 2.61737 0
M  V30 1123 H 105.106 3.6746 0.983719 0
M  V30 1124 H 106.418 4.75693 1.50059 0
M  V30 1125 H 105.572 4.68465 3.85519 0
M  V30 1126 H 104.311 3.50948 3.38655 0
M  V30 1127 H 103.316 5.19133 1.81055 0
M  V30 1128 H 104.541 6.38722 2.30675 0
M  V30 1129 H 102.487 5.09024 4.138 0
M  V30 1130 H 102.404 6.70018 3.5016 0
M  V30 1131 H 103.672 6.28212 4.61486 0
M  V30 1132 N 107.901 -0.206675 1.56239 0
M  V30 1133 C 108.849 -1.27571 1.94495 0
M  V30 1134 C 109.843 -1.47737 0.828862 0
M  V30 1135 O 111.049 -1.48735 1.0138 0
M  V30 1136 H 107.424 -0.428029 0.6183 0
M  V30 1137 H 109.395 -0.925961 2.8367 0
M  V30 1138 C 108.144 -2.61568 2.29079 0
M  V30 1139 H 107.467 -2.46863 3.14482 0
M  V30 1140 H 108.907 -3.35144 2.5972 0
M  V30 1141 C 107.366 -3.17695 1.12123 0
M  V30 1142 O 107.896 -3.99801 0.390153 0
M  V30 1143 N 106.102 -2.76276 0.901097 0
M  V30 1144 H 105.649 -2.09613 1.49733 0
M  V30 1145 H 105.607 -3.1417 0.120319 0
M  V30 1146 N 109.379 -1.50304 -0.473955 0
M  V30 1147 C 110.329 -1.65347 -1.56985 0
M  V30 1148 C 111.313 -0.508176 -1.52664 0
M  V30 1149 O 112.505 -0.762446 -1.59737 0
M  V30 1150 C 109.634 -1.74832 -2.95447 0
M  V30 1151 C 108.72 -2.95028 -3.04662 0
M  V30 1152 N 109.111 -4.18747 -2.83698 0
M  V30 1153 C 107.409 -2.93527 -3.35795 0
M  V30 1154 C 108.11 -4.99687 -2.97805 0
M  V30 1155 N 107.086 -4.33585 -3.2788 0
M  V30 1156 H 110.888 -2.58698 -1.39472 0
M  V30 1157 H 108.402 -1.47449 -0.680629 0
M  V30 1158 H 110.399 -1.83712 -3.7424 0
M  V30 1159 H 109.059 -0.826376 -3.14008 0
M  V30 1160 H 110.07 -4.48291 -2.59337 0
M  V30 1161 H 106.747 -2.10821 -3.60362 0
M  V30 1162 H 108.137 -6.08057 -2.85861 0
M  V30 1163 N 110.857 0.726932 -1.39834 0
M  V30 1164 C 112.268 1.30558 -1.3346 0
M  V30 1165 C 112.619 1.962 -0.00273003 0
M  V30 1166 O 111.744 1.96826 0.899371 0
M  V30 1167 C 112.339 2.37404 -2.41713 0
M  V30 1168 C 110.898 2.90921 -2.38835 0
M  V30 1169 C 110.045 1.64578 -2.2318 0
M  V30 1170 H 112.996 0.523862 -1.49804 0
M  V30 1171 H 113.017 3.17984 -2.08966 0
M  V30 1172 H 112.529 1.89599 -3.38635 0
M  V30 1173 H 110.63 3.42985 -1.45575 0
M  V30 1174 H 110.743 3.43487 -3.33997 0
M  V30 1175 H 109.107 1.89219 -1.70494 0
M  V30 1176 H 109.89 1.18814 -3.22084 0
M  V30 1177 N 112.336 1.25143 0.95797 0
M  V30 1178 C 113.752 1.01892 1.22842 0
M  V30 1179 C 113.952 -0.266311 1.99732 0
M  V30 1180 O 113.008 -0.979913 2.3271 0
M  V30 1181 C 114.321 2.24004 2.00606 0
M  V30 1182 C 115.869 2.28731 2.13662 0
M  V30 1183 C 116.344 3.5049 2.94823 0
M  V30 1184 N 117.835 3.50866 3.02403 0
M  V30 1185 C 118.57 4.4174 3.65586 0
M  V30 1186 N 118.066 5.42882 4.30408 0
M  V30 1187 N 119.859 4.29429 3.62694 0
M  V30 1188 H 112.01 2.07718 0.443493 0
M  V30 1189 H 114.273 0.912031 0.258657 0
M  V30 1190 H 113.979 3.17395 1.51503 0
M  V30 1191 H 113.853 2.26907 3.01319 0
M  V30 1192 H 116.24 1.35865 2.61963 0
M  V30 1193 H 116.321 2.29848 1.12265 0
M  V30 1194 H 115.965 4.43676 2.47213 0
M  V30 1195 H 115.895 3.46617 3.96439 0
M  V30 1196 H 118.386 2.777 2.56302 0
M  V30 1197 H 118.699 6.0844 4.76467 0
M  V30 1198 H 117.044 5.46758 4.29047 0
M  V30 1199 H 120.235 3.49643 3.11236 0
M  V30 1200 H 120.408 5.00448 4.1165 0
M  V30 1201 N 113.814 -1.1601 1.06675 0
M  V30 1202 C 115.23 -1.38622 0.790948 0
M  V30 1203 C 115.43 -1.92109 -0.607965 0
M  V30 1204 O 114.486 -2.12239 -1.36787 0
M  V30 1205 C 115.799 -2.36347 1.85905 0
M  V30 1206 C 117.347 -2.50023 1.88301 0
M  V30 1207 C 117.822 -3.51033 2.94176 0
M  V30 1208 N 119.313 -3.58563 2.93235 0
M  V30 1209 C 120.048 -4.36521 3.71803 0
M  V30 1210 N 119.544 -5.17869 4.602 0
M  V30 1211 N 121.337 -4.31541 3.60178 0
M  V30 1212 H 113.488 -0.796294 1.96908 0
M  V30 1213 H 115.751 -0.412597 0.853503 0
M  V30 1214 H 115.457 -2.04147 2.86386 0
M  V30 1215 H 115.331 -3.36042 1.71334 0
M  V30 1216 H 117.718 -2.81524 0.884769 0
M  V30 1217 H 117.799 -1.5035 2.06951 0
M  V30 1218 H 117.443 -3.20268 3.94196 0
M  V30 1219 H 117.373 -4.50445 2.72776 0
M  V30 1220 H 119.864 -3.00496 2.29152 0
M  V30 1221 H 120.177 -5.74578 5.16797 0
M  V30 1222 H 118.522 -5.17199 4.64253 0
M  V30 1223 H 121.713 -3.67051 2.90502 0
M  V30 1224 H 121.886 -4.9205 4.21653 0
M  V30 1225 N 115.292 -0.849877 -1.32721 0
M  V30 1226 C 116.517 -0.463856 -2.02146 0
M  V30 1227 C 116.942 0.930449 -1.63476 0
M  V30 1228 O 116.3 1.61033 -0.832952 0
M  V30 1229 C 116.348 -0.604955 -3.55489 0
M  V30 1230 O 115.452 0.36425 -4.10788 0
M  V30 1231 H 114.793 -0.187046 -0.637111 0
M  V30 1232 H 117.323 -1.14775 -1.69375 0
M  V30 1233 H 117.333 -0.490696 -4.05038 0
M  V30 1234 H 116.008 -1.62174 -3.82978 0
M  V30 1235 H 114.585 0.206628 -3.72327 0
M  V30 1236 N 116.77 1.45427 -0.607355 0
M  V30 1237 C 118.186 1.57283 -0.270985 0
M  V30 1238 C 118.386 1.59875 1.22647 0
M  V30 1239 O 117.442 1.52893 2.00948 0
M  V30 1240 C 118.755 2.85566 -0.941952 0
M  V30 1241 C 120.303 2.9924 -0.917849 0
M  V30 1242 C 120.778 4.30293 -1.56882 0
M  V30 1243 N 122.269 4.37051 -1.5343 0
M  V30 1244 C 123.004 5.37123 -2.00715 0
M  V30 1245 N 122.5 6.43734 -2.56084 0
M  V30 1246 N 124.293 5.28479 -1.91484 0
M  V30 1247 H 116.444 1.41988 -1.57966 0
M  V30 1248 H 118.707 0.67885 -0.661715 0
M  V30 1249 H 118.413 2.8955 -1.99633 0
M  V30 1250 H 118.287 3.74322 -0.465096 0
M  V30 1251 H 120.674 2.94822 0.127984 0
M  V30 1252 H 120.755 2.11895 -1.43297 0
M  V30 1253 H 120.399 4.35469 -2.61398 0
M  V30 1254 H 120.329 5.16454 -1.02873 0
M  V30 1255 H 122.82 3.60615 -1.12982 0
M  V30 1256 H 123.133 7.16341 -2.89958 0
M  V30 1257 H 121.478 6.44485 -2.60122 0
M  V30 1258 H 124.669 4.44098 -1.47967 0
M  V30 1259 H 124.842 6.0632 -2.28648 0
M  V30 1260 N 118.248 0.346503 1.53744 0
M  V30 1261 C 119.664 -0.00530975 1.59599 0
M  V30 1262 C 119.864 -1.48465 1.36236 0
M  V30 1263 O 118.92 -2.24376 1.15808 0
M  V30 1264 C 120.233 0.433516 2.97559 0
M  V30 1265 C 121.781 0.386111 3.10609 0
M  V30 1266 C 122.256 0.800451 4.50951 0
M  V30 1267 N 123.747 0.754753 4.5701 0
M  V30 1268 C 124.482 1.04727 5.63755 0
M  V30 1269 N 123.978 1.4081 6.7834 0
M  V30 1270 N 125.771 0.971316 5.53644 0
M  V30 1271 H 117.922 1.31009 1.67184 0
M  V30 1272 H 120.185 0.534242 0.783128 0
M  V30 1273 H 119.891 1.46509 3.19731 0
M  V30 1274 H 119.765 -0.189753 3.76722 0
M  V30 1275 H 122.152 -0.636295 2.88158 0
M  V30 1276 H 122.233 1.04462 2.33498 0
M  V30 1277 H 121.877 1.82088 4.74137 0
M  V30 1278 H 121.807 0.119386 5.26465 0
M  V30 1279 H 124.298 0.488662 3.74727 0
M  V30 1280 H 124.611 1.61607 7.55714 0
M  V30 1281 H 122.956 1.44657 6.79779 0
M  V30 1282 H 126.147 0.688748 4.63005 0
M  V30 1283 H 126.32 1.20263 6.36742 0
M  V30 1284 N 119.726 -1.57421 0.075193 0
M  V30 1285 C 120.951 -1.98364 -0.605515 0
M  V30 1286 C 121.376 -0.953383 -1.62149 0
M  V30 1287 O 120.734 0.0806053 -1.81121 0
M  V30 1288 C 120.782 -3.38332 -1.24756 0
M  V30 1289 O 119.886 -3.37959 -2.36342 0
M  V30 1290 H 119.227 -0.645553 -0.155428 0
M  V30 1291 H 121.757 -2.04044 0.150714 0
M  V30 1292 H 121.767 -3.75591 -1.5936 0
M  V30 1293 H 120.442 -4.12846 -0.503129 0
M  V30 1294 H 119.019 -3.12474 -2.03506 0
M  V30 1295 N 121.204 0.198386 -1.56346 0
M  V30 1296 C 122.167 1.22952 -1.93431 0
M  V30 1297 C 123.167 1.38611 -0.815092 0
M  V30 1298 O 124.357 1.36479 -1.08255 0
M  V30 1299 C 121.489 2.59946 -2.20546 0
M  V30 1300 H 122.682 0.912626 -2.85677 0
M  V30 1301 H 120.235 0.43977 -1.49986 0
M  V30 1302 H 120.97 2.96696 -1.30927 0
M  V30 1303 H 120.755 2.49953 -3.02102 0
M  V30 1304 H 122.245 3.3431 -2.50253 0
M  V30 1305 N 122.682 1.50554 0.465978 0
M  V30 1306 C 123.929 1.61798 1.21768 0
M  V30 1307 C 124.257 0.320696 1.91838 0
M  V30 1308 O 123.512 -0.693724 1.82992 0
M  V30 1309 C 123.811 2.75152 2.28093 0
M  V30 1310 C 123.477 4.15454 1.75239 0
M  V30 1311 C 122.139 4.53628 1.60546 0
M  V30 1312 C 124.491 5.03121 1.36083 0
M  V30 1313 C 121.819 5.77204 1.05128 0
M  V30 1314 C 124.171 6.27249 0.821056 0
M  V30 1315 C 122.835 6.64221 0.660795 0
M  V30 1316 H 122.105 0.592063 0.445582 0
M  V30 1317 H 124.752 1.84503 0.512927 0
M  V30 1318 H 123.057 2.46556 3.04496 0
M  V30 1319 H 124.754 2.81055 2.86023 0
M  V30 1320 H 121.344 3.85341 1.87644 0
M  V30 1321 H 125.528 4.74257 1.46267 0
M  V30 1322 H 120.784 6.0452 0.91462 0
M  V30 1323 H 124.958 6.94537 0.509018 0
M  V30 1324 H 122.585 7.59854 0.229226 0
M  V30 1325 N 124.16 -0.719506 1.40217 0
M  V30 1326 C 125.11 -1.8251 1.36653 0
M  V30 1327 C 126.094 -1.59028 0.244732 0
M  V30 1328 O 127.286 -1.70268 0.483524 0
M  V30 1329 C 124.415 -3.20599 1.22763 0
M  V30 1330 C 123.501 -3.49858 2.39708 0
M  V30 1331 N 123.892 -3.49957 3.6519 0
M  V30 1332 C 122.19 -3.80297 2.33002 0
M  V30 1333 C 122.891 -3.77449 4.42614 0
M  V30 1334 N 121.867 -3.96002 3.72402 0
M  V30 1335 H 125.669 -1.80914 2.31619 0
M  V30 1336 H 123.183 -0.918455 1.33933 0
M  V30 1337 H 125.18 -3.99766 1.18292 0
M  V30 1338 H 123.84 -3.23424 0.287614 0
M  V30 1339 H 124.851 -3.309 3.98404 0
M  V30 1340 H 121.528 -3.90635 1.47346 0
M  V30 1341 H 122.918 -3.83863 5.51451 0
M  V30 1342 N 125.638 -1.25649 -0.95132 0
M  V30 1343 C 126.887 -1.09988 -1.69073 0
M  V30 1344 C 127.2 0.358355 -1.92289 0
M  V30 1345 O 128.406 0.635466 -2.63958 0
M  V30 1346 C 126.862 -1.92012 -3.044 0
M  V30 1347 C 126.47 -3.42347 -2.88968 0
M  V30 1348 C 128.214 -1.8493 -3.82101 0
M  V30 1349 C 126.121 -4.16655 -4.19705 0
M  V30 1350 H 125.051 -0.407993 -0.63408 0
M  V30 1351 H 127.702 -1.49873 -1.05879 0
M  V30 1352 H 126.084 -1.44952 -3.68517 0
M  V30 1353 H 127.258 -3.97104 -2.33762 0
M  V30 1354 H 125.573 -3.50557 -2.24719 0
M  V30 1355 H 128.17 -2.37739 -4.78941 0
M  V30 1356 H 128.513 -0.817883 -4.08187 0
M  V30 1357 H 129.046 -2.29758 -3.2474 0
M  V30 1358 H 125.785 -5.20224 -3.98807 0
M  V30 1359 H 125.305 -3.66681 -4.74663 0
M  V30 1360 H 126.984 -4.24551 -4.88227 0
M  V30 1361 N 127.117 1.15442 -1.07289 0
M  V30 1362 C 128.345 1.90096 -0.81676 0
M  V30 1363 C 128.76 1.7798 0.629966 0
M  V30 1364 O 128.117 1.1313 1.43206 0
M  V30 1365 C 128.168 3.40466 -1.21512 0
M  V30 1366 O 127.889 3.52232 -2.60508 0
M  V30 1367 C 129.39 4.32145 -0.988198 0
M  V30 1368 H 126.61 0.602495 -0.295366 0
M  V30 1369 H 129.154 1.4627 -1.42918 0
M  V30 1370 H 127.309 3.81958 -0.647039 0
M  V30 1371 H 127.723 4.45549 -2.76742 0
M  V30 1372 H 129.197 5.36072 -1.31645 0
M  V30 1373 H 129.674 4.39135 0.0755063 0
M  V30 1374 H 130.28 3.96395 -1.54115 0
M  V30 1375 N 128.595 0.856903 1.32268 0
M  V30 1376 C 129.542 0.301172 2.28827 0
M  V30 1377 C 130.512 -0.593104 1.5515 0
M  V30 1378 O 131.697 -0.527537 1.83362 0
M  V30 1379 C 128.837 -0.502523 3.41422 0
M  V30 1380 C 127.95 0.417797 4.29975 0
M  V30 1381 C 127.085 -0.398749 5.29701 0
M  V30 1382 C 126.124 0.518827 6.09897 0
M  V30 1383 N 125.261 -0.260674 7.01616 0
M  V30 1384 H 130.101 1.12983 2.75751 0
M  V30 1385 H 127.638 0.568582 1.35667 0
M  V30 1386 H 129.596 -0.984141 4.05426 0
M  V30 1387 H 128.226 -1.29599 2.95642 0
M  V30 1388 H 127.278 1.01781 3.66531 0
M  V30 1389 H 128.59 1.12191 4.86019 0
M  V30 1390 H 127.744 -0.943435 5.9932 0
M  V30 1391 H 126.483 -1.13622 4.7428 0
M  V30 1392 H 125.488 1.07538 5.39181 0
M  V30 1393 H 126.713 1.25495 6.67404 0
M  V30 1394 H 124.659 -0.981198 6.4862 0
M  V30 1395 H 124.576 0.384364 7.55022 0
M  V30 1396 H 125.844 -0.787014 7.75517 0
M  V30 1397 N 130.073 -1.45103 0.615059 0
M  V30 1398 C 131.489 -1.57137 0.279322 0
M  V30 1399 C 131.689 -1.60523 -1.21797 0
M  V30 1400 O 130.745 -1.53956 -2.00134 0
M  V30 1401 C 132.058 -2.85062 0.957083 0
M  V30 1402 C 133.606 -2.98749 0.933706 0
M  V30 1403 C 134.081 -4.29455 1.59162 0
M  V30 1404 N 135.572 -4.36231 1.55746 0
M  V30 1405 C 136.307 -5.36051 2.0356 0
M  V30 1406 N 135.803 -6.42367 2.59494 0
M  V30 1407 N 137.596 -5.27456 1.94284 0
M  V30 1408 H 129.747 -1.41148 1.58717 0
M  V30 1409 H 132.01 -0.675331 0.665306 0
M  V30 1410 H 131.716 -2.88488 2.01166 0
M  V30 1411 H 131.59 -3.7407 0.48494 0
M  V30 1412 H 133.977 -2.94886 -0.112347 0
M  V30 1413 H 134.058 -2.11132 1.44419 0
M  V30 1414 H 133.702 -4.34077 2.63704 0
M  V30 1415 H 133.632 -5.15901 1.0561 0
M  V30 1416 H 136.123 -3.60011 1.14893 0
M  V30 1417 H 136.436 -7.14793 2.93752 0
M  V30 1418 H 134.781 -6.43097 2.63537 0
M  V30 1419 H 137.972 -4.43308 1.5032 0
M  V30 1420 H 138.145 -6.05099 2.3186 0
M  V30 1421 N 131.551 -0.354651 -1.53558 0
M  V30 1422 C 132.481 0.489091 -2.2832 0
M  V30 1423 C 133.462 1.09324 -1.30316 0
M  V30 1424 O 134.647 1.11255 -1.59173 0
M  V30 1425 C 131.777 1.63456 -3.0643 0
M  V30 1426 C 130.731 1.1582 -4.12031 0
M  V30 1427 C 130.057 2.39305 -4.7816 0
M  V30 1428 C 131.357 0.250731 -5.21698 0
M  V30 1429 H 133.051 -0.134614 -2.99097 0
M  V30 1430 H 130.597 -0.0661826 -1.43848 0
M  V30 1431 H 132.55 2.23136 -3.57475 0
M  V30 1432 H 131.274 2.28533 -2.33325 0
M  V30 1433 H 129.933 0.584146 -3.61916 0
M  V30 1434 H 129.581 3.02814 -4.01637 0
M  V30 1435 H 129.281 2.08109 -5.49513 0
M  V30 1436 H 130.805 2.99691 -5.31994 0
M  V30 1437 H 132.219 0.754695 -5.68311 0
M  V30 1438 H 130.616 0.0301468 -6.00092 0
M  V30 1439 H 131.686 -0.710125 -4.79672 0
M  V30 1440 N 133.029 1.57378 -0.0835403 0
M  V30 1441 C 134.254 1.98682 0.594987 0
M  V30 1442 C 134.679 0.961969 1.61641 0
M  V30 1443 O 134.037 -0.0709989 1.81161 0
M  V30 1444 C 134.085 3.38988 1.2296 0
M  V30 1445 O 133.189 3.39208 2.34546 0
M  V30 1446 H 132.53 0.646368 0.152002 0
M  V30 1447 H 135.06 2.03961 -0.161533 0
M  V30 1448 H 135.07 3.76431 1.57366 0
M  V30 1449 H 133.745 4.13107 0.481228 0
M  V30 1450 H 132.322 3.13548 2.01846 0
M  V30 1451 N 134.507 -0.190092 1.56449 0
M  V30 1452 C 135.784 -0.935886 1.71757 0
M  V30 1453 C 136.164 -2.01173 0.639726 0
M  V30 1454 O 135.512 -2.25827 -0.348502 0
M  V30 1455 C 135.722 -1.51775 3.1427 0
M  V30 1456 C 137.07 -1.99794 3.74656 0
M  V30 1457 O 138.094 -1.61607 3.1743 0
M  V30 1458 O 136.953 -2.70079 4.751 0
M  V30 1459 H 134.047 -0.439229 0.700719 0
M  V30 1460 H 136.593 -0.179395 1.68749 0
M  V30 1461 H 135.365 -0.742505 3.84191 0
M  V30 1462 H 134.988 -2.33894 3.21527 0
M  V30 1463 N 135.985 -1.50799 -0.457987 0
M  V30 1464 C 137.262 -1.52968 -1.21902 0
M  V30 1465 C 137.642 -0.281906 -2.09209 0
M  V30 1466 O 136.99 0.734076 -2.16388 0
M  V30 1467 C 137.2 -2.8326 -2.03875 0
M  V30 1468 C 138.548 -3.34425 -2.6162 0
M  V30 1469 O 139.572 -2.8467 -2.14106 0
M  V30 1470 O 138.431 -4.21188 -3.48228 0
M  V30 1471 H 135.525 -0.614129 -0.553873 0
M  V30 1472 H 138.071 -1.63098 -0.468739 0
M  V30 1473 H 136.843 -3.65543 -1.39621 0
M  V30 1474 H 136.466 -2.76195 -2.8601 0
M  V30 1475 N 137.463 0.71206 -1.40597 0
M  V30 1476 C 138.74 1.46536 -1.29563 0
M  V30 1477 C 139.12 2.10931 0.0844217 0
M  V30 1478 O 138.468 2.00418 1.0975 0
M  V30 1479 C 138.678 2.49821 -2.43701 0
M  V30 1480 C 140.026 3.15551 -2.841 0
M  V30 1481 O 141.05 2.60142 -2.4332 0
M  V30 1482 O 139.909 4.15867 -3.54566 0
M  V30 1483 H 137.003 0.651801 -0.509004 0
M  V30 1484 H 139.549 0.743935 -1.52524 0
M  V30 1485 H 138.321 2.00778 -3.35863 0
M  V30 1486 H 137.944 3.29495 -2.22528 0
M  V30 1487 N 138.941 1.26152 0.944643 0
M  V30 1488 C 140.357 1.03189 1.21754 0
M  V30 1489 C 140.557 -0.245112 2.00004 0
M  V30 1490 O 139.613 -0.955176 2.33736 0
M  V30 1491 C 140.926 2.26119 1.98219 0
M  V30 1492 C 142.474 2.30984 2.11224 0
M  V30 1493 C 142.949 3.53597 2.91089 0
M  V30 1494 N 144.44 3.54053 2.98664 0
M  V30 1495 C 145.175 4.45593 3.60881 0
M  V30 1496 N 144.671 5.47416 4.24626 0
M  V30 1497 N 146.464 4.33252 3.58119 0
M  V30 1498 H 138.615 2.08177 0.421437 0
M  V30 1499 H 140.878 0.914723 0.248969 0
M  V30 1500 H 140.584 3.18984 1.48128 0
M  V30 1501 H 140.458 2.3009 2.98895 0
M  V30 1502 H 142.845 1.38635 2.60508 0
M  V30 1503 H 142.926 2.31026 1.09821 0
M  V30 1504 H 142.57 4.46273 2.42493 0
M  V30 1505 H 142.5 3.50802 3.92741 0
M  V30 1506 H 144.991 2.80403 2.53343 0
M  V30 1507 H 145.304 6.13459 4.69987 0
M  V30 1508 H 143.649 5.51278 4.23223 0
M  V30 1509 H 146.84 3.52924 3.0751 0
M  V30 1510 H 147.013 5.04786 4.06319 0
M  V30 1511 N 140.419 -1.14872 1.07899 0
M  V30 1512 C 141.665 -1.86064 0.806725 0
M  V30 1513 C 141.998 -1.82434 -0.665706 0
M  V30 1514 O 141.273 -1.25138 -1.48899 0
M  V30 1515 C 141.556 -3.34929 1.32267 0
M  V30 1516 C 141.409 -3.47161 2.86006 0
M  V30 1517 C 142.728 -4.29863 0.943717 0
M  V30 1518 H 139.847 -0.675591 0.294526 0
M  V30 1519 H 142.489 -1.34925 1.33773 0
M  V30 1520 H 140.639 -3.78611 0.870974 0
M  V30 1521 H 142.311 -3.12302 3.39507 0
M  V30 1522 H 140.554 -2.88539 3.23925 0
M  V30 1523 H 141.225 -4.51777 3.17177 0
M  V30 1524 H 143.701 -3.9417 1.33302 0
M  V30 1525 H 142.577 -5.32494 1.33198 0
M  V30 1526 H 142.838 -4.41846 -0.149796 0
M  V30 1527 N 141.898 -0.863906 -1.31812 0
M  V30 1528 C 143.147 -0.46801 -1.96195 0
M  V30 1529 C 143.46 0.983474 -1.69077 0
M  V30 1530 O 144.666 1.48523 -2.27273 0
M  V30 1531 C 143.122 -0.785995 -3.51212 0
M  V30 1532 C 142.73 -2.25383 -3.87178 0
M  V30 1533 C 144.474 -0.458274 -4.22019 0
M  V30 1534 C 142.381 -2.51455 -5.3528 0
M  V30 1535 H 141.311 -0.171283 -0.734287 0
M  V30 1536 H 143.962 -1.05597 -1.50072 0
M  V30 1537 H 142.344 -0.127359 -3.95795 0
M  V30 1538 H 143.518 -2.95502 -3.53575 0
M  V30 1539 H 141.833 -2.54698 -3.2942 0
M  V30 1540 H 144.43 -0.630369 -5.30971 0
M  V30 1541 H 144.773 0.600834 -4.11941 0
M  V30 1542 H 145.306 -1.07319 -3.8305 0
M  V30 1543 H 142.045 -3.56025 -5.50387 0
M  V30 1544 H 141.565 -1.85923 -5.70257 0
M  V30 1545 H 143.244 -2.35874 -6.02472 0
M  V30 1546 N 143.376 1.44774 -0.622745 0
M  V30 1547 C 144.622 2.02968 -0.13257 0
M  V30 1548 C 144.977 1.48047 1.22881 0
M  V30 1549 O 144.27 0.651625 1.80179 0
M  V30 1550 C 144.464 3.57364 -0.0508323 0
M  V30 1551 C 144.293 4.27262 -1.40275 0
M  V30 1552 C 143.063 4.64577 -1.98737 0
M  V30 1553 C 145.261 4.58248 -2.3348 0
M  V30 1554 N 143.243 5.19404 -3.27251 0
M  V30 1555 C 144.614 5.14069 -3.46603 0
M  V30 1556 C 146.669 4.40195 -2.32664 0
M  V30 1557 C 145.372 5.53738 -4.59093 0
M  V30 1558 C 147.398 4.80907 -3.44213 0
M  V30 1559 C 146.76 5.36834 -4.56058 0
M  V30 1560 H 142.859 0.776541 -0.0922354 0
M  V30 1561 H 145.443 1.76385 -0.82441 0
M  V30 1562 H 143.614 3.83576 0.610265 0
M  V30 1563 H 145.346 4.02219 0.447397 0
M  V30 1564 H 142.101 4.48622 -1.51774 0
M  V30 1565 H 142.525 5.51301 -3.92933 0
M  V30 1566 H 147.167 3.96257 -1.47446 0
M  V30 1567 H 144.885 5.96635 -5.45025 0
M  V30 1568 H 148.471 4.68659 -3.44747 0
M  V30 1569 H 147.351 5.67755 -5.40947 0
M  V30 1570 N 144.854 0.36279 1.53368 0
M  V30 1571 C 145.817 -0.472679 2.24273 0
M  V30 1572 C 146.817 -1.012 1.24961 0
M  V30 1573 O 148.007 -0.898194 1.49259 0
M  V30 1574 C 145.139 -1.66039 2.97731 0
M  V30 1575 H 146.332 0.14773 2.99536 0
M  V30 1576 H 143.885 0.114434 1.55881 0
M  V30 1577 H 144.62 -2.31896 2.26704 0
M  V30 1578 H 144.405 -1.28066 3.70596 0
M  V30 1579 H 145.895 -2.25252 3.51641 0
M  V30 1580 N 146.332 -1.57332 0.0918853 0
M  V30 1581 C 147.242 -2.17368 -0.882505 0
M  V30 1582 C 148.258 -1.14226 -1.31257 0
M  V30 1583 O 149.434 -1.46582 -1.38115 0
M  V30 1584 C 146.499 -2.73962 -2.12476 0
M  V30 1585 C 145.56 -3.92048 -1.7492 0
M  V30 1586 C 144.793 -4.45933 -2.93223 0
M  V30 1587 O 145.016 -3.98764 -4.07852 0
M  V30 1588 O 143.95 -5.36999 -2.71875 0
M  V30 1589 H 147.776 -3.01031 -0.40172 0
M  V30 1590 H 145.361 -1.48813 -0.132291 0
M  V30 1591 H 147.243 -3.10147 -2.85283 0
M  V30 1592 H 145.918 -1.93347 -2.59613 0
M  V30 1593 H 144.825 -3.6068 -0.993025 0
M  V30 1594 H 146.158 -4.74017 -1.32548 0
M  V30 1595 N 147.81 0.181792 -1.56548 0
M  V30 1596 C 148.742 1.24956 -1.92142 0
M  V30 1597 C 149.755 1.41022 -0.813422 0
M  V30 1598 O 150.944 1.41212 -1.09186 0
M  V30 1599 C 148.044 2.61981 -2.14987 0
M  V30 1600 C 147.217 2.6735 -3.46183 0
M  V30 1601 C 146.276 3.85664 -3.5798 0
M  V30 1602 O 145.302 3.72148 -4.30691 0
M  V30 1603 N 146.504 5.01683 -2.92053 0
M  V30 1604 H 149.269 0.947329 -2.84334 0
M  V30 1605 H 146.83 0.371629 -1.57577 0
M  V30 1606 H 148.822 3.3958 -2.20154 0
M  V30 1607 H 147.392 2.84637 -1.2923 0
M  V30 1608 H 146.612 1.75925 -3.52766 0
M  V30 1609 H 147.9 2.67939 -4.32534 0
M  V30 1610 H 147.298 5.15564 -2.32832 0
M  V30 1611 H 145.855 5.77181 -3.0283 0
M  V30 1612 N 149.288 1.51039 0.449983 0
M  V30 1613 C 150.22 1.67617 1.56324 0
M  V30 1614 C 151.233 0.557083 1.52972 0
M  V30 1615 O 152.422 0.830989 1.57977 0
M  V30 1616 C 149.522 1.66402 2.95235 0
M  V30 1617 C 148.695 2.9469 3.23229 0
M  V30 1618 C 147.754 2.85832 4.41799 0
M  V30 1619 O 146.78 3.59785 4.41071 0
M  V30 1620 N 147.982 2.00821 5.44657 0
M  V30 1621 H 150.747 2.63648 1.42512 0
M  V30 1622 H 148.308 1.48767 0.638737 0
M  V30 1623 H 150.3 1.58062 3.72557 0
M  V30 1624 H 148.87 0.780182 3.02708 0
M  V30 1625 H 148.09 3.16996 2.34323 0
M  V30 1626 H 149.378 3.79636 3.38754 0
M  V30 1627 H 148.776 1.40091 5.48079 0
M  V30 1628 H 147.333 1.98368 6.20881 0
M  V30 1629 N 150.766 -0.704594 1.40972 0
M  V30 1630 C 151.996 -1.49138 1.42974 0
M  V30 1631 C 152.404 -1.89175 0.0308406 0
M  V30 1632 O 151.747 -1.56734 -0.958138 0
M  V30 1633 C 151.809 -2.79016 2.26694 0
M  V30 1634 C 151.473 -2.61236 3.74973 0
M  V30 1635 C 152.47 -2.27773 4.67349 0
M  V30 1636 C 150.155 -2.77158 4.18914 0
M  V30 1637 C 152.149 -2.10457 6.01653 0
M  V30 1638 C 149.836 -2.59459 5.53285 0
M  V30 1639 C 150.834 -2.26158 6.4447 0
M  V30 1640 O 150.522 -2.08605 7.76363 0
M  V30 1641 H 150.254 -0.466443 0.489292 0
M  V30 1642 H 152.808 -0.8758 1.85793 0
M  V30 1643 H 151.038 -3.42947 1.78673 0
M  V30 1644 H 152.727 -3.40782 2.20504 0
M  V30 1645 H 153.493 -2.15095 4.34694 0
M  V30 1646 H 149.372 -3.02064 3.48251 0
M  V30 1647 H 152.916 -1.84387 6.72791 0
M  V30 1648 H 148.813 -2.71725 5.85522 0
M  V30 1649 H 149.581 -2.23439 7.87412 0
M  V30 1650 N 152.244 -1.26651 -0.937939 0
M  V30 1651 C 153.154 -1.10276 -2.07066 0
M  V30 1652 C 154.17 -0.0354197 -1.73964 0
M  V30 1653 O 155.346 -0.239816 -1.99967 0
M  V30 1654 C 152.411 -0.740887 -3.38691 0
M  V30 1655 C 151.472 -1.88799 -3.85556 0
M  V30 1656 C 150.705 -1.54329 -5.10899 0
M  V30 1657 O 150.928 -0.446494 -5.6865 0
M  V30 1658 O 149.862 -2.37911 -5.52885 0
M  V30 1659 H 153.688 -2.05309 -2.23789 0
M  V30 1660 H 151.273 -1.05743 -1.0554 0
M  V30 1661 H 153.155 -0.55195 -4.1777 0
M  V30 1662 H 151.83 0.180022 -3.23199 0
M  V30 1663 H 150.737 -2.13191 -3.07409 0
M  V30 1664 H 152.07 -2.78874 -4.05574 0
M  V30 1665 N 153.722 1.14298 -1.08507 0
M  V30 1666 C 154.669 2.19414 -0.715965 0
M  V30 1667 C 155.639 1.63399 0.298326 0
M  V30 1668 O 156.824 1.89929 0.182101 0
M  V30 1669 C 153.964 3.44845 -0.132534 0
M  V30 1670 C 153.077 4.15007 -1.19973 0
M  V30 1671 C 152.212 5.28024 -0.580048 0
M  V30 1672 C 151.251 5.9002 -1.62921 0
M  V30 1673 N 150.388 6.94485 -1.03125 0
M  V30 1674 H 155.228 2.50336 -1.61666 0
M  V30 1675 H 152.765 1.2293 -0.807882 0
M  V30 1676 H 154.723 4.16601 0.223454 0
M  V30 1677 H 153.353 3.14403 0.731467 0
M  V30 1678 H 152.405 3.41629 -1.67313 0
M  V30 1679 H 153.717 4.57178 -1.99473 0
M  V30 1680 H 152.871 6.06455 -0.172364 0
M  V30 1681 H 151.61 4.87076 0.246603 0
M  V30 1682 H 150.615 5.10291 -2.04654 0
M  V30 1683 H 151.84 6.33042 -2.45835 0
M  V30 1684 H 149.786 6.55612 -0.225711 0
M  V30 1685 H 149.703 7.35148 -1.76334 0
M  V30 1686 H 150.971 7.7679 -0.649458 0
M  V30 1687 N 155.201 0.870884 1.31352 0
M  V30 1688 C 156.111 0.330783 2.32256 0
M  V30 1689 C 157.127 -0.559767 1.6475 0
M  V30 1690 O 158.303 -0.456263 1.96164 0
M  V30 1691 C 155.368 -0.458137 3.4366 0
M  V30 1692 C 154.429 0.460482 4.26823 0
M  V30 1693 C 153.662 -0.290881 5.32907 0
M  V30 1694 O 153.885 -1.51885 5.49806 0
M  V30 1695 O 152.819 0.351732 6.00871 0
M  V30 1696 H 156.645 1.16718 2.80376 0
M  V30 1697 H 154.23 0.634285 1.35267 0
M  V30 1698 H 156.112 -0.905343 4.1156 0
M  V30 1699 H 154.787 -1.27106 2.97701 0
M  V30 1700 H 153.694 0.956207 3.61673 0
M  V30 1701 H 155.027 1.23903 4.7635 0
M  V30 1702 N 156.679 -1.44442 0.630414 0
M  V30 1703 C 158.095 -1.56832 0.295973 0
M  V30 1704 C 158.295 -1.61806 -1.20088 0
M  V30 1705 O 157.351 -1.5607 -1.9849 0
M  V30 1706 C 158.664 -2.84031 0.987264 0
M  V30 1707 C 160.212 -2.97742 0.96534 0
M  V30 1708 C 160.687 -4.27743 1.63708 0
M  V30 1709 N 162.178 -4.34555 1.60364 0
M  V30 1710 C 162.913 -5.33862 2.09234 0
M  V30 1711 N 162.409 -6.39578 2.66292 0
M  V30 1712 N 164.202 -5.25366 1.99867 0
M  V30 1713 H 156.353 -1.39457 1.60205 0
M  V30 1714 H 158.616 -0.668237 0.672431 0
M  V30 1715 H 158.322 -2.86338 2.04215 0
M  V30 1716 H 158.196 -3.73534 0.524588 0
M  V30 1717 H 160.583 -2.94989 -0.0810639 0
M  V30 1718 H 160.664 -2.09589 1.4665 0
M  V30 1719 H 160.308 -4.31255 2.68293 0
M  V30 1720 H 160.238 -5.14752 1.11076 0
M  V30 1721 H 162.729 -3.58772 1.18705 0
M  V30 1722 H 163.042 -7.11637 3.01317 0
M  V30 1723 H 161.387 -6.40265 2.70343 0
M  V30 1724 H 164.578 -4.41688 1.55013 0
M  V30 1725 H 164.751 -6.02606 2.38265 0
M  V30 1726 N 158.157 -0.370918 -1.53173 0
M  V30 1727 C 159.382 0.220293 -2.06227 0
M  V30 1728 C 159.807 1.41243 -1.24225 0
M  V30 1729 O 159.165 1.79387 -0.262645 0
M  V30 1730 C 159.213 0.586663 -3.55796 0
M  V30 1731 O 158.317 1.68317 -3.76488 0
M  V30 1732 H 157.658 0.0308099 -0.663285 0
M  V30 1733 H 160.188 -0.533068 -1.97534 0
M  V30 1734 H 160.198 0.85617 -3.98916 0
M  V30 1735 H 158.873 -0.285013 -4.14922 0
M  V30 1736 H 157.45 1.40881 -3.45264 0
M  V30 1737 N 159.635 1.57281 -0.100228 0
M  V30 1738 C 160.582 2.14305 0.856858 0
M  V30 1739 C 161.552 1.06296 1.27634 0
M  V30 1740 O 162.737 1.34109 1.35718 0
M  V30 1741 C 159.877 2.73184 2.10866 0
M  V30 1742 C 158.99 3.95442 1.73925 0
M  V30 1743 C 158.125 4.42468 2.93931 0
M  V30 1744 C 157.164 5.57303 2.5314 0
M  V30 1745 N 156.301 5.99158 3.65997 0
M  V30 1746 H 161.141 2.95772 0.363726 0
M  V30 1747 H 158.678 1.46139 0.167858 0
M  V30 1748 H 160.636 3.05442 2.84185 0
M  V30 1749 H 159.266 1.94437 2.57671 0
M  V30 1750 H 158.318 3.69464 0.905554 0
M  V30 1751 H 159.63 4.78769 1.39935 0
M  V30 1752 H 158.784 4.76537 3.75496 0
M  V30 1753 H 157.523 3.58052 3.31134 0
M  V30 1754 H 156.528 5.22857 1.70003 0
M  V30 1755 H 157.753 6.43471 2.17075 0
M  V30 1756 H 155.699 5.17687 4.02909 0
M  V30 1757 H 155.616 6.77295 3.35869 0
M  V30 1758 H 156.884 6.3786 4.48057 0
M  V30 1759 N 161.113 -0.173488 1.56642 0
M  V30 1760 C 162.529 -0.525174 1.50712 0
M  V30 1761 C 162.729 -1.8476 0.804107 0
M  V30 1762 O 161.785 -2.49869 0.363574 0
M  V30 1763 C 163.098 -0.559937 2.95441 0
M  V30 1764 C 164.646 -0.647288 3.06234 0
M  V30 1765 C 165.121 -0.712963 4.52417 0
M  V30 1766 N 166.612 -0.775911 4.56655 0
M  V30 1767 C 167.347 -0.847264 5.67106 0
M  V30 1768 N 166.843 -0.879585 6.87194 0
M  V30 1769 N 168.636 -0.886117 5.55071 0
M  V30 1770 H 160.787 0.693681 2.00753 0
M  V30 1771 H 163.05 0.249841 0.914485 0
M  V30 1772 H 162.756 0.343049 3.50023 0
M  V30 1773 H 162.63 -1.40718 3.49969 0
M  V30 1774 H 165.017 -1.5407 2.51687 0
M  V30 1775 H 165.098 0.226586 2.54794 0
M  V30 1776 H 164.742 0.176183 5.07594 0
M  V30 1777 H 164.672 -1.60295 5.0161 0
M  V30 1778 H 167.163 -0.759304 3.70193 0
M  V30 1779 H 167.476 -0.935144 7.67121 0
M  V30 1780 H 165.821 -0.847898 6.89808 0
M  V30 1781 H 169.012 -0.857853 4.60172 0
M  V30 1782 H 169.185 -0.938263 6.41171 0
M  V30 1783 N 162.591 -1.51276 -0.441967 0
M  V30 1784 C 163.816 -1.67799 -1.21895 0
M  V30 1785 C 164.241 -0.372864 -1.84367 0
M  V30 1786 O 163.599 0.666501 -1.68604 0
M  V30 1787 C 163.647 -2.79199 -2.28211 0
M  V30 1788 O 162.751 -2.42479 -3.33583 0
M  V30 1789 H 162.092 -0.559649 -0.357336 0
M  V30 1790 H 164.622 -1.97815 -0.522522 0
M  V30 1791 H 164.632 -3.03146 -2.73069 0
M  V30 1792 H 163.307 -3.73906 -1.82118 0
M  V30 1793 H 161.884 -2.29087 -2.94234 0
M  V30 1794 N 164.069 0.697108 -1.41344 0
M  V30 1795 C 165.032 1.79281 -1.42797 0
M  V30 1796 C 166.032 1.57607 -0.318837 0
M  V30 1797 O 167.222 1.64309 -0.578642 0
M  V30 1798 C 164.354 3.17632 -1.23785 0
M  V30 1799 H 165.547 1.79385 -2.40335 0
M  V30 1800 H 163.1 0.904582 -1.27464 0
M  V30 1801 H 163.835 3.23167 -0.270814 0
M  V30 1802 H 163.62 3.34765 -2.04144 0
M  V30 1803 H 165.11 3.97617 -1.27633 0
M  V30 1804 N 165.547 1.27147 0.931209 0
M  V30 1805 C 166.477 1.12081 2.04842 0
M  V30 1806 C 167.458 0.0232364 1.70084 0
M  V30 1807 O 168.643 0.197085 1.93197 0
M  V30 1808 C 165.773 0.76354 3.38803 0
M  V30 1809 C 164.727 1.81396 3.87659 0
M  V30 1810 C 164.053 1.31075 5.18385 0
M  V30 1811 C 165.353 3.21739 4.11438 0
M  V30 1812 H 167.047 2.05537 2.17703 0
M  V30 1813 H 164.593 0.989603 1.04608 0
M  V30 1814 H 166.546 0.644982 4.16435 0
M  V30 1815 H 165.27 -0.206727 3.25945 0
M  V30 1816 H 163.929 1.92136 3.12217 0
M  V30 1817 H 163.577 0.330037 5.01916 0
M  V30 1818 H 163.277 2.013 5.52044 0
M  V30 1819 H 164.801 1.20506 5.98591 0
M  V30 1820 H 166.215 3.14019 4.79651 0
M  V30 1821 H 164.612 3.89644 4.56397 0
M  V30 1822 H 165.682 3.67054 3.16859 0
M  V30 1823 N 167.025 -1.13721 1.09112 0
M  V30 1824 C 168.441 -1.36914 0.820174 0
M  V30 1825 C 168.641 -1.93356 -0.567079 0
M  V30 1826 O 167.697 -2.15093 -1.32255 0
M  V30 1827 C 169.01 -2.3235 1.90877 0
M  V30 1828 C 170.558 -2.45973 1.93562 0
M  V30 1829 C 171.033 -3.44714 3.01556 0
M  V30 1830 N 172.524 -3.52263 3.00775 0
M  V30 1831 C 173.259 -4.28536 3.80978 0
M  V30 1832 N 172.755 -5.07991 4.71081 0
M  V30 1833 N 174.548 -4.23804 3.69251 0
M  V30 1834 H 166.699 -0.754348 1.98553 0
M  V30 1835 H 168.962 -0.3944 0.862063 0
M  V30 1836 H 168.668 -1.98027 2.90651 0
M  V30 1837 H 168.542 -3.32332 1.78424 0
M  V30 1838 H 170.929 -2.79584 0.944286 0
M  V30 1839 H 171.01 -1.45926 2.10093 0
M  V30 1840 H 170.654 -3.11835 4.00901 0
M  V30 1841 H 170.584 -4.44558 2.82269 0
M  V30 1842 H 173.075 -2.95567 2.35475 0
M  V30 1843 H 173.388 -5.63487 5.28869 0
M  V30 1844 H 171.733 -5.07235 4.75119 0
M  V30 1845 H 174.924 -3.60806 2.98222 0
M  V30 1846 H 175.097 -4.82995 4.31995 0
M  V30 1847 N 168.503 -0.877838 -1.30888 0
M  V30 1848 C 169.78 -0.413052 -1.91189 0
M  V30 1849 C 170.16 1.1056 -1.79832 0
M  V30 1850 O 169.508 1.93771 -1.21099 0
M  V30 1851 C 169.718 -0.903191 -3.3711 0
M  V30 1852 C 171.066 -0.93395 -4.14201 0
M  V30 1853 O 172.09 -0.849373 -3.45925 0
M  V30 1854 O 170.949 -1.05772 -5.36167 0
M  V30 1855 H 168.043 -0.125035 -0.817493 0
M  V30 1856 H 170.589 -0.966269 -1.39504 0
M  V30 1857 H 169.361 -1.94692 -3.39427 0
M  V30 1858 H 168.984 -0.328732 -3.96239 0
M  V30 1859 N 169.982 1.44106 -0.638065 0
M  V30 1860 C 171.207 2.0685 -0.150916 0
M  V30 1861 C 171.632 1.47417 1.16833 0
M  V30 1862 O 170.99 0.578264 1.71831 0
M  V30 1863 C 171.038 3.60555 -0.05708 0
M  V30 1864 O 170.142 4.00465 0.984972 0
M  V30 1865 H 169.483 0.658151 -0.0879399 0
M  V30 1866 H 172.013 1.84865 -0.876707 0
M  V30 1867 H 172.023 4.07789 0.131232 0
M  V30 1868 H 170.698 4.03193 -1.02021 0
M  V30 1869 H 169.275 3.64849 0.770672 0
M  V30 1870 N 171.46 0.379036 1.52974 0
M  V30 1871 C 172.423 -0.448865 2.24762 0
M  V30 1872 C 173.423 -0.998689 1.26027 0
M  V30 1873 O 174.613 -0.882313 1.50203 0
M  V30 1874 C 171.745 -1.62872 2.99476 0
M  V30 1875 H 172.938 0.179491 2.99362 0
M  V30 1876 H 170.491 0.13096 1.5575 0
M  V30 1877 H 171.226 -2.29479 2.29151 0
M  V30 1878 H 171.011 -1.24128 3.71934 0
M  V30 1879 H 172.501 -2.2151 3.5401 0
M  V30 1880 N 172.938 -1.57226 0.108567 0
M  V30 1881 C 173.868 -2.17778 -0.84232 0
M  V30 1882 C 174.849 -1.11487 -1.2847 0
M  V30 1883 O 176.034 -1.39681 -1.34918 0
M  V30 1884 C 173.164 -2.76888 -2.09644 0
M  V30 1885 C 172.118 -3.88669 -1.79221 0
M  V30 1886 C 171.444 -4.34541 -3.11574 0
M  V30 1887 C 172.744 -5.11251 -1.06864 0
M  V30 1888 H 174.438 -2.97489 -0.337774 0
M  V30 1889 H 171.984 -1.43097 -0.161025 0
M  V30 1890 H 173.937 -3.17904 -2.76614 0
M  V30 1891 H 172.661 -1.94451 -2.62405 0
M  V30 1892 H 171.32 -3.48213 -1.14644 0
M  V30 1893 H 170.968 -3.48977 -3.62249 0
M  V30 1894 H 170.668 -5.09914 -2.91996 0
M  V30 1895 H 172.192 -4.782 -3.7968 0
M  V30 1896 H 173.606 -5.49352 -1.63968 0
M  V30 1897 H 172.003 -5.9214 -0.974178 0
M  V30 1898 H 173.073 -4.8487 -0.0536168 0
M  V30 1899 N 174.416 0.165178 -1.56732 0
M  V30 1900 C 175.364 1.22369 -1.97809 0
M  V30 1901 C 176.358 1.45488 -0.867741 0
M  V30 1902 O 177.564 1.45995 -1.05288 0
M  V30 1903 H 173.939 0.411486 -0.629431 0
M  V30 1904 H 175.91 0.850425 -2.86025 0
M  V30 1905 C 174.659 2.55403 -2.35934 0
M  V30 1906 H 173.982 2.38438 -3.20916 0
M  V30 1907 H 175.422 3.2814 -2.68514 0
M  V30 1908 C 173.881 3.14611 -1.20506 0
M  V30 1909 O 174.411 3.98626 -0.496016 0
M  V30 1910 N 172.617 2.7379 -0.97403 0
M  V30 1911 H 172.164 2.0557 -1.55238 0
M  V30 1912 H 172.122 3.1374 -0.203573 0
M  V30 1913 N 175.894 1.51508 0.433938 0
M  V30 1914 C 176.824 1.76016 1.53429 0
M  V30 1915 C 177.805 0.610112 1.58782 0
M  V30 1916 O 178.99 0.853177 1.74455 0
M  V30 1917 C 176.12 1.88831 2.9148 0
M  V30 1918 C 175.074 3.04288 3.00987 0
M  V30 1919 C 174.4 3.0229 4.4105 0
M  V30 1920 C 175.7 4.44193 2.74754 0
M  V30 1921 H 177.394 2.68152 1.33171 0
M  V30 1922 H 174.94 1.29035 0.639214 0
M  V30 1923 H 176.893 2.04559 3.6842 0
M  V30 1924 H 175.617 0.933455 3.12976 0
M  V30 1925 H 174.276 2.8827 2.26486 0
M  V30 1926 H 173.924 2.04576 4.59519 0
M  V30 1927 H 173.624 3.79822 4.4834 0
M  V30 1928 H 175.148 3.20116 5.1996 0
M  V30 1929 H 176.562 4.60544 3.41426 0
M  V30 1930 H 174.959 5.23457 2.9345 0
M  V30 1931 H 176.029 4.53996 1.70339 0
M  V30 1932 N 177.372 -0.689602 1.41712 0
M  V30 1933 C 178.619 -1.44966 1.4139 0
M  V30 1934 C 178.947 -1.94484 0.025105 0
M  V30 1935 O 178.202 -1.70307 -0.964048 0
M  V30 1936 C 178.501 -2.67298 2.37247 0
M  V30 1937 C 178.167 -2.36405 3.83958 0
M  V30 1938 C 176.829 -2.27691 4.23923 0
M  V30 1939 C 179.181 -2.11043 4.76561 0
M  V30 1940 C 176.509 -1.91719 5.54492 0
M  V30 1941 C 178.861 -1.76578 6.07456 0
M  V30 1942 C 177.525 -1.66363 6.46436 0
M  V30 1943 H 176.795 -0.53047 0.517381 0
M  V30 1944 H 179.442 -0.787655 1.74552 0
M  V30 1945 H 177.747 -3.38461 1.9736 0
M  V30 1946 H 179.444 -3.25452 2.34269 0
M  V30 1947 H 176.034 -2.44085 3.52308 0
M  V30 1948 H 180.218 -2.16717 4.46483 0
M  V30 1949 H 175.474 -1.82367 5.83568 0
M  V30 1950 H 179.648 -1.55974 6.78708 0
M  V30 1951 H 177.275 -1.38258 7.47522 0
M  V30 1952 N 178.85 -1.27639 -0.924453 0
M  V30 1953 C 179.798 -1.10485 -2.04685 0
M  V30 1954 C 180.792 -0.0270421 -1.69378 0
M  V30 1955 O 181.998 -0.185008 -1.79047 0
M  V30 1956 H 178.373 -0.340546 -0.670472 0
M  V30 1957 H 180.344 -2.05566 -2.16298 0
M  V30 1958 C 179.093 -0.772229 -3.39016 0
M  V30 1959 H 178.416 -1.59351 -3.66671 0
M  V30 1960 H 179.856 -0.692097 -4.18313 0
M  V30 1961 C 178.315 0.523554 -3.32807 0
M  V30 1962 O 178.845 1.55702 -3.70297 0
M  V30 1963 N 177.051 0.520363 -2.85903 0
M  V30 1964 H 176.598 -0.32107 -2.55591 0
M  V30 1965 H 176.556 1.38742 -2.82131 0
M  V30 1966 N 180.328 1.1314 -1.09713 0
M  V30 1967 C 181.605 1.80762 -0.747302 0
M  V30 1968 C 181.985 1.96663 0.767265 0
M  V30 1969 O 181.333 1.53706 1.69076 0
M  V30 1970 C 181.543 3.15606 -1.48975 0
M  V30 1971 C 182.891 3.90914 -1.65746 0
M  V30 1972 O 183.915 3.25239 -1.45251 0
M  V30 1973 O 182.774 5.08718 -1.9967 0
M  V30 1974 H 179.868 0.782103 -0.268782 0
M  V30 1975 H 182.414 1.20041 -1.19951 0
M  V30 1976 H 181.186 2.99278 -2.52088 0
M  V30 1977 H 180.809 3.84029 -1.02991 0
M  V30 1978 N 181.806 0.884767 1.30421 0
M  V30 1979 C 183.217 0.553656 1.78302 0
M  V30 1980 C 183.568 -0.930153 1.7275 0
M  V30 1981 O 182.693 -1.72681 1.30423 0
M  V30 1982 C 183.288 0.998234 3.2376 0
M  V30 1983 C 181.847 0.71854 3.69478 0
M  V30 1984 C 180.994 1.18132 2.50879 0
M  V30 1985 H 183.945 1.06901 1.17294 0
M  V30 1986 H 183.966 0.327118 3.79091 0
M  V30 1987 H 183.478 2.0782 3.27769 0
M  V30 1988 H 181.579 -0.349444 3.70958 0
M  V30 1989 H 181.692 1.30595 4.60958 0
M  V30 1990 H 180.056 0.600669 2.47516 0
M  V30 1991 H 180.839 2.26902 2.57624 0
M  V30 1992 N 183.284 -1.43765 0.645699 0
M  V30 1993 C 184.217 -2.2798 -0.100072 0
M  V30 1994 C 185.195 -1.39391 -0.837194 0
M  V30 1995 O 186.379 -1.68833 -0.838306 0
M  V30 1996 C 183.506 -3.18643 -1.14823 0
M  V30 1997 C 182.552 -4.2344 -0.510009 0
M  V30 1998 S 183.385 -5.30761 0.710824 0
M  V30 1999 C 184.541 -6.24992 -0.33699 0
M  V30 2000 H 184.774 -2.90884 0.614322 0
M  V30 2001 H 182.307 -1.48166 0.434304 0
M  V30 2002 H 184.265 -3.71424 -1.74799 0
M  V30 2003 H 182.926 -2.54932 -1.8349 0
M  V30 2004 H 182.119 -4.86948 -1.29991 0
M  V30 2005 H 181.721 -3.73997 0.0154577 0
M  V30 2006 H 184.013 -6.66691 -1.20537 0
M  V30 2007 H 184.956 -7.07612 0.262879 0
M  V30 2008 H 185.364 -5.60517 -0.669425 0
M  V30 2009 N 184.763 -0.387143 -1.52771 0
M  V30 2010 C 186.009 0.188506 -2.02525 0
M  V30 2011 C 186.364 1.44649 -1.26864 0
M  V30 2012 O 185.657 1.88189 -0.359945 0
M  V30 2013 C 185.851 0.512209 -3.53711 0
M  V30 2014 C 185.68 -0.712855 -4.44014 0
M  V30 2015 C 184.45 -1.23147 -4.90064 0
M  V30 2016 C 186.648 -1.58453 -4.89282 0
M  V30 2017 N 184.63 -2.41431 -5.64433 0
M  V30 2018 C 186.001 -2.61381 -5.6221 0
M  V30 2019 C 188.056 -1.60488 -4.71326 0
M  V30 2020 C 186.759 -3.66227 -6.19088 0
M  V30 2021 C 188.785 -2.6424 -5.29085 0
M  V30 2022 C 188.147 -3.6589 -6.01917 0
M  V30 2023 H 184.246 0.0311236 -0.78138 0
M  V30 2024 H 186.83 -0.536548 -1.87161 0
M  V30 2025 H 185.001 1.20632 -3.69192 0
M  V30 2026 H 186.733 1.07482 -3.90166 0
M  V30 2027 H 183.488 -0.792795 -4.66917 0
M  V30 2028 H 183.912 -3.01274 -6.0627 0
M  V30 2029 H 188.554 -0.83247 -4.14524 0
M  V30 2030 H 186.272 -4.44337 -6.74974 0
M  V30 2031 H 189.858 -2.66695 -5.17074 0
M  V30 2032 H 188.738 -4.44855 -6.45813 0
M  V30 2033 N 186.241 1.57166 -0.116904 0
M  V30 2034 C 187.189 2.16457 0.851418 0
M  V30 2035 C 188.183 1.11323 1.27686 0
M  V30 2036 O 189.389 1.2963 1.24884 0
M  V30 2037 H 185.764 0.69271 0.292672 0
M  V30 2038 H 187.735 2.96605 0.32685 0
M  V30 2039 C 186.484 2.77689 2.09246 0
M  V30 2040 H 185.807 3.58285 1.77402 0
M  V30 2041 H 187.247 3.22716 2.7501 0
M  V30 2042 C 185.706 1.74667 2.88085 0
M  V30 2043 O 186.236 1.19877 3.83396 0
M  V30 2044 N 184.442 1.44656 2.52038 0
M  V30 2045 H 183.989 1.89402 1.74599 0
M  V30 2046 H 183.947 0.759675 3.05084 0
M  V30 2047 N 187.719 -0.156864 1.56817 0
M  V30 2048 C 188.651 -1.21883 1.94106 0
M  V30 2049 C 189.664 -1.3971 0.835754 0
M  V30 2050 O 190.853 -1.39457 1.11418 0
M  V30 2051 C 187.953 -2.58527 2.19127 0
M  V30 2052 C 187.126 -2.61809 3.50393 0
M  V30 2053 C 186.185 -3.7992 3.64071 0
M  V30 2054 O 185.211 -3.65249 4.36557 0
M  V30 2055 N 186.413 -4.96973 2.99997 0
M  V30 2056 H 189.178 -0.901974 2.85805 0
M  V30 2057 H 186.739 -0.346513 1.58148 0
M  V30 2058 H 188.731 -3.36034 2.25529 0
M  V30 2059 H 187.301 -2.82545 1.33742 0
M  V30 2060 H 186.521 -1.7029 3.5552 0
M  V30 2061 H 187.809 -2.61024 4.36742 0
M  V30 2062 H 187.207 -5.11794 2.41004 0
M  V30 2063 H 185.764 -5.7229 3.11974 0
M  V30 2064 N 189.197 -1.51736 -0.425897 0
M  V30 2065 C 190.129 -1.70083 -1.53638 0
M  V30 2066 C 191.142 -0.581349 -1.52066 0
M  V30 2067 O 192.331 -0.856017 -1.56635 0
M  V30 2068 C 189.431 -1.71078 -2.9255 0
M  V30 2069 C 188.604 -2.99795 -3.185 0
M  V30 2070 C 187.663 -2.92825 -4.37196 0
M  V30 2071 O 186.689 -3.66756 -4.35291 0
M  V30 2072 N 187.891 -2.0946 -5.41393 0
M  V30 2073 H 190.656 -2.65882 -1.383 0
M  V30 2074 H 188.217 -1.49765 -0.614988 0
M  V30 2075 H 190.209 -1.63969 -3.69995 0
M  V30 2076 H 188.779 -0.828242 -3.01428 0
M  V30 2077 H 187.999 -3.20684 -2.2925 0
M  V30 2078 H 189.287 -3.84977 -3.32671 0
M  V30 2079 H 188.685 -1.48792 -5.45781 0
M  V30 2080 H 187.242 -2.08221 -6.17647 0
M  V30 2081 N 190.675 0.682077 -1.42076 0
M  V30 2082 C 191.921 1.44283 -1.43366 0
M  V30 2083 C 192.276 1.92344 -0.0465775 0
M  V30 2084 O 191.569 1.67517 0.929973 0
M  V30 2085 C 191.763 2.66036 -2.38662 0
M  V30 2086 C 191.592 2.29889 -3.86499 0
M  V30 2087 C 190.362 2.19599 -4.55087 0
M  V30 2088 C 192.56 1.91999 -4.77117 0
M  V30 2089 N 190.542 1.76478 -5.87987 0
M  V30 2090 C 191.913 1.59741 -5.99068 0
M  V30 2091 C 193.968 1.78927 -4.64639 0
M  V30 2092 C 192.671 1.15723 -7.0993 0
M  V30 2093 C 194.697 1.36314 -5.75476 0
M  V30 2094 C 194.059 1.04975 -6.96534 0
M  V30 2095 H 190.158 0.524739 -0.579805 0
M  V30 2096 H 192.742 0.787834 -1.78048 0
M  V30 2097 H 190.913 3.29237 -2.06053 0
M  V30 2098 H 192.645 3.32588 -2.30581 0
M  V30 2099 H 189.4 2.38433 -4.09202 0
M  V30 2100 H 189.824 1.57362 -6.58458 0
M  V30 2101 H 194.466 2.01805 -3.7153 0
M  V30 2102 H 192.184 0.91591 -8.02893 0
M  V30 2103 H 195.77 1.26731 -5.6783 0
M  V30 2104 H 194.65 0.725017 -7.80841 0
M  V30 2105 N 192.153 1.28127 0.917671 0
M  V30 2106 C 193.383 1.17722 1.6978 0
M  V30 2107 C 193.791 -0.267261 1.87303 0
M  V30 2108 O 193.134 -1.19286 1.39702 0
M  V30 2109 C 193.196 1.79958 3.11216 0
M  V30 2110 C 192.86 3.29187 3.16993 0
M  V30 2111 C 193.857 4.25679 2.98485 0
M  V30 2112 C 191.542 3.70075 3.39632 0
M  V30 2113 C 193.536 5.61035 3.02521 0
M  V30 2114 C 191.223 5.05557 3.433 0
M  V30 2115 C 192.221 6.00847 3.24764 0
M  V30 2116 O 191.909 7.33859 3.28187 0
M  V30 2117 H 191.641 0.409788 0.537634 0
M  V30 2118 H 194.195 1.69694 1.15728 0
M  V30 2119 H 192.425 1.22475 3.66793 0
M  V30 2120 H 194.114 1.64125 3.71238 0
M  V30 2121 H 194.88 3.95426 2.80826 0
M  V30 2122 H 190.759 2.96373 3.53106 0
M  V30 2123 H 194.303 6.35388 2.87971 0
M  V30 2124 H 190.2 5.35462 3.60486 0
M  V30 2125 H 190.968 7.42436 3.44575 0
M  V30 2126 N 193.631 -1.12557 1.10312 0
M  V30 2127 C 194.561 -2.20341 0.772798 0
M  V30 2128 C 195.542 -1.68198 -0.25365 0
M  V30 2129 O 196.727 -1.93831 -0.119699 0
M  V30 2130 C 193.857 -3.46709 0.202443 0
M  V30 2131 C 192.811 -4.11996 1.15943 0
M  V30 2132 C 192.137 -5.328 0.450345 0
M  V30 2133 C 193.437 -4.5828 2.50552 0
M  V30 2134 H 195.131 -2.48229 1.674 0
M  V30 2135 H 192.677 -1.19308 0.806326 0
M  V30 2136 H 194.63 -4.2138 -0.0407752 0
M  V30 2137 H 193.354 -3.18245 -0.734001 0
M  V30 2138 H 192.013 -3.39305 1.38808 0
M  V30 2139 H 191.661 -5.00602 -0.490531 0
M  V30 2140 H 191.361 -5.7743 1.08851 0
M  V30 2141 H 192.885 -6.10219 0.215642 0
M  V30 2142 H 194.299 -5.2433 2.31843 0
M  V30 2143 H 192.696 -5.13683 3.10242 0
M  V30 2144 H 193.766 -3.72329 3.10643 0
M  V30 2145 N 195.109 -0.891671 -1.2995 0
M  V30 2146 C 196.041 -0.320695 -2.26945 0
M  V30 2147 C 197.054 0.528497 -1.53983 0
M  V30 2148 O 198.243 0.346959 -1.75096 0
M  V30 2149 C 195.343 0.562066 -3.34207 0
M  V30 2150 C 194.516 -0.259576 -4.36629 0
M  V30 2151 C 193.575 0.554739 -5.23268 0
M  V30 2152 O 192.601 -0.0249311 -5.69195 0
M  V30 2153 N 193.803 1.8625 -5.4981 0
M  V30 2154 H 196.568 -1.15432 -2.76578 0
M  V30 2155 H 194.129 -0.755336 -1.432 0
M  V30 2156 H 196.121 1.11304 -3.89093 0
M  V30 2157 H 194.691 1.29637 -2.84452 0
M  V30 2158 H 193.911 -0.991986 -3.81514 0
M  V30 2159 H 195.199 -0.822564 -5.02107 0
M  V30 2160 H 194.597 2.35628 -5.14292 0
M  V30 2161 H 193.154 2.36078 -6.07545 0
M  V30 2162 N 196.587 1.43421 -0.653314 0
M  V30 2163 C 197.864 1.95361 -0.0966581 0
M  V30 2164 C 198.244 1.59461 1.38331 0
M  V30 2165 O 197.592 0.879777 2.10884 0
M  V30 2166 C 197.802 3.47311 -0.342988 0
M  V30 2167 C 199.15 4.23875 -0.24798 0
M  V30 2168 O 200.174 3.55133 -0.275553 0
M  V30 2169 O 199.033 5.4623 -0.171771 0
M  V30 2170 H 196.127 0.826945 0.00956291 0
M  V30 2171 H 198.673 1.5336 -0.726558 0
M  V30 2172 H 197.445 3.66569 -1.36906 0
M  V30 2173 H 197.068 3.9631 0.319975 0
M  V30 2174 N 198.065 0.39524 1.52563 0
M  V30 2175 C 199.293 -0.184943 2.06072 0
M  V30 2176 C 199.708 -1.40021 1.26647 0
M  V30 2177 O 199.065 -1.79767 0.314672 0
M  V30 2178 C 199.116 -0.549179 3.57304 0
M  V30 2179 O 198.837 0.617813 4.33722 0
M  V30 2180 C 200.338 -1.18459 4.2718 0
M  V30 2181 H 197.558 -0.0265025 0.670476 0
M  V30 2182 H 200.102 0.562184 1.96621 0
M  V30 2183 H 198.257 -1.2462 3.66809 0
M  V30 2184 H 198.671 0.317091 5.23541 0
M  V30 2185 H 200.145 -1.38976 5.34219 0
M  V30 2186 H 200.622 -2.15368 3.82771 0
M  V30 2187 H 201.228 -0.528163 4.22008 0
M  V30 2188 N 199.544 -1.57102 0.125237 0
M  V30 2189 C 200.96 -1.57915 -0.231322 0
M  V30 2190 C 201.16 -1.13833 -1.66266 0
M  V30 2191 O 200.216 -0.828581 -2.38518 0
M  V30 2192 C 201.529 -3.00699 0.00766489 0
M  V30 2193 C 203.077 -3.12947 -0.0577483 0
M  V30 2194 C 203.552 -4.57742 0.153626 0
M  V30 2195 N 205.043 -4.63092 0.0998073 0
M  V30 2196 C 205.778 -5.72905 0.238174 0
M  V30 2197 N 205.274 -6.91445 0.433057 0
M  V30 2198 N 207.067 -5.6182 0.177308 0
M  V30 2199 H 199.218 -1.84055 1.06007 0
M  V30 2200 H 201.481 -0.850905 0.417929 0
M  V30 2201 H 201.187 -3.3726 0.997431 0
M  V30 2202 H 201.061 -3.70236 -0.721452 0
M  V30 2203 H 203.448 -2.7624 -1.03804 0
M  V30 2204 H 203.529 -2.4594 0.70335 0
M  V30 2205 H 203.173 -4.95149 1.13092 0
M  V30 2206 H 203.103 -5.22848 -0.627534 0
M  V30 2207 H 205.594 -3.77871 -0.047051 0
M  V30 2208 H 205.907 -7.70985 0.529332 0
M  V30 2209 H 204.252 -6.93415 0.469109 0
M  V30 2210 H 207.443 -4.68093 0.0259748 0
M  V30 2211 H 207.616 -6.47357 0.288582 0
M  V30 2212 N 201.022 0.148545 -1.56898 0
M  V30 2213 C 201.955 1.21293 -1.93296 0
M  V30 2214 C 202.933 1.41637 -0.798599 0
M  V30 2215 O 204.117 1.56275 -1.05406 0
M  V30 2216 C 201.244 2.5721 -2.20365 0
M  V30 2217 C 200.29 2.53469 -3.4301 0
M  V30 2218 S 201.123 2.00315 -4.96623 0
M  V30 2219 C 202.279 3.37964 -5.26812 0
M  V30 2220 H 202.512 0.902393 -2.83274 0
M  V30 2221 H 200.045 0.354094 -1.50285 0
M  V30 2222 H 202.003 3.35427 -2.36641 0
M  V30 2223 H 200.664 2.85454 -1.31054 0
M  V30 2224 H 199.857 3.53518 -3.59223 0
M  V30 2225 H 199.459 1.83359 -3.25968 0
M  V30 2226 H 201.751 4.34066 -5.20185 0
M  V30 2227 H 202.694 3.26606 -6.28279 0
M  V30 2228 H 203.102 3.35028 -4.54331 0
M  V30 2229 N 202.5 1.5196 0.417844 0
M  V30 2230 C 203.728 1.69426 1.18753 0
M  V30 2231 C 204.143 0.399955 1.84515 0
M  V30 2232 O 203.5 -0.623288 1.71527 0
M  V30 2233 C 203.551 2.82375 2.25714 0
M  V30 2234 O 203.272 4.06793 1.62638 0
M  V30 2235 C 204.773 3.11277 3.15628 0
M  V30 2236 H 201.993 0.568031 0.357186 0
M  V30 2237 H 204.537 1.98475 0.49273 0
M  V30 2238 H 202.692 2.5587 2.90877 0
M  V30 2239 H 203.106 4.69667 2.3348 0
M  V30 2240 H 204.58 3.93843 3.86771 0
M  V30 2241 H 205.057 2.24473 3.77503 0
M  V30 2242 H 205.663 3.39515 2.56144 0
M  V30 2243 N 203.978 -0.674533 1.42435 0
M  V30 2244 C 204.941 -1.76986 1.45632 0
M  V30 2245 C 205.941 -1.5708 0.343871 0
M  V30 2246 O 207.131 -1.63367 0.604709 0
M  V30 2247 C 204.263 -3.15623 1.28822 0
M  V30 2248 H 205.456 -1.75539 2.43158 0
M  V30 2249 H 203.009 -0.884189 1.28887 0
M  V30 2250 H 203.744 -3.22696 0.322193 0
M  V30 2251 H 203.529 -3.31475 2.09444 0
M  V30 2252 H 205.019 -3.95537 1.33942 0
M  V30 2253 N 205.456 -1.28612 -0.910864 0
M  V30 2254 C 206.419 -1.12803 -1.9952 0
M  V30 2255 C 207.419 -0.0668264 -1.60661 0
M  V30 2256 O 208.609 -0.312847 -1.71368 0
M  V30 2257 C 205.741 -0.72254 -3.33155 0
M  V30 2258 H 206.934 -2.09109 -2.14973 0
M  V30 2259 H 204.487 -1.11639 -1.09391 0
M  V30 2260 H 205.222 0.241152 -3.23402 0
M  V30 2261 H 205.007 -1.48916 -3.62721 0
M  V30 2262 H 206.497 -0.634666 -4.12749 0
M  V30 2263 N 206.934 1.1197 -1.10907 0
M  V30 2264 C 207.864 2.19928 -0.784473 0
M  V30 2265 C 208.845 1.6833 0.244726 0
M  V30 2266 O 210.03 1.93892 0.109418 0
M  V30 2267 C 207.16 3.46597 -0.220827 0
M  V30 2268 C 206.114 4.11376 -1.18127 0
M  V30 2269 C 205.44 5.32554 -0.478594 0
M  V30 2270 C 206.74 4.56945 -2.52979 0
M  V30 2271 H 208.434 2.47337 -1.68715 0
M  V30 2272 H 205.98 1.18879 -0.812642 0
M  V30 2273 H 207.933 4.21396 0.0184278 0
M  V30 2274 H 206.657 3.1863 0.717113 0
M  V30 2275 H 205.316 3.38564 -1.40606 0
M  V30 2276 H 204.964 5.00856 0.463976 0
M  V30 2277 H 204.664 5.76844 -1.11912 0
M  V30 2278 H 206.188 6.10096 -0.248 0
M  V30 2279 H 207.602 5.23093 -2.3462 0
M  V30 2280 H 205.999 5.1203 -3.12962 0
M  V30 2281 H 207.069 3.70676 -3.12614 0
M  V30 2282 N 208.412 0.89855 1.29475 0
M  V30 2283 C 209.823 0.572537 1.77705 0
M  V30 2284 C 210.174 -0.911778 1.73727 0
M  V30 2285 O 209.299 -1.71288 1.32247 0
M  V30 2286 C 209.894 1.03252 3.22683 0
M  V30 2287 C 208.453 0.757687 3.68695 0
M  V30 2288 C 207.6 1.20787 2.49612 0
M  V30 2289 H 210.551 1.08139 1.16153 0
M  V30 2290 H 210.572 0.367307 3.78723 0
M  V30 2291 H 210.084 2.11285 3.25546 0
M  V30 2292 H 208.185 -0.310079 3.71308 0
M  V30 2293 H 208.298 1.35476 4.59547 0
M  V30 2294 H 206.662 0.626888 2.46865 0
M  V30 2295 H 207.445 2.29622 2.55203 0
M  V30 2296 N 209.89 -1.43072 0.660911 0
M  V30 2297 C 210.837 -2.30785 -0.0259884 0
M  V30 2298 C 211.807 -1.45184 -0.806888 0
M  V30 2299 O 212.992 -1.74041 -0.781943 0
M  V30 2300 C 210.132 -3.30861 -0.981067 0
M  V30 2301 C 209.245 -4.31558 -0.195458 0
M  V30 2302 C 208.38 -5.18712 -1.14503 0
M  V30 2303 C 207.419 -6.11097 -0.350299 0
M  V30 2304 N 206.556 -6.90849 -1.25186 0
M  V30 2305 H 211.396 -2.88975 0.727846 0
M  V30 2306 H 208.933 -1.42353 0.370682 0
M  V30 2307 H 210.891 -3.87399 -1.54849 0
M  V30 2308 H 209.521 -2.74304 -1.70169 0
M  V30 2309 H 208.573 -3.77252 0.488374 0
M  V30 2310 H 209.885 -4.9701 0.422176 0
M  V30 2311 H 209.039 -5.79914 -1.78284 0
M  V30 2312 H 207.778 -4.53404 -1.79656 0
M  V30 2313 H 206.783 -5.48976 0.300808 0
M  V30 2314 H 208.008 -6.7845 0.296941 0
M  V30 2315 H 205.954 -6.28182 -1.89005 0
M  V30 2316 H 205.871 -7.52854 -0.688971 0
M  V30 2317 H 207.139 -7.5655 -1.87757 0
M  V30 2318 N 211.368 -0.403325 -1.52352 0
M  V30 2319 C 212.298 0.416205 -2.29761 0
M  V30 2320 C 213.279 1.05123 -1.33728 0
M  V30 2321 O 214.464 1.06134 -1.62632 0
M  V30 2322 C 211.594 1.53624 -3.11475 0
M  V30 2323 C 210.548 1.02653 -4.15507 0
M  V30 2324 C 209.874 2.23971 -4.85532 0
M  V30 2325 C 211.174 0.08463 -5.22231 0
M  V30 2326 H 212.868 -0.229701 -2.98518 0
M  V30 2327 H 210.414 -0.111913 -1.43564 0
M  V30 2328 H 212.367 2.1165 -3.64393 0
M  V30 2329 H 211.091 2.20994 -2.40477 0
M  V30 2330 H 209.75 0.46871 -3.63591 0
M  V30 2331 H 209.398 2.89883 -4.11068 0
M  V30 2332 H 209.098 1.90521 -5.55856 0
M  V30 2333 H 210.622 2.82614 -5.41259 0
M  V30 2334 H 212.036 0.573509 -5.70424 0
M  V30 2335 H 210.433 -0.160783 -5.99885 0
M  V30 2336 H 211.503 -0.86237 -4.7717 0
M  V30 2337 N 212.846 1.57033 -0.133567 0
M  V30 2338 C 214.123 1.87256 0.56522 0
M  V30 2339 C 214.503 1.03726 1.83859 0
M  V30 2340 O 213.851 0.120247 2.28183 0
M  V30 2341 C 214.061 3.3865 0.843636 0
M  V30 2342 C 215.409 4.07574 1.19032 0
M  V30 2343 O 216.433 3.43752 0.933429 0
M  V30 2344 O 215.292 5.20259 1.67312 0
M  V30 2345 H 212.386 0.775678 0.286796 0
M  V30 2346 H 214.932 1.68855 -0.169168 0
M  V30 2347 H 213.704 3.91257 -0.0581149 0
M  V30 2348 H 213.327 3.62532 1.63268 0
M  V30 2349 N 214.325 -0.140222 1.56975 0
M  V30 2350 C 215.255 -1.17456 2.01808 0
M  V30 2351 C 216.236 -1.44415 0.898794 0
M  V30 2352 O 217.421 -1.5522 1.16707 0
M  V30 2353 C 214.551 -2.50607 2.40444 0
M  V30 2354 C 213.505 -2.38155 3.55621 0
M  V30 2355 C 212.831 -3.76078 3.80091 0
M  V30 2356 C 214.131 -1.85991 4.88062 0
M  V30 2357 H 215.825 -0.801743 2.88466 0
M  V30 2358 H 213.371 -0.38422 1.38779 0
M  V30 2359 H 215.324 -3.23197 2.7041 0
M  V30 2360 H 214.048 -2.89737 1.50732 0
M  V30 2361 H 212.707 -1.68016 3.25832 0
M  V30 2362 H 212.355 -4.12656 2.87618 0
M  V30 2363 H 212.055 -3.68606 4.57606 0
M  V30 2364 H 213.579 -4.50206 4.12488 0
M  V30 2365 H 214.993 -2.4838 5.16701 0
M  V30 2366 H 213.39 -1.89393 5.6943 0
M  V30 2367 H 214.46 -0.816023 4.77984 0
M  V30 2368 N 215.803 -1.52179 -0.40978 0
M  V30 2369 C 216.753 -1.71857 -1.49831 0
M  V30 2370 C 217.737 -0.572469 -1.50372 0
M  V30 2371 O 218.929 -0.829509 -1.56359 0
M  V30 2372 C 216.058 -1.87206 -2.87765 0
M  V30 2373 C 215.144 -3.07685 -2.91875 0
M  V30 2374 N 215.535 -4.30403 -2.65683 0
M  V30 2375 C 213.833 -3.07505 -3.23043 0
M  V30 2376 C 214.534 -5.11868 -2.76344 0
M  V30 2377 N 213.51 -4.47101 -3.09195 0
M  V30 2378 H 217.312 -2.64381 -1.28375 0
M  V30 2379 H 214.826 -1.50203 -0.617479 0
M  V30 2380 H 216.823 -1.99419 -3.66111 0
M  V30 2381 H 215.483 -0.958814 -3.10221 0
M  V30 2382 H 216.494 -4.58887 -2.4009 0
M  V30 2383 H 213.171 -2.25915 -3.51096 0
M  V30 2384 H 214.561 -6.19634 -2.59814 0
M  V30 2385 N 217.281 0.66697 -1.42791 0
M  V30 2386 C 218.527 1.4291 -1.43891 0
M  V30 2387 C 218.86 1.94114 -0.0578972 0
M  V30 2388 O 218.135 1.71414 0.91911 0
M  V30 2389 C 218.418 2.62049 -2.46987 0
M  V30 2390 C 218.271 2.16426 -3.94309 0
M  V30 2391 C 219.59 3.64266 -2.46978 0
M  V30 2392 H 216.709 0.518306 -0.523954 0
M  V30 2393 H 219.351 0.757321 -1.74255 0
M  V30 2394 H 217.501 3.19361 -2.21225 0
M  V30 2395 H 219.173 1.64221 -4.31079 0
M  V30 2396 H 217.416 1.47925 -4.078 0
M  V30 2397 H 218.087 3.02038 -4.62036 0
M  V30 2398 H 220.563 3.16686 -2.69906 0
M  V30 2399 H 219.439 4.45196 -3.21079 0
M  V30 2400 H 219.7 4.15927 -1.49857 0
M  V30 2401 N 218.759 1.29093 0.90403 0
M  V30 2402 C 220.008 1.16187 1.64874 0
M  V30 2403 C 220.321 -0.286742 1.93487 0
M  V30 2404 O 221.527 -0.537062 2.66135 0
M  V30 2405 C 219.983 2.03177 2.97064 0
M  V30 2406 C 219.591 3.52836 2.76062 0
M  V30 2407 C 221.335 1.98984 3.74974 0
M  V30 2408 C 219.242 4.31945 4.03952 0
M  V30 2409 H 218.172 0.431246 0.618501 0
M  V30 2410 H 220.823 1.53699 1.00243 0
M  V30 2411 H 219.205 1.5853 3.62883 0
M  V30 2412 H 220.379 4.05507 2.18863 0
M  V30 2413 H 218.694 3.58656 2.11553 0
M  V30 2414 H 221.291 2.55351 4.69787 0
M  V30 2415 H 221.634 0.968815 4.0487 0
M  V30 2416 H 222.167 2.41652 3.15989 0
M  V30 2417 H 218.906 5.34667 3.79225 0
M  V30 2418 H 218.426 3.84045 4.60727 0
M  V30 2419 H 220.105 4.42379 4.72133 0
M  V30 2420 N 220.237 -1.11381 1.11499 0
M  V30 2421 C 221.648 -1.6465 0.880191 0
M  V30 2422 C 221.999 -1.87199 -0.587434 0
M  V30 2423 O 221.124 -1.60667 -1.44966 0
M  V30 2424 C 221.719 -2.99105 1.59128 0
M  V30 2425 C 220.278 -3.49279 1.40289 0
M  V30 2426 C 219.425 -2.24077 1.63354 0
M  V30 2427 H 222.376 -0.950123 1.27116 0
M  V30 2428 H 222.397 -3.66107 1.03664 0
M  V30 2429 H 221.909 -2.82661 2.65941 0
M  V30 2430 H 220.01 -3.70887 0.356888 0
M  V30 2431 H 220.123 -4.2803 2.15238 0
M  V30 2432 H 218.487 -2.31733 1.05698 0
M  V30 2433 H 219.27 -2.10175 2.71443 0
M  V30 2434 N 221.715 -0.905404 -1.28997 0
M  V30 2435 C 222.961 -0.535039 -1.95615 0
M  V30 2436 C 223.294 0.917404 -1.71165 0
M  V30 2437 O 222.569 1.65123 -1.02785 0
M  V30 2438 C 222.852 -0.834918 -3.50287 0
M  V30 2439 C 222.705 -2.33948 -3.84172 0
M  V30 2440 C 224.024 -0.325318 -4.38896 0
M  V30 2441 H 221.143 -0.195861 -0.710498 0
M  V30 2442 H 223.785 -1.13313 -1.52513 0
M  V30 2443 H 221.935 -0.325904 -3.87131 0
M  V30 2444 H 223.607 -2.91847 -3.57243 0
M  V30 2445 H 221.85 -2.79789 -3.31513 0
M  V30 2446 H 222.521 -2.49987 -4.92149 0
M  V30 2447 H 224.997 -0.761256 -4.09077 0
M  V30 2448 H 223.873 -0.564295 -5.45992 0
M  V30 2449 H 224.134 0.774144 -4.35269 0
M  V30 2450 N 223.193 1.4272 -0.668489 0
M  V30 2451 C 224.439 2.02443 -0.197076 0
M  V30 2452 C 224.794 1.51882 1.18109 0
M  V30 2453 O 224.087 0.708618 1.78015 0
M  V30 2454 C 224.281 3.57021 -0.164499 0
M  V30 2455 C 224.11 4.22583 -1.53797 0
M  V30 2456 C 222.88 4.58019 -2.13416 0
M  V30 2457 C 225.078 4.50588 -2.47941 0
M  V30 2458 N 223.06 5.08729 -3.4361 0
M  V30 2459 C 224.431 5.02782 -3.62782 0
M  V30 2460 C 226.486 4.32571 -2.46551 0
M  V30 2461 C 225.189 5.38852 -4.76478 0
M  V30 2462 C 227.215 4.69713 -3.59338 0
M  V30 2463 C 226.577 5.22053 -4.72906 0
M  V30 2464 H 222.676 0.773214 -0.116894 0
M  V30 2465 H 225.26 1.73673 -0.880108 0
M  V30 2466 H 223.431 3.85323 0.487925 0
M  V30 2467 H 225.163 4.03439 0.319207 0
M  V30 2468 H 221.918 4.43566 -1.65969 0
M  V30 2469 H 222.342 5.38521 -4.10273 0
M  V30 2470 H 226.984 3.91365 -1.59978 0
M  V30 2471 H 224.702 5.78993 -5.63731 0
M  V30 2472 H 228.288 4.57454 -3.59482 0
M  V30 2473 H 227.168 5.50258 -5.58736 0
M  V30 2474 N 224.671 0.411399 1.52136 0
M  V30 2475 C 225.603 -0.448386 2.24771 0
M  V30 2476 C 226.616 -1.00828 1.27818 0
M  V30 2477 O 227.805 -0.906841 1.53749 0
M  V30 2478 C 224.905 -1.63636 2.96777 0
M  V30 2479 C 224.078 -1.19995 4.20618 0
M  V30 2480 C 223.137 -2.25509 4.75428 0
M  V30 2481 O 222.163 -1.86007 5.3795 0
M  V30 2482 N 223.365 -3.577 4.57199 0
M  V30 2483 H 226.13 0.174025 2.99194 0
M  V30 2484 H 223.691 0.238897 1.60128 0
M  V30 2485 H 225.683 -2.33793 3.30338 0
M  V30 2486 H 224.253 -2.16465 2.25526 0
M  V30 2487 H 223.473 -0.326421 3.92846 0
M  V30 2488 H 224.761 -0.885365 5.01038 0
M  V30 2489 H 224.159 -3.92543 4.07341 0
M  V30 2490 H 222.716 -4.23827 4.95191 0
M  V30 2491 N 226.149 -1.5696 0.141893 0
M  V30 2492 C 227.096 -2.16501 -0.799737 0
M  V30 2493 C 228.066 -1.09643 -1.24771 0
M  V30 2494 O 229.251 -1.3766 -1.32115 0
M  V30 2495 C 226.391 -2.78679 -2.03549 0
M  V30 2496 C 225.504 -3.99914 -1.6338 0
M  V30 2497 C 224.639 -4.50106 -2.82096 0
M  V30 2498 C 223.678 -5.63819 -2.38275 0
M  V30 2499 N 222.815 -6.08651 -3.49983 0
M  V30 2500 H 227.655 -2.96632 -0.285179 0
M  V30 2501 H 225.192 -1.46533 -0.129053 0
M  V30 2502 H 227.15 -3.1287 -2.75986 0
M  V30 2503 H 225.78 -2.012 -2.52425 0
M  V30 2504 H 224.832 -3.71735 -0.807279 0
M  V30 2505 H 226.144 -4.82311 -1.27192 0
M  V30 2506 H 225.298 -4.86325 -3.62729 0
M  V30 2507 H 224.037 -3.66706 -3.21525 0
M  V30 2508 H 223.042 -5.2718 -1.56081 0
M  V30 2509 H 224.267 -6.49 -1.99938 0
M  V30 2510 H 222.213 -5.28188 -3.89042 0
M  V30 2511 H 222.13 -6.85961 -3.17794 0
M  V30 2512 H 223.398 -6.49515 -4.30988 0
M  V30 2513 N 227.627 0.131896 -1.57047 0
M  V30 2514 C 228.875 0.840269 -1.83804 0
M  V30 2515 C 229.196 1.81017 -0.72512 0
M  V30 2516 O 228.466 1.94272 0.251995 0
M  V30 2517 H 227.046 0.313294 -0.678127 0
M  V30 2518 H 229.708 0.122294 -1.94516 0
M  V30 2519 H 228.804 1.39335 -2.79271 0
M  V30 2520 N 229.106 1.52395 0.401703 0
M  V30 2521 C 230.355 1.66044 1.14509 0
M  V30 2522 C 230.668 0.400216 1.91462 0
M  V30 2523 O 231.874 0.416632 2.68284 0
M  V30 2524 C 230.33 2.93388 2.0845 0
M  V30 2525 C 229.938 4.26545 1.36978 0
M  V30 2526 C 231.682 3.16402 2.83001 0
M  V30 2527 C 229.589 5.45007 2.29611 0
M  V30 2528 H 228.519 0.618562 0.431158 0
M  V30 2529 H 231.17 1.78886 0.40892 0
M  V30 2530 H 229.552 2.74263 2.8565 0
M  V30 2531 H 230.726 4.56179 0.650916 0
M  V30 2532 H 229.041 4.09692 0.74438 0
M  V30 2533 H 231.638 4.02085 3.52465 0
M  V30 2534 H 231.981 2.30943 3.46368 0
M  V30 2535 H 232.514 3.36034 2.12898 0
M  V30 2536 H 229.253 6.32835 1.70879 0
M  V30 2537 H 228.773 5.19702 2.9945 0
M  V30 2538 H 230.452 5.7838 2.89974 0
M  V30 2539 N 230.584 -0.659388 1.43143 0
M  V30 2540 C 231.812 -1.44723 1.47861 0
M  V30 2541 C 232.227 -1.88563 0.0945886 0
M  V30 2542 O 231.584 -1.59108 -0.893915 0
M  V30 2543 C 231.635 -2.68627 2.41913 0
M  V30 2544 O 231.356 -2.26623 3.74932 0
M  V30 2545 C 232.857 -3.62045 2.55809 0
M  V30 2546 H 230.077 -0.444801 0.502387 0
M  V30 2547 H 232.621 -0.808916 1.87821 0
M  V30 2548 H 230.776 -3.28613 2.05164 0
M  V30 2549 H 231.19 -3.06745 4.2545 0
M  V30 2550 H 232.664 -4.45666 3.25708 0
M  V30 2551 H 233.141 -4.08981 1.60099 0
M  V30 2552 H 233.747 -3.07944 2.93344 0
M  V30 2553 N 232.062 -1.29571 -0.897171 0
M  V30 2554 C 233.31 -1.17456 -1.64464 0
M  V30 2555 C 233.631 0.273698 -1.9307 0
M  V30 2556 O 232.901 1.18684 -1.55855 0
M  V30 2557 H 231.481 -0.431706 -0.609622 0
M  V30 2558 H 234.143 -1.62531 -1.07562 0
M  V30 2559 H 233.239 -1.72648 -2.59998 0
M  V30 2560 N 233.54 1.10788 -1.12088 0
M  V30 2561 C 234.487 2.17025 -0.785407 0
M  V30 2562 C 235.457 1.64265 0.246191 0
M  V30 2563 O 236.642 1.90412 0.121584 0
M  V30 2564 C 233.782 3.44249 -0.242177 0
M  V30 2565 C 232.895 4.1098 -1.33115 0
M  V30 2566 C 232.03 5.25911 -0.747741 0
M  V30 2567 C 231.069 5.84538 -1.81609 0
M  V30 2568 N 230.206 6.90853 -1.25167 0
M  V30 2569 H 235.046 2.45066 -1.69548 0
M  V30 2570 H 232.583 1.20297 -0.846582 0
M  V30 2571 H 234.541 4.17101 0.0908026 0
M  V30 2572 H 233.171 3.16571 0.631072 0
M  V30 2573 H 232.223 3.36133 -1.78097 0
M  V30 2574 H 233.535 4.50601 -2.13917 0
M  V30 2575 H 232.689 6.056 -0.365216 0
M  V30 2576 H 231.428 4.87614 0.0915188 0
M  V30 2577 H 230.433 5.03522 -2.20785 0
M  V30 2578 H 231.658 6.249 -2.6585 0
M  V30 2579 H 229.604 6.54562 -0.434174 0
M  V30 2580 H 229.521 7.29166 -1.99633 0
M  V30 2581 H 230.789 7.7433 -0.896259 0
M  V30 2582 N 235.018 0.912232 1.28515 0
M  V30 2583 C 236.266 0.543523 1.94654 0
M  V30 2584 C 236.587 -0.9155 1.72173 0
M  V30 2585 O 235.857 -1.64708 1.06058 0
M  V30 2586 H 234.437 0.198017 0.720277 0
M  V30 2587 H 237.099 1.16126 1.56527 0
M  V30 2588 H 236.195 0.736684 3.03281 0
M  V30 2589 N 236.496 -1.42363 0.676048 0
M  V30 2590 C 237.742 -2.0182 0.199125 0
M  V30 2591 C 238.075 -1.53339 -1.19168 0
M  V30 2592 O 237.35 -0.736124 -1.80032 0
M  V30 2593 C 237.633 -3.59331 0.235144 0
M  V30 2594 C 237.486 -4.17989 1.66149 0
M  V30 2595 C 238.805 -4.3813 -0.41595 0
M  V30 2596 H 235.924 -0.733293 0.0738311 0
M  V30 2597 H 238.566 -1.69368 0.86107 0
M  V30 2598 H 236.716 -3.87109 -0.328487 0
M  V30 2599 H 238.388 -4.0116 2.27747 0
M  V30 2600 H 236.631 -3.7377 2.20178 0
M  V30 2601 H 237.302 -5.27126 1.63837 0
M  V30 2602 H 239.778 -4.16051 0.0638529 0
M  V30 2603 H 238.654 -5.47717 -0.360115 0
M  V30 2604 H 238.915 -4.16101 -1.49373 0
M  V30 2605 N 237.974 -0.419461 -1.51915 0
M  V30 2606 C 239.22 0.153166 -2.02221 0
M  V30 2607 C 239.553 1.43907 -1.30401 0
M  V30 2608 O 238.828 1.90055 -0.413438 0
M  V30 2609 C 239.111 0.390291 -3.57979 0
M  V30 2610 C 238.964 -0.913014 -4.40436 0
M  V30 2611 C 240.283 1.16794 -4.2432 0
M  V30 2612 H 237.402 0.0541924 -0.735005 0
M  V30 2613 H 240.044 -0.554955 -1.81715 0
M  V30 2614 H 238.194 0.993491 -3.75582 0
M  V30 2615 H 239.866 -1.54882 -4.34522 0
M  V30 2616 H 238.109 -1.52168 -4.06236 0
M  V30 2617 H 238.78 -0.701361 -5.47526 0
M  V30 2618 H 241.256 0.657161 -4.10878 0
M  V30 2619 H 240.132 1.3026 -5.3322 0
M  V30 2620 H 240.393 2.19132 -3.83971 0
M  V30 2621 N 239.452 1.56882 -0.150215 0
M  V30 2622 C 240.701 1.95403 0.500071 0
M  V30 2623 C 241.014 1.03777 1.658 0
M  V30 2624 O 242.22 1.31889 2.37313 0
M  V30 2625 C 240.676 3.4738 0.941018 0
M  V30 2626 C 240.284 4.47596 -0.190158 0
M  V30 2627 C 242.028 3.9476 1.56091 0
M  V30 2628 C 239.935 5.90787 0.269237 0
M  V30 2629 H 238.865 0.729515 0.190588 0
M  V30 2630 H 241.516 1.81988 -0.235074 0
M  V30 2631 H 239.898 3.56138 1.73152 0
M  V30 2632 H 241.072 4.50536 -0.967157 0
M  V30 2633 H 239.387 4.10151 -0.718666 0
M  V30 2634 H 241.984 4.99181 1.9163 0
M  V30 2635 H 242.327 3.36494 2.45107 0
M  V30 2636 H 242.86 3.88932 0.835249 0
M  V30 2637 H 239.599 6.52879 -0.585621 0
M  V30 2638 H 239.119 5.912 1.01204 0
M  V30 2639 H 240.798 6.42979 0.720176 0
M  V30 2640 N 240.93 -0.123565 1.57115 0
M  V30 2641 C 242.158 -0.846461 1.88793 0
M  V30 2642 C 242.573 -1.73652 0.740976 0
M  V30 2643 O 241.93 -1.80207 -0.288393 0
M  V30 2644 C 241.981 -1.6837 3.19897 0
M  V30 2645 O 241.702 -0.829477 4.30176 0
M  V30 2646 C 243.203 -2.51214 3.65248 0
M  V30 2647 H 240.423 -0.243573 0.625231 0
M  V30 2648 H 242.967 -0.109324 2.04208 0
M  V30 2649 H 241.122 -2.37364 3.06165 0
M  V30 2650 H 241.536 -1.40651 5.0529 0
M  V30 2651 H 243.01 -3.05497 4.59756 0
M  V30 2652 H 243.487 -3.28359 2.9168 0
M  V30 2653 H 244.093 -1.8747 3.81752 0
M  V30 2654 N 242.408 -1.52605 -0.393616 0
M  V30 2655 C 243.654 -1.67672 -1.14079 0
M  V30 2656 C 243.987 -0.413121 -1.89755 0
M  V30 2657 O 243.262 0.588952 -1.85369 0
M  V30 2658 C 243.545 -2.9088 -2.12276 0
M  V30 2659 C 243.398 -4.27329 -1.40394 0
M  V30 2660 C 244.717 -3.09628 -3.12759 0
M  V30 2661 H 241.836 -0.610168 -0.413356 0
M  V30 2662 H 244.478 -1.85193 -0.424696 0
M  V30 2663 H 242.628 -2.76073 -2.73342 0
M  V30 2664 H 244.3 -4.53894 -0.82327 0
M  V30 2665 H 242.543 -4.2802 -0.705801 0
M  V30 2666 H 243.214 -5.09615 -2.12123 0
M  V30 2667 H 245.69 -3.23436 -2.61779 0
M  V30 2668 H 244.566 -3.97322 -3.78717 0
M  V30 2669 H 244.827 -2.23637 -3.81365 0
M  V30 2670 N 243.887 0.651787 -1.4349 0
M  V30 2671 C 244.817 1.77621 -1.51569 0
M  V30 2672 C 245.798 1.66022 -0.370253 0
M  V30 2673 O 246.983 1.85095 -0.587658 0
M  V30 2674 C 244.113 3.16056 -1.43966 0
M  V30 2675 C 243.067 3.4242 -2.56774 0
M  V30 2676 C 242.393 4.8067 -2.34223 0
M  V30 2677 C 243.693 3.37023 -3.99015 0
M  V30 2678 H 245.387 1.71117 -2.45681 0
M  V30 2679 H 242.933 0.821825 -1.18246 0
M  V30 2680 H 244.886 3.94472 -1.48221 0
M  V30 2681 H 243.61 3.23293 -0.463586 0
M  V30 2682 H 242.269 2.66375 -2.51873 0
M  V30 2683 H 241.917 4.84585 -1.34856 0
M  V30 2684 H 241.617 4.9927 -3.09844 0
M  V30 2685 H 243.141 5.61342 -2.40265 0
M  V30 2686 H 244.555 4.05374 -4.05395 0
M  V30 2687 H 242.952 3.67159 -4.74673 0
M  V30 2688 H 244.022 2.3518 -4.2405 0
M  V30 2689 N 245.365 1.30045 0.890287 0
M  V30 2690 C 246.642 1.09227 1.62262 0
M  V30 2691 C 247.022 -0.360305 2.08002 0
M  V30 2692 O 246.37 -1.35084 1.84295 0
M  V30 2693 C 246.58 2.08835 2.79623 0
M  V30 2694 C 247.928 2.40266 3.50082 0
M  V30 2695 O 248.952 2.07104 2.89804 0
M  V30 2696 O 247.811 2.96967 4.58773 0
M  V30 2697 H 244.905 0.419132 0.712922 0
M  V30 2698 H 247.451 1.41451 0.937529 0
M  V30 2699 H 246.223 3.06633 2.43089 0
M  V30 2700 H 245.846 1.77397 3.55832 0
M  V30 2701 N 246.843 -1.10192 1.12674 0
M  V30 2702 C 248.12 -1.78717 0.794965 0
M  V30 2703 C 248.5 -1.98628 -0.714853 0
M  V30 2704 O 247.848 -1.58135 -1.64941 0
M  V30 2705 C 248.058 -3.11546 1.5729 0
M  V30 2706 C 249.406 -3.86382 1.76052 0
M  V30 2707 O 250.43 -3.21274 1.53823 0
M  V30 2708 O 249.289 -5.03246 2.13087 0
M  V30 2709 H 246.383 -0.774702 0.289423 0
M  V30 2710 H 248.929 -1.16819 1.23091 0
M  V30 2711 H 247.701 -2.92489 2.59935 0
M  V30 2712 H 247.324 -3.81164 1.13137 0
M  V30 2713 N 248.321 -0.919034 -1.28029 0
M  V30 2714 C 249.569 -0.553838 -1.94363 0
M  V30 2715 C 249.89 0.906357 -1.72656 0
M  V30 2716 O 249.16 1.64143 -1.0693 0
M  V30 2717 H 247.74 -0.201834 -0.719216 0
M  V30 2718 H 250.402 -1.16954 -1.55909 0
M  V30 2719 H 249.498 -0.752758 -3.02886 0
M  V30 2720 N 249.799 1.42003 -0.683588 0
M  V30 2721 C 250.729 2.33487 -0.024866 0
M  V30 2722 C 251.71 1.51163 0.779975 0
M  V30 2723 O 252.895 1.79739 0.735362 0
M  V30 2724 C 250.025 3.3487 0.920836 0
M  V30 2725 C 248.979 4.27414 0.223958 0
M  V30 2726 C 248.305 5.19074 1.2832 0
M  V30 2727 C 249.605 5.14445 -0.90242 0
M  V30 2728 H 251.299 2.88819 -0.788921 0
M  V30 2729 H 248.845 1.38873 -0.38083 0
M  V30 2730 H 250.798 3.97787 1.39081 0
M  V30 2731 H 249.522 2.77861 1.71642 0
M  V30 2732 H 248.181 3.65904 -0.225864 0
M  V30 2733 H 247.829 4.58387 2.071 0
M  V30 2734 H 247.529 5.81822 0.821995 0
M  V30 2735 H 249.053 5.84867 1.75392 0
M  V30 2736 H 250.467 5.70998 -0.513272 0
M  V30 2737 H 248.864 5.86072 -1.28997 0
M  V30 2738 H 249.934 4.52322 -1.74737 0
M  V30 2739 N 251.277 0.427512 1.51691 0
M  V30 2740 C 252.187 -0.39527 2.31246 0
M  V30 2741 C 253.203 -1.03674 1.39742 0
M  V30 2742 O 254.379 -1.03425 1.72816 0
M  V30 2743 C 251.444 -1.48706 3.13189 0
M  V30 2744 C 250.505 -0.866743 4.20459 0
M  V30 2745 C 249.738 -1.90651 4.98486 0
M  V30 2746 O 249.961 -3.12733 4.77026 0
M  V30 2747 O 248.895 -1.5025 5.82845 0
M  V30 2748 H 252.721 0.253918 3.02637 0
M  V30 2749 H 250.306 0.190274 1.48183 0
M  V30 2750 H 252.188 -2.12047 3.64162 0
M  V30 2751 H 250.863 -2.12051 2.44573 0
M  V30 2752 H 249.77 -0.195544 3.73589 0
M  V30 2753 H 251.103 -0.276934 4.9142 0
M  V30 2754 N 252.755 -1.56801 0.158532 0
M  V30 2755 C 254.001 -1.97559 -0.483957 0
M  V30 2756 C 254.356 -1.04239 -1.61716 0
M  V30 2757 O 253.649 -0.079603 -1.91435 0
M  V30 2758 C 253.843 -3.4235 -1.02623 0
M  V30 2759 C 253.672 -4.49669 0.0528929 0
M  V30 2760 C 252.442 -5.02838 0.498234 0
M  V30 2761 C 254.64 -5.0725 0.848616 0
M  V30 2762 N 252.622 -5.93775 1.559 0
M  V30 2763 C 253.993 -5.94506 1.7596 0
M  V30 2764 C 256.048 -4.89788 0.895121 0
M  V30 2765 C 254.751 -6.66169 2.71314 0
M  V30 2766 C 256.777 -5.62161 1.83654 0
M  V30 2767 C 256.139 -6.49134 2.73503 0
M  V30 2768 H 252.238 -0.768332 -0.145566 0
M  V30 2769 H 254.822 -1.93012 0.255799 0
M  V30 2770 H 252.993 -3.47467 -1.73555 0
M  V30 2771 H 254.725 -3.70145 -1.63629 0
M  V30 2772 H 251.48 -4.73498 0.0983222 0
M  V30 2773 H 251.904 -6.43948 2.08949 0
M  V30 2774 H 256.546 -4.22255 0.21453 0
M  V30 2775 H 254.264 -7.32923 3.40367 0
M  V30 2776 H 257.85 -5.5064 1.87847 0
M  V30 2777 H 256.73 -7.04153 3.45163 0
M  V30 2778 N 254.233 0.115231 -1.57178 0
M  V30 2779 C 255.181 1.16014 -2.01602 0
M  V30 2780 C 256.175 1.42653 -0.913587 0
M  V30 2781 O 257.381 1.42571 -1.09879 0
M  V30 2782 H 253.756 0.391252 -0.642204 0
M  V30 2783 H 255.727 0.758998 -2.88586 0
M  V30 2784 C 254.476 2.47767 -2.4394 0
M  V30 2785 H 253.799 2.28108 -3.28339 0
M  V30 2786 H 255.239 3.19432 -2.78818 0
M  V30 2787 C 253.698 3.10617 -1.30455 0
M  V30 2788 O 254.228 3.96846 -0.622585 0
M  V30 2789 N 252.434 2.70553 -1.06064 0
M  V30 2790 H 251.981 2.00527 -1.61699 0
M  V30 2791 H 251.939 3.12934 -0.303284 0
M  V30 2792 N 255.711 1.52812 0.385517 0
M  V30 2793 C 256.661 1.74219 1.47078 0
M  V30 2794 C 257.645 0.59632 1.49442 0
M  V30 2795 O 258.837 0.85428 1.5502 0
M  V30 2796 C 255.966 1.9176 2.84751 0
M  V30 2797 C 255.052 3.12289 2.86943 0
M  V30 2798 N 255.443 4.34575 2.58802 0
M  V30 2799 C 253.741 3.12605 3.1811 0
M  V30 2800 C 254.442 5.162 2.68166 0
M  V30 2801 N 253.418 4.51964 3.02043 0
M  V30 2802 H 257.22 2.6639 1.24152 0
M  V30 2803 H 254.734 1.51166 0.593504 0
M  V30 2804 H 256.731 2.05218 3.62893 0
M  V30 2805 H 255.391 1.00805 3.08656 0
M  V30 2806 H 256.402 4.62649 2.32759 0
M  V30 2807 H 253.079 2.31472 3.47458 0
M  V30 2808 H 254.469 6.23689 2.49923 0
M  V30 2809 N 257.189 -0.644168 1.43834 0
M  V30 2810 C 258.417 -1.43147 1.49387 0
M  V30 2811 C 258.832 -1.88452 0.114583 0
M  V30 2812 O 258.189 -1.60047 -0.876989 0
M  V30 2813 C 258.24 -2.66046 2.44748 0
M  V30 2814 O 257.961 -2.22633 3.77314 0
M  V30 2815 C 259.462 -3.59311 2.59635 0
M  V30 2816 H 256.682 -0.439447 0.507077 0
M  V30 2817 H 259.226 -0.78895 1.88669 0
M  V30 2818 H 257.381 -3.26418 2.08638 0
M  V30 2819 H 257.795 -3.02216 4.28679 0
M  V30 2820 H 259.269 -4.42187 3.30416 0
M  V30 2821 H 259.746 -4.07259 1.64427 0
M  V30 2822 H 260.352 -3.04816 2.96593 0
M  V30 2823 N 258.668 -1.30515 -0.883378 0
M  V30 2824 C 259.945 -1.10086 -1.6168 0
M  V30 2825 C 260.325 0.349269 -2.08191 0
M  V30 2826 O 259.673 1.34105 -1.85008 0
M  V30 2827 C 259.883 -2.10315 -2.78511 0
M  V30 2828 C 261.231 -2.42119 -3.48803 0
M  V30 2829 O 262.255 -2.08638 -2.88702 0
M  V30 2830 O 261.114 -2.99396 -4.57192 0
M  V30 2831 H 258.208 -0.422907 -0.710689 0
M  V30 2832 H 260.754 -1.41947 -0.930015 0
M  V30 2833 H 259.526 -3.07917 -2.41459 0
M  V30 2834 H 259.149 -1.79282 -3.54886 0
M  V30 2835 N 260.146 1.09593 -1.13257 0
M  V30 2836 C 261.395 1.81105 -0.887917 0
M  V30 2837 C 261.708 1.86563 0.587672 0
M  V30 2838 O 262.914 2.54367 0.949204 0
M  V30 2839 C 261.37 3.25338 -1.53895 0
M  V30 2840 C 260.978 3.28151 -3.04994 0
M  V30 2841 C 262.722 4.01617 -1.37492 0
M  V30 2842 C 260.629 4.66897 -3.6299 0
M  V30 2843 H 259.559 0.678661 -0.328534 0
M  V30 2844 H 262.21 1.23183 -1.36008 0
M  V30 2845 H 260.592 3.8331 -0.994446 0
M  V30 2846 H 261.766 2.79953 -3.66009 0
M  V30 2847 H 260.081 2.65361 -3.20893 0
M  V30 2848 H 262.678 5.04119 -1.78235 0
M  V30 2849 H 263.021 4.15072 -0.31957 0
M  V30 2850 H 263.554 3.50082 -1.88912 0
M  V30 2851 H 260.293 4.58643 -4.68323 0
M  V30 2852 H 259.813 5.15426 -3.06752 0
M  V30 2853 H 261.492 5.3587 -3.62563 0
M  V30 2854 N 261.624 0.925811 1.2754 0
M  V30 2855 C 262.854 0.580666 1.98272 0
M  V30 2856 C 263.262 -0.845207 1.69272 0
M  V30 2857 O 262.605 -1.57306 0.948707 0
M  V30 2858 C 262.667 0.724418 3.52126 0
M  V30 2859 C 262.331 2.12206 4.04744 0
M  V30 2860 C 263.328 3.09604 4.17662 0
M  V30 2861 C 261.013 2.4385 4.39138 0
M  V30 2862 C 263.007 4.36755 4.64246 0
M  V30 2863 C 260.694 3.71237 4.85414 0
M  V30 2864 C 261.692 4.67503 4.97926 0
M  V30 2865 O 261.38 5.92624 5.43187 0
M  V30 2866 H 261.112 0.218987 0.639547 0
M  V30 2867 H 263.666 1.24452 1.63404 0
M  V30 2868 H 261.896 0.0034663 3.867 0
M  V30 2869 H 263.585 0.384607 4.04074 0
M  V30 2870 H 264.351 2.86478 3.91351 0
M  V30 2871 H 260.23 1.69665 4.28643 0
M  V30 2872 H 263.774 5.11898 4.73927 0
M  V30 2873 H 259.671 3.94182 5.11166 0
M  V30 2874 H 260.439 5.95585 5.61445 0
M  V30 2875 N 263.102 -1.41638 0.69111 0
M  V30 2876 C 264.065 -2.29178 0.0319786 0
M  V30 2877 C 265.065 -1.44153 -0.712496 0
M  V30 2878 O 266.255 -1.65354 -0.548053 0
M  V30 2879 C 263.387 -3.26952 -0.965161 0
M  V30 2880 H 264.58 -2.88959 0.802681 0
M  V30 2881 H 262.133 -1.4955 0.454356 0
M  V30 2882 H 262.868 -2.72142 -1.76378 0
M  V30 2883 H 262.653 -3.89685 -0.434522 0
M  V30 2884 H 264.143 -3.92561 -1.42428 0
M  V30 2885 N 264.58 -0.43555 -1.51462 0
M  V30 2886 C 265.528 0.391205 -2.29287 0
M  V30 2887 C 266.522 1.02247 -1.35062 0
M  V30 2888 O 267.728 0.957646 -1.52411 0
M  V30 2889 H 264.103 0.144968 -0.737895 0
M  V30 2890 H 266.074 -0.286051 -2.97026 0
M  V30 2891 C 264.823 1.48096 -3.14583 0
M  V30 2892 H 264.146 1.00457 -3.86973 0
M  V30 2893 H 265.586 2.03273 -3.72097 0
M  V30 2894 C 264.045 2.46321 -2.29843 0
M  V30 2895 O 264.575 3.50815 -1.95682 0
M  V30 2896 N 262.781 2.17166 -1.931 0
M  V30 2897 H 262.328 1.32218 -2.21079 0
M  V30 2898 H 262.286 2.83127 -1.36698 0
M  V30 2899 N 266.058 1.56714 -0.166846 0
M  V30 2900 C 267.288 2.00828 0.48494 0
M  V30 2901 C 267.696 1.04612 1.57648 0
M  V30 2902 O 267.039 0.0383201 1.8366 0
M  V30 2903 C 267.101 3.4137 1.12723 0
M  V30 2904 C 266.765 4.56654 0.177886 0
M  V30 2905 C 267.762 5.16402 -0.60207 0
M  V30 2906 C 265.447 5.02244 0.0750139 0
M  V30 2907 C 267.441 6.20167 -1.47215 0
M  V30 2908 C 265.128 6.05859 -0.798649 0
M  V30 2909 C 266.126 6.64691 -1.57082 0
M  V30 2910 O 265.814 7.66297 -2.42989 0
M  V30 2911 H 265.546 0.663587 0.128953 0
M  V30 2912 H 268.1 2.03692 -0.264365 0
M  V30 2913 H 266.33 3.35406 1.92457 0
M  V30 2914 H 268.019 3.69466 1.68076 0
M  V30 2915 H 268.785 4.82065 -0.53274 0
M  V30 2916 H 264.664 4.56167 0.665812 0
M  V30 2917 H 268.208 6.66016 -2.07531 0
M  V30 2918 H 264.105 6.39621 -0.869199 0
M  V30 2919 H 264.873 7.83601 -2.36455 0
M  V30 2920 N 267.536 -0.106894 1.57237 0
M  V30 2921 C 268.813 -0.843526 1.76477 0
M  V30 2922 C 269.193 -1.97499 0.745464 0
M  V30 2923 O 268.541 -2.27357 -0.228306 0
M  V30 2924 C 268.751 -1.34903 3.21873 0
M  V30 2925 C 270.099 -1.79654 3.8472 0
M  V30 2926 O 271.123 -1.44554 3.2555 0
M  V30 2927 O 269.982 -2.44515 4.88748 0
M  V30 2928 H 267.076 -0.401468 0.723016 0
M  V30 2929 H 269.622 -0.0896927 1.69463 0
M  V30 2930 H 268.394 -0.53781 3.87586 0
M  V30 2931 H 268.017 -2.16522 3.33473 0
M  V30 2932 N 269.014 -1.53014 -0.377408 0
M  V30 2933 C 270.425 -1.60438 -0.954798 0
M  V30 2934 C 270.776 -0.464418 -1.90624 0
M  V30 2935 O 269.901 0.41087 -2.12464 0
M  V30 2936 C 270.496 -2.90797 -1.73847 0
M  V30 2937 C 269.055 -3.00595 -2.26538 0
M  V30 2938 C 268.202 -2.55645 -1.07429 0
M  V30 2939 H 271.153 -1.57926 -0.156575 0
M  V30 2940 H 271.174 -2.77935 -2.5987 0
M  V30 2941 H 270.686 -3.73746 -1.04574 0
M  V30 2942 H 268.787 -2.22208 -2.99089 0
M  V30 2943 H 268.9 -4.05456 -2.5523 0
M  V30 2944 H 267.264 -2.10239 -1.43777 0
M  V30 2945 H 268.047 -3.41 -0.396728 0
M  V30 2946 N 270.492 0.636531 -1.44174 0
M  V30 2947 C 271.402 1.77754 -1.53103 0
M  V30 2948 C 272.418 1.68928 -0.417034 0
M  V30 2949 O 273.594 1.89801 -0.6736 0
M  V30 2950 C 270.659 3.14115 -1.46741 0
M  V30 2951 C 269.72 3.34612 -2.68948 0
M  V30 2952 C 268.953 4.64467 -2.6288 0
M  V30 2953 O 269.176 5.44919 -1.68581 0
M  V30 2954 O 268.11 4.87049 -3.53648 0
M  V30 2955 H 271.936 1.73174 -2.49489 0
M  V30 2956 H 269.521 0.79709 -1.2636 0
M  V30 2957 H 271.403 3.95412 -1.45696 0
M  V30 2958 H 270.078 3.19249 -0.534975 0
M  V30 2959 H 268.985 2.53014 -2.75562 0
M  V30 2960 H 270.318 3.34336 -3.61221 0
M  V30 2961 N 271.97 1.30982 0.876444 0
M  V30 2962 C 272.933 1.18054 1.96459 0
M  V30 2963 C 273.933 0.109399 1.60427 0
M  V30 2964 O 275.123 0.358173 1.70478 0
M  V30 2965 C 272.255 0.810616 3.31122 0
M  V30 2966 H 273.448 2.14735 2.09354 0
M  V30 2967 H 271.001 1.145 1.06392 0
M  V30 2968 H 271.736 -0.155322 3.23928 0
M  V30 2969 H 271.521 1.58481 3.58645 0
M  V30 2970 H 273.011 0.743876 4.10921 0
M  V30 2971 N 273.449 -1.08991 1.13837 0
M  V30 2972 C 274.674 -1.85551 0.926585 0
M  V30 2973 C 275.099 -1.80782 -0.519566 0
M  V30 2974 O 274.457 -1.18855 -1.36906 0
M  V30 2975 C 274.505 -3.31266 1.42462 0
M  V30 2976 O 273.609 -4.07822 0.612789 0
M  V30 2977 H 272.95 -0.575192 0.331738 0
M  V30 2978 H 275.48 -1.37604 1.51414 0
M  V30 2979 H 275.49 -3.82112 1.43019 0
M  V30 2980 H 274.165 -3.34052 2.47754 0
M  V30 2981 H 272.742 -3.66731 0.675463 0
M  V30 2982 N 274.927 -0.932562 -1.27047 0
M  V30 2983 C 276.157 -0.591173 -1.97961 0
M  V30 2984 C 276.565 0.836219 -1.69717 0
M  V30 2985 O 275.908 1.56801 -0.957036 0
M  V30 2986 C 275.97 -0.743082 -3.51736 0
M  V30 2987 C 275.634 -2.1435 -4.03613 0
M  V30 2988 C 276.631 -3.11815 -4.16014 0
M  V30 2989 C 274.316 -2.46175 -4.37839 0
M  V30 2990 C 276.31 -4.39211 -4.61923 0
M  V30 2991 C 273.997 -3.73806 -4.83438 0
M  V30 2992 C 274.995 -4.70137 -4.95439 0
M  V30 2993 O 274.683 -5.95496 -5.40037 0
M  V30 2994 H 274.415 -0.222375 -0.638377 0
M  V30 2995 H 276.969 -1.25317 -1.62742 0
M  V30 2996 H 275.199 -0.0239739 -3.86693 0
M  V30 2997 H 276.888 -0.40603 -4.03864 0
M  V30 2998 H 277.654 -2.88549 -3.89826 0
M  V30 2999 H 273.533 -1.71936 -4.27737 0
M  V30 3000 H 277.077 -5.14404 -4.71205 0
M  V30 3001 H 272.974 -3.96888 -5.09068 0
M  V30 3002 H 273.742 -5.98554 -5.58279 0
M  V30 3003 N 276.405 1.4127 -0.698611 0
M  V30 3004 C 277.682 1.94955 -0.158762 0
M  V30 3005 C 278.062 1.63781 1.33188 0
M  V30 3006 O 277.41 0.946423 2.07979 0
M  V30 3007 C 277.62 3.46044 -0.453309 0
M  V30 3008 C 278.968 4.22872 -0.382707 0
M  V30 3009 O 279.992 3.54076 -0.388396 0
M  V30 3010 O 278.851 5.45407 -0.345463 0
M  V30 3011 H 275.945 0.82683 -0.0167505 0
M  V30 3012 H 278.491 1.50971 -0.77498 0
M  V30 3013 H 277.263 3.62028 -1.48498 0
M  V30 3014 H 276.886 3.97128 0.19373 0
M  V30 3015 N 277.883 0.443576 1.51229 0
M  V30 3016 C 279.13 -0.120796 2.02139 0
M  V30 3017 C 279.458 -1.42166 1.32736 0
M  V30 3018 O 278.713 -1.90849 0.43301 0
M  V30 3019 C 279.012 -0.380579 3.55368 0
M  V30 3020 C 278.678 0.83523 4.43097 0
M  V30 3021 C 277.34 1.16864 4.66794 0
M  V30 3022 C 279.692 1.64601 4.94526 0
M  V30 3023 C 277.02 2.31339 5.39165 0
M  V30 3024 C 279.372 2.78181 5.68153 0
M  V30 3025 C 278.036 3.11969 5.90112 0
M  V30 3026 H 277.306 -0.0442023 0.73968 0
M  V30 3027 H 279.953 0.592046 1.82118 0
M  V30 3028 H 278.258 -1.17538 3.73754 0
M  V30 3029 H 279.955 -0.830777 3.923 0
M  V30 3030 H 276.545 0.565437 4.24854 0
M  V30 3031 H 280.729 1.40163 4.76097 0
M  V30 3032 H 275.985 2.57823 5.5438 0
M  V30 3033 H 280.159 3.41371 6.06992 0
M  V30 3034 H 277.786 4.00784 6.45969 0
M  V30 3035 N 279.361 -1.56624 0.175154 0
M  V30 3036 C 280.309 -2.19468 -0.770495 0
M  V30 3037 C 281.303 -1.15985 -1.23466 0
M  V30 3038 O 282.509 -1.34176 -1.19987 0
M  V30 3039 H 278.884 -0.703095 -0.266761 0
M  V30 3040 H 280.855 -2.97613 -0.216542 0
M  V30 3041 C 279.604 -2.85264 -1.98796 0
M  V30 3042 H 278.927 -3.64623 -1.63983 0
M  V30 3043 H 280.367 -3.327 -2.62843 0
M  V30 3044 C 278.826 -1.85239 -2.81404 0
M  V30 3045 O 279.356 -1.34024 -3.78682 0
M  V30 3046 N 277.562 -1.53911 -2.46495 0
M  V30 3047 H 277.109 -1.95751 -1.67449 0
M  V30 3048 H 277.067 -0.872382 -3.02054 0
M  V30 3049 N 280.839 0.0985539 -1.57292 0
M  V30 3050 C 282.116 0.834155 -1.76921 0
M  V30 3051 C 282.496 1.97101 -0.755928 0
M  V30 3052 O 281.844 2.27474 0.216245 0
M  V30 3053 C 282.054 1.33194 -3.22584 0
M  V30 3054 C 283.402 1.77611 -3.85668 0
M  V30 3055 O 284.426 1.42825 -3.26312 0
M  V30 3056 O 283.285 2.4192 -4.90038 0
M  V30 3057 H 280.379 0.397628 -0.725135 0
M  V30 3058 H 282.925 0.0807044 -1.69508 0
M  V30 3059 H 281.697 0.517248 -3.87866 0
M  V30 3060 H 281.32 2.1475 -3.34616 0
M  V30 3061 N 282.317 1.53212 0.369288 0
M  V30 3062 C 283.265 1.80054 1.47253 0
M  V30 3063 C 284.259 0.669456 1.55611 0
M  V30 3064 O 285.465 0.852328 1.58541 0
M  V30 3065 H 281.84 0.570034 0.490475 0
M  V30 3066 H 283.811 2.72403 1.21817 0
M  V30 3067 C 282.56 2.00403 2.84137 0
M  V30 3068 H 281.883 2.86876 2.78464 0
M  V30 3069 H 283.323 2.23164 3.60519 0
M  V30 3070 C 281.782 0.782081 3.27697 0
M  V30 3071 O 282.312 -0.0310205 4.01688 0
M  V30 3072 N 280.518 0.606573 2.84199 0
M  V30 3073 H 280.065 1.26939 2.24152 0
M  V30 3074 H 280.023 -0.20962 3.137 0
M  V30 3075 N 283.795 -0.628877 1.44509 0
M  V30 3076 C 285.072 -1.38733 1.37886 0
M  V30 3077 C 285.452 -2.11065 0.0387008 0
M  V30 3078 O 284.8 -2.06476 -0.97878 0
M  V30 3079 C 285.01 -2.35188 2.57852 0
M  V30 3080 C 286.358 -2.9845 3.02014 0
M  V30 3081 O 287.382 -2.45513 2.58073 0
M  V30 3082 O 286.241 -3.94487 3.78209 0
M  V30 3083 H 283.335 -0.621015 0.54614 0
M  V30 3084 H 285.881 -0.653744 1.56602 0
M  V30 3085 H 284.653 -1.80855 3.46998 0
M  V30 3086 H 284.276 -3.1596 2.4136 0
M  V30 3087 N 285.273 -1.31445 -0.869486 0
M  V30 3088 C 286.223 -1.15731 -1.96444 0
M  V30 3089 C 287.207 -0.0681855 -1.60755 0
M  V30 3090 O 288.399 -0.293154 -1.74555 0
M  V30 3091 C 285.528 -0.867255 -3.32165 0
M  V30 3092 C 284.614 -1.99738 -3.74119 0
M  V30 3093 N 285.005 -3.24447 -3.88031 0
M  V30 3094 C 283.303 -1.89723 -4.03635 0
M  V30 3095 C 284.004 -3.98374 -4.23879 0
M  V30 3096 N 282.98 -3.26547 -4.3459 0
M  V30 3097 H 286.782 -2.10296 -2.05312 0
M  V30 3098 H 284.296 -1.23009 -1.06031 0
M  V30 3099 H 286.293 -0.735668 -4.10358 0
M  V30 3100 H 284.953 0.0701614 -3.24624 0
M  V30 3101 H 285.964 -3.59557 -3.72746 0
M  V30 3102 H 282.641 -1.03449 -4.04481 0
M  V30 3103 H 284.031 -5.05844 -4.42235 0
M  V30 3104 N 286.751 1.08385 -1.14413 0
M  V30 3105 C 288.028 1.77429 -0.823297 0
M  V30 3106 C 288.408 1.9974 0.683163 0
M  V30 3107 O 287.756 1.60739 1.62405 0
M  V30 3108 C 287.966 3.09004 -1.62227 0
M  V30 3109 C 289.314 3.83532 -1.82177 0
M  V30 3110 O 290.338 3.18786 -1.58915 0
M  V30 3111 O 289.197 4.99792 -2.21067 0
M  V30 3112 H 286.291 0.769999 -0.301712 0
M  V30 3113 H 288.837 1.14846 -1.24934 0
M  V30 3114 H 287.609 2.88316 -2.64555 0
M  V30 3115 H 287.232 3.79316 -1.19187 0
M  V30 3116 N 288.23 0.939286 1.26551 0
M  V30 3117 C 289.641 0.628782 1.75793 0
M  V30 3118 C 289.992 -0.856046 1.7654 0
M  V30 3119 O 289.117 -1.66994 1.3763 0
M  V30 3120 C 289.712 1.13465 3.19235 0
M  V30 3121 C 288.271 0.874601 3.66098 0
M  V30 3122 C 287.418 1.28667 2.45642 0
M  V30 3123 H 290.369 1.1178 1.12654 0
M  V30 3124 H 290.39 0.487609 3.77363 0
M  V30 3125 H 289.902 2.21535 3.1866 0
M  V30 3126 H 288.003 -0.191793 3.72106 0
M  V30 3127 H 288.116 1.50028 4.55004 0
M  V30 3128 H 286.48 0.705109 2.44745 0
M  V30 3129 H 287.263 2.37625 2.47769 0
M  V30 3130 N 289.708 -1.40897 0.706093 0
M  V30 3131 C 290.955 -2.01054 0.241531 0
M  V30 3132 C 291.283 -1.55956 -1.16223 0
M  V30 3133 O 290.538 -0.766336 -1.80072 0
M  V30 3134 C 290.837 -3.5646 0.259099 0
M  V30 3135 C 290.503 -4.21106 1.61184 0
M  V30 3136 C 289.165 -4.38479 1.98216 0
M  V30 3137 C 291.517 -4.57256 2.50132 0
M  V30 3138 C 288.845 -4.89282 3.2376 0
M  V30 3139 C 291.197 -5.09454 3.7502 0
M  V30 3140 C 289.861 -5.25037 4.12181 0
M  V30 3141 H 289.131 -0.73571 0.0883825 0
M  V30 3142 H 291.778 -1.68645 0.907257 0
M  V30 3143 H 290.083 -3.88721 -0.490189 0
M  V30 3144 H 291.78 -4.00826 -0.11804 0
M  V30 3145 H 288.37 -4.07966 1.31384 0
M  V30 3146 H 292.554 -4.43479 2.228 0
M  V30 3147 H 287.81 -4.99531 3.52532 0
M  V30 3148 H 291.984 -5.36404 4.44121 0
M  V30 3149 H 289.611 -5.64164 5.09532 0
M  V30 3150 N 291.186 -0.45159 -1.50991 0
M  V30 3151 C 292.597 0.00818571 -1.86698 0
M  V30 3152 C 292.948 1.40661 -1.3678 0
M  V30 3153 O 292.073 2.0391 -0.724546 0
M  V30 3154 C 292.668 0.0216303 -3.38793 0
M  V30 3155 C 291.227 0.425865 -3.73983 0
M  V30 3156 C 290.374 -0.372163 -2.74791 0
M  V30 3157 H 293.325 -0.666785 -1.44013 0
M  V30 3158 H 293.346 0.828078 -3.7138 0
M  V30 3159 H 292.858 -0.996288 -3.75094 0
M  V30 3160 H 290.959 1.44886 -3.43277 0
M  V30 3161 H 291.072 0.140761 -4.78893 0
M  V30 3162 H 289.436 0.171498 -2.54122 0
M  V30 3163 H 290.219 -1.38922 -3.13935 0
M  V30 3164 N 292.664 1.56529 -0.183458 0
M  V30 3165 C 294.08 1.58664 0.172554 0
M  V30 3166 C 294.28 1.19925 1.61926 0
M  V30 3167 O 293.336 0.916534 2.35278 0
M  V30 3168 C 294.649 3.00463 -0.119262 0
M  V30 3169 C 296.197 3.12945 -0.0584396 0
M  V30 3170 C 296.672 4.56857 -0.323408 0
M  V30 3171 N 298.163 4.62403 -0.271612 0
M  V30 3172 C 298.898 5.71626 -0.450639 0
M  V30 3173 N 298.394 6.89362 -0.689384 0
M  V30 3174 N 300.187 5.60775 -0.385701 0
M  V30 3175 H 292.338 1.79994 -1.12765 0
M  V30 3176 H 294.601 0.834808 -0.449222 0
M  V30 3177 H 294.307 3.33326 -1.12192 0
M  V30 3178 H 294.181 3.72659 0.583544 0
M  V30 3179 H 296.568 2.79902 0.934805 0
M  V30 3180 H 296.649 2.4316 -0.794144 0
M  V30 3181 H 296.293 4.9061 -1.31392 0
M  V30 3182 H 296.223 5.24816 0.43305 0
M  V30 3183 H 298.714 3.77785 -0.0932256 0
M  V30 3184 H 299.027 7.68489 -0.815113 0
M  V30 3185 H 297.372 6.91196 -0.726142 0
M  V30 3186 H 300.563 4.67674 -0.199687 0
M  V30 3187 H 300.736 6.4584 -0.528646 0
M  V30 3188 N 294.142 -0.090211 1.57342 0
M  V30 3189 C 295.372 -0.805055 1.90269 0
M  V30 3190 C 295.78 -1.72561 0.775842 0
M  V30 3191 O 295.123 -1.81839 -0.260843 0
M  V30 3192 C 295.185 -1.66734 3.18497 0
M  V30 3193 C 294.849 -0.918092 4.47683 0
M  V30 3194 C 295.846 -0.245674 5.19319 0
M  V30 3195 C 293.531 -0.890724 4.94339 0
M  V30 3196 C 295.525 0.444088 6.35851 0
M  V30 3197 C 293.212 -0.197179 6.10782 0
M  V30 3198 C 294.21 0.469044 6.81388 0
M  V30 3199 O 293.898 1.15146 7.95611 0
M  V30 3200 H 293.63 -0.235143 0.633785 0
M  V30 3201 H 296.184 -0.0703805 2.05279 0
M  V30 3202 H 294.414 -2.44437 2.99646 0
M  V30 3203 H 296.103 -2.25919 3.37217 0
M  V30 3204 H 296.869 -0.258246 4.84312 0
M  V30 3205 H 292.748 -1.39873 4.39268 0
M  V30 3206 H 296.292 0.964667 6.90898 0
M  V30 3207 H 292.189 -0.18247 6.45242 0
M  V30 3208 H 292.957 1.05885 8.11622 0
M  V30 3209 N 295.62 -1.53406 -0.361157 0
M  V30 3210 C 296.897 -1.60411 -1.11927 0
M  V30 3211 C 297.277 -0.414385 -2.06993 0
M  V30 3212 O 296.625 0.594976 -2.20618 0
M  V30 3213 C 296.835 -2.95652 -1.85448 0
M  V30 3214 C 298.183 -3.50386 -2.39823 0
M  V30 3215 O 299.207 -2.97711 -1.95568 0
M  V30 3216 O 298.066 -4.42482 -3.20737 0
M  V30 3217 H 295.16 -0.64811 -0.513695 0
M  V30 3218 H 297.706 -1.65749 -0.364065 0
M  V30 3219 H 296.478 -3.73682 -1.16091 0
M  V30 3220 H 296.101 -2.93825 -2.67866 0
M  V30 3221 N 297.098 0.621204 -1.44841 0
M  V30 3222 C 298.509 1.20298 -1.42777 0
M  V30 3223 C 298.86 1.95639 -0.148259 0
M  V30 3224 O 297.985 2.02955 0.750892 0
M  V30 3225 C 298.58 2.1882 -2.58657 0
M  V30 3226 C 297.139 2.72403 -2.59756 0
M  V30 3227 C 296.286 1.4757 -2.34773 0
M  V30 3228 H 299.237 0.411297 -1.53278 0
M  V30 3229 H 299.258 3.01607 -2.31977 0
M  V30 3230 H 298.77 1.63957 -3.51766 0
M  V30 3231 H 296.871 3.31242 -1.70615 0
M  V30 3232 H 296.984 3.17765 -3.58556 0
M  V30 3233 H 295.348 1.76051 -1.8406 0
M  V30 3234 H 296.131 0.945954 -3.3001 0
M  V30 3235 N 298.576 1.31904 0.862503 0
M  V30 3236 C 299.804 1.24998 1.64873 0
M  V30 3237 C 300.219 -0.183425 1.87907 0
M  V30 3238 O 299.576 -1.11794 1.44251 0
M  V30 3239 C 299.627 1.99829 3.01248 0
M  V30 3240 O 299.348 3.37575 2.79239 0
M  V30 3241 C 300.849 1.99852 3.95694 0
M  V30 3242 H 298.069 0.431599 0.513773 0
M  V30 3243 H 300.613 1.73901 1.07604 0
M  V30 3244 H 298.768 1.54668 3.55185 0
M  V30 3245 H 299.182 3.75776 3.65914 0
M  V30 3246 H 300.656 2.56709 4.88676 0
M  V30 3247 H 301.133 0.982852 4.28062 0
M  V30 3248 H 301.739 2.44926 3.47694 0
M  V30 3249 N 300.054 -1.07777 1.14986 0
M  V30 3250 C 301.002 -2.16964 0.838406 0
M  V30 3251 C 301.996 -1.68372 -0.186386 0
M  V30 3252 O 303.202 -1.79951 -0.0418465 0
M  V30 3253 H 299.577 -0.708006 0.253439 0
M  V30 3254 H 301.548 -2.40454 1.76704 0
M  V30 3255 C 300.297 -3.4604 0.339335 0
M  V30 3256 H 299.62 -3.83813 1.11927 0
M  V30 3257 H 301.06 -4.23698 0.160021 0
M  V30 3258 C 299.519 -3.23569 -0.938325 0
M  V30 3259 O 300.049 -3.47752 -2.01077 0
M  V30 3260 N 298.255 -2.77079 -0.876117 0
M  V30 3261 H 297.802 -2.576 -0.00322037 0
M  V30 3262 H 297.76 -2.62422 -1.73153 0
M  V30 3263 N 301.532 -0.945985 -1.26051 0
M  V30 3264 C 302.442 -0.465633 -2.29933 0
M  V30 3265 C 303.458 0.462761 -1.67733 0
M  V30 3266 O 304.634 0.341118 -1.9849 0
M  V30 3267 C 301.699 0.256994 -3.45746 0
M  V30 3268 C 300.76 -0.708549 -4.23412 0
M  V30 3269 C 299.993 -0.0203135 -5.33696 0
M  V30 3270 O 300.216 1.19571 -5.57726 0
M  V30 3271 O 299.15 -0.701459 -5.97799 0
M  V30 3272 H 302.976 -1.32866 -2.73094 0
M  V30 3273 H 300.561 -0.712071 -1.31339 0
M  V30 3274 H 302.443 0.663852 -4.16138 0
M  V30 3275 H 301.118 1.09533 -3.04605 0
M  V30 3276 H 300.025 -1.16545 -3.55483 0
M  V30 3277 H 301.358 -1.51465 -4.68315 0
M  V30 3278 N 303.011 1.40521 -0.713556 0
M  V30 3279 C 303.959 2.32549 -0.0485227 0
M  V30 3280 C 304.953 1.51931 0.74922 0
M  V30 3281 O 306.159 1.67745 0.652816 0
M  V30 3282 H 302.534 0.751994 0.00311138 0
M  V30 3283 H 304.505 2.86291 -0.841443 0
M  V30 3284 C 303.254 3.36879 0.860687 0
M  V30 3285 H 302.577 3.98978 0.256246 0
M  V30 3286 H 304.017 4.03772 1.294 0
M  V30 3287 C 302.476 2.72197 1.9852 0
M  V30 3288 O 303.006 2.5837 3.07584 0
M  V30 3289 N 301.212 2.30612 1.76823 0
M  V30 3290 H 300.759 2.42059 0.881217 0
M  V30 3291 H 300.717 1.87672 2.52243 0
M  V30 3292 N 304.489 0.459591 1.5075 0
M  V30 3293 C 305.436 -0.340524 2.28274 0
M  V30 3294 C 306.406 -0.997371 1.32822 0
M  V30 3295 O 307.591 -1.01202 1.61749 0
M  V30 3296 C 304.731 -1.42317 3.14388 0
M  V30 3297 C 303.844 -0.782251 4.24859 0
M  V30 3298 C 302.979 -1.84182 4.98247 0
M  V30 3299 C 302.018 -1.18053 6.00608 0
M  V30 3300 N 301.155 -2.18244 6.67319 0
M  V30 3301 H 305.995 0.326899 2.96202 0
M  V30 3302 H 303.532 0.173057 1.46078 0
M  V30 3303 H 305.49 -2.06241 3.62658 0
M  V30 3304 H 304.12 -2.05992 2.4853 0
M  V30 3305 H 303.172 -0.0307404 3.80388 0
M  V30 3306 H 304.484 -0.259663 4.98124 0
M  V30 3307 H 303.638 -2.55714 5.50177 0
M  V30 3308 H 302.377 -2.39819 4.24662 0
M  V30 3309 H 301.382 -0.450776 5.47949 0
M  V30 3310 H 302.607 -0.631202 6.7616 0
M  V30 3311 H 300.553 -2.72919 5.96533 0
M  V30 3312 H 300.47 -1.70938 7.36421 0
M  V30 3313 H 301.738 -2.89191 7.23871 0
M  V30 3314 N 305.967 -1.56429 0.191757 0
M  V30 3315 C 306.917 -2.15548 -0.743184 0
M  V30 3316 C 307.901 -1.09531 -1.17863 0
M  V30 3317 O 309.093 -1.35602 -1.13759 0
M  V30 3318 C 306.222 -2.81577 -1.96391 0
M  V30 3319 C 305.308 -3.9478 -1.54951 0
M  V30 3320 N 305.699 -4.98677 -0.845876 0
M  V30 3321 C 303.997 -4.06319 -1.83905 0
M  V30 3322 C 304.698 -5.78183 -0.638724 0
M  V30 3323 N 303.674 -5.30495 -1.18643 0
M  V30 3324 H 307.476 -2.9324 -0.196839 0
M  V30 3325 H 304.99 -1.62398 -0.0081603 0
M  V30 3326 H 306.987 -3.22321 -2.64415 0
M  V30 3327 H 305.647 -2.05371 -2.51501 0
M  V30 3328 H 306.658 -5.15464 -0.501704 0
M  V30 3329 H 303.335 -3.41238 -2.40548 0
M  V30 3330 H 304.725 -6.71851 -0.0807929 0
M  V30 3331 N 307.445 0.0818655 -1.57387 0
M  V30 3332 C 308.693 0.781368 -1.86384 0
M  V30 3333 C 309.014 1.78618 -0.782342 0
M  V30 3334 O 308.284 1.94976 0.190061 0
M  V30 3335 H 306.864 0.291562 -0.687751 0
M  V30 3336 H 309.526 0.060348 -1.94807 0
M  V30 3337 H 308.622 1.3038 -2.83562 0
M  V30 3338 N 308.923 1.53595 0.353017 0
M  V30 3339 C 310.151 1.74311 1.1146 0
M  V30 3340 C 310.566 0.477854 1.82653 0
M  V30 3341 O 309.923 -0.549977 1.74016 0
M  V30 3342 C 309.974 2.91694 2.13534 0
M  V30 3343 O 309.695 4.13325 1.45238 0
M  V30 3344 C 311.196 3.24384 3.02142 0
M  V30 3345 H 308.416 0.582669 0.332773 0
M  V30 3346 H 310.96 2.00386 0.408107 0
M  V30 3347 H 309.115 2.67977 2.79763 0
M  V30 3348 H 309.529 4.79148 2.13349 0
M  V30 3349 H 311.003 4.09893 3.69718 0
M  V30 3350 H 311.48 2.40282 3.67643 0
M  V30 3351 H 312.086 3.50073 2.41514 0
M  V30 3352 N 310.401 -0.613514 1.45168 0
M  V30 3353 C 311.817 -0.933629 1.29443 0
M  V30 3354 C 312.017 -2.00028 0.243101 0
M  V30 3355 O 311.073 -2.49848 -0.364992 0
M  V30 3356 C 312.386 -1.38018 2.67155 0
M  V30 3357 C 313.934 -1.49471 2.75004 0
M  V30 3358 C 314.409 -1.97503 4.13227 0
M  V30 3359 N 315.9 -2.04746 4.15491 0
M  V30 3360 C 316.635 -2.43121 5.19307 0
M  V30 3361 N 316.131 -2.80506 6.33473 0
M  V30 3362 N 317.924 -2.43408 5.06664 0
M  V30 3363 H 310.075 0.0916097 2.12202 0
M  V30 3364 H 312.338 -0.0216655 0.947752 0
M  V30 3365 H 312.044 -0.670625 3.45247 0
M  V30 3366 H 311.918 -2.34784 2.95222 0
M  V30 3367 H 314.305 -2.19519 1.9722 0
M  V30 3368 H 314.386 -0.510342 2.50657 0
M  V30 3369 H 314.03 -1.28045 4.91495 0
M  V30 3370 H 313.96 -2.96843 4.34962 0
M  V30 3371 H 316.451 -1.78468 3.33103 0
M  V30 3372 H 316.764 -3.08652 7.08487 0
M  V30 3373 H 315.109 -2.78216 6.36884 0
M  V30 3374 H 318.3 -2.13604 4.16523 0
M  V30 3375 H 318.473 -2.72989 5.87691 0
M  V30 3376 N 311.879 -1.3236 -0.855495 0
M  V30 3377 C 313.119 -1.24187 -1.62348 0
M  V30 3378 C 313.483 0.193597 -1.91021 0
M  V30 3379 O 314.684 0.39904 -2.65822 0
M  V30 3380 C 312.955 -2.07661 -2.90881 0
M  V30 3381 S 314.514 -2.16505 -3.81669 0
M  V30 3382 H 311.332 -0.442076 -0.556857 0
M  V30 3383 H 313.934 -1.67198 -1.01317 0
M  V30 3384 H 312.638 -3.11018 -2.67761 0
M  V30 3385 H 312.169 -1.65425 -3.56929 0
M  V30 3386 H 314.184 -1.31394 -4.78487 0
M  V30 3387 N 313.357 1.07166 -1.15556 0
M  V30 3388 C 314.32 2.12589 -0.856644 0
M  V30 3389 C 315.32 1.6015 0.14444 0
M  V30 3390 O 316.51 1.7399 -0.0854163 0
M  V30 3391 C 313.642 3.39753 -0.279405 0
M  V30 3392 H 314.835 2.40539 -1.79112 0
M  V30 3393 H 312.388 1.23086 -0.963298 0
M  V30 3394 H 313.123 3.17447 0.663174 0
M  V30 3395 H 312.908 3.79117 -1.00063 0
M  V30 3396 H 314.398 4.17507 -0.0879113 0
M  V30 3397 N 314.835 0.952656 1.25548 0
M  V30 3398 C 316.083 0.605176 1.92826 0
M  V30 3399 C 316.404 -0.860261 1.74999 0
M  V30 3400 O 315.674 -1.6125 1.11244 0
M  V30 3401 H 314.254 0.220832 0.713612 0
M  V30 3402 H 316.916 1.21047 1.52754 0
M  V30 3403 H 316.012 0.832798 3.00784 0
M  V30 3404 N 316.313 -1.40141 0.720998 0
M  V30 3405 C 317.223 -2.34486 0.0731031 0
M  V30 3406 C 318.239 -1.57587 -0.737723 0
M  V30 3407 O 319.415 -1.89949 -0.669429 0
M  V30 3408 C 316.48 -3.36528 -0.833656 0
M  V30 3409 C 315.541 -4.29298 -0.0121673 0
M  V30 3410 C 314.774 -5.26466 -0.875742 0
M  V30 3411 O 314.997 -5.29745 -2.11485 0
M  V30 3412 O 313.931 -6.01092 -0.31185 0
M  V30 3413 H 317.757 -2.9152 0.851444 0
M  V30 3414 H 315.342 -1.41427 0.481527 0
M  V30 3415 H 317.224 -3.99093 -1.35289 0
M  V30 3416 H 315.899 -2.81899 -1.59105 0
M  V30 3417 H 314.806 -3.70001 0.552262 0
M  V30 3418 H 316.139 -4.87094 0.707129 0
M  V30 3419 N 317.792 -0.46758 -1.50504 0
M  V30 3420 C 319.041 0.0902868 -2.01498 0
M  V30 3421 C 319.354 1.411 -1.35463 0
M  V30 3422 O 320.56 2.0536 -1.77594 0
M  V30 3423 C 319.016 0.21142 -3.59278 0
M  V30 3424 C 318.624 -1.10065 -4.34269 0
M  V30 3425 C 320.368 0.721433 -4.18325 0
M  V30 3426 C 318.275 -0.943505 -5.83825 0
M  V30 3427 H 317.205 0.037517 -0.753066 0
M  V30 3428 H 319.856 -0.601943 -1.73346 0
M  V30 3429 H 318.238 0.967352 -3.84003 0
M  V30 3430 H 319.412 -1.86726 -4.21272 0
M  V30 3431 H 317.727 -1.5415 -3.86816 0
M  V30 3432 H 320.324 0.85598 -5.27804 0
M  V30 3433 H 320.667 1.71186 -3.79475 0
M  V30 3434 H 321.2 0.0229843 -3.97793 0
M  V30 3435 H 317.939 -1.90719 -6.27141 0
M  V30 3436 H 317.459 -0.217213 -5.99407 0
M  V30 3437 H 319.138 -0.608715 -6.4413 0
M  V30 3438 N 319.27 1.56325 -0.20005 0
M  V30 3439 C 320.233 2.18084 0.705132 0
M  V30 3440 C 321.233 1.13666 1.1374 0
M  V30 3441 O 322.423 1.39023 1.04968 0
M  V30 3442 C 319.555 2.78689 1.96329 0
M  V30 3443 H 320.748 2.99435 0.167023 0
M  V30 3444 H 318.301 1.56221 0.0495725 0
M  V30 3445 H 319.036 2.0115 2.5438 0
M  V30 3446 H 318.821 3.55133 1.66202 0
M  V30 3447 H 320.311 3.26096 2.60866 0
M  V30 3448 N 320.748 -0.0735177 1.57428 0
M  V30 3449 C 321.681 -1.11932 1.98863 0
M  V30 3450 C 322.659 -1.37666 0.865266 0
M  V30 3451 O 323.843 -1.51068 1.12742 0
M  V30 3452 C 320.97 -2.46403 2.32386 0
M  V30 3453 C 320.016 -2.36815 3.54713 0
M  V30 3454 S 320.849 -1.76392 5.05614 0
M  V30 3455 C 322.005 -3.12444 5.42337 0
M  V30 3456 H 322.238 -0.766212 2.87257 0
M  V30 3457 H 319.771 -0.281987 1.51803 0
M  V30 3458 H 321.729 -3.23755 2.52375 0
M  V30 3459 H 320.39 -2.78876 1.44524 0
M  V30 3460 H 319.583 -3.35977 3.7568 0
M  V30 3461 H 319.185 -1.67598 3.34345 0
M  V30 3462 H 321.477 -4.08753 5.40303 0
M  V30 3463 H 322.42 -2.96258 6.43146 0
M  V30 3464 H 322.828 -3.1297 4.69798 0
M  V30 3465 N 322.226 -1.5378 -0.344866 0
M  V30 3466 C 323.158 -1.77988 -1.44406 0
M  V30 3467 C 324.171 -0.661138 -1.48771 0
M  V30 3468 O 325.36 -0.937842 -1.51877 0
M  V30 3469 C 322.46 -1.86345 -2.8307 0
M  V30 3470 C 321.633 -3.16256 -3.0216 0
M  V30 3471 C 320.692 -3.15588 -4.21059 0
M  V30 3472 O 319.718 -3.89314 -4.15239 0
M  V30 3473 N 320.92 -2.37864 -5.29529 0
M  V30 3474 H 323.685 -2.72839 -1.24012 0
M  V30 3475 H 321.246 -1.52814 -0.534737 0
M  V30 3476 H 323.238 -1.83351 -3.60783 0
M  V30 3477 H 321.808 -0.986858 -2.96614 0
M  V30 3478 H 321.028 -3.32385 -2.11929 0
M  V30 3479 H 322.316 -4.0207 -3.11797 0
M  V30 3480 H 321.714 -1.77514 -5.37127 0
M  V30 3481 H 320.271 -2.40668 -6.05741 0
M  V30 3482 N 323.704 0.605807 -1.45491 0
M  V30 3483 C 324.667 1.69836 -1.5391 0
M  V30 3484 C 325.667 1.55261 -0.418424 0
M  V30 3485 O 326.857 1.60296 -0.681965 0
M  V30 3486 C 323.989 3.09117 -1.43734 0
M  V30 3487 H 325.182 1.63738 -2.51257 0
M  V30 3488 H 322.735 0.821689 -1.32959 0
M  V30 3489 H 323.47 3.20791 -0.475788 0
M  V30 3490 H 323.255 3.21104 -2.25021 0
M  V30 3491 H 324.745 3.88696 -1.52661 0
M  V30 3492 N 325.182 1.32811 0.848464 0
M  V30 3493 C 326.13 1.22231 1.97895 0
M  V30 3494 C 327.124 0.125749 1.68933 0
M  V30 3495 O 328.33 0.289083 1.77663 0
M  V30 3496 H 324.705 0.379058 0.649476 0
M  V30 3497 H 326.676 2.17828 2.03945 0
M  V30 3498 C 325.425 0.968572 3.33937 0
M  V30 3499 H 324.748 1.80458 3.56756 0
M  V30 3500 H 326.188 0.934808 4.13567 0
M  V30 3501 C 324.647 -0.328628 3.35293 0
M  V30 3502 O 325.177 -1.33848 3.78745 0
M  V30 3503 N 323.383 -0.352788 2.88451 0
M  V30 3504 H 322.93 0.469541 2.53285 0
M  V30 3505 H 322.888 -1.22057 2.89741 0
M  V30 3506 N 326.66 -1.06551 1.16123 0
M  V30 3507 C 327.608 -2.16063 0.861371 0
M  V30 3508 C 328.602 -1.6856 -0.168517 0
M  V30 3509 O 329.808 -1.79986 -0.0227579 0
M  V30 3510 H 326.183 -0.705278 0.260934 0
M  V30 3511 H 328.154 -2.38567 1.79244 0
M  V30 3512 C 326.903 -3.45661 0.376018 0
M  V30 3513 H 326.226 -3.82604 1.15992 0
M  V30 3514 H 327.666 -4.23504 0.204951 0
M  V30 3515 C 326.125 -3.24546 -0.903954 0
M  V30 3516 O 326.655 -3.49865 -1.97377 0
M  V30 3517 N 324.861 -2.77992 -0.846679 0
M  V30 3518 H 324.408 -2.57589 0.0241017 0
M  V30 3519 H 324.366 -2.64244 -1.70359 0
M  V30 3520 N 328.138 -0.959301 -1.25041 0
M  V30 3521 C 329.088 -0.453888 -2.23436 0
M  V30 3522 C 330.072 0.459461 -1.542 0
M  V30 3523 O 331.264 0.291752 -1.74579 0
M  V30 3524 C 328.393 0.262667 -3.42294 0
M  V30 3525 C 327.479 -0.669022 -4.1879 0
M  V30 3526 N 327.87 -1.80267 -4.72586 0
M  V30 3527 C 326.168 -0.47814 -4.4343 0
M  V30 3528 C 326.869 -2.38475 -5.3057 0
M  V30 3529 N 325.845 -1.67078 -5.17287 0
M  V30 3530 H 329.647 -1.319 -2.6264 0
M  V30 3531 H 327.161 -0.817358 -1.40332 0
M  V30 3532 H 329.158 0.641911 -4.11929 0
M  V30 3533 H 327.818 1.12432 -3.04613 0
M  V30 3534 H 328.829 -2.18442 -4.69578 0
M  V30 3535 H 325.506 0.340249 -4.16111 0
M  V30 3536 H 326.896 -3.34094 -5.8295 0
M  V30 3537 N 329.616 1.39756 -0.72842 0
M  V30 3538 C 330.563 2.30647 -0.0841519 0
M  V30 3539 C 331.533 1.48869 0.7367 0
M  V30 3540 O 332.718 1.77574 0.698015 0
M  V30 3541 C 329.858 3.35165 0.822091 0
M  V30 3542 C 328.971 4.31999 -0.0106663 0
M  V30 3543 C 328.106 5.23585 0.896241 0
M  V30 3544 C 327.145 6.12072 0.0583381 0
M  V30 3545 N 326.282 6.96035 0.920818 0
M  V30 3546 H 331.122 2.85173 -0.864891 0
M  V30 3547 H 328.659 1.40422 -0.438179 0
M  V30 3548 H 330.617 3.94345 1.36189 0
M  V30 3549 H 329.247 2.8211 1.56888 0
M  V30 3550 H 328.299 3.74492 -0.66781 0
M  V30 3551 H 329.611 4.9443 -0.658825 0
M  V30 3552 H 328.765 5.87759 1.50412 0
M  V30 3553 H 327.504 4.61459 1.57819 0
M  V30 3554 H 326.509 5.46916 -0.562389 0
M  V30 3555 H 327.734 6.76261 -0.6203 0
M  V30 3556 H 325.68 6.36485 1.58818 0
M  V30 3557 H 325.597 7.55284 0.32899 0
M  V30 3558 H 326.865 7.64646 1.51447 0
M  V30 3559 N 331.094 0.475555 1.50254 0
M  V30 3560 C 332.334 -0.0765802 2.04256 0
M  V30 3561 C 332.698 -1.36587 1.34937 0
M  V30 3562 O 333.899 -2.00066 1.79519 0
M  V30 3563 C 332.17 -0.251668 3.56513 0
M  V30 3564 S 333.729 -0.761716 4.32138 0
M  V30 3565 H 330.547 -0.0138456 0.710865 0
M  V30 3566 H 333.149 0.643714 1.84598 0
M  V30 3567 H 331.853 0.692404 4.04517 0
M  V30 3568 H 331.384 -0.997946 3.80532 0
M  V30 3569 H 333.399 -2.03451 4.52573 0
M  V30 3570 N 332.573 -1.56217 0.208337 0
M  V30 3571 C 333.821 -1.97558 -0.426076 0
M  V30 3572 C 334.142 -1.09683 -1.61229 0
M  V30 3573 O 333.412 -0.170956 -1.95153 0
M  V30 3574 H 331.992 -0.729575 -0.160405 0
M  V30 3575 H 334.654 -1.92606 0.298155 0
M  V30 3576 H 333.75 -3.02672 -0.761312 0
M  V30 3577 N 334.051 0.0651679 -1.57465 0
M  V30 3578 C 335.297 0.764193 -1.87851 0
M  V30 3579 C 335.63 1.76889 -0.801495 0
M  V30 3580 O 334.905 1.93594 0.187528 0
M  V30 3581 C 335.188 1.46625 -3.28897 0
M  V30 3582 C 335.041 0.477515 -4.47258 0
M  V30 3583 C 336.36 2.4095 -3.68281 0
M  V30 3584 H 333.479 0.276351 -0.683227 0
M  V30 3585 H 336.121 0.0272868 -1.8998 0
M  V30 3586 H 334.271 2.09438 -3.27212 0
M  V30 3587 H 335.943 -0.145922 -4.61069 0
M  V30 3588 H 334.186 -0.206576 -4.33308 0
M  V30 3589 H 334.857 1.0065 -5.42746 0
M  V30 3590 H 337.333 1.88209 -3.71102 0
M  V30 3591 H 336.209 2.87072 -4.67847 0
M  V30 3592 H 336.47 3.26049 -2.98571 0
M  V30 3593 N 335.529 1.53961 0.336706 0
M  V30 3594 C 336.777 1.71197 1.07405 0
M  V30 3595 C 337.098 0.481475 1.88962 0
M  V30 3596 O 336.368 -0.504585 1.8929 0
M  V30 3597 H 334.948 0.631185 0.399517 0
M  V30 3598 H 337.61 1.91232 0.376323 0
M  V30 3599 H 336.706 2.58587 1.74755 0
M  V30 3600 N 337.007 -0.598083 1.45811 0
M  V30 3601 C 338.253 -1.35882 1.50545 0
M  V30 3602 C 338.586 -1.93616 0.150445 0
M  V30 3603 O 337.861 -1.75604 -0.83628 0
M  V30 3604 C 338.144 -2.49966 2.59208 0
M  V30 3605 C 337.997 -1.97367 4.04186 0
M  V30 3606 C 339.316 -3.52068 2.64076 0
M  V30 3607 H 336.435 -0.492717 0.548087 0
M  V30 3608 H 339.077 -0.673319 1.77669 0
M  V30 3609 H 337.227 -3.08443 2.3621 0
M  V30 3610 H 338.899 -1.43466 4.38423 0
M  V30 3611 H 337.142 -1.283 4.14393 0
M  V30 3612 H 337.813 -2.79649 4.75921 0
M  V30 3613 H 340.289 -3.03448 2.84708 0
M  V30 3614 H 339.165 -4.2937 3.41954 0
M  V30 3615 H 339.426 -4.08304 1.69531 0
M  V30 3616 N 338.485 -1.33259 -0.841409 0
M  V30 3617 C 339.448 -1.23221 -1.9326 0
M  V30 3618 C 340.448 -0.151895 -1.60081 0
M  V30 3619 O 341.638 -0.403246 -1.69468 0
M  V30 3620 C 338.77 -0.898123 -3.28856 0
M  V30 3621 H 339.963 -2.2021 -2.03587 0
M  V30 3622 H 337.516 -1.17281 -1.03319 0
M  V30 3623 H 338.251 0.0693841 -3.24226 0
M  V30 3624 H 338.036 -1.67934 -3.54317 0
M  V30 3625 H 339.526 -0.852563 -4.08805 0
M  V30 3626 N 339.963 1.05934 -1.16686 0
M  V30 3627 C 341.193 1.82226 -0.973515 0
M  V30 3628 C 341.601 1.8297 0.481532 0
M  V30 3629 O 340.944 1.25009 1.34604 0
M  V30 3630 C 341.006 3.29897 -1.42858 0
M  V30 3631 C 340.67 3.52849 -2.90425 0
M  V30 3632 C 341.667 3.45595 -3.88407 0
M  V30 3633 C 339.352 3.80053 -3.28428 0
M  V30 3634 C 341.346 3.65217 -5.22394 0
M  V30 3635 C 339.033 3.99325 -4.62583 0
M  V30 3636 C 340.031 3.91905 -5.59374 0
M  V30 3637 O 339.719 4.10647 -6.91104 0
M  V30 3638 H 339.451 0.581314 -0.345036 0
M  V30 3639 H 342.005 1.3453 -1.55212 0
M  V30 3640 H 340.235 3.78472 -0.793477 0
M  V30 3641 H 341.924 3.87692 -1.20207 0
M  V30 3642 H 342.69 3.24564 -3.60393 0
M  V30 3643 H 338.569 3.84936 -2.53664 0
M  V30 3644 H 342.113 3.59341 -5.9793 0
M  V30 3645 H 338.01 4.19846 -4.90306 0
M  V30 3646 H 338.778 4.27915 -6.97733 0
M  V30 3647 N 341.441 0.965919 1.2453 0
M  V30 3648 C 342.389 0.486506 2.27455 0
M  V30 3649 C 343.383 -0.449041 1.6334 0
M  V30 3650 O 344.589 -0.324527 1.7705 0
M  V30 3651 H 340.964 0.138857 0.739069 0
M  V30 3652 H 342.935 1.3666 2.65267 0
M  V30 3653 C 341.684 -0.209481 3.47068 0
M  V30 3654 H 341.007 0.50129 3.96645 0
M  V30 3655 H 342.447 -0.508775 4.20936 0
M  V30 3656 C 340.906 -1.43586 3.0477 0
M  V30 3657 O 341.436 -2.53299 3.11773 0
M  V30 3658 N 339.642 -1.30126 2.59838 0
M  V30 3659 H 339.189 -0.408583 2.54339 0
M  V30 3660 H 339.147 -2.12294 2.31902 0
M  V30 3661 N 342.919 -1.39368 0.735821 0
M  V30 3662 C 344.144 -2.05319 0.293052 0
M  V30 3663 C 344.569 -1.55115 -1.064 0
M  V30 3664 O 343.927 -0.695261 -1.67439 0
M  V30 3665 C 343.975 -3.59305 0.305323 0
M  V30 3666 O 343.079 -4.06299 -0.706761 0
M  V30 3667 H 342.42 -0.650529 0.13307 0
M  V30 3668 H 344.95 -1.78386 1.00197 0
M  V30 3669 H 344.96 -4.07724 0.149997 0
M  V30 3670 H 343.635 -3.95207 1.29553 0
M  V30 3671 H 342.212 -3.69292 -0.517504 0
M  V30 3672 N 344.397 -0.483516 -1.5 0
M  V30 3673 C 345.344 0.304164 -2.28787 0
M  V30 3674 C 346.314 0.976114 -1.34392 0
M  V30 3675 O 347.499 0.986156 -1.63339 0
M  V30 3676 C 344.639 1.37298 -3.16612 0
M  V30 3677 C 343.752 0.714561 -4.26049 0
M  V30 3678 C 342.887 1.76232 -5.01114 0
M  V30 3679 C 341.926 1.08483 -6.0241 0
M  V30 3680 N 341.063 2.076 -6.70706 0
M  V30 3681 H 345.903 -0.373981 -2.95644 0
M  V30 3682 H 343.44 -0.196275 -1.45785 0
M  V30 3683 H 345.398 2.00445 -3.65893 0
M  V30 3684 H 344.028 2.02012 -2.51776 0
M  V30 3685 H 343.08 -0.0297798 -3.80388 0
M  V30 3686 H 344.392 0.180383 -4.98474 0
M  V30 3687 H 343.546 2.46929 -5.54176 0
M  V30 3688 H 342.285 2.33033 -4.28424 0
M  V30 3689 H 341.29 0.363545 -5.48597 0
M  V30 3690 H 342.515 0.523551 -6.77079 0
M  V30 3691 H 340.461 2.63394 -6.00799 0
M  V30 3692 H 340.378 1.59201 -7.39047 0
M  V30 3693 H 341.646 2.77639 -7.2838 0
M  V30 3694 N 345.875 1.56104 -0.216619 0
M  V30 3695 C 347.121 1.98466 0.417033 0
M  V30 3696 C 347.454 1.10403 1.59765 0
M  V30 3697 O 346.729 0.160632 1.93836 0
M  V30 3698 C 347.012 3.49769 0.85637 0
M  V30 3699 C 346.865 4.48606 -0.327546 0
M  V30 3700 C 348.184 4.05339 1.7143 0
M  V30 3701 H 345.303 0.721551 0.150112 0
M  V30 3702 H 347.945 1.87423 -0.311864 0
M  V30 3703 H 346.095 3.5931 1.47745 0
M  V30 3704 H 347.767 4.5108 -0.965618 0
M  V30 3705 H 346.01 4.22682 -0.975805 0
M  V30 3706 H 346.681 5.51995 0.0227149 0
M  V30 3707 H 349.157 3.98712 1.19031 0
M  V30 3708 H 348.033 5.11533 1.99061 0
M  V30 3709 H 348.294 3.51918 2.67593 0
M  V30 3710 N 347.353 -0.0568162 1.57498 0
M  V30 3711 C 348.601 -0.751617 1.87604 0
M  V30 3712 C 348.922 -1.77351 0.81066 0
M  V30 3713 O 348.192 -1.95254 -0.159018 0
M  V30 3714 H 346.772 -0.280583 0.692302 0
M  V30 3715 H 349.434 -0.0293483 1.94878 0
M  V30 3716 H 348.53 -1.25852 2.856 0
M  V30 3717 N 348.832 -1.54138 -0.328536 0
M  V30 3718 C 350.08 -1.71765 -1.06496 0
M  V30 3719 C 350.401 -0.49149 -1.88704 0
M  V30 3720 O 349.671 0.494539 -1.89555 0
M  V30 3721 H 348.251 -0.633295 -0.396164 0
M  V30 3722 H 350.913 -1.91429 -0.366176 0
M  V30 3723 H 350.009 -2.5951 -1.73381 0
M  V30 3724 N 350.31 0.590341 -1.46126 0
M  V30 3725 C 351.559 1.34499 -1.50309 0
M  V30 3726 C 351.872 1.94977 -0.156021 0
M  V30 3727 O 353.078 2.71395 -0.0756037 0
M  V30 3728 C 351.534 2.43723 -2.64815 0
M  V30 3729 C 351.142 1.89582 -4.0591 0
M  V30 3730 C 352.886 3.20579 -2.78262 0
M  V30 3731 C 350.793 2.9639 -5.11769 0
M  V30 3732 H 349.723 0.505593 -0.559368 0
M  V30 3733 H 352.374 0.630848 -1.72315 0
M  V30 3734 H 350.756 3.17902 -2.36124 0
M  V30 3735 H 351.93 1.21997 -4.44357 0
M  V30 3736 H 350.245 1.25418 -3.97063 0
M  V30 3737 H 352.842 4.00276 -3.54519 0
M  V30 3738 H 353.185 3.72684 -1.85505 0
M  V30 3739 H 353.718 2.53505 -3.06562 0
M  V30 3740 H 350.457 2.49181 -6.06291 0
M  V30 3741 H 349.977 3.62487 -4.77873 0
M  V30 3742 H 351.656 3.60474 -5.37278 0
M  V30 3743 N 351.788 1.33704 0.83433 0
M  V30 3744 C 353.204 1.13137 1.12571 0
M  V30 3745 C 353.404 -0.0747261 2.01361 0
M  V30 3746 O 352.46 -0.753647 2.4099 0
M  V30 3747 C 353.773 2.42105 1.78342 0
M  V30 3748 C 355.321 2.48054 1.90888 0
M  V30 3749 C 355.796 3.76995 2.60075 0
M  V30 3750 N 357.287 3.78092 2.67584 0
M  V30 3751 C 358.022 4.74574 3.21818 0
M  V30 3752 N 357.518 5.81434 3.76705 0
M  V30 3753 N 359.311 4.62044 3.20112 0
M  V30 3754 H 351.462 2.11 0.243489 0
M  V30 3755 H 353.725 0.932532 0.17055 0
M  V30 3756 H 353.431 3.30391 1.20561 0
M  V30 3757 H 353.305 2.54594 2.7832 0
M  V30 3758 H 355.692 1.60215 2.47821 0
M  V30 3759 H 355.773 2.39502 0.898459 0
M  V30 3760 H 355.417 4.65219 2.03799 0
M  V30 3761 H 355.347 3.82825 3.61597 0
M  V30 3762 H 357.838 3.00865 2.28667 0
M  V30 3763 H 358.151 6.51084 4.16305 0
M  V30 3764 H 356.496 5.85163 3.7498 0
M  V30 3765 H 359.687 3.77716 2.76493 0
M  V30 3766 H 359.86 5.37406 3.62076 0
M  V30 3767 N 353.266 -1.05314 1.17247 0
M  V30 3768 C 354.199 -2.12512 0.831507 0
M  V30 3769 C 355.177 -1.61351 -0.201168 0
M  V30 3770 O 356.361 -1.88317 -0.0829831 0
M  V30 3771 C 353.488 -3.37848 0.24015 0
M  V30 3772 C 352.534 -4.07832 1.24801 0
M  V30 3773 S 353.367 -4.56537 2.79882 0
M  V30 3774 C 354.523 -5.85122 2.22223 0
M  V30 3775 H 354.756 -2.41106 1.7394 0
M  V30 3776 H 352.289 -1.17896 0.996988 0
M  V30 3777 H 354.247 -4.10391 -0.0945588 0
M  V30 3778 H 352.908 -3.07392 -0.645668 0
M  V30 3779 H 352.101 -4.97883 0.78287 0
M  V30 3780 H 351.703 -3.41348 1.52831 0
M  V30 3781 H 353.995 -6.58408 1.59703 0
M  V30 3782 H 354.938 -6.36381 3.10523 0
M  V30 3783 H 355.346 -5.39626 1.65722 0
M  V30 3784 N 354.744 -0.972509 -1.24016 0
M  V30 3785 C 355.674 -0.525548 -2.27509 0
M  V30 3786 C 356.655 0.437262 -1.64384 0
M  V30 3787 O 357.84 0.332343 -1.91335 0
M  V30 3788 C 354.97 0.180448 -3.46831 0
M  V30 3789 C 353.924 -0.698859 -4.22256 0
M  V30 3790 C 353.25 0.138903 -5.3452 0
M  V30 3791 C 354.55 -1.98582 -4.83076 0
M  V30 3792 H 356.244 -1.39058 -2.65148 0
M  V30 3793 H 353.79 -0.67009 -1.27459 0
M  V30 3794 H 355.743 0.504387 -4.18371 0
M  V30 3795 H 354.467 1.07987 -3.08231 0
M  V30 3796 H 353.126 -1.00614 -3.52523 0
M  V30 3797 H 352.774 1.03862 -4.9216 0
M  V30 3798 H 352.474 -0.446259 -5.85903 0
M  V30 3799 H 353.998 0.457404 -6.08884 0
M  V30 3800 H 355.412 -1.72715 -5.46665 0
M  V30 3801 H 353.809 -2.5181 -5.44713 0
M  V30 3802 H 354.879 -2.67769 -4.04262 0
M  V30 3803 N 356.222 1.38976 -0.743202 0
M  V30 3804 C 357.499 1.94351 -0.220705 0
M  V30 3805 C 357.879 1.67935 1.2791 0
M  V30 3806 O 357.227 1.01211 2.04862 0
M  V30 3807 C 357.437 3.44426 -0.563171 0
M  V30 3808 C 358.785 4.2144 -0.517046 0
M  V30 3809 O 359.809 3.52661 -0.500846 0
M  V30 3810 O 358.668 5.44032 -0.518806 0
M  V30 3811 H 355.762 0.825879 -0.043047 0
M  V30 3812 H 358.308 1.48429 -0.822618 0
M  V30 3813 H 357.08 3.5712 -1.59941 0
M  V30 3814 H 356.703 3.97543 0.0672883 0
M  V30 3815 N 357.7 0.491464 1.49741 0
M  V30 3816 C 358.948 -0.0563141 2.02022 0
M  V30 3817 C 359.269 -1.38363 1.37407 0
M  V30 3818 O 358.539 -1.88702 0.526166 0
M  V30 3819 H 357.119 -0.0238014 0.746621 0
M  V30 3820 H 359.781 0.646533 1.83864 0
M  V30 3821 H 358.877 -0.192967 3.11503 0
M  V30 3822 N 359.178 -1.55987 0.224894 0
M  V30 3823 C 360.427 -1.97566 -0.406273 0
M  V30 3824 C 360.74 -1.11569 -1.6066 0
M  V30 3825 O 361.946 -1.43062 -2.3075 0
M  V30 3826 C 360.402 -3.51474 -0.774207 0
M  V30 3827 C 360.01 -4.46179 0.403496 0
M  V30 3828 C 361.754 -4.01758 -1.37079 0
M  V30 3829 C 359.661 -5.91399 0.0129412 0
M  V30 3830 H 358.591 -0.737777 -0.155565 0
M  V30 3831 H 361.242 -1.80659 0.321635 0
M  V30 3832 H 359.624 -3.63994 -1.55963 0
M  V30 3833 H 360.798 -4.45409 1.18101 0
M  V30 3834 H 359.113 -4.06255 0.913536 0
M  V30 3835 H 361.71 -5.07756 -1.67596 0
M  V30 3836 H 362.053 -3.47805 -2.28773 0
M  V30 3837 H 362.586 -3.92475 -0.648733 0
M  V30 3838 H 359.325 -6.49341 0.896451 0
M  V30 3839 H 358.845 -5.95356 -0.728821 0
M  V30 3840 H 360.524 -6.45683 -0.412582 0
M  V30 3841 N 360.656 0.0484629 -1.57525 0
M  V30 3842 C 361.902 0.744226 -1.88651 0
M  V30 3843 C 362.235 1.76029 -0.820212 0
M  V30 3844 O 361.51 1.93782 0.166985 0
M  V30 3845 C 361.793 1.43128 -3.30434 0
M  V30 3846 C 361.646 0.43005 -4.47739 0
M  V30 3847 C 362.965 2.37031 -3.70816 0
M  V30 3848 H 360.084 0.269089 -0.68612 0
M  V30 3849 H 362.726 0.00713532 -1.89999 0
M  V30 3850 H 360.876 2.05956 -3.29415 0
M  V30 3851 H 362.548 -0.194816 -4.60888 0
M  V30 3852 H 360.791 -0.252522 -4.33064 0
M  V30 3853 H 361.462 0.948874 -5.43783 0
M  V30 3854 H 363.938 1.84263 -3.73077 0
M  V30 3855 H 362.814 2.82094 -4.70865 0
M  V30 3856 H 363.075 3.22864 -3.02012 0
M  V30 3857 N 362.134 1.5431 0.320358 0
M  V30 3858 C 363.362 1.76636 1.07738 0
M  V30 3859 C 363.777 0.51649 1.81598 0
M  V30 3860 O 363.134 -0.512942 1.75143 0
M  V30 3861 C 363.185 2.96158 2.07299 0
M  V30 3862 O 362.906 4.16313 1.36438 0
M  V30 3863 C 364.407 3.3072 2.95193 0
M  V30 3864 H 361.627 0.589597 0.320339 0
M  V30 3865 H 364.171 2.01207 0.36551 0
M  V30 3866 H 362.326 2.73851 2.74016 0
M  V30 3867 H 362.74 4.83565 2.03138 0
M  V30 3868 H 364.214 4.17643 3.60941 0
M  V30 3869 H 364.691 2.48026 3.62463 0
M  V30 3870 H 365.297 3.55117 2.34034 0
M  V30 3871 N 363.613 -0.582584 1.46437 0
M  V30 3872 C 364.89 -1.34276 1.4223 0
M  V30 3873 C 365.27 -2.10835 0.10583 0
M  V30 3874 O 364.618 -2.09485 -0.912596 0
M  V30 3875 C 364.828 -2.26865 2.65204 0
M  V30 3876 C 366.176 -2.88691 3.11356 0
M  V30 3877 O 367.2 -2.37178 2.65753 0
M  V30 3878 O 366.059 -3.82255 3.90568 0
M  V30 3879 H 363.153 -0.603326 0.565621 0
M  V30 3880 H 365.699 -0.603591 1.58603 0
M  V30 3881 H 364.471 -1.69724 3.52576 0
M  V30 3882 H 364.094 -3.08122 2.5129 0
M  V30 3883 N 365.091 -1.34144 -0.827227 0
M  V30 3884 C 366.054 -1.25264 -1.91942 0
M  V30 3885 C 367.054 -0.168866 -1.59911 0
M  V30 3886 O 368.244 -0.421198 -1.69031 0
M  V30 3887 C 365.376 -0.932952 -3.27885 0
M  V30 3888 H 366.569 -2.22357 -2.0124 0
M  V30 3889 H 364.122 -1.1837 -1.0207 0
M  V30 3890 H 364.857 0.0349917 -3.24281 0
M  V30 3891 H 364.642 -1.71682 -3.52516 0
M  V30 3892 H 366.132 -0.895874 -4.07877 0
M  V30 3893 N 366.569 1.04691 -1.17803 0
M  V30 3894 C 367.818 1.77176 -0.963931 0
M  V30 3895 C 368.131 1.88888 0.508015 0
M  V30 3896 O 369.337 2.58164 0.840465 0
M  V30 3897 C 367.793 3.18518 -1.67555 0
M  V30 3898 C 367.401 3.14919 -3.18637 0
M  V30 3899 C 369.145 3.95424 -1.54402 0
M  V30 3900 C 367.052 4.51081 -3.82466 0
M  V30 3901 H 365.982 0.664116 -0.357023 0
M  V30 3902 H 368.633 1.17303 -1.4111 0
M  V30 3903 H 367.015 3.78748 -1.15613 0
M  V30 3904 H 368.189 2.64178 -3.77554 0
M  V30 3905 H 366.504 2.51512 -3.31859 0
M  V30 3906 H 369.101 4.96106 -1.99456 0
M  V30 3907 H 369.444 4.13343 -0.495329 0
M  V30 3908 H 369.977 3.41754 -2.0359 0
M  V30 3909 H 366.716 4.38368 -4.87354 0
M  V30 3910 H 366.236 5.01951 -3.28337 0
M  V30 3911 H 367.915 5.2001 -3.84965 0
M  V30 3912 N 368.047 0.979072 1.23499 0
M  V30 3913 C 368.957 0.526431 2.28617 0
M  V30 3914 C 369.973 -0.418126 1.68901 0
M  V30 3915 O 371.149 -0.288372 1.99325 0
M  V30 3916 C 368.214 -0.165235 3.46306 0
M  V30 3917 C 367.275 0.82056 4.21385 0
M  V30 3918 C 366.508 0.161807 5.33455 0
M  V30 3919 O 366.731 -1.04742 5.60701 0
M  V30 3920 O 365.665 0.859708 5.95729 0
M  V30 3921 H 369.491 1.4006 2.69475 0
M  V30 3922 H 367.076 0.746643 1.29405 0
M  V30 3923 H 368.958 -0.553287 4.17752 0
M  V30 3924 H 367.633 -1.01419 3.07402 0
M  V30 3925 H 366.54 1.25929 3.52268 0
M  V30 3926 H 367.873 1.63828 4.64135 0
M  V30 3927 N 369.525 -1.3858 0.750561 0
M  V30 3928 C 370.488 -2.28836 0.129152 0
M  V30 3929 C 371.488 -1.47045 -0.650714 0
M  V30 3930 O 372.678 -1.6753 -0.477428 0
M  V30 3931 C 369.81 -3.30751 -0.825622 0
M  V30 3932 H 371.003 -2.85294 0.924516 0
M  V30 3933 H 368.556 -1.47489 0.517376 0
M  V30 3934 H 369.291 -2.79378 -1.64677 0
M  V30 3935 H 369.076 -3.91177 -0.268852 0
M  V30 3936 H 370.566 -3.98249 -1.2565 0
M  V30 3937 N 371.003 -0.499398 -1.49478 0
M  V30 3938 C 372.228 0.044722 -2.07352 0
M  V30 3939 C 372.653 1.30207 -1.35749 0
M  V30 3940 O 372.011 1.76516 -0.413732 0
M  V30 3941 C 372.059 0.283013 -3.59488 0
M  V30 3942 O 371.163 1.35804 -3.89398 0
M  V30 3943 H 370.504 -0.0255147 -0.66351 0
M  V30 3944 H 373.034 -0.698561 -1.92305 0
M  V30 3945 H 373.044 0.515007 -4.04737 0
M  V30 3946 H 371.719 -0.635636 -4.11014 0
M  V30 3947 H 370.296 1.11113 -3.55961 0
M  V30 3948 N 372.481 1.55866 -0.233164 0
M  V30 3949 C 373.706 2.03449 0.402906 0
M  V30 3950 C 374.131 1.11166 1.51736 0
M  V30 3951 O 373.489 0.101996 1.81013 0
M  V30 3952 C 373.537 3.49165 0.9009 0
M  V30 3953 O 372.641 3.60019 2.01147 0
M  V30 3954 H 371.982 0.657913 0.0897025 0
M  V30 3955 H 374.512 2.01493 -0.355201 0
M  V30 3956 H 374.522 3.89716 1.2077 0
M  V30 3957 H 373.197 4.15813 0.0852889 0
M  V30 3958 H 371.774 3.3136 1.71042 0
M  V30 3959 N 373.959 -0.0401083 1.57549 0
M  V30 3960 C 375.208 -0.732108 1.87944 0
M  V30 3961 C 375.521 -1.77107 0.830206 0
M  V30 3962 O 376.727 -2.51488 1.02302 0
M  V30 3963 C 375.183 -1.35315 3.33494 0
M  V30 3964 C 374.791 -0.351105 4.46622 0
M  V30 3965 C 376.535 -2.02566 3.73051 0
M  V30 3966 C 374.442 -0.979859 5.83226 0
M  V30 3967 H 373.372 -0.277188 0.701201 0
M  V30 3968 H 376.023 0.0138501 1.83495 0
M  V30 3969 H 374.405 -2.14844 3.32653 0
M  V30 3970 H 375.579 0.416674 4.58912 0
M  V30 3971 H 373.894 0.218708 4.15825 0
M  V30 3972 H 376.491 -2.50441 4.72423 0
M  V30 3973 H 376.834 -2.83904 3.04474 0
M  V30 3974 H 377.367 -1.29827 3.76018 0
M  V30 3975 H 374.106 -0.206135 6.55176 0
M  V30 3976 H 373.626 -1.71774 5.74677 0
M  V30 3977 H 375.305 -1.49046 6.29599 0
M  V30 3978 N 375.437 -1.54477 -0.31217 0
M  V30 3979 C 376.685 -1.72884 -1.04668 0
M  V30 3980 C 377.006 -0.511477 -1.88173 0
M  V30 3981 O 376.276 0.474407 -1.90069 0
M  V30 3982 H 374.856 -0.637461 -0.389425 0
M  V30 3983 H 377.518 -1.91807 -0.345852 0
M  V30 3984 H 376.614 -2.61334 -1.70619 0
M  V30 3985 N 376.915 0.57481 -1.46744 0
M  V30 3986 C 378.162 1.33272 -1.52462 0
M  V30 3987 C 378.49 1.93669 -0.179572 0
M  V30 3988 O 377.745 1.7743 0.825664 0
M  V30 3989 C 378.044 2.476 -2.57738 0
M  V30 3990 C 377.71 2.05146 -4.01529 0
M  V30 3991 C 376.372 1.93284 -4.40676 0
M  V30 3992 C 378.724 1.72506 -4.91824 0
M  V30 3993 C 376.052 1.47049 -5.67973 0
M  V30 3994 C 378.404 1.27748 -6.19567 0
M  V30 3995 C 377.068 1.14468 -6.57612 0
M  V30 3996 H 376.338 0.487678 -0.557899 0
M  V30 3997 H 378.985 0.646456 -1.80259 0
M  V30 3998 H 377.29 3.21708 -2.23632 0
M  V30 3999 H 378.987 3.05807 -2.5939 0
M  V30 4000 H 375.577 2.15316 -3.7059 0
M  V30 4001 H 379.761 1.80552 -4.62293 0
M  V30 4002 H 375.017 1.35417 -5.96215 0
M  V30 4003 H 379.191 1.01547 -6.88957 0
M  V30 4004 H 376.818 0.78419 -7.56145 0
M  V30 4005 N 378.394 1.34581 0.820102 0
M  V30 4006 C 379.342 1.26401 1.95258 0
M  V30 4007 C 380.336 0.161553 1.68628 0
M  V30 4008 O 381.542 0.326703 1.7701 0
M  V30 4009 H 377.917 0.392749 0.64129 0
M  V30 4010 H 379.888 2.22105 1.99279 0
M  V30 4011 C 378.637 1.03919 3.31807 0
M  V30 4012 H 377.96 1.87984 3.52848 0
M  V30 4013 H 379.4 1.02232 4.11491 0
M  V30 4014 C 377.859 -0.257433 3.35915 0
M  V30 4015 O 378.389 -1.25784 3.81499 0
M  V30 4016 N 376.595 -0.291524 2.89134 0
M  V30 4017 H 376.142 0.523161 2.52232 0
M  V30 4018 H 376.1 -1.15883 2.92264 0
M  V30 4019 N 379.872 -1.04064 1.18357 0
M  V30 4020 C 381.283 -1.58719 0.98312 0
M  V30 4021 C 381.634 -1.90556 -0.467193 0
M  V30 4022 O 380.759 -1.69561 -1.34454 0
M  V30 4023 C 381.354 -2.88379 1.77828 0
M  V30 4024 C 379.913 -3.3965 1.62218 0
M  V30 4025 C 379.06 -2.13235 1.77274 0
M  V30 4026 H 382.011 -0.867359 1.32901 0
M  V30 4027 H 382.032 -3.58773 1.26737 0
M  V30 4028 H 381.544 -2.65176 2.83379 0
M  V30 4029 H 379.645 -3.67866 0.592036 0
M  V30 4030 H 379.758 -4.13475 2.42023 0
M  V30 4031 H 378.122 -2.24542 1.20221 0
M  V30 4032 H 378.905 -1.92487 2.8426 0
M  V30 4033 N 381.35 -0.985608 -1.22978 0
M  V30 4034 C 382.598 -0.656087 -1.91154 0
M  V30 4035 C 382.919 0.813561 -1.77218 0
M  V30 4036 O 382.189 1.58244 -1.1548 0
M  V30 4037 H 380.769 -0.239674 -0.707506 0
M  V30 4038 H 383.431 -1.25054 -1.49491 0
M  V30 4039 H 382.527 -0.912253 -2.9847 0
M  V30 4040 N 382.828 1.3818 -0.7579 0
M  V30 4041 C 383.778 2.27741 -0.108674 0
M  V30 4042 C 384.762 1.45415 0.688709 0
M  V30 4043 O 385.954 1.68108 0.553956 0
M  V30 4044 C 383.083 3.34313 0.780367 0
M  V30 4045 C 382.169 4.24093 -0.0240977 0
M  V30 4046 N 382.56 4.9451 -1.06271 0
M  V30 4047 C 380.858 4.45542 0.202049 0
M  V30 4048 C 381.559 5.60675 -1.54979 0
M  V30 4049 N 380.535 5.36684 -0.864348 0
M  V30 4050 H 384.337 2.79649 -0.904071 0
M  V30 4051 H 381.851 1.51133 -0.594346 0
M  V30 4052 H 383.848 3.97368 1.26114 0
M  V30 4053 H 382.508 2.83962 1.57467 0
M  V30 4054 H 383.519 4.97345 -1.44459 0
M  V30 4055 H 380.196 4.06091 0.96935 0
M  V30 4056 H 381.586 6.26992 -2.41517 0
M  V30 4057 N 384.306 0.507319 1.49211 0
M  V30 4058 C 385.552 -0.0350047 2.0277 0
M  V30 4059 C 385.885 -1.3606 1.38569 0
M  V30 4060 O 385.16 -1.87321 0.523542 0
M  V30 4061 C 385.443 -0.180916 3.59645 0
M  V30 4062 C 385.296 1.16825 4.34364 0
M  V30 4063 C 386.615 -0.918558 4.30407 0
M  V30 4064 H 383.734 -0.0112473 0.736914 0
M  V30 4065 H 386.376 0.659956 1.7817 0
M  V30 4066 H 384.526 -0.772826 3.80736 0
M  V30 4067 H 386.198 1.79952 4.24753 0
M  V30 4068 H 384.441 1.75594 3.96673 0
M  V30 4069 H 385.112 1.01939 5.42506 0
M  V30 4070 H 387.588 -0.41649 4.1401 0
M  V30 4071 H 386.464 -0.989505 5.39907 0
M  V30 4072 H 386.725 -1.96373 3.96093 0
M  V30 4073 N 385.784 -1.5574 0.241426 0
M  V30 4074 C 387.061 -1.90704 -0.434881 0
M  V30 4075 C 387.441 -1.16145 -1.76277 0
M  V30 4076 O 386.789 -0.277152 -2.26813 0
M  V30 4077 C 386.999 -3.43657 -0.608343 0
M  V30 4078 C 388.347 -4.14806 -0.906725 0
M  V30 4079 O 389.371 -3.49366 -0.694408 0
M  V30 4080 O 388.23 -5.30548 -1.31075 0
M  V30 4081 H 385.324 -0.793592 -0.23268 0
M  V30 4082 H 387.87 -1.67288 0.285086 0
M  V30 4083 H 386.642 -3.89927 0.327505 0
M  V30 4084 H 386.265 -3.72918 -1.37906 0
M  V30 4085 N 387.262 0.0317525 -1.57568 0
M  V30 4086 C 388.511 0.722131 -1.8833 0
M  V30 4087 C 388.824 1.76664 -0.839587 0
M  V30 4088 O 390.03 2.50942 -1.03635 0
M  V30 4089 C 388.486 1.33544 -3.34207 0
M  V30 4090 C 388.094 0.327415 -4.46802 0
M  V30 4091 C 389.838 2.00585 -3.7412 0
M  V30 4092 C 387.745 0.948915 -5.83738 0
M  V30 4093 H 386.675 0.273466 -0.702661 0
M  V30 4094 H 389.326 -0.0235811 -1.83485 0
M  V30 4095 H 387.708 2.13077 -3.33788 0
M  V30 4096 H 388.882 -0.441006 -4.58685 0
M  V30 4097 H 387.197 -0.240758 -4.15703 0
M  V30 4098 H 389.794 2.47932 -4.73744 0
M  V30 4099 H 390.137 2.82285 -3.05975 0
M  V30 4100 H 390.67 1.27831 -3.76702 0
M  V30 4101 H 387.409 0.171387 -6.55276 0
M  V30 4102 H 386.929 1.68724 -5.7558 0
M  V30 4103 H 388.608 1.45705 -6.3038 0
M  V30 4104 N 388.74 1.54641 0.303973 0
M  V30 4105 C 389.97 1.77511 1.05705 0
M  V30 4106 C 390.378 0.533228 1.81531 0
M  V30 4107 O 389.721 -0.506423 1.76582 0
M  V30 4108 C 389.783 2.92779 2.08617 0
M  V30 4109 C 389.447 4.30977 1.52013 0
M  V30 4110 C 390.444 5.11115 0.9517 0
M  V30 4111 C 388.129 4.77571 1.55665 0
M  V30 4112 C 390.123 6.35966 0.427327 0
M  V30 4113 C 387.81 6.02384 1.02841 0
M  V30 4114 C 388.808 6.81417 0.464713 0
M  V30 4115 O 388.496 8.03881 -0.0555283 0
M  V30 4116 H 388.228 0.59579 0.319391 0
M  V30 4117 H 390.782 2.02401 0.349712 0
M  V30 4118 H 389.012 2.63506 2.83022 0
M  V30 4119 H 390.701 3.03252 2.69802 0
M  V30 4120 H 391.467 4.76264 0.916407 0
M  V30 4121 H 387.346 4.16085 1.9848 0
M  V30 4122 H 390.89 6.97599 -0.0133062 0
M  V30 4123 H 386.787 6.36723 1.06084 0
M  V30 4124 H 387.555 8.18479 0.0580522 0
M  V30 4125 N 390.218 -0.567019 1.47046 0
M  V30 4126 C 391.443 -1.3551 1.57009 0
M  V30 4127 C 391.868 -1.86841 0.217259 0
M  V30 4128 O 391.226 -1.62435 -0.805268 0
M  V30 4129 C 391.274 -2.50777 2.5912 0
M  V30 4130 O 390.378 -3.52706 2.13711 0
M  V30 4131 H 389.719 -0.402919 0.52778 0
M  V30 4132 H 392.249 -0.686241 1.92748 0
M  V30 4133 H 392.259 -2.97481 2.79229 0
M  V30 4134 H 390.934 -2.12771 3.57353 0
M  V30 4135 H 389.511 -3.12374 2.03659 0
M  V30 4136 N 391.696 -1.35014 -0.812953 0
M  V30 4137 C 392.659 -1.27292 -1.90602 0
M  V30 4138 C 393.659 -0.185817 -1.59723 0
M  V30 4139 O 394.849 -0.439102 -1.68575 0
M  V30 4140 C 391.981 -0.967676 -3.26877 0
M  V30 4141 H 393.174 -2.24479 -1.9887 0
M  V30 4142 H 390.727 -1.19446 -1.00808 0
M  V30 4143 H 391.462 0.0005954 -3.243 0
M  V30 4144 H 391.247 -1.75412 -3.50675 0
M  V30 4145 H 392.737 -0.939085 -4.06904 0
M  V30 4146 N 393.175 1.03435 -1.18907 0
M  V30 4147 C 394.4 1.80919 -1.01406 0
M  V30 4148 C 394.825 1.83055 0.432721 0
M  V30 4149 O 394.183 1.25252 1.31079 0
M  V30 4150 C 394.231 3.24091 -1.58105 0
M  V30 4151 O 393.335 4.04434 -0.806669 0
M  V30 4152 H 392.676 0.558709 -0.358803 0
M  V30 4153 H 395.206 1.30223 -1.57807 0
M  V30 4154 H 395.216 3.74853 -1.61087 0
M  V30 4155 H 393.891 3.21851 -2.6341 0
M  V30 4156 H 392.468 3.63091 -0.849666 0
M  V30 4157 N 394.653 0.992116 1.22453 0
M  V30 4158 C 395.899 0.678177 1.91761 0
M  V30 4159 C 396.254 -0.781141 1.75829 0
M  V30 4160 O 395.547 -1.55747 1.11595 0
M  V30 4161 C 395.741 1.01832 3.42586 0
M  V30 4162 C 395.57 2.50916 3.73191 0
M  V30 4163 C 394.34 3.17308 3.93248 0
M  V30 4164 C 396.538 3.49032 3.77732 0
M  V30 4165 N 394.52 4.55876 4.11157 0
M  V30 4166 C 395.891 4.73055 4.00773 0
M  V30 4167 C 397.946 3.43349 3.60577 0
M  V30 4168 C 396.649 5.92089 4.0844 0
M  V30 4169 C 398.675 4.61759 3.69503 0
M  V30 4170 C 398.037 5.84582 3.92993 0
M  V30 4171 H 394.136 0.299425 0.722405 0
M  V30 4172 H 396.72 1.27197 1.47408 0
M  V30 4173 H 394.891 0.453118 3.85748 0
M  V30 4174 H 396.623 0.660454 3.99274 0
M  V30 4175 H 393.378 2.67778 3.9063 0
M  V30 4176 H 393.802 5.27748 4.24042 0
M  V30 4177 H 398.444 2.49408 3.41402 0
M  V30 4178 H 396.162 6.86435 4.26418 0
M  V30 4179 H 399.748 4.58951 3.57569 0
M  V30 4180 H 398.628 6.74676 3.99728 0
M  V30 4181 N 396.131 -1.37776 0.765217 0
M  V30 4182 C 397.379 -1.99454 0.325943 0
M  V30 4183 C 397.7 -1.61049 -1.09947 0
M  V30 4184 O 396.97 -0.872821 -1.75381 0
M  V30 4185 H 395.55 -0.737697 0.117525 0
M  V30 4186 H 398.212 -1.68359 0.981895 0
M  V30 4187 H 397.308 -3.09547 0.398353 0
M  V30 4188 N 397.609 -0.515225 -1.4894 0
M  V30 4189 C 399.02 -0.0710067 -1.86565 0
M  V30 4190 C 399.371 1.34733 -1.42623 0
M  V30 4191 O 398.496 2.00653 -0.810379 0
M  V30 4192 C 399.091 -0.122083 -3.3858 0
M  V30 4193 C 397.65 0.266863 -3.75453 0
M  V30 4194 C 396.797 -0.488376 -2.72966 0
M  V30 4195 H 399.748 -0.727266 -1.41055 0
M  V30 4196 H 399.769 0.669818 -3.74558 0
M  V30 4197 H 399.281 -1.15448 -3.70531 0
M  V30 4198 H 397.382 1.30196 -3.49113 0
M  V30 4199 H 397.495 -0.0624811 -4.79059 0
M  V30 4200 H 395.859 0.0635622 -2.54621 0
M  V30 4201 H 396.642 -1.52113 -3.07761 0
M  V30 4202 N 399.087 1.5561 -0.249682 0
M  V30 4203 C 400.035 2.22894 0.664906 0
M  V30 4204 C 401.029 1.21743 1.17792 0
M  V30 4205 O 402.235 1.39748 1.13449 0
M  V30 4206 H 398.61 0.715022 0.232912 0
M  V30 4207 H 400.581 2.98307 0.0742998 0
M  V30 4208 C 399.33 2.94424 1.84959 0
M  V30 4209 H 398.653 3.72031 1.46399 0
M  V30 4210 H 400.093 3.44862 2.4667 0
M  V30 4211 C 398.552 1.98454 2.72245 0
M  V30 4212 O 399.082 1.51939 3.71857 0
M  V30 4213 N 397.288 1.65496 2.38871 0
M  V30 4214 H 396.835 2.03517 1.57919 0
M  V30 4215 H 396.793 1.0155 2.97548 0
M  V30 4216 N 400.565 -0.0233959 1.57583 0
M  V30 4217 C 401.842 -0.748794 1.807 0
M  V30 4218 C 402.222 -1.9327 0.849106 0
M  V30 4219 O 401.57 -2.28247 -0.107468 0
M  V30 4220 C 401.78 -1.17651 3.28571 0
M  V30 4221 C 403.128 -1.59008 3.93702 0
M  V30 4222 O 404.152 -1.27094 3.32755 0
M  V30 4223 O 403.011 -2.18264 5.01022 0
M  V30 4224 H 400.105 -0.362578 0.743281 0
M  V30 4225 H 402.651 0.000261958 1.697 0
M  V30 4226 H 401.423 -0.331603 3.89892 0
M  V30 4227 H 401.046 -1.98541 3.44481 0
M  V30 4228 N 402.043 -1.548 -0.295768 0
M  V30 4229 C 403.32 -1.65014 -1.05023 0
M  V30 4230 C 403.7 -0.501805 -2.05049 0
M  V30 4231 O 403.048 0.500869 -2.22943 0
M  V30 4232 C 403.258 -3.03252 -1.72741 0
M  V30 4233 C 404.606 -3.60242 -2.24746 0
M  V30 4234 O 405.63 -3.05737 -1.82765 0
M  V30 4235 O 404.489 -4.55687 -3.01681 0
M  V30 4236 H 401.583 -0.669314 -0.485744 0
M  V30 4237 H 404.129 -1.67144 -0.293438 0
M  V30 4238 H 402.901 -3.7827 -1.00138 0
M  V30 4239 H 402.524 -3.04922 -2.55163 0
M  V30 4240 N 403.521 0.559213 -1.47345 0
M  V30 4241 C 404.769 1.31388 -1.53563 0
M  V30 4242 C 405.09 1.93985 -0.198678 0
M  V30 4243 O 404.36 1.79825 0.777167 0
M  V30 4244 H 402.94 0.487901 -0.565652 0
M  V30 4245 H 405.602 0.65315 -1.8363 0
M  V30 4246 H 404.698 2.10844 -2.30111 0
M  V30 4247 N 404.999 1.35443 0.805782 0
M  V30 4248 C 405.946 1.28431 1.91766 0
M  V30 4249 C 406.916 0.156102 1.65365 0
M  V30 4250 O 408.101 0.339936 1.87747 0
M  V30 4251 C 405.241 1.06301 3.2832 0
M  V30 4252 C 404.354 2.2805 3.66902 0
M  V30 4253 C 403.489 1.99064 4.92491 0
M  V30 4254 C 402.528 3.16863 5.23703 0
M  V30 4255 N 401.665 2.87647 6.40471 0
M  V30 4256 H 406.505 2.23511 1.97096 0
M  V30 4257 H 404.042 1.11105 0.964054 0
M  V30 4258 H 406 0.915012 4.07042 0
M  V30 4259 H 404.63 0.148822 3.22457 0
M  V30 4260 H 403.682 2.53711 2.83434 0
M  V30 4261 H 404.994 3.1601 3.85927 0
M  V30 4262 H 404.148 1.81099 5.7904 0
M  V30 4263 H 402.887 1.0839 4.75503 0
M  V30 4264 H 401.892 3.35404 4.35642 0
M  V30 4265 H 403.117 4.08339 5.4262 0
M  V30 4266 H 401.063 1.99568 6.24907 0
M  V30 4267 H 400.98 3.69141 6.59751 0
M  V30 4268 H 402.248 2.73226 7.30047 0
M  V30 4269 N 406.477 -1.02803 1.19454 0
M  V30 4270 C 407.705 -1.79841 1.02297 0
M  V30 4271 C 408.12 -1.83879 -0.428259 0
M  V30 4272 O 407.477 -1.28345 -1.29745 0
M  V30 4273 C 407.528 -3.24852 1.58598 0
M  V30 4274 O 407.249 -3.21097 2.98041 0
M  V30 4275 C 408.75 -4.18485 1.46236 0
M  V30 4276 H 405.97 -0.565936 0.360496 0
M  V30 4277 H 408.514 -1.2948 1.58288 0
M  V30 4278 H 406.669 -3.72401 1.06753 0
M  V30 4279 H 407.083 -4.12033 3.24545 0
M  V30 4280 H 408.557 -5.18121 1.90407 0
M  V30 4281 H 409.034 -4.37254 0.41301 0
M  V30 4282 H 409.64 -3.76811 1.97215 0
M  V30 4283 N 407.956 -0.998596 -1.21925 0
M  V30 4284 C 409.202 -0.678667 -1.91107 0
M  V30 4285 C 409.535 0.78791 -1.77498 0
M  V30 4286 O 408.81 1.57043 -1.1475 0
M  V30 4287 C 409.093 -1.09245 -3.43129 0
M  V30 4288 C 408.946 -2.61801 -3.6576 0
M  V30 4289 C 410.265 -0.649984 -4.35274 0
M  V30 4290 H 407.384 -0.248025 -0.694012 0
M  V30 4291 H 410.026 -1.24314 -1.43688 0
M  V30 4292 H 408.176 -0.612171 -3.83647 0
M  V30 4293 H 409.848 -3.17543 -3.34611 0
M  V30 4294 H 408.091 -3.03609 -3.09845 0
M  V30 4295 H 408.762 -2.85804 -4.7225 0
M  V30 4296 H 411.238 -1.0626 -4.02303 0
M  V30 4297 H 410.114 -0.967743 -5.40302 0
M  V30 4298 H 410.375 0.449139 -4.39813 0
M  V30 4299 N 409.434 1.37368 -0.772513 0
M  V30 4300 C 410.344 2.34053 -0.160081 0
M  V30 4301 C 411.36 1.60216 0.678728 0
M  V30 4302 O 412.536 1.92303 0.59847 0
M  V30 4303 C 409.601 3.3939 0.708182 0
M  V30 4304 C 408.662 4.29048 -0.147172 0
M  V30 4305 C 407.895 5.29354 0.679744 0
M  V30 4306 O 408.118 5.3723 1.91678 0
M  V30 4307 O 407.052 6.01835 0.0885444 0
M  V30 4308 H 410.878 2.88159 -0.959053 0
M  V30 4309 H 408.463 1.39543 -0.533685 0
M  V30 4310 H 410.345 4.03839 1.20384 0
M  V30 4311 H 409.02 2.8761 1.48533 0
M  V30 4312 H 407.927 3.67697 -0.689205 0
M  V30 4313 H 409.26 4.84134 -0.887423 0
M  V30 4314 N 410.912 0.523116 1.48665 0
M  V30 4315 C 412.16 -0.0134497 2.02096 0
M  V30 4316 C 412.481 -1.35418 1.40311 0
M  V30 4317 O 411.751 -1.87543 0.566074 0
M  V30 4318 H 410.331 -0.00795915 0.746958 0
M  V30 4319 H 412.993 0.685388 1.82451 0
M  V30 4320 H 412.089 -0.126849 3.11842 0
M  V30 4321 N 412.39 -1.55475 0.257931 0
M  V30 4322 C 413.801 -1.8511 -0.243135 0
M  V30 4323 C 414.152 -1.17986 -1.5676 0
M  V30 4324 O 413.277 -0.462102 -2.11409 0
M  V30 4325 C 413.872 -3.35826 -0.447929 0
M  V30 4326 C 412.431 -3.65647 -0.893245 0
M  V30 4327 C 411.578 -2.7729 0.0232965 0
M  V30 4328 H 414.529 -1.51261 0.480199 0
M  V30 4329 H 414.55 -3.58002 -1.28898 0
M  V30 4330 H 414.062 -3.84652 0.516196 0
M  V30 4331 H 412.163 -3.22308 -1.86945 0
M  V30 4332 H 412.276 -4.73312 -0.742469 0
M  V30 4333 H 410.64 -2.49942 -0.490021 0
M  V30 4334 H 411.423 -3.28926 0.982994 0
M  V30 4335 N 413.868 0.0150385 -1.57593 0
M  V30 4336 C 415.116 0.701613 -1.8953 0
M  V30 4337 C 415.437 1.75139 -0.857396 0
M  V30 4338 O 414.707 1.95607 0.107194 0
M  V30 4339 H 413.287 0.26213 -0.699498 0
M  V30 4340 H 415.949 -0.0223304 -1.94887 0
M  V30 4341 H 415.045 1.18236 -2.88837 0
M  V30 4342 N 415.346 1.54954 0.287554 0
M  V30 4343 C 416.762 1.46469 0.633964 0
M  V30 4344 C 416.962 0.666865 1.90145 0
M  V30 4345 O 416.018 0.179906 2.51858 0
M  V30 4346 C 417.331 2.90556 0.774454 0
M  V30 4347 C 418.879 3.00681 0.869462 0
M  V30 4348 C 419.354 4.45993 1.04184 0
M  V30 4349 N 420.845 4.4976 1.10772 0
M  V30 4350 C 421.58 5.59393 1.25964 0
M  V30 4351 N 421.076 6.78923 1.37968 0
M  V30 4352 N 422.869 5.47107 1.28959 0
M  V30 4353 H 415.02 2.05288 -0.545041 0
M  V30 4354 H 417.283 0.930305 -0.182308 0
M  V30 4355 H 416.989 3.51594 -0.086207 0
M  V30 4356 H 416.863 3.38743 1.6593 0
M  V30 4357 H 419.25 2.39749 1.7206 0
M  V30 4358 H 419.331 2.55769 -0.0396831 0
M  V30 4359 H 418.975 5.07524 0.195422 0
M  V30 4360 H 418.905 4.88548 1.96542 0
M  V30 4361 H 421.396 3.63651 1.02794 0
M  V30 4362 H 421.709 7.58231 1.49353 0
M  V30 4363 H 420.054 6.81763 1.34999 0
M  V30 4364 H 423.245 4.52668 1.19202 0
M  V30 4365 H 423.418 6.32595 1.40455 0
M  V30 4366 N 416.824 -0.551391 1.4764 0
M  V30 4367 C 417.754 -1.66757 1.63445 0
M  V30 4368 C 418.735 -1.63077 0.483742 0
M  V30 4369 O 419.92 -1.80607 0.71377 0
M  V30 4370 C 417.05 -3.05387 1.65396 0
M  V30 4371 C 416.004 -3.23918 2.79752 0
M  V30 4372 C 415.33 -4.63393 2.66779 0
M  V30 4373 C 416.63 -3.08735 4.21284 0
M  V30 4374 H 418.324 -1.53786 2.56886 0
M  V30 4375 H 415.87 -0.738415 1.23626 0
M  V30 4376 H 417.823 -3.83325 1.75043 0
M  V30 4377 H 416.547 -3.19332 0.685195 0
M  V30 4378 H 415.206 -2.48391 2.69625 0
M  V30 4379 H 414.854 -4.74144 1.67918 0
M  V30 4380 H 414.554 -4.7674 3.43501 0
M  V30 4381 H 416.078 -5.43458 2.78364 0
M  V30 4382 H 417.492 -3.76484 4.32357 0
M  V30 4383 H 415.889 -3.33588 4.98838 0
M  V30 4384 H 416.959 -2.0541 4.39243 0
M  V30 4385 N 418.302 -1.35869 -0.798587 0
M  V30 4386 C 419.265 -1.29307 -1.89242 0
M  V30 4387 C 420.265 -0.202747 -1.59517 0
M  V30 4388 O 421.455 -0.456957 -1.681 0
M  V30 4389 C 418.587 -1.00229 -3.25833 0
M  V30 4390 H 419.78 -2.26576 -1.96478 0
M  V30 4391 H 417.333 -1.20509 -0.995358 0
M  V30 4392 H 418.068 -0.033801 -3.24282 0
M  V30 4393 H 417.853 -1.79121 -3.48795 0
M  V30 4394 H 419.343 -0.98219 -4.05885 0
M  V30 4395 N 419.78 1.02168 -1.19998 0
M  V30 4396 C 420.712 2.10705 -0.901994 0
M  V30 4397 C 421.725 1.6244 0.108216 0
M  V30 4398 O 422.914 1.78082 -0.12214 0
M  V30 4399 C 420.014 3.37291 -0.329834 0
M  V30 4400 C 419.187 4.14714 -1.39035 0
M  V30 4401 C 418.246 5.19606 -0.830432 0
M  V30 4402 O 417.272 5.48809 -1.50989 0
M  V30 4403 N 418.474 5.79366 0.362696 0
M  V30 4404 H 421.239 2.36856 -1.83628 0
M  V30 4405 H 418.8 1.18518 -1.10296 0
M  V30 4406 H 420.792 4.04657 0.0587633 0
M  V30 4407 H 419.362 3.0843 0.508891 0
M  V30 4408 H 418.582 3.42392 -1.9535 0
M  V30 4409 H 419.87 4.63226 -2.10474 0
M  V30 4410 H 419.268 5.57968 0.932081 0
M  V30 4411 H 417.825 6.48106 0.69299 0
M  V30 4412 N 421.258 1.00505 1.21394 0
M  V30 4413 C 422.205 0.565496 2.23765 0
M  V30 4414 C 423.175 -0.408466 1.60999 0
M  V30 4415 O 424.36 -0.310503 1.88257 0
M  V30 4416 C 421.5 -0.101667 3.4495 0
M  V30 4417 C 420.613 0.915479 4.22188 0
M  V30 4418 C 419.748 0.220574 5.30742 0
M  V30 4419 C 418.787 1.22527 5.99711 0
M  V30 4420 N 417.924 0.557831 6.9988 0
M  V30 4421 H 422.764 1.44314 2.60725 0
M  V30 4422 H 420.301 0.722643 1.28126 0
M  V30 4423 H 422.259 -0.505504 4.14126 0
M  V30 4424 H 420.889 -0.94303 3.08718 0
M  V30 4425 H 419.941 1.43756 3.52191 0
M  V30 4426 H 421.253 1.68005 4.69655 0
M  V30 4427 H 420.407 -0.239368 6.06228 0
M  V30 4428 H 419.146 -0.576401 4.84282 0
M  V30 4429 H 418.151 1.69571 5.22997 0
M  V30 4430 H 419.376 2.02332 6.48258 0
M  V30 4431 H 417.322 -0.219486 6.55633 0
M  V30 4432 H 417.239 1.26065 7.45415 0
M  V30 4433 H 418.507 0.121095 7.79406 0
M  V30 4434 N 422.737 -1.36956 0.779787 0
M  V30 4435 C 423.7 -2.2851 0.177662 0
M  V30 4436 C 424.7 -1.48393 -0.619377 0
M  V30 4437 O 425.89 -1.68505 -0.441785 0
M  V30 4438 C 423.022 -3.32428 -0.755279 0
M  V30 4439 H 424.215 -2.83269 0.984823 0
M  V30 4440 H 421.768 -1.46358 0.548544 0
M  V30 4441 H 422.503 -2.82808 -1.58714 0
M  V30 4442 H 422.288 -3.91659 -0.185817 0
M  V30 4443 H 423.778 -4.00824 -1.17174 0
M  V30 4444 N 424.215 -0.530993 -1.48385 0
M  V30 4445 C 425.462 0.0027373 -2.025 0
M  V30 4446 C 425.79 1.34186 -1.40799 0
M  V30 4447 O 425.045 1.88 -0.543544 0
M  V30 4448 C 425.344 0.172742 -3.56982 0
M  V30 4449 C 425.01 -1.09215 -4.37473 0
M  V30 4450 C 423.672 -1.43881 -4.59186 0
M  V30 4451 C 426.024 -1.93153 -4.84088 0
M  V30 4452 C 423.352 -2.62381 -5.2476 0
M  V30 4453 C 425.704 -3.10833 -5.50968 0
M  V30 4454 C 424.368 -3.45843 -5.70919 0
M  V30 4455 H 423.638 0.00100165 -0.740999 0
M  V30 4456 H 426.285 -0.697219 -1.78357 0
M  V30 4457 H 424.59 0.955473 -3.79971 0
M  V30 4458 H 426.287 0.600642 -3.96476 0
M  V30 4459 H 422.877 -0.812177 -4.20834 0
M  V30 4460 H 427.061 -1.67683 -4.67115 0
M  V30 4461 H 422.317 -2.89707 -5.38405 0
M  V30 4462 H 426.491 -3.7618 -5.86056 0
M  V30 4463 H 424.118 -4.37764 -6.21503 0
M  V30 4464 N 425.693 1.55336 -0.266172 0
M  V30 4465 C 426.603 2.2583 0.635458 0
M  V30 4466 C 427.619 1.28106 1.17749 0
M  V30 4467 O 428.795 1.61024 1.20968 0
M  V30 4468 C 425.86 2.95879 1.80712 0
M  V30 4469 C 424.921 4.09059 1.30265 0
M  V30 4470 C 424.154 4.75759 2.41846 0
M  V30 4471 O 424.377 4.41622 3.61007 0
M  V30 4472 O 423.311 5.63888 2.1051 0
M  V30 4473 H 427.137 3.03631 0.0646693 0
M  V30 4474 H 424.722 1.49361 -0.0339177 0
M  V30 4475 H 426.604 3.39932 2.49047 0
M  V30 4476 H 425.279 2.21002 2.36516 0
M  V30 4477 H 424.186 3.69482 0.586019 0
M  V30 4478 H 425.519 4.85811 0.790458 0
M  V30 4479 N 427.171 -0.0066808 1.57599 0
M  V30 4480 C 428.401 -0.703066 1.94269 0
M  V30 4481 C 428.809 -1.68206 0.866222 0
M  V30 4482 O 428.152 -1.82966 -0.164087 0
M  V30 4483 C 428.214 -1.49616 3.26887 0
M  V30 4484 C 427.878 -0.679494 4.5192 0
M  V30 4485 C 428.875 0.0299508 5.19891 0
M  V30 4486 C 426.56 -0.627433 4.98366 0
M  V30 4487 C 428.554 0.780514 6.32603 0
M  V30 4488 C 426.241 0.126861 6.10968 0
M  V30 4489 C 427.239 0.829574 6.77943 0
M  V30 4490 O 426.927 1.57157 7.88389 0
M  V30 4491 H 426.659 -0.201217 0.645359 0
M  V30 4492 H 429.213 0.0385326 2.05364 0
M  V30 4493 H 427.443 -2.28209 3.12182 0
M  V30 4494 H 429.132 -2.07726 3.48719 0
M  V30 4495 H 429.898 -0.00115963 4.85 0
M  V30 4496 H 425.777 -1.16392 4.46065 0
M  V30 4497 H 429.321 1.32954 6.84813 0
M  V30 4498 H 425.218 0.159815 6.45302 0
M  V30 4499 H 425.986 1.48758 8.04868 0
M  V30 4500 N 428.649 -1.55105 -0.279332 0
M  V30 4501 C 429.897 -1.75066 -1.00977 0
M  V30 4502 C 430.218 -0.551276 -1.87045 0
M  V30 4503 O 429.488 0.433984 -1.91032 0
M  V30 4504 H 428.068 -0.645578 -0.375816 0
M  V30 4505 H 430.73 -1.92497 -0.305089 0
M  V30 4506 H 429.826 -2.64894 -1.65038 0
M  V30 4507 N 430.127 0.543554 -1.4793 0
M  V30 4508 C 431.373 1.30201 -1.55485 0
M  V30 4509 C 431.706 1.92925 -0.222201 0
M  V30 4510 O 430.981 1.78586 0.77053 0
M  V30 4511 C 431.264 2.40174 -2.68307 0
M  V30 4512 C 431.117 1.8223 -4.11233 0
M  V30 4513 C 432.436 3.42024 -2.76961 0
M  V30 4514 H 429.555 0.472036 -0.565996 0
M  V30 4515 H 432.197 0.606914 -1.80046 0
M  V30 4516 H 430.347 2.99463 -2.47495 0
M  V30 4517 H 432.019 1.27096 -4.43446 0
M  V30 4518 H 430.262 1.12832 -4.18869 0
M  V30 4519 H 430.933 2.61793 -4.85972 0
M  V30 4520 H 433.409 2.92672 -2.95774 0
M  V30 4521 H 432.285 4.16383 -3.57654 0
M  V30 4522 H 432.546 4.0173 -1.84568 0
M  V30 4523 N 431.605 1.3629 0.791371 0
M  V30 4524 C 432.552 1.30458 1.90393 0
M  V30 4525 C 433.522 0.173632 1.6519 0
M  V30 4526 O 434.707 0.35983 1.87376 0
M  V30 4527 C 431.847 1.09777 3.27174 0
M  V30 4528 C 430.96 2.31929 3.64462 0
M  V30 4529 C 430.095 2.04276 4.90352 0
M  V30 4530 C 429.134 3.224 5.20312 0
M  V30 4531 N 428.271 2.94424 6.37385 0
M  V30 4532 H 433.111 2.25589 1.94714 0
M  V30 4533 H 430.648 1.12122 0.952216 0
M  V30 4534 H 432.606 0.958133 4.06049 0
M  V30 4535 H 431.236 0.183014 3.22281 0
M  V30 4536 H 430.288 2.56703 2.80727 0
M  V30 4537 H 431.6 3.20085 3.82553 0
M  V30 4538 H 430.754 1.87231 5.77087 0
M  V30 4539 H 429.493 1.13428 4.74326 0
M  V30 4540 H 428.498 3.40005 4.32061 0
M  V30 4541 H 429.723 4.14071 5.38258 0
M  V30 4542 H 427.669 2.06185 6.22755 0
M  V30 4543 H 427.586 3.76118 6.55798 0
M  V30 4544 H 428.854 2.80953 7.27108 0
M  V30 4545 N 433.083 -1.0153 1.20538 0
M  V30 4546 C 434.015 -2.10224 0.913155 0
M  V30 4547 C 435.028 -1.62495 -0.0995998 0
M  V30 4548 O 436.217 -1.78014 0.131582 0
M  V30 4549 C 433.317 -3.37111 0.347717 0
M  V30 4550 C 432.49 -4.13971 1.41233 0
M  V30 4551 C 431.549 -5.19158 0.857976 0
M  V30 4552 O 430.575 -5.48 1.53897 0
M  V30 4553 N 431.777 -5.7955 -0.331966 0
M  V30 4554 H 434.542 -2.35879 1.84881 0
M  V30 4555 H 432.103 -1.17931 1.10923 0
M  V30 4556 H 434.095 -4.04683 -0.0373026 0
M  V30 4557 H 432.665 -3.08696 -0.492527 0
M  V30 4558 H 431.885 -3.41351 1.97163 0
M  V30 4559 H 433.173 -4.62103 2.12928 0
M  V30 4560 H 432.571 -5.58455 -0.902478 0
M  V30 4561 H 431.128 -6.48464 -0.65861 0
M  V30 4562 N 434.561 -1.01147 -1.20859 0
M  V30 4563 C 435.809 -0.696486 -1.89719 0
M  V30 4564 C 436.13 0.775788 -1.78904 0
M  V30 4565 O 435.4 1.55759 -1.18811 0
M  V30 4566 H 433.98 -0.254628 -0.702263 0
M  V30 4567 H 436.642 -1.28197 -1.46804 0
M  V30 4568 H 435.738 -0.975357 -2.96468 0
M  V30 4569 N 436.039 1.36541 -0.78704 0
M  V30 4570 C 437.455 1.52571 -0.46844 0
M  V30 4571 C 437.655 1.7415 1.01361 0
M  V30 4572 O 436.711 1.77163 1.79915 0
M  V30 4573 C 438.024 2.71299 -1.29682 0
M  V30 4574 C 439.572 2.85169 -1.29027 0
M  V30 4575 C 440.047 4.06898 -2.10233 0
M  V30 4576 N 441.538 4.1404 -2.07666 0
M  V30 4577 C 442.273 5.07301 -2.67271 0
M  V30 4578 N 441.769 6.06021 -3.35724 0
M  V30 4579 N 443.562 4.99898 -2.57018 0
M  V30 4580 H 435.713 1.20788 -1.74711 0
M  V30 4581 H 437.976 0.589364 -0.742532 0
M  V30 4582 H 437.682 2.61868 -2.34773 0
M  V30 4583 H 437.556 3.6539 -0.936479 0
M  V30 4584 H 439.943 2.94062 -0.247284 0
M  V30 4585 H 440.024 1.91992 -1.69035 0
M  V30 4586 H 439.668 3.98766 -3.1456 0
M  V30 4587 H 439.598 4.99218 -1.67597 0
M  V30 4588 H 442.089 3.43357 -1.57843 0
M  V30 4589 H 442.402 6.73741 -3.78541 0
M  V30 4590 H 440.747 6.06253 -3.39826 0
M  V30 4591 H 443.938 4.21724 -2.03142 0
M  V30 4592 H 444.111 5.72392 -3.03761 0
M  V30 4593 N 437.518 0.538854 1.48102 0
M  V30 4594 C 438.45 -0.256278 2.27763 0
M  V30 4595 C 439.463 -0.89633 1.35904 0
M  V30 4596 O 440.652 -0.773275 1.60881 0
M  V30 4597 C 437.752 -1.37896 3.09577 0
M  V30 4598 C 436.925 -0.839159 4.29275 0
M  V30 4599 C 435.984 -1.84405 4.9283 0
M  V30 4600 O 435.01 -1.39746 5.51779 0
M  V30 4601 N 436.212 -3.17666 4.85869 0
M  V30 4602 H 438.977 0.426968 2.96643 0
M  V30 4603 H 436.538 0.373747 1.57527 0
M  V30 4604 H 438.53 -2.04955 3.48963 0
M  V30 4605 H 437.1 -1.96572 2.4306 0
M  V30 4606 H 436.32 0.00769287 3.94199 0
M  V30 4607 H 437.608 -0.457548 5.06739 0
M  V30 4608 H 437.006 -3.56609 4.39143 0
M  V30 4609 H 435.563 -3.80334 5.29329 0
M  V30 4610 N 438.996 -1.55193 0.274407 0
M  V30 4611 C 440.244 -1.99187 -0.341902 0
M  V30 4612 C 440.565 -1.16422 -1.56431 0
M  V30 4613 O 439.835 -0.253573 -1.94252 0
M  V30 4614 H 438.415 -0.735721 -0.129317 0
M  V30 4615 H 441.077 -1.91168 0.379578 0
M  V30 4616 H 440.173 -3.05629 -0.632253 0
M  V30 4617 N 440.474 -0.00167713 -1.576 0
M  V30 4618 C 441.421 0.989195 -2.08527 0
M  V30 4619 C 442.391 1.34031 -0.981065 0
M  V30 4620 O 443.576 1.43839 -1.2536 0
M  V30 4621 C 440.716 2.27537 -2.59463 0
M  V30 4622 C 439.829 1.98314 -3.83791 0
M  V30 4623 C 438.964 3.21025 -4.23222 0
M  V30 4624 C 438.003 2.87495 -5.40382 0
M  V30 4625 N 437.14 4.02749 -5.75098 0
M  V30 4626 H 441.98 0.547973 -2.92919 0
M  V30 4627 H 439.517 0.258917 -1.44803 0
M  V30 4628 H 441.475 3.02729 -2.87073 0
M  V30 4629 H 440.105 2.69325 -1.77943 0
M  V30 4630 H 439.157 1.13482 -3.63078 0
M  V30 4631 H 440.469 1.69601 -4.69081 0
M  V30 4632 H 439.623 4.04561 -4.52123 0
M  V30 4633 H 438.362 3.52877 -3.36644 0
M  V30 4634 H 437.367 2.02367 -5.11202 0
M  V30 4635 H 438.592 2.56889 -6.28637 0
M  V30 4636 H 436.538 4.34494 -4.91478 0
M  V30 4637 H 436.455 3.77566 -6.54966 0
M  V30 4638 H 437.723 4.87068 -6.08592 0
M  V30 4639 N 441.952 1.55251 0.271103 0
M  V30 4640 C 443.2 1.75599 1.00047 0
M  V30 4641 C 443.521 0.561188 1.8675 0
M  V30 4642 O 442.791 -0.423846 1.9126 0
M  V30 4643 H 441.371 0.647562 0.372387 0
M  V30 4644 H 444.033 1.92656 0.294876 0
M  V30 4645 H 443.129 2.65766 1.6363 0
M  V30 4646 N 443.43 -0.535701 1.48216 0
M  V30 4647 C 444.655 -1.32149 1.59848 0
M  V30 4648 C 445.08 -1.86338 0.256842 0
M  V30 4649 O 444.438 -1.64107 -0.770632 0
M  V30 4650 C 444.486 -2.45224 2.64381 0
M  V30 4651 O 443.59 -3.48093 2.21144 0
M  V30 4652 H 442.931 -0.391634 0.536208 0
M  V30 4653 H 445.461 -0.645202 1.94161 0
M  V30 4654 H 445.471 -2.91491 2.85476 0
M  V30 4655 H 444.146 -2.05143 3.61786 0
M  V30 4656 H 442.723 -3.07984 2.10239 0
M  V30 4657 N 444.908 -1.36708 -0.784132 0
M  V30 4658 C 446.157 -1.30559 -1.53744 0
M  V30 4659 C 446.47 0.111374 -1.95283 0
M  V30 4660 O 447.676 0.29527 -2.6989 0
M  V30 4661 C 446.132 -2.29098 -2.77565 0
M  V30 4662 C 445.74 -3.76258 -2.43174 0
M  V30 4663 C 447.484 -2.31936 -3.55536 0
M  V30 4664 C 445.391 -4.6656 -3.63422 0
M  V30 4665 H 444.321 -0.48518 -0.577162 0
M  V30 4666 H 446.972 -1.62101 -0.859981 0
M  V30 4667 H 445.354 -1.90557 -3.47137 0
M  V30 4668 H 446.528 -4.23565 -1.81465 0
M  V30 4669 H 444.843 -3.76246 -1.78403 0
M  V30 4670 H 447.44 -2.9661 -4.44889 0
M  V30 4671 H 447.783 -1.3294 -3.94503 0
M  V30 4672 H 448.316 -2.6912 -2.92949 0
M  V30 4673 H 445.055 -5.66638 -3.29547 0
M  V30 4674 H 444.575 -4.23966 -4.24279 0
M  V30 4675 H 446.254 -4.8309 -4.30387 0
M  V30 4676 N 446.386 1.0089 -1.21074 0
M  V30 4677 C 447.633 1.74607 -1.0256 0
M  V30 4678 C 447.961 1.89426 0.44136 0
M  V30 4679 O 447.216 1.42266 1.34384 0
M  V30 4680 C 447.515 3.16335 -1.66334 0
M  V30 4681 C 447.181 3.21474 -3.16173 0
M  V30 4682 C 445.843 3.22583 -3.57062 0
M  V30 4683 C 448.195 3.19025 -4.12156 0
M  V30 4684 C 445.523 3.18925 -4.92446 0
M  V30 4685 C 447.875 3.16909 -5.47496 0
M  V30 4686 C 446.539 3.16326 -5.87787 0
M  V30 4687 H 445.809 0.638933 -0.375294 0
M  V30 4688 H 448.456 1.18274 -1.50611 0
M  V30 4689 H 446.761 3.75876 -1.10566 0
M  V30 4690 H 448.458 3.72083 -1.49516 0
M  V30 4691 H 445.048 3.2135 -2.83605 0
M  V30 4692 H 449.232 3.17332 -3.81595 0
M  V30 4693 H 444.488 3.16809 -5.22917 0
M  V30 4694 H 448.662 3.13968 -6.21609 0
M  V30 4695 H 446.289 3.13246 -6.92662 0
M  V30 4696 N 447.864 1.01787 1.20321 0
M  V30 4697 C 449.11 0.708985 1.90003 0
M  V30 4698 C 449.443 -0.759572 1.78729 0
M  V30 4699 O 448.718 -1.55198 1.17234 0
M  V30 4700 C 449.001 1.1469 3.41348 0
M  V30 4701 C 448.854 2.67586 3.61549 0
M  V30 4702 C 450.173 0.71915 4.34185 0
M  V30 4703 H 447.292 0.259034 0.689978 0
M  V30 4704 H 449.934 1.26584 1.41692 0
M  V30 4705 H 448.084 0.673128 3.82624 0
M  V30 4706 H 449.756 3.22826 3.29517 0
M  V30 4707 H 447.999 3.085 3.04976 0
M  V30 4708 H 448.67 2.93281 4.67643 0
M  V30 4709 H 451.146 1.12647 4.00562 0
M  V30 4710 H 450.022 1.05358 5.38694 0
M  V30 4711 H 450.283 -0.379111 4.40472 0
M  V30 4712 N 449.342 -1.36122 0.79427 0
M  V30 4713 C 450.588 -1.99846 0.378542 0
M  V30 4714 C 450.943 -1.61898 -1.03955 0
M  V30 4715 O 450.236 -0.866013 -1.70912 0
M  V30 4716 C 450.43 -3.5409 0.48527 0
M  V30 4717 C 450.259 -4.0702 1.91219 0
M  V30 4718 C 449.029 -4.36944 2.53787 0
M  V30 4719 C 451.227 -4.26435 2.87502 0
M  V30 4720 N 449.209 -4.75727 3.88017 0
M  V30 4721 C 450.58 -4.68077 4.06576 0
M  V30 4722 C 452.635 -4.08616 2.84495 0
M  V30 4723 C 451.338 -4.93765 5.23057 0
M  V30 4724 C 453.364 -4.35453 4.00169 0
M  V30 4725 C 452.726 -4.77355 5.17988 0
M  V30 4726 H 448.825 -0.759549 0.186034 0
M  V30 4727 H 451.409 -1.65043 1.0329 0
M  V30 4728 H 449.58 -3.88151 -0.139023 0
M  V30 4729 H 451.312 -4.04675 0.0453192 0
M  V30 4730 H 448.067 -4.26822 2.05231 0
M  V30 4731 H 448.491 -4.99396 4.57092 0
M  V30 4732 H 453.133 -3.75373 1.94564 0
M  V30 4733 H 450.851 -5.25887 6.1357 0
M  V30 4734 H 454.437 -4.2323 3.99208 0
M  V30 4735 H 453.317 -4.97718 6.06008 0
M  V30 4736 N 450.82 -0.546701 -1.47814 0
M  V30 4737 C 451.783 0.196287 -2.28358 0
M  V30 4738 C 452.783 0.852437 -1.36346 0
M  V30 4739 O 453.973 0.709913 -1.59078 0
M  V30 4740 C 451.105 1.28579 -3.15722 0
M  V30 4741 H 452.298 -0.511086 -2.95513 0
M  V30 4742 H 449.851 -0.303248 -1.5333 0
M  V30 4743 H 450.586 2.0259 -2.53235 0
M  V30 4744 H 450.371 0.820229 -3.83425 0
M  V30 4745 H 451.861 1.80793 -3.76435 0
M  V30 4746 N 452.299 1.55045 -0.282633 0
M  V30 4747 C 453.524 2.04628 0.337977 0
M  V30 4748 C 453.949 1.15937 1.48123 0
M  V30 4749 O 453.307 0.159532 1.80597 0
M  V30 4750 C 453.355 3.51854 0.78936 0
M  V30 4751 O 452.459 3.66236 1.89592 0
M  V30 4752 H 451.8 0.660434 0.0687261 0
M  V30 4753 H 454.33 2.00261 -0.419124 0
M  V30 4754 H 454.34 3.93361 1.08311 0
M  V30 4755 H 453.015 4.15873 -0.0470419 0
M  V30 4756 H 451.592 3.36633 1.60413 0
M  V30 4757 N 453.777 0.010035 1.57597 0
M  V30 4758 C 455.025 -0.671371 1.90623 0
M  V30 4759 C 455.346 -1.73753 0.885151 0
M  V30 4760 O 454.616 -1.95752 -0.0760611 0
M  V30 4761 H 453.196 -0.250968 0.703579 0
M  V30 4762 H 455.858 0.0533325 1.94827 0
M  V30 4763 H 454.954 -1.13626 2.90681 0
M  V30 4764 N 455.255 -1.55392 -0.262866 0
M  V30 4765 C 456.203 -1.8977 -1.345 0
M  V30 4766 C 457.197 -0.775063 -1.50629 0
M  V30 4767 O 458.403 -0.959519 -1.52293 0
M  V30 4768 H 454.778 -0.602467 -0.450041 0
M  V30 4769 H 456.749 -2.80147 -1.02762 0
M  V30 4770 C 455.498 -2.19501 -2.69657 0
M  V30 4771 H 454.821 -3.05378 -2.5804 0
M  V30 4772 H 456.261 -2.47469 -3.44289 0
M  V30 4773 C 454.72 -1.00597 -3.21531 0
M  V30 4774 O 455.25 -0.245768 -4.00947 0
M  V30 4775 N 453.456 -0.800911 -2.79345 0
M  V30 4776 H 453.003 -1.42079 -2.14875 0
M  V30 4777 H 452.961 -0.00697996 -3.14399 0
M  V30 4778 N 456.733 0.527833 -1.48498 0
M  V30 4779 C 457.981 1.28101 -1.56316 0
M  V30 4780 C 458.302 1.9352 -0.239781 0
M  V30 4781 O 457.572 1.81433 0.738849 0
M  V30 4782 H 456.152 0.475793 -0.575873 0
M  V30 4783 H 458.814 0.614052 -1.84974 0
M  V30 4784 H 457.91 2.05916 -2.34532 0
M  V30 4785 N 458.211 1.37122 0.776871 0
M  V30 4786 C 459.459 1.31787 1.53221 0
M  V30 4787 C 459.78 -0.0987589 1.9475 0
M  V30 4788 O 459.05 -1.0417 1.65908 0
M  V30 4789 H 457.63 0.484839 0.568278 0
M  V30 4790 H 460.292 1.71556 0.924917 0
M  V30 4791 H 459.388 1.95355 2.43398 0
M  V30 4792 N 459.689 -1.00246 1.21608 0
M  V30 4793 C 461.105 -1.26435 0.973975 0
M  V30 4794 C 461.305 -1.98642 -0.338143 0
M  V30 4795 O 460.361 -2.29026 -1.06317 0
M  V30 4796 C 461.674 -2.08551 2.16626 0
M  V30 4797 C 463.222 -2.21769 2.20879 0
M  V30 4798 C 463.697 -3.07267 3.39633 0
M  V30 4799 N 465.188 -3.14855 3.39736 0
M  V30 4800 C 465.923 -3.81274 4.28273 0
M  V30 4801 N 465.419 -4.497 5.27012 0
M  V30 4802 N 467.212 -3.7794 4.16074 0
M  V30 4803 H 459.363 -0.518089 2.05984 0
M  V30 4804 H 461.626 -0.291368 0.902113 0
M  V30 4805 H 461.332 -1.62847 3.11727 0
M  V30 4806 H 461.206 -3.09303 2.15897 0
M  V30 4807 H 463.593 -2.66691 1.26332 0
M  V30 4808 H 463.674 -1.20478 2.25652 0
M  V30 4809 H 463.318 -2.63047 4.34475 0
M  V30 4810 H 463.248 -4.08678 3.321 0
M  V30 4811 H 465.739 -2.66147 2.6828 0
M  V30 4812 H 466.052 -4.98092 5.90867 0
M  V30 4813 H 464.397 -4.48479 5.30935 0
M  V30 4814 H 467.588 -3.23638 3.38195 0
M  V30 4815 H 467.761 -4.29424 4.85282 0
M  V30 4816 N 461.167 -1.02423 -1.1978 0
M  V30 4817 C 462.099 -0.559152 -2.22275 0
M  V30 4818 C 463.112 0.36251 -1.58713 0
M  V30 4819 O 464.301 0.159641 -1.77785 0
M  V30 4820 C 461.401 0.205094 -3.38279 0
M  V30 4821 C 460.574 -0.720361 -4.31427 0
M  V30 4822 C 459.633 -0.00234368 -5.262 0
M  V30 4823 O 458.659 -0.627378 -5.65732 0
M  V30 4824 N 459.861 1.26996 -5.66438 0
M  V30 4825 H 462.626 -1.44064 -2.62804 0
M  V30 4826 H 460.187 -0.902692 -1.34399 0
M  V30 4827 H 462.179 0.694868 -3.9869 0
M  V30 4828 H 460.749 0.987947 -2.96578 0
M  V30 4829 H 459.969 -1.39031 -3.68869 0
M  V30 4830 H 461.257 -1.3495 -4.90577 0
M  V30 4831 H 460.655 1.79858 -5.36347 0
M  V30 4832 H 459.212 1.70432 -6.29123 0
M  V30 4833 N 462.645 1.35699 -0.801477 0
M  V30 4834 C 463.893 1.9852 -0.37871 0
M  V30 4835 C 464.214 1.63907 1.05638 0
M  V30 4836 O 463.484 0.919013 1.73006 0
M  V30 4837 H 462.064 0.734322 -0.137042 0
M  V30 4838 H 464.726 1.65697 -1.02619 0
M  V30 4839 H 463.822 3.08382 -0.480284 0
M  V30 4840 N 464.123 0.554532 1.47522 0
M  V30 4841 C 465.4 -0.0360704 1.95567 0
M  V30 4842 C 465.78 -1.48828 1.49711 0
M  V30 4843 O 465.128 -2.16366 0.734717 0
M  V30 4844 C 465.338 0.106631 3.48837 0
M  V30 4845 C 466.686 -0.0400899 4.24581 0
M  V30 4846 O 467.71 0.0340453 3.56184 0
M  V30 4847 O 466.569 -0.199111 5.46137 0
M  V30 4848 H 463.663 -0.0656294 0.824392 0
M  V30 4849 H 466.209 0.620867 1.57935 0
M  V30 4850 H 464.981 1.11727 3.7501 0
M  V30 4851 H 464.604 -0.58804 3.93227 0
M  V30 4852 N 465.601 -1.54893 0.290851 0
M  V30 4853 C 466.549 -2.24579 -0.605576 0
M  V30 4854 C 467.543 -1.24824 -1.14522 0
M  V30 4855 O 468.749 -1.42706 -1.09704 0
M  V30 4856 H 465.124 -0.720946 -0.213872 0
M  V30 4857 H 467.095 -2.984 0.0048173 0
M  V30 4858 C 465.844 -2.99224 -1.77088 0
M  V30 4859 H 465.167 -3.75782 -1.36484 0
M  V30 4860 H 466.607 -3.51281 -2.3744 0
M  V30 4861 C 465.066 -2.05602 -2.66888 0
M  V30 4862 O 465.596 -1.61745 -3.67698 0
M  V30 4863 N 463.802 -1.71771 -2.34399 0
M  V30 4864 H 463.349 -2.07633 -1.52468 0
M  V30 4865 H 463.307 -1.09403 -2.94751 0
M  V30 4866 N 467.08 -0.0183926 -1.57589 0
M  V30 4867 C 468.32 0.666846 -1.93216 0
M  V30 4868 C 468.684 1.69905 -0.894215 0
M  V30 4869 O 469.885 2.436 -1.13633 0
M  V30 4870 C 468.156 1.27684 -3.33814 0
M  V30 4871 S 469.715 1.98464 -3.91353 0
M  V30 4872 H 466.533 0.219826 -0.676164 0
M  V30 4873 H 469.135 -0.0794893 -1.95338 0
M  V30 4874 H 467.839 0.513006 -4.07181 0
M  V30 4875 H 467.37 2.06071 -3.3511 0
M  V30 4876 H 469.385 3.26189 -3.73918 0
M  V30 4877 N 468.558 1.5553 0.254621 0
M  V30 4878 C 469.835 1.6774 1.00611 0
M  V30 4879 C 470.215 0.555993 2.03647 0
M  V30 4880 O 469.563 -0.441583 2.24193 0
M  V30 4881 C 469.773 3.07725 1.6464 0
M  V30 4882 C 471.121 3.66074 2.15116 0
M  V30 4883 O 472.145 3.10476 1.74595 0
M  V30 4884 O 471.004 4.63526 2.89493 0
M  V30 4885 H 468.098 0.681958 0.467828 0
M  V30 4886 H 470.644 1.67863 0.24902 0
M  V30 4887 H 469.416 3.80792 0.900734 0
M  V30 4888 H 469.039 3.1158 2.46989 0
M  V30 4889 N 470.036 -0.519951 1.48776 0
M  V30 4890 C 471.276 -1.2856 1.58908 0
M  V30 4891 C 471.64 -1.90212 0.261418 0
M  V30 4892 O 472.841 -2.67746 0.237791 0
M  V30 4893 C 471.112 -2.33836 2.70288 0
M  V30 4894 S 472.671 -3.19992 3.0025 0
M  V30 4895 H 469.489 -0.43717 0.560717 0
M  V30 4896 H 472.091 -0.591205 1.86346 0
M  V30 4897 H 470.795 -1.87041 3.653 0
M  V30 4898 H 470.326 -3.07969 2.44783 0
M  V30 4899 H 472.341 -4.34122 2.40317 0
M  V30 4900 N 471.514 -1.37532 -0.769588 0
M  V30 4901 C 472.791 -1.23392 -1.51768 0
M  V30 4902 C 473.171 0.17157 -2.10402 0
M  V30 4903 O 472.519 1.17943 -1.95708 0
M  V30 4904 C 472.729 -2.33163 -2.59685 0
M  V30 4905 C 474.077 -2.70809 -3.27028 0
M  V30 4906 O 475.101 -2.32355 -2.69981 0
M  V30 4907 O 473.96 -3.37066 -4.30173 0
M  V30 4908 H 471.054 -0.481617 -0.67229 0
M  V30 4909 H 473.6 -1.49318 -0.806368 0
M  V30 4910 H 472.372 -3.27273 -2.14494 0
M  V30 4911 H 471.995 -2.08713 -3.38415 0
M  V30 4912 N 472.992 0.995999 -1.22138 0
M  V30 4913 C 474.24 1.73167 -1.042 0
M  V30 4914 C 474.561 1.90329 0.42423 0
M  V30 4915 O 473.831 1.4607 1.30539 0
M  V30 4916 H 472.411 0.641593 -0.38258 0
M  V30 4917 H 475.073 1.19974 -1.53598 0
M  V30 4918 H 474.169 2.72734 -1.51731 0
M  V30 4919 N 474.47 1.03057 1.19235 0
M  V30 4920 C 475.7 0.746613 1.92638 0
M  V30 4921 C 476.108 -0.698708 1.75826 0
M  V30 4922 O 475.451 -1.487 1.07861 0
M  V30 4923 C 475.513 1.02024 3.44719 0
M  V30 4924 C 475.177 2.45745 3.85303 0
M  V30 4925 C 476.174 3.43887 3.8992 0
M  V30 4926 C 473.859 2.8019 4.16892 0
M  V30 4927 C 475.853 4.74529 4.2556 0
M  V30 4928 C 473.54 4.1104 4.52205 0
M  V30 4929 C 474.538 5.0802 4.56513 0
M  V30 4930 O 474.226 6.36527 4.91008 0
M  V30 4931 H 473.958 0.272401 0.618687 0
M  V30 4932 H 476.512 1.37853 1.52269 0
M  V30 4933 H 474.742 0.331184 3.85279 0
M  V30 4934 H 476.431 0.725677 3.9936 0
M  V30 4935 H 477.197 3.18614 3.65664 0
M  V30 4936 H 473.076 2.05382 4.12722 0
M  V30 4937 H 476.62 5.50222 4.28838 0
M  V30 4938 H 472.517 4.36086 4.7592 0
M  V30 4939 H 473.285 6.41025 5.08949 0
M  V30 4940 N 475.948 -1.35272 0.808662 0
M  V30 4941 C 477.176 -2.02946 0.402537 0
M  V30 4942 C 477.591 -1.60937 -0.987147 0
M  V30 4943 O 476.948 -0.807917 -1.63643 0
M  V30 4944 C 476.999 -3.58317 0.47868 0
M  V30 4945 O 476.72 -3.98799 1.81358 0
M  V30 4946 C 478.221 -4.43251 0.0656281 0
M  V30 4947 H 475.441 -0.650831 0.163279 0
M  V30 4948 H 477.985 -1.72849 1.09286 0
M  V30 4949 H 476.14 -3.87055 -0.163415 0
M  V30 4950 H 476.554 -4.93451 1.77781 0
M  V30 4951 H 478.028 -5.51738 0.170017 0
M  V30 4952 H 478.505 -4.27913 -0.989278 0
M  V30 4953 H 479.111 -4.19813 0.68096 0
M  V30 4954 N 477.426 -0.562348 -1.47226 0
M  V30 4955 C 478.703 0.0256985 -1.95583 0
M  V30 4956 C 479.083 1.48032 -1.50498 0
M  V30 4957 O 478.431 2.15973 -0.746181 0
M  V30 4958 C 478.641 -0.125129 -3.48776 0
M  V30 4959 C 479.989 0.0175728 -4.24596 0
M  V30 4960 O 481.013 -0.0529341 -3.56161 0
M  V30 4961 O 479.872 0.170145 -5.46235 0
M  V30 4962 H 476.966 0.0612565 -0.824728 0
M  V30 4963 H 479.512 -0.629233 -1.57603 0
M  V30 4964 H 478.284 -1.13715 -3.74412 0
M  V30 4965 H 477.907 0.567178 -3.93534 0
M  V30 4966 N 478.904 1.54736 -0.299062 0
M  V30 4967 C 480.129 2.04975 0.316254 0
M  V30 4968 C 480.554 1.17501 1.46885 0
M  V30 4969 O 479.912 0.178678 1.80417 0
M  V30 4970 C 479.96 3.52672 0.751997 0
M  V30 4971 O 479.064 3.68226 1.85697 0
M  V30 4972 H 478.405 0.661126 0.0617175 0
M  V30 4973 H 480.935 1.99805 -0.440341 0
M  V30 4974 H 480.945 3.94488 1.04133 0
M  V30 4975 H 479.62 4.158 -0.0911482 0
M  V30 4976 H 478.197 3.38316 1.56834 0
M  V30 4977 N 480.382 0.0267497 1.57577 0
M  V30 4978 C 481.631 -0.651736 1.9088 0
M  V30 4979 C 481.944 -1.73427 0.904576 0
M  V30 4980 O 483.15 -2.46923 1.12877 0
M  V30 4981 C 481.606 -1.21048 3.38933 0
M  V30 4982 C 481.214 -0.161362 4.47709 0
M  V30 4983 C 482.958 -1.86562 3.81307 0
M  V30 4984 C 480.865 -0.731611 5.86857 0
M  V30 4985 H 479.795 -0.247198 0.712326 0
M  V30 4986 H 482.446 0.0916641 1.83271 0
M  V30 4987 H 480.828 -2.00542 3.41466 0
M  V30 4988 H 482.002 0.61094 4.56732 0
M  V30 4989 H 480.317 0.394877 4.14523 0
M  V30 4990 H 482.914 -2.30178 4.8262 0
M  V30 4991 H 483.257 -2.70735 3.16241 0
M  V30 4992 H 483.79 -1.13762 3.81186 0
M  V30 4993 H 480.529 0.0719329 6.55461 0
M  V30 4994 H 480.049 -1.47245 5.81445 0
M  V30 4995 H 481.728 -1.22208 6.35354 0
M  V30 4996 N 481.861 -1.55662 -0.24637 0
M  V30 4997 C 483.091 -1.81312 -0.990438 0
M  V30 4998 C 483.499 -0.600234 -1.79426 0
M  V30 4999 O 482.842 0.440537 -1.78339 0
M  V30 5000 C 482.904 -3.0032 -1.97607 0
M  V30 5001 C 482.568 -4.36322 -1.35912 0
M  V30 5002 C 483.565 -5.14295 -0.761348 0
M  V30 5003 C 481.25 -4.83019 -1.37833 0
M  V30 5004 C 483.244 -6.37114 -0.190998 0
M  V30 5005 C 480.931 -6.05786 -0.804128 0
M  V30 5006 C 481.929 -6.82672 -0.211489 0
M  V30 5007 O 481.617 -8.03121 0.353845 0
M  V30 5008 H 481.349 -0.607233 -0.297058 0
M  V30 5009 H 483.903 -2.0356 -0.274351 0
M  V30 5010 H 482.133 -2.73829 -2.73047 0
M  V30 5011 H 483.822 -3.13057 -2.58361 0
M  V30 5012 H 484.588 -4.79337 -0.739013 0
M  V30 5013 H 480.467 -4.23165 -1.829 0
M  V30 5014 H 484.011 -6.97069 0.272206 0
M  V30 5015 H 479.908 -6.40222 -0.823792 0
M  V30 5016 H 480.676 -8.18131 0.245761 0
M  V30 5017 N 483.339 0.512053 -1.4905 0
M  V30 5018 C 484.567 1.29116 -1.61669 0
M  V30 5019 C 484.982 1.86655 -0.283787 0
M  V30 5020 O 484.339 1.67293 0.729331 0
M  V30 5021 C 484.39 2.4293 -2.67707 0
M  V30 5022 O 484.111 1.87758 -3.95826 0
M  V30 5023 C 485.612 3.34476 -2.90931 0
M  V30 5024 H 482.832 0.392009 -0.544583 0
M  V30 5025 H 485.376 0.615881 -1.95006 0
M  V30 5026 H 483.531 3.06308 -2.37179 0
M  V30 5027 H 483.945 2.62393 -4.54148 0
M  V30 5028 H 485.419 4.10642 -3.68886 0
M  V30 5029 H 485.896 3.90801 -2.00427 0
M  V30 5030 H 486.502 2.76874 -3.22832 0
M  V30 5031 N 484.817 1.37938 0.762283 0
M  V30 5032 C 486.066 1.32989 1.51647 0
M  V30 5033 C 486.379 -0.0802922 1.95435 0
M  V30 5034 O 487.585 -0.252295 2.70325 0
M  V30 5035 C 486.041 2.33485 2.73885 0
M  V30 5036 C 485.649 3.80079 2.37157 0
M  V30 5037 C 487.393 2.37563 3.51801 0
M  V30 5038 C 485.3 4.72283 3.55954 0
M  V30 5039 H 484.23 0.494301 0.56937 0
M  V30 5040 H 486.881 1.63448 0.834083 0
M  V30 5041 H 485.263 1.96056 3.44061 0
M  V30 5042 H 486.437 4.26398 1.74704 0
M  V30 5043 H 484.752 3.79037 1.72395 0
M  V30 5044 H 487.349 3.0365 4.40114 0
M  V30 5045 H 487.692 1.39199 3.92338 0
M  V30 5046 H 488.225 2.73747 2.8863 0
M  V30 5047 H 484.964 5.7181 3.2049 0
M  V30 5048 H 484.484 4.30663 4.1748 0
M  V30 5049 H 486.163 4.89876 4.22647 0
M  V30 5050 N 486.295 -0.989507 1.22664 0
M  V30 5051 C 487.52 -1.77031 1.08051 0
M  V30 5052 C 487.945 -1.84535 -0.364483 0
M  V30 5053 O 487.303 -1.3003 -1.2634 0
M  V30 5054 C 487.351 -3.18 1.70024 0
M  V30 5055 O 486.455 -4.01161 0.956216 0
M  V30 5056 H 485.796 -0.545008 0.379292 0
M  V30 5057 H 488.326 -1.24277 1.62531 0
M  V30 5058 H 488.336 -3.68616 1.74888 0
M  V30 5059 H 487.011 -3.11853 2.75174 0
M  V30 5060 H 485.588 -3.59687 0.98384 0
M  V30 5061 N 487.773 -1.03688 -1.18687 0
M  V30 5062 C 489.022 -0.733235 -1.879 0
M  V30 5063 C 489.335 0.741745 -1.8099 0
M  V30 5064 O 490.541 1.15875 -2.4553 0
M  V30 5065 C 488.997 -1.26127 -3.37076 0
M  V30 5066 C 488.605 -2.76461 -3.52524 0
M  V30 5067 C 490.349 -1.03398 -4.11715 0
M  V30 5068 C 488.256 -3.22642 -4.95637 0
M  V30 5069 H 487.186 -0.270584 -0.703776 0
M  V30 5070 H 489.837 -1.25222 -1.34133 0
M  V30 5071 H 488.219 -0.670165 -3.90288 0
M  V30 5072 H 489.393 -3.41296 -3.09602 0
M  V30 5073 H 487.708 -2.97559 -2.91286 0
M  V30 5074 H 490.305 -1.3542 -5.17267 0
M  V30 5075 H 490.648 0.0289246 -4.1629 0
M  V30 5076 H 491.181 -1.5895 -3.64664 0
M  V30 5077 H 487.92 -4.28296 -4.96228 0
M  V30 5078 H 487.44 -2.62539 -5.39289 0
M  V30 5079 H 489.119 -3.16444 -5.64333 0
M  V30 5080 N 489.251 1.34841 -0.815825 0
M  V30 5081 C 490.476 2.03261 -0.41226 0
M  V30 5082 C 490.901 1.61055 0.971751 0
M  V30 5083 O 490.259 0.7917 1.63101 0
M  V30 5084 C 490.307 3.56914 -0.514289 0
M  V30 5085 O 489.411 4.09728 0.468675 0
M  V30 5086 H 488.752 0.641664 -0.170771 0
M  V30 5087 H 491.282 1.72241 -1.10427 0
M  V30 5088 H 491.292 4.06156 -0.387457 0
M  V30 5089 H 489.967 3.86982 -1.52375 0
M  V30 5090 H 488.544 3.71681 0.301316 0
M  V30 5091 N 490.729 0.570148 1.46925 0
M  V30 5092 C 491.954 0.0542592 2.07329 0
M  V30 5093 C 492.379 -1.23582 1.41806 0
M  V30 5094 O 491.737 -1.74341 0.497479 0
M  V30 5095 C 491.785 -0.111175 3.60429 0
M  V30 5096 O 490.889 -1.17071 3.95434 0
M  V30 5097 H 490.23 0.0571425 0.661537 0
M  V30 5098 H 492.76 0.789516 1.88753 0
M  V30 5099 H 492.77 -0.321315 4.06733 0
M  V30 5100 H 491.445 0.831012 4.07513 0
M  V30 5101 H 490.022 -0.940029 3.60857 0
M  V30 5102 N 492.207 -1.54576 0.307264 0
M  V30 5103 C 493.17 -2.22423 -0.553224 0
M  V30 5104 C 494.17 -1.21231 -1.05639 0
M  V30 5105 O 495.36 -1.45923 -0.951419 0
M  V30 5106 C 492.492 -2.91552 -1.76664 0
M  V30 5107 H 493.685 -2.99874 0.0396484 0
M  V30 5108 H 491.238 -1.56192 0.0581629 0
M  V30 5109 H 491.973 -2.18196 -2.39918 0
M  V30 5110 H 491.758 -3.65738 -1.41343 0
M  V30 5111 H 493.248 -3.43292 -2.37783 0
M  V30 5112 N 493.685 -0.035106 -1.57561 0
M  V30 5113 C 494.91 0.655802 -1.96759 0
M  V30 5114 C 495.335 1.64523 -0.911809 0
M  V30 5115 O 494.693 1.80857 0.126673 0
M  V30 5116 C 494.741 1.33326 -3.35047 0
M  V30 5117 O 493.845 2.44866 -3.31835 0
M  V30 5118 H 493.186 0.171807 -0.641388 0
M  V30 5119 H 495.716 -0.0987369 -2.04362 0
M  V30 5120 H 495.726 1.68867 -3.71413 0
M  V30 5121 H 494.401 0.608033 -4.11431 0
M  V30 5122 H 492.978 2.11392 -3.07193 0
M  V30 5123 N 495.163 1.55791 0.238111 0
M  V30 5124 C 496.095 1.87513 1.31802 0
M  V30 5125 C 497.108 0.762053 1.43863 0
M  V30 5126 O 498.297 1.04024 1.45056 0
M  V30 5127 C 495.397 2.05402 2.69561 0
M  V30 5128 C 494.57 3.3632 2.79656 0
M  V30 5129 C 493.629 3.43844 3.98319 0
M  V30 5130 O 492.655 4.16994 3.87433 0
M  V30 5131 N 493.857 2.73777 5.11885 0
M  V30 5132 H 496.622 2.80734 1.04922 0
M  V30 5133 H 494.183 1.56135 0.428196 0
M  V30 5134 H 496.175 2.07769 3.47296 0
M  V30 5135 H 494.745 1.18884 2.89111 0
M  V30 5136 H 493.965 3.46195 1.88528 0
M  V30 5137 H 495.253 4.22594 2.83358 0
M  V30 5138 H 494.651 2.14094 5.23622 0
M  V30 5139 H 493.208 2.81825 5.87723 0
M  V30 5140 N 496.642 -0.504142 1.49319 0
M  V30 5141 C 497.574 -1.62265 1.61872 0
M  V30 5142 C 498.587 -1.54881 0.501573 0
M  V30 5143 O 499.776 -1.6087 0.773497 0
M  V30 5144 C 496.876 -3.01042 1.55651 0
M  V30 5145 C 496.049 -3.33642 2.82845 0
M  V30 5146 C 495.108 -4.51816 2.69719 0
M  V30 5147 O 494.134 -4.53755 3.4365 0
M  V30 5148 N 495.336 -5.51543 1.81055 0
M  V30 5149 H 498.101 -1.51924 2.58339 0
M  V30 5150 H 495.662 -0.691954 1.46368 0
M  V30 5151 H 497.654 -3.78013 1.44528 0
M  V30 5152 H 496.224 -3.05323 0.670546 0
M  V30 5153 H 495.444 -2.45598 3.08343 0
M  V30 5154 H 496.732 -3.5222 3.67177 0
M  V30 5155 H 496.13 -5.52774 1.20241 0
M  V30 5156 H 494.687 -6.27629 1.75856 0
M  V30 5157 N 498.12 -1.38341 -0.754957 0
M  V30 5158 C 499.368 -1.34208 -1.51105 0
M  V30 5159 C 499.689 0.0677634 -1.94882 0
M  V30 5160 O 498.959 1.01517 -1.67544 0
M  V30 5161 H 497.539 -0.493819 -0.560493 0
M  V30 5162 H 500.201 -1.73005 -0.897507 0
M  V30 5163 H 499.297 -1.99203 -2.4026 0
M  V30 5164 N 499.598 0.982988 -1.23187 0
M  V30 5165 C 500.528 2.09301 -1.03515 0
M  V30 5166 C 501.509 1.70035 0.0471136 0
M  V30 5167 O 502.694 1.93847 -0.117029 0
M  V30 5168 C 499.824 3.4167 -0.622791 0
M  V30 5169 C 498.778 3.94828 -1.65211 0
M  V30 5170 C 498.104 5.23362 -1.09527 0
M  V30 5171 C 499.404 4.2439 -3.04451 0
M  V30 5172 H 501.098 2.26016 -1.96359 0
M  V30 5173 H 498.644 1.08611 -0.945501 0
M  V30 5174 H 500.597 4.18746 -0.472233 0
M  V30 5175 H 499.321 3.24811 0.341329 0
M  V30 5176 H 497.98 3.19895 -1.79061 0
M  V30 5177 H 497.628 5.02852 -0.122211 0
M  V30 5178 H 497.328 5.59895 -1.783 0
M  V30 5179 H 498.852 6.03062 -0.956511 0
M  V30 5180 H 500.266 4.92225 -2.93917 0
M  V30 5181 H 498.663 4.72118 -3.70438 0
M  V30 5182 H 499.733 3.31765 -3.53638 0
M  V30 5183 N 501.076 1.04316 1.18135 0
M  V30 5184 C 502.301 0.768047 1.92655 0
M  V30 5185 C 502.726 -0.66904 1.758 0
M  V30 5186 O 502.084 -1.46372 1.06981 0
M  V30 5187 C 502.132 1.14239 3.42026 0
M  V30 5188 O 501.236 0.269333 4.1152 0
M  V30 5189 H 500.577 0.282436 0.600937 0
M  V30 5190 H 503.107 1.39367 1.49793 0
M  V30 5191 H 503.117 1.10538 3.92741 0
M  V30 5192 H 501.792 2.18928 3.53615 0
M  V30 5193 H 500.369 0.366175 3.71098 0
M  V30 5194 N 502.554 -1.34406 0.822964 0
M  V30 5195 C 503.965 -1.8069 0.469879 0
M  V30 5196 C 504.316 -1.68223 -1.00972 0
M  V30 5197 O 503.441 -1.22226 -1.78577 0
M  V30 5198 C 504.036 -3.28064 0.846118 0
M  V30 5199 C 502.595 -3.72428 0.545402 0
M  V30 5200 C 501.742 -2.56116 1.06301 0
M  V30 5201 H 504.693 -1.22153 1.01313 0
M  V30 5202 H 504.714 -3.80205 0.149922 0
M  V30 5203 H 504.226 -3.37107 1.92304 0
M  V30 5204 H 502.327 -3.68924 -0.522109 0
M  V30 5205 H 502.44 -4.66548 1.0895 0
M  V30 5206 H 500.804 -2.50048 0.484554 0
M  V30 5207 H 501.587 -2.67928 2.14638 0
M  V30 5208 N 504.032 -0.577932 -1.46621 0
M  V30 5209 C 505.278 -0.0700937 -2.03279 0
M  V30 5210 C 505.633 1.27376 -1.44198 0
M  V30 5211 O 504.926 1.82097 -0.595911 0
M  V30 5212 C 505.12 0.0590832 -3.57351 0
M  V30 5213 C 504.949 -1.2707 -4.31374 0
M  V30 5214 C 503.719 -1.84357 -4.70469 0
M  V30 5215 C 505.917 -2.19278 -4.65211 0
M  V30 5216 N 503.899 -3.11124 -5.29221 0
M  V30 5217 C 505.27 -3.30631 -5.24484 0
M  V30 5218 C 507.325 -2.19018 -4.47142 0
M  V30 5219 C 506.028 -4.41849 -5.67593 0
M  V30 5220 C 508.054 -3.29262 -4.91264 0
M  V30 5221 C 507.416 -4.39335 -5.50604 0
M  V30 5222 H 503.515 -0.0683127 -0.779011 0
M  V30 5223 H 506.099 -0.76978 -1.78836 0
M  V30 5224 H 504.27 0.727929 -3.81518 0
M  V30 5225 H 506.002 0.57087 -4.00653 0
M  V30 5226 H 502.757 -1.37906 -4.53077 0
M  V30 5227 H 503.181 -3.75794 -5.63123 0
M  V30 5228 H 507.823 -1.35191 -4.00604 0
M  V30 5229 H 505.541 -5.26421 -6.13112 0
M  V30 5230 H 509.127 -3.30172 -4.79038 0
M  V30 5231 H 508.007 -5.23233 -5.84121 0
M  V30 5232 N 505.51 1.54411 -0.315457 0
M  V30 5233 C 506.74 2.04536 0.291315 0
M  V30 5234 C 507.148 1.19162 1.4696 0
M  V30 5235 O 506.491 0.213199 1.82459 0
M  V30 5236 C 506.553 3.5056 0.796725 0
M  V30 5237 C 506.217 4.5627 -0.258178 0
M  V30 5238 C 507.214 5.08312 -1.09153 0
M  V30 5239 C 504.899 5.00672 -0.404036 0
M  V30 5240 C 506.893 6.03312 -2.05655 0
M  V30 5241 C 504.58 5.95488 -1.37248 0
M  V30 5242 C 505.578 6.46693 -2.19721 0
M  V30 5243 O 505.266 7.39648 -3.14921 0
M  V30 5244 H 504.998 0.672856 0.0651165 0
M  V30 5245 H 507.552 2.00244 -0.457308 0
M  V30 5246 H 505.782 3.52223 1.59612 0
M  V30 5247 H 507.471 3.83804 1.32096 0
M  V30 5248 H 508.237 4.74793 -0.98979 0
M  V30 5249 H 504.116 4.60436 0.22799 0
M  V30 5250 H 507.66 6.43203 -2.70067 0
M  V30 5251 H 503.557 6.28424 -1.47489 0
M  V30 5252 H 504.325 7.57496 -3.10067 0
M  V30 5253 N 506.988 0.0434614 1.5754 0
M  V30 5254 C 507.951 -0.918696 2.09982 0
M  V30 5255 C 508.951 -1.24488 1.01781 0
M  V30 5256 O 510.141 -1.18284 1.27885 0
M  V30 5257 C 507.273 -2.23093 2.57764 0
M  V30 5258 H 508.466 -0.464229 2.96285 0
M  V30 5259 H 506.019 -0.204818 1.54952 0
M  V30 5260 H 506.754 -2.73137 1.74832 0
M  V30 5261 H 506.539 -2.00724 3.36827 0
M  V30 5262 H 508.029 -2.92028 2.98512 0
M  V30 5263 N 508.466 -1.55915 -0.229846 0
M  V30 5264 C 509.376 -1.94891 -1.30593 0
M  V30 5265 C 510.392 -0.851604 -1.51736 0
M  V30 5266 O 511.568 -1.15447 -1.65027 0
M  V30 5267 C 508.633 -2.25052 -2.63728 0
M  V30 5268 C 507.694 -3.48306 -2.5096 0
M  V30 5269 C 506.927 -3.77019 -3.77747 0
M  V30 5270 O 507.15 -3.07534 -4.80395 0
M  V30 5271 O 506.084 -4.70523 -3.75356 0
M  V30 5272 H 509.91 -2.86581 -1.00525 0
M  V30 5273 H 507.495 -1.43017 -0.432025 0
M  V30 5274 H 509.377 -2.45682 -3.42372 0
M  V30 5275 H 508.052 -1.36538 -2.93495 0
M  V30 5276 H 506.959 -3.32964 -1.70546 0
M  V30 5277 H 508.292 -4.37177 -2.26136 0
M  V30 5278 N 509.944 0.496216 -1.49584 0
M  V30 5279 C 510.891 1.59722 -1.66606 0
M  V30 5280 C 511.861 1.58158 -0.507477 0
M  V30 5281 O 513.046 1.76072 -0.735076 0
M  V30 5282 C 510.186 2.97844 -1.74308 0
M  V30 5283 C 509.299 3.09388 -3.01502 0
M  V30 5284 C 508.434 4.38271 -3.00153 0
M  V30 5285 C 507.473 4.43466 -4.21906 0
M  V30 5286 N 506.61 5.63784 -4.1844 0
M  V30 5287 H 511.45 1.44515 -2.60613 0
M  V30 5288 H 508.987 0.703048 -1.29212 0
M  V30 5289 H 510.945 3.77907 -1.76754 0
M  V30 5290 H 509.575 3.11743 -0.837619 0
M  V30 5291 H 508.627 2.22357 -3.08645 0
M  V30 5292 H 509.939 3.09085 -3.91494 0
M  V30 5293 H 509.093 5.2666 -3.01188 0
M  V30 5294 H 507.832 4.41146 -2.07947 0
M  V30 5295 H 506.837 3.53478 -4.21109 0
M  V30 5296 H 508.062 4.42303 -5.1531 0
M  V30 5297 H 506.008 5.67491 -3.29074 0
M  V30 5298 H 505.925 5.65118 -5.02173 0
M  V30 5299 H 507.193 6.54367 -4.23585 0
M  V30 5300 N 511.423 1.38739 0.74761 0
M  V30 5301 C 512.663 1.36695 1.51966 0
M  V30 5302 C 513.027 -0.0411889 1.91956 0
M  V30 5303 O 514.228 -0.186543 2.68152 0
M  V30 5304 C 512.499 2.30119 2.73459 0
M  V30 5305 S 514.058 2.4615 3.63257 0
M  V30 5306 H 510.876 0.484929 0.519966 0
M  V30 5307 H 513.478 1.7472 0.877104 0
M  V30 5308 H 512.182 3.31312 2.422 0
M  V30 5309 H 511.713 1.93265 3.42655 0
M  V30 5310 H 513.728 1.69001 4.66533 0
M  V30 5311 N 512.901 -0.976442 1.23707 0
M  V30 5312 C 514.126 -1.75875 1.09922 0
M  V30 5313 C 514.551 -1.84911 -0.34489 0
M  V30 5314 O 513.909 -1.31363 -1.24954 0
M  V30 5315 C 513.957 -3.16179 1.73388 0
M  V30 5316 O 513.061 -4.00124 0.99871 0
M  V30 5317 H 512.402 -0.540954 0.385052 0
M  V30 5318 H 514.932 -1.22546 1.6384 0
M  V30 5319 H 514.942 -3.66741 1.78788 0
M  V30 5320 H 513.617 -3.08917 2.78466 0
M  V30 5321 H 512.194 -3.58624 1.02193 0
M  V30 5322 N 514.379 -1.04941 -1.1758 0
M  V30 5323 C 515.604 -0.778253 -1.92245 0
M  V30 5324 C 516.029 0.659707 -1.76152 0
M  V30 5325 O 515.387 1.45803 -1.07755 0
M  V30 5326 C 515.435 -1.16051 -3.41416 0
M  V30 5327 O 514.539 -0.291153 -4.11371 0
M  V30 5328 H 513.88 -0.285619 -0.599431 0
M  V30 5329 H 516.41 -1.40159 -1.49052 0
M  V30 5330 H 516.42 -1.12619 -3.92149 0
M  V30 5331 H 515.095 -2.208 -3.52449 0
M  V30 5332 H 513.672 -0.385851 -3.70898 0
M  V30 5333 N 515.857 1.33968 -0.830081 0
M  V30 5334 C 517.085 2.0228 -0.434773 0
M  V30 5335 C 517.5 1.62487 0.961419 0
M  V30 5336 O 516.857 0.833849 1.62337 0
M  V30 5337 C 516.908 3.5751 -0.535625 0
M  V30 5338 O 516.629 3.95864 -1.87679 0
M  V30 5339 C 518.13 4.43091 -0.136137 0
M  V30 5340 H 515.35 0.648151 -0.173613 0
M  V30 5341 H 517.894 1.71089 -1.12022 0
M  V30 5342 H 516.049 3.87266 0.101817 0
M  V30 5343 H 516.463 4.9056 -1.85609 0
M  V30 5344 H 517.937 5.51398 -0.257772 0
M  V30 5345 H 518.414 4.29433 0.921076 0
M  V30 5346 H 519.02 4.18677 -0.747662 0
M  V30 5347 N 517.335 0.585699 1.46312 0
M  V30 5348 C 518.265 -0.133556 2.33118 0
M  V30 5349 C 519.246 -0.880707 1.45525 0
M  V30 5350 O 520.431 -0.855579 1.74337 0
M  V30 5351 C 517.561 -1.14585 3.27853 0
M  V30 5352 C 516.515 -0.513341 4.2491 0
M  V30 5353 C 515.841 -1.63231 5.09175 0
M  V30 5354 C 517.141 0.551413 5.19381 0
M  V30 5355 H 518.835 0.59121 2.93505 0
M  V30 5356 H 516.381 0.285761 1.41136 0
M  V30 5357 H 518.334 -1.65741 3.87438 0
M  V30 5358 H 517.058 -1.90093 2.65579 0
M  V30 5359 H 515.717 -0.0228349 3.66593 0
M  V30 5360 H 515.365 -2.37713 4.43285 0
M  V30 5361 H 515.065 -1.21473 5.74907 0
M  V30 5362 H 516.589 -2.14658 5.71624 0
M  V30 5363 H 518.003 0.124804 5.73164 0
M  V30 5364 H 516.4 0.889486 5.93471 0
M  V30 5365 H 517.47 1.43655 4.63132 0
M  V30 5366 N 518.813 -1.54241 0.323641 0
M  V30 5367 C 519.776 -2.22997 -0.529602 0
M  V30 5368 C 520.776 -1.22345 -1.04347 0
M  V30 5369 O 521.966 -1.46924 -0.935889 0
M  V30 5370 C 519.098 -2.93409 -1.73562 0
M  V30 5371 H 520.291 -2.99815 0.0714518 0
M  V30 5372 H 517.844 -1.56121 0.0747258 0
M  V30 5373 H 518.579 -2.20729 -2.37591 0
M  V30 5374 H 518.364 -3.67217 -1.37456 0
M  V30 5375 H 519.854 -3.45794 -2.34128 0
M  V30 5376 N 520.291 -0.0518155 -1.57515 0
M  V30 5377 C 521.519 0.631395 -1.9703 0
M  V30 5378 C 521.934 1.64341 -0.92938 0
M  V30 5379 O 521.291 1.82296 0.0863266 0
M  V30 5380 C 521.342 1.31774 -3.36627 0
M  V30 5381 O 521.063 0.346247 -4.3673 0
M  V30 5382 C 522.564 2.09065 -3.90905 0
M  V30 5383 H 519.784 0.172576 -0.648428 0
M  V30 5384 H 522.328 -0.118306 -2.04158 0
M  V30 5385 H 520.483 2.01867 -3.30649 0
M  V30 5386 H 520.897 0.836226 -5.17791 0
M  V30 5387 H 522.371 2.52508 -4.9086 0
M  V30 5388 H 522.848 2.93908 -3.26366 0
M  V30 5389 H 523.454 1.43882 -4.00223 0
M  V30 5390 N 521.769 1.56035 0.221574 0
M  V30 5391 C 522.994 1.83476 0.967026 0
M  V30 5392 C 523.419 0.632139 1.7716 0
M  V30 5393 O 522.777 -0.419082 1.7639 0
M  V30 5394 C 522.825 3.08907 1.86034 0
M  V30 5395 O 521.929 2.876 2.95567 0
M  V30 5396 H 521.27 0.604913 0.273817 0
M  V30 5397 H 523.8 2.03247 0.234893 0
M  V30 5398 H 523.81 3.3901 2.27016 0
M  V30 5399 H 522.485 3.96068 1.26898 0
M  V30 5400 H 521.062 2.6873 2.58532 0
M  V30 5401 N 523.247 -0.488276 1.49845 0
M  V30 5402 C 524.477 -1.26344 1.63465 0
M  V30 5403 C 524.885 -1.86637 0.310379 0
M  V30 5404 O 524.228 -1.69184 -0.715712 0
M  V30 5405 C 524.29 -2.42407 2.65479 0
M  V30 5406 C 523.954 -2.02886 4.09495 0
M  V30 5407 C 524.951 -1.56124 4.95904 0
M  V30 5408 C 522.636 -2.12131 4.55308 0
M  V30 5409 C 524.63 -1.19129 6.26169 0
M  V30 5410 C 522.317 -1.74747 5.85582 0
M  V30 5411 C 523.315 -1.28322 6.70837 0
M  V30 5412 O 523.003 -0.914491 7.98682 0
M  V30 5413 H 522.735 -0.388921 0.552916 0
M  V30 5414 H 525.289 -0.591288 1.96705 0
M  V30 5415 H 523.519 -3.12739 2.27445 0
M  V30 5416 H 525.208 -3.04409 2.68495 0
M  V30 5417 H 525.974 -1.48417 4.61733 0
M  V30 5418 H 521.853 -2.47217 3.89107 0
M  V30 5419 H 525.397 -0.828211 6.92666 0
M  V30 5420 H 521.294 -1.82109 6.19279 0
M  V30 5421 H 522.062 -1.04485 8.11804 0
M  V30 5422 N 524.725 -1.39134 -0.740242 0
M  V30 5423 C 525.95 -1.39518 -1.53459 0
M  V30 5424 C 526.375 0.00968883 -1.88098 0
M  V30 5425 O 525.733 0.995312 -1.51536 0
M  V30 5426 C 525.781 -2.26981 -2.802 0
M  V30 5427 O 524.885 -1.69609 -3.75908 0
M  V30 5428 H 524.226 -0.475328 -0.463637 0
M  V30 5429 H 526.756 -1.83064 -0.913717 0
M  V30 5430 H 526.766 -2.41309 -3.28989 0
M  V30 5431 H 525.441 -3.29081 -2.5432 0
M  V30 5432 H 524.018 -1.64495 -3.34658 0
M  V30 5433 N 526.204 0.969867 -1.24223 0
M  V30 5434 C 527.429 1.75289 -1.10853 0
M  V30 5435 C 527.854 1.85091 0.335079 0
M  V30 5436 O 527.212 1.32024 1.24255 0
M  V30 5437 C 527.26 3.15255 -1.75062 0
M  V30 5438 O 526.364 3.99589 -1.01992 0
M  V30 5439 H 525.705 0.538904 -0.387915 0
M  V30 5440 H 528.235 1.21675 -1.64488 0
M  V30 5441 H 528.245 3.65787 -1.80731 0
M  V30 5442 H 526.92 3.07436 -2.801 0
M  V30 5443 H 525.497 3.58077 -1.04094 0
M  V30 5444 N 527.682 1.05563 1.17022 0
M  V30 5445 C 528.93 0.76642 1.87004 0
M  V30 5446 C 529.251 -0.708854 1.8166 0
M  V30 5447 O 528.521 -1.51242 1.2451 0
M  V30 5448 H 527.101 0.280516 0.692329 0
M  V30 5449 H 529.763 1.33557 1.41945 0
M  V30 5450 H 528.859 1.08472 2.92644 0
M  V30 5451 N 529.16 -1.33526 0.837174 0
M  V30 5452 C 530.437 -1.92369 0.354065 0
M  V30 5453 C 530.817 -1.76348 -1.16038 0
M  V30 5454 O 530.165 -1.15083 -1.97403 0
M  V30 5455 C 530.375 -3.39728 0.799101 0
M  V30 5456 C 531.723 -4.16877 0.806139 0
M  V30 5457 O 532.747 -3.48373 0.742597 0
M  V30 5458 O 531.606 -5.39166 0.892345 0
M  V30 5459 H 528.7 -0.820952 0.0998378 0
M  V30 5460 H 531.246 -1.42409 0.922913 0
M  V30 5461 H 530.018 -3.45254 1.84162 0
M  V30 5462 H 529.641 -3.97062 0.206731 0
M  V30 5463 N 530.638 -0.59345 -1.46 0
M  V30 5464 C 531.868 -0.0889642 -2.06408 0
M  V30 5465 C 532.276 1.22597 -1.44106 0
M  V30 5466 O 531.619 1.75448 -0.544398 0
M  V30 5467 C 531.681 0.139902 -3.59228 0
M  V30 5468 C 531.345 -1.09107 -4.43784 0
M  V30 5469 C 532.342 -2.00577 -4.79651 0
M  V30 5470 C 530.027 -1.31593 -4.84756 0
M  V30 5471 C 532.021 -3.12873 -5.55328 0
M  V30 5472 C 529.708 -2.44192 -5.60191 0
M  V30 5473 C 530.706 -3.34661 -5.95392 0
M  V30 5474 O 530.394 -4.45302 -6.69299 0
M  V30 5475 H 530.126 -0.0594613 -0.67338 0
M  V30 5476 H 532.68 -0.817 -1.88452 0
M  V30 5477 H 530.91 0.922672 -3.75531 0
M  V30 5478 H 532.599 0.594228 -4.01527 0
M  V30 5479 H 533.365 -1.84425 -4.48567 0
M  V30 5480 H 529.244 -0.620801 -4.56801 0
M  V30 5481 H 532.788 -3.83511 -5.82722 0
M  V30 5482 H 528.685 -2.60303 -5.90688 0
M  V30 5483 H 529.453 -4.43805 -6.87735 0
M  V30 5484 N 532.116 1.54067 -0.331816 0
M  V30 5485 C 533.344 2.05131 0.269996 0
M  V30 5486 C 533.759 1.20749 1.45138 0
M  V30 5487 O 533.116 0.240069 1.80914 0
M  V30 5488 C 533.167 3.54728 0.696456 0
M  V30 5489 O 532.888 4.35906 -0.43794 0
M  V30 5490 C 534.389 4.21916 1.36021 0
M  V30 5491 H 531.609 0.668807 0.0542042 0
M  V30 5492 H 534.153 1.98777 -0.4804 0
M  V30 5493 H 532.308 3.61342 1.39681 0
M  V30 5494 H 532.722 5.24404 -0.100334 0
M  V30 5495 H 534.196 5.28015 1.60947 0
M  V30 5496 H 534.673 3.73538 2.31011 0
M  V30 5497 H 535.279 4.19463 0.702212 0
M  V30 5498 N 533.594 0.0601682 1.57485 0
M  V30 5499 C 534.871 -0.651956 1.84415 0
M  V30 5500 C 535.251 -1.88498 0.950361 0
M  V30 5501 O 534.599 -2.28496 0.0136719 0
M  V30 5502 C 534.809 -1.00069 3.34346 0
M  V30 5503 C 536.157 -1.37915 4.01578 0
M  V30 5504 O 537.181 -1.09277 3.39024 0
M  V30 5505 O 536.04 -1.91399 5.11887 0
M  V30 5506 H 533.134 -0.322668 0.761455 0
M  V30 5507 H 535.68 0.0902159 1.6946 0
M  V30 5508 H 534.452 -0.124463 3.91102 0
M  V30 5509 H 534.075 -1.80001 3.54521 0
M  V30 5510 N 535.072 -1.5615 -0.213296 0
M  V30 5511 C 536.004 -1.89586 -1.28802 0
M  V30 5512 C 537.017 -0.784844 -1.42633 0
M  V30 5513 O 538.206 -1.06319 -1.43383 0
M  V30 5514 C 535.306 -2.09665 -2.66259 0
M  V30 5515 C 534.479 -3.40726 -2.7427 0
M  V30 5516 C 533.538 -3.50137 -3.92798 0
M  V30 5517 O 532.564 -4.23105 -3.8075 0
M  V30 5518 N 533.766 -2.81886 -5.07465 0
M  V30 5519 H 536.531 -2.82368 -1.00442 0
M  V30 5520 H 534.092 -1.56796 -0.403302 0
M  V30 5521 H 536.084 -2.13268 -3.43946 0
M  V30 5522 H 534.654 -1.23469 -2.87183 0
M  V30 5523 H 533.874 -3.4915 -1.82997 0
M  V30 5524 H 535.162 -4.27048 -2.76599 0
M  V30 5525 H 534.56 -2.22397 -5.2015 0
M  V30 5526 H 533.117 -2.91139 -5.83165 0
M  V30 5527 N 536.55 0.480323 -1.50102 0
M  V30 5528 C 537.966 0.813295 -1.37323 0
M  V30 5529 C 538.166 1.97027 -0.422206 0
M  V30 5530 O 537.222 2.5212 0.138563 0
M  V30 5531 C 538.535 1.13404 -2.78496 0
M  V30 5532 C 540.083 1.24104 -2.87345 0
M  V30 5533 C 540.558 1.59497 -4.29331 0
M  V30 5534 N 542.049 1.66507 -4.32238 0
M  V30 5535 C 542.784 1.95378 -5.39087 0
M  V30 5536 N 542.28 2.22333 -6.56155 0
M  V30 5537 N 544.073 1.96803 -5.26522 0
M  V30 5538 H 536.224 -0.282291 -2.10516 0
M  V30 5539 H 538.487 -0.063752 -0.945854 0
M  V30 5540 H 538.193 0.357064 -3.49883 0
M  V30 5541 H 538.067 2.07251 -3.15162 0
M  V30 5542 H 540.454 2.00871 -2.16183 0
M  V30 5543 H 540.535 0.282593 -2.54234 0
M  V30 5544 H 540.179 0.832736 -5.01027 0
M  V30 5545 H 540.109 2.56477 -4.59921 0
M  V30 5546 H 542.6 1.47753 -3.47818 0
M  V30 5547 H 542.913 2.43611 -7.33399 0
M  V30 5548 H 541.258 2.19745 -6.59346 0
M  V30 5549 H 544.449 1.75235 -4.34062 0
M  V30 5550 H 544.622 2.18969 -6.09883 0
M  V30 5551 N 538.028 1.39524 0.732853 0
M  V30 5552 C 539.277 1.36175 1.48792 0
M  V30 5553 C 539.59 -0.0388195 1.95561 0
M  V30 5554 O 540.796 -0.194899 2.708 0
M  V30 5555 C 539.252 2.39242 2.68871 0
M  V30 5556 C 538.86 3.85024 2.29042 0
M  V30 5557 C 540.604 2.44972 3.46683 0
M  V30 5558 C 538.511 4.79727 3.45856 0
M  V30 5559 H 537.441 0.506267 0.558757 0
M  V30 5560 H 540.092 1.65181 0.799226 0
M  V30 5561 H 538.474 2.0331 3.39825 0
M  V30 5562 H 539.648 4.30008 1.6562 0
M  V30 5563 H 537.963 3.82609 1.64316 0
M  V30 5564 H 540.56 3.12918 4.33574 0
M  V30 5565 H 540.903 1.4749 3.89297 0
M  V30 5566 H 541.436 2.79808 2.82759 0
M  V30 5567 H 538.175 5.78479 3.08289 0
M  V30 5568 H 537.695 4.39421 4.08251 0
M  V30 5569 H 539.374 4.98731 4.12161 0
M  V30 5570 N 539.506 -0.963266 1.24736 0
M  V30 5571 C 540.734 -1.74166 1.11686 0
M  V30 5572 C 541.149 -1.8589 -0.330187 0
M  V30 5573 O 540.506 -1.35042 -1.2276 0
M  V30 5574 C 540.557 -3.15989 1.75595 0
M  V30 5575 O 540.278 -3.04847 3.14642 0
M  V30 5576 C 541.779 -4.10145 1.68213 0
M  V30 5577 H 538.999 -0.546031 0.389989 0
M  V30 5578 H 541.543 -1.20907 1.64929 0
M  V30 5579 H 539.698 -3.66219 1.26343 0
M  V30 5580 H 540.112 -3.9425 3.4593 0
M  V30 5581 H 541.586 -5.07299 2.17604 0
M  V30 5582 H 542.063 -4.3445 0.644208 0
M  V30 5583 H 542.669 -3.65827 2.16912 0
M  V30 5584 N 540.985 -1.06182 -1.16461 0
M  V30 5585 C 542.21 -0.798599 -1.91408 0
M  V30 5586 C 542.635 0.640987 -1.76842 0
M  V30 5587 O 541.993 1.44652 -1.09296 0
M  V30 5588 C 542.041 -1.19665 -3.40165 0
M  V30 5589 O 541.145 -0.334768 -4.11039 0
M  V30 5590 H 540.486 -0.291961 -0.596368 0
M  V30 5591 H 543.016 -1.41732 -1.47557 0
M  V30 5592 H 543.026 -1.16772 -3.90933 0
M  V30 5593 H 541.701 -2.24526 -3.50087 0
M  V30 5594 H 540.278 -0.425168 -3.70468 0
M  V30 5595 N 542.463 1.3308 -0.844243 0
M  V30 5596 C 543.426 2.27403 -0.286485 0
M  V30 5597 C 544.426 1.51179 0.547872 0
M  V30 5598 O 545.616 1.70421 0.360886 0
M  V30 5599 C 542.748 3.35653 0.595813 0
M  V30 5600 H 543.941 2.78248 -1.11885 0
M  V30 5601 H 541.494 1.43574 -0.617749 0
M  V30 5602 H 542.229 2.90058 1.4504 0
M  V30 5603 H 542.014 3.921 -0.00125994 0
M  V30 5604 H 543.504 4.05958 0.979168 0
M  V30 5605 N 543.941 0.601185 1.45683 0
M  V30 5606 C 545.218 0.0261659 1.95582 0
M  V30 5607 C 545.598 -1.4399 1.5437 0
M  V30 5608 O 544.946 -2.13919 0.80318 0
M  V30 5609 C 545.156 0.217557 3.48321 0
M  V30 5610 C 546.504 0.0950076 4.24494 0
M  V30 5611 O 547.528 0.147345 3.55895 0
M  V30 5612 O 546.387 -0.025261 5.46494 0
M  V30 5613 H 543.481 -0.0393688 0.826062 0
M  V30 5614 H 546.027 0.670798 1.55879 0
M  V30 5615 H 544.799 1.23601 3.71266 0
M  V30 5616 H 544.422 -0.46264 3.94899 0
M  V30 5617 N 545.419 -1.53889 0.339982 0
M  V30 5618 C 546.349 -2.27843 -0.510856 0
M  V30 5619 C 547.33 -1.29267 -1.10563 0
M  V30 5620 O 548.515 -1.58104 -1.12768 0
M  V30 5621 C 545.645 -3.04857 -1.66372 0
M  V30 5622 C 544.599 -4.10907 -1.19746 0
M  V30 5623 C 543.925 -4.75855 -2.43857 0
M  V30 5624 C 545.225 -5.21435 -0.300501 0
M  V30 5625 H 546.919 -2.99212 0.106067 0
M  V30 5626 H 544.465 -1.43904 0.0524533 0
M  V30 5627 H 546.418 -3.5533 -2.26537 0
M  V30 5628 H 545.142 -2.31133 -2.30749 0
M  V30 5629 H 543.801 -3.61342 -0.618654 0
M  V30 5630 H 543.449 -3.9873 -3.06633 0
M  V30 5631 H 543.149 -5.47502 -2.13343 0
M  V30 5632 H 544.673 -5.2911 -3.04754 0
M  V30 5633 H 546.087 -5.67565 -0.80889 0
M  V30 5634 H 544.484 -6.00036 -0.0874076 0
M  V30 5635 H 545.554 -4.80328 0.664321 0
M  V30 5636 N 546.897 -0.0685191 -1.57451 0
M  V30 5637 C 547.847 0.909895 -2.09057 0
M  V30 5638 C 548.831 1.26088 -0.999528 0
M  V30 5639 O 550.023 1.24041 -1.26265 0
M  V30 5640 C 547.152 2.17863 -2.65312 0
M  V30 5641 C 546.238 1.85427 -3.81415 0
M  V30 5642 N 546.629 1.23426 -4.9051 0
M  V30 5643 C 544.927 2.15196 -3.90649 0
M  V30 5644 C 545.628 1.09008 -5.71395 0
M  V30 5645 N 544.604 1.59871 -5.1956 0
M  V30 5646 H 548.406 0.426145 -2.90794 0
M  V30 5647 H 545.92 0.135462 -1.61834 0
M  V30 5648 H 547.917 2.88872 -3.00597 0
M  V30 5649 H 546.577 2.66829 -1.85021 0
M  V30 5650 H 547.588 0.904305 -5.09944 0
M  V30 5651 H 544.265 2.66562 -3.21327 0
M  V30 5652 H 545.655 0.607305 -6.6915 0
M  V30 5653 N 548.375 1.56261 0.205012 0
M  V30 5654 C 549.323 1.94631 1.27364 0
M  V30 5655 C 550.317 0.830434 1.47649 0
M  V30 5656 O 551.523 1.01538 1.48627 0
M  V30 5657 H 547.898 0.618755 0.427371 0
M  V30 5658 H 549.869 2.83768 0.922941 0
M  V30 5659 C 548.618 2.29358 2.61324 0
M  V30 5660 H 547.941 3.14744 2.46528 0
M  V30 5661 H 549.381 2.60076 3.34868 0
M  V30 5662 C 547.84 1.12461 3.17575 0
M  V30 5663 O 548.37 0.394407 3.99759 0
M  V30 5664 N 546.576 0.904036 2.7618 0
M  V30 5665 H 546.123 1.49956 2.09454 0
M  V30 5666 H 546.081 0.123662 3.14157 0
M  V30 5667 N 549.853 -0.472356 1.50355 0
M  V30 5668 C 551.13 -1.23356 1.51798 0
M  V30 5669 C 551.51 -2.09469 0.26193 0
M  V30 5670 O 550.858 -2.15677 -0.754691 0
M  V30 5671 C 551.068 -2.06568 2.81302 0
M  V30 5672 C 552.416 -2.648 3.31913 0
M  V30 5673 O 553.44 -2.16812 2.82614 0
M  V30 5674 O 552.299 -3.52231 4.17846 0
M  V30 5675 H 549.393 -0.559707 0.608816 0
M  V30 5676 H 551.939 -0.48428 1.62643 0
M  V30 5677 H 550.711 -1.43103 3.64194 0
M  V30 5678 H 550.334 -2.88633 2.73454 0
M  V30 5679 N 551.331 -1.39911 -0.725443 0
M  V30 5680 C 552.571 -1.39096 -1.49772 0
M  V30 5681 C 552.935 0.0106452 -1.91997 0
M  V30 5682 O 554.136 0.143859 -2.68415 0
M  V30 5683 C 552.407 -2.34441 -2.69764 0
M  V30 5684 S 553.966 -2.51898 -3.59295 0
M  V30 5685 H 550.784 -0.49314 -0.512186 0
M  V30 5686 H 553.386 -1.76093 -0.849197 0
M  V30 5687 H 552.09 -3.35123 -2.36898 0
M  V30 5688 H 551.621 -1.98692 -3.39537 0
M  V30 5689 H 553.636 -1.76402 -4.63785 0
M  V30 5690 N 552.809 0.956637 -1.25245 0
M  V30 5691 C 554.037 1.73571 -1.12608 0
M  V30 5692 C 554.452 1.86063 0.320324 0
M  V30 5693 O 553.809 1.35691 1.22042 0
M  V30 5694 C 553.86 3.15053 -1.77268 0
M  V30 5695 O 553.581 3.03174 -3.16255 0
M  V30 5696 C 555.082 4.09248 -1.70386 0
M  V30 5697 H 552.302 0.543955 -0.392879 0
M  V30 5698 H 554.846 1.20031 -1.65568 0
M  V30 5699 H 553.001 3.65543 -1.28284 0
M  V30 5700 H 553.415 3.9241 -3.48015 0
M  V30 5701 H 554.889 5.06138 -2.20291 0
M  V30 5702 H 555.366 4.34102 -0.667239 0
M  V30 5703 H 555.972 3.64672 -2.18849 0
M  V30 5704 N 554.287 1.06798 1.15896 0
M  V30 5705 C 555.197 0.694564 2.24083 0
M  V30 5706 C 556.213 -0.291687 1.71538 0
M  V30 5707 O 557.389 -0.139723 2.00915 0
M  V30 5708 C 554.454 0.0921014 3.46578 0
M  V30 5709 C 553.515 1.13087 4.14137 0
M  V30 5710 C 552.748 0.557064 5.30785 0
M  V30 5711 O 552.971 -0.628623 5.66925 0
M  V30 5712 O 551.905 1.29924 5.8771 0
M  V30 5713 H 555.731 1.59663 2.58344 0
M  V30 5714 H 553.316 0.840575 1.2351 0
M  V30 5715 H 555.198 -0.241884 4.20705 0
M  V30 5716 H 553.873 -0.78337 3.14078 0
M  V30 5717 H 552.78 1.51712 3.41957 0
M  V30 5718 H 554.113 1.97805 4.50704 0
M  V30 5719 N 555.766 -1.3263 0.851289 0
M  V30 5720 C 556.994 -2.01563 0.466899 0
M  V30 5721 C 557.409 -1.63996 -0.935447 0
M  V30 5722 O 556.766 -0.85957 -1.6099 0
M  V30 5723 C 556.817 -3.56613 0.592433 0
M  V30 5724 O 556.538 -3.92828 1.93954 0
M  V30 5725 C 558.039 -4.42818 0.206612 0
M  V30 5726 H 555.259 -0.645307 0.183902 0
M  V30 5727 H 557.803 -1.69285 1.1473 0
M  V30 5728 H 555.958 -3.87379 -0.0401936 0
M  V30 5729 H 556.372 -4.87545 1.9339 0
M  V30 5730 H 557.846 -5.50918 0.345462 0
M  V30 5731 H 558.323 -4.30844 -0.85264 0
M  V30 5732 H 558.929 -4.17434 0.814176 0
M  V30 5733 N 557.244 -0.608902 -1.45362 0
M  V30 5734 C 558.194 0.130616 -2.27626 0
M  V30 5735 C 559.178 0.837323 -1.37396 0
M  V30 5736 O 560.37 0.727096 -1.61376 0
M  V30 5737 C 557.499 1.12646 -3.24293 0
M  V30 5738 C 556.585 0.42052 -4.2201 0
M  V30 5739 N 556.976 -0.538569 -5.02925 0
M  V30 5740 C 555.274 0.667901 -4.40971 0
M  V30 5741 C 555.975 -0.953625 -5.7383 0
M  V30 5742 N 554.951 -0.297097 -5.42788 0
M  V30 5743 H 558.753 -0.605996 -2.87585 0
M  V30 5744 H 556.267 -0.432672 -1.5653 0
M  V30 5745 H 558.264 1.67066 -3.81961 0
M  V30 5746 H 556.924 1.86361 -2.65894 0
M  V30 5747 H 557.935 -0.915375 -5.09746 0
M  V30 5748 H 554.612 1.38963 -3.93695 0
M  V30 5749 H 556.002 -1.74473 -6.48852 0
M  V30 5750 N 558.722 1.53707 -0.348139 0
M  V30 5751 C 559.95 2.05406 0.248224 0
M  V30 5752 C 560.365 1.22282 1.43849 0
M  V30 5753 O 559.722 0.259244 1.80649 0
M  V30 5754 C 559.773 3.55446 0.658793 0
M  V30 5755 O 559.494 4.35417 -0.484149 0
M  V30 5756 C 560.995 4.23335 1.31539 0
M  V30 5757 H 558.215 0.669344 0.0471075 0
M  V30 5758 H 560.759 1.98257 -0.501456 0
M  V30 5759 H 558.914 3.62803 1.35841 0
M  V30 5760 H 559.328 5.24268 -0.155949 0
M  V30 5761 H 560.802 5.29692 1.55338 0
M  V30 5762 H 561.279 3.75967 2.27036 0
M  V30 5763 H 561.885 4.20184 0.657683 0
M  V30 5764 N 560.2 0.0768682 1.57412 0
M  V30 5765 C 561.448 -0.589918 1.93299 0
M  V30 5766 C 561.769 -1.69842 0.958049 0
M  V30 5767 O 561.039 -1.95899 0.00703261 0
M  V30 5768 H 559.619 -0.220901 0.713591 0
M  V30 5769 H 562.281 0.135917 1.94425 0
M  V30 5770 H 561.377 -1.01195 2.95239 0
M  V30 5771 N 561.678 -1.56367 -0.196722 0
M  V30 5772 C 562.906 -1.84639 -0.933608 0
M  V30 5773 C 563.321 -0.659164 -1.76919 0
M  V30 5774 O 562.678 0.372142 -1.78665 0
M  V30 5775 C 562.729 -3.11694 -1.83109 0
M  V30 5776 O 562.45 -4.25838 -1.02924 0
M  V30 5777 C 563.951 -3.53132 -2.67979 0
M  V30 5778 H 561.171 -0.613188 -0.272473 0
M  V30 5779 H 563.715 -2.03475 -0.204465 0
M  V30 5780 H 561.87 -2.94759 -2.51387 0
M  V30 5781 H 562.284 -4.98178 -1.64069 0
M  V30 5782 H 563.758 -4.45005 -3.26611 0
M  V30 5783 H 564.235 -2.76045 -3.41608 0
M  V30 5784 H 564.841 -3.72592 -2.05074 0
M  V30 5785 N 563.156 0.464375 -1.50603 0
M  V30 5786 C 564.381 1.24372 -1.65971 0
M  V30 5787 C 564.806 1.84901 -0.345453 0
M  V30 5788 O 564.164 1.67596 0.691457 0
M  V30 5789 C 564.212 2.32331 -2.7578 0
M  V30 5790 O 563.316 3.37146 -2.375 0
M  V30 5791 H 562.657 0.365604 -0.554283 0
M  V30 5792 H 565.187 0.55183 -1.97018 0
M  V30 5793 H 565.197 2.77539 -2.99059 0
M  V30 5794 H 563.872 1.87648 -3.71162 0
M  V30 5795 H 562.449 2.97602 -2.24694 0
M  V30 5796 N 564.634 1.40294 0.718013 0
M  V30 5797 C 565.597 1.4012 1.81381 0
M  V30 5798 C 566.597 0.295405 1.58063 0
M  V30 5799 O 567.787 0.554187 1.6515 0
M  V30 5800 C 564.919 1.19056 3.19435 0
M  V30 5801 H 566.112 2.37645 1.82933 0
M  V30 5802 H 563.665 1.26107 0.923405 0
M  V30 5803 H 564.4 0.222809 3.23534 0
M  V30 5804 H 564.185 1.99152 3.37758 0
M  V30 5805 H 565.675 1.21716 3.99468 0
M  V30 5806 N 566.112 -0.949982 1.2575 0
M  V30 5807 C 567.337 -1.73503 1.13628 0
M  V30 5808 C 567.762 -1.85601 -0.30559 0
M  V30 5809 O 567.12 -1.33984 -1.22139 0
M  V30 5810 C 567.168 -3.1243 1.80055 0
M  V30 5811 O 566.272 -3.97916 1.08336 0
M  V30 5812 H 565.613 -0.532665 0.396439 0
M  V30 5813 H 568.143 -1.19043 1.66403 0
M  V30 5814 H 568.153 -3.62866 1.86527 0
M  V30 5815 H 566.828 -3.02941 2.84956 0
M  V30 5816 H 565.405 -3.56375 1.09777 0
M  V30 5817 N 567.59 -1.07411 -1.15328 0
M  V30 5818 C 568.553 -0.698914 -2.18284 0
M  V30 5819 C 569.553 0.261149 -1.58665 0
M  V30 5820 O 570.743 0.0420277 -1.74149 0
M  V30 5821 C 567.875 -0.0302427 -3.40887 0
M  V30 5822 H 569.068 -1.61045 -2.52991 0
M  V30 5823 H 566.621 -0.870724 -1.298 0
M  V30 5824 H 567.356 0.893505 -3.11748 0
M  V30 5825 H 567.141 -0.720759 -3.85419 0
M  V30 5826 H 568.631 0.21759 -4.17033 0
M  V30 5827 N 569.068 1.32177 -0.85831 0
M  V30 5828 C 570.479 1.79381 -0.517621 0
M  V30 5829 C 570.83 1.70841 0.964769 0
M  V30 5830 O 569.955 1.26917 1.75274 0
M  V30 5831 C 570.55 3.25706 -0.932801 0
M  V30 5832 C 569.109 3.70851 -0.643953 0
M  V30 5833 C 568.256 2.53208 -1.13054 0
M  V30 5834 H 571.207 1.19424 -1.04516 0
M  V30 5835 H 571.228 3.79673 -0.250674 0
M  V30 5836 H 570.74 3.31889 -2.01174 0
M  V30 5837 H 568.841 3.70178 0.424112 0
M  V30 5838 H 568.954 4.63495 -1.21281 0
M  V30 5839 H 567.318 2.48676 -0.550679 0
M  V30 5840 H 568.101 2.62143 -2.21666 0
M  V30 5841 N 570.547 0.616602 1.45037 0
M  V30 5842 C 571.477 -0.0840787 2.33349 0
M  V30 5843 C 572.458 -0.849641 1.4736 0
M  V30 5844 O 573.643 -0.818407 1.76113 0
M  V30 5845 C 570.773 -1.07604 3.3021 0
M  V30 5846 C 569.727 -0.423096 4.25904 0
M  V30 5847 C 569.053 -1.52394 5.12523 0
M  V30 5848 C 570.353 0.661457 5.18095 0
M  V30 5849 H 572.047 0.653333 2.92185 0
M  V30 5850 H 569.593 0.315634 1.40498 0
M  V30 5851 H 571.546 -1.57485 3.90866 0
M  V30 5852 H 570.27 -1.84416 2.69552 0
M  V30 5853 H 568.929 0.05493 3.66559 0
M  V30 5854 H 568.577 -2.28257 4.48227 0
M  V30 5855 H 568.277 -1.09251 5.77354 0
M  V30 5856 H 569.801 -2.02485 5.76049 0
M  V30 5857 H 571.215 0.246353 5.7277 0
M  V30 5858 H 569.612 1.01517 5.91451 0
M  V30 5859 H 570.682 1.53446 4.59981 0
M  V30 5860 N 572.025 -1.5352 0.356285 0
M  V30 5861 C 572.988 -2.24071 -0.482182 0
M  V30 5862 C 573.988 -1.24531 -1.01729 0
M  V30 5863 O 575.178 -1.48876 -0.904513 0
M  V30 5864 C 572.31 -2.97025 -1.67299 0
M  V30 5865 H 573.503 -2.99596 0.135031 0
M  V30 5866 H 571.056 -1.55928 0.107825 0
M  V30 5867 H 571.791 -2.25719 -2.32855 0
M  V30 5868 H 571.576 -3.7005 -1.29636 0
M  V30 5869 H 573.066 -3.50683 -2.26741 0
M  V30 5870 N 573.503 -0.0852151 -1.57369 0
M  V30 5871 C 574.466 0.8627 -2.12344 0
M  V30 5872 C 575.466 1.21746 -1.05046 0
M  V30 5873 O 576.656 1.14852 -1.30976 0
M  V30 5874 C 573.788 2.1618 -2.63589 0
M  V30 5875 H 574.981 0.385511 -2.97412 0
M  V30 5876 H 572.534 0.163663 -1.55441 0
M  V30 5877 H 573.269 2.68406 -1.82013 0
M  V30 5878 H 573.054 1.91723 -3.4203 0
M  V30 5879 H 574.544 2.84011 -3.06149 0
M  V30 5880 N 574.981 1.5647 0.188427 0
M  V30 5881 C 576.229 1.80655 0.905986 0
M  V30 5882 C 576.55 0.659391 1.83513 0
M  V30 5883 O 575.82 -0.321868 1.93238 0
M  V30 5884 H 574.4 0.666391 0.337538 0
M  V30 5885 H 577.062 1.93949 0.192339 0
M  V30 5886 H 576.158 2.74066 1.49313 0
M  V30 5887 N 576.459 -0.456382 1.50847 0
M  V30 5888 C 577.708 -1.2042 1.61808 0
M  V30 5889 C 578.021 -1.9278 0.330932 0
M  V30 5890 O 579.227 -2.69612 0.319643 0
M  V30 5891 C 577.683 -2.18891 2.85683 0
M  V30 5892 C 577.291 -1.52267 4.2133 0
M  V30 5893 C 579.035 -2.94224 3.05994 0
M  V30 5894 C 576.942 -2.4911 5.36375 0
M  V30 5895 H 575.872 -0.453177 0.602616 0
M  V30 5896 H 578.523 -0.473144 1.77295 0
M  V30 5897 H 576.905 -2.95351 2.63787 0
M  V30 5898 H 578.079 -0.814949 4.53536 0
M  V30 5899 H 576.394 -0.891594 4.06743 0
M  V30 5900 H 578.991 -3.66732 3.89117 0
M  V30 5901 H 579.334 -3.54469 2.18306 0
M  V30 5902 H 579.867 -2.24874 3.28141 0
M  V30 5903 H 576.606 -1.93582 6.26264 0
M  V30 5904 H 576.126 -3.17991 5.08569 0
M  V30 5905 H 577.805 -3.10637 5.67551 0
M  V30 5906 N 577.937 -1.40673 -0.710563 0
M  V30 5907 C 579.184 -1.39222 -1.47049 0
M  V30 5908 C 579.512 0.0037691 -1.945 0
M  V30 5909 O 578.767 0.989224 -1.68857 0
M  V30 5910 C 579.066 -2.33253 -2.70791 0
M  V30 5911 C 578.732 -3.80406 -2.42079 0
M  V30 5912 C 577.394 -4.20496 -2.33959 0
M  V30 5913 C 579.746 -4.73375 -2.18094 0
M  V30 5914 C 577.074 -5.51584 -1.99929 0
M  V30 5915 C 579.426 -6.04768 -1.85576 0
M  V30 5916 C 578.09 -6.43895 -1.75941 0
M  V30 5917 H 577.36 -0.509449 -0.538092 0
M  V30 5918 H 580.007 -1.73363 -0.81348 0
M  V30 5919 H 578.312 -1.92314 -3.41354 0
M  V30 5920 H 580.009 -2.29412 -3.28894 0
M  V30 5921 H 576.599 -3.48645 -2.49288 0
M  V30 5922 H 580.783 -4.43217 -2.23321 0
M  V30 5923 H 576.039 -5.80797 -1.91011 0
M  V30 5924 H 580.213 -6.76318 -1.66033 0
M  V30 5925 H 577.84 -7.45387 -1.4934 0
M  V30 5926 N 579.415 0.9433 -1.26252 0
M  V30 5927 C 580.378 2.02326 -1.07689 0
M  V30 5928 C 581.378 1.60779 -0.0259174 0
M  V30 5929 O 582.568 1.72108 -0.269134 0
M  V30 5930 C 579.7 3.34886 -0.63752 0
M  V30 5931 H 580.893 2.20225 -2.0357 0
M  V30 5932 H 578.446 1.12197 -1.08819 0
M  V30 5933 H 579.181 3.22684 0.323377 0
M  V30 5934 H 578.966 3.66393 -1.39637 0
M  V30 5935 H 580.456 4.14231 -0.529418 0
M  V30 5936 N 580.893 1.08022 1.14757 0
M  V30 5937 C 581.823 0.728248 2.21853 0
M  V30 5938 C 582.804 -0.287486 1.67653 0
M  V30 5939 O 583.989 -0.158727 1.9355 0
M  V30 5940 C 581.119 0.132549 3.47047 0
M  V30 5941 C 580.073 1.07619 4.14249 0
M  V30 5942 C 579.399 0.342907 5.33599 0
M  V30 5943 C 580.699 2.41268 4.63235 0
M  V30 5944 H 582.393 1.62365 2.51551 0
M  V30 5945 H 579.939 0.782125 1.20908 0
M  V30 5946 H 581.892 -0.125665 4.21213 0
M  V30 5947 H 580.616 -0.797971 3.16702 0
M  V30 5948 H 579.275 1.31944 3.42033 0
M  V30 5949 H 578.923 -0.59129 4.99513 0
M  V30 5950 H 578.623 0.971955 5.79506 0
M  V30 5951 H 580.147 0.0926538 6.1053 0
M  V30 5952 H 581.561 2.21232 5.28894 0
M  V30 5953 H 579.958 2.9983 5.19829 0
M  V30 5954 H 581.028 3.03079 3.78512 0
M  V30 5955 N 582.371 -1.3172 0.865308 0
M  V30 5956 C 583.334 -2.26918 0.322627 0
M  V30 5957 C 584.334 -1.52031 -0.523751 0
M  V30 5958 O 585.524 -1.70973 -0.333727 0
M  V30 5959 C 582.656 -3.36558 -0.542338 0
M  V30 5960 H 583.849 -2.76432 1.16298 0
M  V30 5961 H 581.402 -1.42573 0.640512 0
M  V30 5962 H 582.137 -2.92329 -1.40407 0
M  V30 5963 H 581.922 -3.92048 0.0636395 0
M  V30 5964 H 583.412 -4.07465 -0.91446 0
M  V30 5965 N 583.85 -0.624285 -1.44708 0
M  V30 5966 C 584.779 0.0717025 -2.3339 0
M  V30 5967 C 585.76 0.841814 -1.47809 0
M  V30 5968 O 586.946 0.809056 -1.76544 0
M  V30 5969 C 584.076 1.05852 -3.30776 0
M  V30 5970 C 583.029 0.400503 -4.26122 0
M  V30 5971 C 582.356 1.49674 -5.13324 0
M  V30 5972 C 583.656 -0.688924 -5.17737 0
M  V30 5973 H 585.35 -0.668819 -2.91834 0
M  V30 5974 H 582.896 -0.32308 -1.40329 0
M  V30 5975 H 584.849 1.5541 -3.91696 0
M  V30 5976 H 583.572 1.82984 -2.70526 0
M  V30 5977 H 582.231 -0.0743687 -3.66525 0
M  V30 5978 H 581.88 2.25877 -4.49431 0
M  V30 5979 H 581.58 1.06188 -5.77926 0
M  V30 5980 H 583.104 1.99427 -5.77115 0
M  V30 5981 H 584.518 -0.276724 -5.72632 0
M  V30 5982 H 582.915 -1.04652 -5.90904 0
M  V30 5983 H 583.985 -1.55884 -4.5916 0
M  V30 5984 N 585.328 1.53329 -0.364422 0
M  V30 5985 C 586.238 2.29414 0.490552 0
M  V30 5986 C 587.254 1.35335 1.09363 0
M  V30 5987 O 588.43 1.68391 1.10483 0
M  V30 5988 C 585.495 3.06772 1.61529 0
M  V30 5989 C 584.556 4.16516 1.03986 0
M  V30 5990 C 583.789 4.90176 2.111 0
M  V30 5991 O 584.012 4.63687 3.32191 0
M  V30 5992 O 582.946 5.76134 1.74222 0
M  V30 5993 H 586.772 3.03428 -0.12856 0
M  V30 5994 H 584.357 1.48843 -0.128837 0
M  V30 5995 H 586.239 3.55082 2.26924 0
M  V30 5996 H 584.914 2.35596 2.21983 0
M  V30 5997 H 583.821 3.7246 0.349856 0
M  V30 5998 H 585.154 4.89855 0.4799 0
M  V30 5999 N 586.806 0.0935595 1.57322 0
M  V30 6000 C 587.769 -0.851426 2.12799 0
M  V30 6001 C 588.769 -1.21187 1.0569 0
M  V30 6002 O 589.959 -1.14156 1.31583 0
M  V30 6003 C 587.091 -2.14779 2.64731 0
M  V30 6004 H 588.284 -0.369733 2.97612 0
M  V30 6005 H 585.837 -0.155417 1.55525 0
M  V30 6006 H 586.572 -2.67437 1.83434 0
M  V30 6007 H 586.357 -1.89907 3.43042 0
M  V30 6008 H 587.847 -2.82383 3.07651 0
M  V30 6009 N 588.284 -1.56567 -0.180126 0
M  V30 6010 C 589.232 -1.96632 -1.24251 0
M  V30 6011 C 590.226 -0.853818 -1.46309 0
M  V30 6012 O 591.432 -1.0389 -1.46993 0
M  V30 6013 H 587.807 -0.625476 -0.417473 0
M  V30 6014 H 589.778 -2.85201 -0.877679 0
M  V30 6015 C 588.527 -2.33486 -2.57642 0
M  V30 6016 H 587.85 -3.18626 -2.4149 0
M  V30 6017 H 589.29 -2.65371 -3.30688 0
M  V30 6018 C 587.749 -1.17499 -3.15746 0
M  V30 6019 O 588.279 -0.457956 -3.99081 0
M  V30 6020 N 586.485 -0.94786 -2.74707 0
M  V30 6021 H 586.032 -1.53269 -2.07042 0
M  V30 6022 H 585.99 -0.173626 -3.1392 0
M  V30 6023 N 589.762 0.448376 -1.51087 0
M  V30 6024 C 591.173 1.0286 -1.5581 0
M  V30 6025 C 591.524 1.92583 -0.374989 0
M  V30 6026 O 590.649 2.10316 0.509533 0
M  V30 6027 C 591.244 1.87223 -2.8237 0
M  V30 6028 C 589.803 2.40314 -2.897 0
M  V30 6029 C 588.95 1.19238 -2.50355 0
M  V30 6030 H 591.901 0.230075 -1.57023 0
M  V30 6031 H 591.922 2.72553 -2.6551 0
M  V30 6032 H 591.434 1.21894 -3.68461 0
M  V30 6033 H 589.535 3.09129 -2.08014 0
M  V30 6034 H 589.648 2.73866 -3.93108 0
M  V30 6035 H 588.012 1.53428 -2.03303 0
M  V30 6036 H 588.795 0.555367 -3.38778 0
M  V30 6037 N 591.24 1.41047 0.703093 0
M  V30 6038 C 592.188 1.42494 1.83843 0
M  V30 6039 C 593.182 0.303885 1.66652 0
M  V30 6040 O 594.388 0.475544 1.73605 0
M  V30 6041 H 590.763 0.445685 0.605697 0
M  V30 6042 H 592.734 2.38194 1.79739 0
M  V30 6043 C 591.483 1.31666 3.21807 0
M  V30 6044 H 590.806 2.17212 3.35647 0
M  V30 6045 H 592.246 1.36738 4.01346 0
M  V30 6046 C 590.705 0.0281828 3.36888 0
M  V30 6047 O 591.235 -0.929995 3.90786 0
M  V30 6048 N 589.441 -0.0454322 2.90564 0
M  V30 6049 H 588.988 0.735046 2.4689 0
M  V30 6050 H 588.946 -0.906968 3.01034 0
M  V30 6051 N 592.718 -0.936591 1.26751 0
M  V30 6052 C 593.648 -2.05315 1.11212 0
M  V30 6053 C 594.629 -1.70092 0.0160262 0
M  V30 6054 O 595.814 -1.93279 0.188894 0
M  V30 6055 C 592.944 -3.39123 0.749171 0
M  V30 6056 C 591.898 -3.88425 1.79751 0
M  V30 6057 C 591.224 -5.18936 1.28876 0
M  V30 6058 C 592.524 -4.12798 3.19992 0
M  V30 6059 H 594.218 -2.18573 2.04613 0
M  V30 6060 H 591.764 -1.05027 0.985159 0
M  V30 6061 H 593.717 -4.16704 0.627323 0
M  V30 6062 H 592.441 -3.25855 -0.220543 0
M  V30 6063 H 591.1 -3.13028 1.90811 0
M  V30 6064 H 590.748 -5.02051 0.308757 0
M  V30 6065 H 590.448 -5.52892 1.98958 0
M  V30 6066 H 591.972 -5.99096 1.17967 0
M  V30 6067 H 593.386 -4.80977 3.11983 0
M  V30 6068 H 591.783 -4.58044 3.87705 0
M  V30 6069 H 592.853 -3.18412 3.65707 0
M  V30 6070 N 594.196 -1.08629 -1.14182 0
M  V30 6071 C 595.424 -0.838889 -1.8913 0
M  V30 6072 C 595.839 0.609153 -1.78703 0
M  V30 6073 O 595.196 1.41876 -1.14794 0
M  V30 6074 C 595.247 -1.25477 -3.39025 0
M  V30 6075 O 594.968 -2.64601 -3.49167 0
M  V30 6076 C 596.469 -1.03856 -4.30963 0
M  V30 6077 H 593.689 -0.302377 -0.599007 0
M  V30 6078 H 596.233 -1.44615 -1.44592 0
M  V30 6079 H 594.388 -0.691571 -3.81177 0
M  V30 6080 H 594.802 -2.81922 -4.42289 0
M  V30 6081 H 596.276 -1.37892 -5.345 0
M  V30 6082 H 596.753 0.0242522 -4.39193 0
M  V30 6083 H 597.359 -1.58731 -3.94569 0
M  V30 6084 N 595.674 1.31259 -0.872281 0
M  V30 6085 C 596.92 1.973 -0.494414 0
M  V30 6086 C 597.275 1.67684 0.94339 0
M  V30 6087 O 596.568 0.964186 1.65572 0
M  V30 6088 C 596.762 3.50659 -0.690889 0
M  V30 6089 C 596.591 3.95179 -2.14624 0
M  V30 6090 C 595.361 4.21405 -2.7883 0
M  V30 6091 C 597.559 4.08948 -3.11875 0
M  V30 6092 N 595.541 4.52295 -4.15093 0
M  V30 6093 C 596.912 4.43576 -4.33174 0
M  V30 6094 C 598.967 3.91334 -3.07835 0
M  V30 6095 C 597.67 4.62429 -5.50956 0
M  V30 6096 C 599.696 4.11381 -4.24876 0
M  V30 6097 C 599.058 4.46343 -5.44938 0
M  V30 6098 H 595.157 0.747411 -0.230002 0
M  V30 6099 H 597.741 1.58741 -1.12736 0
M  V30 6100 H 595.912 3.88301 -0.0875162 0
M  V30 6101 H 597.644 4.03722 -0.281179 0
M  V30 6102 H 594.399 4.14131 -2.29767 0
M  V30 6103 H 594.823 4.71897 -4.8543 0
M  V30 6104 H 599.465 3.6339 -2.16119 0
M  V30 6105 H 597.183 4.8922 -6.43187 0
M  V30 6106 H 600.769 3.99235 -4.23205 0
M  V30 6107 H 599.649 4.6154 -6.33996 0
M  V30 6108 N 597.152 0.631951 1.44375 0
M  V30 6109 C 598.568 0.297642 1.568 0
M  V30 6110 C 598.768 -1.19916 1.61934 0
M  V30 6111 O 597.824 -1.98324 1.56281 0
M  V30 6112 C 599.137 0.990286 2.83926 0
M  V30 6113 C 600.685 0.968507 2.97639 0
M  V30 6114 C 601.16 1.64163 4.27568 0
M  V30 6115 N 602.651 1.60826 4.34384 0
M  V30 6116 C 603.386 2.09802 5.33639 0
M  V30 6117 N 602.882 2.66973 6.39294 0
M  V30 6118 N 604.675 2.00426 5.25153 0
M  V30 6119 H 596.826 1.60353 1.39286 0
M  V30 6120 H 599.089 0.673142 0.667521 0
M  V30 6121 H 598.795 2.04519 2.8612 0
M  V30 6122 H 598.669 0.528563 3.73478 0
M  V30 6123 H 601.056 -0.0779247 2.94997 0
M  V30 6124 H 601.137 1.46873 2.09433 0
M  V30 6125 H 600.781 2.68752 4.3097 0
M  V30 6126 H 600.711 1.11624 5.14634 0
M  V30 6127 H 603.202 1.19087 3.58646 0
M  V30 6128 H 603.515 3.02074 7.11316 0
M  V30 6129 H 601.86 2.71024 6.39977 0
M  V30 6130 H 605.051 1.55483 4.41523 0
M  V30 6131 H 605.224 2.38906 6.02352 0
M  V30 6132 N 598.631 -1.53133 0.372548 0
M  V30 6133 C 599.908 -1.93704 -0.271693 0
M  V30 6134 C 600.288 -1.30667 -1.65799 0
M  V30 6135 O 599.636 -0.46838 -2.23648 0
M  V30 6136 C 599.846 -3.47576 -0.314903 0
M  V30 6137 C 601.194 -4.20998 -0.551912 0
M  V30 6138 O 602.218 -3.53994 -0.39582 0
M  V30 6139 O 601.077 -5.39748 -0.85639 0
M  V30 6140 H 598.171 -0.810457 -0.164586 0
M  V30 6141 H 600.717 -1.6427 0.425838 0
M  V30 6142 H 599.489 -3.85749 0.656792 0
M  V30 6143 H 599.112 -3.83264 -1.05804 0
M  V30 6144 N 600.109 -0.101901 -1.5727 0
M  V30 6145 C 601.042 0.891377 -2.10071 0
M  V30 6146 C 602.02 1.27197 -1.01291 0
M  V30 6147 O 603.204 1.37602 -1.28833 0
M  V30 6148 C 600.331 2.19049 -2.58331 0
M  V30 6149 C 599.377 1.95925 -3.78834 0
M  V30 6150 S 600.21 1.19106 -5.22086 0
M  V30 6151 C 601.366 2.50234 -5.73702 0
M  V30 6152 H 601.599 0.442212 -2.93993 0
M  V30 6153 H 599.132 0.111529 -1.53997 0
M  V30 6154 H 601.09 2.937 -2.86793 0
M  V30 6155 H 599.751 2.61086 -1.74622 0
M  V30 6156 H 598.944 2.92143 -4.10693 0
M  V30 6157 H 598.546 1.29401 -3.50901 0
M  V30 6158 H 600.838 3.46173 -5.82384 0
M  V30 6159 H 601.781 2.22944 -6.72088 0
M  V30 6160 H 602.189 2.58818 -5.01671 0
M  V30 6161 N 601.587 1.56661 0.17182 0
M  V30 6162 C 602.519 1.92934 1.2373 0
M  V30 6163 C 603.532 0.822385 1.40502 0
M  V30 6164 O 604.721 1.10083 1.40514 0
M  V30 6165 C 601.821 2.16651 2.60607 0
M  V30 6166 C 600.994 3.47878 2.6514 0
M  V30 6167 C 600.053 3.60429 3.83377 0
M  V30 6168 O 599.079 4.33051 3.69398 0
M  V30 6169 N 600.281 2.95241 4.99813 0
M  V30 6170 H 603.046 2.84931 0.929205 0
M  V30 6171 H 600.607 1.5781 0.361588 0
M  V30 6172 H 602.599 2.22312 3.38171 0
M  V30 6173 H 601.169 1.3104 2.83809 0
M  V30 6174 H 600.389 3.53879 1.73675 0
M  V30 6175 H 601.677 4.34232 2.6518 0
M  V30 6176 H 601.075 2.3611 5.14071 0
M  V30 6177 H 599.632 3.06499 5.75241 0
M  V30 6178 N 603.065 -0.440357 1.51323 0
M  V30 6179 C 604.015 -1.53263 1.68803 0
M  V30 6180 C 604.999 -1.51494 0.542057 0
M  V30 6181 O 606.191 -1.57999 0.797839 0
M  V30 6182 C 603.32 -2.91479 1.8137 0
M  V30 6183 C 602.406 -2.98015 3.01742 0
M  V30 6184 N 602.797 -2.743 4.24962 0
M  V30 6185 C 601.095 -3.29173 3.00934 0
M  V30 6186 C 601.796 -2.86601 5.06197 0
M  V30 6187 N 600.772 -3.1814 4.40781 0
M  V30 6188 H 604.574 -1.33675 2.61741 0
M  V30 6189 H 602.088 -0.647616 1.48929 0
M  V30 6190 H 604.085 -3.70055 1.92002 0
M  V30 6191 H 602.745 -3.12089 0.896117 0
M  V30 6192 H 603.756 -2.49287 4.53957 0
M  V30 6193 H 600.433 -3.55577 2.18796 0
M  V30 6194 H 601.823 -2.72246 6.14274 0
M  V30 6195 N 604.543 -1.41418 -0.695603 0
M  V30 6196 C 605.473 -1.46035 -1.82197 0
M  V30 6197 C 606.454 -0.319025 -1.67082 0
M  V30 6198 O 607.639 -0.530462 -1.86815 0
M  V30 6199 C 604.769 -1.34179 -3.20333 0
M  V30 6200 C 603.723 -2.46123 -3.50154 0
M  V30 6201 C 603.049 -2.19332 -4.87645 0
M  V30 6202 C 604.349 -3.88463 -3.49133 0
M  V30 6203 H 606.043 -2.40303 -1.78591 0
M  V30 6204 H 603.589 -1.15663 -0.857797 0
M  V30 6205 H 605.542 -1.36021 -3.98844 0
M  V30 6206 H 604.266 -0.363952 -3.24566 0
M  V30 6207 H 602.925 -2.43563 -2.73994 0
M  V30 6208 H 602.573 -1.19891 -4.88503 0
M  V30 6209 H 602.273 -2.94344 -5.08562 0
M  V30 6210 H 603.797 -2.22889 -5.68465 0
M  V30 6211 H 605.211 -3.92738 -4.17648 0
M  V30 6212 H 603.608 -4.63158 -3.81582 0
M  V30 6213 H 604.678 -4.16617 -2.48109 0
M  V30 6214 N 606.021 0.929856 -1.27246 0
M  V30 6215 C 607.267 1.6798 -1.13625 0
M  V30 6216 C 607.6 1.91586 0.317589 0
M  V30 6217 O 606.875 1.50467 1.23247 0
M  V30 6218 C 607.158 3.04766 -1.91806 0
M  V30 6219 C 607.011 2.88415 -3.45162 0
M  V30 6220 C 608.33 4.05063 -1.72082 0
M  V30 6221 H 605.449 0.609632 -0.414147 0
M  V30 6222 H 608.091 1.0792 -1.56376 0
M  V30 6223 H 606.241 3.56034 -1.55474 0
M  V30 6224 H 607.913 2.44282 -3.91311 0
M  V30 6225 H 606.156 2.23802 -3.71611 0
M  V30 6226 H 606.827 3.85482 -3.95105 0
M  V30 6227 H 609.303 3.62798 -2.03757 0
M  V30 6228 H 608.179 4.98765 -2.29182 0
M  V30 6229 H 608.44 4.37021 -0.668206 0
M  V30 6230 N 607.499 1.09233 1.13605 0
M  V30 6231 C 608.745 0.828385 1.8511 0
M  V30 6232 C 609.078 -0.64437 1.83198 0
M  V30 6233 O 608.353 -1.47428 1.26867 0
M  V30 6234 C 608.636 1.36167 3.33363 0
M  V30 6235 C 608.489 2.90038 3.438 0
M  V30 6236 C 609.808 0.993819 4.28732 0
M  V30 6237 H 606.927 0.30239 0.672108 0
M  V30 6238 H 609.569 1.35339 1.33355 0
M  V30 6239 H 607.719 0.9151 3.77569 0
M  V30 6240 H 609.391 3.43128 3.08319 0
M  V30 6241 H 607.634 3.27271 2.84739 0
M  V30 6242 H 608.305 3.22428 4.48045 0
M  V30 6243 H 610.781 1.37893 3.92587 0
M  V30 6244 H 609.657 1.39403 5.30903 0
M  V30 6245 H 609.918 -0.0982206 4.41991 0
M  V30 6246 N 608.977 -1.30795 0.87923 0
M  V30 6247 C 610.223 -1.97035 0.50487 0
M  V30 6248 C 610.578 -1.68182 -0.934484 0
M  V30 6249 O 609.871 -0.972953 -1.65058 0
M  V30 6250 C 610.065 -3.50287 0.709476 0
M  V30 6251 C 609.894 -3.94035 2.16717 0
M  V30 6252 C 608.664 -4.1992 2.81061 0
M  V30 6253 C 610.862 -4.07288 3.1404 0
M  V30 6254 N 608.844 -4.50088 4.17486 0
M  V30 6255 C 610.215 -4.41273 4.35521 0
M  V30 6256 C 612.27 -3.89696 3.09906 0
M  V30 6257 C 610.973 -4.59501 5.534 0
M  V30 6258 C 612.999 -4.09122 4.27052 0
M  V30 6259 C 612.361 -4.43447 5.47297 0
M  V30 6260 H 608.46 -0.746181 0.233962 0
M  V30 6261 H 611.044 -1.5814 1.13577 0
M  V30 6262 H 609.215 -3.8825 0.108108 0
M  V30 6263 H 610.947 -4.03567 0.302585 0
M  V30 6264 H 607.702 -4.12906 2.3196 0
M  V30 6265 H 608.126 -4.69316 4.87926 0
M  V30 6266 H 612.768 -3.62239 2.18043 0
M  V30 6267 H 610.486 -4.85802 6.45773 0
M  V30 6268 H 614.072 -3.96985 4.25316 0
M  V30 6269 H 612.952 -4.58171 6.36435 0
M  V30 6270 N 610.455 -0.639598 -1.44038 0
M  V30 6271 C 611.683 -0.154811 -2.0632 0
M  V30 6272 C 612.098 1.17406 -1.47856 0
M  V30 6273 O 611.455 1.72193 -0.604638 0
M  V30 6274 C 611.506 -0.0429958 -3.61474 0
M  V30 6275 O 611.227 -1.31932 -4.17763 0
M  V30 6276 C 612.728 0.469486 -4.40807 0
M  V30 6277 H 609.948 -0.0835862 -0.665773 0
M  V30 6278 H 612.492 -0.876397 -1.84769 0
M  V30 6279 H 610.647 0.629075 -3.82258 0
M  V30 6280 H 611.061 -1.16965 -5.11292 0
M  V30 6281 H 612.535 0.496712 -5.49761 0
M  V30 6282 H 613.012 1.49819 -4.12857 0
M  V30 6283 H 613.618 -0.169624 -4.24962 0
M  V30 6284 N 611.933 1.52934 -0.380664 0
M  V30 6285 C 613.158 2.06363 0.207157 0
M  V30 6286 C 613.583 1.25122 1.4045 0
M  V30 6287 O 612.941 0.274062 1.79217 0
M  V30 6288 C 612.989 3.56162 0.563996 0
M  V30 6289 O 612.093 3.77552 1.65917 0
M  V30 6290 H 611.434 0.663468 0.0265859 0
M  V30 6291 H 613.964 1.9719 -0.545635 0
M  V30 6292 H 613.974 3.99453 0.830752 0
M  V30 6293 H 612.649 4.14732 -0.311427 0
M  V30 6294 H 611.226 3.46154 1.3868 0
M  V30 6295 N 613.412 0.11024 1.57214 0
M  V30 6296 C 614.322 -0.857077 2.18383 0
M  V30 6297 C 615.338 -1.29915 1.1575 0
M  V30 6298 O 616.514 -1.36394 1.48184 0
M  V30 6299 C 613.579 -2.09264 2.76423 0
M  V30 6300 C 612.64 -1.70333 3.94063 0
M  V30 6301 C 611.873 -2.87999 4.49324 0
M  V30 6302 O 612.096 -4.0317 4.03497 0
M  V30 6303 O 611.03 -2.6559 5.40135 0
M  V30 6304 H 614.856 -0.366561 3.0148 0
M  V30 6305 H 612.441 -0.114914 1.48957 0
M  V30 6306 H 614.323 -2.81644 3.13456 0
M  V30 6307 H 612.998 -2.57339 1.96363 0
M  V30 6308 H 611.905 -0.950864 3.61814 0
M  V30 6309 H 613.238 -1.27007 4.75531 0
M  V30 6310 N 614.89 -1.56749 -0.16351 0
M  V30 6311 C 616.12 -1.86307 -0.892936 0
M  V30 6312 C 616.528 -0.6945 -1.75992 0
M  V30 6313 O 615.871 0.345384 -1.80424 0
M  V30 6314 C 615.933 -3.10372 -1.81409 0
M  V30 6315 C 615.597 -4.42913 -1.12593 0
M  V30 6316 C 616.594 -5.17608 -0.487661 0
M  V30 6317 C 614.279 -4.89646 -1.12035 0
M  V30 6318 C 616.273 -6.3723 0.14699 0
M  V30 6319 C 613.96 -6.09197 -0.481883 0
M  V30 6320 C 614.958 -6.82834 0.150678 0
M  V30 6321 O 614.646 -8.00116 0.779065 0
M  V30 6322 H 614.378 -0.622126 -0.264452 0
M  V30 6323 H 616.932 -2.04728 -0.166063 0
M  V30 6324 H 615.162 -2.87917 -2.58148 0
M  V30 6325 H 616.851 -3.26312 -2.41403 0
M  V30 6326 H 617.617 -4.8258 -0.483888 0
M  V30 6327 H 613.496 -4.32265 -1.60212 0
M  V30 6328 H 617.04 -6.94646 0.641325 0
M  V30 6329 H 612.937 -6.43688 -0.483266 0
M  V30 6330 H 613.705 -8.15678 0.679089 0
M  V30 6331 N 616.368 0.432326 -1.51554 0
M  V30 6332 C 617.645 1.19288 -1.55015 0
M  V30 6333 C 618.025 2.08701 -0.317375 0
M  V30 6334 O 617.373 2.17602 0.697243 0
M  V30 6335 C 617.583 1.99037 -2.86679 0
M  V30 6336 C 618.931 2.55907 -3.38817 0
M  V30 6337 O 619.955 2.09243 -2.88263 0
M  V30 6338 O 618.814 3.41029 -4.27038 0
M  V30 6339 H 615.908 0.543369 -0.623441 0
M  V30 6340 H 618.454 0.440988 -1.6387 0
M  V30 6341 H 617.226 1.33397 -3.6786 0
M  V30 6342 H 616.849 2.81281 -2.8101 0
M  V30 6343 N 617.846 1.41785 0.688094 0
M  V30 6344 C 619.257 1.3701 1.26828 0
M  V30 6345 C 619.608 0.056835 1.96118 0
M  V30 6346 O 618.733 -0.84475 1.99231 0
M  V30 6347 C 619.328 2.48168 2.30648 0
M  V30 6348 C 617.887 2.46766 2.84224 0
M  V30 6349 C 617.034 2.27633 1.58361 0
M  V30 6350 H 619.985 1.51192 0.482351 0
M  V30 6351 H 620.006 2.17655 3.121 0
M  V30 6352 H 619.518 3.43735 1.80188 0
M  V30 6353 H 617.619 1.54978 3.3884 0
M  V30 6354 H 617.732 3.43342 3.34145 0
M  V30 6355 H 616.096 1.75648 1.84445 0
M  V30 6356 H 616.879 3.25238 1.09887 0
M  V30 6357 N 619.324 -0.923095 1.27737 0
M  V30 6358 C 620.254 -2.04124 1.13383 0
M  V30 6359 C 621.235 -1.70066 0.0340658 0
M  V30 6360 O 622.42 -1.93068 0.209383 0
M  V30 6361 C 619.55 -3.3831 0.785097 0
M  V30 6362 C 618.504 -3.86496 1.8386 0
M  V30 6363 C 617.83 -5.1754 1.34373 0
M  V30 6364 C 619.13 -4.09381 3.24353 0
M  V30 6365 H 620.824 -2.1639 2.06919 0
M  V30 6366 H 618.37 -1.03976 0.996243 0
M  V30 6367 H 620.323 -4.16016 0.671485 0
M  V30 6368 H 619.047 -3.2607 -0.185969 0
M  V30 6369 H 617.706 -3.10987 1.9412 0
M  V30 6370 H 617.354 -5.01696 0.361989 0
M  V30 6371 H 617.054 -5.50751 2.04811 0
M  V30 6372 H 618.578 -5.97811 1.24315 0
M  V30 6373 H 619.992 -4.77641 3.17067 0
M  V30 6374 H 618.389 -4.53906 3.92542 0
M  V30 6375 H 619.459 -3.14515 3.69064 0
M  V30 6376 N 620.802 -1.09834 -1.13024 0
M  V30 6377 C 621.765 -0.745058 -2.16752 0
M  V30 6378 C 622.765 0.227435 -1.59183 0
M  V30 6379 O 623.955 0.0050786 -1.74199 0
M  V30 6380 C 621.087 -0.102543 -3.40746 0
M  V30 6381 H 622.28 -1.66375 -2.49518 0
M  V30 6382 H 619.833 -0.898061 -1.27924 0
M  V30 6383 H 620.568 0.827177 -3.13573 0
M  V30 6384 H 620.353 -0.80235 -3.83803 0
M  V30 6385 H 621.843 0.129082 -4.174 0
M  V30 6386 N 622.28 1.30327 -0.886154 0
M  V30 6387 C 623.228 2.30052 -0.343317 0
M  V30 6388 C 624.222 1.60212 0.550305 0
M  V30 6389 O 625.428 1.74674 0.434609 0
M  V30 6390 H 621.803 0.746306 -0.0923681 0
M  V30 6391 H 623.774 2.73294 -1.19804 0
M  V30 6392 C 622.523 3.45079 0.426107 0
M  V30 6393 H 621.846 3.99003 -0.25227 0
M  V30 6394 H 623.286 4.16931 0.771009 0
M  V30 6395 C 621.745 2.95195 1.62363 0
M  V30 6396 O 622.275 2.95323 2.723 0
M  V30 6397 N 620.481 2.51192 1.4612 0
M  V30 6398 H 620.028 2.51286 0.566832 0
M  V30 6399 H 619.986 2.18173 2.2638 0
M  V30 6400 N 623.758 0.647228 1.43697 0
M  V30 6401 C 624.706 -0.0600105 2.32523 0
M  V30 6402 C 625.7 -0.819277 1.48271 0
M  V30 6403 O 626.906 -0.730356 1.64517 0
M  V30 6404 H 623.281 -0.0381872 0.75103 0
M  V30 6405 H 625.252 0.706978 2.89904 0
M  V30 6406 C 624.001 -1.0169 3.32497 0
M  V30 6407 H 623.324 -0.442083 3.97348 0
M  V30 6408 H 624.764 -1.48095 3.97296 0
M  V30 6409 C 623.223 -2.11002 2.6264 0
M  V30 6410 O 623.753 -3.19302 2.4374 0
M  V30 6411 N 621.959 -1.87388 2.22113 0
M  V30 6412 H 621.506 -0.993174 2.37684 0
M  V30 6413 H 621.464 -2.60723 1.75701 0
M  V30 6414 N 625.236 -1.5273 0.388769 0
M  V30 6415 C 626.647 -1.86505 -0.0853788 0
M  V30 6416 C 626.998 -1.30847 -1.46197 0
M  V30 6417 O 626.123 -0.639609 -2.06732 0
M  V30 6418 C 626.718 -3.38414 -0.161703 0
M  V30 6419 C 625.277 -3.71902 -0.580144 0
M  V30 6420 C 624.424 -2.76095 0.258218 0
M  V30 6421 H 627.375 -1.46647 0.606665 0
M  V30 6422 H 627.396 -3.67638 -0.980936 0
M  V30 6423 H 626.908 -3.78893 0.840333 0
M  V30 6424 H 625.009 -3.36992 -1.58957 0
M  V30 6425 H 625.122 -4.77902 -0.338663 0
M  V30 6426 H 623.486 -2.53195 -0.276432 0
M  V30 6427 H 624.269 -3.19411 1.25822 0
M  V30 6428 N 626.714 -0.118576 -1.57153 0
M  V30 6429 C 627.962 0.538461 -1.94795 0
M  V30 6430 C 628.283 1.67243 -1.00274 0
M  V30 6431 O 627.553 1.95811 -0.0589692 0
M  V30 6432 H 626.133 0.201904 -0.719197 0
M  V30 6433 H 628.795 -0.187418 -1.93997 0
M  V30 6434 H 627.891 0.933315 -2.97818 0
M  V30 6435 N 628.193 1.56834 0.155195 0
M  V30 6436 C 629.439 1.84058 0.865687 0
M  V30 6437 C 629.794 0.701418 1.79159 0
M  V30 6438 O 629.087 -0.301162 1.89218 0
M  V30 6439 C 629.281 3.15239 1.68402 0
M  V30 6440 C 629.11 4.41807 0.838847 0
M  V30 6441 C 627.88 5.02744 0.507645 0
M  V30 6442 C 630.078 5.14009 0.172946 0
M  V30 6443 N 628.06 6.1289 -0.351978 0
M  V30 6444 C 629.431 6.17581 -0.547158 0
M  V30 6445 C 631.486 4.97814 0.0927721 0
M  V30 6446 C 630.189 7.06711 -1.33985 0
M  V30 6447 C 632.215 5.874 -0.686638 0
M  V30 6448 C 631.577 6.90447 -1.39505 0
M  V30 6449 H 627.676 0.724276 0.294871 0
M  V30 6450 H 630.26 1.94255 0.131583 0
M  V30 6451 H 628.431 3.06205 2.38942 0
M  V30 6452 H 630.163 3.304 2.33705 0
M  V30 6453 H 626.918 4.66064 0.841517 0
M  V30 6454 H 627.342 6.72577 -0.772573 0
M  V30 6455 H 631.984 4.18138 0.626112 0
M  V30 6456 H 629.702 7.8582 -1.88448 0
M  V30 6457 H 633.288 5.76938 -0.750555 0
M  V30 6458 H 632.168 7.58571 -1.98847 0
M  V30 6459 N 629.671 -0.424282 1.51781 0
M  V30 6460 C 630.618 -1.51591 1.74037 0
M  V30 6461 C 631.588 -1.55556 0.582358 0
M  V30 6462 O 632.773 -1.72364 0.818245 0
M  V30 6463 C 629.913 -2.89188 1.8832 0
M  V30 6464 C 629.026 -2.9465 3.1592 0
M  V30 6465 C 628.161 -4.23452 3.20721 0
M  V30 6466 C 627.2 -4.22831 4.42584 0
M  V30 6467 N 626.337 -5.43178 4.44862 0
M  V30 6468 H 631.177 -1.31917 2.67212 0
M  V30 6469 H 628.714 -0.640599 1.32419 0
M  V30 6470 H 630.672 -3.69044 1.94583 0
M  V30 6471 H 629.302 -3.07392 0.985402 0
M  V30 6472 H 628.354 -2.07378 3.18902 0
M  V30 6473 H 629.666 -2.90055 4.05795 0
M  V30 6474 H 628.82 -5.1169 3.25973 0
M  V30 6475 H 627.559 -4.30722 2.28757 0
M  V30 6476 H 626.564 -3.32984 4.37495 0
M  V30 6477 H 627.789 -4.17213 5.35826 0
M  V30 6478 H 625.735 -5.51145 3.55775 0
M  V30 6479 H 625.652 -5.40515 5.28563 0
M  V30 6480 H 626.92 -6.33412 4.54324 0
M  V30 6481 N 631.149 -1.42148 -0.680565 0
M  V30 6482 C 632.096 -1.45175 -1.79424 0
M  V30 6483 C 633.066 -0.304352 -1.63288 0
M  V30 6484 O 634.251 -0.507591 -1.83924 0
M  V30 6485 C 631.391 -1.35429 -3.17416 0
M  V30 6486 C 630.504 -2.60158 -3.4488 0
M  V30 6487 C 629.639 -2.42596 -4.72568 0
M  V30 6488 C 628.678 -3.62727 -4.93047 0
M  V30 6489 N 627.815 -3.44143 -6.11973 0
M  V30 6490 H 632.655 -2.40349 -1.76172 0
M  V30 6491 H 630.192 -1.19334 -0.860107 0
M  V30 6492 H 632.15 -1.27777 -3.97151 0
M  V30 6493 H 630.78 -0.438536 -3.19807 0
M  V30 6494 H 629.832 -2.78199 -2.5944 0
M  V30 6495 H 631.144 -3.49473 -3.55908 0
M  V30 6496 H 630.298 -2.32497 -5.60384 0
M  V30 6497 H 629.037 -1.50761 -4.63813 0
M  V30 6498 H 628.042 -3.73264 -4.03676 0
M  V30 6499 H 629.267 -4.55534 -5.03652 0
M  V30 6500 H 627.213 -2.5502 -6.04401 0
M  V30 6501 H 627.13 -4.27041 -6.23836 0
M  V30 6502 H 628.398 -3.37845 -7.02482 0
M  V30 6503 N 632.627 0.916307 -1.28225 0
M  V30 6504 C 633.575 2.03977 -1.11786 0
M  V30 6505 C 634.569 1.69358 -0.0378265 0
M  V30 6506 O 635.775 1.78925 -0.196405 0
M  V30 6507 H 632.15 0.66829 -0.344809 0
M  V30 6508 H 634.121 2.14985 -2.06939 0
M  V30 6509 C 632.87 3.38518 -0.7938 0
M  V30 6510 H 632.193 3.65649 -1.61682 0
M  V30 6511 H 633.633 4.17864 -0.718719 0
M  V30 6512 C 632.092 3.33134 0.502353 0
M  V30 6513 O 632.622 3.71281 1.53341 0
M  V30 6514 N 630.828 2.86229 0.502147 0
M  V30 6515 H 630.375 2.55382 -0.337338 0
M  V30 6516 H 630.333 2.83009 1.36942 0
M  V30 6517 N 634.105 1.10431 1.1244 0
M  V30 6518 C 635.353 0.845045 1.83585 0
M  V30 6519 C 635.674 -0.631168 1.84503 0
M  V30 6520 O 634.944 -1.45825 1.30813 0
M  V30 6521 H 633.524 0.309628 0.679809 0
M  V30 6522 H 636.186 1.39458 1.36153 0
M  V30 6523 H 635.282 1.20786 2.8778 0
M  V30 6524 N 635.583 -1.29855 0.893053 0
M  V30 6525 C 636.546 -2.26183 0.370687 0
M  V30 6526 C 637.546 -1.53108 -0.491385 0
M  V30 6527 O 638.736 -1.71643 -0.297386 0
M  V30 6528 C 635.868 -3.37633 -0.470827 0
M  V30 6529 H 637.061 -2.73903 1.22135 0
M  V30 6530 H 634.614 -1.41183 0.67061 0
M  V30 6531 H 635.349 -2.95241 -1.34175 0
M  V30 6532 H 635.134 -3.91825 0.146784 0
M  V30 6533 H 636.624 -4.09313 -0.827825 0
M  V30 6534 N 637.061 -0.65484 -1.43351 0
M  V30 6535 C 638.309 -0.168559 -2.01396 0
M  V30 6536 C 638.63 1.22235 -1.51933 0
M  V30 6537 O 637.9 1.81685 -0.732627 0
M  V30 6538 H 636.48 -0.0593244 -0.744641 0
M  V30 6539 H 639.142 -0.846871 -1.75539 0
M  V30 6540 H 638.238 -0.154428 -3.11718 0
M  V30 6541 N 638.539 1.52521 -0.396863 0
M  V30 6542 C 639.469 2.29582 0.425941 0
M  V30 6543 C 640.45 1.33281 1.05689 0
M  V30 6544 O 641.635 1.62181 1.06823 0
M  V30 6545 C 638.765 3.10821 1.54943 0
M  V30 6546 C 637.719 4.15069 1.04413 0
M  V30 6547 C 637.045 4.84578 2.26028 0
M  V30 6548 C 638.345 5.22191 0.106767 0
M  V30 6549 H 640.039 2.98612 -0.217045 0
M  V30 6550 H 637.585 1.43611 -0.105826 0
M  V30 6551 H 639.538 3.63492 2.13193 0
M  V30 6552 H 638.262 2.39538 2.22011 0
M  V30 6553 H 636.921 3.63389 0.484118 0
M  V30 6554 H 636.569 4.09835 2.91623 0
M  V30 6555 H 636.269 5.55043 1.92876 0
M  V30 6556 H 637.793 5.40056 2.84906 0
M  V30 6557 H 639.207 5.70176 0.597685 0
M  V30 6558 H 637.604 5.99947 -0.135352 0
M  V30 6559 H 638.674 4.77531 -0.842134 0
M  V30 6560 N 640.017 0.126909 1.57088 0
M  V30 6561 C 640.95 -0.857844 2.11462 0
M  V30 6562 C 641.928 -1.25569 1.03301 0
M  V30 6563 O 643.112 -1.35535 1.31006 0
M  V30 6564 C 640.239 -2.14912 2.61784 0
M  V30 6565 C 639.285 -1.89874 3.81903 0
M  V30 6566 S 640.118 -1.10785 5.23915 0
M  V30 6567 C 641.274 -2.41075 5.7761 0
M  V30 6568 H 641.507 -0.395384 2.94659 0
M  V30 6569 H 639.04 -0.0870151 1.54155 0
M  V30 6570 H 640.998 -2.89101 2.91429 0
M  V30 6571 H 639.659 -2.58275 1.78754 0
M  V30 6572 H 638.852 -2.85572 4.15289 0
M  V30 6573 H 638.454 -1.23802 3.52915 0
M  V30 6574 H 640.746 -3.36864 5.87817 0
M  V30 6575 H 641.689 -2.12223 6.75549 0
M  V30 6576 H 642.097 -2.50804 5.05725 0
M  V30 6577 N 641.495 -1.56914 -0.146875 0
M  V30 6578 C 642.741 -1.83628 -0.860741 0
M  V30 6579 C 643.074 -0.708528 -1.80813 0
M  V30 6580 O 642.349 0.287838 -1.92358 0
M  V30 6581 C 642.632 -3.20836 -1.63511 0
M  V30 6582 C 642.485 -4.44174 -0.709199 0
M  V30 6583 C 643.804 -3.55268 -2.59756 0
M  V30 6584 H 640.923 -0.667949 -0.311468 0
M  V30 6585 H 643.565 -1.89582 -0.125936 0
M  V30 6586 H 641.715 -3.15891 -2.26153 0
M  V30 6587 H 643.387 -4.61205 -0.0937781 0
M  V30 6588 H 641.63 -4.33796 -0.0187856 0
M  V30 6589 H 642.301 -5.36785 -1.28707 0
M  V30 6590 H 644.777 -3.60824 -2.07232 0
M  V30 6591 H 643.653 -4.52303 -3.10987 0
M  V30 6592 H 643.914 -2.81231 -3.41118 0
M  V30 6593 N 642.974 0.416227 -1.52004 0
M  V30 6594 C 643.922 1.5272 -1.7544 0
M  V30 6595 C 644.916 1.57596 -0.621289 0
M  V30 6596 O 646.122 1.61087 -0.803172 0
M  V30 6597 H 642.497 0.507772 -0.554682 0
M  V30 6598 H 644.468 1.30136 -2.68528 0
M  V30 6599 C 643.217 2.90165 -1.91571 0
M  V30 6600 H 642.54 2.87154 -2.78178 0
M  V30 6601 H 643.98 3.67211 -2.11972 0
M  V30 6602 C 642.439 3.29947 -0.680942 0
M  V30 6603 O 642.969 4.01403 0.154527 0
M  V30 6604 N 641.175 2.8593 -0.518894 0
M  V30 6605 H 640.722 2.2795 -1.19986 0
M  V30 6606 H 640.68 3.12907 0.305985 0
M  V30 6607 N 644.452 1.42507 0.673017 0
M  V30 6608 C 645.677 1.4668 1.46627 0
M  V30 6609 C 646.102 0.080066 1.8793 0
M  V30 6610 O 645.46 -0.921879 1.56112 0
M  V30 6611 C 645.508 2.40091 2.69051 0
M  V30 6612 O 644.612 1.8735 3.67387 0
M  V30 6613 H 643.953 0.496908 0.44043 0
M  V30 6614 H 646.483 1.87215 0.825334 0
M  V30 6615 H 646.493 2.56731 3.17101 0
M  V30 6616 H 645.168 3.4084 2.3833 0
M  V30 6617 H 643.745 1.80274 3.26429 0
M  V30 6618 N 645.93 -0.909495 1.28709 0
M  V30 6619 C 647.346 -1.18862 1.06508 0
M  V30 6620 C 647.546 -2.00604 -0.189864 0
M  V30 6621 O 646.602 -2.36281 -0.890355 0
M  V30 6622 C 647.915 -1.91908 2.31499 0
M  V30 6623 C 649.463 -2.04773 2.36721 0
M  V30 6624 C 649.938 -2.81228 3.6149 0
M  V30 6625 N 651.429 -2.88787 3.62155 0
M  V30 6626 C 652.164 -3.48455 4.55375 0
M  V30 6627 N 651.66 -4.09369 5.58918 0
M  V30 6628 N 653.453 -3.46035 4.42963 0
M  V30 6629 H 645.604 -0.363867 2.0926 0
M  V30 6630 H 647.867 -0.223649 0.921241 0
M  V30 6631 H 647.573 -1.39275 3.22948 0
M  V30 6632 H 647.447 -2.92436 2.38245 0
M  V30 6633 H 649.834 -2.56585 1.45767 0
M  V30 6634 H 649.915 -1.03408 2.33967 0
M  V30 6635 H 649.559 -2.30094 4.5279 0
M  V30 6636 H 649.489 -3.82917 3.61499 0
M  V30 6637 H 651.98 -2.45514 2.87283 0
M  V30 6638 H 652.293 -4.52891 6.26187 0
M  V30 6639 H 650.638 -4.0786 5.62739 0
M  V30 6640 H 653.829 -2.9766 3.6127 0
M  V30 6641 H 654.002 -3.92244 5.15799 0
M  V30 6642 N 647.408 -1.11026 -1.11852 0
M  V30 6643 C 648.655 -0.85646 -1.83497 0
M  V30 6644 C 648.983 0.617938 -1.84423 0
M  V30 6645 O 648.238 1.47194 -1.28966 0
M  V30 6646 C 648.537 -1.35777 -3.30604 0
M  V30 6647 C 648.203 -2.84465 -3.49843 0
M  V30 6648 C 646.865 -3.25068 -3.54802 0
M  V30 6649 C 649.217 -3.80251 -3.56453 0
M  V30 6650 C 646.545 -4.60194 -3.63921 0
M  V30 6651 C 648.897 -5.15188 -3.67102 0
M  V30 6652 C 647.561 -5.55356 -3.70319 0
M  V30 6653 H 646.831 -0.313401 -0.671462 0
M  V30 6654 H 649.478 -1.38792 -1.31943 0
M  V30 6655 H 647.783 -0.746455 -3.84624 0
M  V30 6656 H 649.48 -1.13779 -3.8452 0
M  V30 6657 H 646.07 -2.52054 -3.46651 0
M  V30 6658 H 650.254 -3.49986 -3.51886 0
M  V30 6659 H 645.51 -4.90728 -3.64686 0
M  V30 6660 H 649.684 -5.89248 -3.71159 0
M  V30 6661 H 647.311 -6.60054 -3.77138 0
M  V30 6662 N 648.886 1.2938 -0.899927 0
M  V30 6663 C 650.134 1.95164 -0.524924 0
M  V30 6664 C 650.455 1.71292 0.931888 0
M  V30 6665 O 649.725 1.04481 1.65712 0
M  V30 6666 H 648.305 0.722133 -0.191135 0
M  V30 6667 H 650.967 1.57628 -1.14627 0
M  V30 6668 H 650.063 3.0397 -0.707711 0
M  V30 6669 N 650.364 0.662433 1.43002 0
M  V30 6670 C 651.611 0.179591 2.01702 0
M  V30 6671 C 651.939 -1.20964 1.52309 0
M  V30 6672 O 651.194 -1.82343 0.7106 0
M  V30 6673 C 651.493 0.149363 3.57088 0
M  V30 6674 C 651.159 1.48158 4.25864 0
M  V30 6675 C 649.821 1.84638 4.44367 0
M  V30 6676 C 652.173 2.35953 4.64732 0
M  V30 6677 C 649.501 3.08561 4.99006 0
M  V30 6678 C 651.853 3.59176 5.20745 0
M  V30 6679 C 650.517 3.95841 5.37463 0
M  V30 6680 H 649.787 0.0657172 0.73808 0
M  V30 6681 H 652.434 0.854968 1.71355 0
M  V30 6682 H 650.739 -0.609491 3.8703 0
M  V30 6683 H 652.436 -0.241241 4.00274 0
M  V30 6684 H 649.026 1.18777 4.11813 0
M  V30 6685 H 653.21 2.09058 4.50121 0
M  V30 6686 H 648.466 3.37005 5.10135 0
M  V30 6687 H 652.64 4.27417 5.49807 0
M  V30 6688 H 650.267 4.91942 5.79566 0
M  V30 6689 N 651.842 -1.52309 0.404946 0
M  V30 6690 C 653.09 -2.01368 -0.17186 0
M  V30 6691 C 653.411 -1.29261 -1.46002 0
M  V30 6692 O 652.681 -0.41729 -1.91404 0
M  V30 6693 H 651.261 -0.744034 -0.0664993 0
M  V30 6694 H 653.923 -1.87263 0.540228 0
M  V30 6695 H 653.019 -3.09888 -0.370957 0
M  V30 6696 N 653.32 -0.135238 -1.57019 0
M  V30 6697 C 654.25 0.805235 -2.19176 0
M  V30 6698 C 655.231 1.2656 -1.13651 0
M  V30 6699 O 656.416 1.32528 -1.4195 0
M  V30 6700 C 653.546 2.04914 -2.80406 0
M  V30 6701 C 652.5 1.72598 -3.91655 0
M  V30 6702 C 651.826 3.04154 -4.39766 0
M  V30 6703 C 653.126 0.981709 -5.12991 0
M  V30 6704 H 654.82 0.287232 -2.98019 0
M  V30 6705 H 652.366 0.136714 -1.4335 0
M  V30 6706 H 654.319 2.71178 -3.22553 0
M  V30 6707 H 653.043 2.59067 -1.98877 0
M  V30 6708 H 651.702 1.08717 -3.50109 0
M  V30 6709 H 651.35 3.56274 -3.55075 0
M  V30 6710 H 651.05 2.83299 -5.14796 0
M  V30 6711 H 652.574 3.71509 -4.84576 0
M  V30 6712 H 653.988 1.5462 -5.52056 0
M  V30 6713 H 652.385 0.873533 -5.93708 0
M  V30 6714 H 653.455 -0.0286887 -4.84892 0
M  V30 6715 N 654.798 1.5699 0.138552 0
M  V30 6716 C 655.728 2.01933 1.17241 0
M  V30 6717 C 656.709 0.90033 1.44319 0
M  V30 6718 O 657.894 1.16872 1.55095 0
M  V30 6719 C 655.024 2.40711 2.50351 0
M  V30 6720 C 653.978 3.55874 2.37776 0
M  V30 6721 C 653.304 3.80491 3.75674 0
M  V30 6722 C 654.604 4.8826 1.85472 0
M  V30 6723 H 656.298 2.88551 0.798672 0
M  V30 6724 H 653.844 1.3882 0.382743 0
M  V30 6725 H 655.797 2.70754 3.22909 0
M  V30 6726 H 654.521 1.5104 2.89576 0
M  V30 6727 H 653.18 3.2601 1.67669 0
M  V30 6728 H 652.828 2.88057 4.12349 0
M  V30 6729 H 652.528 4.57998 3.68119 0
M  V30 6730 H 654.052 4.12967 4.49767 0
M  V30 6731 H 655.466 5.16965 2.4783 0
M  V30 6732 H 653.863 5.69631 1.88787 0
M  V30 6733 H 654.933 4.78071 0.810935 0
M  V30 6734 N 656.276 -0.40816 1.52223 0
M  V30 6735 C 657.224 -1.51788 1.76248 0
M  V30 6736 C 658.218 -1.57264 0.629638 0
M  V30 6737 O 659.424 -1.60659 0.811704 0
M  V30 6738 H 655.799 -0.504823 0.557367 0
M  V30 6739 H 657.77 -1.2871 2.69214 0
M  V30 6740 C 656.519 -2.89145 1.93107 0
M  V30 6741 H 655.842 -2.85674 2.79697 0
M  V30 6742 H 657.282 -3.66082 2.13916 0
M  V30 6743 C 655.741 -3.29581 0.698431 0
M  V30 6744 O 656.271 -4.01479 -0.133238 0
M  V30 6745 N 654.477 -2.85651 0.53405 0
M  V30 6746 H 654.024 -2.2731 1.21194 0
M  V30 6747 H 653.982 -3.13065 -0.289387 0
M  V30 6748 N 657.755 -1.42862 -0.66545 0
M  V30 6749 C 658.718 -1.46756 -1.76055 0
M  V30 6750 C 659.718 -0.353866 -1.56858 0
M  V30 6751 O 660.908 -0.615099 -1.62979 0
M  V30 6752 C 658.04 -1.30829 -3.14796 0
M  V30 6753 H 659.233 -2.44271 -1.73987 0
M  V30 6754 H 656.786 -1.29447 -0.875965 0
M  V30 6755 H 657.521 -0.342733 -3.22484 0
M  V30 6756 H 657.306 -2.11551 -3.30134 0
M  V30 6757 H 658.796 -1.36458 -3.94676 0
M  V30 6758 N 659.233 0.902656 -1.29189 0
M  V30 6759 C 660.18 2.00643 -1.14066 0
M  V30 6760 C 661.15 1.66064 -0.0347756 0
M  V30 6761 O 662.335 1.8973 -0.201752 0
M  V30 6762 C 659.475 3.35214 -0.820104 0
M  V30 6763 C 658.588 3.82594 -2.00614 0
M  V30 6764 C 657.723 5.05727 -1.62522 0
M  V30 6765 C 656.762 5.45469 -2.77724 0
M  V30 6766 N 655.899 6.59789 -2.40048 0
M  V30 6767 H 660.739 2.1291 -2.08502 0
M  V30 6768 H 658.276 1.04271 -1.03759 0
M  V30 6769 H 660.234 4.12643 -0.614949 0
M  V30 6770 H 658.864 3.22682 0.0873452 0
M  V30 6771 H 657.916 3.01226 -2.32308 0
M  V30 6772 H 659.228 4.07999 -2.86946 0
M  V30 6773 H 658.382 5.90732 -1.38277 0
M  V30 6774 H 657.121 4.82155 -0.733333 0
M  V30 6775 H 656.126 4.59 -3.02653 0
M  V30 6776 H 657.351 5.71024 -3.67572 0
M  V30 6777 H 655.297 6.37826 -1.53343 0
M  V30 6778 H 655.214 6.84975 -3.19914 0
M  V30 6779 H 656.482 7.4807 -2.19116 0
M  V30 6780 N 660.711 1.11618 1.11262 0
M  V30 6781 C 661.674 0.779447 2.15539 0
M  V30 6782 C 662.674 -0.202081 1.59525 0
M  V30 6783 O 663.864 0.0226356 1.74185 0
M  V30 6784 C 660.996 0.15674 3.40539 0
M  V30 6785 H 662.189 1.70324 2.4684 0
M  V30 6786 H 659.742 0.918298 1.26479 0
M  V30 6787 H 660.477 -0.777186 3.1485 0
M  V30 6788 H 660.262 0.863308 3.82478 0
M  V30 6789 H 661.752 -0.062661 4.17553 0
M  V30 6790 N 662.189 -1.289 0.906776 0
M  V30 6791 C 663.119 -2.29932 0.406659 0
M  V30 6792 C 664.1 -1.6189 -0.522061 0
M  V30 6793 O 665.285 -1.8935 -0.431283 0
M  V30 6794 C 662.415 -3.45425 -0.360366 0
M  V30 6795 C 661.369 -4.25316 0.478574 0
M  V30 6796 C 660.695 -5.33076 -0.416373 0
M  V30 6797 C 661.995 -4.92739 1.7322 0
M  V30 6798 H 663.689 -2.72013 1.25097 0
M  V30 6799 H 661.235 -1.30768 0.602977 0
M  V30 6800 H 663.188 -4.15186 -0.721029 0
M  V30 6801 H 661.912 -3.02206 -1.23852 0
M  V30 6802 H 660.571 -3.57273 0.821662 0
M  V30 6803 H 660.219 -4.86101 -1.29287 0
M  V30 6804 H 659.919 -5.8743 0.141309 0
M  V30 6805 H 661.443 -6.05686 -0.773072 0
M  V30 6806 H 662.857 -5.54898 1.44086 0
M  V30 6807 H 661.254 -5.57057 2.23175 0
M  V30 6808 H 662.324 -4.17625 2.46408 0
M  V30 6809 N 663.667 -0.670007 -1.42649 0
M  V30 6810 C 664.913 -0.190568 -2.01903 0
M  V30 6811 C 665.246 1.19817 -1.52832 0
M  V30 6812 O 664.521 1.80342 -0.728485 0
M  V30 6813 C 664.804 -0.21991 -3.59428 0
M  V30 6814 C 664.657 -1.64376 -4.18689 0
M  V30 6815 C 665.976 0.434519 -4.3795 0
M  V30 6816 H 663.095 -0.0707219 -0.733599 0
M  V30 6817 H 665.737 -0.853883 -1.69732 0
M  V30 6818 H 663.887 0.344894 -3.86966 0
M  V30 6819 H 665.559 -2.26044 -4.02122 0
M  V30 6820 H 663.802 -2.18591 -3.747 0
M  V30 6821 H 664.473 -1.61601 -5.27815 0
M  V30 6822 H 666.949 -0.0462156 -4.16074 0
M  V30 6823 H 665.825 0.38333 -5.4756 0
M  V30 6824 H 666.086 1.51135 -4.15464 0
M  V30 6825 N 665.145 1.52092 -0.413018 0
M  V30 6826 C 666.422 1.94356 0.22024 0
M  V30 6827 C 666.802 1.35017 1.62277 0
M  V30 6828 O 666.15 0.527511 2.22328 0
M  V30 6829 C 666.36 3.48289 0.222638 0
M  V30 6830 C 667.708 4.22313 0.440098 0
M  V30 6831 O 668.732 3.54919 0.301826 0
M  V30 6832 O 667.591 5.41829 0.712984 0
M  V30 6833 H 664.685 0.814536 0.14304 0
M  V30 6834 H 667.231 1.63083 -0.469242 0
M  V30 6835 H 666.003 3.83872 -0.758836 0
M  V30 6836 H 665.626 3.85934 0.956057 0
M  V30 6837 N 666.623 0.143563 1.56945 0
M  V30 6838 C 667.553 -0.7936 2.196 0
M  V30 6839 C 668.534 -1.25955 1.14321 0
M  V30 6840 O 669.719 -1.31773 1.42651 0
M  V30 6841 C 666.849 -2.03424 2.81489 0
M  V30 6842 C 665.803 -1.70519 3.92565 0
M  V30 6843 C 665.129 -3.01817 4.41373 0
M  V30 6844 C 666.429 -0.95449 5.13504 0
M  V30 6845 H 668.123 -0.271423 2.98167 0
M  V30 6846 H 665.669 -0.12911 1.4342 0
M  V30 6847 H 667.622 -2.69463 3.23987 0
M  V30 6848 H 666.346 -2.58008 2.00248 0
M  V30 6849 H 665.005 -1.06859 3.5068 0
M  V30 6850 H 664.653 -3.54386 3.56959 0
M  V30 6851 H 664.353 -2.80565 5.16292 0
M  V30 6852 H 665.877 -3.68934 4.86539 0
M  V30 6853 H 667.291 -1.5169 5.52868 0
M  V30 6854 H 665.688 -0.842035 5.94163 0
M  V30 6855 H 666.758 0.0544033 4.84869 0
M  V30 6856 N 668.101 -1.57061 -0.130224 0
M  V30 6857 C 669.064 -1.98593 -1.14426 0
M  V30 6858 C 670.064 -0.874584 -1.34936 0
M  V30 6859 O 671.254 -1.14086 -1.31643 0
M  V30 6860 C 668.386 -2.31639 -2.50112 0
M  V30 6861 H 669.579 -2.89374 -0.787561 0
M  V30 6862 H 667.132 -1.51756 -0.374146 0
M  V30 6863 H 667.867 -1.43703 -2.90723 0
M  V30 6864 H 667.652 -3.12684 -2.36583 0
M  V30 6865 H 669.142 -2.64551 -3.23114 0
M  V30 6866 N 669.579 0.400081 -1.52437 0
M  V30 6867 C 670.856 1.15973 -1.57511 0
M  V30 6868 C 671.236 2.0798 -0.361572 0
M  V30 6869 O 670.584 2.19032 0.650929 0
M  V30 6870 C 670.794 1.92912 -2.90837 0
M  V30 6871 C 672.142 2.48662 -3.44169 0
M  V30 6872 O 673.166 2.03081 -2.92637 0
M  V30 6873 O 672.025 3.31894 -4.34176 0
M  V30 6874 H 669.119 0.530023 -0.634827 0
M  V30 6875 H 671.665 0.40613 -1.64769 0
M  V30 6876 H 670.437 1.25564 -3.70607 0
M  V30 6877 H 670.06 2.75257 -2.86913 0
M  V30 6878 N 671.057 1.43213 0.657864 0
M  V30 6879 C 672.468 1.39669 1.23893 0
M  V30 6880 C 672.819 0.0984217 1.95953 0
M  V30 6881 O 671.944 -0.8023 2.00978 0
M  V30 6882 C 672.539 2.53004 2.25332 0
M  V30 6883 C 671.098 2.5274 2.78926 0
M  V30 6884 C 670.245 2.30941 1.53497 0
M  V30 6885 H 673.196 1.52181 0.450172 0
M  V30 6886 H 673.217 2.24226 3.07413 0
M  V30 6887 H 672.729 3.4748 1.72856 0
M  V30 6888 H 670.83 1.6213 3.35477 0
M  V30 6889 H 670.943 3.50352 3.26787 0
M  V30 6890 H 669.307 1.7952 1.80678 0
M  V30 6891 H 670.09 3.27496 1.02963 0
M  V30 6892 N 672.536 -0.895792 1.29666 0
M  V30 6893 C 673.952 -1.17726 1.07763 0
M  V30 6894 C 674.152 -2.00794 -0.168576 0
M  V30 6895 O 673.208 -2.37213 -0.865244 0
M  V30 6896 C 674.521 -1.89441 2.33522 0
M  V30 6897 C 676.069 -2.02251 2.3888 0
M  V30 6898 C 676.544 -2.77378 3.64452 0
M  V30 6899 N 678.035 -2.8493 3.65198 0
M  V30 6900 C 678.77 -3.43606 4.59045 0
M  V30 6901 N 678.266 -4.03417 5.63228 0
M  V30 6902 N 680.059 -3.41317 4.46608 0
M  V30 6903 H 672.21 -0.341652 2.09634 0
M  V30 6904 H 674.473 -0.213865 0.923561 0
M  V30 6905 H 674.179 -1.35842 3.24407 0
M  V30 6906 H 674.053 -2.89893 2.41334 0
M  V30 6907 H 676.44 -2.55025 1.4848 0
M  V30 6908 H 676.521 -1.0092 2.3505 0
M  V30 6909 H 676.165 -2.25279 4.55205 0
M  V30 6910 H 676.095 -3.79062 3.65541 0
M  V30 6911 H 678.586 -2.42453 2.89871 0
M  V30 6912 H 678.899 -4.46224 6.30955 0
M  V30 6913 H 677.244 -4.01868 5.67033 0
M  V30 6914 H 680.435 -2.93812 3.64407 0
M  V30 6915 H 680.608 -3.86751 5.1993 0
M  V30 6916 N 674.014 -1.12206 -1.10668 0
M  V30 6917 C 675.242 -0.898635 -1.86366 0
M  V30 6918 C 675.657 0.551991 -1.80551 0
M  V30 6919 O 675.014 1.38152 -1.19249 0
M  V30 6920 C 675.065 -1.36199 -3.34861 0
M  V30 6921 O 674.786 -2.75576 -3.40573 0
M  V30 6922 C 676.287 -1.17515 -4.2744 0
M  V30 6923 H 673.507 -0.321281 -0.589084 0
M  V30 6924 H 676.051 -1.49142 -1.39918 0
M  V30 6925 H 674.206 -0.81249 -3.78784 0
M  V30 6926 H 674.62 -2.95851 -4.33096 0
M  V30 6927 H 676.094 -1.54827 -5.29842 0
M  V30 6928 H 676.571 -0.115486 -4.39048 0
M  V30 6929 H 677.177 -1.71203 -3.89319 0
M  V30 6930 N 675.492 1.28418 -0.913599 0
M  V30 6931 C 676.738 1.95627 -0.556933 0
M  V30 6932 C 677.093 1.706 0.889565 0
M  V30 6933 O 676.386 1.01637 1.6242 0
M  V30 6934 C 676.58 3.48283 -0.802099 0
M  V30 6935 C 676.409 3.88151 -2.27088 0
M  V30 6936 C 675.179 4.1232 -2.92096 0
M  V30 6937 C 677.377 3.98819 -3.24728 0
M  V30 6938 N 675.359 4.3886 -4.29272 0
M  V30 6939 C 676.73 4.29571 -4.47067 0
M  V30 6940 C 678.785 3.81342 -3.20129 0
M  V30 6941 C 677.488 4.44667 -5.65388 0
M  V30 6942 C 679.514 3.97656 -4.37749 0
M  V30 6943 C 678.876 4.2878 -5.58862 0
M  V30 6944 H 674.975 0.739715 -0.253664 0
M  V30 6945 H 677.559 1.55074 -1.1773 0
M  V30 6946 H 675.73 3.87826 -0.211007 0
M  V30 6947 H 677.462 4.02623 -0.409478 0
M  V30 6948 H 674.217 4.06611 -2.42826 0
M  V30 6949 H 674.641 4.56214 -5.00198 0
M  V30 6950 H 679.283 3.56331 -2.2757 0
M  V30 6951 H 677.001 4.68509 -6.58426 0
M  V30 6952 H 680.587 3.85569 -4.35692 0
M  V30 6953 H 679.467 4.41136 -6.48359 0
M  V30 6954 N 676.97 0.677563 1.42291 0
M  V30 6955 C 678.386 0.347376 1.55774 0
M  V30 6956 C 678.586 -1.14703 1.65667 0
M  V30 6957 O 677.642 -1.93252 1.62512 0
M  V30 6958 C 678.955 1.08011 2.80631 0
M  V30 6959 C 680.503 1.06271 2.94407 0
M  V30 6960 C 680.978 1.77683 4.22129 0
M  V30 6961 N 682.469 1.74564 4.29047 0
M  V30 6962 C 683.204 2.26673 5.26694 0
M  V30 6963 N 682.7 2.87176 6.30477 0
M  V30 6964 N 684.493 2.17032 5.18511 0
M  V30 6965 H 676.644 1.64703 1.34114 0
M  V30 6966 H 678.907 0.694038 0.645768 0
M  V30 6967 H 678.613 2.13518 2.79469 0
M  V30 6968 H 678.487 0.647115 3.71608 0
M  V30 6969 H 680.874 0.0159658 2.95096 0
M  V30 6970 H 680.955 1.53461 2.04654 0
M  V30 6971 H 680.599 2.82327 4.22201 0
M  V30 6972 H 680.529 1.2794 5.10822 0
M  V30 6973 H 683.02 1.30436 3.54676 0
M  V30 6974 H 683.333 3.24551 7.01346 0
M  V30 6975 H 681.678 2.91247 6.31031 0
M  V30 6976 H 684.869 1.69451 4.36353 0
M  V30 6977 H 685.042 2.57948 5.94446 0
M  V30 6978 N 678.448 -1.51871 0.421078 0
M  V30 6979 C 679.673 -2.0684 -0.152371 0
M  V30 6980 C 680.098 -1.28802 -1.37083 0
M  V30 6981 O 679.456 -0.321482 -1.78427 0
M  V30 6982 C 679.504 -3.57532 -0.469368 0
M  V30 6983 O 678.608 -3.81818 -1.55848 0
M  V30 6984 H 677.949 -0.663939 -0.00898586 0
M  V30 6985 H 680.479 -1.95674 0.597724 0
M  V30 6986 H 680.489 -4.01515 -0.724553 0
M  V30 6987 H 679.164 -4.13761 0.421276 0
M  V30 6988 H 677.741 -3.49709 -1.29453 0
M  V30 6989 N 679.926 -0.151884 -1.56866 0
M  V30 6990 C 681.172 0.498742 -1.96572 0
M  V30 6991 C 681.505 1.64194 -1.03702 0
M  V30 6992 O 680.78 1.94334 -0.0803432 0
M  V30 6993 C 681.063 1.00027 -3.45929 0
M  V30 6994 C 680.916 -0.141767 -4.49577 0
M  V30 6995 C 682.235 1.88044 -3.97904 0
M  V30 6996 H 679.354 0.17982 -0.714726 0
M  V30 6997 H 681.996 -0.234097 -1.88552 0
M  V30 6998 H 680.146 1.62476 -3.52894 0
M  V30 6999 H 681.818 -0.778269 -4.54687 0
M  V30 7000 H 680.061 -0.80019 -4.26356 0
M  V30 7001 H 680.732 0.250947 -5.51429 0
M  V30 7002 H 683.208 1.35416 -3.93449 0
M  V30 7003 H 682.084 2.20043 -5.02864 0
M  V30 7004 H 682.345 2.81916 -3.40552 0
M  V30 7005 N 681.404 1.57128 0.121893 0
M  V30 7006 C 682.815 1.73902 0.679348 0
M  V30 7007 C 683.166 0.770135 1.80453 0
M  V30 7008 O 682.291 -0.0576083 2.16323 0
M  V30 7009 C 682.886 3.15328 1.2391 0
M  V30 7010 C 681.445 3.33618 1.74288 0
M  V30 7011 C 680.592 2.6978 0.641414 0
M  V30 7012 H 683.543 1.58359 -0.104 0
M  V30 7013 H 683.564 3.16718 2.10879 0
M  V30 7014 H 683.076 3.85821 0.419957 0
M  V30 7015 H 681.177 2.68162 2.58689 0
M  V30 7016 H 681.29 4.4176 1.85432 0
M  V30 7017 H 679.654 2.30935 1.0743 0
M  V30 7018 H 680.437 3.42895 -0.166707 0
M  V30 7019 N 682.882 -0.391992 1.52647 0
M  V30 7020 C 683.792 -1.503 1.80131 0
M  V30 7021 C 684.808 -1.59825 0.687882 0
M  V30 7022 O 685.984 -1.76218 0.975149 0
M  V30 7023 C 683.049 -2.85863 1.96171 0
M  V30 7024 C 682.11 -2.86084 3.20085 0
M  V30 7025 C 681.343 -4.15181 3.35351 0
M  V30 7026 O 681.566 -5.09981 2.55491 0
M  V30 7027 O 680.5 -4.22603 4.28591 0
M  V30 7028 H 684.326 -1.30007 2.74466 0
M  V30 7029 H 681.911 -0.579539 1.37701 0
M  V30 7030 H 683.793 -3.66236 2.08445 0
M  V30 7031 H 682.468 -3.06189 1.05025 0
M  V30 7032 H 681.375 -2.04504 3.13256 0
M  V30 7033 H 682.708 -2.7071 4.11068 0
M  V30 7034 N 684.36 -1.4356 -0.65026 0
M  V30 7035 C 685.307 -1.48948 -1.76304 0
M  V30 7036 C 686.277 -0.338919 -1.62605 0
M  V30 7037 O 687.462 -0.54649 -1.82806 0
M  V30 7038 C 684.602 -1.42131 -3.14472 0
M  V30 7039 C 683.715 -2.67415 -3.39284 0
M  V30 7040 C 682.85 -2.52565 -4.67316 0
M  V30 7041 C 681.889 -3.73103 -4.85243 0
M  V30 7042 N 681.026 -3.57046 -6.04535 0
M  V30 7043 H 685.866 -2.44032 -1.71034 0
M  V30 7044 H 683.403 -1.21131 -0.834601 0
M  V30 7045 H 685.361 -1.36172 -3.94351 0
M  V30 7046 H 683.991 -0.506273 -3.18805 0
M  V30 7047 H 683.043 -2.8364 -2.53481 0
M  V30 7048 H 684.355 -3.56943 -3.48415 0
M  V30 7049 H 683.509 -2.44331 -5.55326 0
M  V30 7050 H 682.248 -1.60566 -4.60511 0
M  V30 7051 H 681.253 -3.81743 -3.95667 0
M  V30 7052 H 682.478 -4.66115 -4.93876 0
M  V30 7053 H 680.424 -2.67783 -5.98856 0
M  V30 7054 H 680.341 -4.40178 -6.14638 0
M  V30 7055 H 681.609 -3.52669 -6.95158 0
M  V30 7056 N 685.838 0.888903 -1.30139 0
M  V30 7057 C 686.785 1.99422 -1.16188 0
M  V30 7058 C 687.755 1.66017 -0.0523869 0
M  V30 7059 O 688.94 1.89506 -0.221864 0
M  V30 7060 C 686.08 3.34325 -0.855612 0
M  V30 7061 C 685.193 3.80445 -2.0466 0
M  V30 7062 C 684.328 5.03975 -1.67876 0
M  V30 7063 C 683.367 5.42492 -2.83493 0
M  V30 7064 N 682.504 6.57206 -2.47032 0
M  V30 7065 H 687.344 2.10687 -2.10749 0
M  V30 7066 H 684.881 1.03165 -1.04859 0
M  V30 7067 H 686.839 4.11968 -0.658681 0
M  V30 7068 H 685.469 3.22756 0.0531155 0
M  V30 7069 H 684.521 2.98745 -2.3549 0
M  V30 7070 H 685.833 4.04933 -2.91257 0
M  V30 7071 H 684.987 5.89232 -1.44535 0
M  V30 7072 H 683.726 4.8135 -0.784431 0
M  V30 7073 H 682.731 4.55764 -3.07505 0
M  V30 7074 H 683.956 5.67093 -3.73607 0
M  V30 7075 H 681.902 6.36164 -1.601 0
M  V30 7076 H 681.819 6.81543 -3.27161 0
M  V30 7077 H 683.087 7.45704 -2.27038 0
M  V30 7078 N 687.317 1.12792 1.10072 0
M  V30 7079 C 688.227 0.812369 2.20086 0
M  V30 7080 C 689.243 -0.200349 1.72843 0
M  V30 7081 O 690.419 -0.0330262 2.01373 0
M  V30 7082 C 687.484 0.275685 3.45602 0
M  V30 7083 C 686.545 1.34881 4.07561 0
M  V30 7084 C 685.778 0.837639 5.27086 0
M  V30 7085 O 686.001 -0.327224 5.69461 0
M  V30 7086 O 684.935 1.60894 5.79997 0
M  V30 7087 H 688.761 1.73133 2.49517 0
M  V30 7088 H 686.346 0.904863 1.18881 0
M  V30 7089 H 688.228 -0.0185375 4.21396 0
M  V30 7090 H 686.903 -0.615783 3.17789 0
M  V30 7091 H 685.81 1.69625 3.33434 0
M  V30 7092 H 687.143 2.21418 4.39585 0
M  V30 7093 N 688.795 -1.27931 0.920396 0
M  V30 7094 C 690.035 -1.96459 0.564198 0
M  V30 7095 C 690.399 -1.70802 -0.876967 0
M  V30 7096 O 691.6 -2.32956 -1.34107 0
M  V30 7097 C 689.871 -3.46583 0.872641 0
M  V30 7098 S 691.43 -4.34343 0.623859 0
M  V30 7099 H 688.248 -0.679735 0.208523 0
M  V30 7100 H 690.85 -1.55319 1.18727 0
M  V30 7101 H 689.554 -3.62753 1.91933 0
M  V30 7102 H 689.085 -3.92677 0.238479 0
M  V30 7103 H 691.1 -4.93449 -0.521744 0
M  V30 7104 N 690.273 -0.685099 -1.4193 0
M  V30 7105 C 691.519 -0.211971 -2.01689 0
M  V30 7106 C 691.852 1.18189 -1.54094 0
M  V30 7107 O 691.127 1.79559 -0.747572 0
M  V30 7108 C 691.41 -0.258019 -3.59174 0
M  V30 7109 C 691.263 -1.68807 -4.16922 0
M  V30 7110 C 692.582 0.388044 -4.38386 0
M  V30 7111 H 689.701 -0.0784987 -0.732808 0
M  V30 7112 H 692.343 -0.871837 -1.68816 0
M  V30 7113 H 690.493 0.303832 -3.8731 0
M  V30 7114 H 692.165 -2.30296 -3.99702 0
M  V30 7115 H 690.408 -2.22553 -3.72361 0
M  V30 7116 H 691.079 -1.6719 -5.26072 0
M  V30 7117 H 693.555 -0.0903432 -4.16002 0
M  V30 7118 H 692.431 0.325232 -5.47936 0
M  V30 7119 H 692.692 1.4672 -4.17044 0
M  V30 7120 N 691.751 1.51645 -0.429126 0
M  V30 7121 C 692.997 2.02314 0.140286 0
M  V30 7122 C 693.33 1.31314 1.43074 0
M  V30 7123 O 692.605 0.425531 1.89788 0
M  V30 7124 C 692.888 3.5822 0.36749 0
M  V30 7125 C 692.741 4.39846 -0.941039 0
M  V30 7126 C 694.06 4.25055 1.14089 0
M  V30 7127 H 691.179 0.735335 0.0495112 0
M  V30 7128 H 693.821 1.81358 -0.566514 0
M  V30 7129 H 691.971 3.76207 0.969556 0
M  V30 7130 H 693.643 4.33527 -1.57646 0
M  V30 7131 H 691.886 4.05259 -1.54751 0
M  V30 7132 H 692.557 5.47069 -0.73621 0
M  V30 7133 H 695.033 4.11288 0.630986 0
M  V30 7134 H 693.909 5.34038 1.26863 0
M  V30 7135 H 694.17 3.85358 2.16683 0
M  V30 7136 N 693.229 0.160201 1.56784 0
M  V30 7137 C 694.176 -0.774416 2.1742 0
M  V30 7138 C 695.146 -1.23483 1.11091 0
M  V30 7139 O 696.331 -1.30499 1.39193 0
M  V30 7140 C 693.471 -2.00283 2.81035 0
M  V30 7141 C 692.584 -1.58701 4.01793 0
M  V30 7142 C 691.719 -2.76824 4.53367 0
M  V30 7143 C 690.758 -2.31679 5.66561 0
M  V30 7144 N 689.895 -3.42856 6.12694 0
M  V30 7145 H 694.735 -0.250542 2.96945 0
M  V30 7146 H 692.272 -0.111943 1.46673 0
M  V30 7147 H 694.23 -2.72316 3.16069 0
M  V30 7148 H 692.86 -2.5006 2.04132 0
M  V30 7149 H 691.912 -0.76384 3.72652 0
M  V30 7150 H 693.224 -1.21555 4.83762 0
M  V30 7151 H 692.378 -3.57029 4.90525 0
M  V30 7152 H 691.117 -3.17223 3.70433 0
M  V30 7153 H 690.122 -1.49917 5.28966 0
M  V30 7154 H 691.347 -1.9235 6.5129 0
M  V30 7155 H 689.293 -3.82852 5.32692 0
M  V30 7156 H 689.21 -3.09767 6.89624 0
M  V30 7157 H 690.478 -4.23379 6.545 0
M  V30 7158 N 694.707 -1.5719 -0.113559 0
M  V30 7159 C 695.984 -1.76117 -0.850999 0
M  V30 7160 C 696.364 -0.737085 -1.97814 0
M  V30 7161 O 695.712 0.237942 -2.27258 0
M  V30 7162 C 695.922 -3.21298 -1.36266 0
M  V30 7163 C 697.27 -3.83955 -1.81283 0
M  V30 7164 O 698.294 -3.24934 -1.45933 0
M  V30 7165 O 697.153 -4.87707 -2.46585 0
M  V30 7166 H 694.247 -0.721308 -0.404529 0
M  V30 7167 H 696.793 -1.69423 -0.0968756 0
M  V30 7168 H 695.565 -3.87355 -0.554235 0
M  V30 7169 H 695.188 -3.32552 -2.17933 0
M  V30 7170 N 696.185 0.383891 -1.52853 0
M  V30 7171 C 697.133 1.48965 -1.7864 0
M  V30 7172 C 698.127 1.56242 -0.654577 0
M  V30 7173 O 699.333 1.59347 -0.83716 0
M  V30 7174 H 695.708 0.495892 -0.565328 0
M  V30 7175 H 697.679 1.24411 -2.71228 0
M  V30 7176 C 696.428 2.86036 -1.97683 0
M  V30 7177 H 695.751 2.81188 -2.84206 0
M  V30 7178 H 697.191 3.62632 -2.19713 0
M  V30 7179 C 695.65 3.28428 -0.750776 0
M  V30 7180 O 696.18 4.0164 0.0693491 0
M  V30 7181 N 694.386 2.84765 -0.579427 0
M  V30 7182 H 693.933 2.25353 -1.24795 0
M  V30 7183 H 693.891 3.13486 0.239544 0
M  V30 7184 N 697.663 1.43903 0.642637 0
M  V30 7185 C 698.94 1.36556 1.40043 0
M  V30 7186 C 699.32 0.0185588 2.11092 0
M  V30 7187 O 698.668 -0.998438 2.05532 0
M  V30 7188 C 698.878 2.55596 2.37638 0
M  V30 7189 C 700.226 2.99153 3.01318 0
M  V30 7190 O 701.25 2.55719 2.47965 0
M  V30 7191 O 700.109 3.74427 3.98078 0
M  V30 7192 H 697.203 0.540189 0.626198 0
M  V30 7193 H 699.749 1.55971 0.668657 0
M  V30 7194 H 698.521 3.45256 1.84158 0
M  V30 7195 H 698.144 2.38334 3.18249 0
M  V30 7196 N 699.141 -0.881989 1.30609 0
M  V30 7197 C 700.388 -1.63405 1.19604 0
M  V30 7198 C 700.716 -1.92905 -0.248574 0
M  V30 7199 O 699.971 -1.55062 -1.19391 0
M  V30 7200 C 700.27 -2.97999 1.97311 0
M  V30 7201 C 699.936 -2.88039 3.46907 0
M  V30 7202 C 698.598 -2.85029 3.877 0
M  V30 7203 C 700.95 -2.75948 4.42156 0
M  V30 7204 C 698.278 -2.67772 5.2203 0
M  V30 7205 C 700.63 -2.60228 5.76597 0
M  V30 7206 C 699.294 -2.55595 6.16626 0
M  V30 7207 H 698.564 -0.597941 0.437662 0
M  V30 7208 H 701.211 -1.02524 1.61744 0
M  V30 7209 H 699.516 -3.62847 1.47815 0
M  V30 7210 H 701.213 -3.55156 1.86186 0
M  V30 7211 H 697.803 -2.91192 3.14492 0
M  V30 7212 H 701.987 -2.77337 4.1158 0
M  V30 7213 H 697.243 -2.62601 5.52133 0
M  V30 7214 H 701.417 -2.49847 6.50038 0
M  V30 7215 H 699.044 -2.41981 7.20659 0
M  V30 7216 N 700.619 -1.13374 -1.09472 0
M  V30 7217 C 701.529 -0.824029 -2.19652 0
M  V30 7218 C 702.545 0.19118 -1.72947 0
M  V30 7219 O 703.721 0.0223464 -2.01388 0
M  V30 7220 C 700.786 -0.294009 -3.45451 0
M  V30 7221 C 699.847 -1.3704 -4.0684 0
M  V30 7222 C 699.08 -0.86558 -5.26634 0
M  V30 7223 O 699.303 0.29702 -5.69626 0
M  V30 7224 O 698.237 -1.63968 -5.79136 0
M  V30 7225 H 702.063 -1.74454 -2.48595 0
M  V30 7226 H 699.648 -0.911155 -1.18399 0
M  V30 7227 H 701.53 -0.00381039 -4.214 0
M  V30 7228 H 700.205 0.598921 -3.18111 0
M  V30 7229 H 699.112 -1.71391 -3.3253 0
M  V30 7230 H 700.445 -2.23746 -4.38405 0
M  V30 7231 N 702.098 1.27442 -0.927168 0
M  V30 7232 C 703.509 1.76385 -0.611979 0
M  V30 7233 C 703.86 1.75715 0.872853 0
M  V30 7234 O 702.985 1.3603 1.683 0
M  V30 7235 C 703.58 3.20303 -1.10414 0
M  V30 7236 C 702.139 3.66916 -0.839628 0
M  V30 7237 C 701.286 2.46859 -1.26317 0
M  V30 7238 H 704.237 1.13716 -1.107 0
M  V30 7239 H 704.258 3.77811 -0.451578 0
M  V30 7240 H 703.77 3.20759 -2.18484 0
M  V30 7241 H 701.871 3.71906 0.227292 0
M  V30 7242 H 701.984 4.56415 -1.45679 0
M  V30 7243 H 700.348 2.45407 -0.681723 0
M  V30 7244 H 701.131 2.50025 -2.3525 0
M  V30 7245 N 703.576 0.692616 1.41565 0
M  V30 7246 C 704.992 0.363878 1.55397 0
M  V30 7247 C 705.192 -1.1294 1.66874 0
M  V30 7248 O 704.248 -1.91517 1.64552 0
M  V30 7249 C 705.561 1.10982 2.7947 0
M  V30 7250 C 707.109 1.09387 2.93263 0
M  V30 7251 C 707.584 1.8215 4.20221 0
M  V30 7252 N 709.075 1.79105 4.27172 0
M  V30 7253 C 709.81 2.32247 5.2426 0
M  V30 7254 N 709.306 2.93847 6.27396 0
M  V30 7255 N 711.099 2.22519 5.1618 0
M  V30 7256 H 703.25 1.66116 1.3236 0
M  V30 7257 H 705.513 0.700848 0.63837 0
M  V30 7258 H 705.219 2.1647 2.77188 0
M  V30 7259 H 705.093 0.686492 3.709 0
M  V30 7260 H 707.48 0.0472638 2.95062 0
M  V30 7261 H 707.561 1.55623 2.03015 0
M  V30 7262 H 707.205 2.86789 4.19183 0
M  V30 7263 H 707.135 1.33351 5.09436 0
M  V30 7264 H 709.626 1.34191 3.53272 0
M  V30 7265 H 709.939 3.31972 6.97864 0
M  V30 7266 H 708.284 2.97924 6.27906 0
M  V30 7267 H 711.475 1.7407 4.34531 0
M  V30 7268 H 711.648 2.64239 5.91677 0
M  V30 7269 N 705.054 -1.51416 0.437162 0
M  V30 7270 C 706.017 -2.26312 -0.362729 0
M  V30 7271 C 707.017 -1.29748 -0.949847 0
M  V30 7272 O 708.207 -1.53462 -0.824325 0
M  V30 7273 C 705.339 -3.05475 -1.5132 0
M  V30 7274 H 706.532 -2.98459 0.29365 0
M  V30 7275 H 704.085 -1.55137 0.190327 0
M  V30 7276 H 704.82 -2.37744 -2.20563 0
M  V30 7277 H 704.605 -3.76401 -1.09838 0
M  V30 7278 H 706.095 -3.62209 -2.07833 0
M  V30 7279 N 706.532 -0.168513 -1.56696 0
M  V30 7280 C 707.462 0.758563 -2.20835 0
M  V30 7281 C 708.443 1.24121 -1.1631 0
M  V30 7282 O 709.628 1.29487 -1.4473 0
M  V30 7283 C 706.758 1.9892 -2.8469 0
M  V30 7284 C 705.712 1.64252 -3.95228 0
M  V30 7285 C 705.038 2.94757 -4.46119 0
M  V30 7286 C 706.338 0.872675 -5.14958 0
M  V30 7287 H 708.032 0.223953 -2.98561 0
M  V30 7288 H 705.578 0.106277 -1.43607 0
M  V30 7289 H 707.531 2.64275 -3.28233 0
M  V30 7290 H 706.255 2.5479 -2.04327 0
M  V30 7291 H 704.914 1.01266 -3.52336 0
M  V30 7292 H 704.562 3.48662 -3.62552 0
M  V30 7293 H 704.262 2.72316 -5.2069 0
M  V30 7294 H 705.786 3.61147 -4.92347 0
M  V30 7295 H 707.2 1.42875 -5.55211 0
M  V30 7296 H 705.597 0.747402 -5.95428 0
M  V30 7297 H 706.667 -0.131535 -4.84722 0
M  V30 7298 N 708.01 1.57248 0.105221 0
M  V30 7299 C 708.957 2.01338 1.12835 0
M  V30 7300 C 709.927 0.887897 1.40377 0
M  V30 7301 O 711.112 1.15315 1.5201 0
M  V30 7302 C 708.252 2.43432 2.44611 0
M  V30 7303 C 707.365 3.69457 2.23888 0
M  V30 7304 C 706.5 4.00473 3.48991 0
M  V30 7305 C 705.539 5.19638 3.23485 0
M  V30 7306 N 704.676 5.46457 4.40828 0
M  V30 7307 H 709.516 2.88527 0.745386 0
M  V30 7308 H 707.053 1.42714 0.356535 0
M  V30 7309 H 709.011 2.65879 3.21503 0
M  V30 7310 H 707.641 1.59266 2.80774 0
M  V30 7311 H 706.693 3.54545 1.37847 0
M  V30 7312 H 708.005 4.56497 2.01026 0
M  V30 7313 H 707.159 4.23642 4.34295 0
M  V30 7314 H 705.898 3.11935 3.74897 0
M  V30 7315 H 704.903 4.96299 2.36574 0
M  V30 7316 H 706.128 6.09766 2.98935 0
M  V30 7317 H 704.074 4.60876 4.66829 0
M  V30 7318 H 703.991 6.27849 4.2112 0
M  V30 7319 H 705.259 5.74155 5.27225 0
M  V30 7320 N 709.488 -0.375779 1.53054 0
M  V30 7321 C 710.451 -1.44254 1.7811 0
M  V30 7322 C 711.451 -1.47018 0.651328 0
M  V30 7323 O 712.641 -1.47957 0.919472 0
M  V30 7324 C 709.773 -2.8345 1.89391 0
M  V30 7325 H 710.966 -1.23316 2.73374 0
M  V30 7326 H 708.519 -0.608312 1.43977 0
M  V30 7327 H 709.254 -3.09716 0.961589 0
M  V30 7328 H 709.039 -2.82844 2.71555 0
M  V30 7329 H 710.529 -3.60722 2.10404 0
M  V30 7330 N 710.966 -1.44241 -0.634997 0
M  V30 7331 C 711.914 -1.51103 -1.76835 0
M  V30 7332 C 712.908 -0.383051 -1.65012 0
M  V30 7333 O 714.114 -0.557832 -1.71138 0
M  V30 7334 H 710.489 -0.474076 -0.583743 0
M  V30 7335 H 712.46 -2.46499 -1.68169 0
M  V30 7336 C 711.209 -1.4687 -3.15158 0
M  V30 7337 H 710.532 -2.32979 -3.24901 0
M  V30 7338 H 711.972 -1.55731 -3.94365 0
M  V30 7339 C 710.431 -0.188884 -3.3637 0
M  V30 7340 O 710.961 0.742487 -3.94778 0
M  V30 7341 N 709.167 -0.0932516 -2.9045 0
M  V30 7342 H 708.714 -0.852004 -2.43102 0
M  V30 7343 H 708.672 0.762308 -3.05018 0
M  V30 7344 N 712.444 0.87505 -1.31075 0
M  V30 7345 C 713.692 1.62447 -1.20231 0
M  V30 7346 C 714.013 1.93506 0.240888 0
M  V30 7347 O 713.283 1.57847 1.16022 0
M  V30 7348 H 711.863 0.602207 -0.441991 0
M  V30 7349 H 714.525 1.04788 -1.64334 0
M  V30 7350 H 713.621 2.57031 -1.77036 0
M  V30 7351 N 713.922 1.13953 1.08869 0
M  V30 7352 C 714.832 0.835666 2.19212 0
M  V30 7353 C 715.848 -0.182005 1.73045 0
M  V30 7354 O 717.024 -0.0116661 2.01397 0
M  V30 7355 C 714.089 0.312325 3.4529 0
M  V30 7356 C 713.15 1.39196 4.06107 0
M  V30 7357 C 712.383 0.893496 5.26168 0
M  V30 7358 O 712.606 -0.266807 5.69776 0
M  V30 7359 O 711.54 1.67037 5.78258 0
M  V30 7360 H 715.366 1.75769 2.47667 0
M  V30 7361 H 712.951 0.917421 1.17914 0
M  V30 7362 H 714.833 0.0261582 4.21392 0
M  V30 7363 H 713.508 -0.582042 3.18424 0
M  V30 7364 H 712.415 1.73152 3.31616 0
M  V30 7365 H 713.748 2.26068 4.37212 0
M  V30 7366 N 715.4 -1.26948 0.933913 0
M  V30 7367 C 716.646 -1.94374 0.57848 0
M  V30 7368 C 716.979 -1.73166 -0.879048 0
M  V30 7369 O 716.254 -1.06438 -1.62792 0
M  V30 7370 C 716.537 -3.4834 0.912739 0
M  V30 7371 C 716.39 -3.78866 2.42448 0
M  V30 7372 C 717.709 -4.38062 0.423003 0
M  V30 7373 H 714.828 -0.705959 0.211639 0
M  V30 7374 H 717.47 -1.49951 1.16682 0
M  V30 7375 H 715.62 -3.86309 0.412058 0
M  V30 7376 H 717.292 -3.50654 2.99733 0
M  V30 7377 H 715.535 -3.25198 2.87104 0
M  V30 7378 H 716.206 -4.86458 2.60887 0
M  V30 7379 H 718.682 -4.0728 0.852191 0
M  V30 7380 H 717.558 -5.44599 0.685776 0
M  V30 7381 H 717.819 -4.36886 -0.676994 0
M  V30 7382 N 716.879 -0.700114 -1.41195 0
M  V30 7383 C 718.128 -0.230082 -2.00383 0
M  V30 7384 C 718.441 1.17857 -1.56106 0
M  V30 7385 O 719.647 1.74631 -2.07885 0
M  V30 7386 C 718.103 -0.360447 -3.5809 0
M  V30 7387 C 717.711 -1.77475 -4.11347 0
M  V30 7388 C 719.455 0.0495799 -4.24471 0
M  V30 7389 C 717.362 -1.85653 -5.61504 0
M  V30 7390 H 716.292 -0.0822633 -0.749499 0
M  V30 7391 H 718.943 -0.868969 -1.6162 0
M  V30 7392 H 717.325 0.346768 -3.94479 0
M  V30 7393 H 718.499 -2.51109 -3.86369 0
M  V30 7394 H 716.814 -2.13486 -3.57509 0
M  V30 7395 H 719.411 0.00898219 -5.34699 0
M  V30 7396 H 719.754 1.08904 -4.01803 0
M  V30 7397 H 720.287 -0.607521 -3.93134 0
M  V30 7398 H 717.026 -2.87667 -5.89006 0
M  V30 7399 H 716.546 -1.1641 -5.88395 0
M  V30 7400 H 718.225 -1.62151 -6.26351 0
M  V30 7401 N 718.357 1.51182 -0.445186 0
M  V30 7402 C 719.606 2.01342 0.120189 0
M  V30 7403 C 719.919 1.33353 1.43095 0
M  V30 7404 O 721.125 1.74525 2.07974 0
M  V30 7405 C 719.581 3.58925 0.264732 0
M  V30 7406 C 719.189 4.35855 -1.03606 0
M  V30 7407 C 720.933 4.17208 0.783455 0
M  V30 7408 C 718.84 5.85162 -0.856731 0
M  V30 7409 H 717.77 0.752426 0.0486922 0
M  V30 7410 H 720.421 1.74221 -0.576143 0
M  V30 7411 H 718.803 3.82525 1.02425 0
M  V30 7412 H 719.977 4.23997 -1.80452 0
M  V30 7413 H 718.292 3.89062 -1.48391 0
M  V30 7414 H 720.889 5.26475 0.934239 0
M  V30 7415 H 721.232 3.76892 1.768 0
M  V30 7416 H 721.765 3.97715 0.0820346 0
M  V30 7417 H 718.504 6.29904 -1.81388 0
M  V30 7418 H 718.024 5.99663 -0.128206 0
M  V30 7419 H 719.703 6.44963 -0.513027 0
M  V30 7420 N 719.835 0.176821 1.56605 0
M  V30 7421 C 720.745 -0.763682 2.21822 0
M  V30 7422 C 721.761 -1.24889 1.21156 0
M  V30 7423 O 722.937 -1.29987 1.53836 0
M  V30 7424 C 720.002 -1.97352 2.8505 0
M  V30 7425 C 719.063 -1.53466 4.00932 0
M  V30 7426 C 718.296 -2.68682 4.61135 0
M  V30 7427 O 718.519 -3.85694 4.20234 0
M  V30 7428 O 717.453 -2.42442 5.50913 0
M  V30 7429 H 721.279 -0.238363 3.02763 0
M  V30 7430 H 718.864 -0.0516331 1.49311 0
M  V30 7431 H 720.746 -2.68096 3.25119 0
M  V30 7432 H 719.421 -2.48779 2.07101 0
M  V30 7433 H 718.328 -0.796551 3.65521 0
M  V30 7434 H 719.661 -1.06724 4.8049 0
M  V30 7435 N 721.313 -1.57302 -0.09688 0
M  V30 7436 C 722.562 -1.85183 -0.799388 0
M  V30 7437 C 722.875 -0.765818 -1.79985 0
M  V30 7438 O 724.081 -0.931696 -2.55013 0
M  V30 7439 C 722.537 -3.28399 -1.47249 0
M  V30 7440 C 722.145 -4.45066 -0.511888 0
M  V30 7441 C 723.889 -3.65506 -2.15883 0
M  V30 7442 C 721.796 -5.79315 -1.18948 0
M  V30 7443 H 720.726 -0.690752 -0.302287 0
M  V30 7444 H 723.377 -1.83425 -0.0523104 0
M  V30 7445 H 721.759 -3.24692 -2.26697 0
M  V30 7446 H 722.933 -4.60116 0.250962 0
M  V30 7447 H 721.248 -4.16343 0.0686576 0
M  V30 7448 H 723.845 -4.63087 -2.67309 0
M  V30 7449 H 724.188 -2.94041 -2.94696 0
M  V30 7450 H 724.721 -3.71094 -1.43298 0
M  V30 7451 H 721.46 -6.54007 -0.442198 0
M  V30 7452 H 720.98 -5.68111 -1.9238 0
M  V30 7453 H 722.659 -6.23816 -1.71646 0
M  V30 7454 N 722.791 0.367657 -1.53252 0
M  V30 7455 C 724.202 0.944563 -1.61043 0
M  V30 7456 C 724.553 1.90325 -0.476546 0
M  V30 7457 O 723.678 2.12721 0.397333 0
M  V30 7458 C 724.273 1.71992 -2.91898 0
M  V30 7459 C 722.832 2.2462 -3.02031 0
M  V30 7460 C 721.979 1.05799 -2.56324 0
M  V30 7461 H 724.93 0.146516 -1.58022 0
M  V30 7462 H 724.951 2.58095 -2.79584 0
M  V30 7463 H 724.463 1.02192 -3.74404 0
M  V30 7464 H 722.564 2.97668 -2.24108 0
M  V30 7465 H 722.677 2.52644 -4.07073 0
M  V30 7466 H 721.041 1.42435 -2.1115 0
M  V30 7467 H 721.824 0.375008 -3.41246 0
M  V30 7468 N 724.269 1.44576 0.627338 0
M  V30 7469 C 725.497 1.51048 1.41394 0
M  V30 7470 C 725.912 0.136568 1.88305 0
M  V30 7471 O 725.269 -0.858251 1.6106 0
M  V30 7472 C 725.32 2.47837 2.63172 0
M  V30 7473 O 725.041 3.79887 2.18215 0
M  V30 7474 C 726.542 2.63811 3.56257 0
M  V30 7475 H 723.762 0.512171 0.4335 0
M  V30 7476 H 726.306 1.89576 0.766878 0
M  V30 7477 H 724.461 2.12433 3.23961 0
M  V30 7478 H 724.875 4.32177 2.97192 0
M  V30 7479 H 726.349 3.35554 4.38301 0
M  V30 7480 H 726.826 1.69169 4.05313 0
M  V30 7481 H 727.432 3.0013 3.01333 0
M  V30 7482 N 725.747 -0.868086 1.31537 0
M  V30 7483 C 727.163 -1.15414 1.10235 0
M  V30 7484 C 727.363 -2.01106 -0.125947 0
M  V30 7485 O 726.419 -2.38994 -0.814734 0
M  V30 7486 C 727.732 -1.84445 2.37488 0
M  V30 7487 C 729.28 -1.97139 2.43116 0
M  V30 7488 C 729.755 -2.69585 3.70254 0
M  V30 7489 N 731.246 -2.77119 3.71159 0
M  V30 7490 C 731.981 -3.33791 4.6623 0
M  V30 7491 N 731.477 -3.9138 5.71659 0
M  V30 7492 N 733.27 -3.31767 4.53747 0
M  V30 7493 H 725.421 -0.297109 2.10312 0
M  V30 7494 H 727.684 -0.194227 0.92789 0
M  V30 7495 H 727.39 -1.2893 3.27215 0
M  V30 7496 H 727.264 -2.84709 2.47428 0
M  V30 7497 H 729.651 -2.51818 1.53856 0
M  V30 7498 H 729.732 -0.95912 2.37138 0
M  V30 7499 H 729.376 -2.15572 4.59881 0
M  V30 7500 H 729.306 -3.71223 3.73499 0
M  V30 7501 H 731.797 -2.3625 2.94948 0
M  V30 7502 H 732.11 -4.3274 6.40278 0
M  V30 7503 H 730.455 -3.8975 5.7543 0
M  V30 7504 H 733.646 -2.86016 3.70557 0
M  V30 7505 H 733.819 -3.75636 5.28017 0
M  V30 7506 N 727.225 -1.14528 -1.08264 0
M  V30 7507 C 728.188 -0.83632 -2.13397 0
M  V30 7508 C 729.188 0.159715 -1.60005 0
M  V30 7509 O 730.378 -0.0688098 -1.74064 0
M  V30 7510 C 727.51 -0.246973 -3.40004 0
M  V30 7511 H 728.703 -1.76808 -2.42237 0
M  V30 7512 H 726.256 -0.951509 -1.24 0
M  V30 7513 H 726.991 0.693436 -3.168 0
M  V30 7514 H 726.776 -0.964412 -3.80055 0
M  V30 7515 H 728.266 -0.0480679 -4.17572 0
M  V30 7516 N 728.703 1.26451 -0.940633 0
M  V30 7517 C 729.943 1.95537 -0.595381 0
M  V30 7518 C 730.307 1.72175 0.849683 0
M  V30 7519 O 731.508 2.3506 1.30384 0
M  V30 7520 C 729.779 3.45151 -0.927669 0
M  V30 7521 S 731.338 4.33295 -0.69288 0
M  V30 7522 H 728.156 0.676331 -0.219311 0
M  V30 7523 H 730.758 1.53411 -1.21183 0
M  V30 7524 H 729.462 3.59654 -1.9768 0
M  V30 7525 H 728.993 3.92247 -0.300921 0
M  V30 7526 H 731.008 4.94217 0.443175 0
M  V30 7527 N 730.181 0.707592 1.40822 0
M  V30 7528 C 731.091 0.0507246 2.34545 0
M  V30 7529 C 732.107 -0.752727 1.56876 0
M  V30 7530 O 733.283 -0.687524 1.89302 0
M  V30 7531 C 730.348 -0.865731 3.35717 0
M  V30 7532 C 729.409 -0.0531313 4.29267 0
M  V30 7533 C 728.642 -0.925939 5.25606 0
M  V30 7534 O 728.865 -2.16531 5.27703 0
M  V30 7535 O 727.799 -0.369194 6.00767 0
M  V30 7536 H 731.625 0.823587 2.9232 0
M  V30 7537 H 729.21 0.46801 1.4188 0
M  V30 7538 H 731.092 -1.39091 3.97783 0
M  V30 7539 H 729.767 -1.61788 2.80368 0
M  V30 7540 H 728.674 0.516931 3.70511 0
M  V30 7541 H 730.007 0.660617 4.87747 0
M  V30 7542 N 731.66 -1.50943 0.453197 0
M  V30 7543 C 732.908 -2.01813 -0.107709 0
M  V30 7544 C 733.229 -1.33841 -1.41816 0
M  V30 7545 O 732.499 -0.477973 -1.8998 0
M  V30 7546 H 731.079 -0.745773 -0.0427948 0
M  V30 7547 H 733.741 -1.8545 0.599531 0
M  V30 7548 H 732.837 -3.10911 -0.27218 0
M  V30 7549 N 733.138 -0.185124 -1.56509 0
M  V30 7550 C 734.07 0.771401 -2.15829 0
M  V30 7551 C 735.083 1.18392 -1.11747 0
M  V30 7552 O 736.272 1.12137 -1.38879 0
M  V30 7553 C 733.372 2.05169 -2.69739 0
M  V30 7554 C 732.545 1.80056 -3.98621 0
M  V30 7555 C 731.604 2.92435 -4.37456 0
M  V30 7556 O 730.63 2.62473 -5.05071 0
M  V30 7557 N 731.832 4.20554 -4.00143 0
M  V30 7558 H 734.597 0.264184 -2.98533 0
M  V30 7559 H 732.158 -0.00281069 -1.619 0
M  V30 7560 H 734.15 2.7947 -2.92709 0
M  V30 7561 H 732.72 2.47041 -1.91545 0
M  V30 7562 H 731.94 0.895862 -3.83885 0
M  V30 7563 H 733.228 1.60662 -4.82768 0
M  V30 7564 H 732.626 4.47753 -3.45736 0
M  V30 7565 H 731.183 4.91514 -4.28085 0
M  V30 7566 N 734.616 1.57351 0.0885366 0
M  V30 7567 C 735.526 2.05858 1.12516 0
M  V30 7568 C 736.542 0.984758 1.43452 0
M  V30 7569 O 737.718 1.29836 1.53963 0
M  V30 7570 C 734.783 2.47882 2.42395 0
M  V30 7571 C 733.844 3.69487 2.18582 0
M  V30 7572 C 733.077 4.09497 3.42268 0
M  V30 7573 O 733.3 3.49536 4.50755 0
M  V30 7574 O 732.234 5.02406 3.31469 0
M  V30 7575 H 736.06 2.94467 0.743146 0
M  V30 7576 H 733.645 1.46326 0.301507 0
M  V30 7577 H 735.527 2.75509 3.18862 0
M  V30 7578 H 734.202 1.62408 2.8001 0
M  V30 7579 H 733.109 3.46967 1.39875 0
M  V30 7580 H 734.442 4.55761 1.85857 0
M  V30 7581 N 736.094 -0.359525 1.53444 0
M  V30 7582 C 737.042 -1.46104 1.80987 0
M  V30 7583 C 738.036 -1.55181 0.679351 0
M  V30 7584 O 739.242 -1.57995 0.862405 0
M  V30 7585 H 735.617 -0.486835 0.573145 0
M  V30 7586 H 737.588 -1.2008 2.73173 0
M  V30 7587 C 736.337 -2.82855 2.02208 0
M  V30 7588 H 735.66 -2.76631 2.88644 0
M  V30 7589 H 737.1 -3.59091 2.25455 0
M  V30 7590 C 735.559 -3.27192 0.802931 0
M  V30 7591 O 736.089 -4.017 -0.00544286 0
M  V30 7592 N 734.295 -2.83807 0.624657 0
M  V30 7593 H 733.842 -2.23339 1.28364 0
M  V30 7594 H 733.8 -3.13828 -0.189641 0
M  V30 7595 N 737.572 -1.44907 -0.619662 0
M  V30 7596 C 738.535 -1.52282 -1.71297 0
M  V30 7597 C 739.535 -0.40359 -1.55653 0
M  V30 7598 O 740.725 -0.666638 -1.6094 0
M  V30 7599 C 737.857 -1.40778 -3.10474 0
M  V30 7600 H 739.05 -2.49683 -1.66128 0
M  V30 7601 H 736.603 -1.32168 -0.834339 0
M  V30 7602 H 737.338 -0.445156 -3.2123 0
M  V30 7603 H 737.123 -2.21947 -3.23237 0
M  V30 7604 H 738.613 -1.48946 -3.90135 0
M  V30 7605 N 739.05 0.861098 -1.31996 0
M  V30 7606 C 740.299 1.60965 -1.21545 0
M  V30 7607 C 740.612 1.94325 0.222972 0
M  V30 7608 O 741.818 2.67757 0.449272 0
M  V30 7609 C 740.274 2.90223 -2.12834 0
M  V30 7610 C 739.882 2.64313 -3.61722 0
M  V30 7611 C 741.626 3.68229 -2.11205 0
M  V30 7612 C 739.533 3.89532 -4.44993 0
M  V30 7613 H 738.463 0.603988 -0.451348 0
M  V30 7614 H 741.114 0.951358 -1.56912 0
M  V30 7615 H 739.496 3.57475 -1.70375 0
M  V30 7616 H 740.67 2.05413 -4.12483 0
M  V30 7617 H 738.985 1.99647 -3.65418 0
M  V30 7618 H 741.582 4.61138 -2.70658 0
M  V30 7619 H 741.925 4.01466 -1.1014 0
M  V30 7620 H 742.458 3.07873 -2.51911 0
M  V30 7621 H 739.197 3.61441 -5.46846 0
M  V30 7622 H 738.717 4.47851 -3.98985 0
M  V30 7623 H 740.396 4.57334 -4.57663 0
M  V30 7624 N 740.528 1.15101 1.07655 0
M  V30 7625 C 741.475 0.844958 2.14777 0
M  V30 7626 C 742.445 -0.200798 1.64882 0
M  V30 7627 O 743.63 -0.0690278 1.90675 0
M  V30 7628 C 740.77 0.337018 3.4345 0
M  V30 7629 C 739.883 1.44398 4.07153 0
M  V30 7630 C 739.018 0.892487 5.23649 0
M  V30 7631 C 738.057 1.9766 5.79307 0
M  V30 7632 N 737.194 1.44171 6.87138 0
M  V30 7633 H 742.034 1.76242 2.40297 0
M  V30 7634 H 739.571 0.879435 1.17917 0
M  V30 7635 H 741.529 0.024256 4.17193 0
M  V30 7636 H 740.159 -0.543531 3.18191 0
M  V30 7637 H 739.211 1.87299 3.31094 0
M  V30 7638 H 740.523 2.26262 4.4453 0
M  V30 7639 H 739.677 0.532083 6.04362 0
M  V30 7640 H 738.416 0.0429854 4.87681 0
M  V30 7641 H 737.421 2.34586 4.97242 0
M  V30 7642 H 738.646 2.82982 6.17331 0
M  V30 7643 H 736.592 0.614518 6.53115 0
M  V30 7644 H 736.509 2.19665 7.23383 0
M  V30 7645 H 737.777 1.10945 7.71564 0
M  V30 7646 N 742.006 -1.2595 0.947325 0
M  V30 7647 C 743.231 -1.98083 0.614633 0
M  V30 7648 C 743.656 -1.70013 -0.804815 0
M  V30 7649 O 743.014 -0.95175 -1.54309 0
M  V30 7650 C 743.062 -3.4993 0.870706 0
M  V30 7651 O 742.166 -4.12364 -0.0541451 0
M  V30 7652 H 741.507 -0.621232 0.234451 0
M  V30 7653 H 744.037 -1.60259 1.27193 0
M  V30 7654 H 744.047 -4.00198 0.794051 0
M  V30 7655 H 742.722 -3.69691 1.90529 0
M  V30 7656 H 741.299 -3.72826 0.0740917 0
M  V30 7657 N 743.484 -0.715051 -1.40445 0
M  V30 7658 C 744.414 -0.0768699 -2.33373 0
M  V30 7659 C 745.395 0.746109 -1.52863 0
M  V30 7660 O 746.58 0.695142 -1.81332 0
M  V30 7661 C 743.71 0.846014 -3.36838 0
M  V30 7662 C 742.664 0.128694 -4.27806 0
M  V30 7663 C 741.99 1.16726 -5.21804 0
M  V30 7664 C 743.29 -1.01679 -5.12307 0
M  V30 7665 H 744.984 -0.853061 -2.8699 0
M  V30 7666 H 742.53 -0.41167 -1.3799 0
M  V30 7667 H 744.483 1.30185 -4.00786 0
M  V30 7668 H 743.207 1.6541 -2.81615 0
M  V30 7669 H 741.866 -0.307314 -3.6531 0
M  V30 7670 H 741.514 1.96838 -4.62887 0
M  V30 7671 H 741.214 0.692188 -5.83509 0
M  V30 7672 H 742.738 1.62321 -5.88629 0
M  V30 7673 H 744.152 -0.640337 -5.69713 0
M  V30 7674 H 742.549 -1.4202 -5.83053 0
M  V30 7675 H 743.619 -1.84769 -4.48317 0
M  V30 7676 N 744.962 1.50701 -0.461195 0
M  V30 7677 C 745.872 2.32069 0.343661 0
M  V30 7678 C 746.888 1.42016 1.00535 0
M  V30 7679 O 748.064 1.75077 0.995498 0
M  V30 7680 C 745.129 3.16424 1.41692 0
M  V30 7681 C 744.19 4.22286 0.772869 0
M  V30 7682 C 743.423 5.02609 1.79499 0
M  V30 7683 O 743.646 4.83874 3.0203 0
M  V30 7684 O 742.58 5.86047 1.3723 0
M  V30 7685 H 746.406 3.01996 -0.321268 0
M  V30 7686 H 743.991 1.47723 -0.223235 0
M  V30 7687 H 745.873 3.68795 2.03883 0
M  V30 7688 H 744.548 2.49236 2.0655 0
M  V30 7689 H 743.455 3.73931 0.112277 0
M  V30 7690 H 744.788 4.91915 0.167399 0
M  V30 7691 N 746.441 0.193421 1.56409 0
M  V30 7692 C 747.391 -0.74089 2.15627 0
M  V30 7693 C 748.375 -1.17747 1.09656 0
M  V30 7694 O 749.567 -1.13615 1.35723 0
M  V30 7695 C 746.696 -1.96091 2.81786 0
M  V30 7696 C 745.782 -1.54531 3.94944 0
M  V30 7697 N 746.173 -0.840569 4.98767 0
M  V30 7698 C 744.471 -1.83473 4.06514 0
M  V30 7699 C 745.172 -0.632571 5.7825 0
M  V30 7700 N 744.148 -1.18078 5.30621 0
M  V30 7701 H 747.95 -0.193718 2.93261 0
M  V30 7702 H 745.464 -0.00643211 1.62399 0
M  V30 7703 H 747.461 -2.64071 3.22602 0
M  V30 7704 H 746.121 -2.51282 2.05639 0
M  V30 7705 H 747.132 -0.496218 5.15517 0
M  V30 7706 H 743.809 -2.40184 3.41493 0
M  V30 7707 H 745.199 -0.0736433 6.7186 0
M  V30 7708 N 747.919 -1.57396 -0.0801906 0
M  V30 7709 C 749.165 -1.87113 -0.782083 0
M  V30 7710 C 749.498 -0.78458 -1.77646 0
M  V30 7711 O 748.773 0.205993 -1.93406 0
M  V30 7712 C 749.056 -3.27483 -1.49756 0
M  V30 7713 C 748.909 -4.46782 -0.520171 0
M  V30 7714 C 750.228 -3.65965 -2.44454 0
M  V30 7715 H 747.347 -0.680559 -0.282858 0
M  V30 7716 H 749.989 -1.89946 -0.0454139 0
M  V30 7717 H 748.139 -3.25199 -2.12551 0
M  V30 7718 H 749.811 -4.61187 0.101919 0
M  V30 7719 H 748.054 -4.33485 0.165219 0
M  V30 7720 H 748.725 -5.41761 -1.05824 0
M  V30 7721 H 751.201 -3.69289 -1.91742 0
M  V30 7722 H 750.077 -4.65086 -2.91524 0
M  V30 7723 H 750.338 -2.95446 -3.28883 0
M  V30 7724 N 749.397 0.351382 -1.53633 0
M  V30 7725 C 750.329 1.45159 -1.77374 0
M  V30 7726 C 751.342 1.4905 -0.654826 0
M  V30 7727 O 752.531 1.52274 -0.931396 0
M  V30 7728 C 749.631 2.83858 -1.85143 0
M  V30 7729 C 748.804 3.03498 -3.14972 0
M  V30 7730 C 747.863 4.22393 -3.138 0
M  V30 7731 O 746.889 4.16885 -3.87551 0
M  V30 7732 N 748.091 5.30533 -2.35617 0
M  V30 7733 H 750.856 1.25167 -2.72311 0
M  V30 7734 H 748.417 0.54121 -1.52586 0
M  V30 7735 H 750.409 3.61557 -1.8182 0
M  V30 7736 H 748.979 2.9703 -0.974275 0
M  V30 7737 H 748.199 2.13336 -3.31484 0
M  V30 7738 H 749.487 3.13498 -4.00745 0
M  V30 7739 H 748.885 5.37875 -1.75235 0
M  V30 7740 H 747.442 6.06756 -2.38098 0
M  V30 7741 N 750.875 1.45233 0.611969 0
M  V30 7742 C 752.122 1.49021 1.37109 0
M  V30 7743 C 752.45 0.130227 1.94064 0
M  V30 7744 O 751.705 -0.870551 1.75271 0
M  V30 7745 C 752.004 2.51353 2.54079 0
M  V30 7746 C 751.67 3.96178 2.15299 0
M  V30 7747 C 750.332 4.35614 2.04436 0
M  V30 7748 C 752.684 4.87275 1.84966 0
M  V30 7749 C 750.012 5.64047 1.61456 0
M  V30 7750 C 752.364 6.16115 1.43474 0
M  V30 7751 C 751.028 6.54486 1.31167 0
M  V30 7752 H 750.298 0.545307 0.501719 0
M  V30 7753 H 752.945 1.78555 0.692122 0
M  V30 7754 H 751.25 2.15372 3.27295 0
M  V30 7755 H 752.947 2.51523 3.12309 0
M  V30 7756 H 749.537 3.6499 2.24678 0
M  V30 7757 H 753.721 4.57548 1.92258 0
M  V30 7758 H 748.977 5.92575 1.50547 0
M  V30 7759 H 753.151 6.86149 1.19048 0
M  V30 7760 H 750.778 7.53904 0.97637 0
M  V30 7761 N 752.353 -0.854086 1.3245 0
M  V30 7762 C 753.263 -1.99503 1.23434 0
M  V30 7763 C 754.279 -1.73371 0.147828 0
M  V30 7764 O 755.455 -1.97998 0.368609 0
M  V30 7765 C 752.52 -3.33192 0.958328 0
M  V30 7766 C 751.581 -3.72542 2.13333 0
M  V30 7767 C 750.814 -4.99852 1.8704 0
M  V30 7768 O 751.037 -5.64573 0.813239 0
M  V30 7769 O 749.971 -5.36345 2.73161 0
M  V30 7770 H 753.797 -2.10046 2.1935 0
M  V30 7771 H 751.382 -0.984823 1.12346 0
M  V30 7772 H 753.264 -4.13327 0.820918 0
M  V30 7773 H 751.939 -3.23687 0.0293299 0
M  V30 7774 H 750.846 -2.92981 2.32622 0
M  V30 7775 H 752.179 -3.86694 3.04514 0
M  V30 7776 N 753.831 -1.1567 -1.07043 0
M  V30 7777 C 754.794 -0.858906 -2.12498 0
M  V30 7778 C 755.794 0.142735 -1.60165 0
M  V30 7779 O 756.984 -0.0872678 -1.73981 0
M  V30 7780 C 754.116 -0.283021 -3.39723 0
M  V30 7781 H 755.309 -1.79368 -2.40348 0
M  V30 7782 H 752.862 -0.964608 -1.22984 0
M  V30 7783 H 753.597 0.659796 -3.17517 0
M  V30 7784 H 753.382 -1.00467 -3.7901 0
M  V30 7785 H 754.872 -0.0923543 -4.17498 0
M  V30 7786 N 755.309 1.25446 -0.953992 0
M  V30 7787 C 756.537 1.97215 -0.625595 0
M  V30 7788 C 756.952 1.70911 0.802168 0
M  V30 7789 O 756.309 0.984782 1.5365 0
M  V30 7790 C 756.36 3.50777 -0.873943 0
M  V30 7791 O 756.081 3.76173 -2.24556 0
M  V30 7792 C 757.582 4.39776 -0.557845 0
M  V30 7793 H 754.802 0.628652 -0.2346 0
M  V30 7794 H 757.346 1.59632 -1.27819 0
M  V30 7795 H 755.501 3.86474 -0.267765 0
M  V30 7796 H 755.915 4.70636 -2.31522 0
M  V30 7797 H 757.389 5.46431 -0.782157 0
M  V30 7798 H 757.866 4.36257 0.507573 0
M  V30 7799 H 758.472 4.09644 -1.14332 0
M  V30 7800 N 756.787 0.722489 1.40064 0
M  V30 7801 C 758.036 0.261932 1.99992 0
M  V30 7802 C 758.349 -1.15358 1.57961 0
M  V30 7803 O 759.555 -1.71301 2.10637 0
M  V30 7804 C 758.011 0.41737 3.57472 0
M  V30 7805 C 757.619 1.83997 4.08472 0
M  V30 7806 C 759.363 0.0179561 4.24496 0
M  V30 7807 C 757.27 1.94563 5.5848 0
M  V30 7808 H 756.2 0.0941768 0.748095 0
M  V30 7809 H 758.851 0.894572 1.60218 0
M  V30 7810 H 757.233 -0.283965 3.94981 0
M  V30 7811 H 758.407 2.57224 3.82325 0
M  V30 7812 H 756.722 2.19147 3.54067 0
M  V30 7813 H 759.319 0.076085 5.34646 0
M  V30 7814 H 759.662 -1.02498 4.03485 0
M  V30 7815 H 760.195 0.669988 3.92117 0
M  V30 7816 H 756.934 2.97001 5.84355 0
M  V30 7817 H 756.454 1.25756 5.86469 0
M  V30 7818 H 758.133 1.72095 6.23692 0
M  V30 7819 N 758.265 -1.50454 0.469181 0
M  V30 7820 C 759.175 -2.32248 -0.331349 0
M  V30 7821 C 760.191 -1.42548 -0.997807 0
M  V30 7822 O 761.367 -1.75602 -0.9862 0
M  V30 7823 C 758.432 -3.17171 -1.40012 0
M  V30 7824 C 757.493 -4.2269 -0.750463 0
M  V30 7825 C 756.726 -5.03554 -1.76831 0
M  V30 7826 O 756.949 -4.85469 -2.99459 0
M  V30 7827 O 755.883 -5.86767 -1.3412 0
M  V30 7828 H 759.709 -3.01821 0.337279 0
M  V30 7829 H 757.294 -1.47602 0.231066 0
M  V30 7830 H 759.176 -3.69871 -2.01924 0
M  V30 7831 H 757.851 -2.50328 -2.05226 0
M  V30 7832 H 756.758 -3.73986 -0.0924446 0
M  V30 7833 H 758.091 -4.91997 -0.14131 0
M  V30 7834 N 759.743 -0.201713 -1.56304 0
M  V30 7835 C 760.973 0.440084 -2.01858 0
M  V30 7836 C 761.381 1.55279 -1.08098 0
M  V30 7837 O 760.724 1.83529 -0.0792216 0
M  V30 7838 C 760.786 1.05091 -3.43797 0
M  V30 7839 C 760.45 0.0761208 -4.56937 0
M  V30 7840 C 761.447 -0.716951 -5.14933 0
M  V30 7841 C 759.132 -0.0368815 -5.02286 0
M  V30 7842 C 761.126 -1.60993 -6.16733 0
M  V30 7843 C 758.813 -0.933409 -6.03929 0
M  V30 7844 C 759.811 -1.71849 -6.61027 0
M  V30 7845 O 759.499 -2.59998 -7.60695 0
M  V30 7846 H 759.231 0.114139 -0.666294 0
M  V30 7847 H 761.785 -0.309672 -2.03052 0
M  V30 7848 H 760.015 1.84938 -3.3961 0
M  V30 7849 H 761.704 1.59804 -3.73118 0
M  V30 7850 H 762.47 -0.63999 -4.80759 0
M  V30 7851 H 758.349 0.564034 -4.57537 0
M  V30 7852 H 761.893 -2.22315 -6.61227 0
M  V30 7853 H 757.79 -1.01146 -6.37526 0
M  V30 7854 H 758.558 -2.53851 -7.7814 0
M  V30 7855 N 761.222 1.57436 0.0718424 0
M  V30 7856 C 762.447 1.91858 0.787745 0
M  V30 7857 C 762.872 0.798119 1.70328 0
M  V30 7858 O 762.23 -0.24905 1.79581 0
M  V30 7859 C 762.278 3.25232 1.55744 0
M  V30 7860 O 761.382 3.14462 2.6681 0
M  V30 7861 H 760.723 0.628258 0.214914 0
M  V30 7862 H 763.253 2.04561 0.0401012 0
M  V30 7863 H 763.263 3.59105 1.9367 0
M  V30 7864 H 761.938 4.0636 0.885691 0
M  V30 7865 H 760.515 2.92148 2.31741 0
M  V30 7866 N 762.7 -0.34323 1.53817 0
M  V30 7867 C 764.116 -0.686355 1.44088 0
M  V30 7868 C 764.316 -1.92426 0.597882 0
M  V30 7869 O 763.372 -2.52343 0.0889918 0
M  V30 7870 C 764.685 -0.878698 2.87575 0
M  V30 7871 C 766.233 -0.977296 2.97352 0
M  V30 7872 C 766.708 -1.20195 4.41947 0
M  V30 7873 N 768.199 -1.26915 4.45474 0
M  V30 7874 C 768.934 -1.46049 5.54488 0
M  V30 7875 N 768.43 -1.62354 6.73508 0
M  V30 7876 N 770.223 -1.48599 5.42102 0
M  V30 7877 H 762.374 0.470679 2.07119 0
M  V30 7878 H 764.637 0.148652 0.936273 0
M  V30 7879 H 764.343 -0.040602 3.51677 0
M  V30 7880 H 764.217 -1.78034 3.32541 0
M  V30 7881 H 766.604 -1.80591 2.3339 0
M  V30 7882 H 766.685 -0.0525498 2.55746 0
M  V30 7883 H 766.329 -0.378262 5.06489 0
M  V30 7884 H 766.259 -2.14027 4.81145 0
M  V30 7885 H 768.75 -1.15837 3.59708 0
M  V30 7886 H 769.063 -1.76591 7.52353 0
M  V30 7887 H 767.408 -1.5949 6.76453 0
M  V30 7888 H 770.599 -1.35443 4.48077 0
M  V30 7889 H 770.772 -1.6317 6.2712 0
M  V30 7890 N 764.178 -1.45556 -0.604258 0
M  V30 7891 C 765.594 -1.30035 -0.925368 0
M  V30 7892 C 765.794 -0.255833 -1.99869 0
M  V30 7893 O 764.85 0.349076 -2.50075 0
M  V30 7894 C 766.163 -2.68028 -1.36314 0
M  V30 7895 C 767.711 -2.75951 -1.47717 0
M  V30 7896 C 768.186 -4.14476 -1.94868 0
M  V30 7897 N 769.677 -4.16787 -2.02097 0
M  V30 7898 C 770.412 -5.20845 -2.39809 0
M  V30 7899 N 769.908 -6.35246 -2.76467 0
M  V30 7900 N 771.701 -5.08204 -2.40177 0
M  V30 7901 H 763.852 -2.1214 0.10512 0
M  V30 7902 H 766.115 -0.947871 -0.0156303 0
M  V30 7903 H 765.821 -3.45667 -0.648628 0
M  V30 7904 H 765.695 -2.96711 -2.329 0
M  V30 7905 H 768.082 -1.98613 -2.18258 0
M  V30 7906 H 768.163 -2.50977 -0.494371 0
M  V30 7907 H 767.807 -4.923 -1.24912 0
M  V30 7908 H 767.737 -4.36843 -2.94068 0
M  V30 7909 H 770.228 -3.34233 -1.76343 0
M  V30 7910 H 770.541 -7.10438 -3.04134 0
M  V30 7911 H 768.886 -6.38642 -2.74155 0
M  V30 7912 H 772.077 -4.17874 -2.10947 0
M  V30 7913 H 772.25 -5.89417 -2.69242 0
M  V30 7914 N 765.656 0.84705 -1.32902 0
M  V30 7915 C 766.904 1.5986 -1.2365 0
M  V30 7916 C 767.225 1.93974 0.199789 0
M  V30 7917 O 766.495 1.60273 1.12648 0
M  V30 7918 H 765.075 0.592696 -0.454665 0
M  V30 7919 H 767.737 1.01278 -1.66519 0
M  V30 7920 H 766.833 2.53218 -1.82448 0
M  V30 7921 N 767.134 1.16236 1.06428 0
M  V30 7922 C 768.411 0.853294 1.76006 0
M  V30 7923 C 768.791 -0.649162 2.00871 0
M  V30 7924 O 768.139 -1.59653 1.63472 0
M  V30 7925 C 768.349 1.67448 3.06206 0
M  V30 7926 C 769.697 1.8866 3.80385 0
M  V30 7927 O 770.721 1.64303 3.16043 0
M  V30 7928 O 769.58 2.29518 4.95968 0
M  V30 7929 H 766.674 0.314737 0.764767 0
M  V30 7930 H 769.22 1.26865 1.12709 0
M  V30 7931 H 767.992 2.69411 2.83784 0
M  V30 7932 H 767.615 1.25608 3.77238 0
M  V30 7933 N 768.612 -1.24939 0.960631 0
M  V30 7934 C 769.542 -2.28 0.503815 0
M  V30 7935 C 770.523 -1.63959 -0.452928 0
M  V30 7936 O 771.708 -1.91009 -0.350585 0
M  V30 7937 C 768.838 -3.46643 -0.213535 0
M  V30 7938 C 767.792 -4.22903 0.658535 0
M  V30 7939 C 767.118 -5.34363 -0.189902 0
M  V30 7940 C 768.418 -4.84949 1.93963 0
M  V30 7941 H 770.112 -2.66462 1.36521 0
M  V30 7942 H 767.658 -1.28093 0.657897 0
M  V30 7943 H 769.611 -4.1787 -0.544286 0
M  V30 7944 H 768.335 -3.07187 -1.10923 0
M  V30 7945 H 766.994 -3.53467 0.972455 0
M  V30 7946 H 766.642 -4.91147 -1.08553 0
M  V30 7947 H 766.342 -5.86302 0.390331 0
M  V30 7948 H 767.866 -6.0842 -0.515484 0
M  V30 7949 H 769.28 -5.48288 1.67491 0
M  V30 7950 H 767.677 -5.47091 2.46601 0
M  V30 7951 H 768.747 -4.06799 2.639 0
M  V30 7952 N 770.09 -0.729906 -1.39679 0
M  V30 7953 C 771.04 -0.0627678 -2.27914 0
M  V30 7954 C 772.024 0.717867 -1.43998 0
M  V30 7955 O 773.216 0.587713 -1.66958 0
M  V30 7956 C 770.345 0.847564 -3.32673 0
M  V30 7957 C 769.431 0.0613515 -4.24056 0
M  V30 7958 N 769.822 -0.962863 -4.96551 0
M  V30 7959 C 768.12 0.291773 -4.45045 0
M  V30 7960 C 768.821 -1.43652 -5.63683 0
M  V30 7961 N 767.797 -0.756044 -5.38317 0
M  V30 7962 H 771.599 -0.847545 -2.81414 0
M  V30 7963 H 769.113 -0.563776 -1.523 0
M  V30 7964 H 771.11 1.34094 -3.94746 0
M  V30 7965 H 769.77 1.63156 -2.80732 0
M  V30 7966 H 770.781 -1.34409 -5.00154 0
M  V30 7967 H 767.458 1.05097 -4.04056 0
M  V30 7968 H 768.848 -2.28835 -6.31731 0
M  V30 7969 N 771.568 1.50203 -0.477153 0
M  V30 7970 C 772.814 2.02658 0.0758507 0
M  V30 7971 C 773.147 1.358 1.38824 0
M  V30 7972 O 772.422 0.485696 1.88338 0
M  V30 7973 C 772.705 3.59208 0.253339 0
M  V30 7974 C 772.558 4.36629 -1.0805 0
M  V30 7975 C 773.877 4.28469 1.00509 0
M  V30 7976 H 770.996 0.736538 0.0260921 0
M  V30 7977 H 773.638 1.79464 -0.623925 0
M  V30 7978 H 771.788 3.79101 0.849378 0
M  V30 7979 H 773.46 4.28292 -1.71358 0
M  V30 7980 H 771.703 4.0013 -1.67566 0
M  V30 7981 H 772.374 5.44449 -0.909883 0
M  V30 7982 H 774.85 4.13087 0.499818 0
M  V30 7983 H 773.726 5.37804 1.09808 0
M  V30 7984 H 773.987 3.92057 2.04314 0
M  V30 7985 N 773.046 0.209999 1.56195 0
M  V30 7986 C 774.274 -0.429996 2.02382 0
M  V30 7987 C 774.689 -1.54159 1.08998 0
M  V30 7988 O 774.046 -1.82239 0.0974856 0
M  V30 7989 C 774.097 -0.972433 3.48175 0
M  V30 7990 O 773.818 0.0948231 4.37997 0
M  V30 7991 C 775.319 -1.68683 4.09952 0
M  V30 7992 H 772.539 -0.106475 0.662498 0
M  V30 7993 H 775.083 0.323072 2.01932 0
M  V30 7994 H 773.238 -1.67582 3.49278 0
M  V30 7995 H 773.652 -0.31113 5.23576 0
M  V30 7996 H 775.126 -2.01851 5.13771 0
M  V30 7997 H 775.603 -2.59587 3.54276 0
M  V30 7998 H 776.209 -1.02893 4.12666 0
M  V30 7999 N 774.524 -1.57472 -0.0634922 0
M  V30 8000 C 775.454 -2.07297 -1.07473 0
M  V30 8001 C 776.435 -0.968162 -1.39859 0
M  V30 8002 O 777.62 -1.24139 -1.49343 0
M  V30 8003 C 774.75 -2.52381 -2.38581 0
M  V30 8004 C 773.704 -3.66813 -2.20526 0
M  V30 8005 C 773.03 -3.97982 -3.57092 0
M  V30 8006 C 774.33 -4.96553 -1.61965 0
M  V30 8007 H 776.024 -2.92033 -0.660092 0
M  V30 8008 H 773.57 -1.40488 -0.316074 0
M  V30 8009 H 775.523 -2.85852 -3.09624 0
M  V30 8010 H 774.247 -1.64684 -2.8204 0
M  V30 8011 H 772.906 -3.33639 -1.51924 0
M  V30 8012 H 772.554 -3.07403 -3.98136 0
M  V30 8013 H 772.254 -4.7504 -3.45848 0
M  V30 8014 H 773.778 -4.33956 -4.29552 0
M  V30 8015 H 775.192 -5.28201 -2.22883 0
M  V30 8016 H 773.589 -5.7799 -1.61394 0
M  V30 8017 H 774.659 -4.81396 -0.581918 0
M  V30 8018 N 776.003 0.335068 -1.53997 0
M  V30 8019 C 777.231 1.09418 -1.756 0
M  V30 8020 C 777.646 1.82083 -0.499138 0
M  V30 8021 O 777.003 1.74646 0.529631 0
M  V30 8022 C 777.054 2.10115 -2.94166 0
M  V30 8023 O 776.775 1.40404 -4.14992 0
M  V30 8024 C 778.276 2.98336 -3.27888 0
M  V30 8025 H 775.496 0.32595 -0.586513 0
M  V30 8026 H 778.04 0.384693 -2.00849 0
M  V30 8027 H 776.195 2.76616 -2.71224 0
M  V30 8028 H 776.609 2.07743 -4.81605 0
M  V30 8029 H 778.083 3.6491 -4.1418 0
M  V30 8030 H 778.56 3.64814 -2.44556 0
M  V30 8031 H 779.166 2.37412 -3.52868 0
M  V30 8032 N 777.481 1.45874 0.596531 0
M  V30 8033 C 778.706 1.54247 1.38646 0
M  V30 8034 C 779.131 0.179571 1.87241 0
M  V30 8035 O 778.489 -0.837831 1.6078 0
M  V30 8036 C 778.537 2.54015 2.55946 0
M  V30 8037 O 777.641 2.06561 3.5694 0
M  V30 8038 H 776.982 0.519555 0.413471 0
M  V30 8039 H 779.512 1.91327 0.724936 0
M  V30 8040 H 779.522 2.73179 3.03047 0
M  V30 8041 H 778.197 3.52994 2.19928 0
M  V30 8042 H 776.774 1.97324 3.16414 0
M  V30 8043 N 778.959 -0.83999 1.33349 0
M  V30 8044 C 779.922 -1.93128 1.23426 0
M  V30 8045 C 780.922 -1.60065 0.153599 0
M  V30 8046 O 782.112 -1.69425 0.405049 0
M  V30 8047 C 779.244 -3.28761 0.901622 0
M  V30 8048 H 780.437 -2.03352 2.20427 0
M  V30 8049 H 777.99 -1.03194 1.17391 0
M  V30 8050 H 778.725 -3.24233 -0.0659337 0
M  V30 8051 H 778.51 -3.54138 1.68311 0
M  V30 8052 H 780 -4.08714 0.856913 0
M  V30 8053 N 780.437 -1.16799 -1.0581 0
M  V30 8054 C 781.4 -0.881396 -2.11575 0
M  V30 8055 C 782.4 0.12574 -1.60308 0
M  V30 8056 O 783.59 -0.105716 -1.73879 0
M  V30 8057 C 780.722 -0.319037 -3.39404 0
M  V30 8058 H 781.915 -1.81907 -2.38432 0
M  V30 8059 H 779.468 -0.977597 -1.21954 0
M  V30 8060 H 780.203 0.626082 -3.18199 0
M  V30 8061 H 779.988 -1.04481 -3.77923 0
M  V30 8062 H 781.478 -0.13663 -4.17376 0
M  V30 8063 N 781.915 1.24427 -0.967243 0
M  V30 8064 C 783.163 1.92107 -0.627638 0
M  V30 8065 C 783.484 1.75991 0.83978 0
M  V30 8066 O 782.754 1.13118 1.59941 0
M  V30 8067 H 781.334 0.710986 -0.229145 0
M  V30 8068 H 783.996 1.51331 -1.22821 0
M  V30 8069 H 783.092 2.99791 -0.867844 0
M  V30 8070 N 783.393 0.737304 1.3929 0
M  V30 8071 C 784.621 0.296573 2.04763 0
M  V30 8072 C 785.036 -1.06941 1.55592 0
M  V30 8073 O 784.393 -1.67619 0.721822 0
M  V30 8074 C 784.444 0.291906 3.6032 0
M  V30 8075 O 784.165 1.60397 4.07682 0
M  V30 8076 C 785.666 -0.164708 4.42994 0
M  V30 8077 H 782.886 0.129251 0.658434 0
M  V30 8078 H 785.43 1.0016 1.78293 0
M  V30 8079 H 783.585 -0.364251 3.85684 0
M  V30 8080 H 783.999 1.51909 5.0202 0
M  V30 8081 H 785.473 -0.116814 5.51876 0
M  V30 8082 H 785.95 -1.21022 4.22197 0
M  V30 8083 H 786.556 0.461968 4.22784 0
M  V30 8084 N 784.871 -1.49948 0.485112 0
M  V30 8085 C 786.096 -2.073 -0.0645059 0
M  V30 8086 C 786.521 -1.345 -1.31497 0
M  V30 8087 O 785.879 -0.39687 -1.76903 0
M  V30 8088 C 785.927 -3.59201 -0.317304 0
M  V30 8089 O 785.031 -3.88085 -1.39514 0
M  V30 8090 H 784.372 -0.663723 0.0191822 0
M  V30 8091 H 786.902 -1.92963 0.680179 0
M  V30 8092 H 786.912 -4.04227 -0.553604 0
M  V30 8093 H 785.587 -4.11602 0.596387 0
M  V30 8094 H 784.164 -3.54885 -1.14504 0
M  V30 8095 N 786.349 -0.21828 -1.56081 0
M  V30 8096 C 787.577 0.419258 -2.02608 0
M  V30 8097 C 787.992 1.53578 -1.09814 0
M  V30 8098 O 787.349 1.82185 -0.107149 0
M  V30 8099 C 787.4 0.953955 -3.48686 0
M  V30 8100 O 787.121 -0.11805 -4.37941 0
M  V30 8101 C 788.622 1.66506 -4.10841 0
M  V30 8102 H 785.842 0.10296 -0.663054 0
M  V30 8103 H 788.386 -0.333776 -2.01758 0
M  V30 8104 H 786.541 1.65727 -3.50162 0
M  V30 8105 H 786.955 0.283359 -5.23734 0
M  V30 8106 H 788.429 1.99123 -5.14834 0
M  V30 8107 H 788.906 2.57705 -3.55647 0
M  V30 8108 H 789.512 1.00703 -4.13206 0
M  V30 8109 N 787.827 1.57504 0.0551401 0
M  V30 8110 C 789.073 1.88334 0.752216 0
M  V30 8111 C 789.406 0.812742 1.76375 0
M  V30 8112 O 788.681 -0.175198 1.93709 0
M  V30 8113 C 788.964 3.29824 1.44528 0
M  V30 8114 C 788.817 4.47553 0.449026 0
M  V30 8115 C 790.136 3.69808 2.38601 0
M  V30 8116 H 787.255 0.684973 0.271995 0
M  V30 8117 H 789.897 1.89994 0.0151895 0
M  V30 8118 H 788.047 3.28539 2.07351 0
M  V30 8119 H 789.719 4.60967 -0.175277 0
M  V30 8120 H 787.962 4.33168 -0.234162 0
M  V30 8121 H 788.633 5.43376 0.971917 0
M  V30 8122 H 791.109 3.72293 1.85842 0
M  V30 8123 H 789.985 4.69665 2.84088 0
M  V30 8124 H 790.246 3.00641 3.24141 0
M  V30 8125 N 789.305 -0.326896 1.54172 0
M  V30 8126 C 790.235 -1.40741 1.86317 0
M  V30 8127 C 791.216 -1.54125 0.719684 0
M  V30 8128 O 792.401 -1.6806 0.973117 0
M  V30 8129 C 789.531 -2.77557 2.08757 0
M  V30 8130 C 788.485 -2.78965 3.24596 0
M  V30 8131 C 787.811 -4.18824 3.32401 0
M  V30 8132 C 789.111 -2.4301 4.62324 0
M  V30 8133 H 790.805 -1.14088 2.76811 0
M  V30 8134 H 788.351 -0.547389 1.3319 0
M  V30 8135 H 790.304 -3.53209 2.29829 0
M  V30 8136 H 789.028 -3.0568 1.15009 0
M  V30 8137 H 787.687 -2.05767 3.03406 0
M  V30 8138 H 787.335 -4.44083 2.36218 0
M  V30 8139 H 787.035 -4.20673 4.10253 0
M  V30 8140 H 788.559 -4.96294 3.55703 0
M  V30 8141 H 789.973 -3.08375 4.83299 0
M  V30 8142 H 788.37 -2.56116 5.42701 0
M  V30 8143 H 789.44 -1.38165 4.64799 0
M  V30 8144 N 790.784 -1.46188 -0.588786 0
M  V30 8145 C 791.714 -1.59148 -1.70863 0
M  V30 8146 C 792.695 -0.442083 -1.64255 0
M  V30 8147 O 793.88 -0.667575 -1.82365 0
M  V30 8148 C 791.01 -1.5757 -3.09498 0
M  V30 8149 C 789.964 -2.71418 -3.30932 0
M  V30 8150 C 789.29 -2.549 -4.70032 0
M  V30 8151 C 790.59 -4.1329 -3.19356 0
M  V30 8152 H 792.284 -2.52889 -1.60274 0
M  V30 8153 H 789.83 -1.21707 -0.769638 0
M  V30 8154 H 791.783 -1.65231 -3.87655 0
M  V30 8155 H 790.507 -0.603705 -3.20972 0
M  V30 8156 H 789.166 -2.63216 -2.55172 0
M  V30 8157 H 788.814 -1.55797 -4.78264 0
M  V30 8158 H 788.514 -3.31257 -4.85327 0
M  V30 8159 H 790.038 -2.64443 -5.50366 0
M  V30 8160 H 791.452 -4.22636 -3.87365 0
M  V30 8161 H 789.849 -4.90187 -3.46175 0
M  V30 8162 H 790.919 -4.33874 -2.16522 0
M  V30 8163 N 792.262 0.832906 -1.33792 0
M  V30 8164 C 793.225 1.92471 -1.24449 0
M  V30 8165 C 794.225 1.59981 -0.162085 0
M  V30 8166 O 795.415 1.69208 -0.414029 0
M  V30 8167 C 792.547 3.28278 -0.919044 0
M  V30 8168 H 793.74 2.0218 -2.21502 0
M  V30 8169 H 791.293 1.0257 -1.17936 0
M  V30 8170 H 792.028 3.24263 0.048738 0
M  V30 8171 H 791.813 3.53241 -1.70187 0
M  V30 8172 H 793.303 4.08253 -0.878576 0
M  V30 8173 N 793.74 1.17359 1.05189 0
M  V30 8174 C 794.65 0.904984 2.16442 0
M  V30 8175 C 795.666 -0.12686 1.73537 0
M  V30 8176 O 796.842 0.0524127 2.01332 0
M  V30 8177 C 793.907 0.422019 3.44122 0
M  V30 8178 C 792.968 1.52045 4.01473 0
M  V30 8179 C 792.201 1.06044 5.23059 0
M  V30 8180 O 792.424 -0.0854023 5.70336 0
M  V30 8181 O 791.358 1.85349 5.72651 0
M  V30 8182 H 795.184 1.8356 2.41949 0
M  V30 8183 H 792.769 0.95447 1.14936 0
M  V30 8184 H 794.651 0.160208 4.21095 0
M  V30 8185 H 793.326 -0.480444 3.20115 0
M  V30 8186 H 792.233 1.83615 3.25939 0
M  V30 8187 H 793.566 2.39863 4.29798 0
M  V30 8188 N 795.218 -1.23913 0.973828 0
M  V30 8189 C 796.634 -1.44325 0.681363 0
M  V30 8190 C 796.834 -1.86832 -0.754728 0
M  V30 8191 O 795.89 -2.01024 -1.52793 0
M  V30 8192 C 797.203 -2.50017 1.67069 0
M  V30 8193 C 798.751 -2.63838 1.68399 0
M  V30 8194 C 799.226 -3.72734 2.66145 0
M  V30 8195 N 800.717 -3.80169 2.64624 0
M  V30 8196 C 801.452 -4.6397 3.36927 0
M  V30 8197 N 800.948 -5.51911 4.18767 0
M  V30 8198 N 802.741 -4.58106 3.25722 0
M  V30 8199 H 794.892 -0.946204 1.9016 0
M  V30 8200 H 797.155 -0.477374 0.819035 0
M  V30 8201 H 796.861 -2.25686 2.69738 0
M  V30 8202 H 796.735 -3.48287 1.4483 0
M  V30 8203 H 799.122 -2.87524 0.664379 0
M  V30 8204 H 799.203 -1.65906 1.94702 0
M  V30 8205 H 798.847 -3.49797 3.68245 0
M  V30 8206 H 798.777 -4.70193 2.3712 0
M  V30 8207 H 801.268 -3.17319 2.05224 0
M  V30 8208 H 801.581 -6.12828 4.70809 0
M  V30 8209 H 799.926 -5.51556 4.2286 0
M  V30 8210 H 803.117 -3.8842 2.61242 0
M  V30 8211 H 803.29 -5.23188 3.82333 0
M  V30 8212 N 796.696 -0.74468 -1.38897 0
M  V30 8213 C 797.606 -0.112892 -2.34328 0
M  V30 8214 C 798.622 0.71087 -1.58816 0
M  V30 8215 O 799.798 0.637092 -1.91058 0
M  V30 8216 C 796.863 0.776417 -3.37894 0
M  V30 8217 C 795.924 -0.0606999 -4.29257 0
M  V30 8218 C 795.157 0.786258 -5.27877 0
M  V30 8219 O 795.38 2.02463 -5.33259 0
M  V30 8220 O 794.314 0.209781 -6.01534 0
M  V30 8221 H 798.14 -0.900801 -2.90033 0
M  V30 8222 H 795.725 -0.505462 -1.4059 0
M  V30 8223 H 797.607 1.28496 -4.01331 0
M  V30 8224 H 796.282 1.54297 -2.84559 0
M  V30 8225 H 795.189 -0.614984 -3.69011 0
M  V30 8226 H 796.522 -0.789702 -4.85824 0
M  V30 8227 N 798.174 1.49689 -0.493057 0
M  V30 8228 C 799.59 1.58907 -0.148526 0
M  V30 8229 C 799.79 1.4991 1.34645 0
M  V30 8230 O 798.846 1.36893 2.12171 0
M  V30 8231 C 800.159 2.91996 -0.718265 0
M  V30 8232 C 801.707 3.05443 -0.683658 0
M  V30 8233 C 802.182 4.41138 -1.23132 0
M  V30 8234 N 803.673 4.47608 -1.19167 0
M  V30 8235 C 804.408 5.51038 -1.5857 0
M  V30 8236 N 803.904 6.61612 -2.05528 0
M  V30 8237 N 805.697 5.41706 -1.50036 0
M  V30 8238 H 797.848 1.5378 -1.46511 0
M  V30 8239 H 800.111 0.727996 -0.607228 0
M  V30 8240 H 799.817 3.04123 -1.7664 0
M  V30 8241 H 799.691 3.76798 -0.17419 0
M  V30 8242 H 802.078 2.92949 0.355626 0
M  V30 8243 H 802.159 2.22344 -1.26479 0
M  V30 8244 H 801.803 4.54382 -2.26935 0
M  V30 8245 H 801.733 5.22864 -0.626201 0
M  V30 8246 H 804.224 3.68274 -0.847524 0
M  V30 8247 H 804.537 7.36622 -2.33685 0
M  V30 8248 H 802.882 6.62674 -2.09497 0
M  V30 8249 H 806.073 4.54212 -1.13176 0
M  V30 8250 H 806.246 6.22188 -1.81068 0
M  V30 8251 N 799.652 0.226554 1.55963 0
M  V30 8252 C 800.929 -0.453058 1.90281 0
M  V30 8253 C 801.309 -1.77377 1.14458 0
M  V30 8254 O 800.657 -2.27067 0.255496 0
M  V30 8255 C 800.867 -0.641108 3.43061 0
M  V30 8256 C 802.215 -0.946265 4.13921 0
M  V30 8257 O 803.239 -0.727713 3.48687 0
M  V30 8258 O 802.098 -1.36131 5.29274 0
M  V30 8259 H 799.192 -0.240242 0.791336 0
M  V30 8260 H 801.738 0.26911 1.67553 0
M  V30 8261 H 800.51 0.290283 3.90222 0
M  V30 8262 H 800.133 -1.41458 3.71585 0
M  V30 8263 N 801.13 -1.57531 -0.0467866 0
M  V30 8264 C 802.358 -1.92696 -0.753371 0
M  V30 8265 C 802.773 -0.824792 -1.69831 0
M  V30 8266 O 802.13 0.200155 -1.81399 0
M  V30 8267 C 802.181 -3.27728 -1.52566 0
M  V30 8268 O 801.902 -4.3371 -0.618674 0
M  V30 8269 C 803.403 -3.77066 -2.33101 0
M  V30 8270 H 800.623 -0.636367 -0.212788 0
M  V30 8271 H 803.167 -2.04498 -0.00959361 0
M  V30 8272 H 801.322 -3.17378 -2.22148 0
M  V30 8273 H 801.736 -5.11548 -1.15839 0
M  V30 8274 H 803.21 -4.74109 -2.82709 0
M  V30 8275 H 803.687 -3.07348 -3.13741 0
M  V30 8276 H 804.293 -3.90442 -1.68628 0
M  V30 8277 N 802.608 0.318715 -1.54344 0
M  V30 8278 C 803.833 1.07987 -1.77069 0
M  V30 8279 C 804.258 1.80766 -0.520117 0
M  V30 8280 O 803.616 1.73424 0.528566 0
M  V30 8281 C 803.664 2.04987 -2.96669 0
M  V30 8282 O 802.768 3.12974 -2.68554 0
M  V30 8283 H 802.109 0.311109 -0.586606 0
M  V30 8284 H 804.639 0.361533 -2.0138 0
M  V30 8285 H 804.649 2.47771 -3.2415 0
M  V30 8286 H 803.324 1.51417 -3.87357 0
M  V30 8287 H 801.901 2.74831 -2.52037 0
M  V30 8288 N 804.086 1.46499 0.581025 0
M  V30 8289 C 805.497 1.4604 1.16315 0
M  V30 8290 C 805.848 0.202154 1.95156 0
M  V30 8291 O 804.973 -0.694638 2.04948 0
M  V30 8292 C 805.568 2.64593 2.11604 0
M  V30 8293 C 804.127 2.6717 2.65136 0
M  V30 8294 C 803.274 2.38753 1.4104 0
M  V30 8295 H 806.225 1.54354 0.368871 0
M  V30 8296 H 806.246 2.40207 2.95095 0
M  V30 8297 H 805.758 3.56154 1.54194 0
M  V30 8298 H 803.859 1.79685 3.26411 0
M  V30 8299 H 803.972 3.67182 3.07757 0
M  V30 8300 H 802.336 1.88845 1.70908 0
M  V30 8301 H 803.119 3.32493 0.854588 0
M  V30 8302 N 805.565 -0.825799 1.34232 0
M  V30 8303 C 806.513 -1.95792 1.25572 0
M  V30 8304 C 807.507 -1.68695 0.154404 0
M  V30 8305 O 808.713 -1.77147 0.319196 0
M  V30 8306 H 805.088 -0.642949 0.390027 0
M  V30 8307 H 807.059 -2.00219 2.21258 0
M  V30 8308 C 805.808 -3.32245 1.02511 0
M  V30 8309 H 805.131 -3.53642 1.86487 0
M  V30 8310 H 806.571 -4.1192 1.00487 0
M  V30 8311 C 805.03 -3.35803 -0.27167 0
M  V30 8312 O 805.56 -3.80962 -1.274 0
M  V30 8313 N 803.766 -2.89008 -0.303778 0
M  V30 8314 H 803.313 -2.52451 0.512464 0
M  V30 8315 H 803.271 -2.9177 -1.17121 0
M  V30 8316 N 807.043 -1.17915 -1.04565 0
M  V30 8317 C 808.291 -0.969505 -1.77327 0
M  V30 8318 C 808.612 0.502569 -1.88412 0
M  V30 8319 O 807.882 1.36467 -1.40547 0
M  V30 8320 H 806.462 -0.355723 -0.656864 0
M  V30 8321 H 809.124 -1.48506 -1.26223 0
M  V30 8322 H 808.22 -1.40324 -2.78775 0
M  V30 8323 N 808.521 1.23394 -0.980386 0
M  V30 8324 C 809.768 1.91809 -0.649261 0
M  V30 8325 C 810.096 1.765 0.817197 0
M  V30 8326 O 809.351 1.11979 1.60497 0
M  V30 8327 C 809.65 3.43542 -0.985588 0
M  V30 8328 C 809.316 3.79031 -2.44225 0
M  V30 8329 C 807.978 3.88429 -2.84035 0
M  V30 8330 C 810.33 3.96145 -3.38702 0
M  V30 8331 C 807.658 4.12368 -4.17336 0
M  V30 8332 C 810.01 4.21583 -4.71646 0
M  V30 8333 C 808.674 4.29203 -5.11215 0
M  V30 8334 H 807.944 0.70188 -0.237581 0
M  V30 8335 H 810.591 1.4642 -1.23424 0
M  V30 8336 H 808.896 3.90503 -0.318521 0
M  V30 8337 H 810.593 3.94708 -0.707596 0
M  V30 8338 H 807.183 3.7229 -2.12362 0
M  V30 8339 H 811.367 3.88274 -3.09123 0
M  V30 8340 H 806.623 4.1649 -4.47601 0
M  V30 8341 H 810.797 4.33769 -5.4481 0
M  V30 8342 H 808.424 4.47505 -6.14527 0
M  V30 8343 N 809.999 0.752036 1.385 0
M  V30 8344 C 810.946 0.123288 2.3047 0
M  V30 8345 C 811.916 -0.711326 1.50098 0
M  V30 8346 O 813.101 -0.667775 1.78733 0
M  V30 8347 C 810.241 -0.765085 3.36512 0
M  V30 8348 C 809.354 0.0839885 4.31918 0
M  V30 8349 C 808.489 -0.807243 5.25031 0
M  V30 8350 C 807.528 0.0455583 6.12083 0
M  V30 8351 N 806.665 -0.802547 6.97498 0
M  V30 8352 H 811.505 0.913169 2.83664 0
M  V30 8353 H 809.042 0.46195 1.39658 0
M  V30 8354 H 811 -1.29476 3.966 0
M  V30 8355 H 809.63 -1.52077 2.84732 0
M  V30 8356 H 808.682 0.731276 3.73305 0
M  V30 8357 H 809.994 0.74265 4.9324 0
M  V30 8358 H 809.148 -1.40414 5.90228 0
M  V30 8359 H 807.887 -1.49964 4.64071 0
M  V30 8360 H 806.892 0.655137 5.45883 0
M  V30 8361 H 808.117 0.734994 6.75111 0
M  V30 8362 H 806.063 -1.47992 6.39089 0
M  V30 8363 H 805.98 -0.200747 7.55733 0
M  V30 8364 H 807.248 -1.38447 7.67107 0
M  V30 8365 N 811.477 -1.49425 0.500989 0
M  V30 8366 C 812.425 -2.30771 -0.291149 0
M  V30 8367 C 813.419 -1.3938 -0.962787 0
M  V30 8368 O 814.625 -1.56431 -0.890477 0
M  V30 8369 H 811 -0.743499 -0.11275 0
M  V30 8370 H 812.971 -2.95501 0.414917 0
M  V30 8371 C 811.72 -3.20725 -1.34279 0
M  V30 8372 H 811.043 -3.90975 -0.83538 0
M  V30 8373 H 812.483 -3.80583 -1.86903 0
M  V30 8374 C 810.942 -2.40334 -2.36095 0
M  V30 8375 O 811.472 -2.10749 -3.41976 0
M  V30 8376 N 809.678 -2.02359 -2.08565 0
M  V30 8377 H 809.225 -2.26619 -1.22482 0
M  V30 8378 H 809.183 -1.48878 -2.76916 0
M  V30 8379 N 812.955 -0.234822 -1.55841 0
M  V30 8380 C 814.201 0.387023 -1.99684 0
M  V30 8381 C 814.556 1.56439 -1.12003 0
M  V30 8382 O 813.849 1.90818 -0.172879 0
M  V30 8383 C 814.043 0.858032 -3.46947 0
M  V30 8384 C 813.872 -0.272152 -4.48876 0
M  V30 8385 C 812.642 -0.742896 -4.99809 0
M  V30 8386 C 814.84 -1.09501 -5.02508 0
M  V30 8387 N 812.822 -1.84675 -5.85464 0
M  V30 8388 C 814.193 -2.04748 -5.85217 0
M  V30 8389 C 816.248 -1.13295 -4.84839 0
M  V30 8390 C 814.951 -3.03483 -6.52143 0
M  V30 8391 C 816.977 -2.10854 -5.52535 0
M  V30 8392 C 816.339 -3.04838 -6.35022 0
M  V30 8393 H 812.438 0.107918 -0.774518 0
M  V30 8394 H 815.022 -0.349635 -1.91535 0
M  V30 8395 H 813.193 1.56401 -3.55518 0
M  V30 8396 H 814.925 1.45381 -3.77686 0
M  V30 8397 H 811.68 -0.32915 -4.72455 0
M  V30 8398 H 812.104 -2.40108 -6.32991 0
M  V30 8399 H 816.746 -0.420226 -4.20706 0
M  V30 8400 H 814.464 -3.7571 -7.15449 0
M  V30 8401 H 818.05 -2.1448 -5.40823 0
M  V30 8402 H 816.93 -3.79097 -6.8648 0
M  V30 8403 N 814.433 1.57553 0.0384317 0
M  V30 8404 C 815.71 1.79977 0.766002 0
M  V30 8405 C 816.09 0.830625 1.94072 0
M  V30 8406 O 815.438 -0.129243 2.28134 0
M  V30 8407 C 815.648 3.27434 1.20781 0
M  V30 8408 C 816.996 3.92167 1.62758 0
M  V30 8409 O 818.02 3.31527 1.30263 0
M  V30 8410 O 816.879 4.98917 2.23035 0
M  V30 8411 H 813.973 0.739787 0.369654 0
M  V30 8412 H 816.519 1.69693 0.0159312 0
M  V30 8413 H 815.291 3.89558 0.368792 0
M  V30 8414 H 814.914 3.42571 2.01819 0
M  V30 8415 N 815.911 -0.310526 1.54511 0
M  V30 8416 C 817.158 -1.04691 1.73338 0
M  V30 8417 C 817.486 -1.87584 0.514038 0
M  V30 8418 O 816.741 -1.89096 -0.504119 0
M  V30 8419 C 817.04 -1.98942 2.96912 0
M  V30 8420 C 816.706 -1.321 4.31115 0
M  V30 8421 C 815.368 -1.13603 4.67598 0
M  V30 8422 C 817.72 -0.842362 5.14348 0
M  V30 8423 C 815.048 -0.459102 5.84901 0
M  V30 8424 C 817.4 -0.179202 6.32346 0
M  V30 8425 C 816.064 0.0178111 6.67498 0
M  V30 8426 H 815.334 -0.38309 0.634289 0
M  V30 8427 H 817.981 -0.322723 1.88761 0
M  V30 8428 H 816.286 -2.77856 2.76231 0
M  V30 8429 H 817.983 -2.55972 3.08674 0
M  V30 8430 H 814.573 -1.47502 4.02419 0
M  V30 8431 H 818.757 -0.973013 4.86668 0
M  V30 8432 H 814.013 -0.295385 6.10686 0
M  V30 8433 H 818.187 0.199619 6.96114 0
M  V30 8434 H 815.814 0.544356 7.58249 0
M  V30 8435 N 817.389 -1.46805 -0.573248 0
M  V30 8436 C 818.322 -1.52608 -1.69665 0
M  V30 8437 C 819.3 -0.379426 -1.58111 0
M  V30 8438 O 820.484 -0.584938 -1.79195 0
M  V30 8439 C 817.611 -1.41355 -3.07793 0
M  V30 8440 C 816.657 -2.60321 -3.37839 0
M  V30 8441 S 817.49 -4.22622 -3.28863 0
M  V30 8442 C 818.646 -4.13894 -4.69513 0
M  V30 8443 H 818.879 -2.47653 -1.64485 0
M  V30 8444 H 816.412 -1.34806 -0.752769 0
M  V30 8445 H 818.37 -1.35549 -3.87475 0
M  V30 8446 H 817.031 -0.477213 -3.10454 0
M  V30 8447 H 816.224 -2.48466 -4.38498 0
M  V30 8448 H 815.826 -2.63165 -2.65745 0
M  V30 8449 H 818.118 -3.81158 -5.60111 0
M  V30 8450 H 819.061 -5.14584 -4.86425 0
M  V30 8451 H 819.469 -3.44998 -4.46807 0
M  V30 8452 N 818.867 0.818669 -1.34668 0
M  V30 8453 C 820.092 1.61193 -1.30505 0
M  V30 8454 C 820.517 1.87734 0.117341 0
M  V30 8455 O 819.875 1.45591 1.08042 0
M  V30 8456 C 819.923 2.92733 -2.1057 0
M  V30 8457 O 819.027 3.85 -1.47813 0
M  V30 8458 H 818.368 0.490085 -0.44801 0
M  V30 8459 H 820.898 1.01701 -1.77534 0
M  V30 8460 H 820.908 3.42262 -2.22082 0
M  V30 8461 H 819.583 2.7274 -3.13984 0
M  V30 8462 H 818.16 3.43525 -1.45069 0
M  V30 8463 N 820.346 1.18468 1.03938 0
M  V30 8464 C 821.592 0.982286 1.77423 0
M  V30 8465 C 821.925 -0.48679 1.88 0
M  V30 8466 O 821.2 -1.36146 1.38905 0
M  V30 8467 C 821.483 1.63929 3.20623 0
M  V30 8468 C 821.336 3.18132 3.17982 0
M  V30 8469 C 822.655 1.3536 4.18767 0
M  V30 8470 H 819.774 0.358264 0.644062 0
M  V30 8471 H 822.416 1.46154 1.21405 0
M  V30 8472 H 820.566 1.2318 3.68455 0
M  V30 8473 H 822.238 3.68024 2.78129 0
M  V30 8474 H 820.481 3.50225 2.55978 0
M  V30 8475 H 821.152 3.5924 4.19107 0
M  V30 8476 H 823.628 1.70669 3.79488 0
M  V30 8477 H 822.504 1.83896 5.17178 0
M  V30 8478 H 822.765 0.276722 4.41233 0
M  V30 8479 N 821.824 -1.22873 0.986916 0
M  V30 8480 C 822.774 -2.2237 0.503547 0
M  V30 8481 C 823.758 -1.55186 -0.424998 0
M  V30 8482 O 824.95 -1.75186 -0.252791 0
M  V30 8483 C 822.079 -3.42794 -0.186355 0
M  V30 8484 C 821.165 -4.17196 0.762143 0
M  V30 8485 N 821.556 -4.68453 1.9075 0
M  V30 8486 C 819.854 -4.42255 0.576797 0
M  V30 8487 C 820.555 -5.25126 2.50235 0
M  V30 8488 N 819.531 -5.13437 1.7856 0
M  V30 8489 H 823.333 -2.59636 1.37718 0
M  V30 8490 H 820.847 -1.38476 0.848415 0
M  V30 8491 H 822.844 -4.13256 -0.549993 0
M  V30 8492 H 821.504 -3.07042 -1.05619 0
M  V30 8493 H 822.515 -4.64595 2.28848 0
M  V30 8494 H 819.192 -4.16766 -0.247474 0
M  V30 8495 H 820.582 -5.75363 3.46997 0
M  V30 8496 N 823.302 -0.75937 -1.38099 0
M  V30 8497 C 824.53 -0.329111 -2.04266 0
M  V30 8498 C 824.945 1.04453 -1.57274 0
M  V30 8499 O 824.302 1.66449 -0.748397 0
M  V30 8500 C 824.353 -0.349192 -3.5981 0
M  V30 8501 O 824.074 -1.66863 -4.05078 0
M  V30 8502 C 825.575 0.0942106 -4.432 0
M  V30 8503 H 822.795 -0.13971 -0.656294 0
M  V30 8504 H 825.339 -1.02984 -1.76677 0
M  V30 8505 H 823.494 0.302846 -3.86214 0
M  V30 8506 H 823.908 -1.59877 -4.9954 0
M  V30 8507 H 825.382 0.0290004 -5.51992 0
M  V30 8508 H 825.859 1.1429 -4.24069 0
M  V30 8509 H 826.465 -0.529171 -4.21995 0
M  V30 8510 N 824.78 1.49157 -0.508906 0
M  V30 8511 C 826.026 2.03385 0.0248089 0
M  V30 8512 C 826.381 1.381 1.33964 0
M  V30 8513 O 825.674 0.510317 1.84679 0
M  V30 8514 C 825.868 3.56687 0.225717 0
M  V30 8515 C 825.697 4.36832 -1.06809 0
M  V30 8516 C 824.467 4.78556 -1.6221 0
M  V30 8517 C 826.665 4.74934 -1.97338 0
M  V30 8518 N 824.647 5.43158 -2.86098 0
M  V30 8519 C 826.018 5.39336 -3.05805 0
M  V30 8520 C 828.073 4.56872 -1.97921 0
M  V30 8521 C 826.776 5.87587 -4.1489 0
M  V30 8522 C 828.802 5.06089 -3.05987 0
M  V30 8523 C 828.164 5.70499 -4.13172 0
M  V30 8524 H 824.263 0.781349 -0.0318988 0
M  V30 8525 H 826.847 1.82233 -0.685518 0
M  V30 8526 H 825.018 3.77707 0.905108 0
M  V30 8527 H 826.75 3.97554 0.757147 0
M  V30 8528 H 823.505 4.59017 -1.16621 0
M  V30 8529 H 823.929 5.8004 -3.49116 0
M  V30 8530 H 828.571 4.06474 -1.16357 0
M  V30 8531 H 826.289 6.37002 -4.97247 0
M  V30 8532 H 829.875 4.93919 -3.07466 0
M  V30 8533 H 828.755 6.07893 -4.95415 0
M  V30 8534 N 826.258 0.243083 1.55714 0
M  V30 8535 C 827.506 -0.381964 1.98458 0
M  V30 8536 C 827.827 -1.58745 1.13247 0
M  V30 8537 O 827.097 -1.94723 0.214384 0
M  V30 8538 H 825.677 -0.144114 0.732967 0
M  V30 8539 H 828.339 0.340985 1.91894 0
M  V30 8540 H 827.435 -0.693702 3.04293 0
M  V30 8541 N 827.736 -1.57571 -0.0300757 0
M  V30 8542 C 828.646 -2.09892 -1.04798 0
M  V30 8543 C 829.662 -1.03732 -1.39698 0
M  V30 8544 O 830.838 -1.35461 -1.49038 0
M  V30 8545 C 827.903 -2.56707 -2.33028 0
M  V30 8546 C 826.964 -3.77345 -2.04718 0
M  V30 8547 C 826.197 -4.21918 -3.26834 0
M  V30 8548 O 826.42 -3.66025 -4.37472 0
M  V30 8549 O 825.354 -5.14362 -3.12594 0
M  V30 8550 H 829.18 -2.97023 -0.633344 0
M  V30 8551 H 826.765 -1.47344 -0.246991 0
M  V30 8552 H 828.647 -2.87154 -3.08417 0
M  V30 8553 H 827.322 -1.72688 -2.73789 0
M  V30 8554 H 826.229 -3.51919 -1.26901 0
M  V30 8555 H 827.562 -4.62345 -1.68813 0
M  V30 8556 N 829.214 0.302327 -1.54673 0
M  V30 8557 C 830.162 1.39286 -1.86285 0
M  V30 8558 C 831.156 1.52553 -0.736478 0
M  V30 8559 O 832.362 1.54686 -0.92045 0
M  V30 8560 H 828.737 0.465228 -0.590819 0
M  V30 8561 H 830.708 1.09859 -2.77441 0
M  V30 8562 C 829.457 2.75155 -2.12567 0
M  V30 8563 H 828.78 2.65728 -2.98712 0
M  V30 8564 H 830.22 3.50476 -2.38627 0
M  V30 8565 C 828.679 3.23987 -0.923813 0
M  V30 8566 O 829.209 4.01443 -0.143649 0
M  V30 8567 N 827.415 2.81293 -0.72956 0
M  V30 8568 H 826.962 2.18421 -1.36565 0
M  V30 8569 H 826.92 3.14315 0.0730351 0
M  V30 8570 N 830.692 1.47107 0.565454 0
M  V30 8571 C 832.103 1.47266 1.1476 0
M  V30 8572 C 832.454 0.222841 1.9493 0
M  V30 8573 O 831.579 -0.672862 2.05673 0
M  V30 8574 C 832.174 2.66822 2.08785 0
M  V30 8575 C 830.733 2.69967 2.62288 0
M  V30 8576 C 829.88 2.40236 1.38499 0
M  V30 8577 H 832.831 1.54736 0.352479 0
M  V30 8578 H 832.852 2.43323 2.92531 0
M  V30 8579 H 832.364 3.5777 1.50408 0
M  V30 8580 H 830.465 1.83137 3.24487 0
M  V30 8581 H 830.578 3.70426 3.03845 0
M  V30 8582 H 828.942 1.90648 1.68895 0
M  V30 8583 H 829.725 3.33381 0.819274 0
M  V30 8584 N 832.17 -0.811516 1.35101 0
M  V30 8585 C 833.419 -1.56343 1.27435 0
M  V30 8586 C 833.732 -1.95019 -0.150696 0
M  V30 8587 O 834.938 -2.6924 -0.349586 0
M  V30 8588 C 833.394 -2.82124 2.23459 0
M  V30 8589 C 833.002 -2.50706 3.71283 0
M  V30 8590 C 834.746 -3.60137 2.24726 0
M  V30 8591 C 832.653 -3.72748 4.59143 0
M  V30 8592 H 831.583 -0.58682 0.473453 0
M  V30 8593 H 834.234 -0.892465 1.60335 0
M  V30 8594 H 832.616 -3.50905 1.83525 0
M  V30 8595 H 833.79 -1.89962 4.19823 0
M  V30 8596 H 832.105 -1.85947 3.72576 0
M  V30 8597 H 834.702 -4.50775 2.87587 0
M  V30 8598 H 835.045 -3.97101 1.24965 0
M  V30 8599 H 835.578 -2.98311 2.63164 0
M  V30 8600 H 832.317 -3.40896 5.59884 0
M  V30 8601 H 831.837 -4.32735 4.15332 0
M  V30 8602 H 833.516 -4.40033 4.74321 0
M  V30 8603 N 833.648 -1.19017 -1.03309 0
M  V30 8604 C 834.896 -0.988258 -1.76289 0
M  V30 8605 C 835.217 0.482557 -1.88935 0
M  V30 8606 O 834.487 1.34969 -1.41987 0
M  V30 8607 H 833.067 -0.36267 -0.653054 0
M  V30 8608 H 835.729 -1.49836 -1.2464 0
M  V30 8609 H 834.825 -1.43273 -2.77271 0
M  V30 8610 N 835.127 1.22348 -0.993418 0
M  V30 8611 C 836.355 1.95125 -0.688021 0
M  V30 8612 C 836.77 1.73377 0.747388 0
M  V30 8613 O 836.127 1.03317 1.50439 0
M  V30 8614 C 836.178 3.47819 -0.985097 0
M  V30 8615 O 835.899 3.68838 -2.3641 0
M  V30 8616 C 837.4 4.37779 -0.697474 0
M  V30 8617 H 834.62 0.62087 -0.254481 0
M  V30 8618 H 837.164 1.55485 -1.32833 0
M  V30 8619 H 835.319 3.85426 -0.390583 0
M  V30 8620 H 835.733 4.63032 -2.46377 0
M  V30 8621 H 837.207 5.43666 -0.955604 0
M  V30 8622 H 837.684 4.37651 0.368524 0
M  V30 8623 H 838.29 4.05799 -1.27306 0
M  V30 8624 N 836.605 0.766683 1.37694 0
M  V30 8625 C 837.851 0.338201 2.00569 0
M  V30 8626 C 838.206 -1.07196 1.59771 0
M  V30 8627 O 837.499 -1.72622 0.831402 0
M  V30 8628 C 837.693 0.413831 3.54996 0
M  V30 8629 C 837.522 1.8298 4.1079 0
M  V30 8630 C 836.292 2.44932 4.41969 0
M  V30 8631 C 838.49 2.78852 4.32141 0
M  V30 8632 N 836.472 3.78353 4.83448 0
M  V30 8633 C 837.843 3.97063 4.76174 0
M  V30 8634 C 839.898 2.76205 4.14265 0
M  V30 8635 C 838.601 5.13003 5.04203 0
M  V30 8636 C 840.627 3.91314 4.43427 0
M  V30 8637 C 839.989 5.08265 4.87694 0
M  V30 8638 H 836.088 0.170693 0.763143 0
M  V30 8639 H 838.672 0.999435 1.67091 0
M  V30 8640 H 836.843 -0.217198 3.87792 0
M  V30 8641 H 838.575 -0.036222 4.04684 0
M  V30 8642 H 835.33 1.9659 4.3087 0
M  V30 8643 H 835.754 4.46937 5.08504 0
M  V30 8644 H 840.396 1.86962 3.79216 0
M  V30 8645 H 838.114 6.0285 5.38142 0
M  V30 8646 H 841.7 3.906 4.31187 0
M  V30 8647 H 840.58 5.95858 5.09827 0
M  V30 8648 N 838.083 -1.48885 0.516809 0
M  V30 8649 C 839.311 -2.06892 -0.0184017 0
M  V30 8650 C 839.726 -1.37511 -1.29368 0
M  V30 8651 O 839.083 -0.458409 -1.76649 0
M  V30 8652 C 839.134 -3.60566 -0.259673 0
M  V30 8653 O 838.855 -4.27338 0.965065 0
M  V30 8654 C 840.356 -4.35331 -0.836751 0
M  V30 8655 H 837.576 -0.670433 0.0275743 0
M  V30 8656 H 840.12 -1.91455 0.718689 0
M  V30 8657 H 838.275 -3.75653 -0.94678 0
M  V30 8658 H 838.689 -5.19287 0.737647 0
M  V30 8659 H 840.163 -5.43675 -0.955065 0
M  V30 8660 H 840.64 -3.9887 -1.83845 0
M  V30 8661 H 841.246 -4.2489 -0.186622 0
M  V30 8662 N 839.561 -0.251338 -1.55583 0
M  V30 8663 C 840.491 0.640437 -2.24545 0
M  V30 8664 C 841.472 1.17781 -1.22726 0
M  V30 8665 O 842.657 1.21633 -1.5139 0
M  V30 8666 C 839.787 1.8355 -2.94834 0
M  V30 8667 C 838.741 1.4307 -4.03379 0
M  V30 8668 C 838.067 2.70695 -4.61116 0
M  V30 8669 C 839.367 0.59848 -5.1886 0
M  V30 8670 H 841.061 0.0653772 -2.99329 0
M  V30 8671 H 838.607 0.0300042 -1.43969 0
M  V30 8672 H 840.56 2.46505 -3.4178 0
M  V30 8673 H 839.284 2.43601 -2.17546 0
M  V30 8674 H 837.943 0.824474 -3.57209 0
M  V30 8675 H 837.591 3.28954 -3.80524 0
M  V30 8676 H 837.291 2.44332 -5.34393 0
M  V30 8677 H 838.815 3.34541 -5.10798 0
M  V30 8678 H 840.229 1.13244 -5.62004 0
M  V30 8679 H 838.626 0.430728 -5.98552 0
M  V30 8680 H 839.696 -0.38829 -4.83343 0
M  V30 8681 N 841.039 1.57585 0.0217189 0
M  V30 8682 C 842.455 1.55072 0.377484 0
M  V30 8683 C 842.655 0.978423 1.76151 0
M  V30 8684 O 841.711 0.602688 2.45202 0
M  V30 8685 C 843.024 2.99462 0.272605 0
M  V30 8686 C 844.572 3.11047 0.349148 0
M  V30 8687 C 845.047 4.57182 0.273636 0
M  V30 8688 N 846.538 4.62007 0.332206 0
M  V30 8689 C 847.273 5.72631 0.296782 0
M  V30 8690 N 846.769 6.92472 0.21322 0
M  V30 8691 N 848.562 5.61028 0.347053 0
M  V30 8692 H 840.713 1.93133 -0.883925 0
M  V30 8693 H 842.976 0.886151 -0.33681 0
M  V30 8694 H 842.682 3.45088 -0.67878 0
M  V30 8695 H 842.556 3.61901 1.06335 0
M  V30 8696 H 844.943 2.65364 1.29097 0
M  V30 8697 H 845.024 2.51425 -0.471085 0
M  V30 8698 H 844.668 5.03534 -0.664548 0
M  V30 8699 H 844.598 5.14724 1.11207 0
M  V30 8700 H 847.089 3.75788 0.399003 0
M  V30 8701 H 847.402 7.72563 0.191492 0
M  V30 8702 H 845.747 6.94769 0.179161 0
M  V30 8703 H 848.938 4.66298 0.410378 0
M  V30 8704 H 849.111 6.47229 0.315979 0
M  V30 8705 N 842.517 -0.29412 1.54831 0
M  V30 8706 C 843.766 -1.02614 1.73647 0
M  V30 8707 C 844.079 -1.88193 0.533162 0
M  V30 8708 O 845.285 -2.64713 0.603275 0
M  V30 8709 C 843.741 -1.87417 3.07251 0
M  V30 8710 C 843.349 -1.06806 4.35082 0
M  V30 8711 C 845.093 -2.60176 3.35423 0
M  V30 8712 C 843 -1.90926 5.59733 0
M  V30 8713 H 841.93 -0.386834 0.647206 0
M  V30 8714 H 844.581 -0.282789 1.81308 0
M  V30 8715 H 842.963 -2.65765 2.93572 0
M  V30 8716 H 844.137 -0.330226 4.59615 0
M  V30 8717 H 842.452 -0.455979 4.13896 0
M  V30 8718 H 845.049 -3.23476 4.25755 0
M  V30 8719 H 845.392 -3.29365 2.54606 0
M  V30 8720 H 845.925 -1.88871 3.50103 0
M  V30 8721 H 842.664 -1.26194 6.43238 0
M  V30 8722 H 842.184 -2.62363 5.39375 0
M  V30 8723 H 843.863 -2.48807 5.97247 0
M  V30 8724 N 843.995 -1.47404 -0.557645 0
M  V30 8725 C 845.223 -1.57622 -1.34026 0
M  V30 8726 C 845.638 -0.226256 -1.87439 0
M  V30 8727 O 844.995 0.78043 -1.64971 0
M  V30 8728 C 845.046 -2.60111 -2.51047 0
M  V30 8729 O 844.767 -3.89866 -1.99841 0
M  V30 8730 C 846.268 -2.80508 -3.43264 0
M  V30 8731 H 843.488 -0.532271 -0.40857 0
M  V30 8732 H 846.032 -1.93019 -0.675555 0
M  V30 8733 H 844.187 -2.27648 -3.13457 0
M  V30 8734 H 844.601 -4.45864 -2.76234 0
M  V30 8735 H 846.075 -3.56084 -4.21792 0
M  V30 8736 H 846.552 -1.88314 -3.9678 0
M  V30 8737 H 847.158 -3.14166 -2.86671 0
M  V30 8738 N 845.473 0.80434 -1.35529 0
M  V30 8739 C 846.75 1.5486 -1.1949 0
M  V30 8740 C 847.13 2.09897 0.22506 0
M  V30 8741 O 846.478 1.92643 1.22886 0
M  V30 8742 C 846.688 2.65535 -2.26478 0
M  V30 8743 C 848.036 3.33814 -2.62399 0
M  V30 8744 O 849.06 2.75807 -2.25409 0
M  V30 8745 O 847.919 4.38612 -3.26009 0
M  V30 8746 H 845.013 0.68433 -0.464351 0
M  V30 8747 H 847.559 0.844107 -1.47217 0
M  V30 8748 H 846.331 2.22754 -3.21709 0
M  V30 8749 H 845.954 3.43617 -2.00033 0
M  V30 8750 N 846.951 1.19563 1.02676 0
M  V30 8751 C 847.884 0.878638 2.10607 0
M  V30 8752 C 848.862 -0.165176 1.61759 0
M  V30 8753 O 850.046 -0.041014 1.88455 0
M  V30 8754 C 847.173 0.315347 3.37229 0
M  V30 8755 C 846.219 1.33855 4.04951 0
M  V30 8756 S 847.052 2.89982 4.50189 0
M  V30 8757 C 848.208 2.35202 5.80027 0
M  V30 8758 H 848.441 1.79268 2.37171 0
M  V30 8759 H 845.974 1.023 1.15646 0
M  V30 8760 H 847.932 -0.00311911 4.105 0
M  V30 8761 H 846.593 -0.577035 3.08754 0
M  V30 8762 H 845.786 0.893581 4.96015 0
M  V30 8763 H 845.388 1.60397 3.37859 0
M  V30 8764 H 847.68 1.74329 6.54687 0
M  V30 8765 H 848.623 3.24622 6.29306 0
M  V30 8766 H 849.031 1.77702 5.35801 0
M  V30 8767 N 848.429 -1.21819 0.999893 0
M  V30 8768 C 849.654 -1.95298 0.698094 0
M  V30 8769 C 850.079 -1.73273 -0.731982 0
M  V30 8770 O 849.437 -1.01634 -1.50134 0
M  V30 8771 C 849.485 -3.45922 1.01834 0
M  V30 8772 O 848.589 -4.12223 0.120801 0
M  V30 8773 H 847.93 -0.610729 0.260588 0
M  V30 8774 H 850.46 -1.5472 1.33876 0
M  V30 8775 H 850.47 -3.96471 0.963074 0
M  V30 8776 H 849.145 -3.61278 2.06037 0
M  V30 8777 H 847.722 -3.72177 0.232153 0
M  V30 8778 N 849.908 -0.773975 -1.37286 0
M  V30 8779 C 851.156 -0.338636 -1.99243 0
M  V30 8780 C 851.477 1.08919 -1.61746 0
M  V30 8781 O 850.747 1.74822 -0.88397 0
M  V30 8782 H 849.327 -0.12222 -0.736934 0
M  V30 8783 H 851.989 -0.992595 -1.67731 0
M  V30 8784 H 851.085 -0.418055 -3.09287 0
M  V30 8785 N 851.386 1.48609 -0.524698 0
M  V30 8786 C 852.802 1.58557 -0.182199 0
M  V30 8787 C 853.002 1.52732 1.31435 0
M  V30 8788 O 852.058 1.41362 2.0922 0
M  V30 8789 C 853.371 2.90406 -0.78004 0
M  V30 8790 C 854.919 3.03924 -0.748293 0
M  V30 8791 C 855.394 4.38427 -1.32462 0
M  V30 8792 N 856.885 4.4498 -1.28635 0
M  V30 8793 C 857.62 5.47551 -1.70223 0
M  V30 8794 N 857.116 6.57103 -2.19515 0
M  V30 8795 N 858.909 5.38402 -1.61493 0
M  V30 8796 H 851.06 1.50638 -1.4974 0
M  V30 8797 H 853.323 0.714952 -0.622533 0
M  V30 8798 H 853.029 3.00308 -1.83052 0
M  V30 8799 H 852.903 3.76343 -0.254075 0
M  V30 8800 H 855.29 2.93638 0.293407 0
M  V30 8801 H 855.371 2.19611 -1.31167 0
M  V30 8802 H 855.015 4.49466 -2.36522 0
M  V30 8803 H 854.945 5.21418 -0.736967 0
M  V30 8804 H 857.436 3.66393 -0.92545 0
M  V30 8805 H 857.749 7.31499 -2.49257 0
M  V30 8806 H 856.094 6.58081 -2.23506 0
M  V30 8807 H 859.285 4.5171 -1.22785 0
M  V30 8808 H 859.458 6.18208 -1.94225 0
M  V30 8809 N 852.864 0.259585 1.55447 0
M  V30 8810 C 854.113 -0.362163 1.98422 0
M  V30 8811 C 854.426 -1.58135 1.1512 0
M  V30 8812 O 855.632 -2.27506 1.48166 0
M  V30 8813 C 854.088 -0.695722 3.53111 0
M  V30 8814 C 853.696 0.502784 4.4517 0
M  V30 8815 C 855.44 -1.28096 4.04712 0
M  V30 8816 C 853.347 0.144674 5.91223 0
M  V30 8817 H 852.277 -0.139092 0.74106 0
M  V30 8818 H 854.928 0.361798 1.79898 0
M  V30 8819 H 853.31 -1.47816 3.67378 0
M  V30 8820 H 854.484 1.27994 4.42667 0
M  V30 8821 H 852.799 1.0038 4.0412 0
M  V30 8822 H 855.396 -1.56243 5.11363 0
M  V30 8823 H 855.739 -2.20969 3.52815 0
M  V30 8824 H 856.272 -0.561146 3.93822 0
M  V30 8825 H 853.011 1.04087 6.47183 0
M  V30 8826 H 852.531 -0.596023 5.96831 0
M  V30 8827 H 854.21 -0.268651 6.46442 0
M  V30 8828 N 854.342 -1.57594 -0.0133615 0
M  V30 8829 C 855.274 -2.04402 -1.03695 0
M  V30 8830 C 856.287 -0.959546 -1.31516 0
M  V30 8831 O 857.476 -1.23659 -1.28727 0
M  V30 8832 C 854.576 -2.41766 -2.37491 0
M  V30 8833 C 853.749 -3.72785 -2.28802 0
M  V30 8834 C 852.808 -3.97165 -3.45176 0
M  V30 8835 O 851.834 -4.68013 -3.23963 0
M  V30 8836 N 853.036 -3.44021 -4.67579 0
M  V30 8837 H 855.801 -2.92833 -0.637874 0
M  V30 8838 H 853.362 -1.60647 -0.20101 0
M  V30 8839 H 855.354 -2.55201 -3.14093 0
M  V30 8840 H 853.924 -1.58924 -2.69188 0
M  V30 8841 H 853.144 -3.69555 -1.37197 0
M  V30 8842 H 854.432 -4.58704 -2.20154 0
M  V30 8843 H 853.83 -2.86623 -4.87713 0
M  V30 8844 H 852.387 -3.62808 -5.41492 0
M  V30 8845 N 855.82 0.285905 -1.54985 0
M  V30 8846 C 856.768 1.37302 -1.87752 0
M  V30 8847 C 857.762 1.51763 -0.752616 0
M  V30 8848 O 858.968 1.53701 -0.936805 0
M  V30 8849 H 855.343 0.458935 -0.59572 0
M  V30 8850 H 857.314 1.0691 -2.78591 0
M  V30 8851 C 856.063 2.72885 -2.15474 0
M  V30 8852 H 855.386 2.62545 -3.01513 0
M  V30 8853 H 856.826 3.47925 -2.42331 0
M  V30 8854 C 855.285 3.22989 -0.958124 0
M  V30 8855 O 855.815 4.01268 -0.186219 0
M  V30 8856 N 854.021 2.80503 -0.759354 0
M  V30 8857 H 853.568 2.16961 -1.38874 0
M  V30 8858 H 853.526 3.14375 0.0396937 0
M  V30 8859 N 857.298 1.47698 0.54982 0
M  V30 8860 C 858.208 1.63386 1.68351 0
M  V30 8861 C 859.224 0.516583 1.66155 0
M  V30 8862 O 860.4 0.785088 1.85468 0
M  V30 8863 C 857.465 1.6513 3.04849 0
M  V30 8864 C 856.526 2.88338 3.18056 0
M  V30 8865 C 855.759 2.8999 4.48042 0
M  V30 8866 O 855.982 2.00633 5.3395 0
M  V30 8867 O 854.916 3.81938 4.65196 0
M  V30 8868 H 858.742 2.59329 1.58057 0
M  V30 8869 H 856.327 1.30869 0.72067 0
M  V30 8870 H 858.209 1.68913 3.86065 0
M  V30 8871 H 856.884 0.723555 3.1551 0
M  V30 8872 H 855.791 2.90097 2.36209 0
M  V30 8873 H 857.124 3.80431 3.12302 0
M  V30 8874 N 858.776 -0.797141 1.35954 0
M  V30 8875 C 860.024 -1.55161 1.29497 0
M  V30 8876 C 860.345 -1.94582 -0.127659 0
M  V30 8877 O 859.615 -1.64343 -1.06622 0
M  V30 8878 H 858.195 -0.575413 0.47635 0
M  V30 8879 H 860.857 -0.950282 1.70164 0
M  V30 8880 H 859.953 -2.46272 1.9172 0
M  V30 8881 N 860.254 -1.20106 -1.0204 0
M  V30 8882 C 861.67 -0.955099 -1.27867 0
M  V30 8883 C 861.87 0.367595 -1.98119 0
M  V30 8884 O 860.926 1.09705 -2.27423 0
M  V30 8885 C 862.239 -2.13507 -2.11744 0
M  V30 8886 C 863.787 -2.17563 -2.25023 0
M  V30 8887 C 864.262 -3.35035 -3.12275 0
M  V30 8888 N 865.753 -3.35024 -3.19864 0
M  V30 8889 C 866.488 -4.22566 -3.8759 0
M  V30 8890 N 865.984 -5.20278 -4.57474 0
M  V30 8891 N 867.777 -4.10418 -3.84075 0
M  V30 8892 H 859.928 -2.05193 -0.54861 0
M  V30 8893 H 862.191 -0.897689 -0.304728 0
M  V30 8894 H 861.897 -3.09275 -1.67456 0
M  V30 8895 H 861.771 -2.11281 -3.12474 0
M  V30 8896 H 864.158 -1.22359 -2.68537 0
M  V30 8897 H 864.239 -2.23838 -1.23815 0
M  V30 8898 H 863.883 -4.30522 -2.69468 0
M  V30 8899 H 863.813 -3.25996 -4.13563 0
M  V30 8900 H 866.304 -2.64299 -2.701 0
M  V30 8901 H 866.617 -5.83408 -5.06809 0
M  V30 8902 H 864.962 -5.24219 -4.56311 0
M  V30 8903 H 868.153 -3.33353 -3.28623 0
M  V30 8904 H 868.326 -4.78854 -4.36581 0
M  V30 8905 N 861.732 1.21287 -1.00634 0
M  V30 8906 C 862.981 1.89706 -0.685178 0
M  V30 8907 C 863.294 1.79044 0.787566 0
M  V30 8908 O 864.5 2.42502 1.22086 0
M  V30 8909 C 862.956 3.40176 -1.17508 0
M  V30 8910 C 862.564 3.59446 -2.674 0
M  V30 8911 C 864.308 4.14213 -0.928869 0
M  V30 8912 C 862.215 5.03688 -3.09923 0
M  V30 8913 H 861.145 0.710434 -0.252586 0
M  V30 8914 H 863.796 1.37277 -1.21768 0
M  V30 8915 H 862.178 3.91867 -0.570622 0
M  V30 8916 H 863.352 3.18188 -3.33306 0
M  V30 8917 H 861.667 2.98764 -2.9005 0
M  V30 8918 H 864.264 5.20546 -1.22212 0
M  V30 8919 H 864.607 4.16082 0.134859 0
M  V30 8920 H 865.14 3.68591 -1.49619 0
M  V30 8921 H 861.879 5.06968 -4.15529 0
M  V30 8922 H 861.399 5.45796 -2.4873 0
M  V30 8923 H 863.078 5.72204 -3.0198 0
M  V30 8924 N 863.21 0.781244 1.36873 0
M  V30 8925 C 864.456 0.350407 1.9975 0
M  V30 8926 C 864.789 -1.07293 1.6187 0
M  V30 8927 O 864.064 -1.73983 0.869491 0
M  V30 8928 C 864.347 0.504834 3.56544 0
M  V30 8929 C 864.2 1.97127 4.04303 0
M  V30 8930 C 865.519 -0.0851272 4.40018 0
M  V30 8931 H 862.638 0.128794 0.725659 0
M  V30 8932 H 865.28 0.98606 1.6241 0
M  V30 8933 H 863.43 -0.0363006 3.88483 0
M  V30 8934 H 865.102 2.57284 3.82887 0
M  V30 8935 H 863.345 2.47676 3.56145 0
M  V30 8936 H 864.016 2.03033 5.13305 0
M  V30 8937 H 866.492 0.376704 4.14391 0
M  V30 8938 H 865.368 0.0530015 5.48874 0
M  V30 8939 H 865.629 -1.17642 4.2616 0
M  V30 8940 N 864.689 -1.48329 0.532571 0
M  V30 8941 C 865.637 -2.31336 -0.242133 0
M  V30 8942 C 866.631 -1.41391 -0.933006 0
M  V30 8943 O 867.837 -1.58284 -0.857096 0
M  V30 8944 H 864.212 -0.745724 -0.0969536 0
M  V30 8945 H 866.183 -2.94555 0.477504 0
M  V30 8946 C 864.932 -3.23501 -1.27446 0
M  V30 8947 H 864.255 -3.92659 -0.752261 0
M  V30 8948 H 865.695 -3.84461 -1.78789 0
M  V30 8949 C 864.154 -2.45288 -2.30944 0
M  V30 8950 O 864.684 -2.17955 -3.37429 0
M  V30 8951 N 862.89 -2.06737 -2.04226 0
M  V30 8952 H 862.437 -2.29166 -1.17647 0
M  V30 8953 H 862.395 -1.54719 -2.73696 0
M  V30 8954 N 866.167 -0.267825 -1.55308 0
M  V30 8955 C 867.413 0.34458 -2.0046 0
M  V30 8956 C 867.768 1.54028 -1.15296 0
M  V30 8957 O 867.061 1.90409 -0.213316 0
M  V30 8958 C 867.255 0.784247 -3.48689 0
M  V30 8959 C 867.084 -0.367304 -4.48197 0
M  V30 8960 C 865.854 -0.848746 -4.98121 0
M  V30 8961 C 868.052 -1.20136 -5.00072 0
M  V30 8962 N 866.034 -1.97052 -5.81415 0
M  V30 8963 C 867.405 -2.17115 -5.80742 0
M  V30 8964 C 869.46 -1.23553 -4.82327 0
M  V30 8965 C 868.163 -3.17248 -6.45559 0
M  V30 8966 C 870.189 -2.22527 -5.47938 0
M  V30 8967 C 869.551 -3.1824 -6.28413 0
M  V30 8968 H 865.65 0.091465 -0.776633 0
M  V30 8969 H 868.234 -0.390184 -1.9075 0
M  V30 8970 H 866.405 1.48825 -3.58756 0
M  V30 8971 H 868.137 1.37337 -3.80684 0
M  V30 8972 H 864.892 -0.429291 -4.7165 0
M  V30 8973 H 865.316 -2.53481 -6.27755 0
M  V30 8974 H 869.958 -0.50937 -4.1972 0
M  V30 8975 H 867.676 -3.90801 -7.07319 0
M  V30 8976 H 871.262 -2.25904 -5.36152 0
M  V30 8977 H 870.142 -3.93573 -6.78285 0
M  V30 8978 N 867.645 1.57599 0.00500368 0
M  V30 8979 C 868.592 2.08106 0.998025 0
M  V30 8980 C 869.562 0.975374 1.34446 0
M  V30 8981 O 870.747 1.24749 1.44369 0
M  V30 8982 C 867.887 2.58496 2.28635 0
M  V30 8983 C 867 3.82947 1.99939 0
M  V30 8984 C 866.135 4.21857 3.22816 0
M  V30 8985 C 865.174 5.39159 2.89783 0
M  V30 8986 N 864.311 5.73386 4.05183 0
M  V30 8987 H 869.151 2.92684 0.560385 0
M  V30 8988 H 866.688 1.44692 0.265053 0
M  V30 8989 H 868.646 2.85787 3.03943 0
M  V30 8990 H 867.276 1.768 2.70077 0
M  V30 8991 H 866.328 3.62594 1.1502 0
M  V30 8992 H 867.64 4.68358 1.71588 0
M  V30 8993 H 866.794 4.50404 4.06474 0
M  V30 8994 H 865.533 3.35145 3.54301 0
M  V30 8995 H 864.538 5.1034 2.04532 0
M  V30 8996 H 865.763 6.27543 2.59551 0
M  V30 8997 H 863.709 4.89632 4.36574 0
M  V30 8998 H 863.626 6.53359 3.80339 0
M  V30 8999 H 864.894 6.06522 4.89644 0
M  V30 9000 N 869.123 -0.277682 1.55134 0
M  V30 9001 C 870.053 -1.34742 1.90701 0
M  V30 9002 C 871.034 -1.51757 0.768354 0
M  V30 9003 O 872.219 -1.64879 1.02609 0
M  V30 9004 C 869.349 -2.70775 2.17481 0
M  V30 9005 C 868.303 -2.68497 3.33307 0
M  V30 9006 C 867.629 -4.08037 3.45557 0
M  V30 9007 C 868.929 -2.28178 4.69821 0
M  V30 9008 H 870.623 -1.05224 2.803 0
M  V30 9009 H 868.169 -0.504738 1.34864 0
M  V30 9010 H 870.122 -3.45719 2.40949 0
M  V30 9011 H 868.846 -3.01867 1.24676 0
M  V30 9012 H 867.505 -1.9601 3.09799 0
M  V30 9013 H 867.153 -4.36344 2.50226 0
M  V30 9014 H 866.853 -4.07409 4.23429 0
M  V30 9015 H 868.377 -4.84726 3.71312 0
M  V30 9016 H 869.791 -2.92843 4.92865 0
M  V30 9017 H 868.188 -2.3872 5.50575 0
M  V30 9018 H 869.258 -1.23308 4.6896 0
M  V30 9019 N 870.601 -1.47988 -0.541979 0
M  V30 9020 C 871.85 -1.5465 -1.29485 0
M  V30 9021 C 872.163 -0.220041 -1.94358 0
M  V30 9022 O 873.369 -0.164792 -2.70999 0
M  V30 9023 C 871.825 -2.72685 -2.34885 0
M  V30 9024 C 871.433 -4.11923 -1.76134 0
M  V30 9025 C 873.177 -2.88651 -3.11257 0
M  V30 9026 C 871.084 -5.21237 -2.79404 0
M  V30 9027 H 870.014 -0.575688 -0.486928 0
M  V30 9028 H 872.665 -1.74296 -0.573853 0
M  V30 9029 H 871.047 -2.46448 -3.09966 0
M  V30 9030 H 872.221 -4.48128 -1.07322 0
M  V30 9031 H 870.536 -4.00972 -1.12295 0
M  V30 9032 H 873.133 -3.67487 -3.88404 0
M  V30 9033 H 873.476 -1.97658 -3.66384 0
M  V30 9034 H 874.009 -3.14731 -2.43288 0
M  V30 9035 H 870.748 -6.14156 -2.29113 0
M  V30 9036 H 870.268 -4.89533 -3.4658 0
M  V30 9037 H 871.947 -5.48839 -3.42615 0
M  V30 9038 N 872.079 0.78992 -1.36375 0
M  V30 9039 C 873.009 1.91683 -1.33341 0
M  V30 9040 C 873.99 1.68861 -0.204965 0
M  V30 9041 O 875.175 1.89982 -0.402531 0
M  V30 9042 C 872.305 3.28696 -1.12143 0
M  V30 9043 C 871.259 3.66041 -2.21806 0
M  V30 9044 C 870.585 5.01399 -1.85751 0
M  V30 9045 C 871.885 3.74677 -3.63888 0
M  V30 9046 H 873.579 1.94478 -2.27637 0
M  V30 9047 H 871.125 0.934271 -1.09578 0
M  V30 9048 H 873.078 4.07151 -1.08656 0
M  V30 9049 H 871.802 3.26287 -0.142974 0
M  V30 9050 H 870.461 2.89883 -2.24418 0
M  V30 9051 H 870.109 4.9551 -0.864817 0
M  V30 9052 H 869.809 5.27355 -2.59173 0
M  V30 9053 H 871.333 5.82274 -1.83819 0
M  V30 9054 H 872.747 4.43324 -3.63506 0
M  V30 9055 H 871.144 4.12118 -4.3621 0
M  V30 9056 H 872.214 2.75795 -3.9883 0
M  V30 9057 N 873.557 1.20646 1.01402 0
M  V30 9058 C 874.507 0.925209 2.08384 0
M  V30 9059 C 875.491 -0.115994 1.60481 0
M  V30 9060 O 876.683 0.0917276 1.76762 0
M  V30 9061 C 873.812 0.48193 3.399 0
M  V30 9062 C 872.898 1.5567 3.94497 0
M  V30 9063 N 873.289 2.77971 4.2257 0
M  V30 9064 C 871.587 1.42347 4.22674 0
M  V30 9065 C 872.288 3.47317 4.66632 0
M  V30 9066 N 871.264 2.74736 4.69064 0
M  V30 9067 H 875.066 1.85452 2.28002 0
M  V30 9068 H 872.58 1.10084 1.19395 0
M  V30 9069 H 874.577 0.261835 4.16077 0
M  V30 9070 H 873.237 -0.440725 3.21695 0
M  V30 9071 H 874.248 3.14598 4.11398 0
M  V30 9072 H 870.925 0.565417 4.13654 0
M  V30 9073 H 872.315 4.51985 4.97151 0
M  V30 9074 N 875.035 -1.20752 1.01276 0
M  V30 9075 C 876.283 -1.89645 0.698505 0
M  V30 9076 C 876.604 -1.78986 -0.773883 0
M  V30 9077 O 875.874 -1.18977 -1.55632 0
M  V30 9078 H 874.454 -0.701992 0.255375 0
M  V30 9079 H 877.116 -1.46668 1.28353 0
M  V30 9080 H 876.212 -2.96364 0.978512 0
M  V30 9081 N 876.513 -0.788492 -1.36457 0
M  V30 9082 C 877.741 -0.372365 -2.03522 0
M  V30 9083 C 878.156 1.01093 -1.59454 0
M  V30 9084 O 877.513 1.64824 -0.783535 0
M  V30 9085 C 877.564 -0.425435 -3.58988 0
M  V30 9086 O 877.285 -1.75418 -4.01448 0
M  V30 9087 C 878.786 0.000180167 -4.433 0
M  V30 9088 H 876.006 -0.1536 -0.653183 0
M  V30 9089 H 878.55 -1.06708 -1.74452 0
M  V30 9090 H 876.705 0.220856 -3.8677 0
M  V30 9091 H 877.119 -1.70437 -4.96036 0
M  V30 9092 H 878.593 -0.0880919 -5.5193 0
M  V30 9093 H 879.07 1.05269 -4.26398 0
M  V30 9094 H 879.676 -0.618563 -4.20778 0
M  V30 9095 N 877.991 1.48044 -0.54043 0
M  V30 9096 C 879.216 2.07396 -0.0124765 0
M  V30 9097 C 879.641 1.39288 1.26414 0
M  V30 9098 O 878.999 0.462252 1.75308 0
M  V30 9099 C 879.047 3.60131 0.18377 0
M  V30 9100 O 878.151 3.92995 1.25014 0
M  V30 9101 H 877.492 0.662554 -0.0438026 0
M  V30 9102 H 880.022 1.90306 -0.751327 0
M  V30 9103 H 880.032 4.06003 0.403197 0
M  V30 9104 H 878.707 4.09105 -0.74874 0
M  V30 9105 H 877.284 3.5889 1.01254 0
M  V30 9106 N 879.47 0.276058 1.55163 0
M  V30 9107 C 880.695 -0.346648 2.04483 0
M  V30 9108 C 881.12 -1.48613 1.15308 0
M  V30 9109 O 880.478 -1.80663 0.151875 0
M  V30 9110 C 880.526 -0.804268 3.51517 0
M  V30 9111 O 879.63 -1.91143 3.65429 0
M  V30 9112 H 878.971 -0.0715251 0.660136 0
M  V30 9113 H 881.501 0.410631 2.00437 0
M  V30 9114 H 881.511 -1.09977 3.92898 0
M  V30 9115 H 880.186 0.0294123 4.1589 0
M  V30 9116 H 878.763 -1.61839 3.3595 0
M  V30 9117 N 880.948 -1.576 0.00335426 0
M  V30 9118 C 881.88 -2.0549 -1.01521 0
M  V30 9119 C 882.893 -0.973441 -1.30491 0
M  V30 9120 O 884.082 -1.25017 -1.27409 0
M  V30 9121 C 881.182 -2.44272 -2.34914 0
M  V30 9122 C 880.355 -3.75191 -2.24835 0
M  V30 9123 C 879.414 -4.00804 -3.40944 0
M  V30 9124 O 878.44 -4.71423 -3.18981 0
M  V30 9125 N 879.642 -3.48961 -4.63904 0
M  V30 9126 H 882.407 -2.93493 -0.60678 0
M  V30 9127 H 879.968 -1.60851 -0.18396 0
M  V30 9128 H 881.96 -2.58518 -3.11369 0
M  V30 9129 H 880.53 -1.6177 -2.67487 0
M  V30 9130 H 879.75 -3.70989 -1.3327 0
M  V30 9131 H 881.038 -4.61013 -2.15277 0
M  V30 9132 H 880.436 -2.9178 -4.84645 0
M  V30 9133 H 878.993 -3.68531 -5.37613 0
M  V30 9134 N 882.426 0.269451 -1.5528 0
M  V30 9135 C 883.837 0.840233 -1.66724 0
M  V30 9136 C 884.188 1.86909 -0.596621 0
M  V30 9137 O 883.313 2.14817 0.261246 0
M  V30 9138 C 883.908 1.5308 -3.02245 0
M  V30 9139 C 882.467 2.04957 -3.15705 0
M  V30 9140 C 881.614 0.892838 -2.62533 0
M  V30 9141 H 884.565 0.0457236 -1.58634 0
M  V30 9142 H 884.586 2.39792 -2.95432 0
M  V30 9143 H 884.098 0.781741 -3.80145 0
M  V30 9144 H 882.199 2.82813 -2.42585 0
M  V30 9145 H 882.312 2.26244 -4.22316 0
M  V30 9146 H 880.676 1.28719 -2.19781 0
M  V30 9147 H 881.459 0.157229 -3.4294 0
M  V30 9148 N 883.904 1.48273 0.534124 0
M  V30 9149 C 884.814 1.65162 1.66609 0
M  V30 9150 C 885.83 0.534177 1.65598 0
M  V30 9151 O 887.006 0.804715 1.84625 0
M  V30 9152 C 884.071 1.68354 3.03081 0
M  V30 9153 C 883.132 2.91696 3.1498 0
M  V30 9154 C 882.365 2.94725 4.44941 0
M  V30 9155 O 882.588 2.06285 5.31792 0
M  V30 9156 O 881.522 3.8685 4.61119 0
M  V30 9157 H 885.348 2.60991 1.55298 0
M  V30 9158 H 882.933 1.31626 0.706749 0
M  V30 9159 H 884.815 1.72998 3.84252 0
M  V30 9160 H 883.49 0.756978 3.14725 0
M  V30 9161 H 882.397 2.92586 2.33119 0
M  V30 9162 H 883.73 3.83722 3.0825 0
M  V30 9163 N 885.382 -0.782676 1.36792 0
M  V30 9164 C 886.332 -1.8855 1.28191 0
M  V30 9165 C 887.316 -1.59978 0.171984 0
M  V30 9166 O 888.508 -1.72295 0.405405 0
M  V30 9167 C 885.637 -3.25862 1.08021 0
M  V30 9168 C 884.723 -3.60422 2.2351 0
M  V30 9169 N 885.114 -3.66241 3.48857 0
M  V30 9170 C 883.412 -3.90523 2.15424 0
M  V30 9171 C 884.113 -3.97233 4.24948 0
M  V30 9172 N 883.089 -4.12567 3.53963 0
M  V30 9173 H 886.891 -1.91285 2.23131 0
M  V30 9174 H 884.405 -0.978554 1.29607 0
M  V30 9175 H 886.402 -4.04742 0.999458 0
M  V30 9176 H 885.062 -3.24399 0.139882 0
M  V30 9177 H 886.073 -3.48717 3.82906 0
M  V30 9178 H 882.75 -3.96945 1.29386 0
M  V30 9179 H 884.14 -4.08602 5.33379 0
M  V30 9180 N 886.86 -1.21182 -1.00761 0
M  V30 9181 C 887.793 -0.912033 -2.09182 0
M  V30 9182 C 888.771 0.139421 -1.62001 0
M  V30 9183 O 889.955 0.0110272 -1.88497 0
M  V30 9184 C 887.082 -0.368957 -3.36684 0
M  V30 9185 C 886.128 -1.4028 -4.0277 0
M  V30 9186 S 886.961 -2.97108 -4.45519 0
M  V30 9187 C 888.117 -2.444 -5.76211 0
M  V30 9188 H 888.35 -1.83019 -2.34289 0
M  V30 9189 H 885.883 -1.04127 -1.14004 0
M  V30 9190 H 887.841 -0.0621883 -4.10453 0
M  V30 9191 H 886.502 0.527841 -3.09633 0
M  V30 9192 H 885.695 -0.97238 -4.94531 0
M  V30 9193 H 885.297 -1.65752 -3.35265 0
M  V30 9194 H 887.589 -1.84723 -6.51831 0
M  V30 9195 H 888.532 -3.34593 -6.24062 0
M  V30 9196 H 888.94 -1.86203 -5.32906 0
M  V30 9197 N 888.338 1.20213 -1.01915 0
M  V30 9198 C 889.285 2.2309 -0.591571 0
M  V30 9199 C 890.255 1.61465 0.389649 0
M  V30 9200 O 891.44 1.88606 0.288511 0
M  V30 9201 C 888.58 3.45045 0.0614028 0
M  V30 9202 C 887.693 4.21091 -0.964688 0
M  V30 9203 C 886.828 5.30448 -0.282499 0
M  V30 9204 C 885.867 5.98241 -1.29517 0
M  V30 9205 N 885.004 6.99182 -0.639472 0
M  V30 9206 H 889.844 2.59023 -1.47347 0
M  V30 9207 H 887.381 1.27274 -0.737547 0
M  V30 9208 H 889.339 4.14688 0.45714 0
M  V30 9209 H 887.969 3.09797 0.906937 0
M  V30 9210 H 887.021 3.50489 -1.47857 0
M  V30 9211 H 888.333 4.67662 -1.73475 0
M  V30 9212 H 887.487 6.06466 0.168603 0
M  V30 9213 H 886.226 4.84922 0.519843 0
M  V30 9214 H 885.231 5.20982 -1.75663 0
M  V30 9215 H 886.456 6.45853 -2.09884 0
M  V30 9216 H 884.402 6.55844 0.142955 0
M  V30 9217 H 884.319 7.43893 -1.34756 0
M  V30 9218 H 885.587 7.79212 -0.212047 0
M  V30 9219 N 889.816 0.795718 1.36037 0
M  V30 9220 C 890.748 0.156336 2.28666 0
M  V30 9221 C 891.761 -0.638075 1.49775 0
M  V30 9222 O 892.95 -0.472222 1.7214 0
M  V30 9223 C 890.05 -0.801417 3.29288 0
M  V30 9224 C 889.223 -0.0557118 4.37365 0
M  V30 9225 C 888.282 -0.930338 5.1791 0
M  V30 9226 O 887.308 -0.385266 5.67895 0
M  V30 9227 N 888.51 -2.25382 5.34961 0
M  V30 9228 H 891.275 0.952033 2.84177 0
M  V30 9229 H 888.836 0.650189 1.48271 0
M  V30 9230 H 890.828 -1.39051 3.80062 0
M  V30 9231 H 889.398 -1.49796 2.74372 0
M  V30 9232 H 888.618 0.714508 3.87671 0
M  V30 9233 H 889.906 0.458633 5.06729 0
M  V30 9234 H 889.304 -2.72073 4.95977 0
M  V30 9235 H 887.861 -2.79241 5.88955 0
M  V30 9236 N 891.294 -1.47756 0.548274 0
M  V30 9237 C 892.705 -1.8636 0.112547 0
M  V30 9238 C 893.056 -1.45589 -1.31523 0
M  V30 9239 O 892.181 -0.854874 -1.98799 0
M  V30 9240 C 892.776 -3.38224 0.197473 0
M  V30 9241 C 891.335 -3.75954 -0.183163 0
M  V30 9242 C 890.482 -2.7181 0.549059 0
M  V30 9243 H 893.433 -1.394 0.758506 0
M  V30 9244 H 893.454 -3.75957 -0.586217 0
M  V30 9245 H 892.966 -3.67868 1.23673 0
M  V30 9246 H 891.067 -3.51926 -1.22387 0
M  V30 9247 H 891.18 -4.78801 0.169178 0
M  V30 9248 H 889.544 -2.54699 -0.00682862 0
M  V30 9249 H 890.327 -3.04296 1.5893 0
M  V30 9250 N 892.772 -0.284283 -1.55015 0
M  V30 9251 C 894.188 0.069603 -1.59448 0
M  V30 9252 C 894.388 1.53833 -1.30144 0
M  V30 9253 O 893.444 2.2886 -1.06674 0
M  V30 9254 C 894.757 -0.313287 -2.99064 0
M  V30 9255 C 896.305 -0.260662 -3.11913 0
M  V30 9256 C 896.78 -0.618127 -4.5381 0
M  V30 9257 N 898.271 -0.570026 -4.59679 0
M  V30 9258 C 899.006 -0.8193 -5.67517 0
M  V30 9259 N 898.502 -1.13367 -6.83462 0
M  V30 9260 N 900.295 -0.747482 -5.57108 0
M  V30 9261 H 892.446 -1.24167 -1.72326 0
M  V30 9262 H 894.709 -0.502259 -0.804015 0
M  V30 9263 H 894.415 -1.33509 -3.25374 0
M  V30 9264 H 894.289 0.341369 -3.75652 0
M  V30 9265 H 896.676 0.751869 -2.85361 0
M  V30 9266 H 896.757 -0.949706 -2.37517 0
M  V30 9267 H 896.401 -1.62839 -4.81088 0
M  V30 9268 H 896.331 0.092807 -5.26518 0
M  V30 9269 H 898.822 -0.3373 -3.76392 0
M  V30 9270 H 899.135 -1.3103 -7.61611 0
M  V30 9271 H 897.48 -1.17154 -6.85055 0
M  V30 9272 H 900.671 -0.501658 -4.65404 0
M  V30 9273 H 900.844 -0.945128 -6.4107 0
M  V30 9274 N 894.251 1.57596 -0.0117121 0
M  V30 9275 C 895.497 1.91355 0.671661 0
M  V30 9276 C 895.83 0.886818 1.72769 0
M  V30 9277 O 895.105 -0.0928813 1.94278 0
M  V30 9278 C 895.388 3.35657 1.30409 0
M  V30 9279 C 895.241 4.49055 0.2588 0
M  V30 9280 C 896.56 3.79595 2.22701 0
M  V30 9281 H 893.679 0.695893 0.242698 0
M  V30 9282 H 896.321 1.89887 -0.0654071 0
M  V30 9283 H 894.471 3.37038 1.9323 0
M  V30 9284 H 896.143 4.59809 -0.370631 0
M  V30 9285 H 894.386 4.31785 -0.417672 0
M  V30 9286 H 895.057 5.4701 0.740578 0
M  V30 9287 H 897.533 3.7984 1.69885 0
M  V30 9288 H 896.409 4.81292 2.63912 0
M  V30 9289 H 896.67 3.14118 3.11098 0
M  V30 9290 N 895.729 -0.261212 1.5542 0
M  V30 9291 C 896.959 -1.00769 1.80358 0
M  V30 9292 C 897.367 -1.79991 0.583085 0
M  V30 9293 O 896.71 -1.77911 -0.457534 0
M  V30 9294 C 896.772 -2.00463 2.9842 0
M  V30 9295 C 896.436 -1.4007 4.35005 0
M  V30 9296 C 897.433 -0.810388 5.13545 0
M  V30 9297 C 895.118 -1.42436 4.81682 0
M  V30 9298 C 897.112 -0.251784 6.36903 0
M  V30 9299 C 894.799 -0.861897 6.04991 0
M  V30 9300 C 895.797 -0.276622 6.8244 0
M  V30 9301 O 895.485 0.277194 8.03422 0
M  V30 9302 H 895.217 -0.302839 0.604371 0
M  V30 9303 H 897.771 -0.293763 2.03288 0
M  V30 9304 H 896.001 -2.75648 2.71211 0
M  V30 9305 H 897.69 -2.61336 3.10577 0
M  V30 9306 H 898.456 -0.784719 4.7861 0
M  V30 9307 H 894.335 -1.8693 4.214 0
M  V30 9308 H 897.879 0.205678 6.97297 0
M  V30 9309 H 893.776 -0.884846 6.39407 0
M  V30 9310 H 894.544 0.167682 8.18328 0
M  V30 9311 N 897.207 -1.48554 -0.526253 0
M  V30 9312 C 898.435 -1.60429 -1.30652 0
M  V30 9313 C 898.85 -0.265963 -1.86917 0
M  V30 9314 O 898.207 0.745262 -1.6659 0
M  V30 9315 C 898.258 -2.65377 -2.45473 0
M  V30 9316 O 897.979 -3.94017 -1.91527 0
M  V30 9317 C 899.48 -2.87726 -3.37237 0
M  V30 9318 H 896.7 -0.540817 -0.397187 0
M  V30 9319 H 899.244 -1.94409 -0.634461 0
M  V30 9320 H 897.399 -2.34246 -3.08557 0
M  V30 9321 H 897.813 -4.51623 -2.66715 0
M  V30 9322 H 899.287 -3.64951 -4.14144 0
M  V30 9323 H 899.764 -1.96688 -3.92696 0
M  V30 9324 H 900.37 -3.20176 -2.79942 0
M  V30 9325 N 898.685 0.775411 -1.37205 0
M  V30 9326 C 899.91 1.5696 -1.35567 0
M  V30 9327 C 900.335 1.88012 0.0575554 0
M  V30 9328 O 899.693 1.48954 1.03355 0
M  V30 9329 C 899.741 2.85886 -2.19776 0
M  V30 9330 O 898.845 3.80103 -1.59987 0
M  V30 9331 H 898.186 0.475583 -0.463375 0
M  V30 9332 H 900.716 0.96001 -1.80679 0
M  V30 9333 H 900.726 3.35024 -2.32859 0
M  V30 9334 H 899.401 2.62613 -3.22502 0
M  V30 9335 H 897.978 3.38736 -1.55924 0
M  V30 9336 N 900.163 1.21714 1.00117 0
M  V30 9337 C 901.393 1.06124 1.77261 0
M  V30 9338 C 901.801 -0.391717 1.85101 0
M  V30 9339 O 901.144 -1.28347 1.31426 0
M  V30 9340 C 901.206 1.58778 3.22536 0
M  V30 9341 C 900.87 3.07289 3.38264 0
M  V30 9342 C 901.867 4.04801 3.26239 0
M  V30 9343 C 899.552 3.46574 3.63582 0
M  V30 9344 C 901.546 5.39585 3.39303 0
M  V30 9345 C 899.233 4.81509 3.76288 0
M  V30 9346 C 900.231 5.77824 3.64155 0
M  V30 9347 O 899.919 7.1031 3.7645 0
M  V30 9348 H 899.651 0.372979 0.563793 0
M  V30 9349 H 902.205 1.61589 1.26799 0
M  V30 9350 H 900.435 0.977129 3.74151 0
M  V30 9351 H 902.124 1.38974 3.81367 0
M  V30 9352 H 902.89 3.75795 3.066 0
M  V30 9353 H 898.769 2.72137 3.72106 0
M  V30 9354 H 902.313 6.14744 3.2975 0
M  V30 9355 H 898.21 5.102 3.95432 0
M  V30 9356 H 898.978 7.17774 3.93374 0
M  V30 9357 N 901.641 -1.19671 1.02551 0
M  V30 9358 C 902.589 -2.24812 0.596867 0
M  V30 9359 C 903.583 -1.65336 -0.368839 0
M  V30 9360 O 904.789 -1.78422 -0.237786 0
M  V30 9361 H 901.164 -0.731417 0.174739 0
M  V30 9362 H 903.135 -2.58286 1.49435 0
M  V30 9363 C 901.884 -3.47677 -0.0399514 0
M  V30 9364 H 901.207 -3.93728 0.694153 0
M  V30 9365 H 902.647 -4.22917 -0.302861 0
M  V30 9366 C 901.106 -3.11411 -1.2855 0
M  V30 9367 O 901.636 -3.23757 -2.37791 0
M  V30 9368 N 899.842 -2.65875 -1.17297 0
M  V30 9369 H 899.389 -2.56029 -0.284045 0
M  V30 9370 H 899.347 -2.41981 -2.00731 0
M  V30 9371 N 903.119 -0.802921 -1.35613 0
M  V30 9372 C 904.347 -0.39393 -2.03115 0
M  V30 9373 C 904.762 0.993961 -1.60517 0
M  V30 9374 O 904.119 1.63984 -0.800973 0
M  V30 9375 C 904.17 -0.463486 -3.58516 0
M  V30 9376 O 903.891 -1.79666 -3.99565 0
M  V30 9377 C 905.392 -0.0468377 -4.43275 0
M  V30 9378 H 902.612 -0.160519 -0.651517 0
M  V30 9379 H 905.156 -1.08552 -1.73311 0
M  V30 9380 H 903.311 0.179821 -3.86982 0
M  V30 9381 H 903.725 -1.75688 -4.942 0
M  V30 9382 H 905.199 -0.146626 -5.51805 0
M  V30 9383 H 905.676 1.00741 -4.2749 0
M  V30 9384 H 906.282 -0.663158 -4.20098 0
M  V30 9385 N 904.597 1.47463 -0.556102 0
M  V30 9386 C 905.843 2.02775 -0.0316806 0
M  V30 9387 C 906.176 1.42967 1.3143 0
M  V30 9388 O 905.451 0.584847 1.85499 0
M  V30 9389 C 905.734 3.60046 0.0625742 0
M  V30 9390 C 905.587 4.30288 -1.31043 0
M  V30 9391 C 906.906 4.33195 0.776553 0
M  V30 9392 H 904.025 0.736886 -0.0129869 0
M  V30 9393 H 906.667 1.75904 -0.718177 0
M  V30 9394 H 904.817 3.83071 0.647231 0
M  V30 9395 H 906.489 4.18607 -1.9382 0
M  V30 9396 H 904.732 3.90685 -1.8854 0
M  V30 9397 H 905.403 5.38861 -1.1972 0
M  V30 9398 H 907.879 4.15156 0.280147 0
M  V30 9399 H 906.755 5.42869 0.81146 0
M  V30 9400 H 907.016 4.02336 1.83244 0
M  V30 9401 N 906.075 0.2925 1.54862 0
M  V30 9402 C 907.007 -0.620889 2.2063 0
M  V30 9403 C 908.02 -1.10412 1.19637 0
M  V30 9404 O 909.209 -1.02304 1.46274 0
M  V30 9405 C 906.309 -1.861 2.83232 0
M  V30 9406 C 905.482 -1.52168 4.10078 0
M  V30 9407 C 904.541 -2.61605 4.56562 0
M  V30 9408 O 903.567 -2.27056 5.21952 0
M  V30 9409 N 904.769 -3.9199 4.28163 0
M  V30 9410 H 907.534 -0.0579028 2.99644 0
M  V30 9411 H 905.095 0.114333 1.61496 0
M  V30 9412 H 907.087 -2.58642 3.11266 0
M  V30 9413 H 905.657 -2.33259 2.08108 0
M  V30 9414 H 904.877 -0.629283 3.89145 0
M  V30 9415 H 906.165 -1.27023 4.92689 0
M  V30 9416 H 905.563 -4.22872 3.7576 0
M  V30 9417 H 904.12 -4.60857 4.60928 0
M  V30 9418 N 907.553 -1.57587 0.0200696 0
M  V30 9419 C 908.501 -2.10814 -0.982868 0
M  V30 9420 C 909.495 -1.03263 -1.34287 0
M  V30 9421 O 910.701 -1.21708 -1.32617 0
M  V30 9422 H 907.076 -0.673409 -0.334701 0
M  V30 9423 H 909.047 -2.94034 -0.50856 0
M  V30 9424 C 907.796 -2.64301 -2.25921 0
M  V30 9425 H 907.119 -3.46703 -1.99091 0
M  V30 9426 H 908.559 -3.052 -2.94328 0
M  V30 9427 C 907.018 -1.56628 -2.98277 0
M  V30 9428 O 907.548 -0.960825 -3.9004 0
M  V30 9429 N 905.754 -1.28889 -2.60453 0
M  V30 9430 H 905.301 -1.7831 -1.85912 0
M  V30 9431 H 905.259 -0.570697 -3.09177 0
M  V30 9432 N 909.032 0.252966 -1.55557 0
M  V30 9433 C 910.309 1.00432 -1.67847 0
M  V30 9434 C 910.689 2.03587 -0.55816 0
M  V30 9435 O 910.037 2.24239 0.439197 0
M  V30 9436 C 910.247 1.64313 -3.079 0
M  V30 9437 C 911.595 2.14726 -3.66303 0
M  V30 9438 O 912.619 1.74264 -3.10661 0
M  V30 9439 O 911.478 2.89 -4.63833 0
M  V30 9440 H 908.572 0.467102 -0.682455 0
M  V30 9441 H 911.118 0.247233 -1.67889 0
M  V30 9442 H 909.89 0.896681 -3.80888 0
M  V30 9443 H 909.513 2.46657 -3.11843 0
M  V30 9444 N 910.51 1.48831 0.518367 0
M  V30 9445 C 911.926 1.35209 0.847979 0
M  V30 9446 C 912.126 0.371927 1.98038 0
M  V30 9447 O 911.182 -0.202681 2.51685 0
M  V30 9448 C 912.495 2.7552 1.20455 0
M  V30 9449 C 914.043 2.84094 1.31377 0
M  V30 9450 C 914.518 4.25132 1.70372 0
M  V30 9451 N 916.009 4.27861 1.77453 0
M  V30 9452 C 916.744 5.3394 2.09035 0
M  V30 9453 N 916.24 6.50285 2.3896 0
M  V30 9454 N 918.033 5.21343 2.10139 0
M  V30 9455 H 910.184 2.11166 -0.228624 0
M  V30 9456 H 912.447 0.94717 -0.0396599 0
M  V30 9457 H 912.153 3.48861 0.445991 0
M  V30 9458 H 912.027 3.09785 2.15204 0
M  V30 9459 H 914.414 2.11001 2.06307 0
M  V30 9460 H 914.495 2.53433 0.347203 0
M  V30 9461 H 914.139 4.98745 0.959975 0
M  V30 9462 H 914.069 4.53245 2.68098 0
M  V30 9463 H 916.56 3.43945 1.56557 0
M  V30 9464 H 916.873 7.26961 2.62196 0
M  V30 9465 H 915.218 6.5354 2.36454 0
M  V30 9466 H 918.409 4.29462 1.86225 0
M  V30 9467 H 918.582 6.04112 2.34419 0
M  V30 9468 N 911.988 -0.768124 1.37614 0
M  V30 9469 C 913.404 -1.06919 1.18493 0
M  V30 9470 C 913.604 -2.01486 0.0235753 0
M  V30 9471 O 912.66 -2.4438 -0.635209 0
M  V30 9472 C 913.973 -1.66321 2.50515 0
M  V30 9473 C 915.521 -1.78562 2.57069 0
M  V30 9474 C 915.996 -2.41377 3.89231 0
M  V30 9475 N 917.487 -2.48824 3.90693 0
M  V30 9476 C 918.222 -2.98288 4.89706 0
M  V30 9477 N 917.718 -3.47897 5.99115 0
M  V30 9478 N 919.511 -2.97196 4.77107 0
M  V30 9479 H 911.662 -0.140286 2.11936 0
M  V30 9480 H 913.925 -0.124863 0.939741 0
M  V30 9481 H 913.631 -1.04303 3.35878 0
M  V30 9482 H 913.505 -2.65571 2.67866 0
M  V30 9483 H 915.892 -2.39712 1.72111 0
M  V30 9484 H 915.973 -0.780574 2.43599 0
M  V30 9485 H 915.617 -1.80866 4.74605 0
M  V30 9486 H 915.547 -3.42495 4.00006 0
M  V30 9487 H 918.038 -2.1372 3.1166 0
M  V30 9488 H 918.351 -3.84053 6.70614 0
M  V30 9489 H 916.696 -3.45993 6.02755 0
M  V30 9490 H 919.887 -2.57741 3.90752 0
M  V30 9491 H 920.06 -3.35434 5.54426 0
M  V30 9492 N 913.466 -1.22244 -0.994698 0
M  V30 9493 C 914.714 -1.04384 -1.73056 0
M  V30 9494 C 915.035 0.422204 -1.90374 0
M  V30 9495 O 914.305 1.30383 -1.46209 0
M  V30 9496 H 912.885 -0.383263 -0.641185 0
M  V30 9497 H 915.547 -1.53725 -1.1981 0
M  V30 9498 H 914.643 -1.52021 -2.72573 0
M  V30 9499 N 914.944 1.19125 -1.03184 0
M  V30 9500 C 916.19 1.89163 -0.731111 0
M  V30 9501 C 916.523 1.79604 0.738662 0
M  V30 9502 O 915.798 1.19037 1.53819 0
M  V30 9503 C 916.081 3.39986 -1.18666 0
M  V30 9504 C 915.934 3.58401 -2.71788 0
M  V30 9505 C 917.253 4.33316 -0.769772 0
M  V30 9506 H 914.372 0.686908 -0.267069 0
M  V30 9507 H 917.014 1.40205 -1.28229 0
M  V30 9508 H 915.164 3.81813 -0.717736 0
M  V30 9509 H 916.836 3.25727 -3.26649 0
M  V30 9510 H 915.079 3.01355 -3.12038 0
M  V30 9511 H 915.75 4.64189 -2.98719 0
M  V30 9512 H 918.226 3.9922 -1.17314 0
M  V30 9513 H 917.102 5.37427 -1.11637 0
M  V30 9514 H 917.363 4.40884 0.327681 0
M  V30 9515 N 916.422 0.810101 1.35185 0
M  V30 9516 C 917.332 0.224565 2.33523 0
M  V30 9517 C 918.348 -0.634287 1.62027 0
M  V30 9518 O 919.524 -0.545211 1.9388 0
M  V30 9519 C 916.589 -0.614319 3.41214 0
M  V30 9520 C 915.65 0.265435 4.28479 0
M  V30 9521 C 914.883 -0.533506 5.31027 0
M  V30 9522 O 915.106 -1.7679 5.42311 0
M  V30 9523 O 914.04 0.0774573 6.0185 0
M  V30 9524 H 917.866 1.03815 2.85405 0
M  V30 9525 H 915.451 0.571964 1.38018 0
M  V30 9526 H 917.333 -1.09201 4.07005 0
M  V30 9527 H 916.008 -1.40545 2.91597 0
M  V30 9528 H 914.915 0.790343 3.65656 0
M  V30 9529 H 916.248 1.0206 4.81503 0
M  V30 9530 N 917.9 -1.47166 0.563914 0
M  V30 9531 C 918.847 -2.30097 -0.180013 0
M  V30 9532 C 919.817 -1.39473 -0.902019 0
M  V30 9533 O 921.002 -1.68432 -0.896396 0
M  V30 9534 C 918.142 -3.23573 -1.19978 0
M  V30 9535 C 917.255 -4.2929 -0.483149 0
M  V30 9536 C 916.39 -5.0991 -1.48879 0
M  V30 9537 C 915.429 -6.07395 -0.757513 0
M  V30 9538 N 914.566 -6.8095 -1.71031 0
M  V30 9539 H 919.406 -2.93189 0.53329 0
M  V30 9540 H 916.943 -1.4451 0.274814 0
M  V30 9541 H 918.901 -3.76196 -1.80368 0
M  V30 9542 H 917.531 -2.6233 -1.88103 0
M  V30 9543 H 916.583 -3.79671 0.235414 0
M  V30 9544 H 917.895 -4.9872 0.0894075 0
M  V30 9545 H 917.049 -5.66717 -2.16603 0
M  V30 9546 H 915.788 -4.40397 -2.09527 0
M  V30 9547 H 914.793 -5.4976 -0.0663841 0
M  V30 9548 H 916.018 -6.78919 -0.156685 0
M  V30 9549 H 913.964 -6.14162 -2.30524 0
M  V30 9550 H 913.881 -7.46574 -1.19007 0
M  V30 9551 H 915.149 -7.42326 -2.37849 0
M  V30 9552 N 919.378 -0.300708 -1.54705 0
M  V30 9553 C 920.311 0.617513 -2.19686 0
M  V30 9554 C 921.289 1.1331 -1.16617 0
M  V30 9555 O 922.473 1.20135 -1.45258 0
M  V30 9556 C 919.6 1.84486 -2.84047 0
M  V30 9557 C 918.646 1.46253 -4.0064 0
M  V30 9558 S 919.479 0.518718 -5.32982 0
M  V30 9559 C 920.635 1.75387 -6.00825 0
M  V30 9560 H 920.868 0.0654548 -2.97228 0
M  V30 9561 H 918.401 -0.0848492 -1.54167 0
M  V30 9562 H 920.359 2.54921 -3.21754 0
M  V30 9563 H 919.02 2.36808 -2.06351 0
M  V30 9564 H 918.213 2.37648 -4.44454 0
M  V30 9565 H 917.815 0.838129 -3.64488 0
M  V30 9566 H 920.107 2.69448 -6.21614 0
M  V30 9567 H 921.05 1.35829 -6.9495 0
M  V30 9568 H 921.458 1.93045 -5.30466 0
M  V30 9569 N 920.856 1.57574 -0.0284266 0
M  V30 9570 C 922.102 1.92056 0.651327 0
M  V30 9571 C 922.435 0.905092 1.71819 0
M  V30 9572 O 921.71 -0.0722703 1.94366 0
M  V30 9573 C 921.993 3.37021 1.26841 0
M  V30 9574 C 921.846 4.49304 0.211157 0
M  V30 9575 C 923.165 3.81936 2.18662 0
M  V30 9576 H 920.284 0.698428 0.235304 0
M  V30 9577 H 922.926 1.89807 -0.0855435 0
M  V30 9578 H 921.076 3.39068 1.89644 0
M  V30 9579 H 922.748 4.5939 -0.419379 0
M  V30 9580 H 920.991 4.31317 -0.463445 0
M  V30 9581 H 921.662 5.47764 0.682518 0
M  V30 9582 H 924.138 3.8162 1.65847 0
M  V30 9583 H 923.014 4.84064 2.58792 0
M  V30 9584 H 923.275 3.174 3.07749 0
M  V30 9585 N 922.334 -0.244713 1.55689 0
M  V30 9586 C 923.611 -0.995407 1.68378 0
M  V30 9587 C 923.991 -2.03288 0.568949 0
M  V30 9588 O 923.339 -2.24469 -0.427299 0
M  V30 9589 C 923.549 -1.62678 3.08767 0
M  V30 9590 C 924.897 -2.1278 3.67437 0
M  V30 9591 O 925.921 -1.72614 3.11581 0
M  V30 9592 O 924.78 -2.86536 4.65359 0
M  V30 9593 H 921.874 -0.463476 0.684923 0
M  V30 9594 H 924.42 -0.238326 1.68018 0
M  V30 9595 H 923.192 -0.876469 3.81358 0
M  V30 9596 H 922.815 -2.45 3.13146 0
M  V30 9597 N 923.813 -1.49104 -0.510467 0
M  V30 9598 C 925.224 -1.51423 -1.09215 0
M  V30 9599 C 925.575 -0.295035 -1.93969 0
M  V30 9600 O 924.7 0.596064 -2.08029 0
M  V30 9601 C 925.295 -2.74387 -1.98739 0
M  V30 9602 C 923.854 -2.79515 -2.52088 0
M  V30 9603 C 923.001 -2.4521 -1.29488 0
M  V30 9604 H 925.952 -1.55938 -0.294807 0
M  V30 9605 H 925.973 -2.54012 -2.83298 0
M  V30 9606 H 925.485 -3.63105 -1.37026 0
M  V30 9607 H 923.586 -1.95054 -3.17466 0
M  V30 9608 H 923.699 -3.81447 -2.89887 0
M  V30 9609 H 922.063 -1.96785 -1.61703 0
M  V30 9610 H 922.846 -3.36192 -0.694978 0
M  V30 9611 N 925.291 0.760815 -1.38019 0
M  V30 9612 C 926.539 1.51673 -1.33566 0
M  V30 9613 C 926.86 1.94852 0.076024 0
M  V30 9614 O 926.13 1.67112 1.02227 0
M  V30 9615 H 924.71 0.562581 -0.491438 0
M  V30 9616 H 927.372 0.904832 -1.72623 0
M  V30 9617 H 926.468 2.41102 -1.98182 0
M  V30 9618 N 926.769 1.22769 0.988202 0
M  V30 9619 C 927.679 1.01844 2.11341 0
M  V30 9620 C 928.695 -0.0346937 1.73965 0
M  V30 9621 O 929.871 0.159061 2.00771 0
M  V30 9622 C 926.936 0.603837 3.41401 0
M  V30 9623 C 925.997 1.73113 3.92849 0
M  V30 9624 C 925.23 1.33621 5.16702 0
M  V30 9625 O 925.453 0.217041 5.69987 0
M  V30 9626 O 924.387 2.15444 5.62021 0
M  V30 9627 H 928.213 1.96127 2.31879 0
M  V30 9628 H 925.798 1.01405 1.09715 0
M  V30 9629 H 927.68 0.383196 4.19654 0
M  V30 9630 H 926.355 -0.310082 3.22211 0
M  V30 9631 H 925.262 2.00634 3.15748 0
M  V30 9632 H 926.595 2.62308 4.1648 0
M  V30 9633 N 928.247 -1.18576 1.03814 0
M  V30 9634 C 929.157 -2.25778 0.637311 0
M  V30 9635 C 930.173 -1.7074 -0.335248 0
M  V30 9636 O 931.349 -2.00494 -0.19081 0
M  V30 9637 C 928.414 -3.467 0.00386953 0
M  V30 9638 C 927.475 -4.16881 1.02511 0
M  V30 9639 C 926.708 -5.32031 0.421802 0
M  V30 9640 O 926.931 -5.65142 -0.772699 0
M  V30 9641 O 925.865 -5.90826 1.14925 0
M  V30 9642 H 929.691 -2.62323 1.53037 0
M  V30 9643 H 927.276 -1.25609 0.80887 0
M  V30 9644 H 929.158 -4.19953 -0.348873 0
M  V30 9645 H 927.833 -3.11983 -0.863047 0
M  V30 9646 H 926.74 -3.45707 1.4296 0
M  V30 9647 H 928.073 -4.55592 1.86271 0
M  V30 9648 N 929.725 -0.817259 -1.34754 0
M  V30 9649 C 930.657 -0.192695 -2.28389 0
M  V30 9650 C 931.67 0.614167 -1.50771 0
M  V30 9651 O 932.859 0.444776 -1.7287 0
M  V30 9652 C 929.959 0.748929 -3.30521 0
M  V30 9653 C 929.132 -0.0138762 -4.37398 0
M  V30 9654 C 928.191 0.847825 -5.19325 0
M  V30 9655 O 927.217 0.29487 -5.68436 0
M  V30 9656 N 928.419 2.16843 -5.38479 0
M  V30 9657 H 931.184 -0.997122 -2.82626 0
M  V30 9658 H 928.745 -0.673696 -1.47217 0
M  V30 9659 H 930.737 1.32987 -3.82226 0
M  V30 9660 H 929.307 1.45412 -2.7672 0
M  V30 9661 H 928.527 -0.776093 -3.86485 0
M  V30 9662 H 929.815 -0.539191 -5.05935 0
M  V30 9663 H 929.213 2.64148 -5.00242 0
M  V30 9664 H 927.77 2.69835 -5.93323 0
M  V30 9665 N 931.203 1.46865 -0.571711 0
M  V30 9666 C 932.614 1.86158 -0.142181 0
M  V30 9667 C 932.965 1.47663 1.2919 0
M  V30 9668 O 932.09 0.886393 1.97413 0
M  V30 9669 C 932.685 3.37867 -0.251256 0
M  V30 9670 C 931.244 3.76198 0.123329 0
M  V30 9671 C 930.391 2.70902 -0.592232 0
M  V30 9672 H 933.342 1.38176 -0.780587 0
M  V30 9673 H 933.363 3.76842 0.526331 0
M  V30 9674 H 932.875 3.65853 -1.2951 0
M  V30 9675 H 930.976 3.53829 1.16773 0
M  V30 9676 H 931.089 4.78471 -0.24533 0
M  V30 9677 H 929.453 2.54678 -0.0336927 0
M  V30 9678 H 930.236 3.01729 -1.63751 0
M  V30 9679 N 932.681 0.308908 1.54543 0
M  V30 9680 C 933.909 -0.300418 2.04707 0
M  V30 9681 C 934.324 -1.46915 1.18581 0
M  V30 9682 O 933.681 -1.81251 0.213186 0
M  V30 9683 C 933.732 -0.749038 3.53655 0
M  V30 9684 O 933.453 0.373181 4.36508 0
M  V30 9685 C 934.954 -1.4227 4.1985 0
M  V30 9686 H 932.174 -0.0641267 0.667929 0
M  V30 9687 H 934.718 0.450839 1.99469 0
M  V30 9688 H 932.873 -1.4503 3.59228 0
M  V30 9689 H 933.287 0.0224752 5.24495 0
M  V30 9690 H 934.761 -1.68768 5.25568 0
M  V30 9691 H 935.238 -2.36531 3.70067 0
M  V30 9692 H 935.844 -0.764404 4.18374 0
M  V30 9693 N 934.159 -1.57557 0.0367827 0
M  V30 9694 C 935.091 -2.07597 -0.971395 0
M  V30 9695 C 936.104 -1.0009 -1.28397 0
M  V30 9696 O 937.293 -1.27692 -1.24728 0
M  V30 9697 C 934.393 -2.492 -2.2968 0
M  V30 9698 C 933.566 -3.79875 -2.16826 0
M  V30 9699 C 932.625 -4.07946 -3.32366 0
M  V30 9700 O 931.651 -4.78083 -3.0891 0
M  V30 9701 N 932.853 -3.58722 -4.56397 0
M  V30 9702 H 935.618 -2.94714 -0.544389 0
M  V30 9703 H 933.179 -1.61205 -0.1498 0
M  V30 9704 H 935.171 -2.65065 -3.05815 0
M  V30 9705 H 933.741 -1.67407 -2.63995 0
M  V30 9706 H 932.961 -3.73732 -1.2537 0
M  V30 9707 H 934.249 -4.65476 -2.0545 0
M  V30 9708 H 933.647 -3.01994 -4.78347 0
M  V30 9709 H 932.204 -3.79852 -5.29675 0
M  V30 9710 N 935.637 0.236453 -1.55816 0
M  V30 9711 C 936.547 1.31418 -1.94336 0
M  V30 9712 C 937.563 1.52095 -0.845164 0
M  V30 9713 O 938.739 1.65515 -1.14746 0
M  V30 9714 C 935.804 2.6468 -2.23932 0
M  V30 9715 C 934.865 2.52435 -3.47239 0
M  V30 9716 C 934.098 3.79342 -3.75414 0
M  V30 9717 O 934.321 4.81694 -3.05495 0
M  V30 9718 O 933.255 3.77347 -4.68927 0
M  V30 9719 H 937.081 1.01739 -2.86152 0
M  V30 9720 H 934.666 0.438084 -1.42833 0
M  V30 9721 H 936.548 3.4341 -2.44228 0
M  V30 9722 H 935.223 2.94071 -1.35292 0
M  V30 9723 H 934.13 1.71955 -3.32238 0
M  V30 9724 H 935.463 2.27987 -4.36214 0
M  V30 9725 N 937.115 1.49373 0.502552 0
M  V30 9726 C 938.063 1.66411 1.62512 0
M  V30 9727 C 939.057 0.530062 1.60893 0
M  V30 9728 O 940.263 0.709648 1.65421 0
M  V30 9729 H 936.638 0.524707 0.538689 0
M  V30 9730 H 938.609 2.60639 1.45293 0
M  V30 9731 C 937.358 1.74648 3.00655 0
M  V30 9732 H 936.681 2.61285 3.02606 0
M  V30 9733 H 938.121 1.90605 3.78742 0
M  V30 9734 C 936.58 0.490963 3.33303 0
M  V30 9735 O 937.11 -0.384039 3.9986 0
M  V30 9736 N 935.316 0.354375 2.88431 0
M  V30 9737 H 934.863 1.06742 2.34444 0
M  V30 9738 H 934.821 -0.484593 3.10643 0
M  V30 9739 N 938.594 -0.753485 1.38421 0
M  V30 9740 C 940.005 -1.33081 1.30944 0
M  V30 9741 C 940.356 -1.96169 -0.0347124 0
M  V30 9742 O 939.481 -1.95073 -0.936768 0
M  V30 9743 C 940.076 -2.41973 2.37138 0
M  V30 9744 C 938.635 -2.95426 2.33239 0
M  V30 9745 C 937.782 -1.68808 2.19998 0
M  V30 9746 H 940.733 -0.552354 1.48777 0
M  V30 9747 H 940.754 -3.21913 2.02859 0
M  V30 9748 H 940.266 -1.96027 3.34956 0
M  V30 9749 H 938.367 -3.45701 1.39003 0
M  V30 9750 H 938.48 -3.49798 3.27381 0
M  V30 9751 H 936.844 -1.92438 1.66852 0
M  V30 9752 H 937.627 -1.24939 3.19758 0
M  V30 9753 N 940.072 -1.23292 -0.981677 0
M  V30 9754 C 941.019 -1.01296 -2.07383 0
M  V30 9755 C 941.989 0.069139 -1.65956 0
M  V30 9756 O 943.174 -0.0827108 -1.90621 0
M  V30 9757 C 940.314 -0.608876 -3.39686 0
M  V30 9758 C 939.427 -1.76296 -3.9439 0
M  V30 9759 C 938.562 -1.30578 -5.14901 0
M  V30 9760 C 937.601 -2.4307 -5.61768 0
M  V30 9761 N 936.738 -1.98319 -6.73509 0
M  V30 9762 H 941.578 -1.9478 -2.25532 0
M  V30 9763 H 939.115 -0.970356 -1.10555 0
M  V30 9764 H 941.073 -0.355702 -4.15681 0
M  V30 9765 H 939.703 0.288961 -3.21504 0
M  V30 9766 H 938.755 -2.13017 -3.15163 0
M  V30 9767 H 940.067 -2.60871 -4.25145 0
M  V30 9768 H 939.221 -1.01066 -5.98223 0
M  V30 9769 H 937.96 -0.430386 -4.85797 0
M  V30 9770 H 936.965 -2.73358 -4.77028 0
M  V30 9771 H 938.19 -3.31144 -5.92892 0
M  V30 9772 H 936.136 -1.13157 -6.46167 0
M  V30 9773 H 936.053 -2.76454 -7.0364 0
M  V30 9774 H 937.321 -1.71907 -7.60308 0
M  V30 9775 N 941.55 1.18024 -1.04442 0
M  V30 9776 C 942.46 2.25436 -0.649276 0
M  V30 9777 C 943.476 1.70915 0.326189 0
M  V30 9778 O 944.652 2.00592 0.180174 0
M  V30 9779 C 941.717 3.46693 -0.0222558 0
M  V30 9780 C 940.778 4.16332 -1.0472 0
M  V30 9781 C 940.011 5.31799 -0.450011 0
M  V30 9782 O 940.234 5.65544 0.742717 0
M  V30 9783 O 939.168 5.90209 -1.18056 0
M  V30 9784 H 942.994 2.61508 -1.54426 0
M  V30 9785 H 940.579 1.25178 -0.81552 0
M  V30 9786 H 942.461 4.20132 0.326597 0
M  V30 9787 H 941.136 3.12436 0.84649 0
M  V30 9788 H 940.043 3.44944 -1.44792 0
M  V30 9789 H 941.376 4.54598 -1.88684 0
M  V30 9790 N 943.028 0.824394 1.34319 0
M  V30 9791 C 943.976 0.235628 2.31403 0
M  V30 9792 C 944.97 -0.624443 1.57471 0
M  V30 9793 O 946.176 -0.515618 1.72457 0
M  V30 9794 H 942.551 0.0574537 0.749802 0
M  V30 9795 H 944.522 1.06925 2.78585 0
M  V30 9796 C 943.271 -0.586617 3.42716 0
M  V30 9797 H 942.594 0.0658669 3.99746 0
M  V30 9798 H 944.034 -0.964661 4.1288 0
M  V30 9799 C 942.493 -1.75957 2.87299 0
M  V30 9800 O 943.023 -2.8578 2.82299 0
M  V30 9801 N 941.229 -1.57678 2.44102 0
M  V30 9802 H 940.776 -0.683436 2.48369 0
M  V30 9803 H 940.734 -2.36311 2.07375 0
M  V30 9804 N 944.506 -1.46559 0.579492 0
M  V30 9805 C 945.734 -2.06784 0.0693648 0
M  V30 9806 C 946.149 -1.42875 -1.23419 0
M  V30 9807 O 945.506 -0.532919 -1.74546 0
M  V30 9808 C 945.557 -3.61343 -0.106511 0
M  V30 9809 O 945.278 -4.22861 1.14545 0
M  V30 9810 C 946.779 -4.38489 -0.651359 0
M  V30 9811 H 943.999 -0.66866 0.0559848 0
M  V30 9812 H 946.543 -1.88235 0.799245 0
M  V30 9813 H 944.698 -3.7933 -0.786601 0
M  V30 9814 H 945.112 -5.15691 0.95723 0
M  V30 9815 H 946.586 -5.47237 -0.723615 0
M  V30 9816 H 947.063 -4.06309 -1.66763 0
M  V30 9817 H 947.669 -4.253 -0.0062433 0
M  V30 9818 N 945.984 -0.3171 -1.54377 0
M  V30 9819 C 946.914 0.544623 -2.2706 0
M  V30 9820 C 947.895 1.12469 -1.27611 0
M  V30 9821 O 949.08 1.15103 -1.56413 0
M  V30 9822 C 946.21 1.70879 -3.02353 0
M  V30 9823 C 945.164 1.25833 -4.09084 0
M  V30 9824 C 944.49 2.50894 -4.72182 0
M  V30 9825 C 945.79 0.377876 -5.20931 0
M  V30 9826 H 947.484 -0.0616372 -2.99337 0
M  V30 9827 H 945.03 -0.0310848 -1.43966 0
M  V30 9828 H 946.983 2.31787 -3.51927 0
M  V30 9829 H 945.707 2.34155 -2.27682 0
M  V30 9830 H 944.366 0.672228 -3.60384 0
M  V30 9831 H 944.014 3.12518 -3.94134 0
M  V30 9832 H 943.714 2.21447 -5.44275 0
M  V30 9833 H 945.238 3.12575 -5.24528 0
M  V30 9834 H 946.652 0.893056 -5.66302 0
M  V30 9835 H 945.049 0.176474 -5.9984 0
M  V30 9836 H 946.119 -0.592943 -4.81261 0
M  V30 9837 N 947.462 1.57535 -0.0451378 0
M  V30 9838 C 948.708 1.92736 0.630921 0
M  V30 9839 C 949.041 0.923265 1.70849 0
M  V30 9840 O 948.316 -0.0516512 1.94431 0
M  V30 9841 C 948.599 3.38348 1.23259 0
M  V30 9842 C 948.452 4.49503 0.16349 0
M  V30 9843 C 949.771 3.84233 2.14599 0
M  V30 9844 H 946.89 0.700884 0.227883 0
M  V30 9845 H 949.532 1.89706 -0.10567 0
M  V30 9846 H 947.682 3.41061 1.86037 0
M  V30 9847 H 949.354 4.58919 -0.46808 0
M  V30 9848 H 947.597 4.30802 -0.509166 0
M  V30 9849 H 948.268 5.48457 0.624382 0
M  V30 9850 H 950.744 3.83358 1.6179 0
M  V30 9851 H 949.62 4.86781 2.53644 0
M  V30 9852 H 949.881 3.20646 3.04366 0
M  V30 9853 N 948.94 -0.228186 1.55939 0
M  V30 9854 C 950.165 -0.974795 1.83064 0
M  V30 9855 C 950.59 -1.77426 0.624624 0
M  V30 9856 O 949.948 -1.76211 -0.426556 0
M  V30 9857 C 949.996 -1.87342 3.08116 0
M  V30 9858 O 949.1 -2.96784 2.86344 0
M  V30 9859 H 948.441 -0.276379 0.603747 0
M  V30 9860 H 950.971 -0.243507 2.03146 0
M  V30 9861 H 950.981 -2.28451 3.38045 0
M  V30 9862 H 949.656 -1.28575 3.95526 0
M  V30 9863 H 948.233 -2.59669 2.67631 0
M  V30 9864 N 950.418 -1.49637 -0.494624 0
M  V30 9865 C 951.365 -1.66776 -1.59545 0
M  V30 9866 C 952.335 -0.509159 -1.58104 0
M  V30 9867 O 953.52 -0.736949 -1.75993 0
M  V30 9868 C 950.66 -1.74624 -2.97658 0
M  V30 9869 C 949.773 -3.01831 -3.09067 0
M  V30 9870 C 948.908 -3.00619 -4.37952 0
M  V30 9871 C 947.947 -4.22378 -4.43016 0
M  V30 9872 N 947.084 -4.1904 -5.63339 0
M  V30 9873 H 951.924 -2.60767 -1.44238 0
M  V30 9874 H 949.461 -1.29286 -0.701673 0
M  V30 9875 H 951.419 -1.77156 -3.77719 0
M  V30 9876 H 950.049 -0.840936 -3.11654 0
M  V30 9877 H 949.101 -3.08881 -2.22029 0
M  V30 9878 H 950.413 -3.91823 -3.08669 0
M  V30 9879 H 949.567 -3.01749 -5.26339 0
M  V30 9880 H 948.306 -2.08416 -4.40924 0
M  V30 9881 H 947.311 -4.21485 -3.5303 0
M  V30 9882 H 948.536 -5.15781 -4.41755 0
M  V30 9883 H 946.482 -3.29677 -5.67141 0
M  V30 9884 H 946.399 -5.02774 -5.64583 0
M  V30 9885 H 947.667 -4.24281 -6.53916 0
M  V30 9886 N 951.896 0.746133 -1.38819 0
M  V30 9887 C 953.121 1.54049 -1.38866 0
M  V30 9888 C 953.546 1.88092 0.0176624 0
M  V30 9889 O 952.904 1.51113 1.00173 0
M  V30 9890 C 952.952 2.8116 -2.25791 0
M  V30 9891 O 952.056 3.76623 -1.68014 0
M  V30 9892 H 951.397 0.465648 -0.473359 0
M  V30 9893 H 953.927 0.921469 -1.82675 0
M  V30 9894 H 953.937 3.30009 -2.39913 0
M  V30 9895 H 952.612 2.55713 -3.27999 0
M  V30 9896 H 951.189 3.35352 -1.63074 0
M  V30 9897 N 953.375 1.23811 0.975125 0
M  V30 9898 C 954.786 1.0675 1.53171 0
M  V30 9899 C 955.137 -0.363475 1.92804 0
M  V30 9900 O 954.262 -1.25089 1.76583 0
M  V30 9901 C 954.857 1.93161 2.78342 0
M  V30 9902 C 953.416 1.80346 3.30382 0
M  V30 9903 C 952.563 1.88544 2.03338 0
M  V30 9904 H 955.514 1.37396 0.79423 0
M  V30 9905 H 955.535 1.45951 3.51395 0
M  V30 9906 H 955.047 2.97302 2.49465 0
M  V30 9907 H 953.148 0.790077 3.64127 0
M  V30 9908 H 953.261 2.64026 3.99784 0
M  V30 9909 H 951.625 1.32186 2.17713 0
M  V30 9910 H 952.408 2.94252 1.76836 0
M  V30 9911 N 954.853 -1.17469 1.05066 0
M  V30 9912 C 956.078 -1.92162 0.780298 0
M  V30 9913 C 956.503 -1.76222 -0.657832 0
M  V30 9914 O 955.861 -1.0791 -1.45688 0
M  V30 9915 C 955.909 -3.41292 1.16414 0
M  V30 9916 O 955.013 -4.1134 0.295531 0
M  V30 9917 H 954.354 -0.599127 0.286257 0
M  V30 9918 H 956.884 -1.48903 1.40318 0
M  V30 9919 H 956.894 -3.92029 1.13036 0
M  V30 9920 H 955.569 -3.52214 2.21175 0
M  V30 9921 H 954.146 -3.70857 0.389797 0
M  V30 9922 N 956.331 -0.831506 -1.3388 0
M  V30 9923 C 957.556 -0.435954 -2.02766 0
M  V30 9924 C 957.981 0.952889 -1.62178 0
M  V30 9925 O 957.339 1.62166 -0.810681 0
M  V30 9926 C 957.387 -0.555907 -3.56289 0
M  V30 9927 O 956.491 0.420826 -4.10247 0
M  V30 9928 H 955.832 -0.178248 -0.639628 0
M  V30 9929 H 958.362 -1.1243 -1.70941 0
M  V30 9930 H 958.372 -0.434831 -4.05676 0
M  V30 9931 H 957.047 -1.56881 -3.85177 0
M  V30 9932 H 955.624 0.257919 -3.72007 0
M  V30 9933 N 957.809 1.4625 -0.587256 0
M  V30 9934 C 959.034 2.07252 -0.0784517 0
M  V30 9935 C 959.459 1.43239 1.21919 0
M  V30 9936 O 958.817 0.517791 1.73749 0
M  V30 9937 C 958.865 3.60534 0.0691037 0
M  V30 9938 O 957.969 3.96773 1.12448 0
M  V30 9939 H 957.31 0.660825 -0.064859 0
M  V30 9940 H 959.84 1.87819 -0.811491 0
M  V30 9941 H 959.85 4.0708 0.273826 0
M  V30 9942 H 958.525 4.06516 -0.878514 0
M  V30 9943 H 957.102 3.6193 0.897852 0
M  V30 9944 N 959.287 0.325282 1.54207 0
M  V30 9945 C 960.512 -0.281418 2.05482 0
M  V30 9946 C 960.937 -1.44869 1.19977 0
M  V30 9947 O 960.295 -1.80088 0.209275 0
M  V30 9948 C 960.343 -0.692029 3.53897 0
M  V30 9949 O 959.447 -1.7942 3.71325 0
M  V30 9950 H 958.788 -0.0504872 0.662078 0
M  V30 9951 H 961.318 0.474191 1.99029 0
M  V30 9952 H 961.328 -0.974219 3.96198 0
M  V30 9953 H 960.003 0.161709 4.15586 0
M  V30 9954 H 958.58 -1.51069 3.40929 0
M  V30 9955 N 960.765 -1.57509 0.0534917 0
M  V30 9956 C 962.011 -1.93068 -0.62069 0
M  V30 9957 C 962.344 -0.932313 -1.70357 0
M  V30 9958 O 961.619 0.0413393 -1.94456 0
M  V30 9959 C 961.902 -3.38997 -1.21463 0
M  V30 9960 C 961.755 -4.49583 -0.13965 0
M  V30 9961 C 963.074 -3.85366 -2.12558 0
M  V30 9962 H 960.193 -0.702083 -0.224163 0
M  V30 9963 H 962.835 -1.89647 0.115729 0
M  V30 9964 H 960.985 -3.42043 -1.84226 0
M  V30 9965 H 962.657 -4.58664 0.492411 0
M  V30 9966 H 960.9 -4.30525 0.532006 0
M  V30 9967 H 961.571 -5.48781 -0.595287 0
M  V30 9968 H 964.047 -3.8421 -1.59755 0
M  V30 9969 H 962.923 -4.8812 -2.51058 0
M  V30 9970 H 963.184 -3.22256 -3.02661 0
M  V30 9971 N 962.243 0.219913 -1.56058 0
M  V30 9972 C 963.491 0.942199 -1.78793 0
M  V30 9973 C 963.812 1.84804 -0.622284 0
M  V30 9974 O 963.082 1.9255 0.360735 0
M  V30 9975 H 961.662 0.350895 -0.659455 0
M  V30 9976 H 964.324 0.231376 -1.93522 0
M  V30 9977 H 963.42 1.54804 -2.71002 0
M  V30 9978 N 963.721 1.49897 0.486681 0
M  V30 9979 C 964.969 1.59789 1.23742 0
M  V30 9980 C 965.29 0.293056 1.92785 0
M  V30 9981 O 964.56 -0.688534 1.83401 0
M  V30 9982 H 963.14 0.588775 0.459731 0
M  V30 9983 H 965.802 1.86597 0.562808 0
M  V30 9984 H 964.898 2.40121 1.9937 0
M  V30 9985 N 965.199 -0.738761 1.39212 0
M  V30 9986 C 966.615 -1.04381 1.20734 0
M  V30 9987 C 966.815 -2.01391 0.0663082 0
M  V30 9988 O 965.871 -2.45672 -0.583229 0
M  V30 9989 C 967.184 -1.6097 2.53987 0
M  V30 9990 C 968.732 -1.73069 2.60799 0
M  V30 9991 C 969.207 -2.33067 3.94264 0
M  V30 9992 N 970.698 -2.40481 3.95883 0
M  V30 9993 C 971.433 -2.87834 4.95923 0
M  V30 9994 N 970.929 -3.35111 6.0636 0
M  V30 9995 N 972.722 -2.87009 4.83304 0
M  V30 9996 H 964.873 -0.0952996 2.12186 0
M  V30 9997 H 967.136 -0.104902 0.942178 0
M  V30 9998 H 966.842 -0.971548 3.38015 0
M  V30 9999 H 966.716 -2.59829 2.73439 0
M  V30 10000 H 969.103 -2.36007 1.77157 0
M  V30 10001 H 969.184 -0.728728 2.452 0
M  V30 10002 H 968.828 -1.70758 4.78335 0
M  V30 10003 H 968.758 -3.33933 4.07181 0
M  V30 10004 H 971.249 -2.07061 3.16123 0
M  V30 10005 H 971.562 -3.69742 6.78609 0
M  V30 10006 H 969.907 -3.33129 6.09959 0
M  V30 10007 H 973.098 -2.49395 3.96131 0
M  V30 10008 H 973.271 -3.23598 5.61416 0
M  V30 10009 N 966.677 -1.24326 -0.968545 0
M  V30 10010 C 968.093 -1.00847 -1.23701 0
M  V30 10011 C 968.293 0.283235 -1.99499 0
M  V30 10012 O 967.349 0.999607 -2.31871 0
M  V30 10013 C 968.662 -2.22295 -2.02498 0
M  V30 10014 C 970.21 -2.26911 -2.15593 0
M  V30 10015 C 970.685 -3.47978 -2.97784 0
M  V30 10016 N 972.176 -3.48289 -3.05367 0
M  V30 10017 C 972.911 -4.38625 -3.69318 0
M  V30 10018 N 972.407 -5.39213 -4.34995 0
M  V30 10019 N 974.2 -4.26339 -3.66322 0
M  V30 10020 H 966.351 -2.07335 -0.461087 0
M  V30 10021 H 968.614 -0.909805 -0.26638 0
M  V30 10022 H 968.32 -3.161 -1.54188 0
M  V30 10023 H 968.194 -2.24344 -3.03232 0
M  V30 10024 H 970.581 -1.33639 -2.63106 0
M  V30 10025 H 970.662 -2.28888 -1.14209 0
M  V30 10026 H 970.306 -4.41564 -2.50965 0
M  V30 10027 H 970.236 -3.43244 -3.99364 0
M  V30 10028 H 972.727 -2.75517 -2.58648 0
M  V30 10029 H 973.04 -6.04378 -4.81608 0
M  V30 10030 H 971.385 -5.43101 -4.33667 0
M  V30 10031 H 974.576 -3.46991 -3.14189 0
M  V30 10032 H 974.749 -4.9694 -4.15878 0
M  V30 10033 N 968.156 1.1691 -1.05688 0
M  V30 10034 C 969.433 1.83266 -0.683601 0
M  V30 10035 C 969.813 1.93858 0.835602 0
M  V30 10036 O 969.161 1.47696 1.7435 0
M  V30 10037 C 969.371 3.20625 -1.37842 0
M  V30 10038 C 970.719 3.96473 -1.51967 0
M  V30 10039 O 971.743 3.30122 -1.33783 0
M  V30 10040 O 970.602 5.15393 -1.81749 0
M  V30 10041 H 967.696 0.791028 -0.241254 0
M  V30 10042 H 970.242 1.24165 -1.15677 0
M  V30 10043 H 969.014 3.07914 -2.41463 0
M  V30 10044 H 968.637 3.87398 -0.894921 0
M  V30 10045 N 969.634 0.838594 1.33437 0
M  V30 10046 C 970.544 0.274048 2.32994 0
M  V30 10047 C 971.56 -0.599776 1.63336 0
M  V30 10048 O 972.736 -0.503963 1.94993 0
M  V30 10049 C 969.801 -0.541804 3.4244 0
M  V30 10050 C 968.862 0.356262 4.27819 0
M  V30 10051 C 968.095 -0.420747 5.32039 0
M  V30 10052 O 968.318 -1.65247 5.45939 0
M  V30 10053 O 967.252 0.205101 6.0155 0
M  V30 10054 H 971.078 1.09846 2.83139 0
M  V30 10055 H 968.663 0.601111 1.36774 0
M  V30 10056 H 970.545 -1.00544 4.0923 0
M  V30 10057 H 969.22 -1.34328 2.94513 0
M  V30 10058 H 968.127 0.867726 3.63897 0
M  V30 10059 H 969.46 1.1225 4.79229 0
M  V30 10060 N 971.112 -1.45937 0.595003 0
M  V30 10061 C 972.042 -2.33198 -0.11871 0
M  V30 10062 C 973.023 -1.46083 -0.871423 0
M  V30 10063 O 974.208 -1.74879 -0.844461 0
M  V30 10064 C 971.338 -3.28576 -1.12495 0
M  V30 10065 C 970.292 -4.25229 -0.486275 0
M  V30 10066 C 969.618 -5.10204 -1.59986 0
M  V30 10067 C 970.918 -5.19019 0.584473 0
M  V30 10068 H 972.612 -2.93122 0.609886 0
M  V30 10069 H 970.158 -1.40951 0.294742 0
M  V30 10070 H 972.111 -3.88485 -1.6327 0
M  V30 10071 H 970.835 -2.66784 -1.88398 0
M  V30 10072 H 969.494 -3.666 0.000507962 0
M  V30 10073 H 969.142 -4.44789 -2.34886 0
M  V30 10074 H 968.842 -5.75669 -1.1781 0
M  V30 10075 H 970.366 -5.7298 -2.11014 0
M  V30 10076 H 971.78 -5.73073 0.161297 0
M  V30 10077 H 970.177 -5.92893 0.927256 0
M  V30 10078 H 971.247 -4.62208 1.46601 0
M  V30 10079 N 972.59 -0.333456 -1.54032 0
M  V30 10080 C 973.5 0.536674 -2.28379 0
M  V30 10081 C 974.516 1.12068 -1.33104 0
M  V30 10082 O 975.692 1.13853 -1.66131 0
M  V30 10083 C 972.757 1.67677 -3.03456 0
M  V30 10084 C 971.818 1.12357 -4.14336 0
M  V30 10085 C 971.051 2.20933 -4.85823 0
M  V30 10086 O 971.274 3.41466 -4.569 0
M  V30 10087 O 970.208 1.85795 -5.72507 0
M  V30 10088 H 974.034 -0.0674003 -3.03625 0
M  V30 10089 H 971.619 -0.098823 -1.49073 0
M  V30 10090 H 973.501 2.34032 -3.50438 0
M  V30 10091 H 972.176 2.26684 -2.31076 0
M  V30 10092 H 971.083 0.424827 -3.7168 0
M  V30 10093 H 972.416 0.578497 -4.88789 0
M  V30 10094 N 974.068 1.57479 -0.061844 0
M  V30 10095 C 974.978 2.15645 0.923826 0
M  V30 10096 C 975.994 1.117 1.33413 0
M  V30 10097 O 977.17 1.4392 1.40887 0
M  V30 10098 C 974.235 2.69857 2.17665 0
M  V30 10099 C 973.296 3.88638 1.8237 0
M  V30 10100 C 972.529 4.40256 3.01679 0
M  V30 10101 O 972.752 3.90908 4.15388 0
M  V30 10102 O 971.686 5.31713 2.82073 0
M  V30 10103 H 975.512 3.0021 0.459094 0
M  V30 10104 H 973.097 1.48534 0.160665 0
M  V30 10105 H 974.979 3.04647 2.9115 0
M  V30 10106 H 973.654 1.88357 2.63255 0
M  V30 10107 H 972.561 3.58719 1.06167 0
M  V30 10108 H 973.894 4.71401 1.4157 0
M  V30 10109 N 975.546 -0.211634 1.56173 0
M  V30 10110 C 976.794 -0.932704 1.7929 0
M  V30 10111 C 977.115 -1.84472 0.632076 0
M  V30 10112 O 976.385 -1.92739 -0.350519 0
M  V30 10113 H 974.965 -0.347393 0.661307 0
M  V30 10114 H 977.627 -0.22111 1.93642 0
M  V30 10115 H 976.723 -1.53365 2.71819 0
M  V30 10116 N 977.024 -1.50153 -0.478725 0
M  V30 10117 C 977.987 -1.67916 -1.56003 0
M  V30 10118 C 978.987 -0.550111 -1.51097 0
M  V30 10119 O 980.177 -0.817001 -1.53853 0
M  V30 10120 C 977.309 -1.6973 -2.95643 0
M  V30 10121 H 978.502 -2.6438 -1.41573 0
M  V30 10122 H 976.055 -1.39519 -0.704565 0
M  V30 10123 H 976.79 -0.749306 -3.15525 0
M  V30 10124 H 976.575 -2.51745 -3.00611 0
M  V30 10125 H 978.065 -1.85453 -3.74162 0
M  V30 10126 N 978.502 0.731368 -1.39602 0
M  V30 10127 C 979.913 1.30981 -1.33045 0
M  V30 10128 C 980.264 1.962 0.00349918 0
M  V30 10129 O 979.389 1.96539 0.905615 0
M  V30 10130 C 979.984 2.3817 -2.40958 0
M  V30 10131 C 978.543 2.91678 -2.3791 0
M  V30 10132 C 977.69 1.65286 -2.22656 0
M  V30 10133 H 980.641 0.528615 -1.49637 0
M  V30 10134 H 980.662 3.18645 -2.07955 0
M  V30 10135 H 980.174 1.90673 -3.38032 0
M  V30 10136 H 978.275 3.43446 -1.44485 0
M  V30 10137 H 978.388 3.44545 -3.32904 0
M  V30 10138 H 976.752 1.89759 -1.69893 0
M  V30 10139 H 977.535 1.19836 -3.21705 0
M  V30 10140 N 979.98 1.24838 0.961938 0
M  V30 10141 C 981.205 1.11967 1.7458 0
M  V30 10142 C 981.63 -0.323287 1.85301 0
M  V30 10143 O 980.988 -1.23412 1.32812 0
M  V30 10144 C 981.036 1.77066 3.14134 0
M  V30 10145 O 980.14 1.04534 3.98932 0
M  V30 10146 H 979.481 0.391338 0.536424 0
M  V30 10147 H 982.011 1.65259 1.20626 0
M  V30 10148 H 982.021 1.83056 3.64629 0
M  V30 10149 H 980.696 2.82052 3.05646 0
M  V30 10150 H 979.273 1.06372 3.57407 0
M  V30 10151 N 981.458 -1.16348 1.06306 0
M  V30 10152 C 982.39 -2.20316 0.631929 0
M  V30 10153 C 983.403 -1.59819 -0.310133 0
M  V30 10154 O 984.592 -1.78213 -0.101103 0
M  V30 10155 C 981.692 -3.3877 -0.0937645 0
M  V30 10156 C 980.865 -4.28826 0.861816 0
M  V30 10157 C 979.924 -5.25908 0.175346 0
M  V30 10158 O 978.95 -5.63363 0.813039 0
M  V30 10159 N 980.152 -5.70307 -1.08305 0
M  V30 10160 H 982.917 -2.57925 1.52626 0
M  V30 10161 H 980.478 -1.31358 0.946392 0
M  V30 10162 H 982.47 -4.00759 -0.563412 0
M  V30 10163 H 981.04 -2.99666 -0.889904 0
M  V30 10164 H 980.26 -3.64098 1.51083 0
M  V30 10165 H 981.548 -4.85875 1.51007 0
M  V30 10166 H 980.946 -5.4197 -1.62127 0
M  V30 10167 H 979.503 -6.34387 -1.49656 0
M  V30 10168 N 982.937 -0.845659 -1.3299 0
M  V30 10169 C 983.9 -0.288905 -2.27372 0
M  V30 10170 C 984.9 0.546263 -1.51237 0
M  V30 10171 O 986.09 0.359072 -1.70459 0
M  V30 10172 C 983.222 0.59224 -3.35716 0
M  V30 10173 H 984.415 -1.12181 -2.78128 0
M  V30 10174 H 981.968 -0.619276 -1.43508 0
M  V30 10175 H 982.703 1.44732 -2.90212 0
M  V30 10176 H 982.488 -0.00543255 -3.921 0
M  V30 10177 H 983.978 0.974848 -4.06062 0
M  V30 10178 N 984.415 1.45619 -0.602734 0
M  V30 10179 C 985.348 2.27583 0.167708 0
M  V30 10180 C 986.326 1.36844 0.878206 0
M  V30 10181 O 987.51 1.6627 0.888058 0
M  V30 10182 C 984.637 3.15094 1.24232 0
M  V30 10183 C 983.683 4.21739 0.63549 0
M  V30 10184 S 984.516 5.32638 -0.552944 0
M  V30 10185 C 985.672 6.23716 0.522382 0
M  V30 10186 H 985.905 2.92579 -0.527697 0
M  V30 10187 H 983.438 1.4939 -0.390127 0
M  V30 10188 H 985.396 3.66071 1.85748 0
M  V30 10189 H 984.057 2.49372 1.90978 0
M  V30 10190 H 983.25 4.82874 1.44389 0
M  V30 10191 H 982.852 3.73878 0.0955772 0
M  V30 10192 H 985.144 6.62819 1.40276 0
M  V30 10193 H 986.087 7.0808 -0.0526951 0
M  V30 10194 H 986.495 5.58282 0.83553 0
M  V30 10195 N 985.893 0.34162 1.53853 0
M  V30 10196 C 986.823 -0.508431 2.27897 0
M  V30 10197 C 987.804 -1.10425 1.29384 0
M  V30 10198 O 988.989 -1.126 1.58224 0
M  V30 10199 C 986.119 -1.66048 3.05034 0
M  V30 10200 C 985.073 -1.19309 4.11035 0
M  V30 10201 C 984.399 -2.4335 4.76114 0
M  V30 10202 C 985.699 -0.294952 5.21467 0
M  V30 10203 H 987.393 0.109251 2.99201 0
M  V30 10204 H 984.939 0.0539847 1.43899 0
M  V30 10205 H 986.892 -2.26158 3.5557 0
M  V30 10206 H 985.616 -2.30503 2.31379 0
M  V30 10207 H 984.275 -0.614809 3.61408 0
M  V30 10208 H 983.923 -3.06208 3.99056 0
M  V30 10209 H 983.623 -2.1276 5.47729 0
M  V30 10210 H 985.147 -3.0419 5.29434 0
M  V30 10211 H 986.561 -0.80285 5.67651 0
M  V30 10212 H 984.958 -0.0810221 6.00045 0
M  V30 10213 H 986.028 0.669433 4.80257 0
M  V30 10214 N 987.371 -1.57444 0.0701946 0
M  V30 10215 C 988.787 -1.57009 -0.286431 0
M  V30 10216 C 988.987 -1.07946 -1.70147 0
M  V30 10217 O 988.043 -0.744622 -2.41271 0
M  V30 10218 C 989.356 -3.00542 -0.0975466 0
M  V30 10219 C 990.904 -3.12553 -0.167205 0
M  V30 10220 C 991.379 -4.58 -0.00662047 0
M  V30 10221 N 992.87 -4.63158 -0.0622778 0
M  V30 10222 C 993.605 -5.73388 0.0375831 0
M  V30 10223 N 993.101 -6.92537 0.190873 0
M  V30 10224 N 994.894 -5.62097 -0.0193672 0
M  V30 10225 H 987.045 -1.87651 0.995023 0
M  V30 10226 H 989.308 -0.865006 0.387902 0
M  V30 10227 H 989.014 -3.40543 0.878822 0
M  V30 10228 H 988.888 -3.67485 -0.850547 0
M  V30 10229 H 991.275 -2.72439 -1.13406 0
M  V30 10230 H 991.356 -2.48251 0.616871 0
M  V30 10231 H 991 -4.98803 0.956992 0
M  V30 10232 H 990.93 -5.20332 -0.810081 0
M  V30 10233 H 993.421 -3.77475 -0.179229 0
M  V30 10234 H 993.734 -7.72365 0.25926 0
M  V30 10235 H 992.079 -6.94632 0.226214 0
M  V30 10236 H 995.27 -4.67897 -0.137815 0
M  V30 10237 H 995.443 -6.4797 0.0619121 0
M  V30 10238 N 988.849 0.203349 -1.56283 0
M  V30 10239 C 989.779 1.2549 -1.96912 0
M  V30 10240 C 990.76 1.47919 -0.839884 0
M  V30 10241 O 991.945 1.59795 -1.10359 0
M  V30 10242 C 989.075 2.6009 -2.30153 0
M  V30 10243 C 988.029 2.52289 -3.45738 0
M  V30 10244 C 987.355 3.91086 -3.64632 0
M  V30 10245 C 988.655 2.05503 -4.80173 0
M  V30 10246 H 990.349 0.917306 -2.85002 0
M  V30 10247 H 987.895 0.439818 -1.37119 0
M  V30 10248 H 989.848 3.33829 -2.5717 0
M  V30 10249 H 988.572 2.95574 -1.38937 0
M  V30 10250 H 987.231 1.81006 -3.18798 0
M  V30 10251 H 986.879 4.23908 -2.7076 0
M  V30 10252 H 986.579 3.86742 -4.42385 0
M  V30 10253 H 988.103 4.66459 -3.94016 0
M  V30 10254 H 989.517 2.68995 -5.06275 0
M  V30 10255 H 987.914 2.1218 -5.61337 0
M  V30 10256 H 988.984 1.00793 -4.74309 0
M  V30 10257 N 990.327 1.50405 0.470755 0
M  V30 10258 C 991.257 1.72222 1.57676 0
M  V30 10259 C 992.238 0.57121 1.60222 0
M  V30 10260 O 993.423 0.810381 1.76484 0
M  V30 10261 C 990.553 1.81666 2.95998 0
M  V30 10262 C 989.507 2.96857 3.08318 0
M  V30 10263 C 988.833 2.91445 4.4829 0
M  V30 10264 C 990.133 4.37361 2.85504 0
M  V30 10265 H 991.827 2.64825 1.39671 0
M  V30 10266 H 989.373 1.27438 0.67049 0
M  V30 10267 H 991.326 1.95514 3.73299 0
M  V30 10268 H 990.05 0.856856 3.1516 0
M  V30 10269 H 988.709 2.82661 2.33449 0
M  V30 10270 H 988.357 1.93309 4.64371 0
M  V30 10271 H 988.057 3.68776 4.57469 0
M  V30 10272 H 989.581 3.07341 5.27611 0
M  V30 10273 H 990.995 4.52081 3.52555 0
M  V30 10274 H 989.392 5.16145 3.06127 0
M  V30 10275 H 990.462 4.49708 1.81359 0
M  V30 10276 N 991.805 -0.723954 1.39988 0
M  V30 10277 C 992.737 -1.84859 1.35498 0
M  V30 10278 C 993.75 -1.60681 0.261812 0
M  V30 10279 O 994.939 -1.7071 0.521566 0
M  V30 10280 C 992.039 -3.21103 1.08381 0
M  V30 10281 C 991.212 -3.72546 2.2919 0
M  V30 10282 C 990.271 -4.8738 1.9836 0
M  V30 10283 O 989.297 -5.00467 2.71149 0
M  V30 10284 N 990.499 -5.72566 0.956461 0
M  V30 10285 H 993.264 -1.89212 2.3242 0
M  V30 10286 H 990.825 -0.905152 1.34233 0
M  V30 10287 H 992.817 -3.9551 0.857564 0
M  V30 10288 H 991.387 -3.1195 0.201549 0
M  V30 10289 H 990.607 -2.89365 2.67697 0
M  V30 10290 H 991.895 -4.03652 3.09746 0
M  V30 10291 H 991.293 -5.64595 0.353444 0
M  V30 10292 H 989.85 -6.46993 0.790118 0
M  V30 10293 N 993.283 -1.25346 -0.955304 0
M  V30 10294 C 994.508 -1.12892 -1.73983 0
M  V30 10295 C 994.933 0.313455 -1.8547 0
M  V30 10296 O 994.291 1.22706 -1.33465 0
M  V30 10297 C 994.339 -1.78729 -3.1319 0
M  V30 10298 O 993.443 -1.06648 -3.98372 0
M  V30 10299 H 992.784 -0.394178 -0.534341 0
M  V30 10300 H 995.314 -1.65897 -1.19747 0
M  V30 10301 H 995.324 -1.84987 -3.63653 0
M  V30 10302 H 993.999 -2.83669 -3.04146 0
M  V30 10303 H 992.576 -1.08266 -3.56837 0
M  V30 10304 N 994.761 1.15782 -1.06922 0
M  V30 10305 C 995.724 2.18578 -0.689654 0
M  V30 10306 C 996.724 1.58553 0.267872 0
M  V30 10307 O 997.914 1.7413 0.0494097 0
M  V30 10308 C 995.046 3.40896 -0.0157919 0
M  V30 10309 H 996.239 2.53672 -1.59971 0
M  V30 10310 H 993.792 1.30168 -0.865214 0
M  V30 10311 H 994.527 3.11367 0.906712 0
M  V30 10312 H 994.312 3.85721 -0.704415 0
M  V30 10313 H 995.802 4.16937 0.235266 0
M  V30 10314 N 996.239 0.8527 1.3254 0
M  V30 10315 C 997.486 0.455123 1.97319 0
M  V30 10316 C 997.814 -0.988814 1.67489 0
M  V30 10317 O 997.069 -1.70845 0.954483 0
M  V30 10318 C 997.368 0.638757 3.51646 0
M  V30 10319 C 997.034 2.05287 4.01458 0
M  V30 10320 C 995.696 2.43963 4.14771 0
M  V30 10321 C 998.048 2.9759 4.27889 0
M  V30 10322 C 995.376 3.7422 4.51859 0
M  V30 10323 C 997.728 4.27343 4.66434 0
M  V30 10324 C 996.392 4.65957 4.77954 0
M  V30 10325 H 995.662 0.166541 0.722042 0
M  V30 10326 H 998.309 1.08238 1.57977 0
M  V30 10327 H 996.614 -0.0717394 3.91734 0
M  V30 10328 H 998.311 0.311219 3.9979 0
M  V30 10329 H 994.901 1.74253 3.91579 0
M  V30 10330 H 999.085 2.68942 4.17114 0
M  V30 10331 H 994.341 4.03923 4.58973 0
M  V30 10332 H 998.515 4.9893 4.85841 0
M  V30 10333 H 996.142 5.66934 5.06449 0
M  V30 10334 N 997.718 -1.45297 0.610449 0
M  V30 10335 C 998.943 -2.07101 0.111414 0
M  V30 10336 C 999.368 -1.45161 -1.19625 0
M  V30 10337 O 998.726 -0.545368 -1.72903 0
M  V30 10338 C 998.774 -3.60598 -0.0117372 0
M  V30 10339 O 997.878 -3.98512 -1.06122 0
M  V30 10340 H 997.219 -0.659709 0.075364 0
M  V30 10341 H 999.749 -1.86504 0.841269 0
M  V30 10342 H 999.759 -4.07464 -0.209028 0
M  V30 10343 H 998.434 -4.05067 0.943076 0
M  V30 10344 H 997.011 -3.63312 -0.840158 0
M  V30 10345 N 999.196 -0.349774 -1.5367 0
M  V30 10346 C 1000.14 0.504121 -2.25227 0
M  V30 10347 C 1001.11 1.09048 -1.2529 0
M  V30 10348 O 1002.3 1.12594 -1.54037 0
M  V30 10349 C 999.438 1.64601 -3.03316 0
M  V30 10350 C 998.551 1.08635 -4.18118 0
M  V30 10351 C 997.686 2.19605 -4.83681 0
M  V30 10352 C 996.725 1.61023 -5.90541 0
M  V30 10353 N 995.862 2.6576 -6.49858 0
M  V30 10354 H 1000.7 -0.112621 -2.97787 0
M  V30 10355 H 998.239 -0.0673503 -1.46946 0
M  V30 10356 H 1000.2 2.31836 -3.46854 0
M  V30 10357 H 998.827 2.23364 -2.33041 0
M  V30 10358 H 997.879 0.304748 -3.79177 0
M  V30 10359 H 999.191 0.617911 -4.94958 0
M  V30 10360 H 998.345 2.94693 -5.30322 0
M  V30 10361 H 997.084 2.69795 -4.06278 0
M  V30 10362 H 996.089 0.844428 -5.43277 0
M  V30 10363 H 997.314 1.11677 -6.69855 0
M  V30 10364 H 995.26 3.15193 -5.75317 0
M  V30 10365 H 995.177 2.23557 -7.2219 0
M  V30 10366 H 996.445 3.40598 -7.01151 0
M  V30 10367 N 1000.67 1.57404 -0.0785433 0
M  V30 10368 C 1001.62 2.14316 0.903949 0
M  V30 10369 C 1002.62 1.08176 1.30362 0
M  V30 10370 O 1003.82 1.26546 1.28008 0
M  V30 10371 H 1000.2 0.685367 0.309477 0
M  V30 10372 H 1002.17 2.95719 0.399081 0
M  V30 10373 C 1000.92 2.72504 2.15956 0
M  V30 10374 H 1000.24 3.53853 1.86087 0
M  V30 10375 H 1001.68 3.15914 2.82798 0
M  V30 10376 C 1000.14 1.6759 2.92259 0
M  V30 10377 O 1000.67 1.10492 3.86205 0
M  V30 10378 N 998.875 1.38467 2.5549 0
M  V30 10379 H 998.422 1.85088 1.79166 0
M  V30 10380 H 998.38 0.685053 3.06846 0
M  V30 10381 N 1002.15 -0.195058 1.56388 0
M  V30 10382 C 1003.38 -0.935745 1.85091 0
M  V30 10383 C 1003.8 -1.76061 0.662118 0
M  V30 10384 O 1003.16 -1.77076 -0.389083 0
M  V30 10385 C 1003.21 -1.80764 3.1202 0
M  V30 10386 O 1002.31 -2.90643 2.92575 0
M  V30 10387 H 1001.65 -0.26351 0.609474 0
M  V30 10388 H 1004.18 -0.200362 2.03617 0
M  V30 10389 H 1004.19 -2.21229 3.42815 0
M  V30 10390 H 1002.87 -1.20157 3.98165 0
M  V30 10391 H 1001.44 -2.53934 2.73079 0
M  V30 10392 N 1003.63 -1.50653 -0.462772 0
M  V30 10393 C 1005.04 -1.54821 -1.04342 0
M  V30 10394 C 1005.39 -0.356595 -1.92932 0
M  V30 10395 O 1004.52 0.529579 -2.0982 0
M  V30 10396 C 1005.11 -2.80571 -1.89909 0
M  V30 10397 C 1003.67 -2.87394 -2.43067 0
M  V30 10398 C 1002.82 -2.49206 -1.21621 0
M  V30 10399 H 1005.77 -1.56797 -0.245048 0
M  V30 10400 H 1005.79 -2.62897 -2.75074 0
M  V30 10401 H 1005.3 -3.67281 -1.25405 0
M  V30 10402 H 1003.4 -2.05055 -3.111 0
M  V30 10403 H 1003.52 -3.90477 -2.77605 0
M  V30 10404 H 1001.88 -2.01829 -1.55361 0
M  V30 10405 H 1002.66 -3.38233 -0.587669 0
M  V30 10406 N 1005.11 0.71652 -1.4037 0
M  V30 10407 C 1006.52 1.29562 -1.34427 0
M  V30 10408 C 1006.87 1.96192 -0.0173106 0
M  V30 10409 O 1006 1.97488 0.884719 0
M  V30 10410 C 1006.59 2.35601 -2.4347 0
M  V30 10411 C 1005.15 2.89138 -2.4099 0
M  V30 10412 C 1004.3 1.62915 -2.24397 0
M  V30 10413 H 1007.25 0.512715 -1.5019 0
M  V30 10414 H 1007.27 3.16422 -2.11323 0
M  V30 10415 H 1006.78 1.87077 -3.40035 0
M  V30 10416 H 1004.88 3.41894 -1.4812 0
M  V30 10417 H 1004.99 3.40995 -3.3654 0
M  V30 10418 H 1003.36 1.87947 -1.71896 0
M  V30 10419 H 1004.14 1.16417 -3.22958 0
M  V30 10420 N 1006.59 1.25851 0.948643 0
M  V30 10421 C 1007.53 1.06759 2.04625 0
M  V30 10422 C 1008.5 -0.0251144 1.66081 0
M  V30 10423 O 1009.69 0.133221 1.90334 0
M  V30 10424 C 1006.83 0.698724 3.37952 0
M  V30 10425 C 1005.94 1.8669 3.89578 0
M  V30 10426 C 1005.08 1.44184 5.11258 0
M  V30 10427 C 1004.12 2.57878 5.55126 0
M  V30 10428 N 1003.25 2.16106 6.68014 0
M  V30 10429 H 1008.09 2.00691 2.20289 0
M  V30 10430 H 1005.63 0.999327 1.07944 0
M  V30 10431 H 1007.59 0.465788 4.14592 0
M  V30 10432 H 1006.22 -0.203618 3.22157 0
M  V30 10433 H 1005.27 2.21298 3.09405 0
M  V30 10434 H 1006.58 2.72051 4.18079 0
M  V30 10435 H 1005.74 1.16891 5.95333 0
M  V30 10436 H 1004.47 0.559035 4.84485 0
M  V30 10437 H 1003.48 2.85909 4.69612 0
M  V30 10438 H 1004.7 3.46747 5.83904 0
M  V30 10439 H 1002.65 1.3025 6.42939 0
M  V30 10440 H 1002.57 2.95012 6.96063 0
M  V30 10441 H 1003.84 1.92005 7.55483 0
M  V30 10442 N 1008.06 -1.15214 1.07534 0
M  V30 10443 C 1009 -2.19634 0.655261 0
M  V30 10444 C 1010.01 -1.60139 -0.293165 0
M  V30 10445 O 1011.2 -1.78311 -0.0821957 0
M  V30 10446 C 1008.3 -3.38851 -0.0578281 0
M  V30 10447 C 1007.47 -4.27888 0.90725 0
M  V30 10448 C 1006.53 -5.25692 0.231115 0
M  V30 10449 O 1005.56 -5.62469 0.872746 0
M  V30 10450 N 1006.76 -5.71424 -1.0225 0
M  V30 10451 H 1009.52 -2.56292 1.55353 0
M  V30 10452 H 1007.08 -1.30347 0.960271 0
M  V30 10453 H 1009.08 -4.01334 -0.520874 0
M  V30 10454 H 1007.65 -3.00593 -0.858071 0
M  V30 10455 H 1006.87 -3.62475 1.54937 0
M  V30 10456 H 1008.15 -4.84246 1.56151 0
M  V30 10457 H 1007.55 -5.43659 -1.56369 0
M  V30 10458 H 1006.11 -6.35938 -1.42919 0
M  V30 10459 N 1009.54 -0.859717 -1.32086 0
M  V30 10460 C 1010.77 -0.478865 -2.01796 0
M  V30 10461 C 1011.19 0.918274 -1.64163 0
M  V30 10462 O 1010.55 1.60409 -0.844896 0
M  V30 10463 C 1010.6 -0.631356 -3.5503 0
M  V30 10464 O 1009.7 0.333712 -4.11048 0
M  V30 10465 H 1009.04 -0.191775 -0.635703 0
M  V30 10466 H 1011.57 -1.16031 -1.68517 0
M  V30 10467 H 1011.58 -0.520783 -4.04663 0
M  V30 10468 H 1010.26 -1.65015 -3.81763 0
M  V30 10469 H 1008.84 0.178953 -3.7247 0
M  V30 10470 N 1011.02 1.44971 -0.618145 0
M  V30 10471 C 1012.43 1.85611 -0.201334 0
M  V30 10472 C 1012.78 1.51698 1.24427 0
M  V30 10473 O 1011.91 0.94875 1.94493 0
M  V30 10474 C 1012.5 3.36897 -0.358619 0
M  V30 10475 C 1011.06 3.764 0.00358196 0
M  V30 10476 C 1010.21 2.68881 -0.678118 0
M  V30 10477 H 1013.16 1.35622 -0.824152 0
M  V30 10478 H 1013.18 3.78326 0.406176 0
M  V30 10479 H 1012.69 3.61548 -1.41084 0
M  V30 10480 H 1010.79 3.57365 1.05457 0
M  V30 10481 H 1010.91 4.77449 -0.397427 0
M  V30 10482 H 1009.27 2.54442 -0.114699 0
M  V30 10483 H 1010.05 2.96367 -1.73268 0
M  V30 10484 N 1012.5 0.357919 1.53482 0
M  V30 10485 C 1013.45 -0.49217 2.25491 0
M  V30 10486 C 1014.42 -1.08382 1.25867 0
M  V30 10487 O 1015.6 -1.11775 1.54632 0
M  V30 10488 C 1012.74 -1.6299 3.04185 0
M  V30 10489 C 1011.85 -1.06416 4.18688 0
M  V30 10490 C 1010.99 -2.17037 4.84839 0
M  V30 10491 C 1010.03 -1.57889 5.91386 0
M  V30 10492 N 1009.16 -2.6231 6.51259 0
M  V30 10493 H 1014 0.128412 2.97723 0
M  V30 10494 H 1011.54 0.0751423 1.46908 0
M  V30 10495 H 1013.5 -2.29993 3.48079 0
M  V30 10496 H 1012.13 -2.22125 2.34223 0
M  V30 10497 H 1011.18 -0.284635 3.79334 0
M  V30 10498 H 1012.49 -0.591654 4.95279 0
M  V30 10499 H 1011.65 -2.91876 5.31877 0
M  V30 10500 H 1010.39 -2.67636 4.07703 0
M  V30 10501 H 1009.39 -0.815605 5.43717 0
M  V30 10502 H 1010.62 -1.08123 6.70437 0
M  V30 10503 H 1008.56 -3.12137 5.7698 0
M  V30 10504 H 1008.48 -2.19724 7.23365 0
M  V30 10505 H 1009.75 -3.36875 7.02948 0
M  V30 10506 N 1013.98 -1.5736 0.0868897 0
M  V30 10507 C 1014.92 -2.13571 -0.874996 0
M  V30 10508 C 1015.89 -1.0521 -1.2853 0
M  V30 10509 O 1017.08 -1.32954 -1.3685 0
M  V30 10510 C 1014.22 -2.71386 -2.13175 0
M  V30 10511 C 1013.33 -3.93953 -1.77272 0
M  V30 10512 C 1012.47 -4.3996 -2.97671 0
M  V30 10513 C 1011.51 -5.55137 -2.57856 0
M  V30 10514 N 1010.64 -5.96034 -3.71064 0
M  V30 10515 H 1015.48 -2.95453 -0.388789 0
M  V30 10516 H 1013.02 -1.45992 -0.180242 0
M  V30 10517 H 1014.98 -3.03022 -2.86764 0
M  V30 10518 H 1013.61 -1.92245 -2.5931 0
M  V30 10519 H 1012.66 -3.68683 -0.936845 0
M  V30 10520 H 1013.97 -4.77565 -1.43989 0
M  V30 10521 H 1013.13 -4.73337 -3.79522 0
M  V30 10522 H 1011.86 -3.55232 -3.34158 0
M  V30 10523 H 1010.87 -5.21397 -1.7443 0
M  V30 10524 H 1012.09 -6.41608 -2.22522 0
M  V30 10525 H 1010.04 -5.14253 -4.07284 0
M  V30 10526 H 1009.96 -6.74423 -3.41599 0
M  V30 10527 H 1011.23 -6.34038 -4.53449 0
M  V30 10528 N 1015.45 0.186762 -1.56489 0
M  V30 10529 C 1016.68 0.925916 -1.85584 0
M  V30 10530 C 1017.1 1.75708 -0.671446 0
M  V30 10531 O 1016.46 1.7728 0.379687 0
M  V30 10532 C 1016.51 1.79107 -3.12975 0
M  V30 10533 O 1015.61 2.89088 -2.94112 0
M  V30 10534 H 1014.96 0.260275 -0.610863 0
M  V30 10535 H 1017.49 0.189561 -2.0372 0
M  V30 10536 H 1017.5 2.19408 -3.43983 0
M  V30 10537 H 1016.17 1.18044 -3.98796 0
M  V30 10538 H 1014.75 2.52482 -2.74422 0
M  V30 10539 N 1016.93 1.50896 0.454776 0
M  V30 10540 C 1018.34 1.55372 1.0352 0
M  V30 10541 C 1018.69 0.366822 1.9274 0
M  V30 10542 O 1017.82 -0.518444 2.10098 0
M  V30 10543 C 1018.41 2.81574 1.88418 0
M  V30 10544 C 1016.97 2.88679 2.4154 0
M  V30 10545 C 1016.12 2.49847 1.20298 0
M  V30 10546 H 1019.07 1.56924 0.236729 0
M  V30 10547 H 1019.09 2.64352 2.73676 0
M  V30 10548 H 1018.6 3.67941 1.23455 0
M  V30 10549 H 1016.71 2.06702 3.10008 0
M  V30 10550 H 1016.82 3.91944 2.7553 0
M  V30 10551 H 1015.18 2.02651 1.54288 0
M  V30 10552 H 1015.97 3.3854 0.569723 0
M  V30 10553 N 1018.41 -0.709066 1.40748 0
M  V30 10554 C 1019.64 -1.50313 1.42901 0
M  V30 10555 C 1020.06 -1.88072 0.032213 0
M  V30 10556 O 1019.42 -1.53716 -0.96131 0
M  V30 10557 C 1019.47 -2.75074 2.33166 0
M  V30 10558 O 1018.57 -3.72036 1.7794 0
M  V30 10559 H 1017.91 -0.452934 0.485538 0
M  V30 10560 H 1020.44 -0.872712 1.85054 0
M  V30 10561 H 1020.45 -3.23532 2.48578 0
M  V30 10562 H 1019.13 -2.46927 3.34664 0
M  V30 10563 H 1017.7 -3.30911 1.71908 0
M  V30 10564 N 1019.89 -1.26353 -0.941956 0
M  V30 10565 C 1020.85 -1.07904 -2.02211 0
M  V30 10566 C 1021.85 -0.0276283 -1.60776 0
M  V30 10567 O 1023.04 -0.270965 -1.7208 0
M  V30 10568 C 1020.17 -0.641084 -3.34818 0
M  V30 10569 H 1021.37 -2.03804 -2.20009 0
M  V30 10570 H 1018.92 -1.08939 -1.12081 0
M  V30 10571 H 1019.66 0.319943 -3.22718 0
M  V30 10572 H 1019.44 -1.40027 -3.66244 0
M  V30 10573 H 1020.93 -0.533826 -4.14174 0
M  V30 10574 N 1021.37 1.14642 -1.08144 0
M  V30 10575 C 1022.31 2.1964 -0.708995 0
M  V30 10576 C 1023.28 1.63303 0.303512 0
M  V30 10577 O 1024.47 1.8987 0.18813 0
M  V30 10578 C 1021.61 3.44886 -0.121585 0
M  V30 10579 C 1020.72 4.15386 -1.18654 0
M  V30 10580 C 1019.86 5.28205 -0.56328 0
M  V30 10581 C 1018.9 5.90534 -1.61046 0
M  V30 10582 N 1018.03 6.94809 -1.00919 0
M  V30 10583 H 1022.87 2.50848 -1.6087 0
M  V30 10584 H 1020.41 1.23185 -0.803975 0
M  V30 10585 H 1022.37 4.16528 0.23668 0
M  V30 10586 H 1021 3.14169 0.741445 0
M  V30 10587 H 1020.05 3.42159 -1.66227 0
M  V30 10588 H 1021.36 4.57809 -1.9802 0
M  V30 10589 H 1020.52 6.06507 -0.153109 0
M  V30 10590 H 1019.26 4.86995 0.262066 0
M  V30 10591 H 1018.26 5.10938 -2.03033 0
M  V30 10592 H 1019.49 6.33819 -2.43824 0
M  V30 10593 H 1017.43 6.5568 -0.204894 0
M  V30 10594 H 1017.35 7.35704 -1.73999 0
M  V30 10595 H 1018.62 7.76992 -0.624792 0
M  V30 10596 N 1022.85 0.866709 1.31628 0
M  V30 10597 C 1023.78 0.335762 2.31073 0
M  V30 10598 C 1024.76 -0.571597 1.60209 0
M  V30 10599 O 1025.94 -0.489306 1.87935 0
M  V30 10600 C 1023.07 -0.466416 3.44154 0
M  V30 10601 C 1022.03 0.347561 4.26586 0
M  V30 10602 C 1021.35 -0.5801 5.31544 0
M  V30 10603 C 1022.65 1.57986 4.97833 0
M  V30 10604 H 1024.35 1.16673 2.75731 0
M  V30 10605 H 1021.89 0.56248 1.3256 0
M  V30 10606 H 1023.84 -0.84836 4.12772 0
M  V30 10607 H 1022.57 -1.33086 2.98254 0
M  V30 10608 H 1021.23 0.71141 3.59631 0
M  V30 10609 H 1020.88 -1.44174 4.81895 0
M  V30 10610 H 1020.58 -0.0393965 5.87587 0
M  V30 10611 H 1022.1 -0.958958 6.03023 0
M  V30 10612 H 1023.51 1.26954 5.59067 0
M  V30 10613 H 1021.91 2.05939 5.63657 0
M  V30 10614 H 1022.98 2.3345 4.25005 0
M  V30 10615 N 1024.32 -1.44642 0.625825 0
M  V30 10616 C 1025.27 -2.32408 -0.0945221 0
M  V30 10617 C 1026.27 -1.47038 -0.841198 0
M  V30 10618 O 1027.47 -1.63415 -0.754698 0
M  V30 10619 H 1023.85 -0.75038 -0.0493321 0
M  V30 10620 H 1025.82 -2.90922 0.663863 0
M  V30 10621 C 1024.57 -3.30951 -1.06615 0
M  V30 10622 H 1023.89 -3.96648 -0.501021 0
M  V30 10623 H 1025.33 -3.95054 -1.53976 0
M  V30 10624 C 1023.79 -2.59479 -2.14877 0
M  V30 10625 O 1024.32 -2.38974 -3.22885 0
M  V30 10626 N 1022.52 -2.19307 -1.90665 0
M  V30 10627 H 1022.07 -2.36184 -1.02835 0
M  V30 10628 H 1022.03 -1.71811 -2.63303 0
M  V30 10629 N 1025.8 -0.366053 -1.5329 0
M  V30 10630 C 1027.05 0.224614 -2.00445 0
M  V30 10631 C 1027.36 1.49829 -1.2574 0
M  V30 10632 O 1028.57 2.16759 -1.63487 0
M  V30 10633 C 1027.03 0.450818 -3.57065 0
M  V30 10634 C 1026.63 -0.808257 -4.40649 0
M  V30 10635 C 1028.38 0.999116 -4.12575 0
M  V30 10636 C 1026.28 -0.551612 -5.88822 0
M  V30 10637 H 1025.21 0.0877114 -0.748881 0
M  V30 10638 H 1027.87 -0.484866 -1.76978 0
M  V30 10639 H 1026.25 1.22157 -3.76688 0
M  V30 10640 H 1027.42 -1.58184 -4.32798 0
M  V30 10641 H 1025.74 -1.27981 -3.96245 0
M  V30 10642 H 1028.33 1.20646 -5.20911 0
M  V30 10643 H 1028.68 1.96139 -3.67199 0
M  V30 10644 H 1029.21 0.288518 -3.96752 0
M  V30 10645 H 1025.95 -1.48423 -6.38475 0
M  V30 10646 H 1025.47 0.183462 -5.99519 0
M  V30 10647 H 1027.15 -0.177307 -6.46757 0
M  V30 10648 N 1027.28 1.57312 -0.0952337 0
M  V30 10649 C 1028.69 1.81589 0.433875 0
M  V30 10650 C 1029.04 1.01086 1.68155 0
M  V30 10651 O 1028.17 0.240272 2.15062 0
M  V30 10652 C 1028.76 3.29366 0.793931 0
M  V30 10653 C 1027.32 3.54407 1.26778 0
M  V30 10654 C 1026.47 2.76035 0.264518 0
M  V30 10655 H 1029.42 1.55426 -0.320675 0
M  V30 10656 H 1029.44 3.42697 1.65345 0
M  V30 10657 H 1028.95 3.87932 -0.114334 0
M  V30 10658 H 1027.05 3.01173 2.19376 0
M  V30 10659 H 1027.17 4.63055 1.22952 0
M  V30 10660 H 1025.53 2.43509 0.746691 0
M  V30 10661 H 1026.31 3.37349 -0.636429 0
M  V30 10662 N 1028.76 -0.17846 1.56586 0
M  V30 10663 C 1029.99 -0.910674 1.85446 0
M  V30 10664 C 1030.4 -1.76647 0.677675 0
M  V30 10665 O 1029.74 -1.80086 -0.362584 0
M  V30 10666 C 1029.8 -1.84363 3.08627 0
M  V30 10667 C 1029.46 -1.16814 4.41818 0
M  V30 10668 C 1030.46 -0.53703 5.17119 0
M  V30 10669 C 1028.15 -1.16703 4.88555 0
M  V30 10670 C 1030.14 0.0861778 6.37342 0
M  V30 10671 C 1027.83 -0.539992 6.0871 0
M  V30 10672 C 1028.83 0.0855135 6.82946 0
M  V30 10673 O 1028.51 0.70268 8.00823 0
M  V30 10674 H 1028.25 -0.270377 0.619574 0
M  V30 10675 H 1030.8 -0.185591 2.0456 0
M  V30 10676 H 1029.03 -2.60884 2.85441 0
M  V30 10677 H 1030.72 -2.44506 3.23993 0
M  V30 10678 H 1031.48 -0.529915 4.82096 0
M  V30 10679 H 1027.36 -1.64329 4.30717 0
M  V30 10680 H 1030.91 0.575011 6.95226 0
M  V30 10681 H 1026.8 -0.544666 6.43198 0
M  V30 10682 H 1027.57 0.601224 8.16289 0
M  V30 10683 N 1030.24 -1.51135 -0.446768 0
M  V30 10684 C 1031.15 -1.74595 -1.56696 0
M  V30 10685 C 1032.16 -0.629816 -1.62201 0
M  V30 10686 O 1033.34 -0.910987 -1.79619 0
M  V30 10687 C 1030.4 -1.85738 -2.9275 0
M  V30 10688 C 1029.46 -3.09564 -2.97437 0
M  V30 10689 C 1028.7 -3.20165 -4.27001 0
M  V30 10690 O 1028.92 -2.36939 -5.1886 0
M  V30 10691 O 1027.85 -4.13077 -4.3778 0
M  V30 10692 H 1031.68 -2.69601 -1.39817 0
M  V30 10693 H 1029.26 -1.35523 -0.628805 0
M  V30 10694 H 1031.15 -1.95107 -3.73512 0
M  V30 10695 H 1029.82 -0.939184 -3.09776 0
M  V30 10696 H 1028.73 -3.05679 -2.15664 0
M  V30 10697 H 1030.06 -4.01041 -2.85353 0
M  V30 10698 N 1031.71 0.701592 -1.41122 0
M  V30 10699 C 1032.66 1.83691 -1.4269 0
M  V30 10700 C 1033.66 1.6662 -0.305658 0
M  V30 10701 O 1034.86 1.73554 -0.477392 0
M  V30 10702 H 1031.24 0.605222 -0.44633 0
M  V30 10703 H 1033.21 1.79485 -2.38386 0
M  V30 10704 C 1031.96 3.21666 -1.32008 0
M  V30 10705 H 1031.28 3.35416 -2.17569 0
M  V30 10706 H 1032.72 4.012 -1.37165 0
M  V30 10707 C 1031.18 3.36885 -0.0317678 0
M  V30 10708 O 1031.71 3.90885 0.925836 0
M  V30 10709 N 1029.91 2.90569 0.0423401 0
M  V30 10710 H 1029.46 2.46812 -0.737673 0
M  V30 10711 H 1029.42 3.0113 0.903764 0
M  V30 10712 N 1033.19 1.2685 0.935242 0
M  V30 10713 C 1034.44 1.12745 1.68211 0
M  V30 10714 C 1034.77 -0.328128 1.91712 0
M  V30 10715 O 1034.02 -1.25701 1.49993 0
M  V30 10716 C 1034.32 1.8482 3.05903 0
M  V30 10717 C 1033.99 3.347 3.02137 0
M  V30 10718 C 1032.65 3.75583 3.00817 0
M  V30 10719 C 1035 4.30368 2.93995 0
M  V30 10720 C 1032.33 5.10511 2.89129 0
M  V30 10721 C 1034.68 5.65343 2.83848 0
M  V30 10722 C 1033.34 6.0553 2.80874 0
M  V30 10723 H 1032.61 0.412563 0.615527 0
M  V30 10724 H 1035.26 1.57366 1.09124 0
M  V30 10725 H 1033.57 1.32685 3.68649 0
M  V30 10726 H 1035.26 1.71341 3.62551 0
M  V30 10727 H 1031.85 3.02182 3.03947 0
M  V30 10728 H 1036.04 3.9976 2.94118 0
M  V30 10729 H 1031.29 5.40802 2.85208 0
M  V30 10730 H 1035.47 6.39151 2.76512 0
M  V30 10731 H 1033.09 7.10037 2.71573 0
M  V30 10732 N 1034.67 -1.14067 1.0875 0
M  V30 10733 C 1035.9 -1.88767 0.839682 0
M  V30 10734 C 1036.31 -1.79024 -0.612119 0
M  V30 10735 O 1035.65 -1.14986 -1.43262 0
M  V30 10736 C 1035.71 -3.39333 1.18716 0
M  V30 10737 C 1035.38 -3.72858 2.64245 0
M  V30 10738 C 1036.37 -3.72683 3.62496 0
M  V30 10739 C 1034.06 -4.0273 3.0019 0
M  V30 10740 C 1036.05 -4.01909 4.9472 0
M  V30 10741 C 1033.74 -4.31618 4.32607 0
M  V30 10742 C 1034.74 -4.31192 5.29682 0
M  V30 10743 O 1034.43 -4.59377 6.59718 0
M  V30 10744 H 1034.16 -0.604665 0.302253 0
M  V30 10745 H 1036.71 -1.45364 1.45115 0
M  V30 10746 H 1034.94 -3.83205 0.518707 0
M  V30 10747 H 1036.63 -3.95346 0.919599 0
M  V30 10748 H 1037.4 -3.49688 3.3607 0
M  V30 10749 H 1033.28 -4.02213 2.25268 0
M  V30 10750 H 1036.82 -4.01491 5.70483 0
M  V30 10751 H 1032.72 -4.54083 4.58779 0
M  V30 10752 H 1033.49 -4.77078 6.65086 0
M  V30 10753 N 1036.15 -0.873678 -1.31166 0
M  V30 10754 C 1037.06 -0.335726 -2.32185 0
M  V30 10755 C 1038.07 0.556259 -1.64869 0
M  V30 10756 O 1039.25 0.452087 -1.9626 0
M  V30 10757 C 1036.32 0.450822 -3.43756 0
M  V30 10758 C 1035.38 -0.469565 -4.26724 0
M  V30 10759 C 1034.61 0.279538 -5.32967 0
M  V30 10760 O 1034.83 1.50715 -5.50128 0
M  V30 10761 O 1033.77 -0.36452 -6.00795 0
M  V30 10762 H 1037.59 -1.17314 -2.80127 0
M  V30 10763 H 1035.18 -0.637163 -1.35132 0
M  V30 10764 H 1037.06 0.896582 -4.11752 0
M  V30 10765 H 1035.73 1.26472 -2.9797 0
M  V30 10766 H 1034.64 -0.963902 -3.61469 0
M  V30 10767 H 1035.97 -1.24916 -4.76085 0
M  V30 10768 N 1037.63 1.44308 -0.633487 0
M  V30 10769 C 1038.59 2.2912 0.060376 0
M  V30 10770 C 1039.59 1.41166 0.769992 0
M  V30 10771 O 1040.78 1.63012 0.614224 0
M  V30 10772 C 1037.91 3.22798 1.0961 0
M  V30 10773 H 1039.1 2.91958 -0.685617 0
M  V30 10774 H 1036.66 1.51259 -0.393738 0
M  V30 10775 H 1037.39 2.64815 1.87199 0
M  V30 10776 H 1037.18 3.87618 0.591161 0
M  V30 10777 H 1038.67 3.86504 1.58127 0
M  V30 10778 N 1039.1 0.374177 1.53094 0
M  V30 10779 C 1040.03 -0.459976 2.28925 0
M  V30 10780 C 1041.02 -1.07656 1.31698 0
M  V30 10781 O 1042.2 -1.09219 1.60577 0
M  V30 10782 C 1039.33 -1.5954 3.08487 0
M  V30 10783 C 1038.28 -1.10563 4.13473 0
M  V30 10784 C 1037.61 -2.33196 4.81169 0
M  V30 10785 C 1038.91 -0.184275 5.21975 0
M  V30 10786 H 1040.6 0.172692 2.98902 0
M  V30 10787 H 1038.15 0.0844956 1.43752 0
M  V30 10788 H 1040.1 -2.18565 3.60288 0
M  V30 10789 H 1038.83 -2.25543 2.36216 0
M  V30 10790 H 1037.49 -0.53801 3.62631 0
M  V30 10791 H 1037.13 -2.97675 4.05461 0
M  V30 10792 H 1036.83 -2.01094 5.52119 0
M  V30 10793 H 1038.36 -2.92892 5.35767 0
M  V30 10794 H 1039.77 -0.682262 5.69226 0
M  V30 10795 H 1038.17 0.0462746 6.00082 0
M  V30 10796 H 1039.24 0.771152 4.78729 0
M  V30 10797 N 1040.58 -1.57259 0.103575 0
M  V30 10798 C 1041.49 -2.18018 -0.866327 0
M  V30 10799 C 1042.51 -1.15198 -1.30404 0
M  V30 10800 O 1043.68 -1.47605 -1.37021 0
M  V30 10801 C 1040.75 -2.75533 -2.10434 0
M  V30 10802 C 1039.81 -3.93337 -1.72002 0
M  V30 10803 C 1039.04 -4.481 -2.89901 0
M  V30 10804 O 1039.27 -4.01784 -4.04877 0
M  V30 10805 O 1038.2 -5.39004 -2.67877 0
M  V30 10806 H 1042.03 -3.01322 -0.379338 0
M  V30 10807 H 1039.61 -1.48907 -0.121228 0
M  V30 10808 H 1041.49 -3.12259 -2.8297 0
M  V30 10809 H 1040.17 -1.9527 -2.58169 0
M  V30 10810 H 1039.08 -3.61408 -0.966193 0
M  V30 10811 H 1040.41 -4.74989 -1.29022 0
M  V30 10812 N 1042.06 0.170153 -1.56679 0
M  V30 10813 C 1043.01 1.21064 -1.965 0
M  V30 10814 C 1043.98 1.43928 -0.829092 0
M  V30 10815 O 1045.16 1.56649 -1.08931 0
M  V30 10816 C 1042.3 2.54468 -2.33109 0
M  V30 10817 C 1041.42 2.38974 -3.59883 0
M  V30 10818 C 1040.55 3.65252 -3.857 0
M  V30 10819 C 1039.59 3.44696 -5.05817 0
M  V30 10820 N 1038.73 4.63047 -5.27761 0
M  V30 10821 H 1043.57 0.864055 -2.85198 0
M  V30 10822 H 1041.1 0.415243 -1.41117 0
M  V30 10823 H 1043.06 3.32222 -2.52358 0
M  V30 10824 H 1041.69 2.8712 -1.4752 0
M  V30 10825 H 1040.74 1.5239 -3.48542 0
M  V30 10826 H 1042.06 2.19731 -4.47794 0
M  V30 10827 H 1041.21 4.51441 -4.05322 0
M  V30 10828 H 1039.95 3.87475 -2.96166 0
M  V30 10829 H 1038.95 2.56893 -4.86092 0
M  V30 10830 H 1040.18 3.23894 -5.96883 0
M  V30 10831 H 1038.12 4.85487 -4.41179 0
M  V30 10832 H 1038.04 4.46722 -6.09898 0
M  V30 10833 H 1039.31 5.50516 -5.51863 0
M  V30 10834 N 1043.54 1.5137 0.438746 0
M  V30 10835 C 1044.47 1.75528 1.53987 0
M  V30 10836 C 1045.45 0.605067 1.58975 0
M  V30 10837 O 1046.63 0.847634 1.74725 0
M  V30 10838 C 1043.76 1.87904 2.92078 0
M  V30 10839 C 1042.72 3.0333 3.01951 0
M  V30 10840 C 1042.04 3.00888 4.42007 0
M  V30 10841 C 1043.34 4.43319 2.76163 0
M  V30 10842 H 1045.04 2.67728 1.34022 0
M  V30 10843 H 1042.58 1.28831 0.643308 0
M  V30 10844 H 1044.54 2.03388 3.69068 0
M  V30 10845 H 1043.26 0.923514 3.13271 0
M  V30 10846 H 1041.92 2.87549 2.274 0
M  V30 10847 H 1041.57 2.03116 4.60166 0
M  V30 10848 H 1041.27 3.78397 4.49544 0
M  V30 10849 H 1042.79 3.18464 5.20973 0
M  V30 10850 H 1044.21 4.59458 3.42887 0
M  V30 10851 H 1042.6 5.22523 2.9511 0
M  V30 10852 H 1043.67 4.53453 1.71779 0
M  V30 10853 N 1045.02 -0.694098 1.41492 0
M  V30 10854 C 1045.96 -1.82932 1.43662 0
M  V30 10855 C 1046.96 -1.66455 0.31449 0
M  V30 10856 O 1048.16 -1.73298 0.486589 0
M  V30 10857 H 1044.54 -0.602847 0.449533 0
M  V30 10858 H 1046.51 -1.78218 2.39334 0
M  V30 10859 C 1045.26 -3.20962 1.33712 0
M  V30 10860 H 1044.58 -3.34257 2.19345 0
M  V30 10861 H 1046.02 -4.00467 1.39291 0
M  V30 10862 C 1044.48 -3.36863 0.0496332 0
M  V30 10863 O 1045.01 -3.91371 -0.905093 0
M  V30 10864 N 1043.22 -2.90588 -0.0269299 0
M  V30 10865 H 1042.76 -2.46417 0.750752 0
M  V30 10866 H 1042.72 -3.01605 -0.887781 0
M  V30 10867 N 1046.49 -1.27344 -0.928501 0
M  V30 10868 C 1047.44 -1.10001 -2.029 0
M  V30 10869 C 1048.41 -0.00131084 -1.661 0
M  V30 10870 O 1049.6 -0.163485 -1.90098 0
M  V30 10871 C 1046.74 -0.7524 -3.36798 0
M  V30 10872 C 1045.85 -1.92865 -3.86558 0
M  V30 10873 C 1044.98 -1.52299 -5.08899 0
M  V30 10874 C 1044.02 -2.66677 -5.50953 0
M  V30 10875 N 1043.16 -2.26706 -6.64491 0
M  V30 10876 H 1048 -2.0417 -2.17068 0
M  V30 10877 H 1045.54 -1.01637 -1.0634 0
M  V30 10878 H 1047.5 -0.531687 -4.13798 0
M  V30 10879 H 1046.13 0.15234 -3.2244 0
M  V30 10880 H 1045.18 -2.26192 -3.05845 0
M  V30 10881 H 1046.49 -2.78668 -4.13698 0
M  V30 10882 H 1045.64 -1.26348 -5.93398 0
M  V30 10883 H 1044.38 -0.636042 -4.83535 0
M  V30 10884 H 1043.39 -2.93344 -4.65004 0
M  V30 10885 H 1044.61 -3.55992 -5.78313 0
M  V30 10886 H 1042.56 -1.40462 -6.40786 0
M  V30 10887 H 1042.48 -3.06049 -6.91281 0
M  V30 10888 H 1043.74 -2.04 -7.52333 0
M  V30 10889 N 1047.97 1.13488 -1.09353 0
M  V30 10890 C 1049.38 1.66299 -0.848609 0
M  V30 10891 C 1049.73 1.86044 0.623051 0
M  V30 10892 O 1048.86 1.57871 1.48005 0
M  V30 10893 C 1049.45 3.02087 -1.53391 0
M  V30 10894 C 1048.01 3.51893 -1.33598 0
M  V30 10895 C 1047.16 2.27154 -1.59048 0
M  V30 10896 H 1050.11 0.974208 -1.25279 0
M  V30 10897 H 1050.13 3.68018 -0.966587 0
M  V30 10898 H 1049.64 2.87684 -2.60498 0
M  V30 10899 H 1047.75 3.715 -0.286045 0
M  V30 10900 H 1047.86 4.32059 -2.0703 0
M  V30 10901 H 1046.22 2.33708 -1.01256 0
M  V30 10902 H 1047.01 2.15317 -2.67383 0
M  V30 10903 N 1049.45 0.880621 1.30701 0
M  V30 10904 C 1050.68 0.510909 2.01009 0
M  V30 10905 C 1051.1 -0.892041 1.65603 0
M  V30 10906 O 1050.46 -1.59045 0.870309 0
M  V30 10907 C 1050.51 0.687759 3.53981 0
M  V30 10908 O 1049.61 -0.268275 4.11526 0
M  V30 10909 H 1048.95 0.201864 0.632572 0
M  V30 10910 H 1051.48 1.18697 1.6665 0
M  V30 10911 H 1051.49 0.585095 4.03783 0
M  V30 10912 H 1050.17 1.71068 3.79089 0
M  V30 10913 H 1048.74 -0.119673 3.72708 0
M  V30 10914 N 1050.93 -1.4397 0.641131 0
M  V30 10915 C 1051.86 -2.28997 -0.0963315 0
M  V30 10916 C 1052.87 -1.4184 -0.799071 0
M  V30 10917 O 1054.06 -1.65896 -0.658846 0
M  V30 10918 C 1051.16 -3.18465 -1.15903 0
M  V30 10919 C 1050.34 -4.34093 -0.536828 0
M  V30 10920 C 1049.4 -5.04522 -1.4948 0
M  V30 10921 O 1048.42 -5.60202 -1.00807 0
M  V30 10922 N 1049.62 -5.06899 -2.82901 0
M  V30 10923 H 1052.39 -2.9293 0.633422 0
M  V30 10924 H 1049.95 -1.54527 0.48302 0
M  V30 10925 H 1051.94 -3.62445 -1.80044 0
M  V30 10926 H 1050.51 -2.56214 -1.79089 0
M  V30 10927 H 1049.73 -3.9318 0.283414 0
M  V30 10928 H 1051.02 -5.08698 -0.101966 0
M  V30 10929 H 1050.42 -4.63012 -3.25017 0
M  V30 10930 H 1048.97 -5.54637 -3.42376 0
M  V30 10931 N 1052.41 -0.382291 -1.52893 0
M  V30 10932 C 1053.34 0.447829 -2.29165 0
M  V30 10933 C 1054.32 1.06956 -1.32267 0
M  V30 10934 O 1055.5 1.08365 -1.61154 0
M  V30 10935 C 1052.63 1.57902 -3.09329 0
M  V30 10936 C 1051.59 1.08369 -4.14053 0
M  V30 10937 C 1050.91 2.30641 -4.82399 0
M  V30 10938 C 1052.21 0.156591 -5.22065 0
M  V30 10939 H 1053.91 -0.188541 -2.98806 0
M  V30 10940 H 1051.45 -0.0921179 -1.43705 0
M  V30 10941 H 1053.41 2.16652 -3.61442 0
M  V30 10942 H 1052.13 2.24287 -2.37409 0
M  V30 10943 H 1050.79 0.518772 -3.62911 0
M  V30 10944 H 1050.44 2.9552 -4.07034 0
M  V30 10945 H 1050.14 1.98163 -5.53177 0
M  V30 10946 H 1051.66 2.90047 -5.37313 0
M  V30 10947 H 1053.08 0.652065 -5.6958 0
M  V30 10948 H 1051.47 -0.0780978 -6.00049 0
M  V30 10949 H 1052.54 -0.796529 -4.78313 0
M  V30 10950 N 1053.89 1.57202 -0.111913 0
M  V30 10951 C 1054.83 2.14936 0.840908 0
M  V30 10952 C 1055.8 1.07242 1.2684 0
M  V30 10953 O 1056.99 1.35114 1.34718 0
M  V30 10954 C 1054.13 2.74743 2.0883 0
M  V30 10955 C 1053.24 3.96723 1.70982 0
M  V30 10956 C 1052.38 4.4464 2.90634 0
M  V30 10957 C 1051.41 5.59169 2.48992 0
M  V30 10958 N 1050.55 6.01862 3.61534 0
M  V30 10959 H 1055.39 2.96034 0.341735 0
M  V30 10960 H 1052.93 1.4626 0.156993 0
M  V30 10961 H 1054.89 3.07546 2.81907 0
M  V30 10962 H 1053.52 1.96346 2.56218 0
M  V30 10963 H 1052.57 3.70127 0.878072 0
M  V30 10964 H 1053.88 4.79795 1.36373 0
M  V30 10965 H 1053.03 4.79315 3.71944 0
M  V30 10966 H 1051.77 3.60503 3.28464 0
M  V30 10967 H 1050.78 5.24106 1.66113 0
M  V30 10968 H 1052 6.45067 2.12287 0
M  V30 10969 H 1049.95 5.20667 3.99051 0
M  V30 10970 H 1049.87 6.79772 3.30827 0
M  V30 10971 H 1051.13 6.41172 4.43305 0
M  V30 10972 N 1055.36 -0.161842 1.56767 0
M  V30 10973 C 1056.64 -0.904754 1.73417 0
M  V30 10974 C 1057.02 -1.99987 0.675908 0
M  V30 10975 O 1056.37 -2.26419 -0.307712 0
M  V30 10976 C 1056.58 -1.46082 3.16956 0
M  V30 10977 C 1057.93 -1.93004 3.78199 0
M  V30 10978 O 1058.95 -1.55856 3.20293 0
M  V30 10979 O 1057.81 -2.61465 4.79894 0
M  V30 10980 H 1054.9 -0.426518 0.708528 0
M  V30 10981 H 1057.45 -0.148928 1.69045 0
M  V30 10982 H 1056.22 -0.673087 3.85468 0
M  V30 10983 H 1055.84 -2.28056 3.25693 0
M  V30 10984 N 1056.84 -1.516 -0.430713 0
M  V30 10985 C 1058.07 -1.687 -1.20644 0
M  V30 10986 C 1058.49 -0.386555 -1.84085 0
M  V30 10987 O 1057.85 0.653952 -1.69095 0
M  V30 10988 C 1057.9 -2.80887 -2.2613 0
M  V30 10989 O 1057 -2.44952 -3.31772 0
M  V30 10990 H 1056.34 -0.562289 -0.353167 0
M  V30 10991 H 1058.87 -1.98198 -0.507807 0
M  V30 10992 H 1058.88 -3.05167 -2.70809 0
M  V30 10993 H 1057.56 -3.75249 -1.79334 0
M  V30 10994 H 1056.13 -2.31267 -2.92523 0
M  V30 10995 N 1058.32 0.686584 -1.41858 0
M  V30 10996 C 1059.23 1.83002 -1.46791 0
M  V30 10997 C 1060.25 1.70284 -0.357675 0
M  V30 10998 O 1061.42 1.92042 -0.606781 0
M  V30 10999 C 1058.49 3.19056 -1.35661 0
M  V30 11000 C 1057.55 3.43817 -2.57077 0
M  V30 11001 C 1056.78 4.7338 -2.46469 0
M  V30 11002 O 1057 5.50483 -1.49413 0
M  V30 11003 O 1055.94 4.99124 -3.36391 0
M  V30 11004 H 1059.76 1.81797 -2.43277 0
M  V30 11005 H 1057.35 0.840812 -1.23494 0
M  V30 11006 H 1059.23 4.00267 -1.31773 0
M  V30 11007 H 1057.91 3.20925 -0.422951 0
M  V30 11008 H 1056.81 2.625 -2.66541 0
M  V30 11009 H 1058.15 3.4677 -3.49302 0
M  V30 11010 N 1059.8 1.27835 0.921735 0
M  V30 11011 C 1061.07 1.05238 1.64877 0
M  V30 11012 C 1061.45 -0.410921 2.07062 0
M  V30 11013 O 1060.8 -1.39538 1.80946 0
M  V30 11014 C 1061.01 2.01955 2.84632 0
M  V30 11015 C 1062.36 2.31657 3.55837 0
M  V30 11016 O 1063.38 1.99975 2.94768 0
M  V30 11017 O 1062.24 2.85692 4.65878 0
M  V30 11018 H 1059.34 0.401622 0.72293 0
M  V30 11019 H 1061.88 1.39123 0.971744 0
M  V30 11020 H 1060.66 3.00614 2.50494 0
M  V30 11021 H 1060.28 1.68667 3.60052 0
M  V30 11022 N 1061.28 -1.12907 1.09954 0
M  V30 11023 C 1062.5 -1.88679 0.861099 0
M  V30 11024 C 1062.93 -1.78853 -0.582499 0
M  V30 11025 O 1062.28 -1.13992 -1.4098 0
M  V30 11026 C 1062.33 -3.36047 1.30785 0
M  V30 11027 O 1061.44 -4.09716 0.469728 0
M  V30 11028 H 1060.78 -0.586447 0.31141 0
M  V30 11029 H 1063.31 -1.42818 1.46507 0
M  V30 11030 H 1063.32 -3.86882 1.29562 0
M  V30 11031 H 1061.99 -3.42516 2.35914 0
M  V30 11032 H 1060.57 -3.6887 0.54674 0
M  V30 11033 N 1062.75 -0.88754 -1.30232 0
M  V30 11034 C 1063.68 -0.372481 -2.3051 0
M  V30 11035 C 1064.66 0.546037 -1.61098 0
M  V30 11036 O 1065.85 0.459345 -1.88689 0
M  V30 11037 C 1062.98 0.411605 -3.44852 0
M  V30 11038 C 1061.93 -0.415383 -4.2598 0
M  V30 11039 C 1061.26 0.495463 -5.324 0
M  V30 11040 C 1062.56 -1.65886 -4.95257 0
M  V30 11041 H 1064.25 -1.21045 -2.7384 0
M  V30 11042 H 1061.8 -0.583498 -1.31648 0
M  V30 11043 H 1063.75 0.782584 -4.1407 0
M  V30 11044 H 1062.48 1.28325 -3.00334 0
M  V30 11045 H 1061.14 -0.768534 -3.58454 0
M  V30 11046 H 1060.78 1.36489 -4.84128 0
M  V30 11047 H 1060.48 -0.0540885 -5.87575 0
M  V30 11048 H 1062.01 0.862901 -6.04472 0
M  V30 11049 H 1063.42 -1.35832 -5.56976 0
M  V30 11050 H 1061.82 -2.14881 -5.60309 0
M  V30 11051 H 1062.89 -2.40181 -4.21237 0
M  V30 11052 N 1064.23 1.43628 -0.648757 0
M  V30 11053 C 1065.46 2.05918 -0.167701 0
M  V30 11054 C 1065.87 1.48681 1.17006 0
M  V30 11055 O 1065.21 0.610984 1.73242 0
M  V30 11056 C 1065.28 3.595 0.00265514 0
M  V30 11057 C 1064.94 4.39295 -1.2597 0
M  V30 11058 C 1065.94 4.71643 -2.18743 0
M  V30 11059 C 1063.62 4.79379 -1.50004 0
M  V30 11060 C 1065.62 5.42978 -3.33846 0
M  V30 11061 C 1063.3 5.50459 -2.65401 0
M  V30 11062 C 1064.3 5.82181 -3.57148 0
M  V30 11063 O 1063.99 6.5181 -4.7053 0
M  V30 11064 H 1063.72 0.670619 -0.0851261 0
M  V30 11065 H 1066.27 1.85196 -0.888351 0
M  V30 11066 H 1064.5 3.7878 0.77863 0
M  V30 11067 H 1066.19 4.03503 0.440501 0
M  V30 11068 H 1066.96 4.41199 -2.01416 0
M  V30 11069 H 1062.84 4.54098 -0.794745 0
M  V30 11070 H 1066.38 5.67656 -4.05479 0
M  V30 11071 H 1062.28 5.8032 -2.82664 0
M  V30 11072 H 1063.05 6.7029 -4.69738 0
M  V30 11073 N 1065.71 0.390394 1.52688 0
M  V30 11074 C 1066.66 -0.4591 2.28024 0
M  V30 11075 C 1067.65 -1.06212 1.31967 0
M  V30 11076 O 1068.86 -1.00247 1.49501 0
M  V30 11077 H 1065.23 -0.16681 0.733266 0
M  V30 11078 H 1067.2 0.197747 2.97744 0
M  V30 11079 C 1065.95 -1.5737 3.10048 0
M  V30 11080 H 1065.28 -1.11901 3.83821 0
M  V30 11081 H 1066.72 -2.1423 3.65898 0
M  V30 11082 C 1065.18 -2.53036 2.22429 0
M  V30 11083 O 1065.71 -3.5647 1.85181 0
M  V30 11084 N 1063.91 -2.22802 1.86567 0
M  V30 11085 H 1063.46 -1.38723 2.17057 0
M  V30 11086 H 1063.42 -2.87061 1.28233 0
M  V30 11087 N 1067.19 -1.57141 0.120249 0
M  V30 11088 C 1068.47 -1.8677 -0.581075 0
M  V30 11089 C 1068.85 -1.02163 -1.84732 0
M  V30 11090 O 1068.19 -0.100897 -2.28277 0
M  V30 11091 C 1068.4 -3.37923 -0.872316 0
M  V30 11092 C 1069.75 -4.0655 -1.22483 0
M  V30 11093 O 1070.78 -3.42948 -0.962539 0
M  V30 11094 O 1069.63 -5.18821 -1.71717 0
M  V30 11095 H 1066.73 -0.773219 -0.293362 0
M  V30 11096 H 1069.27 -1.68992 0.154846 0
M  V30 11097 H 1068.05 -3.91292 0.0249416 0
M  V30 11098 H 1067.67 -3.61135 -1.66335 0
M  V30 11099 N 1068.67 0.153526 -1.5685 0
M  V30 11100 C 1069.9 0.881055 -1.86872 0
M  V30 11101 C 1070.3 1.75547 -0.705692 0
M  V30 11102 O 1069.65 1.8064 0.333888 0
M  V30 11103 C 1069.71 1.79429 -3.11521 0
M  V30 11104 C 1069.37 1.0977 -4.43621 0
M  V30 11105 C 1070.37 0.454693 -5.17908 0
M  V30 11106 C 1068.06 1.08915 -4.9035 0
M  V30 11107 C 1070.05 -0.187562 -6.37124 0
M  V30 11108 C 1067.74 0.443084 -6.09492 0
M  V30 11109 C 1068.73 -0.194154 -6.82724 0
M  V30 11110 O 1068.42 -0.829995 -7.99604 0
M  V30 11111 H 1068.15 0.260486 -0.623797 0
M  V30 11112 H 1070.71 0.153024 -2.04829 0
M  V30 11113 H 1068.94 2.5631 -2.89555 0
M  V30 11114 H 1070.63 2.39321 -3.27842 0
M  V30 11115 H 1071.39 0.453151 -4.82878 0
M  V30 11116 H 1067.27 1.57456 -4.33276 0
M  V30 11117 H 1070.82 -0.685542 -6.94223 0
M  V30 11118 H 1066.71 0.44227 -6.43983 0
M  V30 11119 H 1067.48 -0.731013 -8.15229 0
M  V30 11120 N 1070.14 1.51827 0.422667 0
M  V30 11121 C 1071.39 1.65464 1.17258 0
M  V30 11122 C 1071.72 0.376834 1.90509 0
M  V30 11123 O 1071 -0.624219 1.84211 0
M  V30 11124 C 1071.28 2.86776 2.17788 0
M  V30 11125 C 1071.13 4.24571 1.48523 0
M  V30 11126 C 1072.45 3.03603 3.18611 0
M  V30 11127 H 1069.57 0.602169 0.424925 0
M  V30 11128 H 1072.21 1.84349 0.45996 0
M  V30 11129 H 1070.36 2.70806 2.78561 0
M  V30 11130 H 1072.04 4.5224 0.909739 0
M  V30 11131 H 1070.28 4.26595 0.787354 0
M  V30 11132 H 1070.95 5.05475 2.2181 0
M  V30 11133 H 1073.43 3.18381 2.67904 0
M  V30 11134 H 1072.3 3.90022 3.8623 0
M  V30 11135 H 1072.56 2.16318 3.85563 0
M  V30 11136 N 1071.62 -0.679052 1.4222 0
M  V30 11137 C 1072.9 -1.43473 1.32947 0
M  V30 11138 C 1073.28 -2.11071 -0.0351689 0
M  V30 11139 O 1072.63 -2.02925 -1.05042 0
M  V30 11140 C 1072.84 -2.44065 2.49466 0
M  V30 11141 C 1074.19 -3.08834 2.91387 0
M  V30 11142 O 1075.21 -2.54392 2.49325 0
M  V30 11143 O 1074.07 -4.07478 3.64175 0
M  V30 11144 H 1071.16 -0.639743 0.524078 0
M  V30 11145 H 1073.71 -0.708134 1.54219 0
M  V30 11146 H 1072.48 -1.92884 3.40457 0
M  V30 11147 H 1072.1 -3.24212 2.30158 0
M  V30 11148 N 1073.1 -1.28322 -0.914942 0
M  V30 11149 C 1074.35 -1.15578 -1.66642 0
M  V30 11150 C 1074.68 0.295209 -1.91943 0
M  V30 11151 O 1073.95 1.21482 -1.51896 0
M  V30 11152 C 1074.24 -1.9535 -3.02507 0
M  V30 11153 C 1074.09 -3.48504 -2.84367 0
M  V30 11154 C 1075.41 -1.76798 -4.03027 0
M  V30 11155 H 1072.53 -0.421234 -0.604757 0
M  V30 11156 H 1075.17 -1.57625 -1.06087 0
M  V30 11157 H 1073.32 -1.59619 -3.54195 0
M  V30 11158 H 1074.99 -3.94135 -2.39699 0
M  V30 11159 H 1073.24 -3.74198 -2.1945 0
M  V30 11160 H 1073.91 -3.99576 -3.80845 0
M  V30 11161 H 1076.38 -2.07977 -3.60395 0
M  V30 11162 H 1075.26 -2.34987 -4.96057 0
M  V30 11163 H 1075.52 -0.719162 -4.36211 0
M  V30 11164 N 1074.58 1.12322 -1.10551 0
M  V30 11165 C 1075.83 1.83858 -0.848674 0
M  V30 11166 C 1076.15 1.84159 0.62575 0
M  V30 11167 O 1075.41 1.28341 1.4774 0
M  V30 11168 C 1075.71 3.31177 -1.34375 0
M  V30 11169 C 1075.37 3.51046 -2.8298 0
M  V30 11170 C 1074.04 3.56177 -3.23561 0
M  V30 11171 C 1076.39 3.58061 -3.78737 0
M  V30 11172 C 1073.72 3.65868 -4.58647 0
M  V30 11173 C 1076.07 3.69283 -5.13627 0
M  V30 11174 C 1074.73 3.7267 -5.53781 0
M  V30 11175 H 1074 0.672784 -0.310552 0
M  V30 11176 H 1076.65 1.3253 -1.38232 0
M  V30 11177 H 1074.95 3.84937 -0.730144 0
M  V30 11178 H 1076.65 3.84998 -1.12148 0
M  V30 11179 H 1073.24 3.47716 -2.50582 0
M  V30 11180 H 1077.42 3.53366 -3.48491 0
M  V30 11181 H 1072.68 3.66763 -4.89178 0
M  V30 11182 H 1076.85 3.73654 -5.8767 0
M  V30 11183 H 1074.48 3.79932 -6.58449 0
M  V30 11184 N 1076.06 0.894434 1.2976 0
M  V30 11185 C 1077.29 0.532143 1.99629 0
M  V30 11186 C 1077.69 -0.886234 1.6716 0
M  V30 11187 O 1077.04 -1.59573 0.910065 0
M  V30 11188 C 1077.1 0.638335 3.53787 0
M  V30 11189 C 1076.76 2.02273 4.09798 0
M  V30 11190 C 1077.76 2.99327 4.25087 0
M  V30 11191 C 1075.45 2.33069 4.44954 0
M  V30 11192 C 1077.44 4.25304 4.74758 0
M  V30 11193 C 1075.13 3.59289 4.94322 0
M  V30 11194 C 1076.12 4.55222 5.09178 0
M  V30 11195 O 1075.81 5.79202 5.57477 0
M  V30 11196 H 1075.54 0.203326 0.644697 0
M  V30 11197 H 1078.1 1.2043 1.6639 0
M  V30 11198 H 1076.33 -0.0908338 3.86593 0
M  V30 11199 H 1078.02 0.285956 4.04891 0
M  V30 11200 H 1078.78 2.76849 3.9822 0
M  V30 11201 H 1074.66 1.59162 4.32653 0
M  V30 11202 H 1078.21 5.00189 4.86269 0
M  V30 11203 H 1074.1 3.816 5.20626 0
M  V30 11204 H 1074.87 5.81717 5.75802 0
M  V30 11205 N 1077.53 -1.43282 0.656365 0
M  V30 11206 C 1078.48 -2.32556 -0.0452037 0
M  V30 11207 C 1079.48 -1.48789 -0.80982 0
M  V30 11208 O 1080.68 -1.64979 -0.719865 0
M  V30 11209 H 1077.06 -0.751258 -0.0334043 0
M  V30 11210 H 1079.03 -2.89448 0.725423 0
M  V30 11211 C 1077.78 -3.33138 -0.995706 0
M  V30 11212 H 1077.1 -3.97622 -0.416774 0
M  V30 11213 H 1078.54 -3.98231 -1.45562 0
M  V30 11214 C 1077 -2.63978 -2.09325 0
M  V30 11215 O 1077.53 -2.45769 -3.17743 0
M  V30 11216 N 1075.74 -2.23301 -1.8597 0
M  V30 11217 H 1075.28 -2.38312 -0.97802 0
M  V30 11218 H 1075.24 -1.77358 -2.59599 0
M  V30 11219 N 1079.01 -0.398486 -1.52479 0
M  V30 11220 C 1080.24 0.180557 -2.06111 0
M  V30 11221 C 1080.66 1.39751 -1.26945 0
M  V30 11222 O 1080.01 1.79699 -0.318497 0
M  V30 11223 C 1080.06 0.541573 -3.5742 0
M  V30 11224 O 1079.79 -0.627043 -4.33589 0
M  V30 11225 C 1081.29 1.17549 -4.27431 0
M  V30 11226 H 1078.51 0.0250754 -0.670531 0
M  V30 11227 H 1081.05 -0.566368 -1.96501 0
M  V30 11228 H 1079.21 1.23839 -3.67073 0
M  V30 11229 H 1079.62 -0.328233 -5.23472 0
M  V30 11230 H 1081.09 1.37839 -5.34513 0
M  V30 11231 H 1081.57 2.14553 -3.83228 0
M  V30 11232 H 1082.18 0.51918 -4.22119 0
M  V30 11233 N 1080.49 1.57075 -0.12858 0
M  V30 11234 C 1081.44 2.15816 0.818064 0
M  V30 11235 C 1082.41 1.08581 1.25696 0
M  V30 11236 O 1083.59 1.36535 1.33277 0
M  V30 11237 C 1080.73 2.76943 2.05905 0
M  V30 11238 C 1079.85 3.98514 1.66764 0
M  V30 11239 C 1078.98 4.47698 2.85902 0
M  V30 11240 C 1078.02 5.61778 2.43047 0
M  V30 11241 N 1077.16 6.05662 3.5513 0
M  V30 11242 H 1082 2.9638 0.310318 0
M  V30 11243 H 1079.53 1.46418 0.141472 0
M  V30 11244 H 1081.49 3.10519 2.78629 0
M  V30 11245 H 1080.12 1.99053 2.54122 0
M  V30 11246 H 1079.17 3.71038 0.838766 0
M  V30 11247 H 1080.49 4.81215 1.31277 0
M  V30 11248 H 1079.64 4.83233 3.66839 0
M  V30 11249 H 1078.38 3.63967 3.24622 0
M  V30 11250 H 1077.38 5.25838 1.60544 0
M  V30 11251 H 1078.61 6.47282 2.05433 0
M  V30 11252 H 1076.56 5.2487 3.93506 0
M  V30 11253 H 1076.47 6.83242 3.23598 0
M  V30 11254 H 1077.74 6.45838 4.36479 0
M  V30 11255 N 1081.97 -0.145205 1.5693 0
M  V30 11256 C 1083.38 -0.705089 1.72874 0
M  V30 11257 C 1083.73 -1.81577 0.743261 0
M  V30 11258 O 1082.86 -2.16214 -0.0897153 0
M  V30 11259 C 1083.45 -1.28578 3.13454 0
M  V30 11260 C 1082.01 -1.79221 3.30994 0
M  V30 11261 C 1081.16 -0.681392 2.68798 0
M  V30 11262 H 1084.11 0.0804798 1.58496 0
M  V30 11263 H 1084.13 -2.15558 3.13552 0
M  V30 11264 H 1083.64 -0.477186 3.85155 0
M  V30 11265 H 1081.74 -2.62642 2.64292 0
M  V30 11266 H 1081.86 -1.91969 4.38959 0
M  V30 11267 H 1080.22 -1.10847 2.29314 0
M  V30 11268 H 1081 0.115786 3.43105 0
M  V30 11269 N 1083.45 -1.52049 -0.414609 0
M  V30 11270 C 1084.68 -1.69433 -1.18221 0
M  V30 11271 C 1085.09 -0.40104 -1.84901 0
M  V30 11272 O 1084.43 0.632342 -1.72474 0
M  V30 11273 C 1084.49 -2.76986 -2.2917 0
M  V30 11274 C 1084.15 -4.18903 -1.82671 0
M  V30 11275 C 1085.15 -5.02929 -1.31751 0
M  V30 11276 C 1082.84 -4.65113 -1.89672 0
M  V30 11277 C 1084.83 -6.31234 -0.884461 0
M  V30 11278 C 1082.52 -5.93408 -1.45978 0
M  V30 11279 C 1083.52 -6.76297 -0.9545 0
M  V30 11280 O 1083.2 -8.02191 -0.523852 0
M  V30 11281 H 1082.94 -0.571228 -0.36149 0
M  V30 11282 H 1085.49 -1.99355 -0.494643 0
M  V30 11283 H 1083.72 -2.42428 -3.01273 0
M  V30 11284 H 1085.41 -2.83023 -2.90951 0
M  V30 11285 H 1086.17 -4.68422 -1.2572 0
M  V30 11286 H 1082.05 -4.00702 -2.27945 0
M  V30 11287 H 1085.6 -6.95881 -0.489383 0
M  V30 11288 H 1081.49 -6.27424 -1.51687 0
M  V30 11289 H 1082.26 -8.15934 -0.647656 0
M  V30 11290 N 1084.93 0.6715 -1.42579 0
M  V30 11291 C 1085.87 1.78496 -1.46314 0
M  V30 11292 C 1086.84 1.63091 -0.314743 0
M  V30 11293 O 1088.03 1.83597 -0.519292 0
M  V30 11294 C 1085.17 3.16548 -1.37447 0
M  V30 11295 C 1084.28 3.43216 -2.62348 0
M  V30 11296 C 1083.42 4.71014 -2.456 0
M  V30 11297 C 1082.45 4.90728 -3.65859 0
M  V30 11298 N 1081.59 6.09769 -3.48032 0
M  V30 11299 H 1086.43 1.74638 -2.41466 0
M  V30 11300 H 1083.97 0.852491 -1.19879 0
M  V30 11301 H 1085.93 3.96329 -1.30303 0
M  V30 11302 H 1084.56 3.19522 -0.458891 0
M  V30 11303 H 1083.61 2.57664 -2.79846 0
M  V30 11304 H 1084.92 3.53675 -3.51732 0
M  V30 11305 H 1084.07 5.58892 -2.3606 0
M  V30 11306 H 1082.81 4.62843 -1.53712 0
M  V30 11307 H 1081.82 4.01291 -3.75827 0
M  V30 11308 H 1083.04 5.00741 -4.58732 0
M  V30 11309 H 1080.99 6.02765 -2.58864 0
M  V30 11310 H 1080.91 6.21104 -4.31005 0
M  V30 11311 H 1082.17 7.00317 -3.42311 0
M  V30 11312 N 1086.4 1.28806 0.908124 0
M  V30 11313 C 1087.35 1.09849 1.99793 0
M  V30 11314 C 1088.34 0.0204321 1.60887 0
M  V30 11315 O 1089.53 0.241204 1.75349 0
M  V30 11316 C 1086.66 0.768263 3.34593 0
M  V30 11317 C 1085.74 1.88544 3.79884 0
M  V30 11318 N 1086.14 3.12784 3.97492 0
M  V30 11319 C 1084.43 1.77657 4.09089 0
M  V30 11320 C 1085.13 3.85615 4.35518 0
M  V30 11321 N 1084.11 3.13501 4.44092 0
M  V30 11322 H 1087.91 2.04108 2.11464 0
M  V30 11323 H 1085.43 1.19807 1.09636 0
M  V30 11324 H 1087.42 0.613521 4.12361 0
M  V30 11325 H 1086.08 -0.166501 3.24273 0
M  V30 11326 H 1087.09 3.48333 3.83255 0
M  V30 11327 H 1083.77 0.913956 4.07373 0
M  V30 11328 H 1085.16 4.92492 4.57057 0
M  V30 11329 N 1087.88 -1.11734 1.11145 0
M  V30 11330 C 1089.3 -1.35412 0.844736 0
M  V30 11331 C 1089.5 -1.94347 -0.532111 0
M  V30 11332 O 1088.55 -2.17443 -1.28353 0
M  V30 11333 C 1089.87 -2.28869 1.95037 0
M  V30 11334 C 1091.41 -2.42442 1.97967 0
M  V30 11335 C 1091.89 -3.39219 3.07725 0
M  V30 11336 N 1093.38 -3.4678 3.07079 0
M  V30 11337 C 1094.12 -4.21595 3.88646 0
M  V30 11338 N 1093.61 -4.99411 4.80167 0
M  V30 11339 N 1095.4 -4.17075 3.76835 0
M  V30 11340 H 1087.56 -0.718412 1.99881 0
M  V30 11341 H 1089.82 -0.378787 0.869037 0
M  V30 11342 H 1089.52 -1.92752 2.94176 0
M  V30 11343 H 1089.4 -3.2906 1.84389 0
M  V30 11344 H 1091.79 -2.77835 0.994561 0
M  V30 11345 H 1091.87 -1.42113 2.12691 0
M  V30 11346 H 1091.51 -3.04553 4.0646 0
M  V30 11347 H 1091.44 -4.39394 2.90242 0
M  V30 11348 H 1093.93 -2.91272 2.40767 0
M  V30 11349 H 1094.24 -5.53856 5.38946 0
M  V30 11350 H 1092.59 -4.98582 4.84191 0
M  V30 11351 H 1095.78 -3.55369 3.04681 0
M  V30 11352 H 1095.95 -4.75125 4.40637 0
M  V30 11353 N 1089.36 -0.901303 -1.29284 0
M  V30 11354 C 1090.64 -0.44747 -1.90413 0
M  V30 11355 C 1091.02 1.07298 -1.81797 0
M  V30 11356 O 1090.36 1.91555 -1.24574 0
M  V30 11357 C 1090.57 -0.963849 -3.35427 0
M  V30 11358 C 1091.92 -1.00851 -4.12449 0
M  V30 11359 O 1092.95 -0.91163 -3.44337 0
M  V30 11360 O 1091.81 -1.15426 -5.34171 0
M  V30 11361 H 1088.9 -0.13976 -0.815105 0
M  V30 11362 H 1091.45 -0.991274 -1.37738 0
M  V30 11363 H 1090.22 -2.00782 -3.3586 0
M  V30 11364 H 1089.84 -0.400149 -3.95581 0
M  V30 11365 N 1090.84 1.42931 -0.663954 0
M  V30 11366 C 1092.11 1.95284 -0.111174 0
M  V30 11367 C 1092.49 1.60484 1.37142 0
M  V30 11368 O 1091.84 0.895425 2.10225 0
M  V30 11369 C 1092.05 3.47046 -0.368789 0
M  V30 11370 C 1093.4 4.23679 -0.279473 0
M  V30 11371 O 1094.42 3.54918 -0.301937 0
M  V30 11372 O 1093.28 5.46087 -0.21236 0
M  V30 11373 H 1090.38 0.826993 0.00341718 0
M  V30 11374 H 1092.92 1.52816 -0.737935 0
M  V30 11375 H 1091.7 3.65541 -1.39626 0
M  V30 11376 H 1091.32 3.96537 0.290514 0
M  V30 11377 N 1092.32 0.406567 1.52266 0
M  V30 11378 C 1093.73 0.0573228 1.59497 0
M  V30 11379 C 1093.93 -1.43005 1.41957 0
M  V30 11380 O 1092.99 -2.19659 1.24523 0
M  V30 11381 C 1094.3 0.549947 2.95628 0
M  V30 11382 C 1095.85 0.5077 3.08855 0
M  V30 11383 C 1096.32 0.976792 4.47463 0
M  V30 11384 N 1097.81 0.933508 4.53696 0
M  V30 11385 C 1098.55 1.26769 5.59211 0
M  V30 11386 N 1098.05 1.6732 6.72292 0
M  V30 11387 N 1099.84 1.18782 5.49406 0
M  V30 11388 H 1091.99 1.37468 1.61914 0
M  V30 11389 H 1094.25 0.564562 0.76156 0
M  V30 11390 H 1093.96 1.58943 3.13736 0
M  V30 11391 H 1093.83 -0.0417767 3.77177 0
M  V30 11392 H 1096.22 -0.522728 2.90433 0
M  V30 11393 H 1096.3 1.13545 2.29219 0
M  V30 11394 H 1095.94 2.00554 4.66627 0
M  V30 11395 H 1095.87 0.325885 5.25591 0
M  V30 11396 H 1098.37 0.635333 3.72521 0
M  V30 11397 H 1098.68 1.91137 7.4879 0
M  V30 11398 H 1097.02 1.71221 6.73579 0
M  V30 11399 H 1100.21 0.869906 4.59946 0
M  V30 11400 H 1100.39 1.45157 6.31533 0
M  V30 11401 N 1093.79 -1.57004 0.136909 0
M  V30 11402 C 1094.72 -2.19262 -0.802902 0
M  V30 11403 C 1095.71 -1.13786 -1.26439 0
M  V30 11404 O 1096.89 -1.42091 -1.32377 0
M  V30 11405 C 1094.02 -2.80624 -2.04615 0
M  V30 11406 C 1092.97 -3.91839 -1.72181 0
M  V30 11407 C 1092.3 -4.4009 -3.03686 0
M  V30 11408 C 1093.6 -5.13095 -0.976249 0
M  V30 11409 H 1095.29 -2.98049 -0.28406 0
M  V30 11410 H 1092.84 -1.43364 -0.135189 0
M  V30 11411 H 1094.79 -3.22842 -2.70834 0
M  V30 11412 H 1093.52 -1.99153 -2.58855 0
M  V30 11413 H 1092.18 -3.50224 -1.08344 0
M  V30 11414 H 1091.82 -3.55454 -3.55896 0
M  V30 11415 H 1091.52 -5.15098 -2.82751 0
M  V30 11416 H 1093.05 -4.84971 -3.70993 0
M  V30 11417 H 1094.46 -5.5222 -1.54033 0
M  V30 11418 H 1092.86 -5.93801 -0.867214 0
M  V30 11419 H 1093.93 -4.84888 0.0338488 0
M  V30 11420 N 1095.27 0.136881 -1.57004 0
M  V30 11421 C 1096.2 1.17026 -2.02057 0
M  V30 11422 C 1097.18 1.44223 -0.901866 0
M  V30 11423 O 1098.37 1.54971 -1.17037 0
M  V30 11424 C 1095.5 2.50095 -2.40977 0
M  V30 11425 C 1094.45 2.37398 -3.56127 0
M  V30 11426 C 1093.78 3.75268 -3.80891 0
M  V30 11427 C 1095.08 1.84952 -4.88457 0
M  V30 11428 H 1096.77 0.795601 -2.88636 0
M  V30 11429 H 1094.32 0.381266 -1.38861 0
M  V30 11430 H 1096.27 3.22621 -2.71097 0
M  V30 11431 H 1095 2.89416 -1.51348 0
M  V30 11432 H 1093.65 1.67322 -3.26188 0
M  V30 11433 H 1093.3 4.12043 -2.88496 0
M  V30 11434 H 1093 3.67631 -4.5839 0
M  V30 11435 H 1094.53 4.49327 -4.13446 0
M  V30 11436 H 1095.94 2.4728 -5.17229 0
M  V30 11437 H 1094.34 1.88181 -5.69832 0
M  V30 11438 H 1095.41 0.805848 -4.78157 0
M  V30 11439 N 1096.75 1.52266 0.40654 0
M  V30 11440 C 1097.68 1.72025 1.51459 0
M  V30 11441 C 1098.7 0.600667 1.51314 0
M  V30 11442 O 1099.88 0.875894 1.55532 0
M  V30 11443 C 1096.98 1.7479 2.90348 0
M  V30 11444 C 1096.16 3.03826 3.14656 0
M  V30 11445 C 1095.22 2.98369 4.33431 0
M  V30 11446 O 1094.24 3.7227 4.30586 0
M  V30 11447 N 1095.44 2.16338 5.38682 0
M  V30 11448 H 1098.21 2.67622 1.34903 0
M  V30 11449 H 1095.77 1.50536 0.595867 0
M  V30 11450 H 1097.76 1.68667 3.67877 0
M  V30 11451 H 1096.33 0.86656 3.00349 0
M  V30 11452 H 1095.55 3.23577 2.25148 0
M  V30 11453 H 1096.84 3.89182 3.27742 0
M  V30 11454 H 1096.24 1.55731 5.43842 0
M  V30 11455 H 1094.8 2.1607 6.14945 0
M  V30 11456 N 1098.23 -0.663929 1.42933 0
M  V30 11457 C 1099.19 -1.75899 1.46943 0
M  V30 11458 C 1100.19 -1.5682 0.355535 0
M  V30 11459 O 1101.38 -1.62914 0.616833 0
M  V30 11460 C 1098.51 -3.14657 1.31164 0
M  V30 11461 H 1099.71 -1.73727 2.44456 0
M  V30 11462 H 1097.26 -0.874587 1.2954 0
M  V30 11463 H 1097.99 -3.22447 0.346165 0
M  V30 11464 H 1097.78 -3.29909 2.11902 0
M  V30 11465 H 1099.27 -3.9453 1.36878 0
M  V30 11466 N 1099.71 -1.29285 -0.901281 0
M  V30 11467 C 1100.64 -1.16832 -2.0217 0
M  V30 11468 C 1101.62 -0.0629265 -1.69984 0
M  V30 11469 O 1102.8 -0.242123 -1.92685 0
M  V30 11470 C 1099.93 -0.842406 -3.36929 0
M  V30 11471 C 1098.89 -1.90394 -3.8332 0
M  V30 11472 C 1098.21 -1.43138 -5.15185 0
M  V30 11473 C 1099.51 -3.31254 -4.03817 0
M  V30 11474 H 1101.21 -2.10562 -2.12847 0
M  V30 11475 H 1098.75 -1.01375 -1.0227 0
M  V30 11476 H 1100.71 -0.741999 -4.14816 0
M  V30 11477 H 1099.43 0.130598 -3.26339 0
M  V30 11478 H 1098.09 -1.99371 -3.07647 0
M  V30 11479 H 1097.74 -0.447091 -5.01009 0
M  V30 11480 H 1097.44 -2.14129 -5.47195 0
M  V30 11481 H 1098.96 -1.34444 -5.95615 0
M  V30 11482 H 1100.37 -3.25129 -4.72191 0
M  V30 11483 H 1098.77 -4.00189 -4.47178 0
M  V30 11484 H 1099.84 -3.74349 -3.08206 0
M  V30 11485 N 1101.18 1.11143 -1.11736 0
M  V30 11486 C 1102.43 1.83219 -0.869413 0
M  V30 11487 C 1102.76 1.84588 0.603402 0
M  V30 11488 O 1102.04 1.30119 1.44566 0
M  V30 11489 C 1102.32 3.30247 -1.43559 0
M  V30 11490 C 1102.17 3.37253 -2.97624 0
M  V30 11491 C 1103.49 4.26412 -1.08907 0
M  V30 11492 H 1100.61 0.665205 -0.317286 0
M  V30 11493 H 1103.25 1.30307 -1.38275 0
M  V30 11494 H 1101.4 3.75437 -0.998978 0
M  V30 11495 H 1103.08 3.00599 -3.49911 0
M  V30 11496 H 1101.32 2.77378 -3.33532 0
M  V30 11497 H 1101.99 4.40752 -3.32328 0
M  V30 11498 H 1104.47 3.89418 -1.46604 0
M  V30 11499 H 1103.34 5.27666 -1.51195 0
M  V30 11500 H 1103.6 4.421 -0.000259009 0
M  V30 11501 N 1102.66 0.908147 1.28804 0
M  V30 11502 C 1103.94 0.457561 1.90173 0
M  V30 11503 C 1104.32 -1.06333 1.82364 0
M  V30 11504 O 1103.67 -1.90892 1.25589 0
M  V30 11505 C 1103.88 0.981624 3.34911 0
M  V30 11506 C 1105.23 1.03037 4.11908 0
M  V30 11507 O 1106.25 0.929878 3.43848 0
M  V30 11508 O 1105.11 1.18257 5.33552 0
M  V30 11509 H 1102.2 0.144081 0.814352 0
M  V30 11510 H 1104.75 0.998565 1.37211 0
M  V30 11511 H 1103.52 2.02561 3.34791 0
M  V30 11512 H 1103.14 0.421122 3.95364 0
M  V30 11513 N 1104.14 -1.42577 0.671525 0
M  V30 11514 C 1105.39 -2.00806 0.189663 0
M  V30 11515 C 1105.7 -1.537 -1.20978 0
M  V30 11516 O 1106.91 -2.04325 -1.78784 0
M  V30 11517 C 1105.36 -3.58744 0.288227 0
M  V30 11518 C 1104.97 -4.14839 1.69152 0
M  V30 11519 C 1106.72 -4.24285 -0.13509 0
M  V30 11520 C 1104.62 -5.65131 1.74302 0
M  V30 11521 H 1103.55 -0.751004 0.067146 0
M  V30 11522 H 1106.2 -1.63338 0.83623 0
M  V30 11523 H 1104.59 -3.937 -0.426175 0
M  V30 11524 H 1105.76 -3.91349 2.43274 0
M  V30 11525 H 1104.08 -3.61738 2.0624 0
M  V30 11526 H 1106.67 -5.34573 -0.116709 0
M  V30 11527 H 1107.02 -3.99527 -1.16977 0
M  V30 11528 H 1107.55 -3.94278 0.528191 0
M  V30 11529 H 1104.29 -5.94682 2.75742 0
M  V30 11530 H 1103.81 -5.90621 1.04531 0
M  V30 11531 H 1105.49 -6.29491 1.49498 0
M  V30 11532 N 1105.62 -0.414636 -1.52048 0
M  V30 11533 C 1106.55 0.399119 -2.30064 0
M  V30 11534 C 1107.53 1.04126 -1.34506 0
M  V30 11535 O 1108.71 1.04923 -1.63416 0
M  V30 11536 C 1105.84 1.51305 -3.12608 0
M  V30 11537 C 1104.8 0.995621 -4.16259 0
M  V30 11538 C 1104.12 2.20357 -4.87183 0
M  V30 11539 C 1105.42 0.0458178 -5.2228 0
M  V30 11540 H 1107.12 -0.251879 -2.98339 0
M  V30 11541 H 1104.66 -0.122579 -1.43477 0
M  V30 11542 H 1106.62 2.08936 -3.65956 0
M  V30 11543 H 1105.34 2.19201 -2.42113 0
M  V30 11544 H 1104 0.441676 -3.6393 0
M  V30 11545 H 1103.65 2.8682 -4.13211 0
M  V30 11546 H 1103.35 1.86385 -5.57256 0
M  V30 11547 H 1104.87 2.78584 -5.43345 0
M  V30 11548 H 1106.29 0.531102 -5.70835 0
M  V30 11549 H 1104.68 -0.20536 -5.99749 0
M  V30 11550 H 1105.75 -0.897807 -4.76516 0
M  V30 11551 N 1107.1 1.56929 -0.145233 0
M  V30 11552 C 1108.04 2.17958 0.812237 0
M  V30 11553 C 1109.04 1.13608 1.25657 0
M  V30 11554 O 1110.24 1.31861 1.22526 0
M  V30 11555 H 1106.62 0.697876 0.28013 0
M  V30 11556 H 1108.59 2.97146 0.273297 0
M  V30 11557 C 1107.34 2.81418 2.04203 0
M  V30 11558 H 1106.66 3.61427 1.70911 0
M  V30 11559 H 1108.1 3.27624 2.69144 0
M  V30 11560 C 1106.56 1.79835 2.84888 0
M  V30 11561 O 1107.09 1.26773 3.81171 0
M  V30 11562 N 1105.3 1.49179 2.49387 0
M  V30 11563 H 1104.84 1.9252 1.71154 0
M  V30 11564 H 1104.8 0.81458 3.03664 0
M  V30 11565 N 1108.58 -0.128553 1.57075 0
M  V30 11566 C 1109.49 -1.17718 2.02927 0
M  V30 11567 C 1110.5 -1.45912 0.947932 0
M  V30 11568 O 1111.68 -1.57217 1.25876 0
M  V30 11569 C 1108.74 -2.48625 2.41633 0
M  V30 11570 C 1107.8 -2.27914 3.63804 0
M  V30 11571 C 1107.04 -3.52579 4.00654 0
M  V30 11572 O 1107.26 -4.59505 3.37952 0
M  V30 11573 O 1106.19 -3.44147 4.93808 0
M  V30 11574 H 1110.02 -0.817846 2.92481 0
M  V30 11575 H 1107.6 -0.338649 1.45511 0
M  V30 11576 H 1109.49 -3.2577 2.67305 0
M  V30 11577 H 1108.16 -2.84052 1.55229 0
M  V30 11578 H 1107.07 -1.4866 3.43294 0
M  V30 11579 H 1108.4 -1.97395 4.50883 0
M  V30 11580 N 1110.05 -1.5248 -0.398459 0
M  V30 11581 C 1110.96 -1.79492 -1.51062 0
M  V30 11582 C 1111.98 -0.681101 -1.60116 0
M  V30 11583 O 1113.16 -0.967671 -1.7663 0
M  V30 11584 C 1110.22 -1.94958 -2.86692 0
M  V30 11585 C 1109.28 -3.1887 -2.87438 0
M  V30 11586 C 1108.51 -3.33588 -4.16599 0
M  V30 11587 O 1108.74 -2.53327 -5.11059 0
M  V30 11588 O 1107.67 -4.26795 -4.24416 0
M  V30 11589 H 1111.5 -2.73913 -1.31169 0
M  V30 11590 H 1109.08 -1.37455 -0.585372 0
M  V30 11591 H 1110.96 -2.06891 -3.67116 0
M  V30 11592 H 1109.64 -1.03726 -3.06631 0
M  V30 11593 H 1108.55 -3.12386 -2.0583 0
M  V30 11594 H 1109.88 -4.09917 -2.7245 0
M  V30 11595 N 1111.53 0.65634 -1.43283 0
M  V30 11596 C 1112.48 1.79058 -1.48462 0
M  V30 11597 C 1113.47 1.65563 -0.358512 0
M  V30 11598 O 1114.68 1.71947 -0.532365 0
M  V30 11599 H 1111.05 0.590716 -0.465358 0
M  V30 11600 H 1113.03 1.7181 -2.43975 0
M  V30 11601 C 1111.77 3.17304 -1.42175 0
M  V30 11602 H 1111.1 3.28324 -2.2813 0
M  V30 11603 H 1112.54 3.96633 -1.4986 0
M  V30 11604 C 1111 3.36613 -0.138929 0
M  V30 11605 O 1111.53 3.93633 0.80101 0
M  V30 11606 N 1109.73 2.90557 -0.0501237 0
M  V30 11607 H 1109.28 2.4434 -0.815821 0
M  V30 11608 H 1109.24 3.03853 0.807504 0
M  V30 11609 O 1113.05 1.40333 0.799307 0
M  V30 11610 H 1113.74 1.29035 1.44464 0
M  V30 END ATOM
M  V30 BEGIN BOND
M  V30 END BOND
M  V30 END CTAB
M  END
$$$$
